# generated using pymatgen
data_Sr7CaTi7MnO20
_symmetry_space_group_name_H-M   'P 1'
_cell_length_a   11.23623963
_cell_length_b   11.36758186
_cell_length_c   17.68398454
_cell_angle_alpha   108.76562918
_cell_angle_beta   108.53107298
_cell_angle_gamma   89.99424321
_symmetry_Int_Tables_number   1
_chemical_formula_structural   Sr7CaTi7MnO20
_chemical_formula_sum   'Sr28 Ca4 Ti28 Mn4 O80'
_cell_volume   2014.63033460
_cell_formula_units_Z   4
loop_
 _symmetry_equiv_pos_site_id
 _symmetry_equiv_pos_as_xyz
  1  'x, y, z'
loop_
 _atom_site_type_symbol
 _atom_site_label
 _atom_site_symmetry_multiplicity
 _atom_site_fract_x
 _atom_site_fract_y
 _atom_site_fract_z
 _atom_site_occupancy
  Sr  Sr0  1  0.30445066  0.06005642  0.60684332  1
  Sr  Sr1  1  0.30633971  0.55965424  0.60892579  1
  Sr  Sr2  1  0.80295551  0.05574738  0.60767361  1
  Sr  Sr3  1  0.81022361  0.56433838  0.12033298  1
  Sr  Sr4  1  0.80477540  0.56746877  0.60952776  1
  Sr  Sr5  1  0.19049681  0.43747466  0.38182192  1
  Sr  Sr6  1  0.19646147  0.43848426  0.89015799  1
  Sr  Sr7  1  0.19270359  0.93668687  0.38250266  1
  Sr  Sr8  1  0.20127577  0.93731185  0.89527063  1
  Sr  Sr9  1  0.69222470  0.43656015  0.38283633  1
  Sr  Sr10  1  0.69338452  0.43786847  0.89193942  1
  Sr  Sr11  1  0.69077090  0.93735556  0.38021888  1
  Sr  Sr12  1  0.69843504  0.94235895  0.89400371  1
  Sr  Sr13  1  0.06163856  0.31169817  0.12167089  1
  Sr  Sr14  1  0.05636487  0.29928401  0.61003306  1
  Sr  Sr15  1  0.05535924  0.79164013  0.60400053  1
  Sr  Sr16  1  0.56230057  0.30827238  0.12081046  1
  Sr  Sr17  1  0.55176617  0.29883837  0.61086167  1
  Sr  Sr18  1  0.56057923  0.80646239  0.11888042  1
  Sr  Sr19  1  0.55193753  0.79832902  0.60641232  1
  Sr  Sr20  1  0.44411590  0.19601900  0.38428655  1
  Sr  Sr21  1  0.44734584  0.20414233  0.89487504  1
  Sr  Sr22  1  0.44099647  0.69391771  0.37906675  1
  Sr  Sr23  1  0.44822137  0.70266773  0.89270167  1
  Sr  Sr24  1  0.93833186  0.19062806  0.38114799  1
  Sr  Sr25  1  0.94521917  0.19861062  0.89411829  1
  Sr  Sr26  1  0.93910737  0.69169586  0.37845089  1
  Sr  Sr27  1  0.94483641  0.70913349  0.89069396  1
  Ca  Ca0  1  0.31361149  0.06399651  0.11193421  1
  Ca  Ca1  1  0.32030770  0.56748977  0.11301749  1
  Ca  Ca2  1  0.80428876  0.06166314  0.11311690  1
  Ca  Ca3  1  0.06306018  0.79187127  0.10991155  1
  Ti  Ti0  1  0.00790353  0.00534141  0.00770962  1
  Ti  Ti1  1  0.99860738  0.99675594  0.49439206  1
  Ti  Ti2  1  0.00563378  0.50227436  0.00461825  1
  Ti  Ti3  1  0.00046325  0.49753181  0.49959954  1
  Ti  Ti4  1  0.50419344  0.00240111  0.00295538  1
  Ti  Ti5  1  0.49915986  0.99819437  0.49616949  1
  Ti  Ti6  1  0.50301912  0.50113299  0.00070085  1
  Ti  Ti7  1  0.50192215  0.50073558  0.50065938  1
  Ti  Ti8  1  0.25500822  0.25338789  0.00787963  1
  Ti  Ti9  1  0.25148620  0.25009930  0.50034145  1
  Ti  Ti10  1  0.25178357  0.74925026  0.00109610  1
  Ti  Ti11  1  0.25006500  0.74862981  0.49758176  1
  Ti  Ti12  1  0.75464697  0.25018624  0.00485449  1
  Ti  Ti13  1  0.74863828  0.24763995  0.49720240  1
  Ti  Ti14  1  0.75621726  0.75145979  0.00271973  1
  Ti  Ti15  1  0.74900869  0.74970034  0.49601376  1
  Ti  Ti16  1  0.11392898  0.09928085  0.24614382  1
  Ti  Ti17  1  0.10593351  0.08488292  0.75068856  1
  Ti  Ti18  1  0.12096277  0.61159796  0.24896222  1
  Ti  Ti19  1  0.61250038  0.11408087  0.24856290  1
  Ti  Ti20  1  0.60140041  0.09826422  0.75075586  1
  Ti  Ti21  1  0.61969351  0.61971184  0.24852074  1
  Ti  Ti22  1  0.37568585  0.39019230  0.24956519  1
  Ti  Ti23  1  0.36534169  0.88557982  0.24599248  1
  Ti  Ti24  1  0.86640143  0.38553962  0.25006678  1
  Ti  Ti25  1  0.85515726  0.40951782  0.75137471  1
  Ti  Ti26  1  0.86464739  0.88805326  0.24724740  1
  Ti  Ti27  1  0.85550391  0.89552371  0.75087886  1
  Mn  Mn0  1  0.11491864  0.59512955  0.75065732  1
  Mn  Mn1  1  0.60875611  0.61056997  0.75186052  1
  Mn  Mn2  1  0.36038813  0.40607623  0.75093389  1
  Mn  Mn3  1  0.36151926  0.89901588  0.75054959  1
  O  O0  1  0.12274464  0.12216508  0.49293170  1
  O  O1  1  0.12443704  0.12127321  0.99182511  1
  O  O2  1  0.11991828  0.61898424  0.48781930  1
  O  O3  1  0.12110935  0.62223516  0.99260192  1
  O  O4  1  0.62342077  0.12374509  0.49730198  1
  O  O5  1  0.62457299  0.12252221  0.99672784  1
  O  O6  1  0.62166102  0.62123626  0.49165037  1
  O  O7  1  0.62639658  0.62540138  0.99717240  1
  O  O8  1  0.13261907  0.37981800  0.00989020  1
  O  O9  1  0.12726880  0.37424009  0.50229000  1
  O  O10  1  0.13510511  0.88148567  0.01432758  1
  O  O11  1  0.12835208  0.87747193  0.50582104  1
  O  O12  1  0.63389074  0.38042006  0.01269468  1
  O  O13  1  0.63056373  0.37872008  0.50929577  1
  O  O14  1  0.63876835  0.88681818  0.01655192  1
  O  O15  1  0.62701472  0.87737292  0.50432343  1
  O  O16  1  0.37086062  0.11991306  0.49047389  1
  O  O17  1  0.37307337  0.12142045  0.99507233  1
  O  O18  1  0.36941654  0.61828224  0.48602008  1
  O  O19  1  0.37278260  0.62022071  0.99453359  1
  O  O20  1  0.87247106  0.12111183  0.49498901  1
  O  O21  1  0.87545466  0.12148891  0.99889209  1
  O  O22  1  0.87136754  0.61967369  0.49057351  1
  O  O23  1  0.87506846  0.62161971  0.99276825  1
  O  O24  1  0.37998313  0.38109980  0.01119605  1
  O  O25  1  0.37603870  0.37561366  0.49961773  1
  O  O26  1  0.38203324  0.88333056  0.01418125  1
  O  O27  1  0.37614835  0.87648603  0.50205731  1
  O  O28  1  0.88166318  0.37828197  0.00836710  1
  O  O29  1  0.87748610  0.37789793  0.50677116  1
  O  O30  1  0.89014396  0.88465060  0.01826463  1
  O  O31  1  0.87819632  0.87767858  0.50369152  1
  O  O32  1  0.08332605  0.09565122  0.13336271  1
  O  O33  1  0.08001352  0.09183762  0.64304178  1
  O  O34  1  0.06697301  0.58738451  0.12965364  1
  O  O35  1  0.07030868  0.58263212  0.62626985  1
  O  O36  1  0.56150032  0.08531180  0.12952088  1
  O  O37  1  0.56573781  0.07972796  0.63374239  1
  O  O38  1  0.56077847  0.58351798  0.12792269  1
  O  O39  1  0.56101135  0.58186927  0.62339408  1
  O  O40  1  0.44152614  0.41481473  0.36725034  1
  O  O41  1  0.44867372  0.41736252  0.87612342  1
  O  O42  1  0.43479665  0.92457919  0.36788508  1
  O  O43  1  0.44251374  0.91658877  0.87422206  1
  O  O44  1  0.93403976  0.41237259  0.36907968  1
  O  O45  1  0.93782653  0.39827435  0.85840692  1
  O  O46  1  0.93814768  0.92529117  0.36915382  1
  O  O47  1  0.93642463  0.92242027  0.87034562  1
  O  O48  1  0.31319370  0.28664802  0.13070011  1
  O  O49  1  0.32307697  0.29617001  0.62422932  1
  O  O50  1  0.31328238  0.78382353  0.12871293  1
  O  O51  1  0.32076994  0.79424741  0.62682730  1
  O  O52  1  0.81763469  0.28720922  0.13218712  1
  O  O53  1  0.82981746  0.29222078  0.64452594  1
  O  O54  1  0.82255781  0.79321092  0.13113719  1
  O  O55  1  0.81999521  0.80547933  0.63263514  1
  O  O56  1  0.18456288  0.19413858  0.36420500  1
  O  O57  1  0.18989987  0.20028488  0.85771332  1
  O  O58  1  0.18235895  0.70449721  0.36835526  1
  O  O59  1  0.19238830  0.70920196  0.87444370  1
  O  O60  1  0.67832261  0.19553846  0.37187593  1
  O  O61  1  0.68687035  0.19678963  0.86842122  1
  O  O62  1  0.68036526  0.70075952  0.36960838  1
  O  O63  1  0.69597739  0.71506123  0.87906626  1
  O  O64  1  0.45791565  0.02432236  0.24121308  1
  O  O65  1  0.43736870  0.07141717  0.75131118  1
  O  O66  1  0.47496685  0.51635034  0.24152493  1
  O  O67  1  0.42947866  0.57565078  0.75163228  1
  O  O68  1  0.95962834  0.03291190  0.24064205  1
  O  O69  1  0.94352861  0.05365569  0.75164727  1
  O  O70  1  0.98638427  0.50614858  0.24766030  1
  O  O71  1  0.92957302  0.55161428  0.75096920  1
  O  O72  1  0.23370997  0.48200993  0.25066923  1
  O  O73  1  0.17860228  0.42648741  0.75041516  1
  O  O74  1  0.20486676  0.95580409  0.24105282  1
  O  O75  1  0.17482789  0.93676877  0.75016521  1
  O  O76  1  0.73837413  0.49660097  0.24898898  1
  O  O77  1  0.69626189  0.44411639  0.75184485  1
  O  O78  1  0.72643713  0.99021120  0.24977063  1
  O  O79  1  0.69099063  0.95287024  0.75047865  1
loop_
_geom_bond_atom_site_label_1
_geom_bond_atom_site_label_2
_geom_bond_distance
_geom_bond_site_symmetry_2
Ca0 O48 2.444737 1_555
Ca0 O26 2.521391 1_545
Ca0 O64 2.523096 1_555
Ca0 O10 2.608236 1_545
Ca0 O17 2.624682 1_554
Ca0 O36 2.704547 1_555
Ca0 O1 2.733727 1_554
Ca0 O32 2.739306 1_555
Ca1 O50 2.388644 1_555
Ca1 O24 2.548262 1_555
Ca1 O19 2.586605 1_554
Ca1 O66 2.619496 1_555
Ca1 O38 2.630572 1_555
Ca1 O8 2.716191 1_555
Ca1 O3 2.784645 1_554
Ca1 O34 2.954622 1_555
Ca2 O52 2.474165 1_555
Ca2 O14 2.474614 1_545
Ca2 O68 2.492221 1_555
Ca2 O30 2.578705 1_545
Ca2 O5 2.658306 1_554
Ca2 O21 2.663225 1_554
Ca2 O36 2.837475 1_555
Ca3 O34 2.457554 1_555
Ca3 O74 2.502200 1_555
Ca3 O10 2.554993 1_555
Ca3 O30 2.571328 1_455
Ca3 O3 2.594908 1_554
Ca3 O23 2.671841 1_454
Ca3 O50 2.729302 1_555
Ca3 O54 2.843385 1_455
Mn0 O73 2.045369 1_555
Mn0 O59 2.047875 1_555
Mn0 O35 2.051360 1_555
Mn0 O71 2.142699 1_455
Mn1 O67 2.051675 1_555
Mn1 O39 2.074556 1_555
Mn1 O63 2.076392 1_555
Mn1 O77 2.132262 1_555
Mn2 O73 2.053157 1_555
Mn2 O67 2.073055 1_555
Mn2 O41 2.079179 1_555
Mn2 O49 2.087835 1_555
Mn3 O51 2.025290 1_555
Mn3 O43 2.026082 1_555
Mn3 O65 2.131514 1_565
Mn3 O75 2.139448 1_555
O0 Ti9 1.995511 1_555
O0 Ti1 2.006377 1_445
O0 Sr0 2.650536 1_555
O0 Sr24 2.681948 1_455
O0 Sr14 2.682781 1_555
O0 Sr7 2.683886 1_545
O1 Ti8 1.987435 1_556
O1 Ti0 2.000629 1_556
O1 Sr25 2.564914 1_455
O1 Sr8 2.583277 1_545
O1 Sr13 2.878849 1_556
O2 Ti11 2.004126 1_555
O2 Ti3 2.028358 1_555
O2 Sr5 2.618388 1_555
O2 Sr15 2.636682 1_555
O2 Sr26 2.661191 1_455
O2 Sr1 2.739839 1_555
O3 Ti2 1.987541 1_556
O3 Ti10 1.995956 1_556
O3 Sr6 2.627137 1_555
O3 Sr27 2.650017 1_455
O4 Ti5 1.987714 1_545
O4 Ti13 1.991657 1_555
O4 Sr2 2.635176 1_555
O4 Sr17 2.664283 1_555
O4 Sr20 2.687938 1_555
O4 Sr11 2.742633 1_545
O5 Ti4 1.974349 1_556
O5 Ti12 1.998890 1_556
O5 Sr12 2.597576 1_545
O5 Sr21 2.620218 1_555
O5 Sr16 2.785246 1_556
O6 Ti7 1.997224 1_555
O6 Ti15 2.010907 1_555
O6 Sr4 2.654339 1_555
O6 Sr9 2.666262 1_555
O6 Sr19 2.677081 1_555
O6 Sr22 2.693754 1_555
O7 Ti14 2.002465 1_556
O7 Ti6 2.008316 1_556
O7 Sr23 2.623990 1_555
O7 Sr10 2.629025 1_555
O7 Sr18 2.752599 1_556
O7 Sr3 2.757656 1_556
O8 Ti8 1.988915 1_555
O8 Ti2 1.995208 1_555
O8 Sr13 2.670254 1_555
O8 Sr6 2.704908 1_554
O8 Sr25 2.723194 1_454
O9 Ti9 1.984839 1_555
O9 Ti3 1.999016 1_555
O9 Sr14 2.645856 1_555
O9 Sr1 2.660598 1_555
O9 Sr5 2.739938 1_555
O9 Sr24 2.772345 1_455
O10 Ti10 2.000359 1_555
O10 Ti0 2.009499 1_565
O10 Sr8 2.691283 1_554
O10 Sr27 2.731854 1_454
O11 Ti1 1.998362 1_455
O11 Ti11 2.006396 1_555
O11 Sr15 2.575710 1_555
O11 Sr0 2.604391 1_565
O11 Sr7 2.771012 1_555
O11 Sr26 2.819715 1_455
O12 Ti12 2.009746 1_555
O12 Ti6 2.019639 1_555
O12 Sr16 2.638508 1_555
O12 Sr3 2.638754 1_555
O12 Sr10 2.690378 1_554
O12 Sr21 2.699747 1_554
O13 Ti13 2.000280 1_555
O13 Ti7 2.007994 1_555
O13 Sr17 2.625787 1_555
O13 Sr4 2.631668 1_555
O13 Sr20 2.773515 1_555
O13 Sr9 2.800782 1_555
O14 Ti4 2.010570 1_565
O14 Ti14 2.032636 1_555
O14 Sr18 2.637237 1_555
O14 Sr12 2.710818 1_554
O14 Sr23 2.798816 1_554
O15 Ti5 1.991568 1_555
O15 Ti15 1.999333 1_555
O15 Sr2 2.584533 1_565
O15 Sr19 2.605791 1_555
O15 Sr22 2.776714 1_555
O15 Sr11 2.785128 1_555
O16 Ti5 1.999952 1_545
O16 Ti9 2.000482 1_555
O16 Sr20 2.641976 1_555
O16 Sr7 2.646458 1_545
O16 Sr0 2.670528 1_555
O16 Sr17 2.695421 1_555
O17 Ti4 2.002734 1_556
O17 Ti8 2.008387 1_556
O17 Sr8 2.584570 1_545
O17 Sr21 2.594688 1_555
O17 Sr16 2.816663 1_556
O18 Ti11 2.003687 1_555
O18 Ti7 2.011564 1_555
O18 Sr5 2.621234 1_555
O18 Sr22 2.641348 1_555
O18 Sr19 2.711007 1_555
O18 Sr1 2.753480 1_555
O19 Ti6 1.994768 1_556
O19 Ti10 2.000912 1_556
O19 Sr6 2.612080 1_555
O19 Sr23 2.626036 1_555
O19 Sr18 2.797573 1_556
O20 Ti13 2.001080 1_555
O20 Ti1 2.001672 1_545
O20 Sr2 2.659933 1_555
O20 Sr14 2.681100 1_655
O20 Sr24 2.682457 1_555
O20 Sr11 2.700022 1_545
O21 Ti0 1.991715 1_656
O21 Ti12 1.996334 1_556
O21 Sr12 2.601684 1_545
O21 Sr25 2.604695 1_555
O21 Sr13 2.803403 1_656
O22 Ti3 2.013058 1_655
O22 Ti15 2.019009 1_555
O22 Sr15 2.638363 1_655
O22 Sr9 2.650671 1_555
O22 Sr4 2.672244 1_555
O22 Sr26 2.680464 1_555
O23 Ti14 1.993670 1_556
O23 Ti2 2.005950 1_656
O23 Sr27 2.630116 1_555
O23 Sr10 2.645889 1_555
O23 Sr3 2.834375 1_556
O24 Ti8 1.994062 1_555
O24 Ti6 2.033195 1_555
O24 Sr16 2.673482 1_555
O24 Sr21 2.679134 1_554
O24 Sr6 2.711407 1_554
O25 Ti7 1.997760 1_555
O25 Ti9 2.004507 1_555
O25 Sr1 2.662088 1_555
O25 Sr17 2.676881 1_555
O25 Sr20 2.687950 1_555
O25 Sr5 2.713280 1_555
O26 Ti10 2.019105 1_555
O26 Ti4 2.025350 1_565
O26 Sr18 2.626001 1_555
O26 Sr8 2.653055 1_554
O26 Sr23 2.749980 1_554
O27 Ti11 1.995209 1_555
O27 Ti5 2.004989 1_555
O27 Sr19 2.614181 1_555
O27 Sr0 2.626393 1_565
O27 Sr7 2.710612 1_555
O27 Sr22 2.769726 1_555
O28 Ti12 2.011697 1_555
O28 Ti2 2.012617 1_655
O28 Sr25 2.650522 1_554
O28 Sr13 2.660252 1_655
O28 Sr10 2.702179 1_554
O28 Sr3 2.711750 1_555
O29 Ti3 1.999413 1_655
O29 Ti13 2.000172 1_555
O29 Sr14 2.624803 1_655
O29 Sr4 2.652775 1_555
O29 Sr9 2.760689 1_555
O29 Sr24 2.802990 1_555
O30 Ti0 1.997505 1_665
O30 Ti14 2.025385 1_555
O30 Sr27 2.726324 1_554
O30 Sr12 2.795988 1_554
O31 Ti1 1.993709 1_555
O31 Ti15 1.997509 1_555
O31 Sr2 2.605074 1_565
O31 Sr15 2.633851 1_655
O31 Sr11 2.773579 1_555
O31 Sr26 2.791751 1_555
O32 Ti16 1.899681 1_555
O32 Ti0 2.011248 1_555
O32 Sr13 2.535407 1_555
O33 Ti17 1.859912 1_555
O33 Ti1 2.357720 1_445
O33 Sr14 2.599848 1_555
O33 Sr0 2.788736 1_555
O33 Sr2 2.974618 1_455
O34 Ti18 1.925635 1_555
O34 Ti2 1.988771 1_555
O34 Sr3 2.844038 1_455
O34 Sr13 3.091082 1_555
O35 Ti3 2.014447 1_555
O35 Sr15 2.527479 1_555
O35 Sr1 2.767906 1_555
O35 Sr4 2.902584 1_455
O35 Sr14 3.139775 1_555
O36 Ti19 1.912389 1_555
O36 Ti4 2.009775 1_555
O36 Sr16 2.588374 1_555
O36 Sr18 3.114231 1_545
O37 Ti20 1.918137 1_555
O37 Ti5 2.174833 1_545
O37 Sr17 2.645788 1_555
O37 Sr0 2.817746 1_555
O37 Sr2 2.844543 1_555
O37 Sr19 3.073741 1_545
O38 Ti21 1.921936 1_555
O38 Ti6 2.018966 1_555
O38 Sr18 2.590165 1_555
O38 Sr3 2.853340 1_555
O38 Sr16 3.090978 1_555
O39 Ti7 1.948962 1_555
O39 Sr19 2.571219 1_555
O39 Sr1 2.794800 1_555
O39 Sr4 2.826658 1_555
O39 Sr17 3.152473 1_555
O40 Ti22 1.898266 1_555
O40 Ti7 2.116661 1_555
O40 Sr20 2.598880 1_555
O40 Sr9 2.744967 1_555
O40 Sr5 2.916818 1_555
O40 Sr22 3.111932 1_555
O41 Ti6 1.981988 1_556
O41 Sr21 2.550540 1_555
O41 Sr10 2.676261 1_555
O41 Sr6 2.925564 1_555
O41 Sr23 3.161283 1_555
O42 Ti23 1.941112 1_555
O42 Ti5 2.026227 1_555
O42 Sr22 2.691461 1_555
O42 Sr7 2.812353 1_555
O42 Sr11 2.814618 1_555
O42 Sr20 3.003506 1_565
O43 Ti4 2.045212 1_566
O43 Sr23 2.553885 1_555
O43 Sr12 2.787840 1_555
O43 Sr8 2.850652 1_555
O43 Sr21 3.168696 1_565
O44 Ti24 1.915822 1_555
O44 Ti3 2.071018 1_655
O44 Sr24 2.596411 1_555
O44 Sr9 2.809686 1_555
O44 Sr5 2.825235 1_655
O44 Sr26 3.125424 1_555
O45 Ti25 1.870767 1_555
O45 Ti2 2.333401 1_656
O45 Sr25 2.538909 1_555
O45 Sr6 2.787019 1_655
O45 Sr10 2.993556 1_555
O46 Ti26 1.946773 1_555
O46 Ti1 1.978026 1_555
O46 Sr26 2.712587 1_555
O46 Sr7 2.793701 1_655
O46 Sr11 2.848081 1_555
O46 Sr24 2.954792 1_565
O47 Ti27 1.935703 1_555
O47 Ti0 2.172818 1_666
O47 Sr27 2.560576 1_555
O47 Sr12 2.833241 1_555
O47 Sr8 2.863114 1_655
O47 Sr25 3.027894 1_565
O48 Ti22 1.940887 1_555
O48 Ti8 1.963893 1_555
O48 Sr13 2.799659 1_555
O48 Sr16 2.874805 1_555
O49 Ti9 1.965392 1_555
O49 Sr0 2.602052 1_555
O49 Sr17 2.655263 1_555
O49 Sr14 2.927936 1_555
O49 Sr1 3.093341 1_555
O50 Ti23 1.914945 1_555
O50 Ti10 2.040376 1_555
O50 Sr18 2.855452 1_555
O51 Ti11 2.051161 1_555
O51 Sr1 2.581162 1_555
O51 Sr19 2.736076 1_555
O51 Sr15 2.878294 1_555
O51 Sr0 3.151880 1_565
O52 Ti24 1.915738 1_555
O52 Ti12 2.031191 1_555
O52 Sr13 2.826035 1_655
O52 Sr16 2.827173 1_555
O53 Ti25 1.861813 1_555
O53 Ti13 2.348692 1_555
O53 Sr2 2.547520 1_555
O53 Sr14 2.806564 1_655
O53 Sr17 2.994584 1_555
O54 Ti26 1.886954 1_555
O54 Ti14 2.041727 1_555
O54 Sr3 2.547177 1_555
O54 Sr18 2.889659 1_555
O55 Ti27 1.916240 1_555
O55 Ti15 2.159840 1_555
O55 Sr4 2.600166 1_555
O55 Sr15 2.841653 1_655
O55 Sr19 2.895089 1_555
O55 Sr2 3.013198 1_565
O56 Ti16 1.910490 1_555
O56 Ti9 2.151727 1_555
O56 Sr5 2.680565 1_555
O56 Sr20 2.822901 1_555
O56 Sr24 2.877618 1_455
O56 Sr7 3.044419 1_545
O57 Ti17 1.860345 1_555
O57 Ti8 2.384392 1_556
O57 Sr6 2.576845 1_555
O57 Sr21 2.752232 1_555
O57 Sr25 3.017675 1_455
O58 Ti18 1.920590 1_555
O58 Ti11 2.051862 1_555
O58 Sr7 2.568937 1_555
O58 Sr26 2.801888 1_455
O58 Sr22 2.856662 1_555
O58 Sr5 3.119282 1_555
O59 Ti10 2.015666 1_556
O59 Sr8 2.496353 1_555
O59 Sr23 2.792585 1_555
O59 Sr27 2.885801 1_455
O59 Sr6 3.176768 1_555
O60 Ti19 1.958453 1_555
O60 Ti13 1.982272 1_555
O60 Sr9 2.684740 1_555
O60 Sr20 2.709220 1_555
O60 Sr24 2.875184 1_555
O60 Sr11 2.986713 1_545
O61 Ti20 1.933126 1_555
O61 Ti12 2.158561 1_556
O61 Sr10 2.633620 1_555
O61 Sr25 2.790886 1_555
O61 Sr21 2.871291 1_555
O61 Sr12 3.064497 1_545
O62 Ti21 1.923984 1_555
O62 Ti15 2.001310 1_555
O62 Sr11 2.635118 1_555
O62 Sr22 2.749976 1_555
O62 Sr26 2.865088 1_555
O62 Sr9 3.086171 1_555
O63 Ti14 1.971819 1_556
O63 Sr12 2.510565 1_555
O63 Sr27 2.740288 1_555
O63 Sr23 2.876874 1_555
O64 Ti23 1.928356 1_545
O64 Ti19 1.961252 1_555
O64 Sr20 2.703148 1_555
O64 Sr18 3.206643 1_545
O65 Ti20 1.871843 1_555
O65 Sr21 2.467589 1_555
O65 Sr0 2.477198 1_555
O66 Ti22 1.885118 1_555
O66 Ti21 1.954307 1_555
O66 Sr22 2.750866 1_555
O66 Sr16 3.032681 1_555
O66 Sr9 3.256835 1_555
O67 Sr23 2.387700 1_555
O67 Sr1 2.408619 1_555
O68 Ti16 1.852134 1_655
O68 Ti26 2.016821 1_545
O68 Sr24 2.637621 1_555
O69 Ti17 1.865458 1_655
O69 Ti27 2.045928 1_545
O69 Sr25 2.522247 1_555
O69 Sr2 2.541736 1_555
O70 Ti18 1.919510 1_655
O70 Ti24 1.942535 1_555
O70 Sr3 2.747820 1_555
O70 Sr26 2.778940 1_555
O70 Sr13 2.931463 1_655
O70 Sr5 3.038223 1_655
O71 Ti25 1.822062 1_555
O71 Sr27 2.495008 1_555
O71 Sr4 2.513087 1_555
O72 Ti22 1.908150 1_555
O72 Ti18 1.944168 1_555
O72 Sr13 2.654426 1_555
O72 Sr5 2.709713 1_555
O72 Sr22 3.082780 1_555
O73 Sr6 2.373543 1_555
O73 Sr14 2.379856 1_555
O74 Ti16 1.917277 1_565
O74 Ti23 1.959754 1_555
O74 Sr7 2.624870 1_555
O75 Ti17 1.851607 1_565
O75 Sr8 2.485562 1_555
O75 Sr15 2.501217 1_555
O76 Ti24 1.913470 1_555
O76 Ti21 1.933117 1_555
O76 Sr16 2.768289 1_555
O76 Sr9 2.856017 1_555
O76 Sr26 2.949414 1_555
O76 Sr3 2.952252 1_555
O77 Ti25 1.830178 1_555
O77 Sr10 2.511548 1_555
O77 Sr17 2.521435 1_555
O78 Ti19 1.903620 1_565
O78 Ti26 1.942324 1_555
O78 Sr11 2.706031 1_555
O78 Sr18 2.709593 1_555
O78 Sr24 3.055537 1_565
O79 Ti20 1.934592 1_565
O79 Ti27 1.958677 1_555
O79 Sr12 2.554089 1_555
O79 Sr19 2.570751 1_555
