# generated using pymatgen
data_Co(SiO3)2
_symmetry_space_group_name_H-M   'P 1'
_cell_length_a   6.25942339
_cell_length_b   6.25942339
_cell_length_c   5.28560592
_cell_angle_alpha   75.67493386
_cell_angle_beta   75.67493386
_cell_angle_gamma   83.69794983
_symmetry_Int_Tables_number   1
_chemical_formula_structural   Co(SiO3)2
_chemical_formula_sum   'Co2 Si4 O12'
_cell_volume   194.15409506
_cell_formula_units_Z   2
loop_
 _symmetry_equiv_pos_site_id
 _symmetry_equiv_pos_as_xyz
  1  'x, y, z'
loop_
 _atom_site_type_symbol
 _atom_site_label
 _atom_site_symmetry_multiplicity
 _atom_site_fract_x
 _atom_site_fract_y
 _atom_site_fract_z
 _atom_site_occupancy
  Co  Co0  1  0.91138000  0.08862000  0.75000000  1
  Co  Co1  1  0.08862000  0.91138000  0.25000000  1
  Si  Si0  1  0.39071900  0.20833500  0.76259100  1
  Si  Si1  1  0.79166500  0.60928100  0.73740900  1
  Si  Si2  1  0.20833500  0.39071900  0.26259100  1
  Si  Si3  1  0.60928100  0.79166500  0.23740900  1
  O  O0  1  0.36983900  0.34687400  0.98813400  1
  O  O1  1  0.65312600  0.63016100  0.51186600  1
  O  O2  1  0.63016100  0.65312600  0.01186600  1
  O  O3  1  0.34687400  0.36983900  0.48813400  1
  O  O4  1  0.63581100  0.08885800  0.69354700  1
  O  O5  1  0.91114200  0.36418900  0.80645300  1
  O  O6  1  0.36418900  0.91114200  0.30645300  1
  O  O7  1  0.08885800  0.63581100  0.19354700  1
  O  O8  1  0.02338800  0.19415700  0.36677300  1
  O  O9  1  0.80584300  0.97661200  0.13322700  1
  O  O10  1  0.19415700  0.02338800  0.86677300  1
  O  O11  1  0.97661200  0.80584300  0.63322700  1
loop_
_geom_bond_atom_site_label_1
_geom_bond_atom_site_label_2
_geom_bond_distance
_geom_bond_site_symmetry_2
Co0 O4 1.821603 1_555
Co0 O5 1.821603 1_555
Co0 O8 1.941060 1_655
Co0 O9 1.941060 1_546
Co0 O10 1.984411 1_655
Co0 O11 1.984411 1_545
Co1 O7 1.821603 1_555
Co1 O6 1.821603 1_555
Co1 O11 1.941060 1_455
Co1 O10 1.941060 1_564
Co1 O8 1.984411 1_565
Co1 O9 1.984411 1_455
O0 Si0 1.612399 1_555
O0 Si2 1.616210 1_556
O1 Si1 1.612399 1_555
O1 Si3 1.616210 1_555
O2 Si3 1.612399 1_555
O2 Si1 1.616210 1_554
O3 Si2 1.612399 1_555
O3 Si0 1.616210 1_555
O4 Si0 1.628547 1_555
O5 Si1 1.628547 1_555
O6 Si3 1.628547 1_555
O7 Si2 1.628547 1_555
O8 Si2 1.679043 1_555
O9 Si3 1.679043 1_555
O10 Si0 1.679043 1_555
O11 Si1 1.679043 1_555
