# generated using pymatgen
data_Zr4AlNi2
_symmetry_space_group_name_H-M   'P 1'
_cell_length_a   9.37795384
_cell_length_b   9.28047862
_cell_length_c   9.35403929
_cell_angle_alpha   59.73094270
_cell_angle_beta   59.07112609
_cell_angle_gamma   60.26444969
_symmetry_Int_Tables_number   1
_chemical_formula_structural   Zr4AlNi2
_chemical_formula_sum   'Zr16 Al4 Ni8'
_cell_volume   571.46103478
_cell_formula_units_Z   4
loop_
 _symmetry_equiv_pos_site_id
 _symmetry_equiv_pos_as_xyz
  1  'x, y, z'
loop_
 _atom_site_type_symbol
 _atom_site_label
 _atom_site_symmetry_multiplicity
 _atom_site_fract_x
 _atom_site_fract_y
 _atom_site_fract_z
 _atom_site_occupancy
  Zr  Zr0  1  0.14912500  0.60141100  0.59985100  1
  Zr  Zr1  1  0.00004900  0.00031600  0.00011200  1
  Zr  Zr2  1  0.85268500  0.39780300  0.85390300  1
  Zr  Zr3  1  0.14635600  0.60311400  0.14499000  1
  Zr  Zr4  1  0.39817500  0.39895500  0.85231200  1
  Zr  Zr5  1  0.60287800  0.60196400  0.14656600  1
  Zr  Zr6  1  0.85007000  0.39953300  0.40081700  1
  Zr  Zr7  1  0.14869400  0.14782300  0.60033800  1
  Zr  Zr8  1  0.60377300  0.14701400  0.60122200  1
  Zr  Zr9  1  0.39725100  0.85319800  0.85366900  1
  Zr  Zr10  1  0.39691000  0.85221200  0.39950900  1
  Zr  Zr11  1  0.00016100  0.00046900  0.49931200  1
  Zr  Zr12  1  0.49872300  0.00025900  0.00070400  1
  Zr  Zr13  1  0.00047700  0.49877300  0.00026600  1
  Zr  Zr14  1  0.60359100  0.14616000  0.14516900  1
  Zr  Zr15  1  0.85072400  0.85146000  0.40028100  1
  Al  Al0  1  0.49961400  0.49980600  0.00082700  1
  Al  Al1  1  0.49986900  0.00081400  0.49949900  1
  Al  Al2  1  0.00079100  0.49980100  0.49959500  1
  Al  Al3  1  0.49981800  0.49977100  0.49961400  1
  Ni  Ni0  1  0.79951400  0.80135500  0.09666000  1
  Ni  Ni1  1  0.90397600  0.19750200  0.20030800  1
  Ni  Ni2  1  0.80089100  0.80015200  0.80270900  1
  Ni  Ni3  1  0.19684000  0.90252500  0.19892700  1
  Ni  Ni4  1  0.80177400  0.09664100  0.80216500  1
  Ni  Ni5  1  0.19916400  0.20054900  0.19822000  1
  Ni  Ni6  1  0.09662600  0.80272600  0.79933700  1
  Ni  Ni7  1  0.20148400  0.19789800  0.90312000  1
loop_
_geom_bond_atom_site_label_1
_geom_bond_atom_site_label_2
_geom_bond_distance
_geom_bond_site_symmetry_2
Zr0 Zr13 3.038532 1_556
Zr0 Zr11 3.042797 1_565
Zr0 Zr10 3.289483 1_555
Zr0 Zr2 3.292306 1_455
Zr0 Zr15 3.355867 1_455
Zr0 Zr4 3.377189 1_555
Zr1 Zr3 3.027435 1_545
Zr1 Zr14 3.028200 1_455
Zr1 Zr7 3.029000 1_554
Zr1 Zr2 3.031135 1_454
Zr1 Zr15 3.032923 1_445
Zr1 Zr9 3.034965 1_544
Zr2 Zr5 3.287219 1_556
Zr2 Zr7 3.332314 1_655
Zr3 Zr9 3.286145 1_554
Zr3 Zr4 3.287343 1_554
Zr3 Zr6 3.291075 1_455
Zr4 Zr8 3.333150 1_555
Zr5 Zr9 3.345457 1_554
Zr5 Zr6 3.376723 1_555
Zr6 Zr8 3.291050 1_555
Zr6 Zr7 3.357193 1_655
Zr7 Zr9 3.368751 1_545
Zr8 Zr9 3.287653 1_545
Zr10 Zr12 3.031248 1_565
Zr10 Zr11 3.042076 1_565
Zr10 Zr14 3.289519 1_565
Zr10 Zr7 3.292319 1_565
Zr10 Zr5 3.333830 1_555
Zr11 Zr8 3.037430 1_455
Zr11 Zr7 3.041204 1_555
Zr11 Zr6 3.044347 1_455
Zr11 Zr15 3.046762 1_445
Zr12 Zr14 3.026274 1_555
Zr12 Zr5 3.030325 1_545
Zr12 Zr9 3.030830 1_544
Zr12 Zr8 3.033986 1_554
Zr12 Zr4 3.035334 1_554
Zr13 Zr3 3.030064 1_555
Zr13 Zr2 3.034080 1_454
Zr13 Zr5 3.037525 1_455
Zr13 Zr4 3.040175 1_554
Zr13 Zr6 3.041938 1_455
Zr14 Zr2 3.284627 1_554
Zr14 Zr4 3.343893 1_554
Zr14 Zr15 3.370999 1_545
Zr15 Zr8 3.292586 1_565
Zr15 Zr3 3.332435 1_655
Al0 Zr9 2.693780 1_554
Al0 Zr14 2.693837 1_555
Al0 Zr4 2.695063 1_554
Al0 Zr5 2.695534 1_555
Al0 Zr2 2.696802 1_554
Al0 Zr3 2.696841 1_555
Al1 Zr14 2.689133 1_555
Al1 Zr9 2.689507 1_545
Al1 Zr15 2.691163 1_545
Al1 Zr7 2.691450 1_555
Al1 Zr10 2.694179 1_545
Al1 Zr8 2.694787 1_555
Al2 Zr2 2.686790 1_455
Al2 Zr3 2.687539 1_555
Al2 Zr15 2.688083 1_455
Al2 Zr7 2.688483 1_555
Al2 Zr6 2.689142 1_455
Al2 Zr0 2.690270 1_555
Al3 Zr4 2.684884 1_555
Al3 Zr5 2.685225 1_555
Al3 Zr10 2.686346 1_555
Al3 Zr8 2.687173 1_555
Al3 Zr6 2.687670 1_555
Al3 Zr0 2.688756 1_555
Ni0 Ni4 2.736047 1_564
Ni0 Ni6 2.744503 1_654
Ni0 Ni2 2.748646 1_554
Ni0 Zr1 2.789154 1_665
Ni0 Zr13 2.793953 1_655
Ni0 Zr12 2.817275 1_565
Ni0 Zr14 2.931872 1_565
Ni0 Zr5 2.944792 1_555
Ni0 Zr3 2.984260 1_655
Ni0 Zr10 3.329945 1_555
Ni0 Zr6 3.341026 1_555
Ni0 Zr15 3.386424 1_555
Ni1 Ni7 2.745764 1_654
Ni1 Ni3 2.752842 1_645
Ni1 Zr13 2.762733 1_655
Ni1 Ni5 2.772356 1_655
Ni1 Zr1 2.784276 1_655
Ni1 Zr11 2.789485 1_655
Ni1 Zr15 2.938777 1_545
Ni1 Zr2 2.971398 1_554
Ni1 Zr6 2.986467 1_555
Ni1 Zr8 3.300516 1_555
Ni1 Zr5 3.370186 1_555
Ni1 Zr14 3.391357 1_555
Ni2 Ni4 2.753111 1_565
Ni2 Ni6 2.769168 1_655
Ni2 Zr11 2.770954 1_665
Ni2 Zr12 2.785856 1_566
Ni2 Zr13 2.809422 1_656
Ni2 Zr5 2.908811 1_556
Ni2 Zr0 2.974994 1_655
Ni2 Zr8 2.982238 1_565
Ni2 Zr2 3.323439 1_555
Ni2 Zr15 3.349730 1_555
Ni2 Zr9 3.366213 1_555
Ni3 Ni7 2.742333 1_564
Ni3 Ni5 2.773339 1_565
Ni3 Zr11 2.776242 1_565
Ni3 Zr12 2.780527 1_565
Ni3 Zr1 2.802345 1_565
Ni3 Zr9 2.927363 1_554
Ni3 Zr15 2.940987 1_455
Ni3 Zr10 3.020776 1_555
Ni3 Zr0 3.320249 1_555
Ni3 Zr3 3.341195 1_555
Ni3 Zr5 3.382842 1_555
Ni4 Ni6 2.757234 1_645
Ni4 Zr12 2.783450 1_556
Ni4 Zr11 2.786967 1_655
Ni4 Zr1 2.811856 1_656
Ni4 Zr14 2.910176 1_556
Ni4 Zr7 2.947812 1_655
Ni4 Zr8 3.006693 1_555
Ni4 Zr6 3.328252 1_555
Ni4 Zr2 3.346439 1_555
Ni4 Zr4 3.374147 1_555
Ni5 Zr11 2.761409 1_555
Ni5 Ni7 2.761695 1_554
Ni5 Zr12 2.776201 1_555
Ni5 Zr13 2.797315 1_555
Ni5 Zr4 2.922012 1_554
Ni5 Zr6 2.978686 1_455
Ni5 Zr10 2.990118 1_545
Ni5 Zr3 3.315663 1_555
Ni5 Zr7 3.340057 1_555
Ni5 Zr14 3.362194 1_555
Ni6 Zr13 2.781882 1_556
Ni6 Zr1 2.790301 1_566
Ni6 Zr11 2.798773 1_565
Ni6 Zr7 2.927020 1_565
Ni6 Zr3 2.959377 1_556
Ni6 Zr0 2.978695 1_555
Ni6 Zr10 3.294492 1_555
Ni6 Zr4 3.367598 1_555
Ni6 Zr9 3.383588 1_555
Ni7 Zr1 2.784092 1_556
Ni7 Zr13 2.784171 1_556
Ni7 Zr12 2.797036 1_556
Ni7 Zr9 2.934413 1_545
Ni7 Zr4 2.954481 1_555
Ni7 Zr2 3.003404 1_455
Ni7 Zr8 3.325083 1_555
Ni7 Zr0 3.348175 1_555
Ni7 Zr7 3.388072 1_555
