# generated using pymatgen
data_CsVZn(PO3)6
_symmetry_space_group_name_H-M   'P 1'
_cell_length_a   6.43974124
_cell_length_b   15.98059330
_cell_length_c   8.57664454
_cell_angle_alpha   80.03133523
_cell_angle_beta   103.81831501
_cell_angle_gamma   88.95732699
_symmetry_Int_Tables_number   1
_chemical_formula_structural   CsVZn(PO3)6
_chemical_formula_sum   'Cs2 V2 Zn2 P12 O36'
_cell_volume   842.50765564
_cell_formula_units_Z   2
loop_
 _symmetry_equiv_pos_site_id
 _symmetry_equiv_pos_as_xyz
  1  'x, y, z'
loop_
 _atom_site_type_symbol
 _atom_site_label
 _atom_site_symmetry_multiplicity
 _atom_site_fract_x
 _atom_site_fract_y
 _atom_site_fract_z
 _atom_site_occupancy
  Cs  Cs0  1  0.07091700  0.47389300  0.48661800  1
  Cs  Cs1  1  0.57114400  0.97401600  0.98717800  1
  V  V0  1  0.39172800  0.61158300  0.16760000  1
  V  V1  1  0.89184100  0.11155800  0.66734300  1
  Zn  Zn0  1  0.61713900  0.38840400  0.83774700  1
  Zn  Zn1  1  0.11723600  0.88854500  0.33753400  1
  P  P0  1  0.89656200  0.20457000  0.98125200  1
  P  P1  1  0.39593900  0.70445300  0.48109700  1
  P  P2  1  0.00847500  0.09274700  0.31556500  1
  P  P3  1  0.50796500  0.59275300  0.81566400  1
  P  P4  1  0.59999400  0.29576400  0.51703500  1
  P  P5  1  0.10030800  0.79582000  0.01725600  1
  P  P6  1  0.48964400  0.40785600  0.18220100  1
  P  P7  1  0.98965900  0.90756900  0.68213000  1
  P  P8  1  0.14276900  0.35770100  0.92322900  1
  P  P9  1  0.64299900  0.85734300  0.42337900  1
  P  P10  1  0.35713300  0.14202800  0.57126700  1
  P  P11  1  0.85719300  0.64210300  0.07078100  1
  O  O0  1  0.92562300  0.17484200  0.17540200  1
  O  O1  1  0.42422700  0.67473000  0.67518100  1
  O  O2  1  0.57602600  0.32599200  0.32465500  1
  O  O3  1  0.07733400  0.82605700  0.82498300  1
  O  O4  1  0.69192100  0.25812000  0.91789200  1
  O  O5  1  0.19168400  0.75820600  0.41762900  1
  O  O6  1  0.87038300  0.09234500  0.43538300  1
  O  O7  1  0.37058000  0.59226800  0.93600700  1
  O  O8  1  0.79991900  0.23652200  0.57693900  1
  O  O9  1  0.30030800  0.73663600  0.07777400  1
  O  O10  1  0.64054000  0.41498600  0.07387000  1
  O  O11  1  0.14044000  0.91503100  0.57370400  1
  O  O12  1  0.29610100  0.36310900  0.81609500  1
  O  O13  1  0.79633100  0.86286900  0.31625400  1
  O  O14  1  0.57022300  0.09319200  0.64166400  1
  O  O15  1  0.07061500  0.59327500  0.13982700  1
  O  O16  1  0.20611300  0.13270200  0.68208300  1
  O  O17  1  0.70663000  0.63258300  0.18194100  1
  O  O18  1  0.93575500  0.41015800  0.85715700  1
  O  O19  1  0.43617200  0.90991700  0.35764700  1
  O  O20  1  0.92113400  0.12772600  0.90411000  1
  O  O21  1  0.41994200  0.62756100  0.40375000  1
  O  O22  1  0.02021000  0.01673700  0.23853600  1
  O  O23  1  0.51968900  0.51668600  0.73880900  1
  O  O24  1  0.58150700  0.37190700  0.59222900  1
  O  O25  1  0.08160200  0.87206100  0.09214400  1
  O  O26  1  0.45341600  0.48423300  0.25836600  1
  O  O27  1  0.95179600  0.98401600  0.75759000  1
  O  O28  1  0.10508200  0.25814000  0.97853800  1
  O  O29  1  0.60492000  0.75772600  0.47835900  1
  O  O30  1  0.24949400  0.11648700  0.39872900  1
  O  O31  1  0.74876200  0.61690600  0.89812200  1
  O  O32  1  0.38922800  0.24162300  0.51888600  1
  O  O33  1  0.88962500  0.74167800  0.01882500  1
  O  O34  1  0.25611300  0.38023900  0.10051000  1
  O  O35  1  0.75651400  0.87943600  0.60093100  1
loop_
_geom_bond_atom_site_label_1
_geom_bond_atom_site_label_2
_geom_bond_distance
_geom_bond_site_symmetry_2
Cs0 O12 3.072360 1_555
Cs0 O15 3.243254 1_555
Cs0 O23 3.331074 1_555
Cs0 O21 3.456467 1_555
Cs0 O18 3.482459 1_455
Cs0 O26 3.483277 1_555
Cs0 O24 3.487011 1_555
Cs0 O17 3.650155 1_455
Cs0 O24 3.801217 1_455
Cs1 O13 3.072310 1_556
Cs1 O14 3.232004 1_565
Cs1 O22 3.328642 1_666
Cs1 O20 3.461765 1_565
Cs1 O27 3.481778 1_555
Cs1 O19 3.482141 1_556
Cs1 O25 3.486329 1_656
Cs1 O16 3.653906 1_565
Cs1 O25 3.799778 1_556
O0 P2 1.604074 1_655
O0 P0 1.614770 1_554
O1 P3 1.605041 1_555
O1 P1 1.614904 1_555
O2 P4 1.606011 1_555
O2 P6 1.615281 1_555
O3 P5 1.606157 1_556
O3 P7 1.614598 1_455
O4 P0 1.490027 1_555
O4 Zn0 2.085447 1_555
O5 P1 1.489734 1_555
O5 Zn1 2.085940 1_555
O6 P2 1.510414 1_655
O6 V1 2.037875 1_555
O7 P3 1.510560 1_555
O7 V0 2.035620 1_556
O8 P4 1.512970 1_555
O8 V1 2.035005 1_555
O9 P5 1.512982 1_555
O9 V0 2.035016 1_555
O10 P6 1.489684 1_555
O10 Zn0 2.111577 1_554
O11 P7 1.489620 1_455
O11 Zn1 2.111602 1_555
O12 P8 1.495247 1_555
O12 Zn0 2.084477 1_555
O13 P9 1.495120 1_555
O13 Zn1 2.085401 1_655
O14 P10 1.502922 1_555
O14 V1 2.061762 1_555
O15 P11 1.503556 1_455
O15 V0 2.056535 1_555
O16 P10 1.506357 1_555
O16 V1 2.035560 1_455
O17 P11 1.506285 1_555
O17 V0 2.039605 1_555
O18 P8 1.495009 1_655
O18 Zn0 2.059442 1_555
O19 P9 1.494755 1_555
O19 Zn1 2.059479 1_555
O20 P0 1.514935 1_555
O20 V1 2.055818 1_555
O21 P1 1.515965 1_555
O21 V0 2.050684 1_555
O22 P2 1.488614 1_555
O22 Zn1 2.099001 1_545
O23 P3 1.488526 1_555
O23 Zn0 2.100713 1_555
O24 P4 1.487887 1_555
O24 Zn0 2.125983 1_555
O25 P5 1.487964 1_555
O25 Zn1 2.124837 1_555
O26 P6 1.519662 1_555
O26 V0 2.044484 1_555
O27 P7 1.519561 1_555
O27 V1 2.045685 1_565
O28 P0 1.608240 1_455
O28 P8 1.619595 1_555
O29 P1 1.608206 1_555
O29 P9 1.620587 1_555
O30 P10 1.601967 1_555
O30 P2 1.627262 1_555
O31 P11 1.601663 1_556
O31 P3 1.626696 1_555
O32 P10 1.608250 1_555
O32 P4 1.624596 1_555
O33 P11 1.607910 1_555
O33 P5 1.623871 1_655
O34 P6 1.604745 1_555
O34 P8 1.625842 1_554
O35 P7 1.604618 1_555
O35 P9 1.625339 1_555
