# generated using pymatgen
data_Zn(NiO2)4
_symmetry_space_group_name_H-M   'P 1'
_cell_length_a   5.70515464
_cell_length_b   6.00724133
_cell_length_c   8.28371734
_cell_angle_alpha   85.91800349
_cell_angle_beta   90.00120228
_cell_angle_gamma   89.99983677
_symmetry_Int_Tables_number   1
_chemical_formula_structural   Zn(NiO2)4
_chemical_formula_sum   'Zn2 Ni8 O16'
_cell_volume   283.18135331
_cell_formula_units_Z   2
loop_
 _symmetry_equiv_pos_site_id
 _symmetry_equiv_pos_as_xyz
  1  'x, y, z'
loop_
 _atom_site_type_symbol
 _atom_site_label
 _atom_site_symmetry_multiplicity
 _atom_site_fract_x
 _atom_site_fract_y
 _atom_site_fract_z
 _atom_site_occupancy
  Zn  Zn0  1  0.99999900  0.00000000  0.49999900  1
  Zn  Zn1  1  0.49999900  0.50000100  0.00000000  1
  Ni  Ni0  1  0.50000000  0.50000100  0.49999900  1
  Ni  Ni1  1  0.00000000  0.99999900  0.00000100  1
  Ni  Ni2  1  0.74998800  0.25001600  0.74999000  1
  Ni  Ni3  1  0.25001200  0.74998600  0.25001100  1
  Ni  Ni4  1  0.00000000  0.50000100  0.49999900  1
  Ni  Ni5  1  0.50000000  0.99999700  0.00000200  1
  Ni  Ni6  1  0.74998800  0.74998500  0.25001100  1
  Ni  Ni7  1  0.25001200  0.25001600  0.74998900  1
  O  O0  1  0.00000200  0.54052600  0.27023800  1
  O  O1  1  0.50000200  0.04050400  0.77028300  1
  O  O2  1  0.99999800  0.45948000  0.72976300  1
  O  O3  1  0.49999800  0.95949100  0.22971700  1
  O  O4  1  0.23053500  0.27613500  0.52281900  1
  O  O5  1  0.73052900  0.77617000  0.02282900  1
  O  O6  1  0.23053500  0.72386200  0.47717500  1
  O  O7  1  0.73052900  0.22382700  0.97716900  1
  O  O8  1  0.76946500  0.72386500  0.47717900  1
  O  O9  1  0.26947000  0.22383000  0.97717300  1
  O  O10  1  0.00000100  0.95436300  0.24664400  1
  O  O11  1  0.50000100  0.45437900  0.74667400  1
  O  O12  1  0.99999900  0.04563300  0.75335600  1
  O  O13  1  0.49999800  0.54562600  0.25332600  1
  O  O14  1  0.76946500  0.27613800  0.52282300  1
  O  O15  1  0.26947100  0.77617300  0.02283400  1
loop_
_geom_bond_atom_site_label_1
_geom_bond_atom_site_label_2
_geom_bond_distance
_geom_bond_site_symmetry_2
Ni0 O13 2.042240 1_555
Ni0 O11 2.042256 1_555
Ni0 O6 2.042398 1_555
Ni0 O14 2.042406 1_555
Ni0 O8 2.042420 1_555
Ni0 O4 2.042428 1_555
Ni1 O10 2.041998 1_555
Ni1 O12 2.042014 1_464
Ni1 O15 2.042290 1_555
Ni1 O7 2.042298 1_464
Ni1 O5 2.042312 1_455
Ni1 O9 2.042315 1_564
Ni2 O14 1.880442 1_555
Ni2 O7 1.880540 1_555
Ni2 O11 1.880737 1_555
Ni2 O12 1.880906 1_555
Ni2 O2 1.901542 1_555
Ni2 O1 1.901651 1_555
Ni3 O6 1.880418 1_555
Ni3 O15 1.880524 1_555
Ni3 O13 1.880722 1_555
Ni3 O10 1.880883 1_555
Ni3 O0 1.901526 1_555
Ni3 O3 1.901624 1_555
Ni4 O6 1.880923 1_555
Ni4 O8 1.880923 1_455
Ni4 O14 1.880932 1_455
Ni4 O4 1.880932 1_555
Ni4 O0 1.901514 1_555
Ni4 O2 1.901538 1_455
Ni5 O5 1.880745 1_555
Ni5 O15 1.880745 1_555
Ni5 O7 1.880771 1_564
Ni5 O9 1.880775 1_564
Ni5 O3 1.901130 1_555
Ni5 O1 1.901163 1_564
Ni6 O8 1.880446 1_555
Ni6 O5 1.880560 1_555
Ni6 O13 1.880741 1_555
Ni6 O10 1.880901 1_655
Ni6 O0 1.901529 1_655
Ni6 O3 1.901634 1_555
Ni7 O4 1.880462 1_555
Ni7 O9 1.880576 1_555
Ni7 O11 1.880753 1_555
Ni7 O12 1.880921 1_455
Ni7 O2 1.901548 1_455
Ni7 O1 1.901658 1_555
O4 Zn0 2.135859 1_455
O5 Zn1 2.136009 1_555
O6 Zn0 2.135877 1_465
O7 Zn1 2.136033 1_556
O8 Zn0 2.135852 1_565
O9 Zn1 2.136012 1_556
O10 Zn0 2.135815 1_465
O11 Zn1 2.135559 1_556
O12 Zn0 2.135826 1_555
O13 Zn1 2.135562 1_555
O14 Zn0 2.135870 1_555
O15 Zn1 2.136021 1_555
