# generated using pymatgen
data_CdSiN2
_symmetry_space_group_name_H-M   'P 1'
_cell_length_a   5.43329000
_cell_length_b   6.76602900
_cell_length_c   5.30269800
_cell_angle_alpha   90.00000000
_cell_angle_beta   90.00000000
_cell_angle_gamma   90.00000000
_symmetry_Int_Tables_number   1
_chemical_formula_structural   CdSiN2
_chemical_formula_sum   'Cd4 Si4 N8'
_cell_volume   194.93671117
_cell_formula_units_Z   4
loop_
 _symmetry_equiv_pos_site_id
 _symmetry_equiv_pos_as_xyz
  1  'x, y, z'
loop_
 _atom_site_type_symbol
 _atom_site_label
 _atom_site_symmetry_multiplicity
 _atom_site_fract_x
 _atom_site_fract_y
 _atom_site_fract_z
 _atom_site_occupancy
  Cd  Cd0  1  0.57676900  0.87585900  0.99085100  1
  Cd  Cd1  1  0.42323100  0.12414100  0.49085100  1
  Cd  Cd2  1  0.92323100  0.37585900  0.49085100  1
  Cd  Cd3  1  0.07676900  0.62414100  0.99085100  1
  Si  Si0  1  0.56238900  0.37520800  0.99361100  1
  Si  Si1  1  0.43761100  0.62479200  0.49361100  1
  Si  Si2  1  0.93761100  0.87520800  0.49361100  1
  Si  Si3  1  0.06238900  0.12479200  0.99361100  1
  N  N0  1  0.62540900  0.82991900  0.41790500  1
  N  N1  1  0.37459100  0.17008100  0.91790500  1
  N  N2  1  0.87459100  0.32991900  0.91790500  1
  N  N3  1  0.12540900  0.67008100  0.41790500  1
  N  N4  1  0.53721500  0.42031700  0.31963400  1
  N  N5  1  0.46278500  0.57968300  0.81963400  1
  N  N6  1  0.96278500  0.92031700  0.81963400  1
  N  N7  1  0.03721500  0.07968300  0.31963400  1
loop_
_geom_bond_atom_site_label_1
_geom_bond_atom_site_label_2
_geom_bond_distance
_geom_bond_site_symmetry_2
Cd0 N5 2.285520 1_555
Cd0 N0 2.300998 1_556
Cd0 N6 2.305127 1_555
Cd0 N1 2.306350 1_565
Cd1 N4 2.285520 1_555
Cd1 N1 2.300998 1_555
Cd1 N7 2.305127 1_555
Cd1 N0 2.306350 1_545
Cd2 N7 2.285520 1_655
Cd2 N2 2.300998 1_555
Cd2 N4 2.305127 1_555
Cd2 N3 2.306350 1_655
Cd3 N6 2.285520 1_455
Cd3 N3 2.300998 1_556
Cd3 N5 2.305127 1_555
Cd3 N2 2.306350 1_455
N0 Si1 1.768770 1_555
N0 Si2 1.769869 1_555
N1 Si0 1.768770 1_555
N1 Si3 1.769869 1_555
N2 Si3 1.768770 1_655
N2 Si0 1.769869 1_555
N3 Si2 1.768770 1_455
N3 Si1 1.769869 1_555
N4 Si1 1.748712 1_555
N4 Si0 1.760856 1_554
N5 Si0 1.748712 1_555
N5 Si1 1.760856 1_555
N6 Si3 1.748712 1_665
N6 Si2 1.760856 1_555
N7 Si2 1.748712 1_445
N7 Si3 1.760856 1_554
