# generated using pymatgen
data_LiC2S2NO5F6
_symmetry_space_group_name_H-M   'P 1'
_cell_length_a   9.54899712
_cell_length_b   11.59879284
_cell_length_c   18.49541298
_cell_angle_alpha   100.38451416
_cell_angle_beta   90.07918826
_cell_angle_gamma   99.87001005
_symmetry_Int_Tables_number   1
_chemical_formula_structural   LiC2S2NO5F6
_chemical_formula_sum   'Li8 C16 S16 N8 O40 F48'
_cell_volume   1984.01523166
_cell_formula_units_Z   8
loop_
 _symmetry_equiv_pos_site_id
 _symmetry_equiv_pos_as_xyz
  1  'x, y, z'
loop_
 _atom_site_type_symbol
 _atom_site_label
 _atom_site_symmetry_multiplicity
 _atom_site_fract_x
 _atom_site_fract_y
 _atom_site_fract_z
 _atom_site_occupancy
  Li  Li0  1  -0.00000000  -0.00000000  -0.00000000  1
  Li  Li1  1  0.50000000  -0.00000000  -0.00000000  1
  Li  Li2  1  0.53901531  0.00820033  0.79883689  1
  Li  Li3  1  0.46098469  0.99179967  0.20116311  1
  Li  Li4  1  0.50000000  -0.00000000  0.50000000  1
  Li  Li5  1  -0.00000000  -0.00000000  0.50000000  1
  Li  Li6  1  0.03919805  0.01036638  0.70148120  1
  Li  Li7  1  0.96080195  0.98963362  0.29851880  1
  C  C0  1  0.19664958  0.65148262  0.94670239  1
  C  C1  1  0.80335042  0.34851738  0.05329761  1
  C  C2  1  0.18326193  0.69306716  0.71777960  1
  C  C3  1  0.81673807  0.30693284  0.28222040  1
  C  C4  1  0.43139303  0.33330964  0.75863387  1
  C  C5  1  0.56860697  0.66669036  0.24136613  1
  C  C6  1  0.34186142  0.30770289  0.98334705  1
  C  C7  1  0.65813858  0.69229711  0.01665295  1
  C  C8  1  0.68487408  0.68933898  0.71116116  1
  C  C9  1  0.31512592  0.31066102  0.28883884  1
  C  C10  1  0.70440513  0.65045502  0.47157623  1
  C  C11  1  0.29559487  0.34954498  0.52842377  1
  C  C12  1  0.92830912  0.33331519  0.81614892  1
  C  C13  1  0.07169088  0.66668481  0.18385108  1
  C  C14  1  0.83652471  0.30721062  0.58351652  1
  C  C15  1  0.16347529  0.69278938  0.41648348  1
  S  S0  1  0.20062035  0.81049606  0.93743807  1
  S  S1  1  0.79937965  0.18950394  0.06256193  1
  S  S2  1  0.22556140  0.83427018  0.78788791  1
  S  S3  1  0.77443860  0.16572982  0.21211209  1
  S  S4  1  0.33137323  0.18180472  0.76537500  1
  S  S5  1  0.66862677  0.81819528  0.23462500  1
  S  S6  1  0.30461472  0.16050936  0.91800181  1
  S  S7  1  0.69538528  0.83949064  0.08199819  1
  S  S8  1  0.72559149  0.83076114  0.67296266  1
  S  S9  1  0.27440851  0.16923886  0.32703734  1
  S  S10  1  0.70229816  0.80835178  0.51815986  1
  S  S11  1  0.29770184  0.19164822  0.48184014  1
  S  S12  1  0.82898292  0.18212165  0.77402058  1
  S  S13  1  0.17101708  0.81787835  0.22597942  1
  S  S14  1  0.80389152  0.16059657  0.61682989  1
  S  S15  1  0.19610848  0.83940343  0.38317011  1
  N  N0  1  0.14100688  0.80047512  0.85658478  1
  N  N1  1  0.85899312  0.19952488  0.14341522  1
  N  N2  1  0.27030085  0.20162965  0.84494997  1
  N  N3  1  0.72969915  0.79837035  0.15505003  1
  N  N4  1  0.64230838  0.79473768  0.59611581  1
  N  N5  1  0.35769162  0.20526232  0.40388419  1
  N  N6  1  0.76753800  0.20208537  0.69885976  1
  N  N7  1  0.23246200  0.79791463  0.30114024  1
  O  O0  1  0.34856470  0.86580751  0.95300843  1
  O  O1  1  0.65143530  0.13419249  0.04699157  1
  O  O2  1  0.09641036  0.85184930  0.98830327  1
  O  O3  1  0.90358964  0.14815070  0.01169673  1
  O  O4  1  0.15858118  0.91757909  0.75622915  1
  O  O5  1  0.84141882  0.08242091  0.24377085  1
  O  O6  1  0.37941867  0.85947314  0.79742292  1
  O  O7  1  0.62058133  0.14052686  0.20257708  1
  O  O8  1  0.21677631  0.15988620  0.71071048  1
  O  O9  1  0.78322369  0.84011380  0.28928952  1
  O  O10  1  0.43596467  0.10412036  0.75297247  1
  O  O11  1  0.56403533  0.89587964  0.24702753  1
  O  O12  1  0.43342677  0.10829632  0.92021996  1
  O  O13  1  0.56657323  0.89170368  0.07978004  1
  O  O14  1  0.17797704  0.09683774  0.94593274  1
  O  O15  1  0.82202296  0.90316226  0.05406726  1
  O  O16  1  0.65633906  0.91304434  0.72288666  1
  O  O17  1  0.34366094  0.08695566  0.27711334  1
  O  O18  1  0.87937582  0.85855134  0.66997246  1
  O  O19  1  0.12062418  0.14144866  0.33002754  1
  O  O20  1  0.84938483  0.86657291  0.51641278  1
  O  O21  1  0.15061517  0.13342709  0.48358722  1
  O  O22  1  0.59697155  0.84902579  0.47685302  1
  O  O23  1  0.40302845  0.15097421  0.52314698  1
  O  O24  1  0.71466227  0.15873806  0.82347982  1
  O  O25  1  0.28533773  0.84126194  0.17652018  1
  O  O26  1  0.93459354  0.10528893  0.76864298  1
  O  O27  1  0.06540646  0.89471107  0.23135702  1
  O  O28  1  0.67880182  0.09411065  0.57405156  1
  O  O29  1  0.32119818  0.90588935  0.42594844  1
  O  O30  1  0.93440323  0.11057423  0.60395411  1
  O  O31  1  0.06559677  0.88942577  0.39604589  1
  O  O32  1  0.80100787  0.93118755  0.89930549  1
  O  O33  1  0.19899213  0.06881245  0.10069451  1
  O  O34  1  0.68104103  0.95572436  0.89776901  1
  O  O35  1  0.31895897  0.04427564  0.10223099  1
  O  O36  1  0.30437060  0.93264646  0.58729118  1
  O  O37  1  0.69562940  0.06735354  0.41270882  1
  O  O38  1  0.18250294  0.95352610  0.59089610  1
  O  O39  1  0.81749706  0.04647390  0.40910390  1
  F  F0  1  0.06217511  0.59156183  0.93638816  1
  F  F1  1  0.93782489  0.40843817  0.06361184  1
  F  F2  1  0.27973994  0.60082378  0.89582577  1
  F  F3  1  0.72026006  0.39917622  0.10417423  1
  F  F4  1  0.24657004  0.64725957  0.01409973  1
  F  F5  1  0.75342996  0.35274043  0.98590027  1
  F  F6  1  0.23909622  0.60480571  0.73837157  1
  F  F7  1  0.76090378  0.39519429  0.26162843  1
  F  F8  1  0.04146376  0.65930902  0.70812017  1
  F  F9  1  0.95853624  0.34069098  0.29187983  1
  F  F10  1  0.23987922  0.71540759  0.65358054  1
  F  F11  1  0.76012078  0.28459241  0.34641946  1
  F  F12  1  0.48277400  0.33116711  0.69067445  1
  F  F13  1  0.51722600  0.66883289  0.30932555  1
  F  F14  1  0.34361211  0.41353367  0.77156639  1
  F  F15  1  0.65638789  0.58646633  0.22843361  1
  F  F16  1  0.54074975  0.36506223  0.80839618  1
  F  F17  1  0.45925025  0.63493777  0.19160382  1
  F  F18  1  0.44630490  0.38223172  0.95814720  1
  F  F19  1  0.55369510  0.61776828  0.04185280  1
  F  F20  1  0.22394896  0.35730088  0.99113632  1
  F  F21  1  0.77605104  0.64269912  0.00886368  1
  F  F22  1  0.38324151  0.28901573  0.04973262  1
  F  F23  1  0.61675849  0.71098427  0.95026738  1
  F  F24  1  0.54314999  0.65405836  0.71237132  1
  F  F25  1  0.45685001  0.34594164  0.28762868  1
  F  F26  1  0.74025368  0.71251094  0.78070750  1
  F  F27  1  0.25974632  0.28748906  0.21929250  1
  F  F28  1  0.74256954  0.60157357  0.67115765  1
  F  F29  1  0.25743046  0.39842643  0.32884235  1
  F  F30  1  0.76187537  0.64955702  0.40504920  1
  F  F31  1  0.23812463  0.35044298  0.59495080  1
  F  F32  1  0.57115401  0.58817110  0.46371176  1
  F  F33  1  0.42884599  0.41182890  0.53628824  1
  F  F34  1  0.78425451  0.59951441  0.51282714  1
  F  F35  1  0.21574549  0.40048559  0.48717286  1
  F  F36  1  0.98289582  0.32751850  0.88233678  1
  F  F37  1  0.01710418  0.67248150  0.11766322  1
  F  F38  1  0.03521589  0.36711763  0.77281434  1
  F  F39  1  0.96478411  0.63288237  0.22718566  1
  F  F40  1  0.84043063  0.41386012  0.82444095  1
  F  F41  1  0.15956937  0.58613988  0.17555905  1
  F  F42  1  0.88342698  0.28849486  0.51394917  1
  F  F43  1  0.11657302  0.71150514  0.48605083  1
  F  F44  1  0.71480412  0.35070083  0.58332118  1
  F  F45  1  0.28519588  0.64929917  0.41667882  1
  F  F46  1  0.93499899  0.38681128  0.62675919  1
  F  F47  1  0.06500101  0.61318872  0.37324081  1
loop_
_geom_bond_atom_site_label_1
_geom_bond_atom_site_label_2
_geom_bond_distance
_geom_bond_site_symmetry_2
Li0 O3 2.063011 1_455
Li0 O2 2.063011 1_544
Li0 O14 2.214742 1_554
Li0 O15 2.214742 1_445
Li0 O32 2.578874 1_444
Li0 O33 2.578874 1_555
Li1 O1 2.001572 1_555
Li1 O0 2.001572 1_544
Li1 O12 2.258001 1_554
Li1 O13 2.258001 1_545
Li1 O35 2.605920 1_555
Li1 O34 2.605920 1_544
Li2 O10 1.907597 1_555
Li2 O16 2.077466 1_545
Li2 O6 2.093176 1_545
Li2 O24 2.185547 1_555
Li2 O34 2.497102 1_545
Li2 O12 2.621561 1_555
Li3 O11 1.907597 1_555
Li3 O17 2.077466 1_565
Li3 O7 2.093176 1_565
Li3 O25 2.185547 1_555
Li3 O35 2.497102 1_565
Li3 O13 2.621561 1_555
Li4 O23 2.096155 1_555
Li4 O22 2.096155 1_545
Li4 O28 2.190466 1_555
Li4 O29 2.190466 1_545
Li4 O37 2.582491 1_555
Li4 O36 2.582491 1_545
Li5 O20 1.990777 1_445
Li5 O21 1.990777 1_555
Li5 O31 2.263555 1_545
Li5 O30 2.263555 1_455
Li5 O38 2.606643 1_545
Li5 O39 2.606643 1_455
Li6 O26 1.907969 1_455
Li6 O4 2.072062 1_545
Li6 O18 2.115585 1_445
Li6 O8 2.190079 1_555
Li6 O38 2.514248 1_545
Li6 O30 2.599147 1_455
Li7 O27 1.907969 1_655
Li7 O5 2.072062 1_565
Li7 O19 2.115585 1_665
Li7 O9 2.190079 1_555
Li7 O39 2.514248 1_565
Li7 O31 2.599147 1_655
C0 F4 1.346058 1_556
C0 F0 1.346811 1_555
C0 F2 1.350111 1_555
C0 S0 1.876819 1_555
C1 F5 1.346058 1_554
C1 F1 1.346811 1_555
C1 F3 1.350111 1_555
C1 S1 1.876819 1_555
C2 F6 1.343296 1_555
C2 F8 1.345728 1_555
C2 F10 1.354250 1_555
C2 S2 1.879636 1_555
C3 F7 1.343296 1_555
C3 F9 1.345728 1_555
C3 F11 1.354250 1_555
C3 S3 1.879636 1_555
C4 F14 1.346614 1_555
C4 F12 1.347538 1_555
C4 F16 1.347767 1_555
C4 S4 1.876082 1_555
C5 F15 1.346614 1_555
C5 F13 1.347538 1_555
C5 F17 1.347767 1_555
C5 S5 1.876082 1_555
C6 F18 1.345412 1_555
C6 F20 1.346136 1_555
C6 F22 1.354489 1_556
C6 S6 1.883805 1_555
C7 F19 1.345412 1_555
C7 F21 1.346136 1_555
C7 F23 1.354489 1_554
C7 S7 1.883805 1_555
C8 F28 1.345025 1_555
C8 F24 1.346465 1_555
C8 F26 1.353213 1_555
C8 S8 1.881723 1_555
C9 F29 1.345025 1_555
C9 F25 1.346465 1_555
C9 F27 1.353213 1_555
C9 S9 1.881723 1_555
C10 F32 1.344827 1_555
C10 F30 1.347023 1_555
C10 F34 1.352010 1_555
C10 S10 1.881657 1_555
C11 F33 1.344827 1_555
C11 F31 1.347023 1_555
C11 F35 1.352010 1_555
C11 S11 1.881657 1_555
C12 F36 1.347123 1_555
C12 F38 1.347805 1_655
C12 F40 1.348308 1_555
C12 S12 1.875414 1_555
C13 F37 1.347123 1_555
C13 F39 1.347805 1_455
C13 F41 1.348308 1_555
C13 S13 1.875414 1_555
C14 F44 1.344276 1_555
C14 F46 1.345510 1_555
C14 F42 1.355536 1_555
C14 S14 1.888171 1_555
C15 F45 1.344276 1_555
C15 F47 1.345510 1_555
C15 F43 1.355536 1_555
C15 S15 1.888171 1_555
N0 S0 1.576744 1_555
N0 S2 1.579180 1_555
N1 S1 1.576744 1_555
N1 S3 1.579180 1_555
N2 S6 1.563664 1_555
N2 S4 1.576524 1_555
N3 S7 1.563664 1_555
N3 S5 1.576524 1_555
N4 S10 1.576483 1_555
N4 S8 1.579885 1_555
N5 S11 1.576483 1_555
N5 S9 1.579885 1_555
N6 S14 1.565063 1_555
N6 S12 1.578198 1_555
N7 S15 1.565063 1_555
N7 S13 1.578198 1_555
O0 S0 1.453221 1_555
O1 S1 1.453221 1_555
O2 S0 1.452200 1_555
O3 S1 1.452200 1_555
O4 S2 1.449296 1_555
O5 S3 1.449296 1_555
O6 S2 1.452072 1_555
O7 S3 1.452072 1_555
O8 S4 1.446791 1_555
O9 S5 1.446791 1_555
O10 S4 1.447972 1_555
O11 S5 1.447972 1_555
O12 S6 1.464787 1_555
O13 S7 1.464787 1_555
O14 S6 1.451788 1_555
O15 S7 1.451788 1_555
O16 S8 1.449525 1_555
O17 S9 1.449525 1_555
O18 S8 1.451821 1_555
O19 S9 1.451821 1_555
O20 S10 1.453479 1_555
O21 S11 1.453479 1_555
O22 S10 1.451992 1_555
O23 S11 1.451992 1_555
O24 S12 1.446637 1_555
O25 S13 1.446637 1_555
O26 S12 1.448283 1_555
O27 S13 1.448283 1_555
O28 S14 1.452277 1_555
O29 S15 1.452277 1_555
O30 S14 1.464717 1_555
O31 S15 1.464717 1_555
O32 O34 1.228297 1_555
O33 O35 1.228297 1_555
O36 O38 1.228144 1_555
O37 O39 1.228144 1_555
