# generated using pymatgen
data_Ba8Sc3(Pt2O9)2
_symmetry_space_group_name_H-M   'P 1'
_cell_length_a   8.27718300
_cell_length_b   8.27718300
_cell_length_c   8.27718300
_cell_angle_alpha   90.00000000
_cell_angle_beta   90.00000000
_cell_angle_gamma   90.00000000
_symmetry_Int_Tables_number   1
_chemical_formula_structural   Ba8Sc3(Pt2O9)2
_chemical_formula_sum   'Ba8 Sc3 Pt4 O18'
_cell_volume   567.08436206
_cell_formula_units_Z   1
loop_
 _symmetry_equiv_pos_site_id
 _symmetry_equiv_pos_as_xyz
  1  'x, y, z'
loop_
 _atom_site_type_symbol
 _atom_site_label
 _atom_site_symmetry_multiplicity
 _atom_site_fract_x
 _atom_site_fract_y
 _atom_site_fract_z
 _atom_site_occupancy
  Ba  Ba0  1  0.23857400  0.23857400  0.23857400  1
  Ba  Ba1  1  0.76142600  0.76142600  0.76142600  1
  Ba  Ba2  1  0.76142600  0.76142600  0.23857400  1
  Ba  Ba3  1  0.76142600  0.23857400  0.76142600  1
  Ba  Ba4  1  0.23857400  0.23857400  0.76142600  1
  Ba  Ba5  1  0.23857400  0.76142600  0.23857400  1
  Ba  Ba6  1  0.23857400  0.76142600  0.76142600  1
  Ba  Ba7  1  0.76142600  0.23857400  0.23857400  1
  Sc  Sc0  1  0.50000000  0.00000000  0.00000000  1
  Sc  Sc1  1  0.00000000  0.50000000  0.00000000  1
  Sc  Sc2  1  0.00000000  0.00000000  0.50000000  1
  Pt  Pt0  1  0.00000000  0.50000000  0.50000000  1
  Pt  Pt1  1  0.50000000  0.00000000  0.50000000  1
  Pt  Pt2  1  0.50000000  0.50000000  0.00000000  1
  Pt  Pt3  1  0.00000000  0.00000000  0.00000000  1
  O  O0  1  0.25464100  0.50000000  0.00000000  1
  O  O1  1  0.74535900  0.50000000  0.00000000  1
  O  O2  1  0.00000000  0.25464100  0.50000000  1
  O  O3  1  0.50000000  0.25464100  0.00000000  1
  O  O4  1  0.00000000  0.74535900  0.50000000  1
  O  O5  1  0.50000000  0.74535900  0.00000000  1
  O  O6  1  0.50000000  0.00000000  0.25464100  1
  O  O7  1  0.25464100  0.00000000  0.50000000  1
  O  O8  1  0.50000000  0.00000000  0.74535900  1
  O  O9  1  0.74535900  0.00000000  0.50000000  1
  O  O10  1  0.00000000  0.50000000  0.25464100  1
  O  O11  1  0.00000000  0.50000000  0.74535900  1
  O  O12  1  0.24547800  0.00000000  0.00000000  1
  O  O13  1  0.75452200  0.00000000  0.00000000  1
  O  O14  1  0.00000000  0.24547800  0.00000000  1
  O  O15  1  0.00000000  0.75452200  0.00000000  1
  O  O16  1  0.00000000  0.00000000  0.24547800  1
  O  O17  1  0.00000000  0.00000000  0.75452200  1
loop_
_geom_bond_atom_site_label_1
_geom_bond_atom_site_label_2
_geom_bond_distance
_geom_bond_site_symmetry_2
Ba0 O14 2.793261 1_555
Ba0 O12 2.793261 1_555
Ba0 O16 2.793261 1_555
Ba0 O10 2.932498 1_555
Ba0 O3 2.932498 1_555
Ba0 O7 2.932498 1_555
Ba0 O2 2.932498 1_555
Ba0 O6 2.932498 1_555
Ba0 O0 2.932498 1_555
Ba1 O15 2.793261 1_656
Ba1 O17 2.793261 1_665
Ba1 O13 2.793261 1_566
Ba1 O9 2.932498 1_565
Ba1 O1 2.932498 1_556
Ba1 O5 2.932498 1_556
Ba1 O4 2.932498 1_655
Ba1 O8 2.932498 1_565
Ba1 O11 2.932498 1_655
Ba2 O16 2.793261 1_665
Ba2 O15 2.793261 1_655
Ba2 O13 2.793261 1_565
Ba2 O9 2.932498 1_565
Ba2 O4 2.932498 1_655
Ba2 O10 2.932498 1_655
Ba2 O5 2.932498 1_555
Ba2 O6 2.932498 1_565
Ba2 O1 2.932498 1_555
Ba3 O14 2.793261 1_656
Ba3 O13 2.793261 1_556
Ba3 O17 2.793261 1_655
Ba3 O11 2.932498 1_655
Ba3 O1 2.932498 1_556
Ba3 O2 2.932498 1_655
Ba3 O9 2.932498 1_555
Ba3 O3 2.932498 1_556
Ba3 O8 2.932498 1_555
Ba4 O14 2.793261 1_556
Ba4 O12 2.793261 1_556
Ba4 O17 2.793261 1_555
Ba4 O3 2.932498 1_556
Ba4 O0 2.932498 1_556
Ba4 O11 2.932498 1_555
Ba4 O2 2.932498 1_555
Ba4 O7 2.932498 1_555
Ba4 O8 2.932498 1_555
Ba5 O15 2.793261 1_555
Ba5 O12 2.793261 1_565
Ba5 O16 2.793261 1_565
Ba5 O7 2.932498 1_565
Ba5 O6 2.932498 1_565
Ba5 O10 2.932498 1_555
Ba5 O4 2.932498 1_555
Ba5 O5 2.932498 1_555
Ba5 O0 2.932498 1_555
Ba6 O12 2.793261 1_566
Ba6 O15 2.793261 1_556
Ba6 O17 2.793261 1_565
Ba6 O8 2.932498 1_565
Ba6 O5 2.932498 1_556
Ba6 O11 2.932498 1_555
Ba6 O4 2.932498 1_555
Ba6 O7 2.932498 1_565
Ba6 O0 2.932498 1_556
Ba7 O14 2.793261 1_655
Ba7 O13 2.793261 1_555
Ba7 O16 2.793261 1_655
Ba7 O10 2.932498 1_655
Ba7 O2 2.932498 1_655
Ba7 O3 2.932498 1_555
Ba7 O9 2.932498 1_555
Ba7 O6 2.932498 1_555
Ba7 O1 2.932498 1_555
O0 Pt2 2.030881 1_555
O0 Sc1 2.107710 1_555
O1 Pt2 2.030881 1_555
O1 Sc1 2.107710 1_655
O2 Pt0 2.030881 1_555
O2 Sc2 2.107710 1_555
O3 Pt2 2.030881 1_555
O3 Sc0 2.107710 1_555
O4 Pt0 2.030881 1_555
O4 Sc2 2.107710 1_565
O5 Pt2 2.030881 1_555
O5 Sc0 2.107710 1_565
O6 Pt1 2.030881 1_555
O6 Sc0 2.107710 1_555
O7 Pt1 2.030881 1_555
O7 Sc2 2.107710 1_555
O8 Pt1 2.030881 1_555
O8 Sc0 2.107710 1_556
O9 Pt1 2.030881 1_555
O9 Sc2 2.107710 1_655
O10 Pt0 2.030881 1_555
O10 Sc1 2.107710 1_555
O11 Pt0 2.030881 1_555
O11 Sc1 2.107710 1_556
O12 Pt3 2.031866 1_555
O12 Sc0 2.106725 1_555
O13 Pt3 2.031866 1_655
O13 Sc0 2.106725 1_555
O14 Pt3 2.031866 1_555
O14 Sc1 2.106725 1_555
O15 Pt3 2.031866 1_565
O15 Sc1 2.106725 1_555
O16 Pt3 2.031866 1_555
O16 Sc2 2.106725 1_555
O17 Pt3 2.031866 1_556
O17 Sc2 2.106725 1_555
