# generated using pymatgen
data_Yb5Co19P12
_symmetry_space_group_name_H-M   'P 1'
_cell_length_a   11.80634075
_cell_length_b   11.80634075
_cell_length_c   3.63657834
_cell_angle_alpha   90.00000000
_cell_angle_beta   90.00000000
_cell_angle_gamma   120.00000265
_symmetry_Int_Tables_number   1
_chemical_formula_structural   Yb5Co19P12
_chemical_formula_sum   'Yb5 Co19 P12'
_cell_volume   438.98956368
_cell_formula_units_Z   1
loop_
 _symmetry_equiv_pos_site_id
 _symmetry_equiv_pos_as_xyz
  1  'x, y, z'
loop_
 _atom_site_type_symbol
 _atom_site_label
 _atom_site_symmetry_multiplicity
 _atom_site_fract_x
 _atom_site_fract_y
 _atom_site_fract_z
 _atom_site_occupancy
  Yb  Yb0  1  0.66666700  0.33333300  0.50000000  1
  Yb  Yb1  1  0.33333300  0.66666700  0.50000000  1
  Yb  Yb2  1  0.18690492  0.18690492  0.00000000  1
  Yb  Yb3  1  0.81309508  1.00000000  0.00000000  1
  Yb  Yb4  1  1.00000000  0.81309508  0.00000000  1
  Co  Co0  1  0.82255217  0.19950690  0.50000000  1
  Co  Co1  1  0.80049310  0.62304527  0.50000000  1
  Co  Co2  1  0.37695473  0.17744783  0.50000000  1
  Co  Co3  1  0.19950690  0.82255217  0.50000000  1
  Co  Co4  1  0.62304527  0.80049310  0.50000000  1
  Co  Co5  1  0.17744783  0.37695473  0.50000000  1
  Co  Co6  1  0.55305062  0.55305062  0.50000000  1
  Co  Co7  1  0.44694938  1.00000000  0.50000000  1
  Co  Co8  1  1.00000000  0.44694938  0.50000000  1
  Co  Co9  1  0.64231408  0.12577721  0.00000000  1
  Co  Co10  1  0.87422279  0.51653687  0.00000000  1
  Co  Co11  1  0.48346313  0.35768592  0.00000000  1
  Co  Co12  1  0.12577721  0.64231408  0.00000000  1
  Co  Co13  1  0.51653687  0.87422279  0.00000000  1
  Co  Co14  1  0.35768592  0.48346313  0.00000000  1
  Co  Co15  1  0.71523770  0.71523770  0.00000000  1
  Co  Co16  1  0.28476230  0.00000000  0.00000000  1
  Co  Co17  1  0.00000000  0.28476230  0.00000000  1
  Co  Co18  1  0.00000000  0.00000000  0.50000000  1
  P  P0  1  0.36645628  0.36645628  0.50000000  1
  P  P1  1  0.63354372  0.00000000  0.50000000  1
  P  P2  1  0.00000000  0.63354372  0.50000000  1
  P  P3  1  0.83307682  0.31402546  0.00000000  1
  P  P4  1  0.68597454  0.51905136  0.00000000  1
  P  P5  1  0.48094864  0.16692318  0.00000000  1
  P  P6  1  0.31402546  0.83307682  0.00000000  1
  P  P7  1  0.51905136  0.68597454  0.00000000  1
  P  P8  1  0.16692318  0.48094864  0.00000000  1
  P  P9  1  0.82120100  0.82120100  0.50000000  1
  P  P10  1  0.17879900  1.00000000  0.50000000  1
  P  P11  1  1.00000000  0.17879900  0.50000000  1
loop_
_geom_bond_atom_site_label_1
_geom_bond_atom_site_label_2
_geom_bond_distance
_geom_bond_site_symmetry_2
Co0 P11 2.227338 1_555
Co0 P3 2.231959 1_556
Co0 P3 2.231959 1_555
Co0 P1 2.295983 1_555
Co0 Yb3 2.933219 1_546
Co0 Yb3 2.933219 1_545
Co0 Yb0 2.965040 1_555
Co1 P9 2.227338 1_555
Co1 P4 2.231959 1_556
Co1 P4 2.231959 1_555
Co1 P2 2.295983 1_655
Co1 Yb4 2.933219 1_555
Co1 Yb4 2.933219 1_556
Co1 Yb0 2.965051 1_555
Co2 P10 2.227338 1_545
Co2 P5 2.231959 1_555
Co2 P5 2.231959 1_556
Co2 P0 2.295983 1_555
Co2 Yb2 2.933219 1_556
Co2 Yb2 2.933219 1_555
Co2 Yb0 2.965050 1_555
Co3 P10 2.227338 1_555
Co3 P6 2.231959 1_556
Co3 P6 2.231959 1_555
Co3 P2 2.295983 1_555
Co3 Yb4 2.933219 1_456
Co3 Yb4 2.933219 1_455
Co3 Yb1 2.965040 1_555
Co4 P9 2.227338 1_555
Co4 P7 2.231959 1_555
Co4 P7 2.231959 1_556
Co4 P1 2.295983 1_565
Co4 Yb3 2.933219 1_555
Co4 Yb3 2.933219 1_556
Co4 Yb1 2.965051 1_555
Co5 P11 2.227338 1_455
Co5 P8 2.231959 1_556
Co5 P8 2.231959 1_555
Co5 P0 2.295983 1_555
Co5 Yb2 2.933219 1_556
Co5 Yb2 2.933219 1_555
Co5 Yb1 2.965050 1_555
Co6 P0 2.202996 1_555
Co6 P4 2.561268 1_555
Co6 P7 2.561268 1_555
Co6 P7 2.561268 1_556
Co6 P4 2.561268 1_556
Co7 P1 2.202996 1_565
Co7 P6 2.561268 1_555
Co7 P6 2.561268 1_556
Co7 P5 2.561268 1_565
Co7 P5 2.561268 1_566
Co8 P2 2.202996 1_655
Co8 P3 2.561268 1_556
Co8 P3 2.561268 1_555
Co8 P8 2.561268 1_655
Co8 P8 2.561268 1_656
Co9 P5 2.188837 1_555
Co9 P3 2.237514 1_555
Co9 P1 2.316952 1_555
Co9 P1 2.316952 1_554
Co9 Yb0 2.947730 1_555
Co9 Yb0 2.947730 1_554
Co9 Yb3 3.043802 1_545
Co10 P3 2.188837 1_555
Co10 P4 2.237514 1_555
Co10 P2 2.316952 1_654
Co10 P2 2.316952 1_655
Co10 Yb0 2.947733 1_555
Co10 Yb0 2.947733 1_554
Co10 Yb4 3.043802 1_555
Co11 P4 2.188837 1_555
Co11 P5 2.237514 1_555
Co11 P0 2.316952 1_555
Co11 P0 2.316952 1_554
Co11 Yb0 2.947739 1_555
Co11 Yb0 2.947739 1_554
Co11 Yb2 3.043802 1_555
Co12 P8 2.188837 1_555
Co12 P6 2.237514 1_555
Co12 P2 2.316952 1_554
Co12 P2 2.316952 1_555
Co12 Yb1 2.947730 1_554
Co12 Yb1 2.947730 1_555
Co12 Yb4 3.043802 1_455
Co13 P6 2.188837 1_555
Co13 P7 2.237514 1_555
Co13 P1 2.316952 1_565
Co13 P1 2.316952 1_564
Co13 Yb1 2.947733 1_554
Co13 Yb1 2.947733 1_555
Co13 Yb3 3.043802 1_555
Co14 P7 2.188837 1_555
Co14 P8 2.237514 1_555
Co14 P0 2.316952 1_555
Co14 P0 2.316952 1_554
Co14 Yb1 2.947739 1_555
Co14 Yb1 2.947739 1_554
Co14 Yb2 3.043802 1_555
Co15 P7 2.164279 1_555
Co15 P4 2.164279 1_555
Co15 P9 2.207096 1_554
Co15 P9 2.207096 1_555
Co15 Yb3 2.958650 1_555
Co15 Yb4 2.958650 1_555
Co16 P5 2.164279 1_555
Co16 P6 2.164279 1_545
Co16 P10 2.207096 1_544
Co16 P10 2.207096 1_545
Co16 Yb4 2.958650 1_445
Co16 Yb2 2.958650 1_555
Co17 P8 2.164279 1_555
Co17 P3 2.164279 1_455
Co17 P11 2.207096 1_455
Co17 P11 2.207096 1_454
Co17 Yb3 2.958650 1_445
Co17 Yb2 2.958650 1_555
Co18 P9 2.110962 1_445
Co18 P11 2.110962 1_455
Co18 P10 2.110962 1_545
Co18 Yb2 2.859290 1_556
Co18 Yb2 2.859290 1_555
Co18 Yb4 2.859290 1_446
Co18 Yb3 2.859290 1_445
Co18 Yb3 2.859290 1_446
Co18 Yb4 2.859290 1_445
P0 Yb2 2.792833 1_556
P0 Yb2 2.792833 1_555
P1 Yb3 2.792833 1_545
P1 Yb3 2.792833 1_546
P2 Yb4 2.792833 1_456
P2 Yb4 2.792833 1_455
P3 Yb0 2.768755 1_555
P3 Yb0 2.768755 1_554
P4 Yb0 2.768763 1_554
P4 Yb0 2.768763 1_555
P5 Yb0 2.768760 1_555
P5 Yb0 2.768760 1_554
P6 Yb1 2.768755 1_555
P6 Yb1 2.768755 1_554
P7 Yb1 2.768763 1_555
P7 Yb1 2.768763 1_554
P8 Yb1 2.768760 1_555
P8 Yb1 2.768760 1_554
P9 Yb3 2.823742 1_556
P9 Yb4 2.823742 1_555
P9 Yb4 2.823742 1_556
P9 Yb3 2.823742 1_555
P10 Yb4 2.823741 1_456
P10 Yb4 2.823741 1_455
P10 Yb2 2.823742 1_566
P10 Yb2 2.823742 1_565
P11 Yb3 2.823741 1_546
P11 Yb3 2.823741 1_545
P11 Yb2 2.823742 1_656
P11 Yb2 2.823742 1_655
