# generated using pymatgen
data_Mg6CrB
_symmetry_space_group_name_H-M   'P 1'
_cell_length_a   4.71199900
_cell_length_b   6.02007300
_cell_length_c   10.58114100
_cell_angle_alpha   90.00000000
_cell_angle_beta   90.00000000
_cell_angle_gamma   90.00000000
_symmetry_Int_Tables_number   1
_chemical_formula_structural   Mg6CrB
_chemical_formula_sum   'Mg12 Cr2 B2'
_cell_volume   300.15076104
_cell_formula_units_Z   2
loop_
 _symmetry_equiv_pos_site_id
 _symmetry_equiv_pos_as_xyz
  1  'x, y, z'
loop_
 _atom_site_type_symbol
 _atom_site_label
 _atom_site_symmetry_multiplicity
 _atom_site_fract_x
 _atom_site_fract_y
 _atom_site_fract_z
 _atom_site_occupancy
  Mg  Mg0  1  0.50000000  0.24886800  0.41927400  1
  Mg  Mg1  1  0.50000000  0.75113200  0.41927400  1
  Mg  Mg2  1  0.00000000  0.74557800  0.08726100  1
  Mg  Mg3  1  0.00000000  0.25442200  0.08726100  1
  Mg  Mg4  1  0.00000000  0.00000000  0.32805300  1
  Mg  Mg5  1  0.00000000  0.50000000  0.32146300  1
  Mg  Mg6  1  0.50000000  0.74886800  0.91927400  1
  Mg  Mg7  1  0.50000000  0.25113200  0.91927400  1
  Mg  Mg8  1  0.00000000  0.24557800  0.58726100  1
  Mg  Mg9  1  0.00000000  0.75442200  0.58726100  1
  Mg  Mg10  1  0.00000000  0.50000000  0.82805300  1
  Mg  Mg11  1  0.00000000  0.00000000  0.82146300  1
  Cr  Cr0  1  0.50000000  0.00000000  0.16978600  1
  Cr  Cr1  1  0.50000000  0.50000000  0.66978600  1
  B  B0  1  0.50000000  0.50000000  0.16762400  1
  B  B1  1  0.50000000  0.00000000  0.66762400  1
loop_
_geom_bond_atom_site_label_1
_geom_bond_atom_site_label_2
_geom_bond_distance
_geom_bond_site_symmetry_2
Mg0 Mg8 2.951374 1_655
Mg0 Mg8 2.951374 1_555
Mg0 Mg4 2.954150 1_655
Mg0 Mg4 2.954150 1_555
Mg0 Mg5 2.984543 1_655
Mg0 Mg5 2.984543 1_555
Mg0 Mg1 2.996407 1_545
Mg0 Mg1 3.023666 1_555
Mg1 Mg9 2.951374 1_555
Mg1 Mg9 2.951374 1_655
Mg1 Mg4 2.954150 1_565
Mg1 Mg4 2.954150 1_665
Mg1 Mg5 2.984543 1_655
Mg1 Mg5 2.984543 1_555
Mg2 Mg6 2.951374 1_554
Mg2 Mg6 2.951374 1_454
Mg2 Mg4 2.972790 1_565
Mg3 Mg7 2.951374 1_554
Mg3 Mg7 2.951374 1_454
Mg3 Mg4 2.972790 1_555
Mg4 Mg5 3.010844 1_545
Mg4 Mg5 3.010844 1_555
Mg4 Mg8 3.115791 1_555
Mg4 Mg9 3.115791 1_545
Mg6 Mg7 2.996407 1_555
Mg6 Mg7 3.023666 1_565
Mg10 Mg6 2.954150 1_455
Mg10 Mg6 2.954150 1_555
Mg10 Mg7 2.954150 1_455
Mg10 Mg7 2.954150 1_555
Mg10 Mg8 2.972790 1_555
Mg10 Mg9 2.972790 1_555
Mg10 Mg11 3.010844 1_565
Mg10 Mg11 3.010844 1_555
Mg10 Mg3 3.115791 1_556
Mg10 Mg2 3.115791 1_556
Mg11 Mg6 2.984543 1_545
Mg11 Mg7 2.984543 1_555
Mg11 Mg6 2.984543 1_445
Mg11 Mg7 2.984543 1_455
Cr0 Mg4 2.890531 1_655
Cr0 Mg4 2.890531 1_555
Cr0 Mg3 2.942643 1_555
Cr0 Mg3 2.942643 1_655
Cr0 Mg2 2.942643 1_645
Cr0 Mg2 2.942643 1_545
Cr0 Mg0 3.035377 1_555
Cr0 Mg1 3.035377 1_545
Cr0 Mg7 3.051535 1_554
Cr0 Mg6 3.051535 1_544
Cr1 Mg10 2.890531 1_655
Cr1 Mg10 2.890531 1_555
Cr1 Mg9 2.942643 1_555
Cr1 Mg9 2.942643 1_655
Cr1 Mg8 2.942643 1_555
Cr1 Mg8 2.942643 1_655
Cr1 Mg6 3.035377 1_555
Cr1 Mg7 3.035377 1_555
Cr1 Mg0 3.051535 1_555
Cr1 Mg1 3.051535 1_555
B0 Mg5 2.863641 1_555
B0 Mg5 2.863641 1_655
B0 Mg3 2.908515 1_655
B0 Mg2 2.908515 1_555
B0 Mg2 2.908515 1_655
B0 Mg3 2.908515 1_555
B0 Mg7 3.024911 1_554
B0 Mg6 3.024911 1_554
B0 Mg1 3.062000 1_555
B0 Mg0 3.062000 1_555
B1 Mg11 2.863641 1_655
B1 Mg11 2.863641 1_555
B1 Mg9 2.908515 1_545
B1 Mg9 2.908515 1_645
B1 Mg8 2.908515 1_655
B1 Mg8 2.908515 1_555
B1 Mg0 3.024911 1_555
B1 Mg1 3.024911 1_545
B1 Mg6 3.062000 1_545
B1 Mg7 3.062000 1_555
