# generated using pymatgen
data_SrPH10S3O5
_symmetry_space_group_name_H-M   'P 1'
_cell_length_a   8.47620700
_cell_length_b   9.29656724
_cell_length_c   12.92057768
_cell_angle_alpha   91.68269375
_cell_angle_beta   100.38174262
_cell_angle_gamma   91.82105610
_symmetry_Int_Tables_number   1
_chemical_formula_structural   SrPH10S3O5
_chemical_formula_sum   'Sr4 P4 H40 S12 O20'
_cell_volume   1000.32514161
_cell_formula_units_Z   4
loop_
 _symmetry_equiv_pos_site_id
 _symmetry_equiv_pos_as_xyz
  1  'x, y, z'
loop_
 _atom_site_type_symbol
 _atom_site_label
 _atom_site_symmetry_multiplicity
 _atom_site_fract_x
 _atom_site_fract_y
 _atom_site_fract_z
 _atom_site_occupancy
  Sr  Sr0  1  0.00467200  0.50324400  0.32325700  1
  Sr  Sr1  1  0.99532800  0.49675600  0.67674300  1
  Sr  Sr2  1  0.48197000  0.99331400  0.81807300  1
  Sr  Sr3  1  0.51803000  0.00668600  0.18192700  1
  P  P0  1  0.10664700  0.42598400  0.01119400  1
  P  P1  1  0.89335300  0.57401600  0.98880600  1
  P  P2  1  0.45423600  0.11399500  0.49846300  1
  P  P3  1  0.54576400  0.88600500  0.50153700  1
  H  H0  1  0.66448300  0.63885500  0.34394900  1
  H  H1  1  0.33551700  0.36114500  0.65605100  1
  H  H2  1  0.71745900  0.53535000  0.43476200  1
  H  H3  1  0.28254100  0.46465000  0.56523800  1
  H  H4  1  0.89184900  0.16008400  0.26744400  1
  H  H5  1  0.10815100  0.83991600  0.73255600  1
  H  H6  1  0.93830000  0.24193500  0.16963500  1
  H  H7  1  0.06170000  0.75806500  0.83036500  1
  H  H8  1  0.63616600  0.59717600  0.59610600  1
  H  H9  1  0.36383400  0.40282400  0.40389400  1
  H  H10  1  0.63669200  0.42670400  0.58750800  1
  H  H11  1  0.36330800  0.57329600  0.41249200  1
  H  H12  1  0.14919400  0.81682100  0.30568400  1
  H  H13  1  0.85080600  0.18317900  0.69431600  1
  H  H14  1  0.04576100  0.77438300  0.19499500  1
  H  H15  1  0.95423900  0.22561700  0.80500500  1
  H  H16  1  0.02508100  0.26157900  0.49258400  1
  H  H17  1  0.97491900  0.73842100  0.50741600  1
  H  H18  1  0.83735000  0.28448100  0.46618900  1
  H  H19  1  0.16265000  0.71551900  0.53381100  1
  H  H20  1  0.61023400  0.32697600  0.11522100  1
  H  H21  1  0.38976600  0.67302400  0.88477900  1
  H  H22  1  0.43693000  0.32866600  0.14243300  1
  H  H23  1  0.56307000  0.67133400  0.85756700  1
  H  H24  1  0.52337400  0.70964300  0.06714600  1
  H  H25  1  0.47662600  0.29035700  0.93285400  1
  H  H26  1  0.63099000  0.31846900  0.88504000  1
  H  H27  1  0.36901000  0.68153100  0.11496000  1
  H  H28  1  0.83371200  0.88188000  0.84937700  1
  H  H29  1  0.16628800  0.11812000  0.15062300  1
  H  H30  1  0.78090500  0.91569800  0.72882700  1
  H  H31  1  0.21909500  0.08430200  0.27117300  1
  H  H32  1  0.88572100  0.91056900  0.27774500  1
  H  H33  1  0.11427900  0.08943100  0.72225500  1
  H  H34  1  0.79651400  0.97210500  0.36523600  1
  H  H35  1  0.20348600  0.02789500  0.63476400  1
  H  H36  1  0.74345700  0.08336200  0.01739300  1
  H  H37  1  0.25654300  0.91663800  0.98260700  1
  H  H38  1  0.77210300  0.91818500  0.02727600  1
  H  H39  1  0.22789700  0.08181500  0.97272400  1
  S  S0  1  0.76885500  0.54267500  0.10603900  1
  S  S1  1  0.23114500  0.45732500  0.89396100  1
  S  S2  1  0.23574600  0.47892300  0.15654900  1
  S  S3  1  0.76425400  0.52107700  0.84345100  1
  S  S4  1  0.00908900  0.21917700  0.00091600  1
  S  S5  1  0.99091100  0.78082300  0.99908400  1
  S  S6  1  0.45340500  0.77987600  0.61334300  1
  S  S7  1  0.54659500  0.22012400  0.38665700  1
  S  S8  1  0.21122900  0.08485700  0.46574800  1
  S  S9  1  0.78877100  0.91514300  0.53425200  1
  S  S10  1  0.54000100  0.20737500  0.64433900  1
  S  S11  1  0.45999900  0.79262500  0.35566100  1
  O  O0  1  0.73852000  0.56131800  0.36512100  1
  O  O1  1  0.26148000  0.43868200  0.63487900  1
  O  O2  1  0.92868200  0.25428900  0.24462700  1
  O  O3  1  0.07131800  0.74571100  0.75537300  1
  O  O4  1  0.30055800  0.48452300  0.42319000  1
  O  O5  1  0.69944200  0.51547700  0.57681000  1
  O  O6  1  0.04311600  0.77641600  0.27126300  1
  O  O7  1  0.95688400  0.22358400  0.72873700  1
  O  O8  1  0.05712600  0.66376400  0.51243300  1
  O  O9  1  0.94287400  0.33623600  0.48756700  1
  O  O10  1  0.52016900  0.26344300  0.12603600  1
  O  O11  1  0.47983100  0.73655700  0.87396400  1
  O  O12  1  0.55799600  0.24095300  0.90162000  1
  O  O13  1  0.44200400  0.75904700  0.09838000  1
  O  O14  1  0.76929000  0.94604400  0.80055600  1
  O  O15  1  0.23071000  0.05395600  0.19944400  1
  O  O16  1  0.19213200  0.01617400  0.70968200  1
  O  O17  1  0.80786800  0.98382600  0.29031800  1
  O  O18  1  0.31017000  0.00817800  0.97070400  1
  O  O19  1  0.68983000  0.99182200  0.02929600  1
loop_
_geom_bond_atom_site_label_1
_geom_bond_atom_site_label_2
_geom_bond_distance
_geom_bond_site_symmetry_2
P0 S1 2.018745 1_554
P0 S2 2.034107 1_555
P0 S4 2.059658 1_555
P1 S0 2.018745 1_556
P1 S3 2.034107 1_555
P1 S5 2.059658 1_555
P2 S7 2.028640 1_555
P2 S8 2.034392 1_555
P2 S10 2.050498 1_555
P3 S6 2.028640 1_555
P3 S9 2.034392 1_555
P3 S11 2.050498 1_555
H0 O0 0.983212 1_555
H1 O1 0.983212 1_555
H2 O0 0.983719 1_555
H3 O1 0.983719 1_555
H4 O2 0.991129 1_555
H5 O3 0.991129 1_555
H6 O2 0.990561 1_555
H7 O3 0.990561 1_555
H8 O5 0.994813 1_555
H9 O4 0.994813 1_555
H10 O5 0.994181 1_555
H11 O4 0.994181 1_555
H12 O6 0.985871 1_555
H13 O7 0.985871 1_555
H14 O6 0.989354 1_555
H15 O7 0.989354 1_555
H16 O9 0.994257 1_455
H17 O8 0.994257 1_655
H18 O9 0.991778 1_555
H19 O8 0.991778 1_555
H20 O10 0.982757 1_555
H21 O11 0.982757 1_555
H22 O10 0.991900 1_555
H23 O11 0.991900 1_555
H24 O13 0.979321 1_555
H25 O12 0.979321 1_555
H26 O12 0.988184 1_555
H27 O13 0.988184 1_555
H28 O14 0.985166 1_555
H29 O15 0.985166 1_555
H30 O14 0.983614 1_555
H31 O15 0.983614 1_555
H32 O17 0.993162 1_555
H33 O16 0.993162 1_555
H34 O17 0.998615 1_555
H35 O16 0.998615 1_555
H36 O19 0.981215 1_545
H37 O18 0.981215 1_565
H38 O19 0.995734 1_555
H39 O18 0.995734 1_555
S0 Sr0 3.176749 1_655
S1 Sr1 3.176749 1_455
S2 Sr0 3.169696 1_555
S3 Sr1 3.169696 1_555
S6 Sr2 3.228538 1_555
S7 Sr3 3.228538 1_555
S10 Sr2 3.136740 1_545
S11 Sr3 3.136740 1_565
O0 Sr0 2.484647 1_655
O1 Sr1 2.484647 1_455
O2 Sr0 2.516924 1_655
O3 Sr1 2.516924 1_455
O4 Sr0 2.619409 1_555
O5 Sr1 2.619409 1_555
O6 Sr0 2.670835 1_555
O7 Sr1 2.670835 1_555
O8 Sr1 2.781129 1_455
O8 Sr0 2.784054 1_555
O9 Sr0 2.781129 1_655
O9 Sr1 2.784054 1_555
O10 Sr3 2.514477 1_555
O11 Sr2 2.514477 1_555
O12 Sr2 2.527780 1_545
O13 Sr3 2.527780 1_565
O14 Sr2 2.536981 1_555
O15 Sr3 2.536981 1_555
O16 Sr2 2.617754 1_545
O17 Sr3 2.617754 1_565
O18 Sr2 2.657170 1_545
O18 Sr3 2.970398 1_556
O19 Sr3 2.657170 1_565
O19 Sr2 2.970398 1_554
