# generated using pymatgen
data_CsLuCdTe3
_symmetry_space_group_name_H-M   'P 1'
_cell_length_a   8.97378162
_cell_length_b   8.97378162
_cell_length_c   11.78557200
_cell_angle_alpha   90.00000000
_cell_angle_beta   90.00000000
_cell_angle_gamma   150.97937712
_symmetry_Int_Tables_number   1
_chemical_formula_structural   CsLuCdTe3
_chemical_formula_sum   'Cs2 Lu2 Cd2 Te6'
_cell_volume   460.42063010
_cell_formula_units_Z   2
loop_
 _symmetry_equiv_pos_site_id
 _symmetry_equiv_pos_as_xyz
  1  'x, y, z'
loop_
 _atom_site_type_symbol
 _atom_site_label
 _atom_site_symmetry_multiplicity
 _atom_site_fract_x
 _atom_site_fract_y
 _atom_site_fract_z
 _atom_site_occupancy
  Cs  Cs0  1  0.24918000  0.75082000  0.25000000  1
  Cs  Cs1  1  0.75082000  0.24918000  0.75000000  1
  Lu  Lu0  1  0.00000000  0.00000000  0.50000000  1
  Lu  Lu1  1  0.00000000  0.00000000  0.00000000  1
  Cd  Cd0  1  0.53904700  0.46095300  0.25000000  1
  Cd  Cd1  1  0.46095300  0.53904700  0.75000000  1
  Te  Te0  1  0.61836300  0.38163700  0.04233800  1
  Te  Te1  1  0.38163700  0.61836300  0.95766200  1
  Te  Te2  1  0.06383300  0.93616700  0.75000000  1
  Te  Te3  1  0.93616700  0.06383300  0.25000000  1
  Te  Te4  1  0.61836300  0.38163700  0.45766200  1
  Te  Te5  1  0.38163700  0.61836300  0.54233800  1
loop_
_geom_bond_atom_site_label_1
_geom_bond_atom_site_label_2
_geom_bond_distance
_geom_bond_site_symmetry_2
Cs0 Te3 3.951055 1_455
Cs0 Te3 3.951055 1_565
Cs0 Te4 4.026358 1_455
Cs0 Te0 4.026358 1_455
Cs0 Te4 4.026358 1_565
Cs0 Te0 4.026358 1_565
Cs0 Te5 4.143339 1_555
Cs0 Te1 4.143339 1_554
Cs1 Te2 3.951055 1_545
Cs1 Te2 3.951055 1_655
Cs1 Te1 4.026358 1_545
Cs1 Te5 4.026358 1_545
Cs1 Te5 4.026358 1_655
Cs1 Te1 4.026358 1_655
Cs1 Te0 4.143339 1_556
Cs1 Te4 4.143339 1_555
Lu0 Te4 3.087691 1_555
Lu0 Te4 3.087691 1_445
Lu0 Te5 3.087691 1_445
Lu0 Te5 3.087691 1_555
Lu0 Te3 3.148228 1_455
Lu0 Te2 3.148228 1_545
Lu1 Te1 3.087691 1_444
Lu1 Te1 3.087691 1_554
Lu1 Te0 3.087691 1_445
Lu1 Te0 3.087691 1_555
Lu1 Te3 3.148228 1_455
Lu1 Te2 3.148228 1_544
Cd0 Te4 2.808748 1_555
Cd0 Te0 2.808748 1_555
Cd0 Te3 2.872406 1_455
Cd0 Te3 2.872406 1_565
Cd1 Te5 2.808748 1_555
Cd1 Te1 2.808748 1_555
Cd1 Te2 2.872406 1_545
Cd1 Te2 2.872406 1_655
