# generated using pymatgen
data_Na8Y3(SiO3)12
_symmetry_space_group_name_H-M   'P 1'
_cell_length_a   13.04480911
_cell_length_b   13.73533634
_cell_length_c   13.73533664
_cell_angle_alpha   110.46713339
_cell_angle_beta   108.45594693
_cell_angle_gamma   108.45594739
_symmetry_Int_Tables_number   1
_chemical_formula_structural   Na8Y3(SiO3)12
_chemical_formula_sum   'Na16 Y6 Si24 O72'
_cell_volume   1917.71159589
_cell_formula_units_Z   2
loop_
 _symmetry_equiv_pos_site_id
 _symmetry_equiv_pos_as_xyz
  1  'x, y, z'
loop_
 _atom_site_type_symbol
 _atom_site_label
 _atom_site_symmetry_multiplicity
 _atom_site_fract_x
 _atom_site_fract_y
 _atom_site_fract_z
 _atom_site_occupancy
  Na  Na0  1  0.50000000  -0.00000000  -0.00000000  1
  Na  Na1  1  0.00000000  -0.00000000  -0.00000000  1
  Na  Na2  1  0.42532160  0.21268943  0.99820304  1
  Na  Na3  1  0.42711856  0.00179696  0.21448639  1
  Na  Na4  1  0.21263218  0.78551361  0.78731057  1
  Na  Na5  1  0.92532160  0.99820304  0.21268943  1
  Na  Na6  1  0.71263218  0.78731057  0.78551361  1
  Na  Na7  1  0.92711856  0.21448639  0.00179696  1
  Na  Na8  1  0.57467840  0.78731057  0.00179696  1
  Na  Na9  1  0.57288144  0.99820304  0.78551361  1
  Na  Na10  1  0.78736782  0.21448639  0.21268943  1
  Na  Na11  1  0.07467840  0.00179696  0.78731057  1
  Na  Na12  1  0.28736782  0.21268943  0.21448639  1
  Na  Na13  1  0.07288144  0.78551361  0.99820304  1
  Na  Na14  1  0.75000000  -0.00000000  -0.00000000  1
  Na  Na15  1  0.25000000  -0.00000000  -0.00000000  1
  Y  Y0  1  0.99786272  0.49572544  0.74786272  1
  Y  Y1  1  0.25000000  0.25213728  0.74786272  1
  Y  Y2  1  0.50213728  0.25213728  0.50427456  1
  Y  Y3  1  0.49786272  0.74786272  0.49572544  1
  Y  Y4  1  0.00213728  0.50427456  0.25213728  1
  Y  Y5  1  0.75000000  0.74786272  0.25213728  1
  Si  Si0  1  0.50551376  0.19330261  0.75263288  1
  Si  Si1  1  0.75288087  0.24736712  0.44066973  1
  Si  Si2  1  0.31221115  0.55933027  0.80669739  1
  Si  Si3  1  0.00551376  0.75263288  0.19330261  1
  Si  Si4  1  0.81221115  0.80669739  0.55933027  1
  Si  Si5  1  0.25288087  0.44066973  0.24736712  1
  Si  Si6  1  0.49448624  0.80669739  0.24736712  1
  Si  Si7  1  0.24711913  0.75263288  0.55933027  1
  Si  Si8  1  0.68778885  0.44066973  0.19330261  1
  Si  Si9  1  0.99448624  0.24736712  0.80669739  1
  Si  Si10  1  0.18778885  0.19330261  0.44066973  1
  Si  Si11  1  0.74711913  0.55933027  0.75263288  1
  Si  Si12  1  0.79193797  0.73202437  0.99644129  1
  Si  Si13  1  0.79549668  0.00355871  0.73558308  1
  Si  Si14  1  0.05991360  0.26441692  0.26797563  1
  Si  Si15  1  0.29193797  0.99644129  0.73202437  1
  Si  Si16  1  0.55991360  0.26797563  0.26441692  1
  Si  Si17  1  0.29549668  0.73558308  0.00355871  1
  Si  Si18  1  0.20806203  0.26797563  0.00355871  1
  Si  Si19  1  0.20450332  0.99644129  0.26441692  1
  Si  Si20  1  0.94008640  0.73558308  0.73202437  1
  Si  Si21  1  0.70806203  0.00355871  0.26797563  1
  Si  Si22  1  0.44008640  0.73202437  0.73558308  1
  Si  Si23  1  0.70450332  0.26441692  0.99644129  1
  O  O0  1  0.44223657  0.27488996  0.78806806  1
  O  O1  1  0.65416852  0.21193194  0.48682191  1
  O  O2  1  0.16734661  0.51317809  0.72511004  1
  O  O3  1  0.94223657  0.78806806  0.27488996  1
  O  O4  1  0.66734661  0.72511004  0.51317809  1
  O  O5  1  0.15416852  0.48682191  0.21193194  1
  O  O6  1  0.55776343  0.72511004  0.21193194  1
  O  O7  1  0.34583148  0.78806806  0.51317809  1
  O  O8  1  0.83265339  0.48682191  0.27488996  1
  O  O9  1  0.05776343  0.21193194  0.72511004  1
  O  O10  1  0.33265339  0.27488996  0.48682191  1
  O  O11  1  0.84583148  0.51317809  0.78806806  1
  O  O12  1  0.63641155  0.33052401  0.05827621  1
  O  O13  1  0.57813533  0.94172379  0.27224779  1
  O  O14  1  0.30588754  0.72775221  0.66947599  1
  O  O15  1  0.13641155  0.05827621  0.33052401  1
  O  O16  1  0.80588754  0.66947599  0.72775221  1
  O  O17  1  0.07813533  0.27224779  0.94172379  1
  O  O18  1  0.36358845  0.66947599  0.94172379  1
  O  O19  1  0.42186467  0.05827621  0.72775221  1
  O  O20  1  0.69411246  0.27224779  0.33052401  1
  O  O21  1  0.86358845  0.94172379  0.66947599  1
  O  O22  1  0.19411246  0.33052401  0.27224779  1
  O  O23  1  0.92186467  0.72775221  0.05827621  1
  O  O24  1  0.17580319  0.00007437  0.14177060  1
  O  O25  1  0.03403259  0.85822940  0.85830377  1
  O  O26  1  0.17572881  0.14169623  0.99992563  1
  O  O27  1  0.67580319  0.14177060  0.00007437  1
  O  O28  1  0.67572881  0.99992563  0.14169623  1
  O  O29  1  0.53403259  0.85830377  0.85822940  1
  O  O30  1  0.82419681  0.99992563  0.85822940  1
  O  O31  1  0.96596741  0.14177060  0.14169623  1
  O  O32  1  0.82427119  0.85830377  0.00007437  1
  O  O33  1  0.32419681  0.85822940  0.99992563  1
  O  O34  1  0.32427119  0.00007437  0.85830377  1
  O  O35  1  0.46596741  0.14169623  0.14177060  1
  O  O36  1  0.12515099  0.63656589  0.44476056  1
  O  O37  1  0.68039043  0.55523944  0.19180533  1
  O  O38  1  0.48858510  0.80819467  0.36343411  1
  O  O39  1  0.62515099  0.44476056  0.63656589  1
  O  O40  1  0.98858510  0.36343411  0.80819467  1
  O  O41  1  0.18039043  0.19180533  0.55523944  1
  O  O42  1  0.87484901  0.36343411  0.55523944  1
  O  O43  1  0.31960957  0.44476056  0.80819467  1
  O  O44  1  0.51141490  0.19180533  0.63656589  1
  O  O45  1  0.37484901  0.55523944  0.36343411  1
  O  O46  1  0.01141490  0.63656589  0.19180533  1
  O  O47  1  0.81960957  0.80819467  0.44476056  1
  O  O48  1  0.21138442  0.06477002  0.71802608  1
  O  O49  1  0.49335833  0.28197392  0.34674393  1
  O  O50  1  0.14661440  0.65325607  0.93522998  1
  O  O51  1  0.71138442  0.71802608  0.06477002  1
  O  O52  1  0.64661440  0.93522998  0.65325607  1
  O  O53  1  0.99335833  0.34674393  0.28197392  1
  O  O54  1  0.78861558  0.93522998  0.28197392  1
  O  O55  1  0.50664167  0.71802608  0.65325607  1
  O  O56  1  0.85338560  0.34674393  0.06477002  1
  O  O57  1  0.28861558  0.28197392  0.93522998  1
  O  O58  1  0.35338560  0.06477002  0.34674393  1
  O  O59  1  0.00664167  0.65325607  0.71802608  1
  O  O60  1  0.21607053  0.85745549  0.62306454  1
  O  O61  1  0.59300598  0.37693546  0.23439095  1
  O  O62  1  0.35861504  0.76560905  0.14254451  1
  O  O63  1  0.71607053  0.62306454  0.85745549  1
  O  O64  1  0.85861504  0.14254451  0.76560905  1
  O  O65  1  0.09300598  0.23439095  0.37693546  1
  O  O66  1  0.78392947  0.14254451  0.37693546  1
  O  O67  1  0.40699402  0.62306454  0.76560905  1
  O  O68  1  0.64138496  0.23439095  0.85745549  1
  O  O69  1  0.28392947  0.37693546  0.14254451  1
  O  O70  1  0.14138496  0.85745549  0.23439095  1
  O  O71  1  0.90699402  0.76560905  0.62306454  1
loop_
_geom_bond_atom_site_label_1
_geom_bond_atom_site_label_2
_geom_bond_distance
_geom_bond_site_symmetry_2
Na0 O28 2.494158 1_545
Na0 O34 2.494158 1_554
Na0 O27 2.494158 1_555
Na0 O33 2.494158 1_544
Na0 O29 2.494158 1_544
Na0 O35 2.494158 1_555
Na1 O32 2.494158 1_445
Na1 O26 2.494158 1_554
Na1 O24 2.494158 1_555
Na1 O30 2.494158 1_444
Na1 O25 2.494158 1_544
Na1 O31 2.494158 1_455
Na2 O57 2.346803 1_555
Na2 O12 2.385063 1_556
Na2 O34 2.448034 1_555
Na2 O35 2.476018 1_556
Na2 O61 2.768187 1_556
Na3 O58 2.346802 1_555
Na3 O13 2.385063 1_545
Na3 O35 2.448034 1_555
Na3 O33 2.476018 1_544
Na3 O62 2.768187 1_545
Na4 O59 2.346802 1_555
Na4 O14 2.385063 1_555
Na4 O33 2.448034 1_555
Na4 O34 2.476018 1_565
Na4 O60 2.768187 1_555
Na5 O54 2.346803 1_555
Na5 O15 2.385063 1_665
Na5 O32 2.448034 1_555
Na5 O31 2.476018 1_565
Na5 O65 2.768187 1_665
Na6 O55 2.346802 1_555
Na6 O16 2.385063 1_555
Na6 O30 2.448034 1_555
Na6 O32 2.476018 1_556
Na6 O63 2.768187 1_555
Na7 O56 2.346802 1_555
Na7 O17 2.385063 1_654
Na7 O31 2.448034 1_555
Na7 O30 2.476018 1_544
Na7 O64 2.768187 1_554
Na8 O51 2.346803 1_555
Na8 O18 2.385063 1_554
Na8 O28 2.448034 1_555
Na8 O29 2.476018 1_554
Na8 O67 2.768187 1_554
Na9 O52 2.346802 1_555
Na9 O19 2.385063 1_565
Na9 O29 2.448034 1_555
Na9 O27 2.476018 1_566
Na9 O68 2.768187 1_565
Na10 O53 2.346802 1_555
Na10 O20 2.385063 1_555
Na10 O27 2.448034 1_555
Na10 O28 2.476018 1_545
Na10 O66 2.768187 1_555
Na11 O48 2.346803 1_555
Na11 O21 2.385063 1_445
Na11 O26 2.448034 1_555
Na11 O25 2.476018 1_545
Na11 O71 2.768187 1_445
Na12 O49 2.346802 1_555
Na12 O22 2.385063 1_555
Na12 O24 2.448034 1_555
Na12 O26 2.476018 1_554
Na12 O69 2.768187 1_555
Na13 O50 2.346802 1_555
Na13 O23 2.385063 1_456
Na13 O25 2.448034 1_555
Na13 O24 2.476018 1_566
Na13 O70 2.768187 1_556
Na14 O31 2.433351 1_555
Na14 O29 2.433351 1_544
Na14 O27 2.433351 1_555
Na14 O30 2.433351 1_544
Na14 O32 2.433351 1_545
Na14 O28 2.433351 1_545
Na15 O25 2.433351 1_544
Na15 O35 2.433351 1_555
Na15 O33 2.433351 1_544
Na15 O24 2.433351 1_555
Na15 O26 2.433351 1_554
Na15 O34 2.433351 1_554
O0 Si0 1.622546 1_555
O0 Y1 2.279789 1_555
O1 Si1 1.622545 1_555
O1 Y2 2.279789 1_555
O2 Si2 1.622546 1_555
O2 Y0 2.279789 1_455
O3 Si3 1.622546 1_655
O3 Y5 2.279789 1_555
O4 Si4 1.622546 1_555
O4 Y3 2.279789 1_555
O5 Si5 1.622545 1_555
O5 Y4 2.279789 1_555
O6 Si6 1.622546 1_555
O6 Y5 2.279789 1_555
O7 Si7 1.622545 1_555
O7 Y3 2.279789 1_555
O8 Si8 1.622546 1_555
O8 Y4 2.279789 1_655
O9 Si9 1.622546 1_455
O9 Y1 2.279789 1_555
O10 Si10 1.622546 1_555
O10 Y2 2.279789 1_555
O11 Si11 1.622545 1_555
O11 Y0 2.279789 1_555
O12 Si23 1.668467 1_554
O12 Si8 1.669265 1_555
O13 Si21 1.668467 1_565
O13 Si6 1.669265 1_555
O14 Si22 1.668467 1_555
O14 Si7 1.669265 1_555
O15 Si19 1.668467 1_545
O15 Si10 1.669265 1_555
O16 Si20 1.668467 1_555
O16 Si11 1.669265 1_555
O17 Si18 1.668467 1_556
O17 Si9 1.669265 1_455
O18 Si17 1.668467 1_556
O18 Si2 1.669265 1_555
O19 Si15 1.668467 1_545
O19 Si0 1.669265 1_555
O20 Si16 1.668467 1_555
O20 Si1 1.669265 1_555
O21 Si13 1.668467 1_565
O21 Si4 1.669265 1_555
O22 Si14 1.668467 1_555
O22 Si5 1.669265 1_555
O23 Si12 1.668467 1_554
O23 Si3 1.669265 1_655
O24 Si19 1.628432 1_545
O25 Si20 1.628432 1_455
O26 Si18 1.628432 1_556
O27 Si23 1.628432 1_554
O28 Si21 1.628432 1_565
O29 Si22 1.628432 1_555
O30 Si13 1.628432 1_565
O31 Si14 1.628432 1_655
O32 Si12 1.628432 1_554
O33 Si17 1.628432 1_556
O34 Si15 1.628432 1_545
O35 Si16 1.628432 1_555
O36 Si7 1.613586 1_555
O36 Y4 2.231679 1_555
O37 Si8 1.613586 1_555
O37 Y5 2.231679 1_555
O38 Si6 1.613586 1_555
O38 Y3 2.231679 1_555
O39 Si11 1.613586 1_555
O39 Y2 2.231679 1_555
O40 Si9 1.613586 1_555
O40 Y0 2.231679 1_555
O41 Si10 1.613586 1_555
O41 Y1 2.231679 1_555
O42 Si1 1.613586 1_555
O42 Y0 2.231679 1_555
O43 Si2 1.613586 1_555
O43 Y1 2.231679 1_555
O44 Si0 1.613586 1_555
O44 Y2 2.231679 1_555
O45 Si5 1.613586 1_555
O45 Y3 2.231679 1_555
O46 Si3 1.613586 1_555
O46 Y4 2.231679 1_555
O47 Si4 1.613586 1_555
O47 Y5 2.231679 1_555
O48 Si15 1.626243 1_545
O48 Y1 2.314254 1_555
O49 Si16 1.626243 1_555
O49 Y2 2.314254 1_555
O50 Si17 1.626242 1_556
O50 Y0 2.314254 1_455
O51 Si12 1.626243 1_554
O51 Y5 2.314254 1_555
O52 Si13 1.626242 1_565
O52 Y3 2.314254 1_555
O53 Si14 1.626243 1_655
O53 Y4 2.314254 1_655
O54 Si21 1.626243 1_565
O54 Y5 2.314254 1_555
O55 Si22 1.626243 1_555
O55 Y3 2.314254 1_555
O56 Si23 1.626242 1_554
O56 Y4 2.314254 1_655
O57 Si18 1.626243 1_556
O57 Y1 2.314254 1_555
O58 Si19 1.626242 1_545
O58 Y2 2.314254 1_555
O59 Si20 1.626243 1_455
O59 Y0 2.314254 1_455
O60 Si7 1.647908 1_555
O60 Si15 1.652746 1_555
O61 Si8 1.647908 1_555
O61 Si16 1.652746 1_555
O62 Si6 1.647908 1_555
O62 Si17 1.652746 1_555
O63 Si11 1.647908 1_555
O63 Si12 1.652746 1_555
O64 Si9 1.647908 1_555
O64 Si13 1.652746 1_555
O65 Si10 1.647908 1_555
O65 Si14 1.652746 1_555
O66 Si1 1.647908 1_555
O66 Si21 1.652746 1_555
O67 Si2 1.647908 1_555
O67 Si22 1.652746 1_555
O68 Si0 1.647908 1_555
O68 Si23 1.652746 1_555
O69 Si5 1.647908 1_555
O69 Si18 1.652746 1_555
O70 Si3 1.647908 1_555
O70 Si19 1.652746 1_555
O71 Si4 1.647908 1_555
O71 Si20 1.652746 1_555
