# generated using pymatgen
data_Y(AlSi)2
_symmetry_space_group_name_H-M   'P 1'
_cell_length_a   4.17735509
_cell_length_b   4.17735453
_cell_length_c   6.61597620
_cell_angle_alpha   90.00000000
_cell_angle_beta   90.00000000
_cell_angle_gamma   119.99998853
_symmetry_Int_Tables_number   1
_chemical_formula_structural   Y(AlSi)2
_chemical_formula_sum   'Y1 Al2 Si2'
_cell_volume   99.98327186
_cell_formula_units_Z   1
loop_
 _symmetry_equiv_pos_site_id
 _symmetry_equiv_pos_as_xyz
  1  'x, y, z'
loop_
 _atom_site_type_symbol
 _atom_site_label
 _atom_site_symmetry_multiplicity
 _atom_site_fract_x
 _atom_site_fract_y
 _atom_site_fract_z
 _atom_site_occupancy
  Y  Y0  1  0.00000000  -0.00000000  -0.00000000  1
  Al  Al0  1  0.66666700  0.33333300  0.35734649  1
  Al  Al1  1  0.33333300  0.66666700  0.64265351  1
  Si  Si0  1  0.66666700  0.33333300  0.73818634  1
  Si  Si1  1  0.33333300  0.66666700  0.26181266  1
loop_
_geom_bond_atom_site_label_1
_geom_bond_atom_site_label_2
_geom_bond_distance
_geom_bond_site_symmetry_2
Al0 Si1 2.493239 1_545
Al0 Si1 2.493239 1_655
Al0 Si1 2.493246 1_555
Al0 Si0 2.519627 1_555
Al1 Si0 2.493237 1_565
Al1 Si0 2.493237 1_455
Al1 Si0 2.493244 1_555
Al1 Si1 2.519634 1_555
Si0 Y0 2.969361 1_656
Si0 Y0 2.969364 1_666
Si0 Y0 2.969365 1_556
Si1 Y0 2.969357 1_565
Si1 Y0 2.969360 1_555
Si1 Y0 2.969361 1_665
