# generated using pymatgen
data_Mn8Si6ClO24
_symmetry_space_group_name_H-M   'P 1'
_cell_length_a   7.94921057
_cell_length_b   13.00800000
_cell_length_c   13.08687921
_cell_angle_alpha   119.80081635
_cell_angle_beta   103.73270041
_cell_angle_gamma   90.00000000
_symmetry_Int_Tables_number   1
_chemical_formula_structural   Mn8Si6ClO24
_chemical_formula_sum   'Mn16 Si12 Cl2 O48'
_cell_volume   1129.47790687
_cell_formula_units_Z   2
loop_
 _symmetry_equiv_pos_site_id
 _symmetry_equiv_pos_as_xyz
  1  'x, y, z'
loop_
 _atom_site_type_symbol
 _atom_site_label
 _atom_site_symmetry_multiplicity
 _atom_site_fract_x
 _atom_site_fract_y
 _atom_site_fract_z
 _atom_site_occupancy
  Mn  Mn0  1  0.00000000  0.88358700  0.00000000  1
  Mn  Mn1  1  0.00000000  0.11641300  0.00000000  1
  Mn  Mn2  1  0.00000000  0.65550400  0.00000000  1
  Mn  Mn3  1  0.00000000  0.34449600  0.00000000  1
  Mn  Mn4  1  0.98569500  0.87262800  0.74525700  1
  Mn  Mn5  1  0.01430500  0.12737200  0.25474300  1
  Mn  Mn6  1  0.99679500  0.62651300  0.75628900  1
  Mn  Mn7  1  0.99679500  0.12977600  0.75628900  1
  Mn  Mn8  1  0.00320500  0.37348700  0.24371100  1
  Mn  Mn9  1  0.00320500  0.87022400  0.24371100  1
  Mn  Mn10  1  0.00021200  0.37925100  0.75850200  1
  Mn  Mn11  1  0.99978800  0.62074900  0.24149800  1
  Mn  Mn12  1  0.95093500  0.63859600  0.50036700  1
  Mn  Mn13  1  0.95093500  0.86177100  0.50036700  1
  Mn  Mn14  1  0.04906500  0.36140400  0.49963300  1
  Mn  Mn15  1  0.04906500  0.13822900  0.49963300  1
  Si  Si0  1  0.64078700  0.41571800  0.59225900  1
  Si  Si1  1  0.64078700  0.17654100  0.59225900  1
  Si  Si2  1  0.35921300  0.58428200  0.40774100  1
  Si  Si3  1  0.35921300  0.82345900  0.40774100  1
  Si  Si4  1  0.62921000  0.42210100  0.35539700  1
  Si  Si5  1  0.62921000  0.93329600  0.35539700  1
  Si  Si6  1  0.37079000  0.57789900  0.64460300  1
  Si  Si7  1  0.37079000  0.06670400  0.64460300  1
  Si  Si8  1  0.63082700  0.18137000  0.12270800  1
  Si  Si9  1  0.63082700  0.94133700  0.12270800  1
  Si  Si10  1  0.36917300  0.81863000  0.87729200  1
  Si  Si11  1  0.36917300  0.05866300  0.87729200  1
  Cl  Cl0  1  0.80836200  0.44647900  0.89295900  1
  Cl  Cl1  1  0.19163800  0.55352100  0.10704100  1
  O  O0  1  0.50000000  0.83109100  0.00000000  1
  O  O1  1  0.50000000  0.16890900  0.00000000  1
  O  O2  1  0.41804500  0.93467900  0.86935800  1
  O  O3  1  0.58195500  0.06532100  0.13064200  1
  O  O4  1  0.41778200  0.70455300  0.76801700  1
  O  O5  1  0.41778200  0.06346400  0.76801700  1
  O  O6  1  0.58221800  0.29544700  0.23198300  1
  O  O7  1  0.58221800  0.93653600  0.23198300  1
  O  O8  1  0.50968900  0.49566600  0.66956100  1
  O  O9  1  0.50968900  0.17389500  0.66956100  1
  O  O10  1  0.49031100  0.50433400  0.33043900  1
  O  O11  1  0.49031100  0.82610500  0.33043900  1
  O  O12  1  0.41118900  0.59928400  0.54124400  1
  O  O13  1  0.41118900  0.94196100  0.54124400  1
  O  O14  1  0.58881100  0.40071600  0.45875600  1
  O  O15  1  0.58881100  0.05803900  0.45875600  1
  O  O16  1  0.40431600  0.71416100  0.42832200  1
  O  O17  1  0.59568400  0.28583900  0.57167800  1
  O  O18  1  0.85221600  0.45964900  0.65504300  1
  O  O19  1  0.85221600  0.19539400  0.65504300  1
  O  O20  1  0.14778400  0.54035100  0.34495700  1
  O  O21  1  0.14778400  0.80460600  0.34495700  1
  O  O22  1  0.83821900  0.47299300  0.39281100  1
  O  O23  1  0.83821900  0.91981800  0.39281100  1
  O  O24  1  0.16178100  0.52700700  0.60718900  1
  O  O25  1  0.16178100  0.08018200  0.60718900  1
  O  O26  1  0.84307200  0.20098400  0.14164900  1
  O  O27  1  0.84307200  0.94066500  0.14164900  1
  O  O28  1  0.15692800  0.79901600  0.85835100  1
  O  O29  1  0.15692800  0.05933500  0.85835100  1
  O  O30  1  0.89647900  0.94403500  0.88806900  1
  O  O31  1  0.10352100  0.05596500  0.11193100  1
  O  O32  1  0.87831100  0.71709200  0.90422500  1
  O  O33  1  0.87831100  0.18713300  0.90422500  1
  O  O34  1  0.12168900  0.28290800  0.09577500  1
  O  O35  1  0.12168900  0.81286700  0.09577500  1
  O  O36  1  0.88694600  0.68549700  0.65131800  1
  O  O37  1  0.88694600  0.96582000  0.65131800  1
  O  O38  1  0.11305400  0.31450300  0.34868200  1
  O  O39  1  0.11305400  0.03418000  0.34868200  1
  O  O40  1  0.88814800  0.68643200  0.37286500  1
  O  O41  1  0.11185200  0.31356800  0.62713500  1
  O  O42  1  0.92383100  0.20083500  0.40167100  1
  O  O43  1  0.07616900  0.79916500  0.59832900  1
  O  O44  1  0.90081200  0.43298800  0.13732600  1
  O  O45  1  0.90081200  0.70433800  0.13732600  1
  O  O46  1  0.09918800  0.56701200  0.86267400  1
  O  O47  1  0.09918800  0.29566200  0.86267400  1
loop_
_geom_bond_atom_site_label_1
_geom_bond_atom_site_label_2
_geom_bond_distance
_geom_bond_site_symmetry_2
Mn0 O35 1.980763 1_555
Mn0 O32 1.980763 1_454
Mn0 O31 2.003419 1_565
Mn0 O30 2.003429 1_454
Mn0 O27 2.296440 1_455
Mn0 O28 2.296440 1_554
Mn1 O34 1.980763 1_555
Mn1 O33 1.980763 1_454
Mn1 O30 2.003419 1_444
Mn1 O31 2.003429 1_555
Mn1 O26 2.296440 1_455
Mn1 O29 2.296440 1_554
Mn2 O35 1.889706 1_555
Mn2 O32 1.889706 1_454
Mn2 O46 1.947575 1_554
Mn2 O45 1.947575 1_455
Mn3 O33 1.889706 1_454
Mn3 O34 1.889706 1_555
Mn3 O47 1.947575 1_554
Mn3 O44 1.947575 1_455
Mn4 O30 1.939725 1_555
Mn4 O43 1.989443 1_655
Mn4 O36 2.149464 1_555
Mn4 O37 2.149464 1_555
Mn4 O28 2.326452 1_655
Mn4 O29 2.326462 1_665
Mn5 O31 1.939725 1_555
Mn5 O42 1.989443 1_455
Mn5 O38 2.149464 1_555
Mn5 O39 2.149464 1_555
Mn5 O26 2.326452 1_455
Mn5 O27 2.326462 1_445
Mn6 O36 1.927822 1_555
Mn6 O46 1.932091 1_655
Mn6 O18 2.050897 1_555
Mn6 O32 2.149865 1_555
Mn6 O28 2.157135 1_655
Mn6 O24 2.430522 1_655
Mn7 O37 1.927831 1_545
Mn7 O47 1.932091 1_655
Mn7 O19 2.050897 1_555
Mn7 O33 2.149865 1_555
Mn7 O29 2.157135 1_655
Mn7 O25 2.430522 1_655
Mn8 O38 1.927822 1_555
Mn8 O44 1.932091 1_455
Mn8 O20 2.050897 1_555
Mn8 O34 2.149865 1_555
Mn8 O26 2.157135 1_455
Mn8 O22 2.430522 1_455
Mn9 O39 1.927831 1_565
Mn9 O45 1.932091 1_455
Mn9 O21 2.050897 1_555
Mn9 O35 2.149865 1_555
Mn9 O27 2.157135 1_455
Mn9 O23 2.430522 1_455
Mn10 O41 1.933266 1_555
Mn10 O46 2.150348 1_555
Mn10 O47 2.150348 1_555
Mn10 O18 2.227589 1_455
Mn10 O19 2.227589 1_455
Mn11 O40 1.933266 1_555
Mn11 O44 2.150348 1_555
Mn11 O45 2.150348 1_555
Mn11 O20 2.227589 1_655
Mn11 O21 2.227589 1_655
Mn12 O43 1.931234 1_655
Mn12 O22 1.952394 1_555
Mn12 O36 1.952586 1_555
Mn12 O40 2.014241 1_555
Mn12 O20 2.673157 1_655
Mn13 O43 1.931224 1_655
Mn13 O23 1.952394 1_555
Mn13 O37 1.952584 1_555
Mn13 O40 2.014250 1_555
Mn13 O21 2.673157 1_655
Mn14 O42 1.931234 1_455
Mn14 O24 1.952394 1_555
Mn14 O38 1.952586 1_555
Mn14 O41 2.014241 1_555
Mn14 O18 2.673157 1_455
Mn15 O42 1.931224 1_455
Mn15 O25 1.952394 1_555
Mn15 O39 1.952584 1_555
Mn15 O41 2.014250 1_555
Mn15 O19 2.673157 1_455
Cl0 Mn10 2.435446 1_655
Cl0 Mn3 2.622364 1_656
Cl0 Mn2 2.622375 1_656
Cl1 Mn11 2.435446 1_455
Cl1 Mn2 2.622364 1_555
Cl1 Mn3 2.622375 1_555
O0 Si9 1.623254 1_555
O0 Si10 1.623259 1_554
O1 Si11 1.623254 1_554
O1 Si8 1.623259 1_555
O2 Si10 1.617233 1_555
O2 Si11 1.617246 1_565
O3 Si8 1.617233 1_555
O3 Si9 1.617246 1_545
O4 Si6 1.590940 1_555
O4 Si10 1.596701 1_555
O5 Si7 1.590940 1_555
O5 Si11 1.596695 1_555
O6 Si4 1.590940 1_555
O6 Si8 1.596701 1_555
O7 Si5 1.590940 1_555
O7 Si9 1.596695 1_555
O8 Si0 1.626587 1_555
O8 Si6 1.626679 1_555
O9 Si1 1.626587 1_555
O9 Si7 1.626679 1_555
O10 Si2 1.626587 1_555
O10 Si4 1.626679 1_555
O11 Si3 1.626587 1_555
O11 Si5 1.626679 1_555
O12 Si2 1.606132 1_555
O12 Si6 1.609476 1_555
O13 Si3 1.606137 1_555
O13 Si7 1.609469 1_565
O14 Si0 1.606132 1_555
O14 Si4 1.609476 1_555
O15 Si1 1.606137 1_555
O15 Si5 1.609469 1_545
O16 Si3 1.599136 1_555
O16 Si2 1.599136 1_555
O17 Si0 1.599136 1_555
O17 Si1 1.599136 1_555
O18 Si0 1.644397 1_555
O19 Si1 1.644397 1_555
O20 Si2 1.644397 1_555
O21 Si3 1.644397 1_555
O22 Si4 1.652272 1_555
O23 Si5 1.652272 1_555
O24 Si6 1.652272 1_555
O25 Si7 1.652272 1_555
O26 Si8 1.646722 1_555
O27 Si9 1.646720 1_555
O28 Si10 1.646722 1_555
O29 Si11 1.646720 1_555
