# generated using pymatgen
data_Sr2Mg
_symmetry_space_group_name_H-M   'P 1'
_cell_length_a   15.68434731
_cell_length_b   15.68434731
_cell_length_c   15.68434731
_cell_angle_alpha   148.65900092
_cell_angle_beta   148.65900092
_cell_angle_gamma   44.91348228
_symmetry_Int_Tables_number   1
_chemical_formula_structural   Sr2Mg
_chemical_formula_sum   'Sr16 Mg8'
_cell_volume   1040.57831660
_cell_formula_units_Z   8
loop_
 _symmetry_equiv_pos_site_id
 _symmetry_equiv_pos_as_xyz
  1  'x, y, z'
loop_
 _atom_site_type_symbol
 _atom_site_label
 _atom_site_symmetry_multiplicity
 _atom_site_fract_x
 _atom_site_fract_y
 _atom_site_fract_z
 _atom_site_occupancy
  Sr  Sr0_0  1  0.17901693  0.17901693  0.00000000  1
  Sr  Sr0_1  1  0.17901693  0.17901693  0.50000000  1
  Sr  Sr0_2  1  0.17901693  0.67901693  0.00000000  1
  Sr  Sr0_3  1  0.17901693  0.67901693  0.50000000  1
  Sr  Sr0_4  1  0.67901693  0.17901693  0.00000000  1
  Sr  Sr0_5  1  0.67901693  0.17901693  0.50000000  1
  Sr  Sr0_6  1  0.67901693  0.67901693  0.00000000  1
  Sr  Sr0_7  1  0.67901693  0.67901693  0.50000000  1
  Sr  Sr1_0  1  0.32098307  0.32098307  0.00000000  1
  Sr  Sr1_1  1  0.32098307  0.32098307  0.50000000  1
  Sr  Sr1_2  1  0.32098307  0.82098307  0.00000000  1
  Sr  Sr1_3  1  0.32098307  0.82098307  0.50000000  1
  Sr  Sr1_4  1  0.82098307  0.32098307  0.00000000  1
  Sr  Sr1_5  1  0.82098307  0.32098307  0.50000000  1
  Sr  Sr1_6  1  0.82098307  0.82098307  0.00000000  1
  Sr  Sr1_7  1  0.82098307  0.82098307  0.50000000  1
  Mg  Mg0_0  1  0.00000000  0.00000000  0.00000000  1
  Mg  Mg0_1  1  0.00000000  0.00000000  0.50000000  1
  Mg  Mg0_2  1  0.00000000  0.50000000  0.00000000  1
  Mg  Mg0_3  1  0.00000000  0.50000000  0.50000000  1
  Mg  Mg0_4  1  0.50000000  0.00000000  0.00000000  1
  Mg  Mg0_5  1  0.50000000  0.00000000  0.50000000  1
  Mg  Mg0_6  1  0.50000000  0.50000000  0.00000000  1
  Mg  Mg0_7  1  0.50000000  0.50000000  0.50000000  1
loop_
_geom_bond_atom_site_label_1
_geom_bond_atom_site_label_2
_geom_bond_distance
_geom_bond_site_symmetry_2
Sr0_0 Sr1_0 4.115591 1_555
Sr0_0 Sr0_3 4.236417 1_555
Sr0_0 Sr0_3 4.236417 1_544
Sr0_0 Sr0_5 4.236417 1_555
Sr0_0 Sr0_5 4.236417 1_454
Sr0_0 Sr1_1 4.333865 1_555
Sr0_0 Sr1_2 4.333865 1_545
Sr0_0 Sr1_4 4.333865 1_455
Sr0_0 Sr1_7 4.333865 1_444
Sr0_1 Sr1_1 4.115591 1_555
Sr0_1 Sr0_2 4.236417 1_556
Sr0_1 Sr0_4 4.236417 1_556
Sr0_1 Sr0_2 4.236417 1_545
Sr0_1 Sr0_4 4.236417 1_455
Sr0_1 Sr1_5 4.333865 1_455
Sr0_1 Sr1_6 4.333865 1_445
Sr0_1 Sr1_3 4.333865 1_545
Sr0_1 Sr1_0 4.333865 1_556
Sr0_2 Sr1_2 4.115591 1_555
Sr0_2 Sr0_7 4.236417 1_454
Sr0_2 Sr0_7 4.236417 1_555
Sr0_2 Sr1_0 4.333865 1_555
Sr0_2 Sr1_3 4.333865 1_555
Sr0_2 Sr1_5 4.333865 1_454
Sr0_2 Sr1_6 4.333865 1_455
Sr0_3 Sr1_3 4.115591 1_555
Sr0_3 Sr0_6 4.236417 1_455
Sr0_3 Sr0_6 4.236417 1_556
Sr0_3 Sr1_4 4.333865 1_455
Sr0_3 Sr1_1 4.333865 1_555
Sr0_3 Sr1_2 4.333865 1_556
Sr0_3 Sr1_7 4.333865 1_455
Sr0_4 Sr1_4 4.115591 1_555
Sr0_4 Sr0_7 4.236417 1_555
Sr0_4 Sr0_7 4.236417 1_544
Sr0_4 Sr1_0 4.333865 1_555
Sr0_4 Sr1_3 4.333865 1_544
Sr0_4 Sr1_6 4.333865 1_545
Sr0_4 Sr1_5 4.333865 1_555
Sr0_5 Sr1_5 4.115591 1_555
Sr0_5 Sr0_6 4.236417 1_556
Sr0_5 Sr0_6 4.236417 1_545
Sr0_5 Sr1_1 4.333865 1_555
Sr0_5 Sr1_2 4.333865 1_545
Sr0_5 Sr1_4 4.333865 1_556
Sr0_5 Sr1_7 4.333865 1_545
Sr0_6 Sr1_6 4.115591 1_555
Sr0_6 Sr1_1 4.333865 1_554
Sr0_6 Sr1_7 4.333865 1_555
Sr0_6 Sr1_4 4.333865 1_555
Sr0_6 Sr1_2 4.333865 1_555
Sr0_7 Sr1_7 4.115591 1_555
Sr0_7 Sr1_0 4.333865 1_555
Sr0_7 Sr1_6 4.333865 1_556
Sr0_7 Sr1_3 4.333865 1_555
Sr0_7 Sr1_5 4.333865 1_555
Sr1_0 Sr1_5 4.236417 1_454
Sr1_0 Sr1_5 4.236417 1_555
Sr1_0 Sr1_3 4.236417 1_555
Sr1_0 Sr1_3 4.236417 1_544
Sr1_1 Sr1_4 4.236417 1_556
Sr1_1 Sr1_2 4.236417 1_556
Sr1_1 Sr1_2 4.236417 1_545
Sr1_1 Sr1_4 4.236417 1_455
Sr1_2 Sr1_7 4.236417 1_454
Sr1_2 Sr1_7 4.236417 1_555
Sr1_3 Sr1_6 4.236417 1_455
Sr1_3 Sr1_6 4.236417 1_556
Sr1_4 Sr1_7 4.236417 1_544
Sr1_4 Sr1_7 4.236417 1_555
Sr1_5 Sr1_6 4.236417 1_545
Sr1_5 Sr1_6 4.236417 1_556
Mg0_0 Sr1_7 3.634300 1_444
Mg0_0 Sr1_2 3.634300 1_545
Mg0_0 Sr1_1 3.634300 1_555
Mg0_0 Sr1_4 3.634300 1_455
Mg0_0 Sr0_7 3.634300 1_444
Mg0_0 Sr0_2 3.634300 1_545
Mg0_0 Sr0_4 3.634300 1_455
Mg0_0 Sr0_1 3.634300 1_555
Mg0_1 Sr1_6 3.634300 1_445
Mg0_1 Sr1_0 3.634300 1_556
Mg0_1 Sr1_3 3.634300 1_545
Mg0_1 Sr1_5 3.634300 1_455
Mg0_1 Sr0_5 3.634300 1_455
Mg0_1 Sr0_0 3.634300 1_556
Mg0_1 Sr0_6 3.634300 1_445
Mg0_1 Sr0_3 3.634300 1_545
Mg0_2 Sr1_6 3.634300 1_455
Mg0_2 Sr1_3 3.634300 1_555
Mg0_2 Sr1_5 3.634300 1_454
Mg0_2 Sr1_0 3.634300 1_555
Mg0_2 Sr0_5 3.634300 1_454
Mg0_2 Sr0_6 3.634300 1_455
Mg0_2 Sr0_3 3.634300 1_555
Mg0_2 Sr0_0 3.634300 1_555
Mg0_3 Sr1_4 3.634300 1_455
Mg0_3 Sr1_7 3.634300 1_455
Mg0_3 Sr1_2 3.634300 1_556
Mg0_3 Sr1_1 3.634300 1_555
Mg0_3 Sr0_4 3.634300 1_455
Mg0_3 Sr0_7 3.634300 1_455
Mg0_3 Sr0_1 3.634300 1_555
Mg0_3 Sr0_2 3.634300 1_556
Mg0_4 Sr1_6 3.634300 1_545
Mg0_4 Sr1_3 3.634300 1_544
Mg0_4 Sr1_5 3.634300 1_555
Mg0_4 Sr1_0 3.634300 1_555
Mg0_4 Sr0_6 3.634300 1_545
Mg0_4 Sr0_5 3.634300 1_555
Mg0_4 Sr0_3 3.634300 1_544
Mg0_4 Sr0_0 3.634300 1_555
Mg0_5 Sr1_7 3.634300 1_545
Mg0_5 Sr1_4 3.634300 1_556
Mg0_5 Sr1_2 3.634300 1_545
Mg0_5 Sr1_1 3.634300 1_555
Mg0_5 Sr0_2 3.634300 1_545
Mg0_5 Sr0_4 3.634300 1_556
Mg0_5 Sr0_1 3.634300 1_555
Mg0_5 Sr0_7 3.634300 1_545
Mg0_6 Sr1_7 3.634300 1_555
Mg0_6 Sr1_4 3.634300 1_555
Mg0_6 Sr1_2 3.634300 1_555
Mg0_6 Sr1_1 3.634300 1_554
Mg0_6 Sr0_7 3.634300 1_555
Mg0_6 Sr0_2 3.634300 1_555
Mg0_6 Sr0_1 3.634300 1_554
Mg0_6 Sr0_4 3.634300 1_555
Mg0_7 Sr1_6 3.634300 1_556
Mg0_7 Sr1_5 3.634300 1_555
Mg0_7 Sr1_3 3.634300 1_555
Mg0_7 Sr1_0 3.634300 1_555
Mg0_7 Sr0_5 3.634300 1_555
Mg0_7 Sr0_3 3.634300 1_555
Mg0_7 Sr0_6 3.634300 1_556
Mg0_7 Sr0_0 3.634300 1_555
