# generated using pymatgen
data_K3GdF6
_symmetry_space_group_name_H-M   'P 1'
_cell_length_a   6.61069041
_cell_length_b   6.32103132
_cell_length_c   10.83350651
_cell_angle_alpha   55.99824899
_cell_angle_beta   90.00000000
_cell_angle_gamma   90.00000000
_symmetry_Int_Tables_number   1
_chemical_formula_structural   K3GdF6
_chemical_formula_sum   'K6 Gd2 F12'
_cell_volume   375.29179581
_cell_formula_units_Z   2
loop_
 _symmetry_equiv_pos_site_id
 _symmetry_equiv_pos_as_xyz
  1  'x, y, z'
loop_
 _atom_site_type_symbol
 _atom_site_label
 _atom_site_symmetry_multiplicity
 _atom_site_fract_x
 _atom_site_fract_y
 _atom_site_fract_z
 _atom_site_occupancy
  K  K0  1  0.94290969  0.72170337  0.75764984  1
  K  K1  1  0.44290969  0.27829663  0.74235016  1
  K  K2  1  0.05709031  0.27829663  0.24235016  1
  K  K3  1  0.55709031  0.72170337  0.25764984  1
  K  K4  1  0.00000000  0.50000000  0.50000000  1
  K  K5  1  0.50000000  0.50000000  -0.00000000  1
  Gd  Gd0  1  0.50000000  -0.00000000  0.50000000  1
  Gd  Gd1  1  0.00000000  -0.00000000  -0.00000000  1
  F  F0  1  0.93263957  0.89662030  0.22832914  1
  F  F1  1  0.43263957  0.10337970  0.27167086  1
  F  F2  1  0.06736043  0.10337970  0.77167086  1
  F  F3  1  0.56736043  0.89662030  0.72832914  1
  F  F4  1  0.72878685  0.25288123  0.92071673  1
  F  F5  1  0.22878685  0.74711877  0.57928327  1
  F  F6  1  0.27121315  0.74711877  0.07928327  1
  F  F7  1  0.77121315  0.25288123  0.42071673  1
  F  F8  1  0.32093188  0.33647758  0.44804602  1
  F  F9  1  0.82093188  0.66352242  0.05195398  1
  F  F10  1  0.67906812  0.66352242  0.55195398  1
  F  F11  1  0.17906812  0.33647758  0.94804602  1
loop_
_geom_bond_atom_site_label_1
_geom_bond_atom_site_label_2
_geom_bond_distance
_geom_bond_site_symmetry_2
F0 Gd1 2.221750 1_665
F0 K4 2.625489 1_655
F0 K2 2.632559 1_665
F0 K3 2.663470 1_555
F1 Gd0 2.221750 1_555
F1 K5 2.625489 1_555
F1 K3 2.632559 1_545
F1 K2 2.663470 1_555
F2 Gd1 2.221750 1_556
F2 K4 2.625489 1_555
F2 K0 2.632559 1_445
F2 K1 2.663470 1_555
F3 Gd0 2.221750 1_565
F3 K5 2.625489 1_556
F3 K1 2.632559 1_565
F3 K0 2.663470 1_555
F4 Gd1 2.229753 1_656
F4 K5 2.639273 1_556
F4 K1 2.642734 1_555
F4 K0 2.837470 1_555
F5 Gd0 2.229753 1_565
F5 K4 2.639273 1_555
F5 K0 2.642734 1_455
F5 K1 2.837470 1_555
F6 Gd1 2.229753 1_565
F6 K5 2.639273 1_555
F6 K3 2.642734 1_555
F6 K2 2.837470 1_555
F7 Gd0 2.229753 1_555
F7 K4 2.639273 1_655
F7 K2 2.642734 1_655
F7 K3 2.837470 1_555
F8 Gd0 2.214237 1_555
F8 K4 2.556749 1_555
F8 K3 2.646445 1_555
F8 K2 3.009948 1_555
F8 K1 3.104767 1_555
F9 Gd1 2.214237 1_665
F9 K5 2.556749 1_555
F9 K2 2.646445 1_655
F9 K3 3.009948 1_555
F9 K0 3.104767 1_554
F10 Gd0 2.214237 1_565
F10 K4 2.556749 1_655
F10 K1 2.646445 1_555
F10 K0 3.009948 1_555
F10 K3 3.104767 1_555
F11 Gd1 2.214237 1_556
F11 K5 2.556749 1_556
F11 K0 2.646445 1_455
F11 K1 3.009948 1_555
F11 K2 3.104767 1_556
