# generated using pymatgen
data_Ba3Zn2B3O9F
_symmetry_space_group_name_H-M   'P 1'
_cell_length_a   7.11399000
_cell_length_b   8.51747200
_cell_length_c   17.60450500
_cell_angle_alpha   90.00000000
_cell_angle_beta   90.00000000
_cell_angle_gamma   90.00000000
_symmetry_Int_Tables_number   1
_chemical_formula_structural   Ba3Zn2B3O9F
_chemical_formula_sum   'Ba12 Zn8 B12 O36 F4'
_cell_volume   1066.71347956
_cell_formula_units_Z   4
loop_
 _symmetry_equiv_pos_site_id
 _symmetry_equiv_pos_as_xyz
  1  'x, y, z'
loop_
 _atom_site_type_symbol
 _atom_site_label
 _atom_site_symmetry_multiplicity
 _atom_site_fract_x
 _atom_site_fract_y
 _atom_site_fract_z
 _atom_site_occupancy
  Ba  Ba0  1  0.36101300  0.79490800  0.25000000  1
  Ba  Ba1  1  0.13898700  0.29490800  0.25000000  1
  Ba  Ba2  1  0.63898700  0.20509200  0.75000000  1
  Ba  Ba3  1  0.86101300  0.70509200  0.75000000  1
  Ba  Ba4  1  0.65393100  0.44895000  0.37924800  1
  Ba  Ba5  1  0.84606900  0.94895000  0.12075200  1
  Ba  Ba6  1  0.34606900  0.55105000  0.87924800  1
  Ba  Ba7  1  0.15393100  0.05105000  0.62075200  1
  Ba  Ba8  1  0.34606900  0.55105000  0.62075200  1
  Ba  Ba9  1  0.15393100  0.05105000  0.87924800  1
  Ba  Ba10  1  0.65393100  0.44895000  0.12075200  1
  Ba  Ba11  1  0.84606900  0.94895000  0.37924800  1
  Zn  Zn0  1  0.40633800  0.07192500  0.41681100  1
  Zn  Zn1  1  0.09366200  0.57192500  0.08318900  1
  Zn  Zn2  1  0.59366200  0.92807500  0.91681100  1
  Zn  Zn3  1  0.90633800  0.42807500  0.58318900  1
  Zn  Zn4  1  0.59366200  0.92807500  0.58318900  1
  Zn  Zn5  1  0.90633800  0.42807500  0.91681100  1
  Zn  Zn6  1  0.40633800  0.07192500  0.08318900  1
  Zn  Zn7  1  0.09366200  0.57192500  0.41681100  1
  B  B0  1  0.92923900  0.68609800  0.25000000  1
  B  B1  1  0.57076100  0.18609800  0.25000000  1
  B  B2  1  0.07076100  0.31390200  0.75000000  1
  B  B3  1  0.42923900  0.81390200  0.75000000  1
  B  B4  1  0.59712100  0.24335300  0.54008800  1
  B  B5  1  0.90287900  0.74335300  0.95991200  1
  B  B6  1  0.40287900  0.75664700  0.04008800  1
  B  B7  1  0.09712100  0.25664700  0.45991200  1
  B  B8  1  0.40287900  0.75664700  0.45991200  1
  B  B9  1  0.09712100  0.25664700  0.04008800  1
  B  B10  1  0.59712100  0.24335300  0.95991200  1
  B  B11  1  0.90287900  0.74335300  0.54008800  1
  O  O0  1  0.47090300  0.84764900  0.40037400  1
  O  O1  1  0.02909700  0.34764900  0.09962600  1
  O  O2  1  0.52909700  0.15235100  0.90037400  1
  O  O3  1  0.97090300  0.65235100  0.59962600  1
  O  O4  1  0.52909700  0.15235100  0.59962600  1
  O  O5  1  0.97090300  0.65235100  0.90037400  1
  O  O6  1  0.47090300  0.84764900  0.09962600  1
  O  O7  1  0.02909700  0.34764900  0.40037400  1
  O  O8  1  0.61554900  0.18425200  0.46724100  1
  O  O9  1  0.88445100  0.68425200  0.03275900  1
  O  O10  1  0.38445100  0.81574800  0.96724100  1
  O  O11  1  0.11554900  0.31574800  0.53275900  1
  O  O12  1  0.38445100  0.81574800  0.53275900  1
  O  O13  1  0.11554900  0.31574800  0.96724100  1
  O  O14  1  0.61554900  0.18425200  0.03275900  1
  O  O15  1  0.88445100  0.68425200  0.46724100  1
  O  O16  1  0.74681600  0.73968400  0.25000000  1
  O  O17  1  0.75318400  0.23968400  0.25000000  1
  O  O18  1  0.25318400  0.26031600  0.75000000  1
  O  O19  1  0.24681600  0.76031600  0.75000000  1
  O  O20  1  0.14637100  0.10055700  0.44640400  1
  O  O21  1  0.35362900  0.60055700  0.05359600  1
  O  O22  1  0.85362900  0.89944300  0.94640400  1
  O  O23  1  0.64637100  0.39944300  0.55359600  1
  O  O24  1  0.85362900  0.89944300  0.55359600  1
  O  O25  1  0.64637100  0.39944300  0.94640400  1
  O  O26  1  0.14637100  0.10055700  0.05359600  1
  O  O27  1  0.35362900  0.60055700  0.44640400  1
  O  O28  1  0.03030900  0.66225600  0.31699100  1
  O  O29  1  0.46969100  0.16225600  0.18300900  1
  O  O30  1  0.96969100  0.33774400  0.81699100  1
  O  O31  1  0.53030900  0.83774400  0.68300900  1
  O  O32  1  0.96969100  0.33774400  0.68300900  1
  O  O33  1  0.53030900  0.83774400  0.81699100  1
  O  O34  1  0.03030900  0.66225600  0.18300900  1
  O  O35  1  0.46969100  0.16225600  0.31699100  1
  F  F0  1  0.43429300  0.49286700  0.25000000  1
  F  F1  1  0.06570700  0.99286700  0.25000000  1
  F  F2  1  0.56570700  0.50713300  0.75000000  1
  F  F3  1  0.93429300  0.00713300  0.75000000  1
loop_
_geom_bond_atom_site_label_1
_geom_bond_atom_site_label_2
_geom_bond_distance
_geom_bond_site_symmetry_2
Ba0 F0 2.624913 1_555
Ba0 F1 2.693760 1_555
Ba0 O16 2.784613 1_555
Ba0 O0 2.796592 1_555
Ba0 O6 2.796592 1_555
Ba0 O34 2.863962 1_555
Ba0 O28 2.863962 1_555
Ba1 F1 2.624913 1_545
Ba1 F0 2.693760 1_555
Ba1 O17 2.784613 1_455
Ba1 O7 2.796592 1_555
Ba1 O1 2.796592 1_555
Ba1 O29 2.863962 1_555
Ba1 O35 2.863962 1_555
Ba2 F2 2.624913 1_555
Ba2 F3 2.693760 1_555
Ba2 O18 2.784613 1_555
Ba2 O2 2.796592 1_555
Ba2 O4 2.796592 1_555
Ba2 O30 2.863962 1_555
Ba2 O32 2.863962 1_555
Ba3 F3 2.624913 1_565
Ba3 F2 2.693760 1_555
Ba3 O19 2.784613 1_655
Ba3 O5 2.796592 1_555
Ba3 O3 2.796592 1_555
Ba3 O33 2.863962 1_555
Ba3 O31 2.863962 1_555
Ba4 O8 2.749039 1_555
Ba4 O27 2.762093 1_555
Ba4 F0 2.785416 1_555
Ba4 O7 2.829481 1_655
Ba4 O17 2.975361 1_555
Ba4 O35 2.980273 1_555
Ba4 O15 3.017563 1_555
Ba4 O23 3.098607 1_555
Ba5 O9 2.749039 1_555
Ba5 O26 2.762093 1_665
Ba5 F1 2.785416 1_655
Ba5 O6 2.829481 1_555
Ba5 O16 2.975361 1_555
Ba5 O34 2.980273 1_655
Ba5 O14 3.017563 1_565
Ba5 O22 3.098607 1_554
Ba6 O10 2.749039 1_555
Ba6 O25 2.762093 1_555
Ba6 F2 2.785416 1_555
Ba6 O5 2.829481 1_455
Ba6 O19 2.975361 1_555
Ba6 O33 2.980273 1_555
Ba6 O13 3.017563 1_555
Ba6 O21 3.098607 1_556
Ba7 O11 2.749039 1_555
Ba7 O24 2.762093 1_445
Ba7 F3 2.785416 1_455
Ba7 O4 2.829481 1_555
Ba7 O18 2.975361 1_555
Ba7 O32 2.980273 1_455
Ba7 O12 3.017563 1_545
Ba7 O20 3.098607 1_555
Ba8 O12 2.749039 1_555
Ba8 O23 2.762093 1_555
Ba8 F2 2.785416 1_555
Ba8 O3 2.829481 1_455
Ba8 O19 2.975361 1_555
Ba8 O31 2.980273 1_555
Ba8 O11 3.017563 1_555
Ba8 O27 3.098607 1_555
Ba9 O13 2.749039 1_555
Ba9 O22 2.762093 1_445
Ba9 F3 2.785416 1_455
Ba9 O2 2.829481 1_555
Ba9 O18 2.975361 1_555
Ba9 O30 2.980273 1_455
Ba9 O10 3.017563 1_545
Ba9 O26 3.098607 1_556
Ba10 O14 2.749039 1_555
Ba10 O21 2.762093 1_555
Ba10 F0 2.785416 1_555
Ba10 O1 2.829481 1_655
Ba10 O17 2.975361 1_555
Ba10 O29 2.980273 1_555
Ba10 O9 3.017563 1_555
Ba10 O25 3.098607 1_554
Ba11 O15 2.749039 1_555
Ba11 O20 2.762093 1_665
Ba11 F1 2.785416 1_655
Ba11 O0 2.829481 1_555
Ba11 O16 2.975361 1_555
Ba11 O28 2.980273 1_655
Ba11 O8 3.017563 1_565
Ba11 O24 3.098607 1_555
B0 O16 1.375676 1_555
B0 O34 1.396090 1_655
B0 O28 1.396090 1_655
B1 O17 1.375676 1_555
B1 O29 1.396090 1_555
B1 O35 1.396090 1_555
B2 O18 1.375676 1_555
B2 O30 1.396090 1_455
B2 O32 1.396090 1_455
B3 O19 1.375676 1_555
B3 O33 1.396090 1_555
B3 O31 1.396090 1_555
B4 O8 1.383918 1_555
B4 O4 1.390526 1_555
B4 O23 1.395297 1_555
B5 O9 1.383918 1_556
B5 O5 1.390526 1_555
B5 O22 1.395297 1_555
B6 O10 1.383918 1_554
B6 O6 1.390526 1_555
B6 O21 1.395297 1_555
B7 O11 1.383918 1_555
B7 O7 1.390526 1_555
B7 O20 1.395297 1_555
B8 O12 1.383918 1_555
B8 O0 1.390526 1_555
B8 O27 1.395297 1_555
B9 O13 1.383918 1_554
B9 O1 1.390526 1_555
B9 O26 1.395297 1_555
B10 O14 1.383918 1_556
B10 O2 1.390526 1_555
B10 O25 1.395297 1_555
B11 O15 1.383918 1_555
B11 O3 1.390526 1_555
B11 O24 1.395297 1_555
O0 Zn0 1.985904 1_565
O1 Zn1 1.985904 1_555
O2 Zn2 1.985904 1_545
O3 Zn3 1.985904 1_555
O4 Zn4 1.985904 1_545
O5 Zn5 1.985904 1_555
O6 Zn6 1.985904 1_565
O7 Zn7 1.985904 1_555
O8 Zn0 1.979557 1_555
O9 Zn1 1.979557 1_655
O10 Zn2 1.979557 1_555
O11 Zn3 1.979557 1_455
O12 Zn4 1.979557 1_555
O13 Zn5 1.979557 1_455
O14 Zn6 1.979557 1_555
O15 Zn7 1.979557 1_655
O20 Zn0 1.936795 1_555
O21 Zn1 1.936795 1_555
O22 Zn2 1.936795 1_555
O23 Zn3 1.936795 1_555
O24 Zn4 1.936795 1_555
O25 Zn5 1.936795 1_555
O26 Zn6 1.936795 1_555
O27 Zn7 1.936795 1_555
O28 Zn7 1.970565 1_555
O29 Zn6 1.970565 1_555
O30 Zn5 1.970565 1_555
O31 Zn4 1.970565 1_555
O32 Zn3 1.970565 1_555
O33 Zn2 1.970565 1_555
O34 Zn1 1.970565 1_555
O35 Zn0 1.970565 1_555
