# generated using pymatgen
data_LaMg6Sb
_symmetry_space_group_name_H-M   'P 1'
_cell_length_a   5.35639600
_cell_length_b   6.41230100
_cell_length_c   11.92068100
_cell_angle_alpha   90.00000000
_cell_angle_beta   90.00000000
_cell_angle_gamma   90.00000000
_symmetry_Int_Tables_number   1
_chemical_formula_structural   LaMg6Sb
_chemical_formula_sum   'La2 Mg12 Sb2'
_cell_volume   409.43752544
_cell_formula_units_Z   2
loop_
 _symmetry_equiv_pos_site_id
 _symmetry_equiv_pos_as_xyz
  1  'x, y, z'
loop_
 _atom_site_type_symbol
 _atom_site_label
 _atom_site_symmetry_multiplicity
 _atom_site_fract_x
 _atom_site_fract_y
 _atom_site_fract_z
 _atom_site_occupancy
  La  La0  1  0.50000000  0.00000000  0.17021900  1
  La  La1  1  0.50000000  0.50000000  0.67021900  1
  Mg  Mg0  1  0.50000000  0.24728100  0.41778600  1
  Mg  Mg1  1  0.50000000  0.75271900  0.41778600  1
  Mg  Mg2  1  0.00000000  0.74438200  0.07684200  1
  Mg  Mg3  1  0.00000000  0.25561800  0.07684200  1
  Mg  Mg4  1  0.00000000  0.00000000  0.33943900  1
  Mg  Mg5  1  0.00000000  0.50000000  0.33556800  1
  Mg  Mg6  1  0.50000000  0.74728100  0.91778600  1
  Mg  Mg7  1  0.50000000  0.25271900  0.91778600  1
  Mg  Mg8  1  0.00000000  0.24438200  0.57684200  1
  Mg  Mg9  1  0.00000000  0.75561800  0.57684200  1
  Mg  Mg10  1  0.00000000  0.50000000  0.83943900  1
  Mg  Mg11  1  0.00000000  0.00000000  0.83556800  1
  Sb  Sb0  1  0.50000000  0.50000000  0.16551500  1
  Sb  Sb1  1  0.50000000  0.00000000  0.66551500  1
loop_
_geom_bond_atom_site_label_1
_geom_bond_atom_site_label_2
_geom_bond_distance
_geom_bond_site_symmetry_2
La0 Sb0 3.206641 1_545
La0 Sb0 3.206641 1_555
La0 Mg2 3.331429 1_545
La0 Mg3 3.331429 1_555
La0 Mg3 3.331429 1_655
La0 Mg2 3.331429 1_645
La0 Mg0 3.350171 1_555
La0 Mg1 3.350171 1_545
La0 Mg4 3.352896 1_655
La0 Mg4 3.352896 1_555
La0 Mg7 3.417774 1_554
La0 Mg6 3.417774 1_544
La1 Sb1 3.206641 1_555
La1 Sb1 3.206641 1_565
La1 Mg9 3.331429 1_655
La1 Mg8 3.331429 1_555
La1 Mg8 3.331429 1_655
La1 Mg9 3.331429 1_555
La1 Mg6 3.350171 1_555
La1 Mg7 3.350171 1_555
La1 Mg10 3.352896 1_555
La1 Mg10 3.352896 1_655
La1 Mg0 3.417774 1_555
La1 Mg1 3.417774 1_555
Mg0 Mg1 3.171280 1_545
Mg0 Mg1 3.241021 1_555
Mg0 Mg4 3.249502 1_655
Mg0 Mg4 3.249502 1_555
Mg0 Mg5 3.280150 1_555
Mg0 Mg5 3.280150 1_655
Mg0 Mg8 3.281481 1_555
Mg0 Mg8 3.281481 1_655
Mg0 Sb1 3.351872 1_555
Mg0 Sb0 3.416074 1_555
Mg1 Mg4 3.249502 1_665
Mg1 Mg4 3.249502 1_565
Mg1 Mg5 3.280150 1_655
Mg1 Mg5 3.280150 1_555
Mg1 Mg9 3.281481 1_655
Mg1 Mg9 3.281481 1_555
Mg1 Sb1 3.351872 1_565
Mg1 Sb0 3.416074 1_555
Mg2 Mg3 3.134102 1_555
Mg2 Sb0 3.278068 1_455
Mg2 Sb0 3.278068 1_555
Mg2 Mg3 3.278199 1_565
Mg2 Mg6 3.281481 1_554
Mg2 Mg6 3.281481 1_454
Mg2 Mg5 3.459462 1_555
Mg2 Mg4 3.533503 1_565
Mg3 Sb0 3.278068 1_455
Mg3 Sb0 3.278068 1_555
Mg3 Mg7 3.281481 1_554
Mg3 Mg7 3.281481 1_454
Mg3 Mg5 3.459462 1_555
Mg3 Mg4 3.533503 1_555
Mg4 Mg5 3.206483 1_555
Mg4 Mg5 3.206483 1_545
Mg4 Mg9 3.234900 1_545
Mg4 Mg8 3.234900 1_555
Mg5 Mg8 3.310421 1_555
Mg5 Mg9 3.310421 1_555
Mg5 Sb0 3.358880 1_455
Mg5 Sb0 3.358880 1_555
Mg6 Mg7 3.171280 1_555
Mg6 Mg7 3.241021 1_565
Mg6 Sb0 3.351872 1_556
Mg6 Sb1 3.416074 1_565
Mg7 Sb0 3.351872 1_556
Mg7 Sb1 3.416074 1_555
Mg8 Mg9 3.134102 1_545
Mg8 Sb1 3.278068 1_555
Mg8 Sb1 3.278068 1_455
Mg8 Mg9 3.278199 1_555
Mg9 Sb1 3.278068 1_465
Mg9 Sb1 3.278068 1_565
Mg10 Mg11 3.206483 1_555
Mg10 Mg11 3.206483 1_565
Mg10 Mg2 3.234900 1_556
Mg10 Mg3 3.234900 1_556
Mg10 Mg6 3.249502 1_455
Mg10 Mg6 3.249502 1_555
Mg10 Mg7 3.249502 1_455
Mg10 Mg7 3.249502 1_555
Mg10 Mg8 3.533503 1_555
Mg10 Mg9 3.533503 1_555
Mg11 Mg7 3.280150 1_455
Mg11 Mg6 3.280150 1_445
Mg11 Mg6 3.280150 1_545
Mg11 Mg7 3.280150 1_555
Mg11 Mg2 3.310421 1_546
Mg11 Mg3 3.310421 1_556
Mg11 Sb1 3.358880 1_555
Mg11 Sb1 3.358880 1_455
Mg11 Mg9 3.459462 1_545
Mg11 Mg8 3.459462 1_555
