# generated using pymatgen
data_Dy8In3Co
_symmetry_space_group_name_H-M   'P 1'
_cell_length_a   10.38883473
_cell_length_b   10.38883473
_cell_length_c   6.98323100
_cell_angle_alpha   90.00000000
_cell_angle_beta   90.00000000
_cell_angle_gamma   120.00000463
_symmetry_Int_Tables_number   1
_chemical_formula_structural   Dy8In3Co
_chemical_formula_sum   'Dy16 In6 Co2'
_cell_volume   652.71064316
_cell_formula_units_Z   2
loop_
 _symmetry_equiv_pos_site_id
 _symmetry_equiv_pos_as_xyz
  1  'x, y, z'
loop_
 _atom_site_type_symbol
 _atom_site_label
 _atom_site_symmetry_multiplicity
 _atom_site_fract_x
 _atom_site_fract_y
 _atom_site_fract_z
 _atom_site_occupancy
  Dy  Dy0  1  0.53392000  0.06783900  0.51167200  1
  Dy  Dy1  1  0.93216100  0.46608000  0.51167200  1
  Dy  Dy2  1  0.53392000  0.46608000  0.51167200  1
  Dy  Dy3  1  0.46608000  0.93216100  0.01167200  1
  Dy  Dy4  1  0.06783900  0.53392000  0.01167200  1
  Dy  Dy5  1  0.46608000  0.53392000  0.01167200  1
  Dy  Dy6  1  0.17727200  0.35454400  0.72229100  1
  Dy  Dy7  1  0.64545600  0.82272800  0.72229100  1
  Dy  Dy8  1  0.17727200  0.82272800  0.72229100  1
  Dy  Dy9  1  0.82272800  0.64545600  0.22229100  1
  Dy  Dy10  1  0.35454400  0.17727200  0.22229100  1
  Dy  Dy11  1  0.82272800  0.17727200  0.22229100  1
  Dy  Dy12  1  0.66666700  0.33333300  0.90183300  1
  Dy  Dy13  1  0.33333300  0.66666700  0.40183300  1
  Dy  Dy14  1  0.00000000  0.00000000  0.50098000  1
  Dy  Dy15  1  0.00000000  0.00000000  0.00098000  1
  In  In0  1  0.83616300  0.67232600  0.75952900  1
  In  In1  1  0.32767400  0.16383700  0.75952900  1
  In  In2  1  0.83616300  0.16383700  0.75952900  1
  In  In3  1  0.16383700  0.32767400  0.25952900  1
  In  In4  1  0.67232600  0.83616300  0.25952900  1
  In  In5  1  0.16383700  0.83616300  0.25952900  1
  Co  Co0  1  0.66666700  0.33333300  0.28881200  1
  Co  Co1  1  0.33333300  0.66666700  0.78881200  1
loop_
_geom_bond_atom_site_label_1
_geom_bond_atom_site_label_2
_geom_bond_distance
_geom_bond_site_symmetry_2
Dy0 In2 3.273873 1_555
Dy0 In1 3.273881 1_555
Dy0 Dy11 3.311704 1_555
Dy0 Dy10 3.311712 1_555
Dy0 Dy7 3.597327 1_545
Dy0 Dy8 3.597334 1_545
Dy0 Dy12 3.623396 1_555
Dy0 Dy13 3.689944 1_545
Dy0 Dy3 3.698848 1_546
Dy0 Dy3 3.698848 1_545
Dy0 In4 3.797559 1_545
Dy0 In5 3.797566 1_545
Dy1 In2 3.273873 1_555
Dy1 In0 3.273881 1_555
Dy1 Dy11 3.311704 1_555
Dy1 Dy9 3.311712 1_555
Dy1 Dy6 3.597327 1_655
Dy1 Dy8 3.597334 1_655
Dy1 Dy12 3.623396 1_555
Dy1 Dy13 3.689944 1_655
Dy1 Dy4 3.698848 1_656
Dy1 Dy4 3.698848 1_655
Dy1 In3 3.797559 1_655
Dy1 In5 3.797566 1_655
Dy2 In0 3.273874 1_555
Dy2 In1 3.273874 1_555
Dy2 Dy9 3.311706 1_555
Dy2 Dy7 3.597336 1_555
Dy2 Dy6 3.597336 1_555
Dy2 Dy5 3.698854 1_556
Dy2 Dy5 3.698854 1_555
Dy2 In4 3.797567 1_555
Dy2 In3 3.797567 1_555
Dy3 In5 3.273873 1_555
Dy3 In4 3.273881 1_555
Dy3 Dy8 3.311704 1_554
Dy3 Dy7 3.311712 1_554
Dy3 In1 3.797559 1_564
Dy3 In2 3.797566 1_564
Dy4 In5 3.273873 1_555
Dy4 In3 3.273881 1_555
Dy4 Dy8 3.311704 1_554
Dy4 Dy6 3.311712 1_554
Dy4 Dy9 3.597327 1_455
Dy4 In0 3.797559 1_454
Dy4 In2 3.797566 1_454
Dy5 In4 3.273874 1_555
Dy5 In3 3.273874 1_555
Dy5 Dy7 3.311706 1_554
Dy5 Dy6 3.311706 1_554
Dy5 Dy9 3.597336 1_555
Dy5 In0 3.797567 1_554
Dy5 In1 3.797567 1_554
Dy6 In2 3.087061 1_455
Dy6 In1 3.087061 1_555
Dy6 In3 3.240604 1_555
Dy6 In3 3.759438 1_556
Dy7 In2 3.087061 1_565
Dy7 In0 3.087061 1_555
Dy7 In4 3.240604 1_555
Dy7 In4 3.759438 1_556
Dy8 In0 3.087061 1_455
Dy8 In1 3.087061 1_565
Dy8 In5 3.240604 1_555
Dy8 In5 3.759438 1_556
Dy9 In5 3.087061 1_655
Dy9 In4 3.087061 1_555
Dy9 In0 3.240604 1_554
Dy9 In0 3.759438 1_555
Dy10 In5 3.087061 1_545
Dy10 In3 3.087061 1_555
Dy10 In1 3.240604 1_554
Dy10 Dy2 3.311706 1_555
Dy10 Dy15 3.544500 1_555
Dy10 Dy12 3.590781 1_554
Dy10 Dy3 3.597327 1_545
Dy10 Dy5 3.597336 1_555
Dy10 Dy14 3.736645 1_555
Dy10 In1 3.759438 1_555
Dy11 In4 3.087061 1_545
Dy11 In3 3.087061 1_655
Dy11 In2 3.240604 1_554
Dy11 Dy15 3.544501 1_655
Dy11 Dy12 3.590774 1_554
Dy11 Dy3 3.597334 1_545
Dy11 Dy4 3.597334 1_655
Dy11 Dy14 3.736645 1_655
Dy11 In2 3.759438 1_555
Dy12 In2 3.207720 1_555
Dy12 In0 3.207729 1_555
Dy12 In1 3.207729 1_555
Dy12 Dy9 3.590781 1_556
Dy12 Dy2 3.623396 1_555
Dy12 Dy4 3.689944 1_656
Dy12 Dy3 3.689944 1_546
Dy12 Dy5 3.689962 1_556
Dy13 In5 3.207720 1_555
Dy13 In4 3.207729 1_555
Dy13 In3 3.207729 1_555
Dy13 Dy8 3.590774 1_555
Dy13 Dy7 3.590781 1_555
Dy13 Dy6 3.590781 1_555
Dy13 Dy3 3.623396 1_555
Dy13 Dy4 3.623396 1_555
Dy13 Dy5 3.623396 1_555
Dy13 Dy2 3.689962 1_555
Dy14 In3 3.396195 1_555
Dy14 In4 3.396195 1_445
Dy14 In5 3.396196 1_545
Dy14 In1 3.457028 1_555
Dy14 In0 3.457028 1_445
Dy14 In2 3.457028 1_455
Dy14 Dy15 3.491615 1_556
Dy14 Dy15 3.491616 1_555
Dy14 Dy6 3.544500 1_555
Dy14 Dy7 3.544500 1_445
Dy14 Dy8 3.544501 1_545
Dy14 Dy9 3.736645 1_445
Dy15 In1 3.396195 1_554
Dy15 In0 3.396195 1_444
Dy15 In2 3.396196 1_454
Dy15 In3 3.457028 1_555
Dy15 In4 3.457028 1_445
Dy15 In5 3.457028 1_545
Dy15 Dy9 3.544500 1_445
Dy15 Dy6 3.736645 1_554
Dy15 Dy7 3.736645 1_444
Dy15 Dy8 3.736645 1_544
Co0 Dy12 2.702364 1_554
Co0 Dy11 2.846323 1_555
Co0 Dy9 2.846331 1_555
Co0 Dy10 2.846331 1_555
Co0 Dy1 2.850904 1_555
Co0 Dy0 2.850904 1_555
Co0 Dy2 2.850905 1_555
Co1 Dy13 2.702364 1_555
Co1 Dy8 2.846323 1_555
Co1 Dy7 2.846331 1_555
Co1 Dy6 2.846331 1_555
Co1 Dy3 2.850904 1_556
Co1 Dy4 2.850904 1_556
Co1 Dy5 2.850905 1_556
