# generated using pymatgen
data_NiP2WO9
_symmetry_space_group_name_H-M   'P 1'
_cell_length_a   6.43422300
_cell_length_b   8.03308000
_cell_length_c   14.04677600
_cell_angle_alpha   90.00000000
_cell_angle_beta   90.00000000
_cell_angle_gamma   90.00000000
_symmetry_Int_Tables_number   1
_chemical_formula_structural   NiP2WO9
_chemical_formula_sum   'Ni4 P8 W4 O36'
_cell_volume   726.03048707
_cell_formula_units_Z   4
loop_
 _symmetry_equiv_pos_site_id
 _symmetry_equiv_pos_as_xyz
  1  'x, y, z'
loop_
 _atom_site_type_symbol
 _atom_site_label
 _atom_site_symmetry_multiplicity
 _atom_site_fract_x
 _atom_site_fract_y
 _atom_site_fract_z
 _atom_site_occupancy
  Ni  Ni0  1  0.50000000  0.50000000  0.00000000  1
  Ni  Ni1  1  0.50000000  0.00000000  0.50000000  1
  Ni  Ni2  1  0.00000000  0.00000000  0.50000000  1
  Ni  Ni3  1  0.00000000  0.50000000  0.00000000  1
  P  P0  1  0.25000000  0.84163800  0.94333200  1
  P  P1  1  0.75000000  0.15836200  0.05666800  1
  P  P2  1  0.75000000  0.34163800  0.55666800  1
  P  P3  1  0.25000000  0.65836200  0.44333200  1
  P  P4  1  0.75000000  0.89421800  0.68243900  1
  P  P5  1  0.25000000  0.10578200  0.31756100  1
  P  P6  1  0.25000000  0.39421800  0.81756100  1
  P  P7  1  0.75000000  0.60578200  0.18243900  1
  W  W0  1  0.75000000  0.85330400  0.87520100  1
  W  W1  1  0.25000000  0.14669600  0.12479900  1
  W  W2  1  0.25000000  0.35330400  0.62479900  1
  W  W3  1  0.75000000  0.64669600  0.37520100  1
  O  O0  1  0.04936800  0.10113600  0.37294100  1
  O  O1  1  0.54936800  0.89886400  0.62705900  1
  O  O2  1  0.95063200  0.60113600  0.12705900  1
  O  O3  1  0.45063200  0.39886400  0.87294100  1
  O  O4  1  0.95063200  0.89886400  0.62705900  1
  O  O5  1  0.45063200  0.10113600  0.37294100  1
  O  O6  1  0.04936800  0.39886400  0.87294100  1
  O  O7  1  0.54936800  0.60113600  0.12705900  1
  O  O8  1  0.25000000  0.83473800  0.48190900  1
  O  O9  1  0.75000000  0.16526200  0.51809100  1
  O  O10  1  0.75000000  0.33473800  0.01809100  1
  O  O11  1  0.25000000  0.66526200  0.98190900  1
  O  O12  1  0.75000000  0.66072400  0.94281700  1
  O  O13  1  0.25000000  0.33927600  0.05718300  1
  O  O14  1  0.25000000  0.16072400  0.55718300  1
  O  O15  1  0.75000000  0.83927600  0.44281700  1
  O  O16  1  0.75000000  0.73268200  0.75413800  1
  O  O17  1  0.25000000  0.26731800  0.24586200  1
  O  O18  1  0.25000000  0.23268200  0.74586200  1
  O  O19  1  0.75000000  0.76731800  0.25413800  1
  O  O20  1  0.44333400  0.62695900  0.37996900  1
  O  O21  1  0.94333400  0.37304100  0.62003100  1
  O  O22  1  0.55666600  0.12695900  0.12003100  1
  O  O23  1  0.05666600  0.87304100  0.87996900  1
  O  O24  1  0.55666600  0.37304100  0.62003100  1
  O  O25  1  0.05666600  0.62695900  0.37996900  1
  O  O26  1  0.44333400  0.87304100  0.87996900  1
  O  O27  1  0.94333400  0.12695900  0.12003100  1
  O  O28  1  0.75000000  0.47621000  0.26994800  1
  O  O29  1  0.25000000  0.52379000  0.73005200  1
  O  O30  1  0.25000000  0.97621000  0.23005200  1
  O  O31  1  0.75000000  0.02379000  0.76994800  1
  O  O32  1  0.75000000  0.47662900  0.47789200  1
  O  O33  1  0.25000000  0.52337100  0.52210800  1
  O  O34  1  0.25000000  0.97662900  0.02210800  1
  O  O35  1  0.75000000  0.02337100  0.97789200  1
loop_
_geom_bond_atom_site_label_1
_geom_bond_atom_site_label_2
_geom_bond_distance
_geom_bond_site_symmetry_2
Ni0 O7 1.986542 1_555
Ni0 O3 1.986542 1_554
Ni0 O11 2.101060 1_554
Ni0 O10 2.101060 1_555
Ni0 O12 2.213505 1_554
Ni0 O13 2.213505 1_555
Ni1 O5 1.986542 1_555
Ni1 O1 1.986542 1_545
Ni1 O9 2.101060 1_555
Ni1 O8 2.101060 1_545
Ni1 O15 2.213505 1_545
Ni1 O14 2.213505 1_555
Ni2 O0 1.986542 1_555
Ni2 O4 1.986542 1_445
Ni2 O9 2.101060 1_455
Ni2 O8 2.101060 1_545
Ni2 O15 2.213505 1_445
Ni2 O14 2.213505 1_555
Ni3 O2 1.986542 1_455
Ni3 O6 1.986542 1_554
Ni3 O11 2.101060 1_554
Ni3 O10 2.101060 1_455
Ni3 O13 2.213505 1_555
Ni3 O12 2.213505 1_454
O0 P5 1.507643 1_555
O1 P4 1.507643 1_555
O2 P7 1.507643 1_555
O3 P6 1.507643 1_555
O4 P4 1.507643 1_555
O5 P5 1.507643 1_555
O6 P6 1.507643 1_555
O7 P7 1.507643 1_555
O8 P3 1.516931 1_555
O9 P2 1.516931 1_555
O10 P1 1.516931 1_555
O11 P0 1.516931 1_555
O12 W0 1.815306 1_555
O13 W1 1.815306 1_555
O14 W2 1.815306 1_555
O15 W3 1.815306 1_555
O16 P4 1.642613 1_555
O16 W0 1.957230 1_555
O17 P5 1.642613 1_555
O17 W1 1.957230 1_555
O18 P6 1.642613 1_555
O18 W2 1.957230 1_555
O19 P7 1.642613 1_555
O19 W3 1.957230 1_555
O20 P3 1.550239 1_555
O20 W3 1.980650 1_555
O21 P2 1.550239 1_555
O21 W2 1.980650 1_655
O22 P1 1.550239 1_555
O22 W1 1.980650 1_555
O23 P0 1.550239 1_555
O23 W0 1.980650 1_455
O24 P2 1.550239 1_555
O24 W2 1.980650 1_555
O25 P3 1.550239 1_555
O25 W3 1.980650 1_455
O26 P0 1.550239 1_555
O26 W0 1.980650 1_555
O27 P1 1.550239 1_555
O27 W1 1.980650 1_655
O28 P7 1.610706 1_555
O28 W3 2.015308 1_555
O29 P6 1.610706 1_555
O29 W2 2.015308 1_555
O30 P5 1.610706 1_565
O30 W1 2.015308 1_565
O31 P4 1.610706 1_545
O31 W0 2.015308 1_545
O32 P2 1.549309 1_555
O32 W3 1.986741 1_555
O33 P3 1.549309 1_555
O33 W2 1.986741 1_555
O34 P0 1.549309 1_554
O34 W1 1.986741 1_565
O35 P1 1.549309 1_556
O35 W0 1.986741 1_545
