# generated using pymatgen
data_KS
_symmetry_space_group_name_H-M   'P 1'
_cell_length_a   8.51254391
_cell_length_b   8.51254349
_cell_length_c   5.84614012
_cell_angle_alpha   90.00000000
_cell_angle_beta   90.00000000
_cell_angle_gamma   119.99999367
_symmetry_Int_Tables_number   1
_chemical_formula_structural   KS
_chemical_formula_sum   'K6 S6'
_cell_volume   366.87539707
_cell_formula_units_Z   6
loop_
 _symmetry_equiv_pos_site_id
 _symmetry_equiv_pos_as_xyz
  1  'x, y, z'
loop_
 _atom_site_type_symbol
 _atom_site_label
 _atom_site_symmetry_multiplicity
 _atom_site_fract_x
 _atom_site_fract_y
 _atom_site_fract_z
 _atom_site_occupancy
  K  K0  1  -0.00000000  0.64213592  0.50000000  1
  K  K1  1  0.35786408  0.35786408  0.50000000  1
  K  K2  1  0.64213592  -0.00000000  0.50000000  1
  K  K3  1  -0.00000000  0.30714325  0.00000000  1
  K  K4  1  0.69285675  0.69285675  0.00000000  1
  K  K5  1  0.30714325  -0.00000000  0.00000000  1
  S  S0  1  0.66666700  0.33333300  0.18223921  1
  S  S1  1  0.66666700  0.33333300  0.81776079  1
  S  S2  1  0.33333300  0.66666700  0.81776079  1
  S  S3  1  0.33333300  0.66666700  0.18223921  1
  S  S4  1  0.00000000  -0.00000000  0.68097611  1
  S  S5  1  0.00000000  -0.00000000  0.31902389  1
loop_
_geom_bond_atom_site_label_1
_geom_bond_atom_site_label_2
_geom_bond_distance
_geom_bond_site_symmetry_2
K0 S5 3.224831 1_565
K0 S4 3.224831 1_565
K0 S2 3.309607 1_555
K0 S3 3.309607 1_555
K0 S1 3.309610 1_455
K0 S0 3.309610 1_455
K1 S4 3.224832 1_555
K1 S5 3.224832 1_555
K1 S3 3.309614 1_555
K1 S2 3.309614 1_555
K1 S0 3.309614 1_555
K1 S1 3.309614 1_555
K2 S4 3.224831 1_655
K2 S5 3.224831 1_655
K2 S0 3.309607 1_555
K2 S1 3.309607 1_555
K2 S2 3.309610 1_545
K2 S3 3.309610 1_545
K3 S0 3.141472 1_455
K3 S1 3.141472 1_454
K3 S3 3.141476 1_555
K3 S2 3.141476 1_554
K3 S5 3.211607 1_555
K3 S4 3.211607 1_554
K4 S0 3.141479 1_555
K4 S1 3.141479 1_554
K4 S3 3.141480 1_555
K4 S2 3.141480 1_554
K4 S5 3.211607 1_665
K4 S4 3.211607 1_664
K5 S2 3.141471 1_544
K5 S3 3.141471 1_545
K5 S0 3.141476 1_555
K5 S1 3.141476 1_554
K5 S4 3.211607 1_554
K5 S5 3.211607 1_555
S0 S1 2.130792 1_554
S2 S3 2.130792 1_556
S4 S5 2.116023 1_555
