# generated using pymatgen
data_Li7Mn2(CoO4)3
_symmetry_space_group_name_H-M   'P 1'
_cell_length_a   6.61558340
_cell_length_b   6.61558340
_cell_length_c   5.02033980
_cell_angle_alpha   82.96723486
_cell_angle_beta   82.96723486
_cell_angle_gamma   83.90159918
_symmetry_Int_Tables_number   1
_chemical_formula_structural   Li7Mn2(CoO4)3
_chemical_formula_sum   'Li7 Mn2 Co3 O12'
_cell_volume   215.49554547
_cell_formula_units_Z   1
loop_
 _symmetry_equiv_pos_site_id
 _symmetry_equiv_pos_as_xyz
  1  'x, y, z'
loop_
 _atom_site_type_symbol
 _atom_site_label
 _atom_site_symmetry_multiplicity
 _atom_site_fract_x
 _atom_site_fract_y
 _atom_site_fract_z
 _atom_site_occupancy
  Li  Li0  1  0.74257300  0.74194300  0.75163200  1
  Li  Li1  1  0.42032600  0.09468200  0.74062200  1
  Li  Li2  1  0.09232700  0.41676500  0.75092800  1
  Li  Li3  1  0.25805700  0.25742700  0.24836800  1
  Li  Li4  1  0.90531800  0.57967400  0.25937800  1
  Li  Li5  1  0.58323500  0.90767300  0.24907200  1
  Li  Li6  1  0.49967400  0.50032600  0.50000000  1
  Mn  Mn0  1  0.99945200  0.00054800  0.00000000  1
  Mn  Mn1  1  0.16719500  0.83280500  0.50000000  1
  Co  Co0  1  0.66166000  0.33834000  0.00000000  1
  Co  Co1  1  0.34415300  0.65584700  0.00000000  1
  Co  Co2  1  0.81876200  0.18123800  0.50000000  1
  O  O0  1  0.11472600  0.10386900  0.63995500  1
  O  O1  1  0.79792700  0.43974100  0.63781000  1
  O  O2  1  0.42780400  0.79337900  0.63693900  1
  O  O3  1  0.61973500  0.61754100  0.11387000  1
  O  O4  1  0.26754400  0.95360100  0.14233100  1
  O  O5  1  0.95754500  0.26988200  0.12429800  1
  O  O6  1  0.38245900  0.38026500  0.88613000  1
  O  O7  1  0.04639900  0.73245600  0.85766900  1
  O  O8  1  0.73011800  0.04245500  0.87570200  1
  O  O9  1  0.89613100  0.88527400  0.36004500  1
  O  O10  1  0.56025900  0.20207300  0.36219000  1
  O  O11  1  0.20662100  0.57219600  0.36306100  1
loop_
_geom_bond_atom_site_label_1
_geom_bond_atom_site_label_2
_geom_bond_distance
_geom_bond_site_symmetry_2
Li0 O3 2.014593 1_556
Li0 O1 2.128509 1_555
Li0 O7 2.134104 1_655
Li0 O8 2.145462 1_565
Li0 O2 2.208782 1_555
Li0 O9 2.248342 1_555
Li1 O10 2.085603 1_555
Li1 O6 2.087683 1_555
Li1 O2 2.115049 1_545
Li1 O0 2.136126 1_555
Li1 O8 2.216310 1_555
Li1 O4 2.280401 1_546
Li2 O1 2.079822 1_455
Li2 O6 2.093682 1_555
Li2 O5 2.140475 1_456
Li2 O11 2.176026 1_555
Li2 O0 2.194131 1_555
Li2 O7 2.200134 1_555
Li3 O6 2.014593 1_554
Li3 O10 2.128509 1_555
Li3 O4 2.134104 1_545
Li3 O5 2.145462 1_455
Li3 O11 2.208782 1_555
Li3 O0 2.248342 1_555
Li4 O1 2.085603 1_555
Li4 O3 2.087683 1_555
Li4 O11 2.115049 1_655
Li4 O9 2.136126 1_555
Li4 O5 2.216310 1_555
Li4 O7 2.280401 1_654
Li5 O10 2.079822 1_565
Li5 O3 2.093682 1_555
Li5 O8 2.140475 1_564
Li5 O2 2.176026 1_555
Li5 O9 2.194131 1_555
Li5 O4 2.200134 1_555
Li6 O6 2.091822 1_555
Li6 O3 2.091822 1_555
Li6 O11 2.123157 1_555
Li6 O2 2.123157 1_555
Li6 O10 2.151939 1_555
Li6 O1 2.151939 1_555
Mn0 O5 1.940625 1_555
Mn0 O8 1.940625 1_554
Mn0 O9 1.945937 1_545
Mn0 O0 1.945937 1_654
Mn0 O4 1.972713 1_645
Mn0 O7 1.972713 1_644
Mn1 O2 1.914132 1_555
Mn1 O11 1.914132 1_555
Mn1 O7 1.942428 1_555
Mn1 O4 1.942428 1_555
Mn1 O0 1.986569 1_565
Mn1 O9 1.986569 1_455
Co0 O6 1.981493 1_554
Co0 O3 1.981493 1_555
Co0 O1 1.999342 1_554
Co0 O10 1.999342 1_555
Co0 O5 2.113687 1_555
Co0 O8 2.113687 1_554
Co1 O3 1.958678 1_555
Co1 O6 1.958678 1_554
Co1 O11 1.977416 1_555
Co1 O2 1.977416 1_554
Co1 O4 2.165985 1_555
Co1 O7 2.165985 1_554
Co2 O10 1.907500 1_555
Co2 O1 1.907500 1_555
Co2 O8 2.040569 1_555
Co2 O5 2.040569 1_555
Co2 O9 2.150628 1_545
Co2 O0 2.150628 1_655
