# generated using pymatgen
data_GdIn5Rh
_symmetry_space_group_name_H-M   'P 1'
_cell_length_a   4.64585129
_cell_length_b   4.64585129
_cell_length_c   7.47232489
_cell_angle_alpha   90.00000000
_cell_angle_beta   90.00000000
_cell_angle_gamma   90.00000000
_symmetry_Int_Tables_number   1
_chemical_formula_structural   GdIn5Rh
_chemical_formula_sum   'Gd1 In5 Rh1'
_cell_volume   161.28216881
_cell_formula_units_Z   1
loop_
 _symmetry_equiv_pos_site_id
 _symmetry_equiv_pos_as_xyz
  1  'x, y, z'
loop_
 _atom_site_type_symbol
 _atom_site_label
 _atom_site_symmetry_multiplicity
 _atom_site_fract_x
 _atom_site_fract_y
 _atom_site_fract_z
 _atom_site_occupancy
  Gd  Gd0  1  0.00000000  -0.00000000  -0.00000000  1
  In  In0  1  0.00000000  0.50000000  0.30212564  1
  In  In1  1  -0.00000000  0.50000000  0.69787436  1
  In  In2  1  0.50000000  -0.00000000  0.30212564  1
  In  In3  1  0.50000000  0.00000000  0.69787436  1
  In  In4  1  0.50000000  0.50000000  -0.00000000  1
  Rh  Rh0  1  0.00000000  -0.00000000  0.50000000  1
loop_
_geom_bond_atom_site_label_1
_geom_bond_atom_site_label_2
_geom_bond_distance
_geom_bond_site_symmetry_2
Gd0 In3 3.239237 1_554
Gd0 In2 3.239237 1_455
Gd0 In3 3.239237 1_454
Gd0 In0 3.239237 1_555
Gd0 In1 3.239237 1_544
Gd0 In1 3.239237 1_554
Gd0 In0 3.239237 1_545
Gd0 In2 3.239237 1_555
Gd0 In4 3.285113 1_445
Gd0 In4 3.285113 1_455
Gd0 In4 3.285113 1_545
Gd0 In4 3.285113 1_555
In0 Rh0 2.753577 1_565
In0 Rh0 2.753577 1_555
In0 In4 3.239237 1_455
In0 In4 3.239237 1_555
In1 Rh0 2.753577 1_565
In1 Rh0 2.753577 1_555
In1 In4 3.239237 1_556
In1 In4 3.239237 1_456
In2 Rh0 2.753577 1_655
In2 Rh0 2.753577 1_555
In2 In4 3.239237 1_555
In2 In4 3.239237 1_545
In3 Rh0 2.753577 1_655
In3 Rh0 2.753577 1_555
In3 In4 3.239237 1_546
In3 In4 3.239237 1_556
