# generated using pymatgen
data_Nd2MgSe4
_symmetry_space_group_name_H-M   'P 1'
_cell_length_a   7.70827545
_cell_length_b   7.70827545
_cell_length_c   7.70827545
_cell_angle_alpha   110.93420562
_cell_angle_beta   110.93420562
_cell_angle_gamma   106.58327932
_symmetry_Int_Tables_number   1
_chemical_formula_structural   Nd2MgSe4
_chemical_formula_sum   'Nd4 Mg2 Se8'
_cell_volume   351.90608360
_cell_formula_units_Z   2
loop_
 _symmetry_equiv_pos_site_id
 _symmetry_equiv_pos_as_xyz
  1  'x, y, z'
loop_
 _atom_site_type_symbol
 _atom_site_label
 _atom_site_symmetry_multiplicity
 _atom_site_fract_x
 _atom_site_fract_y
 _atom_site_fract_z
 _atom_site_occupancy
  Nd  Nd0  1  0.87500000  0.75442200  0.37942200  1
  Nd  Nd1  1  0.50442200  0.12500000  0.87942200  1
  Nd  Nd2  1  0.37500000  0.49557800  0.62057800  1
  Nd  Nd3  1  0.24557800  0.62500000  0.12057800  1
  Mg  Mg0  1  0.00000000  0.00000000  0.00000000  1
  Mg  Mg1  1  0.75000000  0.25000000  0.50000000  1
  Se  Se0  1  0.50655700  0.37627200  0.26632300  1
  Se  Se1  1  0.75976600  0.49344300  0.86971500  1
  Se  Se2  1  0.10994900  0.24023400  0.73367700  1
  Se  Se3  1  0.62372800  0.89005100  0.13028500  1
  Se  Se4  1  0.24344300  0.00976600  0.36971500  1
  Se  Se5  1  0.99023400  0.35994900  0.23367700  1
  Se  Se6  1  0.64005100  0.87372800  0.63028500  1
  Se  Se7  1  0.12627200  0.75655700  0.76632300  1
loop_
_geom_bond_atom_site_label_1
_geom_bond_atom_site_label_2
_geom_bond_distance
_geom_bond_site_symmetry_2
Nd0 Se7 2.909477 1_655
Nd0 Se3 2.909477 1_555
Nd0 Se0 3.001971 1_555
Nd0 Se4 3.001971 1_665
Nd0 Se6 3.169764 1_555
Nd0 Se2 3.169764 1_665
Nd0 Se1 3.333280 1_554
Nd0 Se5 3.333280 1_555
Nd1 Se0 2.909477 1_556
Nd1 Se6 2.909477 1_545
Nd1 Se7 3.001971 1_545
Nd1 Se1 3.001971 1_555
Nd1 Se5 3.169764 1_556
Nd1 Se3 3.169764 1_546
Nd1 Se2 3.333280 1_555
Nd1 Se4 3.333280 1_555
Nd2 Se5 2.909477 1_455
Nd2 Se1 2.909477 1_555
Nd2 Se6 3.001971 1_555
Nd2 Se2 3.001971 1_555
Nd2 Se4 3.169764 1_555
Nd2 Se0 3.169764 1_555
Nd2 Se3 3.333280 1_556
Nd2 Se7 3.333280 1_555
Nd3 Se4 2.909477 1_565
Nd3 Se2 2.909477 1_554
Nd3 Se5 3.001971 1_455
Nd3 Se3 3.001971 1_555
Nd3 Se1 3.169764 1_454
Nd3 Se7 3.169764 1_554
Nd3 Se0 3.333280 1_555
Nd3 Se6 3.333280 1_555
Mg0 Se6 2.755591 1_444
Mg0 Se7 2.755591 1_544
Mg0 Se5 2.755591 1_455
Mg0 Se4 2.755591 1_555
Mg1 Se1 2.755591 1_555
Mg1 Se0 2.755591 1_555
Mg1 Se3 2.755591 1_545
Mg1 Se2 2.755591 1_655
