# generated using pymatgen
data_SmCdNi4
_symmetry_space_group_name_H-M   'P 1'
_cell_length_a   4.96808299
_cell_length_b   4.96809597
_cell_length_c   4.96809886
_cell_angle_alpha   59.99996158
_cell_angle_beta   59.99987514
_cell_angle_gamma   59.99985593
_symmetry_Int_Tables_number   1
_chemical_formula_structural   SmCdNi4
_chemical_formula_sum   'Sm1 Cd1 Ni4'
_cell_volume   86.70677647
_cell_formula_units_Z   1
loop_
 _symmetry_equiv_pos_site_id
 _symmetry_equiv_pos_as_xyz
  1  'x, y, z'
loop_
 _atom_site_type_symbol
 _atom_site_label
 _atom_site_symmetry_multiplicity
 _atom_site_fract_x
 _atom_site_fract_y
 _atom_site_fract_z
 _atom_site_occupancy
  Sm  Sm0  1  0.25000000  0.25000100  0.25000000  1
  Cd  Cd0  1  0.00000000  0.00000000  -0.00000000  1
  Ni  Ni0  1  0.62628466  0.62628466  0.12114703  1
  Ni  Ni1  1  0.62628466  0.12114603  0.62628466  1
  Ni  Ni2  1  0.12114703  0.62628466  0.62628466  1
  Ni  Ni3  1  0.62628466  0.62628466  0.62628466  1
loop_
_geom_bond_atom_site_label_1
_geom_bond_atom_site_label_2
_geom_bond_distance
_geom_bond_site_symmetry_2
Cd0 Ni3 2.910113 1_544
Cd0 Ni1 2.910114 1_554
Cd0 Ni0 2.910116 1_545
Cd0 Ni3 2.910119 1_454
Cd0 Ni0 2.910119 1_445
Cd0 Ni3 2.910120 1_445
Cd0 Ni1 2.910121 1_455
Cd0 Ni0 2.910121 1_455
Cd0 Ni1 2.910122 1_454
Cd0 Ni2 2.910122 1_544
Cd0 Ni2 2.910125 1_554
Cd0 Ni2 2.910126 1_545
Cd0 Sm0 3.042311 1_455
Cd0 Sm0 3.042318 1_545
Cd0 Sm0 3.042324 1_554
Cd0 Sm0 3.042329 1_555
Ni0 Ni2 2.458517 1_654
Ni0 Ni1 2.458521 1_564
Ni0 Ni3 2.458525 1_554
Ni0 Ni2 2.509565 1_555
Ni0 Ni3 2.509574 1_555
Ni0 Ni1 2.509574 1_555
Ni0 Sm0 2.915554 1_655
Ni0 Sm0 2.915562 1_555
Ni0 Sm0 2.915564 1_565
Ni1 Ni2 2.458513 1_645
Ni1 Ni3 2.458519 1_545
Ni1 Ni2 2.509566 1_555
Ni1 Ni3 2.509577 1_555
Ni1 Sm0 2.915559 1_655
Ni1 Sm0 2.915562 1_555
Ni1 Sm0 2.915566 1_556
Ni2 Ni3 2.458517 1_455
Ni2 Ni3 2.509566 1_555
Ni2 Sm0 2.915564 1_556
Ni2 Sm0 2.915565 1_555
Ni2 Sm0 2.915567 1_565
Ni3 Sm0 2.915554 1_655
Ni3 Sm0 2.915561 1_556
Ni3 Sm0 2.915564 1_565
