# generated using pymatgen
data_Na3Te(AsO7)2
_symmetry_space_group_name_H-M   'P 1'
_cell_length_a   7.97420138
_cell_length_b   7.98229093
_cell_length_c   11.70940781
_cell_angle_alpha   90.26398806
_cell_angle_beta   90.19582288
_cell_angle_gamma   119.54865690
_symmetry_Int_Tables_number   1
_chemical_formula_structural   Na3Te(AsO7)2
_chemical_formula_sum   'Na6 Te2 As4 O28'
_cell_volume   648.37115950
_cell_formula_units_Z   2
loop_
 _symmetry_equiv_pos_site_id
 _symmetry_equiv_pos_as_xyz
  1  'x, y, z'
loop_
 _atom_site_type_symbol
 _atom_site_label
 _atom_site_symmetry_multiplicity
 _atom_site_fract_x
 _atom_site_fract_y
 _atom_site_fract_z
 _atom_site_occupancy
  Na  Na0  1  0.47484700  0.52494600  0.74972100  1
  Na  Na1  1  0.04906400  0.52445500  0.74966900  1
  Na  Na2  1  0.52517100  0.47509600  0.24988200  1
  Na  Na3  1  0.95100400  0.47533800  0.25031200  1
  Na  Na4  1  0.47603500  0.95129700  0.74984900  1
  Na  Na5  1  0.52435200  0.04885100  0.24948800  1
  Te  Te0  1  0.99741100  0.00417100  0.75012700  1
  Te  Te1  1  0.00145200  0.99780300  0.24986000  1
  As  As0  1  0.67056700  0.33498900  0.99083500  1
  As  As1  1  0.33426300  0.66598900  0.49040900  1
  As  As2  1  0.33461400  0.66524100  0.00946700  1
  As  As3  1  0.66582300  0.33070200  0.50965200  1
  O  O0  1  0.66740300  0.33235500  0.36644000  1
  O  O1  1  0.33300100  0.66719600  0.86645100  1
  O  O2  1  0.33379400  0.66754100  0.63361300  1
  O  O3  1  0.66763000  0.33228600  0.13376300  1
  O  O4  1  0.77676900  0.98321500  0.82876500  1
  O  O5  1  0.21124400  0.22165800  0.82541300  1
  O  O6  1  0.22318800  0.01470900  0.32729300  1
  O  O7  1  0.79087500  0.00974800  0.17454100  1
  O  O8  1  0.00605800  0.79042800  0.82350700  1
  O  O9  1  0.79094500  0.78051900  0.32472800  1
  O  O10  1  0.98481100  0.77625200  0.17238000  1
  O  O11  1  0.20884900  0.99224500  0.67598400  1
  O  O12  1  0.99099600  0.20957800  0.32485000  1
  O  O13  1  0.01707500  0.22370300  0.67143800  1
  O  O14  1  0.21904100  0.20952500  0.17547400  1
  O  O15  1  0.77999500  0.78831700  0.67564200  1
  O  O16  1  0.88650300  0.37583900  0.92861400  1
  O  O17  1  0.49563600  0.12756100  0.92215900  1
  O  O18  1  0.12462800  0.63104600  0.42363000  1
  O  O19  1  0.51203300  0.62507300  0.07111500  1
  O  O20  1  0.61921600  0.50498900  0.92872500  1
  O  O21  1  0.50489600  0.88376100  0.42866100  1
  O  O22  1  0.36338000  0.87195700  0.07785800  1
  O  O23  1  0.49267300  0.37630600  0.57213400  1
  O  O24  1  0.37641700  0.49050200  0.42826600  1
  O  O25  1  0.62661900  0.11478300  0.57116000  1
  O  O26  1  0.11758600  0.49319600  0.07188400  1
  O  O27  1  0.87413700  0.50673500  0.57624200  1
loop_
_geom_bond_atom_site_label_1
_geom_bond_atom_site_label_2
_geom_bond_distance
_geom_bond_site_symmetry_2
Na0 O2 2.382369 1_555
Na0 O1 2.387473 1_555
Na0 O23 2.428510 1_555
Na0 O20 2.431361 1_555
Na0 O5 2.465401 1_555
Na0 O15 2.465509 1_555
Na1 O1 2.390518 1_555
Na1 O2 2.404995 1_555
Na1 O27 2.423427 1_455
Na1 O16 2.450069 1_455
Na1 O13 2.457974 1_555
Na1 O8 2.464918 1_555
Na2 O3 2.390035 1_555
Na2 O0 2.392850 1_555
Na2 O24 2.437948 1_555
Na2 O19 2.443601 1_555
Na2 O9 2.464705 1_555
Na2 O14 2.465043 1_555
Na3 O3 2.385806 1_555
Na3 O0 2.399066 1_555
Na3 O18 2.416739 1_655
Na3 O26 2.446410 1_655
Na3 O12 2.458886 1_555
Na3 O10 2.461325 1_555
Na4 O2 2.386712 1_555
Na4 O1 2.407458 1_555
Na4 O17 2.414484 1_565
Na4 O25 2.453475 1_565
Na4 O4 2.459633 1_555
Na4 O11 2.463989 1_555
Na5 O0 2.390069 1_555
Na5 O3 2.397827 1_555
Na5 O22 2.418435 1_545
Na5 O21 2.447110 1_545
Na5 O6 2.458331 1_555
Na5 O7 2.459481 1_555
As0 O3 1.673936 1_556
As0 O17 1.742413 1_555
As0 O16 1.749030 1_555
As0 O20 1.758734 1_555
As1 O2 1.676853 1_555
As1 O18 1.735765 1_555
As1 O24 1.749684 1_555
As1 O21 1.755368 1_555
As2 O1 1.674842 1_554
As2 O22 1.740658 1_555
As2 O19 1.751585 1_555
As2 O26 1.757533 1_555
As3 O0 1.677082 1_555
As3 O27 1.737993 1_555
As3 O25 1.751724 1_555
As3 O23 1.753401 1_555
O4 Te0 1.921902 1_565
O5 Te0 1.937629 1_455
O6 Te1 1.928545 1_545
O7 Te1 1.937818 1_645
O8 Te0 1.945035 1_465
O9 Te1 1.935711 1_655
O10 Te1 1.929032 1_655
O11 Te0 1.942447 1_465
O12 Te1 1.939447 1_645
O13 Te0 1.920731 1_455
O14 Te1 1.938313 1_545
O15 Te0 1.940280 1_565
