# generated using pymatgen
data_Zn3Cr8FeSe16
_symmetry_space_group_name_H-M   'P 1'
_cell_length_a   12.95506826
_cell_length_b   12.95506826
_cell_length_c   12.95506785
_cell_angle_alpha   33.55076848
_cell_angle_beta   33.55076848
_cell_angle_gamma   33.55076821
_symmetry_Int_Tables_number   1
_chemical_formula_structural   Zn3Cr8FeSe16
_chemical_formula_sum   'Zn3 Cr8 Fe1 Se16'
_cell_volume   591.55895229
_cell_formula_units_Z   1
loop_
 _symmetry_equiv_pos_site_id
 _symmetry_equiv_pos_as_xyz
  1  'x, y, z'
loop_
 _atom_site_type_symbol
 _atom_site_label
 _atom_site_symmetry_multiplicity
 _atom_site_fract_x
 _atom_site_fract_y
 _atom_site_fract_z
 _atom_site_occupancy
  Zn  Zn0  1  0.18753300  0.18753300  0.18753300  1
  Zn  Zn1  1  0.81250400  0.81250400  0.81250400  1
  Zn  Zn2  1  0.31250500  0.31250500  0.31250500  1
  Cr  Cr0  1  0.99987200  0.99987200  0.99987200  1
  Cr  Cr1  1  0.50006100  0.50006100  0.50006100  1
  Cr  Cr2  1  0.75009400  0.25017100  0.25017100  1
  Cr  Cr3  1  0.24959400  0.75003500  0.75003500  1
  Cr  Cr4  1  0.25017100  0.75009400  0.25017100  1
  Cr  Cr5  1  0.75003500  0.24959400  0.75003500  1
  Cr  Cr6  1  0.25017100  0.25017100  0.75009400  1
  Cr  Cr7  1  0.75003500  0.75003500  0.24959400  1
  Fe  Fe0  1  0.68739000  0.68739000  0.68739000  1
  Se  Se0  1  0.11971000  0.11971000  0.11971000  1
  Se  Se1  1  0.62068400  0.62068400  0.62068400  1
  Se  Se2  1  0.35303600  0.88817500  0.88817500  1
  Se  Se3  1  0.84887600  0.39070000  0.39070000  1
  Se  Se4  1  0.88817500  0.35303600  0.88817500  1
  Se  Se5  1  0.39070000  0.84887600  0.39070000  1
  Se  Se6  1  0.88817500  0.88817500  0.35303600  1
  Se  Se7  1  0.39070000  0.39070000  0.84887600  1
  Se  Se8  1  0.38017600  0.38017600  0.38017600  1
  Se  Se9  1  0.88018100  0.88018100  0.88018100  1
  Se  Se10  1  0.15090300  0.60947400  0.60947400  1
  Se  Se11  1  0.65087800  0.10944600  0.10944600  1
  Se  Se12  1  0.60947400  0.15090300  0.60947400  1
  Se  Se13  1  0.10944600  0.65087800  0.10944600  1
  Se  Se14  1  0.60947400  0.60947400  0.15090300  1
  Se  Se15  1  0.10944600  0.10944600  0.65087800  1
loop_
_geom_bond_atom_site_label_1
_geom_bond_atom_site_label_2
_geom_bond_distance
_geom_bond_site_symmetry_2
Cr0 Se15 2.536795 1_665
Cr0 Se13 2.536795 1_656
Cr0 Se11 2.536795 1_566
Cr0 Se6 2.557482 1_556
Cr0 Se4 2.557482 1_565
Cr0 Se2 2.557482 1_655
Cr1 Se7 2.537363 1_555
Cr1 Se3 2.537363 1_555
Cr1 Se5 2.537363 1_555
Cr1 Se14 2.540521 1_555
Cr1 Se10 2.540521 1_555
Cr1 Se12 2.540521 1_555
Cr2 Se0 2.534628 1_655
Cr2 Se12 2.536304 1_555
Cr2 Se14 2.536304 1_555
Cr2 Se8 2.541862 1_555
Cr2 Se4 2.557868 1_554
Cr2 Se6 2.557868 1_545
Cr3 Se9 2.535461 1_455
Cr3 Se5 2.536542 1_555
Cr3 Se7 2.536542 1_555
Cr3 Se13 2.540440 1_556
Cr3 Se15 2.540441 1_565
Cr3 Se1 2.559877 1_555
Cr4 Se0 2.534628 1_565
Cr4 Se10 2.536304 1_555
Cr4 Se14 2.536304 1_555
Cr4 Se8 2.541862 1_555
Cr4 Se2 2.557868 1_554
Cr4 Se6 2.557868 1_455
Cr5 Se9 2.535461 1_545
Cr5 Se3 2.536542 1_555
Cr5 Se7 2.536542 1_555
Cr5 Se11 2.540440 1_556
Cr5 Se15 2.540441 1_655
Cr5 Se1 2.559877 1_555
Cr6 Se0 2.534628 1_556
Cr6 Se12 2.536304 1_555
Cr6 Se10 2.536304 1_555
Cr6 Se8 2.541862 1_555
Cr6 Se2 2.557868 1_545
Cr6 Se4 2.557868 1_455
Cr7 Se9 2.535461 1_554
Cr7 Se3 2.536542 1_555
Cr7 Se5 2.536542 1_555
Cr7 Se13 2.540441 1_655
Cr7 Se11 2.540441 1_565
Cr7 Se1 2.559877 1_555
Fe0 Se1 2.444330 1_555
Fe0 Se4 2.452016 1_555
Fe0 Se2 2.452016 1_555
Fe0 Se6 2.452016 1_555
Se0 Zn0 2.485261 1_555
Se3 Zn0 2.481102 1_655
Se5 Zn0 2.481102 1_565
Se7 Zn0 2.481102 1_556
Se8 Zn2 2.479691 1_555
Se9 Zn1 2.479911 1_555
Se10 Zn1 2.479429 1_455
Se11 Zn2 2.479784 1_555
Se12 Zn1 2.479429 1_545
Se13 Zn2 2.479784 1_555
Se14 Zn1 2.479429 1_554
Se15 Zn2 2.479784 1_555
