# generated using pymatgen
data_PuB2Ir3
_symmetry_space_group_name_H-M   'P 1'
_cell_length_a   6.24917400
_cell_length_b   10.95910360
_cell_length_c   10.95910360
_cell_angle_alpha   119.99999756
_cell_angle_beta   90.00000000
_cell_angle_gamma   90.00000000
_symmetry_Int_Tables_number   1
_chemical_formula_structural   PuB2Ir3
_chemical_formula_sum   'Pu8 B16 Ir24'
_cell_volume   649.98498480
_cell_formula_units_Z   8
loop_
 _symmetry_equiv_pos_site_id
 _symmetry_equiv_pos_as_xyz
  1  'x, y, z'
loop_
 _atom_site_type_symbol
 _atom_site_label
 _atom_site_symmetry_multiplicity
 _atom_site_fract_x
 _atom_site_fract_y
 _atom_site_fract_z
 _atom_site_occupancy
  Pu  Pu0_0  1  0.25000000  0.00000000  0.00000000  1
  Pu  Pu0_1  1  0.25000000  0.00000000  0.50000000  1
  Pu  Pu0_2  1  0.25000000  0.50000000  0.00000000  1
  Pu  Pu0_3  1  0.25000000  0.50000000  0.50000000  1
  Pu  Pu0_4  1  0.75000000  0.00000000  0.00000000  1
  Pu  Pu0_5  1  0.75000000  0.00000000  0.50000000  1
  Pu  Pu0_6  1  0.75000000  0.50000000  0.00000000  1
  Pu  Pu0_7  1  0.75000000  0.50000000  0.50000000  1
  B  B0_0  1  0.25000000  0.33333350  0.16666650  1
  B  B0_1  1  0.25000000  0.33333350  0.66666650  1
  B  B0_2  1  0.25000000  0.83333350  0.16666650  1
  B  B0_3  1  0.25000000  0.83333350  0.66666650  1
  B  B0_4  1  0.75000000  0.33333350  0.16666650  1
  B  B0_5  1  0.75000000  0.33333350  0.66666650  1
  B  B0_6  1  0.75000000  0.83333350  0.16666650  1
  B  B0_7  1  0.75000000  0.83333350  0.66666650  1
  B  B1_0  1  0.25000000  0.16666650  0.33333350  1
  B  B1_1  1  0.25000000  0.16666650  0.83333350  1
  B  B1_2  1  0.25000000  0.66666650  0.33333350  1
  B  B1_3  1  0.25000000  0.66666650  0.83333350  1
  B  B1_4  1  0.75000000  0.16666650  0.33333350  1
  B  B1_5  1  0.75000000  0.16666650  0.83333350  1
  B  B1_6  1  0.75000000  0.66666650  0.33333350  1
  B  B1_7  1  0.75000000  0.66666650  0.83333350  1
  Ir  Ir0_0  1  0.00000000  0.00000000  0.25000000  1
  Ir  Ir0_1  1  0.00000000  0.00000000  0.75000000  1
  Ir  Ir0_2  1  0.00000000  0.50000000  0.25000000  1
  Ir  Ir0_3  1  0.00000000  0.50000000  0.75000000  1
  Ir  Ir0_4  1  0.50000000  0.00000000  0.25000000  1
  Ir  Ir0_5  1  0.50000000  0.00000000  0.75000000  1
  Ir  Ir0_6  1  0.50000000  0.50000000  0.25000000  1
  Ir  Ir0_7  1  0.50000000  0.50000000  0.75000000  1
  Ir  Ir1_0  1  0.00000000  0.25000000  0.25000000  1
  Ir  Ir1_1  1  0.00000000  0.25000000  0.75000000  1
  Ir  Ir1_2  1  0.00000000  0.75000000  0.25000000  1
  Ir  Ir1_3  1  0.00000000  0.75000000  0.75000000  1
  Ir  Ir1_4  1  0.50000000  0.25000000  0.25000000  1
  Ir  Ir1_5  1  0.50000000  0.25000000  0.75000000  1
  Ir  Ir1_6  1  0.50000000  0.75000000  0.25000000  1
  Ir  Ir1_7  1  0.50000000  0.75000000  0.75000000  1
  Ir  Ir2_0  1  0.00000000  0.25000000  0.00000000  1
  Ir  Ir2_1  1  0.00000000  0.25000000  0.50000000  1
  Ir  Ir2_2  1  0.00000000  0.75000000  0.00000000  1
  Ir  Ir2_3  1  0.00000000  0.75000000  0.50000000  1
  Ir  Ir2_4  1  0.50000000  0.25000000  0.00000000  1
  Ir  Ir2_5  1  0.50000000  0.25000000  0.50000000  1
  Ir  Ir2_6  1  0.50000000  0.75000000  0.00000000  1
  Ir  Ir2_7  1  0.50000000  0.75000000  0.50000000  1
loop_
_geom_bond_atom_site_label_1
_geom_bond_atom_site_label_2
_geom_bond_distance
_geom_bond_site_symmetry_2
Pu0_0 Pu0_4 3.124587 1_455
Pu0_0 Pu0_4 3.124587 1_555
Pu0_1 Pu0_5 3.124587 1_455
Pu0_1 Pu0_5 3.124587 1_555
Pu0_2 Pu0_6 3.124587 1_555
Pu0_2 Pu0_6 3.124587 1_455
Pu0_3 Pu0_7 3.124587 1_455
Pu0_3 Pu0_7 3.124587 1_555
B0_0 Ir2_4 2.223259 1_555
B0_0 Ir0_2 2.223259 1_555
B0_0 Ir0_6 2.223259 1_555
B0_0 Ir2_0 2.223259 1_555
B0_0 Ir1_0 2.223262 1_555
B0_0 Ir1_4 2.223262 1_555
B0_0 Pu0_2 3.163618 1_555
B0_0 Pu0_0 3.163622 1_555
B0_0 Pu0_3 3.163622 1_555
B0_1 Ir0_7 2.223259 1_555
B0_1 Ir0_3 2.223259 1_555
B0_1 Ir2_1 2.223259 1_555
B0_1 Ir2_5 2.223259 1_555
B0_1 Ir1_5 2.223262 1_555
B0_1 Ir1_1 2.223262 1_555
B0_1 Pu0_3 3.163618 1_555
B0_1 Pu0_1 3.163622 1_555
B0_1 Pu0_2 3.163622 1_556
B0_2 Ir2_6 2.223259 1_555
B0_2 Ir2_2 2.223259 1_555
B0_2 Ir0_0 2.223259 1_565
B0_2 Ir0_4 2.223259 1_565
B0_2 Ir1_2 2.223262 1_555
B0_2 Ir1_6 2.223262 1_555
B0_2 Pu0_0 3.163618 1_565
B0_2 Pu0_2 3.163622 1_555
B0_2 Pu0_1 3.163622 1_565
B0_3 Ir0_1 2.223259 1_565
B0_3 Ir0_5 2.223259 1_565
B0_3 Ir2_7 2.223259 1_555
B0_3 Ir2_3 2.223259 1_555
B0_3 Ir1_3 2.223262 1_555
B0_3 Ir1_7 2.223262 1_555
B0_3 Pu0_1 3.163618 1_565
B0_3 Pu0_3 3.163622 1_555
B0_3 Pu0_0 3.163622 1_566
B0_4 Ir2_4 2.223259 1_555
B0_4 Ir0_6 2.223259 1_555
B0_4 Ir2_0 2.223259 1_655
B0_4 Ir0_2 2.223259 1_655
B0_4 Ir1_0 2.223262 1_655
B0_4 Ir1_4 2.223262 1_555
B0_4 Pu0_6 3.163618 1_555
B0_4 Pu0_7 3.163622 1_555
B0_4 Pu0_4 3.163622 1_555
B0_5 Ir0_7 2.223259 1_555
B0_5 Ir0_3 2.223259 1_655
B0_5 Ir2_1 2.223259 1_655
B0_5 Ir2_5 2.223259 1_555
B0_5 Ir1_5 2.223262 1_555
B0_5 Ir1_1 2.223262 1_655
B0_5 Pu0_7 3.163618 1_555
B0_5 Pu0_5 3.163622 1_555
B0_5 Pu0_6 3.163622 1_556
B0_6 Ir2_6 2.223259 1_555
B0_6 Ir2_2 2.223259 1_655
B0_6 Ir0_4 2.223259 1_565
B0_6 Ir0_0 2.223259 1_665
B0_6 Ir1_2 2.223262 1_655
B0_6 Ir1_6 2.223262 1_555
B0_6 Pu0_4 3.163618 1_565
B0_6 Pu0_6 3.163622 1_555
B0_6 Pu0_5 3.163622 1_565
B0_7 Ir0_1 2.223259 1_665
B0_7 Ir0_5 2.223259 1_565
B0_7 Ir2_7 2.223259 1_555
B0_7 Ir2_3 2.223259 1_655
B0_7 Ir1_3 2.223262 1_655
B0_7 Ir1_7 2.223262 1_555
B0_7 Pu0_5 3.163618 1_565
B0_7 Pu0_4 3.163622 1_566
B0_7 Pu0_7 3.163622 1_555
B1_0 Ir2_5 2.223259 1_555
B1_0 Ir0_0 2.223259 1_555
B1_0 Ir2_1 2.223259 1_555
B1_0 Ir0_4 2.223259 1_555
B1_0 Ir1_0 2.223262 1_555
B1_0 Ir1_4 2.223262 1_555
B1_0 Pu0_1 3.163618 1_555
B1_0 Pu0_0 3.163622 1_555
B1_0 Pu0_3 3.163622 1_555
B1_1 Ir2_0 2.223259 1_556
B1_1 Ir0_5 2.223259 1_555
B1_1 Ir2_4 2.223259 1_556
B1_1 Ir0_1 2.223259 1_555
B1_1 Ir1_1 2.223262 1_555
B1_1 Ir1_5 2.223262 1_555
B1_1 Pu0_0 3.163618 1_556
B1_1 Pu0_1 3.163622 1_555
B1_1 Pu0_2 3.163622 1_556
B1_2 Ir2_3 2.223259 1_555
B1_2 Ir2_7 2.223259 1_555
B1_2 Ir0_6 2.223259 1_555
B1_2 Ir0_2 2.223259 1_555
B1_2 Ir1_2 2.223262 1_555
B1_2 Ir1_6 2.223262 1_555
B1_2 Pu0_3 3.163618 1_555
B1_2 Pu0_2 3.163622 1_555
B1_2 Pu0_1 3.163622 1_565
B1_3 Ir2_2 2.223259 1_556
B1_3 Ir2_6 2.223259 1_556
B1_3 Ir0_7 2.223259 1_555
B1_3 Ir0_3 2.223259 1_555
B1_3 Ir1_3 2.223262 1_555
B1_3 Ir1_7 2.223262 1_555
B1_3 Pu0_2 3.163618 1_556
B1_3 Pu0_3 3.163622 1_555
B1_3 Pu0_0 3.163622 1_566
B1_4 Ir0_0 2.223259 1_655
B1_4 Ir2_5 2.223259 1_555
B1_4 Ir0_4 2.223259 1_555
B1_4 Ir2_1 2.223259 1_655
B1_4 Ir1_4 2.223262 1_555
B1_4 Ir1_0 2.223262 1_655
B1_4 Pu0_5 3.163618 1_555
B1_4 Pu0_4 3.163622 1_555
B1_4 Pu0_7 3.163622 1_555
B1_5 Ir0_5 2.223259 1_555
B1_5 Ir2_4 2.223259 1_556
B1_5 Ir0_1 2.223259 1_655
B1_5 Ir2_0 2.223259 1_656
B1_5 Ir1_5 2.223262 1_555
B1_5 Ir1_1 2.223262 1_655
B1_5 Pu0_4 3.163618 1_556
B1_5 Pu0_5 3.163622 1_555
B1_5 Pu0_6 3.163622 1_556
B1_6 Ir2_7 2.223259 1_555
B1_6 Ir2_3 2.223259 1_655
B1_6 Ir0_6 2.223259 1_555
B1_6 Ir0_2 2.223259 1_655
B1_6 Ir1_2 2.223262 1_655
B1_6 Ir1_6 2.223262 1_555
B1_6 Pu0_7 3.163618 1_555
B1_6 Pu0_6 3.163622 1_555
B1_6 Pu0_5 3.163622 1_565
B1_7 Ir2_6 2.223259 1_556
B1_7 Ir2_2 2.223259 1_656
B1_7 Ir0_7 2.223259 1_555
B1_7 Ir0_3 2.223259 1_655
B1_7 Ir1_3 2.223262 1_655
B1_7 Ir1_7 2.223262 1_555
B1_7 Pu0_6 3.163618 1_556
B1_7 Pu0_4 3.163622 1_566
B1_7 Pu0_7 3.163622 1_555
Ir0_0 Pu0_0 3.153908 1_555
Ir0_0 Pu0_4 3.153908 1_455
Ir0_0 Pu0_5 3.153908 1_455
Ir0_0 Pu0_1 3.153908 1_555
Ir0_1 Pu0_0 3.153908 1_556
Ir0_1 Pu0_5 3.153908 1_455
Ir0_1 Pu0_1 3.153908 1_555
Ir0_1 Pu0_4 3.153908 1_456
Ir0_2 Pu0_3 3.153908 1_555
Ir0_2 Pu0_7 3.153908 1_455
Ir0_2 Pu0_6 3.153908 1_455
Ir0_2 Pu0_2 3.153908 1_555
Ir0_3 Pu0_3 3.153908 1_555
Ir0_3 Pu0_7 3.153908 1_455
Ir0_3 Pu0_2 3.153908 1_556
Ir0_3 Pu0_6 3.153908 1_456
Ir0_4 Pu0_0 3.153908 1_555
Ir0_4 Pu0_1 3.153908 1_555
Ir0_4 Pu0_4 3.153908 1_555
Ir0_4 Pu0_5 3.153908 1_555
Ir0_5 Pu0_0 3.153908 1_556
Ir0_5 Pu0_4 3.153908 1_556
Ir0_5 Pu0_1 3.153908 1_555
Ir0_5 Pu0_5 3.153908 1_555
Ir0_6 Pu0_3 3.153908 1_555
Ir0_6 Pu0_6 3.153908 1_555
Ir0_6 Pu0_7 3.153908 1_555
Ir0_6 Pu0_2 3.153908 1_555
Ir0_7 Pu0_3 3.153908 1_555
Ir0_7 Pu0_7 3.153908 1_555
Ir0_7 Pu0_2 3.153908 1_556
Ir0_7 Pu0_6 3.153908 1_556
Ir1_0 Pu0_7 3.153908 1_455
Ir1_0 Pu0_3 3.153908 1_555
Ir1_0 Pu0_4 3.153908 1_455
Ir1_0 Pu0_0 3.153908 1_555
Ir1_1 Pu0_2 3.153908 1_556
Ir1_1 Pu0_6 3.153908 1_456
Ir1_1 Pu0_5 3.153908 1_455
Ir1_1 Pu0_1 3.153908 1_555
Ir1_2 Pu0_6 3.153908 1_455
Ir1_2 Pu0_1 3.153908 1_565
Ir1_2 Pu0_2 3.153908 1_555
Ir1_2 Pu0_5 3.153908 1_465
Ir1_3 Pu0_0 3.153908 1_566
Ir1_3 Pu0_4 3.153908 1_466
Ir1_3 Pu0_7 3.153908 1_455
Ir1_3 Pu0_3 3.153908 1_555
Ir1_4 Pu0_4 3.153908 1_555
Ir1_4 Pu0_3 3.153908 1_555
Ir1_4 Pu0_0 3.153908 1_555
Ir1_4 Pu0_7 3.153908 1_555
Ir1_5 Pu0_2 3.153908 1_556
Ir1_5 Pu0_6 3.153908 1_556
Ir1_5 Pu0_5 3.153908 1_555
Ir1_5 Pu0_1 3.153908 1_555
Ir1_6 Pu0_1 3.153908 1_565
Ir1_6 Pu0_2 3.153908 1_555
Ir1_6 Pu0_5 3.153908 1_565
Ir1_6 Pu0_6 3.153908 1_555
Ir1_7 Pu0_0 3.153908 1_566
Ir1_7 Pu0_4 3.153908 1_566
Ir1_7 Pu0_3 3.153908 1_555
Ir1_7 Pu0_7 3.153908 1_555
Ir2_0 Pu0_0 3.153908 1_555
Ir2_0 Pu0_4 3.153908 1_455
Ir2_0 Pu0_6 3.153908 1_455
Ir2_0 Pu0_2 3.153908 1_555
Ir2_1 Pu0_3 3.153908 1_555
Ir2_1 Pu0_5 3.153908 1_455
Ir2_1 Pu0_1 3.153908 1_555
Ir2_1 Pu0_7 3.153908 1_455
Ir2_2 Pu0_0 3.153908 1_565
Ir2_2 Pu0_4 3.153908 1_465
Ir2_2 Pu0_6 3.153908 1_455
Ir2_2 Pu0_2 3.153908 1_555
Ir2_3 Pu0_7 3.153908 1_455
Ir2_3 Pu0_3 3.153908 1_555
Ir2_3 Pu0_5 3.153908 1_465
Ir2_3 Pu0_1 3.153908 1_565
Ir2_4 Pu0_0 3.153908 1_555
Ir2_4 Pu0_6 3.153908 1_555
Ir2_4 Pu0_4 3.153908 1_555
Ir2_4 Pu0_2 3.153908 1_555
Ir2_5 Pu0_3 3.153908 1_555
Ir2_5 Pu0_7 3.153908 1_555
Ir2_5 Pu0_1 3.153908 1_555
Ir2_5 Pu0_5 3.153908 1_555
Ir2_6 Pu0_6 3.153908 1_555
Ir2_6 Pu0_0 3.153908 1_565
Ir2_6 Pu0_2 3.153908 1_555
Ir2_6 Pu0_4 3.153908 1_565
Ir2_7 Pu0_3 3.153908 1_555
Ir2_7 Pu0_7 3.153908 1_555
Ir2_7 Pu0_1 3.153908 1_565
Ir2_7 Pu0_5 3.153908 1_565
