# generated using pymatgen
data_Li6MnV3(PO4)6
_symmetry_space_group_name_H-M   'P 1'
_cell_length_a   10.17380894
_cell_length_b   10.17380894
_cell_length_c   11.80617855
_cell_angle_alpha   55.20300812
_cell_angle_beta   55.20300812
_cell_angle_gamma   70.31933980
_symmetry_Int_Tables_number   1
_chemical_formula_structural   Li6MnV3(PO4)6
_chemical_formula_sum   'Li12 Mn2 V6 P12 O48'
_cell_volume   823.93579922
_cell_formula_units_Z   2
loop_
 _symmetry_equiv_pos_site_id
 _symmetry_equiv_pos_as_xyz
  1  'x, y, z'
loop_
 _atom_site_type_symbol
 _atom_site_label
 _atom_site_symmetry_multiplicity
 _atom_site_fract_x
 _atom_site_fract_y
 _atom_site_fract_z
 _atom_site_occupancy
  Li  Li0  1  0.25081500  0.24999000  0.37342200  1
  Li  Li1  1  0.62427400  0.37572600  0.75000000  1
  Li  Li2  1  0.87682900  0.37439800  0.87339900  1
  Li  Li3  1  0.12460000  0.87540000  0.75000000  1
  Li  Li4  1  0.62560200  0.12317100  0.62660100  1
  Li  Li5  1  0.24999000  0.25081500  0.87342200  1
  Li  Li6  1  0.75001000  0.74918500  0.12657800  1
  Li  Li7  1  0.37439800  0.87682900  0.37339900  1
  Li  Li8  1  0.87540000  0.12460000  0.25000000  1
  Li  Li9  1  0.12317100  0.62560200  0.12660100  1
  Li  Li10  1  0.37572600  0.62427400  0.25000000  1
  Li  Li11  1  0.74918500  0.75001000  0.62657800  1
  Mn  Mn0  1  0.00000000  0.00000000  0.00000000  1
  Mn  Mn1  1  0.00000000  0.00000000  0.50000000  1
  V  V0  1  0.00000000  0.50000000  0.50000000  1
  V  V1  1  0.50000000  0.50000000  0.00000000  1
  V  V2  1  0.50000000  0.50000000  0.50000000  1
  V  V3  1  0.00000000  0.50000000  0.00000000  1
  V  V4  1  0.50000000  0.00000000  0.00000000  1
  V  V5  1  0.50000000  0.00000000  0.50000000  1
  P  P0  1  0.87669400  0.37327900  0.37569900  1
  P  P1  1  0.62540900  0.37459100  0.25000000  1
  P  P2  1  0.87452300  0.12547700  0.75000000  1
  P  P3  1  0.25170900  0.25276400  0.62273700  1
  P  P4  1  0.25276400  0.25170900  0.12273700  1
  P  P5  1  0.62672100  0.12330600  0.12430100  1
  P  P6  1  0.37327900  0.87669400  0.87569900  1
  P  P7  1  0.74829100  0.74723600  0.37726300  1
  P  P8  1  0.74723600  0.74829100  0.87726300  1
  P  P9  1  0.12547700  0.87452300  0.25000000  1
  P  P10  1  0.37459100  0.62540900  0.75000000  1
  P  P11  1  0.12330600  0.62672100  0.62430100  1
  O  O0  1  0.29360200  0.39496100  0.11256600  1
  O  O1  1  0.70447500  0.38161800  0.50555300  1
  O  O2  1  0.40892100  0.49341500  0.70783400  1
  O  O3  1  0.00856700  0.40684100  0.38454400  1
  O  O4  1  0.49341500  0.40892100  0.20783400  1
  O  O5  1  0.21029700  0.39036000  0.49032800  1
  O  O6  1  0.88352500  0.29833700  0.70764500  1
  O  O7  1  0.00538600  0.08737200  0.61244700  1
  O  O8  1  0.70166300  0.11647500  0.79235500  1
  O  O9  1  0.39036000  0.21029600  0.99032800  1
  O  O10  1  0.61907300  0.20107600  0.38762500  1
  O  O11  1  0.09072800  0.49778400  0.79508200  1
  O  O12  1  0.61838200  0.29552500  0.99444700  1
  O  O13  1  0.39496100  0.29360200  0.61256600  1
  O  O14  1  0.29392300  0.11158200  0.58870900  1
  O  O15  1  0.11561100  0.21595500  0.79160100  1
  O  O16  1  0.88626100  0.19736200  0.40993700  1
  O  O17  1  0.79892400  0.38092700  0.11237500  1
  O  O18  1  0.91262800  0.99461400  0.88755300  1
  O  O19  1  0.21595500  0.11561100  0.29160100  1
  O  O20  1  0.59315900  0.99143300  0.11545600  1
  O  O21  1  0.80263800  0.11373900  0.09006300  1
  O  O22  1  0.50221600  0.90927200  0.70491800  1
  O  O23  1  0.11158200  0.29392300  0.08870900  1
  O  O24  1  0.88841800  0.70607700  0.91129100  1
  O  O25  1  0.49778400  0.09072800  0.29508200  1
  O  O26  1  0.19736200  0.88626100  0.90993700  1
  O  O27  1  0.40684100  0.00856700  0.88454400  1
  O  O28  1  0.78404500  0.88438900  0.70839900  1
  O  O29  1  0.08737200  0.00538600  0.11244700  1
  O  O30  1  0.20107600  0.61907300  0.88762500  1
  O  O31  1  0.11373900  0.80263800  0.59006300  1
  O  O32  1  0.88438900  0.78404500  0.20839900  1
  O  O33  1  0.70607700  0.88841800  0.41129100  1
  O  O34  1  0.60503900  0.70639800  0.38743400  1
  O  O35  1  0.38161800  0.70447500  0.00555300  1
  O  O36  1  0.90927200  0.50221600  0.20491800  1
  O  O37  1  0.38092700  0.79892400  0.61237500  1
  O  O38  1  0.60964000  0.78970300  0.00967200  1
  O  O39  1  0.29833700  0.88352500  0.20764500  1
  O  O40  1  0.99461400  0.91262800  0.38755300  1
  O  O41  1  0.11647500  0.70166300  0.29235500  1
  O  O42  1  0.78970300  0.60964000  0.50967200  1
  O  O43  1  0.50658500  0.59107900  0.79216600  1
  O  O44  1  0.99143300  0.59315900  0.61545600  1
  O  O45  1  0.59107900  0.50658500  0.29216600  1
  O  O46  1  0.29552500  0.61838200  0.49444700  1
  O  O47  1  0.70639800  0.60503900  0.88743400  1
loop_
_geom_bond_atom_site_label_1
_geom_bond_atom_site_label_2
_geom_bond_distance
_geom_bond_site_symmetry_2
Li0 O19 2.270009 1_555
Li0 O5 2.306114 1_555
Li0 O14 2.325270 1_555
Li0 O0 2.359558 1_555
Li0 O3 2.420468 1_555
Li0 O4 2.470074 1_555
Li0 O25 2.471826 1_555
Li0 O7 2.519329 1_555
Li1 O43 2.297686 1_555
Li1 O2 2.297686 1_555
Li1 O6 2.317759 1_555
Li1 O8 2.317759 1_555
Li1 O42 2.467262 1_555
Li1 O9 2.467266 1_555
Li1 O12 2.479137 1_555
Li1 O1 2.479137 1_555
Li2 O11 2.320591 1_655
Li2 O12 2.328828 1_555
Li2 O44 2.355086 1_555
Li2 O21 2.355379 1_556
Li2 O15 2.427783 1_655
Li2 O47 2.432161 1_555
Li2 O6 2.444114 1_555
Li2 O17 2.493799 1_556
Li3 O18 2.290889 1_455
Li3 O7 2.290889 1_565
Li3 O37 2.299180 1_555
Li3 O30 2.299180 1_555
Li3 O26 2.452402 1_555
Li3 O31 2.452402 1_555
Li3 O14 2.487805 1_565
Li3 O24 2.487805 1_455
Li4 O22 2.320591 1_545
Li4 O1 2.328828 1_555
Li4 O27 2.355086 1_555
Li4 O16 2.355379 1_555
Li4 O28 2.427783 1_545
Li4 O13 2.432161 1_555
Li4 O8 2.444114 1_555
Li4 O10 2.493799 1_555
Li5 O15 2.270009 1_555
Li5 O9 2.306110 1_555
Li5 O23 2.325270 1_556
Li5 O13 2.359558 1_555
Li5 O27 2.420468 1_555
Li5 O2 2.470074 1_555
Li5 O11 2.471826 1_555
Li5 O29 2.519329 1_556
Li6 O32 2.270009 1_555
Li6 O38 2.306114 1_555
Li6 O24 2.325270 1_554
Li6 O34 2.359558 1_555
Li6 O20 2.420468 1_555
Li6 O45 2.470074 1_555
Li6 O36 2.471826 1_555
Li6 O18 2.519329 1_554
Li7 O25 2.320591 1_565
Li7 O46 2.328828 1_555
Li7 O20 2.355086 1_555
Li7 O31 2.355379 1_555
Li7 O19 2.427783 1_565
Li7 O34 2.432161 1_555
Li7 O39 2.444114 1_555
Li7 O37 2.493799 1_555
Li8 O40 2.290889 1_545
Li8 O29 2.290889 1_655
Li8 O17 2.299180 1_555
Li8 O10 2.299180 1_555
Li8 O16 2.452402 1_555
Li8 O21 2.452402 1_555
Li8 O23 2.487805 1_655
Li8 O33 2.487805 1_545
Li9 O36 2.320591 1_455
Li9 O35 2.328828 1_555
Li9 O3 2.355086 1_555
Li9 O26 2.355379 1_554
Li9 O32 2.427783 1_455
Li9 O0 2.432161 1_555
Li9 O41 2.444114 1_555
Li9 O30 2.493799 1_554
Li10 O45 2.297686 1_555
Li10 O4 2.297686 1_555
Li10 O41 2.317759 1_555
Li10 O39 2.317759 1_555
Li10 O38 2.467262 1_555
Li10 O5 2.467262 1_555
Li10 O46 2.479137 1_555
Li10 O35 2.479137 1_555
Li11 O28 2.270009 1_555
Li11 O42 2.306114 1_555
Li11 O33 2.325270 1_555
Li11 O47 2.359558 1_555
Li11 O44 2.420468 1_555
Li11 O43 2.470074 1_555
Li11 O22 2.471826 1_555
Li11 O40 2.519329 1_555
Mn0 O21 1.975831 1_455
Mn0 O26 1.975831 1_544
Mn0 O29 2.004573 1_555
Mn0 O18 2.004573 1_444
Mn0 O15 2.128872 1_554
Mn0 O32 2.128872 1_445
Mn1 O31 1.975831 1_545
Mn1 O16 1.975831 1_455
Mn1 O7 2.004573 1_555
Mn1 O40 2.004573 1_445
Mn1 O19 2.128872 1_555
Mn1 O28 2.128872 1_445
O0 P4 1.569165 1_555
O0 V1 2.005742 1_555
O1 P0 1.552413 1_555
O1 V2 2.039712 1_555
O2 P10 1.556208 1_555
O2 V2 2.035446 1_555
O3 P0 1.560989 1_455
O3 V0 2.011763 1_555
O4 P1 1.556208 1_555
O4 V1 2.035446 1_555
O5 P3 1.561313 1_555
O5 V0 2.023339 1_555
O6 P2 1.550412 1_555
O6 V0 2.050563 1_655
O7 P2 1.569502 1_455
O8 P2 1.550412 1_555
O8 V4 2.050563 1_556
O9 P4 1.561318 1_556
O9 V4 2.023331 1_556
O10 P1 1.563299 1_555
O10 V5 2.037106 1_555
O11 P11 1.551563 1_555
O11 V3 2.050611 1_556
O12 P5 1.552413 1_556
O12 V1 2.039712 1_556
O13 P3 1.569165 1_555
O13 V2 2.005742 1_555
O14 P3 1.566891 1_555
O14 V5 2.007231 1_555
O15 P3 1.542259 1_555
O16 P0 1.574142 1_555
O17 P1 1.563299 1_555
O17 V3 2.037106 1_655
O18 P2 1.569502 1_565
O19 P4 1.542259 1_555
O20 P5 1.560989 1_565
O20 V4 2.011763 1_565
O21 P5 1.574142 1_555
O22 P6 1.551563 1_555
O22 V5 2.050611 1_565
O23 P4 1.566891 1_555
O23 V3 2.007231 1_555
O24 P8 1.566891 1_555
O24 V3 2.007231 1_656
O25 P5 1.551563 1_555
O25 V5 2.050611 1_555
O26 P6 1.574142 1_555
O27 P6 1.560989 1_545
O27 V4 2.011763 1_556
O28 P8 1.542259 1_555
O29 P9 1.569502 1_545
O30 P10 1.563299 1_555
O30 V3 2.037106 1_556
O31 P11 1.574142 1_555
O32 P7 1.542259 1_555
O33 P7 1.566891 1_555
O33 V5 2.007231 1_565
O34 P7 1.569165 1_555
O34 V2 2.005742 1_555
O35 P6 1.552413 1_554
O35 V1 2.039712 1_555
O36 P0 1.551563 1_555
O36 V3 2.050611 1_655
O37 P10 1.563299 1_555
O37 V5 2.037106 1_565
O38 P8 1.561313 1_554
O38 V4 2.023339 1_565
O39 P9 1.550412 1_555
O39 V4 2.050563 1_565
O40 P9 1.569502 1_655
O41 P9 1.550412 1_555
O41 V0 2.050563 1_555
O42 P7 1.561313 1_555
O42 V0 2.023339 1_655
O43 P10 1.556208 1_555
O43 V1 2.035446 1_556
O44 P11 1.560989 1_655
O44 V0 2.011763 1_655
O45 P1 1.556208 1_555
O45 V2 2.035446 1_555
O46 P11 1.552413 1_555
O46 V2 2.039712 1_555
O47 P8 1.569165 1_555
O47 V1 2.005742 1_556
