# generated using pymatgen
data_DyMg5
_symmetry_space_group_name_H-M   'P 1'
_cell_length_a   7.34798600
_cell_length_b   12.39897611
_cell_length_c   14.32771524
_cell_angle_alpha   72.89991084
_cell_angle_beta   90.00000000
_cell_angle_gamma   107.23636565
_symmetry_Int_Tables_number   1
_chemical_formula_structural   DyMg5
_chemical_formula_sum   'Dy8 Mg40'
_cell_volume   1186.18389103
_cell_formula_units_Z   8
loop_
 _symmetry_equiv_pos_site_id
 _symmetry_equiv_pos_as_xyz
  1  'x, y, z'
loop_
 _atom_site_type_symbol
 _atom_site_label
 _atom_site_symmetry_multiplicity
 _atom_site_fract_x
 _atom_site_fract_y
 _atom_site_fract_z
 _atom_site_occupancy
  Dy  Dy0_0  1  0.18076650  0.36153300  0.38853950  1
  Dy  Dy0_1  1  0.18076650  0.36153300  0.88853950  1
  Dy  Dy0_2  1  0.18076650  0.86153300  0.38853950  1
  Dy  Dy0_3  1  0.18076650  0.86153300  0.88853950  1
  Dy  Dy0_4  1  0.68076650  0.36153300  0.38853950  1
  Dy  Dy0_5  1  0.68076650  0.36153300  0.88853950  1
  Dy  Dy0_6  1  0.68076650  0.86153300  0.38853950  1
  Dy  Dy0_7  1  0.68076650  0.86153300  0.88853950  1
  Mg  Mg0_0  1  0.01819450  0.03638900  0.47492800  1
  Mg  Mg0_1  1  0.01819450  0.03638900  0.97492800  1
  Mg  Mg0_2  1  0.01819450  0.53638900  0.47492800  1
  Mg  Mg0_3  1  0.01819450  0.53638900  0.97492800  1
  Mg  Mg0_4  1  0.51819450  0.03638900  0.47492800  1
  Mg  Mg0_5  1  0.51819450  0.03638900  0.97492800  1
  Mg  Mg0_6  1  0.51819450  0.53638900  0.47492800  1
  Mg  Mg0_7  1  0.51819450  0.53638900  0.97492800  1
  Mg  Mg1_0  1  0.34446050  0.18892150  0.06062200  1
  Mg  Mg1_1  1  0.34446050  0.18892150  0.56062200  1
  Mg  Mg1_2  1  0.34446050  0.68892150  0.06062200  1
  Mg  Mg1_3  1  0.34446050  0.68892150  0.56062200  1
  Mg  Mg1_4  1  0.84446050  0.18892150  0.06062200  1
  Mg  Mg1_5  1  0.84446050  0.18892150  0.56062200  1
  Mg  Mg1_6  1  0.84446050  0.68892150  0.06062200  1
  Mg  Mg1_7  1  0.84446050  0.68892150  0.56062200  1
  Mg  Mg2_0  1  0.18029400  0.36058800  0.13921650  1
  Mg  Mg2_1  1  0.18029400  0.36058800  0.63921650  1
  Mg  Mg2_2  1  0.18029400  0.86058800  0.13921650  1
  Mg  Mg2_3  1  0.18029400  0.86058800  0.63921650  1
  Mg  Mg2_4  1  0.68029400  0.36058800  0.13921650  1
  Mg  Mg2_5  1  0.68029400  0.36058800  0.63921650  1
  Mg  Mg2_6  1  0.68029400  0.86058800  0.13921650  1
  Mg  Mg2_7  1  0.68029400  0.86058800  0.63921650  1
  Mg  Mg3_0  1  0.01716050  0.03432100  0.21612250  1
  Mg  Mg3_1  1  0.01716050  0.03432100  0.71612250  1
  Mg  Mg3_2  1  0.01716050  0.53432100  0.21612250  1
  Mg  Mg3_3  1  0.01716050  0.53432100  0.71612250  1
  Mg  Mg3_4  1  0.51716050  0.03432100  0.21612250  1
  Mg  Mg3_5  1  0.51716050  0.03432100  0.71612250  1
  Mg  Mg3_6  1  0.51716050  0.53432100  0.21612250  1
  Mg  Mg3_7  1  0.51716050  0.53432100  0.71612250  1
  Mg  Mg4_0  1  0.34245700  0.18491450  0.30390400  1
  Mg  Mg4_1  1  0.34245700  0.18491450  0.80390400  1
  Mg  Mg4_2  1  0.34245700  0.68491450  0.30390400  1
  Mg  Mg4_3  1  0.34245700  0.68491450  0.80390400  1
  Mg  Mg4_4  1  0.84245700  0.18491450  0.30390400  1
  Mg  Mg4_5  1  0.84245700  0.18491450  0.80390400  1
  Mg  Mg4_6  1  0.84245700  0.68491450  0.30390400  1
  Mg  Mg4_7  1  0.84245700  0.68491450  0.80390400  1
loop_
_geom_bond_atom_site_label_1
_geom_bond_atom_site_label_2
_geom_bond_distance
_geom_bond_site_symmetry_2
Dy0_0 Mg1_1 3.244780 1_555
Dy0_0 Mg1_5 3.244782 1_455
Dy0_0 Mg3_6 3.248322 1_555
Dy0_0 Mg3_2 3.248322 1_555
Dy0_0 Mg0_6 3.282129 1_555
Dy0_0 Mg0_2 3.282129 1_555
Dy0_0 Mg4_0 3.283482 1_555
Dy0_0 Mg4_4 3.283483 1_455
Dy0_0 Mg2_0 3.575690 1_555
Dy0_0 Mg2_1 3.588199 1_555
Dy0_0 Mg4_2 3.643682 1_555
Dy0_0 Mg0_0 3.663758 1_555
Dy0_0 Dy0_4 3.673993 1_455
Dy0_0 Dy0_4 3.673993 1_555
Dy0_1 Mg1_0 3.244780 1_556
Dy0_1 Mg1_4 3.244782 1_456
Dy0_1 Mg3_7 3.248322 1_555
Dy0_1 Mg3_3 3.248322 1_555
Dy0_1 Mg0_7 3.282129 1_555
Dy0_1 Mg0_3 3.282129 1_555
Dy0_1 Mg4_1 3.283482 1_555
Dy0_1 Mg4_5 3.283483 1_455
Dy0_1 Mg2_1 3.575690 1_555
Dy0_1 Mg2_0 3.588199 1_556
Dy0_1 Mg4_3 3.643682 1_555
Dy0_1 Mg0_1 3.663758 1_555
Dy0_1 Dy0_5 3.673993 1_455
Dy0_1 Dy0_5 3.673993 1_555
Dy0_2 Mg1_3 3.244780 1_555
Dy0_2 Mg1_7 3.244782 1_455
Dy0_2 Mg3_4 3.248322 1_565
Dy0_2 Mg3_0 3.248322 1_565
Dy0_2 Mg0_4 3.282129 1_565
Dy0_2 Mg0_0 3.282129 1_565
Dy0_2 Mg4_2 3.283482 1_555
Dy0_2 Mg4_6 3.283483 1_455
Dy0_2 Mg2_2 3.575690 1_555
Dy0_2 Mg2_3 3.588199 1_555
Dy0_2 Mg4_0 3.643682 1_565
Dy0_2 Mg0_2 3.663758 1_555
Dy0_2 Dy0_6 3.673993 1_455
Dy0_2 Dy0_6 3.673993 1_555
Dy0_3 Mg1_2 3.244780 1_556
Dy0_3 Mg1_6 3.244782 1_456
Dy0_3 Mg3_5 3.248322 1_565
Dy0_3 Mg3_1 3.248322 1_565
Dy0_3 Mg0_5 3.282129 1_565
Dy0_3 Mg0_1 3.282129 1_565
Dy0_3 Mg4_3 3.283482 1_555
Dy0_3 Mg4_7 3.283483 1_455
Dy0_3 Mg2_3 3.575690 1_555
Dy0_3 Mg2_2 3.588199 1_556
Dy0_3 Mg4_1 3.643682 1_565
Dy0_3 Mg0_3 3.663758 1_555
Dy0_3 Dy0_7 3.673993 1_555
Dy0_3 Dy0_7 3.673993 1_455
Dy0_4 Mg1_5 3.244780 1_555
Dy0_4 Mg1_1 3.244782 1_555
Dy0_4 Mg3_2 3.248322 1_655
Dy0_4 Mg3_6 3.248322 1_555
Dy0_4 Mg0_2 3.282129 1_655
Dy0_4 Mg0_6 3.282129 1_555
Dy0_4 Mg4_4 3.283482 1_555
Dy0_4 Mg4_0 3.283483 1_555
Dy0_4 Mg2_4 3.575690 1_555
Dy0_4 Mg2_5 3.588199 1_555
Dy0_4 Mg4_6 3.643682 1_555
Dy0_4 Mg0_4 3.663758 1_555
Dy0_5 Mg1_4 3.244780 1_556
Dy0_5 Mg1_0 3.244782 1_556
Dy0_5 Mg3_3 3.248322 1_655
Dy0_5 Mg3_7 3.248322 1_555
Dy0_5 Mg0_3 3.282129 1_655
Dy0_5 Mg0_7 3.282129 1_555
Dy0_5 Mg4_5 3.283482 1_555
Dy0_5 Mg4_1 3.283483 1_555
Dy0_5 Mg2_5 3.575690 1_555
Dy0_5 Mg2_4 3.588199 1_556
Dy0_5 Mg4_7 3.643682 1_555
Dy0_5 Mg0_5 3.663758 1_555
Dy0_6 Mg1_7 3.244780 1_555
Dy0_6 Mg1_3 3.244782 1_555
Dy0_6 Mg3_0 3.248322 1_665
Dy0_6 Mg3_4 3.248322 1_565
Dy0_6 Mg0_0 3.282129 1_665
Dy0_6 Mg0_4 3.282129 1_565
Dy0_6 Mg4_6 3.283482 1_555
Dy0_6 Mg4_2 3.283483 1_555
Dy0_6 Mg2_6 3.575690 1_555
Dy0_6 Mg2_7 3.588199 1_555
Dy0_6 Mg4_4 3.643682 1_565
Dy0_6 Mg0_6 3.663758 1_555
Dy0_7 Mg1_6 3.244780 1_556
Dy0_7 Mg1_2 3.244782 1_556
Dy0_7 Mg3_1 3.248322 1_665
Dy0_7 Mg3_5 3.248322 1_565
Dy0_7 Mg0_1 3.282129 1_665
Dy0_7 Mg0_5 3.282129 1_565
Dy0_7 Mg4_7 3.283482 1_555
Dy0_7 Mg4_3 3.283483 1_555
Dy0_7 Mg2_7 3.575690 1_555
Dy0_7 Mg2_6 3.588199 1_556
Dy0_7 Mg4_5 3.643682 1_565
Dy0_7 Mg0_7 3.663758 1_555
Mg0_0 Mg1_1 3.083889 1_555
Mg0_0 Mg1_5 3.083892 1_455
Mg0_0 Mg4_0 3.133491 1_555
Mg0_0 Mg4_4 3.133493 1_455
Mg0_0 Mg2_7 3.198760 1_445
Mg0_0 Mg2_3 3.198760 1_545
Mg0_1 Mg1_0 3.083889 1_556
Mg0_1 Mg1_4 3.083892 1_456
Mg0_1 Mg4_1 3.133491 1_555
Mg0_1 Mg4_5 3.133493 1_455
Mg0_1 Mg2_6 3.198760 1_446
Mg0_1 Mg2_2 3.198760 1_546
Mg0_2 Mg1_3 3.083889 1_555
Mg0_2 Mg1_7 3.083892 1_455
Mg0_2 Mg4_2 3.133491 1_555
Mg0_2 Mg4_6 3.133493 1_455
Mg0_2 Mg2_5 3.198760 1_455
Mg0_2 Mg2_1 3.198760 1_555
Mg0_3 Mg1_2 3.083889 1_556
Mg0_3 Mg1_6 3.083892 1_456
Mg0_3 Mg4_3 3.133491 1_555
Mg0_3 Mg4_7 3.133493 1_455
Mg0_3 Mg2_4 3.198760 1_456
Mg0_3 Mg2_0 3.198760 1_556
Mg0_4 Mg1_5 3.083889 1_555
Mg0_4 Mg1_1 3.083892 1_555
Mg0_4 Mg4_4 3.133491 1_555
Mg0_4 Mg4_0 3.133493 1_555
Mg0_4 Mg2_3 3.198760 1_545
Mg0_4 Mg2_7 3.198760 1_545
Mg0_5 Mg1_4 3.083889 1_556
Mg0_5 Mg1_0 3.083892 1_556
Mg0_5 Mg4_5 3.133491 1_555
Mg0_5 Mg4_1 3.133493 1_555
Mg0_5 Mg2_2 3.198760 1_546
Mg0_5 Mg2_6 3.198760 1_546
Mg0_6 Mg1_7 3.083889 1_555
Mg0_6 Mg1_3 3.083892 1_555
Mg0_6 Mg4_6 3.133491 1_555
Mg0_6 Mg4_2 3.133493 1_555
Mg0_6 Mg2_1 3.198760 1_555
Mg0_6 Mg2_5 3.198760 1_555
Mg0_7 Mg1_6 3.083889 1_556
Mg0_7 Mg1_2 3.083892 1_556
Mg0_7 Mg4_7 3.133491 1_555
Mg0_7 Mg4_3 3.133493 1_555
Mg0_7 Mg2_0 3.198760 1_556
Mg0_7 Mg2_4 3.198760 1_556
Mg1_0 Mg3_0 3.029629 1_555
Mg1_0 Mg3_4 3.029632 1_555
Mg1_0 Mg2_0 3.191368 1_555
Mg1_0 Mg2_4 3.191370 1_555
Mg1_1 Mg3_1 3.029629 1_555
Mg1_1 Mg3_5 3.029632 1_555
Mg1_1 Mg2_1 3.191368 1_555
Mg1_1 Mg2_5 3.191370 1_555
Mg1_2 Mg3_2 3.029629 1_555
Mg1_2 Mg3_6 3.029632 1_555
Mg1_2 Mg2_2 3.191368 1_555
Mg1_2 Mg2_6 3.191370 1_555
Mg1_3 Mg3_3 3.029629 1_555
Mg1_3 Mg3_7 3.029632 1_555
Mg1_3 Mg2_3 3.191368 1_555
Mg1_3 Mg2_7 3.191370 1_555
Mg1_4 Mg3_4 3.029629 1_555
Mg1_4 Mg3_0 3.029632 1_655
Mg1_4 Mg2_4 3.191368 1_555
Mg1_4 Mg2_0 3.191370 1_655
Mg1_5 Mg3_5 3.029629 1_555
Mg1_5 Mg3_1 3.029632 1_655
Mg1_5 Mg2_5 3.191368 1_555
Mg1_5 Mg2_1 3.191370 1_655
Mg1_6 Mg3_6 3.029629 1_555
Mg1_6 Mg3_2 3.029632 1_655
Mg1_6 Mg2_6 3.191368 1_555
Mg1_6 Mg2_2 3.191370 1_655
Mg1_7 Mg3_7 3.029629 1_555
Mg1_7 Mg3_3 3.029632 1_655
Mg1_7 Mg2_7 3.191368 1_555
Mg1_7 Mg2_3 3.191370 1_655
Mg2_0 Mg3_6 3.196460 1_555
Mg2_0 Mg3_2 3.196460 1_555
Mg2_0 Mg4_0 3.201185 1_555
Mg2_0 Mg4_4 3.201187 1_455
Mg2_1 Mg3_7 3.196460 1_555
Mg2_1 Mg3_3 3.196460 1_555
Mg2_1 Mg4_1 3.201185 1_555
Mg2_1 Mg4_5 3.201187 1_455
Mg2_2 Mg3_4 3.196460 1_565
Mg2_2 Mg3_0 3.196460 1_565
Mg2_2 Mg4_2 3.201185 1_555
Mg2_2 Mg4_6 3.201187 1_455
Mg2_3 Mg3_5 3.196460 1_565
Mg2_3 Mg3_1 3.196460 1_565
Mg2_3 Mg4_3 3.201185 1_555
Mg2_3 Mg4_7 3.201187 1_455
Mg2_4 Mg3_2 3.196460 1_655
Mg2_4 Mg3_6 3.196460 1_555
Mg2_4 Mg4_4 3.201185 1_555
Mg2_4 Mg4_0 3.201187 1_555
Mg2_5 Mg3_3 3.196460 1_655
Mg2_5 Mg3_7 3.196460 1_555
Mg2_5 Mg4_5 3.201185 1_555
Mg2_5 Mg4_1 3.201187 1_555
Mg2_6 Mg3_0 3.196460 1_665
Mg2_6 Mg3_4 3.196460 1_565
Mg2_6 Mg4_6 3.201185 1_555
Mg2_6 Mg4_2 3.201187 1_555
Mg2_7 Mg3_1 3.196460 1_665
Mg2_7 Mg3_5 3.196460 1_565
Mg2_7 Mg4_7 3.201185 1_555
Mg2_7 Mg4_3 3.201187 1_555
Mg3_0 Mg4_0 3.085089 1_555
Mg3_0 Mg4_4 3.085091 1_455
Mg3_1 Mg4_1 3.085089 1_555
Mg3_1 Mg4_5 3.085091 1_455
Mg3_2 Mg4_2 3.085089 1_555
Mg3_2 Mg4_6 3.085091 1_455
Mg3_3 Mg4_3 3.085089 1_555
Mg3_3 Mg4_7 3.085091 1_455
Mg3_4 Mg4_4 3.085089 1_555
Mg3_4 Mg4_0 3.085091 1_555
Mg3_5 Mg4_5 3.085089 1_555
Mg3_5 Mg4_1 3.085091 1_555
Mg3_6 Mg4_6 3.085089 1_555
Mg3_6 Mg4_2 3.085091 1_555
Mg3_7 Mg4_7 3.085089 1_555
Mg3_7 Mg4_3 3.085091 1_555
