# generated using pymatgen
data_PaTe2Pd
_symmetry_space_group_name_H-M   'P 1'
_cell_length_a   5.16351009
_cell_length_b   5.16351009
_cell_length_c   5.16351009
_cell_angle_alpha   60.00000000
_cell_angle_beta   60.00000000
_cell_angle_gamma   60.00000000
_symmetry_Int_Tables_number   1
_chemical_formula_structural   PaTe2Pd
_chemical_formula_sum   'Pa1 Te2 Pd1'
_cell_volume   97.34644417
_cell_formula_units_Z   1
loop_
 _symmetry_equiv_pos_site_id
 _symmetry_equiv_pos_as_xyz
  1  'x, y, z'
loop_
 _atom_site_type_symbol
 _atom_site_label
 _atom_site_symmetry_multiplicity
 _atom_site_fract_x
 _atom_site_fract_y
 _atom_site_fract_z
 _atom_site_occupancy
  Pa  Pa0  1  0.50000000  0.50000000  0.50000000  1
  Te  Te0  1  0.25000000  0.25000000  0.25000000  1
  Te  Te1  1  0.75000000  0.75000000  0.75000000  1
  Pd  Pd0  1  0.00000000  0.00000000  0.00000000  1
loop_
_geom_bond_atom_site_label_1
_geom_bond_atom_site_label_2
_geom_bond_distance
_geom_bond_site_symmetry_2
Pa0 Te0 3.161991 1_655
Pa0 Te1 3.161991 1_455
Pa0 Te0 3.161991 1_556
Pa0 Te0 3.161991 1_565
Pa0 Te1 3.161991 1_555
Pa0 Te0 3.161991 1_555
Pa0 Te1 3.161991 1_545
Pa0 Te1 3.161991 1_554
Pa0 Pd0 3.651153 1_556
Pa0 Pd0 3.651153 1_566
Pa0 Pd0 3.651153 1_565
Pa0 Pd0 3.651153 1_656
Pa0 Pd0 3.651153 1_655
Pa0 Pd0 3.651153 1_665
Pd0 Te0 3.161991 1_455
Pd0 Te1 3.161991 1_544
Pd0 Te0 3.161991 1_545
Pd0 Te1 3.161991 1_444
Pd0 Te1 3.161991 1_454
Pd0 Te0 3.161991 1_555
Pd0 Te0 3.161991 1_554
Pd0 Te1 3.161991 1_445
