# generated using pymatgen
data_K12Mg(Pb2O5)2
_symmetry_space_group_name_H-M   'P 1'
_cell_length_a   6.85681973
_cell_length_b   8.01534440
_cell_length_c   13.02649273
_cell_angle_alpha   77.15692654
_cell_angle_beta   80.97473498
_cell_angle_gamma   84.15495822
_symmetry_Int_Tables_number   1
_chemical_formula_structural   K12Mg(Pb2O5)2
_chemical_formula_sum   'K12 Mg1 Pb4 O10'
_cell_volume   687.71091267
_cell_formula_units_Z   1
loop_
 _symmetry_equiv_pos_site_id
 _symmetry_equiv_pos_as_xyz
  1  'x, y, z'
loop_
 _atom_site_type_symbol
 _atom_site_label
 _atom_site_symmetry_multiplicity
 _atom_site_fract_x
 _atom_site_fract_y
 _atom_site_fract_z
 _atom_site_occupancy
  K  K0  1  0.42843441  0.59646105  0.36120869  1
  K  K1  1  0.57176306  0.35874740  0.62654353  1
  K  K2  1  0.90759037  0.40294174  0.35774215  1
  K  K3  1  0.02547478  0.55159856  0.56903038  1
  K  K4  1  0.32317343  0.95982700  0.13805657  1
  K  K5  1  0.69069325  0.06067635  0.87486141  1
  K  K6  1  0.32337967  0.50305009  0.12534108  1
  K  K7  1  0.61341397  0.51285506  0.88566695  1
  K  K8  1  0.78546600  0.70610867  0.12000068  1
  K  K9  1  0.17508340  0.31285572  0.86700529  1
  K  K10  1  0.43420964  0.13896975  0.37053347  1
  K  K11  1  0.55795336  0.83070768  0.64061540  1
  Mg  Mg0  1  0.02927572  0.72576377  0.76710017  1
  Pb  Pb0  1  0.88107127  0.85089166  0.35019177  1
  Pb  Pb1  1  0.13555374  0.12528261  0.64233706  1
  Pb  Pb2  1  0.74425091  0.20318511  0.12885277  1
  Pb  Pb3  1  0.25745614  0.86480300  0.89792437  1
  O  O0  1  0.64417918  0.94581524  0.24006937  1
  O  O1  1  0.37858348  0.07618050  0.76055147  1
  O  O2  1  0.49999658  0.24237247  0.03485360  1
  O  O3  1  0.50036435  0.77295299  0.98568841  1
  O  O4  1  0.71649219  0.64955891  0.46544291  1
  O  O5  1  0.28569904  0.32007225  0.51369265  1
  O  O6  1  0.62885681  0.38183747  0.23426281  1
  O  O7  1  0.29793521  0.65498672  0.79595972  1
  O  O8  1  0.07378846  0.68610530  0.25687755  1
  O  O9  1  0.92319459  0.29039297  0.72396476  1
loop_
_geom_bond_atom_site_label_1
_geom_bond_atom_site_label_2
_geom_bond_distance
_geom_bond_site_symmetry_2
K0 O4 2.682455 1_555
K0 O6 2.766355 1_555
K0 O5 2.772470 1_555
K0 O8 2.919520 1_555
K0 O0 3.265965 1_555
K1 O5 2.708448 1_555
K1 O1 2.838913 1_555
K1 O9 2.845835 1_555
K1 O4 2.909516 1_555
K2 O8 2.628241 1_655
K2 O6 2.723966 1_555
K2 O4 2.778717 1_555
K3 O5 2.581472 1_555
K3 O9 2.631547 1_455
K3 O4 2.648220 1_455
K4 O2 2.664691 1_565
K4 O0 2.724744 1_555
K4 O3 2.802443 1_554
K4 O8 2.925300 1_555
K5 O3 2.765449 1_545
K5 O1 2.770567 1_555
K5 O9 2.793076 1_555
K5 O2 2.877648 1_556
K6 O6 2.692503 1_555
K6 O2 2.711708 1_555
K6 O3 2.748594 1_554
K6 O8 2.775584 1_555
K7 O7 2.653691 1_555
K7 O2 2.660443 1_556
K7 O3 2.684462 1_555
K8 O0 2.749150 1_555
K8 O3 2.759138 1_554
K8 O8 2.833302 1_655
K8 O6 2.910546 1_555
K9 O1 2.737158 1_555
K9 O9 2.776617 1_455
K9 O7 2.860758 1_555
K9 O2 3.284210 1_556
K10 O5 2.632183 1_555
K10 O6 2.640372 1_555
K10 O0 2.702971 1_545
K11 O7 2.714752 1_555
K11 O1 2.845292 1_565
K11 O4 2.978277 1_555
Mg0 O7 1.940693 1_555
O0 Pb0 2.295486 1_555
O0 Pb2 2.339467 1_565
O1 Pb3 2.288025 1_545
O1 Pb1 2.388568 1_555
O2 Pb2 2.183637 1_555
O3 Pb3 2.143987 1_555
O4 Pb0 2.212225 1_555
O5 Pb1 2.220088 1_555
O6 Pb2 2.205566 1_555
O7 Pb3 2.334922 1_555
O8 Pb0 2.196049 1_455
O9 Pb1 2.179375 1_655
