# generated using pymatgen
data_HoInCo2
_symmetry_space_group_name_H-M   'P 1'
_cell_length_a   4.04743900
_cell_length_b   4.99118800
_cell_length_c   7.06644500
_cell_angle_alpha   90.00000000
_cell_angle_beta   90.00000000
_cell_angle_gamma   90.00000000
_symmetry_Int_Tables_number   1
_chemical_formula_structural   HoInCo2
_chemical_formula_sum   'Ho2 In2 Co4'
_cell_volume   142.75299336
_cell_formula_units_Z   2
loop_
 _symmetry_equiv_pos_site_id
 _symmetry_equiv_pos_as_xyz
  1  'x, y, z'
loop_
 _atom_site_type_symbol
 _atom_site_label
 _atom_site_symmetry_multiplicity
 _atom_site_fract_x
 _atom_site_fract_y
 _atom_site_fract_z
 _atom_site_occupancy
  Ho  Ho0  1  0.50000000  0.75000000  0.72173700  1
  Ho  Ho1  1  0.50000000  0.25000000  0.27826300  1
  In  In0  1  0.00000000  0.75000000  0.34924300  1
  In  In1  1  0.00000000  0.25000000  0.65075700  1
  Co  Co0  1  0.00000000  0.00000000  0.00000000  1
  Co  Co1  1  0.00000000  0.50000000  0.00000000  1
  Co  Co2  1  0.50000000  0.75000000  0.09553700  1
  Co  Co3  1  0.50000000  0.25000000  0.90446300  1
loop_
_geom_bond_atom_site_label_1
_geom_bond_atom_site_label_2
_geom_bond_distance
_geom_bond_site_symmetry_2
Ho0 In1 3.251924 1_555
Ho0 In1 3.251924 1_565
Ho0 In1 3.251924 1_665
Ho0 In1 3.251924 1_655
Ho0 In0 3.320235 1_655
Ho0 In0 3.320235 1_555
Ho1 In0 3.251924 1_545
Ho1 In0 3.251924 1_555
Ho1 In0 3.251924 1_655
Ho1 In0 3.251924 1_645
Ho1 In1 3.320235 1_655
Ho1 In1 3.320235 1_555
In0 In1 3.281399 1_555
In0 In1 3.281399 1_565
Co0 Co2 2.471479 1_445
Co0 Co2 2.471479 1_545
Co0 Co3 2.471479 1_554
Co0 Co3 2.471479 1_454
Co0 Co1 2.495594 1_555
Co0 Co1 2.495594 1_545
Co0 In1 2.765422 1_554
Co0 In0 2.765422 1_545
Co0 Ho1 3.085270 1_555
Co0 Ho1 3.085270 1_455
Co0 Ho0 3.085270 1_444
Co0 Ho0 3.085270 1_544
Co1 Co2 2.471479 1_455
Co1 Co3 2.471479 1_454
Co1 Co3 2.471479 1_554
Co1 Co2 2.471479 1_555
Co1 In1 2.765422 1_554
Co1 In0 2.765422 1_555
Co1 Ho0 3.085270 1_554
Co1 Ho1 3.085270 1_555
Co1 Ho1 3.085270 1_455
Co1 Ho0 3.085270 1_454
Co2 Ho0 2.641437 1_554
Co2 In0 2.703622 1_555
Co2 In0 2.703622 1_655
Co2 Ho1 2.809848 1_555
Co2 Ho1 2.809848 1_565
Co3 Ho1 2.641437 1_556
Co3 In1 2.703622 1_655
Co3 In1 2.703622 1_555
Co3 Ho0 2.809848 1_545
Co3 Ho0 2.809848 1_555
