# generated using pymatgen
data_Ga2CoP3NO14
_symmetry_space_group_name_H-M   'P 1'
_cell_length_a   8.41795543
_cell_length_b   8.41795543
_cell_length_c   9.12525748
_cell_angle_alpha   74.75452320
_cell_angle_beta   74.75452320
_cell_angle_gamma   76.57059682
_symmetry_Int_Tables_number   1
_chemical_formula_structural   Ga2CoP3NO14
_chemical_formula_sum   'Ga4 Co2 P6 N2 O28'
_cell_volume   592.61018263
_cell_formula_units_Z   2
loop_
 _symmetry_equiv_pos_site_id
 _symmetry_equiv_pos_as_xyz
  1  'x, y, z'
loop_
 _atom_site_type_symbol
 _atom_site_label
 _atom_site_symmetry_multiplicity
 _atom_site_fract_x
 _atom_site_fract_y
 _atom_site_fract_z
 _atom_site_occupancy
  Ga  Ga0  1  0.89580900  0.74682700  0.57018600  1
  Ga  Ga1  1  0.25317300  0.10419100  0.92981400  1
  Ga  Ga2  1  0.10419100  0.25317300  0.42981400  1
  Ga  Ga3  1  0.74682700  0.89580900  0.07018600  1
  Co  Co0  1  0.27746200  0.72253800  0.75000000  1
  Co  Co1  1  0.72253800  0.27746200  0.25000000  1
  P  P0  1  0.99176500  0.00823500  0.25000000  1
  P  P1  1  0.00823500  0.99176500  0.75000000  1
  P  P2  1  0.57829100  0.84460600  0.82562400  1
  P  P3  1  0.15539400  0.42170900  0.67437600  1
  P  P4  1  0.42170900  0.15539400  0.17437600  1
  P  P5  1  0.84460600  0.57829100  0.32562400  1
  N  N0  1  0.63711100  0.36288900  0.75000000  1
  N  N1  1  0.36288900  0.63711100  0.25000000  1
  O  O0  1  0.01970300  0.86228600  0.38753500  1
  O  O1  1  0.13771400  0.98029700  0.11246500  1
  O  O2  1  0.98029700  0.13771400  0.61246500  1
  O  O3  1  0.86228600  0.01970300  0.88753500  1
  O  O4  1  0.47166300  0.71479000  0.82309900  1
  O  O5  1  0.28521000  0.52833700  0.67690100  1
  O  O6  1  0.52833700  0.28521000  0.17690100  1
  O  O7  1  0.71479000  0.47166300  0.32309900  1
  O  O8  1  0.03068800  0.81950900  0.70374100  1
  O  O9  1  0.18049100  0.96931200  0.79625900  1
  O  O10  1  0.96931200  0.18049100  0.29625900  1
  O  O11  1  0.81950900  0.03068800  0.20374100  1
  O  O12  1  0.20354100  0.61385500  0.96200100  1
  O  O13  1  0.38614500  0.79645900  0.53799900  1
  O  O14  1  0.79645900  0.38614500  0.03799900  1
  O  O15  1  0.61385500  0.20354100  0.46200100  1
  O  O16  1  0.70175400  0.87240600  0.66596600  1
  O  O17  1  0.12759400  0.29824600  0.83403400  1
  O  O18  1  0.29824600  0.12759400  0.33403400  1
  O  O19  1  0.87240600  0.70175400  0.16596600  1
  O  O20  1  0.76901400  0.66926900  0.45945700  1
  O  O21  1  0.33073100  0.23098600  0.04054300  1
  O  O22  1  0.23098600  0.33073100  0.54054300  1
  O  O23  1  0.66926900  0.76901400  0.95945700  1
  O  O24  1  0.98456900  0.53169300  0.66024000  1
  O  O25  1  0.46830700  0.01543100  0.83976000  1
  O  O26  1  0.01543100  0.46830700  0.33976000  1
  O  O27  1  0.53169300  0.98456900  0.16024000  1
loop_
_geom_bond_atom_site_label_1
_geom_bond_atom_site_label_2
_geom_bond_distance
_geom_bond_site_symmetry_2
Ga0 O24 1.850670 1_555
Ga0 O16 1.866228 1_555
Ga0 O0 1.874853 1_655
Ga0 O20 1.955576 1_555
Ga0 O8 2.142737 1_655
Ga1 O25 1.850670 1_555
Ga1 O17 1.866228 1_555
Ga1 O1 1.874853 1_546
Ga1 O21 1.955576 1_556
Ga1 O9 2.142737 1_545
Ga2 O26 1.850670 1_555
Ga2 O18 1.866228 1_555
Ga2 O2 1.874853 1_455
Ga2 O22 1.955576 1_555
Ga2 O10 2.142737 1_455
Ga3 O27 1.850670 1_555
Ga3 O19 1.866228 1_555
Ga3 O3 1.874853 1_564
Ga3 O23 1.955576 1_554
Ga3 O11 2.142737 1_565
Co0 O4 1.903360 1_555
Co0 O5 1.903360 1_555
Co0 O12 1.915019 1_555
Co0 O13 1.915019 1_555
Co0 O9 2.156882 1_555
Co0 O8 2.156882 1_555
Co1 O6 1.903360 1_555
Co1 O7 1.903360 1_555
Co1 O15 1.915019 1_555
Co1 O14 1.915019 1_555
Co1 O10 2.156882 1_555
Co1 O11 2.156882 1_555
O0 P0 1.532964 1_465
O1 P0 1.532964 1_465
O2 P1 1.532964 1_645
O3 P1 1.532964 1_645
O4 P2 1.574835 1_555
O5 P3 1.574835 1_555
O6 P4 1.574835 1_555
O7 P5 1.574835 1_555
O8 P1 1.571364 1_555
O9 P1 1.571364 1_555
O10 P0 1.571364 1_555
O11 P0 1.571364 1_555
O16 P2 1.547540 1_555
O17 P3 1.547540 1_555
O18 P4 1.547540 1_555
O19 P5 1.547540 1_555
O20 P5 1.529621 1_555
O21 P4 1.529621 1_555
O22 P3 1.529621 1_555
O23 P2 1.529621 1_555
O24 P3 1.535576 1_655
O25 P2 1.535576 1_545
O26 P5 1.535576 1_455
O27 P4 1.535576 1_565
