# generated using pymatgen
data_Zr5AlNi4
_symmetry_space_group_name_H-M   'P 1'
_cell_length_a   7.24026700
_cell_length_b   7.24026700
_cell_length_c   6.61255100
_cell_angle_alpha   90.00000000
_cell_angle_beta   90.00000000
_cell_angle_gamma   90.00000000
_symmetry_Int_Tables_number   1
_chemical_formula_structural   Zr5AlNi4
_chemical_formula_sum   'Zr10 Al2 Ni8'
_cell_volume   346.63961895
_cell_formula_units_Z   2
loop_
 _symmetry_equiv_pos_site_id
 _symmetry_equiv_pos_as_xyz
  1  'x, y, z'
loop_
 _atom_site_type_symbol
 _atom_site_label
 _atom_site_symmetry_multiplicity
 _atom_site_fract_x
 _atom_site_fract_y
 _atom_site_fract_z
 _atom_site_occupancy
  Zr  Zr0  1  0.32042200  0.82042200  0.25000000  1
  Zr  Zr1  1  0.67957800  0.17957800  0.25000000  1
  Zr  Zr2  1  0.17957800  0.32042200  0.75000000  1
  Zr  Zr3  1  0.82042200  0.67957800  0.75000000  1
  Zr  Zr4  1  0.83873800  0.66126200  0.25000000  1
  Zr  Zr5  1  0.16126200  0.33873800  0.25000000  1
  Zr  Zr6  1  0.66126200  0.16126200  0.75000000  1
  Zr  Zr7  1  0.33873800  0.83873800  0.75000000  1
  Zr  Zr8  1  0.00000000  0.00000000  0.00000000  1
  Zr  Zr9  1  0.50000000  0.50000000  0.50000000  1
  Al  Al0  1  0.00000000  0.00000000  0.50000000  1
  Al  Al1  1  0.50000000  0.50000000  0.00000000  1
  Ni  Ni0  1  0.12481500  0.62455000  0.97609500  1
  Ni  Ni1  1  0.87518500  0.37545000  0.97609500  1
  Ni  Ni2  1  0.37518500  0.12455000  0.47609500  1
  Ni  Ni3  1  0.62481500  0.87545000  0.47609500  1
  Ni  Ni4  1  0.87545000  0.37518500  0.52390500  1
  Ni  Ni5  1  0.12455000  0.62481500  0.52390500  1
  Ni  Ni6  1  0.62455000  0.87518500  0.02390500  1
  Ni  Ni7  1  0.37545000  0.12481500  0.02390500  1
loop_
_geom_bond_atom_site_label_1
_geom_bond_atom_site_label_2
_geom_bond_distance
_geom_bond_site_symmetry_2
Al0 Ni2 2.866571 1_555
Al0 Ni5 2.866571 1_545
Al0 Ni4 2.866571 1_455
Al0 Ni3 2.866571 1_445
Al0 Zr3 3.131372 1_445
Al0 Zr0 3.131372 1_545
Al0 Zr2 3.131372 1_555
Al0 Zr1 3.131372 1_455
Al0 Zr5 3.179800 1_555
Al0 Zr6 3.179800 1_455
Al0 Zr4 3.179800 1_445
Al0 Zr7 3.179800 1_545
Al0 Zr8 3.306275 1_555
Al0 Zr8 3.306275 1_556
Al1 Ni0 2.866571 1_554
Al1 Ni1 2.866571 1_554
Al1 Ni6 2.866571 1_555
Al1 Ni7 2.866571 1_555
Al1 Zr2 3.131372 1_554
Al1 Zr3 3.131372 1_554
Al1 Zr0 3.131372 1_555
Al1 Zr1 3.131372 1_555
Al1 Zr6 3.179800 1_554
Al1 Zr7 3.179800 1_554
Al1 Zr5 3.179800 1_555
Al1 Zr4 3.179800 1_555
Al1 Zr9 3.306275 1_555
Al1 Zr9 3.306275 1_554
Ni0 Ni1 2.553320 1_455
Ni0 Zr7 2.653130 1_555
Ni0 Zr2 2.690928 1_555
Ni0 Zr3 2.692781 1_455
Ni0 Zr0 2.701376 1_556
Ni0 Zr5 2.762671 1_556
Ni0 Zr4 2.764292 1_456
Ni0 Zr8 2.868993 1_566
Ni1 Zr6 2.653130 1_555
Ni1 Zr3 2.690928 1_555
Ni1 Zr2 2.692781 1_655
Ni1 Zr1 2.701376 1_556
Ni1 Zr4 2.762671 1_556
Ni1 Zr5 2.764292 1_656
Ni1 Zr8 2.868993 1_656
Ni2 Ni3 2.553320 1_545
Ni2 Zr5 2.653130 1_555
Ni2 Zr0 2.690928 1_545
Ni2 Zr1 2.692781 1_555
Ni2 Zr2 2.701376 1_555
Ni2 Zr7 2.762671 1_545
Ni2 Zr6 2.764292 1_555
Ni2 Zr9 2.868993 1_555
Ni3 Zr4 2.653130 1_555
Ni3 Zr1 2.690928 1_565
Ni3 Zr0 2.692781 1_555
Ni3 Zr3 2.701376 1_555
Ni3 Zr6 2.762671 1_565
Ni3 Zr7 2.764292 1_555
Ni3 Zr9 2.868993 1_555
Ni4 Ni5 2.553320 1_655
Ni4 Zr6 2.653130 1_555
Ni4 Zr2 2.690928 1_655
Ni4 Zr3 2.692781 1_555
Ni4 Zr1 2.701376 1_555
Ni4 Zr5 2.762671 1_655
Ni4 Zr4 2.764292 1_555
Ni4 Zr9 2.868993 1_555
Ni5 Zr7 2.653130 1_555
Ni5 Zr3 2.690928 1_455
Ni5 Zr2 2.692781 1_555
Ni5 Zr0 2.701376 1_555
Ni5 Zr4 2.762671 1_455
Ni5 Zr5 2.764292 1_555
Ni5 Zr9 2.868993 1_555
Ni6 Ni7 2.553320 1_565
Ni6 Zr4 2.653130 1_555
Ni6 Zr0 2.690928 1_555
Ni6 Zr1 2.692781 1_565
Ni6 Zr3 2.701376 1_554
Ni6 Zr7 2.762671 1_554
Ni6 Zr6 2.764292 1_564
Ni6 Zr8 2.868993 1_665
Ni7 Zr5 2.653130 1_555
Ni7 Zr1 2.690928 1_555
Ni7 Zr0 2.692781 1_545
Ni7 Zr2 2.701376 1_554
Ni7 Zr6 2.762671 1_554
Ni7 Zr7 2.764292 1_544
Ni7 Zr8 2.868993 1_555
