# generated using pymatgen
data_MgAlMoS4
_symmetry_space_group_name_H-M   'P 1'
_cell_length_a   7.27023269
_cell_length_b   7.34095846
_cell_length_c   7.34105533
_cell_angle_alpha   60.71335831
_cell_angle_beta   60.31784141
_cell_angle_gamma   60.31890560
_symmetry_Int_Tables_number   1
_chemical_formula_structural   MgAlMoS4
_chemical_formula_sum   'Mg2 Al2 Mo2 S8'
_cell_volume   279.85120331
_cell_formula_units_Z   2
loop_
 _symmetry_equiv_pos_site_id
 _symmetry_equiv_pos_as_xyz
  1  'x, y, z'
loop_
 _atom_site_type_symbol
 _atom_site_label
 _atom_site_symmetry_multiplicity
 _atom_site_fract_x
 _atom_site_fract_y
 _atom_site_fract_z
 _atom_site_occupancy
  Mg  Mg0  1  0.87313600  0.87687100  0.87687200  1
  Mg  Mg1  1  0.12686300  0.12313600  0.12313200  1
  Al  Al0  1  0.50000200  0.50001400  0.49998000  1
  Al  Al1  1  0.99999800  0.49999100  0.50001400  1
  Mo  Mo0  1  0.50000100  0.49999200  0.99999900  1
  Mo  Mo1  1  0.49999900  0.99999800  0.50000600  1
  S  S0  1  0.74694700  0.73411300  0.73411400  1
  S  S1  1  0.25827800  0.26933300  0.71411900  1
  S  S2  1  0.25828300  0.71411900  0.26932400  1
  S  S3  1  0.71517000  0.26589700  0.26588300  1
  S  S4  1  0.74171300  0.28588200  0.73066500  1
  S  S5  1  0.28483100  0.73409700  0.73411400  1
  S  S6  1  0.25305200  0.26588000  0.26589800  1
  S  S7  1  0.74173000  0.73067200  0.28588000  1
loop_
_geom_bond_atom_site_label_1
_geom_bond_atom_site_label_2
_geom_bond_distance
_geom_bond_site_symmetry_2
Mg0 S5 2.452920 1_655
Mg0 S0 2.452976 1_555
Mg0 S7 2.470155 1_556
Mg0 S4 2.470169 1_565
Mg1 S3 2.452903 1_455
Mg1 S6 2.452940 1_555
Mg1 S1 2.470185 1_554
Mg1 S2 2.470201 1_545
Al0 S3 2.432848 1_555
Al0 S5 2.432863 1_555
Al0 S2 2.456339 1_555
Al0 S7 2.456345 1_555
Al0 S1 2.456432 1_555
Al0 S4 2.456441 1_555
Al1 S0 2.432890 1_555
Al1 S6 2.432916 1_655
Al1 S4 2.456385 1_555
Al1 S1 2.456393 1_655
Al1 S7 2.456473 1_555
Al1 S2 2.456479 1_655
Mo0 S6 2.508000 1_556
Mo0 S3 2.508008 1_556
Mo0 S5 2.508018 1_555
Mo0 S0 2.508020 1_555
Mo0 S4 2.516312 1_555
Mo0 S2 2.516346 1_556
Mo1 S6 2.508015 1_565
Mo1 S0 2.508022 1_555
Mo1 S5 2.508040 1_555
Mo1 S3 2.508043 1_565
Mo1 S1 2.516331 1_565
Mo1 S7 2.516345 1_555
