# generated using pymatgen
data_Li9Mn2Co5O16
_symmetry_space_group_name_H-M   'P 1'
_cell_length_a   6.51561942
_cell_length_b   6.48194428
_cell_length_c   7.84010566
_cell_angle_alpha   87.67344057
_cell_angle_beta   114.53769889
_cell_angle_gamma   107.91951225
_symmetry_Int_Tables_number   1
_chemical_formula_structural   Li9Mn2Co5O16
_chemical_formula_sum   'Li9 Mn2 Co5 O16'
_cell_volume   285.14469811
_cell_formula_units_Z   1
loop_
 _symmetry_equiv_pos_site_id
 _symmetry_equiv_pos_as_xyz
  1  'x, y, z'
loop_
 _atom_site_type_symbol
 _atom_site_label
 _atom_site_symmetry_multiplicity
 _atom_site_fract_x
 _atom_site_fract_y
 _atom_site_fract_z
 _atom_site_occupancy
  Li  Li0  1  0.87084300  0.05970000  0.31366400  1
  Li  Li1  1  0.86970700  0.56348000  0.81294500  1
  Li  Li2  1  0.13029000  0.93652200  0.68705400  1
  Li  Li3  1  0.12915500  0.44029900  0.18633400  1
  Li  Li4  1  0.37815600  0.81269000  0.06395800  1
  Li  Li5  1  0.38425500  0.32083300  0.57358500  1
  Li  Li6  1  0.62184300  0.68731100  0.43604100  1
  Li  Li7  1  0.61574400  0.17916700  0.92641400  1
  Li  Li8  1  0.50000100  0.75000100  0.74999900  1
  Mn  Mn0  1  0.00002900  0.99917200  0.99507500  1
  Mn  Mn1  1  0.99997400  0.50082500  0.50493700  1
  Co  Co0  1  0.25958100  0.87253400  0.38329500  1
  Co  Co1  1  0.25041700  0.37404300  0.87520100  1
  Co  Co2  1  0.50000100  0.25000100  0.24999900  1
  Co  Co3  1  0.74041800  0.62746400  0.11670700  1
  Co  Co4  1  0.74958200  0.12595500  0.62480000  1
  O  O0  1  0.71502100  0.90701000  0.04046800  1
  O  O1  1  0.70270700  0.39913700  0.53386200  1
  O  O2  1  0.94507900  0.76707500  0.41191000  1
  O  O3  1  0.95665400  0.27344600  0.91136100  1
  O  O4  1  0.17470900  0.62696800  0.76292000  1
  O  O5  1  0.19003400  0.13661100  0.25948300  1
  O  O6  1  0.44531500  0.51718200  0.16294400  1
  O  O7  1  0.45048100  0.03529800  0.63908500  1
  O  O8  1  0.04334600  0.22655300  0.58863800  1
  O  O9  1  0.05492200  0.73292400  0.08808900  1
  O  O10  1  0.29729400  0.10086400  0.96613700  1
  O  O11  1  0.28497800  0.59299100  0.45953100  1
  O  O12  1  0.55468500  0.98282000  0.33705400  1
  O  O13  1  0.54952000  0.46470400  0.86091500  1
  O  O14  1  0.82529200  0.87303400  0.73708100  1
  O  O15  1  0.80996700  0.36339100  0.24051600  1
loop_
_geom_bond_atom_site_label_1
_geom_bond_atom_site_label_2
_geom_bond_distance
_geom_bond_site_symmetry_2
Li0 O12 2.049405 1_545
Li0 O0 2.084610 1_545
Li0 O8 2.123510 1_655
Li0 O15 2.135679 1_555
Li0 O2 2.135774 1_545
Li0 O5 2.198363 1_655
Li1 O4 2.098441 1_655
Li1 O9 2.128501 1_656
Li1 O14 2.140342 1_555
Li1 O1 2.145873 1_555
Li1 O3 2.150623 1_555
Li1 O13 2.171141 1_555
Li2 O14 2.098425 1_455
Li2 O2 2.128509 1_455
Li2 O4 2.140353 1_555
Li2 O10 2.145869 1_565
Li2 O8 2.150597 1_565
Li2 O7 2.171162 1_565
Li3 O6 2.049416 1_555
Li3 O11 2.084621 1_555
Li3 O3 2.123504 1_454
Li3 O5 2.135668 1_555
Li3 O9 2.135765 1_555
Li3 O15 2.198351 1_455
Li4 O9 2.095608 1_555
Li4 O12 2.118745 1_555
Li4 O10 2.123347 1_564
Li4 O6 2.139110 1_555
Li4 O0 2.173949 1_555
Li4 O4 2.329578 1_554
Li5 O7 2.026248 1_555
Li5 O11 2.103284 1_555
Li5 O1 2.129716 1_555
Li5 O13 2.154459 1_555
Li5 O8 2.167449 1_555
Li5 O5 2.410846 1_555
Li6 O2 2.095622 1_555
Li6 O6 2.118749 1_555
Li6 O1 2.123352 1_555
Li6 O12 2.139116 1_555
Li6 O11 2.173949 1_555
Li6 O14 2.329592 1_555
Li7 O13 2.026255 1_555
Li7 O0 2.103278 1_546
Li7 O10 2.129704 1_555
Li7 O7 2.154449 1_555
Li7 O3 2.167455 1_555
Li7 O15 2.410850 1_556
Li8 O14 2.066404 1_555
Li8 O4 2.066421 1_555
Li8 O7 2.069704 1_565
Li8 O13 2.069708 1_555
Li8 O11 2.201241 1_555
Li8 O0 2.201244 1_556
Mn0 O9 1.923314 1_556
Mn0 O14 1.924774 1_455
Mn0 O3 1.931760 1_465
Mn0 O0 1.944478 1_456
Mn0 O10 1.950544 1_565
Mn0 O5 1.990792 1_566
Mn1 O2 1.923357 1_555
Mn1 O4 1.924712 1_655
Mn1 O8 1.931717 1_655
Mn1 O11 1.944511 1_655
Mn1 O1 1.950503 1_555
Mn1 O15 1.990865 1_555
Co0 O11 1.918942 1_555
Co0 O7 1.993578 1_565
Co0 O12 2.012876 1_555
Co0 O5 2.013625 1_565
Co0 O2 2.055270 1_455
Co0 O9 2.194955 1_555
Co1 O13 1.904489 1_555
Co1 O4 1.930243 1_555
Co1 O10 1.945898 1_555
Co1 O3 1.958777 1_455
Co1 O6 2.151318 1_556
Co1 O8 2.155197 1_555
Co2 O12 1.916731 1_545
Co2 O6 1.916736 1_555
Co2 O15 1.957407 1_555
Co2 O5 1.957416 1_555
Co2 O10 2.139954 1_554
Co2 O1 2.139958 1_555
Co3 O0 1.918966 1_555
Co3 O13 1.993580 1_554
Co3 O6 2.012851 1_555
Co3 O15 2.013597 1_555
Co3 O9 2.055294 1_655
Co3 O2 2.194938 1_555
Co4 O7 1.904473 1_555
Co4 O14 1.930224 1_545
Co4 O1 1.945917 1_555
Co4 O8 1.958792 1_655
Co4 O12 2.151329 1_545
Co4 O3 2.155187 1_555
