# generated using pymatgen
data_LaMg14Si
_symmetry_space_group_name_H-M   'P 1'
_cell_length_a   6.42989844
_cell_length_b   6.42989791
_cell_length_c   10.45092627
_cell_angle_alpha   90.00000000
_cell_angle_beta   90.00000000
_cell_angle_gamma   120.00000273
_symmetry_Int_Tables_number   1
_chemical_formula_structural   LaMg14Si
_chemical_formula_sum   'La1 Mg14 Si1'
_cell_volume   374.19122117
_cell_formula_units_Z   1
loop_
 _symmetry_equiv_pos_site_id
 _symmetry_equiv_pos_as_xyz
  1  'x, y, z'
loop_
 _atom_site_type_symbol
 _atom_site_label
 _atom_site_symmetry_multiplicity
 _atom_site_fract_x
 _atom_site_fract_y
 _atom_site_fract_z
 _atom_site_occupancy
  La  La0  1  0.16666700  0.33333300  0.12500000  1
  Mg  Mg0  1  0.18136941  0.84068420  0.12500000  1
  Mg  Mg1  1  0.15843460  0.82921680  0.62500000  1
  Mg  Mg2  1  0.65931580  0.31863059  0.12500000  1
  Mg  Mg3  1  0.67078320  0.34156540  0.62500000  1
  Mg  Mg4  1  0.65931580  0.84068420  0.12500000  1
  Mg  Mg5  1  0.67078320  0.82921680  0.62500000  1
  Mg  Mg6  1  0.33083868  0.16916132  0.38941505  1
  Mg  Mg7  1  0.33083868  0.16916132  0.86058495  1
  Mg  Mg8  1  0.33083868  0.66167835  0.38941505  1
  Mg  Mg9  1  0.33083868  0.66167835  0.86058495  1
  Mg  Mg10  1  0.83832165  0.16916132  0.38941505  1
  Mg  Mg11  1  0.83832165  0.16916132  0.86058495  1
  Mg  Mg12  1  0.83333300  0.66666700  0.36260232  1
  Mg  Mg13  1  0.83333300  0.66666700  0.88739768  1
  Si  Si0  1  0.16666700  0.33333300  0.62500000  1
loop_
_geom_bond_atom_site_label_1
_geom_bond_atom_site_label_2
_geom_bond_distance
_geom_bond_site_symmetry_2
La0 Mg0 3.215991 1_555
La0 Mg4 3.215991 1_555
La0 Mg4 3.215991 1_445
La0 Mg0 3.215991 1_545
La0 Mg2 3.215991 1_455
La0 Mg2 3.215992 1_555
La0 Mg7 3.313488 1_554
La0 Mg6 3.313488 1_555
La0 Mg9 3.313494 1_554
La0 Mg8 3.313494 1_555
La0 Mg11 3.313494 1_454
La0 Mg10 3.313494 1_455
Mg0 Mg2 3.073146 1_565
Mg0 Mg4 3.073147 1_555
Mg0 Mg12 3.149928 1_455
Mg0 Mg13 3.149928 1_454
Mg0 Mg9 3.315253 1_554
Mg0 Mg8 3.315253 1_555
Mg0 Mg7 3.315259 1_564
Mg0 Mg6 3.315259 1_565
Mg0 Mg2 3.356751 1_455
Mg0 Mg4 3.356752 1_455
Mg1 Mg8 3.105699 1_555
Mg1 Mg9 3.105699 1_555
Mg1 Mg7 3.105705 1_565
Mg1 Mg6 3.105705 1_565
Mg1 Mg3 3.135549 1_455
Mg1 Mg5 3.135549 1_455
Mg1 Si0 3.215276 1_565
Mg1 Si0 3.215276 1_555
Mg1 Mg13 3.285946 1_455
Mg1 Mg12 3.285946 1_455
Mg1 Mg3 3.294349 1_565
Mg1 Mg5 3.294349 1_555
Mg2 Mg4 3.073146 1_545
Mg2 Mg7 3.315259 1_554
Mg2 Mg6 3.315259 1_555
Mg2 Mg4 3.356751 1_555
Mg3 Mg6 3.105706 1_555
Mg3 Mg7 3.105706 1_555
Mg3 Mg5 3.135549 1_555
Mg3 Si0 3.215276 1_655
Mg3 Si0 3.215276 1_555
Mg3 Mg5 3.294349 1_545
Mg4 Mg9 3.315259 1_554
Mg4 Mg8 3.315259 1_555
Mg5 Mg8 3.105706 1_555
Mg5 Mg9 3.105706 1_555
Mg5 Si0 3.215276 1_665
Mg5 Si0 3.215276 1_555
Mg6 Si0 3.066718 1_555
Mg6 Mg8 3.166834 1_555
Mg6 Mg8 3.263064 1_545
Mg7 Si0 3.066718 1_555
Mg7 Mg9 3.166834 1_555
Mg7 Mg9 3.263064 1_545
Mg8 Si0 3.066725 1_555
Mg9 Si0 3.066725 1_555
Mg10 Si0 3.066725 1_655
Mg10 Mg3 3.105699 1_555
Mg10 Mg5 3.105705 1_545
Mg10 Mg8 3.166834 1_655
Mg10 Mg6 3.166834 1_655
Mg10 Mg12 3.227257 1_545
Mg10 Mg12 3.227257 1_555
Mg10 Mg8 3.263064 1_545
Mg10 Mg6 3.263064 1_555
Mg10 Mg2 3.315253 1_555
Mg10 Mg4 3.315259 1_545
Mg11 Si0 3.066725 1_655
Mg11 Mg3 3.105699 1_555
Mg11 Mg5 3.105705 1_545
Mg11 Mg9 3.166834 1_655
Mg11 Mg7 3.166834 1_655
Mg11 Mg13 3.227257 1_545
Mg11 Mg13 3.227257 1_555
Mg11 Mg9 3.263064 1_545
Mg11 Mg7 3.263064 1_555
Mg11 Mg2 3.315253 1_556
Mg11 Mg4 3.315259 1_546
Mg12 Mg4 3.149921 1_555
Mg12 Mg2 3.149928 1_555
Mg12 Mg6 3.227257 1_665
Mg12 Mg6 3.227257 1_555
Mg12 Mg8 3.227258 1_555
Mg12 Mg8 3.227258 1_655
Mg12 Mg5 3.285939 1_555
Mg12 Mg3 3.285946 1_555
Mg13 Mg4 3.149921 1_556
Mg13 Mg2 3.149928 1_556
Mg13 Mg7 3.227257 1_665
Mg13 Mg7 3.227257 1_555
Mg13 Mg9 3.227258 1_555
Mg13 Mg9 3.227258 1_655
Mg13 Mg5 3.285939 1_555
Mg13 Mg3 3.285946 1_555
