# generated using pymatgen
data_V5Ge3
_symmetry_space_group_name_H-M   'P 1'
_cell_length_a   4.85306600
_cell_length_b   7.19274431
_cell_length_c   7.19274431
_cell_angle_alpha   83.46497162
_cell_angle_beta   70.28399102
_cell_angle_gamma   70.28399102
_symmetry_Int_Tables_number   1
_chemical_formula_structural   V5Ge3
_chemical_formula_sum   'V10 Ge6'
_cell_volume   222.50100741
_cell_formula_units_Z   2
loop_
 _symmetry_equiv_pos_site_id
 _symmetry_equiv_pos_as_xyz
  1  'x, y, z'
loop_
 _atom_site_type_symbol
 _atom_site_label
 _atom_site_symmetry_multiplicity
 _atom_site_fract_x
 _atom_site_fract_y
 _atom_site_fract_z
 _atom_site_occupancy
  V  V0  1  0.72858900  0.84627900  0.69654200  1
  V  V1  1  0.27141100  0.15372100  0.30345800  1
  V  V2  1  0.77141100  0.30345800  0.15372100  1
  V  V3  1  0.22858900  0.69654200  0.84627900  1
  V  V4  1  0.57486800  0.69654200  0.15372100  1
  V  V5  1  0.42513200  0.30345800  0.84627900  1
  V  V6  1  0.07486800  0.15372100  0.69654200  1
  V  V7  1  0.92513200  0.84627900  0.30345800  1
  V  V8  1  0.75000000  0.50000000  0.50000000  1
  V  V9  1  0.25000000  0.50000000  0.50000000  1
  Ge  Ge0  1  0.16639400  0.50000000  0.16721200  1
  Ge  Ge1  1  0.83360600  0.50000000  0.83278800  1
  Ge  Ge2  1  0.33360600  0.83278800  0.50000000  1
  Ge  Ge3  1  0.66639400  0.16721200  0.50000000  1
  Ge  Ge4  1  0.25000000  0.00000000  0.00000000  1
  Ge  Ge5  1  0.75000000  0.00000000  0.00000000  1
loop_
_geom_bond_atom_site_label_1
_geom_bond_atom_site_label_2
_geom_bond_distance
_geom_bond_site_symmetry_2
V8 V9 2.426533 1_655
V8 V9 2.426533 1_555
Ge0 V7 2.519643 1_455
Ge0 V1 2.519643 1_555
Ge0 V3 2.548183 1_554
Ge0 V5 2.548183 1_554
Ge0 V9 2.559205 1_555
Ge0 V8 2.559205 1_455
Ge0 V2 2.769012 1_455
Ge0 V4 2.769012 1_555
Ge0 V4 2.769016 1_455
Ge0 V2 2.769016 1_555
Ge1 V6 2.519643 1_655
Ge1 V0 2.519643 1_555
Ge1 V2 2.548183 1_556
Ge1 V4 2.548183 1_556
Ge1 V8 2.559205 1_555
Ge1 V9 2.559205 1_655
Ge1 V3 2.769012 1_655
Ge1 V5 2.769012 1_555
Ge1 V5 2.769016 1_655
Ge1 V3 2.769016 1_555
Ge2 V4 2.519643 1_555
Ge2 V3 2.519643 1_555
Ge2 V1 2.548183 1_565
Ge2 V6 2.548183 1_565
Ge2 V9 2.559205 1_555
Ge2 V8 2.559205 1_555
Ge2 V0 2.769012 1_555
Ge2 V7 2.769012 1_455
Ge2 V7 2.769016 1_555
Ge2 V0 2.769016 1_455
Ge3 V5 2.519643 1_555
Ge3 V2 2.519643 1_555
Ge3 V0 2.548183 1_545
Ge3 V7 2.548183 1_545
Ge3 V8 2.559205 1_555
Ge3 V9 2.559205 1_555
Ge3 V1 2.769012 1_555
Ge3 V6 2.769012 1_655
Ge3 V6 2.769016 1_555
Ge3 V1 2.769016 1_655
Ge4 Ge5 2.426533 1_555
Ge4 Ge5 2.426533 1_455
Ge4 V4 2.603333 1_545
Ge4 V7 2.603333 1_445
Ge4 V0 2.603333 1_544
Ge4 V2 2.603333 1_455
Ge4 V3 2.603335 1_544
Ge4 V1 2.603335 1_555
Ge4 V5 2.603335 1_554
Ge4 V6 2.603335 1_554
Ge5 V6 2.603333 1_654
Ge5 V5 2.603333 1_554
Ge5 V1 2.603333 1_555
Ge5 V3 2.603333 1_644
Ge5 V2 2.603335 1_555
Ge5 V0 2.603335 1_544
Ge5 V7 2.603335 1_545
Ge5 V4 2.603335 1_545
