# generated using pymatgen
data_DySnRh
_symmetry_space_group_name_H-M   'P 1'
_cell_length_a   7.56868219
_cell_length_b   7.56868219
_cell_length_c   3.77650365
_cell_angle_alpha   90.00000000
_cell_angle_beta   90.00000000
_cell_angle_gamma   119.99999620
_symmetry_Int_Tables_number   1
_chemical_formula_structural   DySnRh
_chemical_formula_sum   'Dy3 Sn3 Rh3'
_cell_volume   187.35319153
_cell_formula_units_Z   3
loop_
 _symmetry_equiv_pos_site_id
 _symmetry_equiv_pos_as_xyz
  1  'x, y, z'
loop_
 _atom_site_type_symbol
 _atom_site_label
 _atom_site_symmetry_multiplicity
 _atom_site_fract_x
 _atom_site_fract_y
 _atom_site_fract_z
 _atom_site_occupancy
  Dy  Dy0  1  0.40604034  0.40604034  0.50000000  1
  Dy  Dy1  1  0.59395966  0.00000000  0.50000000  1
  Dy  Dy2  1  0.00000000  0.59395966  0.50000000  1
  Sn  Sn0  1  0.73712073  0.73712073  0.00000000  1
  Sn  Sn1  1  0.26287927  0.00000000  -0.00000000  1
  Sn  Sn2  1  0.00000000  0.26287927  -0.00000000  1
  Rh  Rh0  1  0.66666700  0.33333300  0.00000000  1
  Rh  Rh1  1  0.33333300  0.66666700  0.00000000  1
  Rh  Rh2  1  -0.00000000  -0.00000000  0.50000000  1
loop_
_geom_bond_atom_site_label_1
_geom_bond_atom_site_label_2
_geom_bond_distance
_geom_bond_site_symmetry_2
Dy0 Rh0 2.974054 1_556
Dy0 Rh0 2.974054 1_555
Dy0 Rh1 2.974054 1_555
Dy0 Rh1 2.974054 1_556
Dy0 Rh2 3.073190 1_555
Dy0 Sn0 3.137633 1_555
Dy0 Sn0 3.137633 1_556
Dy0 Sn2 3.294560 1_556
Dy0 Sn2 3.294560 1_555
Dy0 Sn1 3.294560 1_555
Dy0 Sn1 3.294560 1_556
Dy1 Rh0 2.974048 1_555
Dy1 Rh0 2.974048 1_556
Dy1 Rh1 2.974050 1_545
Dy1 Rh1 2.974050 1_546
Dy1 Rh2 3.073190 1_655
Dy1 Sn1 3.137633 1_555
Dy1 Sn1 3.137633 1_556
Dy1 Sn0 3.294560 1_545
Dy1 Sn0 3.294560 1_546
Dy1 Sn2 3.294560 1_656
Dy1 Sn2 3.294560 1_655
Dy2 Rh1 2.974048 1_555
Dy2 Rh1 2.974048 1_556
Dy2 Rh0 2.974050 1_456
Dy2 Rh0 2.974050 1_455
Dy2 Rh2 3.073190 1_565
Dy2 Sn2 3.137633 1_556
Dy2 Sn2 3.137633 1_555
Dy2 Sn0 3.294560 1_455
Dy2 Sn0 3.294560 1_456
Dy2 Sn1 3.294560 1_566
Dy2 Sn1 3.294560 1_565
Rh0 Sn2 2.827479 1_655
Rh0 Sn1 2.827484 1_555
Rh0 Sn0 2.827487 1_555
Rh1 Sn1 2.827479 1_565
Rh1 Sn2 2.827484 1_555
Rh1 Sn0 2.827487 1_555
Rh2 Sn2 2.743028 1_555
Rh2 Sn1 2.743028 1_555
Rh2 Sn2 2.743028 1_556
Rh2 Sn1 2.743028 1_556
Rh2 Sn0 2.743028 1_446
Rh2 Sn0 2.743028 1_445
