# generated using pymatgen
data_YMg30VO32
_symmetry_space_group_name_H-M   'P 1'
_cell_length_a   8.62225100
_cell_length_b   8.62225100
_cell_length_c   8.63647400
_cell_angle_alpha   90.00000000
_cell_angle_beta   90.00000000
_cell_angle_gamma   90.00000000
_symmetry_Int_Tables_number   1
_chemical_formula_structural   YMg30VO32
_chemical_formula_sum   'Y1 Mg30 V1 O32'
_cell_volume   642.06322017
_cell_formula_units_Z   1
loop_
 _symmetry_equiv_pos_site_id
 _symmetry_equiv_pos_as_xyz
  1  'x, y, z'
loop_
 _atom_site_type_symbol
 _atom_site_label
 _atom_site_symmetry_multiplicity
 _atom_site_fract_x
 _atom_site_fract_y
 _atom_site_fract_z
 _atom_site_occupancy
  Y  Y0  1  0.00000000  0.00000000  0.00000000  1
  Mg  Mg0  1  0.00000000  0.50000000  0.00000000  1
  Mg  Mg1  1  0.00000000  0.50000000  0.50000000  1
  Mg  Mg2  1  0.50000000  0.00000000  0.00000000  1
  Mg  Mg3  1  0.50000000  0.00000000  0.50000000  1
  Mg  Mg4  1  0.50000000  0.50000000  0.00000000  1
  Mg  Mg5  1  0.50000000  0.50000000  0.50000000  1
  Mg  Mg6  1  0.00000000  0.25688600  0.25593700  1
  Mg  Mg7  1  0.00000000  0.25688600  0.74406300  1
  Mg  Mg8  1  0.00000000  0.74311400  0.25593700  1
  Mg  Mg9  1  0.00000000  0.74311400  0.74406300  1
  Mg  Mg10  1  0.50000000  0.25089200  0.25098400  1
  Mg  Mg11  1  0.50000000  0.25089200  0.74901600  1
  Mg  Mg12  1  0.50000000  0.74910800  0.25098400  1
  Mg  Mg13  1  0.50000000  0.74910800  0.74901600  1
  Mg  Mg14  1  0.25688600  0.00000000  0.25593700  1
  Mg  Mg15  1  0.25688600  0.00000000  0.74406300  1
  Mg  Mg16  1  0.25089200  0.50000000  0.25098400  1
  Mg  Mg17  1  0.25089200  0.50000000  0.74901600  1
  Mg  Mg18  1  0.74311400  0.00000000  0.25593700  1
  Mg  Mg19  1  0.74311400  0.00000000  0.74406300  1
  Mg  Mg20  1  0.74910800  0.50000000  0.25098400  1
  Mg  Mg21  1  0.74910800  0.50000000  0.74901600  1
  Mg  Mg22  1  0.25640700  0.25640700  0.00000000  1
  Mg  Mg23  1  0.25133800  0.25133800  0.50000000  1
  Mg  Mg24  1  0.25640700  0.74359300  0.00000000  1
  Mg  Mg25  1  0.25133800  0.74866200  0.50000000  1
  Mg  Mg26  1  0.74359300  0.25640700  0.00000000  1
  Mg  Mg27  1  0.74866200  0.25133800  0.50000000  1
  Mg  Mg28  1  0.74359300  0.74359300  0.00000000  1
  Mg  Mg29  1  0.74866200  0.74866200  0.50000000  1
  V  V0  1  0.00000000  0.00000000  0.50000000  1
  O  O0  1  0.25941500  0.00000000  0.00000000  1
  O  O1  1  0.25532300  0.00000000  0.50000000  1
  O  O2  1  0.25124900  0.50000000  0.00000000  1
  O  O3  1  0.25024100  0.50000000  0.50000000  1
  O  O4  1  0.74058500  0.00000000  0.00000000  1
  O  O5  1  0.74467700  0.00000000  0.50000000  1
  O  O6  1  0.74875100  0.50000000  0.00000000  1
  O  O7  1  0.74975900  0.50000000  0.50000000  1
  O  O8  1  0.24920700  0.24920700  0.24963900  1
  O  O9  1  0.24920700  0.24920700  0.75036100  1
  O  O10  1  0.24920700  0.75079300  0.24963900  1
  O  O11  1  0.24920700  0.75079300  0.75036100  1
  O  O12  1  0.75079300  0.24920700  0.24963900  1
  O  O13  1  0.75079300  0.24920700  0.75036100  1
  O  O14  1  0.75079300  0.75079300  0.24963900  1
  O  O15  1  0.75079300  0.75079300  0.75036100  1
  O  O16  1  0.00000000  0.00000000  0.25468700  1
  O  O17  1  0.00000000  0.00000000  0.74531300  1
  O  O18  1  0.00000000  0.50000000  0.25095800  1
  O  O19  1  0.00000000  0.50000000  0.74904200  1
  O  O20  1  0.50000000  0.00000000  0.25095800  1
  O  O21  1  0.50000000  0.00000000  0.74904200  1
  O  O22  1  0.50000000  0.50000000  0.24994500  1
  O  O23  1  0.50000000  0.50000000  0.75005500  1
  O  O24  1  0.00000000  0.25941500  0.00000000  1
  O  O25  1  0.00000000  0.25532300  0.50000000  1
  O  O26  1  0.00000000  0.74058500  0.00000000  1
  O  O27  1  0.00000000  0.74467700  0.50000000  1
  O  O28  1  0.50000000  0.25124900  0.00000000  1
  O  O29  1  0.50000000  0.25024100  0.50000000  1
  O  O30  1  0.50000000  0.74875100  0.00000000  1
  O  O31  1  0.50000000  0.74975900  0.50000000  1
loop_
_geom_bond_atom_site_label_1
_geom_bond_atom_site_label_2
_geom_bond_distance
_geom_bond_site_symmetry_2
Mg0 O26 2.074384 1_555
Mg0 O24 2.074384 1_555
Mg0 O2 2.166332 1_555
Mg0 O6 2.166332 1_455
Mg0 O18 2.167392 1_555
Mg0 O19 2.167392 1_554
Mg1 O27 2.109667 1_555
Mg1 O25 2.109667 1_555
Mg1 O18 2.150845 1_555
Mg1 O19 2.150845 1_555
Mg1 O3 2.157641 1_555
Mg1 O7 2.157641 1_455
Mg2 O4 2.074384 1_555
Mg2 O0 2.074384 1_555
Mg2 O28 2.166332 1_555
Mg2 O30 2.166332 1_545
Mg2 O21 2.167392 1_554
Mg2 O20 2.167392 1_555
Mg3 O5 2.109667 1_555
Mg3 O1 2.109667 1_555
Mg3 O21 2.150845 1_555
Mg3 O20 2.150845 1_555
Mg3 O29 2.157641 1_555
Mg3 O31 2.157641 1_545
Mg4 O30 2.144794 1_555
Mg4 O6 2.144794 1_555
Mg4 O2 2.144794 1_555
Mg4 O28 2.144794 1_555
Mg4 O22 2.158643 1_555
Mg4 O23 2.158643 1_554
Mg5 O31 2.153485 1_555
Mg5 O7 2.153485 1_555
Mg5 O29 2.153485 1_555
Mg5 O3 2.153485 1_555
Mg5 O23 2.159594 1_555
Mg5 O22 2.159594 1_555
Mg6 O18 2.096631 1_555
Mg6 O25 2.107887 1_555
Mg6 O8 2.150433 1_555
Mg6 O12 2.150433 1_455
Mg6 O24 2.210501 1_555
Mg6 O16 2.214962 1_555
Mg7 O19 2.096631 1_555
Mg7 O25 2.107887 1_555
Mg7 O9 2.150433 1_555
Mg7 O13 2.150433 1_455
Mg7 O24 2.210501 1_556
Mg7 O17 2.214962 1_555
Mg8 O18 2.096631 1_555
Mg8 O27 2.107887 1_555
Mg8 O10 2.150433 1_555
Mg8 O14 2.150433 1_455
Mg8 O26 2.210501 1_555
Mg8 O16 2.214962 1_565
Mg9 O19 2.096631 1_555
Mg9 O27 2.107887 1_555
Mg9 O11 2.150433 1_555
Mg9 O15 2.150433 1_455
Mg9 O26 2.210501 1_556
Mg9 O17 2.214962 1_565
Mg10 O22 2.147890 1_555
Mg10 O29 2.150628 1_555
Mg10 O12 2.162480 1_555
Mg10 O8 2.162480 1_555
Mg10 O20 2.163254 1_555
Mg10 O28 2.167619 1_555
Mg11 O23 2.147890 1_555
Mg11 O29 2.150628 1_555
Mg11 O13 2.162480 1_555
Mg11 O9 2.162480 1_555
Mg11 O21 2.163254 1_555
Mg11 O28 2.167619 1_556
Mg12 O22 2.147890 1_555
Mg12 O31 2.150628 1_555
Mg12 O14 2.162480 1_555
Mg12 O10 2.162480 1_555
Mg12 O20 2.163254 1_565
Mg12 O30 2.167619 1_555
Mg13 O23 2.147890 1_555
Mg13 O31 2.150628 1_555
Mg13 O15 2.162480 1_555
Mg13 O11 2.162480 1_555
Mg13 O21 2.163254 1_565
Mg13 O30 2.167619 1_556
Mg14 O20 2.096631 1_555
Mg14 O1 2.107887 1_555
Mg14 O8 2.150433 1_555
Mg14 O10 2.150433 1_545
Mg14 O0 2.210501 1_555
Mg14 O16 2.214962 1_555
Mg15 O21 2.096631 1_555
Mg15 O1 2.107887 1_555
Mg15 O9 2.150433 1_555
Mg15 O11 2.150433 1_545
Mg15 O0 2.210501 1_556
Mg15 O17 2.214962 1_555
Mg16 O22 2.147890 1_555
Mg16 O3 2.150628 1_555
Mg16 O10 2.162480 1_555
Mg16 O8 2.162480 1_555
Mg16 O18 2.163254 1_555
Mg16 O2 2.167619 1_555
Mg17 O23 2.147890 1_555
Mg17 O3 2.150628 1_555
Mg17 O11 2.162480 1_555
Mg17 O9 2.162480 1_555
Mg17 O19 2.163254 1_555
Mg17 O2 2.167619 1_556
Mg18 O20 2.096631 1_555
Mg18 O5 2.107887 1_555
Mg18 O12 2.150433 1_555
Mg18 O14 2.150433 1_545
Mg18 O4 2.210501 1_555
Mg18 O16 2.214962 1_655
Mg19 O21 2.096631 1_555
Mg19 O5 2.107887 1_555
Mg19 O13 2.150433 1_555
Mg19 O15 2.150433 1_545
Mg19 O4 2.210501 1_556
Mg19 O17 2.214962 1_655
Mg20 O22 2.147890 1_555
Mg20 O7 2.150628 1_555
Mg20 O14 2.162480 1_555
Mg20 O12 2.162480 1_555
Mg20 O18 2.163254 1_655
Mg20 O6 2.167619 1_555
Mg21 O23 2.147890 1_555
Mg21 O7 2.150628 1_555
Mg21 O15 2.162480 1_555
Mg21 O13 2.162480 1_555
Mg21 O19 2.163254 1_655
Mg21 O6 2.167619 1_556
Mg22 O2 2.100791 1_555
Mg22 O28 2.100791 1_555
Mg22 O8 2.157788 1_555
Mg22 O9 2.157788 1_554
Mg22 O0 2.210958 1_555
Mg22 O24 2.210958 1_555
Mg23 O3 2.144047 1_555
Mg23 O29 2.144047 1_555
Mg23 O9 2.162392 1_555
Mg23 O8 2.162392 1_555
Mg23 O25 2.167372 1_555
Mg23 O1 2.167372 1_555
Mg24 O30 2.100791 1_555
Mg24 O2 2.100791 1_555
Mg24 O10 2.157788 1_555
Mg24 O11 2.157788 1_554
Mg24 O26 2.210958 1_555
Mg24 O0 2.210958 1_565
Mg25 O3 2.144047 1_555
Mg25 O31 2.144047 1_555
Mg25 O11 2.162392 1_555
Mg25 O10 2.162392 1_555
Mg25 O27 2.167372 1_555
Mg25 O1 2.167372 1_565
Mg26 O28 2.100791 1_555
Mg26 O6 2.100791 1_555
Mg26 O12 2.157788 1_555
Mg26 O13 2.157788 1_554
Mg26 O4 2.210958 1_555
Mg26 O24 2.210958 1_655
Mg27 O29 2.144047 1_555
Mg27 O7 2.144047 1_555
Mg27 O13 2.162392 1_555
Mg27 O12 2.162392 1_555
Mg27 O5 2.167372 1_555
Mg27 O25 2.167372 1_655
Mg28 O30 2.100791 1_555
Mg28 O6 2.100791 1_555
Mg28 O14 2.157788 1_555
Mg28 O15 2.157788 1_554
Mg28 O4 2.210958 1_565
Mg28 O26 2.210958 1_655
Mg29 O7 2.144047 1_555
Mg29 O31 2.144047 1_555
Mg29 O15 2.162392 1_555
Mg29 O14 2.162392 1_555
Mg29 O5 2.167372 1_565
Mg29 O27 2.167372 1_655
O0 Y0 2.236741 1_555
O1 V0 2.201459 1_555
O4 Y0 2.236741 1_655
O5 V0 2.201459 1_655
O16 V0 2.118639 1_555
O16 Y0 2.199598 1_555
O17 V0 2.118639 1_555
O17 Y0 2.199598 1_556
O24 Y0 2.236741 1_555
O25 V0 2.201459 1_555
O26 Y0 2.236741 1_565
O27 V0 2.201459 1_565
