# generated using pymatgen
data_K2SnN6
_symmetry_space_group_name_H-M   'P 1'
_cell_length_a   6.36992477
_cell_length_b   6.36992477
_cell_length_c   6.36992477
_cell_angle_alpha   60.00000000
_cell_angle_beta   60.00000000
_cell_angle_gamma   60.00000000
_symmetry_Int_Tables_number   1
_chemical_formula_structural   K2SnN6
_chemical_formula_sum   'K2 Sn1 N6'
_cell_volume   182.76284579
_cell_formula_units_Z   1
loop_
 _symmetry_equiv_pos_site_id
 _symmetry_equiv_pos_as_xyz
  1  'x, y, z'
loop_
 _atom_site_type_symbol
 _atom_site_label
 _atom_site_symmetry_multiplicity
 _atom_site_fract_x
 _atom_site_fract_y
 _atom_site_fract_z
 _atom_site_occupancy
  K  K0  1  0.75000000  0.75000000  0.75000000  1
  K  K1  1  0.25000000  0.25000000  0.25000000  1
  Sn  Sn0  1  0.00000000  0.00000000  0.00000000  1
  N  N0  1  0.75891000  0.75891000  0.24109000  1
  N  N1  1  0.75891000  0.24109000  0.75891000  1
  N  N2  1  0.24109000  0.75891000  0.75891000  1
  N  N3  1  0.24109000  0.24109000  0.75891000  1
  N  N4  1  0.24109000  0.75891000  0.24109000  1
  N  N5  1  0.75891000  0.24109000  0.24109000  1
loop_
_geom_bond_atom_site_label_1
_geom_bond_atom_site_label_2
_geom_bond_distance
_geom_bond_site_symmetry_2
K0 N5 3.185974 1_565
K0 N2 3.185974 1_655
K0 N1 3.185974 1_555
K0 N2 3.185974 1_555
K0 N3 3.185974 1_655
K0 N0 3.185974 1_556
K0 N4 3.185974 1_556
K0 N3 3.185974 1_565
K0 N5 3.185974 1_556
K0 N0 3.185974 1_555
K0 N1 3.185974 1_565
K0 N4 3.185974 1_655
K1 N5 3.185974 1_555
K1 N4 3.185974 1_555
K1 N3 3.185974 1_554
K1 N0 3.185974 1_455
K1 N2 3.185974 1_545
K1 N0 3.185974 1_545
K1 N2 3.185974 1_554
K1 N1 3.185974 1_554
K1 N3 3.185974 1_555
K1 N4 3.185974 1_545
K1 N1 3.185974 1_455
K1 N5 3.185974 1_455
N0 Sn0 2.171843 1_665
N1 Sn0 2.171843 1_656
N2 Sn0 2.171843 1_566
N3 Sn0 2.171843 1_556
N4 Sn0 2.171843 1_565
N5 Sn0 2.171843 1_655
