# generated using pymatgen
data_CaFeO3
_symmetry_space_group_name_H-M   'P 1'
_cell_length_a   5.37098506
_cell_length_b   5.50277701
_cell_length_c   7.66960104
_cell_angle_alpha   89.99956389
_cell_angle_beta   88.82901138
_cell_angle_gamma   90.00498281
_symmetry_Int_Tables_number   1
_chemical_formula_structural   CaFeO3
_chemical_formula_sum   'Ca4 Fe4 O12'
_cell_volume   226.63027305
_cell_formula_units_Z   4
loop_
 _symmetry_equiv_pos_site_id
 _symmetry_equiv_pos_as_xyz
  1  'x, y, z'
loop_
 _atom_site_type_symbol
 _atom_site_label
 _atom_site_symmetry_multiplicity
 _atom_site_fract_x
 _atom_site_fract_y
 _atom_site_fract_z
 _atom_site_occupancy
  Ca  Ca0  1  0.51111100  0.54943600  0.75149000  1
  Ca  Ca1  1  0.48888700  0.45055700  0.24851500  1
  Ca  Ca2  1  0.98908200  0.04937500  0.74849400  1
  Ca  Ca3  1  0.01091600  0.95062200  0.25150800  1
  Fe  Fe0  1  0.99999800  0.50000500  0.99998900  1
  Fe  Fe1  1  0.00001500  0.50000000  0.49999500  1
  Fe  Fe2  1  0.49998900  0.00002100  0.49999400  1
  Fe  Fe3  1  0.50001200  0.99999100  0.00000100  1
  O  O0  1  0.42493100  0.98472700  0.74474900  1
  O  O1  1  0.92499200  0.51535300  0.24479800  1
  O  O2  1  0.07500200  0.48464900  0.75520600  1
  O  O3  1  0.57506800  0.01527100  0.25524900  1
  O  O4  1  0.21346800  0.19935400  0.04160900  1
  O  O5  1  0.20099900  0.21098300  0.45945800  1
  O  O6  1  0.70116600  0.28925300  0.95957000  1
  O  O7  1  0.79900900  0.78901600  0.54054500  1
  O  O8  1  0.28623300  0.69907300  0.45841400  1
  O  O9  1  0.78653100  0.80064200  0.95839300  1
  O  O10  1  0.71376100  0.30092400  0.54158600  1
  O  O11  1  0.29883000  0.71074800  0.04043400  1
loop_
_geom_bond_atom_site_label_1
_geom_bond_atom_site_label_2
_geom_bond_distance
_geom_bond_site_symmetry_2
Ca0 O10 2.361174 1_555
Ca0 O2 2.368875 1_555
Ca0 O6 2.388622 1_555
Ca0 O0 2.440410 1_555
Ca0 O7 2.577584 1_555
Ca0 O9 2.590918 1_555
Ca0 O11 2.626000 1_556
Ca0 O8 2.701934 1_555
Ca1 O8 2.361170 1_555
Ca1 O1 2.368861 1_555
Ca1 O11 2.388658 1_555
Ca1 O3 2.440382 1_555
Ca1 O5 2.577526 1_555
Ca1 O4 2.590920 1_555
Ca1 O6 2.625987 1_554
Ca1 O10 2.701885 1_555
Ca2 O9 2.361491 1_545
Ca2 O0 2.367439 1_645
Ca2 O7 2.388474 1_545
Ca2 O2 2.439969 1_655
Ca2 O6 2.579248 1_555
Ca2 O10 2.591764 1_555
Ca2 O5 2.626247 1_655
Ca2 O4 2.701481 1_656
Ca3 O4 2.361490 1_565
Ca3 O3 2.367435 1_465
Ca3 O5 2.388509 1_565
Ca3 O1 2.439946 1_455
Ca3 O11 2.579221 1_555
Ca3 O8 2.591741 1_555
Ca3 O7 2.626228 1_455
Ca3 O9 2.701480 1_454
Fe0 O2 1.913924 1_655
Fe0 O1 1.914119 1_556
Fe0 O6 2.009270 1_555
Fe0 O11 2.009275 1_656
Fe0 O9 2.041669 1_555
Fe0 O4 2.041771 1_656
Fe1 O8 1.909082 1_555
Fe1 O10 1.909258 1_455
Fe1 O5 1.943680 1_555
Fe1 O7 1.943755 1_455
Fe1 O1 2.008135 1_455
Fe1 O2 2.008197 1_555
Fe2 O3 1.913687 1_555
Fe2 O0 1.913751 1_545
Fe2 O5 2.010929 1_555
Fe2 O7 2.011215 1_545
Fe2 O10 2.043617 1_555
Fe2 O8 2.043754 1_545
Fe3 O9 1.911437 1_554
Fe3 O4 1.911589 1_565
Fe3 O11 1.945009 1_555
Fe3 O6 1.945009 1_564
Fe3 O3 2.008538 1_565
Fe3 O0 2.008594 1_554
