# generated using pymatgen
data_Rb2Li5(BO2)7
_symmetry_space_group_name_H-M   'P 1'
_cell_length_a   7.17719553
_cell_length_b   7.17719553
_cell_length_c   20.85006700
_cell_angle_alpha   90.00000000
_cell_angle_beta   90.00000000
_cell_angle_gamma   143.85177344
_symmetry_Int_Tables_number   1
_chemical_formula_structural   Rb2Li5(BO2)7
_chemical_formula_sum   'Rb4 Li10 B14 O28'
_cell_volume   633.54565493
_cell_formula_units_Z   2
loop_
 _symmetry_equiv_pos_site_id
 _symmetry_equiv_pos_as_xyz
  1  'x, y, z'
loop_
 _atom_site_type_symbol
 _atom_site_label
 _atom_site_symmetry_multiplicity
 _atom_site_fract_x
 _atom_site_fract_y
 _atom_site_fract_z
 _atom_site_occupancy
  Rb  Rb0  1  0.65445800  0.28017000  0.84420300  1
  Rb  Rb1  1  0.28017000  0.65445800  0.15579700  1
  Rb  Rb2  1  0.65445800  0.28017000  0.65579700  1
  Rb  Rb3  1  0.28017000  0.65445800  0.34420300  1
  Li  Li0  1  0.29434300  0.63568100  0.75000000  1
  Li  Li1  1  0.63568100  0.29434300  0.25000000  1
  Li  Li2  1  0.96940400  0.00314400  0.93562900  1
  Li  Li3  1  0.00314400  0.96940400  0.06437100  1
  Li  Li4  1  0.96940400  0.00314400  0.56437100  1
  Li  Li5  1  0.00314400  0.96940400  0.43562900  1
  Li  Li6  1  0.39816800  0.56640400  0.01178800  1
  Li  Li7  1  0.56640400  0.39816800  0.98821200  1
  Li  Li8  1  0.39816800  0.56640400  0.48821200  1
  Li  Li9  1  0.56640400  0.39816800  0.51178800  1
  B  B0  1  0.05698800  0.87652100  0.75000000  1
  B  B1  1  0.87652100  0.05698800  0.25000000  1
  B  B2  1  0.89120700  0.03206800  0.81055000  1
  B  B3  1  0.03206800  0.89120700  0.18945000  1
  B  B4  1  0.89120700  0.03206800  0.68945000  1
  B  B5  1  0.03206800  0.89120700  0.31055000  1
  B  B6  1  0.75966400  0.15976900  0.00693100  1
  B  B7  1  0.15976900  0.75966400  0.99306900  1
  B  B8  1  0.75966400  0.15976900  0.49306900  1
  B  B9  1  0.15976900  0.75966400  0.50693100  1
  B  B10  1  0.38416400  0.53282100  0.87355000  1
  B  B11  1  0.53282100  0.38416400  0.12645000  1
  B  B12  1  0.38416400  0.53282100  0.62645000  1
  B  B13  1  0.53282100  0.38416400  0.37355000  1
  O  O0  1  0.15852500  0.78047500  0.75000000  1
  O  O1  1  0.78047500  0.15852500  0.25000000  1
  O  O2  1  0.00423900  0.92754800  0.80802000  1
  O  O3  1  0.92754800  0.00423900  0.19198000  1
  O  O4  1  0.00423900  0.92754800  0.69198000  1
  O  O5  1  0.92754800  0.00423900  0.30802000  1
  O  O6  1  0.86275700  0.42468900  0.99163100  1
  O  O7  1  0.42468900  0.86275700  0.00836900  1
  O  O8  1  0.86275700  0.42468900  0.50836900  1
  O  O9  1  0.42468900  0.86275700  0.49163100  1
  O  O10  1  0.94233000  0.17285900  0.75000000  1
  O  O11  1  0.17285900  0.94233000  0.25000000  1
  O  O12  1  0.54383800  0.75621400  0.82529900  1
  O  O13  1  0.75621400  0.54383800  0.17470100  1
  O  O14  1  0.54383800  0.75621400  0.67470100  1
  O  O15  1  0.75621400  0.54383800  0.32529900  1
  O  O16  1  0.05308700  0.25422000  0.86603800  1
  O  O17  1  0.25422000  0.05308700  0.13396200  1
  O  O18  1  0.05308700  0.25422000  0.63396200  1
  O  O19  1  0.25422000  0.05308700  0.36603800  1
  O  O20  1  0.52012800  0.56798400  0.92687800  1
  O  O21  1  0.56798400  0.52012800  0.07312200  1
  O  O22  1  0.52012800  0.56798400  0.57312200  1
  O  O23  1  0.56798400  0.52012800  0.42687800  1
  O  O24  1  0.94301600  0.16305700  0.01975800  1
  O  O25  1  0.16305700  0.94301600  0.98024200  1
  O  O26  1  0.94301600  0.16305700  0.48024200  1
  O  O27  1  0.16305700  0.94301600  0.51975800  1
loop_
_geom_bond_atom_site_label_1
_geom_bond_atom_site_label_2
_geom_bond_distance
_geom_bond_site_symmetry_2
Li0 O0 1.914732 1_555
Li0 O10 1.965617 1_455
Li0 O12 1.979393 1_555
Li0 O14 1.979393 1_555
Li1 O1 1.914732 1_555
Li1 O11 1.965617 1_545
Li1 O15 1.979393 1_555
Li1 O13 1.979393 1_555
Li2 O20 1.980154 1_545
Li2 O25 1.987948 1_645
Li2 O16 1.991339 1_655
Li2 O24 2.186560 1_556
Li2 O20 2.492583 1_655
Li3 O21 1.980154 1_455
Li3 O24 1.987948 1_465
Li3 O17 1.991339 1_565
Li3 O25 2.186560 1_554
Li3 O21 2.492583 1_565
Li4 O22 1.980154 1_545
Li4 O27 1.987948 1_645
Li4 O18 1.991339 1_655
Li4 O26 2.186560 1_555
Li4 O22 2.492583 1_655
Li5 O23 1.980154 1_455
Li5 O26 1.987948 1_465
Li5 O19 1.991339 1_565
Li5 O27 2.186560 1_555
Li5 O23 2.492583 1_565
Li6 O24 1.951116 1_455
Li6 O20 1.970925 1_554
Li6 O21 1.971020 1_555
Li6 O7 1.977757 1_555
Li7 O25 1.951116 1_545
Li7 O21 1.970925 1_556
Li7 O20 1.971020 1_555
Li7 O6 1.977757 1_555
Li8 O26 1.951116 1_455
Li8 O22 1.970925 1_555
Li8 O23 1.971020 1_555
Li8 O9 1.977757 1_555
Li9 O27 1.951116 1_545
Li9 O23 1.970925 1_555
Li9 O22 1.971020 1_555
Li9 O8 1.977757 1_555
B0 O0 1.348173 1_555
B0 O4 1.401713 1_555
B0 O2 1.401713 1_555
B1 O1 1.348173 1_555
B1 O3 1.401713 1_555
B1 O5 1.401713 1_555
B2 O10 1.466547 1_555
B2 O2 1.485425 1_645
B2 O16 1.496275 1_655
B2 O12 1.502819 1_545
B3 O11 1.466547 1_555
B3 O3 1.485425 1_465
B3 O17 1.496275 1_565
B3 O13 1.502819 1_455
B4 O10 1.466547 1_555
B4 O4 1.485425 1_645
B4 O18 1.496275 1_655
B4 O14 1.502819 1_545
B5 O11 1.466547 1_555
B5 O5 1.485425 1_465
B5 O19 1.496275 1_565
B5 O15 1.502819 1_455
B6 O24 1.324259 1_555
B6 O6 1.411533 1_554
B6 O7 1.431201 1_545
B7 O25 1.324259 1_555
B7 O7 1.411533 1_556
B7 O6 1.431201 1_455
B8 O26 1.324259 1_555
B8 O8 1.411533 1_555
B8 O9 1.431201 1_545
B9 O27 1.324259 1_555
B9 O9 1.411533 1_555
B9 O8 1.431201 1_455
B10 O20 1.361811 1_555
B10 O12 1.388774 1_555
B10 O16 1.412703 1_555
B11 O21 1.361811 1_555
B11 O13 1.388774 1_555
B11 O17 1.412703 1_555
B12 O22 1.361811 1_555
B12 O14 1.388774 1_555
B12 O18 1.412703 1_555
B13 O23 1.361811 1_555
B13 O15 1.388774 1_555
B13 O19 1.412703 1_555
O0 Rb2 2.962000 1_565
O0 Rb0 2.962000 1_565
O0 Rb0 2.976601 1_455
O0 Rb2 2.976601 1_455
O1 Rb1 2.962000 1_655
O1 Rb3 2.962000 1_655
O1 Rb3 2.976601 1_545
O1 Rb1 2.976601 1_545
O2 Rb0 3.101971 1_455
O2 Rb0 3.111039 1_565
O3 Rb1 3.101971 1_545
O3 Rb1 3.111039 1_655
O4 Rb2 3.101971 1_455
O4 Rb2 3.111039 1_565
O5 Rb3 3.101971 1_545
O5 Rb3 3.111039 1_655
O6 Rb0 3.202396 1_555
O7 Rb1 3.202396 1_555
O8 Rb2 3.202396 1_555
O9 Rb3 3.202396 1_555
O12 Rb0 3.178921 1_565
O13 Rb1 3.178921 1_655
O14 Rb2 3.178921 1_565
O15 Rb3 3.178921 1_655
O16 Rb0 3.047632 1_455
O17 Rb1 3.047632 1_545
O18 Rb2 3.047632 1_455
O19 Rb3 3.047632 1_545
