# generated using pymatgen
data_Sr2P7I
_symmetry_space_group_name_H-M   'P 1'
_cell_length_a   10.03651114
_cell_length_b   10.03651114
_cell_length_c   10.03651114
_cell_angle_alpha   90.00000000
_cell_angle_beta   90.00000000
_cell_angle_gamma   90.00000000
_symmetry_Int_Tables_number   1
_chemical_formula_structural   Sr2P7I
_chemical_formula_sum   'Sr8 P28 I4'
_cell_volume   1010.99338257
_cell_formula_units_Z   4
loop_
 _symmetry_equiv_pos_site_id
 _symmetry_equiv_pos_as_xyz
  1  'x, y, z'
loop_
 _atom_site_type_symbol
 _atom_site_label
 _atom_site_symmetry_multiplicity
 _atom_site_fract_x
 _atom_site_fract_y
 _atom_site_fract_z
 _atom_site_occupancy
  Sr  Sr0  1  0.15438715  0.65438715  0.84561285  1
  Sr  Sr1  1  0.65438715  0.84561285  0.15438715  1
  Sr  Sr2  1  0.84561285  0.15438715  0.65438715  1
  Sr  Sr3  1  0.34561285  0.34561285  0.34561285  1
  Sr  Sr4  1  0.90189183  0.40189183  0.09810817  1
  Sr  Sr5  1  0.40189183  0.09810817  0.90189183  1
  Sr  Sr6  1  0.09810817  0.90189183  0.40189183  1
  Sr  Sr7  1  0.59810817  0.59810817  0.59810817  1
  P  P0  1  0.71900473  0.21900473  0.28099527  1
  P  P1  1  0.21900473  0.28099527  0.71900473  1
  P  P2  1  0.28099527  0.71900473  0.21900473  1
  P  P3  1  0.78099527  0.78099527  0.78099527  1
  P  P4  1  0.30804045  0.46349561  0.64261407  1
  P  P5  1  0.35738593  0.80804045  0.03650439  1
  P  P6  1  0.96349561  0.85738593  0.69195955  1
  P  P7  1  0.80804045  0.03650439  0.35738593  1
  P  P8  1  0.85738593  0.69195955  0.96349561  1
  P  P9  1  0.46349561  0.64261407  0.30804045  1
  P  P10  1  0.69195955  0.96349561  0.85738593  1
  P  P11  1  0.64261407  0.30804045  0.46349561  1
  P  P12  1  0.03650439  0.35738593  0.80804045  1
  P  P13  1  0.19195955  0.53650439  0.14261407  1
  P  P14  1  0.14261407  0.19195955  0.53650439  1
  P  P15  1  0.53650439  0.14261407  0.19195955  1
  P  P16  1  0.35754963  0.45907727  0.03026107  1
  P  P17  1  0.96973893  0.85754963  0.04092273  1
  P  P18  1  0.95907727  0.46973893  0.64245037  1
  P  P19  1  0.85754963  0.04092273  0.96973893  1
  P  P20  1  0.46973893  0.64245037  0.95907727  1
  P  P21  1  0.45907727  0.03026107  0.35754963  1
  P  P22  1  0.64245037  0.95907727  0.46973893  1
  P  P23  1  0.03026107  0.35754963  0.45907727  1
  P  P24  1  0.04092273  0.96973893  0.85754963  1
  P  P25  1  0.14245037  0.54092273  0.53026107  1
  P  P26  1  0.53026107  0.14245037  0.54092273  1
  P  P27  1  0.54092273  0.53026107  0.14245037  1
  I  I0  1  0.34826026  0.84826026  0.65173974  1
  I  I1  1  0.84826026  0.65173974  0.34826026  1
  I  I2  1  0.65173974  0.34826026  0.84826026  1
  I  I3  1  0.15173974  0.15173974  0.15173974  1
loop_
_geom_bond_atom_site_label_1
_geom_bond_atom_site_label_2
_geom_bond_distance
_geom_bond_site_symmetry_2
P0 P11 2.177467 1_555
P0 P15 2.177467 1_555
P0 P7 2.177467 1_555
P0 Sr4 3.179263 1_555
P1 P14 2.177467 1_555
P1 P4 2.177467 1_555
P1 P12 2.177467 1_555
P1 Sr5 3.179263 1_555
P2 P9 2.177467 1_555
P2 P5 2.177467 1_555
P2 Sr6 3.179263 1_555
P3 P8 2.177467 1_555
P3 P6 2.177467 1_555
P3 Sr7 3.179263 1_555
P4 Sr0 3.193715 1_555
P4 Sr3 3.229165 1_555
P4 Sr7 3.240419 1_555
P5 Sr0 3.193715 1_554
P5 Sr1 3.229165 1_555
P5 Sr5 3.240419 1_564
P6 Sr0 3.193715 1_655
P6 Sr2 3.229165 1_565
P6 Sr6 3.240419 1_655
P7 Sr1 3.193715 1_545
P7 Sr2 3.229165 1_555
P7 Sr6 3.240419 1_645
P8 Sr1 3.193715 1_556
P8 Sr0 3.229165 1_655
P8 Sr4 3.240419 1_556
P9 Sr1 3.193715 1_555
P9 Sr3 3.229165 1_555
P9 Sr7 3.240419 1_555
P10 P19 2.153486 1_565
P10 P3 2.177467 1_555
P10 Sr2 3.193715 1_565
P10 Sr1 3.229165 1_556
P10 Sr5 3.240419 1_565
P11 P26 2.153486 1_555
P11 Sr2 3.193715 1_555
P11 Sr3 3.229165 1_555
P11 Sr7 3.240419 1_555
P12 P18 2.153486 1_455
P12 Sr2 3.193715 1_455
P12 Sr0 3.229165 1_555
P12 Sr4 3.240419 1_456
P13 P16 2.153486 1_555
P13 P2 2.177467 1_555
P13 Sr3 3.193715 1_555
P13 Sr0 3.229165 1_554
P13 Sr4 3.240419 1_455
P14 P23 2.153486 1_555
P14 Sr3 3.193715 1_555
P14 Sr2 3.229165 1_455
P14 Sr6 3.240419 1_545
P15 P21 2.153486 1_555
P15 Sr3 3.193715 1_555
P15 Sr1 3.229165 1_545
P15 Sr5 3.240419 1_554
P16 P27 2.272760 1_555
P16 P20 2.272760 1_554
P16 Sr3 3.365801 1_555
P16 Sr0 3.381514 1_554
P17 P8 2.153486 1_554
P17 P19 2.272760 1_564
P17 P24 2.272760 1_654
P17 Sr1 3.365801 1_555
P17 Sr0 3.381514 1_654
P18 P25 2.272760 1_655
P18 P23 2.272760 1_655
P18 Sr2 3.365801 1_555
P18 Sr0 3.381514 1_655
P19 P24 2.272760 1_645
P19 Sr2 3.365801 1_555
P19 Sr1 3.381514 1_546
P20 P5 2.153486 1_556
P20 P27 2.272760 1_556
P20 Sr0 3.365801 1_555
P20 Sr1 3.381514 1_556
P21 P26 2.272760 1_555
P21 P22 2.272760 1_545
P21 Sr3 3.365801 1_555
P21 Sr1 3.381514 1_545
P22 P7 2.153486 1_565
P22 P26 2.272760 1_565
P22 Sr1 3.365801 1_555
P22 Sr2 3.381514 1_565
P23 P25 2.272760 1_555
P23 Sr3 3.365801 1_555
P23 Sr2 3.381514 1_455
P24 P6 2.153486 1_455
P24 Sr0 3.365801 1_555
P24 Sr2 3.381514 1_465
P25 P4 2.153486 1_555
P25 Sr0 3.365801 1_555
P25 Sr3 3.381514 1_555
P26 Sr2 3.365801 1_555
P26 Sr3 3.381514 1_555
P27 P9 2.153486 1_555
P27 Sr1 3.365801 1_555
P27 Sr3 3.381514 1_555
I0 Sr0 3.370241 1_555
I0 Sr5 3.589037 1_565
I0 Sr6 3.589037 1_555
I0 Sr7 3.589037 1_555
I1 Sr1 3.370241 1_555
I1 Sr6 3.589037 1_655
I1 Sr7 3.589037 1_555
I1 Sr4 3.589037 1_555
I2 Sr2 3.370241 1_555
I2 Sr4 3.589037 1_556
I2 Sr7 3.589037 1_555
I2 Sr5 3.589037 1_555
I3 Sr3 3.370241 1_555
I3 Sr5 3.589037 1_554
I3 Sr6 3.589037 1_545
I3 Sr4 3.589037 1_455
