# generated using pymatgen
data_CeCdO3
_symmetry_space_group_name_H-M   'P 1'
_cell_length_a   6.00582713
_cell_length_b   6.00248407
_cell_length_c   8.48096200
_cell_angle_alpha   90.00000000
_cell_angle_beta   90.00000000
_cell_angle_gamma   90.43534920
_symmetry_Int_Tables_number   1
_chemical_formula_structural   CeCdO3
_chemical_formula_sum   'Ce4 Cd4 O12'
_cell_volume   305.72885080
_cell_formula_units_Z   4
loop_
 _symmetry_equiv_pos_site_id
 _symmetry_equiv_pos_as_xyz
  1  'x, y, z'
loop_
 _atom_site_type_symbol
 _atom_site_label
 _atom_site_symmetry_multiplicity
 _atom_site_fract_x
 _atom_site_fract_y
 _atom_site_fract_z
 _atom_site_occupancy
  Ce  Ce0  1  0.50000000  0.50000000  0.00000000  1
  Ce  Ce1  1  0.50000000  0.50000000  0.50000000  1
  Ce  Ce2  1  0.00000000  0.00000000  0.00000000  1
  Ce  Ce3  1  0.00000000  0.00000000  0.50000000  1
  Cd  Cd0  1  0.46424000  0.96512500  0.25000000  1
  Cd  Cd1  1  0.53576000  0.03487500  0.75000000  1
  Cd  Cd2  1  0.01636400  0.51625100  0.25000000  1
  Cd  Cd3  1  0.98363600  0.48374900  0.75000000  1
  O  O0  1  0.66087600  0.83920100  0.99921000  1
  O  O1  1  0.33912400  0.16079900  0.00079000  1
  O  O2  1  0.33912400  0.16079900  0.49921000  1
  O  O3  1  0.66087600  0.83920100  0.50079000  1
  O  O4  1  0.39732400  0.56020000  0.25000000  1
  O  O5  1  0.60267600  0.43980000  0.75000000  1
  O  O6  1  0.05876800  0.89668100  0.25000000  1
  O  O7  1  0.94123200  0.10331900  0.75000000  1
  O  O8  1  0.82635400  0.32646500  0.06744100  1
  O  O9  1  0.17364600  0.67353500  0.93255900  1
  O  O10  1  0.17364600  0.67353500  0.56744100  1
  O  O11  1  0.82635400  0.32646500  0.43255900  1
loop_
_geom_bond_atom_site_label_1
_geom_bond_atom_site_label_2
_geom_bond_distance
_geom_bond_site_symmetry_2
Ce0 O5 2.238223 1_554
Ce0 O4 2.238223 1_555
Ce0 O1 2.247037 1_555
Ce0 O0 2.247037 1_554
Ce0 O8 2.298888 1_555
Ce0 O9 2.298888 1_554
Ce1 O5 2.238223 1_555
Ce1 O4 2.238223 1_555
Ce1 O2 2.247037 1_555
Ce1 O3 2.247037 1_555
Ce1 O11 2.298888 1_555
Ce1 O10 2.298888 1_555
Ce2 O7 2.237841 1_454
Ce2 O6 2.237841 1_545
Ce2 O1 2.247220 1_555
Ce2 O0 2.247220 1_444
Ce2 O9 2.299098 1_544
Ce2 O8 2.299098 1_455
Ce3 O7 2.237841 1_455
Ce3 O6 2.237841 1_545
Ce3 O2 2.247220 1_555
Ce3 O3 2.247220 1_445
Ce3 O10 2.299098 1_545
Ce3 O11 2.299098 1_455
Cd0 O4 2.460543 1_555
Cd0 O6 2.466527 1_555
Cd0 O1 2.534685 1_565
Cd0 O2 2.534685 1_565
Cd0 O0 2.550183 1_554
Cd0 O3 2.550183 1_555
Cd1 O5 2.460543 1_555
Cd1 O7 2.466527 1_555
Cd1 O3 2.534685 1_545
Cd1 O0 2.534685 1_545
Cd1 O2 2.550183 1_555
Cd1 O1 2.550183 1_556
Cd2 O11 2.231012 1_455
Cd2 O8 2.231012 1_455
Cd2 O6 2.295758 1_555
Cd2 O4 2.301146 1_555
Cd3 O9 2.231012 1_655
Cd3 O10 2.231012 1_655
Cd3 O7 2.295758 1_555
Cd3 O5 2.301146 1_555
