# generated using pymatgen
data_RbMg6Sb
_symmetry_space_group_name_H-M   'P 1'
_cell_length_a   7.09490810
_cell_length_b   7.09490810
_cell_length_c   5.18828900
_cell_angle_alpha   90.00000000
_cell_angle_beta   90.00000000
_cell_angle_gamma   120.65368680
_symmetry_Int_Tables_number   1
_chemical_formula_structural   RbMg6Sb
_chemical_formula_sum   'Rb1 Mg6 Sb1'
_cell_volume   224.67243727
_cell_formula_units_Z   1
loop_
 _symmetry_equiv_pos_site_id
 _symmetry_equiv_pos_as_xyz
  1  'x, y, z'
loop_
 _atom_site_type_symbol
 _atom_site_label
 _atom_site_symmetry_multiplicity
 _atom_site_fract_x
 _atom_site_fract_y
 _atom_site_fract_z
 _atom_site_occupancy
  Rb  Rb0  1  0.17212100  0.82787900  0.00000000  1
  Mg  Mg0  1  0.17869700  0.33603200  0.00000000  1
  Mg  Mg1  1  0.66396800  0.82130300  0.00000000  1
  Mg  Mg2  1  0.65591400  0.34408600  0.00000000  1
  Mg  Mg3  1  0.34997100  0.21055300  0.50000000  1
  Mg  Mg4  1  0.78944700  0.65002900  0.50000000  1
  Mg  Mg5  1  0.83097700  0.16902300  0.50000000  1
  Sb  Sb0  1  0.35890500  0.64109500  0.50000000  1
loop_
_geom_bond_atom_site_label_1
_geom_bond_atom_site_label_2
_geom_bond_distance
_geom_bond_site_symmetry_2
Rb0 Sb0 3.468827 1_554
Rb0 Sb0 3.468827 1_555
Mg0 Sb0 3.197982 1_555
Mg0 Sb0 3.197982 1_554
Mg0 Mg5 3.352476 1_454
Mg0 Mg5 3.352476 1_455
Mg0 Mg2 3.357037 1_555
Mg0 Rb0 3.513626 1_555
Mg0 Rb0 3.581736 1_545
Mg1 Sb0 3.197982 1_554
Mg1 Sb0 3.197982 1_555
Mg1 Mg5 3.352476 1_565
Mg1 Mg5 3.352476 1_564
Mg1 Mg2 3.357037 1_555
Mg1 Rb0 3.513626 1_555
Mg1 Rb0 3.581736 1_655
Mg2 Mg3 3.200290 1_554
Mg2 Mg4 3.200290 1_555
Mg2 Mg4 3.200290 1_554
Mg2 Mg3 3.200290 1_555
Mg2 Mg5 3.374623 1_554
Mg2 Mg5 3.374623 1_555
Mg2 Rb0 3.518025 1_545
Mg2 Rb0 3.518025 1_655
Mg3 Sb0 3.022831 1_555
Mg3 Rb0 3.492826 1_545
Mg3 Rb0 3.492826 1_546
Mg4 Sb0 3.022831 1_555
Mg4 Rb0 3.492826 1_656
Mg4 Rb0 3.492826 1_655
Mg5 Sb0 3.529183 1_545
Mg5 Sb0 3.529183 1_655
