# generated using pymatgen
data_Li9Mn7O16
_symmetry_space_group_name_H-M   'P 1'
_cell_length_a   5.10149900
_cell_length_b   5.74585566
_cell_length_c   11.15606167
_cell_angle_alpha   75.37550636
_cell_angle_beta   80.93844159
_cell_angle_gamma   73.62577953
_symmetry_Int_Tables_number   1
_chemical_formula_structural   Li9Mn7O16
_chemical_formula_sum   'Li9 Mn7 O16'
_cell_volume   302.26834748
_cell_formula_units_Z   1
loop_
 _symmetry_equiv_pos_site_id
 _symmetry_equiv_pos_as_xyz
  1  'x, y, z'
loop_
 _atom_site_type_symbol
 _atom_site_label
 _atom_site_symmetry_multiplicity
 _atom_site_fract_x
 _atom_site_fract_y
 _atom_site_fract_z
 _atom_site_occupancy
  Li  Li0  1  0.51563300  0.69208600  0.86637300  1
  Li  Li1  1  0.50152600  0.82961300  0.10547600  1
  Li  Li2  1  0.48436700  0.30791400  0.13362700  1
  Li  Li3  1  0.52040000  0.44013200  0.35530700  1
  Li  Li4  1  0.50907300  0.93870300  0.37081400  1
  Li  Li5  1  0.49092700  0.06129700  0.62918600  1
  Li  Li6  1  0.47960000  0.55986800  0.64469300  1
  Li  Li7  1  0.49847400  0.17038700  0.89452400  1
  Li  Li8  1  0.00000000  0.00000000  0.00000000  1
  Mn  Mn0  1  0.98227000  0.87941600  0.75967700  1
  Mn  Mn1  1  0.00000000  0.50000000  0.00000000  1
  Mn  Mn2  1  0.01773000  0.12058400  0.24032300  1
  Mn  Mn3  1  0.00085100  0.24722400  0.49988100  1
  Mn  Mn4  1  0.99324500  0.37368900  0.75530400  1
  Mn  Mn5  1  0.00675500  0.62631100  0.24469600  1
  Mn  Mn6  1  0.99914900  0.75277600  0.50011900  1
  O  O0  1  0.76550100  0.71045400  0.69260100  1
  O  O1  1  0.75771100  0.82428000  0.94201600  1
  O  O2  1  0.79211300  0.35314500  0.91393300  1
  O  O3  1  0.77187600  0.45689600  0.19576500  1
  O  O4  1  0.77121100  0.95550200  0.19910600  1
  O  O5  1  0.76458200  0.08719100  0.44743600  1
  O  O6  1  0.79630300  0.58847300  0.42265000  1
  O  O7  1  0.76582600  0.21858900  0.69346200  1
  O  O8  1  0.20788700  0.64685500  0.08606700  1
  O  O9  1  0.23417400  0.78141100  0.30653800  1
  O  O10  1  0.23449900  0.28954600  0.30739900  1
  O  O11  1  0.20369700  0.41152700  0.57735000  1
  O  O12  1  0.23541800  0.91280900  0.55256400  1
  O  O13  1  0.22878900  0.04449800  0.80089400  1
  O  O14  1  0.22812400  0.54310400  0.80423500  1
  O  O15  1  0.24228900  0.17572000  0.05798400  1
loop_
_geom_bond_atom_site_label_1
_geom_bond_atom_site_label_2
_geom_bond_distance
_geom_bond_site_symmetry_2
Li0 O1 1.998757 1_555
Li0 O2 2.056428 1_555
Li0 O0 2.142046 1_555
Li0 O14 2.166207 1_555
Li0 O13 2.166640 1_565
Li1 O15 2.047036 1_565
Li1 O1 2.071070 1_554
Li1 O8 2.120731 1_555
Li1 O4 2.214137 1_555
Li1 O3 2.277300 1_555
Li1 O9 2.429786 1_555
Li2 O15 1.998757 1_555
Li2 O8 2.056428 1_555
Li2 O10 2.142046 1_555
Li2 O3 2.166207 1_555
Li2 O4 2.166640 1_545
Li3 O3 2.021603 1_555
Li3 O10 2.086189 1_555
Li3 O9 2.090580 1_555
Li3 O6 2.145899 1_555
Li3 O5 2.155725 1_555
Li4 O5 2.122251 1_565
Li4 O10 2.127510 1_565
Li4 O6 2.132576 1_555
Li4 O4 2.153983 1_555
Li4 O9 2.157856 1_555
Li4 O12 2.270563 1_555
Li5 O12 2.122251 1_545
Li5 O0 2.127510 1_545
Li5 O11 2.132576 1_555
Li5 O13 2.153983 1_555
Li5 O7 2.157856 1_555
Li5 O5 2.270563 1_555
Li6 O14 2.021603 1_555
Li6 O0 2.086189 1_555
Li6 O7 2.090580 1_555
Li6 O11 2.145899 1_555
Li6 O12 2.155725 1_555
Li7 O1 2.047036 1_545
Li7 O15 2.071070 1_556
Li7 O2 2.120731 1_555
Li7 O13 2.214137 1_555
Li7 O14 2.277300 1_555
Li7 O7 2.429786 1_555
Li8 O15 2.061782 1_555
Li8 O1 2.061782 1_444
Li8 O2 2.070653 1_454
Li8 O8 2.070653 1_545
Li8 O13 2.329462 1_554
Li8 O4 2.329462 1_445
Mn0 O13 1.941064 1_665
Mn0 O7 1.969665 1_565
Mn0 O14 1.974630 1_655
Mn0 O0 1.989519 1_555
Mn0 O1 2.166983 1_555
Mn0 O12 2.453417 1_655
Mn1 O1 1.939768 1_454
Mn1 O15 1.939768 1_555
Mn1 O8 1.998275 1_555
Mn1 O2 1.998275 1_454
Mn1 O14 2.296562 1_554
Mn1 O3 2.296562 1_455
Mn2 O4 1.941064 1_445
Mn2 O9 1.969665 1_545
Mn2 O3 1.974630 1_455
Mn2 O10 1.989519 1_555
Mn2 O15 2.166983 1_555
Mn2 O5 2.453417 1_455
Mn3 O5 1.938907 1_455
Mn3 O12 1.955606 1_545
Mn3 O6 1.988053 1_455
Mn3 O11 1.988355 1_555
Mn3 O10 2.276945 1_555
Mn3 O7 2.290129 1_455
Mn4 O2 1.894558 1_555
Mn4 O13 1.924977 1_655
Mn4 O7 1.939522 1_555
Mn4 O14 1.952773 1_655
Mn4 O0 1.971894 1_555
Mn4 O11 2.093677 1_655
Mn5 O8 1.894558 1_555
Mn5 O4 1.924977 1_455
Mn5 O9 1.939522 1_555
Mn5 O3 1.952773 1_455
Mn5 O10 1.971894 1_555
Mn5 O6 2.093677 1_455
Mn6 O12 1.938907 1_655
Mn6 O5 1.955606 1_565
Mn6 O11 1.988053 1_655
Mn6 O6 1.988355 1_555
Mn6 O0 2.276945 1_555
Mn6 O9 2.290129 1_655
