# generated using pymatgen
data_CsNaMo3O10
_symmetry_space_group_name_H-M   'P 1'
_cell_length_a   7.68381200
_cell_length_b   7.94592600
_cell_length_c   19.33895500
_cell_angle_alpha   90.00000000
_cell_angle_beta   90.00000000
_cell_angle_gamma   90.00000000
_symmetry_Int_Tables_number   1
_chemical_formula_structural   CsNaMo3O10
_chemical_formula_sum   'Cs4 Na4 Mo12 O40'
_cell_volume   1180.73992750
_cell_formula_units_Z   4
loop_
 _symmetry_equiv_pos_site_id
 _symmetry_equiv_pos_as_xyz
  1  'x, y, z'
loop_
 _atom_site_type_symbol
 _atom_site_label
 _atom_site_symmetry_multiplicity
 _atom_site_fract_x
 _atom_site_fract_y
 _atom_site_fract_z
 _atom_site_occupancy
  Cs  Cs0  1  0.75000000  0.58958200  0.72648500  1
  Cs  Cs1  1  0.25000000  0.41041800  0.27351500  1
  Cs  Cs2  1  0.25000000  0.91041800  0.22648500  1
  Cs  Cs3  1  0.75000000  0.08958200  0.77351500  1
  Na  Na0  1  0.75000000  0.68472100  0.44550500  1
  Na  Na1  1  0.25000000  0.31527900  0.55449500  1
  Na  Na2  1  0.25000000  0.81527900  0.94550500  1
  Na  Na3  1  0.75000000  0.18472100  0.05449500  1
  Mo  Mo0  1  0.49660100  0.90480700  0.58774400  1
  Mo  Mo1  1  0.50339900  0.09519300  0.41225600  1
  Mo  Mo2  1  0.50339900  0.59519300  0.08774400  1
  Mo  Mo3  1  0.99660100  0.09519300  0.41225600  1
  Mo  Mo4  1  0.49660100  0.40480700  0.91225600  1
  Mo  Mo5  1  0.00339900  0.90480700  0.58774400  1
  Mo  Mo6  1  0.00339900  0.40480700  0.91225600  1
  Mo  Mo7  1  0.99660100  0.59519300  0.08774400  1
  Mo  Mo8  1  0.75000000  0.73646200  0.95475000  1
  Mo  Mo9  1  0.25000000  0.26353800  0.04525000  1
  Mo  Mo10  1  0.25000000  0.76353800  0.45475000  1
  Mo  Mo11  1  0.75000000  0.23646200  0.54525000  1
  O  O0  1  0.75000000  0.59325300  0.05897000  1
  O  O1  1  0.25000000  0.40674700  0.94103000  1
  O  O2  1  0.25000000  0.90674700  0.55897000  1
  O  O3  1  0.75000000  0.09325300  0.44103000  1
  O  O4  1  0.75000000  0.78459400  0.86628900  1
  O  O5  1  0.25000000  0.21540600  0.13371100  1
  O  O6  1  0.25000000  0.71540600  0.36628900  1
  O  O7  1  0.75000000  0.28459400  0.63371100  1
  O  O8  1  0.98881300  0.65704100  0.96966200  1
  O  O9  1  0.01118700  0.34295900  0.03033800  1
  O  O10  1  0.01118700  0.84295900  0.46966200  1
  O  O11  1  0.48881300  0.34295900  0.03033800  1
  O  O12  1  0.98881300  0.15704100  0.53033800  1
  O  O13  1  0.51118700  0.65704100  0.96966200  1
  O  O14  1  0.51118700  0.15704100  0.53033800  1
  O  O15  1  0.48881300  0.84295900  0.46966200  1
  O  O16  1  0.75000000  0.93042500  0.99666500  1
  O  O17  1  0.25000000  0.06957500  0.00333500  1
  O  O18  1  0.25000000  0.56957500  0.49666500  1
  O  O19  1  0.75000000  0.43042500  0.50333500  1
  O  O20  1  0.46559100  0.00309300  0.66723800  1
  O  O21  1  0.53440900  0.99690700  0.33276200  1
  O  O22  1  0.53440900  0.49690700  0.16723800  1
  O  O23  1  0.96559100  0.99690700  0.33276200  1
  O  O24  1  0.46559100  0.50309300  0.83276200  1
  O  O25  1  0.03440900  0.00309300  0.66723800  1
  O  O26  1  0.03440900  0.50309300  0.83276200  1
  O  O27  1  0.96559100  0.49690700  0.16723800  1
  O  O28  1  0.75000000  0.94866900  0.57503400  1
  O  O29  1  0.25000000  0.05133100  0.42496600  1
  O  O30  1  0.25000000  0.55133100  0.07503400  1
  O  O31  1  0.75000000  0.44866900  0.92496600  1
  O  O32  1  0.98237900  0.69310500  0.60883200  1
  O  O33  1  0.01762100  0.30689500  0.39116800  1
  O  O34  1  0.01762100  0.80689500  0.10883200  1
  O  O35  1  0.48237900  0.30689500  0.39116800  1
  O  O36  1  0.98237900  0.19310500  0.89116800  1
  O  O37  1  0.51762100  0.69310500  0.60883200  1
  O  O38  1  0.51762100  0.19310500  0.89116800  1
  O  O39  1  0.48237900  0.80689500  0.10883200  1
loop_
_geom_bond_atom_site_label_1
_geom_bond_atom_site_label_2
_geom_bond_distance
_geom_bond_site_symmetry_2
Cs0 O32 3.006956 1_555
Cs0 O37 3.006956 1_555
Cs0 O7 3.015279 1_555
Cs0 O26 3.077698 1_655
Cs0 O24 3.077698 1_555
Cs0 O4 3.116232 1_555
Cs1 O35 3.006956 1_555
Cs1 O33 3.006956 1_555
Cs1 O6 3.015279 1_555
Cs1 O27 3.077698 1_455
Cs1 O22 3.077698 1_555
Cs1 O5 3.116232 1_555
Cs2 O39 3.006956 1_555
Cs2 O34 3.006956 1_555
Cs2 O5 3.015279 1_565
Cs2 O21 3.077698 1_555
Cs2 O23 3.077698 1_455
Cs2 O6 3.116232 1_555
Cs3 O36 3.006956 1_555
Cs3 O38 3.006956 1_555
Cs3 O4 3.015279 1_545
Cs3 O25 3.077698 1_655
Cs3 O20 3.077698 1_555
Cs3 O7 3.116232 1_555
Na0 O19 2.309469 1_555
Na0 O10 2.413890 1_655
Na0 O15 2.413890 1_555
Na1 O18 2.309469 1_555
Na1 O14 2.413890 1_555
Na1 O12 2.413890 1_455
Na2 O17 2.309469 1_566
Na2 O13 2.413890 1_555
Na2 O8 2.413890 1_455
Na3 O16 2.309469 1_544
Na3 O9 2.413890 1_655
Na3 O11 2.413890 1_555
Mo0 O37 1.738417 1_555
Mo0 O20 1.740713 1_565
Mo0 O2 1.974914 1_555
Mo0 O28 1.993231 1_555
Mo0 O14 2.293903 1_565
Mo0 O15 2.336631 1_555
Mo1 O35 1.738417 1_555
Mo1 O21 1.740713 1_545
Mo1 O3 1.974914 1_555
Mo1 O29 1.993231 1_555
Mo1 O15 2.293903 1_545
Mo1 O14 2.336631 1_555
Mo2 O39 1.738417 1_555
Mo2 O22 1.740713 1_555
Mo2 O0 1.974914 1_555
Mo2 O30 1.993231 1_555
Mo2 O11 2.293903 1_555
Mo2 O13 2.336631 1_554
Mo3 O33 1.738417 1_655
Mo3 O23 1.740713 1_545
Mo3 O3 1.974914 1_555
Mo3 O29 1.993231 1_655
Mo3 O10 2.293903 1_645
Mo3 O12 2.336631 1_555
Mo4 O38 1.738417 1_555
Mo4 O24 1.740713 1_555
Mo4 O1 1.974914 1_555
Mo4 O31 1.993231 1_555
Mo4 O13 2.293903 1_555
Mo4 O11 2.336631 1_556
Mo5 O32 1.738417 1_455
Mo5 O25 1.740713 1_565
Mo5 O2 1.974914 1_555
Mo5 O28 1.993231 1_455
Mo5 O12 2.293903 1_465
Mo5 O10 2.336631 1_555
Mo6 O36 1.738417 1_455
Mo6 O26 1.740713 1_555
Mo6 O1 1.974914 1_555
Mo6 O31 1.993231 1_455
Mo6 O8 2.293903 1_455
Mo6 O9 2.336631 1_556
Mo7 O34 1.738417 1_655
Mo7 O27 1.740713 1_555
Mo7 O0 1.974914 1_555
Mo7 O30 1.993231 1_655
Mo7 O9 2.293903 1_655
Mo7 O8 2.336631 1_554
Mo8 O16 1.741380 1_555
Mo8 O4 1.752973 1_555
Mo8 O8 1.961790 1_555
Mo8 O13 1.961790 1_555
Mo8 O0 2.314551 1_556
Mo8 O31 2.358206 1_555
Mo9 O17 1.741380 1_555
Mo9 O5 1.752973 1_555
Mo9 O11 1.961790 1_555
Mo9 O9 1.961790 1_555
Mo9 O1 2.314551 1_554
Mo9 O30 2.358206 1_555
Mo10 O18 1.741380 1_555
Mo10 O6 1.752973 1_555
Mo10 O15 1.961790 1_555
Mo10 O10 1.961790 1_555
Mo10 O2 2.314551 1_555
Mo10 O29 2.358206 1_565
Mo11 O19 1.741380 1_555
Mo11 O7 1.752973 1_555
Mo11 O12 1.961790 1_555
Mo11 O14 1.961790 1_555
Mo11 O3 2.314551 1_555
Mo11 O28 2.358206 1_545
