# generated using pymatgen
data_BaMgSnF7
_symmetry_space_group_name_H-M   'P 1'
_cell_length_a   10.37032400
_cell_length_b   5.80196400
_cell_length_c   9.96785138
_cell_angle_alpha   87.33688026
_cell_angle_beta   90.00000000
_cell_angle_gamma   90.00000000
_symmetry_Int_Tables_number   1
_chemical_formula_structural   BaMgSnF7
_chemical_formula_sum   'Ba4 Mg4 Sn4 F28'
_cell_volume   599.10040503
_cell_formula_units_Z   4
loop_
 _symmetry_equiv_pos_site_id
 _symmetry_equiv_pos_as_xyz
  1  'x, y, z'
loop_
 _atom_site_type_symbol
 _atom_site_label
 _atom_site_symmetry_multiplicity
 _atom_site_fract_x
 _atom_site_fract_y
 _atom_site_fract_z
 _atom_site_occupancy
  Ba  Ba0  1  0.32621100  0.72873400  0.49530800  1
  Ba  Ba1  1  0.82621100  0.27126600  0.00469200  1
  Ba  Ba2  1  0.67378900  0.27126600  0.50469200  1
  Ba  Ba3  1  0.17378900  0.72873400  0.99530800  1
  Mg  Mg0  1  0.38899900  0.30573800  0.80688800  1
  Mg  Mg1  1  0.88899900  0.69426200  0.69311200  1
  Mg  Mg2  1  0.11100100  0.30573800  0.30688800  1
  Mg  Mg3  1  0.61100100  0.69426200  0.19311200  1
  Sn  Sn0  1  0.60018000  0.80155100  0.81745500  1
  Sn  Sn1  1  0.39982000  0.19844900  0.18254500  1
  Sn  Sn2  1  0.89982000  0.80155100  0.31745500  1
  Sn  Sn3  1  0.10018000  0.19844900  0.68254500  1
  F  F0  1  0.45098600  0.85611200  0.12532300  1
  F  F1  1  0.07288700  0.61596600  0.38301000  1
  F  F2  1  0.72239800  0.51530900  0.75353800  1
  F  F3  1  0.27760200  0.48469100  0.24646200  1
  F  F4  1  0.45986900  0.09499600  0.37918500  1
  F  F5  1  0.79901200  0.75809400  0.51139900  1
  F  F6  1  0.78547500  0.97206800  0.75518800  1
  F  F7  1  0.95986900  0.90500400  0.12081500  1
  F  F8  1  0.42711300  0.61596600  0.88301000  1
  F  F9  1  0.22239800  0.48469100  0.74646200  1
  F  F10  1  0.04901400  0.85611200  0.62532300  1
  F  F11  1  0.54901400  0.14388800  0.87467700  1
  F  F12  1  0.28547500  0.02793200  0.74481200  1
  F  F13  1  0.96380500  0.59273600  0.86544200  1
  F  F14  1  0.54013100  0.90500400  0.62081500  1
  F  F15  1  0.04013100  0.09499600  0.87918500  1
  F  F16  1  0.21452500  0.02793200  0.24481200  1
  F  F17  1  0.95098600  0.14388800  0.37467700  1
  F  F18  1  0.46380500  0.40726400  0.63455800  1
  F  F19  1  0.92711300  0.38403400  0.61699000  1
  F  F20  1  0.03619500  0.40726400  0.13455800  1
  F  F21  1  0.71452500  0.97206800  0.25518800  1
  F  F22  1  0.53619500  0.59273600  0.36544200  1
  F  F23  1  0.29901200  0.24190600  0.98860100  1
  F  F24  1  0.20098800  0.24190600  0.48860100  1
  F  F25  1  0.70098800  0.75809400  0.01139900  1
  F  F26  1  0.57288700  0.38403400  0.11699000  1
  F  F27  1  0.77760200  0.51530900  0.25353800  1
loop_
_geom_bond_atom_site_label_1
_geom_bond_atom_site_label_2
_geom_bond_distance
_geom_bond_site_symmetry_2
Ba0 F22 2.671174 1_555
Ba0 F18 2.683444 1_555
Ba0 F4 2.747403 1_565
Ba0 F14 2.766100 1_555
Ba0 F1 2.941178 1_555
Ba0 F3 2.956014 1_555
Ba0 F9 3.016920 1_555
Ba0 F24 3.112317 1_555
Ba0 F12 3.127042 1_565
Ba0 F16 3.191661 1_565
Ba0 F24 3.246119 1_565
Ba0 F10 3.252412 1_555
Ba1 F20 2.671174 1_655
Ba1 F13 2.683444 1_554
Ba1 F7 2.747403 1_545
Ba1 F15 2.766100 1_654
Ba1 F26 2.941178 1_555
Ba1 F27 2.956014 1_555
Ba1 F2 3.016920 1_554
Ba1 F25 3.112317 1_555
Ba1 F6 3.127042 1_544
Ba1 F21 3.191661 1_545
Ba1 F25 3.246119 1_545
Ba1 F11 3.252412 1_554
Ba2 F18 2.671174 1_555
Ba2 F22 2.683444 1_555
Ba2 F14 2.747403 1_545
Ba2 F4 2.766100 1_555
Ba2 F19 2.941178 1_555
Ba2 F2 2.956014 1_555
Ba2 F27 3.016920 1_555
Ba2 F5 3.112317 1_555
Ba2 F21 3.127042 1_545
Ba2 F6 3.191661 1_545
Ba2 F5 3.246119 1_545
Ba2 F17 3.252412 1_555
Ba3 F13 2.671174 1_455
Ba3 F20 2.683444 1_556
Ba3 F15 2.747403 1_565
Ba3 F7 2.766100 1_456
Ba3 F8 2.941178 1_555
Ba3 F9 2.956014 1_555
Ba3 F3 3.016920 1_556
Ba3 F23 3.112317 1_555
Ba3 F16 3.127042 1_566
Ba3 F12 3.191661 1_565
Ba3 F23 3.246119 1_565
Ba3 F0 3.252412 1_556
F0 Mg3 2.008249 1_555
F0 Sn1 2.158067 1_565
F1 Mg2 2.024507 1_555
F1 Sn2 2.177654 1_455
F2 Mg1 2.089896 1_555
F2 Sn0 2.206533 1_555
F3 Mg2 2.089896 1_555
F3 Sn1 2.206533 1_555
F4 Sn1 2.116753 1_555
F5 Mg1 2.055831 1_555
F5 Sn2 2.201918 1_555
F6 Mg1 2.055744 1_555
F6 Sn0 2.235929 1_555
F7 Sn2 2.116753 1_555
F8 Mg0 2.024507 1_555
F8 Sn0 2.177654 1_555
F9 Mg0 2.089896 1_555
F9 Sn3 2.206533 1_555
F10 Mg1 2.008249 1_455
F10 Sn3 2.158067 1_565
F11 Mg0 2.008249 1_555
F11 Sn0 2.158067 1_545
F12 Mg0 2.055744 1_555
F12 Sn3 2.235929 1_555
F13 Mg1 1.950758 1_555
F14 Sn0 2.116753 1_555
F15 Sn3 2.116753 1_555
F16 Mg2 2.055744 1_555
F16 Sn1 2.235929 1_555
F17 Mg2 2.008249 1_655
F17 Sn2 2.158067 1_545
F18 Mg0 1.950758 1_555
F19 Mg1 2.024507 1_555
F19 Sn3 2.177654 1_655
F20 Mg2 1.950758 1_555
F21 Mg3 2.055744 1_555
F21 Sn2 2.235929 1_555
F22 Mg3 1.950758 1_555
F23 Mg0 2.055831 1_555
F23 Sn1 2.201918 1_556
F24 Mg2 2.055831 1_555
F24 Sn3 2.201918 1_555
F25 Mg3 2.055831 1_555
F25 Sn0 2.201918 1_554
F26 Mg3 2.024507 1_555
F26 Sn1 2.177654 1_555
F27 Mg3 2.089896 1_555
F27 Sn2 2.206533 1_555
