# generated using pymatgen
data_Y2MgSe4
_symmetry_space_group_name_H-M   'P 1'
_cell_length_a   13.23445784
_cell_length_b   7.90762629
_cell_length_c   13.43842689
_cell_angle_alpha   90.00000000
_cell_angle_beta   90.00000000
_cell_angle_gamma   90.00000000
_symmetry_Int_Tables_number   1
_chemical_formula_structural   Y2MgSe4
_chemical_formula_sum   'Y16 Mg8 Se32'
_cell_volume   1406.37366140
_cell_formula_units_Z   8
loop_
 _symmetry_equiv_pos_site_id
 _symmetry_equiv_pos_as_xyz
  1  'x, y, z'
loop_
 _atom_site_type_symbol
 _atom_site_label
 _atom_site_symmetry_multiplicity
 _atom_site_fract_x
 _atom_site_fract_y
 _atom_site_fract_z
 _atom_site_occupancy
  Y  Y0  1  0.10764954  0.88172241  0.68572297  1
  Y  Y1  1  0.89235046  0.11827759  0.18572297  1
  Y  Y2  1  0.39235046  0.88172241  0.18572297  1
  Y  Y3  1  0.60764954  0.11827759  0.68572297  1
  Y  Y4  1  0.12766976  0.38041683  0.32689055  1
  Y  Y5  1  0.87233024  0.61958317  0.82689055  1
  Y  Y6  1  0.37233024  0.38041683  0.82689055  1
  Y  Y7  1  0.62766976  0.61958317  0.32689055  1
  Y  Y8  1  0.13311710  0.62778606  0.99012437  1
  Y  Y9  1  0.86688290  0.37221394  0.49012437  1
  Y  Y10  1  0.36688290  0.62778606  0.49012437  1
  Y  Y11  1  0.63311710  0.37221394  0.99012437  1
  Y  Y12  1  0.13340179  0.12842622  0.99109483  1
  Y  Y13  1  0.86659821  0.87157378  0.49109483  1
  Y  Y14  1  0.36659821  0.12842622  0.49109483  1
  Y  Y15  1  0.63340179  0.87157378  0.99109483  1
  Mg  Mg0  1  0.11017860  0.38028032  0.69038538  1
  Mg  Mg1  1  0.88982140  0.61971968  0.19038538  1
  Mg  Mg2  1  0.38982140  0.38028032  0.19038538  1
  Mg  Mg3  1  0.61017860  0.61971968  0.69038538  1
  Mg  Mg4  1  0.12667783  0.87715750  0.32074770  1
  Mg  Mg5  1  0.87332217  0.12284250  0.82074770  1
  Mg  Mg6  1  0.37332217  0.87715750  0.82074770  1
  Mg  Mg7  1  0.62667783  0.12284250  0.32074770  1
  Se  Se0  1  0.01237929  0.87766846  0.87788096  1
  Se  Se1  1  0.98762071  0.12233154  0.37788096  1
  Se  Se2  1  0.48762071  0.87766846  0.37788096  1
  Se  Se3  1  0.51237929  0.12233154  0.87788096  1
  Se  Se4  1  0.03398612  0.37732031  0.13014032  1
  Se  Se5  1  0.96601388  0.62267969  0.63014032  1
  Se  Se6  1  0.46601388  0.37732031  0.63014032  1
  Se  Se7  1  0.53398612  0.62267969  0.13014032  1
  Se  Se8  1  0.02125091  0.37308757  0.86868333  1
  Se  Se9  1  0.97874909  0.62691243  0.36868333  1
  Se  Se10  1  0.47874909  0.37308757  0.36868333  1
  Se  Se11  1  0.52125091  0.62691243  0.86868333  1
  Se  Se12  1  0.04262698  0.87211715  0.13682189  1
  Se  Se13  1  0.95737302  0.12788285  0.63682189  1
  Se  Se14  1  0.45737302  0.87211715  0.63682189  1
  Se  Se15  1  0.54262698  0.12788285  0.13682189  1
  Se  Se16  1  0.21159830  0.87885617  0.50333660  1
  Se  Se17  1  0.78840170  0.12114383  0.00333660  1
  Se  Se18  1  0.28840170  0.87885617  0.00333660  1
  Se  Se19  1  0.71159830  0.12114383  0.50333660  1
  Se  Se20  1  0.21231812  0.37927841  0.51920795  1
  Se  Se21  1  0.78768188  0.62072159  0.01920795  1
  Se  Se22  1  0.28768188  0.37927841  0.01920795  1
  Se  Se23  1  0.71231812  0.62072159  0.51920795  1
  Se  Se24  1  0.23131816  0.12777381  0.77759018  1
  Se  Se25  1  0.76868184  0.87222619  0.27759018  1
  Se  Se26  1  0.26868184  0.12777381  0.27759018  1
  Se  Se27  1  0.73131816  0.87222619  0.77759018  1
  Se  Se28  1  0.23037555  0.63152285  0.77837397  1
  Se  Se29  1  0.76962445  0.36847715  0.27837397  1
  Se  Se30  1  0.26962445  0.63152285  0.27837397  1
  Se  Se31  1  0.73037555  0.36847715  0.77837397  1
loop_
_geom_bond_atom_site_label_1
_geom_bond_atom_site_label_2
_geom_bond_distance
_geom_bond_site_symmetry_2
Mg0 Se20 2.668137 1_555
Mg0 Se8 2.670090 1_555
Mg0 Se28 2.806368 1_555
Mg0 Se24 2.816125 1_555
Mg0 Se5 2.823089 1_455
Mg0 Se13 2.931091 1_455
Mg1 Se21 2.668137 1_555
Mg1 Se9 2.670090 1_555
Mg1 Se29 2.806368 1_555
Mg1 Se25 2.816125 1_555
Mg1 Se4 2.823089 1_655
Mg1 Se12 2.931091 1_655
Mg2 Se22 2.668137 1_555
Mg2 Se10 2.670090 1_555
Mg2 Se30 2.806368 1_555
Mg2 Se26 2.816125 1_555
Mg2 Se7 2.823089 1_555
Mg2 Se15 2.931091 1_555
Mg3 Se23 2.668137 1_555
Mg3 Se11 2.670090 1_555
Mg3 Se31 2.806368 1_555
Mg3 Se27 2.816125 1_555
Mg3 Se6 2.823089 1_555
Mg3 Se14 2.931091 1_555
Mg4 Se16 2.698881 1_555
Mg4 Se12 2.710742 1_555
Mg4 Se30 2.770580 1_555
Mg4 Se1 2.781203 1_465
Mg4 Se26 2.792089 1_565
Mg4 Se9 2.857202 1_455
Mg5 Se17 2.698881 1_556
Mg5 Se13 2.710742 1_555
Mg5 Se31 2.770580 1_555
Mg5 Se0 2.781203 1_645
Mg5 Se27 2.792089 1_545
Mg5 Se8 2.857202 1_655
Mg6 Se18 2.698881 1_556
Mg6 Se14 2.710742 1_555
Mg6 Se28 2.770580 1_555
Mg6 Se3 2.781203 1_565
Mg6 Se24 2.792089 1_565
Mg6 Se11 2.857202 1_555
Mg7 Se19 2.698881 1_555
Mg7 Se15 2.710742 1_555
Mg7 Se29 2.770580 1_555
Mg7 Se2 2.781203 1_545
Mg7 Se25 2.792089 1_545
Mg7 Se10 2.857202 1_555
Se0 Y5 2.840764 1_455
Se0 Y0 2.873856 1_555
Se0 Y8 2.955158 1_555
Se0 Y12 2.968490 1_565
Se1 Y4 2.840764 1_655
Se1 Y1 2.873856 1_555
Se1 Y9 2.955158 1_555
Se1 Y13 2.968490 1_545
Se2 Y7 2.840764 1_555
Se2 Y2 2.873856 1_555
Se2 Y10 2.955158 1_555
Se2 Y14 2.968490 1_565
Se3 Y6 2.840764 1_555
Se3 Y3 2.873856 1_555
Se3 Y11 2.955158 1_555
Se3 Y15 2.968490 1_545
Se4 Y1 2.875337 1_455
Se4 Y4 2.920384 1_555
Se4 Y12 3.015999 1_554
Se4 Y8 3.030566 1_554
Se5 Y0 2.875337 1_655
Se5 Y5 2.920384 1_555
Se5 Y13 3.015999 1_555
Se5 Y9 3.030566 1_555
Se6 Y3 2.875337 1_555
Se6 Y6 2.920384 1_555
Se6 Y14 3.015999 1_555
Se6 Y10 3.030566 1_555
Se7 Y2 2.875337 1_555
Se7 Y7 2.920384 1_555
Se7 Y15 3.015999 1_554
Se7 Y11 3.030566 1_554
Se8 Y5 2.828281 1_455
Se8 Y12 2.941450 1_555
Se8 Y8 2.985236 1_555
Se9 Y4 2.828281 1_655
Se9 Y13 2.941450 1_555
Se9 Y9 2.985236 1_555
Se10 Y7 2.828281 1_555
Se10 Y14 2.941450 1_555
Se10 Y10 2.985236 1_555
Se11 Y6 2.828281 1_555
Se11 Y15 2.941450 1_555
Se11 Y11 2.985236 1_555
Se12 Y1 2.859427 1_465
Se12 Y8 3.008903 1_554
Se12 Y12 3.063701 1_564
Se13 Y0 2.859427 1_645
Se13 Y9 3.008903 1_555
Se13 Y13 3.063701 1_545
Se14 Y3 2.859427 1_565
Se14 Y10 3.008903 1_555
Se14 Y14 3.063701 1_565
Se15 Y2 2.859427 1_545
Se15 Y11 3.008903 1_554
Se15 Y15 3.063701 1_544
Se16 Y0 2.810767 1_555
Se16 Y14 2.851278 1_565
Se16 Y10 2.862984 1_555
Se17 Y1 2.810767 1_555
Se17 Y15 2.851278 1_544
Se17 Y11 2.862984 1_554
Se18 Y2 2.810767 1_555
Se18 Y12 2.851278 1_564
Se18 Y8 2.862984 1_554
Se19 Y3 2.810767 1_555
Se19 Y13 2.851278 1_545
Se19 Y9 2.862984 1_555
Se20 Y4 2.816815 1_555
Se20 Y10 2.863354 1_555
Se20 Y14 2.871686 1_555
Se21 Y5 2.816815 1_554
Se21 Y11 2.863354 1_554
Se21 Y15 2.871686 1_554
Se22 Y6 2.816815 1_554
Se22 Y8 2.863354 1_554
Se22 Y12 2.871686 1_554
Se23 Y7 2.816815 1_555
Se23 Y9 2.863354 1_555
Se23 Y13 2.871686 1_555
Se24 Y6 2.812994 1_555
Se24 Y0 2.826401 1_545
Se24 Y12 3.148241 1_555
Se25 Y7 2.812994 1_555
Se25 Y1 2.826401 1_565
Se25 Y13 3.148241 1_555
Se26 Y4 2.812994 1_555
Se26 Y2 2.826401 1_545
Se26 Y14 3.148241 1_555
Se27 Y5 2.812994 1_555
Se27 Y3 2.826401 1_565
Se27 Y15 3.148241 1_555
Se28 Y6 2.810230 1_555
Se28 Y0 2.846524 1_555
Se28 Y8 3.123309 1_555
Se29 Y7 2.810230 1_555
Se29 Y1 2.846524 1_555
Se29 Y9 3.123309 1_555
Se30 Y4 2.810230 1_555
Se30 Y2 2.846524 1_555
Se30 Y10 3.123309 1_555
Se31 Y5 2.810230 1_555
Se31 Y3 2.846524 1_555
Se31 Y11 3.123309 1_555
