# generated using pymatgen
data_U12Cd4H6C4O51
_symmetry_space_group_name_H-M   'P 1'
_cell_length_a   7.10624156
_cell_length_b   11.52909576
_cell_length_c   15.28042357
_cell_angle_alpha   108.13097587
_cell_angle_beta   95.51565773
_cell_angle_gamma   89.11541492
_symmetry_Int_Tables_number   1
_chemical_formula_structural   U12Cd4H6C4O51
_chemical_formula_sum   'U12 Cd4 H6 C4 O51'
_cell_volume   1184.09569089
_cell_formula_units_Z   1
loop_
 _symmetry_equiv_pos_site_id
 _symmetry_equiv_pos_as_xyz
  1  'x, y, z'
loop_
 _atom_site_type_symbol
 _atom_site_label
 _atom_site_symmetry_multiplicity
 _atom_site_fract_x
 _atom_site_fract_y
 _atom_site_fract_z
 _atom_site_occupancy
  U  U0  1  0.65255400  0.92593700  0.30882000  1
  U  U1  1  0.34786100  0.07390500  0.69129800  1
  U  U2  1  0.16291600  0.73647800  0.29697600  1
  U  U3  1  0.83752700  0.26350200  0.70339000  1
  U  U4  1  0.16262000  0.09742700  0.29038300  1
  U  U5  1  0.83723400  0.90228200  0.70971800  1
  U  U6  1  0.65983100  0.22916800  0.27106900  1
  U  U7  1  0.33936400  0.77112900  0.72915000  1
  U  U8  1  0.14544700  0.40969900  0.27092400  1
  U  U9  1  0.85511400  0.59033100  0.72987500  1
  U  U10  1  0.65459600  0.59293300  0.27299100  1
  U  U11  1  0.34595000  0.40705200  0.72692500  1
  Cd  Cd0  1  0.40146300  0.71225500  0.07257300  1
  Cd  Cd1  1  0.59847000  0.28774700  0.92770100  1
  Cd  Cd2  1  0.99836700  0.35522700  0.49902700  1
  Cd  Cd3  1  0.00110300  0.64478900  0.50130300  1
  H  H0  1  0.26215600  0.12265600  0.93190100  1
  H  H1  1  0.73774900  0.87752100  0.06826300  1
  H  H2  1  0.13168200  0.10939800  0.02325000  1
  H  H3  1  0.86814100  0.89062700  0.97681000  1
  H  H4  1  0.03420200  0.18664100  0.94513400  1
  H  H5  1  0.96569100  0.81346600  0.05498400  1
  C  C0  1  0.24378200  0.28848900  0.04597500  1
  C  C1  1  0.75597200  0.71152300  0.95426900  1
  C  C2  1  0.16559800  0.16854500  0.98280600  1
  C  C3  1  0.83422200  0.83152500  0.01731200  1
  O  O0  1  0.14872900  0.74923500  0.42076100  1
  O  O1  1  0.85152100  0.25081300  0.57964600  1
  O  O2  1  0.71692200  0.31158700  0.39825300  1
  O  O3  1  0.27860900  0.69060700  0.60365700  1
  O  O4  1  0.57323500  0.86943300  0.18223000  1
  O  O5  1  0.42712300  0.13056200  0.81775800  1
  O  O6  1  0.14946600  0.34441500  0.11535900  1
  O  O7  1  0.85052900  0.65559800  0.88487800  1
  O  O8  1  0.84669400  0.77372800  0.29025600  1
  O  O9  1  0.15350100  0.22592300  0.70967600  1
  O  O10  1  0.48661800  0.76572300  0.31583500  1
  O  O11  1  0.51352700  0.23456400  0.68433000  1
  O  O12  1  0.72412500  0.61085500  0.39767800  1
  O  O13  1  0.27731600  0.38872500  0.60171100  1
  O  O14  1  0.17596900  0.71079400  0.17052000  1
  O  O15  1  0.82441500  0.28879800  0.82984300  1
  O  O16  1  0.59632900  0.58848500  0.14841700  1
  O  O17  1  0.40342300  0.41109900  0.85154100  1
  O  O18  1  0.20992700  0.54759200  0.97595100  1
  O  O19  1  0.78996000  0.45240900  0.02424500  1
  O  O20  1  0.97759200  0.55060200  0.25679800  1
  O  O21  1  0.02302200  0.44873700  0.74327200  1
  O  O22  1  0.71530600  0.97974100  0.43329500  1
  O  O23  1  0.28542100  0.02033500  0.56671800  1
  O  O24  1  0.66066700  0.40180200  0.24132600  1
  O  O25  1  0.33863400  0.59720000  0.75854400  1
  O  O26  1  0.17598100  0.01570400  0.16457500  1
  O  O27  1  0.82300300  0.98392300  0.83536500  1
  O  O28  1  0.39275500  0.33787500  0.03487700  1
  O  O29  1  0.60718800  0.66213400  0.96535200  1
  O  O30  1  0.19207200  0.93149500  0.31982900  1
  O  O31  1  0.80666800  0.06845800  0.68035200  1
  O  O32  1  0.25536700  0.88543100  0.04069600  1
  O  O33  1  0.74452900  0.11454700  0.95971900  1
  O  O34  1  0.33576200  0.55051100  0.28464900  1
  O  O35  1  0.66496800  0.44944200  0.71626100  1
  O  O36  1  0.09718900  0.46294100  0.40606500  1
  O  O37  1  0.90245200  0.53733500  0.59460600  1
  O  O38  1  0.60953200  0.14640700  0.14833800  1
  O  O39  1  0.39229000  0.85303100  0.85181900  1
  O  O40  1  0.97754700  0.25467900  0.25549900  1
  O  O41  1  0.02180100  0.74638800  0.74569500  1
  O  O42  1  0.84521800  0.05870200  0.28515800  1
  O  O43  1  0.15432300  0.94218000  0.71535900  1
  O  O44  1  0.48272700  0.08797000  0.30995900  1
  O  O45  1  0.51682500  0.91183800  0.69006400  1
  O  O46  1  0.15166600  0.19027100  0.41413300  1
  O  O47  1  0.84873300  0.81012800  0.58604200  1
  O  O48  1  0.33552900  0.27966300  0.27765100  1
  O  O49  1  0.66424400  0.71873700  0.72087500  1
  O  O50  1  0.50243800  0.46249600  0.48843400  1
loop_
_geom_bond_atom_site_label_1
_geom_bond_atom_site_label_2
_geom_bond_distance
_geom_bond_site_symmetry_2
Cd0 O29 2.236197 1_554
Cd0 O14 2.299044 1_555
Cd0 O4 2.316624 1_555
Cd0 O18 2.363352 1_554
Cd0 O32 2.396962 1_555
Cd0 O16 2.440620 1_555
Cd1 O28 2.235656 1_556
Cd1 O15 2.299464 1_555
Cd1 O5 2.317134 1_555
Cd1 O19 2.362792 1_556
Cd1 O33 2.398010 1_555
Cd1 O17 2.440707 1_555
Cd2 O46 2.271253 1_655
Cd2 O37 2.290067 1_555
Cd2 O1 2.294450 1_555
Cd2 O36 2.317272 1_655
Cd2 O2 2.362465 1_555
Cd2 O13 2.364127 1_655
Cd3 O47 2.269862 1_455
Cd3 O36 2.286364 1_555
Cd3 O0 2.296690 1_555
Cd3 O37 2.318850 1_455
Cd3 O3 2.353533 1_555
Cd3 O12 2.360829 1_455
C0 O28 1.259714 1_555
C0 O6 1.298770 1_555
C1 O29 1.258494 1_555
C1 O7 1.299849 1_555
C2 H0 1.091349 1_555
C2 H2 1.095906 1_556
C2 H4 1.100978 1_555
C3 H1 1.091683 1_555
C3 H3 1.096187 1_554
C3 H5 1.101246 1_555
O0 U2 1.863485 1_555
O1 U3 1.862842 1_555
O2 U6 1.885579 1_555
O3 U7 1.862964 1_555
O4 U0 1.871166 1_555
O5 U1 1.869358 1_555
O6 U8 2.262028 1_555
O7 U9 2.254322 1_555
O8 U0 2.180340 1_555
O8 U2 2.279902 1_655
O8 U10 2.440122 1_555
O9 U1 2.179839 1_555
O9 U3 2.278838 1_455
O9 U11 2.444770 1_555
O10 U0 2.242454 1_555
O10 U10 2.255464 1_555
O10 U2 2.307417 1_555
O11 U1 2.245505 1_555
O11 U11 2.250932 1_555
O11 U3 2.309029 1_555
O12 U10 1.869236 1_555
O13 U11 1.874969 1_555
O14 U2 1.872850 1_555
O15 U3 1.873604 1_555
O16 U10 1.893657 1_555
O17 U11 1.894913 1_555
O20 U8 2.053598 1_655
O20 U10 2.359488 1_555
O20 U2 2.411751 1_655
O21 U9 2.057038 1_455
O21 U11 2.358159 1_555
O21 U3 2.406701 1_455
O22 U0 1.820038 1_555
O23 U1 1.821127 1_555
O24 U10 2.104561 1_555
O24 U6 2.175273 1_555
O25 U11 2.093830 1_555
O25 U7 2.187257 1_555
O26 U4 1.870130 1_555
O27 U5 1.868689 1_555
O30 U4 2.100300 1_565
O30 U2 2.175283 1_555
O31 U5 2.102979 1_545
O31 U3 2.176301 1_555
O34 U8 2.076040 1_555
O34 U10 2.360173 1_555
O34 U2 2.419266 1_555
O35 U9 2.076279 1_555
O35 U11 2.357872 1_555
O35 U3 2.416751 1_555
O36 U8 2.024695 1_555
O37 U9 2.024881 1_555
O38 U6 1.822968 1_555
O39 U7 1.822208 1_555
O40 U8 2.103084 1_655
O40 U6 2.325497 1_555
O40 U4 2.386161 1_655
O41 U9 2.106820 1_455
O41 U7 2.326437 1_555
O41 U5 2.378310 1_455
O42 U0 2.202827 1_545
O42 U4 2.295089 1_655
O42 U6 2.402759 1_555
O43 U1 2.200515 1_565
O43 U5 2.294868 1_455
O43 U7 2.405792 1_555
O44 U0 2.204702 1_545
O44 U4 2.271062 1_555
O44 U6 2.322971 1_555
O45 U1 2.201460 1_565
O45 U5 2.273327 1_555
O45 U7 2.321571 1_555
O46 U4 1.869091 1_555
O47 U5 1.866620 1_555
O48 U8 2.022233 1_555
O48 U6 2.372078 1_555
O48 U4 2.518327 1_555
O49 U9 2.019678 1_555
O49 U7 2.382509 1_555
O49 U5 2.522562 1_555
