# generated using pymatgen
data_Al79(Fe13Si9)2
_symmetry_space_group_name_H-M   'P 1'
_cell_length_a   8.80130200
_cell_length_b   8.80592246
_cell_length_c   24.49414010
_cell_angle_alpha   82.90170220
_cell_angle_beta   82.92133225
_cell_angle_gamma   70.88596969
_symmetry_Int_Tables_number   1
_chemical_formula_structural   Al79(Fe13Si9)2
_chemical_formula_sum   'Al79 Fe26 Si18'
_cell_volume   1773.02689697
_cell_formula_units_Z   1
loop_
 _symmetry_equiv_pos_site_id
 _symmetry_equiv_pos_as_xyz
  1  'x, y, z'
loop_
 _atom_site_type_symbol
 _atom_site_label
 _atom_site_symmetry_multiplicity
 _atom_site_fract_x
 _atom_site_fract_y
 _atom_site_fract_z
 _atom_site_occupancy
  Al  Al0  1  0.68005100  0.67925600  0.70523700  1
  Al  Al1  1  0.34701600  0.34708200  0.03818500  1
  Al  Al2  1  0.01374300  0.01290600  0.37155900  1
  Al  Al3  1  0.65298400  0.65291800  0.96181500  1
  Al  Al4  1  0.31994900  0.32074400  0.29476300  1
  Al  Al5  1  0.98625700  0.98709400  0.62844100  1
  Al  Al6  1  0.63136600  0.54666100  0.80982000  1
  Al  Al7  1  0.29832400  0.21342200  0.14281400  1
  Al  Al8  1  0.96478000  0.87720300  0.47727000  1
  Al  Al9  1  0.67127200  0.38245800  0.68699300  1
  Al  Al10  1  0.33628900  0.05164300  0.01962000  1
  Al  Al11  1  0.00014400  0.71729600  0.35147300  1
  Al  Al12  1  0.35334100  0.72846700  0.71600800  1
  Al  Al13  1  0.02247200  0.39365500  0.04818600  1
  Al  Al14  1  0.68961700  0.05871600  0.38049300  1
  Al  Al15  1  0.70167600  0.78657800  0.85718600  1
  Al  Al16  1  0.36863400  0.45333900  0.19018000  1
  Al  Al17  1  0.03522000  0.12279700  0.52273000  1
  Al  Al18  1  0.66371100  0.94835700  0.98038000  1
  Al  Al19  1  0.32872800  0.61754200  0.31300700  1
  Al  Al20  1  0.99985600  0.28270400  0.64852700  1
  Al  Al21  1  0.97752800  0.60634500  0.95181400  1
  Al  Al22  1  0.64665900  0.27153300  0.28399200  1
  Al  Al23  1  0.31038300  0.94128400  0.61950700  1
  Al  Al24  1  0.92742700  0.43125800  0.86461900  1
  Al  Al25  1  0.59473600  0.09895200  0.19804700  1
  Al  Al26  1  0.24620600  0.77517100  0.53353200  1
  Al  Al27  1  0.39346400  0.00342500  0.90258900  1
  Al  Al28  1  0.05919200  0.66979600  0.23653800  1
  Al  Al29  1  0.73654600  0.32512800  0.57400800  1
  Al  Al30  1  0.17065400  0.05713300  0.73495300  1
  Al  Al31  1  0.83813300  0.72318500  0.06773400  1
  Al  Al32  1  0.50341000  0.38374200  0.39612300  1
  Al  Al33  1  0.40526400  0.90104800  0.80195300  1
  Al  Al34  1  0.07257300  0.56874200  0.13538100  1
  Al  Al35  1  0.75379400  0.22482900  0.46646800  1
  Al  Al36  1  0.94080800  0.33020400  0.76346200  1
  Al  Al37  1  0.60653600  0.99657500  0.09741100  1
  Al  Al38  1  0.26345400  0.67487200  0.42599200  1
  Al  Al39  1  0.16186700  0.27681500  0.93226600  1
  Al  Al40  1  0.82934600  0.94286700  0.26504700  1
  Al  Al41  1  0.49659000  0.61625800  0.60387700  1
  Al  Al42  1  0.17378400  0.88075700  0.88354900  1
  Al  Al43  1  0.84077400  0.54692200  0.21641300  1
  Al  Al44  1  0.50764200  0.20059200  0.55471700  1
  Al  Al45  1  0.94947300  0.03593400  0.81416900  1
  Al  Al46  1  0.61621400  0.70177400  0.14719700  1
  Al  Al47  1  0.27615100  0.35852800  0.47948800  1
  Al  Al48  1  0.93781400  0.14568000  0.91204500  1
  Al  Al49  1  0.60363800  0.81362000  0.24422800  1
  Al  Al50  1  0.25720700  0.47841400  0.58303100  1
  Al  Al51  1  0.15922600  0.45307800  0.78358700  1
  Al  Al52  1  0.82621600  0.11924300  0.11645100  1
  Al  Al53  1  0.49235800  0.79940800  0.44528300  1
  Al  Al54  1  0.38378600  0.29822600  0.85280300  1
  Al  Al55  1  0.05052700  0.96406600  0.18583100  1
  Al  Al56  1  0.72384900  0.64147200  0.52051200  1
  Al  Al57  1  0.39636200  0.18638000  0.75577200  1
  Al  Al58  1  0.06218600  0.85432000  0.08795500  1
  Al  Al59  1  0.74279300  0.52158600  0.41696900  1
  Al  Al60  1  0.50000000  0.50000000  0.50000000  1
  Al  Al61  1  0.02483100  0.81602700  0.72647300  1
  Al  Al62  1  0.69233200  0.48268100  0.05966400  1
  Al  Al63  1  0.35875100  0.14636800  0.39170500  1
  Al  Al64  1  0.62556900  0.40518900  0.91628800  1
  Al  Al65  1  0.29203900  0.07319500  0.24897600  1
  Al  Al66  1  0.95669900  0.73888700  0.58360500  1
  Al  Al67  1  0.33489400  0.76527900  0.98596800  1
  Al  Al68  1  0.00239200  0.43279400  0.31848600  1
  Al  Al69  1  0.66850400  0.09815900  0.65473900  1
  Al  Al70  1  0.30766800  0.51731900  0.94033600  1
  Al  Al71  1  0.97516900  0.18397300  0.27352700  1
  Al  Al72  1  0.64124900  0.85363200  0.60829500  1
  Al  Al73  1  0.70796100  0.92680500  0.75102400  1
  Al  Al74  1  0.37443100  0.59481100  0.08371200  1
  Al  Al75  1  0.04330100  0.26111300  0.41639500  1
  Al  Al76  1  0.99760800  0.56720600  0.68151400  1
  Al  Al77  1  0.66510600  0.23472100  0.01403200  1
  Al  Al78  1  0.33149600  0.90184100  0.34526100  1
  Fe  Fe0  1  0.89052000  0.89048500  0.90220000  1
  Fe  Fe1  1  0.55611000  0.55752500  0.23579800  1
  Fe  Fe2  1  0.22477700  0.22373200  0.56863800  1
  Fe  Fe3  1  0.44389000  0.44247500  0.76420200  1
  Fe  Fe4  1  0.10948000  0.10951500  0.09780000  1
  Fe  Fe5  1  0.77522300  0.77626800  0.43136200  1
  Fe  Fe6  1  0.87799800  0.62694600  0.77880200  1
  Fe  Fe7  1  0.54586600  0.29310200  0.11221300  1
  Fe  Fe8  1  0.21311100  0.96103800  0.44589100  1
  Fe  Fe9  1  0.45854900  0.21585100  0.94744500  1
  Fe  Fe10  1  0.12501700  0.88366700  0.28093400  1
  Fe  Fe11  1  0.79230600  0.54890200  0.61359600  1
  Fe  Fe12  1  0.46558200  0.96068400  0.69824200  1
  Fe  Fe13  1  0.13240900  0.62578700  0.03175600  1
  Fe  Fe14  1  0.79818100  0.29348700  0.36440300  1
  Fe  Fe15  1  0.45413400  0.70689800  0.88778700  1
  Fe  Fe16  1  0.12200200  0.37305400  0.22119800  1
  Fe  Fe17  1  0.78688900  0.03896200  0.55410900  1
  Fe  Fe18  1  0.87498300  0.11633300  0.71906600  1
  Fe  Fe19  1  0.54145100  0.78414900  0.05255500  1
  Fe  Fe20  1  0.20769400  0.45109800  0.38640400  1
  Fe  Fe21  1  0.86759100  0.37421300  0.96824400  1
  Fe  Fe22  1  0.53441800  0.03931600  0.30175800  1
  Fe  Fe23  1  0.20181900  0.70651300  0.63559700  1
  Fe  Fe24  1  0.16689200  0.16668800  0.83309600  1
  Fe  Fe25  1  0.83310800  0.83331200  0.16690400  1
  Si  Si0  1  0.01684800  0.70916900  0.83918100  1
  Si  Si1  1  0.68371100  0.37592200  0.17256300  1
  Si  Si2  1  0.35254000  0.03770700  0.50719500  1
  Si  Si3  1  0.66761200  0.10104300  0.88139900  1
  Si  Si4  1  0.33306600  0.76877900  0.21435800  1
  Si  Si5  1  0.99789900  0.43057600  0.54705500  1
  Si  Si6  1  0.99867500  0.87161300  0.98385600  1
  Si  Si7  1  0.66394800  0.53969400  0.31642000  1
  Si  Si8  1  0.32615200  0.20765500  0.65267400  1
  Si  Si9  1  0.31628900  0.62407800  0.82743700  1
  Si  Si10  1  0.98315200  0.29083100  0.16081900  1
  Si  Si11  1  0.64746000  0.96229300  0.49280500  1
  Si  Si12  1  0.66693400  0.23122100  0.78564200  1
  Si  Si13  1  0.33238800  0.89895700  0.11860100  1
  Si  Si14  1  0.00210100  0.56942400  0.45294500  1
  Si  Si15  1  0.33605200  0.46030600  0.68358000  1
  Si  Si16  1  0.00132500  0.12838700  0.01614400  1
  Si  Si17  1  0.67384800  0.79234500  0.34732600  1
loop_
_geom_bond_atom_site_label_1
_geom_bond_atom_site_label_2
_geom_bond_distance
_geom_bond_site_symmetry_2
Al0 Fe6 2.556817 1_555
Al0 Fe12 2.577839 1_555
Al0 Fe11 2.584529 1_555
Al0 Al76 2.656720 1_555
Al0 Al72 2.658594 1_555
Al0 Al73 2.663247 1_555
Al0 Al6 2.725253 1_555
Al0 Al9 2.732375 1_555
Al0 Al12 2.747902 1_555
Al1 Fe13 2.560805 1_555
Al1 Fe9 2.567708 1_554
Al1 Fe7 2.569265 1_555
Al1 Al74 2.659489 1_555
Al1 Al70 2.662353 1_554
Al1 Al77 2.662545 1_555
Al1 Al10 2.729085 1_555
Al1 Al7 2.729665 1_555
Al1 Al13 2.733581 1_555
Al2 Fe10 2.557417 1_545
Al2 Fe14 2.576806 1_455
Al2 Fe8 2.580606 1_545
Al2 Al75 2.662150 1_555
Al2 Al78 2.667038 1_545
Al2 Al71 2.668771 1_455
Al2 Al8 2.759658 1_445
Al3 Fe21 2.560805 1_555
Al3 Fe19 2.567708 1_556
Al3 Fe15 2.569265 1_555
Al3 Al64 2.659489 1_555
Al3 Al62 2.662353 1_556
Al3 Al67 2.662545 1_555
Al4 Fe16 2.556817 1_555
Al4 Fe22 2.577839 1_555
Al4 Fe20 2.584529 1_555
Al4 Al68 2.656720 1_555
Al4 Al63 2.658594 1_555
Al4 Al65 2.663247 1_555
Al5 Fe18 2.557417 1_565
Al5 Fe23 2.576806 1_655
Al5 Fe17 2.580606 1_565
Al5 Al66 2.662150 1_555
Al5 Al69 2.667038 1_565
Al5 Al61 2.668771 1_655
Al6 Fe6 2.500947 1_555
Al6 Fe3 2.551866 1_555
Al6 Fe15 2.561568 1_555
Al6 Si9 2.623103 1_555
Al6 Al64 2.749790 1_555
Al6 Si12 2.820631 1_555
Al7 Fe7 2.503900 1_555
Al7 Fe4 2.551930 1_555
Al7 Fe16 2.564085 1_555
Al7 Si10 2.624551 1_455
Al7 Si13 2.815706 1_545
Al8 Fe8 2.532824 1_655
Al8 Fe17 2.549201 1_565
Al8 Fe5 2.553108 1_555
Al8 Si11 2.635185 1_555
Al8 Si14 2.752515 1_655
Al9 Fe11 2.532663 1_555
Al9 Fe18 2.542459 1_555
Al9 Fe3 2.546060 1_555
Al9 Si12 2.613228 1_555
Al9 Si15 2.811350 1_555
Al10 Fe9 2.508489 1_554
Al10 Fe4 2.558208 1_555
Al10 Fe19 2.561973 1_545
Al10 Si13 2.625077 1_545
Al10 Al67 2.752277 1_544
Al10 Si16 2.810378 1_555
Al11 Fe10 2.510063 1_555
Al11 Fe5 2.576969 1_455
Al11 Fe20 2.578577 1_555
Al11 Si14 2.658842 1_555
Al11 Si17 2.739861 1_455
Al11 Al2 2.750942 1_565
Al11 Al28 2.856337 1_555
Al12 Fe12 2.518704 1_555
Al12 Fe3 2.560040 1_555
Al12 Fe23 2.570112 1_555
Al12 Si15 2.637984 1_555
Al12 Al61 2.725090 1_555
Al12 Si9 2.785251 1_555
Al12 Al23 2.811332 1_555
Al12 Al30 2.877062 1_565
Al12 Al33 2.903911 1_555
Al12 Al41 3.018421 1_555
Al13 Fe13 2.504538 1_555
Al13 Fe4 2.558687 1_555
Al13 Fe21 2.572013 1_454
Al13 Si16 2.623168 1_555
Al13 Al62 2.738217 1_455
Al13 Si10 2.811298 1_455
Al14 Fe14 2.518303 1_555
Al14 Fe22 2.549080 1_555
Al14 Fe5 2.558244 1_545
Al14 Si17 2.625497 1_545
Al14 Al2 2.731849 1_655
Al14 Al63 2.744905 1_555
Al14 Si11 2.793566 1_545
Al14 Al22 2.811332 1_555
Al15 Fe15 2.503900 1_555
Al15 Fe0 2.551930 1_555
Al15 Fe6 2.564085 1_555
Al15 Si0 2.624551 1_655
Al15 Al3 2.729665 1_555
Al15 Al73 2.739593 1_555
Al15 Si3 2.815706 1_565
Al16 Fe16 2.500947 1_555
Al16 Fe1 2.551866 1_555
Al16 Fe7 2.561568 1_555
Al16 Si1 2.623103 1_555
Al16 Al4 2.725253 1_555
Al16 Al74 2.749790 1_555
Al16 Si4 2.820631 1_555
Al16 Al28 2.951774 1_555
Al17 Fe17 2.532824 1_455
Al17 Fe8 2.549201 1_545
Al17 Fe2 2.553108 1_555
Al17 Si2 2.635185 1_555
Al17 Al75 2.738518 1_555
Al17 Si5 2.752515 1_455
Al17 Al5 2.759658 1_445
Al18 Fe19 2.508489 1_556
Al18 Fe0 2.558208 1_555
Al18 Fe9 2.561973 1_565
Al18 Si3 2.625077 1_565
Al18 Al3 2.729085 1_555
Al18 Al77 2.752277 1_566
Al18 Si6 2.810378 1_555
Al19 Fe20 2.532663 1_555
Al19 Fe10 2.542459 1_555
Al19 Fe1 2.546060 1_555
Al19 Si4 2.613228 1_555
Al19 Al78 2.725039 1_555
Al19 Al4 2.732375 1_555
Al19 Si7 2.811350 1_555
Al19 Al28 3.084626 1_555
Al20 Fe18 2.510063 1_555
Al20 Fe2 2.576969 1_655
Al20 Fe11 2.578577 1_555
Al20 Si5 2.658842 1_555
Al20 Si8 2.739861 1_655
Al20 Al5 2.750942 1_545
Al20 Al36 2.856337 1_555
Al21 Fe21 2.504538 1_555
Al21 Fe0 2.558687 1_555
Al21 Fe13 2.572013 1_656
Al21 Si6 2.623168 1_555
Al21 Al3 2.733581 1_555
Al21 Al70 2.738217 1_655
Al21 Si0 2.811298 1_655
Al22 Fe22 2.518704 1_555
Al22 Fe1 2.560040 1_555
Al22 Fe14 2.570112 1_555
Al22 Si7 2.637984 1_555
Al22 Al71 2.725090 1_555
Al22 Al4 2.747902 1_555
Al22 Si1 2.785251 1_555
Al22 Al40 2.877062 1_545
Al22 Al25 2.903911 1_555
Al22 Al32 3.018421 1_555
Al23 Fe23 2.518303 1_555
Al23 Fe12 2.549080 1_555
Al23 Fe2 2.558244 1_565
Al23 Si8 2.625497 1_565
Al23 Al5 2.731849 1_455
Al23 Al72 2.744905 1_555
Al23 Si2 2.793566 1_565
Al24 Fe6 2.533062 1_555
Al24 Fe21 2.549677 1_555
Al24 Al48 2.614487 1_555
Al24 Fe24 2.700712 1_655
Al24 Al51 2.702406 1_655
Al24 Al36 2.710974 1_555
Al24 Si0 2.785745 1_655
Al24 Al64 2.865591 1_555
Al25 Fe7 2.526089 1_555
Al25 Fe22 2.555640 1_555
Al25 Al49 2.605644 1_545
Al25 Fe25 2.699609 1_545
Al25 Al52 2.706233 1_555
Al25 Si1 2.775891 1_555
Al25 Al65 2.865639 1_555
Al26 Fe23 2.511682 1_555
Al26 Fe8 2.519037 1_555
Al26 Si2 2.745240 1_565
Al26 Al66 2.786569 1_455
Al26 Al60 2.833843 1_555
Al27 Fe9 2.529681 1_555
Al27 Fe15 2.551086 1_545
Al27 Al42 2.614799 1_545
Al27 Fe24 2.700944 1_555
Al27 Al54 2.707755 1_555
Al27 Si3 2.787408 1_555
Al27 Al67 2.867843 1_545
Al28 Fe10 2.537931 1_555
Al28 Fe16 2.553515 1_555
Al28 Al43 2.614732 1_455
Al28 Al40 2.691346 1_455
Al28 Fe25 2.700932 1_455
Al28 Al34 2.710974 1_555
Al28 Al55 2.713276 1_555
Al28 Si4 2.793087 1_555
Al28 Al68 2.834650 1_555
Al29 Fe11 2.507385 1_555
Al29 Fe17 2.510611 1_555
Al29 Si5 2.731713 1_555
Al29 Al69 2.789050 1_555
Al29 Al60 2.851749 1_555
Al30 Fe12 2.537223 1_545
Al30 Fe18 2.550709 1_455
Al30 Al45 2.608987 1_455
Al30 Fe24 2.691339 1_555
Al30 Al36 2.691346 1_455
Al30 Al57 2.715783 1_555
Al30 Si8 2.745834 1_555
Al30 Al61 2.856117 1_545
Al31 Fe13 2.527814 1_655
Al31 Fe19 2.552772 1_555
Al31 Al46 2.617699 1_555
Al31 Al58 2.709390 1_655
Al31 Fe25 2.714862 1_555
Al31 Si6 2.785006 1_554
Al31 Al62 2.849020 1_555
Al32 Fe14 2.504302 1_555
Al32 Fe20 2.507842 1_555
Al32 Si7 2.760793 1_555
Al32 Al63 2.799076 1_555
Al32 Al60 2.850906 1_555
Al33 Fe15 2.526089 1_555
Al33 Fe12 2.555640 1_555
Al33 Al57 2.605644 1_565
Al33 Fe24 2.699609 1_565
Al33 Al42 2.706233 1_555
Al33 Si9 2.775891 1_555
Al33 Al73 2.865639 1_555
Al34 Fe16 2.533062 1_555
Al34 Fe13 2.549677 1_555
Al34 Al58 2.614487 1_555
Al34 Fe25 2.700712 1_455
Al34 Al43 2.702406 1_455
Al34 Si10 2.785745 1_455
Al34 Al74 2.865591 1_555
Al35 Fe14 2.511682 1_555
Al35 Fe17 2.519037 1_555
Al35 Si11 2.745240 1_545
Al35 Al75 2.786569 1_655
Al35 Al60 2.833843 1_555
Al36 Fe18 2.537931 1_555
Al36 Fe6 2.553515 1_555
Al36 Al51 2.614732 1_655
Al36 Fe24 2.700932 1_655
Al36 Al45 2.713276 1_555
Al36 Si12 2.793087 1_555
Al36 Al76 2.834650 1_555
Al36 Al6 2.951774 1_555
Al36 Al9 3.084626 1_555
Al37 Fe19 2.529681 1_555
Al37 Fe7 2.551086 1_565
Al37 Al52 2.614799 1_565
Al37 Fe25 2.700944 1_555
Al37 Al46 2.707755 1_555
Al37 Si13 2.787408 1_555
Al37 Al77 2.867843 1_565
Al38 Fe20 2.507385 1_555
Al38 Fe8 2.510611 1_555
Al38 Si14 2.731713 1_555
Al38 Al78 2.789050 1_555
Al38 Al60 2.851749 1_555
Al39 Fe21 2.527814 1_455
Al39 Fe9 2.552772 1_555
Al39 Al54 2.617699 1_555
Al39 Al48 2.709390 1_455
Al39 Fe24 2.714862 1_555
Al39 Si16 2.785006 1_556
Al39 Al70 2.849020 1_555
Al40 Fe22 2.537223 1_565
Al40 Fe10 2.550709 1_655
Al40 Al55 2.608987 1_655
Al40 Fe25 2.691339 1_555
Al40 Al49 2.715783 1_555
Al40 Si17 2.745834 1_555
Al40 Al71 2.856117 1_565
Al41 Fe23 2.504302 1_555
Al41 Fe11 2.507842 1_555
Al41 Si15 2.760793 1_555
Al41 Al72 2.799076 1_555
Al41 Al60 2.850906 1_555
Al42 Fe15 2.448035 1_555
Al42 Fe0 2.453701 1_455
Al42 Fe24 2.649542 1_565
Al42 Si9 2.656570 1_555
Al42 Al48 2.667392 1_465
Al42 Al45 2.671898 1_465
Al42 Si0 2.741268 1_555
Al42 Si6 2.741785 1_455
Al42 Al67 2.939399 1_555
Al43 Fe16 2.455544 1_655
Al43 Fe1 2.464920 1_555
Al43 Fe25 2.643513 1_555
Al43 Si10 2.645342 1_555
Al43 Al46 2.670114 1_555
Al43 Al49 2.677810 1_555
Al43 Si1 2.731462 1_555
Al43 Si7 2.741046 1_555
Al43 Al68 2.933197 1_655
Al44 Fe17 2.402456 1_555
Al44 Fe2 2.414854 1_555
Al44 Si11 2.617803 1_545
Al44 Si8 2.709168 1_555
Al44 Si2 2.713367 1_555
Al44 Al60 2.790164 1_555
Al44 Al69 2.879715 1_555
Al44 Al72 3.078375 1_545
Al45 Fe18 2.454039 1_555
Al45 Fe0 2.456831 1_545
Al45 Si12 2.638178 1_555
Al45 Fe24 2.644982 1_655
Al45 Al48 2.671887 1_555
Al45 Si3 2.736712 1_555
Al45 Si0 2.746487 1_645
Al45 Al61 2.939337 1_645
Al46 Fe19 2.445582 1_555
Al46 Fe1 2.465555 1_555
Al46 Fe25 2.651822 1_555
Al46 Si13 2.652513 1_555
Al46 Al49 2.659557 1_555
Al46 Si1 2.739811 1_555
Al46 Si4 2.744316 1_555
Al46 Al62 2.930844 1_555
Al47 Fe20 2.404903 1_555
Al47 Fe2 2.418534 1_555
Al47 Si14 2.616085 1_555
Al47 Si2 2.699745 1_555
Al47 Si5 2.716995 1_455
Al47 Al60 2.773448 1_555
Al47 Al63 2.891402 1_555
Al48 Fe21 2.446875 1_555
Al48 Fe0 2.460225 1_545
Al48 Fe24 2.652109 1_655
Al48 Si16 2.652693 1_656
Al48 Si3 2.738348 1_555
Al48 Si6 2.746240 1_545
Al48 Al64 2.942933 1_555
Al49 Fe22 2.448360 1_565
Al49 Fe1 2.461199 1_555
Al49 Fe25 2.627089 1_555
Al49 Si17 2.643091 1_555
Al49 Si4 2.734749 1_555
Al49 Si7 2.750596 1_555
Al49 Al65 2.939604 1_565
Al50 Fe23 2.402753 1_555
Al50 Fe2 2.423825 1_555
Al50 Si15 2.612348 1_555
Al50 Si8 2.695432 1_555
Al50 Si5 2.716555 1_455
Al50 Al60 2.799648 1_555
Al50 Al66 2.877919 1_455
Al51 Fe6 2.455544 1_455
Al51 Fe3 2.464920 1_555
Al51 Fe24 2.643513 1_555
Al51 Si0 2.645342 1_555
Al51 Al54 2.670114 1_555
Al51 Al57 2.677810 1_555
Al51 Si9 2.731462 1_555
Al51 Si15 2.741046 1_555
Al51 Al76 2.933197 1_455
Al52 Fe7 2.448035 1_555
Al52 Fe4 2.453701 1_655
Al52 Fe25 2.649542 1_545
Al52 Si1 2.656570 1_555
Al52 Al58 2.667392 1_645
Al52 Al55 2.671898 1_645
Al52 Si10 2.741268 1_555
Al52 Si16 2.741785 1_655
Al52 Al77 2.939399 1_555
Al53 Fe8 2.402456 1_555
Al53 Fe5 2.414854 1_555
Al53 Si2 2.617803 1_565
Al53 Si17 2.709168 1_555
Al53 Si11 2.713367 1_555
Al53 Al60 2.790164 1_555
Al53 Al78 2.879715 1_555
Al53 Al63 3.078375 1_565
Al54 Fe9 2.445582 1_555
Al54 Fe3 2.465555 1_555
Al54 Fe24 2.651822 1_555
Al54 Si3 2.652513 1_555
Al54 Al57 2.659557 1_555
Al54 Si9 2.739811 1_555
Al54 Si12 2.744316 1_555
Al54 Al70 2.930844 1_555
Al55 Fe10 2.454039 1_555
Al55 Fe4 2.456831 1_565
Al55 Si4 2.638178 1_555
Al55 Fe25 2.644982 1_455
Al55 Al58 2.671887 1_555
Al55 Si13 2.736712 1_555
Al55 Si10 2.746487 1_465
Al55 Al71 2.939337 1_465
Al56 Fe11 2.404903 1_555
Al56 Fe5 2.418534 1_555
Al56 Si5 2.616085 1_555
Al56 Si11 2.699745 1_555
Al56 Si14 2.716995 1_655
Al56 Al60 2.773448 1_555
Al56 Al72 2.891402 1_555
Al57 Fe12 2.448360 1_545
Al57 Fe3 2.461199 1_555
Al57 Fe24 2.627089 1_555
Al57 Si8 2.643091 1_555
Al57 Si12 2.734749 1_555
Al57 Si15 2.750596 1_555
Al57 Al73 2.939604 1_545
Al58 Fe13 2.446875 1_555
Al58 Fe4 2.460225 1_565
Al58 Fe25 2.652109 1_455
Al58 Si6 2.652693 1_454
Al58 Si13 2.738348 1_555
Al58 Si16 2.746240 1_565
Al58 Al74 2.942933 1_555
Al59 Fe14 2.402753 1_555
Al59 Fe5 2.423825 1_555
Al59 Si7 2.612348 1_555
Al59 Si17 2.695432 1_555
Al59 Si14 2.716555 1_655
Al59 Al60 2.799648 1_555
Al59 Al75 2.877919 1_655
Al61 Fe18 2.534137 1_465
Al61 Fe6 2.561017 1_455
Al61 Fe23 2.646397 1_555
Al61 Al73 2.653483 1_455
Al61 Al76 2.660114 1_455
Al61 Si0 2.804504 1_555
Al62 Fe19 2.544651 1_555
Al62 Fe7 2.564139 1_555
Al62 Fe21 2.649213 1_554
Al62 Al74 2.660578 1_555
Al62 Al77 2.662009 1_555
Al62 Si1 2.808788 1_555
Al63 Fe8 2.546259 1_545
Al63 Fe20 2.570063 1_555
Al63 Fe22 2.617693 1_555
Al63 Al75 2.644794 1_555
Al63 Al78 2.645612 1_545
Al63 Si2 2.871936 1_555
Al64 Fe21 2.536362 1_555
Al64 Fe9 2.556816 1_555
Al64 Fe15 2.645487 1_555
Al64 Al70 2.660578 1_555
Al64 Al77 2.661104 1_556
Al64 Si3 2.806978 1_555
Al65 Fe22 2.545358 1_555
Al65 Fe10 2.561130 1_545
Al65 Fe16 2.625644 1_555
Al65 Al78 2.634157 1_545
Al65 Al71 2.653483 1_455
Al65 Al7 2.739593 1_555
Al65 Si4 2.808510 1_545
Al66 Fe11 2.539989 1_555
Al66 Fe23 2.557728 1_655
Al66 Fe17 2.635540 1_565
Al66 Al72 2.644794 1_555
Al66 Al76 2.669614 1_555
Al66 Al8 2.738518 1_555
Al66 Si5 2.860064 1_555
Al67 Fe15 2.545429 1_555
Al67 Fe13 2.557976 1_556
Al67 Fe19 2.643552 1_556
Al67 Al74 2.661104 1_556
Al67 Al70 2.662009 1_555
Al67 Si6 2.801292 1_455
Al68 Fe16 2.528329 1_555
Al68 Fe14 2.570002 1_455
Al68 Fe20 2.656384 1_555
Al68 Al71 2.660114 1_455
Al68 Al75 2.669614 1_555
Al68 Si7 2.819690 1_455
Al69 Fe12 2.533534 1_545
Al69 Fe17 2.600329 1_555
Al69 Fe18 2.601781 1_555
Al69 Al73 2.634157 1_545
Al69 Al72 2.645612 1_545
Al69 Al9 2.725039 1_555
Al69 Si8 2.852038 1_555
Al70 Fe9 2.544651 1_555
Al70 Fe15 2.564139 1_555
Al70 Fe13 2.649213 1_556
Al70 Si9 2.808788 1_555
Al71 Fe10 2.534137 1_645
Al71 Fe16 2.561017 1_655
Al71 Fe14 2.646397 1_555
Al71 Si10 2.804504 1_555
Al72 Fe17 2.546259 1_565
Al72 Fe11 2.570063 1_555
Al72 Fe12 2.617693 1_555
Al72 Si11 2.871936 1_555
Al73 Fe12 2.545358 1_555
Al73 Fe18 2.561130 1_565
Al73 Fe6 2.625644 1_555
Al73 Si12 2.808510 1_565
Al74 Fe13 2.536362 1_555
Al74 Fe19 2.556816 1_555
Al74 Fe7 2.645487 1_555
Al74 Si13 2.806978 1_555
Al75 Fe20 2.539989 1_555
Al75 Fe14 2.557728 1_455
Al75 Fe8 2.635540 1_545
Al75 Si14 2.860064 1_555
Al76 Fe6 2.528329 1_555
Al76 Fe23 2.570002 1_655
Al76 Fe11 2.656384 1_555
Al76 Si15 2.819690 1_655
Al77 Fe7 2.545429 1_555
Al77 Fe21 2.557976 1_554
Al77 Fe9 2.643552 1_554
Al77 Si16 2.801292 1_655
Al78 Fe22 2.533534 1_565
Al78 Fe8 2.600329 1_555
Al78 Fe10 2.601781 1_555
Al78 Si17 2.852038 1_555
Fe0 Si3 2.275318 1_565
Fe0 Si0 2.278534 1_655
Fe0 Si6 2.284209 1_555
Fe1 Si7 2.261170 1_555
Fe1 Si4 2.282795 1_555
Fe1 Si1 2.285815 1_555
Fe2 Si2 2.280078 1_555
Fe2 Si5 2.285764 1_455
Fe2 Si8 2.313221 1_555
Fe3 Si15 2.261170 1_555
Fe3 Si12 2.282795 1_555
Fe3 Si9 2.285815 1_555
Fe4 Si13 2.275318 1_545
Fe4 Si10 2.278534 1_455
Fe4 Si16 2.284209 1_555
Fe5 Si11 2.280078 1_555
Fe5 Si14 2.285764 1_655
Fe5 Si17 2.313221 1_555
Fe6 Si0 2.344032 1_655
Fe7 Si1 2.340262 1_555
Fe8 Si2 2.337475 1_565
Fe9 Si3 2.340336 1_555
Fe10 Si4 2.343991 1_555
Fe11 Si5 2.339760 1_555
Fe12 Si8 2.339091 1_565
Fe13 Si6 2.343505 1_454
Fe14 Si7 2.347906 1_555
Fe15 Si9 2.340262 1_555
Fe16 Si10 2.344032 1_455
Fe17 Si11 2.337475 1_545
Fe18 Si12 2.343991 1_555
Fe19 Si13 2.340336 1_555
Fe20 Si14 2.339760 1_555
Fe21 Si16 2.343505 1_656
Fe22 Si17 2.339091 1_545
Fe23 Si15 2.347906 1_555
Si0 Si9 2.482551 1_555
Si1 Si10 2.482551 1_555
Si11 Si2 2.450770 1_565
Si12 Si3 2.479898 1_555
Si13 Si4 2.479898 1_555
Si14 Si5 2.474277 1_455
Si15 Si8 2.467787 1_555
Si16 Si6 2.493947 1_444
Si17 Si7 2.467787 1_555
