# generated using pymatgen
data_SrCaMn2O6
_symmetry_space_group_name_H-M   'P 1'
_cell_length_a   5.42953600
_cell_length_b   5.46773900
_cell_length_c   7.68299300
_cell_angle_alpha   90.00000000
_cell_angle_beta   90.00000000
_cell_angle_gamma   90.00000000
_symmetry_Int_Tables_number   1
_chemical_formula_structural   SrCaMn2O6
_chemical_formula_sum   'Sr2 Ca2 Mn4 O12'
_cell_volume   228.08720852
_cell_formula_units_Z   2
loop_
 _symmetry_equiv_pos_site_id
 _symmetry_equiv_pos_as_xyz
  1  'x, y, z'
loop_
 _atom_site_type_symbol
 _atom_site_label
 _atom_site_symmetry_multiplicity
 _atom_site_fract_x
 _atom_site_fract_y
 _atom_site_fract_z
 _atom_site_occupancy
  Sr  Sr0  1  0.01154900  0.24589100  0.50000000  1
  Sr  Sr1  1  0.51154900  0.75410900  0.50000000  1
  Ca  Ca0  1  0.99422700  0.24950000  0.00000000  1
  Ca  Ca1  1  0.49422700  0.75050000  0.00000000  1
  Mn  Mn0  1  0.50133200  0.25040900  0.75430900  1
  Mn  Mn1  1  0.00133200  0.74959100  0.24569100  1
  Mn  Mn2  1  0.50133200  0.25040900  0.24569100  1
  Mn  Mn3  1  0.00133200  0.74959100  0.75430900  1
  O  O0  1  0.22941700  0.48071900  0.78524600  1
  O  O1  1  0.72941700  0.51928100  0.21475400  1
  O  O2  1  0.76884400  0.02002600  0.26741400  1
  O  O3  1  0.26884400  0.97997400  0.73258600  1
  O  O4  1  0.76884400  0.02002600  0.73258600  1
  O  O5  1  0.26884400  0.97997400  0.26741400  1
  O  O6  1  0.22941700  0.48071900  0.21475400  1
  O  O7  1  0.72941700  0.51928100  0.78524600  1
  O  O8  1  0.49795000  0.18799100  0.00000000  1
  O  O9  1  0.99795000  0.81200900  0.00000000  1
  O  O10  1  0.49709000  0.29177900  0.50000000  1
  O  O11  1  0.99709000  0.70822100  0.50000000  1
loop_
_geom_bond_atom_site_label_1
_geom_bond_atom_site_label_2
_geom_bond_distance
_geom_bond_site_symmetry_2
Ca0 O9 2.392172 1_545
Ca0 O6 2.439533 1_655
Ca0 O0 2.439533 1_654
Ca0 O7 2.639223 1_554
Ca0 O1 2.639223 1_555
Ca0 O2 2.700541 1_555
Ca0 O4 2.700541 1_554
Ca0 O8 2.715461 1_555
Ca0 O8 2.755583 1_655
Ca0 O5 2.935324 1_645
Ca0 O3 2.935324 1_644
Ca0 O9 3.075719 1_555
Ca1 O8 2.392172 1_565
Ca1 O7 2.439533 1_554
Ca1 O1 2.439533 1_555
Ca1 O0 2.639223 1_554
Ca1 O6 2.639223 1_555
Ca1 O5 2.700541 1_555
Ca1 O3 2.700541 1_554
Ca1 O9 2.715461 1_455
Ca1 O9 2.755583 1_555
Ca1 O2 2.935324 1_565
Ca1 O4 2.935324 1_564
Ca1 O8 3.075719 1_555
Mn0 O8 1.918334 1_556
Mn0 O4 1.929842 1_555
Mn0 O7 1.936848 1_555
Mn0 O3 1.951338 1_545
Mn0 O0 1.954979 1_555
Mn0 O10 1.967039 1_555
Mn1 O9 1.918334 1_455
Mn1 O5 1.929842 1_555
Mn1 O6 1.936848 1_555
Mn1 O2 1.951338 1_465
Mn1 O1 1.954979 1_455
Mn1 O11 1.967039 1_455
Mn2 O8 1.918334 1_555
Mn2 O2 1.929842 1_555
Mn2 O1 1.936848 1_555
Mn2 O5 1.951338 1_545
Mn2 O6 1.954979 1_555
Mn2 O10 1.967039 1_555
Mn3 O9 1.918334 1_456
Mn3 O3 1.929842 1_555
Mn3 O0 1.936848 1_555
Mn3 O4 1.951338 1_465
Mn3 O7 1.954979 1_455
Mn3 O11 1.967039 1_455
O0 Sr0 2.801922 1_555
O0 Sr1 3.063318 1_555
O1 Sr1 2.801922 1_555
O1 Sr0 3.063318 1_655
O2 Sr0 2.540649 1_655
O2 Sr1 2.694219 1_545
O3 Sr1 2.540649 1_555
O3 Sr0 2.694219 1_565
O4 Sr0 2.540649 1_655
O4 Sr1 2.694219 1_545
O5 Sr1 2.540649 1_555
O5 Sr0 2.694219 1_565
O6 Sr0 2.801922 1_555
O6 Sr1 3.063318 1_555
O7 Sr1 2.801922 1_555
O7 Sr0 3.063318 1_655
O10 Sr1 2.529119 1_555
O10 Sr0 2.648175 1_555
O10 Sr0 2.804520 1_655
O10 Sr1 2.940887 1_545
O11 Sr0 2.529119 1_655
O11 Sr1 2.648175 1_555
O11 Sr1 2.804520 1_655
O11 Sr0 2.940887 1_665
