# generated using pymatgen
data_LiMn9CdO10
_symmetry_space_group_name_H-M   'P 1'
_cell_length_a   5.56477623
_cell_length_b   9.00783055
_cell_length_c   5.70386332
_cell_angle_alpha   71.55562939
_cell_angle_beta   104.06364277
_cell_angle_gamma   94.40482481
_symmetry_Int_Tables_number   1
_chemical_formula_structural   LiMn9CdO10
_chemical_formula_sum   'Li1 Mn9 Cd1 O10'
_cell_volume   263.09828765
_cell_formula_units_Z   1
loop_
 _symmetry_equiv_pos_site_id
 _symmetry_equiv_pos_as_xyz
  1  'x, y, z'
loop_
 _atom_site_type_symbol
 _atom_site_label
 _atom_site_symmetry_multiplicity
 _atom_site_fract_x
 _atom_site_fract_y
 _atom_site_fract_z
 _atom_site_occupancy
  Li  Li0  1  0.01857800  0.79958500  0.87964000  1
  Mn  Mn0  1  0.53271800  0.39774100  0.33477100  1
  Mn  Mn1  1  0.03832800  0.04434100  0.02488300  1
  Mn  Mn2  1  0.52680500  0.02671600  0.51847200  1
  Mn  Mn3  1  0.03820700  0.55509600  0.26978300  1
  Mn  Mn4  1  0.03066800  0.19575900  0.44694000  1
  Mn  Mn5  1  0.53322700  0.20238900  0.93256800  1
  Mn  Mn6  1  0.52680300  0.57318600  0.74539500  1
  Mn  Mn7  1  0.03102000  0.40379900  0.84328400  1
  Mn  Mn8  1  0.85399500  0.79998700  0.42661200  1
  Cd  Cd0  1  0.48357800  0.80007500  0.04705900  1
  O  O0  1  0.78553700  0.04830500  0.26295100  1
  O  O1  1  0.77537500  0.40452300  0.08284600  1
  O  O2  1  0.77544500  0.19516400  0.68747000  1
  O  O3  1  0.78569800  0.55146500  0.51184600  1
  O  O4  1  0.28640400  0.20579100  0.18842500  1
  O  O5  1  0.10855000  0.79974900  0.22313400  1
  O  O6  1  0.68065400  0.79996600  0.70949200  1
  O  O7  1  0.26016300  0.02222100  0.76129500  1
  O  O8  1  0.28657300  0.39388400  0.59469300  1
  O  O9  1  0.26072400  0.57713200  0.98463200  1
loop_
_geom_bond_atom_site_label_1
_geom_bond_atom_site_label_2
_geom_bond_distance
_geom_bond_site_symmetry_2
Li0 O6 1.894728 1_455
Li0 O5 1.901129 1_556
Li0 O9 2.335144 1_555
Li0 O7 2.335632 1_565
Mn0 O1 2.183285 1_555
Mn0 O3 2.194065 1_555
Mn0 O8 2.241073 1_555
Mn0 O4 2.357616 1_555
Mn0 O9 2.399009 1_554
Mn0 O2 2.436494 1_555
Mn1 O5 2.150974 1_545
Mn1 O0 2.188793 1_455
Mn1 O4 2.194338 1_555
Mn1 O7 2.225616 1_554
Mn1 O2 2.229850 1_454
Mn2 O6 2.121104 1_545
Mn2 O0 2.243314 1_555
Mn2 O7 2.252928 1_555
Mn2 O2 2.258492 1_555
Mn2 O4 2.263104 1_555
Mn3 O5 2.151231 1_555
Mn3 O3 2.188401 1_455
Mn3 O8 2.194097 1_555
Mn3 O9 2.225941 1_554
Mn3 O1 2.228954 1_455
Mn4 O0 2.152746 1_455
Mn4 O7 2.170194 1_555
Mn4 O2 2.200130 1_455
Mn4 O4 2.263501 1_555
Mn4 O8 2.429262 1_555
Mn4 O1 2.524433 1_455
Mn5 O2 2.182270 1_555
Mn5 O0 2.192576 1_556
Mn5 O4 2.241916 1_556
Mn5 O8 2.355438 1_555
Mn5 O7 2.408365 1_555
Mn5 O1 2.432100 1_556
Mn6 O6 2.121271 1_555
Mn6 O3 2.242633 1_555
Mn6 O9 2.253096 1_555
Mn6 O1 2.259389 1_556
Mn6 O8 2.263399 1_555
Mn7 O3 2.154150 1_455
Mn7 O9 2.170455 1_555
Mn7 O1 2.200631 1_456
Mn7 O8 2.262848 1_555
Mn7 O4 2.425767 1_556
Mn7 O2 2.525181 1_455
Mn8 O5 2.038299 1_655
Mn8 O6 2.071245 1_555
Mn8 O0 2.157928 1_565
Mn8 O3 2.159343 1_555
Cd0 O7 2.353741 1_564
Cd0 O9 2.356489 1_554
Cd0 O6 2.436722 1_554
Cd0 O5 2.525828 1_555
Cd0 Li0 2.531345 1_554
Cd0 Mn8 2.601185 1_555
