# generated using pymatgen
data_Pm3Pr
_symmetry_space_group_name_H-M   'P 1'
_cell_length_a   7.49151421
_cell_length_b   7.49151477
_cell_length_c   5.86349652
_cell_angle_alpha   90.00000000
_cell_angle_beta   90.00000000
_cell_angle_gamma   120.00000420
_symmetry_Int_Tables_number   1
_chemical_formula_structural   Pm3Pr
_chemical_formula_sum   'Pm6 Pr2'
_cell_volume   284.98797293
_cell_formula_units_Z   2
loop_
 _symmetry_equiv_pos_site_id
 _symmetry_equiv_pos_as_xyz
  1  'x, y, z'
loop_
 _atom_site_type_symbol
 _atom_site_label
 _atom_site_symmetry_multiplicity
 _atom_site_fract_x
 _atom_site_fract_y
 _atom_site_fract_z
 _atom_site_occupancy
  Pm  Pm0  1  0.16659715  0.33319529  0.25000000  1
  Pm  Pm1  1  0.66680571  0.83340285  0.25000000  1
  Pm  Pm2  1  0.16659715  0.83340285  0.25000000  1
  Pm  Pm3  1  0.83340285  0.66680471  0.75000000  1
  Pm  Pm4  1  0.33319429  0.16659715  0.75000000  1
  Pm  Pm5  1  0.83340285  0.16659715  0.75000000  1
  Pr  Pr0  1  0.33333300  0.66666700  0.75000000  1
  Pr  Pr1  1  0.66666700  0.33333300  0.25000000  1
loop_
_geom_bond_atom_site_label_1
_geom_bond_atom_site_label_2
_geom_bond_distance
_geom_bond_site_symmetry_2
Pm0 Pm5 3.642547 1_454
Pm0 Pm5 3.642547 1_455
Pm0 Pm4 3.642550 1_555
Pm0 Pm4 3.642550 1_554
Pm0 Pr0 3.643615 1_555
Pm0 Pr0 3.643615 1_554
Pm0 Pm1 3.744198 1_445
Pm0 Pm2 3.744202 1_545
Pm0 Pr1 3.745750 1_455
Pm0 Pr1 3.745765 1_555
Pm0 Pm2 3.747312 1_555
Pm0 Pm1 3.747316 1_555
Pm1 Pm5 3.642547 1_565
Pm1 Pm5 3.642547 1_564
Pm1 Pm3 3.642550 1_554
Pm1 Pm3 3.642550 1_555
Pm1 Pr0 3.643619 1_555
Pm1 Pr0 3.643619 1_554
Pm1 Pm2 3.744195 1_655
Pm1 Pr1 3.745754 1_565
Pm1 Pr1 3.745761 1_555
Pm1 Pm2 3.747320 1_555
Pm2 Pm3 3.642547 1_454
Pm2 Pm3 3.642547 1_455
Pm2 Pm4 3.642547 1_565
Pm2 Pm4 3.642547 1_564
Pm2 Pr0 3.643615 1_554
Pm2 Pr0 3.643615 1_555
Pm2 Pr1 3.745757 1_565
Pm2 Pr1 3.745757 1_455
Pm3 Pr1 3.643615 1_556
Pm3 Pr1 3.643615 1_555
Pm3 Pm4 3.744198 1_665
Pm3 Pm5 3.744202 1_565
Pm3 Pr0 3.745750 1_655
Pm3 Pr0 3.745765 1_555
Pm3 Pm5 3.747312 1_555
Pm3 Pm4 3.747316 1_555
Pm4 Pr1 3.643619 1_556
Pm4 Pr1 3.643619 1_555
Pm4 Pm5 3.744195 1_455
Pm4 Pr0 3.745754 1_545
Pm4 Pr0 3.745761 1_555
Pm4 Pm5 3.747320 1_555
Pm5 Pr1 3.643615 1_555
Pm5 Pr1 3.643615 1_556
Pm5 Pr0 3.745757 1_545
Pm5 Pr0 3.745757 1_655
