# generated using pymatgen
data_Zr2Np
_symmetry_space_group_name_H-M   'P 1'
_cell_length_a   10.46934585
_cell_length_b   10.46934585
_cell_length_c   5.62300200
_cell_angle_alpha   90.00000000
_cell_angle_beta   90.00000000
_cell_angle_gamma   120.00001168
_symmetry_Int_Tables_number   1
_chemical_formula_structural   Zr2Np
_chemical_formula_sum   'Zr16 Np8'
_cell_volume   533.75002943
_cell_formula_units_Z   8
loop_
 _symmetry_equiv_pos_site_id
 _symmetry_equiv_pos_as_xyz
  1  'x, y, z'
loop_
 _atom_site_type_symbol
 _atom_site_label
 _atom_site_symmetry_multiplicity
 _atom_site_fract_x
 _atom_site_fract_y
 _atom_site_fract_z
 _atom_site_occupancy
  Zr  Zr0_0  1  0.33333350  0.16666650  0.25000000  1
  Zr  Zr0_1  1  0.33333350  0.16666650  0.75000000  1
  Zr  Zr0_2  1  0.33333350  0.66666650  0.25000000  1
  Zr  Zr0_3  1  0.33333350  0.66666650  0.75000000  1
  Zr  Zr0_4  1  0.83333350  0.16666650  0.25000000  1
  Zr  Zr0_5  1  0.83333350  0.16666650  0.75000000  1
  Zr  Zr0_6  1  0.83333350  0.66666650  0.25000000  1
  Zr  Zr0_7  1  0.83333350  0.66666650  0.75000000  1
  Zr  Zr1_0  1  0.16666650  0.33333350  0.25000000  1
  Zr  Zr1_1  1  0.16666650  0.33333350  0.75000000  1
  Zr  Zr1_2  1  0.16666650  0.83333350  0.25000000  1
  Zr  Zr1_3  1  0.16666650  0.83333350  0.75000000  1
  Zr  Zr1_4  1  0.66666650  0.33333350  0.25000000  1
  Zr  Zr1_5  1  0.66666650  0.33333350  0.75000000  1
  Zr  Zr1_6  1  0.66666650  0.83333350  0.25000000  1
  Zr  Zr1_7  1  0.66666650  0.83333350  0.75000000  1
  Np  Np0_0  1  0.00000000  0.00000000  0.00000000  1
  Np  Np0_1  1  0.00000000  0.00000000  0.50000000  1
  Np  Np0_2  1  0.00000000  0.50000000  0.00000000  1
  Np  Np0_3  1  0.00000000  0.50000000  0.50000000  1
  Np  Np0_4  1  0.50000000  0.00000000  0.00000000  1
  Np  Np0_5  1  0.50000000  0.00000000  0.50000000  1
  Np  Np0_6  1  0.50000000  0.50000000  0.00000000  1
  Np  Np0_7  1  0.50000000  0.50000000  0.50000000  1
loop_
_geom_bond_atom_site_label_1
_geom_bond_atom_site_label_2
_geom_bond_distance
_geom_bond_site_symmetry_2
Zr0_0 Zr0_1 2.811501 1_554
Zr0_0 Zr0_1 2.811501 1_555
Zr0_0 Zr1_4 3.022236 1_555
Zr0_0 Zr1_2 3.022236 1_545
Zr0_0 Zr1_0 3.022246 1_555
Zr0_1 Zr1_5 3.022236 1_555
Zr0_1 Zr1_3 3.022236 1_545
Zr0_1 Zr1_1 3.022246 1_555
Zr0_2 Zr0_3 2.811501 1_554
Zr0_2 Zr0_3 2.811501 1_555
Zr0_2 Zr1_0 3.022236 1_555
Zr0_2 Zr1_6 3.022236 1_555
Zr0_2 Zr1_2 3.022246 1_555
Zr0_3 Zr1_1 3.022236 1_555
Zr0_3 Zr1_7 3.022236 1_555
Zr0_3 Zr1_3 3.022246 1_555
Zr0_4 Zr0_5 2.811501 1_554
Zr0_4 Zr0_5 2.811501 1_555
Zr0_4 Zr1_0 3.022236 1_655
Zr0_4 Zr1_6 3.022236 1_545
Zr0_4 Zr1_4 3.022246 1_555
Zr0_5 Zr1_1 3.022236 1_655
Zr0_5 Zr1_7 3.022236 1_545
Zr0_5 Zr1_5 3.022246 1_555
Zr0_6 Zr0_7 2.811501 1_554
Zr0_6 Zr0_7 2.811501 1_555
Zr0_6 Zr1_4 3.022236 1_555
Zr0_6 Zr1_2 3.022236 1_655
Zr0_6 Zr1_6 3.022246 1_555
Zr0_7 Zr1_5 3.022236 1_555
Zr0_7 Zr1_3 3.022236 1_655
Zr0_7 Zr1_7 3.022246 1_555
Zr1_0 Zr1_1 2.811501 1_554
Zr1_0 Zr1_1 2.811501 1_555
Zr1_2 Zr1_3 2.811501 1_554
Zr1_2 Zr1_3 2.811501 1_555
Zr1_4 Zr1_5 2.811501 1_554
Zr1_4 Zr1_5 2.811501 1_555
Zr1_6 Zr1_7 2.811501 1_554
Zr1_6 Zr1_7 2.811501 1_555
Np0_0 Np0_1 2.811501 1_555
Np0_0 Np0_1 2.811501 1_554
Np0_0 Zr0_5 3.333174 1_454
Np0_0 Zr0_4 3.333174 1_455
Np0_0 Zr1_2 3.333174 1_545
Np0_0 Zr1_3 3.333174 1_544
Np0_0 Zr1_7 3.333178 1_444
Np0_0 Zr0_1 3.333178 1_554
Np0_0 Zr1_6 3.333178 1_445
Np0_0 Zr1_1 3.333178 1_554
Np0_0 Zr0_0 3.333178 1_555
Np0_0 Zr1_0 3.333178 1_555
Np0_0 Zr0_7 3.333178 1_444
Np0_0 Zr0_6 3.333178 1_445
Np0_1 Zr0_4 3.333174 1_455
Np0_1 Zr0_5 3.333174 1_455
Np0_1 Zr1_2 3.333174 1_545
Np0_1 Zr1_3 3.333174 1_545
Np0_1 Zr1_7 3.333178 1_445
Np0_1 Zr1_6 3.333178 1_445
Np0_1 Zr0_0 3.333178 1_555
Np0_1 Zr1_0 3.333178 1_555
Np0_1 Zr0_6 3.333178 1_445
Np0_1 Zr0_7 3.333178 1_445
Np0_1 Zr1_1 3.333178 1_555
Np0_1 Zr0_1 3.333178 1_555
Np0_2 Np0_3 2.811501 1_555
Np0_2 Np0_3 2.811501 1_554
Np0_2 Zr0_7 3.333174 1_454
Np0_2 Zr0_6 3.333174 1_455
Np0_2 Zr1_1 3.333174 1_554
Np0_2 Zr1_0 3.333174 1_555
Np0_2 Zr1_2 3.333178 1_555
Np0_2 Zr0_5 3.333178 1_454
Np0_2 Zr1_3 3.333178 1_554
Np0_2 Zr0_3 3.333178 1_554
Np0_2 Zr0_2 3.333178 1_555
Np0_2 Zr0_4 3.333178 1_455
Np0_2 Zr1_5 3.333178 1_454
Np0_2 Zr1_4 3.333178 1_455
Np0_3 Zr0_6 3.333174 1_455
Np0_3 Zr0_7 3.333174 1_455
Np0_3 Zr1_0 3.333174 1_555
Np0_3 Zr1_1 3.333174 1_555
Np0_3 Zr1_2 3.333178 1_555
Np0_3 Zr0_2 3.333178 1_555
Np0_3 Zr0_4 3.333178 1_455
Np0_3 Zr1_3 3.333178 1_555
Np0_3 Zr0_5 3.333178 1_455
Np0_3 Zr0_3 3.333178 1_555
Np0_3 Zr1_5 3.333178 1_455
Np0_3 Zr1_4 3.333178 1_455
Np0_4 Np0_5 2.811501 1_555
Np0_4 Np0_5 2.811501 1_554
Np0_4 Zr0_1 3.333174 1_554
Np0_4 Zr0_0 3.333174 1_555
Np0_4 Zr1_7 3.333174 1_544
Np0_4 Zr1_6 3.333174 1_545
Np0_4 Zr1_3 3.333178 1_544
Np0_4 Zr1_2 3.333178 1_545
Np0_4 Zr1_5 3.333178 1_554
Np0_4 Zr1_4 3.333178 1_555
Np0_4 Zr0_3 3.333178 1_544
Np0_4 Zr0_5 3.333178 1_554
Np0_4 Zr0_2 3.333178 1_545
Np0_4 Zr0_4 3.333178 1_555
Np0_5 Zr0_0 3.333174 1_555
Np0_5 Zr0_1 3.333174 1_555
Np0_5 Zr1_6 3.333174 1_545
Np0_5 Zr1_7 3.333174 1_545
Np0_5 Zr1_2 3.333178 1_545
Np0_5 Zr1_3 3.333178 1_545
Np0_5 Zr1_4 3.333178 1_555
Np0_5 Zr1_5 3.333178 1_555
Np0_5 Zr0_2 3.333178 1_545
Np0_5 Zr0_4 3.333178 1_555
Np0_5 Zr0_3 3.333178 1_545
Np0_5 Zr0_5 3.333178 1_555
Np0_6 Np0_7 2.811501 1_555
Np0_6 Np0_7 2.811501 1_554
Np0_6 Zr0_3 3.333174 1_554
Np0_6 Zr1_5 3.333174 1_554
Np0_6 Zr1_4 3.333174 1_555
Np0_6 Zr0_2 3.333174 1_555
Np0_6 Zr1_7 3.333178 1_554
Np0_6 Zr0_1 3.333178 1_554
Np0_6 Zr1_6 3.333178 1_555
Np0_6 Zr1_1 3.333178 1_554
Np0_6 Zr0_0 3.333178 1_555
Np0_6 Zr1_0 3.333178 1_555
Np0_6 Zr0_7 3.333178 1_554
Np0_6 Zr0_6 3.333178 1_555
Np0_7 Zr1_5 3.333174 1_555
Np0_7 Zr1_4 3.333174 1_555
Np0_7 Zr0_3 3.333174 1_555
Np0_7 Zr0_2 3.333174 1_555
Np0_7 Zr1_6 3.333178 1_555
Np0_7 Zr1_7 3.333178 1_555
Np0_7 Zr1_0 3.333178 1_555
Np0_7 Zr0_0 3.333178 1_555
Np0_7 Zr1_1 3.333178 1_555
Np0_7 Zr0_1 3.333178 1_555
Np0_7 Zr0_6 3.333178 1_555
Np0_7 Zr0_7 3.333178 1_555
