# generated using pymatgen
data_TmSeI
_symmetry_space_group_name_H-M   'P 1'
_cell_length_a   10.48512404
_cell_length_b   13.99723714
_cell_length_c   42.32762877
_cell_angle_alpha   90.00000000
_cell_angle_beta   90.00000000
_cell_angle_gamma   90.00000000
_symmetry_Int_Tables_number   1
_chemical_formula_structural   TmSeI
_chemical_formula_sum   'Tm2 Se2 I2'
_cell_volume   6212.11994551
_cell_formula_units_Z   2
loop_
 _symmetry_equiv_pos_site_id
 _symmetry_equiv_pos_as_xyz
  1  'x, y, z'
loop_
 _atom_site_type_symbol
 _atom_site_label
 _atom_site_symmetry_multiplicity
 _atom_site_fract_x
 _atom_site_fract_y
 _atom_site_fract_z
 _atom_site_occupancy
  Tm  Tm0  1  0.50000000  0.50000000  0.11438088  1
  Tm  Tm1  1  0.50000000  0.50000000  0.88561912  1
  Se  Se0  1  0.50000000  0.50000000  0.67042138  1
  Se  Se1  1  0.50000000  0.50000000  0.32957862  1
  I  I0  1  0.50000000  0.50000000  0.04914167  1
  I  I1  1  0.50000000  0.50000000  0.95085833  1
loop_
_geom_bond_atom_site_label_1
_geom_bond_atom_site_label_2
_geom_bond_distance
_geom_bond_site_symmetry_2
I0 Tm0 2.761421 1_555
I1 Tm1 2.761421 1_555
