# generated using pymatgen
data_MgTi
_symmetry_space_group_name_H-M   'P 1'
_cell_length_a   11.32306022
_cell_length_b   11.32306022
_cell_length_c   14.89919011
_cell_angle_alpha   76.10091227
_cell_angle_beta   76.10091227
_cell_angle_gamma   30.41558554
_symmetry_Int_Tables_number   1
_chemical_formula_structural   MgTi
_chemical_formula_sum   'Mg24 Ti24'
_cell_volume   936.65650694
_cell_formula_units_Z   24
loop_
 _symmetry_equiv_pos_site_id
 _symmetry_equiv_pos_as_xyz
  1  'x, y, z'
loop_
 _atom_site_type_symbol
 _atom_site_label
 _atom_site_symmetry_multiplicity
 _atom_site_fract_x
 _atom_site_fract_y
 _atom_site_fract_z
 _atom_site_occupancy
  Mg  Mg0_0  1  0.30590750  0.30590750  0.13767650  1
  Mg  Mg0_1  1  0.30590750  0.30590750  0.63767650  1
  Mg  Mg0_2  1  0.30590750  0.80590750  0.13767650  1
  Mg  Mg0_3  1  0.30590750  0.80590750  0.63767650  1
  Mg  Mg0_4  1  0.80590750  0.30590750  0.13767650  1
  Mg  Mg0_5  1  0.80590750  0.30590750  0.63767650  1
  Mg  Mg0_6  1  0.80590750  0.80590750  0.13767650  1
  Mg  Mg0_7  1  0.80590750  0.80590750  0.63767650  1
  Mg  Mg1_0  1  0.16695200  0.16695200  0.16379900  1
  Mg  Mg1_1  1  0.16695200  0.16695200  0.66379900  1
  Mg  Mg1_2  1  0.16695200  0.66695200  0.16379900  1
  Mg  Mg1_3  1  0.16695200  0.66695200  0.66379900  1
  Mg  Mg1_4  1  0.66695200  0.16695200  0.16379900  1
  Mg  Mg1_5  1  0.66695200  0.16695200  0.66379900  1
  Mg  Mg1_6  1  0.66695200  0.66695200  0.16379900  1
  Mg  Mg1_7  1  0.66695200  0.66695200  0.66379900  1
  Mg  Mg2_0  1  0.47097650  0.47097650  0.30954450  1
  Mg  Mg2_1  1  0.47097650  0.47097650  0.80954450  1
  Mg  Mg2_2  1  0.47097650  0.97097650  0.30954450  1
  Mg  Mg2_3  1  0.47097650  0.97097650  0.80954450  1
  Mg  Mg2_4  1  0.97097650  0.47097650  0.30954450  1
  Mg  Mg2_5  1  0.97097650  0.47097650  0.80954450  1
  Mg  Mg2_6  1  0.97097650  0.97097650  0.30954450  1
  Mg  Mg2_7  1  0.97097650  0.97097650  0.80954450  1
  Ti  Ti0_0  1  0.00223500  0.00223500  0.49098850  1
  Ti  Ti0_1  1  0.00223500  0.00223500  0.99098850  1
  Ti  Ti0_2  1  0.00223500  0.50223500  0.49098850  1
  Ti  Ti0_3  1  0.00223500  0.50223500  0.99098850  1
  Ti  Ti0_4  1  0.50223500  0.00223500  0.49098850  1
  Ti  Ti0_5  1  0.50223500  0.00223500  0.99098850  1
  Ti  Ti0_6  1  0.50223500  0.50223500  0.49098850  1
  Ti  Ti0_7  1  0.50223500  0.50223500  0.99098850  1
  Ti  Ti1_0  1  0.33160300  0.33160300  0.34787750  1
  Ti  Ti1_1  1  0.33160300  0.33160300  0.84787750  1
  Ti  Ti1_2  1  0.33160300  0.83160300  0.34787750  1
  Ti  Ti1_3  1  0.33160300  0.83160300  0.84787750  1
  Ti  Ti1_4  1  0.83160300  0.33160300  0.34787750  1
  Ti  Ti1_5  1  0.83160300  0.33160300  0.84787750  1
  Ti  Ti1_6  1  0.83160300  0.83160300  0.34787750  1
  Ti  Ti1_7  1  0.83160300  0.83160300  0.84787750  1
  Ti  Ti2_0  1  0.13899250  0.13899250  0.46678050  1
  Ti  Ti2_1  1  0.13899250  0.13899250  0.96678050  1
  Ti  Ti2_2  1  0.13899250  0.63899250  0.46678050  1
  Ti  Ti2_3  1  0.13899250  0.63899250  0.96678050  1
  Ti  Ti2_4  1  0.63899250  0.13899250  0.46678050  1
  Ti  Ti2_5  1  0.63899250  0.13899250  0.96678050  1
  Ti  Ti2_6  1  0.63899250  0.63899250  0.46678050  1
  Ti  Ti2_7  1  0.63899250  0.63899250  0.96678050  1
loop_
_geom_bond_atom_site_label_1
_geom_bond_atom_site_label_2
_geom_bond_distance
_geom_bond_site_symmetry_2
Mg0_0 Mg1_4 2.952290 1_555
Mg0_0 Mg1_2 2.952290 1_555
Mg0_0 Mg1_0 2.963789 1_555
Mg0_0 Mg0_6 2.970270 1_545
Mg0_0 Mg0_6 2.970270 1_455
Mg0_0 Ti0_5 3.103888 1_554
Mg0_0 Ti0_3 3.103888 1_554
Mg0_0 Ti2_5 3.111883 1_554
Mg0_0 Ti2_3 3.111883 1_554
Mg0_0 Mg2_2 3.137096 1_545
Mg0_0 Mg2_4 3.137096 1_455
Mg0_0 Ti1_0 3.316500 1_555
Mg0_1 Mg1_5 2.952290 1_555
Mg0_1 Mg1_3 2.952290 1_555
Mg0_1 Mg1_1 2.963789 1_555
Mg0_1 Mg0_7 2.970270 1_545
Mg0_1 Mg0_7 2.970270 1_455
Mg0_1 Ti0_4 3.103888 1_555
Mg0_1 Ti0_2 3.103888 1_555
Mg0_1 Ti2_4 3.111883 1_555
Mg0_1 Ti2_2 3.111883 1_555
Mg0_1 Mg2_3 3.137096 1_545
Mg0_1 Mg2_5 3.137096 1_455
Mg0_1 Ti1_1 3.316500 1_555
Mg0_2 Mg1_0 2.952290 1_565
Mg0_2 Mg1_6 2.952290 1_555
Mg0_2 Mg1_2 2.963789 1_555
Mg0_2 Mg0_4 2.970270 1_555
Mg0_2 Mg0_4 2.970270 1_465
Mg0_2 Ti0_7 3.103888 1_554
Mg0_2 Ti0_1 3.103888 1_564
Mg0_2 Ti2_1 3.111883 1_564
Mg0_2 Ti2_7 3.111883 1_554
Mg0_2 Mg2_0 3.137096 1_555
Mg0_2 Mg2_6 3.137096 1_455
Mg0_2 Ti1_2 3.316500 1_555
Mg0_3 Mg1_7 2.952290 1_555
Mg0_3 Mg1_1 2.952290 1_565
Mg0_3 Mg1_3 2.963789 1_555
Mg0_3 Mg0_5 2.970270 1_555
Mg0_3 Mg0_5 2.970270 1_465
Mg0_3 Ti0_0 3.103888 1_565
Mg0_3 Ti0_6 3.103888 1_555
Mg0_3 Ti2_6 3.111883 1_555
Mg0_3 Ti2_0 3.111883 1_565
Mg0_3 Mg2_7 3.137096 1_455
Mg0_3 Mg2_1 3.137096 1_555
Mg0_3 Ti1_3 3.316500 1_555
Mg0_4 Mg1_0 2.952290 1_655
Mg0_4 Mg1_6 2.952290 1_555
Mg0_4 Mg1_4 2.963789 1_555
Mg0_4 Ti0_7 3.103888 1_554
Mg0_4 Ti0_1 3.103888 1_654
Mg0_4 Ti2_1 3.111883 1_654
Mg0_4 Ti2_7 3.111883 1_554
Mg0_4 Mg2_0 3.137096 1_555
Mg0_4 Mg2_6 3.137096 1_545
Mg0_4 Ti1_4 3.316500 1_555
Mg0_5 Mg1_7 2.952290 1_555
Mg0_5 Mg1_1 2.952290 1_655
Mg0_5 Mg1_5 2.963789 1_555
Mg0_5 Ti0_6 3.103888 1_555
Mg0_5 Ti0_0 3.103888 1_655
Mg0_5 Ti2_6 3.111883 1_555
Mg0_5 Ti2_0 3.111883 1_655
Mg0_5 Mg2_1 3.137096 1_555
Mg0_5 Mg2_7 3.137096 1_545
Mg0_5 Ti1_5 3.316500 1_555
Mg0_6 Mg1_4 2.952290 1_565
Mg0_6 Mg1_2 2.952290 1_655
Mg0_6 Mg1_6 2.963789 1_555
Mg0_6 Ti0_5 3.103888 1_564
Mg0_6 Ti0_3 3.103888 1_654
Mg0_6 Ti2_3 3.111883 1_654
Mg0_6 Ti2_5 3.111883 1_564
Mg0_6 Mg2_4 3.137096 1_555
Mg0_6 Mg2_2 3.137096 1_555
Mg0_6 Ti1_6 3.316500 1_555
Mg0_7 Mg1_5 2.952290 1_565
Mg0_7 Mg1_3 2.952290 1_655
Mg0_7 Mg1_7 2.963789 1_555
Mg0_7 Ti0_4 3.103888 1_565
Mg0_7 Ti0_2 3.103888 1_655
Mg0_7 Ti2_2 3.111883 1_655
Mg0_7 Ti2_4 3.111883 1_565
Mg0_7 Mg2_5 3.137096 1_555
Mg0_7 Mg2_3 3.137096 1_555
Mg0_7 Ti1_7 3.316500 1_555
Mg1_0 Mg1_6 2.970270 1_455
Mg1_0 Mg1_6 2.970270 1_545
Mg1_0 Mg2_2 3.096960 1_545
Mg1_0 Mg2_4 3.096960 1_455
Mg1_0 Ti2_1 3.143712 1_554
Mg1_0 Ti0_3 3.149486 1_554
Mg1_0 Ti0_5 3.149486 1_554
Mg1_0 Ti1_2 3.264904 1_545
Mg1_0 Ti1_4 3.264904 1_455
Mg1_1 Mg1_7 2.970270 1_455
Mg1_1 Mg1_7 2.970270 1_545
Mg1_1 Mg2_3 3.096960 1_545
Mg1_1 Mg2_5 3.096960 1_455
Mg1_1 Ti2_0 3.143712 1_555
Mg1_1 Ti0_4 3.149486 1_555
Mg1_1 Ti0_2 3.149486 1_555
Mg1_1 Ti1_5 3.264904 1_455
Mg1_1 Ti1_3 3.264904 1_545
Mg1_2 Mg1_4 2.970270 1_465
Mg1_2 Mg1_4 2.970270 1_555
Mg1_2 Mg2_6 3.096960 1_455
Mg1_2 Mg2_0 3.096960 1_555
Mg1_2 Ti2_3 3.143712 1_554
Mg1_2 Ti0_1 3.149486 1_564
Mg1_2 Ti0_7 3.149486 1_554
Mg1_2 Ti1_0 3.264904 1_555
Mg1_2 Ti1_6 3.264904 1_455
Mg1_3 Mg1_5 2.970270 1_555
Mg1_3 Mg1_5 2.970270 1_465
Mg1_3 Mg2_7 3.096960 1_455
Mg1_3 Mg2_1 3.096960 1_555
Mg1_3 Ti2_2 3.143712 1_555
Mg1_3 Ti0_6 3.149486 1_555
Mg1_3 Ti0_0 3.149486 1_565
Mg1_3 Ti1_7 3.264904 1_455
Mg1_3 Ti1_1 3.264904 1_555
Mg1_4 Mg2_6 3.096960 1_545
Mg1_4 Mg2_0 3.096960 1_555
Mg1_4 Ti2_5 3.143712 1_554
Mg1_4 Ti0_1 3.149486 1_654
Mg1_4 Ti0_7 3.149486 1_554
Mg1_4 Ti1_0 3.264904 1_555
Mg1_4 Ti1_6 3.264904 1_545
Mg1_5 Mg2_1 3.096960 1_555
Mg1_5 Mg2_7 3.096960 1_545
Mg1_5 Ti2_4 3.143712 1_555
Mg1_5 Ti0_6 3.149486 1_555
Mg1_5 Ti0_0 3.149486 1_655
Mg1_5 Ti1_7 3.264904 1_545
Mg1_5 Ti1_1 3.264904 1_555
Mg1_6 Mg2_4 3.096960 1_555
Mg1_6 Mg2_2 3.096960 1_555
Mg1_6 Ti2_7 3.143712 1_554
Mg1_6 Ti0_3 3.149486 1_654
Mg1_6 Ti0_5 3.149486 1_564
Mg1_6 Ti1_4 3.264904 1_555
Mg1_6 Ti1_2 3.264904 1_555
Mg1_7 Mg2_3 3.096960 1_555
Mg1_7 Mg2_5 3.096960 1_555
Mg1_7 Ti2_6 3.143712 1_555
Mg1_7 Ti0_2 3.149486 1_655
Mg1_7 Ti0_4 3.149486 1_565
Mg1_7 Ti1_5 3.264904 1_555
Mg1_7 Ti1_3 3.264904 1_555
Mg2_0 Ti0_6 2.948592 1_555
Mg2_0 Ti1_0 2.955788 1_555
Mg2_0 Ti2_4 2.968848 1_555
Mg2_0 Ti2_2 2.968848 1_555
Mg2_0 Mg2_6 2.970270 1_545
Mg2_0 Mg2_6 2.970270 1_455
Mg2_0 Ti1_4 3.010593 1_555
Mg2_0 Ti1_2 3.010593 1_555
Mg2_1 Ti0_7 2.948592 1_555
Mg2_1 Ti1_1 2.955788 1_555
Mg2_1 Ti2_3 2.968848 1_555
Mg2_1 Ti2_5 2.968848 1_555
Mg2_1 Mg2_7 2.970270 1_545
Mg2_1 Mg2_7 2.970270 1_455
Mg2_1 Ti1_5 3.010593 1_555
Mg2_1 Ti1_3 3.010593 1_555
Mg2_2 Ti0_4 2.948592 1_565
Mg2_2 Ti1_2 2.955788 1_555
Mg2_2 Ti2_0 2.968848 1_565
Mg2_2 Ti2_6 2.968848 1_555
Mg2_2 Mg2_4 2.970270 1_555
Mg2_2 Mg2_4 2.970270 1_465
Mg2_2 Ti1_6 3.010593 1_555
Mg2_2 Ti1_0 3.010593 1_565
Mg2_3 Ti0_5 2.948592 1_565
Mg2_3 Ti1_3 2.955788 1_555
Mg2_3 Ti2_7 2.968848 1_555
Mg2_3 Ti2_1 2.968848 1_565
Mg2_3 Mg2_5 2.970270 1_465
Mg2_3 Mg2_5 2.970270 1_555
Mg2_3 Ti1_1 3.010593 1_565
Mg2_3 Ti1_7 3.010593 1_555
Mg2_4 Ti0_2 2.948592 1_655
Mg2_4 Ti1_4 2.955788 1_555
Mg2_4 Ti2_0 2.968848 1_655
Mg2_4 Ti2_6 2.968848 1_555
Mg2_4 Ti1_6 3.010593 1_555
Mg2_4 Ti1_0 3.010593 1_655
Mg2_5 Ti0_3 2.948592 1_655
Mg2_5 Ti1_5 2.955788 1_555
Mg2_5 Ti2_7 2.968848 1_555
Mg2_5 Ti2_1 2.968848 1_655
Mg2_5 Ti1_1 3.010593 1_655
Mg2_5 Ti1_7 3.010593 1_555
Mg2_6 Ti0_0 2.948592 1_665
Mg2_6 Ti1_6 2.955788 1_555
Mg2_6 Ti2_4 2.968848 1_565
Mg2_6 Ti2_2 2.968848 1_655
Mg2_6 Ti1_4 3.010593 1_565
Mg2_6 Ti1_2 3.010593 1_655
Mg2_7 Ti0_1 2.948592 1_665
Mg2_7 Ti1_7 2.955788 1_555
Mg2_7 Ti2_5 2.968848 1_565
Mg2_7 Ti2_3 2.968848 1_655
Mg2_7 Ti1_3 3.010593 1_655
Mg2_7 Ti1_5 3.010593 1_565
Ti0_0 Ti1_2 2.814095 1_545
Ti0_0 Ti1_4 2.814095 1_455
Ti0_0 Ti2_0 2.919760 1_555
Ti0_0 Ti0_6 2.970270 1_455
Ti0_0 Ti0_6 2.970270 1_545
Ti0_0 Ti2_2 2.983993 1_545
Ti0_0 Ti2_4 2.983993 1_455
Ti0_1 Ti1_5 2.814095 1_455
Ti0_1 Ti1_3 2.814095 1_545
Ti0_1 Ti2_1 2.919760 1_555
Ti0_1 Ti0_7 2.970270 1_545
Ti0_1 Ti0_7 2.970270 1_455
Ti0_1 Ti2_5 2.983993 1_455
Ti0_1 Ti2_3 2.983993 1_545
Ti0_2 Ti1_6 2.814095 1_455
Ti0_2 Ti1_0 2.814095 1_555
Ti0_2 Ti2_2 2.919760 1_555
Ti0_2 Ti0_4 2.970270 1_555
Ti0_2 Ti0_4 2.970270 1_465
Ti0_2 Ti2_0 2.983993 1_555
Ti0_2 Ti2_6 2.983993 1_455
Ti0_3 Ti1_1 2.814095 1_555
Ti0_3 Ti1_7 2.814095 1_455
Ti0_3 Ti2_3 2.919760 1_555
Ti0_3 Ti0_5 2.970270 1_555
Ti0_3 Ti0_5 2.970270 1_465
Ti0_3 Ti2_7 2.983993 1_455
Ti0_3 Ti2_1 2.983993 1_555
Ti0_4 Ti1_6 2.814095 1_545
Ti0_4 Ti1_0 2.814095 1_555
Ti0_4 Ti2_4 2.919760 1_555
Ti0_4 Ti2_0 2.983993 1_555
Ti0_4 Ti2_6 2.983993 1_545
Ti0_5 Ti1_1 2.814095 1_555
Ti0_5 Ti1_7 2.814095 1_545
Ti0_5 Ti2_5 2.919760 1_555
Ti0_5 Ti2_7 2.983993 1_545
Ti0_5 Ti2_1 2.983993 1_555
Ti0_6 Ti1_4 2.814095 1_555
Ti0_6 Ti1_2 2.814095 1_555
Ti0_6 Ti2_6 2.919760 1_555
Ti0_6 Ti2_2 2.983993 1_555
Ti0_6 Ti2_4 2.983993 1_555
Ti0_7 Ti1_3 2.814095 1_555
Ti0_7 Ti1_5 2.814095 1_555
Ti0_7 Ti2_7 2.919760 1_555
Ti0_7 Ti2_5 2.983993 1_555
Ti0_7 Ti2_3 2.983993 1_555
Ti1_0 Ti2_2 2.832497 1_555
Ti1_0 Ti2_4 2.832497 1_555
Ti1_0 Ti1_6 2.970270 1_455
Ti1_0 Ti1_6 2.970270 1_545
Ti1_1 Ti2_3 2.832497 1_555
Ti1_1 Ti2_5 2.832497 1_555
Ti1_1 Ti1_7 2.970270 1_455
Ti1_1 Ti1_7 2.970270 1_545
Ti1_2 Ti2_6 2.832497 1_555
Ti1_2 Ti2_0 2.832497 1_565
Ti1_2 Ti1_4 2.970270 1_465
Ti1_2 Ti1_4 2.970270 1_555
Ti1_3 Ti2_1 2.832497 1_565
Ti1_3 Ti2_7 2.832497 1_555
Ti1_3 Ti1_5 2.970270 1_465
Ti1_3 Ti1_5 2.970270 1_555
Ti1_4 Ti2_6 2.832497 1_555
Ti1_4 Ti2_0 2.832497 1_655
Ti1_5 Ti2_1 2.832497 1_655
Ti1_5 Ti2_7 2.832497 1_555
Ti1_6 Ti2_2 2.832497 1_655
Ti1_6 Ti2_4 2.832497 1_565
Ti1_7 Ti2_3 2.832497 1_655
Ti1_7 Ti2_5 2.832497 1_565
Ti2_0 Ti2_6 2.970270 1_455
Ti2_0 Ti2_6 2.970270 1_545
Ti2_1 Ti2_7 2.970270 1_545
Ti2_1 Ti2_7 2.970270 1_455
Ti2_2 Ti2_4 2.970270 1_465
Ti2_2 Ti2_4 2.970270 1_555
Ti2_3 Ti2_5 2.970270 1_465
Ti2_3 Ti2_5 2.970270 1_555
