# generated using pymatgen
data_Cu7S4N
_symmetry_space_group_name_H-M   'P 1'
_cell_length_a   3.77985700
_cell_length_b   7.39905904
_cell_length_c   7.44176002
_cell_angle_alpha   84.43312747
_cell_angle_beta   75.36217863
_cell_angle_gamma   75.63903660
_symmetry_Int_Tables_number   1
_chemical_formula_structural   Cu7S4N
_chemical_formula_sum   'Cu7 S4 N1'
_cell_volume   194.94806088
_cell_formula_units_Z   1
loop_
 _symmetry_equiv_pos_site_id
 _symmetry_equiv_pos_as_xyz
  1  'x, y, z'
loop_
 _atom_site_type_symbol
 _atom_site_label
 _atom_site_symmetry_multiplicity
 _atom_site_fract_x
 _atom_site_fract_y
 _atom_site_fract_z
 _atom_site_occupancy
  Cu  Cu0  1  0.22281300  0.16839200  0.87251600  1
  Cu  Cu1  1  0.25233600  0.83154500  0.12587300  1
  Cu  Cu2  1  0.64119000  0.12098100  0.15065500  1
  Cu  Cu3  1  0.90002500  0.89723300  0.85430400  1
  Cu  Cu4  1  0.93667800  0.57935500  0.01177200  1
  Cu  Cu5  1  0.06442800  0.07609400  0.40280800  1
  Cu  Cu6  1  0.53851900  0.91438400  0.60791400  1
  S  S0  1  0.48316200  0.68040800  0.84579400  1
  S  S1  1  0.04752600  0.30139600  0.15304000  1
  S  S2  1  0.80518400  0.17422600  0.69013700  1
  S  S3  1  0.65764700  0.83244900  0.31158000  1
  N  N0  1  0.24849300  0.49953600  0.50160600  1
loop_
_geom_bond_atom_site_label_1
_geom_bond_atom_site_label_2
_geom_bond_distance
_geom_bond_site_symmetry_2
Cu0 S1 2.267501 1_556
Cu0 S2 2.283707 1_555
Cu0 S2 2.318080 1_455
Cu1 S3 2.309539 1_555
Cu1 S3 2.320987 1_455
Cu1 S0 2.324888 1_554
Cu2 S1 2.275229 1_655
Cu2 S1 2.305686 1_555
Cu2 S3 2.339109 1_545
Cu3 S2 2.278717 1_565
Cu3 S0 2.373013 1_655
Cu3 S0 2.526794 1_555
Cu4 S1 2.210470 1_655
Cu4 S0 2.297481 1_554
Cu4 S0 2.376757 1_654
Cu4 S3 2.870291 1_555
Cu5 S2 2.224578 1_455
Cu5 S1 2.375687 1_555
Cu5 S3 2.490277 1_545
Cu5 S3 2.866174 1_445
Cu6 S3 2.248442 1_555
Cu6 S0 2.360616 1_555
Cu6 S2 2.566705 1_565
