# generated using pymatgen
data_Nd2(SiIr)3
_symmetry_space_group_name_H-M   'P 1'
_cell_length_a   5.65467400
_cell_length_b   5.65467400
_cell_length_c   41.37345000
_cell_angle_alpha   90.00000000
_cell_angle_beta   90.00000000
_cell_angle_gamma   90.00000000
_symmetry_Int_Tables_number   1
_chemical_formula_structural   Nd2(SiIr)3
_chemical_formula_sum   'Nd16 Si24 Ir24'
_cell_volume   1322.93004989
_cell_formula_units_Z   8
loop_
 _symmetry_equiv_pos_site_id
 _symmetry_equiv_pos_as_xyz
  1  'x, y, z'
loop_
 _atom_site_type_symbol
 _atom_site_label
 _atom_site_symmetry_multiplicity
 _atom_site_fract_x
 _atom_site_fract_y
 _atom_site_fract_z
 _atom_site_occupancy
  Nd  Nd0_0  1  0.25000000  0.25000000  0.38004300  1
  Nd  Nd0_1  1  0.25000000  0.25000000  0.88004300  1
  Nd  Nd0_2  1  0.25000000  0.75000000  0.38004300  1
  Nd  Nd0_3  1  0.25000000  0.75000000  0.88004300  1
  Nd  Nd0_4  1  0.75000000  0.25000000  0.38004300  1
  Nd  Nd0_5  1  0.75000000  0.25000000  0.88004300  1
  Nd  Nd0_6  1  0.75000000  0.75000000  0.38004300  1
  Nd  Nd0_7  1  0.75000000  0.75000000  0.88004300  1
  Nd  Nd1_0  1  0.25000000  0.25000000  0.11995700  1
  Nd  Nd1_1  1  0.25000000  0.25000000  0.61995700  1
  Nd  Nd1_2  1  0.25000000  0.75000000  0.11995700  1
  Nd  Nd1_3  1  0.25000000  0.75000000  0.61995700  1
  Nd  Nd1_4  1  0.75000000  0.25000000  0.11995700  1
  Nd  Nd1_5  1  0.75000000  0.25000000  0.61995700  1
  Nd  Nd1_6  1  0.75000000  0.75000000  0.11995700  1
  Nd  Nd1_7  1  0.75000000  0.75000000  0.61995700  1
  Si  Si0_0  1  0.25000000  0.25000000  0.19428500  1
  Si  Si0_1  1  0.25000000  0.25000000  0.69428500  1
  Si  Si0_2  1  0.25000000  0.75000000  0.19428500  1
  Si  Si0_3  1  0.25000000  0.75000000  0.69428500  1
  Si  Si0_4  1  0.75000000  0.25000000  0.19428500  1
  Si  Si0_5  1  0.75000000  0.25000000  0.69428500  1
  Si  Si0_6  1  0.75000000  0.75000000  0.19428500  1
  Si  Si0_7  1  0.75000000  0.75000000  0.69428500  1
  Si  Si1_0  1  0.25000000  0.25000000  0.30571500  1
  Si  Si1_1  1  0.25000000  0.25000000  0.80571500  1
  Si  Si1_2  1  0.25000000  0.75000000  0.30571500  1
  Si  Si1_3  1  0.25000000  0.75000000  0.80571500  1
  Si  Si1_4  1  0.75000000  0.25000000  0.30571500  1
  Si  Si1_5  1  0.75000000  0.25000000  0.80571500  1
  Si  Si1_6  1  0.75000000  0.75000000  0.30571500  1
  Si  Si1_7  1  0.75000000  0.75000000  0.80571500  1
  Si  Si2_0  1  0.25000000  0.25000000  0.00000000  1
  Si  Si2_1  1  0.25000000  0.25000000  0.50000000  1
  Si  Si2_2  1  0.25000000  0.75000000  0.00000000  1
  Si  Si2_3  1  0.25000000  0.75000000  0.50000000  1
  Si  Si2_4  1  0.75000000  0.25000000  0.00000000  1
  Si  Si2_5  1  0.75000000  0.25000000  0.50000000  1
  Si  Si2_6  1  0.75000000  0.75000000  0.00000000  1
  Si  Si2_7  1  0.75000000  0.75000000  0.50000000  1
  Ir  Ir0_0  1  0.25000000  0.25000000  0.05424200  1
  Ir  Ir0_1  1  0.25000000  0.25000000  0.55424200  1
  Ir  Ir0_2  1  0.25000000  0.75000000  0.05424200  1
  Ir  Ir0_3  1  0.25000000  0.75000000  0.55424200  1
  Ir  Ir0_4  1  0.75000000  0.25000000  0.05424200  1
  Ir  Ir0_5  1  0.75000000  0.25000000  0.55424200  1
  Ir  Ir0_6  1  0.75000000  0.75000000  0.05424200  1
  Ir  Ir0_7  1  0.75000000  0.75000000  0.55424200  1
  Ir  Ir1_0  1  0.25000000  0.25000000  0.44575800  1
  Ir  Ir1_1  1  0.25000000  0.25000000  0.94575800  1
  Ir  Ir1_2  1  0.25000000  0.75000000  0.44575800  1
  Ir  Ir1_3  1  0.25000000  0.75000000  0.94575800  1
  Ir  Ir1_4  1  0.75000000  0.25000000  0.44575800  1
  Ir  Ir1_5  1  0.75000000  0.25000000  0.94575800  1
  Ir  Ir1_6  1  0.75000000  0.75000000  0.44575800  1
  Ir  Ir1_7  1  0.75000000  0.75000000  0.94575800  1
  Ir  Ir2_0  1  0.25000000  0.25000000  0.25000000  1
  Ir  Ir2_1  1  0.25000000  0.25000000  0.75000000  1
  Ir  Ir2_2  1  0.25000000  0.75000000  0.25000000  1
  Ir  Ir2_3  1  0.25000000  0.75000000  0.75000000  1
  Ir  Ir2_4  1  0.75000000  0.25000000  0.25000000  1
  Ir  Ir2_5  1  0.75000000  0.25000000  0.75000000  1
  Ir  Ir2_6  1  0.75000000  0.75000000  0.25000000  1
  Ir  Ir2_7  1  0.75000000  0.75000000  0.75000000  1
loop_
_geom_bond_atom_site_label_1
_geom_bond_atom_site_label_2
_geom_bond_distance
_geom_bond_site_symmetry_2
Nd0_0 Nd0_2 2.827337 1_555
Nd0_0 Nd0_2 2.827337 1_545
Nd0_0 Nd0_4 2.827337 1_455
Nd0_0 Nd0_4 2.827337 1_555
Nd0_0 Si1_0 3.075206 1_555
Nd0_1 Nd0_3 2.827337 1_545
Nd0_1 Nd0_3 2.827337 1_555
Nd0_1 Nd0_5 2.827337 1_455
Nd0_1 Nd0_5 2.827337 1_555
Nd0_1 Si1_1 3.075206 1_555
Nd0_2 Nd0_6 2.827337 1_555
Nd0_2 Nd0_6 2.827337 1_455
Nd0_2 Si1_2 3.075206 1_555
Nd0_3 Nd0_7 2.827337 1_455
Nd0_3 Nd0_7 2.827337 1_555
Nd0_3 Si1_3 3.075206 1_555
Nd0_4 Nd0_6 2.827337 1_545
Nd0_4 Nd0_6 2.827337 1_555
Nd0_4 Si1_4 3.075206 1_555
Nd0_5 Nd0_7 2.827337 1_545
Nd0_5 Nd0_7 2.827337 1_555
Nd0_5 Si1_5 3.075206 1_555
Nd0_6 Si1_6 3.075206 1_555
Nd0_7 Si1_7 3.075206 1_555
Nd1_0 Nd1_4 2.827337 1_455
Nd1_0 Nd1_4 2.827337 1_555
Nd1_0 Nd1_2 2.827337 1_545
Nd1_0 Nd1_2 2.827337 1_555
Nd1_0 Si0_0 3.075206 1_555
Nd1_1 Nd1_5 2.827337 1_455
Nd1_1 Nd1_5 2.827337 1_555
Nd1_1 Nd1_3 2.827337 1_555
Nd1_1 Nd1_3 2.827337 1_545
Nd1_1 Si0_1 3.075206 1_555
Nd1_2 Nd1_6 2.827337 1_455
Nd1_2 Nd1_6 2.827337 1_555
Nd1_2 Si0_2 3.075206 1_555
Nd1_3 Nd1_7 2.827337 1_555
Nd1_3 Nd1_7 2.827337 1_455
Nd1_3 Si0_3 3.075206 1_555
Nd1_4 Nd1_6 2.827337 1_555
Nd1_4 Nd1_6 2.827337 1_545
Nd1_4 Si0_4 3.075206 1_555
Nd1_5 Nd1_7 2.827337 1_545
Nd1_5 Nd1_7 2.827337 1_555
Nd1_5 Si0_5 3.075206 1_555
Nd1_6 Si0_6 3.075206 1_555
Nd1_7 Si0_7 3.075206 1_555
Ir0_0 Si2_0 2.244179 1_555
Ir0_0 Nd1_0 2.718856 1_555
Ir0_1 Si2_1 2.244179 1_555
Ir0_1 Nd1_1 2.718856 1_555
Ir0_2 Si2_2 2.244179 1_555
Ir0_2 Nd1_2 2.718856 1_555
Ir0_3 Si2_3 2.244179 1_555
Ir0_3 Nd1_3 2.718856 1_555
Ir0_4 Si2_4 2.244179 1_555
Ir0_4 Nd1_4 2.718856 1_555
Ir0_5 Si2_5 2.244179 1_555
Ir0_5 Nd1_5 2.718856 1_555
Ir0_6 Si2_6 2.244179 1_555
Ir0_6 Nd1_6 2.718856 1_555
Ir0_7 Si2_7 2.244179 1_555
Ir0_7 Nd1_7 2.718856 1_555
Ir1_0 Si2_1 2.244179 1_555
Ir1_0 Nd0_0 2.718856 1_555
Ir1_1 Si2_0 2.244179 1_556
Ir1_1 Nd0_1 2.718856 1_555
Ir1_2 Si2_3 2.244179 1_555
Ir1_2 Nd0_2 2.718856 1_555
Ir1_3 Si2_2 2.244179 1_556
Ir1_3 Nd0_3 2.718856 1_555
Ir1_4 Si2_5 2.244179 1_555
Ir1_4 Nd0_4 2.718856 1_555
Ir1_5 Si2_4 2.244179 1_556
Ir1_5 Nd0_5 2.718856 1_555
Ir1_6 Si2_7 2.244179 1_555
Ir1_6 Nd0_6 2.718856 1_555
Ir1_7 Si2_6 2.244179 1_556
Ir1_7 Nd0_7 2.718856 1_555
Ir2_0 Si0_0 2.305122 1_555
Ir2_0 Si1_0 2.305122 1_555
Ir2_1 Si1_1 2.305122 1_555
Ir2_1 Si0_1 2.305122 1_555
Ir2_2 Si0_2 2.305122 1_555
Ir2_2 Si1_2 2.305122 1_555
Ir2_3 Si0_3 2.305122 1_555
Ir2_3 Si1_3 2.305122 1_555
Ir2_4 Si0_4 2.305122 1_555
Ir2_4 Si1_4 2.305122 1_555
Ir2_5 Si0_5 2.305122 1_555
Ir2_5 Si1_5 2.305122 1_555
Ir2_6 Si1_6 2.305122 1_555
Ir2_6 Si0_6 2.305122 1_555
Ir2_7 Si0_7 2.305122 1_555
Ir2_7 Si1_7 2.305122 1_555
