# generated using pymatgen
data_Li7Mn4CoO12
_symmetry_space_group_name_H-M   'P 1'
_cell_length_a   2.87343458
_cell_length_b   15.22692053
_cell_length_c   10.58580702
_cell_angle_alpha   72.35957355
_cell_angle_beta   97.92711920
_cell_angle_gamma   95.46267531
_symmetry_Int_Tables_number   1
_chemical_formula_structural   Li7Mn4CoO12
_chemical_formula_sum   'Li14 Mn8 Co2 O24'
_cell_volume   436.46922466
_cell_formula_units_Z   2
loop_
 _symmetry_equiv_pos_site_id
 _symmetry_equiv_pos_as_xyz
  1  'x, y, z'
loop_
 _atom_site_type_symbol
 _atom_site_label
 _atom_site_symmetry_multiplicity
 _atom_site_fract_x
 _atom_site_fract_y
 _atom_site_fract_z
 _atom_site_occupancy
  Li  Li0  1  0.50054100  0.16681500  0.83302100  1
  Li  Li1  1  0.99951800  0.66655900  0.33356400  1
  Li  Li2  1  0.62227200  0.12242300  0.11899500  1
  Li  Li3  1  0.12149400  0.62230800  0.61985500  1
  Li  Li4  1  0.37879200  0.21100500  0.54684900  1
  Li  Li5  1  0.87767000  0.71091700  0.04759600  1
  Li  Li6  1  0.87076000  0.37828000  0.36826600  1
  Li  Li7  1  0.37356000  0.87724100  0.86978900  1
  Li  Li8  1  0.62938000  0.45511300  0.79847500  1
  Li  Li9  1  0.12623500  0.95605900  0.29688100  1
  Li  Li10  1  0.12506900  0.28578700  0.95959900  1
  Li  Li11  1  0.62198500  0.78488100  0.46067200  1
  Li  Li12  1  0.87786000  0.04816600  0.70609400  1
  Li  Li13  1  0.37472800  0.54753100  0.20711200  1
  Mn  Mn0  1  0.49902200  0.82886700  0.16890700  1
  Mn  Mn1  1  0.74946900  0.75014800  0.74775400  1
  Mn  Mn2  1  0.75039000  0.08310100  0.41905900  1
  Mn  Mn3  1  0.00093600  0.00444100  0.99759100  1
  Mn  Mn4  1  0.50088300  0.50448500  0.49834400  1
  Mn  Mn5  1  0.99979900  0.32891200  0.66848700  1
  Mn  Mn6  1  0.24937200  0.25070000  0.24619900  1
  Mn  Mn7  1  0.25059900  0.58271600  0.92049300  1
  Co  Co0  1  0.74988800  0.41670100  0.08331800  1
  Co  Co1  1  0.24982900  0.91663000  0.58329100  1
  O  O0  1  0.05372500  0.47253700  0.63385800  1
  O  O1  1  0.55362500  0.97274800  0.13326200  1
  O  O2  1  0.44681700  0.36091900  0.53283100  1
  O  O3  1  0.94612100  0.86058200  0.03322100  1
  O  O4  1  0.80650600  0.23864300  0.37701400  1
  O  O5  1  0.30947100  0.73800200  0.87856900  1
  O  O6  1  0.19043800  0.09529100  0.28821900  1
  O  O7  1  0.69348800  0.59469400  0.78971000  1
  O  O8  1  0.05642800  0.12664800  0.98509500  1
  O  O9  1  0.55596600  0.62672500  0.48590400  1
  O  O10  1  0.94443300  0.20671700  0.68074600  1
  O  O11  1  0.44334600  0.70663800  0.18145700  1
  O  O12  1  0.29419400  0.40429600  0.20973300  1
  O  O13  1  0.80741300  0.90346600  0.71038100  1
  O  O14  1  0.20557700  0.42905100  0.95693800  1
  O  O15  1  0.69227300  0.92988600  0.45614900  1
  O  O16  1  0.55891700  0.31756400  0.79562100  1
  O  O17  1  0.05767800  0.81785800  0.29597900  1
  O  O18  1  0.44211400  0.01553600  0.87056300  1
  O  O19  1  0.94156300  0.51582900  0.37107400  1
  O  O20  1  0.31023200  0.06853600  0.55162100  1
  O  O21  1  0.80884900  0.56811100  0.05285400  1
  O  O22  1  0.69110800  0.26516100  0.11388900  1
  O  O23  1  0.18966900  0.76478200  0.61510400  1
loop_
_geom_bond_atom_site_label_1
_geom_bond_atom_site_label_2
_geom_bond_distance
_geom_bond_site_symmetry_2
Li0 O8 2.096902 1_655
Li0 O10 2.098033 1_455
Li0 O8 2.101288 1_555
Li0 O10 2.102475 1_555
Li0 O16 2.201851 1_555
Li0 O18 2.209577 1_555
Li1 O11 2.097487 1_555
Li1 O9 2.098963 1_655
Li1 O11 2.100992 1_655
Li1 O9 2.102333 1_555
Li1 O19 2.201419 1_555
Li1 O17 2.209818 1_655
Li2 O8 1.996457 1_554
Li2 O8 1.996689 1_654
Li2 O22 2.148458 1_555
Li2 O6 2.217708 1_655
Li2 O1 2.229343 1_545
Li2 O6 2.233015 1_555
Li3 O9 1.995815 1_455
Li3 O9 1.997061 1_555
Li3 O23 2.145472 1_555
Li3 O7 2.229213 1_555
Li3 O7 2.230601 1_455
Li3 O0 2.231440 1_555
Li4 O10 1.995918 1_555
Li4 O10 1.996852 1_455
Li4 O20 2.145334 1_555
Li4 O4 2.229621 1_455
Li4 O4 2.229846 1_555
Li4 O2 2.233567 1_555
Li5 O11 1.995781 1_655
Li5 O11 1.996513 1_555
Li5 O21 2.149056 1_555
Li5 O5 2.216407 1_554
Li5 O3 2.228929 1_555
Li5 O5 2.231317 1_654
Li6 O4 2.091459 1_555
Li6 O19 2.093782 1_555
Li6 O12 2.126540 1_655
Li6 O12 2.161750 1_555
Li6 O2 2.198520 1_555
Li6 O2 2.203035 1_655
Li7 O5 2.085346 1_555
Li7 O18 2.098649 1_565
Li7 O13 2.147444 1_455
Li7 O13 2.153643 1_555
Li7 O3 2.189194 1_556
Li7 O3 2.196991 1_456
Li8 O7 2.090567 1_555
Li8 O16 2.093930 1_555
Li8 O14 2.126568 1_555
Li8 O14 2.160591 1_655
Li8 O0 2.199565 1_655
Li8 O0 2.202592 1_555
Li9 O6 2.085554 1_565
Li9 O17 2.097624 1_555
Li9 O15 2.146293 1_555
Li9 O15 2.152742 1_455
Li9 O1 2.190553 1_455
Li9 O1 2.198461 1_555
Li10 O22 2.113127 1_556
Li10 O22 2.120721 1_456
Li10 O14 2.163698 1_555
Li10 O16 2.180747 1_455
Li10 O16 2.185025 1_555
Li10 O8 2.347537 1_555
Li11 O23 2.117378 1_655
Li11 O23 2.119872 1_555
Li11 O17 2.183018 1_555
Li11 O15 2.184479 1_555
Li11 O17 2.193333 1_655
Li11 O9 2.333245 1_555
Li12 O20 2.117477 1_555
Li12 O20 2.119737 1_655
Li12 O13 2.180536 1_545
Li12 O18 2.181128 1_655
Li12 O18 2.191882 1_555
Li12 O10 2.338967 1_555
Li13 O21 2.112614 1_455
Li13 O21 2.120859 1_555
Li13 O12 2.163378 1_555
Li13 O19 2.181873 1_555
Li13 O19 2.183679 1_455
Li13 O11 2.346742 1_555
Mn0 O11 1.818382 1_555
Mn0 O17 1.932197 1_655
Mn0 O17 1.933703 1_555
Mn0 O3 1.979039 1_455
Mn0 O3 1.979200 1_555
Mn0 O1 2.101601 1_555
Mn1 O5 1.956512 1_655
Mn1 O5 1.957924 1_555
Mn1 O23 1.965823 1_555
Mn1 O23 1.966721 1_655
Mn1 O13 2.240266 1_555
Mn1 O7 2.266331 1_555
Mn2 O6 1.956528 1_555
Mn2 O6 1.958111 1_655
Mn2 O20 1.965410 1_655
Mn2 O20 1.966090 1_555
Mn2 O15 2.239115 1_545
Mn2 O4 2.267537 1_555
Mn3 O8 1.818178 1_555
Mn3 O18 1.932234 1_455
Mn3 O18 1.932750 1_555
Mn3 O1 1.978477 1_546
Mn3 O1 1.979537 1_446
Mn3 O3 2.101293 1_446
Mn4 O9 1.818811 1_555
Mn4 O19 1.932932 1_555
Mn4 O19 1.934554 1_455
Mn4 O0 1.977844 1_555
Mn4 O0 1.978292 1_655
Mn4 O2 2.098473 1_555
Mn5 O10 1.818563 1_555
Mn5 O16 1.932258 1_555
Mn5 O16 1.933322 1_655
Mn5 O2 1.978633 1_655
Mn5 O2 1.979488 1_555
Mn5 O0 2.099158 1_655
Mn6 O4 1.950530 1_555
Mn6 O22 1.960625 1_455
Mn6 O4 1.964229 1_455
Mn6 O22 1.967622 1_555
Mn6 O12 2.246048 1_555
Mn6 O6 2.265590 1_555
Mn7 O7 1.950341 1_455
Mn7 O21 1.960846 1_556
Mn7 O7 1.964237 1_555
Mn7 O21 1.967704 1_456
Mn7 O14 2.247102 1_555
Mn7 O5 2.263870 1_555
Co0 O14 1.896777 1_554
Co0 O12 1.896944 1_655
Co0 O14 1.955375 1_654
Co0 O12 1.955516 1_555
Co0 O21 2.222195 1_555
Co0 O22 2.223969 1_555
Co1 O13 1.928805 1_555
Co1 O15 1.929010 1_455
Co1 O13 1.930288 1_455
Co1 O15 1.930527 1_555
Co1 O23 2.226540 1_555
Co1 O20 2.227642 1_565
