# generated using pymatgen
data_BaNb8O14
_symmetry_space_group_name_H-M   'P 1'
_cell_length_a   9.52658803
_cell_length_b   10.46729709
_cell_length_c   23.96380412
_cell_angle_alpha   90.00000000
_cell_angle_beta   90.00000000
_cell_angle_gamma   90.00000000
_symmetry_Int_Tables_number   1
_chemical_formula_structural   BaNb8O14
_chemical_formula_sum   'Ba8 Nb64 O112'
_cell_volume   2389.61368467
_cell_formula_units_Z   8
loop_
 _symmetry_equiv_pos_site_id
 _symmetry_equiv_pos_as_xyz
  1  'x, y, z'
loop_
 _atom_site_type_symbol
 _atom_site_label
 _atom_site_symmetry_multiplicity
 _atom_site_fract_x
 _atom_site_fract_y
 _atom_site_fract_z
 _atom_site_occupancy
  Ba  Ba0  1  0.00728156  0.01338117  0.13557271  1
  Ba  Ba1  1  0.50728156  0.98661883  0.36442729  1
  Ba  Ba2  1  0.99271844  0.48661883  0.63557271  1
  Ba  Ba3  1  0.49271844  0.51338117  0.86442729  1
  Ba  Ba4  1  0.99271844  0.98661883  0.86442729  1
  Ba  Ba5  1  0.49271844  0.01338117  0.63557271  1
  Ba  Ba6  1  0.00728156  0.51338117  0.36442729  1
  Ba  Ba7  1  0.50728156  0.48661883  0.13557271  1
  Nb  Nb0  1  0.62507828  0.07562930  0.06721206  1
  Nb  Nb1  1  0.12507828  0.92437070  0.43278794  1
  Nb  Nb2  1  0.37492172  0.42437070  0.56721206  1
  Nb  Nb3  1  0.87492172  0.57562930  0.93278794  1
  Nb  Nb4  1  0.37492172  0.92437070  0.93278794  1
  Nb  Nb5  1  0.87492172  0.07562930  0.56721206  1
  Nb  Nb6  1  0.62507828  0.57562930  0.43278794  1
  Nb  Nb7  1  0.12507828  0.42437070  0.06721206  1
  Nb  Nb8  1  0.37548526  0.92157724  0.06652224  1
  Nb  Nb9  1  0.87548526  0.07842276  0.43347776  1
  Nb  Nb10  1  0.62451474  0.57842276  0.56652224  1
  Nb  Nb11  1  0.12451474  0.42157724  0.93347776  1
  Nb  Nb12  1  0.62451474  0.07842276  0.93347776  1
  Nb  Nb13  1  0.12451474  0.92157724  0.56652224  1
  Nb  Nb14  1  0.37548526  0.42157724  0.43347776  1
  Nb  Nb15  1  0.87548526  0.57842276  0.06652224  1
  Nb  Nb16  1  0.37694970  0.92739211  0.18219144  1
  Nb  Nb17  1  0.87694970  0.07260789  0.31780856  1
  Nb  Nb18  1  0.62305030  0.57260789  0.68219144  1
  Nb  Nb19  1  0.12305030  0.42739211  0.81780856  1
  Nb  Nb20  1  0.62305030  0.07260789  0.81780856  1
  Nb  Nb21  1  0.12305030  0.92739211  0.68219144  1
  Nb  Nb22  1  0.37694970  0.42739211  0.31780856  1
  Nb  Nb23  1  0.87694970  0.57260789  0.18219144  1
  Nb  Nb24  1  0.38162026  0.16122635  0.12018602  1
  Nb  Nb25  1  0.88162026  0.83877365  0.37981398  1
  Nb  Nb26  1  0.61837974  0.33877365  0.62018602  1
  Nb  Nb27  1  0.11837974  0.66122635  0.87981398  1
  Nb  Nb28  1  0.61837974  0.83877365  0.87981398  1
  Nb  Nb29  1  0.11837974  0.16122635  0.62018602  1
  Nb  Nb30  1  0.38162026  0.66122635  0.37981398  1
  Nb  Nb31  1  0.88162026  0.33877365  0.12018602  1
  Nb  Nb32  1  0.36132061  0.18532984  0.25348748  1
  Nb  Nb33  1  0.86132061  0.81467016  0.24651252  1
  Nb  Nb34  1  0.63867939  0.31467016  0.75348748  1
  Nb  Nb35  1  0.13867939  0.68532984  0.74651252  1
  Nb  Nb36  1  0.63867939  0.81467016  0.74651252  1
  Nb  Nb37  1  0.13867939  0.18532984  0.75348748  1
  Nb  Nb38  1  0.36132061  0.68532984  0.24651252  1
  Nb  Nb39  1  0.86132061  0.31467016  0.25348748  1
  Nb  Nb40  1  0.11698766  0.16014657  0.99866427  1
  Nb  Nb41  1  0.61698766  0.83985343  0.50133573  1
  Nb  Nb42  1  0.88301234  0.33985343  0.49866427  1
  Nb  Nb43  1  0.38301234  0.66014657  0.00133573  1
  Nb  Nb44  1  0.88301234  0.83985343  0.00133573  1
  Nb  Nb45  1  0.38301234  0.16014657  0.49866427  1
  Nb  Nb46  1  0.11698766  0.66014657  0.50133573  1
  Nb  Nb47  1  0.61698766  0.33985343  0.99866427  1
  Nb  Nb48  1  0.61713716  0.83540697  0.12400619  1
  Nb  Nb49  1  0.11713716  0.16459303  0.37599381  1
  Nb  Nb50  1  0.38286284  0.66459303  0.62400619  1
  Nb  Nb51  1  0.88286284  0.33540697  0.87599381  1
  Nb  Nb52  1  0.38286284  0.16459303  0.87599381  1
  Nb  Nb53  1  0.88286284  0.83540697  0.62400619  1
  Nb  Nb54  1  0.61713716  0.33540697  0.37599381  1
  Nb  Nb55  1  0.11713716  0.66459303  0.12400619  1
  Nb  Nb56  1  0.62419825  0.07583093  0.18290981  1
  Nb  Nb57  1  0.12419825  0.92416907  0.31709019  1
  Nb  Nb58  1  0.37580175  0.42416907  0.68290981  1
  Nb  Nb59  1  0.87580175  0.57583093  0.81709019  1
  Nb  Nb60  1  0.37580175  0.92416907  0.81709019  1
  Nb  Nb61  1  0.87580175  0.07583093  0.68290981  1
  Nb  Nb62  1  0.62419825  0.57583093  0.31709019  1
  Nb  Nb63  1  0.12419825  0.42416907  0.18290981  1
  O  O0  1  0.49299928  0.74672351  0.06337397  1
  O  O1  1  0.99299928  0.25327649  0.43662603  1
  O  O2  1  0.50700072  0.75327649  0.56337397  1
  O  O3  1  0.00700072  0.24672351  0.93662603  1
  O  O4  1  0.50700072  0.25327649  0.93662603  1
  O  O5  1  0.00700072  0.74672351  0.56337397  1
  O  O6  1  0.49299928  0.24672351  0.43662603  1
  O  O7  1  0.99299928  0.75327649  0.06337397  1
  O  O8  1  0.75133519  0.91062753  0.18816482  1
  O  O9  1  0.25133519  0.08937247  0.31183518  1
  O  O10  1  0.24866481  0.58937247  0.68816482  1
  O  O11  1  0.74866481  0.41062753  0.81183518  1
  O  O12  1  0.24866481  0.08937247  0.81183518  1
  O  O13  1  0.74866481  0.91062753  0.68816482  1
  O  O14  1  0.75133519  0.41062753  0.31183518  1
  O  O15  1  0.25133519  0.58937247  0.18816482  1
  O  O16  1  0.48958898  0.75149499  0.18683682  1
  O  O17  1  0.98958898  0.24850501  0.31316318  1
  O  O18  1  0.51041102  0.74850501  0.68683682  1
  O  O19  1  0.01041102  0.25149499  0.81316318  1
  O  O20  1  0.51041102  0.24850501  0.81316318  1
  O  O21  1  0.01041102  0.75149499  0.68683682  1
  O  O22  1  0.48958898  0.25149499  0.31316318  1
  O  O23  1  0.98958898  0.74850501  0.18683682  1
  O  O24  1  0.75657164  0.91263999  0.06304050  1
  O  O25  1  0.25657164  0.08736001  0.43695950  1
  O  O26  1  0.24342836  0.58736001  0.56304050  1
  O  O27  1  0.74342836  0.41263999  0.93695950  1
  O  O28  1  0.24342836  0.08736001  0.93695950  1
  O  O29  1  0.74342836  0.91263999  0.56304050  1
  O  O30  1  0.75657164  0.41263999  0.43695950  1
  O  O31  1  0.25657164  0.58736001  0.06304050  1
  O  O32  1  0.23967118  0.84649580  0.12501020  1
  O  O33  1  0.73967118  0.15350420  0.37498980  1
  O  O34  1  0.76032882  0.65350420  0.62501020  1
  O  O35  1  0.26032882  0.34649580  0.87498980  1
  O  O36  1  0.76032882  0.15350420  0.87498980  1
  O  O37  1  0.26032882  0.84649580  0.62501020  1
  O  O38  1  0.23967118  0.34649580  0.37498980  1
  O  O39  1  0.73967118  0.65350420  0.12501020  1
  O  O40  1  0.75715961  0.15792411  0.12485397  1
  O  O41  1  0.25715961  0.84207589  0.37514603  1
  O  O42  1  0.24284039  0.34207589  0.62485397  1
  O  O43  1  0.74284039  0.65792411  0.87514603  1
  O  O44  1  0.24284039  0.84207589  0.87514603  1
  O  O45  1  0.74284039  0.15792411  0.62485397  1
  O  O46  1  0.75715961  0.65792411  0.37514603  1
  O  O47  1  0.25715961  0.34207589  0.12485397  1
  O  O48  1  0.48754372  0.01814014  0.24717308  1
  O  O49  1  0.98754372  0.98185986  0.25282692  1
  O  O50  1  0.51245628  0.48185986  0.74717308  1
  O  O51  1  0.01245628  0.51814014  0.75282692  1
  O  O52  1  0.51245628  0.98185986  0.75282692  1
  O  O53  1  0.01245628  0.01814014  0.74717308  1
  O  O54  1  0.48754372  0.51814014  0.25282692  1
  O  O55  1  0.98754372  0.48185986  0.24717308  1
  O  O56  1  0.49295848  0.23865958  0.18911858  1
  O  O57  1  0.99295848  0.76134042  0.31088142  1
  O  O58  1  0.50704152  0.26134042  0.68911858  1
  O  O59  1  0.00704152  0.73865958  0.81088142  1
  O  O60  1  0.50704152  0.76134042  0.81088142  1
  O  O61  1  0.00704152  0.23865958  0.68911858  1
  O  O62  1  0.49295848  0.73865958  0.31088142  1
  O  O63  1  0.99295848  0.26134042  0.18911858  1
  O  O64  1  0.75476979  0.16204936  0.24892754  1
  O  O65  1  0.25476979  0.83795064  0.25107246  1
  O  O66  1  0.24523021  0.33795064  0.74892754  1
  O  O67  1  0.74523021  0.66204936  0.75107246  1
  O  O68  1  0.24523021  0.83795064  0.75107246  1
  O  O69  1  0.74523021  0.16204936  0.74892754  1
  O  O70  1  0.75476979  0.66204936  0.25107246  1
  O  O71  1  0.25476979  0.33795064  0.24892754  1
  O  O72  1  0.50000000  -0.00000000  -0.00000000  1
  O  O73  1  0.00000000  -0.00000000  0.50000000  1
  O  O74  1  0.50000000  0.50000000  0.50000000  1
  O  O75  1  0.00000000  0.50000000  -0.00000000  1
  O  O76  1  0.50881089  0.25352117  0.06260995  1
  O  O77  1  0.00881089  0.74647883  0.43739005  1
  O  O78  1  0.49118911  0.24647883  0.56260995  1
  O  O79  1  0.99118911  0.75352117  0.93739005  1
  O  O80  1  0.49118911  0.74647883  0.93739005  1
  O  O81  1  0.99118911  0.25352117  0.56260995  1
  O  O82  1  0.50881089  0.75352117  0.43739005  1
  O  O83  1  0.00881089  0.24647883  0.06260995  1
  O  O84  1  0.72964648  0.18164214  0.00038754  1
  O  O85  1  0.22964648  0.81835786  0.49961246  1
  O  O86  1  0.27035352  0.31835786  0.50038754  1
  O  O87  1  0.77035352  0.68164214  0.99961246  1
  O  O88  1  0.27035352  0.81835786  0.99961246  1
  O  O89  1  0.77035352  0.18164214  0.50038754  1
  O  O90  1  0.72964648  0.68164214  0.49961246  1
  O  O91  1  0.22964648  0.31835786  0.00038754  1
  O  O92  1  0.24079783  0.08364937  0.06122126  1
  O  O93  1  0.74079783  0.91635063  0.43877874  1
  O  O94  1  0.75920217  0.41635063  0.56122126  1
  O  O95  1  0.25920217  0.58364937  0.93877874  1
  O  O96  1  0.75920217  0.91635063  0.93877874  1
  O  O97  1  0.25920217  0.08364937  0.56122126  1
  O  O98  1  0.24079783  0.58364937  0.43877874  1
  O  O99  1  0.74079783  0.41635063  0.06122126  1
  O  O100  1  0.25747155  0.09527343  0.18836391  1
  O  O101  1  0.75747155  0.90472657  0.31163609  1
  O  O102  1  0.74252845  0.40472657  0.68836391  1
  O  O103  1  0.24252845  0.59527343  0.81163609  1
  O  O104  1  0.74252845  0.90472657  0.81163609  1
  O  O105  1  0.24252845  0.09527343  0.68836391  1
  O  O106  1  0.25747155  0.59527343  0.31163609  1
  O  O107  1  0.75747155  0.40472657  0.18836391  1
  O  O108  1  0.00000000  -0.00000000  -0.00000000  1
  O  O109  1  0.50000000  -0.00000000  0.50000000  1
  O  O110  1  0.00000000  0.50000000  0.50000000  1
  O  O111  1  0.50000000  0.50000000  -0.00000000  1
loop_
_geom_bond_atom_site_label_1
_geom_bond_atom_site_label_2
_geom_bond_distance
_geom_bond_site_symmetry_2
Ba0 O100 2.831266 1_555
Ba0 O32 2.831392 1_545
Ba0 O40 2.834228 1_455
Ba0 O49 2.835404 1_445
Ba0 O63 2.898543 1_455
Ba0 O92 2.943553 1_555
Ba0 O8 2.947961 1_445
Ba0 O83 3.001744 1_555
Ba0 O23 3.037193 1_445
Ba0 O24 3.136496 1_445
Ba0 O7 3.228694 1_445
Ba0 O108 3.252596 1_555
Ba1 O101 2.831266 1_555
Ba1 O33 2.831392 1_565
Ba1 O41 2.834228 1_555
Ba1 O48 2.835404 1_565
Ba1 O62 2.898543 1_555
Ba1 O93 2.943553 1_555
Ba1 O9 2.947961 1_565
Ba1 O82 3.001744 1_555
Ba1 O22 3.037193 1_565
Ba1 O25 3.136496 1_565
Ba1 O6 3.228694 1_565
Ba1 O109 3.252596 1_565
Ba2 O102 2.831266 1_555
Ba2 O34 2.831392 1_555
Ba2 O42 2.834228 1_655
Ba2 O51 2.835404 1_655
Ba2 O61 2.898543 1_655
Ba2 O94 2.943553 1_555
Ba2 O10 2.947961 1_655
Ba2 O81 3.001744 1_555
Ba2 O21 3.037193 1_655
Ba2 O26 3.136496 1_655
Ba2 O5 3.228694 1_655
Ba2 O110 3.252596 1_655
Ba3 O103 2.831266 1_555
Ba3 O35 2.831392 1_555
Ba3 O43 2.834228 1_555
Ba3 O50 2.835404 1_555
Ba3 O60 2.898543 1_555
Ba3 O95 2.943553 1_555
Ba3 O11 2.947961 1_555
Ba3 O80 3.001744 1_555
Ba3 O20 3.037193 1_555
Ba3 O27 3.136496 1_555
Ba3 O4 3.228694 1_555
Ba3 O111 3.252596 1_556
Ba4 O104 2.831266 1_555
Ba4 O36 2.831392 1_565
Ba4 O44 2.834228 1_655
Ba4 O53 2.835404 1_665
Ba4 O59 2.898543 1_655
Ba4 O96 2.943553 1_555
Ba4 O12 2.947961 1_665
Ba4 O79 3.001744 1_555
Ba4 O19 3.037193 1_665
Ba4 O28 3.136496 1_665
Ba4 O3 3.228694 1_665
Ba4 O108 3.252596 1_666
Ba5 O105 2.831266 1_555
Ba5 O37 2.831392 1_545
Ba5 O45 2.834228 1_555
Ba5 O52 2.835404 1_545
Ba5 O58 2.898543 1_555
Ba5 O97 2.943553 1_555
Ba5 O13 2.947961 1_545
Ba5 O78 3.001744 1_555
Ba5 O18 3.037193 1_545
Ba5 O29 3.136496 1_545
Ba5 O2 3.228694 1_545
Ba5 O109 3.252596 1_555
Ba6 O106 2.831266 1_555
Ba6 O38 2.831392 1_555
Ba6 O46 2.834228 1_455
Ba6 O55 2.835404 1_455
Ba6 O57 2.898543 1_455
Ba6 O98 2.943553 1_555
Ba6 O14 2.947961 1_455
Ba6 O77 3.001744 1_555
Ba6 O17 3.037193 1_455
Ba6 O30 3.136496 1_455
Ba6 O1 3.228694 1_455
Ba6 O110 3.252596 1_555
Ba7 O107 2.831266 1_555
Ba7 O39 2.831392 1_555
Ba7 O47 2.834228 1_555
Ba7 O54 2.835404 1_555
Ba7 O56 2.898543 1_555
Ba7 O99 2.943553 1_555
Ba7 O15 2.947961 1_555
Ba7 O76 3.001744 1_555
Ba7 O16 3.037193 1_555
Ba7 O31 3.136496 1_555
Ba7 O0 3.228694 1_555
Ba7 O111 3.252596 1_555
Nb0 O40 2.057508 1_555
Nb0 O24 2.118924 1_545
Nb0 O72 2.154237 1_555
Nb0 O76 2.169385 1_555
Nb0 O84 2.188177 1_555
Nb1 O41 2.057508 1_555
Nb1 O25 2.118924 1_565
Nb1 O73 2.154237 1_565
Nb1 O77 2.169385 1_555
Nb1 O85 2.188177 1_555
Nb2 O42 2.057508 1_555
Nb2 O26 2.118924 1_555
Nb2 O74 2.154237 1_555
Nb2 O78 2.169385 1_555
Nb2 O86 2.188177 1_555
Nb3 O43 2.057508 1_555
Nb3 O27 2.118924 1_555
Nb3 O75 2.154237 1_656
Nb3 O79 2.169385 1_555
Nb3 O87 2.188177 1_555
Nb4 O44 2.057508 1_555
Nb4 O28 2.118924 1_565
Nb4 O72 2.154237 1_566
Nb4 O80 2.169385 1_555
Nb4 O88 2.188177 1_555
Nb5 O45 2.057508 1_555
Nb5 O29 2.118924 1_545
Nb5 O73 2.154237 1_655
Nb5 O81 2.169385 1_555
Nb5 O89 2.188177 1_555
Nb6 O46 2.057508 1_555
Nb6 O30 2.118924 1_555
Nb6 O74 2.154237 1_555
Nb6 O82 2.169385 1_555
Nb6 O90 2.188177 1_555
Nb7 O47 2.057508 1_555
Nb7 O31 2.118924 1_555
Nb7 O75 2.154237 1_555
Nb7 O83 2.169385 1_555
Nb7 O91 2.188177 1_555
Nb8 O32 2.063041 1_555
Nb8 O92 2.130840 1_565
Nb8 O0 2.146809 1_555
Nb8 O72 2.149917 1_565
Nb8 O88 2.177465 1_554
Nb9 O33 2.063041 1_555
Nb9 O93 2.130840 1_545
Nb9 O1 2.146809 1_555
Nb9 O73 2.149917 1_655
Nb9 O89 2.177465 1_555
Nb10 O34 2.063041 1_555
Nb10 O94 2.130840 1_555
Nb10 O2 2.146809 1_555
Nb10 O74 2.149917 1_555
Nb10 O90 2.177465 1_555
Nb11 O35 2.063041 1_555
Nb11 O95 2.130840 1_555
Nb11 O3 2.146809 1_555
Nb11 O75 2.149917 1_556
Nb11 O91 2.177465 1_556
Nb12 O36 2.063041 1_555
Nb12 O96 2.130840 1_545
Nb12 O4 2.146809 1_555
Nb12 O72 2.149917 1_556
Nb12 O84 2.177465 1_556
Nb13 O37 2.063041 1_555
Nb13 O97 2.130840 1_565
Nb13 O5 2.146809 1_555
Nb13 O73 2.149917 1_565
Nb13 O85 2.177465 1_555
Nb14 O38 2.063041 1_555
Nb14 O98 2.130840 1_555
Nb14 O6 2.146809 1_555
Nb14 O74 2.149917 1_555
Nb14 O86 2.177465 1_555
Nb15 O39 2.063041 1_555
Nb15 O99 2.130840 1_555
Nb15 O7 2.146809 1_555
Nb15 O75 2.149917 1_655
Nb15 O87 2.177465 1_554
Nb16 O32 2.074852 1_555
Nb16 O100 2.098904 1_565
Nb16 O48 2.106470 1_565
Nb16 O16 2.133955 1_555
Nb16 O65 2.226193 1_555
Nb17 O33 2.074852 1_555
Nb17 O101 2.098904 1_545
Nb17 O49 2.106470 1_545
Nb17 O17 2.133955 1_555
Nb17 O64 2.226193 1_555
Nb18 O34 2.074852 1_555
Nb18 O102 2.098904 1_555
Nb18 O50 2.106470 1_555
Nb18 O18 2.133955 1_555
Nb18 O67 2.226193 1_555
Nb19 O35 2.074852 1_555
Nb19 O103 2.098904 1_555
Nb19 O51 2.106470 1_555
Nb19 O19 2.133955 1_555
Nb19 O66 2.226193 1_555
Nb20 O36 2.074852 1_555
Nb20 O104 2.098904 1_545
Nb20 O52 2.106470 1_545
Nb20 O20 2.133955 1_555
Nb20 O69 2.226193 1_555
Nb21 O37 2.074852 1_555
Nb21 O105 2.098904 1_565
Nb21 O53 2.106470 1_565
Nb21 O21 2.133955 1_555
Nb21 O68 2.226193 1_555
Nb22 O38 2.074852 1_555
Nb22 O106 2.098904 1_555
Nb22 O54 2.106470 1_555
Nb22 O22 2.133955 1_555
Nb22 O71 2.226193 1_555
Nb23 O39 2.074852 1_555
Nb23 O107 2.098904 1_555
Nb23 O55 2.106470 1_555
Nb23 O23 2.133955 1_555
Nb23 O70 2.226193 1_555
Nb24 O76 2.074896 1_555
Nb24 O92 2.110872 1_555
Nb24 O56 2.123839 1_555
Nb24 O100 2.131830 1_555
Nb24 O47 2.236478 1_555
Nb25 O77 2.074896 1_655
Nb25 O93 2.110872 1_555
Nb25 O57 2.123839 1_555
Nb25 O101 2.131830 1_555
Nb25 O46 2.236478 1_555
Nb26 O78 2.074896 1_555
Nb26 O94 2.110872 1_555
Nb26 O58 2.123839 1_555
Nb26 O102 2.131830 1_555
Nb26 O45 2.236478 1_555
Nb27 O79 2.074896 1_455
Nb27 O95 2.110872 1_555
Nb27 O59 2.123839 1_555
Nb27 O103 2.131830 1_555
Nb27 O44 2.236478 1_555
Nb28 O80 2.074896 1_555
Nb28 O96 2.110872 1_555
Nb28 O60 2.123839 1_555
Nb28 O104 2.131830 1_555
Nb28 O43 2.236478 1_555
Nb29 O81 2.074896 1_455
Nb29 O97 2.110872 1_555
Nb29 O61 2.123839 1_555
Nb29 O105 2.131830 1_555
Nb29 O42 2.236478 1_555
Nb30 O82 2.074896 1_555
Nb30 O98 2.110872 1_555
Nb30 O62 2.123839 1_555
Nb30 O106 2.131830 1_555
Nb30 O41 2.236478 1_555
Nb31 O83 2.074896 1_655
Nb31 O99 2.110872 1_555
Nb31 O63 2.123839 1_555
Nb31 O107 2.131830 1_555
Nb31 O40 2.236478 1_555
Nb32 O71 1.895888 1_555
Nb32 O22 2.004471 1_555
Nb32 O9 2.015380 1_555
Nb32 O56 2.064861 1_555
Nb32 O100 2.074331 1_555
Nb32 O48 2.128715 1_555
Nb33 O70 1.895888 1_555
Nb33 O23 2.004471 1_555
Nb33 O8 2.015380 1_555
Nb33 O57 2.064861 1_555
Nb33 O101 2.074331 1_555
Nb33 O49 2.128715 1_555
Nb34 O69 1.895888 1_555
Nb34 O20 2.004471 1_555
Nb34 O11 2.015380 1_555
Nb34 O58 2.064861 1_555
Nb34 O102 2.074331 1_555
Nb34 O50 2.128715 1_555
Nb35 O68 1.895888 1_555
Nb35 O21 2.004471 1_555
Nb35 O10 2.015380 1_555
Nb35 O59 2.064861 1_555
Nb35 O103 2.074331 1_555
Nb35 O51 2.128715 1_555
Nb36 O67 1.895888 1_555
Nb36 O18 2.004471 1_555
Nb36 O13 2.015380 1_555
Nb36 O60 2.064861 1_555
Nb36 O104 2.074331 1_555
Nb36 O52 2.128715 1_555
Nb37 O66 1.895888 1_555
Nb37 O19 2.004471 1_555
Nb37 O12 2.015380 1_555
Nb37 O61 2.064861 1_555
Nb37 O105 2.074331 1_555
Nb37 O53 2.128715 1_555
Nb38 O65 1.895888 1_555
Nb38 O16 2.004471 1_555
Nb38 O15 2.015380 1_555
Nb38 O62 2.064861 1_555
Nb38 O106 2.074331 1_555
Nb38 O54 2.128715 1_555
Nb39 O64 1.895888 1_555
Nb39 O17 2.004471 1_555
Nb39 O14 2.015380 1_555
Nb39 O63 2.064861 1_555
Nb39 O107 2.074331 1_555
Nb39 O55 2.128715 1_555
Nb40 O91 1.973845 1_556
Nb40 O108 2.013233 1_556
Nb40 O3 2.032074 1_555
Nb40 O28 2.053751 1_555
Nb40 O83 2.055930 1_556
Nb40 O92 2.068733 1_556
Nb41 O90 1.973845 1_555
Nb41 O109 2.013233 1_565
Nb41 O2 2.032074 1_555
Nb41 O29 2.053751 1_555
Nb41 O82 2.055930 1_555
Nb41 O93 2.068733 1_555
Nb42 O89 1.973845 1_555
Nb42 O110 2.013233 1_655
Nb42 O1 2.032074 1_555
Nb42 O30 2.053751 1_555
Nb42 O81 2.055930 1_555
Nb42 O94 2.068733 1_555
Nb43 O88 1.973845 1_554
Nb43 O111 2.013233 1_555
Nb43 O0 2.032074 1_555
Nb43 O31 2.053751 1_555
Nb43 O80 2.055930 1_554
Nb43 O95 2.068733 1_554
Nb44 O87 1.973845 1_554
Nb44 O108 2.013233 1_665
Nb44 O7 2.032074 1_555
Nb44 O24 2.053751 1_555
Nb44 O79 2.055930 1_554
Nb44 O96 2.068733 1_554
Nb45 O86 1.973845 1_555
Nb45 O109 2.013233 1_555
Nb45 O6 2.032074 1_555
Nb45 O25 2.053751 1_555
Nb45 O78 2.055930 1_555
Nb45 O97 2.068733 1_555
Nb46 O85 1.973845 1_555
Nb46 O110 2.013233 1_555
Nb46 O5 2.032074 1_555
Nb46 O26 2.053751 1_555
Nb46 O77 2.055930 1_555
Nb46 O98 2.068733 1_555
Nb47 O84 1.973845 1_556
Nb47 O111 2.013233 1_556
Nb47 O4 2.032074 1_555
Nb47 O27 2.053751 1_555
Nb47 O76 2.055930 1_556
Nb47 O99 2.068733 1_556
Nb48 O0 2.090792 1_555
Nb48 O16 2.124840 1_555
Nb48 O24 2.133647 1_555
Nb48 O8 2.149005 1_555
Nb48 O39 2.233511 1_555
Nb49 O1 2.090792 1_455
Nb49 O17 2.124840 1_455
Nb49 O25 2.133647 1_555
Nb49 O9 2.149005 1_555
Nb49 O38 2.233511 1_555
Nb50 O2 2.090792 1_555
Nb50 O18 2.124840 1_555
Nb50 O26 2.133647 1_555
Nb50 O10 2.149005 1_555
Nb50 O37 2.233511 1_555
Nb51 O3 2.090792 1_655
Nb51 O19 2.124840 1_655
Nb51 O27 2.133647 1_555
Nb51 O11 2.149005 1_555
Nb51 O36 2.233511 1_555
Nb52 O4 2.090792 1_555
Nb52 O20 2.124840 1_555
Nb52 O28 2.133647 1_555
Nb52 O12 2.149005 1_555
Nb52 O35 2.233511 1_555
Nb53 O5 2.090792 1_655
Nb53 O21 2.124840 1_655
Nb53 O29 2.133647 1_555
Nb53 O13 2.149005 1_555
Nb53 O34 2.233511 1_555
Nb54 O6 2.090792 1_555
Nb54 O22 2.124840 1_555
Nb54 O30 2.133647 1_555
Nb54 O14 2.149005 1_555
Nb54 O33 2.233511 1_555
Nb55 O7 2.090792 1_455
Nb55 O23 2.124840 1_455
Nb55 O31 2.133647 1_555
Nb55 O15 2.149005 1_555
Nb55 O32 2.233511 1_555
Nb56 O40 2.068424 1_555
Nb56 O48 2.105006 1_555
Nb56 O8 2.114962 1_545
Nb56 O56 2.119010 1_555
Nb56 O64 2.205581 1_555
Nb57 O41 2.068424 1_555
Nb57 O49 2.105006 1_455
Nb57 O9 2.114962 1_565
Nb57 O57 2.119010 1_455
Nb57 O65 2.205581 1_555
Nb58 O42 2.068424 1_555
Nb58 O50 2.105006 1_555
Nb58 O10 2.114962 1_555
Nb58 O58 2.119010 1_555
Nb58 O66 2.205581 1_555
Nb59 O43 2.068424 1_555
Nb59 O51 2.105006 1_655
Nb59 O11 2.114962 1_555
Nb59 O59 2.119010 1_655
Nb59 O67 2.205581 1_555
Nb60 O44 2.068424 1_555
Nb60 O52 2.105006 1_555
Nb60 O12 2.114962 1_565
Nb60 O60 2.119010 1_555
Nb60 O68 2.205581 1_555
Nb61 O45 2.068424 1_555
Nb61 O53 2.105006 1_655
Nb61 O13 2.114962 1_545
Nb61 O61 2.119010 1_655
Nb61 O69 2.205581 1_555
Nb62 O46 2.068424 1_555
Nb62 O54 2.105006 1_555
Nb62 O14 2.114962 1_555
Nb62 O62 2.119010 1_555
Nb62 O70 2.205581 1_555
Nb63 O47 2.068424 1_555
Nb63 O55 2.105006 1_455
Nb63 O15 2.114962 1_555
Nb63 O63 2.119010 1_455
Nb63 O71 2.205581 1_555
