# generated using pymatgen
data_BaSr(FeO2)4
_symmetry_space_group_name_H-M   'P 1'
_cell_length_a   10.46439603
_cell_length_b   10.46439603
_cell_length_c   5.48345400
_cell_angle_alpha   90.00000000
_cell_angle_beta   90.00000000
_cell_angle_gamma   133.24855636
_symmetry_Int_Tables_number   1
_chemical_formula_structural   BaSr(FeO2)4
_chemical_formula_sum   'Ba2 Sr2 Fe8 O16'
_cell_volume   437.36644513
_cell_formula_units_Z   2
loop_
 _symmetry_equiv_pos_site_id
 _symmetry_equiv_pos_as_xyz
  1  'x, y, z'
loop_
 _atom_site_type_symbol
 _atom_site_label
 _atom_site_symmetry_multiplicity
 _atom_site_fract_x
 _atom_site_fract_y
 _atom_site_fract_z
 _atom_site_occupancy
  Ba  Ba0  1  0.61735800  0.38264200  0.78019400  1
  Ba  Ba1  1  0.38264200  0.61735800  0.28019400  1
  Sr  Sr0  1  0.12848800  0.87151200  0.74971900  1
  Sr  Sr1  1  0.87151200  0.12848800  0.24971900  1
  Fe  Fe0  1  0.92490500  0.50456700  0.25187700  1
  Fe  Fe1  1  0.49543300  0.07509500  0.25187700  1
  Fe  Fe2  1  0.07509500  0.49543300  0.75187700  1
  Fe  Fe3  1  0.50456700  0.92490500  0.75187700  1
  Fe  Fe4  1  0.77376800  0.68612500  0.26471200  1
  Fe  Fe5  1  0.31387500  0.22623200  0.26471200  1
  Fe  Fe6  1  0.22623200  0.31387500  0.76471200  1
  Fe  Fe7  1  0.68612500  0.77376800  0.76471200  1
  O  O0  1  0.92451800  0.51578900  0.59889900  1
  O  O1  1  0.48421100  0.07548200  0.59889900  1
  O  O2  1  0.07548200  0.48421100  0.09889900  1
  O  O3  1  0.51578900  0.92451800  0.09889900  1
  O  O4  1  0.92836000  0.67405400  0.10852100  1
  O  O5  1  0.32594600  0.07164000  0.10852100  1
  O  O6  1  0.07164000  0.32594600  0.60852100  1
  O  O7  1  0.67405400  0.92836000  0.60852100  1
  O  O8  1  0.28361100  0.71638900  0.65061700  1
  O  O9  1  0.71638900  0.28361100  0.15061700  1
  O  O10  1  0.83360500  0.75588100  0.59731000  1
  O  O11  1  0.24411900  0.16639500  0.59731000  1
  O  O12  1  0.16639500  0.24411900  0.09731000  1
  O  O13  1  0.75588100  0.83360500  0.09731000  1
  O  O14  1  0.45370500  0.54629500  0.76183300  1
  O  O15  1  0.54629500  0.45370500  0.26183300  1
loop_
_geom_bond_atom_site_label_1
_geom_bond_atom_site_label_2
_geom_bond_distance
_geom_bond_site_symmetry_2
Ba0 O1 2.669088 1_555
Ba0 O0 2.669088 1_555
Ba0 O9 2.783023 1_556
Ba0 O15 2.973024 1_556
Ba0 O10 3.044624 1_555
Ba0 O11 3.044624 1_555
Ba0 O4 3.087454 1_556
Ba0 O5 3.087454 1_556
Ba0 O14 3.145552 1_555
Ba0 O15 3.153258 1_555
Ba1 O2 2.669088 1_555
Ba1 O3 2.669088 1_555
Ba1 O8 2.783023 1_555
Ba1 O14 2.973024 1_555
Ba1 O13 3.044624 1_555
Ba1 O12 3.044624 1_555
Ba1 O7 3.087454 1_555
Ba1 O6 3.087454 1_555
Ba1 O15 3.145552 1_555
Ba1 O14 3.153258 1_554
Fe0 O9 1.871372 1_555
Fe0 O0 1.906674 1_555
Fe0 O4 1.917538 1_555
Fe0 O2 1.921407 1_655
Fe1 O9 1.871372 1_555
Fe1 O1 1.906674 1_555
Fe1 O5 1.917538 1_555
Fe1 O3 1.921407 1_545
Fe2 O8 1.871372 1_555
Fe2 O2 1.906674 1_556
Fe2 O6 1.917538 1_555
Fe2 O0 1.921407 1_455
Fe3 O8 1.871372 1_555
Fe3 O3 1.906674 1_556
Fe3 O7 1.917538 1_555
Fe3 O1 1.921407 1_565
Fe4 O10 1.903883 1_555
Fe4 O4 1.909581 1_555
Fe4 O15 1.910060 1_555
Fe4 O13 1.911867 1_555
Fe5 O11 1.903883 1_555
Fe5 O5 1.909581 1_555
Fe5 O15 1.910060 1_555
Fe5 O12 1.911867 1_555
Fe6 O12 1.903883 1_556
Fe6 O6 1.909581 1_555
Fe6 O14 1.910060 1_555
Fe6 O11 1.911867 1_555
Fe7 O13 1.903883 1_556
Fe7 O7 1.909581 1_555
Fe7 O14 1.910060 1_555
Fe7 O10 1.911867 1_555
O0 Sr0 2.865063 1_655
O1 Sr0 2.865063 1_545
O2 Sr1 2.865063 1_455
O3 Sr1 2.865063 1_565
O4 Sr0 2.568360 1_654
O5 Sr0 2.568360 1_544
O6 Sr1 2.568360 1_455
O7 Sr1 2.568360 1_565
O8 Sr0 3.029212 1_555
O9 Sr1 3.029212 1_555
O10 Sr0 2.562811 1_655
O11 Sr0 2.562811 1_545
O12 Sr1 2.562811 1_455
O13 Sr1 2.562811 1_565
