# generated using pymatgen
data_SrS3
_symmetry_space_group_name_H-M   'P 1'
_cell_length_a   5.42156943
_cell_length_b   5.42156964
_cell_length_c   6.92252019
_cell_angle_alpha   90.00000000
_cell_angle_beta   90.00000000
_cell_angle_gamma   96.91903043
_symmetry_Int_Tables_number   1
_chemical_formula_structural   SrS3
_chemical_formula_sum   'Sr2 S6'
_cell_volume   201.99467600
_cell_formula_units_Z   2
loop_
 _symmetry_equiv_pos_site_id
 _symmetry_equiv_pos_as_xyz
  1  'x, y, z'
loop_
 _atom_site_type_symbol
 _atom_site_label
 _atom_site_symmetry_multiplicity
 _atom_site_fract_x
 _atom_site_fract_y
 _atom_site_fract_z
 _atom_site_occupancy
  Sr  Sr0  1  0.00104551  0.00104551  0.00000000  1
  Sr  Sr1  1  0.50104551  0.50104551  0.50000000  1
  S  S0  1  0.53405718  0.53405718  0.00000000  1
  S  S1  1  0.03405718  0.03405718  0.50000000  1
  S  S2  1  0.19523060  0.52576572  0.86002740  1
  S  S3  1  0.52576572  0.19523060  0.13997260  1
  S  S4  1  0.69523060  0.02576572  0.63997260  1
  S  S5  1  0.02576572  0.69523060  0.36002740  1
loop_
_geom_bond_atom_site_label_1
_geom_bond_atom_site_label_2
_geom_bond_distance
_geom_bond_site_symmetry_2
S0 S2 2.072554 1_554
S0 S3 2.072554 1_555
S0 Sr0 3.357935 1_665
S0 Sr1 3.469390 1_554
S0 Sr1 3.469390 1_555
S1 S4 2.072554 1_455
S1 S5 2.072554 1_545
S1 Sr1 3.357935 1_555
S1 Sr0 3.469390 1_555
S1 Sr0 3.469390 1_556
S2 Sr1 3.005328 1_555
S2 Sr0 3.056232 1_566
S2 Sr0 3.068972 1_556
S3 Sr1 3.005328 1_555
S3 Sr0 3.056232 1_655
S3 Sr0 3.068972 1_555
S4 Sr0 3.005328 1_656
S4 Sr1 3.056232 1_555
S4 Sr1 3.068972 1_545
S5 Sr0 3.005328 1_565
S5 Sr1 3.056232 1_555
S5 Sr1 3.068972 1_455
