# generated using pymatgen
data_Sc2AlB2Ir5
_symmetry_space_group_name_H-M   'P 1'
_cell_length_a   9.44962300
_cell_length_b   9.44962300
_cell_length_c   3.02599100
_cell_angle_alpha   90.00000000
_cell_angle_beta   90.00000000
_cell_angle_gamma   90.00000000
_symmetry_Int_Tables_number   1
_chemical_formula_structural   Sc2AlB2Ir5
_chemical_formula_sum   'Sc4 Al2 B4 Ir10'
_cell_volume   270.20700061
_cell_formula_units_Z   2
loop_
 _symmetry_equiv_pos_site_id
 _symmetry_equiv_pos_as_xyz
  1  'x, y, z'
loop_
 _atom_site_type_symbol
 _atom_site_label
 _atom_site_symmetry_multiplicity
 _atom_site_fract_x
 _atom_site_fract_y
 _atom_site_fract_z
 _atom_site_occupancy
  Sc  Sc0  1  0.67563000  0.17563000  0.00000000  1
  Sc  Sc1  1  0.32437000  0.82437000  0.00000000  1
  Sc  Sc2  1  0.17563000  0.32437000  0.00000000  1
  Sc  Sc3  1  0.82437000  0.67563000  0.00000000  1
  Al  Al0  1  0.00000000  0.00000000  0.00000000  1
  Al  Al1  1  0.50000000  0.50000000  0.00000000  1
  B  B0  1  0.12495800  0.62495800  0.00000000  1
  B  B1  1  0.87504200  0.37504200  0.00000000  1
  B  B2  1  0.62495800  0.87504200  0.00000000  1
  B  B3  1  0.37504200  0.12495800  0.00000000  1
  Ir  Ir0  1  0.21546100  0.07039400  0.50000000  1
  Ir  Ir1  1  0.78453900  0.92960600  0.50000000  1
  Ir  Ir2  1  0.07039400  0.78453900  0.50000000  1
  Ir  Ir3  1  0.71546100  0.42960600  0.50000000  1
  Ir  Ir4  1  0.92960600  0.21546100  0.50000000  1
  Ir  Ir5  1  0.28453900  0.57039400  0.50000000  1
  Ir  Ir6  1  0.57039400  0.71546100  0.50000000  1
  Ir  Ir7  1  0.42960600  0.28453900  0.50000000  1
  Ir  Ir8  1  0.50000000  0.00000000  0.50000000  1
  Ir  Ir9  1  0.00000000  0.50000000  0.50000000  1
loop_
_geom_bond_atom_site_label_1
_geom_bond_atom_site_label_2
_geom_bond_distance
_geom_bond_site_symmetry_2
Al0 Ir0 2.622411 1_555
Al0 Ir0 2.622411 1_554
Al0 Ir4 2.622411 1_455
Al0 Ir4 2.622411 1_454
Al0 Ir2 2.622411 1_544
Al0 Ir2 2.622411 1_545
Al0 Ir1 2.622411 1_444
Al0 Ir1 2.622411 1_445
Al1 Ir6 2.622411 1_555
Al1 Ir5 2.622411 1_554
Al1 Ir7 2.622411 1_555
Al1 Ir6 2.622411 1_554
Al1 Ir3 2.622411 1_554
Al1 Ir5 2.622411 1_555
Al1 Ir7 2.622411 1_554
Al1 Ir3 2.622411 1_555
B0 Ir5 2.197501 1_555
B0 Ir2 2.197501 1_555
B0 Ir5 2.197501 1_554
B0 Ir2 2.197501 1_554
B0 Ir9 2.253389 1_554
B0 Ir9 2.253389 1_555
B0 Sc1 2.664899 1_555
B0 Sc3 2.880520 1_455
B0 Sc2 2.880520 1_555
B1 Ir3 2.197501 1_555
B1 Ir3 2.197501 1_554
B1 Ir4 2.197501 1_555
B1 Ir4 2.197501 1_554
B1 Ir9 2.253389 1_655
B1 Ir9 2.253389 1_654
B1 Sc0 2.664899 1_555
B1 Sc2 2.880520 1_655
B1 Sc3 2.880520 1_555
B2 Ir1 2.197501 1_555
B2 Ir1 2.197501 1_554
B2 Ir6 2.197501 1_555
B2 Ir6 2.197501 1_554
B2 Ir8 2.253389 1_565
B2 Ir8 2.253389 1_564
B2 Sc3 2.664899 1_555
B2 Sc1 2.880520 1_555
B2 Sc0 2.880520 1_565
B3 Ir7 2.197501 1_554
B3 Ir7 2.197501 1_555
B3 Ir0 2.197501 1_555
B3 Ir0 2.197501 1_554
B3 Ir8 2.253389 1_554
B3 Ir8 2.253389 1_555
B3 Sc2 2.664899 1_555
B3 Sc1 2.880520 1_545
B3 Sc0 2.880520 1_555
Ir0 Sc2 2.861943 1_555
Ir0 Sc2 2.861943 1_556
Ir0 Sc1 2.958573 1_546
Ir0 Sc1 2.958573 1_545
Ir1 Sc3 2.861943 1_556
Ir1 Sc3 2.861943 1_555
Ir1 Sc0 2.958573 1_565
Ir1 Sc0 2.958573 1_566
Ir2 Sc1 2.861943 1_555
Ir2 Sc1 2.861943 1_556
Ir2 Sc3 2.958573 1_455
Ir2 Sc3 2.958573 1_456
Ir3 Sc0 2.861943 1_555
Ir3 Sc0 2.861943 1_556
Ir3 Sc3 2.958573 1_556
Ir3 Sc3 2.958573 1_555
Ir4 Sc0 2.861943 1_555
Ir4 Sc0 2.861943 1_556
Ir4 Sc2 2.958573 1_656
Ir4 Sc2 2.958573 1_655
Ir5 Sc1 2.861943 1_556
Ir5 Sc1 2.861943 1_555
Ir5 Sc2 2.958573 1_555
Ir5 Sc2 2.958573 1_556
Ir6 Sc3 2.861943 1_556
Ir6 Sc3 2.861943 1_555
Ir6 Sc1 2.958573 1_555
Ir6 Sc1 2.958573 1_556
Ir7 Sc2 2.861943 1_556
Ir7 Sc2 2.861943 1_555
Ir7 Sc0 2.958573 1_555
Ir7 Sc0 2.958573 1_556
Ir8 Sc1 2.792480 1_546
Ir8 Sc1 2.792480 1_545
Ir8 Sc0 2.792480 1_555
Ir8 Sc0 2.792480 1_556
Ir9 Sc3 2.792480 1_455
Ir9 Sc3 2.792480 1_456
Ir9 Sc2 2.792480 1_555
Ir9 Sc2 2.792480 1_556
