# generated using pymatgen
data_K4CoP6O25
_symmetry_space_group_name_H-M   'P 1'
_cell_length_a   12.97872340
_cell_length_b   12.35661827
_cell_length_c   7.40435440
_cell_angle_alpha   77.67380546
_cell_angle_beta   68.45357982
_cell_angle_gamma   33.87261472
_symmetry_Int_Tables_number   1
_chemical_formula_structural   K4CoP6O25
_chemical_formula_sum   'K4 Co1 P6 O25'
_cell_volume   605.92681727
_cell_formula_units_Z   1
loop_
 _symmetry_equiv_pos_site_id
 _symmetry_equiv_pos_as_xyz
  1  'x, y, z'
loop_
 _atom_site_type_symbol
 _atom_site_label
 _atom_site_symmetry_multiplicity
 _atom_site_fract_x
 _atom_site_fract_y
 _atom_site_fract_z
 _atom_site_occupancy
  K  K0  1  0.49808800  0.27741400  0.72258600  1
  K  K1  1  0.72258600  0.50191200  0.49808800  1
  K  K2  1  0.02932200  0.47067800  0.02932200  1
  K  K3  1  0.52932200  0.97067800  0.52932200  1
  Co  Co0  1  0.00077000  0.99923000  0.00077000  1
  P  P0  1  0.50631600  0.96341500  0.03658500  1
  P  P1  1  0.03658500  0.49368400  0.50631600  1
  P  P2  1  0.28096400  0.97688900  0.36013100  1
  P  P3  1  0.36013100  0.38201600  0.28096400  1
  P  P4  1  0.02311100  0.71903600  0.61798400  1
  P  P5  1  0.61798400  0.63986900  0.02311100  1
  O  O0  1  0.36791000  0.91086200  0.51426400  1
  O  O1  1  0.51426400  0.20696400  0.36791000  1
  O  O2  1  0.08913800  0.63209000  0.79303600  1
  O  O3  1  0.79303600  0.48573600  0.08913800  1
  O  O4  1  0.08497700  0.06983200  0.93016800  1
  O  O5  1  0.93016800  0.91502300  0.08497700  1
  O  O6  1  0.07205700  0.11075300  0.42793600  1
  O  O7  1  0.42793600  0.38925300  0.07205700  1
  O  O8  1  0.88924700  0.92794300  0.61074700  1
  O  O9  1  0.61074700  0.57206400  0.88924700  1
  O  O10  1  0.06423300  0.93576700  0.75108300  1
  O  O11  1  0.75108300  0.24891700  0.06423300  1
  O  O12  1  0.44471300  0.10279000  0.89721000  1
  O  O13  1  0.89721000  0.55528700  0.44471400  1
  O  O14  1  0.42149600  0.78012700  0.21987300  1
  O  O15  1  0.21987300  0.57850400  0.42149600  1
  O  O16  1  0.30144700  0.07783700  0.20709900  1
  O  O17  1  0.20709900  0.41361700  0.30144700  1
  O  O18  1  0.92216300  0.69855300  0.58638300  1
  O  O19  1  0.58638300  0.79290100  0.92216300  1
  O  O20  1  0.51798600  0.48201400  0.51798600  1
  O  O21  1  0.64668400  0.86892000  0.13108000  1
  O  O22  1  0.13108000  0.35331600  0.64668400  1
  O  O23  1  0.93714500  0.06285500  0.25408500  1
  O  O24  1  0.25408500  0.74591500  0.93714500  1
loop_
_geom_bond_atom_site_label_1
_geom_bond_atom_site_label_2
_geom_bond_distance
_geom_bond_site_symmetry_2
K0 O7 2.672335 1_556
K0 O8 2.672341 1_545
K0 O12 2.727763 1_555
K0 O20 2.813344 1_555
K0 O2 2.822437 1_555
K0 O1 2.822437 1_555
K1 O6 2.672341 1_655
K1 O9 2.672342 1_555
K1 O13 2.727764 1_555
K1 O20 2.813344 1_555
K1 O3 2.822437 1_555
K1 O0 2.822437 1_555
K2 O22 2.774834 1_554
K2 O21 2.774834 1_455
K2 O3 2.779459 1_455
K2 O2 2.779459 1_554
K2 O12 2.831169 1_554
K2 O13 2.831176 1_455
K2 O17 3.160293 1_555
K2 O16 3.160293 1_555
K3 O21 2.774834 1_555
K3 O22 2.774834 1_565
K3 O0 2.779459 1_555
K3 O1 2.779459 1_565
K3 O12 2.831169 1_565
K3 O13 2.831169 1_555
K3 O19 3.160293 1_555
K3 O18 3.160293 1_555
Co0 O11 1.771796 1_465
Co0 O10 1.771796 1_554
Co0 O4 1.788208 1_564
Co0 O5 1.788208 1_455
Co0 O23 1.797745 1_465
Co0 O24 1.797745 1_554
O0 P2 1.503687 1_555
O1 P3 1.503687 1_555
O2 P4 1.503687 1_555
O3 P5 1.503687 1_555
O6 P2 1.498961 1_545
O7 P3 1.498957 1_555
O8 P4 1.498960 1_655
O9 P5 1.498951 1_556
O12 P0 1.493632 1_546
O13 P1 1.493627 1_655
O14 P5 1.624642 1_555
O14 P2 1.624642 1_555
O15 P4 1.624642 1_555
O15 P3 1.624642 1_555
O16 P2 1.623724 1_545
O16 P0 1.648238 1_545
O17 P3 1.623724 1_555
O17 P1 1.648238 1_555
O18 P4 1.623724 1_655
O18 P1 1.648238 1_655
O19 P5 1.623724 1_556
O19 P0 1.648238 1_556
O21 P0 1.492306 1_555
O22 P1 1.492306 1_555
