# generated using pymatgen
data_Li2MnOF3
_symmetry_space_group_name_H-M   'P 1'
_cell_length_a   5.31736201
_cell_length_b   6.12435920
_cell_length_c   10.59741893
_cell_angle_alpha   99.93659203
_cell_angle_beta   101.28606344
_cell_angle_gamma   110.00404193
_symmetry_Int_Tables_number   1
_chemical_formula_structural   Li2MnOF3
_chemical_formula_sum   'Li8 Mn4 O4 F12'
_cell_volume   307.08815174
_cell_formula_units_Z   4
loop_
 _symmetry_equiv_pos_site_id
 _symmetry_equiv_pos_as_xyz
  1  'x, y, z'
loop_
 _atom_site_type_symbol
 _atom_site_label
 _atom_site_symmetry_multiplicity
 _atom_site_fract_x
 _atom_site_fract_y
 _atom_site_fract_z
 _atom_site_occupancy
  Li  Li0  1  0.25017400  0.37497800  0.25005900  1
  Li  Li1  1  0.24982700  0.87501800  0.24993800  1
  Li  Li2  1  0.74999500  0.62499900  0.74999700  1
  Li  Li3  1  0.74999300  0.12499900  0.74999600  1
  Li  Li4  1  0.31770900  0.80182000  0.86235900  1
  Li  Li5  1  0.31769800  0.30177900  0.86235400  1
  Li  Li6  1  0.18228500  0.44817800  0.63763900  1
  Li  Li7  1  0.18229200  0.94822200  0.63764500  1
  Mn  Mn0  1  0.85961800  0.55285900  0.37581000  1
  Mn  Mn1  1  0.64037400  0.69714100  0.12419100  1
  Mn  Mn2  1  0.85987200  0.05289100  0.37583500  1
  Mn  Mn3  1  0.64014200  0.19710000  0.12417000  1
  O  O0  1  0.92020500  0.51668300  0.20087100  1
  O  O1  1  0.91980900  0.01645000  0.20080100  1
  O  O2  1  0.58020400  0.23355400  0.29920100  1
  O  O3  1  0.57980600  0.73332500  0.29913200  1
  F  F0  1  0.44569300  0.78977100  0.70133500  1
  F  F1  1  0.44569800  0.28980200  0.70133600  1
  F  F2  1  0.05429500  0.46022400  0.79865800  1
  F  F3  1  0.05429900  0.96020000  0.79866300  1
  F  F4  1  0.86079300  0.59304000  0.55690500  1
  F  F5  1  0.86057400  0.09295000  0.55682000  1
  F  F6  1  0.63920000  0.65695900  0.94309600  1
  F  F7  1  0.63942900  0.15704800  0.94318100  1
  F  F8  1  0.34115000  0.37428100  0.07201100  1
  F  F9  1  0.34133400  0.87453000  0.07201400  1
  F  F10  1  0.15867700  0.37547600  0.42798900  1
  F  F11  1  0.15885600  0.87572400  0.42799400  1
loop_
_geom_bond_atom_site_label_1
_geom_bond_atom_site_label_2
_geom_bond_distance
_geom_bond_site_symmetry_2
Li0 O3 2.185553 1_555
Li0 O1 2.187743 1_455
Li0 O2 2.222363 1_555
Li0 O0 2.223356 1_455
Li1 O0 2.185486 1_455
Li1 O2 2.187798 1_565
Li1 O1 2.222334 1_465
Li1 O3 2.223361 1_555
Mn0 O2 1.919068 1_555
Mn0 O0 1.931498 1_555
Mn0 O3 2.248864 1_555
Mn1 O1 1.919124 1_565
Mn1 O3 1.931479 1_555
Mn1 O0 2.248909 1_555
Mn2 O3 1.921442 1_545
Mn2 O1 1.931128 1_555
Mn2 O2 2.249077 1_555
Mn3 O0 1.921505 1_555
Mn3 O2 1.931100 1_555
Mn3 O1 2.249001 1_555
F0 Li4 1.956006 1_555
F0 Li6 1.982896 1_555
F0 Li3 2.033304 1_565
F0 Li7 2.035891 1_555
F0 Li2 2.207396 1_555
F1 Li5 1.955989 1_555
F1 Li7 1.982832 1_545
F1 Li2 2.033166 1_555
F1 Li6 2.035609 1_555
F1 Li3 2.207503 1_555
F2 Li6 1.955973 1_555
F2 Li4 1.982919 1_555
F2 Li3 2.033295 1_455
F2 Li5 2.035889 1_555
F2 Li2 2.207399 1_455
F3 Li7 1.955969 1_555
F3 Li5 1.982817 1_565
F3 Li2 2.033194 1_455
F3 Li4 2.035612 1_555
F3 Li3 2.207547 1_465
F4 Mn0 1.890756 1_555
F4 Li7 2.151109 1_655
F4 Li2 2.232758 1_555
F4 Li6 2.273451 1_655
F5 Mn2 1.890239 1_555
F5 Li6 2.151773 1_655
F5 Li3 2.233072 1_555
F5 Li7 2.274128 1_645
F6 Mn1 1.890757 1_556
F6 Li5 2.151108 1_555
F6 Li2 2.232821 1_555
F6 Li4 2.273452 1_555
F7 Mn3 1.890269 1_556
F7 Li4 2.151793 1_545
F7 Li3 2.233120 1_555
F7 Li5 2.274204 1_555
F8 Mn1 1.967969 1_555
F8 Li0 2.037189 1_555
F8 Li5 2.159260 1_554
F8 Mn3 2.248107 1_555
F9 Mn3 1.965868 1_565
F9 Li1 2.037195 1_555
F9 Li4 2.159053 1_554
F9 Mn1 2.249331 1_555
F10 Mn2 1.965925 1_455
F10 Li0 2.037230 1_555
F10 Li6 2.159020 1_555
F10 Mn0 2.249390 1_455
F11 Mn0 1.968018 1_455
F11 Li1 2.037256 1_555
F11 Li7 2.159215 1_555
F11 Mn2 2.248006 1_465
