# generated using pymatgen
data_ThUH8(C2O5)4
_symmetry_space_group_name_H-M   'P 1'
_cell_length_a   6.97822259
_cell_length_b   6.97822259
_cell_length_c   9.61195300
_cell_angle_alpha   90.00000000
_cell_angle_beta   90.00000000
_cell_angle_gamma   103.06768934
_symmetry_Int_Tables_number   1
_chemical_formula_structural   ThUH8(C2O5)4
_chemical_formula_sum   'Th1 U1 H8 C8 O20'
_cell_volume   455.93867854
_cell_formula_units_Z   1
loop_
 _symmetry_equiv_pos_site_id
 _symmetry_equiv_pos_as_xyz
  1  'x, y, z'
loop_
 _atom_site_type_symbol
 _atom_site_label
 _atom_site_symmetry_multiplicity
 _atom_site_fract_x
 _atom_site_fract_y
 _atom_site_fract_z
 _atom_site_occupancy
  Th  Th0  1  0.00000000  0.00000000  0.00000000  1
  U  U0  1  0.50000000  0.50000000  0.50000000  1
  H  H0  1  0.86143000  0.28998700  0.45271000  1
  H  H1  1  0.13857000  0.71001300  0.45271000  1
  H  H2  1  0.28998700  0.86143000  0.54729000  1
  H  H3  1  0.71001300  0.13857000  0.54729000  1
  H  H4  1  0.63684100  0.21110100  0.04712500  1
  H  H5  1  0.36315900  0.78889900  0.04712500  1
  H  H6  1  0.21110100  0.63684100  0.95287500  1
  H  H7  1  0.78889900  0.36315900  0.95287500  1
  C  C0  1  0.65285400  0.76457300  0.21866200  1
  C  C1  1  0.34714600  0.23542700  0.21866200  1
  C  C2  1  0.76457300  0.65285400  0.78133800  1
  C  C3  1  0.23542700  0.34714600  0.78133800  1
  C  C4  1  0.84391400  0.73285000  0.28375900  1
  C  C5  1  0.15608600  0.26715000  0.28375900  1
  C  C6  1  0.73285000  0.84391400  0.71624100  1
  C  C7  1  0.26715000  0.15608600  0.71624100  1
  O  O0  1  0.82666600  0.63818500  0.39815100  1
  O  O1  1  0.17333400  0.36181500  0.39815100  1
  O  O2  1  0.63818500  0.82666600  0.60184900  1
  O  O3  1  0.36181500  0.17333400  0.60184900  1
  O  O4  1  0.66597200  0.85714200  0.10374600  1
  O  O5  1  0.33402800  0.14285800  0.10374600  1
  O  O6  1  0.85714200  0.66597200  0.89625400  1
  O  O7  1  0.14285800  0.33402800  0.89625400  1
  O  O8  1  0.73406500  0.26593500  0.50000000  1
  O  O9  1  0.26593500  0.73406500  0.50000000  1
  O  O10  1  0.76464700  0.23535300  0.00000000  1
  O  O11  1  0.23535300  0.76464700  0.00000000  1
  O  O12  1  0.49668600  0.69491100  0.28469500  1
  O  O13  1  0.50331400  0.30508900  0.28469500  1
  O  O14  1  0.69491100  0.49668600  0.71530500  1
  O  O15  1  0.30508900  0.50331400  0.71530500  1
  O  O16  1  0.00178000  0.80216400  0.22014900  1
  O  O17  1  0.99822000  0.19783600  0.22014900  1
  O  O18  1  0.80216400  0.00178000  0.77985100  1
  O  O19  1  0.19783600  0.99822000  0.77985100  1
loop_
_geom_bond_atom_site_label_1
_geom_bond_atom_site_label_2
_geom_bond_distance
_geom_bond_site_symmetry_2
H0 O8 0.978397 1_555
H1 O9 0.978397 1_555
H2 O9 0.978397 1_555
H3 O8 0.978397 1_555
H4 O10 0.980293 1_555
H5 O11 0.980293 1_555
H6 O11 0.980293 1_556
H7 O10 0.980293 1_556
C0 O12 1.259846 1_555
C0 O4 1.272392 1_555
C1 O13 1.259846 1_555
C1 O5 1.272392 1_555
C2 O14 1.259846 1_555
C2 O6 1.272392 1_555
C3 O15 1.259846 1_555
C3 O7 1.272392 1_555
C4 O16 1.257142 1_655
C4 O0 1.274317 1_555
C5 O17 1.257142 1_455
C5 O1 1.274317 1_555
C6 O18 1.257142 1_565
C6 O2 1.274317 1_555
C7 O19 1.257142 1_545
C7 O3 1.274317 1_555
O0 U0 2.467906 1_555
O1 U0 2.467906 1_555
O2 U0 2.467906 1_555
O3 U0 2.467906 1_555
O4 Th0 2.524010 1_665
O5 Th0 2.524010 1_555
O6 Th0 2.524010 1_666
O7 Th0 2.524010 1_556
O8 U0 2.557759 1_555
O9 U0 2.557759 1_555
O10 Th0 2.571834 1_655
O11 Th0 2.571834 1_565
O12 U0 2.479426 1_555
O13 U0 2.479426 1_555
O14 U0 2.479426 1_555
O15 U0 2.479426 1_555
O16 Th0 2.528147 1_565
O17 Th0 2.528147 1_655
O18 Th0 2.528147 1_656
O19 Th0 2.528147 1_566
