# generated using pymatgen
data_PrInNi2
_symmetry_space_group_name_H-M   'P 1'
_cell_length_a   4.06170135
_cell_length_b   5.20937925
_cell_length_c   7.14414335
_cell_angle_alpha   90.00000000
_cell_angle_beta   90.00000000
_cell_angle_gamma   90.00000000
_symmetry_Int_Tables_number   1
_chemical_formula_structural   PrInNi2
_chemical_formula_sum   'Pr2 In2 Ni4'
_cell_volume   151.16252001
_cell_formula_units_Z   2
loop_
 _symmetry_equiv_pos_site_id
 _symmetry_equiv_pos_as_xyz
  1  'x, y, z'
loop_
 _atom_site_type_symbol
 _atom_site_label
 _atom_site_symmetry_multiplicity
 _atom_site_fract_x
 _atom_site_fract_y
 _atom_site_fract_z
 _atom_site_occupancy
  Pr  Pr0  1  0.50000000  0.75000000  0.72525846  1
  Pr  Pr1  1  0.50000000  0.25000000  0.27474154  1
  In  In0  1  -0.00000000  0.75000000  0.33817184  1
  In  In1  1  -0.00000000  0.25000000  0.66182816  1
  Ni  Ni0  1  -0.00000000  -0.00000000  0.00000000  1
  Ni  Ni1  1  -0.00000000  0.50000000  0.00000000  1
  Ni  Ni2  1  0.50000000  0.75000000  0.10475650  1
  Ni  Ni3  1  0.50000000  0.25000000  0.89524350  1
loop_
_geom_bond_atom_site_label_1
_geom_bond_atom_site_label_2
_geom_bond_distance
_geom_bond_site_symmetry_2
In0 Ni2 2.627753 1_455
In0 Ni2 2.627753 1_555
In0 Ni0 2.744614 1_565
In0 Ni1 2.744614 1_555
In0 Pr1 3.333783 1_455
In0 Pr1 3.333783 1_565
In0 Pr1 3.333783 1_555
In0 Pr1 3.333783 1_465
In0 Pr0 3.431006 1_455
In0 Pr0 3.431006 1_555
In0 In1 3.482943 1_555
In0 In1 3.482943 1_565
In1 Ni3 2.627753 1_555
In1 Ni3 2.627753 1_455
In1 Ni1 2.744614 1_556
In1 Ni0 2.744614 1_556
In1 Pr0 3.333783 1_555
In1 Pr0 3.333783 1_445
In1 Pr0 3.333783 1_545
In1 Pr0 3.333783 1_455
In1 Pr1 3.431006 1_555
In1 Pr1 3.431006 1_455
Ni0 Ni2 2.525976 1_445
Ni0 Ni2 2.525976 1_545
Ni0 Ni3 2.525976 1_554
Ni0 Ni3 2.525976 1_454
Ni0 Ni1 2.604690 1_545
Ni0 Ni1 2.604690 1_555
Ni0 Pr1 3.110147 1_455
Ni0 Pr0 3.110147 1_444
Ni0 Pr0 3.110147 1_544
Ni0 Pr1 3.110147 1_555
Ni1 Ni2 2.525976 1_455
Ni1 Ni2 2.525976 1_555
Ni1 Ni3 2.525976 1_554
Ni1 Ni3 2.525976 1_454
Ni1 Pr0 3.110147 1_554
Ni1 Pr0 3.110147 1_454
Ni1 Pr1 3.110147 1_455
Ni1 Pr1 3.110147 1_555
Ni2 Pr0 2.711188 1_554
Ni2 Pr1 2.873877 1_565
Ni2 Pr1 2.873877 1_555
Ni2 Ni3 3.004129 1_554
Ni2 Ni3 3.004129 1_564
Ni3 Pr1 2.711188 1_556
Ni3 Pr0 2.873877 1_555
Ni3 Pr0 2.873877 1_545
