# generated using pymatgen
data_Zr3Sc
_symmetry_space_group_name_H-M   'P 1'
_cell_length_a   6.52002090
_cell_length_b   6.52002173
_cell_length_c   5.12767113
_cell_angle_alpha   90.00000000
_cell_angle_beta   90.00000000
_cell_angle_gamma   119.99999579
_symmetry_Int_Tables_number   1
_chemical_formula_structural   Zr3Sc
_chemical_formula_sum   'Zr6 Sc2'
_cell_volume   188.77689756
_cell_formula_units_Z   2
loop_
 _symmetry_equiv_pos_site_id
 _symmetry_equiv_pos_as_xyz
  1  'x, y, z'
loop_
 _atom_site_type_symbol
 _atom_site_label
 _atom_site_symmetry_multiplicity
 _atom_site_fract_x
 _atom_site_fract_y
 _atom_site_fract_z
 _atom_site_occupancy
  Zr  Zr0  1  0.16725566  0.83274634  0.25000000  1
  Zr  Zr1  1  0.83274634  0.66548969  0.75000100  1
  Zr  Zr2  1  0.33451031  0.16725366  0.75000100  1
  Zr  Zr3  1  0.83274534  0.16725366  0.75000100  1
  Zr  Zr4  1  0.16725466  0.33451031  0.25000000  1
  Zr  Zr5  1  0.66548969  0.83274634  0.25000000  1
  Sc  Sc0  1  0.33333300  0.66666700  0.75000100  1
  Sc  Sc1  1  0.66666800  0.33333300  0.25000000  1
loop_
_geom_bond_atom_site_label_1
_geom_bond_atom_site_label_2
_geom_bond_distance
_geom_bond_site_symmetry_2
Zr0 Zr2 3.184459 1_564
Zr0 Zr1 3.184466 1_454
Zr0 Zr2 3.184468 1_565
Zr0 Zr1 3.184474 1_455
Zr0 Zr5 3.248496 1_555
Zr0 Zr4 3.248506 1_555
Zr0 Zr4 3.271515 1_565
Zr0 Zr5 3.271525 1_455
Zr1 Zr5 3.184479 1_556
Zr1 Zr5 3.184487 1_555
Zr1 Zr3 3.248506 1_555
Zr1 Zr2 3.248510 1_555
Zr1 Zr2 3.271512 1_665
Zr1 Zr3 3.271515 1_565
Zr2 Zr4 3.184476 1_556
Zr2 Zr4 3.184484 1_555
Zr2 Zr3 3.248503 1_555
Zr2 Zr3 3.271518 1_455
Zr3 Zr5 3.184459 1_546
Zr3 Zr4 3.184466 1_656
Zr3 Zr5 3.184468 1_545
Zr3 Zr4 3.184474 1_655
Zr4 Zr5 3.248506 1_555
Zr4 Zr5 3.271515 1_445
Sc0 Zr0 3.176605 1_556
Sc0 Zr5 3.176605 1_556
Sc0 Zr4 3.176605 1_556
Sc0 Zr0 3.176613 1_555
Sc0 Zr5 3.176613 1_555
Sc0 Zr4 3.176613 1_555
Sc0 Zr1 3.260004 1_455
Sc0 Zr2 3.260005 1_565
Sc0 Zr3 3.260014 1_565
Sc0 Zr3 3.260021 1_455
Sc0 Zr1 3.260030 1_555
Sc0 Zr2 3.260031 1_555
Sc1 Zr3 3.176605 1_554
Sc1 Zr1 3.176605 1_554
Sc1 Zr2 3.176608 1_554
Sc1 Zr3 3.176613 1_555
Sc1 Zr1 3.176613 1_555
Sc1 Zr2 3.176616 1_555
Sc1 Zr5 3.260001 1_545
Sc1 Zr4 3.260004 1_655
Sc1 Zr0 3.260014 1_545
Sc1 Zr0 3.260021 1_655
Sc1 Zr4 3.260030 1_555
Sc1 Zr5 3.260034 1_555
