# generated using pymatgen
data_Sc57Ru13
_symmetry_space_group_name_H-M   'P 1'
_cell_length_a   14.41344849
_cell_length_b   14.41344849
_cell_length_c   14.41344849
_cell_angle_alpha   90.00000000
_cell_angle_beta   90.00000000
_cell_angle_gamma   90.00000000
_symmetry_Int_Tables_number   1
_chemical_formula_structural   Sc57Ru13
_chemical_formula_sum   'Sc114 Ru26'
_cell_volume   2994.35785232
_cell_formula_units_Z   2
loop_
 _symmetry_equiv_pos_site_id
 _symmetry_equiv_pos_as_xyz
  1  'x, y, z'
loop_
 _atom_site_type_symbol
 _atom_site_label
 _atom_site_symmetry_multiplicity
 _atom_site_fract_x
 _atom_site_fract_y
 _atom_site_fract_z
 _atom_site_occupancy
  Sc  Sc0  1  0.20239636  0.38795834  0.30992656  1
  Sc  Sc1  1  0.79760364  0.61204166  0.69007344  1
  Sc  Sc2  1  0.79760364  0.61204166  0.30992656  1
  Sc  Sc3  1  0.79760364  0.38795834  0.69007344  1
  Sc  Sc4  1  0.30992656  0.20239636  0.38795834  1
  Sc  Sc5  1  0.20239636  0.38795834  0.69007344  1
  Sc  Sc6  1  0.20239636  0.61204166  0.30992656  1
  Sc  Sc7  1  0.69007344  0.79760364  0.61204166  1
  Sc  Sc8  1  0.20239636  0.61204166  0.69007344  1
  Sc  Sc9  1  0.30992656  0.79760364  0.61204166  1
  Sc  Sc10  1  0.79760364  0.38795834  0.30992656  1
  Sc  Sc11  1  0.69007344  0.20239636  0.38795834  1
  Sc  Sc12  1  0.69007344  0.79760364  0.38795834  1
  Sc  Sc13  1  0.30992656  0.20239636  0.61204166  1
  Sc  Sc14  1  0.69007344  0.20239636  0.61204166  1
  Sc  Sc15  1  0.30992656  0.79760364  0.38795834  1
  Sc  Sc16  1  0.38795834  0.30992656  0.20239636  1
  Sc  Sc17  1  0.61204166  0.69007344  0.79760364  1
  Sc  Sc18  1  0.38795834  0.69007344  0.79760364  1
  Sc  Sc19  1  0.61204166  0.30992656  0.20239636  1
  Sc  Sc20  1  0.61204166  0.69007344  0.20239636  1
  Sc  Sc21  1  0.38795834  0.30992656  0.79760364  1
  Sc  Sc22  1  0.61204166  0.30992656  0.79760364  1
  Sc  Sc23  1  0.38795834  0.69007344  0.20239636  1
  Sc  Sc24  1  0.27207929  0.00000000  0.50000000  1
  Sc  Sc25  1  0.72792071  -0.00000000  0.50000000  1
  Sc  Sc26  1  0.50000000  0.27207929  -0.00000000  1
  Sc  Sc27  1  0.50000000  0.72792071  -0.00000000  1
  Sc  Sc28  1  0.00000000  0.50000000  0.27207929  1
  Sc  Sc29  1  0.00000000  0.50000000  0.72792071  1
  Sc  Sc30  1  0.50000000  0.32143116  0.39174134  1
  Sc  Sc31  1  0.50000000  0.67856884  0.60825866  1
  Sc  Sc32  1  0.50000000  0.67856884  0.39174134  1
  Sc  Sc33  1  0.50000000  0.32143116  0.60825866  1
  Sc  Sc34  1  0.39174134  0.50000000  0.32143116  1
  Sc  Sc35  1  0.60825866  0.50000000  0.67856884  1
  Sc  Sc36  1  0.39174134  0.50000000  0.67856884  1
  Sc  Sc37  1  0.60825866  0.50000000  0.32143116  1
  Sc  Sc38  1  0.32143116  0.39174134  0.50000000  1
  Sc  Sc39  1  0.67856884  0.60825866  0.50000000  1
  Sc  Sc40  1  0.32143116  0.60825866  0.50000000  1
  Sc  Sc41  1  0.67856884  0.39174134  0.50000000  1
  Sc  Sc42  1  0.50000000  0.10830959  0.13308906  1
  Sc  Sc43  1  0.50000000  0.89169041  0.86691094  1
  Sc  Sc44  1  0.50000000  0.89169041  0.13308906  1
  Sc  Sc45  1  0.50000000  0.10830959  0.86691094  1
  Sc  Sc46  1  0.13308906  0.50000000  0.10830959  1
  Sc  Sc47  1  0.86691094  0.50000000  0.89169041  1
  Sc  Sc48  1  0.13308906  0.50000000  0.89169041  1
  Sc  Sc49  1  0.86691094  0.50000000  0.10830959  1
  Sc  Sc50  1  0.10830959  0.13308906  0.50000000  1
  Sc  Sc51  1  0.89169041  0.86691094  0.50000000  1
  Sc  Sc52  1  0.10830959  0.86691094  0.50000000  1
  Sc  Sc53  1  0.89169041  0.13308906  0.50000000  1
  Sc  Sc54  1  0.11468319  0.18003679  0.29179170  1
  Sc  Sc55  1  0.88531681  0.81996321  0.70820830  1
  Sc  Sc56  1  0.88531681  0.81996321  0.29179170  1
  Sc  Sc57  1  0.88531681  0.18003679  0.70820830  1
  Sc  Sc58  1  0.29179170  0.11468319  0.18003679  1
  Sc  Sc59  1  0.11468319  0.18003679  0.70820830  1
  Sc  Sc60  1  0.11468319  0.81996321  0.29179170  1
  Sc  Sc61  1  0.70820830  0.88531681  0.81996321  1
  Sc  Sc62  1  0.11468319  0.81996321  0.70820830  1
  Sc  Sc63  1  0.29179170  0.88531681  0.81996321  1
  Sc  Sc64  1  0.88531681  0.18003679  0.29179170  1
  Sc  Sc65  1  0.70820830  0.11468319  0.18003679  1
  Sc  Sc66  1  0.70820830  0.88531681  0.18003679  1
  Sc  Sc67  1  0.29179170  0.11468319  0.81996321  1
  Sc  Sc68  1  0.70820830  0.11468319  0.81996321  1
  Sc  Sc69  1  0.29179170  0.88531681  0.18003679  1
  Sc  Sc70  1  0.18003679  0.29179170  0.11468319  1
  Sc  Sc71  1  0.81996321  0.70820830  0.88531681  1
  Sc  Sc72  1  0.18003679  0.70820830  0.88531681  1
  Sc  Sc73  1  0.81996321  0.29179170  0.11468319  1
  Sc  Sc74  1  0.81996321  0.70820830  0.11468319  1
  Sc  Sc75  1  0.18003679  0.29179170  0.88531681  1
  Sc  Sc76  1  0.81996321  0.29179170  0.88531681  1
  Sc  Sc77  1  0.18003679  0.70820830  0.11468319  1
  Sc  Sc78  1  0.00000000  0.32371829  0.39679794  1
  Sc  Sc79  1  0.00000000  0.67628171  0.60320206  1
  Sc  Sc80  1  0.00000000  0.67628171  0.39679794  1
  Sc  Sc81  1  0.00000000  0.32371829  0.60320206  1
  Sc  Sc82  1  0.39679794  -0.00000000  0.32371829  1
  Sc  Sc83  1  0.60320206  0.00000000  0.67628171  1
  Sc  Sc84  1  0.39679794  0.00000000  0.67628171  1
  Sc  Sc85  1  0.60320206  -0.00000000  0.32371829  1
  Sc  Sc86  1  0.32371829  0.39679794  0.00000000  1
  Sc  Sc87  1  0.67628171  0.60320206  -0.00000000  1
  Sc  Sc88  1  0.32371829  0.60320206  0.00000000  1
  Sc  Sc89  1  0.67628171  0.39679794  -0.00000000  1
  Sc  Sc90  1  0.12651605  0.50000000  0.50000000  1
  Sc  Sc91  1  0.87348395  0.50000000  0.50000000  1
  Sc  Sc92  1  0.50000000  0.12651605  0.50000000  1
  Sc  Sc93  1  0.50000000  0.87348395  0.50000000  1
  Sc  Sc94  1  0.50000000  0.50000000  0.12651605  1
  Sc  Sc95  1  0.50000000  0.50000000  0.87348395  1
  Sc  Sc96  1  0.00000000  0.17525247  0.10957694  1
  Sc  Sc97  1  0.00000000  0.82474753  0.89042306  1
  Sc  Sc98  1  0.00000000  0.82474753  0.10957694  1
  Sc  Sc99  1  0.00000000  0.17525247  0.89042306  1
  Sc  Sc100  1  0.10957694  0.00000000  0.17525247  1
  Sc  Sc101  1  0.89042306  0.00000000  0.82474753  1
  Sc  Sc102  1  0.10957694  0.00000000  0.82474753  1
  Sc  Sc103  1  0.89042306  -0.00000000  0.17525247  1
  Sc  Sc104  1  0.17525247  0.10957694  -0.00000000  1
  Sc  Sc105  1  0.82474753  0.89042306  0.00000000  1
  Sc  Sc106  1  0.17525247  0.89042306  -0.00000000  1
  Sc  Sc107  1  0.82474753  0.10957694  -0.00000000  1
  Sc  Sc108  1  0.36250903  -0.00000000  0.00000000  1
  Sc  Sc109  1  0.63749097  0.00000000  0.00000000  1
  Sc  Sc110  1  0.00000000  0.36250903  0.00000000  1
  Sc  Sc111  1  0.00000000  0.63749097  -0.00000000  1
  Sc  Sc112  1  0.00000000  0.00000000  0.36250903  1
  Sc  Sc113  1  0.00000000  -0.00000000  0.63749097  1
  Ru  Ru0  1  0.00000000  0.33315800  0.20284568  1
  Ru  Ru1  1  0.00000000  0.66684200  0.79715432  1
  Ru  Ru2  1  0.00000000  0.66684200  0.20284568  1
  Ru  Ru3  1  0.00000000  0.33315800  0.79715432  1
  Ru  Ru4  1  0.20284568  0.00000000  0.33315800  1
  Ru  Ru5  1  0.79715432  -0.00000000  0.66684200  1
  Ru  Ru6  1  0.20284568  -0.00000000  0.66684200  1
  Ru  Ru7  1  0.79715432  0.00000000  0.33315800  1
  Ru  Ru8  1  0.33315800  0.20284568  0.00000000  1
  Ru  Ru9  1  0.66684200  0.79715432  0.00000000  1
  Ru  Ru10  1  0.33315800  0.79715432  -0.00000000  1
  Ru  Ru11  1  0.66684200  0.20284568  0.00000000  1
  Ru  Ru12  1  0.50000000  0.50000000  0.50000000  1
  Ru  Ru13  1  0.50000000  0.16678632  0.29980874  1
  Ru  Ru14  1  0.50000000  0.83321368  0.70019126  1
  Ru  Ru15  1  0.50000000  0.83321368  0.29980874  1
  Ru  Ru16  1  0.50000000  0.16678632  0.70019126  1
  Ru  Ru17  1  0.29980874  0.50000000  0.16678632  1
  Ru  Ru18  1  0.70019126  0.50000000  0.83321368  1
  Ru  Ru19  1  0.29980874  0.50000000  0.83321368  1
  Ru  Ru20  1  0.70019126  0.50000000  0.16678632  1
  Ru  Ru21  1  0.16678632  0.29980874  0.50000000  1
  Ru  Ru22  1  0.83321368  0.70019126  0.50000000  1
  Ru  Ru23  1  0.16678632  0.70019126  0.50000000  1
  Ru  Ru24  1  0.83321368  0.29980874  0.50000000  1
  Ru  Ru25  1  0.00000000  -0.00000000  -0.00000000  1
loop_
_geom_bond_atom_site_label_1
_geom_bond_atom_site_label_2
_geom_bond_distance
_geom_bond_site_symmetry_2
Ru0 Sc28 2.603595 1_555
Ru0 Sc96 2.643334 1_555
Ru0 Sc78 2.798830 1_555
Ru0 Sc73 2.950255 1_455
Ru0 Sc70 2.950255 1_555
Ru0 Sc110 2.954154 1_555
Ru0 Sc64 3.040853 1_455
Ru0 Sc54 3.040853 1_555
Ru0 Sc49 3.364422 1_455
Ru0 Sc46 3.364422 1_555
Ru0 Sc10 3.393554 1_455
Ru0 Sc0 3.393554 1_555
Ru1 Sc29 2.603595 1_555
Ru1 Sc97 2.643334 1_555
Ru1 Sc79 2.798830 1_555
Ru1 Sc71 2.950255 1_455
Ru1 Sc72 2.950255 1_555
Ru1 Sc111 2.954154 1_556
Ru1 Sc55 3.040853 1_455
Ru1 Sc62 3.040853 1_555
Ru1 Sc47 3.364422 1_455
Ru1 Sc48 3.364422 1_555
Ru1 Sc1 3.393554 1_455
Ru1 Sc8 3.393554 1_555
Ru2 Sc28 2.603595 1_555
Ru2 Sc98 2.643334 1_555
Ru2 Sc80 2.798830 1_555
Ru2 Sc74 2.950255 1_455
Ru2 Sc77 2.950255 1_555
Ru2 Sc111 2.954154 1_555
Ru2 Sc56 3.040853 1_455
Ru2 Sc60 3.040853 1_555
Ru2 Sc49 3.364422 1_455
Ru2 Sc46 3.364422 1_555
Ru2 Sc2 3.393554 1_455
Ru2 Sc6 3.393554 1_555
Ru3 Sc29 2.603595 1_555
Ru3 Sc99 2.643334 1_555
Ru3 Sc81 2.798830 1_555
Ru3 Sc76 2.950255 1_455
Ru3 Sc75 2.950255 1_555
Ru3 Sc110 2.954154 1_556
Ru3 Sc57 3.040853 1_455
Ru3 Sc59 3.040853 1_555
Ru3 Sc47 3.364422 1_455
Ru3 Sc48 3.364422 1_555
Ru3 Sc3 3.393554 1_455
Ru3 Sc5 3.393554 1_555
Ru4 Sc24 2.603595 1_555
Ru4 Sc100 2.643334 1_555
Ru4 Sc82 2.798830 1_555
Ru4 Sc60 2.950255 1_545
Ru4 Sc54 2.950255 1_555
Ru4 Sc112 2.954154 1_555
Ru4 Sc69 3.040853 1_545
Ru4 Sc58 3.040853 1_555
Ru4 Sc52 3.364422 1_545
Ru4 Sc50 3.364422 1_555
Ru4 Sc15 3.393554 1_545
Ru4 Sc4 3.393554 1_555
Ru5 Sc25 2.603595 1_555
Ru5 Sc101 2.643334 1_555
Ru5 Sc83 2.798830 1_555
Ru5 Sc55 2.950255 1_545
Ru5 Sc57 2.950255 1_555
Ru5 Sc113 2.954154 1_655
Ru5 Sc61 3.040853 1_545
Ru5 Sc68 3.040853 1_555
Ru5 Sc51 3.364422 1_545
Ru5 Sc53 3.364422 1_555
Ru5 Sc7 3.393554 1_545
Ru5 Sc14 3.393554 1_555
Ru6 Sc24 2.603595 1_555
Ru6 Sc102 2.643334 1_555
Ru6 Sc84 2.798830 1_555
Ru6 Sc62 2.950255 1_545
Ru6 Sc59 2.950255 1_555
Ru6 Sc113 2.954154 1_555
Ru6 Sc63 3.040853 1_545
Ru6 Sc67 3.040853 1_555
Ru6 Sc52 3.364422 1_545
Ru6 Sc50 3.364422 1_555
Ru6 Sc9 3.393554 1_545
Ru6 Sc13 3.393554 1_555
Ru7 Sc25 2.603595 1_555
Ru7 Sc103 2.643334 1_555
Ru7 Sc85 2.798830 1_555
Ru7 Sc56 2.950255 1_545
Ru7 Sc64 2.950255 1_555
Ru7 Sc112 2.954154 1_655
Ru7 Sc66 3.040853 1_545
Ru7 Sc65 3.040853 1_555
Ru7 Sc51 3.364422 1_545
Ru7 Sc53 3.364422 1_555
Ru7 Sc12 3.393554 1_545
Ru7 Sc11 3.393554 1_555
Ru8 Sc26 2.603595 1_555
Ru8 Sc104 2.643334 1_555
Ru8 Sc86 2.798830 1_555
Ru8 Sc67 2.950255 1_554
Ru8 Sc58 2.950255 1_555
Ru8 Sc108 2.954154 1_555
Ru8 Sc75 3.040853 1_554
Ru8 Sc70 3.040853 1_555
Ru8 Sc45 3.364422 1_554
Ru8 Sc42 3.364422 1_555
Ru8 Sc21 3.393554 1_554
Ru8 Sc16 3.393554 1_555
Ru9 Sc27 2.603595 1_555
Ru9 Sc105 2.643334 1_555
Ru9 Sc87 2.798830 1_555
Ru9 Sc61 2.950255 1_554
Ru9 Sc66 2.950255 1_555
Ru9 Sc109 2.954154 1_565
Ru9 Sc71 3.040853 1_554
Ru9 Sc74 3.040853 1_555
Ru9 Sc44 3.364422 1_555
Ru9 Sc43 3.364422 1_554
Ru9 Sc17 3.393554 1_554
Ru9 Sc20 3.393554 1_555
Ru10 Sc27 2.603595 1_555
Ru10 Sc106 2.643334 1_555
Ru10 Sc88 2.798830 1_555
Ru10 Sc63 2.950255 1_554
Ru10 Sc69 2.950255 1_555
Ru10 Sc108 2.954154 1_565
Ru10 Sc72 3.040853 1_554
Ru10 Sc77 3.040853 1_555
Ru10 Sc43 3.364422 1_554
Ru10 Sc44 3.364422 1_555
Ru10 Sc18 3.393554 1_554
Ru10 Sc23 3.393554 1_555
Ru11 Sc26 2.603595 1_555
Ru11 Sc107 2.643334 1_555
Ru11 Sc89 2.798830 1_555
Ru11 Sc68 2.950255 1_554
Ru11 Sc65 2.950255 1_555
Ru11 Sc109 2.954154 1_555
Ru11 Sc76 3.040853 1_554
Ru11 Sc73 3.040853 1_555
Ru11 Sc42 3.364422 1_555
Ru11 Sc45 3.364422 1_554
Ru11 Sc22 3.393554 1_554
Ru11 Sc19 3.393554 1_555
Ru12 Sc30 3.009850 1_555
Ru12 Sc34 3.009850 1_555
Ru12 Sc38 3.009850 1_555
Ru12 Sc37 3.009850 1_555
Ru12 Sc40 3.009850 1_555
Ru12 Sc33 3.009850 1_555
Ru12 Sc36 3.009850 1_555
Ru12 Sc41 3.009850 1_555
Ru12 Sc32 3.009850 1_555
Ru12 Sc35 3.009850 1_555
Ru12 Sc39 3.009850 1_555
Ru12 Sc31 3.009850 1_555
Ru13 Sc42 2.546534 1_555
Ru13 Sc30 2.593084 1_555
Ru13 Sc82 2.847888 1_555
Ru13 Sc85 2.847888 1_555
Ru13 Sc92 2.943247 1_555
Ru13 Sc16 2.972514 1_555
Ru13 Sc19 2.972514 1_555
Ru13 Sc4 3.063200 1_555
Ru13 Sc11 3.063200 1_555
Ru14 Sc43 2.546534 1_555
Ru14 Sc31 2.593084 1_555
Ru14 Sc83 2.847888 1_565
Ru14 Sc84 2.847888 1_565
Ru14 Sc93 2.943247 1_555
Ru14 Sc18 2.972514 1_555
Ru14 Sc17 2.972514 1_555
Ru14 Sc9 3.063200 1_555
Ru14 Sc7 3.063200 1_555
Ru15 Sc44 2.546534 1_555
Ru15 Sc32 2.593084 1_555
Ru15 Sc85 2.847888 1_565
Ru15 Sc82 2.847888 1_565
Ru15 Sc93 2.943247 1_555
Ru15 Sc20 2.972514 1_555
Ru15 Sc23 2.972514 1_555
Ru15 Sc15 3.063200 1_555
Ru15 Sc12 3.063200 1_555
Ru16 Sc45 2.546534 1_555
Ru16 Sc33 2.593084 1_555
Ru16 Sc83 2.847888 1_555
Ru16 Sc84 2.847888 1_555
Ru16 Sc92 2.943247 1_555
Ru16 Sc21 2.972514 1_555
Ru16 Sc22 2.972514 1_555
Ru16 Sc13 3.063200 1_555
Ru16 Sc14 3.063200 1_555
Ru17 Sc46 2.546534 1_555
Ru17 Sc34 2.593084 1_555
Ru17 Sc88 2.847888 1_555
Ru17 Sc86 2.847888 1_555
Ru17 Sc94 2.943247 1_555
Ru17 Sc0 2.972514 1_555
Ru17 Sc6 2.972514 1_555
Ru17 Sc16 3.063200 1_555
Ru17 Sc23 3.063200 1_555
Ru18 Sc47 2.546534 1_555
Ru18 Sc35 2.593084 1_555
Ru18 Sc89 2.847888 1_556
Ru18 Sc87 2.847888 1_556
Ru18 Sc95 2.943247 1_555
Ru18 Sc3 2.972514 1_555
Ru18 Sc1 2.972514 1_555
Ru18 Sc22 3.063200 1_555
Ru18 Sc17 3.063200 1_555
Ru19 Sc48 2.546534 1_555
Ru19 Sc36 2.593084 1_555
Ru19 Sc86 2.847888 1_556
Ru19 Sc88 2.847888 1_556
Ru19 Sc95 2.943247 1_555
Ru19 Sc8 2.972514 1_555
Ru19 Sc5 2.972514 1_555
Ru19 Sc21 3.063200 1_555
Ru19 Sc18 3.063200 1_555
Ru20 Sc49 2.546534 1_555
Ru20 Sc37 2.593084 1_555
Ru20 Sc89 2.847888 1_555
Ru20 Sc87 2.847888 1_555
Ru20 Sc94 2.943247 1_555
Ru20 Sc10 2.972514 1_555
Ru20 Sc2 2.972514 1_555
Ru20 Sc19 3.063200 1_555
Ru20 Sc20 3.063200 1_555
Ru21 Sc50 2.546534 1_555
Ru21 Sc38 2.593084 1_555
Ru21 Sc81 2.847888 1_555
Ru21 Sc78 2.847888 1_555
Ru21 Sc90 2.943247 1_555
Ru21 Sc4 2.972514 1_555
Ru21 Sc13 2.972514 1_555
Ru21 Sc0 3.063200 1_555
Ru21 Sc5 3.063200 1_555
Ru22 Sc51 2.546534 1_555
Ru22 Sc39 2.593084 1_555
Ru22 Sc79 2.847888 1_655
Ru22 Sc80 2.847888 1_655
Ru22 Sc91 2.943247 1_555
Ru22 Sc12 2.972514 1_555
Ru22 Sc7 2.972514 1_555
Ru22 Sc2 3.063200 1_555
Ru22 Sc1 3.063200 1_555
Ru23 Sc52 2.546534 1_555
Ru23 Sc40 2.593084 1_555
Ru23 Sc79 2.847888 1_555
Ru23 Sc80 2.847888 1_555
Ru23 Sc90 2.943247 1_555
Ru23 Sc9 2.972514 1_555
Ru23 Sc15 2.972514 1_555
Ru23 Sc6 3.063200 1_555
Ru23 Sc8 3.063200 1_555
Ru24 Sc53 2.546534 1_555
Ru24 Sc41 2.593084 1_555
Ru24 Sc81 2.847888 1_655
Ru24 Sc78 2.847888 1_655
Ru24 Sc91 2.943247 1_555
Ru24 Sc14 2.972514 1_555
Ru24 Sc11 2.972514 1_555
Ru24 Sc10 3.063200 1_555
Ru24 Sc3 3.063200 1_555
Ru25 Sc97 2.979108 1_544
Ru25 Sc103 2.979108 1_455
Ru25 Sc99 2.979108 1_554
Ru25 Sc105 2.979108 1_445
Ru25 Sc101 2.979108 1_454
Ru25 Sc106 2.979108 1_545
Ru25 Sc107 2.979108 1_455
Ru25 Sc98 2.979108 1_545
Ru25 Sc100 2.979108 1_555
Ru25 Sc104 2.979108 1_555
Ru25 Sc102 2.979108 1_554
Ru25 Sc96 2.979108 1_555
