# generated using pymatgen
data_Fe2SiNi
_symmetry_space_group_name_H-M   'P 1'
_cell_length_a   3.98741615
_cell_length_b   3.98741615
_cell_length_c   3.98741615
_cell_angle_alpha   60.00000000
_cell_angle_beta   60.00000000
_cell_angle_gamma   60.00000000
_symmetry_Int_Tables_number   1
_chemical_formula_structural   Fe2SiNi
_chemical_formula_sum   'Fe2 Si1 Ni1'
_cell_volume   44.82906627
_cell_formula_units_Z   1
loop_
 _symmetry_equiv_pos_site_id
 _symmetry_equiv_pos_as_xyz
  1  'x, y, z'
loop_
 _atom_site_type_symbol
 _atom_site_label
 _atom_site_symmetry_multiplicity
 _atom_site_fract_x
 _atom_site_fract_y
 _atom_site_fract_z
 _atom_site_occupancy
  Fe  Fe0  1  0.25000000  0.25000000  0.25000000  1
  Fe  Fe1  1  0.00000000  0.00000000  0.00000000  1
  Si  Si0  1  0.75000000  0.75000000  0.75000000  1
  Ni  Ni0  1  0.50000000  0.50000000  0.50000000  1
loop_
_geom_bond_atom_site_label_1
_geom_bond_atom_site_label_2
_geom_bond_distance
_geom_bond_site_symmetry_2
Fe0 Ni0 2.441784 1_555
Fe0 Fe1 2.441784 1_556
Fe0 Fe1 2.441784 1_555
Fe0 Ni0 2.441784 1_554
Fe0 Fe1 2.441784 1_565
Fe0 Fe1 2.441784 1_655
Fe0 Ni0 2.441784 1_455
Fe0 Ni0 2.441784 1_545
Fe0 Si0 2.819529 1_455
Fe0 Si0 2.819529 1_545
Fe0 Si0 2.819529 1_454
Fe0 Si0 2.819529 1_445
Fe0 Si0 2.819529 1_544
Fe0 Si0 2.819529 1_554
Fe1 Si0 2.441784 1_444
Fe1 Si0 2.441784 1_445
Fe1 Si0 2.441784 1_454
Fe1 Si0 2.441784 1_544
Fe1 Ni0 2.819529 1_554
Fe1 Ni0 2.819529 1_455
Fe1 Ni0 2.819529 1_454
Fe1 Ni0 2.819529 1_544
Fe1 Ni0 2.819529 1_545
Fe1 Ni0 2.819529 1_445
Ni0 Si0 2.441784 1_554
Ni0 Si0 2.441784 1_555
Ni0 Si0 2.441784 1_545
Ni0 Si0 2.441784 1_455
