# generated using pymatgen
data_LaAl2Pt3
_symmetry_space_group_name_H-M   'P 1'
_cell_length_a   11.27391465
_cell_length_b   11.27391465
_cell_length_c   7.90530566
_cell_angle_alpha   90.00000000
_cell_angle_beta   90.00000000
_cell_angle_gamma   119.99998480
_symmetry_Int_Tables_number   1
_chemical_formula_structural   LaAl2Pt3
_chemical_formula_sum   'La8 Al16 Pt24'
_cell_volume   870.15946835
_cell_formula_units_Z   8
loop_
 _symmetry_equiv_pos_site_id
 _symmetry_equiv_pos_as_xyz
  1  'x, y, z'
loop_
 _atom_site_type_symbol
 _atom_site_label
 _atom_site_symmetry_multiplicity
 _atom_site_fract_x
 _atom_site_fract_y
 _atom_site_fract_z
 _atom_site_occupancy
  La  La0_0  1  0.00000000  0.00000000  0.00000000  1
  La  La0_1  1  0.00000000  0.00000000  0.50000000  1
  La  La0_2  1  0.00000000  0.50000000  0.00000000  1
  La  La0_3  1  0.00000000  0.50000000  0.50000000  1
  La  La0_4  1  0.50000000  0.00000000  0.00000000  1
  La  La0_5  1  0.50000000  0.00000000  0.50000000  1
  La  La0_6  1  0.50000000  0.50000000  0.00000000  1
  La  La0_7  1  0.50000000  0.50000000  0.50000000  1
  Al  Al0_0  1  0.33333350  0.16666650  0.00000000  1
  Al  Al0_1  1  0.33333350  0.16666650  0.50000000  1
  Al  Al0_2  1  0.33333350  0.66666650  0.00000000  1
  Al  Al0_3  1  0.33333350  0.66666650  0.50000000  1
  Al  Al0_4  1  0.83333350  0.16666650  0.00000000  1
  Al  Al0_5  1  0.83333350  0.16666650  0.50000000  1
  Al  Al0_6  1  0.83333350  0.66666650  0.00000000  1
  Al  Al0_7  1  0.83333350  0.66666650  0.50000000  1
  Al  Al1_0  1  0.16666650  0.33333350  0.00000000  1
  Al  Al1_1  1  0.16666650  0.33333350  0.50000000  1
  Al  Al1_2  1  0.16666650  0.83333350  0.00000000  1
  Al  Al1_3  1  0.16666650  0.83333350  0.50000000  1
  Al  Al1_4  1  0.66666650  0.33333350  0.00000000  1
  Al  Al1_5  1  0.66666650  0.33333350  0.50000000  1
  Al  Al1_6  1  0.66666650  0.83333350  0.00000000  1
  Al  Al1_7  1  0.66666650  0.83333350  0.50000000  1
  Pt  Pt0_0  1  0.25000000  0.25000000  0.25000000  1
  Pt  Pt0_1  1  0.25000000  0.25000000  0.75000000  1
  Pt  Pt0_2  1  0.25000000  0.75000000  0.25000000  1
  Pt  Pt0_3  1  0.25000000  0.75000000  0.75000000  1
  Pt  Pt0_4  1  0.75000000  0.25000000  0.25000000  1
  Pt  Pt0_5  1  0.75000000  0.25000000  0.75000000  1
  Pt  Pt0_6  1  0.75000000  0.75000000  0.25000000  1
  Pt  Pt0_7  1  0.75000000  0.75000000  0.75000000  1
  Pt  Pt1_0  1  0.25000000  0.00000000  0.25000000  1
  Pt  Pt1_1  1  0.25000000  0.00000000  0.75000000  1
  Pt  Pt1_2  1  0.25000000  0.50000000  0.25000000  1
  Pt  Pt1_3  1  0.25000000  0.50000000  0.75000000  1
  Pt  Pt1_4  1  0.75000000  1.00000000  0.25000000  1
  Pt  Pt1_5  1  0.75000000  1.00000000  0.75000000  1
  Pt  Pt1_6  1  0.75000000  0.50000000  0.25000000  1
  Pt  Pt1_7  1  0.75000000  0.50000000  0.75000000  1
  Pt  Pt2_0  1  0.00000000  0.25000000  0.25000000  1
  Pt  Pt2_1  1  0.00000000  0.25000000  0.75000000  1
  Pt  Pt2_2  1  1.00000000  0.75000000  0.25000000  1
  Pt  Pt2_3  1  1.00000000  0.75000000  0.75000000  1
  Pt  Pt2_4  1  0.50000000  0.25000000  0.25000000  1
  Pt  Pt2_5  1  0.50000000  0.25000000  0.75000000  1
  Pt  Pt2_6  1  0.50000000  0.75000000  0.25000000  1
  Pt  Pt2_7  1  0.50000000  0.75000000  0.75000000  1
loop_
_geom_bond_atom_site_label_1
_geom_bond_atom_site_label_2
_geom_bond_distance
_geom_bond_site_symmetry_2
La0_0 Pt2_3 3.442338 1_444
La0_0 Pt2_2 3.442338 1_445
La0_0 Pt1_1 3.442338 1_554
La0_0 Pt2_0 3.442338 1_555
La0_0 Pt1_0 3.442338 1_555
La0_0 Pt2_1 3.442338 1_554
La0_0 Pt1_5 3.442338 1_444
La0_0 Pt1_4 3.442338 1_445
La0_0 Pt0_0 3.442338 1_555
La0_0 Pt0_1 3.442338 1_554
La0_0 Pt0_6 3.442338 1_445
La0_0 Pt0_7 3.442338 1_444
La0_0 La0_1 3.952653 1_554
La0_0 La0_1 3.952653 1_555
La0_1 Pt2_3 3.442338 1_445
La0_1 Pt2_2 3.442338 1_445
La0_1 Pt2_1 3.442338 1_555
La0_1 Pt2_0 3.442338 1_555
La0_1 Pt1_0 3.442338 1_555
La0_1 Pt1_1 3.442338 1_555
La0_1 Pt1_5 3.442338 1_445
La0_1 Pt1_4 3.442338 1_445
La0_1 Pt0_1 3.442338 1_555
La0_1 Pt0_0 3.442338 1_555
La0_1 Pt0_6 3.442338 1_445
La0_1 Pt0_7 3.442338 1_445
La0_2 Pt1_2 3.442338 1_555
La0_2 Pt1_3 3.442338 1_554
La0_2 Pt2_0 3.442338 1_555
La0_2 Pt2_1 3.442338 1_554
La0_2 Pt1_6 3.442338 1_455
La0_2 Pt2_3 3.442338 1_454
La0_2 Pt2_2 3.442338 1_455
La0_2 Pt1_7 3.442338 1_454
La0_2 Pt0_2 3.442338 1_555
La0_2 Pt0_3 3.442338 1_554
La0_2 Pt0_4 3.442338 1_455
La0_2 Pt0_5 3.442338 1_454
La0_2 La0_3 3.952653 1_555
La0_2 La0_3 3.952653 1_554
La0_3 Pt1_2 3.442338 1_555
La0_3 Pt1_3 3.442338 1_555
La0_3 Pt2_1 3.442338 1_555
La0_3 Pt2_0 3.442338 1_555
La0_3 Pt1_7 3.442338 1_455
La0_3 Pt1_6 3.442338 1_455
La0_3 Pt2_2 3.442338 1_455
La0_3 Pt2_3 3.442338 1_455
La0_3 Pt0_2 3.442338 1_555
La0_3 Pt0_3 3.442338 1_555
La0_3 Pt0_4 3.442338 1_455
La0_3 Pt0_5 3.442338 1_455
La0_4 Pt1_4 3.442338 1_545
La0_4 Pt2_7 3.442338 1_544
La0_4 Pt2_6 3.442338 1_545
La0_4 Pt1_5 3.442338 1_544
La0_4 Pt2_5 3.442338 1_554
La0_4 Pt2_4 3.442338 1_555
La0_4 Pt1_1 3.442338 1_554
La0_4 Pt1_0 3.442338 1_555
La0_4 Pt0_4 3.442338 1_555
La0_4 Pt0_5 3.442338 1_554
La0_4 Pt0_2 3.442338 1_545
La0_4 Pt0_3 3.442338 1_544
La0_4 La0_5 3.952653 1_554
La0_4 La0_5 3.952653 1_555
La0_5 Pt1_4 3.442338 1_545
La0_5 Pt1_5 3.442338 1_545
La0_5 Pt2_7 3.442338 1_545
La0_5 Pt2_6 3.442338 1_545
La0_5 Pt2_4 3.442338 1_555
La0_5 Pt2_5 3.442338 1_555
La0_5 Pt1_0 3.442338 1_555
La0_5 Pt1_1 3.442338 1_555
La0_5 Pt0_4 3.442338 1_555
La0_5 Pt0_5 3.442338 1_555
La0_5 Pt0_2 3.442338 1_545
La0_5 Pt0_3 3.442338 1_545
La0_6 Pt1_2 3.442338 1_555
La0_6 Pt1_7 3.442338 1_554
La0_6 Pt1_3 3.442338 1_554
La0_6 Pt1_6 3.442338 1_555
La0_6 Pt2_6 3.442338 1_555
La0_6 Pt2_7 3.442338 1_554
La0_6 Pt2_4 3.442338 1_555
La0_6 Pt2_5 3.442338 1_554
La0_6 Pt0_6 3.442338 1_555
La0_6 Pt0_7 3.442338 1_554
La0_6 Pt0_0 3.442338 1_555
La0_6 Pt0_1 3.442338 1_554
La0_6 La0_7 3.952653 1_554
La0_6 La0_7 3.952653 1_555
La0_7 Pt1_2 3.442338 1_555
La0_7 Pt1_3 3.442338 1_555
La0_7 Pt1_7 3.442338 1_555
La0_7 Pt1_6 3.442338 1_555
La0_7 Pt2_6 3.442338 1_555
La0_7 Pt2_4 3.442338 1_555
La0_7 Pt2_5 3.442338 1_555
La0_7 Pt2_7 3.442338 1_555
La0_7 Pt0_6 3.442338 1_555
La0_7 Pt0_7 3.442338 1_555
La0_7 Pt0_1 3.442338 1_555
La0_7 Pt0_0 3.442338 1_555
Al0_0 Pt2_4 2.560040 1_555
Al0_0 Pt2_5 2.560040 1_554
Al0_0 Pt1_0 2.560040 1_555
Al0_0 Pt1_1 2.560040 1_554
Al0_0 Pt0_1 2.560042 1_554
Al0_0 Pt0_0 2.560042 1_555
Al0_0 La0_4 3.254495 1_555
Al0_0 La0_0 3.254501 1_555
Al0_0 La0_6 3.254501 1_555
Al0_1 Pt2_4 2.560040 1_555
Al0_1 Pt2_5 2.560040 1_555
Al0_1 Pt1_0 2.560040 1_555
Al0_1 Pt1_1 2.560040 1_555
Al0_1 Pt0_1 2.560042 1_555
Al0_1 Pt0_0 2.560042 1_555
Al0_1 La0_5 3.254495 1_555
Al0_1 La0_1 3.254501 1_555
Al0_1 La0_7 3.254501 1_555
Al0_2 Pt2_7 2.560040 1_554
Al0_2 Pt2_6 2.560040 1_555
Al0_2 Pt1_2 2.560040 1_555
Al0_2 Pt1_3 2.560040 1_554
Al0_2 Pt0_2 2.560042 1_555
Al0_2 Pt0_3 2.560042 1_554
Al0_2 La0_6 3.254495 1_555
Al0_2 La0_4 3.254501 1_565
Al0_2 La0_2 3.254501 1_555
Al0_3 Pt2_7 2.560040 1_555
Al0_3 Pt2_6 2.560040 1_555
Al0_3 Pt1_2 2.560040 1_555
Al0_3 Pt1_3 2.560040 1_555
Al0_3 Pt0_2 2.560042 1_555
Al0_3 Pt0_3 2.560042 1_555
Al0_3 La0_7 3.254495 1_555
Al0_3 La0_5 3.254501 1_565
Al0_3 La0_3 3.254501 1_555
Al0_4 Pt2_0 2.560040 1_655
Al0_4 Pt2_1 2.560040 1_654
Al0_4 Pt1_4 2.560040 1_545
Al0_4 Pt1_5 2.560040 1_544
Al0_4 Pt0_5 2.560042 1_554
Al0_4 Pt0_4 2.560042 1_555
Al0_4 La0_0 3.254495 1_655
Al0_4 La0_4 3.254501 1_555
Al0_4 La0_2 3.254501 1_655
Al0_5 Pt2_0 2.560040 1_655
Al0_5 Pt2_1 2.560040 1_655
Al0_5 Pt1_5 2.560040 1_545
Al0_5 Pt1_4 2.560040 1_545
Al0_5 Pt0_4 2.560042 1_555
Al0_5 Pt0_5 2.560042 1_555
Al0_5 La0_1 3.254495 1_655
Al0_5 La0_5 3.254501 1_555
Al0_5 La0_3 3.254501 1_655
Al0_6 Pt1_6 2.560040 1_555
Al0_6 Pt1_7 2.560040 1_554
Al0_6 Pt2_3 2.560040 1_554
Al0_6 Pt2_2 2.560040 1_555
Al0_6 Pt0_6 2.560042 1_555
Al0_6 Pt0_7 2.560042 1_554
Al0_6 La0_2 3.254495 1_655
Al0_6 La0_6 3.254501 1_555
Al0_6 La0_0 3.254501 1_665
Al0_7 Pt1_6 2.560040 1_555
Al0_7 Pt1_7 2.560040 1_555
Al0_7 Pt2_2 2.560040 1_555
Al0_7 Pt2_3 2.560040 1_555
Al0_7 Pt0_6 2.560042 1_555
Al0_7 Pt0_7 2.560042 1_555
Al0_7 La0_3 3.254495 1_655
Al0_7 La0_7 3.254501 1_555
Al0_7 La0_1 3.254501 1_665
Al1_0 Pt2_1 2.560040 1_554
Al1_0 Pt2_0 2.560040 1_555
Al1_0 Pt1_2 2.560040 1_555
Al1_0 Pt1_3 2.560040 1_554
Al1_0 Pt0_0 2.560042 1_555
Al1_0 Pt0_1 2.560042 1_554
Al1_0 La0_2 3.254495 1_555
Al1_0 La0_6 3.254501 1_555
Al1_0 La0_0 3.254501 1_555
Al1_1 Pt2_0 2.560040 1_555
Al1_1 Pt2_1 2.560040 1_555
Al1_1 Pt1_2 2.560040 1_555
Al1_1 Pt1_3 2.560040 1_555
Al1_1 Pt0_0 2.560042 1_555
Al1_1 Pt0_1 2.560042 1_555
Al1_1 La0_3 3.254495 1_555
Al1_1 La0_7 3.254501 1_555
Al1_1 La0_1 3.254501 1_555
Al1_2 Pt1_0 2.560040 1_565
Al1_2 Pt1_1 2.560040 1_564
Al1_2 Pt2_2 2.560040 1_455
Al1_2 Pt2_3 2.560040 1_454
Al1_2 Pt0_2 2.560042 1_555
Al1_2 Pt0_3 2.560042 1_554
Al1_2 La0_0 3.254495 1_565
Al1_2 La0_4 3.254501 1_565
Al1_2 La0_2 3.254501 1_555
Al1_3 Pt1_0 2.560040 1_565
Al1_3 Pt1_1 2.560040 1_565
Al1_3 Pt2_2 2.560040 1_455
Al1_3 Pt2_3 2.560040 1_455
Al1_3 Pt0_2 2.560042 1_555
Al1_3 Pt0_3 2.560042 1_555
Al1_3 La0_1 3.254495 1_565
Al1_3 La0_5 3.254501 1_565
Al1_3 La0_3 3.254501 1_555
Al1_4 Pt2_4 2.560040 1_555
Al1_4 Pt2_5 2.560040 1_554
Al1_4 Pt1_7 2.560040 1_554
Al1_4 Pt1_6 2.560040 1_555
Al1_4 Pt0_4 2.560042 1_555
Al1_4 Pt0_5 2.560042 1_554
Al1_4 La0_6 3.254495 1_555
Al1_4 La0_4 3.254501 1_555
Al1_4 La0_2 3.254501 1_655
Al1_5 Pt2_4 2.560040 1_555
Al1_5 Pt2_5 2.560040 1_555
Al1_5 Pt1_7 2.560040 1_555
Al1_5 Pt1_6 2.560040 1_555
Al1_5 Pt0_4 2.560042 1_555
Al1_5 Pt0_5 2.560042 1_555
Al1_5 La0_7 3.254495 1_555
Al1_5 La0_5 3.254501 1_555
Al1_5 La0_3 3.254501 1_655
Al1_6 Pt2_7 2.560040 1_554
Al1_6 Pt2_6 2.560040 1_555
Al1_6 Pt1_5 2.560040 1_554
Al1_6 Pt1_4 2.560040 1_555
Al1_6 Pt0_6 2.560042 1_555
Al1_6 Pt0_7 2.560042 1_554
Al1_6 La0_4 3.254495 1_565
Al1_6 La0_6 3.254501 1_555
Al1_6 La0_0 3.254501 1_665
Al1_7 Pt2_7 2.560040 1_555
Al1_7 Pt2_6 2.560040 1_555
Al1_7 Pt1_4 2.560040 1_555
Al1_7 Pt1_5 2.560040 1_555
Al1_7 Pt0_6 2.560042 1_555
Al1_7 Pt0_7 2.560042 1_555
Al1_7 La0_5 3.254495 1_565
Al1_7 La0_7 3.254501 1_555
Al1_7 La0_1 3.254501 1_665
Pt0_0 Pt2_4 2.818479 1_555
Pt0_0 Pt2_0 2.818479 1_555
Pt0_0 Pt1_2 2.818479 1_555
Pt0_0 Pt1_0 2.818479 1_555
Pt0_1 Pt2_5 2.818479 1_555
Pt0_1 Pt2_1 2.818479 1_555
Pt0_1 Pt1_3 2.818479 1_555
Pt0_1 Pt1_1 2.818479 1_555
Pt0_2 Pt1_0 2.818479 1_565
Pt0_2 Pt2_2 2.818479 1_455
Pt0_2 Pt1_2 2.818479 1_555
Pt0_2 Pt2_6 2.818479 1_555
Pt0_3 Pt1_1 2.818479 1_565
Pt0_3 Pt2_3 2.818479 1_455
Pt0_3 Pt1_3 2.818479 1_555
Pt0_3 Pt2_7 2.818479 1_555
Pt0_4 Pt2_0 2.818479 1_655
Pt0_4 Pt1_6 2.818479 1_555
Pt0_4 Pt2_4 2.818479 1_555
Pt0_4 Pt1_4 2.818479 1_545
Pt0_5 Pt2_1 2.818479 1_655
Pt0_5 Pt2_5 2.818479 1_555
Pt0_5 Pt1_7 2.818479 1_555
Pt0_5 Pt1_5 2.818479 1_545
Pt0_6 Pt1_6 2.818479 1_555
Pt0_6 Pt2_6 2.818479 1_555
Pt0_6 Pt1_4 2.818479 1_555
Pt0_6 Pt2_2 2.818479 1_555
Pt0_7 Pt1_7 2.818479 1_555
Pt0_7 Pt2_7 2.818479 1_555
Pt0_7 Pt1_5 2.818479 1_555
Pt0_7 Pt2_3 2.818479 1_555
Pt1_0 Pt2_4 2.818479 1_555
Pt1_0 Pt2_2 2.818479 1_445
Pt1_1 Pt2_5 2.818479 1_555
Pt1_1 Pt2_3 2.818479 1_445
Pt1_2 Pt2_0 2.818479 1_555
Pt1_2 Pt2_6 2.818479 1_555
Pt1_3 Pt2_1 2.818479 1_555
Pt1_3 Pt2_7 2.818479 1_555
Pt1_4 Pt2_6 2.818479 1_555
Pt1_4 Pt2_0 2.818479 1_665
Pt1_5 Pt2_7 2.818479 1_555
Pt1_5 Pt2_1 2.818479 1_665
Pt1_6 Pt2_2 2.818479 1_555
Pt1_6 Pt2_4 2.818479 1_555
Pt1_7 Pt2_3 2.818479 1_555
Pt1_7 Pt2_5 2.818479 1_555
