# generated using pymatgen
data_Si2SeN2
_symmetry_space_group_name_H-M   'P 1'
_cell_length_a   6.10958181
_cell_length_b   5.62427942
_cell_length_c   4.91348500
_cell_angle_alpha   90.00000000
_cell_angle_beta   90.00000000
_cell_angle_gamma   117.40541026
_symmetry_Int_Tables_number   1
_chemical_formula_structural   Si2SeN2
_chemical_formula_sum   'Si4 Se2 N4'
_cell_volume   149.88888027
_cell_formula_units_Z   2
loop_
 _symmetry_equiv_pos_site_id
 _symmetry_equiv_pos_as_xyz
  1  'x, y, z'
loop_
 _atom_site_type_symbol
 _atom_site_label
 _atom_site_symmetry_multiplicity
 _atom_site_fract_x
 _atom_site_fract_y
 _atom_site_fract_z
 _atom_site_occupancy
  Si  Si0  1  0.62327100  0.16661600  0.90889600  1
  Si  Si1  1  0.37672900  0.54334500  0.90889600  1
  Si  Si2  1  0.37672900  0.83338400  0.40889600  1
  Si  Si3  1  0.62327100  0.45665500  0.40889600  1
  Se  Se0  1  0.00000000  0.77971400  0.26733900  1
  Se  Se1  1  0.00000000  0.22028600  0.76733900  1
  N  N0  1  0.55271200  0.14908400  0.25423500  1
  N  N1  1  0.44728800  0.59637200  0.25423500  1
  N  N2  1  0.44728800  0.85091600  0.75423500  1
  N  N3  1  0.55271200  0.40362800  0.75423500  1
loop_
_geom_bond_atom_site_label_1
_geom_bond_atom_site_label_2
_geom_bond_distance
_geom_bond_site_symmetry_2
Se0 Si3 2.287560 1_455
Se0 Si2 2.287561 1_555
Se1 Si1 2.287560 1_555
Se1 Si0 2.287561 1_455
N0 Si0 1.742303 1_554
N0 Si3 1.751933 1_555
N0 Si2 1.768833 1_545
N1 Si1 1.742303 1_554
N1 Si2 1.751933 1_555
N1 Si3 1.768833 1_555
N2 Si2 1.742303 1_555
N2 Si1 1.751933 1_555
N2 Si0 1.768833 1_565
N3 Si3 1.742303 1_555
N3 Si0 1.751933 1_555
N3 Si1 1.768833 1_555
