# generated using pymatgen
data_TbCuSn
_symmetry_space_group_name_H-M   'P 1'
_cell_length_a   4.54449018
_cell_length_b   4.54449018
_cell_length_c   7.52439600
_cell_angle_alpha   90.00000000
_cell_angle_beta   90.00000000
_cell_angle_gamma   120.00000268
_symmetry_Int_Tables_number   1
_chemical_formula_structural   TbCuSn
_chemical_formula_sum   'Tb2 Cu2 Sn2'
_cell_volume   134.57754554
_cell_formula_units_Z   2
loop_
 _symmetry_equiv_pos_site_id
 _symmetry_equiv_pos_as_xyz
  1  'x, y, z'
loop_
 _atom_site_type_symbol
 _atom_site_label
 _atom_site_symmetry_multiplicity
 _atom_site_fract_x
 _atom_site_fract_y
 _atom_site_fract_z
 _atom_site_occupancy
  Tb  Tb0  1  0.00000000  0.00000000  0.50000000  1
  Tb  Tb1  1  0.00000000  0.00000000  0.00000000  1
  Cu  Cu0  1  0.33333300  0.66666700  0.75000000  1
  Cu  Cu1  1  0.66666700  0.33333300  0.25000000  1
  Sn  Sn0  1  0.33333300  0.66666700  0.25000000  1
  Sn  Sn1  1  0.66666700  0.33333300  0.75000000  1
loop_
_geom_bond_atom_site_label_1
_geom_bond_atom_site_label_2
_geom_bond_distance
_geom_bond_site_symmetry_2
Cu0 Sn1 2.623760 1_455
Cu0 Sn1 2.623760 1_565
Cu0 Sn1 2.623768 1_555
Cu0 Tb0 3.228413 1_565
Cu0 Tb1 3.228413 1_566
Cu0 Tb0 3.228416 1_555
Cu0 Tb1 3.228416 1_666
Cu0 Tb0 3.228416 1_665
Cu0 Tb1 3.228416 1_556
Cu1 Sn0 2.623760 1_545
Cu1 Sn0 2.623760 1_655
Cu1 Sn0 2.623768 1_555
Cu1 Tb0 3.228413 1_655
Cu1 Tb1 3.228413 1_655
Cu1 Tb0 3.228416 1_555
Cu1 Tb1 3.228416 1_555
Cu1 Tb0 3.228416 1_665
Cu1 Tb1 3.228416 1_665
Sn0 Tb0 3.228413 1_565
Sn0 Tb1 3.228413 1_565
Sn0 Tb0 3.228416 1_555
Sn0 Tb1 3.228416 1_555
Sn0 Tb0 3.228416 1_665
Sn0 Tb1 3.228416 1_665
Sn1 Tb0 3.228413 1_655
Sn1 Tb1 3.228413 1_656
Sn1 Tb0 3.228416 1_555
Sn1 Tb1 3.228416 1_666
Sn1 Tb1 3.228416 1_556
Sn1 Tb0 3.228416 1_665
