# generated using pymatgen
data_AsCS2NOF8
_symmetry_space_group_name_H-M   'P 1'
_cell_length_a   9.51795900
_cell_length_b   9.97387375
_cell_length_c   11.41661839
_cell_angle_alpha   93.27197172
_cell_angle_beta   90.00000000
_cell_angle_gamma   90.00000000
_symmetry_Int_Tables_number   1
_chemical_formula_structural   AsCS2NOF8
_chemical_formula_sum   'As4 C4 S8 N4 O4 F32'
_cell_volume   1082.02337047
_cell_formula_units_Z   4
loop_
 _symmetry_equiv_pos_site_id
 _symmetry_equiv_pos_as_xyz
  1  'x, y, z'
loop_
 _atom_site_type_symbol
 _atom_site_label
 _atom_site_symmetry_multiplicity
 _atom_site_fract_x
 _atom_site_fract_y
 _atom_site_fract_z
 _atom_site_occupancy
  As  As0  1  0.27720300  0.80581100  0.62705600  1
  As  As1  1  0.24963000  0.34989400  0.09736400  1
  As  As2  1  0.77720300  0.19418900  0.37294400  1
  As  As3  1  0.74963000  0.65010600  0.90263600  1
  C  C0  1  0.21149400  0.89407300  0.19595000  1
  C  C1  1  0.24954700  0.27890800  0.68512100  1
  C  C2  1  0.71149400  0.10592700  0.80405000  1
  C  C3  1  0.74954700  0.72109200  0.31487900  1
  S  S0  1  0.29595000  0.91761300  0.04723000  1
  S  S1  1  0.23170400  0.68711500  0.87673000  1
  S  S2  1  0.24857300  0.23252300  0.52498700  1
  S  S3  1  0.24253600  0.43586300  0.36042900  1
  S  S4  1  0.74253600  0.56413700  0.63957100  1
  S  S5  1  0.73170400  0.31288500  0.12327000  1
  S  S6  1  0.74857300  0.76747700  0.47501300  1
  S  S7  1  0.79595000  0.08238700  0.95277000  1
  N  N0  1  0.24372500  0.78100400  0.99118000  1
  N  N1  1  0.24394200  0.38676600  0.48515100  1
  N  N2  1  0.74372500  0.21899600  0.00882000  1
  N  N3  1  0.74394200  0.61323400  0.51484900  1
  O  O0  1  0.18377200  0.78051300  0.76416400  1
  O  O1  1  0.25014400  0.31491900  0.27052900  1
  O  O2  1  0.68377200  0.21948700  0.23583600  1
  O  O3  1  0.75014400  0.68508100  0.72947100  1
  F  F0  1  0.11903600  0.47143400  0.13155700  1
  F  F1  1  0.15012600  0.92865300  0.59381200  1
  F  F2  1  0.12043200  0.22405800  0.08493500  1
  F  F3  1  0.13525200  0.35242900  0.71573300  1
  F  F4  1  0.07138700  0.89372200  0.17831000  1
  F  F5  1  0.25002500  0.77821000  0.24094000  1
  F  F6  1  0.24518800  0.99755500  0.27120300  1
  F  F7  1  0.22419500  0.71171900  0.50058900  1
  F  F8  1  0.24959200  0.37867900  0.94867200  1
  F  F9  1  0.24859000  0.16351900  0.74060700  1
  F  F10  1  0.45729800  0.93388400  0.11713000  1
  F  F11  1  0.36554700  0.35004000  0.71511700  1
  F  F12  1  0.40769000  0.68041700  0.64941800  1
  F  F13  1  0.38040500  0.22614500  0.08438500  1
  F  F14  1  0.41115400  0.91969800  0.59818700  1
  F  F15  1  0.37876300  0.47290300  0.13222000  1
  F  F16  1  0.61903600  0.52856600  0.86844300  1
  F  F17  1  0.65012600  0.07134700  0.40618800  1
  F  F18  1  0.62043200  0.77594200  0.91506500  1
  F  F19  1  0.63525200  0.64757100  0.28426700  1
  F  F20  1  0.57138700  0.10627800  0.82169000  1
  F  F21  1  0.74518800  0.00244500  0.72879700  1
  F  F22  1  0.75002500  0.22179000  0.75906000  1
  F  F23  1  0.72419500  0.28828100  0.49941100  1
  F  F24  1  0.74959200  0.62132100  0.05132800  1
  F  F25  1  0.74859000  0.83648100  0.25939300  1
  F  F26  1  0.95729800  0.06611600  0.88287000  1
  F  F27  1  0.86554700  0.64996000  0.28488300  1
  F  F28  1  0.90769000  0.31958300  0.35058200  1
  F  F29  1  0.88040500  0.77385500  0.91561500  1
  F  F30  1  0.91115400  0.08030200  0.40181300  1
  F  F31  1  0.87876300  0.52709700  0.86778000  1
loop_
_geom_bond_atom_site_label_1
_geom_bond_atom_site_label_2
_geom_bond_distance
_geom_bond_site_symmetry_2
As0 F7 1.750777 1_555
As0 F14 1.751311 1_555
As0 F1 1.777974 1_555
As0 F12 1.791166 1_555
As0 O0 1.830232 1_555
As1 F8 1.737748 1_554
As1 F13 1.753219 1_555
As1 F2 1.757037 1_555
As1 F0 1.764335 1_555
As1 F15 1.765925 1_555
As1 O1 2.027017 1_555
As2 F23 1.750777 1_555
As2 F30 1.751311 1_555
As2 F17 1.777974 1_555
As2 F28 1.791166 1_555
As2 O2 1.830232 1_555
As3 F24 1.737748 1_556
As3 F29 1.753219 1_555
As3 F18 1.757037 1_555
As3 F16 1.764335 1_555
As3 F31 1.765925 1_555
As3 O3 2.027017 1_555
C0 F5 1.342195 1_555
C0 F6 1.343504 1_555
C0 F4 1.348628 1_555
C0 S0 1.905150 1_555
C1 F9 1.345025 1_555
C1 F11 1.346059 1_555
C1 F3 1.346859 1_555
C1 S2 1.860066 1_555
C2 F22 1.342195 1_555
C2 F21 1.343504 1_555
C2 F20 1.348628 1_555
C2 S7 1.905150 1_555
C3 F25 1.345025 1_555
C3 F27 1.346059 1_555
C3 F19 1.346859 1_555
C3 S6 1.860066 1_555
N0 S0 1.553543 1_556
N0 S1 1.567680 1_555
N1 S3 1.532014 1_555
N1 S2 1.629515 1_555
N2 S7 1.553543 1_554
N2 S5 1.567680 1_555
N3 S4 1.532014 1_555
N3 S6 1.629515 1_555
O0 S1 1.692364 1_555
O1 S3 1.540270 1_555
O2 S5 1.692364 1_555
O3 S4 1.540270 1_555
F10 S0 1.734006 1_555
F26 S7 1.734006 1_555
