# generated using pymatgen
data_Sr2CuCO5
_symmetry_space_group_name_H-M   'P 1'
_cell_length_a   9.46755054
_cell_length_b   9.46755054
_cell_length_c   9.46755054
_cell_angle_alpha   130.83044818
_cell_angle_beta   130.83044818
_cell_angle_gamma   72.08260007
_symmetry_Int_Tables_number   1
_chemical_formula_structural   Sr2CuCO5
_chemical_formula_sum   'Sr8 Cu4 C4 O20'
_cell_volume   475.08507611
_cell_formula_units_Z   4
loop_
 _symmetry_equiv_pos_site_id
 _symmetry_equiv_pos_as_xyz
  1  'x, y, z'
loop_
 _atom_site_type_symbol
 _atom_site_label
 _atom_site_symmetry_multiplicity
 _atom_site_fract_x
 _atom_site_fract_y
 _atom_site_fract_z
 _atom_site_occupancy
  Sr  Sr0  1  0.88641600  0.88641600  0.00000000  1
  Sr  Sr1  1  0.11358400  0.11358400  0.00000000  1
  Sr  Sr2  1  0.61367900  0.61367900  0.00000000  1
  Sr  Sr3  1  0.38632100  0.38632100  0.00000000  1
  Sr  Sr4  1  0.39652600  0.89652600  0.50000000  1
  Sr  Sr5  1  0.10347400  0.60347400  0.50000000  1
  Sr  Sr6  1  0.61983000  0.11983000  0.50000000  1
  Sr  Sr7  1  0.88017000  0.38017000  0.50000000  1
  Cu  Cu0  1  0.75010200  0.74992100  0.49996700  1
  Cu  Cu1  1  0.24995400  0.25013400  0.50003300  1
  Cu  Cu2  1  0.74986600  0.24989800  0.99981900  1
  Cu  Cu3  1  0.25007900  0.75004600  0.00018100  1
  C  C0  1  0.50859500  0.51513700  0.52145900  1
  C  C1  1  0.99367800  0.98713600  0.47854100  1
  C  C2  1  0.01286400  0.49140500  0.00654200  1
  C  C3  1  0.48486300  0.00632200  0.99345800  1
  O  O0  1  0.99161400  0.74047400  0.74924000  1
  O  O1  1  0.99123400  0.24237300  0.25076000  1
  O  O2  1  0.75762700  0.00838600  0.74886000  1
  O  O3  1  0.25952600  0.00876600  0.25114000  1
  O  O4  1  0.50928600  0.25899900  0.74926600  1
  O  O5  1  0.50973300  0.76002000  0.25073400  1
  O  O6  1  0.23998000  0.49071400  0.74971300  1
  O  O7  1  0.74100100  0.49026700  0.25028700  1
  O  O8  1  0.07940000  0.65613000  0.10077100  1
  O  O9  1  0.55536000  0.97862900  0.89922900  1
  O  O10  1  0.02137100  0.92060000  0.57673100  1
  O  O11  1  0.34387000  0.44464000  0.42326900  1
  O  O12  1  0.02083700  0.33566500  0.84078700  1
  O  O13  1  0.49487800  0.18005000  0.15921300  1
  O  O14  1  0.81995000  0.97916300  0.31482800  1
  O  O15  1  0.66433500  0.50512200  0.68517200  1
  O  O16  1  0.52099100  0.59582700  0.45864300  1
  O  O17  1  0.13718400  0.06234800  0.54135700  1
  O  O18  1  0.93765200  0.47900900  0.07483600  1
  O  O19  1  0.40417300  0.86281600  0.92516400  1
loop_
_geom_bond_atom_site_label_1
_geom_bond_atom_site_label_2
_geom_bond_distance
_geom_bond_site_symmetry_2
Cu0 O2 1.973140 1_565
Cu0 O5 1.973611 1_555
Cu0 O0 1.974760 1_555
Cu0 O7 1.975760 1_555
Cu1 O3 1.973140 1_555
Cu1 O4 1.973607 1_555
Cu1 O1 1.974760 1_455
Cu1 O6 1.975764 1_555
Cu2 O1 1.973145 1_556
Cu2 O7 1.973615 1_556
Cu2 O2 1.974760 1_555
Cu2 O4 1.975764 1_555
Cu3 O0 1.973144 1_454
Cu3 O6 1.973611 1_554
Cu3 O3 1.974760 1_565
Cu3 O5 1.975760 1_555
C0 O11 1.294273 1_555
C0 O16 1.300609 1_555
C0 O15 1.305043 1_555
C1 O10 1.294282 1_655
C1 O17 1.300609 1_665
C1 O14 1.305043 1_555
C2 O8 1.294273 1_555
C2 O18 1.300609 1_455
C2 O12 1.305043 1_554
C3 O9 1.294282 1_545
C3 O19 1.300609 1_545
C3 O13 1.305043 1_556
O0 Sr0 2.548155 1_556
O0 Sr7 2.598227 1_555
O0 Sr5 2.606234 1_655
O0 Sr1 2.721486 1_666
O1 Sr0 2.548147 1_545
O1 Sr7 2.598225 1_555
O1 Sr5 2.606242 1_655
O1 Sr1 2.721488 1_655
O2 Sr1 2.548147 1_656
O2 Sr6 2.598225 1_555
O2 Sr4 2.606242 1_545
O2 Sr0 2.721488 1_546
O3 Sr1 2.548155 1_555
O3 Sr6 2.598227 1_555
O3 Sr4 2.606234 1_545
O3 Sr0 2.721486 1_445
O4 Sr2 2.537381 1_556
O4 Sr6 2.591505 1_555
O4 Sr4 2.618262 1_545
O4 Sr3 2.729828 1_556
O5 Sr2 2.537381 1_555
O5 Sr6 2.591505 1_565
O5 Sr4 2.618262 1_555
O5 Sr3 2.729828 1_555
O6 Sr3 2.537381 1_556
O6 Sr7 2.591505 1_455
O6 Sr5 2.618262 1_555
O6 Sr2 2.729828 1_556
O7 Sr3 2.537381 1_555
O7 Sr7 2.591505 1_555
O7 Sr5 2.618262 1_655
O7 Sr2 2.729828 1_555
O8 Sr4 2.568408 1_555
O8 Sr0 2.644146 1_455
O9 Sr4 2.568406 1_555
O9 Sr0 2.644138 1_556
O10 Sr5 2.568406 1_555
O10 Sr1 2.644138 1_566
O11 Sr5 2.568414 1_555
O11 Sr1 2.644140 1_555
O12 Sr3 2.780414 1_556
O12 Sr7 2.859125 1_455
O12 Sr1 2.956605 1_556
O12 Sr6 3.022195 1_455
O13 Sr3 2.780414 1_555
O13 Sr7 2.859125 1_555
O13 Sr1 2.956605 1_555
O13 Sr6 3.022195 1_555
O14 Sr2 2.780414 1_555
O14 Sr6 2.859125 1_565
O14 Sr0 2.956605 1_555
O14 Sr7 3.022195 1_565
O15 Sr2 2.780414 1_556
O15 Sr6 2.859125 1_555
O15 Sr0 2.956605 1_556
O15 Sr7 3.022195 1_555
O16 Sr4 2.593882 1_555
O16 Sr3 2.732912 1_555
O16 Sr0 3.168269 1_556
O17 Sr4 2.593882 1_545
O17 Sr3 2.732912 1_556
O17 Sr0 3.168269 1_445
O18 Sr5 2.593882 1_655
O18 Sr2 2.732912 1_555
O18 Sr1 3.168269 1_655
O19 Sr5 2.593882 1_555
O19 Sr2 2.732912 1_556
O19 Sr1 3.168269 1_566
