# generated using pymatgen
data_Mn3Fe3(PO4)4
_symmetry_space_group_name_H-M   'P 1'
_cell_length_a   11.47908400
_cell_length_b   6.34027700
_cell_length_c   8.95015395
_cell_angle_alpha   80.73688967
_cell_angle_beta   90.00000000
_cell_angle_gamma   90.00000000
_symmetry_Int_Tables_number   1
_chemical_formula_structural   Mn3Fe3(PO4)4
_chemical_formula_sum   'Mn6 Fe6 P8 O32'
_cell_volume   642.90281828
_cell_formula_units_Z   2
loop_
 _symmetry_equiv_pos_site_id
 _symmetry_equiv_pos_as_xyz
  1  'x, y, z'
loop_
 _atom_site_type_symbol
 _atom_site_label
 _atom_site_symmetry_multiplicity
 _atom_site_fract_x
 _atom_site_fract_y
 _atom_site_fract_z
 _atom_site_occupancy
  Mn  Mn0  1  0.61479900  0.59712100  0.06132800  1
  Mn  Mn1  1  0.11479900  0.40287900  0.93867200  1
  Mn  Mn2  1  0.42761700  0.41656800  0.72680200  1
  Mn  Mn3  1  0.92761700  0.58343200  0.27319800  1
  Mn  Mn4  1  0.57012000  0.07965000  0.27980300  1
  Mn  Mn5  1  0.07012000  0.92035000  0.72019700  1
  Fe  Fe0  1  0.30407300  0.63715700  0.36567400  1
  Fe  Fe1  1  0.80407300  0.36284300  0.63432600  1
  Fe  Fe2  1  0.69618300  0.86181400  0.63290800  1
  Fe  Fe3  1  0.19618300  0.13818600  0.36709200  1
  Fe  Fe4  1  0.38589100  0.88712500  0.92890000  1
  Fe  Fe5  1  0.88589100  0.11287500  0.07110000  1
  P  P0  1  0.36066600  0.37074100  0.09218200  1
  P  P1  1  0.86066600  0.62925900  0.90781800  1
  P  P2  1  0.63976200  0.13042800  0.90825500  1
  P  P3  1  0.13976200  0.86957200  0.09174500  1
  P  P4  1  0.41454900  0.94279600  0.60731700  1
  P  P5  1  0.91454900  0.05720400  0.39268300  1
  P  P6  1  0.58537600  0.55668700  0.39291600  1
  P  P7  1  0.08537600  0.44331300  0.60708400  1
  O  O0  1  0.29439900  0.36636200  0.94166600  1
  O  O1  1  0.79439900  0.63363800  0.05833400  1
  O  O2  1  0.71087200  0.13217700  0.05580200  1
  O  O3  1  0.21087200  0.86782300  0.94419800  1
  O  O4  1  0.32474900  0.92843200  0.48033400  1
  O  O5  1  0.82474900  0.07156800  0.51966600  1
  O  O6  1  0.67460800  0.57016800  0.52110600  1
  O  O7  1  0.17460800  0.42983200  0.47889400  1
  O  O8  1  0.41410600  0.73589100  0.72720200  1
  O  O9  1  0.91410600  0.26410900  0.27279800  1
  O  O10  1  0.58714900  0.76325100  0.27388000  1
  O  O11  1  0.08714900  0.23674900  0.72612000  1
  O  O12  1  0.53870400  0.98376000  0.53679400  1
  O  O13  1  0.03870400  0.01624000  0.46320600  1
  O  O14  1  0.46084700  0.51554900  0.46306700  1
  O  O15  1  0.96084700  0.48445100  0.53693300  1
  O  O16  1  0.43240800  0.58217300  0.07436200  1
  O  O17  1  0.93240800  0.41782700  0.92563800  1
  O  O18  1  0.56404900  0.92319900  0.92971600  1
  O  O19  1  0.06404900  0.07680100  0.07028400  1
  O  O20  1  0.37833400  0.11648300  0.70196400  1
  O  O21  1  0.87833400  0.88351700  0.29803600  1
  O  O22  1  0.62247300  0.38154000  0.29958500  1
  O  O23  1  0.12247300  0.61846000  0.70041500  1
  O  O24  1  0.43373600  0.16617700  0.13008800  1
  O  O25  1  0.93373600  0.83382300  0.86991200  1
  O  O26  1  0.56888700  0.33951500  0.87616300  1
  O  O27  1  0.06888700  0.66048500  0.12383700  1
  O  O28  1  0.27377400  0.38392100  0.22526400  1
  O  O29  1  0.77377400  0.61607900  0.77473600  1
  O  O30  1  0.72186800  0.11541600  0.77139900  1
  O  O31  1  0.22186800  0.88458400  0.22860100  1
loop_
_geom_bond_atom_site_label_1
_geom_bond_atom_site_label_2
_geom_bond_distance
_geom_bond_site_symmetry_2
Mn0 O1 2.074295 1_555
Mn0 O16 2.098222 1_555
Mn0 O18 2.284112 1_554
Mn0 O10 2.339726 1_555
Mn0 O22 2.341998 1_555
Mn0 O26 2.561897 1_554
Mn1 O0 2.074295 1_555
Mn1 O17 2.098222 1_455
Mn1 O19 2.284112 1_556
Mn1 O11 2.339726 1_555
Mn1 O23 2.341998 1_555
Mn1 O27 2.561897 1_556
Mn2 O8 2.031106 1_555
Mn2 O20 2.031157 1_555
Mn2 O26 2.108367 1_555
Mn2 O14 2.373659 1_555
Mn2 O0 2.437407 1_555
Mn3 O9 2.031106 1_555
Mn3 O21 2.031157 1_555
Mn3 O27 2.108367 1_655
Mn3 O15 2.373659 1_555
Mn3 O1 2.437407 1_555
Mn4 O10 2.024728 1_545
Mn4 O22 2.040896 1_555
Mn4 O24 2.076252 1_555
Mn4 O12 2.310841 1_545
Mn4 O2 2.554576 1_555
Mn5 O11 2.024728 1_565
Mn5 O23 2.040896 1_555
Mn5 O25 2.076252 1_455
Mn5 O13 2.310841 1_565
Mn5 O3 2.554576 1_555
Fe0 O31 2.058385 1_555
Fe0 O14 2.092028 1_555
Fe0 O7 2.129445 1_555
Fe0 O28 2.219849 1_555
Fe0 O4 2.264981 1_555
Fe1 O30 2.058385 1_555
Fe1 O15 2.092028 1_555
Fe1 O6 2.129445 1_555
Fe1 O29 2.219849 1_555
Fe1 O5 2.264981 1_555
Fe2 O29 2.048262 1_555
Fe2 O12 2.095592 1_555
Fe2 O5 2.130724 1_565
Fe2 O30 2.202345 1_565
Fe2 O6 2.253340 1_555
Fe3 O28 2.048262 1_555
Fe3 O13 2.095592 1_555
Fe3 O4 2.130724 1_545
Fe3 O31 2.202345 1_545
Fe3 O7 2.253340 1_555
Fe4 O3 2.016096 1_555
Fe4 O18 2.057984 1_555
Fe4 O8 2.200099 1_555
Fe4 O16 2.215412 1_556
Fe4 O20 2.301464 1_565
Fe5 O2 2.016096 1_555
Fe5 O19 2.057984 1_655
Fe5 O9 2.200099 1_555
Fe5 O17 2.215412 1_554
Fe5 O21 2.301464 1_545
O0 P0 1.551207 1_556
O1 P1 1.551207 1_554
O2 P2 1.554042 1_554
O3 P3 1.554042 1_556
O4 P4 1.547863 1_555
O5 P5 1.547863 1_555
O6 P6 1.550617 1_555
O7 P7 1.550617 1_555
O8 P4 1.555342 1_555
O9 P5 1.555342 1_555
O10 P6 1.549681 1_555
O11 P7 1.549681 1_555
O12 P4 1.563405 1_555
O13 P5 1.563405 1_455
O14 P6 1.566183 1_555
O15 P7 1.566183 1_655
O16 P0 1.559440 1_555
O17 P1 1.559440 1_555
O18 P2 1.561190 1_565
O19 P3 1.561190 1_545
O20 P4 1.550297 1_545
O21 P5 1.550297 1_565
O22 P6 1.552711 1_555
O23 P7 1.552711 1_555
O24 P0 1.535961 1_555
O25 P1 1.535961 1_555
O26 P2 1.542475 1_555
O27 P3 1.542475 1_555
O28 P0 1.566092 1_555
O29 P1 1.566092 1_555
O30 P2 1.560525 1_555
O31 P3 1.560525 1_555
