# generated using pymatgen
data_Li9Mn2Co5O16
_symmetry_space_group_name_H-M   'P 1'
_cell_length_a   5.09342279
_cell_length_b   11.67950900
_cell_length_c   5.04628427
_cell_angle_alpha   90.00000000
_cell_angle_beta   70.86987933
_cell_angle_gamma   90.00000000
_symmetry_Int_Tables_number   1
_chemical_formula_structural   Li9Mn2Co5O16
_chemical_formula_sum   'Li9 Mn2 Co5 O16'
_cell_volume   283.61893847
_cell_formula_units_Z   1
loop_
 _symmetry_equiv_pos_site_id
 _symmetry_equiv_pos_as_xyz
  1  'x, y, z'
loop_
 _atom_site_type_symbol
 _atom_site_label
 _atom_site_symmetry_multiplicity
 _atom_site_fract_x
 _atom_site_fract_y
 _atom_site_fract_z
 _atom_site_occupancy
  Li  Li0  1  0.50000000  0.13090000  0.00000000  1
  Li  Li1  1  0.50000000  0.25301700  0.50000000  1
  Li  Li2  1  0.50000000  0.37833200  0.00000000  1
  Li  Li3  1  0.50000000  0.50453700  0.50000000  1
  Li  Li4  1  0.50000000  0.62499100  0.00000000  1
  Li  Li5  1  0.50000000  0.74339700  0.50000000  1
  Li  Li6  1  0.50000000  0.86638200  0.00000000  1
  Li  Li7  1  0.50000000  0.99902900  0.50000000  1
  Li  Li8  1  0.00000000  0.74783500  0.00000000  1
  Mn  Mn0  1  0.00000000  0.99857800  0.00000000  1
  Mn  Mn1  1  0.00000000  0.87251800  0.50000000  1
  Co  Co0  1  0.00000000  0.12793100  0.50000000  1
  Co  Co1  1  0.00000000  0.24894300  0.00000000  1
  Co  Co2  1  0.00000000  0.37740600  0.50000000  1
  Co  Co3  1  0.00000000  0.50614400  0.00000000  1
  Co  Co4  1  0.00000000  0.62721000  0.50000000  1
  O  O0  1  0.22571200  0.12629200  0.77872400  1
  O  O1  1  0.22660200  0.25260900  0.23733300  1
  O  O2  1  0.22025300  0.36574400  0.77079500  1
  O  O3  1  0.23731900  0.49550800  0.25628100  1
  O  O4  1  0.22913300  0.61835000  0.74803900  1
  O  O5  1  0.23387500  0.75757400  0.27685300  1
  O  O6  1  0.22094900  0.88651700  0.74838900  1
  O  O7  1  0.22430000  0.99383000  0.24569500  1
  O  O8  1  0.77428800  0.12629200  0.22127600  1
  O  O9  1  0.77339800  0.25260900  0.76266700  1
  O  O10  1  0.77974700  0.36574400  0.22920500  1
  O  O11  1  0.76268100  0.49550800  0.74371900  1
  O  O12  1  0.77086700  0.61835000  0.25196100  1
  O  O13  1  0.76612500  0.75757400  0.72314700  1
  O  O14  1  0.77905100  0.88651700  0.25161100  1
  O  O15  1  0.77570000  0.99383000  0.75430500  1
loop_
_geom_bond_atom_site_label_1
_geom_bond_atom_site_label_2
_geom_bond_distance
_geom_bond_site_symmetry_2
Li0 O8 2.055236 1_555
Li0 O0 2.055236 1_554
Li0 O9 2.073903 1_554
Li0 O1 2.073903 1_555
Li0 O15 2.220569 1_544
Li0 O7 2.220569 1_545
Li1 O10 2.086825 1_555
Li1 O2 2.086825 1_555
Li1 O8 2.198369 1_555
Li1 O0 2.198369 1_555
Li1 O9 2.214922 1_555
Li1 O1 2.214922 1_555
Li2 O11 2.049753 1_554
Li2 O3 2.049753 1_555
Li2 O9 2.106313 1_554
Li2 O1 2.106313 1_555
Li2 O10 2.114202 1_555
Li2 O2 2.114202 1_554
Li3 O4 2.026141 1_555
Li3 O12 2.026141 1_555
Li3 O11 2.095787 1_555
Li3 O3 2.095787 1_555
Li3 O10 2.291106 1_555
Li3 O2 2.291106 1_555
Li4 O11 2.148390 1_554
Li4 O3 2.148390 1_555
Li4 O12 2.162356 1_555
Li4 O4 2.162356 1_554
Li4 O5 2.223924 1_555
Li4 O13 2.223924 1_554
Li5 O13 2.033028 1_555
Li5 O5 2.033028 1_555
Li5 O4 2.114542 1_555
Li5 O12 2.114542 1_555
Li5 O14 2.284240 1_555
Li5 O6 2.284240 1_555
Li6 O5 2.040335 1_555
Li6 O13 2.040335 1_554
Li6 O15 2.140966 1_554
Li6 O7 2.140966 1_555
Li6 O14 2.206906 1_555
Li6 O6 2.206906 1_554
Li7 O14 2.037258 1_555
Li7 O6 2.037258 1_555
Li7 O15 2.191713 1_555
Li7 O7 2.191713 1_555
Li7 O0 2.202604 1_565
Li7 O8 2.202604 1_565
Li8 O12 2.072007 1_455
Li8 O4 2.072007 1_554
Li8 O5 2.115318 1_555
Li8 O13 2.115318 1_454
Li8 O6 2.136736 1_554
Li8 O14 2.136736 1_455
Mn0 O6 1.911830 1_554
Mn0 O14 1.911830 1_455
Mn0 O15 1.942651 1_454
Mn0 O7 1.942651 1_555
Mn0 O0 1.987995 1_564
Mn0 O8 1.987995 1_465
Mn1 O13 1.900032 1_455
Mn1 O5 1.900032 1_555
Mn1 O6 1.946509 1_555
Mn1 O14 1.946509 1_455
Mn1 O7 1.999656 1_555
Mn1 O15 1.999656 1_455
Co0 O1 2.051049 1_555
Co0 O9 2.051049 1_455
Co0 O0 2.088105 1_555
Co0 O8 2.088105 1_455
Co0 O15 2.108129 1_445
Co0 O7 2.108129 1_545
Co1 O2 1.899172 1_554
Co1 O10 1.899172 1_455
Co1 O1 1.916855 1_555
Co1 O9 1.916855 1_454
Co1 O0 1.944019 1_554
Co1 O8 1.944019 1_455
Co2 O3 1.975348 1_555
Co2 O11 1.975348 1_455
Co2 O2 2.036959 1_555
Co2 O10 2.036959 1_455
Co2 O1 2.052036 1_555
Co2 O9 2.052036 1_455
Co3 O4 1.929647 1_554
Co3 O12 1.929647 1_455
Co3 O3 2.042961 1_555
Co3 O11 2.042961 1_454
Co3 O2 2.105903 1_554
Co3 O10 2.105903 1_455
Co4 O12 1.974057 1_455
Co4 O4 1.974057 1_555
Co4 O13 2.031285 1_455
Co4 O5 2.031285 1_555
Co4 O3 2.089361 1_555
Co4 O11 2.089361 1_455
