# generated using pymatgen
data_FeAs2H3OF13
_symmetry_space_group_name_H-M   'P 1'
_cell_length_a   7.31159600
_cell_length_b   10.63801800
_cell_length_c   14.30589600
_cell_angle_alpha   90.00000000
_cell_angle_beta   90.00000000
_cell_angle_gamma   90.00000000
_symmetry_Int_Tables_number   1
_chemical_formula_structural   FeAs2H3OF13
_chemical_formula_sum   'Fe4 As8 H12 O4 F52'
_cell_volume   1112.72532108
_cell_formula_units_Z   4
loop_
 _symmetry_equiv_pos_site_id
 _symmetry_equiv_pos_as_xyz
  1  'x, y, z'
loop_
 _atom_site_type_symbol
 _atom_site_label
 _atom_site_symmetry_multiplicity
 _atom_site_fract_x
 _atom_site_fract_y
 _atom_site_fract_z
 _atom_site_occupancy
  Fe  Fe0  1  0.00000000  0.00000000  0.00000000  1
  Fe  Fe1  1  0.50000000  0.50000000  0.50000000  1
  Fe  Fe2  1  0.50000000  0.00000000  0.00000000  1
  Fe  Fe3  1  0.00000000  0.50000000  0.50000000  1
  As  As0  1  0.75000000  0.24581800  0.13631700  1
  As  As1  1  0.75000000  0.25418200  0.63631700  1
  As  As2  1  0.25000000  0.75418200  0.86368300  1
  As  As3  1  0.25000000  0.74581800  0.36368300  1
  As  As4  1  0.75000000  0.72839300  0.10328100  1
  As  As5  1  0.75000000  0.77160700  0.60328100  1
  As  As6  1  0.25000000  0.27160700  0.89671900  1
  As  As7  1  0.25000000  0.22839300  0.39671900  1
  H  H0  1  0.63763100  0.00949700  0.39532800  1
  H  H1  1  0.86236900  0.49050300  0.89532800  1
  H  H2  1  0.13763100  0.99050300  0.60467200  1
  H  H3  1  0.36236900  0.50949700  0.10467200  1
  H  H4  1  0.36236900  0.99050300  0.60467200  1
  H  H5  1  0.13763100  0.50949700  0.10467200  1
  H  H6  1  0.86236900  0.00949700  0.39532800  1
  H  H7  1  0.63763100  0.49050300  0.89532800  1
  H  H8  1  0.75000000  0.07338600  0.30953700  1
  H  H9  1  0.75000000  0.42661400  0.80953700  1
  H  H10  1  0.25000000  0.92661400  0.69046300  1
  H  H11  1  0.25000000  0.57338600  0.19046300  1
  O  O0  1  0.75000000  0.00148700  0.35751100  1
  O  O1  1  0.75000000  0.49851300  0.85751100  1
  O  O2  1  0.25000000  0.99851300  0.64248900  1
  O  O3  1  0.25000000  0.50148700  0.14248900  1
  F  F0  1  0.75000000  0.00661100  0.95167600  1
  F  F1  1  0.75000000  0.49338900  0.45167600  1
  F  F2  1  0.25000000  0.99338900  0.04832400  1
  F  F3  1  0.25000000  0.50661100  0.54832400  1
  F  F4  1  0.92008500  0.12618000  0.11347800  1
  F  F5  1  0.57991500  0.37382000  0.61347800  1
  F  F6  1  0.42008500  0.87382000  0.88652200  1
  F  F7  1  0.07991500  0.62618000  0.38652200  1
  F  F8  1  0.07991500  0.87382000  0.88652200  1
  F  F9  1  0.42008500  0.62618000  0.38652200  1
  F  F10  1  0.57991500  0.12618000  0.11347800  1
  F  F11  1  0.92008500  0.37382000  0.61347800  1
  F  F12  1  0.75000000  0.28876900  0.01774500  1
  F  F13  1  0.75000000  0.21123100  0.51774500  1
  F  F14  1  0.25000000  0.71123100  0.98225500  1
  F  F15  1  0.25000000  0.78876900  0.48225500  1
  F  F16  1  0.92315900  0.35133300  0.16426200  1
  F  F17  1  0.57684100  0.14866700  0.66426200  1
  F  F18  1  0.42315900  0.64866700  0.83573800  1
  F  F19  1  0.07684100  0.85133300  0.33573800  1
  F  F20  1  0.07684100  0.64866700  0.83573800  1
  F  F21  1  0.42315900  0.85133300  0.33573800  1
  F  F22  1  0.57684100  0.35133300  0.16426200  1
  F  F23  1  0.92315900  0.14866700  0.66426200  1
  F  F24  1  0.75000000  0.19176900  0.25620700  1
  F  F25  1  0.75000000  0.30823100  0.75620700  1
  F  F26  1  0.25000000  0.80823100  0.74379300  1
  F  F27  1  0.25000000  0.69176900  0.24379300  1
  F  F28  1  0.92293700  0.85014900  0.09979400  1
  F  F29  1  0.57706300  0.64985100  0.59979400  1
  F  F30  1  0.42293700  0.14985100  0.90020600  1
  F  F31  1  0.07706300  0.35014900  0.40020600  1
  F  F32  1  0.07706300  0.14985100  0.90020600  1
  F  F33  1  0.42293700  0.35014900  0.40020600  1
  F  F34  1  0.57706300  0.85014900  0.09979400  1
  F  F35  1  0.92293700  0.64985100  0.59979400  1
  F  F36  1  0.75000000  0.72605000  0.98022700  1
  F  F37  1  0.75000000  0.77395000  0.48022700  1
  F  F38  1  0.25000000  0.27395000  0.01977300  1
  F  F39  1  0.25000000  0.22605000  0.51977300  1
  F  F40  1  0.92256000  0.61057100  0.10341400  1
  F  F41  1  0.57744000  0.88942900  0.60341400  1
  F  F42  1  0.42256000  0.38942900  0.89658600  1
  F  F43  1  0.07744000  0.11057100  0.39658600  1
  F  F44  1  0.07744000  0.38942900  0.89658600  1
  F  F45  1  0.42256000  0.11057100  0.39658600  1
  F  F46  1  0.57744000  0.61057100  0.10341400  1
  F  F47  1  0.92256000  0.88942900  0.60341400  1
  F  F48  1  0.75000000  0.73585900  0.22412600  1
  F  F49  1  0.75000000  0.76414100  0.72412600  1
  F  F50  1  0.25000000  0.26414100  0.77587400  1
  F  F51  1  0.25000000  0.23585900  0.27587400  1
loop_
_geom_bond_atom_site_label_1
_geom_bond_atom_site_label_2
_geom_bond_distance
_geom_bond_site_symmetry_2
As0 F16 1.738589 1_555
As0 F22 1.738589 1_555
As0 F12 1.756739 1_555
As0 F24 1.808944 1_555
As0 F4 1.809163 1_555
As0 F10 1.809163 1_555
As1 F23 1.738589 1_555
As1 F17 1.738589 1_555
As1 F13 1.756739 1_555
As1 F25 1.808944 1_555
As1 F11 1.809163 1_555
As1 F5 1.809163 1_555
As2 F18 1.738589 1_555
As2 F20 1.738589 1_555
As2 F14 1.756739 1_555
As2 F26 1.808944 1_555
As2 F6 1.809163 1_555
As2 F8 1.809163 1_555
As3 F21 1.738589 1_555
As3 F19 1.738589 1_555
As3 F15 1.756739 1_555
As3 F27 1.808944 1_555
As3 F9 1.809163 1_555
As3 F7 1.809163 1_555
As4 F48 1.730619 1_555
As4 F36 1.760574 1_554
As4 F46 1.778442 1_555
As4 F40 1.778442 1_555
As4 F34 1.810791 1_555
As4 F28 1.810791 1_555
As5 F49 1.730619 1_555
As5 F37 1.760574 1_555
As5 F41 1.778442 1_555
As5 F47 1.778442 1_555
As5 F29 1.810791 1_555
As5 F35 1.810791 1_555
As6 F50 1.730619 1_555
As6 F38 1.760574 1_556
As6 F44 1.778442 1_555
As6 F42 1.778442 1_555
As6 F30 1.810791 1_555
As6 F32 1.810791 1_555
As7 F51 1.730619 1_555
As7 F39 1.760574 1_555
As7 F43 1.778442 1_555
As7 F45 1.778442 1_555
As7 F33 1.810791 1_555
As7 F31 1.810791 1_555
H0 O0 0.987405 1_555
H1 O1 0.987405 1_555
H2 O2 0.987405 1_555
H3 O3 0.987405 1_555
H4 O2 0.987405 1_555
H5 O3 0.987405 1_555
H6 O0 0.987405 1_555
H7 O1 0.987405 1_555
H8 O0 1.027637 1_555
H9 O1 1.027637 1_555
H10 O2 1.027637 1_555
H11 O3 1.027637 1_555
F0 Fe0 1.955526 1_656
F0 Fe2 1.955526 1_556
F1 Fe1 1.955526 1_555
F1 Fe3 1.955526 1_655
F2 Fe0 1.955526 1_565
F2 Fe2 1.955526 1_565
F3 Fe1 1.955526 1_555
F3 Fe3 1.955526 1_555
F4 Fe0 2.186010 1_655
F5 Fe1 2.186010 1_555
F6 Fe2 2.186010 1_566
F7 Fe3 2.186010 1_555
F8 Fe0 2.186010 1_566
F9 Fe1 2.186010 1_555
F10 Fe2 2.186010 1_555
F11 Fe3 2.186010 1_655
F24 H8 1.472432 1_555
F25 H9 1.472432 1_555
F26 H10 1.472432 1_555
F27 H11 1.472432 1_555
F28 Fe0 2.212884 1_665
F29 Fe1 2.212884 1_555
F30 Fe2 2.212884 1_556
F31 Fe3 2.212884 1_555
F32 Fe0 2.212884 1_556
F33 Fe1 2.212884 1_555
F34 Fe2 2.212884 1_565
F35 Fe3 2.212884 1_655
