# generated using pymatgen
data_La4SnSb2
_symmetry_space_group_name_H-M   'P 1'
_cell_length_a   8.45344106
_cell_length_b   8.45343923
_cell_length_c   8.45344044
_cell_angle_alpha   109.50965292
_cell_angle_beta   109.50966158
_cell_angle_gamma   109.39441256
_symmetry_Int_Tables_number   1
_chemical_formula_structural   La4SnSb2
_chemical_formula_sum   'La8 Sn2 Sb4'
_cell_volume   465.02658530
_cell_formula_units_Z   2
loop_
 _symmetry_equiv_pos_site_id
 _symmetry_equiv_pos_as_xyz
  1  'x, y, z'
loop_
 _atom_site_type_symbol
 _atom_site_label
 _atom_site_symmetry_multiplicity
 _atom_site_fract_x
 _atom_site_fract_y
 _atom_site_fract_z
 _atom_site_occupancy
  La  La0  1  0.98523462  0.37450826  0.25172728  1
  La  La1  1  0.12277998  0.73350634  0.74827172  1
  La  La2  1  0.62722002  0.87549174  0.11072636  1
  La  La3  1  0.76476538  0.51649366  0.88927364  1
  La  La4  1  0.12450826  0.23523362  0.75172828  1
  La  La5  1  0.48350634  0.37277998  0.24827272  1
  La  La6  1  0.62549174  0.87722002  0.61072636  1
  La  La7  1  0.26649466  0.01476638  0.38927364  1
  Sn  Sn0  1  0.75000000  0.25000000  0.50000000  1
  Sn  Sn1  1  0.00000000  -0.00000000  0.00000000  1
  Sb  Sb0  1  0.37500000  0.50052413  0.62552413  1
  Sb  Sb1  1  0.87500000  0.74947587  0.37447587  1
  Sb  Sb2  1  0.49947587  0.12500000  0.87447587  1
  Sb  Sb3  1  0.25052413  0.62500000  0.12552413  1
loop_
_geom_bond_atom_site_label_1
_geom_bond_atom_site_label_2
_geom_bond_distance
_geom_bond_site_symmetry_2
La0 Sb0 3.231442 1_655
La0 Sn1 3.241403 1_655
La0 Sb3 3.256449 1_655
La0 Sn0 3.512820 1_555
La0 Sb1 3.521814 1_555
La0 Sb2 3.533996 1_554
La1 Sb1 3.231439 1_455
La1 Sn1 3.241406 1_566
La1 Sb2 3.256455 1_565
La1 Sn0 3.512811 1_455
La1 Sb0 3.521814 1_555
La1 Sb3 3.534000 1_556
La2 Sb1 3.231439 1_555
La2 Sn0 3.241405 1_565
La2 Sb3 3.256456 1_555
La2 Sn1 3.512813 1_665
La2 Sb0 3.521812 1_554
La2 Sb2 3.534000 1_564
La3 Sb0 3.231439 1_555
La3 Sn0 3.241406 1_555
La3 Sb2 3.256455 1_555
La3 Sn1 3.512811 1_666
La3 Sb1 3.521813 1_556
La3 Sb3 3.534000 1_656
La4 Sb3 3.231443 1_556
La4 Sn0 3.241411 1_455
La4 Sb0 3.256461 1_555
La4 Sn1 3.512807 1_556
La4 Sb2 3.521808 1_555
La4 Sb1 3.533993 1_445
La5 Sb2 3.231445 1_554
La5 Sn0 3.241402 1_555
La5 Sb1 3.256457 1_555
La5 Sn1 3.512810 1_555
La5 Sb3 3.521816 1_555
La5 Sb0 3.533993 1_555
La6 Sb2 3.231439 1_565
La6 Sn1 3.241405 1_666
La6 Sb0 3.256455 1_555
La6 Sn0 3.512812 1_565
La6 Sb3 3.521812 1_555
La6 Sb1 3.534001 1_555
La7 Sb3 3.231440 1_545
La7 Sn1 3.241404 1_555
La7 Sb1 3.256465 1_445
La7 Sn0 3.512804 1_555
La7 Sb2 3.521815 1_555
La7 Sb0 3.533994 1_555
