# generated using pymatgen
data_Mg2FeMo3S8
_symmetry_space_group_name_H-M   'P 1'
_cell_length_a   7.29296135
_cell_length_b   7.31230349
_cell_length_c   7.31102550
_cell_angle_alpha   60.44641500
_cell_angle_beta   60.31408174
_cell_angle_gamma   60.33569076
_symmetry_Int_Tables_number   1
_chemical_formula_structural   Mg2FeMo3S8
_chemical_formula_sum   'Mg2 Fe1 Mo3 S8'
_cell_volume   277.96803095
_cell_formula_units_Z   1
loop_
 _symmetry_equiv_pos_site_id
 _symmetry_equiv_pos_as_xyz
  1  'x, y, z'
loop_
 _atom_site_type_symbol
 _atom_site_label
 _atom_site_symmetry_multiplicity
 _atom_site_fract_x
 _atom_site_fract_y
 _atom_site_fract_z
 _atom_site_occupancy
  Mg  Mg0  1  0.87555300  0.87601300  0.87604800  1
  Mg  Mg1  1  0.12445200  0.12399000  0.12395800  1
  Fe  Fe0  1  0.49999100  0.50000700  0.49999000  1
  Mo  Mo0  1  0.50000500  0.49999900  0.99999500  1
  Mo  Mo1  1  0.00000200  0.49998700  0.50001300  1
  Mo  Mo2  1  0.49999300  0.99999800  0.50001000  1
  S  S0  1  0.74055700  0.73977900  0.73957600  1
  S  S1  1  0.26362300  0.26474700  0.71552400  1
  S  S2  1  0.26359500  0.71558300  0.26474200  1
  S  S3  1  0.71524600  0.26456200  0.26451800  1
  S  S4  1  0.73639700  0.28442200  0.73524300  1
  S  S5  1  0.28475500  0.73543100  0.73547800  1
  S  S6  1  0.25944600  0.26022300  0.26042700  1
  S  S7  1  0.73638800  0.73525400  0.28447900  1
loop_
_geom_bond_atom_site_label_1
_geom_bond_atom_site_label_2
_geom_bond_distance
_geom_bond_site_symmetry_2
Mg0 S0 2.425166 1_555
Mg0 S5 2.446771 1_655
Mg0 S7 2.450775 1_556
Mg0 S4 2.451613 1_565
Mg1 S6 2.425130 1_555
Mg1 S3 2.446791 1_455
Mg1 S1 2.450793 1_554
Mg1 S2 2.451596 1_545
Fe0 S5 2.442087 1_555
Fe0 S3 2.442106 1_555
Fe0 S1 2.446368 1_555
Fe0 S7 2.446463 1_555
Fe0 S2 2.446964 1_555
Fe0 S4 2.447041 1_555
Mo0 S3 2.493108 1_556
Mo0 S5 2.493120 1_555
Mo0 S4 2.493663 1_555
Mo0 S2 2.493669 1_556
Mo0 S0 2.494010 1_555
Mo0 S6 2.494031 1_556
Mo1 S6 2.487004 1_555
Mo1 S0 2.487030 1_455
Mo1 S4 2.487714 1_455
Mo1 S2 2.487801 1_555
Mo1 S1 2.488182 1_555
Mo1 S7 2.488257 1_455
Mo2 S5 2.492832 1_555
Mo2 S3 2.492889 1_565
Mo2 S1 2.493486 1_565
Mo2 S7 2.493541 1_555
Mo2 S0 2.493572 1_555
Mo2 S6 2.493576 1_565
