# generated using pymatgen
data_Ni5H2Se6(ClO4)4
_symmetry_space_group_name_H-M   'P 1'
_cell_length_a   8.38591185
_cell_length_b   11.64708767
_cell_length_c   12.63118901
_cell_angle_alpha   116.16946038
_cell_angle_beta   90.00000000
_cell_angle_gamma   111.10021906
_symmetry_Int_Tables_number   1
_chemical_formula_structural   Ni5H2Se6(ClO4)4
_chemical_formula_sum   'Ni10 H4 Se12 Cl8 O32'
_cell_volume   1014.26469604
_cell_formula_units_Z   2
loop_
 _symmetry_equiv_pos_site_id
 _symmetry_equiv_pos_as_xyz
  1  'x, y, z'
loop_
 _atom_site_type_symbol
 _atom_site_label
 _atom_site_symmetry_multiplicity
 _atom_site_fract_x
 _atom_site_fract_y
 _atom_site_fract_z
 _atom_site_occupancy
  Ni  Ni0  1  0.08875413  0.32824389  0.18921243  1
  Ni  Ni1  1  0.76051024  0.67175611  0.31078757  1
  Ni  Ni2  1  0.91124587  0.67175611  0.81078757  1
  Ni  Ni3  1  0.23948976  0.32824389  0.68921243  1
  Ni  Ni4  1  0.96123979  0.51337033  0.12533893  1
  Ni  Ni5  1  0.44787046  0.48662967  0.37466107  1
  Ni  Ni6  1  0.03876021  0.48662967  0.87466107  1
  Ni  Ni7  1  0.55212954  0.51337033  0.62533893  1
  Ni  Ni8  1  -0.00000000  0.00000000  -0.00000000  1
  Ni  Ni9  1  -0.00000000  0.00000000  0.50000000  1
  H  H0  1  0.68307286  0.05403670  0.94306279  1
  H  H1  1  0.62903615  0.94596330  0.55693721  1
  H  H2  1  0.31692714  0.94596330  0.05693721  1
  H  H3  1  0.37096385  0.05403670  0.44306279  1
  Se  Se0  1  0.75144295  0.35896073  0.29177162  1
  Se  Se1  1  0.39248121  0.64103927  0.20822838  1
  Se  Se2  1  0.24855705  0.64103927  0.70822838  1
  Se  Se3  1  0.60751879  0.35896073  0.79177162  1
  Se  Se4  1  0.59028433  0.77126684  0.90391466  1
  Se  Se5  1  0.81901749  0.22873316  0.59608534  1
  Se  Se6  1  0.40971567  0.22873316  0.09608534  1
  Se  Se7  1  0.18098251  0.77126684  0.40391466  1
  Se  Se8  1  0.90262561  0.19486056  0.89948546  1
  Se  Se9  1  0.70776505  0.80513944  0.60051454  1
  Se  Se10  1  0.09737439  0.80513944  0.10051454  1
  Se  Se11  1  0.29223495  0.19486056  0.39948546  1
  Cl  Cl0  1  0.95595889  0.12099680  0.19956599  1
  Cl  Cl1  1  0.83496208  0.87900320  0.30043401  1
  Cl  Cl2  1  0.04404111  0.87900320  0.80043401  1
  Cl  Cl3  1  0.16503792  0.12099680  0.69956599  1
  Cl  Cl4  1  0.16613508  0.47558299  0.40225630  1
  Cl  Cl5  1  0.69055309  0.52441701  0.09774370  1
  Cl  Cl6  1  0.83386492  0.52441701  0.59774370  1
  Cl  Cl7  1  0.30944691  0.47558299  0.90225630  1
  O  O0  1  0.87430706  0.37179856  0.18769463  1
  O  O1  1  0.50250850  0.62820144  0.31230537  1
  O  O2  1  0.12569294  0.62820144  0.81230537  1
  O  O3  1  0.49749150  0.37179856  0.68769463  1
  O  O4  1  0.74054001  0.93198414  0.94735177  1
  O  O5  1  0.80855587  0.06801586  0.55264823  1
  O  O6  1  0.25945999  0.06801586  0.05264823  1
  O  O7  1  0.19144413  0.93198414  0.44735177  1
  O  O8  1  0.03269862  0.19607923  0.00479262  1
  O  O9  1  0.83661940  0.80392077  0.49520738  1
  O  O10  1  0.96730138  0.80392077  0.99520738  1
  O  O11  1  0.16338060  0.19607923  0.50479262  1
  O  O12  1  0.68896490  0.49307563  0.33301173  1
  O  O13  1  0.19588927  0.50692437  0.16698827  1
  O  O14  1  0.31103510  0.50692437  0.66698827  1
  O  O15  1  0.80411073  0.49307563  0.83301173  1
  O  O16  1  0.32908809  0.33003974  0.20528298  1
  O  O17  1  -0.00095265  0.66996026  0.29471702  1
  O  O18  1  0.67091191  0.66996026  0.79471702  1
  O  O19  1  0.00095265  0.33003974  0.70528298  1
  O  O20  1  0.55212834  0.21449230  0.19449276  1
  O  O21  1  0.33763605  0.78550770  0.30550724  1
  O  O22  1  0.44787166  0.78550770  0.80550724  1
  O  O23  1  0.66236395  0.21449230  0.69449276  1
  O  O24  1  0.07370666  0.63665094  0.04737156  1
  O  O25  1  0.43705573  0.36334906  0.45262844  1
  O  O26  1  0.92629334  0.36334906  0.95262844  1
  O  O27  1  0.56294427  0.63665094  0.54737156  1
  O  O28  1  0.69592377  0.13984192  0.93833085  1
  O  O29  1  0.55608185  0.86015808  0.56166915  1
  O  O30  1  0.30407623  0.86015808  0.06166915  1
  O  O31  1  0.44391815  0.13984192  0.43833085  1
loop_
_geom_bond_atom_site_label_1
_geom_bond_atom_site_label_2
_geom_bond_distance
_geom_bond_site_symmetry_2
Ni0 O16 2.017290 1_555
Ni0 O0 2.038903 1_455
Ni0 O8 2.081576 1_555
Ni0 O13 2.094297 1_555
Ni1 O17 2.017282 1_655
Ni1 O1 2.038903 1_555
Ni1 O9 2.081576 1_555
Ni1 O12 2.094297 1_555
Ni2 O18 2.017290 1_555
Ni2 O2 2.038903 1_655
Ni2 O10 2.081576 1_555
Ni2 O15 2.094297 1_555
Ni3 O19 2.017282 1_555
Ni3 O3 2.038903 1_555
Ni3 O11 2.081576 1_555
Ni3 O14 2.094297 1_555
Ni4 O17 2.036169 1_655
Ni4 O0 2.037334 1_555
Ni4 O26 2.041363 1_554
Ni4 O24 2.047760 1_655
Ni4 O13 2.072593 1_655
Ni5 O16 2.036169 1_555
Ni5 O1 2.037335 1_555
Ni5 O27 2.041362 1_555
Ni5 O25 2.047759 1_555
Ni5 O12 2.072585 1_555
Ni6 O19 2.036169 1_555
Ni6 O2 2.037334 1_555
Ni6 O24 2.041363 1_556
Ni6 O26 2.047760 1_455
Ni6 O15 2.072593 1_455
Ni7 O18 2.036169 1_555
Ni7 O3 2.037335 1_555
Ni7 O25 2.041362 1_555
Ni7 O27 2.047759 1_555
Ni7 O14 2.072585 1_555
Ni8 O4 2.024410 1_444
Ni8 O6 2.024410 1_555
Ni8 O8 2.172913 1_555
Ni8 O10 2.172913 1_444
Ni9 O5 2.024410 1_455
Ni9 O7 2.024410 1_545
Ni9 O11 2.172913 1_555
Ni9 O9 2.172913 1_445
H0 O28 0.994531 1_555
H0 O4 1.678446 1_545
H1 O29 0.994531 1_555
H1 O5 1.678446 1_565
H2 O30 0.994531 1_555
H2 O6 1.678446 1_565
H3 O31 0.994531 1_555
H3 O7 1.678446 1_545
Cl0 Ni0 2.329553 1_655
Cl0 Ni8 2.391224 1_655
Cl1 Ni1 2.329553 1_555
Cl1 Ni9 2.391224 1_665
Cl2 Ni2 2.329553 1_455
Cl2 Ni8 2.391224 1_566
Cl3 Ni3 2.329553 1_555
Cl3 Ni9 2.391224 1_555
Cl4 Ni5 2.353860 1_555
Cl4 Ni0 2.394242 1_555
Cl5 Ni4 2.353844 1_555
Cl5 Ni1 2.394242 1_555
Cl6 Ni7 2.353860 1_555
Cl6 Ni2 2.394242 1_555
Cl7 Ni6 2.353844 1_555
Cl7 Ni3 2.394242 1_555
O0 Se0 1.695467 1_555
O1 Se1 1.695472 1_555
O2 Se2 1.695467 1_555
O3 Se3 1.695472 1_555
O4 Se4 1.669896 1_555
O5 Se5 1.669896 1_555
O6 Se6 1.669896 1_555
O7 Se7 1.669896 1_555
O8 Se8 1.712167 1_454
O9 Se9 1.712167 1_555
O10 Se10 1.712167 1_656
O11 Se11 1.712167 1_555
O12 Se0 1.690382 1_555
O13 Se1 1.690376 1_555
O14 Se2 1.690382 1_555
O15 Se3 1.690376 1_555
O16 Se6 1.700217 1_555
O17 Se7 1.700222 1_555
O18 Se4 1.700217 1_555
O19 Se5 1.700222 1_455
O20 Se0 1.812776 1_555
O20 Se6 1.822992 1_555
O21 Se1 1.812771 1_555
O21 Se7 1.822992 1_555
O22 Se2 1.812776 1_555
O22 Se4 1.822992 1_555
O23 Se3 1.812771 1_555
O23 Se5 1.822992 1_555
O24 Se10 1.702543 1_555
O25 Se11 1.702543 1_555
O26 Se8 1.702543 1_555
O27 Se9 1.702543 1_555
O28 Se8 1.770194 1_555
O29 Se9 1.770194 1_555
O30 Se10 1.770194 1_555
O31 Se11 1.770194 1_555
