# generated using pymatgen
data_SrMo(PO4)2
_symmetry_space_group_name_H-M   'P 1'
_cell_length_a   5.72047400
_cell_length_b   7.13519818
_cell_length_c   9.33753921
_cell_angle_alpha   111.17624274
_cell_angle_beta   100.85610467
_cell_angle_gamma   98.01423422
_symmetry_Int_Tables_number   1
_chemical_formula_structural   SrMo(PO4)2
_chemical_formula_sum   'Sr2 Mo2 P4 O16'
_cell_volume   339.95758318
_cell_formula_units_Z   2
loop_
 _symmetry_equiv_pos_site_id
 _symmetry_equiv_pos_as_xyz
  1  'x, y, z'
loop_
 _atom_site_type_symbol
 _atom_site_label
 _atom_site_symmetry_multiplicity
 _atom_site_fract_x
 _atom_site_fract_y
 _atom_site_fract_z
 _atom_site_occupancy
  Sr  Sr0  1  0.24395800  0.73304100  0.02585000  1
  Sr  Sr1  1  0.75604200  0.26695900  0.97415000  1
  Mo  Mo0  1  0.66367200  0.28089900  0.56272600  1
  Mo  Mo1  1  0.33632800  0.71910100  0.43727400  1
  P  P0  1  0.39203200  0.21014200  0.23014600  1
  P  P1  1  0.60796800  0.78985800  0.76985400  1
  P  P2  1  0.84548300  0.73120200  0.30232900  1
  P  P3  1  0.15451700  0.26879800  0.69767100  1
  O  O0  1  0.83012600  0.66982200  0.88760500  1
  O  O1  1  0.62673100  0.29265100  0.18310000  1
  O  O2  1  0.64547100  0.02511300  0.74866300  1
  O  O3  1  0.95183800  0.39345500  0.70596700  1
  O  O4  1  0.37326900  0.70734900  0.81690000  1
  O  O5  1  0.99242600  0.17841200  0.57398800  1
  O  O6  1  0.00757400  0.82158800  0.42601200  1
  O  O7  1  0.28129400  0.12559200  0.86189200  1
  O  O8  1  0.35452900  0.97488700  0.25133700  1
  O  O9  1  0.71870600  0.87440800  0.13810800  1
  O  O10  1  0.16987400  0.33017800  0.11239500  1
  O  O11  1  0.40742200  0.21031300  0.40014700  1
  O  O12  1  0.59257800  0.78968700  0.59985300  1
  O  O13  1  0.63954000  0.58806400  0.38256100  1
  O  O14  1  0.04816200  0.60654500  0.29403300  1
  O  O15  1  0.36046000  0.41193600  0.61743900  1
loop_
_geom_bond_atom_site_label_1
_geom_bond_atom_site_label_2
_geom_bond_distance
_geom_bond_site_symmetry_2
Mo0 O11 1.763670 1_555
Mo0 O3 1.782014 1_555
Mo0 O5 2.108815 1_555
Mo0 O15 2.141173 1_555
Mo1 O12 1.763670 1_555
Mo1 O14 1.782014 1_555
Mo1 O6 2.108815 1_555
Mo1 O13 2.141173 1_555
O0 P1 2.003757 1_555
O0 Sr0 2.367370 1_656
O1 P0 1.590828 1_555
O1 Sr1 2.170382 1_554
O2 P1 1.748825 1_545
O2 Sr1 2.092841 1_555
O3 P3 1.553379 1_655
O4 P1 1.590828 1_555
O4 Sr0 2.170382 1_556
O5 P3 1.225251 1_655
O6 P2 1.225251 1_455
O7 P3 2.200261 1_555
O7 Sr1 2.625191 1_555
O8 P0 1.748825 1_565
O8 Sr0 2.092841 1_555
O9 P2 2.200261 1_555
O9 Sr0 2.625191 1_555
O10 P0 2.003757 1_555
O10 Sr1 2.367370 1_454
O11 P0 1.572734 1_555
O12 P1 1.572734 1_555
O13 P2 1.882020 1_555
O14 P2 1.553379 1_455
O15 P3 1.882020 1_555
