# generated using pymatgen
data_Ca5(ReN3)2
_symmetry_space_group_name_H-M   'P 1'
_cell_length_a   6.04830011
_cell_length_b   6.66607034
_cell_length_c   12.71330448
_cell_angle_alpha   89.99999981
_cell_angle_beta   100.70805293
_cell_angle_gamma   123.44042990
_symmetry_Int_Tables_number   1
_chemical_formula_structural   Ca5(ReN3)2
_chemical_formula_sum   'Ca10 Re4 N12'
_cell_volume   416.98905638
_cell_formula_units_Z   2
loop_
 _symmetry_equiv_pos_site_id
 _symmetry_equiv_pos_as_xyz
  1  'x, y, z'
loop_
 _atom_site_type_symbol
 _atom_site_label
 _atom_site_symmetry_multiplicity
 _atom_site_fract_x
 _atom_site_fract_y
 _atom_site_fract_z
 _atom_site_occupancy
  Ca  Ca0  1  -0.00000000  0.37766006  0.75000000  1
  Ca  Ca1  1  0.00000000  0.62233994  0.25000000  1
  Ca  Ca2  1  0.11955654  0.80155556  0.99931204  1
  Ca  Ca3  1  0.88044346  0.68199902  0.50068796  1
  Ca  Ca4  1  0.88044346  0.19844444  0.00068796  1
  Ca  Ca5  1  0.11955654  0.31800098  0.49931204  1
  Ca  Ca6  1  0.31867145  0.05274054  0.71648816  1
  Ca  Ca7  1  0.68132855  0.73406909  0.78351184  1
  Ca  Ca8  1  0.68132855  0.94725946  0.28351184  1
  Ca  Ca9  1  0.31867145  0.26593091  0.21648816  1
  Re  Re0  1  0.53976544  0.86484611  0.55986060  1
  Re  Re1  1  0.46023456  0.32508167  0.94013940  1
  Re  Re2  1  0.46023456  0.13515389  0.44013940  1
  Re  Re3  1  0.53976544  0.67491833  0.05986060  1
  N  N0  1  0.28010393  0.68082807  0.64441744  1
  N  N1  1  0.71989607  0.40072415  0.85558256  1
  N  N2  1  0.71989607  0.31917193  0.35558256  1
  N  N3  1  0.28010393  0.59927585  0.14441744  1
  N  N4  1  0.58710394  0.25819214  0.58634725  1
  N  N5  1  0.41289606  0.67108720  0.91365275  1
  N  N6  1  0.41289606  0.74180786  0.41365275  1
  N  N7  1  0.58710394  0.32891280  0.08634725  1
  N  N8  1  0.91009956  0.99503520  0.62442067  1
  N  N9  1  0.08990044  0.08493564  0.87557933  1
  N  N10  1  0.08990044  0.00496480  0.37557933  1
  N  N11  1  0.91009956  0.91506436  0.12442067  1
loop_
_geom_bond_atom_site_label_1
_geom_bond_atom_site_label_2
_geom_bond_distance
_geom_bond_site_symmetry_2
Ca0 N1 2.414065 1_455
Ca0 N0 2.414065 1_555
Ca0 N5 2.660226 1_555
Ca0 N4 2.660227 1_455
Ca0 N9 2.738433 1_555
Ca0 N8 2.738433 1_445
Ca1 N3 2.414065 1_555
Ca1 N2 2.414065 1_455
Ca1 N7 2.660226 1_455
Ca1 N6 2.660227 1_555
Ca1 N11 2.738433 1_455
Ca1 N10 2.738433 1_565
Ca2 N9 2.518669 1_565
Ca2 N11 2.551974 1_456
Ca2 N3 2.634714 1_556
Ca2 N5 2.740219 1_555
Ca2 N1 2.749831 1_455
Ca2 N7 3.075708 1_566
Ca3 N8 2.518669 1_555
Ca3 N10 2.551974 1_665
Ca3 N2 2.634714 1_555
Ca3 N4 2.740215 1_555
Ca3 N0 2.749831 1_655
Ca3 N6 3.075704 1_555
Ca4 N11 2.518669 1_545
Ca4 N9 2.551974 1_654
Ca4 N1 2.634714 1_554
Ca4 N7 2.740219 1_555
Ca4 N3 2.749831 1_655
Ca4 N5 3.075708 1_544
Ca5 N10 2.518669 1_555
Ca5 N8 2.551974 1_445
Ca5 N0 2.634714 1_555
Ca5 N6 2.740215 1_555
Ca5 N2 2.749831 1_455
Ca5 N4 3.075704 1_555
Ca6 N8 2.345661 1_445
Ca6 N4 2.407618 1_555
Ca6 N0 2.514664 1_545
Ca6 N1 2.568677 1_555
Ca6 N9 2.723728 1_555
Ca7 N9 2.345661 1_665
Ca7 N5 2.407616 1_555
Ca7 N1 2.514664 1_555
Ca7 N0 2.568677 1_555
Ca7 N8 2.723728 1_555
Ca8 N10 2.345661 1_665
Ca8 N6 2.407618 1_555
Ca8 N2 2.514664 1_565
Ca8 N3 2.568677 1_555
Ca8 N11 2.723728 1_555
Ca9 N11 2.345661 1_445
Ca9 N7 2.407616 1_555
Ca9 N3 2.514664 1_555
Ca9 N2 2.568677 1_555
Ca9 N10 2.723728 1_555
N0 Re0 1.905509 1_555
N1 Re1 1.905510 1_555
N2 Re2 1.905509 1_555
N3 Re3 1.905510 1_555
N4 Re2 1.868934 1_555
N4 Re0 2.491461 1_545
N5 Re3 1.868934 1_556
N5 Re1 2.491447 1_555
N6 Re0 1.868934 1_555
N6 Re2 2.491461 1_565
N7 Re1 1.868934 1_554
N7 Re3 2.491447 1_555
N8 Re0 1.902190 1_555
N9 Re1 1.902191 1_555
N10 Re2 1.902190 1_555
N11 Re3 1.902191 1_555
