# generated using pymatgen
data_LiTaNb(AgO3)2
_symmetry_space_group_name_H-M   'P 1'
_cell_length_a   4.08266301
_cell_length_b   4.08266029
_cell_length_c   8.14343000
_cell_angle_alpha   90.00000000
_cell_angle_beta   90.00000000
_cell_angle_gamma   90.24532936
_symmetry_Int_Tables_number   1
_chemical_formula_structural   LiTaNb(AgO3)2
_chemical_formula_sum   'Li1 Ta1 Nb1 Ag2 O6'
_cell_volume   135.73447430
_cell_formula_units_Z   1
loop_
 _symmetry_equiv_pos_site_id
 _symmetry_equiv_pos_as_xyz
  1  'x, y, z'
loop_
 _atom_site_type_symbol
 _atom_site_label
 _atom_site_symmetry_multiplicity
 _atom_site_fract_x
 _atom_site_fract_y
 _atom_site_fract_z
 _atom_site_occupancy
  Li  Li0  1  0.00000000  0.00000000  0.75000000  1
  Ta  Ta0  1  0.50000000  0.50000000  0.75000000  1
  Nb  Nb0  1  0.50000000  0.50000000  0.25000000  1
  Ag  Ag0  1  0.00000000  0.00000000  0.05818800  1
  Ag  Ag1  1  0.00000000  0.00000000  0.44181200  1
  O  O0  1  0.50000000  0.00000000  0.25000000  1
  O  O1  1  0.50000000  0.00000000  0.75000000  1
  O  O2  1  0.50000000  0.50000000  0.99599100  1
  O  O3  1  0.50000000  0.50000000  0.50400900  1
  O  O4  1  0.00000000  0.50000000  0.25000000  1
  O  O5  1  0.00000000  0.50000000  0.75000000  1
loop_
_geom_bond_atom_site_label_1
_geom_bond_atom_site_label_2
_geom_bond_distance
_geom_bond_site_symmetry_2
Li0 O5 2.041330 1_555
Li0 O5 2.041330 1_545
Li0 O1 2.041332 1_455
Li0 O1 2.041332 1_555
Nb0 O0 2.041330 1_565
Nb0 O0 2.041330 1_555
Nb0 O4 2.041332 1_555
Nb0 O4 2.041332 1_655
Nb0 O2 2.068505 1_554
Nb0 O3 2.068505 1_555
Ag0 Li0 2.509707 1_554
Ag0 O4 2.570388 1_545
Ag0 O4 2.570388 1_555
Ag0 O0 2.570389 1_455
Ag0 O0 2.570389 1_555
Ag1 Li0 2.509707 1_555
Ag1 O4 2.570388 1_545
Ag1 O4 2.570388 1_555
Ag1 O0 2.570389 1_455
Ag1 O0 2.570389 1_555
O1 Ta0 2.041330 1_555
O1 Ta0 2.041330 1_545
O2 Ta0 2.003210 1_555
O3 Ta0 2.003210 1_555
O5 Ta0 2.041332 1_555
O5 Ta0 2.041332 1_455
