# generated using pymatgen
data_Mg30VCrO32
_symmetry_space_group_name_H-M   'P 1'
_cell_length_a   8.51156400
_cell_length_b   8.51156400
_cell_length_c   8.59204700
_cell_angle_alpha   90.00000000
_cell_angle_beta   90.00000000
_cell_angle_gamma   90.00000000
_symmetry_Int_Tables_number   1
_chemical_formula_structural   Mg30VCrO32
_chemical_formula_sum   'Mg30 V1 Cr1 O32'
_cell_volume   622.46563807
_cell_formula_units_Z   1
loop_
 _symmetry_equiv_pos_site_id
 _symmetry_equiv_pos_as_xyz
  1  'x, y, z'
loop_
 _atom_site_type_symbol
 _atom_site_label
 _atom_site_symmetry_multiplicity
 _atom_site_fract_x
 _atom_site_fract_y
 _atom_site_fract_z
 _atom_site_occupancy
  Mg  Mg0  1  0.00000000  0.50000000  0.00000000  1
  Mg  Mg1  1  0.50000000  0.00000000  0.00000000  1
  Mg  Mg2  1  0.00000000  0.00000000  0.50000000  1
  Mg  Mg3  1  0.00000000  0.50000000  0.50000000  1
  Mg  Mg4  1  0.50000000  0.00000000  0.50000000  1
  Mg  Mg5  1  0.50000000  0.50000000  0.50000000  1
  Mg  Mg6  1  0.24975800  0.24975800  0.00000000  1
  Mg  Mg7  1  0.24975800  0.75024200  0.00000000  1
  Mg  Mg8  1  0.75024200  0.24975800  0.00000000  1
  Mg  Mg9  1  0.75024200  0.75024200  0.00000000  1
  Mg  Mg10  1  0.25003300  0.25003300  0.50000000  1
  Mg  Mg11  1  0.25003300  0.74996700  0.50000000  1
  Mg  Mg12  1  0.74996700  0.25003300  0.50000000  1
  Mg  Mg13  1  0.74996700  0.74996700  0.50000000  1
  Mg  Mg14  1  0.00000000  0.25064800  0.25072300  1
  Mg  Mg15  1  0.00000000  0.74935200  0.25072300  1
  Mg  Mg16  1  0.50000000  0.25053500  0.25172700  1
  Mg  Mg17  1  0.50000000  0.74946500  0.25172700  1
  Mg  Mg18  1  0.00000000  0.25064800  0.74927700  1
  Mg  Mg19  1  0.00000000  0.74935200  0.74927700  1
  Mg  Mg20  1  0.50000000  0.25053500  0.74827300  1
  Mg  Mg21  1  0.50000000  0.74946500  0.74827300  1
  Mg  Mg22  1  0.25064800  0.00000000  0.25072300  1
  Mg  Mg23  1  0.25053500  0.50000000  0.25172700  1
  Mg  Mg24  1  0.74935200  0.00000000  0.25072300  1
  Mg  Mg25  1  0.74946500  0.50000000  0.25172700  1
  Mg  Mg26  1  0.25064800  0.00000000  0.74927700  1
  Mg  Mg27  1  0.25053500  0.50000000  0.74827300  1
  Mg  Mg28  1  0.74935200  0.00000000  0.74927700  1
  Mg  Mg29  1  0.74946500  0.50000000  0.74827300  1
  V  V0  1  0.00000000  0.00000000  0.00000000  1
  Cr  Cr0  1  0.50000000  0.50000000  0.00000000  1
  O  O0  1  0.00000000  0.00000000  0.25436900  1
  O  O1  1  0.00000000  0.50000000  0.24998500  1
  O  O2  1  0.50000000  0.00000000  0.24998500  1
  O  O3  1  0.50000000  0.50000000  0.26481000  1
  O  O4  1  0.00000000  0.00000000  0.74563100  1
  O  O5  1  0.00000000  0.50000000  0.75001500  1
  O  O6  1  0.50000000  0.00000000  0.75001500  1
  O  O7  1  0.50000000  0.50000000  0.73519000  1
  O  O8  1  0.24987400  0.24987400  0.24931600  1
  O  O9  1  0.24987400  0.75012600  0.24931600  1
  O  O10  1  0.75012600  0.24987400  0.24931600  1
  O  O11  1  0.75012600  0.75012600  0.24931600  1
  O  O12  1  0.24987400  0.24987400  0.75068400  1
  O  O13  1  0.24987400  0.75012600  0.75068400  1
  O  O14  1  0.75012600  0.24987400  0.75068400  1
  O  O15  1  0.75012600  0.75012600  0.75068400  1
  O  O16  1  0.00000000  0.25508400  0.00000000  1
  O  O17  1  0.00000000  0.74491600  0.00000000  1
  O  O18  1  0.50000000  0.24968400  0.00000000  1
  O  O19  1  0.50000000  0.75031600  0.00000000  1
  O  O20  1  0.00000000  0.25012800  0.50000000  1
  O  O21  1  0.00000000  0.74987200  0.50000000  1
  O  O22  1  0.50000000  0.24730700  0.50000000  1
  O  O23  1  0.50000000  0.75269300  0.50000000  1
  O  O24  1  0.25508400  0.00000000  0.00000000  1
  O  O25  1  0.24968400  0.50000000  0.00000000  1
  O  O26  1  0.74491600  0.00000000  0.00000000  1
  O  O27  1  0.75031600  0.50000000  0.00000000  1
  O  O28  1  0.25012800  0.00000000  0.50000000  1
  O  O29  1  0.24730700  0.50000000  0.50000000  1
  O  O30  1  0.74987200  0.00000000  0.50000000  1
  O  O31  1  0.75269300  0.50000000  0.50000000  1
loop_
_geom_bond_atom_site_label_1
_geom_bond_atom_site_label_2
_geom_bond_distance
_geom_bond_site_symmetry_2
Mg0 O16 2.084618 1_555
Mg0 O17 2.084618 1_555
Mg0 O27 2.125201 1_455
Mg0 O25 2.125201 1_555
Mg0 O5 2.147883 1_554
Mg0 O1 2.147883 1_555
Mg1 O24 2.084618 1_555
Mg1 O26 2.084618 1_555
Mg1 O19 2.125201 1_545
Mg1 O18 2.125201 1_555
Mg1 O2 2.147883 1_555
Mg1 O6 2.147883 1_554
Mg2 O0 2.110473 1_555
Mg2 O4 2.110473 1_555
Mg2 O30 2.128980 1_455
Mg2 O21 2.128980 1_545
Mg2 O20 2.128980 1_555
Mg2 O28 2.128980 1_555
Mg3 O29 2.104969 1_555
Mg3 O31 2.104969 1_455
Mg3 O21 2.126802 1_555
Mg3 O20 2.126802 1_555
Mg3 O5 2.148141 1_555
Mg3 O1 2.148141 1_555
Mg4 O22 2.104969 1_555
Mg4 O23 2.104969 1_545
Mg4 O30 2.126802 1_555
Mg4 O28 2.126802 1_555
Mg4 O2 2.148141 1_555
Mg4 O6 2.148141 1_555
Mg5 O7 2.020764 1_555
Mg5 O3 2.020764 1_555
Mg5 O23 2.150813 1_555
Mg5 O31 2.150813 1_555
Mg5 O29 2.150813 1_555
Mg5 O22 2.150813 1_555
Mg6 O24 2.126314 1_555
Mg6 O16 2.126314 1_555
Mg6 O25 2.129951 1_555
Mg6 O18 2.129951 1_555
Mg6 O8 2.142135 1_555
Mg6 O12 2.142135 1_554
Mg7 O24 2.126314 1_565
Mg7 O17 2.126314 1_555
Mg7 O25 2.129951 1_555
Mg7 O19 2.129951 1_555
Mg7 O9 2.142135 1_555
Mg7 O13 2.142135 1_554
Mg8 O26 2.126314 1_555
Mg8 O16 2.126314 1_655
Mg8 O27 2.129951 1_555
Mg8 O18 2.129951 1_555
Mg8 O10 2.142135 1_555
Mg8 O14 2.142135 1_554
Mg9 O26 2.126314 1_565
Mg9 O17 2.126314 1_655
Mg9 O27 2.129951 1_555
Mg9 O19 2.129951 1_555
Mg9 O11 2.142135 1_555
Mg9 O15 2.142135 1_554
Mg10 O22 2.127737 1_555
Mg10 O29 2.127737 1_555
Mg10 O28 2.128172 1_555
Mg10 O20 2.128172 1_555
Mg10 O8 2.153890 1_555
Mg10 O12 2.153890 1_555
Mg11 O23 2.127737 1_555
Mg11 O29 2.127737 1_555
Mg11 O28 2.128172 1_565
Mg11 O21 2.128172 1_555
Mg11 O9 2.153890 1_555
Mg11 O13 2.153890 1_555
Mg12 O31 2.127737 1_555
Mg12 O22 2.127737 1_555
Mg12 O20 2.128172 1_655
Mg12 O30 2.128172 1_555
Mg12 O14 2.153890 1_555
Mg12 O10 2.153890 1_555
Mg13 O23 2.127737 1_555
Mg13 O31 2.127737 1_555
Mg13 O30 2.128172 1_565
Mg13 O21 2.128172 1_655
Mg13 O11 2.153890 1_555
Mg13 O15 2.153890 1_555
Mg14 O1 2.122385 1_555
Mg14 O10 2.126863 1_455
Mg14 O8 2.126863 1_555
Mg14 O0 2.133636 1_555
Mg14 O20 2.141804 1_555
Mg14 O16 2.154555 1_555
Mg15 O1 2.122385 1_555
Mg15 O11 2.126863 1_455
Mg15 O9 2.126863 1_555
Mg15 O0 2.133636 1_565
Mg15 O21 2.141804 1_555
Mg15 O17 2.154555 1_555
Mg16 O3 2.126311 1_555
Mg16 O8 2.129072 1_555
Mg16 O10 2.129072 1_555
Mg16 O2 2.132497 1_555
Mg16 O22 2.133350 1_555
Mg16 O18 2.162862 1_555
Mg17 O3 2.126311 1_555
Mg17 O11 2.129072 1_555
Mg17 O9 2.129072 1_555
Mg17 O2 2.132497 1_565
Mg17 O23 2.133350 1_555
Mg17 O19 2.162862 1_555
Mg18 O5 2.122385 1_555
Mg18 O14 2.126863 1_455
Mg18 O12 2.126863 1_555
Mg18 O4 2.133636 1_555
Mg18 O20 2.141804 1_555
Mg18 O16 2.154555 1_556
Mg19 O5 2.122385 1_555
Mg19 O13 2.126863 1_555
Mg19 O15 2.126863 1_455
Mg19 O4 2.133636 1_565
Mg19 O21 2.141804 1_555
Mg19 O17 2.154555 1_556
Mg20 O7 2.126311 1_555
Mg20 O14 2.129072 1_555
Mg20 O12 2.129072 1_555
Mg20 O6 2.132497 1_555
Mg20 O22 2.133350 1_555
Mg20 O18 2.162862 1_556
Mg21 O7 2.126311 1_555
Mg21 O15 2.129072 1_555
Mg21 O13 2.129072 1_555
Mg21 O6 2.132497 1_565
Mg21 O23 2.133350 1_555
Mg21 O19 2.162862 1_556
Mg22 O2 2.122385 1_555
Mg22 O9 2.126863 1_545
Mg22 O8 2.126863 1_555
Mg22 O0 2.133636 1_555
Mg22 O28 2.141804 1_555
Mg22 O24 2.154555 1_555
Mg23 O3 2.126311 1_555
Mg23 O8 2.129072 1_555
Mg23 O9 2.129072 1_555
Mg23 O1 2.132497 1_555
Mg23 O29 2.133350 1_555
Mg23 O25 2.162862 1_555
Mg24 O2 2.122385 1_555
Mg24 O10 2.126863 1_555
Mg24 O11 2.126863 1_545
Mg24 O0 2.133636 1_655
Mg24 O30 2.141804 1_555
Mg24 O26 2.154555 1_555
Mg25 O3 2.126311 1_555
Mg25 O11 2.129072 1_555
Mg25 O10 2.129072 1_555
Mg25 O1 2.132497 1_655
Mg25 O31 2.133350 1_555
Mg25 O27 2.162862 1_555
Mg26 O6 2.122385 1_555
Mg26 O12 2.126863 1_555
Mg26 O13 2.126863 1_545
Mg26 O4 2.133636 1_555
Mg26 O28 2.141804 1_555
Mg26 O24 2.154555 1_556
Mg27 O7 2.126311 1_555
Mg27 O13 2.129072 1_555
Mg27 O12 2.129072 1_555
Mg27 O5 2.132497 1_555
Mg27 O29 2.133350 1_555
Mg27 O25 2.162862 1_556
Mg28 O6 2.122385 1_555
Mg28 O14 2.126863 1_555
Mg28 O15 2.126863 1_545
Mg28 O4 2.133636 1_655
Mg28 O30 2.141804 1_555
Mg28 O26 2.154555 1_556
Mg29 O7 2.126311 1_555
Mg29 O14 2.129072 1_555
Mg29 O15 2.129072 1_555
Mg29 O5 2.132497 1_655
Mg29 O31 2.133350 1_555
Mg29 O27 2.162862 1_556
Cr0 O19 2.130581 1_555
Cr0 O27 2.130581 1_555
Cr0 O25 2.130581 1_555
Cr0 O18 2.130581 1_555
Cr0 O3 2.275260 1_555
Cr0 O7 2.275260 1_554
O0 V0 2.185550 1_555
O4 V0 2.185550 1_556
O16 V0 2.171164 1_555
O17 V0 2.171164 1_565
O24 V0 2.171164 1_555
O26 V0 2.171164 1_655
