# generated using pymatgen
data_Mg3Si2O9
_symmetry_space_group_name_H-M   'P 1'
_cell_length_a   5.43025200
_cell_length_b   5.44098375
_cell_length_c   29.28565061
_cell_angle_alpha   91.22538606
_cell_angle_beta   89.40594403
_cell_angle_gamma   119.28787762
_symmetry_Int_Tables_number   1
_chemical_formula_structural   Mg3Si2O9
_chemical_formula_sum   'Mg12 Si8 O36'
_cell_volume   754.49347991
_cell_formula_units_Z   4
loop_
 _symmetry_equiv_pos_site_id
 _symmetry_equiv_pos_as_xyz
  1  'x, y, z'
loop_
 _atom_site_type_symbol
 _atom_site_label
 _atom_site_symmetry_multiplicity
 _atom_site_fract_x
 _atom_site_fract_y
 _atom_site_fract_z
 _atom_site_occupancy
  Mg  Mg0  1  0.98735300  0.99783100  0.99891800  1
  Mg  Mg1  1  0.32112800  0.66524300  0.99862000  1
  Mg  Mg2  1  0.65247100  0.33249000  0.00138200  1
  Mg  Mg3  1  0.00135700  0.33668400  0.75005900  1
  Mg  Mg4  1  0.32357000  0.01319300  0.74958500  1
  Mg  Mg5  1  0.67689700  0.65788800  0.75011100  1
  Mg  Mg6  1  0.98382000  0.99332900  0.50006700  1
  Mg  Mg7  1  0.31746100  0.66096400  0.50078700  1
  Mg  Mg8  1  0.65102300  0.32528100  0.49998600  1
  Mg  Mg9  1  0.71071600  0.02493700  0.24940700  1
  Mg  Mg10  1  0.95804500  0.64868200  0.24965700  1
  Mg  Mg11  1  0.33425000  0.33865000  0.24958800  1
  Si  Si0  1  0.99493400  0.66891900  0.84483900  1
  Si  Si1  1  0.32874500  0.33306600  0.84486400  1
  Si  Si2  1  0.00554600  0.00378900  0.65490900  1
  Si  Si3  1  0.67194100  0.33840000  0.65493500  1
  Si  Si4  1  0.99833900  0.33331300  0.34513200  1
  Si  Si5  1  0.66324800  0.66864700  0.34510500  1
  Si  Si6  1  0.00371600  0.00519900  0.15403300  1
  Si  Si7  1  0.66764400  0.33967000  0.15408900  1
  O  O0  1  0.66171000  0.50453900  0.86244600  1
  O  O1  1  0.15914700  0.50044500  0.86281600  1
  O  O2  1  0.16536700  0.00284900  0.86278700  1
  O  O3  1  0.99203300  0.66393900  0.78854600  1
  O  O4  1  0.32564500  0.32689400  0.78862400  1
  O  O5  1  0.33891400  0.16670000  0.63730400  1
  O  O6  1  0.84138900  0.17160400  0.63658800  1
  O  O7  1  0.83410400  0.66919300  0.63733400  1
  O  O8  1  0.00965000  0.01101200  0.71121400  1
  O  O9  1  0.67615700  0.34398800  0.71121000  1
  O  O10  1  0.33089400  0.49779100  0.36251200  1
  O  O11  1  0.83314300  0.50474300  0.36249300  1
  O  O12  1  0.82710200  0.00252400  0.36254300  1
  O  O13  1  0.00152300  0.32332000  0.28876500  1
  O  O14  1  0.66466800  0.65782400  0.28880400  1
  O  O15  1  0.33570400  0.17483700  0.13637000  1
  O  O16  1  0.83267200  0.16808400  0.13670300  1
  O  O17  1  0.83852200  0.67079900  0.13685800  1
  O  O18  1  0.00528600  0.01842100  0.21031200  1
  O  O19  1  0.66523600  0.35064800  0.21043300  1
  O  O20  1  0.65419400  0.01606700  0.02996500  1
  O  O21  1  0.98862300  0.68781000  0.03020300  1
  O  O22  1  0.31512100  0.35283900  0.03021400  1
  O  O23  1  0.98342000  0.30997800  0.96905600  1
  O  O24  1  0.32337400  0.98075100  0.96890200  1
  O  O25  1  0.65566600  0.64034000  0.96874000  1
  O  O26  1  0.64950800  0.98651500  0.77784900  1
  O  O27  1  0.35181200  0.68505600  0.72220500  1
  O  O28  1  0.00492500  0.35013400  0.53126600  1
  O  O29  1  0.33872700  0.01927200  0.53134900  1
  O  O30  1  0.67247300  0.68361500  0.53083500  1
  O  O31  1  0.63064900  0.96880000  0.46997500  1
  O  O32  1  0.96532000  0.63735900  0.47037000  1
  O  O33  1  0.29832700  0.30437400  0.47038400  1
  O  O34  1  0.33375800  0.92751400  0.27094000  1
  O  O35  1  0.33502800  0.74525000  0.22800900  1
loop_
_geom_bond_atom_site_label_1
_geom_bond_atom_site_label_2
_geom_bond_distance
_geom_bond_site_symmetry_2
Mg0 O23 1.936279 1_565
Mg0 O21 1.939702 1_556
Mg0 O24 2.059114 1_655
Mg0 O20 2.060870 1_566
Mg0 O22 2.081679 1_666
Mg0 O25 2.083357 1_555
Mg1 O24 1.935912 1_555
Mg1 O22 1.938766 1_556
Mg1 O25 2.070508 1_555
Mg1 O21 2.075605 1_456
Mg1 O20 2.083056 1_566
Mg1 O23 2.083786 1_455
Mg2 O20 1.934535 1_555
Mg2 O25 1.938939 1_554
Mg2 O22 2.059956 1_555
Mg2 O21 2.071583 1_555
Mg2 O23 2.077511 1_554
Mg2 O24 2.090990 1_544
Mg3 O27 2.093933 1_555
Mg3 O26 2.101274 1_445
Mg3 O8 2.104010 1_555
Mg3 O3 2.108231 1_455
Mg3 O4 2.124847 1_555
Mg3 O9 2.127606 1_455
Mg4 O27 2.014496 1_545
Mg4 O4 2.029413 1_555
Mg4 O26 2.031187 1_545
Mg4 O8 2.046492 1_555
Mg4 O9 2.199679 1_555
Mg4 O3 2.203874 1_445
Mg5 O26 2.018587 1_555
Mg5 O27 2.023955 1_555
Mg5 O9 2.031023 1_555
Mg5 O3 2.044436 1_555
Mg5 O4 2.198863 1_555
Mg5 O8 2.215482 1_665
Mg6 O33 1.934123 1_665
Mg6 O30 1.938019 1_555
Mg6 O31 2.062041 1_555
Mg6 O32 2.063288 1_555
Mg6 O28 2.079781 1_665
Mg6 O29 2.082868 1_665
Mg7 O31 1.938504 1_555
Mg7 O28 1.939635 1_555
Mg7 O32 2.063175 1_455
Mg7 O33 2.073338 1_555
Mg7 O30 2.074622 1_555
Mg7 O29 2.079036 1_565
Mg8 O32 1.935264 1_555
Mg8 O29 1.939651 1_555
Mg8 O33 2.061463 1_555
Mg8 O31 2.065410 1_545
Mg8 O28 2.080293 1_655
Mg8 O30 2.082235 1_555
Mg9 O34 1.947994 1_545
Mg9 O35 1.954142 1_545
Mg9 O18 1.971437 1_655
Mg9 O13 1.976704 1_655
Mg9 O14 2.233258 1_545
Mg9 O19 2.241644 1_555
Mg10 O35 1.950291 1_655
Mg10 O34 1.951964 1_655
Mg10 O14 1.972824 1_555
Mg10 O19 1.978080 1_555
Mg10 O13 2.236658 1_655
Mg10 O18 2.242471 1_665
Mg11 O19 2.096479 1_555
Mg11 O13 2.097966 1_555
Mg11 O18 2.112241 1_555
Mg11 O14 2.112575 1_555
Mg11 O35 2.311768 1_555
Mg11 O34 2.334322 1_545
O0 Si1 1.659228 1_555
O0 Si0 1.660427 1_555
O1 Si0 1.656118 1_455
O1 Si1 1.656514 1_555
O2 Si0 1.660723 1_445
O2 Si1 1.661884 1_555
O3 Si0 1.648332 1_555
O4 Si1 1.646742 1_555
O5 Si3 1.659976 1_555
O5 Si2 1.660976 1_555
O6 Si2 1.656329 1_655
O6 Si3 1.656773 1_555
O7 Si2 1.660592 1_665
O7 Si3 1.661368 1_555
O8 Si2 1.648678 1_555
O9 Si3 1.647870 1_555
O10 Si4 1.655132 1_455
O10 Si5 1.655577 1_555
O11 Si4 1.649890 1_555
O11 Si5 1.655261 1_555
O12 Si5 1.655561 1_545
O12 Si4 1.660112 1_555
O13 Si4 1.650667 1_455
O14 Si5 1.648676 1_555
O15 Si7 1.655448 1_555
O15 Si6 1.656073 1_555
O16 Si7 1.650057 1_555
O16 Si6 1.655327 1_655
O17 Si6 1.655737 1_665
O17 Si7 1.659871 1_555
O18 Si6 1.648127 1_555
O19 Si7 1.650022 1_555
O34 O35 1.586632 1_555
