# generated using pymatgen
data_BaLiYCu2O5
_symmetry_space_group_name_H-M   'P 1'
_cell_length_a   4.00949408
_cell_length_b   4.01040142
_cell_length_c   7.88977949
_cell_angle_alpha   90.13664502
_cell_angle_beta   90.14349321
_cell_angle_gamma   87.76329585
_symmetry_Int_Tables_number   1
_chemical_formula_structural   BaLiYCu2O5
_chemical_formula_sum   'Ba1 Li1 Y1 Cu2 O5'
_cell_volume   126.76774992
_cell_formula_units_Z   1
loop_
 _symmetry_equiv_pos_site_id
 _symmetry_equiv_pos_as_xyz
  1  'x, y, z'
loop_
 _atom_site_type_symbol
 _atom_site_label
 _atom_site_symmetry_multiplicity
 _atom_site_fract_x
 _atom_site_fract_y
 _atom_site_fract_z
 _atom_site_occupancy
  Ba  Ba0  1  0.03098300  0.03100700  0.96580500  1
  Li  Li0  1  0.34597600  0.34591900  0.46474900  1
  Y  Y0  1  0.92919300  0.92912200  0.46560600  1
  Cu  Cu0  1  0.52033200  0.52040900  0.71618500  1
  Cu  Cu1  1  0.52018400  0.52016800  0.21472600  1
  O  O0  1  0.00974800  0.48845100  0.64337300  1
  O  O1  1  0.48845500  0.00974800  0.64339600  1
  O  O2  1  0.00995500  0.48814100  0.28767200  1
  O  O3  1  0.48798600  0.00987300  0.28771000  1
  O  O4  1  0.50718300  0.50715700  0.96536300  1
loop_
_geom_bond_atom_site_label_1
_geom_bond_atom_site_label_2
_geom_bond_distance
_geom_bond_site_symmetry_2
Ba0 O4 2.752556 1_555
Ba0 O4 2.782821 1_455
Ba0 O4 2.783161 1_545
Ba0 O4 3.027974 1_445
Ba0 O3 3.127406 1_556
Ba0 O2 3.127894 1_556
Ba0 O1 3.138852 1_555
Ba0 O0 3.138991 1_555
Ba0 O1 3.345946 1_455
Ba0 O0 3.346661 1_545
Ba0 O2 3.352245 1_546
Ba0 O3 3.352706 1_456
Li0 O3 2.006638 1_555
Li0 O2 2.006674 1_555
Li0 O1 2.018787 1_555
Li0 O0 2.018858 1_555
Cu0 O4 1.967698 1_555
Cu0 O1 2.045181 1_565
Cu0 O0 2.045182 1_655
Cu0 O0 2.133458 1_555
Cu0 O1 2.134179 1_555
Cu0 Li0 2.222246 1_555
Cu1 O4 1.968600 1_554
Cu1 O2 2.044256 1_655
Cu1 O3 2.044600 1_565
Cu1 O2 2.135328 1_555
Cu1 O3 2.136111 1_555
Cu1 Li0 2.217892 1_555
O0 Y0 2.271493 1_455
O1 Y0 2.271697 1_545
O2 Y0 2.269151 1_455
O3 Y0 2.269205 1_545
