# generated using pymatgen
data_ErMg5
_symmetry_space_group_name_H-M   'P 1'
_cell_length_a   17.38501430
_cell_length_b   17.38501430
_cell_length_c   10.53313448
_cell_angle_alpha   90.00000000
_cell_angle_beta   90.00000000
_cell_angle_gamma   158.67632660
_symmetry_Int_Tables_number   1
_chemical_formula_structural   ErMg5
_chemical_formula_sum   'Er8 Mg40'
_cell_volume   1157.64337293
_cell_formula_units_Z   8
loop_
 _symmetry_equiv_pos_site_id
 _symmetry_equiv_pos_as_xyz
  1  'x, y, z'
loop_
 _atom_site_type_symbol
 _atom_site_label
 _atom_site_symmetry_multiplicity
 _atom_site_fract_x
 _atom_site_fract_y
 _atom_site_fract_z
 _atom_site_occupancy
  Er  Er0_0  1  0.11047514  0.38952486  0.00000000  1
  Er  Er0_1  1  0.11047514  0.38952486  0.50000000  1
  Er  Er0_2  1  0.11047514  0.88952486  0.00000000  1
  Er  Er0_3  1  0.11047514  0.88952486  0.50000000  1
  Er  Er0_4  1  0.61047514  0.38952485  0.00000000  1
  Er  Er0_5  1  0.61047514  0.38952485  0.50000000  1
  Er  Er0_6  1  0.61047514  0.88952485  0.00000000  1
  Er  Er0_7  1  0.61047514  0.88952485  0.50000000  1
  Mg  Mg0_0  1  0.00087275  0.49912725  0.25000000  1
  Mg  Mg0_1  1  0.00087275  0.49912725  0.75000000  1
  Mg  Mg0_2  1  0.00087275  0.99912725  0.25000000  1
  Mg  Mg0_3  1  0.00087275  0.99912725  0.75000000  1
  Mg  Mg0_4  1  0.50087275  0.49912725  0.25000000  1
  Mg  Mg0_5  1  0.50087275  0.49912725  0.75000000  1
  Mg  Mg0_6  1  0.50087275  0.99912725  0.25000000  1
  Mg  Mg0_7  1  0.50087275  0.99912725  0.75000000  1
  Mg  Mg1_0  1  0.33135081  0.16864919  0.25000000  1
  Mg  Mg1_1  1  0.33135081  0.16864919  0.75000000  1
  Mg  Mg1_2  1  0.33135081  0.66864919  0.25000000  1
  Mg  Mg1_3  1  0.33135081  0.66864919  0.75000000  1
  Mg  Mg1_4  1  0.83135081  0.16864919  0.25000000  1
  Mg  Mg1_5  1  0.83135081  0.16864919  0.75000000  1
  Mg  Mg1_6  1  0.83135081  0.66864919  0.25000000  1
  Mg  Mg1_7  1  0.83135081  0.66864919  0.75000000  1
  Mg  Mg2_0  1  0.16719270  0.33280730  0.25000000  1
  Mg  Mg2_1  1  0.16719270  0.33280730  0.75000000  1
  Mg  Mg2_2  1  0.16719270  0.83280730  0.25000000  1
  Mg  Mg2_3  1  0.16719270  0.83280730  0.75000000  1
  Mg  Mg2_4  1  0.66719270  0.33280730  0.25000000  1
  Mg  Mg2_5  1  0.66719270  0.33280730  0.75000000  1
  Mg  Mg2_6  1  0.66719270  0.83280730  0.25000000  1
  Mg  Mg2_7  1  0.66719270  0.83280730  0.75000000  1
  Mg  Mg3_0  1  0.27673419  0.22326581  0.00000000  1
  Mg  Mg3_1  1  0.27673419  0.22326581  0.50000000  1
  Mg  Mg3_2  1  0.27673419  0.72326581  0.00000000  1
  Mg  Mg3_3  1  0.27673419  0.72326581  0.50000000  1
  Mg  Mg3_4  1  0.77673419  0.22326581  0.00000000  1
  Mg  Mg3_5  1  0.77673419  0.22326581  0.50000000  1
  Mg  Mg3_6  1  0.77673419  0.72326581  0.00000000  1
  Mg  Mg3_7  1  0.77673419  0.72326581  0.50000000  1
  Mg  Mg4_0  1  0.44670741  0.05329259  0.00000000  1
  Mg  Mg4_1  1  0.44670741  0.05329259  0.50000000  1
  Mg  Mg4_2  1  0.44670740  0.55329259  0.00000000  1
  Mg  Mg4_3  1  0.44670740  0.55329259  0.50000000  1
  Mg  Mg4_4  1  0.94670740  0.05329259  0.00000000  1
  Mg  Mg4_5  1  0.94670740  0.05329259  0.50000000  1
  Mg  Mg4_6  1  0.94670740  0.55329259  0.00000000  1
  Mg  Mg4_7  1  0.94670740  0.55329259  0.50000000  1
loop_
_geom_bond_atom_site_label_1
_geom_bond_atom_site_label_2
_geom_bond_distance
_geom_bond_site_symmetry_2
Er0_0 Er0_6 3.216438 1_555
Er0_0 Er0_6 3.216438 1_445
Er0_0 Mg1_5 3.242054 1_454
Er0_0 Mg1_4 3.242054 1_455
Er0_0 Mg1_2 3.242054 1_555
Er0_0 Mg1_3 3.242054 1_554
Er0_0 Mg2_1 3.269576 1_554
Er0_0 Mg2_0 3.269576 1_555
Er0_0 Mg3_4 3.282382 1_455
Er0_0 Mg3_2 3.282382 1_555
Er0_0 Mg4_2 3.356850 1_555
Er0_0 Mg4_4 3.356850 1_455
Er0_1 Er0_7 3.216438 1_555
Er0_1 Er0_7 3.216438 1_445
Er0_1 Mg1_5 3.242054 1_455
Er0_1 Mg1_4 3.242054 1_455
Er0_1 Mg1_2 3.242054 1_555
Er0_1 Mg1_3 3.242054 1_555
Er0_1 Mg2_1 3.269576 1_555
Er0_1 Mg2_0 3.269576 1_555
Er0_1 Mg3_5 3.282382 1_455
Er0_1 Mg3_3 3.282382 1_555
Er0_1 Mg4_3 3.356850 1_555
Er0_1 Mg4_5 3.356850 1_455
Er0_2 Er0_4 3.216438 1_565
Er0_2 Er0_4 3.216438 1_455
Er0_2 Mg1_0 3.242054 1_565
Er0_2 Mg1_6 3.242054 1_455
Er0_2 Mg1_7 3.242054 1_454
Er0_2 Mg1_1 3.242054 1_564
Er0_2 Mg2_3 3.269576 1_554
Er0_2 Mg2_2 3.269576 1_555
Er0_2 Mg3_6 3.282382 1_455
Er0_2 Mg3_0 3.282382 1_565
Er0_2 Mg4_0 3.356850 1_565
Er0_2 Mg4_6 3.356850 1_455
Er0_3 Er0_5 3.216438 1_565
Er0_3 Er0_5 3.216438 1_455
Er0_3 Mg1_7 3.242054 1_455
Er0_3 Mg1_0 3.242054 1_565
Er0_3 Mg1_6 3.242054 1_455
Er0_3 Mg1_1 3.242054 1_565
Er0_3 Mg2_3 3.269576 1_555
Er0_3 Mg2_2 3.269576 1_555
Er0_3 Mg3_7 3.282382 1_455
Er0_3 Mg3_1 3.282382 1_565
Er0_3 Mg4_7 3.356850 1_455
Er0_3 Mg4_1 3.356850 1_565
Er0_4 Mg1_7 3.242054 1_554
Er0_4 Mg1_1 3.242054 1_554
Er0_4 Mg1_6 3.242054 1_555
Er0_4 Mg1_0 3.242054 1_555
Er0_4 Mg2_4 3.269576 1_555
Er0_4 Mg2_5 3.269576 1_554
Er0_4 Mg3_6 3.282382 1_555
Er0_4 Mg3_0 3.282382 1_555
Er0_4 Mg4_0 3.356850 1_555
Er0_4 Mg4_6 3.356850 1_555
Er0_5 Mg1_7 3.242054 1_555
Er0_5 Mg1_6 3.242054 1_555
Er0_5 Mg1_0 3.242054 1_555
Er0_5 Mg1_1 3.242054 1_555
Er0_5 Mg2_5 3.269576 1_555
Er0_5 Mg2_4 3.269576 1_555
Er0_5 Mg3_7 3.282382 1_555
Er0_5 Mg3_1 3.282382 1_555
Er0_5 Mg4_1 3.356850 1_555
Er0_5 Mg4_7 3.356850 1_555
Er0_6 Mg1_3 3.242054 1_554
Er0_6 Mg1_2 3.242054 1_555
Er0_6 Mg1_5 3.242054 1_564
Er0_6 Mg1_4 3.242054 1_565
Er0_6 Mg2_6 3.269576 1_555
Er0_6 Mg2_7 3.269576 1_554
Er0_6 Mg3_2 3.282382 1_555
Er0_6 Mg3_4 3.282382 1_565
Er0_6 Mg4_2 3.356850 1_555
Er0_6 Mg4_4 3.356850 1_565
Er0_7 Mg1_3 3.242054 1_555
Er0_7 Mg1_2 3.242054 1_555
Er0_7 Mg1_4 3.242054 1_565
Er0_7 Mg1_5 3.242054 1_565
Er0_7 Mg2_7 3.269576 1_555
Er0_7 Mg2_6 3.269576 1_555
Er0_7 Mg3_3 3.282382 1_555
Er0_7 Mg3_5 3.282382 1_565
Er0_7 Mg4_3 3.356850 1_555
Er0_7 Mg4_5 3.356850 1_565
Mg0_0 Mg1_4 3.185657 1_455
Mg0_0 Mg1_2 3.185657 1_555
Mg0_0 Mg3_4 3.209586 1_455
Mg0_0 Mg3_5 3.209586 1_455
Mg0_0 Mg3_3 3.209586 1_555
Mg0_0 Mg3_2 3.209586 1_555
Mg0_0 Mg0_6 3.216438 1_555
Mg0_0 Mg0_6 3.216438 1_445
Mg0_0 Mg4_7 3.218650 1_455
Mg0_0 Mg4_6 3.218650 1_455
Mg0_0 Mg2_4 3.280568 1_455
Mg0_0 Mg2_2 3.280568 1_555
Mg0_1 Mg1_5 3.185657 1_455
Mg0_1 Mg1_3 3.185657 1_555
Mg0_1 Mg3_4 3.209586 1_456
Mg0_1 Mg3_5 3.209586 1_455
Mg0_1 Mg3_2 3.209586 1_556
Mg0_1 Mg3_3 3.209586 1_555
Mg0_1 Mg0_7 3.216438 1_445
Mg0_1 Mg0_7 3.216438 1_555
Mg0_1 Mg4_6 3.218650 1_456
Mg0_1 Mg4_7 3.218650 1_455
Mg0_1 Mg2_5 3.280568 1_455
Mg0_1 Mg2_3 3.280568 1_555
Mg0_2 Mg1_6 3.185657 1_455
Mg0_2 Mg1_0 3.185657 1_565
Mg0_2 Mg3_7 3.209586 1_455
Mg0_2 Mg3_6 3.209586 1_455
Mg0_2 Mg3_0 3.209586 1_565
Mg0_2 Mg3_1 3.209586 1_565
Mg0_2 Mg0_4 3.216438 1_565
Mg0_2 Mg0_4 3.216438 1_455
Mg0_2 Mg4_4 3.218650 1_465
Mg0_2 Mg4_5 3.218650 1_465
Mg0_2 Mg2_0 3.280568 1_565
Mg0_2 Mg2_6 3.280568 1_455
Mg0_3 Mg1_7 3.185657 1_455
Mg0_3 Mg1_1 3.185657 1_565
Mg0_3 Mg3_7 3.209586 1_455
Mg0_3 Mg3_6 3.209586 1_456
Mg0_3 Mg3_0 3.209586 1_566
Mg0_3 Mg3_1 3.209586 1_565
Mg0_3 Mg0_5 3.216438 1_565
Mg0_3 Mg0_5 3.216438 1_455
Mg0_3 Mg4_4 3.218650 1_466
Mg0_3 Mg4_5 3.218650 1_465
Mg0_3 Mg2_1 3.280568 1_565
Mg0_3 Mg2_7 3.280568 1_455
Mg0_4 Mg1_0 3.185657 1_555
Mg0_4 Mg1_6 3.185657 1_555
Mg0_4 Mg3_0 3.209586 1_555
Mg0_4 Mg3_1 3.209586 1_555
Mg0_4 Mg3_6 3.209586 1_555
Mg0_4 Mg3_7 3.209586 1_555
Mg0_4 Mg4_2 3.218650 1_555
Mg0_4 Mg4_3 3.218650 1_555
Mg0_4 Mg2_0 3.280568 1_555
Mg0_4 Mg2_6 3.280568 1_555
Mg0_5 Mg1_1 3.185657 1_555
Mg0_5 Mg1_7 3.185657 1_555
Mg0_5 Mg3_1 3.209586 1_555
Mg0_5 Mg3_0 3.209586 1_556
Mg0_5 Mg3_6 3.209586 1_556
Mg0_5 Mg3_7 3.209586 1_555
Mg0_5 Mg4_2 3.218650 1_556
Mg0_5 Mg4_3 3.218650 1_555
Mg0_5 Mg2_1 3.280568 1_555
Mg0_5 Mg2_7 3.280568 1_555
Mg0_6 Mg1_2 3.185657 1_555
Mg0_6 Mg1_4 3.185657 1_565
Mg0_6 Mg3_3 3.209586 1_555
Mg0_6 Mg3_2 3.209586 1_555
Mg0_6 Mg3_4 3.209586 1_565
Mg0_6 Mg3_5 3.209586 1_565
Mg0_6 Mg4_0 3.218650 1_565
Mg0_6 Mg4_1 3.218650 1_565
Mg0_6 Mg2_2 3.280568 1_555
Mg0_6 Mg2_4 3.280568 1_565
Mg0_7 Mg1_3 3.185657 1_555
Mg0_7 Mg1_5 3.185657 1_565
Mg0_7 Mg3_3 3.209586 1_555
Mg0_7 Mg3_2 3.209586 1_556
Mg0_7 Mg3_4 3.209586 1_566
Mg0_7 Mg3_5 3.209586 1_565
Mg0_7 Mg4_0 3.218650 1_566
Mg0_7 Mg4_1 3.218650 1_565
Mg0_7 Mg2_3 3.280568 1_555
Mg0_7 Mg2_5 3.280568 1_565
Mg1_0 Mg1_6 3.216438 1_555
Mg1_0 Mg1_6 3.216438 1_445
Mg1_0 Mg3_1 3.227541 1_555
Mg1_0 Mg3_0 3.227541 1_555
Mg1_0 Mg2_4 3.345148 1_555
Mg1_0 Mg2_2 3.345148 1_545
Mg1_1 Mg1_7 3.216438 1_555
Mg1_1 Mg1_7 3.216438 1_445
Mg1_1 Mg3_1 3.227541 1_555
Mg1_1 Mg3_0 3.227541 1_556
Mg1_1 Mg2_5 3.345148 1_555
Mg1_1 Mg2_3 3.345148 1_545
Mg1_2 Mg1_4 3.216438 1_565
Mg1_2 Mg1_4 3.216438 1_455
Mg1_2 Mg3_2 3.227541 1_555
Mg1_2 Mg3_3 3.227541 1_555
Mg1_2 Mg2_6 3.345148 1_555
Mg1_2 Mg2_0 3.345148 1_555
Mg1_3 Mg1_5 3.216438 1_565
Mg1_3 Mg1_5 3.216438 1_455
Mg1_3 Mg3_2 3.227541 1_556
Mg1_3 Mg3_3 3.227541 1_555
Mg1_3 Mg2_7 3.345148 1_555
Mg1_3 Mg2_1 3.345148 1_555
Mg1_4 Mg3_4 3.227541 1_555
Mg1_4 Mg3_5 3.227541 1_555
Mg1_4 Mg2_6 3.345148 1_545
Mg1_4 Mg2_0 3.345148 1_655
Mg1_5 Mg3_5 3.227541 1_555
Mg1_5 Mg3_4 3.227541 1_556
Mg1_5 Mg2_7 3.345148 1_545
Mg1_5 Mg2_1 3.345148 1_655
Mg1_6 Mg3_7 3.227541 1_555
Mg1_6 Mg3_6 3.227541 1_555
Mg1_6 Mg2_4 3.345148 1_555
Mg1_6 Mg2_2 3.345148 1_655
Mg1_7 Mg3_7 3.227541 1_555
Mg1_7 Mg3_6 3.227541 1_556
Mg1_7 Mg2_5 3.345148 1_555
Mg1_7 Mg2_3 3.345148 1_655
Mg2_0 Mg2_6 3.216438 1_555
Mg2_0 Mg2_6 3.216438 1_445
Mg2_0 Mg4_2 3.246174 1_555
Mg2_0 Mg4_4 3.246174 1_455
Mg2_0 Mg4_3 3.246174 1_555
Mg2_0 Mg4_5 3.246174 1_455
Mg2_1 Mg2_7 3.216438 1_555
Mg2_1 Mg2_7 3.216438 1_445
Mg2_1 Mg4_2 3.246174 1_556
Mg2_1 Mg4_4 3.246174 1_456
Mg2_1 Mg4_3 3.246174 1_555
Mg2_1 Mg4_5 3.246174 1_455
Mg2_2 Mg2_4 3.216438 1_565
Mg2_2 Mg2_4 3.216438 1_455
Mg2_2 Mg4_7 3.246174 1_455
Mg2_2 Mg4_6 3.246174 1_455
Mg2_2 Mg4_1 3.246174 1_565
Mg2_2 Mg4_0 3.246174 1_565
Mg2_3 Mg2_5 3.216438 1_565
Mg2_3 Mg2_5 3.216438 1_455
Mg2_3 Mg4_6 3.246174 1_456
Mg2_3 Mg4_7 3.246174 1_455
Mg2_3 Mg4_0 3.246174 1_566
Mg2_3 Mg4_1 3.246174 1_565
Mg2_4 Mg4_0 3.246174 1_555
Mg2_4 Mg4_1 3.246174 1_555
Mg2_4 Mg4_7 3.246174 1_555
Mg2_4 Mg4_6 3.246174 1_555
Mg2_5 Mg4_1 3.246174 1_555
Mg2_5 Mg4_0 3.246174 1_556
Mg2_5 Mg4_7 3.246174 1_555
Mg2_5 Mg4_6 3.246174 1_556
Mg2_6 Mg4_2 3.246174 1_555
Mg2_6 Mg4_3 3.246174 1_555
Mg2_6 Mg4_5 3.246174 1_565
Mg2_6 Mg4_4 3.246174 1_565
Mg2_7 Mg4_2 3.246174 1_556
Mg2_7 Mg4_3 3.246174 1_555
Mg2_7 Mg4_5 3.246174 1_565
Mg2_7 Mg4_4 3.246174 1_566
Mg3_0 Mg4_2 3.172356 1_555
Mg3_0 Mg4_4 3.172356 1_455
Mg3_0 Mg3_6 3.216438 1_555
Mg3_0 Mg3_6 3.216438 1_445
Mg3_1 Mg4_3 3.172356 1_555
Mg3_1 Mg4_5 3.172356 1_455
Mg3_1 Mg3_7 3.216438 1_555
Mg3_1 Mg3_7 3.216438 1_445
Mg3_2 Mg4_0 3.172356 1_565
Mg3_2 Mg4_6 3.172356 1_455
Mg3_2 Mg3_4 3.216438 1_565
Mg3_2 Mg3_4 3.216438 1_455
Mg3_3 Mg4_1 3.172356 1_565
Mg3_3 Mg4_7 3.172356 1_455
Mg3_3 Mg3_5 3.216438 1_565
Mg3_3 Mg3_5 3.216438 1_455
Mg3_4 Mg4_6 3.172356 1_555
Mg3_4 Mg4_0 3.172356 1_555
Mg3_5 Mg4_7 3.172356 1_555
Mg3_5 Mg4_1 3.172356 1_555
Mg3_6 Mg4_4 3.172356 1_565
Mg3_6 Mg4_2 3.172356 1_555
Mg3_7 Mg4_5 3.172356 1_565
Mg3_7 Mg4_3 3.172356 1_555
Mg4_0 Mg4_6 3.216438 1_555
Mg4_0 Mg4_6 3.216438 1_445
Mg4_1 Mg4_7 3.216438 1_555
Mg4_1 Mg4_7 3.216438 1_445
Mg4_2 Mg4_4 3.216438 1_565
Mg4_2 Mg4_4 3.216438 1_455
Mg4_3 Mg4_5 3.216438 1_565
Mg4_3 Mg4_5 3.216438 1_455
