# generated using pymatgen
data_CaB4
_symmetry_space_group_name_H-M   'P 1'
_cell_length_a   4.09229450
_cell_length_b   7.15385602
_cell_length_c   7.15385602
_cell_angle_alpha   90.00000000
_cell_angle_beta   90.00000000
_cell_angle_gamma   90.00000000
_symmetry_Int_Tables_number   1
_chemical_formula_structural   CaB4
_chemical_formula_sum   'Ca4 B16'
_cell_volume   209.43403999
_cell_formula_units_Z   4
loop_
 _symmetry_equiv_pos_site_id
 _symmetry_equiv_pos_as_xyz
  1  'x, y, z'
loop_
 _atom_site_type_symbol
 _atom_site_label
 _atom_site_symmetry_multiplicity
 _atom_site_fract_x
 _atom_site_fract_y
 _atom_site_fract_z
 _atom_site_occupancy
  Ca  Ca0  1  0.50000000  0.18607859  0.68607859  1
  Ca  Ca1  1  0.50000000  0.81392141  0.31392141  1
  Ca  Ca2  1  0.50000000  0.31392141  0.18607859  1
  Ca  Ca3  1  0.50000000  0.68607859  0.81392141  1
  B  B0  1  0.29386157  -0.00000000  0.00000000  1
  B  B1  1  0.70613843  0.00000000  0.00000000  1
  B  B2  1  0.70613843  0.50000000  0.50000000  1
  B  B3  1  0.29386157  0.50000000  0.50000000  1
  B  B4  1  -0.00000000  0.03595806  0.17500757  1
  B  B5  1  0.00000000  0.96404194  0.82499243  1
  B  B6  1  0.00000000  0.82499243  0.03595806  1
  B  B7  1  0.00000000  0.46404194  0.67500757  1
  B  B8  1  -0.00000000  0.17500757  0.96404194  1
  B  B9  1  -0.00000000  0.53595806  0.32499243  1
  B  B10  1  -0.00000000  0.67500757  0.53595806  1
  B  B11  1  0.00000000  0.32499243  0.46404194  1
  B  B12  1  -0.00000000  0.58527633  0.08527633  1
  B  B13  1  0.00000000  0.41472367  0.91472367  1
  B  B14  1  0.00000000  0.91472367  0.58527633  1
  B  B15  1  -0.00000000  0.08527633  0.41472367  1
loop_
_geom_bond_atom_site_label_1
_geom_bond_atom_site_label_2
_geom_bond_distance
_geom_bond_site_symmetry_2
B0 B1 1.687158 1_555
B0 B6 1.754934 1_545
B0 B5 1.754934 1_544
B0 B4 1.754934 1_555
B0 B8 1.754934 1_554
B0 Ca0 2.743547 1_554
B0 Ca3 2.743547 1_544
B0 Ca1 2.743547 1_545
B0 Ca2 2.743547 1_555
B1 B4 1.754934 1_655
B1 B6 1.754934 1_645
B1 B8 1.754934 1_654
B1 B5 1.754934 1_644
B1 Ca0 2.743547 1_554
B1 Ca3 2.743547 1_544
B1 Ca1 2.743547 1_545
B1 Ca2 2.743547 1_555
B2 B3 1.687158 1_555
B2 B7 1.754934 1_655
B2 B9 1.754934 1_655
B2 Ca2 2.743547 1_555
B2 Ca0 2.743547 1_555
B2 Ca3 2.743547 1_555
B2 Ca1 2.743547 1_555
B3 B9 1.754934 1_555
B3 B7 1.754934 1_555
B3 Ca2 2.743547 1_555
B3 Ca0 2.743547 1_555
B3 Ca3 2.743547 1_555
B3 Ca1 2.743547 1_555
B4 B6 1.807553 1_545
B4 B8 1.807553 1_554
B4 Ca1 2.774413 1_545
B4 Ca1 2.774413 1_445
B4 Ca2 2.854323 1_455
B4 Ca2 2.854323 1_555
B5 B6 1.807553 1_556
B5 B8 1.807553 1_565
B5 Ca0 2.774413 1_565
B5 Ca0 2.774413 1_465
B5 Ca3 2.854323 1_455
B5 Ca3 2.854323 1_555
B6 Ca3 2.774413 1_554
B6 Ca3 2.774413 1_454
B6 Ca1 2.854323 1_455
B6 Ca1 2.854323 1_555
B7 Ca3 2.774413 1_455
B7 Ca3 2.774413 1_555
B7 Ca0 2.854323 1_455
B7 Ca0 2.854323 1_555
B8 Ca2 2.774413 1_456
B8 Ca2 2.774413 1_556
B8 Ca0 2.854323 1_455
B8 Ca0 2.854323 1_555
B9 Ca2 2.774413 1_555
B9 Ca2 2.774413 1_455
B9 Ca1 2.854323 1_455
B9 Ca1 2.854323 1_555
B10 B14 1.750812 1_555
B10 B2 1.754934 1_455
B10 B3 1.754934 1_555
B10 B9 1.807553 1_555
B10 B7 1.807553 1_555
B10 Ca1 2.774413 1_555
B10 Ca1 2.774413 1_455
B10 Ca3 2.854323 1_455
B10 Ca3 2.854323 1_555
B11 B15 1.750812 1_555
B11 B2 1.754934 1_455
B11 B3 1.754934 1_555
B11 B9 1.807553 1_555
B11 B7 1.807553 1_555
B11 Ca0 2.774413 1_455
B11 Ca0 2.774413 1_555
B11 Ca2 2.854323 1_555
B11 Ca2 2.854323 1_455
B12 B13 1.725495 1_554
B12 B6 1.750812 1_555
B12 B9 1.750812 1_555
B12 Ca3 2.911208 1_454
B12 Ca3 2.911208 1_554
B12 Ca2 2.911208 1_455
B12 Ca2 2.911208 1_555
B12 Ca1 3.088318 1_555
B12 Ca1 3.088318 1_455
B13 B8 1.750812 1_555
B13 B7 1.750812 1_555
B13 Ca2 2.911208 1_456
B13 Ca2 2.911208 1_556
B13 Ca3 2.911208 1_455
B13 Ca3 2.911208 1_555
B13 Ca0 3.088318 1_455
B13 Ca0 3.088318 1_555
B14 B15 1.725495 1_565
B14 B5 1.750812 1_555
B14 Ca1 2.911208 1_455
B14 Ca0 2.911208 1_465
B14 Ca1 2.911208 1_555
B14 Ca0 2.911208 1_565
B14 Ca3 3.088318 1_455
B14 Ca3 3.088318 1_555
B15 B4 1.750812 1_555
B15 Ca1 2.911208 1_545
B15 Ca1 2.911208 1_445
B15 Ca0 2.911208 1_455
B15 Ca0 2.911208 1_555
B15 Ca2 3.088318 1_555
B15 Ca2 3.088318 1_455
