# generated using pymatgen
data_Na14Fe2O9
_symmetry_space_group_name_H-M   'P 1'
_cell_length_a   6.72176404
_cell_length_b   9.42555618
_cell_length_c   11.57242279
_cell_angle_alpha   89.33929365
_cell_angle_beta   89.61762530
_cell_angle_gamma   90.25165081
_symmetry_Int_Tables_number   1
_chemical_formula_structural   Na14Fe2O9
_chemical_formula_sum   'Na28 Fe4 O18'
_cell_volume   733.11424137
_cell_formula_units_Z   2
loop_
 _symmetry_equiv_pos_site_id
 _symmetry_equiv_pos_as_xyz
  1  'x, y, z'
loop_
 _atom_site_type_symbol
 _atom_site_label
 _atom_site_symmetry_multiplicity
 _atom_site_fract_x
 _atom_site_fract_y
 _atom_site_fract_z
 _atom_site_occupancy
  Na  Na0  1  0.49953900  0.25196500  0.49983100  1
  Na  Na1  1  0.99955500  0.25199600  0.99989800  1
  Na  Na2  1  0.50018900  0.74808300  0.49982000  1
  Na  Na3  1  0.00022200  0.74809000  0.99988600  1
  Na  Na4  1  0.66014400  0.90827200  0.02015900  1
  Na  Na5  1  0.16016100  0.90827400  0.52014500  1
  Na  Na6  1  0.19962400  0.90755200  0.16128600  1
  Na  Na7  1  0.69963000  0.90753900  0.66126000  1
  Na  Na8  1  0.64280600  0.90785200  0.31983400  1
  Na  Na9  1  0.14255000  0.90793700  0.81984600  1
  Na  Na10  1  0.86050900  0.09133900  0.18068600  1
  Na  Na11  1  0.36068800  0.09127500  0.68066000  1
  Na  Na12  1  0.30196300  0.09228300  0.33886500  1
  Na  Na13  1  0.80186500  0.09223100  0.83896100  1
  Na  Na14  1  0.84144200  0.09262800  0.48079500  1
  Na  Na15  1  0.34136000  0.09259100  0.98073900  1
  Na  Na16  1  0.77723100  0.59041600  0.15461800  1
  Na  Na17  1  0.27724100  0.59049000  0.65464700  1
  Na  Na18  1  0.34402400  0.59269300  0.03077000  1
  Na  Na19  1  0.84409500  0.59275100  0.53072800  1
  Na  Na20  1  0.12085300  0.40844400  0.18801000  1
  Na  Na21  1  0.62058200  0.40849600  0.68803400  1
  Na  Na22  1  0.37629500  0.59256900  0.31199800  1
  Na  Na23  1  0.87663900  0.59247300  0.81199200  1
  Na  Na24  1  0.15513500  0.40734200  0.46907800  1
  Na  Na25  1  0.65496200  0.40721400  0.96923400  1
  Na  Na26  1  0.72074000  0.40853200  0.34430100  1
  Na  Na27  1  0.22063400  0.40841400  0.84422900  1
  Fe  Fe0  1  0.99787600  0.25953300  0.66784700  1
  Fe  Fe1  1  0.50133100  0.74043800  0.83158200  1
  Fe  Fe2  1  0.49835600  0.25941200  0.16814000  1
  Fe  Fe3  1  0.00061900  0.74029700  0.33164100  1
  O  O0  1  0.00129800  0.00000800  0.00000200  1
  O  O1  1  0.50131400  0.00003300  0.50022200  1
  O  O2  1  0.50274200  0.04115400  0.16517600  1
  O  O3  1  0.00318500  0.04107200  0.66551400  1
  O  O4  1  0.00124600  0.95891200  0.33576600  1
  O  O5  1  0.50073400  0.95885600  0.83567500  1
  O  O6  1  0.79354100  0.33457200  0.15333500  1
  O  O7  1  0.29397000  0.33434000  0.65323900  1
  O  O8  1  0.32909000  0.33669200  0.02809200  1
  O  O9  1  0.82939500  0.33700300  0.52848100  1
  O  O10  1  0.12179400  0.66096200  0.18000500  1
  O  O11  1  0.62207000  0.66079700  0.68029500  1
  O  O12  1  0.37492400  0.33956300  0.31916100  1
  O  O13  1  0.87443900  0.33943500  0.81903500  1
  O  O14  1  0.16936900  0.66503400  0.47276000  1
  O  O15  1  0.66939800  0.66487100  0.97240600  1
  O  O16  1  0.70668200  0.66349700  0.34558300  1
  O  O17  1  0.20614900  0.66377900  0.84553200  1
loop_
_geom_bond_atom_site_label_1
_geom_bond_atom_site_label_2
_geom_bond_distance
_geom_bond_site_symmetry_2
Na0 O1 2.374634 1_555
Na0 O9 2.380913 1_555
Na0 O7 2.381669 1_555
Na0 O12 2.396744 1_555
Na1 O0 2.375194 1_656
Na1 O8 2.377045 1_656
Na1 O6 2.384284 1_556
Na1 O13 2.399389 1_555
Na2 O1 2.374806 1_565
Na2 O14 2.378084 1_555
Na2 O11 2.387289 1_555
Na2 O16 2.399479 1_555
Na3 O0 2.374462 1_566
Na3 O15 2.379327 1_455
Na3 O10 2.382463 1_556
Na3 O17 2.397413 1_555
Na4 O2 2.353910 1_565
Na4 O15 2.366980 1_554
Na4 O5 2.438222 1_554
Na4 O0 2.455894 1_665
Na5 O3 2.355123 1_565
Na5 O14 2.364458 1_555
Na5 O4 2.435770 1_555
Na5 O1 2.455735 1_565
Na6 O10 2.387245 1_555
Na6 O2 2.391473 1_565
Na6 O0 2.454813 1_565
Na6 O4 2.466112 1_555
Na7 O11 2.388537 1_555
Na7 O3 2.393763 1_665
Na7 O1 2.452739 1_565
Na7 O5 2.467282 1_555
Na8 O16 2.360583 1_555
Na8 O2 2.376830 1_565
Na8 O1 2.457603 1_565
Na8 O4 2.463405 1_655
Na9 O17 2.358340 1_555
Na9 O3 2.371288 1_565
Na9 O0 2.454322 1_566
Na9 O5 2.461369 1_555
Na10 O6 2.356499 1_555
Na10 O4 2.378037 1_645
Na10 O0 2.455803 1_655
Na10 O2 2.457006 1_555
Na11 O7 2.354731 1_555
Na11 O5 2.375554 1_545
Na11 O1 2.452654 1_555
Na11 O3 2.454960 1_555
Na12 O4 2.376366 1_545
Na12 O12 2.387703 1_555
Na12 O1 2.458573 1_555
Na12 O2 2.466899 1_555
Na13 O5 2.378806 1_545
Na13 O13 2.386699 1_555
Na13 O0 2.456014 1_656
Na13 O3 2.466657 1_655
Na14 O4 2.365530 1_645
Na14 O9 2.376333 1_555
Na14 O3 2.449363 1_655
Na14 O1 2.451596 1_555
Na15 O5 2.364612 1_545
Na15 O8 2.372943 1_556
Na15 O2 2.445206 1_556
Na15 O0 2.450990 1_556
Na16 O15 2.335583 1_554
Na16 O16 2.367939 1_555
Na16 O6 2.414656 1_555
Na16 O10 2.427488 1_655
Na17 O14 2.332522 1_555
Na17 O17 2.368383 1_555
Na17 O7 2.417704 1_555
Na17 O11 2.428979 1_555
Na18 O10 2.372264 1_555
Na18 O15 2.378861 1_554
Na18 O8 2.415163 1_555
Na18 O17 2.429386 1_554
Na19 O11 2.373604 1_555
Na19 O14 2.377268 1_655
Na19 O9 2.412605 1_555
Na19 O16 2.426376 1_555
Na20 O6 2.343311 1_455
Na20 O12 2.379757 1_555
Na20 O10 2.380836 1_555
Na20 O8 2.417451 1_555
Na21 O7 2.339939 1_555
Na21 O13 2.378064 1_555
Na21 O11 2.378705 1_555
Na21 O9 2.415744 1_555
Na22 O16 2.352519 1_555
Na22 O12 2.385182 1_555
Na22 O10 2.386858 1_555
Na22 O14 2.421852 1_555
Na23 O17 2.347874 1_655
Na23 O11 2.384819 1_555
Na23 O13 2.385454 1_555
Na23 O15 2.419787 1_555
Na24 O12 2.366493 1_555
Na24 O9 2.379681 1_455
Na24 O7 2.425837 1_555
Na24 O14 2.431230 1_555
Na25 O13 2.367583 1_555
Na25 O8 2.379209 1_556
Na25 O6 2.423622 1_556
Na25 O15 2.430782 1_555
Na26 O9 2.350070 1_555
Na26 O6 2.373469 1_555
Na26 O16 2.405671 1_555
Na26 O12 2.431176 1_555
Na27 O8 2.346829 1_556
Na27 O7 2.374783 1_555
Na27 O17 2.409570 1_555
Na27 O13 2.433717 1_455
Fe0 O3 2.060067 1_655
Fe0 O13 2.081648 1_555
Fe0 O9 2.102697 1_555
Fe0 O7 2.113614 1_655
Fe1 O5 2.059823 1_555
Fe1 O11 2.074608 1_555
Fe1 O15 2.108142 1_555
Fe1 O17 2.113152 1_555
Fe2 O2 2.058222 1_555
Fe2 O12 2.080886 1_555
Fe2 O6 2.109133 1_555
Fe2 O8 2.111020 1_555
Fe3 O4 2.061658 1_555
Fe3 O10 2.078086 1_555
Fe3 O16 2.105757 1_455
Fe3 O14 2.112327 1_555
