# generated using pymatgen
data_Mn5Cr3O16
_symmetry_space_group_name_H-M   'P 1'
_cell_length_a   5.83421900
_cell_length_b   5.84056322
_cell_length_c   19.35827538
_cell_angle_alpha   98.60148437
_cell_angle_beta   90.07533470
_cell_angle_gamma   119.91765303
_symmetry_Int_Tables_number   1
_chemical_formula_structural   Mn5Cr3O16
_chemical_formula_sum   'Mn10 Cr6 O32'
_cell_volume   563.08211319
_cell_formula_units_Z   2
loop_
 _symmetry_equiv_pos_site_id
 _symmetry_equiv_pos_as_xyz
  1  'x, y, z'
loop_
 _atom_site_type_symbol
 _atom_site_label
 _atom_site_symmetry_multiplicity
 _atom_site_fract_x
 _atom_site_fract_y
 _atom_site_fract_z
 _atom_site_occupancy
  Mn  Mn0  1  0.75003000  0.62506300  0.62498900  1
  Mn  Mn1  1  0.24995100  0.87504400  0.87504800  1
  Mn  Mn2  1  0.49990600  0.99982100  0.99998700  1
  Mn  Mn3  1  0.99950800  0.74957400  0.75025200  1
  Mn  Mn4  1  0.75001100  0.87494600  0.87502700  1
  Mn  Mn5  1  0.50060300  0.50066000  0.49974400  1
  Mn  Mn6  1  0.75017100  0.37596500  0.37508200  1
  Mn  Mn7  1  0.24975200  0.12395000  0.12491900  1
  Mn  Mn8  1  0.25071400  0.37589700  0.37505700  1
  Mn  Mn9  1  0.74922100  0.12396700  0.12491900  1
  Cr  Cr0  1  0.74968200  0.37475400  0.87506900  1
  Cr  Cr1  1  0.25011800  0.62511500  0.62498700  1
  Cr  Cr2  1  0.25004700  0.12503400  0.62494600  1
  Cr  Cr3  1  0.75017500  0.87521500  0.37518200  1
  Cr  Cr4  1  0.00002800  0.25008200  0.24999300  1
  Cr  Cr5  1  0.25015300  0.62495100  0.12475700  1
  O  O0  1  0.39657000  0.16706300  0.93381400  1
  O  O1  1  0.83630400  0.16680000  0.93392000  1
  O  O2  1  0.88324300  0.69210400  0.92609100  1
  O  O3  1  0.66305400  0.58298500  0.81633100  1
  O  O4  1  0.10314400  0.58275700  0.81632800  1
  O  O5  1  0.10191500  0.02106200  0.81638000  1
  O  O6  1  0.39787900  0.72920000  0.93379700  1
  O  O7  1  0.89649800  0.48022700  0.68429300  1
  O  O8  1  0.83704700  0.66782900  0.43370200  1
  O  O9  1  0.33493200  0.91776400  0.68414400  1
  O  O10  1  0.61670400  0.05781000  0.82395900  1
  O  O11  1  0.11587700  0.80739900  0.57416400  1
  O  O12  1  0.38417500  0.44267500  0.67576800  1
  O  O13  1  0.60363600  0.76997200  0.56571600  1
  O  O14  1  0.10367000  0.08421900  0.31656100  1
  O  O15  1  0.60375900  0.33341600  0.56620800  1
  O  O16  1  0.89645700  0.91681400  0.68372500  1
  O  O17  1  0.39742700  0.66793500  0.43371700  1
  O  O18  1  0.39807200  0.22911300  0.43383400  1
  O  O19  1  0.61667300  0.55767000  0.32379800  1
  O  O20  1  0.66426500  0.08432100  0.31647300  1
  O  O21  1  0.88356900  0.19258300  0.42593300  1
  O  O22  1  0.38315700  0.94199600  0.17616700  1
  O  O23  1  0.16518400  0.33247100  0.56579100  1
  O  O24  1  0.60199600  0.27056600  0.06605100  1
  O  O25  1  0.10216000  0.52188900  0.31716800  1
  O  O26  1  0.89629700  0.41575100  0.18345100  1
  O  O27  1  0.89781500  0.97797900  0.18279000  1
  O  O28  1  0.11652100  0.30765100  0.07413200  1
  O  O29  1  0.33578100  0.41547200  0.18354400  1
  O  O30  1  0.16358500  0.83238000  0.06610000  1
  O  O31  1  0.60255900  0.83208400  0.06619600  1
loop_
_geom_bond_atom_site_label_1
_geom_bond_atom_site_label_2
_geom_bond_distance
_geom_bond_site_symmetry_2
Mn0 O16 1.700603 1_555
Mn0 O15 1.700658 1_555
Mn0 O13 1.941993 1_555
Mn0 O7 1.942352 1_555
Mn0 O12 2.169719 1_555
Mn0 O11 2.170134 1_655
Mn1 O0 1.701926 1_565
Mn1 O4 1.702487 1_555
Mn1 O6 1.945339 1_555
Mn1 O5 1.945497 1_565
Mn1 O2 2.176317 1_455
Mn1 O10 2.176913 1_565
Mn2 O24 1.715926 1_566
Mn2 O6 1.716989 1_555
Mn2 O0 1.979446 1_565
Mn2 O31 1.979906 1_556
Mn2 O1 2.215649 1_565
Mn2 O30 2.216153 1_556
Mn3 O7 1.708908 1_555
Mn3 O5 1.719233 1_665
Mn3 O4 1.977214 1_655
Mn3 O16 1.983469 1_555
Mn3 O9 2.212995 1_655
Mn3 O3 2.215825 1_555
Mn4 O3 1.735565 1_555
Mn4 O1 1.737814 1_565
Mn4 O2 1.965585 1_555
Mn4 O10 1.966027 1_565
Mn4 O5 2.186451 1_665
Mn4 O6 2.188823 1_555
Mn5 O13 1.708918 1_555
Mn5 O18 1.716817 1_555
Mn5 O17 1.977040 1_555
Mn5 O15 1.982941 1_555
Mn5 O23 2.212213 1_555
Mn5 O8 2.215610 1_555
Mn6 O8 1.734494 1_555
Mn6 O20 1.734569 1_555
Mn6 O19 1.963698 1_555
Mn6 O21 1.966403 1_555
Mn6 O25 2.178640 1_655
Mn6 O18 2.188477 1_555
Mn7 O29 1.734055 1_555
Mn7 O30 1.736008 1_545
Mn7 O22 1.964112 1_545
Mn7 O28 1.966556 1_555
Mn7 O27 2.177935 1_445
Mn7 O24 2.190407 1_555
Mn8 O14 1.697933 1_555
Mn8 O17 1.700937 1_555
Mn8 O25 1.937646 1_555
Mn8 O18 1.947596 1_555
Mn8 O19 2.174842 1_555
Mn8 O21 2.176644 1_455
Mn9 O26 1.698697 1_555
Mn9 O31 1.700978 1_545
Mn9 O27 1.937559 1_545
Mn9 O24 1.947421 1_555
Mn9 O22 2.175259 1_545
Mn9 O28 2.176554 1_655
Cr0 O10 1.739272 1_555
Cr0 O2 1.740082 1_555
Cr0 O3 2.013143 1_555
Cr0 O1 2.013241 1_555
Cr0 O0 2.221447 1_555
Cr0 O4 2.223032 1_655
Cr1 O9 1.745600 1_555
Cr1 O23 1.745819 1_555
Cr1 O12 1.963689 1_555
Cr1 O11 1.964136 1_555
Cr1 O13 2.200492 1_555
Cr1 O7 2.201328 1_455
Cr2 O11 1.739158 1_545
Cr2 O12 1.739519 1_555
Cr2 O9 2.008856 1_545
Cr2 O23 2.009027 1_555
Cr2 O16 2.224162 1_445
Cr2 O15 2.224309 1_555
Cr3 O21 1.738112 1_565
Cr3 O19 1.743840 1_555
Cr3 O8 2.007150 1_555
Cr3 O20 2.014628 1_565
Cr3 O17 2.217254 1_555
Cr3 O14 2.222722 1_665
Cr4 O25 1.732954 1_555
Cr4 O27 1.734326 1_445
Cr4 O26 1.979067 1_455
Cr4 O14 1.979983 1_555
Cr4 O29 2.217138 1_555
Cr4 O20 2.217744 1_455
Cr5 O28 1.736706 1_555
Cr5 O22 1.742088 1_555
Cr5 O30 2.008111 1_555
Cr5 O29 2.016486 1_555
Cr5 O31 2.216106 1_555
Cr5 O26 2.225127 1_455
