# generated using pymatgen
data_Dy3Al
_symmetry_space_group_name_H-M   'P 1'
_cell_length_a   6.81222773
_cell_length_b   6.81222773
_cell_length_c   5.26544116
_cell_angle_alpha   90.00000000
_cell_angle_beta   90.00000000
_cell_angle_gamma   120.00000708
_symmetry_Int_Tables_number   1
_chemical_formula_structural   Dy3Al
_chemical_formula_sum   'Dy6 Al2'
_cell_volume   211.61365101
_cell_formula_units_Z   2
loop_
 _symmetry_equiv_pos_site_id
 _symmetry_equiv_pos_as_xyz
  1  'x, y, z'
loop_
 _atom_site_type_symbol
 _atom_site_label
 _atom_site_symmetry_multiplicity
 _atom_site_fract_x
 _atom_site_fract_y
 _atom_site_fract_z
 _atom_site_occupancy
  Dy  Dy0  1  0.82443048  0.17556952  0.75000000  1
  Dy  Dy1  1  0.35114003  0.17556952  0.75000000  1
  Dy  Dy2  1  0.82443048  0.64885997  0.75000000  1
  Dy  Dy3  1  0.17556952  0.82443048  0.25000000  1
  Dy  Dy4  1  0.17556952  0.35114003  0.25000000  1
  Dy  Dy5  1  0.64885997  0.82443048  0.25000000  1
  Al  Al0  1  0.66666700  0.33333300  0.25000000  1
  Al  Al1  1  0.33333300  0.66666700  0.75000000  1
loop_
_geom_bond_atom_site_label_1
_geom_bond_atom_site_label_2
_geom_bond_distance
_geom_bond_site_symmetry_2
Dy0 Dy1 3.224162 1_555
Dy0 Dy2 3.224162 1_555
Dy0 Dy5 3.350016 1_546
Dy0 Dy5 3.350016 1_545
Dy0 Dy4 3.350016 1_655
Dy0 Dy4 3.350016 1_656
Dy0 Dy2 3.588065 1_545
Dy0 Dy1 3.588065 1_655
Dy1 Dy2 3.224162 1_555
Dy1 Dy3 3.350016 1_546
Dy1 Dy3 3.350016 1_545
Dy1 Dy4 3.350023 1_555
Dy1 Dy4 3.350023 1_556
Dy1 Dy2 3.588065 1_445
Dy2 Dy3 3.350016 1_655
Dy2 Dy3 3.350016 1_656
Dy2 Dy5 3.350023 1_556
Dy2 Dy5 3.350023 1_555
Dy3 Dy4 3.224162 1_555
Dy3 Dy5 3.224162 1_555
Dy3 Dy5 3.588065 1_455
Dy3 Dy4 3.588065 1_565
Dy4 Dy5 3.224162 1_555
Dy4 Dy5 3.588065 1_445
Al0 Dy1 3.224328 1_554
Al0 Dy2 3.224328 1_555
Al0 Dy2 3.224328 1_554
Al0 Dy1 3.224328 1_555
Al0 Dy0 3.224328 1_554
Al0 Dy0 3.224328 1_555
Al0 Dy4 3.407727 1_655
Al0 Dy5 3.407727 1_545
Al0 Dy3 3.407733 1_655
Al0 Dy3 3.407733 1_545
Al0 Dy5 3.407740 1_555
Al0 Dy4 3.407740 1_555
Al1 Dy4 3.224328 1_556
Al1 Dy5 3.224328 1_555
Al1 Dy5 3.224328 1_556
Al1 Dy4 3.224328 1_555
Al1 Dy3 3.224328 1_556
Al1 Dy3 3.224328 1_555
Al1 Dy1 3.407727 1_565
Al1 Dy2 3.407727 1_455
Al1 Dy0 3.407733 1_455
Al1 Dy0 3.407733 1_565
Al1 Dy2 3.407740 1_555
Al1 Dy1 3.407740 1_555
