# generated using pymatgen
data_KCaBr3
_symmetry_space_group_name_H-M   'P 1'
_cell_length_a   7.58990711
_cell_length_b   8.05949747
_cell_length_c   10.97533155
_cell_angle_alpha   90.00000000
_cell_angle_beta   90.00000000
_cell_angle_gamma   90.00000000
_symmetry_Int_Tables_number   1
_chemical_formula_structural   KCaBr3
_chemical_formula_sum   'K4 Ca4 Br12'
_cell_volume   671.37021892
_cell_formula_units_Z   4
loop_
 _symmetry_equiv_pos_site_id
 _symmetry_equiv_pos_as_xyz
  1  'x, y, z'
loop_
 _atom_site_type_symbol
 _atom_site_label
 _atom_site_symmetry_multiplicity
 _atom_site_fract_x
 _atom_site_fract_y
 _atom_site_fract_z
 _atom_site_occupancy
  K  K0  1  0.02764502  0.42008870  0.25000000  1
  K  K1  1  0.97235498  0.57991130  0.75000000  1
  K  K2  1  0.52764502  0.07991130  0.75000000  1
  K  K3  1  0.47235498  0.92008870  0.25000000  1
  Ca  Ca0  1  0.00000000  0.00000000  -0.00000000  1
  Ca  Ca1  1  0.50000000  0.50000000  -0.00000000  1
  Ca  Ca2  1  0.00000000  0.00000000  0.50000000  1
  Ca  Ca3  1  0.50000000  0.50000000  0.50000000  1
  Br  Br0  1  0.30951529  0.19688087  0.05538442  1
  Br  Br1  1  0.69048471  0.80311913  0.94461558  1
  Br  Br2  1  0.80951529  0.30311913  0.94461558  1
  Br  Br3  1  0.69048471  0.80311913  0.55538442  1
  Br  Br4  1  0.19048471  0.69688087  0.05538442  1
  Br  Br5  1  0.30951529  0.19688087  0.44461558  1
  Br  Br6  1  0.19048471  0.69688087  0.44461558  1
  Br  Br7  1  0.80951529  0.30311913  0.55538442  1
  Br  Br8  1  0.61022903  0.53081304  0.25000000  1
  Br  Br9  1  0.38977097  0.46918696  0.75000000  1
  Br  Br10  1  0.11022903  0.96918696  0.75000000  1
  Br  Br11  1  0.88977097  0.03081304  0.25000000  1
loop_
_geom_bond_atom_site_label_1
_geom_bond_atom_site_label_2
_geom_bond_distance
_geom_bond_site_symmetry_2
Br0 Ca0 2.899312 1_555
Br0 Ca1 2.903087 1_555
Br0 K3 3.326621 1_545
Br0 K0 3.517878 1_555
Br0 K2 3.855325 1_554
Br1 Ca0 2.899312 1_666
Br1 Ca1 2.903087 1_556
Br1 K2 3.326621 1_565
Br1 K1 3.517878 1_555
Br1 K3 3.855325 1_556
Br2 Ca1 2.899312 1_556
Br2 Ca0 2.903087 1_656
Br2 K1 3.326621 1_555
Br2 K2 3.517878 1_555
Br2 K0 3.855325 1_656
Br3 Ca2 2.899312 1_665
Br3 Ca3 2.903087 1_555
Br3 K2 3.326621 1_565
Br3 K1 3.517878 1_555
Br3 K3 3.855325 1_555
Br4 Ca1 2.899312 1_555
Br4 Ca0 2.903087 1_565
Br4 K0 3.326621 1_555
Br4 K3 3.517878 1_555
Br4 K1 3.855325 1_454
Br5 Ca2 2.899312 1_555
Br5 Ca3 2.903087 1_555
Br5 K3 3.326621 1_545
Br5 K0 3.517878 1_555
Br5 K2 3.855325 1_555
Br6 Ca3 2.899312 1_555
Br6 Ca2 2.903087 1_565
Br6 K0 3.326621 1_555
Br6 K3 3.517878 1_555
Br6 K1 3.855325 1_455
Br7 Ca3 2.899312 1_555
Br7 Ca2 2.903087 1_655
Br7 K1 3.326621 1_555
Br7 K2 3.517878 1_555
Br7 K0 3.855325 1_655
Br8 Ca3 2.879277 1_555
Br8 Ca1 2.879277 1_555
Br8 K0 3.291430 1_655
Br8 K3 3.307284 1_555
Br9 Ca1 2.879277 1_556
Br9 Ca3 2.879277 1_555
Br9 K1 3.291430 1_455
Br9 K2 3.307284 1_555
Br10 Ca0 2.879277 1_566
Br10 Ca2 2.879277 1_565
Br10 K2 3.291430 1_565
Br10 K1 3.307284 1_455
Br11 Ca0 2.879277 1_655
Br11 Ca2 2.879277 1_655
Br11 K3 3.291430 1_545
Br11 K0 3.307284 1_655
