# generated using pymatgen
data_Li4MnCo2O7
_symmetry_space_group_name_H-M   'P 1'
_cell_length_a   5.12552050
_cell_length_b   5.12552050
_cell_length_c   17.62396863
_cell_angle_alpha   84.91080118
_cell_angle_beta   84.91080118
_cell_angle_gamma   33.02118496
_symmetry_Int_Tables_number   1
_chemical_formula_structural   Li4MnCo2O7
_chemical_formula_sum   'Li8 Mn2 Co4 O14'
_cell_volume   251.22841987
_cell_formula_units_Z   2
loop_
 _symmetry_equiv_pos_site_id
 _symmetry_equiv_pos_as_xyz
  1  'x, y, z'
loop_
 _atom_site_type_symbol
 _atom_site_label
 _atom_site_symmetry_multiplicity
 _atom_site_fract_x
 _atom_site_fract_y
 _atom_site_fract_z
 _atom_site_occupancy
  Li  Li0  1  0.28926200  0.28926200  0.92420300  1
  Li  Li1  1  0.85081600  0.85081600  0.78550400  1
  Li  Li2  1  0.43239700  0.43239700  0.63517000  1
  Li  Li3  1  0.99256400  0.99256400  0.49635800  1
  Li  Li4  1  0.57729700  0.57729700  0.35972800  1
  Li  Li5  1  0.14797100  0.14797100  0.22111400  1
  Li  Li6  1  0.71087100  0.71087100  0.07805800  1
  Li  Li7  1  0.27904600  0.27904600  0.42771900  1
  Mn  Mn0  1  0.99953300  0.99953300  0.00075300  1
  Mn  Mn1  1  0.14412200  0.14412200  0.71225900  1
  Co  Co0  1  0.56989100  0.56989100  0.85589100  1
  Co  Co1  1  0.71069700  0.71069700  0.55727500  1
  Co  Co2  1  0.85986500  0.85986500  0.29280000  1
  Co  Co3  1  0.43312700  0.43312700  0.14854800  1
  O  O0  1  0.37490100  0.37490100  0.03498000  1
  O  O1  1  0.93269500  0.93269500  0.90147000  1
  O  O2  1  0.51561300  0.51561300  0.74256600  1
  O  O3  1  0.08492500  0.08492500  0.61148900  1
  O  O4  1  0.63645400  0.63645400  0.46837900  1
  O  O5  1  0.23110100  0.23110100  0.31830100  1
  O  O6  1  0.80027300  0.80027300  0.18756800  1
  O  O7  1  0.20766900  0.20766900  0.81480600  1
  O  O8  1  0.76765300  0.76765300  0.68157700  1
  O  O9  1  0.34354100  0.34354100  0.53743300  1
  O  O10  1  0.92320900  0.92320900  0.38052400  1
  O  O11  1  0.49383100  0.49383100  0.25221900  1
  O  O12  1  0.06526100  0.06526100  0.10261400  1
  O  O13  1  0.62541700  0.62541700  0.97069300  1
loop_
_geom_bond_atom_site_label_1
_geom_bond_atom_site_label_2
_geom_bond_distance
_geom_bond_site_symmetry_2
Li0 O1 2.040852 1_455
Li0 O1 2.040852 1_545
Li0 O7 2.155552 1_555
Li0 O0 2.196386 1_556
Li0 O13 2.267622 1_455
Li0 O13 2.267622 1_545
Li1 O7 2.057523 1_655
Li1 O7 2.057523 1_565
Li1 O8 2.073614 1_555
Li1 O2 2.256327 1_655
Li1 O2 2.256327 1_565
Li1 O1 2.264726 1_555
Li2 O9 2.002019 1_555
Li2 O3 2.104162 1_655
Li2 O3 2.104162 1_565
Li2 O2 2.130224 1_555
Li2 O8 2.273180 1_455
Li2 O8 2.273180 1_545
Li3 O4 2.058122 1_655
Li3 O4 2.058122 1_565
Li3 O9 2.143556 1_565
Li3 O9 2.143556 1_655
Li3 O10 2.211261 1_555
Li3 O3 2.298251 1_665
Li4 O4 2.052012 1_555
Li4 O10 2.108770 1_455
Li4 O10 2.108770 1_545
Li4 O11 2.133210 1_555
Li4 O5 2.176161 1_565
Li4 O5 2.176161 1_655
Li5 O5 1.964752 1_555
Li5 O6 2.132653 1_545
Li5 O6 2.132653 1_455
Li5 O11 2.136277 1_455
Li5 O11 2.136277 1_545
Li5 O12 2.310096 1_555
Li6 O12 2.059743 1_655
Li6 O12 2.059743 1_565
Li6 O13 2.140063 1_554
Li6 O6 2.193348 1_555
Li6 O0 2.251824 1_655
Li6 O0 2.251824 1_565
Li7 O5 2.027028 1_555
Li7 O9 2.089832 1_555
Li7 O4 2.100835 1_455
Li7 O4 2.100835 1_545
Li7 O10 2.145485 1_455
Li7 O10 2.145485 1_545
Mn0 O1 1.925067 1_554
Mn0 O13 1.952411 1_654
Mn0 O13 1.952411 1_564
Mn0 O0 1.961983 1_565
Mn0 O0 1.961983 1_655
Mn0 O12 1.963322 1_665
Mn1 O3 1.919313 1_555
Mn1 O8 1.940814 1_545
Mn1 O8 1.940814 1_455
Mn1 O7 1.966018 1_555
Mn1 O2 1.969136 1_545
Mn1 O2 1.969136 1_455
Co0 O7 2.073238 1_655
Co0 O7 2.073238 1_565
Co0 O1 2.093999 1_545
Co0 O1 2.093999 1_455
Co0 O2 2.114401 1_555
Co0 O13 2.143769 1_555
Co1 O4 1.788445 1_555
Co1 O9 1.965777 1_565
Co1 O9 1.965777 1_655
Co1 O3 2.084268 1_655
Co1 O3 2.084268 1_565
Co1 O8 2.310719 1_555
Co2 O10 1.719288 1_555
Co2 O5 1.954511 1_655
Co2 O5 1.954511 1_565
Co2 O6 1.995895 1_555
Co2 O11 2.047597 1_565
Co2 O11 2.047597 1_655
Co3 O11 1.973814 1_555
Co3 O6 2.033099 1_545
Co3 O6 2.033099 1_455
Co3 O12 2.066185 1_565
Co3 O12 2.066185 1_655
Co3 O0 2.132021 1_555
