# generated using pymatgen
data_Li7Mn2(CoO4)3
_symmetry_space_group_name_H-M   'P 1'
_cell_length_a   5.07115757
_cell_length_b   5.07115757
_cell_length_c   9.85221601
_cell_angle_alpha   84.89940143
_cell_angle_beta   84.89940143
_cell_angle_gamma   120.14086974
_symmetry_Int_Tables_number   1
_chemical_formula_structural   Li7Mn2(CoO4)3
_chemical_formula_sum   'Li7 Mn2 Co3 O12'
_cell_volume   215.60260112
_cell_formula_units_Z   1
loop_
 _symmetry_equiv_pos_site_id
 _symmetry_equiv_pos_as_xyz
  1  'x, y, z'
loop_
 _atom_site_type_symbol
 _atom_site_label
 _atom_site_symmetry_multiplicity
 _atom_site_fract_x
 _atom_site_fract_y
 _atom_site_fract_z
 _atom_site_occupancy
  Li  Li0  1  0.08868800  0.41760600  0.74598000  1
  Li  Li1  1  0.25553700  0.25553700  0.25143600  1
  Li  Li2  1  0.41760600  0.08868800  0.74598000  1
  Li  Li3  1  0.74446300  0.74446300  0.74856400  1
  Li  Li4  1  0.91131200  0.58239400  0.25402000  1
  Li  Li5  1  0.58239400  0.91131200  0.25402000  1
  Li  Li6  1  0.50000000  0.50000000  0.50000000  1
  Mn  Mn0  1  0.83411900  0.16588100  0.50000000  1
  Mn  Mn1  1  0.16588100  0.83411900  0.50000000  1
  Co  Co0  1  0.00000000  0.00000000  0.00000000  1
  Co  Co1  1  0.33458900  0.66541100  0.00000000  1
  Co  Co2  1  0.66541100  0.33458900  0.00000000  1
  O  O0  1  0.82070600  0.46249700  0.61157500  1
  O  O1  1  0.97156200  0.29471900  0.11362700  1
  O  O2  1  0.10238700  0.10238700  0.61146000  1
  O  O3  1  0.46249700  0.82070600  0.61157500  1
  O  O4  1  0.62895300  0.62895300  0.11792300  1
  O  O5  1  0.29471900  0.97156200  0.11362700  1
  O  O6  1  0.37104700  0.37104700  0.88207700  1
  O  O7  1  0.53750300  0.17929400  0.38842500  1
  O  O8  1  0.70528100  0.02843800  0.88637300  1
  O  O9  1  0.02843800  0.70528100  0.88637300  1
  O  O10  1  0.17929400  0.53750300  0.38842500  1
  O  O11  1  0.89761300  0.89761300  0.38854000  1
loop_
_geom_bond_atom_site_label_1
_geom_bond_atom_site_label_2
_geom_bond_distance
_geom_bond_site_symmetry_2
Li0 O0 2.056497 1_455
Li0 O6 2.128041 1_555
Li0 O3 2.169435 1_555
Li0 O8 2.184336 1_455
Li0 O2 2.188249 1_555
Li0 O9 2.205913 1_555
Li1 O11 2.057481 1_445
Li1 O4 2.101218 1_555
Li1 O1 2.131615 1_455
Li1 O5 2.131615 1_545
Li1 O10 2.195722 1_555
Li1 O7 2.195722 1_555
Li2 O3 2.056497 1_545
Li2 O6 2.128041 1_555
Li2 O0 2.169435 1_555
Li2 O9 2.184336 1_545
Li2 O2 2.188249 1_555
Li2 O8 2.205913 1_555
Li3 O2 2.057481 1_665
Li3 O6 2.101218 1_555
Li3 O9 2.131615 1_655
Li3 O8 2.131615 1_565
Li3 O0 2.195722 1_555
Li3 O3 2.195722 1_555
Li4 O10 2.056497 1_655
Li4 O4 2.128041 1_555
Li4 O7 2.169435 1_555
Li4 O5 2.184336 1_655
Li4 O11 2.188249 1_555
Li4 O1 2.205913 1_555
Li5 O7 2.056497 1_565
Li5 O4 2.128041 1_555
Li5 O10 2.169435 1_555
Li5 O1 2.184336 1_565
Li5 O11 2.188249 1_555
Li5 O5 2.205913 1_555
Li6 O2 2.113496 1_555
Li6 O11 2.113496 1_555
Li6 O7 2.116812 1_555
Li6 O10 2.116812 1_555
Li6 O3 2.116812 1_555
Li6 O0 2.116812 1_555
Mn0 O10 1.949519 1_655
Mn0 O3 1.949519 1_545
Mn0 O11 1.950128 1_545
Mn0 O2 1.950128 1_655
Mn0 O0 1.964444 1_555
Mn0 O7 1.964444 1_555
Mn1 O7 1.949519 1_565
Mn1 O0 1.949519 1_455
Mn1 O2 1.950128 1_565
Mn1 O11 1.950128 1_455
Mn1 O3 1.964444 1_555
Mn1 O10 1.964444 1_555
Co0 O8 1.998250 1_454
Co0 O1 1.998250 1_455
Co0 O5 1.998250 1_545
Co0 O9 1.998250 1_544
Co0 O4 2.024318 1_445
Co0 O6 2.024318 1_554
Co1 O1 1.989998 1_455
Co1 O8 1.989998 1_564
Co1 O6 2.039525 1_554
Co1 O4 2.039525 1_555
Co1 O5 2.070875 1_555
Co1 O9 2.070875 1_554
Co2 O5 1.989998 1_545
Co2 O9 1.989998 1_654
Co2 O6 2.039525 1_554
Co2 O4 2.039525 1_555
Co2 O1 2.070875 1_555
Co2 O8 2.070875 1_554
