# generated using pymatgen
data_Li7Mn4CoO12
_symmetry_space_group_name_H-M   'P 1'
_cell_length_a   2.86576100
_cell_length_b   14.79836330
_cell_length_c   5.30445515
_cell_angle_alpha   98.22215710
_cell_angle_beta   90.00000000
_cell_angle_gamma   84.44352031
_symmetry_Int_Tables_number   1
_chemical_formula_structural   Li7Mn4CoO12
_chemical_formula_sum   'Li7 Mn4 Co1 O12'
_cell_volume   221.57402589
_cell_formula_units_Z   1
loop_
 _symmetry_equiv_pos_site_id
 _symmetry_equiv_pos_as_xyz
  1  'x, y, z'
loop_
 _atom_site_type_symbol
 _atom_site_label
 _atom_site_symmetry_multiplicity
 _atom_site_fract_x
 _atom_site_fract_y
 _atom_site_fract_z
 _atom_site_occupancy
  Li  Li0  1  0.42084100  0.15831900  0.23615500  1
  Li  Li1  1  0.25016200  0.49967500  0.74700500  1
  Li  Li2  1  0.07742200  0.84515500  0.26998300  1
  Li  Li3  1  0.92188100  0.15623900  0.73115200  1
  Li  Li4  1  0.75076500  0.49846900  0.24884900  1
  Li  Li5  1  0.57921300  0.84157300  0.76561700  1
  Li  Li6  1  0.49966600  0.00066900  0.49973200  1
  Mn  Mn0  1  0.99959200  0.00081700  0.99906700  1
  Mn  Mn1  1  0.83422700  0.33154400  0.49702100  1
  Mn  Mn2  1  0.66675300  0.66649500  0.00369700  1
  Mn  Mn3  1  0.16604300  0.66791400  0.50463300  1
  Co  Co0  1  0.33339800  0.33320300  0.99555600  1
  O  O0  1  0.46191300  0.07617500  0.88609100  1
  O  O1  1  0.29553000  0.40894000  0.39216700  1
  O  O2  1  0.12909300  0.74181400  0.89634400  1
  O  O3  1  0.96182300  0.07635600  0.32987000  1
  O  O4  1  0.79660400  0.40679200  0.88658400  1
  O  O5  1  0.62788100  0.74423600  0.39484100  1
  O  O6  1  0.37204200  0.25591600  0.60949600  1
  O  O7  1  0.20611900  0.58776300  0.10628000  1
  O  O8  1  0.03733400  0.92533200  0.66980600  1
  O  O9  1  0.86905900  0.26188300  0.11090000  1
  O  O10  1  0.70538700  0.58922600  0.60479800  1
  O  O11  1  0.53725200  0.92549500  0.11435500  1
loop_
_geom_bond_atom_site_label_1
_geom_bond_atom_site_label_2
_geom_bond_distance
_geom_bond_site_symmetry_2
Li0 O3 1.982446 1_455
Li0 O3 1.982448 1_555
Li0 O0 2.065495 1_554
Li0 O9 2.261107 1_555
Li0 O9 2.261107 1_455
Li0 O6 2.273798 1_555
Li1 O7 2.145854 1_556
Li1 O1 2.146138 1_555
Li1 O10 2.155874 1_455
Li1 O10 2.155875 1_555
Li1 O4 2.182655 1_455
Li1 O4 2.182657 1_555
Li2 O11 2.101330 1_555
Li2 O11 2.101330 1_455
Li2 O5 2.232518 1_555
Li2 O5 2.232520 1_455
Li2 O8 2.274378 1_555
Li2 O2 2.319045 1_554
Li3 O0 2.097083 1_555
Li3 O0 2.097083 1_655
Li3 O6 2.212969 1_655
Li3 O6 2.212971 1_555
Li3 O3 2.279363 1_555
Li3 O9 2.361794 1_556
Li4 O10 2.150943 1_555
Li4 O7 2.154210 1_555
Li4 O7 2.154214 1_655
Li4 O1 2.158246 1_555
Li4 O1 2.158248 1_655
Li4 O4 2.184090 1_554
Li5 O8 2.003387 1_555
Li5 O8 2.003389 1_655
Li5 O11 2.071902 1_556
Li5 O2 2.232876 1_555
Li5 O2 2.232878 1_655
Li5 O5 2.261249 1_555
Li6 O8 2.094269 1_645
Li6 O8 2.094271 1_545
Li6 O3 2.096754 1_455
Li6 O3 2.096756 1_555
Li6 O11 2.180440 1_545
Li6 O0 2.186769 1_555
Mn0 O8 1.930938 1_645
Mn0 O3 1.938018 1_556
Mn0 O0 1.958413 1_655
Mn0 O0 1.958413 1_555
Mn0 O11 1.962872 1_646
Mn0 O11 1.962876 1_546
Mn1 O6 1.959815 1_555
Mn1 O6 1.959819 1_655
Mn1 O1 1.960660 1_555
Mn1 O1 1.960664 1_655
Mn1 O9 2.154945 1_555
Mn1 O4 2.200067 1_555
Mn2 O2 1.946699 1_654
Mn2 O2 1.946701 1_554
Mn2 O7 1.968583 1_555
Mn2 O7 1.968583 1_655
Mn2 O5 2.221081 1_555
Mn2 O10 2.253977 1_554
Mn3 O5 1.960645 1_555
Mn3 O5 1.960649 1_455
Mn3 O10 1.963581 1_455
Mn3 O10 1.963581 1_555
Mn3 O2 2.202754 1_555
Mn3 O7 2.267544 1_555
Co0 O9 1.927601 1_456
Co0 O9 1.927606 1_556
Co0 O4 1.934454 1_455
Co0 O4 1.934456 1_555
Co0 O6 2.195350 1_555
Co0 O1 2.235164 1_556
