# generated using pymatgen
data_Zr2Ir
_symmetry_space_group_name_H-M   'P 1'
_cell_length_a   5.43398630
_cell_length_b   5.43398630
_cell_length_c   5.43398630
_cell_angle_alpha   106.51053060
_cell_angle_beta   106.51053060
_cell_angle_gamma   115.57021463
_symmetry_Int_Tables_number   1
_chemical_formula_structural   Zr2Ir
_chemical_formula_sum   'Zr4 Ir2'
_cell_volume   122.45824095
_cell_formula_units_Z   2
loop_
 _symmetry_equiv_pos_site_id
 _symmetry_equiv_pos_as_xyz
  1  'x, y, z'
loop_
 _atom_site_type_symbol
 _atom_site_label
 _atom_site_symmetry_multiplicity
 _atom_site_fract_x
 _atom_site_fract_y
 _atom_site_fract_z
 _atom_site_occupancy
  Zr  Zr0  1  0.67397356  0.17397356  0.84794812  1
  Zr  Zr1  1  0.32602644  0.82602644  0.15205188  1
  Zr  Zr2  1  0.82602644  0.67397356  0.50000000  1
  Zr  Zr3  1  0.17397356  0.32602644  0.50000000  1
  Ir  Ir0  1  0.75000000  0.75000000  -0.00000000  1
  Ir  Ir1  1  0.25000000  0.25000000  -0.00000000  1
loop_
_geom_bond_atom_site_label_1
_geom_bond_atom_site_label_2
_geom_bond_distance
_geom_bond_site_symmetry_2
Zr0 Zr1 3.199348 1_545
Zr0 Zr1 3.216570 1_546
Zr0 Zr1 3.216580 1_656
Zr0 Zr2 3.397882 1_556
Zr0 Zr3 3.397882 1_656
Zr0 Zr2 3.397888 1_545
Zr0 Zr3 3.397888 1_555
Zr0 Zr2 3.675534 1_445
Zr0 Zr3 3.675534 1_545
Zr0 Zr2 3.675538 1_555
Zr0 Zr3 3.675538 1_655
Zr1 Zr2 3.397882 1_454
Zr1 Zr3 3.397882 1_554
Zr1 Zr2 3.397888 1_555
Zr1 Zr3 3.397888 1_565
Zr1 Zr2 3.675534 1_565
Zr1 Zr3 3.675534 1_665
Zr1 Zr2 3.675538 1_455
Zr1 Zr3 3.675538 1_555
Zr2 Zr3 3.199338 1_655
Zr2 Zr3 3.216579 1_555
Zr2 Zr3 3.216579 1_665
Ir0 Zr1 2.805480 1_555
Ir0 Zr0 2.805480 1_564
Ir0 Zr2 2.805482 1_555
Ir0 Zr2 2.805482 1_554
Ir0 Zr3 2.805482 1_554
Ir0 Zr3 2.805482 1_665
Ir0 Zr0 2.805483 1_554
Ir0 Zr1 2.805483 1_655
Ir0 Ir1 2.896837 1_665
Ir0 Ir1 2.896837 1_555
Ir1 Zr1 2.805480 1_545
Ir1 Zr0 2.805480 1_554
Ir1 Zr2 2.805482 1_555
Ir1 Zr3 2.805482 1_554
Ir1 Zr3 2.805482 1_555
Ir1 Zr2 2.805482 1_444
Ir1 Zr1 2.805483 1_555
Ir1 Zr0 2.805483 1_454
