# generated using pymatgen
data_MnPbN2
_symmetry_space_group_name_H-M   'P 1'
_cell_length_a   3.58098400
_cell_length_b   3.58098400
_cell_length_c   9.55558900
_cell_angle_alpha   90.00000000
_cell_angle_beta   90.00000000
_cell_angle_gamma   90.00000000
_symmetry_Int_Tables_number   1
_chemical_formula_structural   MnPbN2
_chemical_formula_sum   'Mn2 Pb2 N4'
_cell_volume   122.53558344
_cell_formula_units_Z   2
loop_
 _symmetry_equiv_pos_site_id
 _symmetry_equiv_pos_as_xyz
  1  'x, y, z'
loop_
 _atom_site_type_symbol
 _atom_site_label
 _atom_site_symmetry_multiplicity
 _atom_site_fract_x
 _atom_site_fract_y
 _atom_site_fract_z
 _atom_site_occupancy
  Mn  Mn0  1  0.75000000  0.75000000  0.57207400  1
  Mn  Mn1  1  0.25000000  0.25000000  0.42792600  1
  Pb  Pb0  1  0.75000000  0.75000000  0.14371000  1
  Pb  Pb1  1  0.25000000  0.25000000  0.85629000  1
  N  N0  1  0.75000000  0.25000000  0.50000000  1
  N  N1  1  0.25000000  0.75000000  0.50000000  1
  N  N2  1  0.75000000  0.75000000  0.74650500  1
  N  N3  1  0.25000000  0.25000000  0.25349500  1
loop_
_geom_bond_atom_site_label_1
_geom_bond_atom_site_label_2
_geom_bond_distance
_geom_bond_site_symmetry_2
Mn0 N2 1.666791 1_555
Mn0 N0 1.918380 1_565
Mn0 N1 1.918380 1_655
Mn0 N0 1.918380 1_555
Mn0 N1 1.918380 1_555
Mn1 N3 1.666791 1_555
Mn1 N0 1.918380 1_555
Mn1 N1 1.918380 1_545
Mn1 N0 1.918380 1_455
Mn1 N1 1.918380 1_555
N2 Pb1 2.740849 1_555
N2 Pb1 2.740849 1_665
N2 Pb1 2.740849 1_565
N2 Pb1 2.740849 1_655
N3 Pb0 2.740849 1_455
N3 Pb0 2.740849 1_445
N3 Pb0 2.740849 1_545
N3 Pb0 2.740849 1_555
