# generated using pymatgen
data_BN
_symmetry_space_group_name_H-M   'P 1'
_cell_length_a   11.33781958
_cell_length_b   10.12541027
_cell_length_c   10.88894963
_cell_angle_alpha   87.44317983
_cell_angle_beta   91.23247888
_cell_angle_gamma   86.59197960
_symmetry_Int_Tables_number   1
_chemical_formula_structural   BN
_chemical_formula_sum   'B50 N50'
_cell_volume   1246.23334775
_cell_formula_units_Z   50
loop_
 _symmetry_equiv_pos_site_id
 _symmetry_equiv_pos_as_xyz
  1  'x, y, z'
loop_
 _atom_site_type_symbol
 _atom_site_label
 _atom_site_symmetry_multiplicity
 _atom_site_fract_x
 _atom_site_fract_y
 _atom_site_fract_z
 _atom_site_occupancy
  B  B0  1  0.62018000  0.34425200  0.43903600  1
  B  B1  1  0.77878600  0.79874400  0.53982700  1
  B  B2  1  0.40051700  0.29092300  0.70433700  1
  B  B3  1  0.79502500  0.87094300  0.18330200  1
  B  B4  1  0.91512800  0.67014500  0.93212600  1
  B  B5  1  0.55350700  0.19444800  0.24032700  1
  B  B6  1  0.87617900  0.23354600  0.37347800  1
  B  B7  1  0.60944300  0.49239500  0.75147600  1
  B  B8  1  0.96869600  0.94295400  0.62367400  1
  B  B9  1  0.54749700  0.42498500  0.88156600  1
  B  B10  1  0.49469700  0.68909700  0.60770000  1
  B  B11  1  0.81616600  0.87428800  0.96679900  1
  B  B12  1  0.25208900  0.67647100  0.91167100  1
  B  B13  1  0.28151000  0.78467700  0.69254600  1
  B  B14  1  0.77498800  0.33223400  0.75557400  1
  B  B15  1  0.39427000  0.76690400  0.03313200  1
  B  B16  1  0.64710000  0.98203400  0.84137100  1
  B  B17  1  0.95385800  0.93534900  0.17801300  1
  B  B18  1  0.41789100  0.00306600  0.28266400  1
  B  B19  1  0.00769000  0.50252700  0.27066000  1
  B  B20  1  0.59325900  0.88995500  0.44691800  1
  B  B21  1  0.90708800  0.19219200  0.02614400  1
  B  B22  1  0.79291300  0.18521800  0.83207100  1
  B  B23  1  0.57426400  0.12305800  0.73008900  1
  B  B24  1  0.45686900  0.29565400  0.95773500  1
  B  B25  1  0.31269200  0.45217200  0.84041300  1
  B  B26  1  0.74360100  0.46837900  0.35440200  1
  B  B27  1  0.25887100  0.90061300  0.38348900  1
  B  B28  1  0.93122700  0.09274000  0.83483700  1
  B  B29  1  0.08734400  0.04319100  0.03158700  1
  B  B30  1  0.31740100  0.81688800  0.51570300  1
  B  B31  1  0.72074900  0.22812600  0.28740100  1
  B  B32  1  0.89555000  0.36147100  0.18966100  1
  B  B33  1  0.68172100  0.24372100  0.03568800  1
  B  B34  1  0.90023700  0.85816800  0.75834000  1
  B  B35  1  0.20089400  0.98851300  0.17216700  1
  B  B36  1  0.94490700  0.56515600  0.04238500  1
  B  B37  1  0.15818800  0.93000500  0.49717600  1
  B  B38  1  0.06289100  0.36146600  0.45967700  1
  B  B39  1  0.69529900  0.53998700  0.58745200  1
  B  B40  1  0.89648200  0.66268100  0.61272100  1
  B  B41  1  0.54530800  0.89616100  0.66128000  1
  B  B42  1  0.19019800  0.37411000  0.66685200  1
  B  B43  1  0.61490900  0.84402200  0.04520100  1
  B  B44  1  0.68656700  0.69485100  0.23162400  1
  B  B45  1  0.30844800  0.11521500  0.99677400  1
  B  B46  1  0.06128600  0.48308200  0.69515600  1
  B  B47  1  0.02302400  0.12109100  0.48501100  1
  B  B48  1  0.09881200  0.51480000  0.84927300  1
  B  B49  1  0.80359500  0.98116700  0.37188700  1
  N  N0  1  0.49994100  0.81227500  0.03366800  1
  N  N1  1  0.98509100  0.56929400  0.64328500  1
  N  N2  1  0.17931900  0.33743800  0.07914300  1
  N  N3  1  0.71736300  0.58365200  0.28571600  1
  N  N4  1  0.36940600  0.71596800  0.60474200  1
  N  N5  1  0.68830000  0.90141900  0.94676300  1
  N  N6  1  0.81333000  0.35077200  0.30204200  1
  N  N7  1  0.07047900  0.97360400  0.15312400  1
  N  N8  1  0.28874900  0.71534400  0.02902700  1
  N  N9  1  0.03770900  0.99391500  0.52237000  1
  N  N10  1  0.24868300  0.76011700  0.80713900  1
  N  N11  1  0.42794300  0.51107500  0.25171500  1
  N  N12  1  0.86770100  0.90198000  0.08171600  1
  N  N13  1  0.78943600  0.21459800  0.97088600  1
  N  N14  1  0.99774600  0.55653200  0.92308300  1
  N  N15  1  0.13448600  0.34202400  0.56731300  1
  N  N16  1  0.68615500  0.44486300  0.47675100  1
  N  N17  1  0.55722800  0.81481900  0.56806300  1
  N  N18  1  0.93446300  0.25254000  0.13294100  1
  N  N19  1  0.54044000  0.97643700  0.75424000  1
  N  N20  1  0.99218500  0.10371000  0.95051400  1
  N  N21  1  0.50033300  0.93093500  0.36770900  1
  N  N22  1  0.36476400  0.57183300  0.30480100  1
  N  N23  1  0.73128100  0.44766700  0.70849000  1
  N  N24  1  0.68935800  0.10369700  0.78936700  1
  N  N25  1  0.87856400  0.79388800  0.87215500  1
  N  N26  1  0.45818700  0.11561700  0.22581800  1
  N  N27  1  0.89677600  0.81834100  0.62285900  1
  N  N28  1  0.28882600  0.96066700  0.26989200  1
  N  N29  1  0.94664300  0.49834100  0.16214300  1
  N  N30  1  0.99048200  0.24166700  0.43746900  1
  N  N31  1  0.21693200  0.04802900  0.04595700  1
  N  N32  1  0.57320600  0.57864300  0.64726200  1
  N  N33  1  0.38955200  0.18460600  0.95240400  1
  N  N34  1  0.49887600  0.22786000  0.68032100  1
  N  N35  1  0.21570800  0.53620900  0.88027400  1
  N  N36  1  0.58309000  0.31240200  0.96819000  1
  N  N37  1  0.59690200  0.25564000  0.35746100  1
  N  N38  1  0.77598100  0.65769200  0.56950000  1
  N  N39  1  0.23222800  0.88586500  0.59596400  1
  N  N40  1  0.72469500  0.90022600  0.45336000  1
  N  N41  1  0.42194800  0.43359700  0.90752000  1
  N  N42  1  0.68209200  0.81517600  0.16692800  1
  N  N43  1  0.87353200  0.90832100  0.28518900  1
  N  N44  1  0.05169300  0.47244500  0.37987900  1
  N  N45  1  0.22607200  0.35370900  0.16685100  1
  N  N46  1  0.94720700  0.98840800  0.74201500  1
  N  N47  1  0.80417100  0.12702800  0.36511300  1
  N  N48  1  0.29915100  0.36814600  0.73340100  1
  N  N49  1  0.65987400  0.21059800  0.16691300  1
loop_
_geom_bond_atom_site_label_1
_geom_bond_atom_site_label_2
_geom_bond_distance
_geom_bond_site_symmetry_2
B0 N37 1.323961 1_555
B0 N16 1.371384 1_555
B1 N38 1.452536 1_555
B1 N40 1.460262 1_555
B1 N27 1.625403 1_555
B2 N34 1.289387 1_555
B2 N48 1.401161 1_555
B3 N12 1.428390 1_555
B3 N42 1.440561 1_555
B3 N43 1.483714 1_555
B4 N25 1.421891 1_555
B4 N14 1.447912 1_555
B5 N26 1.391582 1_555
B5 N49 1.474246 1_555
B5 N37 1.527264 1_555
B6 N47 1.395825 1_555
B6 N30 1.466526 1_555
B6 N6 1.521488 1_555
B7 N32 1.438068 1_555
B7 N23 1.518141 1_555
B8 N46 1.408823 1_555
B8 N9 1.459336 1_655
B8 N27 1.542733 1_555
B9 N41 1.455485 1_555
B9 N36 1.478189 1_555
B10 N4 1.429776 1_555
B10 N32 1.432081 1_555
B10 N17 1.543002 1_555
B11 N12 1.416039 1_556
B11 N5 1.469168 1_555
B11 N25 1.504345 1_555
B12 N10 1.386587 1_555
B12 N8 1.414973 1_556
B12 N35 1.552714 1_555
B13 N10 1.326899 1_555
B13 N39 1.509467 1_555
B13 N4 1.552139 1_555
B14 N23 1.319573 1_555
B15 N0 1.308377 1_555
B15 N8 1.334133 1_555
B16 N5 1.431612 1_555
B16 N24 1.444771 1_565
B16 N19 1.526218 1_555
B17 N7 1.427836 1_655
B17 N12 1.481436 1_555
B17 N43 1.520900 1_555
B18 N26 1.379042 1_555
B18 N21 1.444276 1_545
B18 N28 1.554413 1_545
B19 N44 1.296207 1_555
B19 N29 1.360107 1_455
B20 N21 1.379534 1_555
B20 N40 1.500335 1_555
B20 N17 1.567291 1_555
B21 N18 1.375676 1_555
B21 N13 1.452640 1_554
B21 N20 1.552088 1_554
B22 N24 1.549849 1_555
B22 N13 1.554388 1_555
B23 N34 1.404012 1_555
B23 N24 1.442198 1_555
B23 N19 1.567625 1_545
B24 N33 1.398615 1_555
B24 N36 1.453702 1_555
B24 N41 1.504457 1_555
B25 N41 1.422980 1_555
B25 N35 1.436584 1_555
B25 N48 1.483751 1_555
B26 N3 1.371664 1_555
B26 N16 1.511047 1_555
B26 N6 1.528451 1_555
B27 N28 1.410909 1_555
B28 N20 1.435533 1_555
B28 N46 1.500262 1_545
B29 N20 1.466632 1_454
B29 N31 1.478146 1_555
B29 N7 1.492696 1_545
B30 N4 1.465345 1_555
B30 N39 1.481453 1_555
B31 N49 1.491830 1_555
B31 N47 1.559388 1_555
B31 N37 1.627816 1_555
B31 N6 1.683695 1_555
B32 N18 1.344356 1_555
B32 N29 1.553010 1_555
B32 N6 1.558026 1_555
B33 N13 1.445386 1_554
B33 N36 1.449449 1_554
B33 N49 1.482546 1_555
B34 N25 1.407152 1_555
B34 N46 1.456333 1_555
B34 N27 1.546927 1_555
B35 N28 1.449121 1_555
B35 N31 1.494922 1_565
B35 N7 1.506071 1_555
B36 N29 1.441249 1_555
B36 N14 1.446199 1_554
B37 N39 1.391119 1_555
B37 N9 1.512202 1_555
B38 N44 1.387455 1_555
B38 N15 1.410969 1_555
B38 N30 1.529668 1_455
B39 N38 1.553040 1_555
B39 N32 1.578182 1_555
B39 N16 1.581631 1_555
B39 N23 1.612114 1_555
B40 N1 1.363367 1_555
B40 N38 1.439884 1_555
B40 N27 1.585083 1_555
B41 N19 1.326211 1_555
B41 N17 1.339466 1_555
B42 N15 1.306018 1_555
B42 N48 1.415423 1_555
B43 N0 1.365487 1_555
B43 N5 1.489752 1_554
B43 N42 1.522491 1_555
B44 N3 1.273504 1_555
B44 N42 1.377586 1_555
B45 N33 1.279956 1_555
B45 N31 1.378957 1_556
B46 N1 1.293326 1_455
B47 N9 1.332764 1_545
B47 N30 1.332859 1_455
B48 N35 1.392453 1_555
B48 N14 1.466244 1_455
B49 N43 1.445273 1_555
B49 N47 1.475863 1_565
B49 N40 1.521639 1_555
N2 N45 1.105841 1_555
N11 N22 1.105832 1_555
