# generated using pymatgen
data_SrFe5P5O22
_symmetry_space_group_name_H-M   'P 1'
_cell_length_a   6.53845500
_cell_length_b   8.01802568
_cell_length_c   15.80860193
_cell_angle_alpha   95.47979884
_cell_angle_beta   90.60563882
_cell_angle_gamma   99.85717627
_symmetry_Int_Tables_number   1
_chemical_formula_structural   SrFe5P5O22
_chemical_formula_sum   'Sr2 Fe10 P10 O44'
_cell_volume   812.50127374
_cell_formula_units_Z   2
loop_
 _symmetry_equiv_pos_site_id
 _symmetry_equiv_pos_as_xyz
  1  'x, y, z'
loop_
 _atom_site_type_symbol
 _atom_site_label
 _atom_site_symmetry_multiplicity
 _atom_site_fract_x
 _atom_site_fract_y
 _atom_site_fract_z
 _atom_site_occupancy
  Sr  Sr0  1  0.02588500  0.59808400  0.13531700  1
  Sr  Sr1  1  0.97411500  0.40191600  0.86468300  1
  Fe  Fe0  1  0.40528000  0.39119400  0.63168400  1
  Fe  Fe1  1  0.59472000  0.60880600  0.36831600  1
  Fe  Fe2  1  0.03240900  0.20594700  0.49102100  1
  Fe  Fe3  1  0.96759100  0.79405300  0.50897900  1
  Fe  Fe4  1  0.37573600  0.89425200  0.28698000  1
  Fe  Fe5  1  0.62426400  0.10574800  0.71302000  1
  Fe  Fe6  1  0.28301400  0.71283100  0.75128400  1
  Fe  Fe7  1  0.71698600  0.28716900  0.24871600  1
  Fe  Fe8  1  0.31882000  0.23424300  0.01379600  1
  Fe  Fe9  1  0.68118000  0.76575700  0.98620400  1
  P  P0  1  0.10386400  0.05250000  0.67912400  1
  P  P1  1  0.89613600  0.94750000  0.32087600  1
  P  P2  1  0.08437700  0.52019400  0.36104900  1
  P  P3  1  0.91562300  0.47980600  0.63895100  1
  P  P4  1  0.53564800  0.22131700  0.44016400  1
  P  P5  1  0.46435200  0.77868300  0.55983600  1
  P  P6  1  0.79881700  0.18596200  0.04362300  1
  P  P7  1  0.20118300  0.81403800  0.95637700  1
  P  P8  1  0.49869500  0.57403000  0.15282200  1
  P  P9  1  0.50130500  0.42597000  0.84717800  1
  O  O0  1  0.01976400  0.02012500  0.58283400  1
  O  O1  1  0.98023600  0.97987500  0.41716600  1
  O  O2  1  0.92569900  0.62827100  0.40366700  1
  O  O3  1  0.07430100  0.37172900  0.59633300  1
  O  O4  1  0.10939500  0.37325800  0.41211700  1
  O  O5  1  0.89060500  0.62674200  0.58788300  1
  O  O6  1  0.61660600  0.72325400  0.48982300  1
  O  O7  1  0.38339400  0.27674600  0.51017700  1
  O  O8  1  0.31668100  0.17713000  0.68133100  1
  O  O9  1  0.68331900  0.82287000  0.31866900  1
  O  O10  1  0.30012000  0.63399200  0.35291000  1
  O  O11  1  0.69988000  0.36600800  0.64709000  1
  O  O12  1  0.42037900  0.64084600  0.62713100  1
  O  O13  1  0.57962100  0.35915400  0.37286900  1
  O  O14  1  0.94804500  0.13009000  0.73489100  1
  O  O15  1  0.05195500  0.86991000  0.26510900  1
  O  O16  1  0.56771800  0.94309000  0.60844000  1
  O  O17  1  0.43228200  0.05691000  0.39156000  1
  O  O18  1  0.38260400  0.71715600  0.18542000  1
  O  O19  1  0.61739600  0.28284400  0.81458000  1
  O  O20  1  0.55875800  0.89251100  0.79232800  1
  O  O21  1  0.44124200  0.10748900  0.20767200  1
  O  O22  1  0.98989900  0.45632000  0.27201300  1
  O  O23  1  0.01010100  0.54368000  0.72798700  1
  O  O24  1  0.18298500  0.72492900  0.86418700  1
  O  O25  1  0.81701500  0.27507100  0.13581300  1
  O  O26  1  0.59449700  0.50334400  0.23163000  1
  O  O27  1  0.40550300  0.49665600  0.76837000  1
  O  O28  1  0.15344100  0.88626100  0.70703000  1
  O  O29  1  0.84655900  0.11373900  0.29297000  1
  O  O30  1  0.74097700  0.21427000  0.48532800  1
  O  O31  1  0.25902300  0.78573000  0.51467200  1
  O  O32  1  0.61657900  0.24224700  0.99773900  1
  O  O33  1  0.38342100  0.75775300  0.00226100  1
  O  O34  1  0.22698500  0.00718700  0.95695800  1
  O  O35  1  0.77301500  0.99281300  0.04304200  1
  O  O36  1  0.00377700  0.26524100  0.00247600  1
  O  O37  1  0.99622300  0.73475900  0.99752400  1
  O  O38  1  0.33491800  0.08348900  0.13347500  1
  O  O39  1  0.66508200  0.91651100  0.86652500  1
  O  O40  1  0.33741100  0.43216400  0.10414100  1
  O  O41  1  0.66258900  0.56783600  0.89585900  1
  O  O42  1  0.32317300  0.36182700  0.90575100  1
  O  O43  1  0.67682700  0.63817300  0.09424900  1
loop_
_geom_bond_atom_site_label_1
_geom_bond_atom_site_label_2
_geom_bond_distance
_geom_bond_site_symmetry_2
Fe0 O8 1.955497 1_555
Fe0 O11 1.985727 1_555
Fe0 O12 1.995445 1_555
Fe0 O7 2.040789 1_555
Fe0 O3 2.205016 1_555
Fe0 O27 2.243813 1_555
Fe1 O9 1.955497 1_555
Fe1 O10 1.985727 1_555
Fe1 O13 1.995445 1_555
Fe1 O6 2.040789 1_555
Fe1 O2 2.205016 1_555
Fe1 O26 2.243813 1_555
Fe2 O30 1.919531 1_455
Fe2 O4 1.926288 1_555
Fe2 O3 2.014110 1_555
Fe2 O1 2.034920 1_445
Fe2 O0 2.169507 1_555
Fe2 O7 2.277488 1_555
Fe3 O31 1.919531 1_655
Fe3 O5 1.926288 1_555
Fe3 O2 2.014110 1_555
Fe3 O0 2.034920 1_665
Fe3 O1 2.169507 1_555
Fe3 O6 2.277488 1_555
Fe4 O17 1.995264 1_565
Fe4 O18 2.045470 1_555
Fe4 O15 2.114145 1_555
Fe4 O21 2.201947 1_565
Fe4 O9 2.247375 1_555
Fe4 O10 2.399668 1_555
Fe5 O16 1.995264 1_545
Fe5 O19 2.045470 1_555
Fe5 O14 2.114145 1_555
Fe5 O20 2.201947 1_545
Fe5 O8 2.247375 1_555
Fe5 O11 2.399668 1_555
Fe6 O24 1.906870 1_555
Fe6 O28 1.928082 1_555
Fe6 O23 2.054591 1_555
Fe6 O27 2.068534 1_555
Fe6 O20 2.157442 1_555
Fe6 O12 2.233909 1_555
Fe7 O25 1.906870 1_555
Fe7 O29 1.928082 1_555
Fe7 O22 2.054591 1_555
Fe7 O26 2.068534 1_555
Fe7 O21 2.157442 1_555
Fe7 O13 2.233909 1_555
Fe8 O34 1.945293 1_554
Fe8 O32 1.956959 1_554
Fe8 O40 2.017518 1_555
Fe8 O42 2.071100 1_554
Fe8 O36 2.124372 1_555
Fe8 O38 2.351124 1_555
Fe9 O35 1.945293 1_556
Fe9 O33 1.956959 1_556
Fe9 O41 2.017518 1_555
Fe9 O43 2.071100 1_556
Fe9 O37 2.124372 1_555
Fe9 O39 2.351124 1_555
O0 P0 1.595257 1_555
O1 P1 1.595257 1_555
O2 P2 1.578725 1_655
O3 P3 1.578725 1_455
O4 P2 1.520318 1_555
O5 P3 1.520318 1_555
O6 P5 1.579368 1_555
O7 P4 1.579368 1_555
O8 P0 1.565974 1_555
O9 P1 1.565974 1_555
O10 P2 1.557091 1_555
O11 P3 1.557091 1_555
O12 P5 1.599396 1_555
O13 P4 1.599396 1_555
O14 P0 1.527574 1_655
O14 Sr1 2.828537 1_555
O15 P1 1.527574 1_455
O15 Sr0 2.828537 1_555
O16 P5 1.508441 1_555
O17 P4 1.508441 1_555
O18 P8 1.533706 1_555
O18 Sr0 2.456217 1_555
O19 P9 1.533706 1_555
O19 Sr1 2.456217 1_555
O20 O39 1.337904 1_555
O21 O38 1.337904 1_555
O22 P2 1.536447 1_655
O22 Sr0 2.530906 1_655
O23 P3 1.536447 1_455
O23 Sr1 2.530906 1_455
O24 P7 1.554667 1_555
O24 Sr1 2.714030 1_455
O25 P6 1.554667 1_555
O25 Sr0 2.714030 1_655
O26 P8 1.582919 1_555
O27 P9 1.582919 1_555
O28 P0 1.527599 1_565
O29 P1 1.527599 1_545
O30 P4 1.526031 1_555
O31 P5 1.526031 1_555
O32 P6 1.542071 1_556
O33 P7 1.542071 1_554
O34 P7 1.527983 1_545
O35 P6 1.527983 1_565
O36 P6 1.558475 1_455
O36 Sr1 2.550165 1_454
O37 P7 1.558475 1_655
O37 Sr0 2.550165 1_656
O40 P8 1.550209 1_555
O40 Sr0 2.643006 1_555
O41 P9 1.550209 1_555
O41 Sr1 2.643006 1_555
O42 P9 1.545026 1_555
O42 Sr1 2.448146 1_455
O43 P8 1.545026 1_555
O43 Sr0 2.448146 1_655
