# generated using pymatgen
data_Nb4GeS8
_symmetry_space_group_name_H-M   'P 1'
_cell_length_a   3.37009262
_cell_length_b   3.37009262
_cell_length_c   28.67182500
_cell_angle_alpha   90.00000000
_cell_angle_beta   90.00000000
_cell_angle_gamma   120.00001215
_symmetry_Int_Tables_number   1
_chemical_formula_structural   Nb4GeS8
_chemical_formula_sum   'Nb4 Ge1 S8'
_cell_volume   282.01329899
_cell_formula_units_Z   1
loop_
 _symmetry_equiv_pos_site_id
 _symmetry_equiv_pos_as_xyz
  1  'x, y, z'
loop_
 _atom_site_type_symbol
 _atom_site_label
 _atom_site_symmetry_multiplicity
 _atom_site_fract_x
 _atom_site_fract_y
 _atom_site_fract_z
 _atom_site_occupancy
  Nb  Nb0  1  0.33333300  0.66666700  0.49348700  1
  Nb  Nb1  1  0.66666700  0.33333300  0.99877900  1
  Nb  Nb2  1  0.33333300  0.66666700  0.23475100  1
  Nb  Nb3  1  0.66666700  0.33333300  0.74467000  1
  Ge  Ge0  1  0.33333300  0.66666700  0.61651500  1
  S  S0  1  0.66666700  0.33333300  0.54894900  1
  S  S1  1  0.33333300  0.66666700  0.05352200  1
  S  S2  1  0.00000000  0.00000000  0.17994400  1
  S  S3  1  0.00000000  0.00000000  0.68794200  1
  S  S4  1  0.00000000  0.00000000  0.28965600  1
  S  S5  1  0.00000000  0.00000000  0.79832400  1
  S  S6  1  0.33333300  0.66666700  0.94391800  1
  S  S7  1  0.66666700  0.33333300  0.43854300  1
loop_
_geom_bond_atom_site_label_1
_geom_bond_atom_site_label_2
_geom_bond_distance
_geom_bond_site_symmetry_2
Nb0 S7 2.503506 1_455
Nb0 S7 2.503506 1_565
Nb0 S7 2.503511 1_555
Nb0 S0 2.512879 1_565
Nb0 S0 2.512879 1_455
Nb0 S0 2.512883 1_555
Nb1 S1 2.499884 1_546
Nb1 S1 2.499884 1_656
Nb1 S1 2.499889 1_556
Nb1 S6 2.502010 1_545
Nb1 S6 2.502010 1_655
Nb1 S6 2.502014 1_555
Nb2 S2 2.501037 1_565
Nb2 S2 2.501039 1_665
Nb2 S2 2.501039 1_555
Nb2 S4 2.502803 1_565
Nb2 S4 2.502805 1_555
Nb2 S4 2.502805 1_665
Nb3 S5 2.480399 1_655
Nb3 S5 2.480401 1_555
Nb3 S5 2.480401 1_665
Nb3 S3 2.536005 1_655
Nb3 S3 2.536007 1_665
Nb3 S3 2.536007 1_555
Ge0 S0 2.745675 1_455
Ge0 S0 2.745675 1_565
Ge0 S0 2.745680 1_555
Ge0 S3 2.824872 1_565
Ge0 S3 2.824874 1_665
Ge0 S3 2.824874 1_555
