# generated using pymatgen
data_Sr3Dy
_symmetry_space_group_name_H-M   'P 1'
_cell_length_a   8.09557869
_cell_length_b   8.09557869
_cell_length_c   6.55365400
_cell_angle_alpha   90.00000000
_cell_angle_beta   90.00000000
_cell_angle_gamma   120.00000562
_symmetry_Int_Tables_number   1
_chemical_formula_structural   Sr3Dy
_chemical_formula_sum   'Sr6 Dy2'
_cell_volume   371.97171150
_cell_formula_units_Z   2
loop_
 _symmetry_equiv_pos_site_id
 _symmetry_equiv_pos_as_xyz
  1  'x, y, z'
loop_
 _atom_site_type_symbol
 _atom_site_label
 _atom_site_symmetry_multiplicity
 _atom_site_fract_x
 _atom_site_fract_y
 _atom_site_fract_z
 _atom_site_occupancy
  Sr  Sr0  1  0.17175000  0.34350000  0.25000000  1
  Sr  Sr1  1  0.65650000  0.82825000  0.25000000  1
  Sr  Sr2  1  0.17175000  0.82825000  0.25000000  1
  Sr  Sr3  1  0.82825000  0.65650000  0.75000000  1
  Sr  Sr4  1  0.34350000  0.17175000  0.75000000  1
  Sr  Sr5  1  0.82825000  0.17175000  0.75000000  1
  Dy  Dy0  1  0.33333300  0.66666700  0.75000000  1
  Dy  Dy1  1  0.66666700  0.33333300  0.25000000  1
loop_
_geom_bond_atom_site_label_1
_geom_bond_atom_site_label_2
_geom_bond_distance
_geom_bond_site_symmetry_2
Sr0 Sr1 3.924331 1_555
Sr0 Sr2 3.924332 1_555
Sr0 Sr5 4.066615 1_454
Sr0 Sr5 4.066615 1_455
Sr0 Sr4 4.066616 1_555
Sr0 Sr4 4.066616 1_554
Sr0 Sr1 4.171247 1_445
Sr0 Sr2 4.171247 1_545
Sr1 Sr2 3.924332 1_555
Sr1 Sr5 4.066615 1_564
Sr1 Sr5 4.066615 1_565
Sr1 Sr3 4.066616 1_554
Sr1 Sr3 4.066616 1_555
Sr1 Sr2 4.171247 1_655
Sr2 Sr4 4.066615 1_565
Sr2 Sr3 4.066615 1_455
Sr2 Sr3 4.066615 1_454
Sr2 Sr4 4.066615 1_564
Sr3 Sr4 3.924331 1_555
Sr3 Sr5 3.924332 1_555
Sr3 Sr4 4.171247 1_665
Sr3 Sr5 4.171247 1_565
Sr4 Sr5 3.924332 1_555
Sr4 Sr5 4.171247 1_455
Dy0 Sr2 3.983847 1_555
Dy0 Sr2 3.983847 1_556
Dy0 Sr0 3.983851 1_555
Dy0 Sr0 3.983851 1_556
Dy0 Sr1 3.983851 1_555
Dy0 Sr1 3.983851 1_556
Dy0 Sr3 4.048413 1_455
Dy0 Sr4 4.048413 1_565
Dy0 Sr5 4.048416 1_455
Dy0 Sr5 4.048416 1_565
Dy0 Sr3 4.048421 1_555
Dy0 Sr4 4.048421 1_555
Dy1 Sr5 3.983847 1_555
Dy1 Sr5 3.983847 1_554
Dy1 Sr4 3.983851 1_555
Dy1 Sr4 3.983851 1_554
Dy1 Sr3 3.983851 1_555
Dy1 Sr3 3.983851 1_554
Dy1 Sr1 4.048413 1_545
Dy1 Sr0 4.048413 1_655
Dy1 Sr2 4.048416 1_545
Dy1 Sr2 4.048416 1_655
Dy1 Sr1 4.048421 1_555
Dy1 Sr0 4.048421 1_555
