# generated using pymatgen
data_Li3YSb2
_symmetry_space_group_name_H-M   'P 1'
_cell_length_a   4.53148397
_cell_length_b   4.53148397
_cell_length_c   7.18738852
_cell_angle_alpha   90.00000000
_cell_angle_beta   90.00000000
_cell_angle_gamma   119.99999371
_symmetry_Int_Tables_number   1
_chemical_formula_structural   Li3YSb2
_chemical_formula_sum   'Li3 Y1 Sb2'
_cell_volume   127.81525087
_cell_formula_units_Z   1
loop_
 _symmetry_equiv_pos_site_id
 _symmetry_equiv_pos_as_xyz
  1  'x, y, z'
loop_
 _atom_site_type_symbol
 _atom_site_label
 _atom_site_symmetry_multiplicity
 _atom_site_fract_x
 _atom_site_fract_y
 _atom_site_fract_z
 _atom_site_occupancy
  Li  Li0  1  0.33333300  0.66666700  0.65101130  1
  Li  Li1  1  0.66666700  0.33333300  0.34898870  1
  Li  Li2  1  -0.00000000  -0.00000000  0.50000000  1
  Y  Y0  1  -0.00000000  -0.00000000  0.00000000  1
  Sb  Sb0  1  0.33333300  0.66666700  0.24925274  1
  Sb  Sb1  1  0.66666700  0.33333300  0.75074726  1
loop_
_geom_bond_atom_site_label_1
_geom_bond_atom_site_label_2
_geom_bond_distance
_geom_bond_site_symmetry_2
Li0 Sb1 2.712680 1_455
Li0 Sb1 2.712680 1_565
Li0 Sb1 2.712687 1_555
Li0 Li2 2.832457 1_565
Li0 Li2 2.832461 1_555
Li0 Li2 2.832461 1_665
Li0 Sb0 2.887595 1_555
Li1 Sb0 2.712680 1_545
Li1 Sb0 2.712680 1_655
Li1 Sb0 2.712687 1_555
Li1 Li2 2.832457 1_655
Li1 Li2 2.832461 1_555
Li1 Li2 2.832461 1_665
Li1 Sb1 2.887595 1_555
Li2 Sb1 3.176910 1_455
Li2 Sb0 3.176910 1_545
Li2 Sb1 3.176914 1_555
Li2 Sb0 3.176914 1_555
Li2 Sb1 3.176914 1_445
Li2 Sb0 3.176914 1_445
Li2 Y0 3.593694 1_556
Li2 Y0 3.593694 1_555
Sb0 Y0 3.170829 1_565
Sb0 Y0 3.170832 1_555
Sb0 Y0 3.170832 1_665
Sb1 Y0 3.170829 1_656
Sb1 Y0 3.170832 1_556
Sb1 Y0 3.170832 1_666
