# generated using pymatgen
data_ZrCo4Si
_symmetry_space_group_name_H-M   'P 1'
_cell_length_a   4.74145078
_cell_length_b   4.74145078
_cell_length_c   4.74145078
_cell_angle_alpha   60.00000000
_cell_angle_beta   60.00000000
_cell_angle_gamma   60.00000000
_symmetry_Int_Tables_number   1
_chemical_formula_structural   ZrCo4Si
_chemical_formula_sum   'Zr1 Co4 Si1'
_cell_volume   75.37351039
_cell_formula_units_Z   1
loop_
 _symmetry_equiv_pos_site_id
 _symmetry_equiv_pos_as_xyz
  1  'x, y, z'
loop_
 _atom_site_type_symbol
 _atom_site_label
 _atom_site_symmetry_multiplicity
 _atom_site_fract_x
 _atom_site_fract_y
 _atom_site_fract_z
 _atom_site_occupancy
  Zr  Zr0  1  0.00000000  0.00000000  0.00000000  1
  Co  Co0  1  0.62345700  0.62345700  0.12962800  1
  Co  Co1  1  0.62345700  0.12962800  0.62345700  1
  Co  Co2  1  0.12962800  0.62345700  0.62345700  1
  Co  Co3  1  0.62345700  0.62345700  0.62345700  1
  Si  Si0  1  0.25000000  0.25000000  0.25000000  1
loop_
_geom_bond_atom_site_label_1
_geom_bond_atom_site_label_2
_geom_bond_distance
_geom_bond_site_symmetry_2
Co0 Co1 2.341466 1_555
Co0 Co2 2.341466 1_555
Co0 Co3 2.341466 1_555
Co0 Co1 2.399985 1_564
Co0 Co3 2.399985 1_554
Co0 Co2 2.399985 1_654
Co0 Si0 2.776856 1_555
Co0 Si0 2.776860 1_655
Co0 Si0 2.776860 1_565
Co0 Zr0 2.783095 1_655
Co0 Zr0 2.783095 1_565
Co0 Zr0 2.783099 1_665
Co1 Co2 2.341466 1_555
Co1 Co3 2.341466 1_555
Co1 Co3 2.399985 1_545
Co1 Co2 2.399985 1_645
Co1 Si0 2.776856 1_555
Co1 Si0 2.776860 1_655
Co1 Si0 2.776860 1_556
Co1 Zr0 2.783095 1_655
Co1 Zr0 2.783095 1_556
Co1 Zr0 2.783099 1_656
Co2 Co3 2.341466 1_555
Co2 Co3 2.399985 1_455
Co2 Si0 2.776856 1_555
Co2 Si0 2.776860 1_565
Co2 Si0 2.776860 1_556
Co2 Zr0 2.783095 1_556
Co2 Zr0 2.783095 1_565
Co2 Zr0 2.783099 1_566
Co3 Si0 2.776858 1_565
Co3 Si0 2.776858 1_556
Co3 Si0 2.776858 1_655
Co3 Zr0 2.783097 1_566
Co3 Zr0 2.783097 1_665
Co3 Zr0 2.783097 1_656
Si0 Zr0 2.903534 1_655
Si0 Zr0 2.903534 1_565
Si0 Zr0 2.903534 1_555
Si0 Zr0 2.903534 1_556
