# generated using pymatgen
data_Te4Mo3W(SeS)2
_symmetry_space_group_name_H-M   'P 1'
_cell_length_a   3.39785993
_cell_length_b   3.39785993
_cell_length_c   38.77638800
_cell_angle_alpha   90.00000000
_cell_angle_beta   90.00000000
_cell_angle_gamma   119.99999868
_symmetry_Int_Tables_number   1
_chemical_formula_structural   Te4Mo3W(SeS)2
_chemical_formula_sum   'Te4 Mo3 W1 Se2 S2'
_cell_volume   387.71172442
_cell_formula_units_Z   1
loop_
 _symmetry_equiv_pos_site_id
 _symmetry_equiv_pos_as_xyz
  1  'x, y, z'
loop_
 _atom_site_type_symbol
 _atom_site_label
 _atom_site_symmetry_multiplicity
 _atom_site_fract_x
 _atom_site_fract_y
 _atom_site_fract_z
 _atom_site_occupancy
  Te  Te0  1  0.00000000  0.00000000  0.33013900  1
  Te  Te1  1  0.00000000  0.00000000  0.70588100  1
  Te  Te2  1  0.00000000  0.00000000  0.23338300  1
  Te  Te3  1  0.00000000  0.00000000  0.60921900  1
  Mo  Mo0  1  0.00000000  0.00000000  0.09393700  1
  Mo  Mo1  1  0.33333300  0.66666700  0.28177400  1
  Mo  Mo2  1  0.33333300  0.66666700  0.65755700  1
  W  W0  1  0.00000000  0.00000000  0.46965700  1
  Se  Se0  1  0.33333300  0.66666700  0.42694200  1
  Se  Se1  1  0.33333300  0.66666700  0.51237400  1
  S  S0  1  0.33333300  0.66666700  0.05521900  1
  S  S1  1  0.33333300  0.66666700  0.13266600  1
loop_
_geom_bond_atom_site_label_1
_geom_bond_atom_site_label_2
_geom_bond_distance
_geom_bond_site_symmetry_2
Mo0 S0 2.470326 1_545
Mo0 S0 2.470328 1_555
Mo0 S0 2.470328 1_445
Mo0 S1 2.470585 1_545
Mo0 S1 2.470588 1_555
Mo0 S1 2.470588 1_445
Mo1 Te0 2.713978 1_565
Mo1 Te0 2.713980 1_665
Mo1 Te0 2.713980 1_555
Mo1 Te2 2.714675 1_565
Mo1 Te2 2.714677 1_665
Mo1 Te2 2.714677 1_555
Mo2 Te1 2.712880 1_565
Mo2 Te1 2.712882 1_665
Mo2 Te1 2.712882 1_555
Mo2 Te3 2.713255 1_565
Mo2 Te3 2.713257 1_665
Mo2 Te3 2.713257 1_555
Se0 W0 2.567473 1_565
Se0 W0 2.567475 1_555
Se0 W0 2.567475 1_665
Se1 W0 2.567523 1_565
Se1 W0 2.567525 1_665
Se1 W0 2.567525 1_555
