# generated using pymatgen
data_RbNaMg30O31
_symmetry_space_group_name_H-M   'P 1'
_cell_length_a   8.61758600
_cell_length_b   8.64979400
_cell_length_c   8.70286400
_cell_angle_alpha   90.00000000
_cell_angle_beta   90.00000000
_cell_angle_gamma   90.00000000
_symmetry_Int_Tables_number   1
_chemical_formula_structural   RbNaMg30O31
_chemical_formula_sum   'Rb1 Na1 Mg30 O31'
_cell_volume   648.71447354
_cell_formula_units_Z   1
loop_
 _symmetry_equiv_pos_site_id
 _symmetry_equiv_pos_as_xyz
  1  'x, y, z'
loop_
 _atom_site_type_symbol
 _atom_site_label
 _atom_site_symmetry_multiplicity
 _atom_site_fract_x
 _atom_site_fract_y
 _atom_site_fract_z
 _atom_site_occupancy
  Rb  Rb0  1  0.50000000  0.99104500  0.50000000  1
  Na  Na0  1  0.00000000  0.99671100  0.00000000  1
  Mg  Mg0  1  0.00000000  0.97852500  0.50000000  1
  Mg  Mg1  1  0.50000000  0.99850200  0.00000000  1
  Mg  Mg2  1  0.00000000  0.50077700  0.00000000  1
  Mg  Mg3  1  0.00000000  0.51919000  0.50000000  1
  Mg  Mg4  1  0.50000000  0.50103800  0.00000000  1
  Mg  Mg5  1  0.50000000  0.49733200  0.50000000  1
  Mg  Mg6  1  0.75390100  0.00277300  0.75538100  1
  Mg  Mg7  1  0.75390100  0.00277300  0.24461900  1
  Mg  Mg8  1  0.24609900  0.00277300  0.75538100  1
  Mg  Mg9  1  0.24609900  0.00277300  0.24461900  1
  Mg  Mg10  1  0.75082400  0.49838700  0.75122600  1
  Mg  Mg11  1  0.75082400  0.49838700  0.24877400  1
  Mg  Mg12  1  0.24917600  0.49838700  0.75122600  1
  Mg  Mg13  1  0.24917600  0.49838700  0.24877400  1
  Mg  Mg14  1  0.00000000  0.24485000  0.77375600  1
  Mg  Mg15  1  0.00000000  0.24485000  0.22624400  1
  Mg  Mg16  1  0.50000000  0.25091000  0.75828600  1
  Mg  Mg17  1  0.50000000  0.25091000  0.24171400  1
  Mg  Mg18  1  0.00000000  0.75377900  0.75524500  1
  Mg  Mg19  1  0.00000000  0.75377900  0.24475500  1
  Mg  Mg20  1  0.50000000  0.74731800  0.75548700  1
  Mg  Mg21  1  0.50000000  0.74731800  0.24451300  1
  Mg  Mg22  1  0.74708200  0.24884000  0.00000000  1
  Mg  Mg23  1  0.72959700  0.25165000  0.50000000  1
  Mg  Mg24  1  0.25291800  0.24884000  0.00000000  1
  Mg  Mg25  1  0.27040300  0.25165000  0.50000000  1
  Mg  Mg26  1  0.75016200  0.75239200  0.00000000  1
  Mg  Mg27  1  0.74892500  0.74254500  0.50000000  1
  Mg  Mg28  1  0.24983800  0.75239200  0.00000000  1
  Mg  Mg29  1  0.25107500  0.74254500  0.50000000  1
  O  O0  1  0.00000000  0.26485100  0.00000000  1
  O  O1  1  0.50000000  0.25940700  0.00000000  1
  O  O2  1  0.50000000  0.27582600  0.50000000  1
  O  O3  1  0.00000000  0.73458500  0.00000000  1
  O  O4  1  0.00000000  0.74707500  0.50000000  1
  O  O5  1  0.50000000  0.74226400  0.00000000  1
  O  O6  1  0.50000000  0.71564200  0.50000000  1
  O  O7  1  0.75398200  0.25191700  0.74777600  1
  O  O8  1  0.75398200  0.25191700  0.25222400  1
  O  O9  1  0.24601800  0.25191700  0.74777600  1
  O  O10  1  0.24601800  0.25191700  0.25222400  1
  O  O11  1  0.75099300  0.75051100  0.74559100  1
  O  O12  1  0.75099300  0.75051100  0.25440900  1
  O  O13  1  0.24900700  0.75051100  0.74559100  1
  O  O14  1  0.24900700  0.75051100  0.25440900  1
  O  O15  1  0.00000000  0.00414900  0.73984700  1
  O  O16  1  0.00000000  0.00414900  0.26015300  1
  O  O17  1  0.50000000  0.00356800  0.77718800  1
  O  O18  1  0.50000000  0.00356800  0.22281200  1
  O  O19  1  0.00000000  0.49261700  0.74195200  1
  O  O20  1  0.00000000  0.49261700  0.25804800  1
  O  O21  1  0.50000000  0.49810700  0.75355200  1
  O  O22  1  0.50000000  0.49810700  0.24644800  1
  O  O23  1  0.74232400  0.00117300  0.00000000  1
  O  O24  1  0.78205600  0.02274900  0.50000000  1
  O  O25  1  0.25767600  0.00117300  0.00000000  1
  O  O26  1  0.21794400  0.02274900  0.50000000  1
  O  O27  1  0.75089400  0.50037300  0.00000000  1
  O  O28  1  0.76215800  0.49141600  0.50000000  1
  O  O29  1  0.24910600  0.50037300  0.00000000  1
  O  O30  1  0.23784200  0.49141600  0.50000000  1
loop_
_geom_bond_atom_site_label_1
_geom_bond_atom_site_label_2
_geom_bond_distance
_geom_bond_site_symmetry_2
Na0 O25 2.220880 1_565
Na0 O23 2.220880 1_465
Na0 O15 2.264990 1_564
Na0 O16 2.264990 1_565
Na0 O3 2.267336 1_555
Na0 O0 2.319356 1_565
Mg0 O26 1.916711 1_565
Mg0 O24 1.916711 1_465
Mg0 O4 2.001995 1_555
Mg0 O16 2.099090 1_565
Mg0 O15 2.099090 1_565
Mg1 O17 1.939598 1_564
Mg1 O18 1.939598 1_565
Mg1 O23 2.088376 1_565
Mg1 O25 2.088376 1_565
Mg1 O5 2.216406 1_555
Mg1 O1 2.256775 1_565
Mg2 O3 2.022391 1_555
Mg2 O0 2.040711 1_555
Mg2 O29 2.146695 1_555
Mg2 O27 2.146695 1_455
Mg2 O20 2.246866 1_555
Mg2 O19 2.246866 1_554
Mg3 O4 1.971158 1_555
Mg3 O30 2.063655 1_555
Mg3 O28 2.063655 1_455
Mg3 O19 2.118183 1_555
Mg3 O20 2.118183 1_555
Mg4 O5 2.086555 1_555
Mg4 O1 2.090058 1_555
Mg4 O21 2.144953 1_554
Mg4 O22 2.144953 1_555
Mg4 O27 2.162108 1_555
Mg4 O29 2.162108 1_555
Mg5 O6 1.888337 1_555
Mg5 O2 1.915981 1_555
Mg5 O21 2.206639 1_555
Mg5 O22 2.206639 1_555
Mg5 O30 2.259749 1_555
Mg5 O28 2.259749 1_555
Mg6 O15 2.125117 1_655
Mg6 O23 2.131267 1_556
Mg6 O7 2.156060 1_555
Mg6 O11 2.183821 1_545
Mg6 O17 2.196240 1_555
Mg6 O24 2.242417 1_555
Mg7 O16 2.125117 1_655
Mg7 O23 2.131267 1_555
Mg7 O8 2.156060 1_555
Mg7 O12 2.183821 1_545
Mg7 O18 2.196240 1_555
Mg7 O24 2.242417 1_555
Mg8 O15 2.125117 1_555
Mg8 O25 2.131267 1_556
Mg8 O9 2.156060 1_555
Mg8 O13 2.183821 1_545
Mg8 O17 2.196240 1_555
Mg8 O26 2.242417 1_555
Mg9 O16 2.125117 1_555
Mg9 O25 2.131267 1_555
Mg9 O10 2.156060 1_555
Mg9 O14 2.183821 1_545
Mg9 O18 2.196240 1_555
Mg9 O26 2.242417 1_555
Mg10 O7 2.132300 1_555
Mg10 O19 2.149391 1_655
Mg10 O21 2.161594 1_555
Mg10 O27 2.165115 1_556
Mg10 O11 2.181372 1_555
Mg10 O28 2.189397 1_555
Mg11 O8 2.132300 1_555
Mg11 O20 2.149391 1_655
Mg11 O22 2.161594 1_555
Mg11 O27 2.165115 1_555
Mg11 O12 2.181372 1_555
Mg11 O28 2.189397 1_555
Mg12 O9 2.132300 1_555
Mg12 O19 2.149391 1_555
Mg12 O21 2.161594 1_555
Mg12 O29 2.165115 1_556
Mg12 O13 2.181372 1_555
Mg12 O30 2.189397 1_555
Mg13 O10 2.132300 1_555
Mg13 O20 2.149391 1_555
Mg13 O22 2.161594 1_555
Mg13 O29 2.165115 1_555
Mg13 O14 2.181372 1_555
Mg13 O30 2.189397 1_555
Mg14 O0 1.976557 1_556
Mg14 O15 2.102824 1_555
Mg14 O9 2.132980 1_555
Mg14 O7 2.132980 1_455
Mg14 O19 2.160933 1_555
Mg15 O0 1.976557 1_555
Mg15 O16 2.102824 1_555
Mg15 O10 2.132980 1_555
Mg15 O8 2.132980 1_455
Mg15 O20 2.160933 1_555
Mg16 O1 2.104888 1_556
Mg16 O21 2.138600 1_555
Mg16 O17 2.145772 1_555
Mg16 O9 2.190639 1_555
Mg16 O7 2.190639 1_555
Mg16 O2 2.258136 1_555
Mg17 O1 2.104888 1_555
Mg17 O22 2.138600 1_555
Mg17 O18 2.145772 1_555
Mg17 O10 2.190639 1_555
Mg17 O8 2.190639 1_555
Mg17 O2 2.258136 1_555
Mg18 O3 2.136530 1_556
Mg18 O11 2.147669 1_455
Mg18 O13 2.147669 1_555
Mg18 O15 2.169791 1_565
Mg18 O4 2.222119 1_555
Mg18 O19 2.261958 1_555
Mg19 O3 2.136530 1_555
Mg19 O12 2.147669 1_455
Mg19 O14 2.147669 1_555
Mg19 O16 2.169791 1_565
Mg19 O4 2.222119 1_555
Mg19 O20 2.261958 1_555
Mg20 O5 2.128412 1_556
Mg20 O21 2.155690 1_555
Mg20 O11 2.164844 1_555
Mg20 O13 2.164844 1_555
Mg20 O17 2.224541 1_565
Mg20 O6 2.240287 1_555
Mg21 O5 2.128412 1_555
Mg21 O22 2.155690 1_555
Mg21 O14 2.164844 1_555
Mg21 O12 2.164844 1_555
Mg21 O18 2.224541 1_565
Mg21 O6 2.240287 1_555
Mg22 O1 2.131211 1_555
Mg22 O23 2.142661 1_555
Mg22 O27 2.175957 1_555
Mg22 O0 2.183938 1_655
Mg22 O7 2.196038 1_554
Mg22 O8 2.196038 1_555
Mg23 O2 1.989592 1_555
Mg23 O24 2.030900 1_555
Mg23 O28 2.092822 1_555
Mg23 O8 2.166577 1_555
Mg23 O7 2.166577 1_555
Mg24 O1 2.131211 1_555
Mg24 O25 2.142661 1_555
Mg24 O29 2.175957 1_555
Mg24 O0 2.183938 1_555
Mg24 O9 2.196038 1_554
Mg24 O10 2.196038 1_555
Mg25 O2 1.989592 1_555
Mg25 O26 2.030900 1_555
Mg25 O30 2.092822 1_555
Mg25 O9 2.166577 1_555
Mg25 O10 2.166577 1_555
Mg26 O23 2.152964 1_565
Mg26 O5 2.157572 1_555
Mg26 O3 2.158503 1_655
Mg26 O27 2.179922 1_555
Mg26 O11 2.214158 1_554
Mg26 O12 2.214158 1_555
Mg27 O12 2.138530 1_555
Mg27 O11 2.138530 1_555
Mg27 O6 2.157718 1_555
Mg27 O4 2.164015 1_655
Mg27 O28 2.175205 1_555
Mg27 O24 2.440465 1_565
Mg28 O25 2.152964 1_565
Mg28 O5 2.157572 1_555
Mg28 O3 2.158503 1_555
Mg28 O29 2.179922 1_555
Mg28 O14 2.214158 1_555
Mg28 O13 2.214158 1_554
Mg29 O13 2.138530 1_555
Mg29 O14 2.138530 1_555
Mg29 O6 2.157718 1_555
Mg29 O4 2.164015 1_555
Mg29 O30 2.175205 1_555
Mg29 O26 2.440465 1_565
O2 Rb0 2.463297 1_545
O6 Rb0 2.382179 1_555
O17 Rb0 2.414760 1_545
O18 Rb0 2.414760 1_545
O24 Rb0 2.446063 1_545
O26 Rb0 2.446063 1_545
