# generated using pymatgen
data_K3Na5V3Mo5O24
_symmetry_space_group_name_H-M   'P 1'
_cell_length_a   7.84996800
_cell_length_b   7.85588759
_cell_length_c   7.89469702
_cell_angle_alpha   89.87783899
_cell_angle_beta   89.91801197
_cell_angle_gamma   89.97785737
_symmetry_Int_Tables_number   1
_chemical_formula_structural   K3Na5V3Mo5O24
_chemical_formula_sum   'K3 Na5 V3 Mo5 O24'
_cell_volume   486.85221511
_cell_formula_units_Z   1
loop_
 _symmetry_equiv_pos_site_id
 _symmetry_equiv_pos_as_xyz
  1  'x, y, z'
loop_
 _atom_site_type_symbol
 _atom_site_label
 _atom_site_symmetry_multiplicity
 _atom_site_fract_x
 _atom_site_fract_y
 _atom_site_fract_z
 _atom_site_occupancy
  K  K0  1  0.74571300  0.74507200  0.26082400  1
  K  K1  1  0.25434000  0.74538600  0.74000900  1
  K  K2  1  0.25464200  0.74505000  0.26118400  1
  Na  Na0  1  0.74199100  0.74196200  0.73014200  1
  Na  Na1  1  0.74202900  0.25768400  0.73007900  1
  Na  Na2  1  0.74197900  0.25741400  0.27026300  1
  Na  Na3  1  0.25810700  0.25757700  0.72972900  1
  Na  Na4  1  0.25807300  0.25753200  0.27046000  1
  V  V0  1  0.99962600  0.49535200  0.50179400  1
  V  V1  1  0.50140700  0.00032000  0.50151800  1
  V  V2  1  0.50185400  0.49221700  0.50117700  1
  Mo  Mo0  1  0.99941800  0.00184500  0.00067000  1
  Mo  Mo1  1  0.99910000  0.49750500  0.99931300  1
  Mo  Mo2  1  0.99901100  0.00255700  0.50252000  1
  Mo  Mo3  1  0.50086400  0.00352500  0.99917500  1
  Mo  Mo4  1  0.50065200  0.49883400  0.99898200  1
  O  O0  1  0.74846500  0.00269100  0.99876400  1
  O  O1  1  0.74947900  0.49626100  0.99855100  1
  O  O2  1  0.75623900  0.00729800  0.50268200  1
  O  O3  1  0.76042600  0.49518200  0.50399500  1
  O  O4  1  0.25218200  0.00365200  0.99857800  1
  O  O5  1  0.25100500  0.49540400  0.99824900  1
  O  O6  1  0.24254600  0.00789800  0.50066900  1
  O  O7  1  0.23814700  0.49202600  0.50098000  1
  O  O8  1  0.99827000  0.00410400  0.75593600  1
  O  O9  1  0.99787700  0.49520800  0.75834500  1
  O  O10  1  0.99901700  0.00481300  0.24424900  1
  O  O11  1  0.99899600  0.49261800  0.24068900  1
  O  O12  1  0.50297400  0.00483100  0.75840900  1
  O  O13  1  0.50340300  0.49443100  0.75876700  1
  O  O14  1  0.50073900  0.00579400  0.24069400  1
  O  O15  1  0.50082600  0.49113900  0.24004600  1
  O  O16  1  0.99822700  0.74710000  0.99843100  1
  O  O17  1  0.99935800  0.25098300  0.99828800  1
  O  O18  1  0.99680100  0.75907900  0.50380000  1
  O  O19  1  0.99796600  0.24501300  0.50079000  1
  O  O20  1  0.50212400  0.74821900  0.99814800  1
  O  O21  1  0.50105300  0.25009500  0.99779000  1
  O  O22  1  0.50419400  0.76513100  0.50457000  1
  O  O23  1  0.50088000  0.24119700  0.50074200  1
loop_
_geom_bond_atom_site_label_1
_geom_bond_atom_site_label_2
_geom_bond_distance
_geom_bond_site_symmetry_2
K0 O22 2.704235 1_555
K0 O3 2.745360 1_555
K0 O18 2.754731 1_555
K0 O15 2.776170 1_555
K0 O11 2.812318 1_555
K0 O2 2.813121 1_565
K0 O14 2.813345 1_565
K0 O20 2.822855 1_554
K0 O1 2.850568 1_554
K0 O10 2.852341 1_565
K0 O16 2.865096 1_554
K0 O0 2.891137 1_564
K1 O22 2.704505 1_555
K1 O7 2.748749 1_555
K1 O18 2.754264 1_455
K1 O13 2.779893 1_555
K1 O6 2.795625 1_565
K1 O9 2.817397 1_455
K1 O20 2.819330 1_555
K1 O12 2.826622 1_565
K1 O5 2.827815 1_555
K1 O8 2.860870 1_465
K1 O16 2.862312 1_455
K1 O4 2.881197 1_565
K2 O7 2.745027 1_555
K2 O22 2.750778 1_555
K2 O15 2.781884 1_555
K2 O18 2.786972 1_455
K2 O6 2.804181 1_565
K2 O14 2.820429 1_565
K2 O11 2.826915 1_455
K2 O20 2.841707 1_554
K2 O5 2.858946 1_554
K2 O10 2.864486 1_465
K2 O16 2.892500 1_454
K2 O4 2.899624 1_564
Na0 O22 2.587835 1_555
Na0 O3 2.642107 1_555
Na0 O18 2.683478 1_555
Na0 O13 2.709236 1_555
Na0 O2 2.750586 1_565
Na0 O12 2.798659 1_565
Na0 O9 2.799739 1_555
Na0 O20 2.830830 1_555
Na0 O1 2.863939 1_555
Na0 O8 2.887188 1_565
Na0 O16 2.923412 1_555
Na0 O0 2.951978 1_565
Na1 O3 2.583199 1_555
Na1 O23 2.624756 1_555
Na1 O13 2.648992 1_555
Na1 O2 2.668092 1_555
Na1 O19 2.704310 1_555
Na1 O12 2.741726 1_555
Na1 O9 2.751587 1_555
Na1 O1 2.832994 1_555
Na1 O21 2.834940 1_555
Na1 O8 2.837698 1_555
Na1 O0 2.914943 1_555
Na1 O17 2.928901 1_555
Na2 O23 2.626478 1_555
Na2 O3 2.632591 1_555
Na2 O15 2.647373 1_555
Na2 O2 2.687958 1_555
Na2 O19 2.714642 1_555
Na2 O11 2.745714 1_555
Na2 O14 2.748482 1_555
Na2 O10 2.837036 1_555
Na2 O1 2.847476 1_554
Na2 O21 2.866989 1_554
Na2 O0 2.935808 1_554
Na2 O17 2.946676 1_554
Na3 O7 2.581567 1_555
Na3 O23 2.628213 1_555
Na3 O6 2.673633 1_555
Na3 O13 2.688570 1_555
Na3 O19 2.730952 1_455
Na3 O12 2.772161 1_555
Na3 O9 2.776065 1_455
Na3 O5 2.829168 1_555
Na3 O21 2.851324 1_555
Na3 O8 2.858060 1_455
Na3 O4 2.909996 1_555
Na3 O17 2.934424 1_455
Na4 O7 2.596778 1_555
Na4 O23 2.638804 1_555
Na4 O15 2.656391 1_555
Na4 O6 2.673605 1_555
Na4 O19 2.733869 1_455
Na4 O14 2.755492 1_555
Na4 O11 2.756571 1_455
Na4 O5 2.845442 1_554
Na4 O10 2.850595 1_455
Na4 O21 2.874738 1_554
Na4 O4 2.933553 1_554
Na4 O17 2.959263 1_454
Mo0 O10 1.923172 1_555
Mo0 O8 1.932178 1_554
Mo0 O17 1.957250 1_554
Mo0 O0 1.970061 1_554
Mo0 O4 1.984290 1_654
Mo0 O16 2.001389 1_544
Mo1 O9 1.902531 1_555
Mo1 O11 1.905894 1_556
Mo1 O17 1.936684 1_555
Mo1 O1 1.959563 1_555
Mo1 O16 1.960797 1_555
Mo1 O5 1.977515 1_655
Mo2 O19 1.904742 1_555
Mo2 O2 1.906101 1_555
Mo2 O6 1.912253 1_655
Mo2 O18 1.912826 1_545
Mo2 O8 2.000705 1_555
Mo2 O10 2.039010 1_555
Mo3 O12 1.900829 1_555
Mo3 O14 1.906839 1_556
Mo3 O21 1.937035 1_555
Mo3 O0 1.943667 1_555
Mo3 O4 1.952158 1_555
Mo3 O20 2.005709 1_545
Mo4 O13 1.896906 1_555
Mo4 O15 1.903961 1_556
Mo4 O1 1.953379 1_555
Mo4 O21 1.954110 1_555
Mo4 O20 1.959176 1_555
Mo4 O5 1.959934 1_555
O2 V1 2.001230 1_555
O3 V0 1.877769 1_555
O3 V2 2.030079 1_555
O6 V1 2.032920 1_555
O7 V0 1.872556 1_455
O7 V2 2.070095 1_555
O9 V0 2.025417 1_555
O11 V0 2.061516 1_555
O12 V1 2.028517 1_555
O13 V2 2.033760 1_555
O14 V1 2.059498 1_555
O15 V2 2.061613 1_555
O18 V0 2.072014 1_555
O19 V0 1.966716 1_555
O22 V1 1.847846 1_565
O22 V2 2.144292 1_555
O23 V1 1.892302 1_555
O23 V2 1.972013 1_555
