# generated using pymatgen
data_Sm3TaO7
_symmetry_space_group_name_H-M   'P 1'
_cell_length_a   6.55888318
_cell_length_b   6.55888345
_cell_length_c   7.61267361
_cell_angle_alpha   90.00000134
_cell_angle_beta   89.99999787
_cell_angle_gamma   109.68577450
_symmetry_Int_Tables_number   1
_chemical_formula_structural   Sm3TaO7
_chemical_formula_sum   'Sm6 Ta2 O14'
_cell_volume   308.34886138
_cell_formula_units_Z   2
loop_
 _symmetry_equiv_pos_site_id
 _symmetry_equiv_pos_as_xyz
  1  'x, y, z'
loop_
 _atom_site_type_symbol
 _atom_site_label
 _atom_site_symmetry_multiplicity
 _atom_site_fract_x
 _atom_site_fract_y
 _atom_site_fract_z
 _atom_site_occupancy
  Sm  Sm0  1  0.49999998  0.49999987  0.50000001  1
  Sm  Sm1  1  0.49999990  0.49999987  -0.00000001  1
  Sm  Sm2  1  0.53522213  0.99965225  0.74999996  1
  Sm  Sm3  1  0.99965224  0.53522191  0.25000002  1
  Sm  Sm4  1  0.46477780  0.00034763  0.25000001  1
  Sm  Sm5  1  0.00034753  0.46477774  0.75000002  1
  Ta  Ta0  1  -0.00000014  -0.00000010  0.49999994  1
  Ta  Ta1  1  -0.00000019  -0.00000010  0.00000000  1
  O  O0  1  0.68354654  0.92951425  0.46930545  1
  O  O1  1  0.92951408  0.68354643  0.53069458  1
  O  O2  1  0.68354649  0.92951421  0.03069456  1
  O  O3  1  0.92951409  0.68354644  0.96930543  1
  O  O4  1  0.31645349  0.07048590  0.53069460  1
  O  O5  1  0.07048583  0.31645345  0.46930537  1
  O  O6  1  0.31645340  0.07048584  0.96930540  1
  O  O7  1  0.07048586  0.31645347  0.03069462  1
  O  O8  1  0.93901069  0.06098922  0.75000003  1
  O  O9  1  0.06098917  0.93901077  0.25000001  1
  O  O10  1  0.37036540  0.62963457  0.75000001  1
  O  O11  1  0.62963466  0.37036532  0.24999999  1
  O  O12  1  0.63540515  0.36459493  0.75000000  1
  O  O13  1  0.36459491  0.63540512  0.25000000  1
loop_
_geom_bond_atom_site_label_1
_geom_bond_atom_site_label_2
_geom_bond_distance
_geom_bond_site_symmetry_2
O0 Ta0 1.982394 1_665
O0 Sm4 2.347568 1_565
O0 Sm2 2.454715 1_555
O0 Sm0 2.674928 1_555
O1 Ta0 1.982395 1_665
O1 Sm5 2.347568 1_655
O1 Sm3 2.454716 1_555
O1 Sm0 2.674926 1_555
O2 Ta1 1.982394 1_665
O2 Sm4 2.347567 1_565
O2 Sm2 2.454716 1_554
O2 Sm1 2.674928 1_555
O3 Ta1 1.982395 1_666
O3 Sm5 2.347567 1_655
O3 Sm3 2.454717 1_556
O3 Sm1 2.674927 1_556
O4 Ta0 1.982396 1_555
O4 Sm2 2.347567 1_545
O4 Sm4 2.454716 1_555
O4 Sm0 2.674926 1_555
O5 Ta0 1.982396 1_555
O5 Sm3 2.347566 1_455
O5 Sm5 2.454717 1_555
O5 Sm0 2.674926 1_555
O6 Ta1 1.982396 1_556
O6 Sm2 2.347568 1_545
O6 Sm4 2.454717 1_556
O6 Sm1 2.674926 1_556
O7 Ta1 1.982396 1_555
O7 Sm3 2.347567 1_455
O7 Sm5 2.454716 1_554
O7 Sm1 2.674926 1_555
O8 Ta1 2.012434 1_656
O8 Ta0 2.012435 1_655
O8 Sm2 2.541271 1_545
O8 Sm5 2.541271 1_655
O9 Ta0 2.012434 1_565
O9 Ta1 2.012434 1_565
O9 Sm4 2.541271 1_565
O9 Sm3 2.541273 1_455
O10 Sm2 2.300231 1_555
O10 Sm5 2.300232 1_555
O10 Sm1 2.356902 1_556
O10 Sm0 2.356903 1_555
O11 Sm3 2.300230 1_555
O11 Sm4 2.300231 1_555
O11 Sm0 2.356903 1_555
O11 Sm1 2.356903 1_555
O12 Sm5 2.258653 1_655
O12 Sm2 2.258655 1_545
O12 Sm0 2.393930 1_555
O12 Sm1 2.393930 1_556
O13 Sm4 2.258654 1_565
O13 Sm3 2.258655 1_455
O13 Sm1 2.393931 1_555
O13 Sm0 2.393931 1_555
