# generated using pymatgen
data_CaC2
_symmetry_space_group_name_H-M   'P 1'
_cell_length_a   4.74712319
_cell_length_b   4.74712319
_cell_length_c   4.74663718
_cell_angle_alpha   90.00000000
_cell_angle_beta   90.00000000
_cell_angle_gamma   133.60795453
_symmetry_Int_Tables_number   1
_chemical_formula_structural   CaC2
_chemical_formula_sum   'Ca2 C4'
_cell_volume   77.45175472
_cell_formula_units_Z   2
loop_
 _symmetry_equiv_pos_site_id
 _symmetry_equiv_pos_as_xyz
  1  'x, y, z'
loop_
 _atom_site_type_symbol
 _atom_site_label
 _atom_site_symmetry_multiplicity
 _atom_site_fract_x
 _atom_site_fract_y
 _atom_site_fract_z
 _atom_site_occupancy
  Ca  Ca0  1  0.85447613  0.14552387  0.25000000  1
  Ca  Ca1  1  0.14552387  0.85447613  0.75000000  1
  C  C0  1  0.56192815  0.43807185  0.39678827  1
  C  C1  1  0.43807185  0.56192815  0.60321173  1
  C  C2  1  0.56192815  0.43807185  0.10321173  1
  C  C3  1  0.43807185  0.56192815  0.89678827  1
loop_
_geom_bond_atom_site_label_1
_geom_bond_atom_site_label_2
_geom_bond_distance
_geom_bond_site_symmetry_2
C0 C2 1.393501 1_555
C0 C1 1.458872 1_555
C0 Ca1 2.615184 1_545
C0 Ca1 2.615184 1_655
C0 Ca0 2.646365 1_555
C0 Ca0 2.694264 1_565
C0 Ca0 2.694264 1_455
C1 C3 1.393501 1_555
C1 Ca0 2.615184 1_455
C1 Ca0 2.615184 1_565
C1 Ca1 2.646365 1_555
C1 Ca1 2.694264 1_655
C1 Ca1 2.694264 1_545
C2 C3 1.458872 1_554
C2 Ca1 2.615184 1_654
C2 Ca1 2.615184 1_544
C2 Ca0 2.646365 1_555
C2 Ca0 2.694264 1_565
C2 Ca0 2.694264 1_455
C3 Ca0 2.615184 1_456
C3 Ca0 2.615184 1_566
C3 Ca1 2.646365 1_555
C3 Ca1 2.694264 1_655
C3 Ca1 2.694264 1_545
