# generated using pymatgen
data_Pm2MgSe4
_symmetry_space_group_name_H-M   'P 1'
_cell_length_a   7.54197900
_cell_length_b   8.49548200
_cell_length_c   12.26399000
_cell_angle_alpha   90.00000000
_cell_angle_beta   90.00000000
_cell_angle_gamma   90.00000000
_symmetry_Int_Tables_number   1
_chemical_formula_structural   Pm2MgSe4
_chemical_formula_sum   'Pm8 Mg4 Se16'
_cell_volume   785.78752650
_cell_formula_units_Z   4
loop_
 _symmetry_equiv_pos_site_id
 _symmetry_equiv_pos_as_xyz
  1  'x, y, z'
loop_
 _atom_site_type_symbol
 _atom_site_label
 _atom_site_symmetry_multiplicity
 _atom_site_fract_x
 _atom_site_fract_y
 _atom_site_fract_z
 _atom_site_occupancy
  Pm  Pm0  1  0.75000000  0.04221000  0.31840000  1
  Pm  Pm1  1  0.25000000  0.95779000  0.68160000  1
  Pm  Pm2  1  0.25000000  0.45779000  0.81840000  1
  Pm  Pm3  1  0.75000000  0.54221000  0.18160000  1
  Pm  Pm4  1  0.25000000  0.07942200  0.03131200  1
  Pm  Pm5  1  0.75000000  0.92057800  0.96868800  1
  Pm  Pm6  1  0.75000000  0.42057800  0.53131200  1
  Pm  Pm7  1  0.25000000  0.57942200  0.46868800  1
  Mg  Mg0  1  0.25000000  0.19022800  0.41505500  1
  Mg  Mg1  1  0.75000000  0.80977200  0.58494500  1
  Mg  Mg2  1  0.75000000  0.30977200  0.91505500  1
  Mg  Mg3  1  0.25000000  0.69022800  0.08494500  1
  Se  Se0  1  0.49380500  0.13755900  0.84506100  1
  Se  Se1  1  0.50619500  0.86244100  0.15493900  1
  Se  Se2  1  0.50619500  0.36244100  0.34506100  1
  Se  Se3  1  0.49380500  0.63755900  0.65493900  1
  Se  Se4  1  0.00619500  0.63755900  0.65493900  1
  Se  Se5  1  0.99380500  0.36244100  0.34506100  1
  Se  Se6  1  0.99380500  0.86244100  0.15493900  1
  Se  Se7  1  0.00619500  0.13755900  0.84506100  1
  Se  Se8  1  0.25000000  0.90511000  0.44209000  1
  Se  Se9  1  0.75000000  0.09489000  0.55791000  1
  Se  Se10  1  0.75000000  0.59489000  0.94209000  1
  Se  Se11  1  0.25000000  0.40511000  0.05791000  1
  Se  Se12  1  0.75000000  0.21408200  0.11203400  1
  Se  Se13  1  0.25000000  0.78591800  0.88796600  1
  Se  Se14  1  0.25000000  0.28591800  0.61203400  1
  Se  Se15  1  0.75000000  0.71408200  0.38796600  1
loop_
_geom_bond_atom_site_label_1
_geom_bond_atom_site_label_2
_geom_bond_distance
_geom_bond_site_symmetry_2
Pm0 Se15 2.915239 1_545
Pm0 Se12 2.921866 1_555
Pm0 Se9 2.971247 1_555
Pm0 Se6 3.119656 1_545
Pm0 Se1 3.119656 1_545
Pm0 Se2 3.299879 1_555
Pm0 Se5 3.299879 1_555
Pm1 Se14 2.915239 1_565
Pm1 Se13 2.921866 1_555
Pm1 Se8 2.971247 1_555
Pm1 Se0 3.119656 1_565
Pm1 Se7 3.119656 1_565
Pm1 Se3 3.299879 1_555
Pm1 Se4 3.299879 1_555
Pm2 Se13 2.915239 1_555
Pm2 Se14 2.921866 1_555
Pm2 Se11 2.971247 1_556
Pm2 Se3 3.119656 1_555
Pm2 Se4 3.119656 1_555
Pm2 Se7 3.299879 1_555
Pm2 Se0 3.299879 1_555
Pm3 Se12 2.915239 1_555
Pm3 Se15 2.921866 1_555
Pm3 Se10 2.971247 1_554
Pm3 Se2 3.119656 1_555
Pm3 Se5 3.119656 1_555
Pm3 Se1 3.299879 1_555
Pm3 Se6 3.299879 1_555
Pm4 Se11 2.786039 1_555
Pm4 Se7 2.973635 1_554
Pm4 Se0 2.973635 1_554
Pm4 Se13 3.050881 1_544
Pm4 Se1 3.070859 1_545
Pm4 Se6 3.070859 1_445
Pm5 Se10 2.786039 1_555
Pm5 Se1 2.973635 1_556
Pm5 Se6 2.973635 1_556
Pm5 Se12 3.050881 1_566
Pm5 Se7 3.070859 1_665
Pm5 Se0 3.070859 1_565
Pm6 Se9 2.786039 1_555
Pm6 Se2 2.973635 1_555
Pm6 Se5 2.973635 1_555
Pm6 Se15 3.050881 1_555
Pm6 Se3 3.070859 1_555
Pm6 Se4 3.070859 1_655
Pm7 Se8 2.786039 1_555
Pm7 Se3 2.973635 1_555
Pm7 Se4 2.973635 1_555
Pm7 Se14 3.050881 1_555
Pm7 Se5 3.070859 1_455
Pm7 Se2 3.070859 1_555
Mg0 Se8 2.444802 1_545
Mg0 Se14 2.548863 1_555
Mg0 Se5 2.571145 1_455
Mg0 Se2 2.571145 1_555
Mg1 Se9 2.444802 1_565
Mg1 Se15 2.548863 1_555
Mg1 Se4 2.571145 1_655
Mg1 Se3 2.571145 1_555
Mg2 Se10 2.444802 1_555
Mg2 Se12 2.548863 1_556
Mg2 Se7 2.571145 1_655
Mg2 Se0 2.571145 1_555
Mg3 Se11 2.444802 1_555
Mg3 Se13 2.548863 1_554
Mg3 Se6 2.571145 1_455
Mg3 Se1 2.571145 1_555
