# generated using pymatgen
data_Ce2Ge3Rh
_symmetry_space_group_name_H-M   'P 1'
_cell_length_a   3.99209300
_cell_length_b   4.38376053
_cell_length_c   7.33917796
_cell_angle_alpha   89.99860074
_cell_angle_beta   90.00000000
_cell_angle_gamma   90.00000000
_symmetry_Int_Tables_number   1
_chemical_formula_structural   Ce2Ge3Rh
_chemical_formula_sum   'Ce2 Ge3 Rh1'
_cell_volume   128.43840113
_cell_formula_units_Z   1
loop_
 _symmetry_equiv_pos_site_id
 _symmetry_equiv_pos_as_xyz
  1  'x, y, z'
loop_
 _atom_site_type_symbol
 _atom_site_label
 _atom_site_symmetry_multiplicity
 _atom_site_fract_x
 _atom_site_fract_y
 _atom_site_fract_z
 _atom_site_occupancy
  Ce  Ce0  1  0.00000000  0.99998300  0.00821200  1
  Ce  Ce1  1  0.00000000  0.49998300  0.49455400  1
  Ge  Ge0  1  0.50000000  0.49994600  0.83271400  1
  Ge  Ge1  1  0.50000000  0.49997600  0.17098300  1
  Ge  Ge2  1  0.50000000  0.99994300  0.66444300  1
  Rh  Rh0  1  0.50000000  0.99996800  0.32909400  1
loop_
_geom_bond_atom_site_label_1
_geom_bond_atom_site_label_2
_geom_bond_distance
_geom_bond_site_symmetry_2
Ce0 Rh0 3.087114 1_555
Ce0 Rh0 3.087114 1_455
Ce0 Ge1 3.196188 1_565
Ce0 Ge1 3.196188 1_465
Ce0 Ge1 3.196190 1_555
Ce0 Ge1 3.196190 1_455
Ce0 Ge2 3.217086 1_554
Ce0 Ge2 3.217086 1_454
Ce0 Ge0 3.232130 1_564
Ce0 Ge0 3.232130 1_464
Ce0 Ge0 3.232393 1_454
Ce0 Ge0 3.232393 1_554
Ce1 Ge1 3.102195 1_455
Ce1 Ge1 3.102195 1_555
Ce1 Ge0 3.184904 1_555
Ce1 Ge0 3.184904 1_455
Ce1 Rh0 3.203552 1_455
Ce1 Rh0 3.203552 1_555
Ce1 Rh0 3.203683 1_545
Ce1 Rh0 3.203683 1_445
Ce1 Ge2 3.215980 1_455
Ce1 Ge2 3.215980 1_555
Ce1 Ge2 3.216178 1_445
Ce1 Ge2 3.216178 1_545
Ge0 Ge1 2.482616 1_556
Ge0 Ge2 2.515810 1_555
Ge0 Ge2 2.515886 1_545
Ge1 Rh0 2.480090 1_555
Ge1 Rh0 2.480102 1_545
Ge2 Rh0 2.461186 1_555
