# generated using pymatgen
data_Li7Mn4CoO12
_symmetry_space_group_name_H-M   'P 1'
_cell_length_a   5.87417122
_cell_length_b   5.95410742
_cell_length_c   12.68271088
_cell_angle_alpha   103.19435998
_cell_angle_beta   88.79473906
_cell_angle_gamma   92.14963053
_symmetry_Int_Tables_number   1
_chemical_formula_structural   Li7Mn4CoO12
_chemical_formula_sum   'Li14 Mn8 Co2 O24'
_cell_volume   431.53409808
_cell_formula_units_Z   2
loop_
 _symmetry_equiv_pos_site_id
 _symmetry_equiv_pos_as_xyz
  1  'x, y, z'
loop_
 _atom_site_type_symbol
 _atom_site_label
 _atom_site_symmetry_multiplicity
 _atom_site_fract_x
 _atom_site_fract_y
 _atom_site_fract_z
 _atom_site_occupancy
  Li  Li0  1  0.25017700  0.66667200  0.83339400  1
  Li  Li1  1  0.74982700  0.66666600  0.83327300  1
  Li  Li2  1  0.99999900  0.16666800  0.33333200  1
  Li  Li3  1  0.50000200  0.16666700  0.33333200  1
  Li  Li4  1  0.25014300  0.16662700  0.83338800  1
  Li  Li5  1  0.74986100  0.16670600  0.83328000  1
  Li  Li6  1  0.00379700  0.47842900  0.98188400  1
  Li  Li7  1  0.50383700  0.47879200  0.98291200  1
  Li  Li8  1  0.99620600  0.85490700  0.68478100  1
  Li  Li9  1  0.49616600  0.85453800  0.68375600  1
  Li  Li10  1  0.25208800  0.33437400  0.16707300  1
  Li  Li11  1  0.74683500  0.33318800  0.16795200  1
  Li  Li12  1  0.25317000  0.00014600  0.49871300  1
  Li  Li13  1  0.74791500  0.99896500  0.49959200  1
  Mn  Mn0  1  0.99312000  0.00213500  0.99286500  1
  Mn  Mn1  1  0.00688300  0.33120900  0.67380500  1
  Mn  Mn2  1  0.25328900  0.83358700  0.16830700  1
  Mn  Mn3  1  0.74670100  0.49975000  0.49836000  1
  Mn  Mn4  1  0.49357900  0.00209500  0.99226000  1
  Mn  Mn5  1  0.50642900  0.33122400  0.67441000  1
  Mn  Mn6  1  0.74888200  0.83074600  0.16708700  1
  Mn  Mn7  1  0.25110800  0.50258400  0.49957900  1
  Co  Co0  1  0.49999800  0.66666600  0.33333200  1
  Co  Co1  1  0.00000000  0.66666600  0.33333300  1
  O  O0  1  0.25067900  0.22201000  0.00021700  1
  O  O1  1  0.75170000  0.22186500  0.99986800  1
  O  O2  1  0.24830100  0.11146600  0.66679800  1
  O  O3  1  0.74932300  0.11132100  0.66645000  1
  O  O4  1  0.48267300  0.06789300  0.15701900  1
  O  O5  1  0.97861900  0.06762400  0.15993100  1
  O  O6  1  0.02137600  0.26571000  0.50673600  1
  O  O7  1  0.51732500  0.26543700  0.50964900  1
  O  O8  1  0.50120100  0.41195500  0.82124200  1
  O  O9  1  0.00043600  0.41178400  0.82054700  1
  O  O10  1  0.99957000  0.92155100  0.84611700  1
  O  O11  1  0.49880200  0.92137600  0.84542700  1
  O  O12  1  0.26247700  0.55467800  0.66384700  1
  O  O13  1  0.76345100  0.55447500  0.66217300  1
  O  O14  1  0.23654900  0.77885900  0.00449400  1
  O  O15  1  0.73752400  0.77865400  0.00282100  1
  O  O16  1  0.47860400  0.73920900  0.49285300  1
  O  O17  1  0.98086400  0.73573400  0.48969500  1
  O  O18  1  0.01913100  0.59759900  0.17697200  1
  O  O19  1  0.52138800  0.59412100  0.17381200  1
  O  O20  1  0.27598000  0.90062200  0.32754800  1
  O  O21  1  0.75611000  0.88536500  0.33007100  1
  O  O22  1  0.24388700  0.44796800  0.33659700  1
  O  O23  1  0.72401800  0.43271500  0.33911600  1
loop_
_geom_bond_atom_site_label_1
_geom_bond_atom_site_label_2
_geom_bond_distance
_geom_bond_site_symmetry_2
Li0 O11 2.047851 1_555
Li0 O9 2.052329 1_555
Li0 O12 2.101482 1_555
Li0 O14 2.120504 1_556
Li0 O10 2.131195 1_455
Li0 O8 2.133000 1_555
Li1 O8 2.047887 1_555
Li1 O10 2.052327 1_555
Li1 O15 2.101492 1_556
Li1 O13 2.120505 1_555
Li1 O9 2.131212 1_655
Li1 O11 2.132971 1_555
Li2 O5 2.148025 1_555
Li2 O6 2.148060 1_655
Li2 O22 2.156445 1_655
Li2 O21 2.156469 1_545
Li2 O20 2.297261 1_645
Li2 O23 2.297265 1_555
Li3 O23 2.010208 1_555
Li3 O20 2.010217 1_545
Li3 O4 2.182025 1_555
Li3 O7 2.182071 1_555
Li3 O21 2.285844 1_545
Li3 O22 2.285859 1_555
Li4 O2 2.062978 1_555
Li4 O10 2.063561 1_445
Li4 O8 2.064914 1_555
Li4 O0 2.065729 1_556
Li4 O11 2.135501 1_545
Li4 O9 2.141958 1_555
Li5 O1 2.062953 1_555
Li5 O9 2.063589 1_655
Li5 O11 2.064929 1_545
Li5 O3 2.065740 1_555
Li5 O8 2.135494 1_555
Li5 O10 2.141945 1_545
Li6 O9 1.993788 1_555
Li6 O1 2.133942 1_455
Li6 O14 2.179488 1_556
Li6 O0 2.197844 1_556
Li6 O15 2.384958 1_456
Li6 O18 2.415904 1_556
Li7 O8 1.997793 1_555
Li7 O0 2.136835 1_556
Li7 O15 2.181907 1_556
Li7 O1 2.199271 1_555
Li7 O19 2.364371 1_556
Li7 O14 2.387736 1_556
Li8 O10 1.993777 1_555
Li8 O2 2.133910 1_665
Li8 O13 2.179509 1_555
Li8 O3 2.197818 1_565
Li8 O12 2.384971 1_655
Li8 O17 2.415883 1_555
Li9 O11 1.997806 1_555
Li9 O3 2.136839 1_565
Li9 O12 2.181905 1_555
Li9 O2 2.199291 1_565
Li9 O16 2.364411 1_555
Li9 O13 2.387706 1_555
Li10 O0 2.068795 1_555
Li10 O18 2.099651 1_555
Li10 O22 2.101575 1_555
Li10 O4 2.104755 1_555
Li10 O19 2.159495 1_555
Li10 O5 2.204619 1_455
Li11 O19 2.066537 1_555
Li11 O1 2.082877 1_554
Li11 O5 2.108688 1_555
Li11 O23 2.118505 1_555
Li11 O4 2.155784 1_555
Li11 O18 2.187835 1_655
Li12 O16 2.066504 1_545
Li12 O2 2.082887 1_555
Li12 O6 2.108724 1_555
Li12 O20 2.118514 1_545
Li12 O7 2.155736 1_555
Li12 O17 2.187883 1_445
Li13 O3 2.068814 1_565
Li13 O17 2.099650 1_555
Li13 O21 2.101542 1_555
Li13 O7 2.104729 1_565
Li13 O16 2.159577 1_555
Li13 O6 2.204563 1_665
Mn0 O10 1.812818 1_545
Mn0 O1 1.952305 1_555
Mn0 O0 1.952746 1_656
Mn0 O15 1.989879 1_546
Mn0 O14 2.018616 1_646
Mn0 O5 2.065564 1_556
Mn1 O9 1.812743 1_555
Mn1 O2 1.952343 1_555
Mn1 O3 1.952796 1_455
Mn1 O12 1.989829 1_555
Mn1 O13 2.018596 1_455
Mn1 O6 2.065598 1_555
Mn2 O4 1.929868 1_565
Mn2 O18 1.948712 1_555
Mn2 O20 1.973634 1_555
Mn2 O14 2.032087 1_555
Mn2 O19 2.176350 1_555
Mn2 O5 2.190840 1_465
Mn3 O7 1.929869 1_555
Mn3 O17 1.948715 1_555
Mn3 O23 1.973668 1_555
Mn3 O13 2.032092 1_555
Mn3 O16 2.176318 1_555
Mn3 O6 2.190874 1_655
Mn4 O11 1.813832 1_545
Mn4 O1 1.954546 1_555
Mn4 O0 1.958148 1_556
Mn4 O14 2.001031 1_546
Mn4 O15 2.018350 1_546
Mn4 O4 2.036299 1_556
Mn5 O8 1.813822 1_555
Mn5 O2 1.954528 1_555
Mn5 O3 1.958068 1_555
Mn5 O13 2.001063 1_555
Mn5 O12 2.018441 1_555
Mn5 O7 2.036325 1_555
Mn6 O19 1.920122 1_555
Mn6 O5 1.931099 1_565
Mn6 O21 2.018949 1_555
Mn6 O15 2.037219 1_555
Mn6 O4 2.170653 1_565
Mn6 O18 2.171642 1_655
Mn7 O16 1.920132 1_555
Mn7 O6 1.931064 1_555
Mn7 O22 2.018924 1_555
Mn7 O12 2.037246 1_555
Mn7 O7 2.170693 1_555
Mn7 O17 2.171629 1_455
Co0 O22 1.958490 1_555
Co0 O21 1.958491 1_555
Co0 O23 1.966124 1_555
Co0 O20 1.966138 1_555
Co0 O19 1.972289 1_555
Co0 O16 1.972302 1_555
Co1 O18 1.932914 1_555
Co1 O17 1.932928 1_455
Co1 O22 1.979091 1_555
Co1 O21 1.979104 1_455
Co1 O23 2.108589 1_455
Co1 O20 2.108604 1_555
