# generated using pymatgen
data_NdUCo10
_symmetry_space_group_name_H-M   'P 1'
_cell_length_a   3.92807500
_cell_length_b   4.80344131
_cell_length_c   8.31230313
_cell_angle_alpha   89.99999075
_cell_angle_beta   90.00000000
_cell_angle_gamma   90.00000000
_symmetry_Int_Tables_number   1
_chemical_formula_structural   NdUCo10
_chemical_formula_sum   'Nd1 U1 Co10'
_cell_volume   156.83884394
_cell_formula_units_Z   1
loop_
 _symmetry_equiv_pos_site_id
 _symmetry_equiv_pos_as_xyz
  1  'x, y, z'
loop_
 _atom_site_type_symbol
 _atom_site_label
 _atom_site_symmetry_multiplicity
 _atom_site_fract_x
 _atom_site_fract_y
 _atom_site_fract_z
 _atom_site_occupancy
  Nd  Nd0  1  0.00000000  0.00017700  0.00000000  1
  U  U0  1  0.00000000  0.49977000  0.50000000  1
  Co  Co0  1  0.00000000  0.00011900  0.34988000  1
  Co  Co1  1  0.00000000  0.49991400  0.80650300  1
  Co  Co2  1  0.00000000  0.49991400  0.19349700  1
  Co  Co3  1  0.00000000  0.00011900  0.65011900  1
  Co  Co4  1  0.50000000  0.00004200  0.50000000  1
  Co  Co5  1  0.50000000  0.49993200  0.00000000  1
  Co  Co6  1  0.50000000  0.25362900  0.25836300  1
  Co  Co7  1  0.50000000  0.74627900  0.74163400  1
  Co  Co8  1  0.50000000  0.74627900  0.25836600  1
  Co  Co9  1  0.50000000  0.25362900  0.74163700  1
loop_
_geom_bond_atom_site_label_1
_geom_bond_atom_site_label_2
_geom_bond_distance
_geom_bond_site_symmetry_2
Co0 Co4 2.326920 1_555
Co0 Co4 2.326920 1_455
Co0 Co6 2.432895 1_455
Co0 Co6 2.432895 1_555
Co0 Co8 2.433681 1_445
Co0 Co8 2.433681 1_545
Co0 Co3 2.495678 1_555
Co0 U0 2.705056 1_555
Co0 U0 2.708030 1_545
Co0 Co2 2.730070 1_555
Co0 Co2 2.731802 1_545
Co0 Nd0 2.908309 1_555
Co1 Co9 2.355354 1_455
Co1 Co9 2.355354 1_555
Co1 Co7 2.355552 1_455
Co1 Co7 2.355552 1_555
Co1 Co5 2.538585 1_456
Co1 Co5 2.538585 1_556
Co1 U0 2.547746 1_555
Co1 Co3 2.730074 1_555
Co1 Co3 2.731805 1_565
Co1 Nd0 2.889492 1_556
Co1 Nd0 2.891592 1_566
Co2 Co6 2.355354 1_555
Co2 Co6 2.355354 1_455
Co2 Co8 2.355552 1_455
Co2 Co8 2.355552 1_555
Co2 Co5 2.538585 1_455
Co2 Co5 2.538585 1_555
Co2 U0 2.547746 1_555
Co2 Nd0 2.889492 1_555
Co2 Nd0 2.891591 1_565
Co3 Co4 2.326915 1_555
Co3 Co4 2.326915 1_455
Co3 Co9 2.432897 1_455
Co3 Co9 2.432897 1_555
Co3 Co7 2.433683 1_445
Co3 Co7 2.433683 1_545
Co3 U0 2.705051 1_555
Co3 U0 2.708027 1_545
Co3 Nd0 2.908317 1_556
Co4 Co6 2.349054 1_555
Co4 Co9 2.349055 1_555
Co4 Co7 2.349472 1_545
Co4 Co8 2.349472 1_545
Co5 Co6 2.451913 1_555
Co5 Co9 2.451914 1_554
Co5 Co7 2.452037 1_554
Co5 Co8 2.452038 1_555
Co5 Nd0 3.101621 1_555
Co5 Nd0 3.101621 1_655
Co5 Nd0 3.103443 1_565
Co5 Nd0 3.103443 1_665
Co6 Co8 2.366415 1_555
Co6 Co8 2.437026 1_545
Co6 Nd0 3.154641 1_655
Co6 Nd0 3.154641 1_555
Co7 Co9 2.366415 1_555
Co7 Co9 2.437026 1_565
Co7 Nd0 3.155485 1_566
Co7 Nd0 3.155485 1_666
Co8 Nd0 3.155485 1_565
Co8 Nd0 3.155485 1_665
Co9 Nd0 3.154640 1_556
Co9 Nd0 3.154640 1_656
