# generated using pymatgen
data_BaLaGa3O7
_symmetry_space_group_name_H-M   'P 1'
_cell_length_a   5.47452600
_cell_length_b   8.25290475
_cell_length_c   8.25290475
_cell_angle_alpha   88.68578398
_cell_angle_beta   90.00000000
_cell_angle_gamma   90.00000000
_symmetry_Int_Tables_number   1
_chemical_formula_structural   BaLaGa3O7
_chemical_formula_sum   'Ba2 La2 Ga6 O14'
_cell_volume   372.77427298
_cell_formula_units_Z   2
loop_
 _symmetry_equiv_pos_site_id
 _symmetry_equiv_pos_as_xyz
  1  'x, y, z'
loop_
 _atom_site_type_symbol
 _atom_site_label
 _atom_site_symmetry_multiplicity
 _atom_site_fract_x
 _atom_site_fract_y
 _atom_site_fract_z
 _atom_site_occupancy
  Ba  Ba0  1  0.50524600  0.33592200  0.83592200  1
  Ba  Ba1  1  0.50524600  0.66407800  0.16407800  1
  La  La0  1  0.48696100  0.16190100  0.33809900  1
  La  La1  1  0.48696100  0.83809900  0.66190100  1
  Ga  Ga0  1  0.00696800  0.50000000  0.50000000  1
  Ga  Ga1  1  0.00696800  0.00000000  0.00000000  1
  Ga  Ga2  1  0.96828100  0.86228700  0.36228700  1
  Ga  Ga3  1  0.02977500  0.64852700  0.85147300  1
  Ga  Ga4  1  0.96828100  0.13771300  0.63771300  1
  Ga  Ga5  1  0.02977500  0.35147300  0.14852700  1
  O  O0  1  0.30129500  0.12306000  0.62306000  1
  O  O1  1  0.69867200  0.34101200  0.15898800  1
  O  O2  1  0.30129500  0.87694000  0.37694000  1
  O  O3  1  0.69867200  0.65898800  0.84101200  1
  O  O4  1  0.20330400  0.40517400  0.34009000  1
  O  O5  1  0.81068600  0.07588800  0.83115900  1
  O  O6  1  0.20330400  0.59482600  0.65991000  1
  O  O7  1  0.81068600  0.92411200  0.16884100  1
  O  O8  1  0.81068600  0.66884100  0.42411200  1
  O  O9  1  0.20330400  0.84009000  0.90517400  1
  O  O10  1  0.81068600  0.33115900  0.57588800  1
  O  O11  1  0.20330400  0.15991000  0.09482600  1
  O  O12  1  0.15554200  0.50000000  0.00000000  1
  O  O13  1  0.79410300  0.00000000  0.50000000  1
loop_
_geom_bond_atom_site_label_1
_geom_bond_atom_site_label_2
_geom_bond_distance
_geom_bond_site_symmetry_2
Ba0 O10 2.721568 1_555
Ba0 O5 2.721568 1_555
Ba0 O12 2.723337 1_556
Ba0 O0 2.749620 1_555
Ba0 O3 2.870018 1_555
Ba0 O1 2.870018 1_556
Ba0 O6 3.043946 1_555
Ba0 O11 3.043946 1_556
Ba1 O7 2.721568 1_555
Ba1 O8 2.721568 1_555
Ba1 O12 2.723337 1_555
Ba1 O2 2.749620 1_555
Ba1 O1 2.870018 1_555
Ba1 O3 2.870018 1_554
Ba1 O4 3.043946 1_555
Ba1 O9 3.043946 1_554
La0 O1 2.369211 1_555
La0 O13 2.513169 1_555
La0 O4 2.538531 1_555
La0 O11 2.538531 1_555
La0 O2 2.575280 1_545
La0 O0 2.575280 1_555
La0 O10 3.011485 1_555
La0 O7 3.011485 1_545
La1 O3 2.369211 1_555
La1 O13 2.513169 1_565
La1 O6 2.538531 1_555
La1 O9 2.538531 1_555
La1 O2 2.575280 1_555
La1 O0 2.575280 1_565
La1 O8 3.011485 1_555
La1 O5 3.011485 1_565
Ga0 O10 1.857019 1_455
Ga0 O8 1.857019 1_455
Ga0 O4 1.885944 1_555
Ga0 O6 1.885944 1_555
Ga1 O5 1.857019 1_454
Ga1 O7 1.857019 1_445
Ga1 O11 1.885944 1_555
Ga1 O9 1.885944 1_544
Ga2 O2 1.831281 1_655
Ga2 O7 1.875130 1_555
Ga2 O8 1.875130 1_555
Ga2 O13 1.884650 1_565
Ga3 O3 1.816645 1_455
Ga3 O12 1.846672 1_556
Ga3 O6 1.905372 1_555
Ga3 O9 1.905372 1_555
Ga4 O0 1.831281 1_655
Ga4 O10 1.875130 1_555
Ga4 O5 1.875130 1_555
Ga4 O13 1.884650 1_555
Ga5 O1 1.816645 1_455
Ga5 O12 1.846672 1_555
Ga5 O11 1.905372 1_555
Ga5 O4 1.905372 1_555
