# generated using pymatgen
data_Sr9ThCl22
_symmetry_space_group_name_H-M   'P 1'
_cell_length_a   18.11783812
_cell_length_b   18.11783812
_cell_length_c   7.04262100
_cell_angle_alpha   90.00000000
_cell_angle_beta   90.00000000
_cell_angle_gamma   157.64786189
_symmetry_Int_Tables_number   1
_chemical_formula_structural   Sr9ThCl22
_chemical_formula_sum   'Sr9 Th1 Cl22'
_cell_volume   879.16628442
_cell_formula_units_Z   1
loop_
 _symmetry_equiv_pos_site_id
 _symmetry_equiv_pos_as_xyz
  1  'x, y, z'
loop_
 _atom_site_type_symbol
 _atom_site_label
 _atom_site_symmetry_multiplicity
 _atom_site_fract_x
 _atom_site_fract_y
 _atom_site_fract_z
 _atom_site_occupancy
  Sr  Sr0  1  0.50000000  0.50000000  0.50000000  1
  Sr  Sr1  1  0.39952200  0.60047800  0.00000000  1
  Sr  Sr2  1  0.29984300  0.70015700  0.50000000  1
  Sr  Sr3  1  0.19999400  0.80000600  0.00000000  1
  Sr  Sr4  1  0.89954300  0.10045700  0.50000000  1
  Sr  Sr5  1  0.80000600  0.19999400  0.00000000  1
  Sr  Sr6  1  0.10045700  0.89954300  0.50000000  1
  Sr  Sr7  1  0.70015700  0.29984300  0.50000000  1
  Sr  Sr8  1  0.60047800  0.39952200  0.00000000  1
  Th  Th0  1  0.00000000  0.00000000  0.00000000  1
  Cl  Cl0  1  0.10059300  0.40130500  0.25099400  1
  Cl  Cl1  1  0.59869500  0.89940700  0.74900600  1
  Cl  Cl2  1  0.50000000  0.00000000  0.24978500  1
  Cl  Cl3  1  0.28643900  0.17906100  0.76734900  1
  Cl  Cl4  1  0.40130500  0.10059300  0.74900600  1
  Cl  Cl5  1  0.00000000  0.50000000  0.75021500  1
  Cl  Cl6  1  0.17906100  0.28643900  0.23265100  1
  Cl  Cl7  1  0.28643900  0.17906100  0.23265100  1
  Cl  Cl8  1  0.82093900  0.71356100  0.23265100  1
  Cl  Cl9  1  0.50000000  0.50000000  0.00000000  1
  Cl  Cl10  1  0.89940700  0.59869500  0.25099400  1
  Cl  Cl11  1  0.17906100  0.28643900  0.76734900  1
  Cl  Cl12  1  0.10059300  0.40130500  0.74900600  1
  Cl  Cl13  1  0.82093900  0.71356100  0.76734900  1
  Cl  Cl14  1  0.71356100  0.82093900  0.76734900  1
  Cl  Cl15  1  0.00000000  0.50000000  0.24978500  1
  Cl  Cl16  1  0.71356100  0.82093900  0.23265100  1
  Cl  Cl17  1  0.00000000  0.00000000  0.50000000  1
  Cl  Cl18  1  0.59869500  0.89940700  0.25099400  1
  Cl  Cl19  1  0.50000000  0.00000000  0.75021500  1
  Cl  Cl20  1  0.40130500  0.10059300  0.25099400  1
  Cl  Cl21  1  0.89940700  0.59869500  0.74900600  1
loop_
_geom_bond_atom_site_label_1
_geom_bond_atom_site_label_2
_geom_bond_distance
_geom_bond_site_symmetry_2
Cl0 Sr2 3.044514 1_555
Cl0 Sr1 3.054188 1_555
Cl0 Sr4 3.054214 1_455
Cl0 Sr5 3.056910 1_455
Cl1 Sr2 3.044514 1_555
Cl1 Sr1 3.054188 1_556
Cl1 Sr4 3.054214 1_565
Cl1 Sr5 3.056910 1_566
Cl2 Sr7 3.054121 1_555
Cl2 Sr2 3.054121 1_545
Cl2 Sr5 3.055742 1_555
Cl2 Sr3 3.055742 1_545
Cl3 Sr8 2.995697 1_556
Cl3 Sr6 2.996882 1_545
Cl3 Th0 2.999903 1_556
Cl3 Sr0 3.272736 1_555
Cl4 Sr7 3.044514 1_555
Cl4 Sr8 3.054188 1_556
Cl4 Sr6 3.054214 1_545
Cl4 Sr3 3.056910 1_546
Cl5 Sr2 3.054121 1_555
Cl5 Sr7 3.054121 1_455
Cl5 Sr3 3.055742 1_556
Cl5 Sr5 3.055742 1_456
Cl6 Sr1 2.995697 1_555
Cl6 Sr4 2.996882 1_455
Cl6 Th0 2.999903 1_555
Cl6 Sr0 3.272736 1_555
Cl7 Sr8 2.995697 1_555
Cl7 Sr6 2.996882 1_545
Cl7 Th0 2.999903 1_555
Cl7 Sr0 3.272736 1_555
Cl8 Sr8 2.995697 1_555
Cl8 Sr6 2.996882 1_655
Cl8 Th0 2.999903 1_665
Cl8 Sr0 3.272736 1_555
Cl9 Th0 3.511683 1_555
Cl9 Th0 3.511683 1_665
Cl9 Sr0 3.521310 1_555
Cl9 Sr0 3.521310 1_554
Cl9 Sr8 3.571843 1_555
Cl9 Sr1 3.571843 1_555
Cl10 Sr7 3.044514 1_555
Cl10 Sr8 3.054188 1_555
Cl10 Sr6 3.054214 1_655
Cl10 Sr3 3.056910 1_655
Cl11 Sr1 2.995697 1_556
Cl11 Sr4 2.996882 1_455
Cl11 Th0 2.999903 1_556
Cl11 Sr0 3.272736 1_555
Cl12 Sr2 3.044514 1_555
Cl12 Sr1 3.054188 1_556
Cl12 Sr4 3.054214 1_455
Cl12 Sr5 3.056910 1_456
Cl13 Sr8 2.995697 1_556
Cl13 Sr6 2.996882 1_655
Cl13 Th0 2.999903 1_666
Cl13 Sr0 3.272736 1_555
Cl14 Sr1 2.995697 1_556
Cl14 Sr4 2.996882 1_565
Cl14 Th0 2.999903 1_666
Cl14 Sr0 3.272736 1_555
Cl15 Sr2 3.054121 1_555
Cl15 Sr7 3.054121 1_455
Cl15 Sr3 3.055742 1_555
Cl15 Sr5 3.055742 1_455
Cl16 Sr1 2.995697 1_555
Cl16 Sr4 2.996882 1_565
Cl16 Th0 2.999903 1_665
Cl16 Sr0 3.272736 1_555
Cl17 Sr0 3.511683 1_555
Cl17 Sr0 3.511683 1_445
Cl17 Th0 3.521310 1_556
Cl17 Th0 3.521310 1_555
Cl17 Sr4 3.571097 1_455
Cl17 Sr6 3.571097 1_545
Cl18 Sr2 3.044514 1_555
Cl18 Sr1 3.054188 1_555
Cl18 Sr4 3.054214 1_565
Cl18 Sr5 3.056910 1_565
Cl19 Sr7 3.054121 1_555
Cl19 Sr2 3.054121 1_545
Cl19 Sr5 3.055742 1_556
Cl19 Sr3 3.055742 1_546
Cl20 Sr7 3.044514 1_555
Cl20 Sr8 3.054188 1_555
Cl20 Sr6 3.054214 1_545
Cl20 Sr3 3.056910 1_545
Cl21 Sr7 3.044514 1_555
Cl21 Sr8 3.054188 1_556
Cl21 Sr6 3.054214 1_655
Cl21 Sr3 3.056910 1_656
