# generated using pymatgen
data_Y2Fe17C2
_symmetry_space_group_name_H-M   'P 1'
_cell_length_a   6.46695825
_cell_length_b   6.46695825
_cell_length_c   6.49297687
_cell_angle_alpha   83.66986895
_cell_angle_beta   83.66986895
_cell_angle_gamma   83.23343660
_symmetry_Int_Tables_number   1
_chemical_formula_structural   Y2Fe17C2
_chemical_formula_sum   'Y2 Fe17 C2'
_cell_volume   266.70619379
_cell_formula_units_Z   1
loop_
 _symmetry_equiv_pos_site_id
 _symmetry_equiv_pos_as_xyz
  1  'x, y, z'
loop_
 _atom_site_type_symbol
 _atom_site_label
 _atom_site_symmetry_multiplicity
 _atom_site_fract_x
 _atom_site_fract_y
 _atom_site_fract_z
 _atom_site_occupancy
  Y  Y0  1  0.34519100  0.34519100  0.33780600  1
  Y  Y1  1  0.65480900  0.65480900  0.66219400  1
  Fe  Fe0  1  0.09604900  0.09604900  0.09604900  1
  Fe  Fe1  1  0.90395100  0.90395100  0.90395100  1
  Fe  Fe2  1  0.65631300  0.65631300  0.14829900  1
  Fe  Fe3  1  0.65629300  0.14861500  0.65792300  1
  Fe  Fe4  1  0.14861500  0.65629300  0.65792300  1
  Fe  Fe5  1  0.34368700  0.34368700  0.85170100  1
  Fe  Fe6  1  0.34370700  0.85138500  0.34207700  1
  Fe  Fe7  1  0.85138500  0.34370700  0.34207700  1
  Fe  Fe8  1  0.71134300  0.28865700  0.00000000  1
  Fe  Fe9  1  0.28532600  0.00048900  0.71475400  1
  Fe  Fe10  1  0.99951100  0.71467400  0.28524600  1
  Fe  Fe11  1  0.71467400  0.99951100  0.28524600  1
  Fe  Fe12  1  0.00048900  0.28532600  0.71475400  1
  Fe  Fe13  1  0.28865700  0.71134300  0.00000000  1
  Fe  Fe14  1  0.00000000  0.00000000  0.50000000  1
  Fe  Fe15  1  0.00000000  0.50000000  0.00000000  1
  Fe  Fe16  1  0.50000000  0.00000000  0.00000000  1
  C  C0  1  0.50000000  0.00000000  0.50000000  1
  C  C1  1  0.00000000  0.50000000  0.50000000  1
loop_
_geom_bond_atom_site_label_1
_geom_bond_atom_site_label_2
_geom_bond_distance
_geom_bond_site_symmetry_2
Fe0 Fe1 2.385233 1_444
Fe0 Fe16 2.634926 1_555
Fe0 Fe15 2.634926 1_555
Fe0 Fe14 2.650163 1_555
Fe0 Fe7 2.651431 1_455
Fe0 Fe6 2.651431 1_545
Fe0 Fe5 2.670264 1_554
Fe0 Fe9 2.738677 1_554
Fe0 Fe12 2.738677 1_554
Fe0 Fe11 2.739942 1_445
Fe0 Fe10 2.739942 1_445
Fe0 Fe13 2.751464 1_545
Fe0 Fe8 2.751464 1_455
Fe0 Y0 3.063176 1_555
Fe1 Fe15 2.634926 1_656
Fe1 Fe16 2.634926 1_566
Fe1 Fe14 2.650163 1_665
Fe1 Fe4 2.651431 1_655
Fe1 Fe3 2.651431 1_565
Fe1 Fe2 2.670264 1_556
Fe1 Fe11 2.738677 1_556
Fe1 Fe10 2.738677 1_556
Fe1 Fe9 2.739942 1_665
Fe1 Fe12 2.739942 1_665
Fe1 Fe8 2.751464 1_566
Fe1 Fe13 2.751464 1_656
Fe1 Y1 3.063176 1_555
Fe2 Fe7 2.539594 1_555
Fe2 Fe6 2.539594 1_555
Fe2 Fe8 2.633776 1_555
Fe2 Y0 3.077748 1_555
Fe2 Y1 3.158446 1_554
Fe2 Y1 3.334595 1_555
Fe3 Fe5 2.539594 1_555
Fe3 Fe8 2.564005 1_556
Fe4 Fe5 2.539594 1_555
Fe5 Fe9 2.562351 1_555
Fe5 Fe8 2.633776 1_556
Fe5 Y1 3.077748 1_555
Fe5 Y0 3.158446 1_556
Fe5 Y0 3.334595 1_555
Fe7 Fe8 2.564005 1_555
Fe8 Y1 3.062512 1_554
Fe8 Y0 3.062512 1_555
Fe10 Fe14 2.432855 1_665
Fe10 Fe15 2.433574 1_655
Fe10 Fe13 2.482508 1_655
Fe10 Fe2 2.562351 1_555
Fe11 Fe14 2.432855 1_665
Fe11 Fe16 2.433574 1_565
Fe11 Fe8 2.482508 1_565
Fe11 Fe2 2.562351 1_555
Fe12 Fe14 2.432855 1_555
Fe12 Fe15 2.433574 1_556
Fe12 Fe8 2.482508 1_456
Fe12 Fe5 2.562351 1_555
Fe13 Fe15 2.440063 1_555
Fe13 Fe16 2.440063 1_565
Fe13 Fe9 2.482508 1_564
Fe13 Fe6 2.564005 1_555
Fe13 Fe4 2.564005 1_554
Fe13 Fe2 2.633776 1_555
Fe13 Fe5 2.633776 1_554
Fe13 Y1 3.062512 1_554
Fe13 Y0 3.062512 1_555
Fe14 Fe9 2.432855 1_555
Fe14 Fe3 2.475278 1_455
Fe14 Fe4 2.475278 1_545
Fe14 Fe6 2.475278 1_545
Fe14 Fe7 2.475278 1_455
Fe14 Y0 3.348612 1_555
Fe14 Y1 3.348612 1_445
Fe15 Fe8 2.440063 1_455
Fe15 Fe5 2.470281 1_554
Fe15 Fe2 2.470281 1_455
Fe15 Fe7 2.478246 1_455
Fe15 Fe4 2.478246 1_554
Fe15 Y0 3.296257 1_555
Fe15 Y1 3.296257 1_454
Fe16 Fe9 2.433574 1_554
Fe16 Fe8 2.440063 1_555
Fe16 Fe5 2.470281 1_554
Fe16 Fe2 2.470281 1_545
Fe16 Fe6 2.478246 1_545
Fe16 Fe3 2.478246 1_554
Fe16 Y0 3.296257 1_555
Fe16 Y1 3.296257 1_544
C0 Fe11 1.856003 1_545
C0 Fe9 1.856003 1_555
C0 Fe3 1.916110 1_555
C0 Fe6 1.916110 1_545
C0 Y0 2.506414 1_555
C0 Y1 2.506414 1_545
C1 Fe10 1.856003 1_455
C1 Fe12 1.856003 1_555
C1 Fe4 1.916110 1_555
C1 Fe7 1.916110 1_455
C1 Y0 2.506414 1_555
C1 Y1 2.506414 1_455
