# generated using pymatgen
data_U2S5
_symmetry_space_group_name_H-M   'P 1'
_cell_length_a   7.54772340
_cell_length_b   7.46863830
_cell_length_c   9.93346045
_cell_angle_alpha   89.99995427
_cell_angle_beta   90.00008378
_cell_angle_gamma   90.00053030
_symmetry_Int_Tables_number   1
_chemical_formula_structural   U2S5
_chemical_formula_sum   'U8 S20'
_cell_volume   559.96124527
_cell_formula_units_Z   4
loop_
 _symmetry_equiv_pos_site_id
 _symmetry_equiv_pos_as_xyz
  1  'x, y, z'
loop_
 _atom_site_type_symbol
 _atom_site_label
 _atom_site_symmetry_multiplicity
 _atom_site_fract_x
 _atom_site_fract_y
 _atom_site_fract_z
 _atom_site_occupancy
  U  U0  1  0.22926164  0.01698465  0.85268029  1
  U  U1  1  0.27073812  0.51698207  0.64735079  1
  U  U2  1  0.72926432  0.98301815  0.64735057  1
  U  U3  1  0.77073508  0.48301699  0.85267837  1
  U  U4  1  0.77073617  0.98301453  0.14734042  1
  U  U5  1  0.72926273  0.48301538  0.35262843  1
  U  U6  1  0.27073648  0.01698317  0.35263177  1
  U  U7  1  0.22926126  0.51698480  0.14733806  1
  S  S0  1  0.36402509  0.38740402  0.39296950  1
  S  S1  1  0.13596617  0.88739750  0.10701109  1
  S  S2  1  0.86402526  0.61260201  0.10701091  1
  S  S3  1  0.63597725  0.11259875  0.39297079  1
  S  S4  1  0.63598169  0.61259225  0.60700866  1
  S  S5  1  0.86402379  0.11259968  0.89301091  1
  S  S6  1  0.13597095  0.38740100  0.89301034  1
  S  S7  1  0.36402267  0.88740737  0.60701029  1
  S  S8  1  0.89901902  0.84926382  0.39952367  1
  S  S9  1  0.60097752  0.34926098  0.10045987  1
  S  S10  1  0.39902086  0.15073312  0.10046558  1
  S  S11  1  0.10098506  0.65073370  0.39952257  1
  S  S12  1  0.10098711  0.15073091  0.60046069  1
  S  S13  1  0.39902389  0.65073201  0.89955369  1
  S  S14  1  0.60097895  0.84926923  0.89955357  1
  S  S15  1  0.89901853  0.34927444  0.60046150  1
  S  S16  1  -0.00000183  0.24999942  0.24873497  1
  S  S17  1  0.50000216  0.75000082  0.25124564  1
  S  S18  1  -0.00000105  0.74999859  0.75126564  1
  S  S19  1  0.50000211  0.25000065  0.74875341  1
loop_
_geom_bond_atom_site_label_1
_geom_bond_atom_site_label_2
_geom_bond_distance
_geom_bond_site_symmetry_2
S0 U1 2.795983 1_555
S0 U7 2.815084 1_555
S0 U5 2.875749 1_555
S0 U6 2.882714 1_555
S1 U0 2.795564 1_564
S1 U6 2.815016 1_565
S1 U4 2.875701 1_455
S1 U7 2.882665 1_555
S2 U3 2.795563 1_554
S2 U5 2.814972 1_555
S2 U7 2.875740 1_655
S2 U4 2.882657 1_555
S3 U2 2.795973 1_545
S3 U4 2.815074 1_545
S3 U6 2.875776 1_555
S3 U5 2.882684 1_555
S4 U5 2.795959 1_555
S4 U3 2.815371 1_555
S4 U1 2.875791 1_555
S4 U2 2.882745 1_555
S5 U4 2.795532 1_546
S5 U2 2.815318 1_545
S5 U0 2.875756 1_655
S5 U3 2.882694 1_555
S6 U7 2.795517 1_556
S6 U1 2.815332 1_555
S6 U3 2.875744 1_455
S6 U0 2.882688 1_555
S7 U6 2.795948 1_565
S7 U0 2.815403 1_565
S7 U2 2.875775 1_555
S7 U1 2.882742 1_555
S8 U4 2.865425 1_555
S8 U2 2.949568 1_555
S8 U5 3.056286 1_555
S8 U6 3.107653 1_665
S9 U5 2.865308 1_555
S9 U3 2.949195 1_554
S9 U4 3.056279 1_545
S9 U7 3.107659 1_555
S10 S9 2.126496 1_555
S10 U6 2.865275 1_555
S10 U0 2.949211 1_554
S10 U7 3.056306 1_555
S10 U4 3.107631 1_545
S11 S8 2.126578 1_455
S11 U7 2.865418 1_555
S11 U1 2.949562 1_555
S11 U6 3.056271 1_565
S11 U5 3.107686 1_455
S12 S15 2.126662 1_455
S12 U0 2.865708 1_555
S12 U6 2.949550 1_555
S12 U1 3.056280 1_555
S12 U2 3.107667 1_445
S13 S14 2.126536 1_555
S13 U1 2.865596 1_555
S13 U7 2.949214 1_556
S13 U0 3.056321 1_565
S13 U3 3.107594 1_555
S14 U2 2.865595 1_555
S14 U4 2.949210 1_556
S14 U3 3.056302 1_555
S14 U0 3.107632 1_565
S15 U3 2.865701 1_555
S15 U5 2.949584 1_555
S15 U2 3.056323 1_545
S15 U1 3.107628 1_655
S16 U4 2.825735 1_445
S16 U7 2.825752 1_555
S16 U5 2.875667 1_455
S16 U6 2.875692 1_555
S17 U5 2.825711 1_555
S17 U6 2.825733 1_565
S17 U4 2.875667 1_555
S17 U7 2.875722 1_555
S18 U3 2.825792 1_455
S18 U0 2.825816 1_565
S18 U2 2.875753 1_455
S18 U1 2.875766 1_555
S19 U1 2.825776 1_555
S19 U2 2.825777 1_545
S19 U3 2.875743 1_555
S19 U0 2.875789 1_555
