# generated using pymatgen
data_EuNi4B
_symmetry_space_group_name_H-M   'P 1'
_cell_length_a   5.07389838
_cell_length_b   5.07557901
_cell_length_c   6.90463400
_cell_angle_alpha   90.00000000
_cell_angle_beta   90.00000000
_cell_angle_gamma   119.98904615
_symmetry_Int_Tables_number   1
_chemical_formula_structural   EuNi4B
_chemical_formula_sum   'Eu2 Ni8 B2'
_cell_volume   154.00916920
_cell_formula_units_Z   2
loop_
 _symmetry_equiv_pos_site_id
 _symmetry_equiv_pos_as_xyz
  1  'x, y, z'
loop_
 _atom_site_type_symbol
 _atom_site_label
 _atom_site_symmetry_multiplicity
 _atom_site_fract_x
 _atom_site_fract_y
 _atom_site_fract_z
 _atom_site_occupancy
  Eu  Eu0  1  0.99997700  0.00000000  0.00000000  1
  Eu  Eu1  1  0.99998900  0.00000000  0.50000000  1
  Ni  Ni0  1  0.33326300  0.66659700  0.00000000  1
  Ni  Ni1  1  0.66666500  0.33340300  0.00000000  1
  Ni  Ni2  1  0.49998700  0.00000000  0.29454700  1
  Ni  Ni3  1  0.49999500  0.50000600  0.29452300  1
  Ni  Ni4  1  0.99998900  0.49999400  0.29452300  1
  Ni  Ni5  1  0.49998700  0.00000000  0.70545300  1
  Ni  Ni6  1  0.49999500  0.50000600  0.70547700  1
  Ni  Ni7  1  0.99998900  0.49999400  0.70547700  1
  B  B0  1  0.33332800  0.66669000  0.50000000  1
  B  B1  1  0.66663800  0.33331000  0.50000000  1
loop_
_geom_bond_atom_site_label_1
_geom_bond_atom_site_label_2
_geom_bond_distance
_geom_bond_site_symmetry_2
Eu0 Ni1 2.929834 1_655
Eu0 Ni0 2.929838 1_645
Eu0 Ni0 2.929948 1_545
Eu0 Ni1 2.929953 1_555
Eu0 Ni0 2.930404 1_655
Eu0 Ni1 2.930404 1_545
Eu1 Ni5 2.906617 1_655
Eu1 Ni2 2.906617 1_655
Eu1 Ni2 2.906635 1_555
Eu1 Ni5 2.906635 1_555
Eu1 Ni4 2.907414 1_555
Eu1 Ni7 2.907414 1_555
Eu1 Ni3 2.907414 1_545
Eu1 Ni6 2.907414 1_545
Eu1 Ni4 2.907467 1_545
Eu1 Ni7 2.907467 1_545
Eu1 Ni6 2.907467 1_655
Eu1 Ni3 2.907467 1_655
Ni0 Ni4 2.506093 1_455
Ni0 Ni7 2.506093 1_454
Ni0 Ni3 2.506219 1_555
Ni0 Ni6 2.506219 1_554
Ni0 Ni2 2.506842 1_565
Ni0 Ni5 2.506842 1_564
Ni1 Ni3 2.506090 1_555
Ni1 Ni6 2.506090 1_554
Ni1 Ni4 2.506221 1_555
Ni1 Ni7 2.506221 1_554
Ni1 Ni5 2.506842 1_554
Ni1 Ni2 2.506842 1_555
B0 Ni4 2.039301 1_455
B0 Ni7 2.039301 1_455
B0 Ni3 2.039339 1_555
B0 Ni6 2.039339 1_555
B0 Ni5 2.039443 1_565
B0 Ni2 2.039443 1_565
B0 Eu1 2.929662 1_465
B0 Eu1 2.929715 1_565
B0 Eu1 2.930813 1_455
B1 Ni3 2.039301 1_555
B1 Ni6 2.039301 1_555
B1 Ni7 2.039339 1_555
B1 Ni4 2.039339 1_555
B1 Ni5 2.039443 1_555
B1 Ni2 2.039443 1_555
B1 Eu1 2.929662 1_455
B1 Eu1 2.929715 1_555
B1 Eu1 2.930813 1_565
