# generated using pymatgen
data_Mg45Si32(H29O69)2
_symmetry_space_group_name_H-M   'P 1'
_cell_length_a   7.37699662
_cell_length_b   9.34183901
_cell_length_c   41.47880533
_cell_angle_alpha   96.46578099
_cell_angle_beta   91.33179521
_cell_angle_gamma   90.00000000
_symmetry_Int_Tables_number   1
_chemical_formula_structural   Mg45Si32(H29O69)2
_chemical_formula_sum   'Mg45 Si32 H58 O138'
_cell_volume   2839.54081876
_cell_formula_units_Z   1
loop_
 _symmetry_equiv_pos_site_id
 _symmetry_equiv_pos_as_xyz
  1  'x, y, z'
loop_
 _atom_site_type_symbol
 _atom_site_label
 _atom_site_symmetry_multiplicity
 _atom_site_fract_x
 _atom_site_fract_y
 _atom_site_fract_z
 _atom_site_occupancy
  Mg  Mg0  1  0.50000000  0.00000000  0.00000000  1
  Mg  Mg1  1  0.50000000  0.33482065  0.00000000  1
  Mg  Mg2  1  0.50000000  0.66517935  1.00000000  1
  Mg  Mg3  1  0.46003224  0.46687628  0.93375257  1
  Mg  Mg4  1  0.53996776  0.53312372  0.06624743  1
  Mg  Mg5  1  0.46027641  0.13218533  0.93270098  1
  Mg  Mg6  1  0.46027641  0.80051565  0.93270098  1
  Mg  Mg7  1  0.53972359  0.86781467  0.06729902  1
  Mg  Mg8  1  0.53972359  0.19948435  0.06729902  1
  Mg  Mg9  1  0.43049480  0.93336142  0.86672285  1
  Mg  Mg10  1  0.56950520  0.06663858  0.13327715  1
  Mg  Mg11  1  0.42766707  0.26831129  0.86674211  1
  Mg  Mg12  1  0.42766707  0.59843082  0.86674211  1
  Mg  Mg13  1  0.57233293  0.73168871  0.13325789  1
  Mg  Mg14  1  0.57233293  0.40156918  0.13325789  1
  Mg  Mg15  1  0.41270360  0.40034438  0.80068876  1
  Mg  Mg16  1  0.58729640  0.59965562  0.19931124  1
  Mg  Mg17  1  0.41493828  0.06624919  0.80017729  1
  Mg  Mg18  1  0.41493828  0.73392811  0.80017729  1
  Mg  Mg19  1  0.58506172  0.93375081  0.19982271  1
  Mg  Mg20  1  0.58506172  0.26607189  0.19982271  1
  Mg  Mg21  1  0.40975693  0.86718064  0.73436128  1
  Mg  Mg22  1  0.59024307  0.13281936  0.26563872  1
  Mg  Mg23  1  0.40931051  0.20142990  0.73371406  1
  Mg  Mg24  1  0.40931051  0.53228416  0.73371406  1
  Mg  Mg25  1  0.59068949  0.79857010  0.26628594  1
  Mg  Mg26  1  0.59068949  0.46771584  0.26628594  1
  Mg  Mg27  1  0.41232277  0.33382035  0.66764070  1
  Mg  Mg28  1  0.58767723  0.66617965  0.33235930  1
  Mg  Mg29  1  0.41560565  0.99933222  0.66730128  1
  Mg  Mg30  1  0.41560565  0.66796906  0.66730128  1
  Mg  Mg31  1  0.58439435  0.00066778  0.33269872  1
  Mg  Mg32  1  0.58439435  0.33203094  0.33269872  1
  Mg  Mg33  1  0.43078215  0.80049537  0.60099074  1
  Mg  Mg34  1  0.56921785  0.19950463  0.39900926  1
  Mg  Mg35  1  0.43720419  0.13424448  0.60065114  1
  Mg  Mg36  1  0.43720419  0.46640666  0.60065114  1
  Mg  Mg37  1  0.56279581  0.86575552  0.39934886  1
  Mg  Mg38  1  0.56279581  0.53359334  0.39934886  1
  Mg  Mg39  1  0.47596227  0.26713868  0.53427737  1
  Mg  Mg40  1  0.52403773  0.73286132  0.46572263  1
  Mg  Mg41  1  0.46909654  0.93265713  0.53344871  1
  Mg  Mg42  1  0.46909654  0.60079158  0.53344871  1
  Mg  Mg43  1  0.53090346  0.06734287  0.46655129  1
  Mg  Mg44  1  0.53090346  0.39920842  0.46655129  1
  Si  Si0  1  0.86769647  0.14908734  0.97000854  1
  Si  Si1  1  0.86769647  0.82092120  0.97000854  1
  Si  Si2  1  0.13230353  0.85091266  0.02999146  1
  Si  Si3  1  0.13230353  0.17907880  0.02999146  1
  Si  Si4  1  0.82496668  0.28867912  0.90678703  1
  Si  Si5  1  0.82496668  0.61810790  0.90678703  1
  Si  Si6  1  0.17503332  0.71132088  0.09321297  1
  Si  Si7  1  0.17503332  0.38189210  0.09321297  1
  Si  Si8  1  0.80275137  0.08697282  0.84305403  1
  Si  Si9  1  0.80275137  0.75608121  0.84305403  1
  Si  Si10  1  0.19724863  0.91302718  0.15694597  1
  Si  Si11  1  0.19724863  0.24391879  0.15694597  1
  Si  Si12  1  0.79173774  0.22419757  0.77899700  1
  Si  Si13  1  0.79173774  0.55479943  0.77899700  1
  Si  Si14  1  0.20826226  0.77580243  0.22100300  1
  Si  Si15  1  0.20826226  0.44520057  0.22100300  1
  Si  Si16  1  0.79034688  0.02327625  0.71486054  1
  Si  Si17  1  0.79034688  0.69158429  0.71486054  1
  Si  Si18  1  0.20965312  0.97672375  0.28513946  1
  Si  Si19  1  0.20965312  0.30841571  0.28513946  1
  Si  Si20  1  0.79838153  0.16045698  0.65093322  1
  Si  Si21  1  0.79838153  0.49047624  0.65093322  1
  Si  Si22  1  0.20161847  0.83954302  0.34906678  1
  Si  Si23  1  0.20161847  0.50952376  0.34906678  1
  Si  Si24  1  0.81868139  0.95772824  0.58750751  1
  Si  Si25  1  0.81868139  0.62977927  0.58750751  1
  Si  Si26  1  0.18131861  0.04227176  0.41249249  1
  Si  Si27  1  0.18131861  0.37022073  0.41249249  1
  Si  Si28  1  0.86646117  0.09585594  0.52440894  1
  Si  Si29  1  0.86646117  0.42855299  0.52440894  1
  Si  Si30  1  0.13353883  0.90414406  0.47559106  1
  Si  Si31  1  0.13353883  0.57144701  0.47559106  1
  H  H0  1  0.76188047  0.48821803  0.97643605  1
  H  H1  1  0.23811953  0.51178197  0.02356395  1
  H  H2  1  0.72940318  0.95411650  0.90823299  1
  H  H3  1  0.27059682  0.04588350  0.09176701  1
  H  H4  1  0.70385285  0.42233474  0.84466949  1
  H  H5  1  0.29614715  0.57766526  0.15533051  1
  H  H6  1  0.69575582  0.88946116  0.77892233  1
  H  H7  1  0.30424418  0.11053884  0.22107767  1
  H  H8  1  0.69166861  0.35653438  0.71306876  1
  H  H9  1  0.30833139  0.64346562  0.28693124  1
  H  H10  1  0.70180183  0.82447451  0.64894902  1
  H  H11  1  0.29819817  0.17552549  0.35105098  1
  H  H12  1  0.72946158  0.29193663  0.58387327  1
  H  H13  1  0.27053842  0.70806337  0.41612673  1
  H  H14  1  0.74969364  0.75717147  0.51434293  1
  H  H15  1  0.25030636  0.24282853  0.48565707  1
  H  H16  1  0.21388592  0.97898840  0.95797680  1
  H  H17  1  0.78611408  0.02101160  0.04202320  1
  H  H18  1  0.21348862  0.30580555  0.95789007  1
  H  H19  1  0.21348862  0.65208452  0.95789007  1
  H  H20  1  0.78651138  0.69419445  0.04210993  1
  H  H21  1  0.78651138  0.34791548  0.04210993  1
  H  H22  1  0.17433855  0.44657421  0.89314841  1
  H  H23  1  0.82566145  0.55342579  0.10685159  1
  H  H24  1  0.17523293  0.11443277  0.88950740  1
  H  H25  1  0.17523293  0.77507462  0.88950740  1
  H  H26  1  0.82476707  0.88556723  0.11049260  1
  H  H27  1  0.82476707  0.22492538  0.11049260  1
  H  H28  1  0.15577385  0.91194431  0.82388863  1
  H  H29  1  0.84422615  0.08805569  0.17611137  1
  H  H30  1  0.15499946  0.23748006  0.82269799  1
  H  H31  1  0.15499946  0.58521793  0.82269799  1
  H  H32  1  0.84500054  0.76251994  0.17730201  1
  H  H33  1  0.84500054  0.41478207  0.17730201  1
  H  H34  1  0.14711308  0.37869521  0.75739043  1
  H  H35  1  0.85288692  0.62130479  0.24260957  1
  H  H36  1  0.14699451  0.05165052  0.75553566  1
  H  H37  1  0.14699451  0.70388514  0.75553566  1
  H  H38  1  0.85300549  0.94834948  0.24446434  1
  H  H39  1  0.85300549  0.29611486  0.24446434  1
  H  H40  1  0.15005272  0.84520131  0.69040261  1
  H  H41  1  0.84994728  0.15479869  0.30959739  1
  H  H42  1  0.14846375  0.16907598  0.68844368  1
  H  H43  1  0.14846375  0.51936770  0.68844368  1
  H  H44  1  0.85153625  0.83092402  0.31155632  1
  H  H45  1  0.85153625  0.48063230  0.31155632  1
  H  H46  1  0.16553630  0.31046578  0.62093156  1
  H  H47  1  0.83446370  0.68953422  0.37906844  1
  H  H48  1  0.16380811  0.98591265  0.62136956  1
  H  H49  1  0.16380811  0.63545691  0.62136956  1
  H  H50  1  0.83619189  0.01408735  0.37863044  1
  H  H51  1  0.83619189  0.36454309  0.37863044  1
  H  H52  1  0.19262729  0.77677646  0.55355291  1
  H  H53  1  0.80737271  0.22322354  0.44644709  1
  H  H54  1  0.20189761  0.10419221  0.55283879  1
  H  H55  1  0.20189761  0.44864658  0.55283879  1
  H  H56  1  0.79810239  0.89580779  0.44716121  1
  H  H57  1  0.79810239  0.55135342  0.44716121  1
  O  O0  1  0.65261328  0.15522686  0.97671510  1
  O  O1  1  0.65261328  0.82148824  0.97671510  1
  O  O2  1  0.34738672  0.84477314  0.02328490  1
  O  O3  1  0.34738672  0.17851176  0.02328490  1
  O  O4  1  0.60743356  0.28774067  0.90923073  1
  O  O5  1  0.60743356  0.62149007  0.90923073  1
  O  O6  1  0.39256644  0.71225933  0.09076927  1
  O  O7  1  0.39256644  0.37850993  0.09076927  1
  O  O8  1  0.58468289  0.08826867  0.84398615  1
  O  O9  1  0.58468289  0.75571748  0.84398615  1
  O  O10  1  0.41531711  0.91173133  0.15601385  1
  O  O11  1  0.41531711  0.24428252  0.15601385  1
  O  O12  1  0.57342676  0.22395762  0.77857826  1
  O  O13  1  0.57342676  0.55462064  0.77857826  1
  O  O14  1  0.42657324  0.77604238  0.22142174  1
  O  O15  1  0.42657324  0.44537936  0.22142174  1
  O  O16  1  0.57208485  0.02327978  0.71296364  1
  O  O17  1  0.57208485  0.68968387  0.71296364  1
  O  O18  1  0.42791515  0.97672022  0.28703636  1
  O  O19  1  0.42791515  0.31031613  0.28703636  1
  O  O20  1  0.58041447  0.15897993  0.64756509  1
  O  O21  1  0.58041447  0.48858516  0.64756509  1
  O  O22  1  0.41958553  0.84102007  0.35243491  1
  O  O23  1  0.41958553  0.51141484  0.35243491  1
  O  O24  1  0.60174675  0.95473510  0.58202850  1
  O  O25  1  0.60174675  0.62729339  0.58202850  1
  O  O26  1  0.39825325  0.04526490  0.41797150  1
  O  O27  1  0.39825325  0.37270661  0.41797150  1
  O  O28  1  0.65213479  0.08408234  0.51505427  1
  O  O29  1  0.65213479  0.43097193  0.51505427  1
  O  O30  1  0.34786521  0.91591766  0.48494573  1
  O  O31  1  0.34786521  0.56902807  0.48494573  1
  O  O32  1  0.93628347  0.98050780  0.96101560  1
  O  O33  1  0.06371653  0.01949220  0.03898440  1
  O  O34  1  0.90500551  0.45123131  0.90246262  1
  O  O35  1  0.09499449  0.54876869  0.09753738  1
  O  O36  1  0.88467626  0.92020936  0.84041872  1
  O  O37  1  0.11532374  0.07979064  0.15958128  1
  O  O38  1  0.87546492  0.38849761  0.77699522  1
  O  O39  1  0.12453508  0.61150239  0.22300478  1
  O  O40  1  0.87293827  0.85660908  0.71321816  1
  O  O41  1  0.12706173  0.14339092  0.28678184  1
  O  O42  1  0.88245404  0.32471919  0.64943837  1
  O  O43  1  0.11754596  0.67528081  0.35056163  1
  O  O44  1  0.90406067  0.79335972  0.58671943  1
  O  O45  1  0.09593933  0.20664028  0.41328057  1
  O  O46  1  0.93851579  0.26313433  0.52626866  1
  O  O47  1  0.06148421  0.73686567  0.47373134  1
  O  O48  1  1.00000000  0.22172939  1.00000000  1
  O  O49  1  0.00000000  0.77827061  0.00000000  1
  O  O50  1  0.92515639  0.23733112  0.93945313  1
  O  O51  1  0.92515639  0.70212201  0.93945313  1
  O  O52  1  0.07484361  0.76266888  0.06054687  1
  O  O53  1  0.07484361  0.29787799  0.06054687  1
  O  O54  1  0.89717058  0.17765900  0.87578775  1
  O  O55  1  0.89717058  0.69812875  0.87578775  1
  O  O56  1  0.10282942  0.82234100  0.12421225  1
  O  O57  1  0.10282942  0.30187125  0.12421225  1
  O  O58  1  0.88031695  0.16399981  0.81199621  1
  O  O59  1  0.88031695  0.64799640  0.81199621  1
  O  O60  1  0.11968305  0.83600019  0.18800379  1
  O  O61  1  0.11968305  0.35200360  0.18800379  1
  O  O62  1  0.87381758  0.11571863  0.74836455  1
  O  O63  1  0.87381758  0.63264592  0.74836455  1
  O  O64  1  0.12618242  0.88428137  0.25163545  1
  O  O65  1  0.12618242  0.36735408  0.25163545  1
  O  O66  1  0.87703698  0.10251764  0.68486221  1
  O  O67  1  0.87703698  0.58234457  0.68486221  1
  O  O68  1  0.12296302  0.89748236  0.31513779  1
  O  O69  1  0.12296302  0.41765543  0.31513779  1
  O  O70  1  0.88910870  0.04956810  0.62189207  1
  O  O71  1  0.88910870  0.57232396  0.62189207  1
  O  O72  1  0.11089130  0.95043190  0.37810793  1
  O  O73  1  0.11089130  0.42767604  0.37810793  1
  O  O74  1  0.91787209  0.03983485  0.55971631  1
  O  O75  1  0.91787209  0.51988147  0.55971631  1
  O  O76  1  0.08212791  0.96016515  0.44028369  1
  O  O77  1  0.08212791  0.48011853  0.44028369  1
  O  O78  1  -0.00000000  0.00000000  0.50000000  1
  O  O79  1  -0.00000000  0.50000000  0.50000000  1
  O  O80  1  0.63095970  0.48783009  0.97566019  1
  O  O81  1  0.36904030  0.51216991  0.02433981  1
  O  O82  1  0.59870609  0.95480542  0.90961085  1
  O  O83  1  0.40129391  0.04519458  0.09038915  1
  O  O84  1  0.57261337  0.42202623  0.84405247  1
  O  O85  1  0.42738663  0.57797377  0.15594753  1
  O  O86  1  0.56447128  0.88918733  0.77837467  1
  O  O87  1  0.43552872  0.11081267  0.22162533  1
  O  O88  1  0.56038448  0.35629136  0.71258273  1
  O  O89  1  0.43961552  0.64370864  0.28741727  1
  O  O90  1  0.57079583  0.82345503  0.64691006  1
  O  O91  1  0.42920417  0.17654497  0.35308994  1
  O  O92  1  0.59897826  0.29041328  0.58082656  1
  O  O93  1  0.40102174  0.70958672  0.41917344  1
  O  O94  1  0.61841271  0.75688743  0.51377485  1
  O  O95  1  0.38158729  0.24311257  0.48622515  1
  O  O96  1  0.34588544  0.97895592  0.95791184  1
  O  O97  1  0.65411456  0.02104408  0.04208816  1
  O  O98  1  0.34473839  0.30978307  0.95747384  1
  O  O99  1  0.34473839  0.64769078  0.95747384  1
  O  O100  1  0.65526161  0.69021693  0.04252616  1
  O  O101  1  0.65526161  0.35230922  0.04252616  1
  O  O102  1  0.30550350  0.44549259  0.89098519  1
  O  O103  1  0.69449650  0.55450741  0.10901481  1
  O  O104  1  0.30681012  0.11153345  0.89009153  1
  O  O105  1  0.30681012  0.77855808  0.89009153  1
  O  O106  1  0.69318988  0.88846655  0.10990847  1
  O  O107  1  0.69318988  0.22144192  0.10990847  1
  O  O108  1  0.28729676  0.91149155  0.82298311  1
  O  O109  1  0.71270324  0.08850845  0.17701689  1
  O  O110  1  0.28642884  0.24408052  0.82303016  1
  O  O111  1  0.28642884  0.57894964  0.82303016  1
  O  O112  1  0.71357116  0.75591948  0.17696984  1
  O  O113  1  0.71357116  0.42105036  0.17696984  1
  O  O114  1  0.27834250  0.37805114  0.75610228  1
  O  O115  1  0.72165750  0.62194886  0.24389772  1
  O  O116  1  0.27859505  0.04563132  0.75584356  1
  O  O117  1  0.27859505  0.71021224  0.75584356  1
  O  O118  1  0.72140495  0.95436868  0.24415644  1
  O  O119  1  0.72140495  0.28978776  0.24415644  1
  O  O120  1  0.28118761  0.84450145  0.68900289  1
  O  O121  1  0.71881239  0.15549855  0.31099711  1
  O  O122  1  0.27993876  0.17634440  0.68861445  1
  O  O123  1  0.27993876  0.51227004  0.68861445  1
  O  O124  1  0.72006124  0.82365560  0.31138555  1
  O  O125  1  0.72006124  0.48772996  0.31138555  1
  O  O126  1  0.29692683  0.31047866  0.62095732  1
  O  O127  1  0.70307317  0.68952134  0.37904268  1
  O  O128  1  0.29526083  0.97883972  0.62119082  1
  O  O129  1  0.29526083  0.64235110  0.62119082  1
  O  O130  1  0.70473917  0.02116028  0.37880918  1
  O  O131  1  0.70473917  0.35764890  0.37880918  1
  O  O132  1  0.32367299  0.77649371  0.55298741  1
  O  O133  1  0.67632701  0.22350629  0.44701259  1
  O  O134  1  0.33319032  0.10963060  0.55334401  1
  O  O135  1  0.33319032  0.44371340  0.55334401  1
  O  O136  1  0.66680968  0.89036940  0.44665599  1
  O  O137  1  0.66680968  0.55628660  0.44665599  1
loop_
_geom_bond_atom_site_label_1
_geom_bond_atom_site_label_2
_geom_bond_distance
_geom_bond_site_symmetry_2
Mg0 O96 2.051668 1_544
Mg0 O97 2.051668 1_555
Mg0 O3 2.160809 1_555
Mg0 O1 2.160809 1_544
Mg0 O2 2.160809 1_545
Mg0 O0 2.160809 1_554
Mg1 O98 2.071520 1_554
Mg1 O101 2.071520 1_555
Mg1 O80 2.089521 1_554
Mg1 O81 2.089521 1_555
Mg1 O0 2.168112 1_554
Mg1 O3 2.168112 1_555
Mg2 O100 2.071520 1_556
Mg2 O99 2.071520 1_555
Mg2 O81 2.089521 1_556
Mg2 O80 2.089521 1_555
Mg2 O2 2.168112 1_556
Mg2 O1 2.168112 1_555
Mg3 O98 2.051655 1_555
Mg3 O99 2.051655 1_555
Mg3 O102 2.076646 1_555
Mg3 O80 2.114558 1_555
Mg3 O4 2.164595 1_555
Mg3 O5 2.164596 1_555
Mg4 O100 2.051655 1_555
Mg4 O101 2.051655 1_555
Mg4 O103 2.076646 1_555
Mg4 O81 2.114558 1_555
Mg4 O6 2.164595 1_555
Mg4 O7 2.164596 1_555
Mg5 O98 2.047351 1_555
Mg5 O96 2.057378 1_545
Mg5 O104 2.067070 1_555
Mg5 O82 2.096184 1_545
Mg5 O4 2.146082 1_555
Mg5 O0 2.276755 1_555
Mg6 O99 2.047351 1_555
Mg6 O96 2.057378 1_555
Mg6 O105 2.067070 1_555
Mg6 O82 2.096184 1_555
Mg6 O5 2.146082 1_555
Mg6 O1 2.276755 1_555
Mg7 O100 2.047351 1_555
Mg7 O97 2.057378 1_565
Mg7 O106 2.067070 1_555
Mg7 O83 2.096184 1_565
Mg7 O6 2.146082 1_555
Mg7 O2 2.276755 1_555
Mg8 O101 2.047351 1_555
Mg8 O97 2.057378 1_555
Mg8 O107 2.067070 1_555
Mg8 O83 2.096184 1_555
Mg8 O7 2.146082 1_555
Mg8 O3 2.276755 1_555
Mg9 O105 2.054318 1_555
Mg9 O104 2.054318 1_565
Mg9 O108 2.068012 1_555
Mg9 O82 2.135817 1_555
Mg9 O9 2.152810 1_555
Mg9 O8 2.152810 1_565
Mg10 O107 2.054318 1_555
Mg10 O106 2.054318 1_545
Mg10 O109 2.068012 1_555
Mg10 O83 2.135817 1_555
Mg10 O11 2.152810 1_555
Mg10 O10 2.152810 1_545
Mg11 O102 2.056767 1_555
Mg11 O104 2.058525 1_555
Mg11 O110 2.060092 1_555
Mg11 O84 2.107669 1_555
Mg11 O4 2.171836 1_555
Mg11 O8 2.180541 1_555
Mg12 O102 2.056767 1_555
Mg12 O105 2.058525 1_555
Mg12 O111 2.060092 1_555
Mg12 O84 2.107669 1_555
Mg12 O5 2.171836 1_555
Mg12 O9 2.180541 1_555
Mg13 O103 2.056767 1_555
Mg13 O106 2.058525 1_555
Mg13 O112 2.060092 1_555
Mg13 O85 2.107669 1_555
Mg13 O6 2.171836 1_555
Mg13 O10 2.180541 1_555
Mg14 O103 2.056767 1_555
Mg14 O107 2.058525 1_555
Mg14 O113 2.060092 1_555
Mg14 O85 2.107669 1_555
Mg14 O7 2.171836 1_555
Mg14 O11 2.180541 1_555
Mg15 O111 2.049951 1_555
Mg15 O110 2.049951 1_555
Mg15 O114 2.067394 1_555
Mg15 O84 2.118291 1_555
Mg15 O12 2.161537 1_555
Mg15 O13 2.161537 1_555
Mg16 O113 2.049951 1_555
Mg16 O112 2.049951 1_555
Mg16 O115 2.067394 1_555
Mg16 O85 2.118291 1_555
Mg16 O14 2.161537 1_555
Mg16 O15 2.161537 1_555
Mg17 O108 2.054505 1_545
Mg17 O110 2.060145 1_555
Mg17 O116 2.065087 1_555
Mg17 O86 2.116636 1_545
Mg17 O12 2.164748 1_555
Mg17 O8 2.173102 1_555
Mg18 O108 2.054505 1_555
Mg18 O111 2.060145 1_555
Mg18 O117 2.065087 1_555
Mg18 O86 2.116636 1_555
Mg18 O13 2.164748 1_555
Mg18 O9 2.173102 1_555
Mg19 O109 2.054505 1_565
Mg19 O112 2.060145 1_555
Mg19 O118 2.065087 1_555
Mg19 O87 2.116636 1_565
Mg19 O14 2.164748 1_555
Mg19 O10 2.173102 1_555
Mg20 O109 2.054505 1_555
Mg20 O113 2.060145 1_555
Mg20 O119 2.065087 1_555
Mg20 O87 2.116636 1_555
Mg20 O15 2.164748 1_555
Mg20 O11 2.173102 1_555
Mg21 O116 2.052999 1_565
Mg21 O117 2.052999 1_555
Mg21 O120 2.076401 1_555
Mg21 O86 2.120473 1_555
Mg21 O17 2.165440 1_555
Mg21 O16 2.165441 1_565
Mg22 O118 2.052999 1_545
Mg22 O119 2.052999 1_555
Mg22 O121 2.076401 1_555
Mg22 O87 2.120473 1_555
Mg22 O19 2.165440 1_555
Mg22 O18 2.165441 1_545
Mg23 O114 2.053004 1_555
Mg23 O116 2.057365 1_555
Mg23 O122 2.069653 1_555
Mg23 O88 2.105757 1_555
Mg23 O16 2.162835 1_555
Mg23 O12 2.186348 1_555
Mg24 O114 2.053004 1_555
Mg24 O117 2.057365 1_555
Mg24 O123 2.069653 1_555
Mg24 O88 2.105757 1_555
Mg24 O17 2.162835 1_555
Mg24 O13 2.186348 1_555
Mg25 O115 2.053004 1_555
Mg25 O118 2.057365 1_555
Mg25 O124 2.069653 1_555
Mg25 O89 2.105757 1_555
Mg25 O18 2.162835 1_555
Mg25 O14 2.186348 1_555
Mg26 O115 2.053004 1_555
Mg26 O119 2.057365 1_555
Mg26 O125 2.069653 1_555
Mg26 O89 2.105757 1_555
Mg26 O19 2.162835 1_555
Mg26 O15 2.186348 1_555
Mg27 O123 2.049999 1_555
Mg27 O122 2.049999 1_555
Mg27 O126 2.085673 1_555
Mg27 O88 2.128220 1_555
Mg27 O20 2.154179 1_555
Mg27 O21 2.154179 1_555
Mg28 O125 2.049999 1_555
Mg28 O124 2.049999 1_555
Mg28 O127 2.085673 1_555
Mg28 O89 2.128220 1_555
Mg28 O22 2.154179 1_555
Mg28 O23 2.154179 1_555
Mg29 O120 2.054353 1_555
Mg29 O122 2.056576 1_565
Mg29 O128 2.078817 1_555
Mg29 O90 2.111296 1_555
Mg29 O20 2.166527 1_565
Mg29 O16 2.184677 1_565
Mg30 O120 2.054353 1_555
Mg30 O123 2.056576 1_555
Mg30 O129 2.078817 1_555
Mg30 O90 2.111296 1_555
Mg30 O21 2.166527 1_555
Mg30 O17 2.184677 1_555
Mg31 O121 2.054353 1_555
Mg31 O124 2.056576 1_545
Mg31 O130 2.078817 1_555
Mg31 O91 2.111296 1_555
Mg31 O22 2.166527 1_545
Mg31 O18 2.184677 1_545
Mg32 O121 2.054353 1_555
Mg32 O125 2.056576 1_555
Mg32 O131 2.078817 1_555
Mg32 O91 2.111296 1_555
Mg32 O23 2.166527 1_555
Mg32 O19 2.184677 1_555
Mg33 O128 2.049836 1_555
Mg33 O129 2.049836 1_555
Mg33 O132 2.113169 1_555
Mg33 O90 2.134758 1_555
Mg33 O24 2.141673 1_555
Mg33 O25 2.141674 1_555
Mg34 O130 2.049836 1_555
Mg34 O131 2.049836 1_555
Mg34 O133 2.113169 1_555
Mg34 O91 2.134758 1_555
Mg34 O26 2.141673 1_555
Mg34 O27 2.141674 1_555
Mg35 O126 2.054014 1_555
Mg35 O128 2.061540 1_545
Mg35 O134 2.078564 1_555
Mg35 O92 2.131807 1_555
Mg35 O24 2.152685 1_545
Mg35 O20 2.181590 1_555
Mg36 O126 2.054014 1_555
Mg36 O129 2.061540 1_555
Mg36 O135 2.078564 1_555
Mg36 O92 2.131807 1_555
Mg36 O25 2.152685 1_555
Mg36 O21 2.181590 1_555
Mg37 O127 2.054014 1_555
Mg37 O130 2.061540 1_565
Mg37 O136 2.078564 1_555
Mg37 O93 2.131807 1_555
Mg37 O26 2.152685 1_565
Mg37 O22 2.181590 1_555
Mg38 O127 2.054014 1_555
Mg38 O131 2.061540 1_555
Mg38 O137 2.078564 1_555
Mg38 O93 2.131807 1_555
Mg38 O27 2.152685 1_555
Mg38 O23 2.181590 1_555
Mg39 O135 2.049541 1_555
Mg39 O134 2.049541 1_555
Mg39 O95 2.083857 1_555
Mg39 O92 2.103050 1_555
Mg39 O28 2.233887 1_555
Mg39 O29 2.233887 1_555
Mg40 O137 2.049541 1_555
Mg40 O136 2.049541 1_555
Mg40 O94 2.083857 1_555
Mg40 O93 2.103050 1_555
Mg40 O30 2.233887 1_555
Mg40 O31 2.233887 1_555
Mg41 O134 2.037308 1_565
Mg41 O132 2.059767 1_555
Mg41 O94 2.077366 1_555
Mg41 O28 2.167350 1_565
Mg41 O30 2.171934 1_555
Mg41 O24 2.207988 1_555
Mg42 O135 2.037308 1_555
Mg42 O132 2.059767 1_555
Mg42 O94 2.077366 1_555
Mg42 O29 2.167350 1_555
Mg42 O31 2.171934 1_555
Mg42 O25 2.207988 1_555
Mg43 O136 2.037308 1_545
Mg43 O133 2.059767 1_555
Mg43 O95 2.077366 1_555
Mg43 O30 2.167350 1_545
Mg43 O28 2.171934 1_555
Mg43 O26 2.207988 1_555
Mg44 O137 2.037308 1_555
Mg44 O133 2.059767 1_555
Mg44 O95 2.077366 1_555
Mg44 O31 2.167350 1_555
Mg44 O29 2.171934 1_555
Mg44 O27 2.207988 1_555
H0 O80 0.965583 1_555
H1 O81 0.965583 1_555
H2 O82 0.967148 1_555
H3 O83 0.967148 1_555
H4 O84 0.967892 1_555
H5 O85 0.967892 1_555
H6 O86 0.968221 1_555
H7 O87 0.968221 1_555
H8 O88 0.968221 1_555
H9 O89 0.968221 1_555
H10 O90 0.968117 1_555
H11 O91 0.968117 1_555
H12 O92 0.967814 1_555
H13 O93 0.967814 1_555
H14 O94 0.968194 1_555
H15 O95 0.968194 1_555
H16 O96 0.973826 1_555
H17 O97 0.973826 1_555
H18 O98 0.969571 1_555
H19 O99 0.969571 1_555
H20 O100 0.969571 1_555
H21 O101 0.969571 1_555
H22 O102 0.973777 1_555
H23 O103 0.973777 1_555
H24 O104 0.970838 1_555
H25 O105 0.970838 1_555
H26 O106 0.970838 1_555
H27 O107 0.970838 1_555
H28 O108 0.971834 1_555
H29 O109 0.971834 1_555
H30 O110 0.971192 1_555
H31 O111 0.971192 1_555
H32 O112 0.971192 1_555
H33 O113 0.971192 1_555
H34 O114 0.970773 1_555
H35 O115 0.970773 1_555
H36 O116 0.972315 1_555
H37 O117 0.972315 1_555
H38 O118 0.972315 1_555
H39 O119 0.972315 1_555
H40 O120 0.970446 1_555
H41 O121 0.970446 1_555
H42 O122 0.972070 1_555
H43 O123 0.972070 1_555
H44 O124 0.972070 1_555
H45 O125 0.972070 1_555
H46 O126 0.969243 1_555
H47 O127 0.969243 1_555
H48 O128 0.972118 1_555
H49 O129 0.972118 1_555
H50 O130 0.972118 1_555
H51 O131 0.972118 1_555
H52 O132 0.967549 1_555
H53 O133 0.967549 1_555
H54 O134 0.969494 1_555
H55 O135 0.969494 1_555
H56 O136 0.969494 1_555
H57 O137 0.969494 1_555
O0 Si0 1.617131 1_555
O1 Si1 1.617131 1_555
O2 Si2 1.617131 1_555
O3 Si3 1.617131 1_555
O4 Si4 1.610375 1_555
O5 Si5 1.610375 1_555
O6 Si6 1.610375 1_555
O7 Si7 1.610375 1_555
O8 Si8 1.610066 1_555
O9 Si9 1.610066 1_555
O10 Si10 1.610066 1_555
O11 Si11 1.610066 1_555
O12 Si12 1.610168 1_555
O13 Si13 1.610168 1_555
O14 Si14 1.610168 1_555
O15 Si15 1.610168 1_555
O16 Si16 1.610212 1_555
O17 Si17 1.610212 1_555
O18 Si18 1.610212 1_555
O19 Si19 1.610212 1_555
O20 Si20 1.610686 1_555
O21 Si21 1.610686 1_555
O22 Si22 1.610686 1_555
O23 Si23 1.610686 1_555
O24 Si24 1.610943 1_555
O25 Si25 1.610943 1_555
O26 Si26 1.610943 1_555
O27 Si27 1.610943 1_555
O28 Si28 1.619987 1_555
O29 Si29 1.619987 1_555
O30 Si30 1.619987 1_555
O31 Si31 1.619987 1_555
O32 Si0 1.658838 1_565
O32 Si1 1.658838 1_555
O33 Si2 1.658838 1_545
O33 Si3 1.658838 1_555
O34 Si5 1.659223 1_555
O34 Si4 1.659223 1_555
O35 Si7 1.659223 1_555
O35 Si6 1.659223 1_555
O36 Si8 1.664001 1_565
O36 Si9 1.664001 1_555
O37 Si10 1.664001 1_545
O37 Si11 1.664001 1_555
O38 Si13 1.665919 1_555
O38 Si12 1.665919 1_555
O39 Si15 1.665919 1_555
O39 Si14 1.665919 1_555
O40 Si16 1.666757 1_565
O40 Si17 1.666757 1_555
O41 Si18 1.666757 1_545
O41 Si19 1.666757 1_555
O42 Si21 1.663261 1_555
O42 Si20 1.663261 1_555
O43 Si23 1.663261 1_555
O43 Si22 1.663261 1_555
O44 Si24 1.656863 1_555
O44 Si25 1.656863 1_555
O45 Si26 1.656863 1_555
O45 Si27 1.656863 1_555
O46 Si29 1.643603 1_555
O46 Si28 1.643603 1_555
O47 Si31 1.643603 1_555
O47 Si30 1.643603 1_555
O48 Si0 1.647448 1_555
O48 Si3 1.647448 1_656
O49 Si2 1.647448 1_555
O49 Si1 1.647448 1_454
O50 Si4 1.646841 1_555
O50 Si0 1.651009 1_555
O51 Si5 1.646841 1_555
O51 Si1 1.651009 1_555
O52 Si6 1.646841 1_555
O52 Si2 1.651009 1_555
O53 Si7 1.646841 1_555
O53 Si3 1.651009 1_555
O54 Si8 1.656303 1_555
O54 Si4 1.656552 1_555
O55 Si9 1.656303 1_555
O55 Si5 1.656552 1_555
O56 Si10 1.656303 1_555
O56 Si6 1.656552 1_555
O57 Si11 1.656303 1_555
O57 Si7 1.656552 1_555
O58 Si8 1.657651 1_555
O58 Si12 1.657875 1_555
O59 Si9 1.657651 1_555
O59 Si13 1.657875 1_555
O60 Si10 1.657651 1_555
O60 Si14 1.657875 1_555
O61 Si11 1.657651 1_555
O61 Si15 1.657875 1_555
O62 Si16 1.657152 1_555
O62 Si12 1.659453 1_555
O63 Si17 1.657152 1_555
O63 Si13 1.659453 1_555
O64 Si18 1.657152 1_555
O64 Si14 1.659453 1_555
O65 Si19 1.657152 1_555
O65 Si15 1.659453 1_555
O66 Si20 1.656451 1_555
O66 Si16 1.658213 1_555
O67 Si21 1.656451 1_555
O67 Si17 1.658213 1_555
O68 Si22 1.656451 1_555
O68 Si18 1.658213 1_555
O69 Si23 1.656451 1_555
O69 Si19 1.658213 1_555
O70 Si20 1.651828 1_555
O70 Si24 1.652304 1_545
O71 Si21 1.651828 1_555
O71 Si25 1.652304 1_555
O72 Si22 1.651828 1_555
O72 Si26 1.652304 1_565
O73 Si23 1.651828 1_555
O73 Si27 1.652304 1_555
O74 Si24 1.640404 1_545
O74 Si28 1.645996 1_555
O75 Si25 1.640404 1_555
O75 Si29 1.645996 1_555
O76 Si26 1.640404 1_565
O76 Si30 1.645996 1_555
O77 Si27 1.640404 1_555
O77 Si31 1.645996 1_555
O78 Si30 1.624671 1_545
O78 Si28 1.624671 1_455
O79 Si31 1.624671 1_555
O79 Si29 1.624671 1_455
