# generated using pymatgen
data_LiCo3NiO8
_symmetry_space_group_name_H-M   'P 1'
_cell_length_a   5.71710115
_cell_length_b   5.68655992
_cell_length_c   10.55050776
_cell_angle_alpha   90.19602241
_cell_angle_beta   105.65646713
_cell_angle_gamma   59.80971936
_symmetry_Int_Tables_number   1
_chemical_formula_structural   LiCo3NiO8
_chemical_formula_sum   'Li2 Co6 Ni2 O16'
_cell_volume   281.84934118
_cell_formula_units_Z   2
loop_
 _symmetry_equiv_pos_site_id
 _symmetry_equiv_pos_as_xyz
  1  'x, y, z'
loop_
 _atom_site_type_symbol
 _atom_site_label
 _atom_site_symmetry_multiplicity
 _atom_site_fract_x
 _atom_site_fract_y
 _atom_site_fract_z
 _atom_site_occupancy
  Li  Li0  1  0.51545200  0.24543700  0.25030400  1
  Li  Li1  1  0.48485400  0.75443800  0.74968700  1
  Co  Co0  1  0.49986800  0.00024300  0.50001600  1
  Co  Co1  1  0.49978300  0.50024200  0.50001600  1
  Co  Co2  1  0.00009300  0.49986100  0.99996900  1
  Co  Co3  1  0.50021300  0.49967400  0.00000200  1
  Co  Co4  1  0.50030300  0.99973700  0.99999400  1
  Co  Co5  1  0.99985500  0.00016400  0.50003100  1
  Ni  Ni0  1  0.99996300  0.99970200  0.99994200  1
  Ni  Ni1  1  0.99957300  0.50057100  0.49994700  1
  O  O0  1  0.73035500  0.63461200  0.09508200  1
  O  O1  1  0.73084200  0.13403500  0.59520800  1
  O  O2  1  0.26883900  0.86644400  0.40483700  1
  O  O3  1  0.26998800  0.36488600  0.90489800  1
  O  O4  1  0.23448800  0.13941300  0.09506300  1
  O  O5  1  0.24856400  0.64462600  0.59981000  1
  O  O6  1  0.70654600  0.14648400  0.10157700  1
  O  O7  1  0.72149000  0.63962500  0.59498500  1
  O  O8  1  0.23344700  0.62703800  0.09468700  1
  O  O9  1  0.23658600  0.12325000  0.59582300  1
  O  O10  1  0.76306400  0.87731900  0.40422600  1
  O  O11  1  0.76692500  0.37243100  0.90529800  1
  O  O12  1  0.27822300  0.36081100  0.40506100  1
  O  O13  1  0.29370400  0.85308500  0.89838800  1
  O  O14  1  0.75116900  0.35586000  0.40020900  1
  O  O15  1  0.76581400  0.86001200  0.90493900  1
loop_
_geom_bond_atom_site_label_1
_geom_bond_atom_site_label_2
_geom_bond_distance
_geom_bond_site_symmetry_2
Li0 O6 2.067210 1_555
Li0 O14 2.098962 1_555
Li0 O10 2.196655 1_545
Li0 O8 2.254074 1_555
Li0 O4 2.274552 1_555
Li0 O12 2.286652 1_555
Li1 O13 2.067148 1_555
Li1 O5 2.098571 1_555
Li1 O9 2.198673 1_565
Li1 O11 2.255452 1_555
Li1 O15 2.273019 1_555
Li1 O7 2.284015 1_555
Co0 O12 1.878621 1_555
Co0 O7 1.878891 1_545
Co0 O10 1.879433 1_545
Co0 O9 1.879926 1_555
Co0 O1 1.902795 1_555
Co0 O2 1.903015 1_545
Co1 O5 1.862723 1_555
Co1 O14 1.863499 1_555
Co1 O12 1.885878 1_555
Co1 O7 1.886345 1_555
Co1 O2 1.903043 1_555
Co1 O1 1.903113 1_555
Co2 O15 1.877224 1_455
Co2 O4 1.878710 1_556
Co2 O8 1.883442 1_556
Co2 O11 1.883531 1_455
Co2 O0 1.901002 1_456
Co2 O3 1.901338 1_555
Co3 O6 1.877071 1_555
Co3 O13 1.878123 1_554
Co3 O11 1.885392 1_554
Co3 O8 1.885459 1_555
Co3 O3 1.903495 1_554
Co3 O0 1.903691 1_555
Co4 O6 1.880621 1_566
Co4 O13 1.881727 1_555
Co4 O15 1.882668 1_555
Co4 O4 1.884057 1_566
Co4 O0 1.898133 1_556
Co4 O3 1.898265 1_565
Co5 O5 1.879626 1_645
Co5 O14 1.880407 1_555
Co5 O10 1.884167 1_545
Co5 O9 1.884861 1_655
Co5 O1 1.898430 1_555
Co5 O2 1.898446 1_645
Ni0 O11 1.928969 1_565
Ni0 O8 1.929046 1_656
Ni0 O15 1.941001 1_555
Ni0 O4 1.943126 1_666
Ni0 O6 2.053542 1_566
Ni0 O13 2.054311 1_655
Ni1 O7 1.936194 1_555
Ni1 O12 1.937437 1_655
Ni1 O10 1.949967 1_555
Ni1 O9 1.952967 1_655
Ni1 O14 2.040630 1_555
Ni1 O5 2.040809 1_655
