# generated using pymatgen
data_Si(H3C)2
_symmetry_space_group_name_H-M   'P 1'
_cell_length_a   10.14688031
_cell_length_b   15.37288060
_cell_length_c   33.72065745
_cell_angle_alpha   90.00000000
_cell_angle_beta   90.00000000
_cell_angle_gamma   98.77003677
_symmetry_Int_Tables_number   1
_chemical_formula_structural   Si(H3C)2
_chemical_formula_sum   'Si48 H288 C96'
_cell_volume   5198.47843318
_cell_formula_units_Z   48
loop_
 _symmetry_equiv_pos_site_id
 _symmetry_equiv_pos_as_xyz
  1  'x, y, z'
loop_
 _atom_site_type_symbol
 _atom_site_label
 _atom_site_symmetry_multiplicity
 _atom_site_fract_x
 _atom_site_fract_y
 _atom_site_fract_z
 _atom_site_occupancy
  Si  Si0  1  0.91294410  0.78219593  0.64861390  1
  Si  Si1  1  0.08705590  0.71780407  0.14861390  1
  Si  Si2  1  0.08705590  0.21780407  0.35138610  1
  Si  Si3  1  0.91294410  0.28219593  0.85138610  1
  Si  Si4  1  0.87419307  0.64838049  0.60996175  1
  Si  Si5  1  0.12580693  0.85161951  0.10996175  1
  Si  Si6  1  0.12580693  0.35161951  0.39003825  1
  Si  Si7  1  0.87419307  0.14838049  0.89003825  1
  Si  Si8  1  0.02307773  0.67869823  0.55464411  1
  Si  Si9  1  0.97692227  0.82130177  0.05464411  1
  Si  Si10  1  0.97692227  0.32130177  0.44535589  1
  Si  Si11  1  0.02307773  0.17869823  0.94535589  1
  Si  Si12  1  0.09648964  0.83343921  0.55702372  1
  Si  Si13  1  0.90351036  0.66656079  0.05702372  1
  Si  Si14  1  0.90351036  0.16656079  0.44297628  1
  Si  Si15  1  0.09648964  0.33343921  0.94297628  1
  Si  Si16  1  0.11716348  0.86764767  0.62586148  1
  Si  Si17  1  0.88283652  0.63235233  0.12586148  1
  Si  Si18  1  0.88283652  0.13235233  0.37413852  1
  Si  Si19  1  0.11716348  0.36764767  0.87413852  1
  Si  Si20  1  0.92547360  0.52712161  0.64854783  1
  Si  Si21  1  0.07452640  0.97287839  0.14854783  1
  Si  Si22  1  0.07452640  0.47287839  0.35145217  1
  Si  Si23  1  0.92547360  0.02712161  0.85145217  1
  Si  Si24  1  0.64878664  0.61620764  0.58662967  1
  Si  Si25  1  0.35121336  0.88379236  0.08662967  1
  Si  Si26  1  0.35121336  0.38379236  0.41337033  1
  Si  Si27  1  0.64878664  0.11620764  0.91337033  1
  Si  Si28  1  0.13649303  0.01864161  0.64937883  1
  Si  Si29  1  0.86350697  0.48135839  0.14937883  1
  Si  Si30  1  0.86350697  0.98135839  0.35062117  1
  Si  Si31  1  0.13649303  0.51864161  0.85062117  1
  Si  Si32  1  0.34654999  0.11769973  0.64967186  1
  Si  Si33  1  0.65345001  0.38230027  0.14967186  1
  Si  Si34  1  0.65345001  0.88230027  0.35032814  1
  Si  Si35  1  0.34654999  0.61769973  0.85032814  1
  Si  Si36  1  0.49247597  0.09407280  0.70326797  1
  Si  Si37  1  0.50752403  0.40592720  0.20326797  1
  Si  Si38  1  0.50752403  0.90592720  0.29673203  1
  Si  Si39  1  0.49247597  0.59407280  0.79673203  1
  Si  Si40  1  0.30279394  0.26617204  0.65800058  1
  Si  Si41  1  0.69720606  0.23382796  0.15800058  1
  Si  Si42  1  0.69720606  0.73382796  0.34199942  1
  Si  Si43  1  0.30279394  0.76617204  0.84199942  1
  Si  Si44  1  0.46436980  0.11610430  0.58882400  1
  Si  Si45  1  0.53563020  0.38389570  0.08882400  1
  Si  Si46  1  0.53563020  0.88389570  0.41117600  1
  Si  Si47  1  0.46436980  0.61610430  0.91117600  1
  H  H0  1  0.67840312  0.81151419  0.65817302  1
  H  H1  1  0.32159688  0.68848581  0.15817302  1
  H  H2  1  0.32159688  0.18848581  0.34182698  1
  H  H3  1  0.67840312  0.31151419  0.84182698  1
  H  H4  1  0.79467032  0.90999538  0.66046655  1
  H  H5  1  0.20532968  0.59000462  0.16046655  1
  H  H6  1  0.20532968  0.09000462  0.33953345  1
  H  H7  1  0.79467032  0.40999538  0.83953345  1
  H  H8  1  0.74543240  0.86296479  0.61358017  1
  H  H9  1  0.25456760  0.63703521  0.11358017  1
  H  H10  1  0.25456760  0.13703521  0.38641983  1
  H  H11  1  0.74543240  0.36296479  0.88641983  1
  H  H12  1  0.82608747  0.72752554  0.71493589  1
  H  H13  1  0.17391253  0.77247446  0.21493589  1
  H  H14  1  0.17391253  0.27247446  0.28506411  1
  H  H15  1  0.82608747  0.22752554  0.78506411  1
  H  H16  1  0.99798762  0.71600429  0.71098165  1
  H  H17  1  0.00201238  0.78399571  0.21098165  1
  H  H18  1  0.00201238  0.28399571  0.28901835  1
  H  H19  1  0.99798762  0.21600429  0.78901835  1
  H  H20  1  0.95111684  0.82111068  0.71985848  1
  H  H21  1  0.04888316  0.67888932  0.21985848  1
  H  H22  1  0.04888316  0.17888932  0.28014152  1
  H  H23  1  0.95111684  0.32111068  0.78014152  1
  H  H24  1  0.22307135  0.62060853  0.52834318  1
  H  H25  1  0.77692865  0.87939147  0.02834318  1
  H  H26  1  0.77692865  0.37939147  0.47165682  1
  H  H27  1  0.22307135  0.12060853  0.97165682  1
  H  H28  1  0.24356117  0.64245677  0.58000907  1
  H  H29  1  0.75643883  0.85754323  0.08000907  1
  H  H30  1  0.75643883  0.35754323  0.41999093  1
  H  H31  1  0.24356117  0.14245677  0.91999093  1
  H  H32  1  0.13794776  0.54595955  0.56336255  1
  H  H33  1  0.86205224  0.95404045  0.06336255  1
  H  H34  1  0.86205224  0.45404045  0.43663745  1
  H  H35  1  0.13794776  0.04595955  0.93663745  1
  H  H36  1  0.91071296  0.57372803  0.50371768  1
  H  H37  1  0.08928704  0.92627197  0.00371768  1
  H  H38  1  0.08928704  0.42627197  0.49628232  1
  H  H39  1  0.91071296  0.07372803  0.99628232  1
  H  H40  1  0.85159433  0.67655630  0.49924924  1
  H  H41  1  0.14840567  0.82344370  0.99924924  1
  H  H42  1  0.14840567  0.32344370  0.50075076  1
  H  H43  1  0.85159433  0.17655630  0.00075076  1
  H  H44  1  0.01151889  0.66385290  0.48058269  1
  H  H45  1  0.98848111  0.83614710  0.98058269  1
  H  H46  1  0.98848111  0.33614710  0.51941731  1
  H  H47  1  0.01151889  0.16385290  0.01941731  1
  H  H48  1  0.27926716  0.93622607  0.52437147  1
  H  H49  1  0.72073284  0.56377393  0.02437147  1
  H  H50  1  0.72073284  0.06377393  0.47562853  1
  H  H51  1  0.27926716  0.43622607  0.97562853  1
  H  H52  1  0.33783171  0.83550549  0.53587832  1
  H  H53  1  0.66216829  0.66449451  0.03587832  1
  H  H54  1  0.66216829  0.16449451  0.46412168  1
  H  H55  1  0.33783171  0.33550549  0.96412168  1
  H  H56  1  0.22967736  0.84183604  0.49470509  1
  H  H57  1  0.77032264  0.65816396  0.99470509  1
  H  H58  1  0.77032264  0.15816396  0.50529491  1
  H  H59  1  0.22967736  0.34183604  0.00529491  1
  H  H60  1  0.94598417  0.87043081  0.50285612  1
  H  H61  1  0.05401583  0.62956919  0.00285612  1
  H  H62  1  0.05401583  0.12956919  0.49714388  1
  H  H63  1  0.94598417  0.37043081  0.99714388  1
  H  H64  1  0.86534400  0.87331572  0.54962895  1
  H  H65  1  0.13465600  0.62668428  0.04962895  1
  H  H66  1  0.13465600  0.12668428  0.45037105  1
  H  H67  1  0.86534400  0.37331572  0.95037105  1
  H  H68  1  0.99048066  0.96168582  0.53515248  1
  H  H69  1  0.00951934  0.53831418  0.03515248  1
  H  H70  1  0.00951934  0.03831418  0.46484752  1
  H  H71  1  0.99048066  0.46168582  0.96484752  1
  H  H72  1  0.35407143  0.83979017  0.63413739  1
  H  H73  1  0.64592857  0.66020983  0.13413739  1
  H  H74  1  0.64592857  0.16020983  0.36586261  1
  H  H75  1  0.35407143  0.33979017  0.86586261  1
  H  H76  1  0.26264649  0.81578783  0.67890011  1
  H  H77  1  0.73735351  0.68421217  0.17890011  1
  H  H78  1  0.73735351  0.18421217  0.32109989  1
  H  H79  1  0.26264649  0.31578783  0.82109989  1
  H  H80  1  0.24008947  0.74020681  0.63870718  1
  H  H81  1  0.75991053  0.75979319  0.13870718  1
  H  H82  1  0.75991053  0.25979319  0.36129282  1
  H  H83  1  0.24008947  0.24020681  0.86129282  1
  H  H84  1  0.12307967  0.49226830  0.68550750  1
  H  H85  1  0.87692033  0.00773170  0.18550750  1
  H  H86  1  0.87692033  0.50773170  0.31449250  1
  H  H87  1  0.12307967  0.99226830  0.81449250  1
  H  H88  1  0.17442716  0.55201769  0.64156486  1
  H  H89  1  0.82557284  0.94798231  0.14156486  1
  H  H90  1  0.82557284  0.44798231  0.35843514  1
  H  H91  1  0.17442716  0.05201769  0.85843514  1
  H  H92  1  0.12440223  0.60802677  0.68395427  1
  H  H93  1  0.87559777  0.89197323  0.18395427  1
  H  H94  1  0.87559777  0.39197323  0.31604573  1
  H  H95  1  0.12440223  0.10802677  0.81604573  1
  H  H96  1  0.83484259  0.44368478  0.70780623  1
  H  H97  1  0.16515741  0.05631522  0.20780623  1
  H  H98  1  0.16515741  0.55631522  0.29219377  1
  H  H99  1  0.83484259  0.94368478  0.79219377  1
  H  H100  1  0.83619615  0.55819761  0.71590840  1
  H  H101  1  0.16380385  0.94180239  0.21590840  1
  H  H102  1  0.16380385  0.44180239  0.28409160  1
  H  H103  1  0.83619615  0.05819761  0.78409160  1
  H  H104  1  0.70904750  0.49720149  0.68613646  1
  H  H105  1  0.29095250  0.00279851  0.18613646  1
  H  H106  1  0.29095250  0.50279851  0.31386354  1
  H  H107  1  0.70904750  0.99720149  0.81386354  1
  H  H108  1  0.79706127  0.39419920  0.61609897  1
  H  H109  1  0.20293873  0.10580080  0.11609897  1
  H  H110  1  0.20293873  0.60580080  0.38390103  1
  H  H111  1  0.79706127  0.89419920  0.88390103  1
  H  H112  1  0.94710616  0.42957033  0.58930974  1
  H  H113  1  0.05289384  0.07042967  0.08930974  1
  H  H114  1  0.05289384  0.57042967  0.41069026  1
  H  H115  1  0.94710616  0.92957033  0.91069026  1
  H  H116  1  0.95245629  0.37253526  0.63502252  1
  H  H117  1  0.04754371  0.12746474  0.13502252  1
  H  H118  1  0.04754371  0.62746474  0.36497748  1
  H  H119  1  0.95245629  0.87253526  0.86497748  1
  H  H120  1  0.42630746  0.57561134  0.61772122  1
  H  H121  1  0.57369254  0.92438866  0.11772122  1
  H  H122  1  0.57369254  0.42438866  0.38227878  1
  H  H123  1  0.42630746  0.07561134  0.88227878  1
  H  H124  1  0.55323475  0.55507667  0.65124242  1
  H  H125  1  0.44676525  0.94492333  0.15124242  1
  H  H126  1  0.44676525  0.44492333  0.34875758  1
  H  H127  1  0.55323475  0.05507667  0.84875758  1
  H  H128  1  0.51975885  0.66452686  0.64406210  1
  H  H129  1  0.48024115  0.83547314  0.14406210  1
  H  H130  1  0.48024115  0.33547314  0.35593790  1
  H  H131  1  0.51975885  0.16452686  0.85593790  1
  H  H132  1  0.67280688  0.51660173  0.52848151  1
  H  H133  1  0.32719312  0.98339827  0.02848151  1
  H  H134  1  0.32719312  0.48339827  0.47151849  1
  H  H135  1  0.67280688  0.01660173  0.97151849  1
  H  H136  1  0.64071879  0.45433420  0.57301904  1
  H  H137  1  0.35928121  0.04566580  0.07301904  1
  H  H138  1  0.35928121  0.54566580  0.42698096  1
  H  H139  1  0.64071879  0.95433420  0.92698096  1
  H  H140  1  0.50953855  0.49919597  0.54908440  1
  H  H141  1  0.49046145  0.00080403  0.04908440  1
  H  H142  1  0.49046145  0.50080403  0.45091560  1
  H  H143  1  0.50953855  0.99919597  0.95091560  1
  H  H144  1  0.59963812  0.76712558  0.57161573  1
  H  H145  1  0.40036188  0.73287442  0.07161573  1
  H  H146  1  0.40036188  0.23287442  0.42838427  1
  H  H147  1  0.59963812  0.26712558  0.92838427  1
  H  H148  1  0.67493562  0.72292265  0.52988427  1
  H  H149  1  0.32506438  0.77707735  0.02988427  1
  H  H150  1  0.32506438  0.27707735  0.47011573  1
  H  H151  1  0.67493562  0.22292265  0.97011573  1
  H  H152  1  0.50406318  0.68659319  0.54099309  1
  H  H153  1  0.49593682  0.81340681  0.04099309  1
  H  H154  1  0.49593682  0.31340681  0.45900691  1
  H  H155  1  0.50406318  0.18659319  0.95900691  1
  H  H156  1  0.01129966  0.14051134  0.62851332  1
  H  H157  1  0.98870034  0.35948866  0.12851332  1
  H  H158  1  0.98870034  0.85948866  0.37148668  1
  H  H159  1  0.01129966  0.64051134  0.87148668  1
  H  H160  1  0.04073243  0.07384389  0.58710517  1
  H  H161  1  0.95926757  0.42615611  0.08710517  1
  H  H162  1  0.95926757  0.92615611  0.41289483  1
  H  H163  1  0.04073243  0.57384389  0.91289483  1
  H  H164  1  0.91291189  0.03562173  0.62183086  1
  H  H165  1  0.08708811  0.46437827  0.12183086  1
  H  H166  1  0.08708811  0.96437827  0.37816914  1
  H  H167  1  0.91291189  0.53562173  0.87816914  1
  H  H168  1  0.96792914  0.98192281  0.70366137  1
  H  H169  1  0.03207086  0.51807719  0.20366137  1
  H  H170  1  0.03207086  0.01807719  0.29633863  1
  H  H171  1  0.96792914  0.48192281  0.79633863  1
  H  H172  1  0.13155789  0.97978060  0.72247687  1
  H  H173  1  0.86844211  0.52021940  0.22247687  1
  H  H174  1  0.86844211  0.02021940  0.27752313  1
  H  H175  1  0.13155789  0.47978060  0.77752313  1
  H  H176  1  0.07364233  0.08198611  0.71414883  1
  H  H177  1  0.92635767  0.41801389  0.21414883  1
  H  H178  1  0.92635767  0.91801389  0.28585117  1
  H  H179  1  0.07364233  0.58198611  0.78585117  1
  H  H180  1  0.57125478  0.96628577  0.73504994  1
  H  H181  1  0.42874522  0.53371423  0.23504994  1
  H  H182  1  0.42874522  0.03371423  0.26495006  1
  H  H183  1  0.57125478  0.46628577  0.76495006  1
  H  H184  1  0.39717044  0.94232675  0.72473242  1
  H  H185  1  0.60282956  0.55767325  0.22473242  1
  H  H186  1  0.60282956  0.05767325  0.27526758  1
  H  H187  1  0.39717044  0.44232675  0.77526758  1
  H  H188  1  0.51575981  0.93868391  0.68580419  1
  H  H189  1  0.48424019  0.56131609  0.18580419  1
  H  H190  1  0.48424019  0.06131609  0.31419581  1
  H  H191  1  0.51575981  0.43868391  0.81419581  1
  H  H192  1  0.49057536  0.11715322  0.77640677  1
  H  H193  1  0.50942464  0.38284678  0.27640677  1
  H  H194  1  0.50942464  0.88284678  0.22359323  1
  H  H195  1  0.49057536  0.61715322  0.72359323  1
  H  H196  1  0.47365752  0.21634030  0.75118518  1
  H  H197  1  0.52634248  0.28365970  0.25118518  1
  H  H198  1  0.52634248  0.78365970  0.24881482  1
  H  H199  1  0.47365752  0.71634030  0.74881482  1
  H  H200  1  0.33396187  0.13159081  0.75594132  1
  H  H201  1  0.66603813  0.36840919  0.25594132  1
  H  H202  1  0.66603813  0.86840919  0.24405868  1
  H  H203  1  0.33396187  0.63159081  0.74405868  1
  H  H204  1  0.70824848  0.12033567  0.66492917  1
  H  H205  1  0.29175152  0.37966433  0.16492917  1
  H  H206  1  0.29175152  0.87966433  0.33507083  1
  H  H207  1  0.70824848  0.62033567  0.83507083  1
  H  H208  1  0.67902614  0.21736086  0.69041987  1
  H  H209  1  0.32097386  0.28263914  0.19041987  1
  H  H210  1  0.32097386  0.78263914  0.30958013  1
  H  H211  1  0.67902614  0.71736086  0.80958013  1
  H  H212  1  0.73577355  0.12989713  0.71687585  1
  H  H213  1  0.26422645  0.37010287  0.21687585  1
  H  H214  1  0.26422645  0.87010287  0.28312415  1
  H  H215  1  0.73577355  0.62989713  0.78312415  1
  H  H216  1  0.17943411  0.34442462  0.70704507  1
  H  H217  1  0.82056589  0.15557538  0.20704507  1
  H  H218  1  0.82056589  0.65557538  0.29295493  1
  H  H219  1  0.17943411  0.84442462  0.79295493  1
  H  H220  1  0.07072892  0.25533526  0.68547072  1
  H  H221  1  0.92927108  0.24466474  0.18547072  1
  H  H222  1  0.92927108  0.74466474  0.31452928  1
  H  H223  1  0.07072892  0.75533526  0.81452928  1
  H  H224  1  0.18527435  0.23508866  0.72326655  1
  H  H225  1  0.81472565  0.26491134  0.22326655  1
  H  H226  1  0.81472565  0.76491134  0.27673345  1
  H  H227  1  0.18527435  0.73508866  0.77673345  1
  H  H228  1  0.49481286  0.32279022  0.70317494  1
  H  H229  1  0.50518714  0.17720978  0.20317494  1
  H  H230  1  0.50518714  0.67720978  0.29682506  1
  H  H231  1  0.49481286  0.82279022  0.79682506  1
  H  H232  1  0.53957792  0.34411087  0.65257940  1
  H  H233  1  0.46042208  0.15588913  0.15257940  1
  H  H234  1  0.46042208  0.65588913  0.34742060  1
  H  H235  1  0.53957792  0.84411087  0.84742060  1
  H  H236  1  0.43333274  0.40883646  0.67732831  1
  H  H237  1  0.56666726  0.09116354  0.17732831  1
  H  H238  1  0.56666726  0.59116354  0.32267169  1
  H  H239  1  0.43333274  0.90883646  0.82267169  1
  H  H240  1  0.22310412  0.38155293  0.61662390  1
  H  H241  1  0.77689588  0.11844707  0.11662390  1
  H  H242  1  0.77689588  0.61844707  0.38337610  1
  H  H243  1  0.22310412  0.88155293  0.88337610  1
  H  H244  1  0.32113806  0.31925062  0.58747806  1
  H  H245  1  0.67886194  0.18074938  0.08747806  1
  H  H246  1  0.67886194  0.68074938  0.41252194  1
  H  H247  1  0.32113806  0.81925062  0.91252194  1
  H  H248  1  0.15289504  0.27533653  0.59929669  1
  H  H249  1  0.84710496  0.22466347  0.09929669  1
  H  H250  1  0.84710496  0.72466347  0.40070331  1
  H  H251  1  0.15289504  0.77533653  0.90070331  1
  H  H252  1  0.55594325  0.27434253  0.57799420  1
  H  H253  1  0.44405675  0.22565747  0.07799420  1
  H  H254  1  0.44405675  0.72565747  0.42200580  1
  H  H255  1  0.55594325  0.77434253  0.92200580  1
  H  H256  1  0.65840959  0.22548073  0.61199419  1
  H  H257  1  0.34159041  0.27451927  0.11199419  1
  H  H258  1  0.34159041  0.77451927  0.38800581  1
  H  H259  1  0.65840959  0.72548073  0.88800581  1
  H  H260  1  0.66748102  0.20433479  0.56026208  1
  H  H261  1  0.33251898  0.29566521  0.06026208  1
  H  H262  1  0.33251898  0.79566521  0.43973792  1
  H  H263  1  0.66748102  0.70433479  0.93973792  1
  H  H264  1  0.40333513  0.11526182  0.51728158  1
  H  H265  1  0.59666487  0.38473818  0.01728158  1
  H  H266  1  0.59666487  0.88473818  0.48271842  1
  H  H267  1  0.40333513  0.61526182  0.98271842  1
  H  H268  1  0.26444053  0.06645963  0.54616435  1
  H  H269  1  0.73555947  0.43354037  0.04616435  1
  H  H270  1  0.73555947  0.93354037  0.45383565  1
  H  H271  1  0.26444053  0.56645963  0.95383565  1
  H  H272  1  0.30831474  0.18280062  0.54482873  1
  H  H273  1  0.69168526  0.31719938  0.04482873  1
  H  H274  1  0.69168526  0.81719938  0.45517127  1
  H  H275  1  0.30831474  0.68280062  0.95517127  1
  H  H276  1  0.59902634  0.01506536  0.55565308  1
  H  H277  1  0.40097366  0.48493464  0.05565308  1
  H  H278  1  0.40097366  0.98493464  0.44434692  1
  H  H279  1  0.59902634  0.51506536  0.94434692  1
  H  H280  1  0.62198929  0.01278375  0.60795306  1
  H  H281  1  0.37801071  0.48721625  0.10795306  1
  H  H282  1  0.37801071  0.98721625  0.39204694  1
  H  H283  1  0.62198929  0.51278375  0.89204694  1
  H  H284  1  0.47402636  0.95453587  0.58626779  1
  H  H285  1  0.52597364  0.54546413  0.08626779  1
  H  H286  1  0.52597364  0.04546413  0.41373221  1
  H  H287  1  0.47402636  0.45453587  0.91373221  1
  C  C0  1  0.76887068  0.84759292  0.64423143  1
  C  C1  1  0.23112932  0.65240708  0.14423143  1
  C  C2  1  0.23112932  0.15240708  0.35576857  1
  C  C3  1  0.76887068  0.34759292  0.85576857  1
  C  C4  1  0.92404929  0.75871627  0.70377523  1
  C  C5  1  0.07595071  0.74128373  0.20377523  1
  C  C6  1  0.07595071  0.24128373  0.29622477  1
  C  C7  1  0.92404929  0.25871627  0.79622477  1
  C  C8  1  0.17133530  0.61618966  0.55710974  1
  C  C9  1  0.82866470  0.88381034  0.05710974  1
  C  C10  1  0.82866470  0.38381034  0.44289026  1
  C  C11  1  0.17133530  0.11618966  0.94289026  1
  C  C12  1  0.94052156  0.64566790  0.50493713  1
  C  C13  1  0.05947844  0.85433210  0.00493713  1
  C  C14  1  0.05947844  0.35433210  0.49506287  1
  C  C15  1  0.94052156  0.14566790  0.99506287  1
  C  C16  1  0.25148463  0.86413980  0.52528354  1
  C  C17  1  0.74851537  0.63586020  0.02528354  1
  C  C18  1  0.74851537  0.13586020  0.47471646  1
  C  C19  1  0.25148463  0.36413980  0.97471646  1
  C  C20  1  0.96101352  0.88972571  0.53405750  1
  C  C21  1  0.03898648  0.61027429  0.03405750  1
  C  C22  1  0.03898648  0.11027429  0.46594250  1
  C  C23  1  0.96101352  0.38972571  0.96594250  1
  C  C24  1  0.25701526  0.81040359  0.64643635  1
  C  C25  1  0.74298474  0.68959641  0.14643635  1
  C  C26  1  0.74298474  0.18959641  0.35356365  1
  C  C27  1  0.25701526  0.31040359  0.85356365  1
  C  C28  1  0.10397454  0.54712629  0.66642670  1
  C  C29  1  0.89602546  0.95287371  0.16642670  1
  C  C30  1  0.89602546  0.45287371  0.33357330  1
  C  C31  1  0.10397454  0.04712629  0.83357330  1
  C  C32  1  0.81533025  0.50526944  0.69383585  1
  C  C33  1  0.18466975  0.99473056  0.19383585  1
  C  C34  1  0.18466975  0.49473056  0.30616415  1
  C  C35  1  0.81533025  0.00526944  0.80616415  1
  C  C36  1  0.90338101  0.42128077  0.61907168  1
  C  C37  1  0.09661899  0.07871923  0.11907168  1
  C  C38  1  0.09661899  0.57871923  0.38092832  1
  C  C39  1  0.90338101  0.92128077  0.88092832  1
  C  C40  1  0.52618399  0.60174671  0.62915474  1
  C  C41  1  0.47381601  0.89825329  0.12915474  1
  C  C42  1  0.47381601  0.39825329  0.37084526  1
  C  C43  1  0.52618399  0.10174671  0.87084526  1
  C  C44  1  0.61659878  0.51147195  0.55638804  1
  C  C45  1  0.38340122  0.98852805  0.05638804  1
  C  C46  1  0.38340122  0.48852805  0.44361196  1
  C  C47  1  0.61659878  0.01147195  0.94361196  1
  C  C48  1  0.60315877  0.70709240  0.55413208  1
  C  C49  1  0.39684123  0.79290760  0.05413208  1
  C  C50  1  0.39684123  0.29290760  0.44586792  1
  C  C51  1  0.60315877  0.20709240  0.94586792  1
  C  C52  1  0.01409773  0.07256222  0.61864077  1
  C  C53  1  0.98590227  0.42743778  0.11864077  1
  C  C54  1  0.98590227  0.92743778  0.38135923  1
  C  C55  1  0.01409773  0.57256222  0.88135923  1
  C  C56  1  0.07200782  0.01485760  0.70256576  1
  C  C57  1  0.92799218  0.48514240  0.20256576  1
  C  C58  1  0.92799218  0.98514240  0.29743424  1
  C  C59  1  0.07200782  0.51485760  0.79743424  1
  C  C60  1  0.49396604  0.97345206  0.71287971  1
  C  C61  1  0.50603396  0.52654794  0.21287971  1
  C  C62  1  0.50603396  0.02654794  0.28712029  1
  C  C63  1  0.49396604  0.47345206  0.78712029  1
  C  C64  1  0.44204387  0.14453563  0.75108956  1
  C  C65  1  0.55795613  0.35546437  0.25108956  1
  C  C66  1  0.55795613  0.85546437  0.24891044  1
  C  C67  1  0.44204387  0.64453563  0.74891044  1
  C  C68  1  0.67067669  0.14517285  0.69255733  1
  C  C69  1  0.32932331  0.35482715  0.19255733  1
  C  C70  1  0.32932331  0.85482715  0.30744267  1
  C  C71  1  0.67067669  0.64517285  0.80744267  1
  C  C72  1  0.17198291  0.27546221  0.69718152  1
  C  C73  1  0.82801709  0.22453779  0.19718152  1
  C  C74  1  0.82801709  0.72453779  0.30281848  1
  C  C75  1  0.17198291  0.77546221  0.80281848  1
  C  C76  1  0.45839361  0.34182989  0.67430728  1
  C  C77  1  0.54160639  0.15817011  0.17430728  1
  C  C78  1  0.54160639  0.65817011  0.32569272  1
  C  C79  1  0.45839361  0.84182989  0.82569272  1
  C  C80  1  0.24464595  0.31460236  0.61072430  1
  C  C81  1  0.75535405  0.18539764  0.11072430  1
  C  C82  1  0.75535405  0.68539764  0.38927570  1
  C  C83  1  0.24464595  0.81460236  0.88927570  1
  C  C84  1  0.59953094  0.21477499  0.58468612  1
  C  C85  1  0.40046906  0.28522501  0.08468612  1
  C  C86  1  0.40046906  0.78522501  0.41531388  1
  C  C87  1  0.59953094  0.71477499  0.91531388  1
  C  C88  1  0.34883662  0.12039150  0.54519655  1
  C  C89  1  0.65116338  0.37960850  0.04519655  1
  C  C90  1  0.65116338  0.87960850  0.45480345  1
  C  C91  1  0.34883662  0.62039150  0.95480345  1
  C  C92  1  0.54771305  0.01480516  0.58440919  1
  C  C93  1  0.45228695  0.48519484  0.08440919  1
  C  C94  1  0.45228695  0.98519484  0.41559081  1
  C  C95  1  0.54771305  0.51480516  0.91559081  1
loop_
_geom_bond_atom_site_label_1
_geom_bond_atom_site_label_2
_geom_bond_distance
_geom_bond_site_symmetry_2
Si0 Si4 2.416303 1_555
Si1 Si5 2.416303 1_555
Si2 Si6 2.416303 1_555
Si3 Si7 2.416303 1_555
Si4 Si8 2.400895 1_655
Si5 Si9 2.400895 1_455
Si10 Si6 2.400895 1_655
Si11 Si7 2.400895 1_455
Si20 Si4 2.394656 1_555
Si21 Si5 2.394656 1_555
Si22 Si6 2.394656 1_555
Si23 Si7 2.394656 1_555
Si24 Si4 2.397882 1_555
Si25 Si5 2.397882 1_555
Si26 Si6 2.397882 1_555
Si27 Si7 2.397882 1_555
Si28 Si32 2.423274 1_555
Si29 Si33 2.423274 1_555
Si30 Si34 2.423274 1_555
Si31 Si35 2.423274 1_555
Si32 Si44 2.376716 1_555
Si32 Si36 2.398895 1_555
Si32 Si40 2.407194 1_555
Si33 Si45 2.376716 1_555
Si33 Si37 2.398895 1_555
Si33 Si41 2.407194 1_555
Si34 Si46 2.376716 1_555
Si34 Si38 2.398895 1_555
Si34 Si42 2.407194 1_555
Si35 Si47 2.376716 1_555
Si35 Si39 2.398895 1_555
Si35 Si43 2.407194 1_555
C0 H8 1.094454 1_555
C0 H4 1.100877 1_555
C0 H0 1.102739 1_555
C0 Si0 1.902066 1_555
C1 H9 1.094454 1_555
C1 H5 1.100877 1_555
C1 H1 1.102739 1_555
C1 Si1 1.902066 1_555
C2 H10 1.094454 1_555
C2 H6 1.100877 1_555
C2 H2 1.102739 1_555
C2 Si2 1.902066 1_555
C3 H11 1.094454 1_555
C3 H7 1.100877 1_555
C3 H3 1.102739 1_555
C3 Si3 1.902066 1_555
C4 H16 1.096934 1_555
C4 H20 1.099664 1_555
C4 H12 1.101934 1_555
C4 Si0 1.901386 1_555
C5 H17 1.096934 1_555
C5 H21 1.099664 1_555
C5 H13 1.101934 1_555
C5 Si1 1.901386 1_555
C6 H18 1.096934 1_555
C6 H22 1.099664 1_555
C6 H14 1.101934 1_555
C6 Si2 1.901386 1_555
C7 H19 1.096934 1_555
C7 H23 1.099664 1_555
C7 H15 1.101934 1_555
C7 Si3 1.901386 1_555
C8 H28 1.098258 1_555
C8 H24 1.100125 1_555
C8 H32 1.101506 1_555
C8 Si8 1.906358 1_555
C9 H29 1.098258 1_555
C9 H25 1.100125 1_555
C9 H33 1.101506 1_555
C9 Si9 1.906358 1_555
C10 H30 1.098258 1_555
C10 H26 1.100125 1_555
C10 H34 1.101506 1_555
C10 Si10 1.906358 1_555
C11 H31 1.098258 1_555
C11 H27 1.100125 1_555
C11 H35 1.101506 1_555
C11 Si11 1.906358 1_555
C12 H40 1.098693 1_555
C12 H44 1.100075 1_655
C12 H36 1.101925 1_555
C12 Si8 1.907703 1_655
C13 H41 1.098693 1_554
C13 H45 1.100075 1_454
C13 H37 1.101925 1_555
C13 Si9 1.907703 1_455
C14 H42 1.098693 1_555
C14 H46 1.100075 1_455
C14 H38 1.101925 1_555
C14 Si10 1.907703 1_455
C15 H43 1.098693 1_556
C15 H47 1.100075 1_656
C15 H39 1.101925 1_555
C15 Si11 1.907703 1_655
C16 H56 1.098458 1_555
C16 H52 1.098480 1_555
C16 H48 1.101455 1_555
C16 Si12 1.901415 1_555
C17 H57 1.098458 1_554
C17 H53 1.098480 1_555
C17 H49 1.101455 1_555
C17 Si13 1.901415 1_555
C18 H58 1.098458 1_555
C18 H54 1.098480 1_555
C18 H50 1.101455 1_555
C18 Si14 1.901415 1_555
C19 H59 1.098458 1_556
C19 H55 1.098480 1_555
C19 H51 1.101455 1_555
C19 Si15 1.901415 1_555
C20 H60 1.097463 1_555
C20 H64 1.098646 1_555
C20 H68 1.101660 1_555
C20 Si12 1.897597 1_655
C21 H61 1.097463 1_555
C21 H65 1.098646 1_555
C21 H69 1.101660 1_555
C21 Si13 1.897597 1_455
C22 H62 1.097463 1_555
C22 H66 1.098646 1_555
C22 H70 1.101660 1_555
C22 Si14 1.897597 1_455
C23 H63 1.097463 1_555
C23 H67 1.098646 1_555
C23 H71 1.101660 1_555
C23 Si15 1.897597 1_655
C24 H80 1.097918 1_555
C24 H76 1.098654 1_555
C24 H72 1.100129 1_555
C24 Si16 1.910575 1_555
C25 H81 1.097918 1_555
C25 H77 1.098654 1_555
C25 H73 1.100129 1_555
C25 Si17 1.910575 1_555
C26 H82 1.097918 1_555
C26 H78 1.098654 1_555
C26 H74 1.100129 1_555
C26 Si18 1.910575 1_555
C27 H83 1.097918 1_555
C27 H79 1.098654 1_555
C27 H75 1.100129 1_555
C27 Si19 1.910575 1_555
C28 H88 1.096882 1_555
C28 H92 1.099827 1_555
C28 H84 1.101189 1_555
C28 Si20 1.889111 1_455
C29 H89 1.096882 1_555
C29 H93 1.099827 1_555
C29 H85 1.101189 1_565
C29 Si21 1.889111 1_655
C30 H90 1.096882 1_555
C30 H94 1.099827 1_555
C30 H86 1.101189 1_555
C30 Si22 1.889111 1_655
C31 H91 1.096882 1_555
C31 H95 1.099827 1_555
C31 H87 1.101189 1_545
C31 Si23 1.889111 1_455
C32 H104 1.097739 1_555
C32 H100 1.099236 1_555
C32 H96 1.102084 1_555
C32 Si20 1.891978 1_555
C33 H105 1.097739 1_565
C33 H101 1.099236 1_555
C33 H97 1.102084 1_565
C33 Si21 1.891978 1_555
C34 H106 1.097739 1_555
C34 H102 1.099236 1_555
C34 H98 1.102084 1_555
C34 Si22 1.891978 1_555
C35 H107 1.097739 1_545
C35 H103 1.099236 1_555
C35 H99 1.102084 1_545
C35 Si23 1.891978 1_555
C36 H112 1.096833 1_555
C36 H108 1.100115 1_555
C36 H116 1.101181 1_555
C36 Si20 1.890598 1_555
C37 H113 1.096833 1_555
C37 H109 1.100115 1_555
C37 H117 1.101181 1_555
C37 Si21 1.890598 1_545
C38 H114 1.096833 1_555
C38 H110 1.100115 1_555
C38 H118 1.101181 1_555
C38 Si22 1.890598 1_555
C39 H115 1.096833 1_555
C39 H111 1.100115 1_555
C39 H119 1.101181 1_555
C39 Si23 1.890598 1_565
C40 H124 1.097667 1_555
C40 H128 1.098895 1_555
C40 H120 1.101344 1_555
C40 Si24 1.889177 1_555
C41 H125 1.097667 1_555
C41 H129 1.098895 1_555
C41 H121 1.101344 1_555
C41 Si25 1.889177 1_555
C42 H126 1.097667 1_555
C42 H130 1.098895 1_555
C42 H122 1.101344 1_555
C42 Si26 1.889177 1_555
C43 H127 1.097667 1_555
C43 H131 1.098895 1_555
C43 H123 1.101344 1_555
C43 Si27 1.889177 1_555
C44 H132 1.096959 1_555
C44 H136 1.100680 1_555
C44 H140 1.101754 1_555
C44 Si24 1.891726 1_555
C45 H133 1.096959 1_555
C45 H137 1.100680 1_565
C45 H141 1.101754 1_565
C45 Si25 1.891726 1_555
C46 H134 1.096959 1_555
C46 H138 1.100680 1_555
C46 H142 1.101754 1_555
C46 Si26 1.891726 1_555
C47 H135 1.096959 1_555
C47 H139 1.100680 1_545
C47 H143 1.101754 1_545
C47 Si27 1.891726 1_555
C48 H148 1.097346 1_555
C48 H152 1.100015 1_555
C48 H144 1.100283 1_555
C48 Si24 1.887995 1_555
C49 H149 1.097346 1_555
C49 H153 1.100015 1_555
C49 H145 1.100283 1_555
C49 Si25 1.887995 1_555
C50 H150 1.097346 1_555
C50 H154 1.100015 1_555
C50 H146 1.100283 1_555
C50 Si26 1.887995 1_555
C51 H151 1.097346 1_555
C51 H155 1.100015 1_555
C51 H147 1.100283 1_555
C51 Si27 1.887995 1_555
C52 H160 1.096643 1_555
C52 H164 1.100191 1_455
C52 H156 1.100823 1_555
C52 Si28 1.902041 1_555
C53 H161 1.096643 1_555
C53 H165 1.100191 1_655
C53 H157 1.100823 1_555
C53 Si29 1.902041 1_555
C54 H162 1.096643 1_555
C54 H166 1.100191 1_655
C54 H158 1.100823 1_555
C54 Si30 1.902041 1_555
C55 H163 1.096643 1_555
C55 H167 1.100191 1_455
C55 H159 1.100823 1_555
C55 Si31 1.902041 1_555
C56 H172 1.098201 1_545
C56 H168 1.099978 1_445
C56 H176 1.101160 1_555
C56 Si28 1.906975 1_555
C57 H173 1.098201 1_555
C57 H169 1.099978 1_655
C57 H177 1.101160 1_555
C57 Si29 1.906975 1_555
C58 H174 1.098201 1_565
C58 H170 1.099978 1_665
C58 H178 1.101160 1_555
C58 Si30 1.906975 1_555
C59 H175 1.098201 1_555
C59 H171 1.099978 1_455
C59 H179 1.101160 1_555
C59 Si31 1.906975 1_555
C60 H188 1.097359 1_555
C60 H184 1.100023 1_555
C60 H180 1.101096 1_555
C60 Si36 1.884731 1_565
C61 H189 1.097359 1_555
C61 H185 1.100023 1_555
C61 H181 1.101096 1_555
C61 Si37 1.884731 1_555
C62 H190 1.097359 1_555
C62 H186 1.100023 1_555
C62 H182 1.101096 1_555
C62 Si38 1.884731 1_545
C63 H191 1.097359 1_555
C63 H187 1.100023 1_555
C63 H183 1.101096 1_555
C63 Si39 1.884731 1_555
C64 H200 1.096612 1_555
C64 H192 1.100788 1_555
C64 H196 1.101548 1_555
C64 Si36 1.893442 1_555
C65 H201 1.096612 1_555
C65 H193 1.100788 1_555
C65 H197 1.101548 1_555
C65 Si37 1.893442 1_555
C66 H202 1.096612 1_555
C66 H194 1.100788 1_555
C66 H198 1.101548 1_555
C66 Si38 1.893442 1_555
C67 H203 1.096612 1_555
C67 H195 1.100788 1_555
C67 H199 1.101548 1_555
C67 Si39 1.893442 1_555
C68 H204 1.097027 1_555
C68 H212 1.100548 1_555
C68 H208 1.102370 1_555
C68 Si36 1.893124 1_555
C69 H205 1.097027 1_555
C69 H213 1.100548 1_555
C69 H209 1.102370 1_555
C69 Si37 1.893124 1_555
C70 H206 1.097027 1_555
C70 H214 1.100548 1_555
C70 H210 1.102370 1_555
C70 Si38 1.893124 1_555
C71 H207 1.097027 1_555
C71 H215 1.100548 1_555
C71 H211 1.102370 1_555
C71 Si39 1.893124 1_555
C72 H224 1.096647 1_555
C72 H220 1.100143 1_555
C72 H216 1.102643 1_555
C72 Si40 1.893562 1_555
C73 H225 1.096647 1_555
C73 H221 1.100143 1_555
C73 H217 1.102643 1_555
C73 Si41 1.893562 1_555
C74 H226 1.096647 1_555
C74 H222 1.100143 1_555
C74 H218 1.102643 1_555
C74 Si42 1.893562 1_555
C75 H227 1.096647 1_555
C75 H223 1.100143 1_555
C75 H219 1.102643 1_555
C75 Si43 1.893562 1_555
C76 H228 1.096719 1_555
C76 H232 1.099014 1_555
C76 H236 1.102719 1_555
C76 Si40 1.894180 1_555
C77 H229 1.096719 1_555
C77 H233 1.099014 1_555
C77 H237 1.102719 1_555
C77 Si41 1.894180 1_555
C78 H230 1.096719 1_555
C78 H234 1.099014 1_555
C78 H238 1.102719 1_555
C78 Si42 1.894180 1_555
C79 H231 1.096719 1_555
C79 H235 1.099014 1_555
C79 H239 1.102719 1_555
C79 Si43 1.894180 1_555
C80 H244 1.097760 1_555
C80 H248 1.099194 1_555
C80 H240 1.102387 1_555
C80 Si40 1.891510 1_555
C81 H245 1.097760 1_555
C81 H249 1.099194 1_555
C81 H241 1.102387 1_555
C81 Si41 1.891510 1_555
C82 H246 1.097760 1_555
C82 H250 1.099194 1_555
C82 H242 1.102387 1_555
C82 Si42 1.891510 1_555
C83 H247 1.097760 1_555
C83 H251 1.099194 1_555
C83 H243 1.102387 1_555
C83 Si43 1.891510 1_555
C84 H256 1.096352 1_555
C84 H252 1.099357 1_555
C84 H260 1.101452 1_555
C84 Si44 1.888613 1_555
C85 H257 1.096352 1_555
C85 H253 1.099357 1_555
C85 H261 1.101452 1_555
C85 Si45 1.888613 1_555
C86 H258 1.096352 1_555
C86 H254 1.099357 1_555
C86 H262 1.101452 1_555
C86 Si46 1.888613 1_555
C87 H259 1.096352 1_555
C87 H255 1.099357 1_555
C87 H263 1.101452 1_555
C87 Si47 1.888613 1_555
C88 H268 1.097859 1_555
C88 H272 1.099987 1_555
C88 H264 1.100627 1_555
C88 Si44 1.888509 1_555
C89 H269 1.097859 1_555
C89 H273 1.099987 1_555
C89 H265 1.100627 1_555
C89 Si45 1.888509 1_555
C90 H270 1.097859 1_555
C90 H274 1.099987 1_555
C90 H266 1.100627 1_555
C90 Si46 1.888509 1_555
C91 H271 1.097859 1_555
C91 H275 1.099987 1_555
C91 H267 1.100627 1_555
C91 Si47 1.888509 1_555
C92 H280 1.098376 1_555
C92 H284 1.100068 1_545
C92 H276 1.100340 1_555
C92 Si44 1.887847 1_555
C93 H281 1.098376 1_555
C93 H285 1.100068 1_555
C93 H277 1.100340 1_555
C93 Si45 1.887847 1_555
C94 H282 1.098376 1_555
C94 H286 1.100068 1_565
C94 H278 1.100340 1_555
C94 Si46 1.887847 1_555
C95 H283 1.098376 1_555
C95 H287 1.100068 1_555
C95 H279 1.100340 1_555
C95 Si47 1.887847 1_555
