# generated using pymatgen
data_Li7Mn5O12
_symmetry_space_group_name_H-M   'P 1'
_cell_length_a   6.04120441
_cell_length_b   10.18606386
_cell_length_c   7.81084385
_cell_angle_alpha   82.61215406
_cell_angle_beta   75.80911638
_cell_angle_gamma   103.61798406
_symmetry_Int_Tables_number   1
_chemical_formula_structural   Li7Mn5O12
_chemical_formula_sum   'Li14 Mn10 O24'
_cell_volume   443.94010660
_cell_formula_units_Z   2
loop_
 _symmetry_equiv_pos_site_id
 _symmetry_equiv_pos_as_xyz
  1  'x, y, z'
loop_
 _atom_site_type_symbol
 _atom_site_label
 _atom_site_symmetry_multiplicity
 _atom_site_fract_x
 _atom_site_fract_y
 _atom_site_fract_z
 _atom_site_occupancy
  Li  Li0  1  0.49309600  0.99577200  0.00215200  1
  Li  Li1  1  0.50717000  0.50410700  0.99817200  1
  Li  Li2  1  0.07144800  0.24232600  0.16004700  1
  Li  Li3  1  0.08792100  0.75073500  0.16427200  1
  Li  Li4  1  0.92958400  0.25749500  0.84128900  1
  Li  Li5  1  0.91068700  0.74902900  0.83473300  1
  Li  Li6  1  0.58716400  0.25846200  0.15909300  1
  Li  Li7  1  0.58133600  0.75994700  0.16165300  1
  Li  Li8  1  0.41257200  0.24112200  0.84139800  1
  Li  Li9  1  0.42024800  0.74059500  0.83928900  1
  Li  Li10  1  0.25203600  0.25357100  0.49996500  1
  Li  Li11  1  0.26489100  0.75945000  0.50137000  1
  Li  Li12  1  0.74796700  0.24649000  0.50139500  1
  Li  Li13  1  0.73545600  0.74059800  0.49671700  1
  Mn  Mn0  1  0.00003800  0.49989100  0.99976500  1
  Mn  Mn1  1  0.00062400  0.00012400  0.99963000  1
  Mn  Mn2  1  0.16220200  0.49659400  0.32925600  1
  Mn  Mn3  1  0.17039100  0.99894600  0.32915000  1
  Mn  Mn4  1  0.83576100  0.00235200  0.67036300  1
  Mn  Mn5  1  0.83062000  0.50152400  0.67122400  1
  Mn  Mn6  1  0.65695400  0.49774900  0.32985200  1
  Mn  Mn7  1  0.65921300  0.99826800  0.32681900  1
  Mn  Mn8  1  0.34244700  0.00220000  0.66971600  1
  Mn  Mn9  1  0.34122900  0.50228900  0.67347900  1
  O  O0  1  0.79842200  0.11464600  0.08728200  1
  O  O1  1  0.79508600  0.61194500  0.09433600  1
  O  O2  1  0.20202000  0.38554800  0.91317300  1
  O  O3  1  0.20491600  0.88821600  0.90496400  1
  O  O4  1  0.25400600  0.10777200  0.08552200  1
  O  O5  1  0.25357200  0.60568100  0.08652700  1
  O  O6  1  0.74592400  0.39149000  0.91503100  1
  O  O7  1  0.74611800  0.89444200  0.91273300  1
  O  O8  1  0.96837300  0.11514500  0.42636700  1
  O  O9  1  0.92705600  0.60125900  0.41314200  1
  O  O10  1  0.03191600  0.38506900  0.57383400  1
  O  O11  1  0.07206600  0.89849400  0.58732900  1
  O  O12  1  0.46783900  0.11631600  0.42502800  1
  O  O13  1  0.46477400  0.61532000  0.42153900  1
  O  O14  1  0.53216900  0.38410100  0.57481600  1
  O  O15  1  0.53484100  0.88471100  0.57776600  1
  O  O16  1  0.14132600  0.11780100  0.76167000  1
  O  O17  1  0.13812500  0.61778300  0.76275000  1
  O  O18  1  0.85899900  0.38239000  0.23804400  1
  O  O19  1  0.86214800  0.88250700  0.23752200  1
  O  O20  1  0.60495300  0.10703700  0.73764300  1
  O  O21  1  0.64671900  0.62426100  0.74354800  1
  O  O22  1  0.39421600  0.39246600  0.26254400  1
  O  O23  1  0.35336000  0.87596600  0.25609200  1
loop_
_geom_bond_atom_site_label_1
_geom_bond_atom_site_label_2
_geom_bond_distance
_geom_bond_site_symmetry_2
Li0 O23 2.051226 1_555
Li0 O7 2.072322 1_554
Li0 O4 2.077898 1_565
Li0 O20 2.088610 1_564
Li0 O3 2.184302 1_554
Li0 O0 2.251072 1_565
Li1 O21 2.056733 1_555
Li1 O5 2.074979 1_556
Li1 O6 2.080738 1_555
Li1 O22 2.088714 1_556
Li1 O1 2.179267 1_556
Li1 O2 2.248452 1_555
Li2 O4 2.008940 1_555
Li2 O0 2.091557 1_455
Li2 O2 2.111329 1_554
Li2 O8 2.164525 1_455
Li2 O18 2.180888 1_455
Li2 O22 2.541257 1_555
Li3 O5 2.045084 1_555
Li3 O23 2.132819 1_555
Li3 O9 2.158053 1_455
Li3 O3 2.159986 1_554
Li3 O19 2.160149 1_455
Li3 O1 2.218415 1_455
Li4 O6 2.006903 1_555
Li4 O2 2.087086 1_655
Li4 O0 2.104403 1_556
Li4 O10 2.173778 1_655
Li4 O16 2.177710 1_655
Li4 O20 2.555881 1_555
Li5 O7 2.045003 1_555
Li5 O21 2.121505 1_555
Li5 O11 2.150206 1_655
Li5 O1 2.160433 1_556
Li5 O17 2.161191 1_655
Li5 O3 2.227529 1_655
Li6 O6 2.053615 1_554
Li6 O18 2.095518 1_555
Li6 O22 2.108519 1_555
Li6 O0 2.197756 1_555
Li6 O12 2.220727 1_555
Li6 O4 2.465014 1_555
Li7 O23 2.080874 1_555
Li7 O7 2.090894 1_554
Li7 O19 2.115063 1_555
Li7 O13 2.197345 1_555
Li7 O1 2.237034 1_555
Li7 O5 2.464940 1_555
Li8 O4 2.055284 1_556
Li8 O16 2.093595 1_555
Li8 O20 2.107898 1_555
Li8 O2 2.200025 1_555
Li8 O14 2.228400 1_555
Li8 O6 2.464607 1_555
Li9 O21 2.079653 1_555
Li9 O5 2.084282 1_556
Li9 O17 2.124878 1_555
Li9 O15 2.205407 1_555
Li9 O3 2.238018 1_555
Li9 O7 2.447983 1_555
Li10 O22 2.037270 1_555
Li10 O10 2.134636 1_555
Li10 O14 2.144551 1_555
Li10 O12 2.165990 1_555
Li10 O16 2.169218 1_555
Li10 O8 2.192922 1_455
Li11 O23 1.994780 1_555
Li11 O15 2.082479 1_555
Li11 O11 2.109903 1_555
Li11 O13 2.168725 1_555
Li11 O17 2.189135 1_555
Li11 O9 2.581338 1_455
Li12 O20 2.033625 1_555
Li12 O8 2.136404 1_555
Li12 O12 2.149319 1_555
Li12 O14 2.166547 1_555
Li12 O18 2.179763 1_555
Li12 O10 2.190049 1_655
Li13 O21 2.003804 1_555
Li13 O13 2.080414 1_555
Li13 O9 2.102806 1_555
Li13 O15 2.173713 1_555
Li13 O19 2.177308 1_555
Li13 O11 2.584805 1_655
Mn0 O17 1.940249 1_555
Mn0 O2 1.941671 1_555
Mn0 O18 1.947254 1_456
Mn0 O1 1.953284 1_456
Mn0 O5 1.971274 1_556
Mn0 O6 1.975310 1_455
Mn1 O19 1.944540 1_446
Mn1 O16 1.945918 1_555
Mn1 O0 1.946286 1_456
Mn1 O3 1.949637 1_545
Mn1 O4 1.974308 1_556
Mn1 O7 1.975770 1_445
Mn2 O5 1.946837 1_555
Mn2 O10 1.960383 1_555
Mn2 O22 1.960920 1_555
Mn2 O9 2.005090 1_455
Mn2 O18 2.250684 1_455
Mn2 O13 2.269923 1_555
Mn3 O23 1.908729 1_555
Mn3 O4 1.956444 1_565
Mn3 O8 1.980900 1_465
Mn3 O11 2.015512 1_555
Mn3 O12 2.257783 1_565
Mn3 O19 2.284359 1_455
Mn4 O7 1.940937 1_545
Mn4 O20 1.960214 1_555
Mn4 O8 1.961840 1_555
Mn4 O11 2.002846 1_645
Mn4 O15 2.259560 1_545
Mn4 O16 2.266747 1_655
Mn5 O21 1.909028 1_555
Mn5 O6 1.961588 1_555
Mn5 O10 1.980498 1_655
Mn5 O9 2.013430 1_555
Mn5 O14 2.265016 1_555
Mn5 O17 2.279791 1_655
Mn6 O1 1.916615 1_555
Mn6 O22 1.923132 1_555
Mn6 O13 1.939750 1_555
Mn6 O18 1.961571 1_555
Mn6 O14 1.970181 1_555
Mn6 O9 2.020948 1_555
Mn7 O0 1.949815 1_565
Mn7 O12 1.956515 1_565
Mn7 O19 1.962870 1_555
Mn7 O15 2.007510 1_555
Mn7 O23 2.205620 1_555
Mn7 O8 2.326644 1_565
Mn8 O3 1.913964 1_545
Mn8 O20 1.922910 1_555
Mn8 O15 1.940543 1_545
Mn8 O16 1.960104 1_555
Mn8 O12 1.970261 1_555
Mn8 O11 2.018850 1_545
Mn9 O2 1.952185 1_555
Mn9 O14 1.957148 1_555
Mn9 O17 1.961350 1_555
Mn9 O13 2.011886 1_555
Mn9 O21 2.199883 1_555
Mn9 O10 2.329082 1_555
