# generated using pymatgen
data_Ga2(MoO4)3
_symmetry_space_group_name_H-M   'P 1'
_cell_length_a   9.39337386
_cell_length_b   16.07584816
_cell_length_c   16.05762375
_cell_angle_alpha   108.93013839
_cell_angle_beta   90.00000000
_cell_angle_gamma   90.00000000
_symmetry_Int_Tables_number   1
_chemical_formula_structural   Ga2(MoO4)3
_chemical_formula_sum   'Ga16 Mo24 O96'
_cell_volume   2293.65884048
_cell_formula_units_Z   8
loop_
 _symmetry_equiv_pos_site_id
 _symmetry_equiv_pos_as_xyz
  1  'x, y, z'
loop_
 _atom_site_type_symbol
 _atom_site_label
 _atom_site_symmetry_multiplicity
 _atom_site_fract_x
 _atom_site_fract_y
 _atom_site_fract_z
 _atom_site_occupancy
  Ga  Ga0  1  0.53082331  0.81650512  0.93692474  1
  Ga  Ga1  1  0.46917669  0.18349488  0.06307526  1
  Ga  Ga2  1  0.03082331  0.18349488  0.56307526  1
  Ga  Ga3  1  0.96917669  0.81650512  0.43692474  1
  Ga  Ga4  1  0.96843958  0.92801616  0.81425741  1
  Ga  Ga5  1  0.03156042  0.07198384  0.18574259  1
  Ga  Ga6  1  0.46843958  0.07198384  0.68574259  1
  Ga  Ga7  1  0.53156042  0.92801616  0.31425741  1
  Ga  Ga8  1  0.53424440  0.44001204  0.81739255  1
  Ga  Ga9  1  0.46575560  0.55998796  0.18260745  1
  Ga  Ga10  1  0.03424440  0.55998796  0.68260745  1
  Ga  Ga11  1  0.96575560  0.44001204  0.31739255  1
  Ga  Ga12  1  0.97248978  0.31528225  0.93157782  1
  Ga  Ga13  1  0.02751022  0.68471775  0.06842218  1
  Ga  Ga14  1  0.47248978  0.68471775  0.56842218  1
  Ga  Ga15  1  0.52751022  0.31528225  0.43157782  1
  Mo  Mo0  1  0.24976422  0.98941222  0.98768803  1
  Mo  Mo1  1  0.75023578  0.01058778  0.01231197  1
  Mo  Mo2  1  0.74976422  0.01058778  0.51231197  1
  Mo  Mo3  1  0.25023578  0.98941222  0.48768803  1
  Mo  Mo4  1  0.61701025  0.23590839  0.87662340  1
  Mo  Mo5  1  0.38298975  0.76409161  0.12337660  1
  Mo  Mo6  1  0.11701025  0.76409161  0.62337660  1
  Mo  Mo7  1  0.88298975  0.23590839  0.37662340  1
  Mo  Mo8  1  0.74920424  0.51317812  0.51241040  1
  Mo  Mo9  1  0.25079576  0.48682188  0.48758960  1
  Mo  Mo10  1  0.24920424  0.48682188  0.98758960  1
  Mo  Mo11  1  0.75079576  0.51317812  0.01241040  1
  Mo  Mo12  1  0.87760478  0.37066581  0.72510449  1
  Mo  Mo13  1  0.12239522  0.62933419  0.27489551  1
  Mo  Mo14  1  0.37760478  0.62933419  0.77489551  1
  Mo  Mo15  1  0.62239522  0.37066581  0.22510449  1
  Mo  Mo16  1  0.87377676  0.72312799  0.87107923  1
  Mo  Mo17  1  0.12622324  0.27687201  0.12892077  1
  Mo  Mo18  1  0.37377676  0.27687201  0.62892077  1
  Mo  Mo19  1  0.62622324  0.72312799  0.37107923  1
  Mo  Mo20  1  0.61516895  0.87952299  0.73313886  1
  Mo  Mo21  1  0.38483105  0.12047701  0.26686114  1
  Mo  Mo22  1  0.11516895  0.12047701  0.76686114  1
  Mo  Mo23  1  0.88483105  0.87952299  0.23313886  1
  O  O0  1  0.37788462  0.90321976  0.97020584  1
  O  O1  1  0.62211538  0.09678024  0.02979416  1
  O  O2  1  0.87788462  0.09678024  0.52979416  1
  O  O3  1  0.12211538  0.90321976  0.47020584  1
  O  O4  1  0.59781018  0.14786295  0.77432438  1
  O  O5  1  0.40218982  0.85213705  0.22567562  1
  O  O6  1  0.09781018  0.85213705  0.72567562  1
  O  O7  1  0.90218982  0.14786295  0.27432438  1
  O  O8  1  0.00264224  0.78120348  0.54131820  1
  O  O9  1  0.99735776  0.21879652  0.45868180  1
  O  O10  1  0.50264224  0.21879652  0.95868180  1
  O  O11  1  0.49735776  0.78120348  0.04131820  1
  O  O12  1  0.67945275  0.50728399  0.90678342  1
  O  O13  1  0.32054725  0.49271601  0.09321658  1
  O  O14  1  0.17945275  0.49271601  0.59321658  1
  O  O15  1  0.82054725  0.50728399  0.40678342  1
  O  O16  1  0.56837510  0.33807369  0.86257239  1
  O  O17  1  0.43162490  0.66192631  0.13742761  1
  O  O18  1  0.06837510  0.66192631  0.63742761  1
  O  O19  1  0.93162490  0.33807369  0.36257239  1
  O  O20  1  0.83744714  0.99793147  0.90986499  1
  O  O21  1  0.16255286  0.00206853  0.09013501  1
  O  O22  1  0.33744714  0.00206853  0.59013501  1
  O  O23  1  0.66255286  0.99793147  0.40986499  1
  O  O24  1  0.88763713  0.51720378  0.59031817  1
  O  O25  1  0.11236287  0.48279622  0.40968183  1
  O  O26  1  0.38763713  0.48279622  0.90968183  1
  O  O27  1  0.61236287  0.51720378  0.09031817  1
  O  O28  1  0.58462636  0.78517093  0.63863067  1
  O  O29  1  0.41537364  0.21482907  0.36136933  1
  O  O30  1  0.08462636  0.21482907  0.86136933  1
  O  O31  1  0.91537364  0.78517093  0.13863067  1
  O  O32  1  0.56624141  0.85725878  0.83133278  1
  O  O33  1  0.43375859  0.14274122  0.16866722  1
  O  O34  1  0.06624141  0.14274122  0.66866722  1
  O  O35  1  0.93375859  0.85725878  0.33133278  1
  O  O36  1  0.99284788  0.45763582  0.71893207  1
  O  O37  1  0.00715212  0.54236418  0.28106793  1
  O  O38  1  0.49284788  0.54236418  0.78106793  1
  O  O39  1  0.50715212  0.45763582  0.21893207  1
  O  O40  1  0.39662548  0.72485082  0.87081851  1
  O  O41  1  0.60337452  0.27514918  0.12918149  1
  O  O42  1  0.89662548  0.27514918  0.62918149  1
  O  O43  1  0.10337452  0.72485082  0.37081851  1
  O  O44  1  0.83403118  0.90881293  0.50714466  1
  O  O45  1  0.16596882  0.09118707  0.49285534  1
  O  O46  1  0.33403118  0.09118707  0.99285534  1
  O  O47  1  0.66596882  0.90881293  0.00714466  1
  O  O48  1  0.80009057  0.24080832  0.90987399  1
  O  O49  1  0.19990943  0.75919168  0.09012601  1
  O  O50  1  0.30009057  0.75919168  0.59012601  1
  O  O51  1  0.69990943  0.24080832  0.40987399  1
  O  O52  1  0.51394467  0.97159471  0.72564531  1
  O  O53  1  0.48605533  0.02840529  0.27435469  1
  O  O54  1  0.01394467  0.02840529  0.77435469  1
  O  O55  1  0.98605533  0.97159471  0.22564531  1
  O  O56  1  0.89743895  0.63266238  0.77047374  1
  O  O57  1  0.10256105  0.36733762  0.22952626  1
  O  O58  1  0.39743895  0.36733762  0.72952626  1
  O  O59  1  0.60256105  0.63266238  0.27047374  1
  O  O60  1  0.68693251  0.73064147  0.89714854  1
  O  O61  1  0.31306749  0.26935853  0.10285146  1
  O  O62  1  0.18693251  0.26935853  0.60285146  1
  O  O63  1  0.81306749  0.73064147  0.39714854  1
  O  O64  1  0.92656269  0.34290645  0.81975780  1
  O  O65  1  0.07343731  0.65709355  0.18024220  1
  O  O66  1  0.42656269  0.65709355  0.68024220  1
  O  O67  1  0.57343731  0.34290645  0.31975780  1
  O  O68  1  0.85900050  0.41787851  0.00019457  1
  O  O69  1  0.14099950  0.58212149  0.99980543  1
  O  O70  1  0.35900050  0.58212149  0.49980543  1
  O  O71  1  0.64099950  0.41787851  0.50019457  1
  O  O72  1  0.97639674  0.71058969  0.96028098  1
  O  O73  1  0.02360326  0.28941031  0.03971902  1
  O  O74  1  0.47639674  0.28941031  0.53971902  1
  O  O75  1  0.52360326  0.71058969  0.46028098  1
  O  O76  1  0.92589414  0.82253715  0.85295748  1
  O  O77  1  0.07410586  0.17746285  0.14704252  1
  O  O78  1  0.42589414  0.17746285  0.64704252  1
  O  O79  1  0.57410586  0.82253715  0.35295748  1
  O  O80  1  0.69202983  0.40099229  0.73165575  1
  O  O81  1  0.30797017  0.59900771  0.26834425  1
  O  O82  1  0.19202983  0.59900771  0.76834425  1
  O  O83  1  0.80797017  0.40099229  0.23165575  1
  O  O84  1  0.64435387  0.61055964  0.55269535  1
  O  O85  1  0.35564613  0.38944036  0.44730465  1
  O  O86  1  0.14435387  0.38944036  0.94730465  1
  O  O87  1  0.85564613  0.61055964  0.05269535  1
  O  O88  1  0.12342720  0.96234677  0.89981326  1
  O  O89  1  0.87657280  0.03765323  0.10018674  1
  O  O90  1  0.62342720  0.03765323  0.60018674  1
  O  O91  1  0.37657280  0.96234677  0.39981326  1
  O  O92  1  0.80325561  0.90072426  0.73498195  1
  O  O93  1  0.19674439  0.09927574  0.26501805  1
  O  O94  1  0.30325561  0.09927574  0.76501805  1
  O  O95  1  0.69674439  0.90072426  0.23498195  1
loop_
_geom_bond_atom_site_label_1
_geom_bond_atom_site_label_2
_geom_bond_distance
_geom_bond_site_symmetry_2
Ga0 O0 1.951756 1_555
Ga0 O11 1.961667 1_556
Ga0 O40 1.967741 1_555
Ga0 O60 1.972699 1_555
Ga0 O47 1.999841 1_556
Ga0 O32 2.033609 1_555
Ga1 O1 1.951756 1_555
Ga1 O10 1.961667 1_554
Ga1 O41 1.967741 1_555
Ga1 O61 1.972699 1_555
Ga1 O46 1.999841 1_554
Ga1 O33 2.033609 1_555
Ga2 O2 1.951756 1_455
Ga2 O9 1.961667 1_455
Ga2 O42 1.967741 1_455
Ga2 O62 1.972699 1_555
Ga2 O45 1.999841 1_555
Ga2 O34 2.033609 1_555
Ga3 O3 1.951756 1_655
Ga3 O8 1.961667 1_655
Ga3 O43 1.967741 1_655
Ga3 O63 1.972699 1_555
Ga3 O44 1.999841 1_555
Ga3 O35 2.033609 1_555
Ga4 O88 1.954367 1_655
Ga4 O92 1.964219 1_555
Ga4 O6 1.965253 1_655
Ga4 O54 1.966893 1_665
Ga4 O20 2.003661 1_555
Ga4 O76 2.026048 1_555
Ga5 O89 1.954367 1_455
Ga5 O93 1.964219 1_555
Ga5 O7 1.965253 1_455
Ga5 O55 1.966893 1_445
Ga5 O21 2.003661 1_555
Ga5 O77 2.026048 1_555
Ga6 O90 1.954367 1_555
Ga6 O94 1.964219 1_555
Ga6 O4 1.965253 1_555
Ga6 O52 1.966893 1_545
Ga6 O22 2.003661 1_555
Ga6 O78 2.026048 1_555
Ga7 O91 1.954367 1_555
Ga7 O95 1.964219 1_555
Ga7 O5 1.965253 1_555
Ga7 O53 1.966893 1_565
Ga7 O23 2.003661 1_555
Ga7 O79 2.026048 1_555
Ga8 O38 1.954858 1_555
Ga8 O26 1.975954 1_555
Ga8 O80 1.981229 1_555
Ga8 O58 1.984315 1_555
Ga8 O12 2.020698 1_555
Ga8 O16 2.021380 1_555
Ga9 O39 1.954858 1_555
Ga9 O27 1.975954 1_555
Ga9 O81 1.981229 1_555
Ga9 O59 1.984315 1_555
Ga9 O13 2.020698 1_555
Ga9 O17 2.021380 1_555
Ga10 O36 1.954858 1_455
Ga10 O24 1.975954 1_455
Ga10 O82 1.981229 1_555
Ga10 O56 1.984315 1_455
Ga10 O14 2.020698 1_555
Ga10 O18 2.021380 1_555
Ga11 O37 1.954858 1_655
Ga11 O25 1.975954 1_655
Ga11 O83 1.981229 1_555
Ga11 O57 1.984315 1_655
Ga11 O15 2.020698 1_555
Ga11 O19 2.021380 1_555
Ga12 O30 1.951173 1_655
Ga12 O73 1.971677 1_656
Ga12 O68 1.972724 1_556
Ga12 O86 1.973804 1_655
Ga12 O48 1.976509 1_555
Ga12 O64 2.030945 1_555
Ga13 O31 1.951173 1_455
Ga13 O72 1.971677 1_454
Ga13 O69 1.972724 1_554
Ga13 O87 1.973804 1_455
Ga13 O49 1.976509 1_555
Ga13 O65 2.030945 1_555
Ga14 O28 1.951173 1_555
Ga14 O75 1.971677 1_555
Ga14 O70 1.972724 1_555
Ga14 O84 1.973804 1_555
Ga14 O50 1.976509 1_555
Ga14 O66 2.030945 1_555
Ga15 O29 1.951173 1_555
Ga15 O74 1.971677 1_555
Ga15 O71 1.972724 1_555
Ga15 O85 1.973804 1_555
Ga15 O51 1.976509 1_555
Ga15 O67 2.030945 1_555
Mo0 O88 1.786164 1_555
Mo0 O0 1.787381 1_555
Mo0 O21 1.789285 1_566
Mo0 O46 1.795058 1_565
Mo1 O89 1.786164 1_555
Mo1 O1 1.787381 1_555
Mo1 O20 1.789285 1_544
Mo1 O47 1.795058 1_545
Mo2 O90 1.786164 1_555
Mo2 O2 1.787381 1_555
Mo2 O23 1.789285 1_545
Mo2 O44 1.795058 1_545
Mo3 O91 1.786164 1_555
Mo3 O3 1.787381 1_555
Mo3 O22 1.789285 1_565
Mo3 O45 1.795058 1_565
Mo4 O16 1.788158 1_555
Mo4 O10 1.789194 1_555
Mo4 O48 1.794855 1_555
Mo4 O4 1.796031 1_555
Mo5 O17 1.788158 1_555
Mo5 O11 1.789194 1_555
Mo5 O49 1.794855 1_555
Mo5 O5 1.796031 1_555
Mo6 O18 1.788158 1_555
Mo6 O8 1.789194 1_555
Mo6 O50 1.794855 1_555
Mo6 O6 1.796031 1_555
Mo7 O19 1.788158 1_555
Mo7 O9 1.789194 1_555
Mo7 O51 1.794855 1_555
Mo7 O7 1.796031 1_555
Mo8 O84 1.783867 1_555
Mo8 O24 1.790980 1_555
Mo8 O71 1.795458 1_555
Mo8 O15 1.797394 1_555
Mo9 O85 1.783867 1_555
Mo9 O25 1.790980 1_555
Mo9 O70 1.795458 1_555
Mo9 O14 1.797394 1_555
Mo10 O86 1.783867 1_555
Mo10 O26 1.790980 1_555
Mo10 O69 1.795458 1_555
Mo10 O13 1.797394 1_556
Mo11 O87 1.783867 1_555
Mo11 O27 1.790980 1_555
Mo11 O68 1.795458 1_555
Mo11 O12 1.797394 1_554
Mo12 O64 1.777873 1_555
Mo12 O36 1.796195 1_555
Mo12 O42 1.796567 1_555
Mo12 O80 1.803920 1_555
Mo13 O65 1.777873 1_555
Mo13 O37 1.796195 1_555
Mo13 O43 1.796567 1_555
Mo13 O81 1.803920 1_555
Mo14 O66 1.777873 1_555
Mo14 O38 1.796195 1_555
Mo14 O40 1.796567 1_555
Mo14 O82 1.803920 1_555
Mo15 O67 1.777873 1_555
Mo15 O39 1.796195 1_555
Mo15 O41 1.796567 1_555
Mo15 O83 1.803920 1_555
Mo16 O76 1.783241 1_555
Mo16 O72 1.791320 1_555
Mo16 O60 1.799274 1_555
Mo16 O56 1.802732 1_555
Mo17 O77 1.783241 1_555
Mo17 O73 1.791320 1_555
Mo17 O61 1.799274 1_555
Mo17 O57 1.802732 1_555
Mo18 O78 1.783241 1_555
Mo18 O74 1.791320 1_555
Mo18 O62 1.799274 1_555
Mo18 O58 1.802732 1_555
Mo19 O79 1.783241 1_555
Mo19 O75 1.791320 1_555
Mo19 O63 1.799274 1_555
Mo19 O59 1.802732 1_555
Mo20 O32 1.786525 1_555
Mo20 O28 1.786755 1_555
Mo20 O52 1.795805 1_555
Mo20 O92 1.797767 1_555
Mo21 O33 1.786525 1_555
Mo21 O29 1.786755 1_555
Mo21 O53 1.795805 1_555
Mo21 O93 1.797767 1_555
Mo22 O34 1.786525 1_555
Mo22 O30 1.786755 1_555
Mo22 O54 1.795805 1_555
Mo22 O94 1.797767 1_555
Mo23 O35 1.786525 1_555
Mo23 O31 1.786755 1_555
Mo23 O55 1.795805 1_555
Mo23 O95 1.797767 1_555
