# generated using pymatgen
data_CuSbAs2O7
_symmetry_space_group_name_H-M   'P 1'
_cell_length_a   11.27397700
_cell_length_b   12.79009386
_cell_length_c   12.80347485
_cell_angle_alpha   78.80423861
_cell_angle_beta   63.93616766
_cell_angle_gamma   63.85656450
_symmetry_Int_Tables_number   1
_chemical_formula_structural   CuSbAs2O7
_chemical_formula_sum   'Cu8 Sb8 As16 O56'
_cell_volume   1488.78065597
_cell_formula_units_Z   8
loop_
 _symmetry_equiv_pos_site_id
 _symmetry_equiv_pos_as_xyz
  1  'x, y, z'
loop_
 _atom_site_type_symbol
 _atom_site_label
 _atom_site_symmetry_multiplicity
 _atom_site_fract_x
 _atom_site_fract_y
 _atom_site_fract_z
 _atom_site_occupancy
  Cu  Cu0  1  0.73848500  0.52382600  0.45447200  1
  Cu  Cu1  1  0.71541900  0.97827900  0.05023400  1
  Cu  Cu2  1  0.30618500  0.95149700  0.47769100  1
  Cu  Cu3  1  0.26521300  0.44972500  0.97796100  1
  Cu  Cu4  1  0.69381500  0.04850300  0.52230900  1
  Cu  Cu5  1  0.26151500  0.47617400  0.54552800  1
  Cu  Cu6  1  0.73478700  0.55027500  0.02203900  1
  Cu  Cu7  1  0.28458100  0.02172100  0.94976600  1
  Sb  Sb0  1  0.71063400  0.39559000  0.23667200  1
  Sb  Sb1  1  0.34156700  0.10518300  0.26310100  1
  Sb  Sb2  1  0.28936600  0.60441000  0.76332800  1
  Sb  Sb3  1  0.55122300  0.73761000  0.60585700  1
  Sb  Sb4  1  0.65843300  0.89481700  0.73689900  1
  Sb  Sb5  1  0.44877700  0.26239000  0.39414300  1
  Sb  Sb6  1  0.89526900  0.76284000  0.89487600  1
  Sb  Sb7  1  0.10473100  0.23716000  0.10512400  1
  As  As0  1  0.93975000  0.53917600  0.16498600  1
  As  As1  1  0.75189900  0.44508700  0.79202700  1
  As  As2  1  0.01177300  0.94375800  0.29221400  1
  As  As3  1  0.60463200  0.33662600  0.54055900  1
  As  As4  1  0.04211400  0.70796800  0.44528800  1
  As  As5  1  0.64286800  0.96017600  0.33531500  1
  As  As6  1  0.52249500  0.83479300  0.03876900  1
  As  As7  1  0.95788600  0.29203200  0.55471200  1
  As  As8  1  0.47750500  0.16520700  0.96123100  1
  As  As9  1  0.35713200  0.03982400  0.66468500  1
  As  As10  1  0.24810100  0.55491300  0.20797300  1
  As  As11  1  0.19709100  0.79167200  0.05531600  1
  As  As12  1  0.06025000  0.46082400  0.83501400  1
  As  As13  1  0.98822700  0.05624200  0.70778600  1
  As  As14  1  0.80290900  0.20832800  0.94468400  1
  As  As15  1  0.39536800  0.66337400  0.45944100  1
  O  O0  1  0.70254800  0.12521900  0.96851100  1
  O  O1  1  0.03047400  0.86883900  0.17437100  1
  O  O2  1  0.20319900  0.05176500  0.38786900  1
  O  O3  1  0.28681600  0.99451200  0.80462500  1
  O  O4  1  0.25649000  0.38976600  0.44691300  1
  O  O5  1  0.90894400  0.88760400  0.94886000  1
  O  O6  1  0.77418600  0.53047200  0.16760400  1
  O  O7  1  0.91270700  0.49299400  0.30453700  1
  O  O8  1  0.61426700  0.28665500  0.27651200  1
  O  O9  1  0.59127500  0.69473300  0.99419900  1
  O  O10  1  0.09969800  0.72336400  0.78652500  1
  O  O11  1  0.71636300  0.19693300  0.49278300  1
  O  O12  1  0.96952600  0.13116100  0.82562900  1
  O  O13  1  0.09105600  0.11239600  0.05114000  1
  O  O14  1  0.17138600  0.53203000  0.12510500  1
  O  O15  1  0.54641900  0.09872500  0.43319900  1
  O  O16  1  0.92666100  0.36859200  0.67452900  1
  O  O17  1  0.52756100  0.03096000  0.66848400  1
  O  O18  1  0.82861400  0.46797000  0.87489500  1
  O  O19  1  0.29745200  0.87478100  0.03148900  1
  O  O20  1  0.69580400  0.83138900  0.03018800  1
  O  O21  1  0.07333900  0.63140800  0.32547100  1
  O  O22  1  0.71318400  0.00548800  0.19537500  1
  O  O23  1  0.20287800  0.62401600  0.46886400  1
  O  O24  1  0.92041200  0.59904700  0.93418600  1
  O  O25  1  0.90030200  0.27663600  0.21347500  1
  O  O26  1  0.17676800  0.21349600  0.22333400  1
  O  O27  1  0.64540800  0.43351600  0.40126800  1
  O  O28  1  0.61088900  0.77569900  0.71245700  1
  O  O29  1  0.70498800  0.32541100  0.86831400  1
  O  O30  1  0.38573300  0.71334500  0.72348800  1
  O  O31  1  0.30419600  0.16861100  0.96981200  1
  O  O32  1  0.35459200  0.56648400  0.59873200  1
  O  O33  1  0.89726600  0.17544300  0.63103200  1
  O  O34  1  0.28363700  0.80306700  0.50721700  1
  O  O35  1  0.56171800  0.66747100  0.46834000  1
  O  O36  1  0.79680100  0.94823500  0.61213100  1
  O  O37  1  0.52033600  0.93315400  0.90067100  1
  O  O38  1  0.47966400  0.06684600  0.09932900  1
  O  O39  1  0.35860300  0.55065300  0.88699800  1
  O  O40  1  0.22581400  0.46952800  0.83239600  1
  O  O41  1  0.64139700  0.44934700  0.11300200  1
  O  O42  1  0.38911100  0.22430100  0.28754300  1
  O  O43  1  0.43828200  0.33252900  0.53166000  1
  O  O44  1  0.45358100  0.90127500  0.56680100  1
  O  O45  1  0.79712200  0.37598400  0.53113600  1
  O  O46  1  0.07958800  0.40095300  0.06581400  1
  O  O47  1  0.10273400  0.82455700  0.36896800  1
  O  O48  1  0.08729300  0.50700600  0.69546300  1
  O  O49  1  0.47243900  0.96904000  0.33151600  1
  O  O50  1  0.82929100  0.96802900  0.37492000  1
  O  O51  1  0.17070900  0.03197100  0.62508000  1
  O  O52  1  0.74351000  0.61023400  0.55308700  1
  O  O53  1  0.29501200  0.67458900  0.13168600  1
  O  O54  1  0.82323200  0.78650400  0.77666600  1
  O  O55  1  0.40872500  0.30526700  0.00580100  1
loop_
_geom_bond_atom_site_label_1
_geom_bond_atom_site_label_2
_geom_bond_distance
_geom_bond_site_symmetry_2
Cu0 O52 1.865126 1_555
Cu0 O45 1.929746 1_555
Cu0 O35 1.991901 1_555
Cu0 O7 1.999173 1_555
Cu0 O27 2.213857 1_555
Cu1 O5 1.912102 1_554
Cu1 O22 1.943531 1_565
Cu1 O0 1.943556 1_564
Cu1 O20 2.060988 1_555
Cu1 O38 2.213109 1_565
Cu2 O2 1.898359 1_565
Cu2 O51 1.946649 1_565
Cu2 O34 1.968178 1_555
Cu2 O49 2.047236 1_555
Cu2 O44 2.217310 1_555
Cu3 O39 1.915120 1_555
Cu3 O55 1.943000 1_556
Cu3 O14 1.952950 1_556
Cu3 O40 2.044500 1_555
Cu3 O46 2.200748 1_556
Cu4 O36 1.898359 1_545
Cu4 O50 1.946649 1_545
Cu4 O11 1.968178 1_555
Cu4 O17 2.047236 1_555
Cu4 O15 2.217310 1_555
Cu5 O4 1.865126 1_555
Cu5 O23 1.929746 1_555
Cu5 O43 1.991901 1_555
Cu5 O48 1.999173 1_555
Cu5 O32 2.213857 1_555
Cu6 O41 1.915120 1_555
Cu6 O9 1.943000 1_554
Cu6 O18 1.952950 1_554
Cu6 O6 2.044500 1_555
Cu6 O24 2.200748 1_554
Cu7 O13 1.912102 1_556
Cu7 O3 1.943531 1_545
Cu7 O19 1.943556 1_546
Cu7 O31 2.060988 1_555
Cu7 O37 2.213109 1_545
As0 O7 1.704247 1_555
As0 O6 1.903751 1_555
As0 O46 1.969677 1_655
As0 O14 2.392660 1_655
As1 O18 1.763356 1_555
As1 O29 1.804316 1_555
As1 O16 1.835899 1_555
As2 O50 1.760866 1_455
As2 O47 1.807688 1_555
As2 O1 1.828379 1_555
As3 O11 1.707962 1_555
As3 O43 1.951831 1_555
As3 O27 1.962384 1_555
As3 O45 2.384627 1_555
As4 O23 1.780149 1_555
As4 O21 1.800322 1_555
As4 O47 1.841455 1_555
As5 O22 1.711158 1_565
As5 O49 1.896066 1_555
As5 O15 1.964702 1_565
As5 O50 2.413879 1_555
As6 O9 1.708795 1_554
As6 O20 1.889412 1_555
As6 O37 1.963828 1_554
As6 O19 2.398558 1_555
As7 O45 1.780149 1_555
As7 O16 1.800322 1_555
As7 O33 1.841455 1_555
As8 O55 1.708795 1_556
As8 O31 1.889412 1_555
As8 O38 1.963828 1_556
As8 O0 2.398558 1_555
As9 O3 1.711158 1_545
As9 O17 1.896066 1_555
As9 O44 1.964702 1_545
As9 O51 2.413879 1_555
As10 O14 1.763356 1_555
As10 O53 1.804316 1_555
As10 O21 1.835899 1_555
As11 O19 1.770263 1_555
As11 O1 1.805678 1_555
As11 O53 1.827688 1_555
As12 O48 1.704247 1_555
As12 O40 1.903751 1_555
As12 O24 1.969677 1_455
As12 O18 2.392660 1_455
As13 O51 1.760866 1_655
As13 O33 1.807688 1_555
As13 O12 1.828379 1_555
As14 O0 1.770263 1_555
As14 O12 1.805678 1_555
As14 O29 1.827688 1_555
As15 O34 1.707962 1_555
As15 O35 1.951831 1_555
As15 O32 1.962384 1_555
As15 O23 2.384627 1_555
O2 Sb1 1.943640 1_555
O4 Sb5 1.959132 1_555
O5 Sb6 1.945929 1_555
O6 Sb0 2.052213 1_555
O8 Sb5 1.924862 1_555
O8 Sb0 1.988161 1_555
O10 Sb2 1.930235 1_555
O10 Sb6 1.981957 1_455
O13 Sb7 1.945929 1_555
O15 Sb5 1.972381 1_555
O17 Sb4 2.062922 1_545
O20 Sb6 2.062993 1_554
O24 Sb6 1.978637 1_555
O25 Sb0 1.930235 1_555
O25 Sb7 1.981957 1_655
O26 Sb7 1.930672 1_555
O26 Sb1 1.979775 1_555
O27 Sb0 1.984446 1_555
O28 Sb4 1.938704 1_555
O28 Sb3 1.976458 1_555
O30 Sb3 1.924862 1_555
O30 Sb2 1.988161 1_555
O31 Sb7 2.062993 1_556
O32 Sb2 1.984446 1_555
O35 Sb3 2.062901 1_555
O36 Sb4 1.943640 1_555
O37 Sb4 1.979629 1_555
O38 Sb1 1.979629 1_555
O39 Sb2 1.944118 1_555
O40 Sb2 2.052213 1_555
O41 Sb0 1.944118 1_555
O42 Sb1 1.938704 1_555
O42 Sb5 1.976458 1_555
O43 Sb5 2.062901 1_555
O44 Sb3 1.972381 1_555
O46 Sb7 1.978637 1_555
O49 Sb1 2.062922 1_565
O52 Sb3 1.959132 1_555
O54 Sb6 1.930672 1_555
O54 Sb4 1.979775 1_555
