# generated using pymatgen
data_Y(AlC)3
_symmetry_space_group_name_H-M   'P 1'
_cell_length_a   3.41735455
_cell_length_b   3.41735455
_cell_length_c   17.26642048
_cell_angle_alpha   90.00000000
_cell_angle_beta   90.00000000
_cell_angle_gamma   120.00008031
_symmetry_Int_Tables_number   1
_chemical_formula_structural   Y(AlC)3
_chemical_formula_sum   'Y2 Al6 C6'
_cell_volume   174.62751378
_cell_formula_units_Z   2
loop_
 _symmetry_equiv_pos_site_id
 _symmetry_equiv_pos_as_xyz
  1  'x, y, z'
loop_
 _atom_site_type_symbol
 _atom_site_label
 _atom_site_symmetry_multiplicity
 _atom_site_fract_x
 _atom_site_fract_y
 _atom_site_fract_z
 _atom_site_occupancy
  Y  Y0  1  0.00000000  -0.00000000  0.50000000  1
  Y  Y1  1  0.00000000  -0.00000000  0.00000000  1
  Al  Al0  1  0.66667389  0.33332611  0.63423110  1
  Al  Al1  1  0.33332611  0.66667389  0.36576890  1
  Al  Al2  1  0.33332611  0.66667389  0.13423110  1
  Al  Al3  1  0.66667389  0.33332611  0.86576890  1
  Al  Al4  1  0.66665762  0.33334238  0.25000000  1
  Al  Al5  1  0.33334238  0.66665762  0.75000000  1
  C  C0  1  0.66666162  0.33333838  0.09357271  1
  C  C1  1  0.33333838  0.66666162  0.90642729  1
  C  C2  1  0.33333838  0.66666162  0.59357271  1
  C  C3  1  0.66666162  0.33333838  0.40642729  1
  C  C4  1  0.66667454  0.33332546  0.75000000  1
  C  C5  1  0.33332546  0.66667454  0.25000000  1
loop_
_geom_bond_atom_site_label_1
_geom_bond_atom_site_label_2
_geom_bond_distance
_geom_bond_site_symmetry_2
Al0 C4 1.998915 1_555
Al0 C2 2.094177 1_545
Al0 C2 2.094177 1_655
Al0 C2 2.094198 1_555
Al1 C5 1.998915 1_555
Al1 C3 2.094177 1_565
Al1 C3 2.094177 1_455
Al1 C3 2.094198 1_555
Al2 C5 1.998915 1_555
Al2 C0 2.094177 1_455
Al2 C0 2.094177 1_565
Al2 C0 2.094198 1_555
Al3 C4 1.998915 1_555
Al3 C1 2.094177 1_545
Al3 C1 2.094177 1_655
Al3 C1 2.094198 1_555
Al4 C5 1.973004 1_555
Al4 C5 1.973012 1_655
Al4 C5 1.973012 1_545
Al5 C4 1.973004 1_555
Al5 C4 1.973012 1_455
Al5 C4 1.973012 1_565
C0 Y1 2.550114 1_665
C0 Y1 2.550114 1_555
C0 Y1 2.550150 1_655
C1 Y1 2.550114 1_666
C1 Y1 2.550114 1_556
C1 Y1 2.550150 1_566
C2 Y0 2.550114 1_665
C2 Y0 2.550114 1_555
C2 Y0 2.550150 1_565
C3 Y0 2.550114 1_665
C3 Y0 2.550114 1_555
C3 Y0 2.550150 1_655
