# generated using pymatgen
data_MgGa5
_symmetry_space_group_name_H-M   'P 1'
_cell_length_a   7.30150048
_cell_length_b   7.30150048
_cell_length_c   5.00534400
_cell_angle_alpha   90.00000000
_cell_angle_beta   90.00000000
_cell_angle_gamma   154.74554472
_symmetry_Int_Tables_number   1
_chemical_formula_structural   MgGa5
_chemical_formula_sum   'Mg1 Ga5'
_cell_volume   113.84626561
_cell_formula_units_Z   1
loop_
 _symmetry_equiv_pos_site_id
 _symmetry_equiv_pos_as_xyz
  1  'x, y, z'
loop_
 _atom_site_type_symbol
 _atom_site_label
 _atom_site_symmetry_multiplicity
 _atom_site_fract_x
 _atom_site_fract_y
 _atom_site_fract_z
 _atom_site_occupancy
  Mg  Mg0  1  0.77867200  0.22132800  0.50000000  1
  Ga  Ga0  1  0.99953500  0.00046500  0.00000000  1
  Ga  Ga1  1  0.33451400  0.66548600  0.00000000  1
  Ga  Ga2  1  0.66477000  0.33523000  0.00000000  1
  Ga  Ga3  1  0.10831200  0.89168800  0.50000000  1
  Ga  Ga4  1  0.44753000  0.55247000  0.50000000  1
loop_
_geom_bond_atom_site_label_1
_geom_bond_atom_site_label_2
_geom_bond_distance
_geom_bond_site_symmetry_2
Ga0 Ga1 2.842068 1_545
Ga0 Ga1 2.842068 1_655
Ga0 Ga2 2.844592 1_545
Ga0 Ga2 2.844592 1_655
Ga0 Ga3 2.943811 1_644
Ga0 Ga3 2.943811 1_645
Ga0 Ga4 3.059454 1_544
Ga0 Ga4 3.059454 1_545
Ga0 Ga4 3.059454 1_655
Ga0 Ga4 3.059454 1_654
Ga1 Ga2 2.898000 1_455
Ga1 Ga2 2.898000 1_565
Ga1 Ga4 2.976060 1_555
Ga1 Ga4 2.976060 1_554
Ga1 Mg0 3.073156 1_565
Ga1 Mg0 3.073156 1_564
Ga1 Mg0 3.073156 1_455
Ga1 Mg0 3.073156 1_454
Ga2 Mg0 2.982911 1_554
Ga2 Mg0 2.982911 1_555
Ga3 Mg0 2.905330 1_455
Ga3 Mg0 2.905330 1_565
Ga4 Mg0 2.887470 1_565
Ga4 Mg0 2.887470 1_455
