# generated using pymatgen
data_GdAlSi
_symmetry_space_group_name_H-M   'P 1'
_cell_length_a   7.78682528
_cell_length_b   7.78682528
_cell_length_c   7.78682528
_cell_angle_alpha   149.19333361
_cell_angle_beta   149.19175329
_cell_angle_gamma   44.12796887
_symmetry_Int_Tables_number   1
_chemical_formula_structural   GdAlSi
_chemical_formula_sum   'Gd2 Al2 Si2'
_cell_volume   123.48911109
_cell_formula_units_Z   2
loop_
 _symmetry_equiv_pos_site_id
 _symmetry_equiv_pos_as_xyz
  1  'x, y, z'
loop_
 _atom_site_type_symbol
 _atom_site_label
 _atom_site_symmetry_multiplicity
 _atom_site_fract_x
 _atom_site_fract_y
 _atom_site_fract_z
 _atom_site_occupancy
  Gd  Gd0  1  0.12585947  0.62585947  0.50000000  1
  Gd  Gd1  1  0.37586422  0.37586422  0.00000000  1
  Al  Al0  1  0.79187269  0.79187269  -0.00000000  1
  Al  Al1  1  0.54188576  0.04188576  0.50000000  1
  Si  Si0  1  0.70725809  0.20725809  0.50000000  1
  Si  Si1  1  0.95725976  0.95725976  0.00000000  1
loop_
_geom_bond_atom_site_label_1
_geom_bond_atom_site_label_2
_geom_bond_distance
_geom_bond_site_symmetry_2
Gd0 Si0 3.152173 1_566
Gd0 Si0 3.152173 1_465
Gd0 Si0 3.152173 1_555
Gd0 Si0 3.152173 1_454
Gd0 Si1 3.193633 1_445
Gd0 Si1 3.193633 1_456
Gd1 Si1 3.152157 1_556
Gd1 Si1 3.152157 1_455
Gd1 Si1 3.152157 1_545
Gd1 Si1 3.152157 1_444
Gd1 Si0 3.193771 1_555
Gd1 Si0 3.193771 1_454
Al0 Si1 2.387050 1_555
Al0 Si0 2.401920 1_565
Al0 Si0 2.401920 1_554
Al0 Gd0 3.165348 1_554
Al0 Gd0 3.165348 1_655
Al0 Gd1 3.166312 1_666
Al0 Gd1 3.166312 1_554
Al0 Gd1 3.166312 1_565
Al0 Gd1 3.166312 1_655
Al1 Si0 2.386838 1_555
Al1 Si1 2.402093 1_445
Al1 Si1 2.402093 1_546
Al1 Gd1 3.165371 1_556
Al1 Gd1 3.165371 1_545
Al1 Gd0 3.166213 1_544
Al1 Gd0 3.166213 1_656
Al1 Gd0 3.166213 1_645
Al1 Gd0 3.166213 1_555
