# generated using pymatgen
data_Ba6Ca2Ta(RuO6)3
_symmetry_space_group_name_H-M   'P 1'
_cell_length_a   6.00582708
_cell_length_b   6.00592100
_cell_length_c   14.91165701
_cell_angle_alpha   90.00000000
_cell_angle_beta   90.00363034
_cell_angle_gamma   59.99948823
_symmetry_Int_Tables_number   1
_chemical_formula_structural   Ba6Ca2Ta(RuO6)3
_chemical_formula_sum   'Ba6 Ca2 Ta1 Ru3 O18'
_cell_volume   465.80777802
_cell_formula_units_Z   1
loop_
 _symmetry_equiv_pos_site_id
 _symmetry_equiv_pos_as_xyz
  1  'x, y, z'
loop_
 _atom_site_type_symbol
 _atom_site_label
 _atom_site_symmetry_multiplicity
 _atom_site_fract_x
 _atom_site_fract_y
 _atom_site_fract_z
 _atom_site_occupancy
  Ba  Ba0  1  0.33335400  0.33332300  0.60296300  1
  Ba  Ba1  1  0.66667400  0.66666300  0.40394100  1
  Ba  Ba2  1  0.66666300  0.66666800  0.10070100  1
  Ba  Ba3  1  0.33332900  0.33333600  0.90173100  1
  Ba  Ba4  1  0.99999900  0.00000000  0.75032000  1
  Ba  Ba5  1  0.00001100  0.99999500  0.24803900  1
  Ca  Ca0  1  0.00001500  0.99999300  0.50153100  1
  Ca  Ca1  1  0.99999100  0.00000500  0.00010300  1
  Ta  Ta0  1  0.33334400  0.33332800  0.34529000  1
  Ru  Ru0  1  0.66667900  0.66666000  0.65794100  1
  Ru  Ru1  1  0.66664000  0.66668000  0.84352900  1
  Ru  Ru2  1  0.33336300  0.33331900  0.15603000  1
  O  O0  1  0.17354700  0.65292800  0.40887100  1
  O  O1  1  0.65295100  0.17352500  0.40886800  1
  O  O2  1  0.17354700  0.17352500  0.40887100  1
  O  O3  1  0.82271600  0.35454300  0.59024400  1
  O  O4  1  0.35454900  0.82272600  0.59024100  1
  O  O5  1  0.82271600  0.82274100  0.59024400  1
  O  O6  1  0.82329500  0.35336400  0.90989700  1
  O  O7  1  0.35336200  0.82331900  0.90989000  1
  O  O8  1  0.82329500  0.82334100  0.90989700  1
  O  O9  1  0.17709900  0.64577800  0.08874000  1
  O  O10  1  0.64580900  0.17709500  0.08876900  1
  O  O11  1  0.17709900  0.17712400  0.08874000  1
  O  O12  1  0.51665700  0.96668100  0.75004800  1
  O  O13  1  0.96666800  0.51666600  0.75005100  1
  O  O14  1  0.51665700  0.51666200  0.75004800  1
  O  O15  1  0.48345300  0.03308100  0.24815400  1
  O  O16  1  0.03306700  0.48346700  0.24815400  1
  O  O17  1  0.48345300  0.48346600  0.24815400  1
loop_
_geom_bond_atom_site_label_1
_geom_bond_atom_site_label_2
_geom_bond_distance
_geom_bond_site_symmetry_2
Ba0 O14 2.906341 1_555
Ba0 O12 2.906341 1_545
Ba0 O13 2.906663 1_455
Ba0 O3 3.010767 1_555
Ba0 O5 3.010767 1_545
Ba0 O4 3.010963 1_545
Ba0 O4 3.010969 1_555
Ba0 O3 3.011074 1_455
Ba0 O5 3.011074 1_455
Ba0 O2 3.337608 1_555
Ba0 O0 3.337609 1_555
Ba0 O1 3.337772 1_555
Ba1 O0 3.004636 1_555
Ba1 O2 3.004636 1_565
Ba1 O0 3.004690 1_655
Ba1 O2 3.004690 1_655
Ba1 O1 3.004704 1_555
Ba1 O1 3.004710 1_565
Ba1 O17 3.004730 1_555
Ba1 O15 3.004730 1_565
Ba1 O16 3.004790 1_655
Ba1 O5 3.217594 1_555
Ba1 O3 3.217594 1_555
Ba1 O4 3.217710 1_555
Ba2 O16 2.909601 1_655
Ba2 O17 2.909806 1_555
Ba2 O15 2.909809 1_565
Ba2 O11 3.010118 1_655
Ba2 O9 3.010123 1_655
Ba2 O10 3.010181 1_555
Ba2 O10 3.010181 1_565
Ba2 O9 3.010212 1_555
Ba2 O11 3.010219 1_565
Ba2 O7 3.278792 1_554
Ba2 O6 3.278877 1_554
Ba2 O8 3.278879 1_554
Ba3 O13 2.958380 1_455
Ba3 O14 2.958570 1_555
Ba3 O12 2.958573 1_545
Ba3 O6 3.007061 1_555
Ba3 O8 3.007064 1_545
Ba3 O7 3.007226 1_555
Ba3 O7 3.007232 1_545
Ba3 O8 3.007310 1_455
Ba3 O6 3.007312 1_455
Ba3 O11 3.227633 1_556
Ba3 O9 3.227633 1_556
Ba3 O10 3.227940 1_556
Ba4 O7 3.006500 1_645
Ba4 O8 3.006759 1_545
Ba4 O6 3.006763 1_555
Ba4 O14 3.007898 1_645
Ba4 O12 3.007901 1_645
Ba4 O12 3.007925 1_545
Ba4 O14 3.007928 1_555
Ba4 O13 3.007960 1_545
Ba4 O13 3.007966 1_555
Ba4 O5 3.016290 1_545
Ba4 O3 3.016293 1_555
Ba4 O4 3.016494 1_645
Ba5 O2 3.001676 1_565
Ba5 O0 3.001679 1_555
Ba5 O1 3.001763 1_465
Ba5 O10 3.005633 1_465
Ba5 O11 3.006200 1_565
Ba5 O9 3.006200 1_555
Ba5 O15 3.007754 1_565
Ba5 O17 3.007758 1_555
Ba5 O16 3.007879 1_565
Ba5 O16 3.007879 1_555
Ba5 O17 3.007925 1_465
Ba5 O15 3.007928 1_465
Ca0 O4 2.269314 1_555
Ca0 O3 2.269549 1_465
Ca0 O5 2.269553 1_455
Ca0 O1 2.273196 1_465
Ca0 O2 2.273312 1_565
Ca0 O0 2.273316 1_555
Ca1 O11 2.267445 1_655
Ca1 O9 2.267445 1_645
Ca1 O10 2.267601 1_555
Ca1 O6 2.277517 1_554
Ca1 O8 2.277521 1_544
Ca1 O7 2.277724 1_644
O0 Ta0 1.913718 1_555
O1 Ta0 1.913614 1_555
O2 Ta0 1.913717 1_555
O3 Ru0 1.911697 1_555
O4 Ru0 1.911662 1_555
O5 Ru0 1.911701 1_555
O6 Ru1 1.906572 1_555
O7 Ru1 1.906420 1_555
O8 Ru1 1.906572 1_555
O9 Ru2 1.909950 1_555
O10 Ru2 1.909737 1_555
O11 Ru2 1.909950 1_555
O12 Ru0 2.078866 1_555
O12 Ru1 2.092306 1_555
O13 Ru0 2.078640 1_555
O13 Ru1 2.092477 1_555
O14 Ru0 2.078862 1_555
O14 Ru1 2.092306 1_555
O15 Ru2 2.079806 1_555
O15 Ta0 2.130019 1_555
O16 Ru2 2.080127 1_555
O16 Ta0 2.129999 1_555
O17 Ru2 2.079802 1_555
O17 Ta0 2.130019 1_555
