# generated using pymatgen
data_Th3Pd4
_symmetry_space_group_name_H-M   'P 1'
_cell_length_a   5.77255503
_cell_length_b   8.21763090
_cell_length_c   8.21763153
_cell_angle_alpha   114.69313610
_cell_angle_beta   103.54171909
_cell_angle_gamma   103.54172020
_symmetry_Int_Tables_number   1
_chemical_formula_structural   Th3Pd4
_chemical_formula_sum   'Th6 Pd8'
_cell_volume   319.08249924
_cell_formula_units_Z   2
loop_
 _symmetry_equiv_pos_site_id
 _symmetry_equiv_pos_as_xyz
  1  'x, y, z'
loop_
 _atom_site_type_symbol
 _atom_site_label
 _atom_site_symmetry_multiplicity
 _atom_site_fract_x
 _atom_site_fract_y
 _atom_site_fract_z
 _atom_site_occupancy
  Th  Th0  1  0.40590938  0.12871475  0.37895951  1
  Th  Th1  1  0.02694886  0.62104049  0.74975524  1
  Th  Th2  1  0.27719463  0.25024476  0.87128525  1
  Th  Th3  1  0.59409062  0.87128525  0.62104049  1
  Th  Th4  1  0.97305114  0.37895951  0.25024476  1
  Th  Th5  1  0.72280537  0.74975524  0.12871475  1
  Pd  Pd0  1  0.00000000  0.00000000  -0.00000000  1
  Pd  Pd1  1  0.50000000  0.00000000  -0.00000000  1
  Pd  Pd2  1  0.22753533  0.66003386  0.16300108  1
  Pd  Pd3  1  0.06453325  0.83699892  0.49703278  1
  Pd  Pd4  1  0.56750147  0.50296722  0.33996614  1
  Pd  Pd5  1  0.77246467  0.33996614  0.83699892  1
  Pd  Pd6  1  0.93546675  0.16300108  0.50296722  1
  Pd  Pd7  1  0.43249853  0.49703278  0.66003386  1
loop_
_geom_bond_atom_site_label_1
_geom_bond_atom_site_label_2
_geom_bond_distance
_geom_bond_site_symmetry_2
Pd0 Pd1 2.886278 1_455
Pd0 Pd1 2.886278 1_555
Pd0 Th1 2.996169 1_544
Pd0 Th4 2.996169 1_455
Pd0 Th5 2.996171 1_445
Pd0 Th2 2.996171 1_554
Pd0 Th3 2.996171 1_444
Pd0 Th0 2.996171 1_555
Pd1 Th2 3.069322 1_554
Pd1 Th5 3.069322 1_545
Pd1 Th3 3.069323 1_544
Pd1 Th0 3.069323 1_555
Pd1 Th1 3.069325 1_544
Pd1 Th4 3.069325 1_555
Pd2 Th4 2.880075 1_455
Pd2 Th5 2.891430 1_555
Pd2 Pd5 2.928640 1_454
Pd2 Pd4 3.008327 1_555
Pd2 Pd3 3.008331 1_555
Pd2 Th5 3.147552 1_455
Pd2 Th1 3.170362 1_554
Pd2 Th0 3.258772 1_565
Pd2 Th3 3.278584 1_555
Pd2 Th2 3.346330 1_554
Pd3 Th5 2.880075 1_455
Pd3 Th3 2.891436 1_555
Pd3 Pd6 2.928634 1_465
Pd3 Pd4 3.008323 1_455
Pd3 Th3 3.147546 1_455
Pd3 Th2 3.170361 1_565
Pd3 Th1 3.258772 1_555
Pd3 Th4 3.278587 1_455
Pd3 Th0 3.346332 1_565
Pd4 Th3 2.880077 1_555
Pd4 Th4 2.891436 1_555
Pd4 Pd7 2.928640 1_555
Pd4 Th4 3.147546 1_455
Pd4 Th0 3.170361 1_555
Pd4 Th2 3.258773 1_554
Pd4 Th5 3.278584 1_555
Pd4 Th1 3.346327 1_655
Pd5 Th1 2.880075 1_655
Pd5 Th2 2.891430 1_555
Pd5 Pd7 3.008327 1_555
Pd5 Pd6 3.008331 1_555
Pd5 Th2 3.147552 1_655
Pd5 Th4 3.170362 1_556
Pd5 Th3 3.258772 1_545
Pd5 Th0 3.278584 1_555
Pd5 Th5 3.346330 1_556
Pd6 Th2 2.880075 1_655
Pd6 Th0 2.891436 1_555
Pd6 Pd7 3.008323 1_655
Pd6 Th0 3.147546 1_655
Pd6 Th5 3.170361 1_545
Pd6 Th4 3.258772 1_555
Pd6 Th1 3.278587 1_655
Pd6 Th3 3.346332 1_545
Pd7 Th0 2.880077 1_555
Pd7 Th1 2.891436 1_555
Pd7 Th1 3.147546 1_655
Pd7 Th3 3.170361 1_555
Pd7 Th5 3.258773 1_556
Pd7 Th2 3.278584 1_555
Pd7 Th4 3.346327 1_455
