# generated using pymatgen
data_MnZnCdTe3
_symmetry_space_group_name_H-M   'P 1'
_cell_length_a   10.09097548
_cell_length_b   10.09097548
_cell_length_c   10.09097548
_cell_angle_alpha   154.18513974
_cell_angle_beta   154.11720269
_cell_angle_gamma   36.87994761
_symmetry_Int_Tables_number   1
_chemical_formula_structural   MnZnCdTe3
_chemical_formula_sum   'Mn1 Zn1 Cd1 Te3'
_cell_volume   195.05857828
_cell_formula_units_Z   1
loop_
 _symmetry_equiv_pos_site_id
 _symmetry_equiv_pos_as_xyz
  1  'x, y, z'
loop_
 _atom_site_type_symbol
 _atom_site_label
 _atom_site_symmetry_multiplicity
 _atom_site_fract_x
 _atom_site_fract_y
 _atom_site_fract_z
 _atom_site_occupancy
  Mn  Mn0  1  0.67036600  0.67036600  0.00000000  1
  Zn  Zn0  1  0.33082400  0.33082400  0.00000000  1
  Cd  Cd0  1  0.99867000  0.99867000  0.00000000  1
  Te  Te0  1  0.75206700  0.25206700  0.50000000  1
  Te  Te1  1  0.08973100  0.58973100  0.50000000  1
  Te  Te2  1  0.40834500  0.90834500  0.50000000  1
loop_
_geom_bond_atom_site_label_1
_geom_bond_atom_site_label_2
_geom_bond_distance
_geom_bond_site_symmetry_2
Mn0 Te1 2.736895 1_655
Mn0 Te1 2.736895 1_554
Mn0 Te0 2.743667 1_554
Mn0 Te0 2.743667 1_565
Cd0 Te2 2.845670 1_554
Cd0 Te2 2.845670 1_655
Cd0 Te1 2.849640 1_654
Cd0 Te1 2.849640 1_665
Te0 Zn0 2.716776 1_656
Te0 Zn0 2.716776 1_555
Te2 Zn0 2.698841 1_555
Te2 Zn0 2.698841 1_566
