# generated using pymatgen
data_PrAlNi
_symmetry_space_group_name_H-M   'P 1'
_cell_length_a   7.04690891
_cell_length_b   7.04690840
_cell_length_c   4.09639860
_cell_angle_alpha   90.00000000
_cell_angle_beta   90.00000000
_cell_angle_gamma   120.00002238
_symmetry_Int_Tables_number   1
_chemical_formula_structural   PrAlNi
_chemical_formula_sum   'Pr3 Al3 Ni3'
_cell_volume   176.16921805
_cell_formula_units_Z   3
loop_
 _symmetry_equiv_pos_site_id
 _symmetry_equiv_pos_as_xyz
  1  'x, y, z'
loop_
 _atom_site_type_symbol
 _atom_site_label
 _atom_site_symmetry_multiplicity
 _atom_site_fract_x
 _atom_site_fract_y
 _atom_site_fract_z
 _atom_site_occupancy
  Pr  Pr0  1  -0.00000000  0.42001219  0.50000000  1
  Pr  Pr1  1  0.57998781  0.57998781  0.50000000  1
  Pr  Pr2  1  0.42001219  -0.00000000  0.50000000  1
  Al  Al0  1  -0.00000000  0.77586474  0.00000000  1
  Al  Al1  1  0.22413526  0.22413426  -0.00000000  1
  Al  Al2  1  0.77586574  -0.00000000  -0.00000000  1
  Ni  Ni0  1  0.33333300  0.66666700  -0.00000000  1
  Ni  Ni1  1  0.66666700  0.33333300  -0.00000000  1
  Ni  Ni2  1  -0.00000000  0.00000000  0.50000000  1
loop_
_geom_bond_atom_site_label_1
_geom_bond_atom_site_label_2
_geom_bond_distance
_geom_bond_site_symmetry_2
Al0 Ni2 2.586468 1_565
Al0 Ni2 2.586468 1_564
Al0 Al1 2.735699 1_565
Al0 Al2 2.735700 1_465
Al0 Ni0 2.813776 1_555
Al0 Ni1 2.813779 1_455
Al0 Pr0 3.237820 1_554
Al0 Pr0 3.237820 1_555
Al0 Pr2 3.282573 1_564
Al0 Pr2 3.282573 1_565
Al0 Pr1 3.282573 1_454
Al0 Pr1 3.282573 1_455
Al1 Ni2 2.586465 1_554
Al1 Ni2 2.586465 1_555
Al1 Al2 2.735700 1_455
Al1 Ni1 2.813780 1_555
Al1 Ni0 2.813789 1_555
Al1 Pr1 3.237823 1_555
Al1 Pr1 3.237823 1_554
Al1 Pr2 3.282569 1_555
Al1 Pr2 3.282569 1_554
Al1 Pr0 3.282579 1_555
Al1 Pr0 3.282579 1_554
Al2 Ni2 2.586464 1_655
Al2 Ni2 2.586464 1_654
Al2 Ni1 2.813781 1_555
Al2 Ni0 2.813784 1_545
Al2 Pr2 3.237826 1_555
Al2 Pr2 3.237826 1_554
Al2 Pr0 3.282573 1_655
Al2 Pr0 3.282573 1_654
Al2 Pr1 3.282573 1_545
Al2 Pr1 3.282573 1_544
Ni0 Pr2 2.941270 1_565
Ni0 Pr2 2.941270 1_564
Ni0 Pr0 2.941271 1_555
Ni0 Pr0 2.941271 1_554
Ni0 Pr1 2.941275 1_555
Ni0 Pr1 2.941275 1_554
Ni1 Pr0 2.941270 1_654
Ni1 Pr0 2.941270 1_655
Ni1 Pr2 2.941271 1_554
Ni1 Pr2 2.941271 1_555
Ni1 Pr1 2.941275 1_555
Ni1 Pr1 2.941275 1_554
Ni2 Pr1 2.959787 1_445
Ni2 Pr0 2.959787 1_555
Ni2 Pr2 2.959788 1_555
