# generated using pymatgen
data_Si2H2O3
_symmetry_space_group_name_H-M   'P 1'
_cell_length_a   13.40069054
_cell_length_b   9.56883002
_cell_length_c   13.40155651
_cell_angle_alpha   104.91052746
_cell_angle_beta   143.30252401
_cell_angle_gamma   91.14853554
_symmetry_Int_Tables_number   1
_chemical_formula_structural   Si2H2O3
_chemical_formula_sum   'Si20 H20 O30'
_cell_volume   912.94519301
_cell_formula_units_Z   10
loop_
 _symmetry_equiv_pos_site_id
 _symmetry_equiv_pos_as_xyz
  1  'x, y, z'
loop_
 _atom_site_type_symbol
 _atom_site_label
 _atom_site_symmetry_multiplicity
 _atom_site_fract_x
 _atom_site_fract_y
 _atom_site_fract_z
 _atom_site_occupancy
  Si  Si0  1  0.72232400  0.86947000  0.59680800  1
  Si  Si1  1  0.75076200  0.59447400  0.38035600  1
  Si  Si2  1  0.21355300  0.09405600  0.34253000  1
  Si  Si3  1  0.27238800  0.36915000  0.64660200  1
  Si  Si4  1  0.10998800  0.12748100  0.86858900  1
  Si  Si5  1  0.79288500  0.38298800  0.52015800  1
  Si  Si6  1  0.86222800  0.88282000  0.08905900  1
  Si  Si7  1  0.25892200  0.62742800  0.51736600  1
  Si  Si8  1  0.43033100  0.07241400  0.23031400  1
  Si  Si9  1  0.25711900  0.49676200  0.96556700  1
  Si  Si10  1  0.53089200  0.99732200  0.73956200  1
  Si  Si11  1  0.84229300  0.57273000  0.14231900  1
  Si  Si12  1  0.41117800  0.78914800  0.98256700  1
  Si  Si13  1  0.19544600  0.75736100  0.15348300  1
  Si  Si14  1  0.60396500  0.25733100  0.06195700  1
  Si  Si15  1  0.80644300  0.28974300  0.87796700  1
  Si  Si16  1  0.14820400  0.90284200  0.65924600  1
  Si  Si17  1  0.75198800  0.60788200  0.73279600  1
  Si  Si18  1  0.87491400  0.10744600  0.35532600  1
  Si  Si19  1  0.24334200  0.40282800  0.25426600  1
  H  H0  1  0.04685200  0.91197600  0.89192300  1
  H  H1  1  0.01993500  0.41226900  0.36506700  1
  H  H2  1  0.99886500  0.29407500  0.75915300  1
  H  H3  1  0.53429000  0.79413200  0.79440500  1
  H  H4  1  0.23557100  0.79974700  0.01627600  1
  H  H5  1  0.09841200  0.63503600  0.77137900  1
  H  H6  1  0.86328400  0.13504500  0.03598800  1
  H  H7  1  0.78348200  0.30009500  0.06412200  1
  H  H8  1  0.88023200  0.69397300  0.34641200  1
  H  H9  1  0.34766700  0.19390300  0.31341200  1
  H  H10  1  0.64142400  0.79503000  0.34969700  1
  H  H11  1  0.44429800  0.29379800  0.65229100  1
  H  H12  1  0.98651000  0.05915700  0.59068000  1
  H  H13  1  0.62183400  0.33958500  0.51570100  1
  H  H14  1  0.82610400  0.83955000  0.21896200  1
  H  H15  1  0.46832600  0.55887700  0.57239500  1
  H  H16  1  0.64453800  0.01954400  0.28629000  1
  H  H17  1  0.30216800  0.54033100  0.18090600  1
  H  H18  1  0.35919700  0.04119600  0.73815900  1
  H  H19  1  0.73306400  0.52003300  0.87507400  1
  O  O0  1  0.97506100  0.96401000  0.80935300  1
  O  O1  1  0.89059000  0.56921100  0.57892700  1
  O  O2  1  0.98968900  0.06879800  0.17722900  1
  O  O3  1  0.15452300  0.46409200  0.48881700  1
  O  O4  1  0.30641500  0.11997800  0.05503700  1
  O  O5  1  0.00559400  0.39317900  0.74395700  1
  O  O6  1  0.64856400  0.89339200  0.88701600  1
  O  O7  1  0.06511700  0.62023500  0.31367200  1
  O  O8  1  0.25079700  0.88293500  0.09464200  1
  O  O9  1  0.23168300  0.65943800  0.90460100  1
  O  O10  1  0.75444200  0.15974800  0.92739700  1
  O  O11  1  0.78849500  0.38323700  0.13230500  1
  O  O12  1  0.26165500  0.85548000  0.83002500  1
  O  O13  1  0.97829300  0.67134400  0.93101400  1
  O  O14  1  0.74019700  0.17076300  0.19228400  1
  O  O15  1  0.02519000  0.35543800  0.09360900  1
  O  O16  1  0.71751800  0.73243500  0.64822000  1
  O  O17  1  0.93138900  0.72770200  0.46304200  1
  O  O18  1  0.26468500  0.22757000  0.29588700  1
  O  O19  1  0.08398200  0.23252300  0.51471700  1
  O  O20  1  0.71246500  0.75607300  0.44371900  1
  O  O21  1  0.31140300  0.25528200  0.54225800  1
  O  O22  1  0.06793600  0.02626100  0.69511400  1
  O  O23  1  0.71260300  0.44105500  0.58207300  1
  O  O24  1  0.85962300  0.94106400  0.22845900  1
  O  O25  1  0.33098000  0.52600300  0.45807000  1
  O  O26  1  0.51996000  0.95626300  0.20277000  1
  O  O27  1  0.27417200  0.59975200  0.11246700  1
  O  O28  1  0.48700900  0.10052500  0.82559600  1
  O  O29  1  0.75377700  0.45675400  0.93664900  1
loop_
_geom_bond_atom_site_label_1
_geom_bond_atom_site_label_2
_geom_bond_distance
_geom_bond_site_symmetry_2
H0 O0 0.996758 1_455
H1 O3 0.996773 1_555
H2 O5 1.036485 1_655
H3 O6 1.036719 1_555
H4 O8 0.998940 1_555
H5 O9 1.042688 1_555
H5 O1 1.542725 1_455
H6 O10 1.043137 1_554
H6 O2 1.540429 1_555
H7 O11 0.998856 1_555
H8 O17 1.015092 1_555
H9 O18 1.014893 1_555
H10 O20 0.982496 1_555
H11 O21 0.982151 1_555
H12 O22 1.019831 1_655
H13 O23 0.993314 1_555
H14 O24 0.994348 1_555
H15 O25 1.020117 1_555
H16 O26 1.010294 1_545
H17 O27 1.015091 1_555
H18 O28 1.014493 1_555
H19 O29 1.010549 1_555
O0 Si4 1.814410 1_665
O0 Si0 1.866408 1_555
O1 Si1 1.733267 1_555
O1 Si5 1.743697 1_555
O2 Si2 1.733151 1_655
O2 Si6 1.743599 1_545
O3 Si7 1.814568 1_555
O3 Si3 1.865938 1_555
O4 Si4 1.652292 1_554
O4 Si8 1.675633 1_555
O5 Si5 1.805235 1_455
O5 Si9 1.860712 1_555
O6 Si6 1.805596 1_556
O6 Si10 1.859519 1_555
O7 Si7 1.651909 1_555
O7 Si11 1.675908 1_455
O8 Si8 1.869568 1_565
O8 Si13 2.001423 1_555
O9 Si9 1.853639 1_555
O9 Si12 1.897531 1_555
O10 Si10 1.853028 1_545
O10 Si15 1.897701 1_555
O11 Si11 1.868892 1_555
O11 Si14 2.003178 1_555
O12 Si16 1.654235 1_555
O12 Si12 1.657397 1_555
O13 Si13 1.662169 1_656
O13 Si17 1.673226 1_555
O14 Si14 1.661783 1_555
O14 Si18 1.673324 1_555
O15 Si19 1.654829 1_555
O15 Si15 1.657154 1_454
O16 Si0 1.652573 1_555
O16 Si17 1.672184 1_555
O17 Si16 1.857473 1_655
O17 Si1 1.886835 1_555
O18 Si19 1.857441 1_555
O18 Si2 1.885513 1_555
O19 Si3 1.652312 1_555
O19 Si18 1.672601 1_455
O20 Si1 1.852152 1_555
O20 Si0 1.953967 1_555
O21 Si2 1.851889 1_555
O21 Si3 1.956306 1_555
O22 Si16 1.835948 1_545
O22 Si4 1.838195 1_555
O23 Si5 1.836533 1_555
O23 Si17 1.871951 1_555
O24 Si6 1.836154 1_555
O24 Si18 1.871541 1_565
O25 Si19 1.836412 1_555
O25 Si7 1.837666 1_555
O26 Si8 1.835079 1_565
O26 Si12 1.992582 1_554
O27 Si9 1.780520 1_554
O27 Si13 2.063178 1_555
O28 Si10 1.781864 1_545
O28 Si14 2.059152 1_556
O29 Si11 1.834649 1_556
O29 Si15 1.989720 1_555
