# generated using pymatgen
data_Rb(WO3)3
_symmetry_space_group_name_H-M   'P 1'
_cell_length_a   7.52153355
_cell_length_b   7.52153355
_cell_length_c   7.74201600
_cell_angle_alpha   90.00000000
_cell_angle_beta   90.00000000
_cell_angle_gamma   119.99999604
_symmetry_Int_Tables_number   1
_chemical_formula_structural   Rb(WO3)3
_chemical_formula_sum   'Rb2 W6 O18'
_cell_volume   379.31280811
_cell_formula_units_Z   2
loop_
 _symmetry_equiv_pos_site_id
 _symmetry_equiv_pos_as_xyz
  1  'x, y, z'
loop_
 _atom_site_type_symbol
 _atom_site_label
 _atom_site_symmetry_multiplicity
 _atom_site_fract_x
 _atom_site_fract_y
 _atom_site_fract_z
 _atom_site_occupancy
  Rb  Rb0  1  0.00000000  0.00000000  0.51111800  1
  Rb  Rb1  1  0.00000000  0.00000000  0.01111800  1
  W  W0  1  0.50005700  0.00011400  0.24895500  1
  W  W1  1  0.99988600  0.49994300  0.24895500  1
  W  W2  1  0.50005700  0.49994300  0.24895500  1
  W  W3  1  0.49994300  0.99988600  0.74895500  1
  W  W4  1  0.00011400  0.50005700  0.74895500  1
  W  W5  1  0.49994300  0.50005700  0.74895500  1
  O  O0  1  0.78998100  0.21001900  0.23317800  1
  O  O1  1  0.78998100  0.57996200  0.23317800  1
  O  O2  1  0.42003800  0.21001900  0.23317800  1
  O  O3  1  0.21001900  0.78998100  0.73317800  1
  O  O4  1  0.21001900  0.42003800  0.73317800  1
  O  O5  1  0.57996200  0.78998100  0.73317800  1
  O  O6  1  0.21044700  0.42089300  0.26449500  1
  O  O7  1  0.57910700  0.78955300  0.26449500  1
  O  O8  1  0.21044700  0.78955300  0.26449500  1
  O  O9  1  0.78955300  0.57910700  0.76449500  1
  O  O10  1  0.42089300  0.21044700  0.76449500  1
  O  O11  1  0.78955300  0.21044700  0.76449500  1
  O  O12  1  0.51300700  0.02601300  0.49900000  1
  O  O13  1  0.97398700  0.48699300  0.49900000  1
  O  O14  1  0.51300700  0.48699300  0.49900000  1
  O  O15  1  0.48699300  0.97398700  0.99900000  1
  O  O16  1  0.02601300  0.51300700  0.99900000  1
  O  O17  1  0.48699300  0.51300700  0.99900000  1
loop_
_geom_bond_atom_site_label_1
_geom_bond_atom_site_label_2
_geom_bond_distance
_geom_bond_site_symmetry_2
O0 W0 1.954488 1_555
O0 W1 1.954488 1_555
O0 Rb1 3.231353 1_655
O0 Rb0 3.480853 1_655
O1 W1 1.954488 1_555
O1 W2 1.954488 1_555
O1 Rb1 3.231354 1_665
O1 Rb0 3.480853 1_665
O2 W0 1.954488 1_555
O2 W2 1.954488 1_555
O2 Rb1 3.231354 1_555
O2 Rb0 3.480853 1_555
O3 W4 1.954488 1_555
O3 W3 1.954488 1_555
O3 Rb0 3.231353 1_565
O3 Rb1 3.480853 1_566
O4 W4 1.954488 1_555
O4 W5 1.954488 1_555
O4 Rb0 3.231354 1_555
O4 Rb1 3.480853 1_556
O5 W3 1.954488 1_555
O5 W5 1.954488 1_555
O5 Rb0 3.231354 1_665
O5 Rb1 3.480853 1_666
O6 W2 1.953935 1_555
O6 W1 1.953942 1_455
O6 Rb0 3.340986 1_555
O6 Rb1 3.371142 1_555
O7 W2 1.953935 1_555
O7 W0 1.953942 1_565
O7 Rb0 3.340986 1_665
O7 Rb1 3.371142 1_665
O8 W0 1.953937 1_565
O8 W1 1.953937 1_455
O8 Rb0 3.340991 1_565
O8 Rb1 3.371147 1_565
O9 W5 1.953935 1_555
O9 W4 1.953942 1_655
O9 Rb1 3.340986 1_666
O9 Rb0 3.371142 1_665
O10 W5 1.953935 1_555
O10 W3 1.953942 1_545
O10 Rb1 3.340986 1_556
O10 Rb0 3.371142 1_555
O11 W4 1.953937 1_655
O11 W3 1.953937 1_545
O11 Rb1 3.340991 1_656
O11 Rb0 3.371147 1_655
O12 W3 1.942625 1_545
O12 W0 1.943189 1_555
O13 W4 1.942625 1_655
O13 W1 1.943189 1_555
O14 W5 1.942625 1_555
O14 W2 1.943190 1_555
O15 W0 1.942625 1_566
O15 W3 1.943189 1_555
O16 W1 1.942625 1_456
O16 W4 1.943189 1_555
O17 W2 1.942625 1_556
O17 W5 1.943190 1_555
