# generated using pymatgen
data_Mn5OF11
_symmetry_space_group_name_H-M   'P 1'
_cell_length_a   5.53843600
_cell_length_b   5.79992557
_cell_length_c   9.33213760
_cell_angle_alpha   107.43101193
_cell_angle_beta   89.74192634
_cell_angle_gamma   115.41228323
_symmetry_Int_Tables_number   1
_chemical_formula_structural   Mn5OF11
_chemical_formula_sum   'Mn5 O1 F11'
_cell_volume   255.64250365
_cell_formula_units_Z   1
loop_
 _symmetry_equiv_pos_site_id
 _symmetry_equiv_pos_as_xyz
  1  'x, y, z'
loop_
 _atom_site_type_symbol
 _atom_site_label
 _atom_site_symmetry_multiplicity
 _atom_site_fract_x
 _atom_site_fract_y
 _atom_site_fract_z
 _atom_site_occupancy
  Mn  Mn0  1  0.99537300  0.34417000  0.67003700  1
  Mn  Mn1  1  0.47472800  0.10723400  0.83854000  1
  Mn  Mn2  1  0.76659900  0.63615500  0.92858300  1
  Mn  Mn3  1  0.00598400  0.68485500  0.33512100  1
  Mn  Mn4  1  0.50578300  0.82767600  0.15921700  1
  O  O0  1  0.54191100  0.81141100  0.96669600  1
  F  F0  1  0.04975200  0.97595000  0.80536300  1
  F  F1  1  0.02986200  0.36198400  0.44403700  1
  F  F2  1  0.05481200  0.65444100  0.13105600  1
  F  F3  1  0.58771400  0.51942400  0.25810500  1
  F  F4  1  0.57641800  0.08931300  0.66681700  1
  F  F5  1  0.42515500  0.85680900  0.33430900  1
  F  F6  1  0.49231400  0.17934400  0.03622900  1
  F  F7  1  0.42854400  0.44680500  0.75116500  1
  F  F8  1  0.89877100  0.40149000  0.85887400  1
  F  F9  1  0.98994800  0.71138800  0.53016000  1
  F  F10  1  0.94009600  0.99022500  0.23195600  1
loop_
_geom_bond_atom_site_label_1
_geom_bond_atom_site_label_2
_geom_bond_distance
_geom_bond_site_symmetry_2
Mn1 O0 2.508765 1_545
Mn2 O0 1.890328 1_555
Mn4 O0 1.785566 1_554
F0 Mn1 2.131365 1_565
F0 Mn2 2.520819 1_455
F1 Mn0 2.145995 1_455
F1 Mn3 2.431343 1_555
F2 Mn3 1.888356 1_555
F2 Mn4 2.238493 1_555
F2 Mn2 2.427201 1_454
F3 Mn3 2.120807 1_655
F3 Mn4 2.437707 1_555
F4 Mn1 1.684774 1_555
F4 Mn0 2.144812 1_555
F5 Mn4 1.670519 1_555
F5 Mn3 2.097982 1_555
F6 Mn1 1.758496 1_554
F6 Mn4 2.648946 1_545
F7 Mn2 2.150975 1_555
F7 Mn0 2.281193 1_455
F7 Mn1 2.450621 1_555
F8 Mn2 1.769699 1_555
F8 Mn0 1.815344 1_555
F8 Mn1 2.198700 1_555
F9 Mn3 1.785192 1_655
F10 Mn4 2.195587 1_555
F10 Mn3 2.403409 1_655
