# generated using pymatgen
data_Li9Mn2Co5O16
_symmetry_space_group_name_H-M   'P 1'
_cell_length_a   2.89401600
_cell_length_b   10.12325300
_cell_length_c   10.24323106
_cell_angle_alpha   70.20125311
_cell_angle_beta   90.00000000
_cell_angle_gamma   90.00000000
_symmetry_Int_Tables_number   1
_chemical_formula_structural   Li9Mn2Co5O16
_chemical_formula_sum   'Li9 Mn2 Co5 O16'
_cell_volume   282.35533595
_cell_formula_units_Z   1
loop_
 _symmetry_equiv_pos_site_id
 _symmetry_equiv_pos_as_xyz
  1  'x, y, z'
loop_
 _atom_site_type_symbol
 _atom_site_label
 _atom_site_symmetry_multiplicity
 _atom_site_fract_x
 _atom_site_fract_y
 _atom_site_fract_z
 _atom_site_occupancy
  Li  Li0  1  0.50000000  0.25122100  0.75016100  1
  Li  Li1  1  0.50000000  0.25858500  0.24360700  1
  Li  Li2  1  0.00000000  0.00374700  0.74723100  1
  Li  Li3  1  0.00000000  0.99625300  0.25276900  1
  Li  Li4  1  0.50000000  0.74141500  0.75639300  1
  Li  Li5  1  0.50000000  0.74877900  0.24983900  1
  Li  Li6  1  0.00000000  0.50563200  0.75612700  1
  Li  Li7  1  0.00000000  0.49436800  0.24387300  1
  Li  Li8  1  0.50000000  0.50000000  0.00000000  1
  Mn  Mn0  1  0.00000000  0.25349600  0.00277500  1
  Mn  Mn1  1  0.00000000  0.74650400  0.99722500  1
  Co  Co0  1  0.00000000  0.25008600  0.50234800  1
  Co  Co1  1  0.50000000  0.00000000  0.00000000  1
  Co  Co2  1  0.50000000  0.00000000  0.50000000  1
  Co  Co3  1  0.00000000  0.74991400  0.49765200  1
  Co  Co4  1  0.50000000  0.50000000  0.50000000  1
  O  O0  1  0.50000000  0.35755300  0.88880000  1
  O  O1  1  0.50000000  0.36818800  0.38408300  1
  O  O2  1  0.00000000  0.11626300  0.89448500  1
  O  O3  1  0.00000000  0.11287400  0.39168500  1
  O  O4  1  0.50000000  0.87379900  0.89266700  1
  O  O5  1  0.50000000  0.86551600  0.38012000  1
  O  O6  1  0.00000000  0.64165200  0.88177200  1
  O  O7  1  0.00000000  0.61771700  0.38392700  1
  O  O8  1  0.50000000  0.13448400  0.61988000  1
  O  O9  1  0.50000000  0.12620100  0.10733300  1
  O  O10  1  0.00000000  0.88712600  0.60831500  1
  O  O11  1  0.00000000  0.88373700  0.10551500  1
  O  O12  1  0.50000000  0.63181200  0.61591700  1
  O  O13  1  0.50000000  0.64244700  0.11120000  1
  O  O14  1  0.00000000  0.38228300  0.61607300  1
  O  O15  1  0.00000000  0.35834800  0.11822800  1
loop_
_geom_bond_atom_site_label_1
_geom_bond_atom_site_label_2
_geom_bond_distance
_geom_bond_site_symmetry_2
Li0 O0 2.052064 1_555
Li0 O8 2.060531 1_555
Li0 O14 2.122769 1_555
Li0 O14 2.122769 1_655
Li0 O2 2.185780 1_655
Li0 O2 2.185780 1_555
Li1 O15 1.970918 1_555
Li1 O15 1.970918 1_655
Li1 O1 2.093597 1_555
Li1 O9 2.238705 1_555
Li1 O3 2.248256 1_555
Li1 O3 2.248256 1_655
Li2 O8 2.092261 1_455
Li2 O8 2.092261 1_555
Li2 O10 2.134617 1_545
Li2 O4 2.171653 1_445
Li2 O4 2.171653 1_545
Li2 O2 2.176327 1_555
Li3 O5 2.092261 1_555
Li3 O5 2.092261 1_455
Li3 O3 2.134617 1_565
Li3 O9 2.171653 1_565
Li3 O9 2.171653 1_465
Li3 O11 2.176327 1_555
Li4 O6 1.970918 1_655
Li4 O6 1.970918 1_555
Li4 O12 2.093597 1_555
Li4 O4 2.238705 1_555
Li4 O10 2.248256 1_555
Li4 O10 2.248256 1_655
Li5 O13 2.052064 1_555
Li5 O5 2.060531 1_555
Li5 O7 2.122769 1_555
Li5 O7 2.122769 1_655
Li5 O11 2.185780 1_655
Li5 O11 2.185780 1_555
Li6 O12 2.131985 1_455
Li6 O12 2.131985 1_555
Li6 O6 2.180128 1_555
Li6 O0 2.192663 1_455
Li6 O0 2.192663 1_555
Li6 O14 2.197924 1_555
Li7 O1 2.131985 1_555
Li7 O1 2.131985 1_455
Li7 O15 2.180128 1_555
Li7 O13 2.192663 1_455
Li7 O13 2.192663 1_555
Li7 O7 2.197924 1_555
Li8 O15 2.107203 1_555
Li8 O6 2.107203 1_554
Li8 O15 2.107203 1_655
Li8 O6 2.107203 1_654
Li8 O0 2.118863 1_554
Li8 O13 2.118863 1_555
Mn0 O15 1.837280 1_555
Mn0 O0 1.932188 1_554
Mn0 O0 1.932188 1_454
Mn0 O9 1.991615 1_455
Mn0 O9 1.991615 1_555
Mn0 O2 2.050449 1_554
Mn1 O6 1.837280 1_555
Mn1 O13 1.932188 1_556
Mn1 O13 1.932188 1_456
Mn1 O4 1.991615 1_555
Mn1 O4 1.991615 1_455
Mn1 O11 2.050449 1_556
Co0 O8 1.989552 1_455
Co0 O8 1.989552 1_555
Co0 O1 2.002400 1_555
Co0 O1 2.002400 1_455
Co0 O14 2.050381 1_555
Co0 O3 2.069053 1_555
Co1 O11 1.945631 1_645
Co1 O11 1.945631 1_545
Co1 O2 1.945631 1_554
Co1 O2 1.945631 1_654
Co1 O9 1.947424 1_555
Co1 O4 1.947424 1_544
Co2 O3 1.942070 1_655
Co2 O3 1.942070 1_555
Co2 O10 1.942070 1_645
Co2 O10 1.942070 1_545
Co2 O8 2.119869 1_555
Co2 O5 2.119869 1_545
Co3 O5 1.989552 1_555
Co3 O5 1.989552 1_455
Co3 O12 2.002400 1_455
Co3 O12 2.002400 1_555
Co3 O7 2.050381 1_555
Co3 O10 2.069053 1_555
Co4 O7 1.991917 1_555
Co4 O7 1.991917 1_655
Co4 O14 1.991917 1_555
Co4 O14 1.991917 1_655
Co4 O1 2.064868 1_555
Co4 O12 2.064868 1_555
