# generated using pymatgen
data_Tl
_symmetry_space_group_name_H-M   'P 1'
_cell_length_a   10.45935449
_cell_length_b   10.45935449
_cell_length_c   10.45935449
_cell_angle_alpha   109.47122063
_cell_angle_beta   109.47122063
_cell_angle_gamma   109.47122063
_symmetry_Int_Tables_number   1
_chemical_formula_structural   Tl
_chemical_formula_sum   Tl29
_cell_volume   880.83133592
_cell_formula_units_Z   29
loop_
 _symmetry_equiv_pos_site_id
 _symmetry_equiv_pos_as_xyz
  1  'x, y, z'
loop_
 _atom_site_type_symbol
 _atom_site_label
 _atom_site_symmetry_multiplicity
 _atom_site_fract_x
 _atom_site_fract_y
 _atom_site_fract_z
 _atom_site_occupancy
  Tl  Tl0  1  0.36324571  0.00000000  0.00000000  1
  Tl  Tl1  1  -0.00000000  0.00000000  0.00000000  1
  Tl  Tl2  1  0.59838427  0.31724789  -0.00000000  1
  Tl  Tl3  1  -0.00000000  0.36324571  0.00000000  1
  Tl  Tl4  1  0.31724789  0.59838427  -0.00000000  1
  Tl  Tl5  1  0.80913362  0.62553322  -0.00000000  1
  Tl  Tl6  1  0.62553322  0.80913362  -0.00000000  1
  Tl  Tl7  1  0.37446678  0.37446678  0.18360040  1
  Tl  Tl8  1  0.81639960  0.19086638  0.19086638  1
  Tl  Tl9  1  0.19086638  0.81639960  0.19086638  1
  Tl  Tl10  1  0.68275211  0.68275211  0.28113538  1
  Tl  Tl11  1  0.59838427  0.00000000  0.31724789  1
  Tl  Tl12  1  0.00000000  0.59838427  0.31724789  1
  Tl  Tl13  1  -0.00000000  -0.00000000  0.36324571  1
  Tl  Tl14  1  0.37446678  0.18360040  0.37446678  1
  Tl  Tl15  1  0.18360040  0.37446678  0.37446678  1
  Tl  Tl16  1  0.71886462  0.40161573  0.40161573  1
  Tl  Tl17  1  0.40161573  0.71886462  0.40161573  1
  Tl  Tl18  1  0.31724789  -0.00000000  0.59838427  1
  Tl  Tl19  1  -0.00000000  0.31724789  0.59838427  1
  Tl  Tl20  1  0.80913362  -0.00000000  0.62553322  1
  Tl  Tl21  1  -0.00000000  0.80913362  0.62553322  1
  Tl  Tl22  1  0.63675529  0.63675529  0.63675529  1
  Tl  Tl23  1  0.68275211  0.28113538  0.68275211  1
  Tl  Tl24  1  0.28113538  0.68275211  0.68275211  1
  Tl  Tl25  1  0.40161573  0.40161573  0.71886462  1
  Tl  Tl26  1  0.62553322  -0.00000000  0.80913362  1
  Tl  Tl27  1  0.00000000  0.62553322  0.80913362  1
  Tl  Tl28  1  0.19086638  0.19086638  0.81639960  1
loop_
_geom_bond_atom_site_label_1
_geom_bond_atom_site_label_2
_geom_bond_distance
_geom_bond_site_symmetry_2
Tl0 Tl24 3.408604 1_544
Tl0 Tl2 3.408609 1_555
Tl0 Tl11 3.408609 1_555
Tl2 Tl5 3.243094 1_555
Tl2 Tl26 3.415613 1_554
Tl2 Tl8 3.415613 1_555
Tl2 Tl25 3.544991 1_554
Tl2 Tl7 3.563366 1_555
Tl2 Tl28 3.563366 1_554
Tl2 Tl23 3.642880 1_554
Tl3 Tl4 3.408609 1_555
Tl4 Tl6 3.243094 1_555
Tl4 Tl9 3.415613 1_555
Tl4 Tl7 3.563366 1_555
Tl5 Tl6 3.135905 1_555
Tl5 Tl9 3.260008 1_655
Tl6 Tl8 3.260008 1_565
Tl10 Tl7 3.243098 1_555
Tl10 Tl13 3.408604 1_665
Tl10 Tl21 3.415619 1_655
Tl10 Tl20 3.415619 1_565
Tl10 Tl2 3.544994 1_555
Tl10 Tl4 3.544994 1_555
Tl10 Tl6 3.563357 1_555
Tl10 Tl5 3.563357 1_555
Tl10 Tl12 3.642880 1_655
Tl10 Tl11 3.642880 1_565
Tl10 Tl17 3.642890 1_555
Tl10 Tl16 3.642890 1_555
Tl11 Tl20 3.243094 1_555
Tl11 Tl8 3.415613 1_555
Tl11 Tl6 3.415613 1_545
Tl11 Tl17 3.544991 1_545
Tl11 Tl23 3.544994 1_555
Tl11 Tl14 3.563366 1_555
Tl11 Tl9 3.563366 1_545
Tl11 Tl16 3.642880 1_555
Tl11 Tl19 3.642881 1_655
Tl11 Tl4 3.642881 1_545
Tl12 Tl21 3.243094 1_555
Tl12 Tl3 3.408609 1_555
Tl12 Tl9 3.415613 1_555
Tl12 Tl5 3.415613 1_455
Tl12 Tl16 3.544991 1_455
Tl12 Tl24 3.544994 1_555
Tl12 Tl15 3.563366 1_555
Tl12 Tl8 3.563366 1_455
Tl12 Tl17 3.642880 1_555
Tl12 Tl2 3.642881 1_455
Tl12 Tl18 3.642881 1_565
Tl13 Tl18 3.408609 1_555
Tl13 Tl19 3.408609 1_555
Tl14 Tl9 3.135905 1_545
Tl14 Tl23 3.243098 1_555
Tl14 Tl7 3.260008 1_555
Tl14 Tl15 3.260008 1_555
Tl14 Tl25 3.415621 1_555
Tl14 Tl16 3.415621 1_555
Tl14 Tl18 3.563366 1_555
Tl15 Tl8 3.135905 1_455
Tl15 Tl24 3.243098 1_555
Tl15 Tl7 3.260008 1_555
Tl15 Tl25 3.415621 1_555
Tl15 Tl17 3.415621 1_555
Tl15 Tl19 3.563366 1_555
Tl16 Tl8 3.243086 1_555
Tl16 Tl22 3.408620 1_555
Tl16 Tl7 3.415621 1_555
Tl16 Tl19 3.544991 1_655
Tl16 Tl21 3.563364 1_655
Tl16 Tl27 3.563364 1_655
Tl16 Tl2 3.642880 1_555
Tl16 Tl23 3.642890 1_555
Tl17 Tl9 3.243086 1_555
Tl17 Tl22 3.408620 1_555
Tl17 Tl7 3.415621 1_555
Tl17 Tl18 3.544991 1_565
Tl17 Tl20 3.563364 1_565
Tl17 Tl26 3.563364 1_565
Tl17 Tl4 3.642880 1_555
Tl17 Tl24 3.642890 1_555
Tl18 Tl26 3.243094 1_555
Tl18 Tl28 3.415613 1_555
Tl18 Tl21 3.415613 1_545
Tl18 Tl23 3.544994 1_555
Tl18 Tl9 3.563366 1_545
Tl18 Tl24 3.642880 1_545
Tl18 Tl25 3.642880 1_555
Tl18 Tl2 3.642881 1_556
Tl19 Tl27 3.243094 1_555
Tl19 Tl28 3.415613 1_555
Tl19 Tl20 3.415613 1_455
Tl19 Tl24 3.544994 1_555
Tl19 Tl8 3.563366 1_455
Tl19 Tl23 3.642880 1_455
Tl19 Tl25 3.642880 1_555
Tl19 Tl4 3.642881 1_556
Tl20 Tl26 3.135905 1_555
Tl20 Tl21 3.260008 1_645
Tl20 Tl28 3.260008 1_655
Tl20 Tl23 3.563357 1_555
Tl21 Tl27 3.135905 1_555
Tl21 Tl28 3.260008 1_565
Tl21 Tl24 3.563357 1_555
Tl22 Tl25 3.408620 1_555
Tl23 Tl3 3.408604 1_656
Tl23 Tl27 3.415619 1_655
Tl23 Tl5 3.415619 1_556
Tl23 Tl26 3.563357 1_555
Tl23 Tl25 3.642890 1_555
Tl24 Tl26 3.415619 1_565
Tl24 Tl6 3.415619 1_556
Tl24 Tl27 3.563357 1_555
Tl24 Tl4 3.642880 1_556
Tl24 Tl25 3.642890 1_555
Tl25 Tl28 3.243086 1_555
Tl25 Tl4 3.544991 1_556
Tl25 Tl5 3.563364 1_556
Tl25 Tl6 3.563364 1_556
Tl26 Tl6 3.260008 1_546
Tl26 Tl8 3.260008 1_556
Tl27 Tl5 3.260008 1_456
Tl27 Tl9 3.260008 1_556
Tl27 Tl4 3.415613 1_556
Tl28 Tl7 3.135905 1_556
Tl28 Tl4 3.563366 1_556
