# generated using pymatgen
data_K2CdGeO4
_symmetry_space_group_name_H-M   'P 1'
_cell_length_a   5.86056000
_cell_length_b   11.73302600
_cell_length_c   16.41992800
_cell_angle_alpha   90.00000000
_cell_angle_beta   90.00000000
_cell_angle_gamma   90.00000000
_symmetry_Int_Tables_number   1
_chemical_formula_structural   K2CdGeO4
_chemical_formula_sum   'K16 Cd8 Ge8 O32'
_cell_volume   1129.06877800
_cell_formula_units_Z   8
loop_
 _symmetry_equiv_pos_site_id
 _symmetry_equiv_pos_as_xyz
  1  'x, y, z'
loop_
 _atom_site_type_symbol
 _atom_site_label
 _atom_site_symmetry_multiplicity
 _atom_site_fract_x
 _atom_site_fract_y
 _atom_site_fract_z
 _atom_site_occupancy
  K  K0  1  0.02998500  0.22624900  0.87113700  1
  K  K1  1  0.97001500  0.77375100  0.37113700  1
  K  K2  1  0.97001500  0.72624900  0.87113700  1
  K  K3  1  0.02998500  0.27375100  0.37113700  1
  K  K4  1  0.01430900  0.49535100  0.74232900  1
  K  K5  1  0.98569100  0.50464900  0.24232900  1
  K  K6  1  0.98569100  0.99535100  0.74232900  1
  K  K7  1  0.01430900  0.00464900  0.24232900  1
  K  K8  1  0.53343100  0.26769100  0.50076500  1
  K  K9  1  0.46656900  0.73230900  0.00076500  1
  K  K10  1  0.46656900  0.76769100  0.50076500  1
  K  K11  1  0.53343100  0.23230900  0.00076500  1
  K  K12  1  0.51429000  0.00616700  0.62560900  1
  K  K13  1  0.48571000  0.99383300  0.12560900  1
  K  K14  1  0.48571000  0.50616700  0.62560900  1
  K  K15  1  0.51429000  0.49383300  0.12560900  1
  Cd  Cd0  1  0.01809700  0.01886900  0.49566200  1
  Cd  Cd1  1  0.98190300  0.98113100  0.99566200  1
  Cd  Cd2  1  0.98190300  0.51886900  0.49566200  1
  Cd  Cd3  1  0.01809700  0.48113100  0.99566200  1
  Cd  Cd4  1  0.51613600  0.23881300  0.74878500  1
  Cd  Cd5  1  0.48386400  0.76118700  0.24878500  1
  Cd  Cd6  1  0.48386400  0.73881300  0.74878500  1
  Cd  Cd7  1  0.51613600  0.26118700  0.24878500  1
  Ge  Ge0  1  0.52311900  0.48755800  0.87495100  1
  Ge  Ge1  1  0.47688100  0.51244200  0.37495100  1
  Ge  Ge2  1  0.47688100  0.98755800  0.87495100  1
  Ge  Ge3  1  0.52311900  0.01244200  0.37495100  1
  Ge  Ge4  1  0.00801100  0.27095900  0.61883100  1
  Ge  Ge5  1  0.99198900  0.72904100  0.11883100  1
  Ge  Ge6  1  0.99198900  0.77095900  0.61883100  1
  Ge  Ge7  1  0.00801100  0.22904100  0.11883100  1
  O  O0  1  0.59794100  0.34168000  0.85611300  1
  O  O1  1  0.40205900  0.65832000  0.35611300  1
  O  O2  1  0.40205900  0.84168000  0.85611300  1
  O  O3  1  0.59794100  0.15832000  0.35611300  1
  O  O4  1  0.24491900  0.32006700  0.67753100  1
  O  O5  1  0.75508100  0.67993300  0.17753100  1
  O  O6  1  0.75508100  0.82006700  0.67753100  1
  O  O7  1  0.24491900  0.17993300  0.17753100  1
  O  O8  1  0.14224400  0.60355700  0.08882700  1
  O  O9  1  0.85775600  0.39644300  0.58882700  1
  O  O10  1  0.85775600  0.10355700  0.08882700  1
  O  O11  1  0.14224400  0.89644300  0.58882700  1
  O  O12  1  0.22421800  0.51425900  0.88453000  1
  O  O13  1  0.77578200  0.48574100  0.38453000  1
  O  O14  1  0.77578200  0.01425900  0.88453000  1
  O  O15  1  0.22421800  0.98574100  0.38453000  1
  O  O16  1  0.18539000  0.68423600  0.67571600  1
  O  O17  1  0.81461000  0.31576400  0.17571600  1
  O  O18  1  0.81461000  0.18423600  0.67571600  1
  O  O19  1  0.18539000  0.81576400  0.17571600  1
  O  O20  1  0.34195300  0.02310500  0.96942300  1
  O  O21  1  0.65804700  0.97689500  0.46942300  1
  O  O22  1  0.65804700  0.52310500  0.96942300  1
  O  O23  1  0.34195300  0.47689500  0.46942300  1
  O  O24  1  0.10543500  0.19476100  0.53140500  1
  O  O25  1  0.89456500  0.80523900  0.03140500  1
  O  O26  1  0.89456500  0.69476100  0.53140500  1
  O  O27  1  0.10543500  0.30523900  0.03140500  1
  O  O28  1  0.37388300  0.07410300  0.79308800  1
  O  O29  1  0.62611700  0.92589700  0.29308800  1
  O  O30  1  0.62611700  0.57410300  0.79308800  1
  O  O31  1  0.37388300  0.42589700  0.29308800  1
loop_
_geom_bond_atom_site_label_1
_geom_bond_atom_site_label_2
_geom_bond_distance
_geom_bond_site_symmetry_2
K0 O27 2.824841 1_556
K0 O0 2.882058 1_455
K0 O14 2.907639 1_455
K0 O28 2.981790 1_555
K1 O26 2.824841 1_555
K1 O1 2.882058 1_655
K1 O15 2.907639 1_655
K1 O29 2.981790 1_555
K2 O25 2.824841 1_556
K2 O2 2.882058 1_655
K2 O12 2.907639 1_655
K2 O30 2.981790 1_555
K3 O24 2.824841 1_555
K3 O3 2.882058 1_455
K3 O13 2.907639 1_455
K3 O31 2.981790 1_555
K4 O30 2.593098 1_455
K4 O12 2.648484 1_555
K4 O16 2.667046 1_555
K4 O4 2.681094 1_555
K4 O9 2.922568 1_455
K5 O31 2.593098 1_655
K5 O13 2.648484 1_555
K5 O17 2.667046 1_555
K5 O5 2.681094 1_555
K5 O8 2.922568 1_655
K6 O28 2.593098 1_665
K6 O14 2.648484 1_565
K6 O18 2.667046 1_565
K6 O6 2.681094 1_555
K6 O11 2.922568 1_655
K7 O29 2.593098 1_445
K7 O15 2.648484 1_545
K7 O19 2.667046 1_545
K7 O7 2.681094 1_555
K7 O10 2.922568 1_455
K8 O24 2.697568 1_555
K8 O3 2.726010 1_555
K8 O23 2.747572 1_555
K8 O9 2.825891 1_555
K9 O25 2.697568 1_555
K9 O2 2.726010 1_554
K9 O22 2.747572 1_554
K9 O8 2.825891 1_555
K10 O26 2.697568 1_555
K10 O1 2.726010 1_555
K10 O21 2.747572 1_555
K10 O11 2.825891 1_555
K11 O27 2.697568 1_555
K11 O0 2.726010 1_554
K11 O20 2.747572 1_554
K11 O10 2.825891 1_555
K12 O11 2.603130 1_545
K12 O21 2.721165 1_545
K12 O6 2.736055 1_545
K12 O18 2.853034 1_555
K12 O28 2.979082 1_555
K13 O10 2.603130 1_565
K13 O20 2.721165 1_564
K13 O7 2.736055 1_565
K13 O19 2.853034 1_555
K13 O29 2.979082 1_555
K14 O9 2.603130 1_555
K14 O23 2.721165 1_555
K14 O4 2.736055 1_555
K14 O16 2.853034 1_555
K14 O30 2.979082 1_555
K15 O8 2.603130 1_555
K15 O22 2.721165 1_554
K15 O5 2.736055 1_555
K15 O17 2.853034 1_555
K15 O31 2.979082 1_555
Cd0 O24 2.205784 1_555
Cd0 O21 2.209222 1_445
Cd0 O11 2.221004 1_545
Cd0 O15 2.222640 1_545
Cd1 O25 2.205784 1_556
Cd1 O20 2.209222 1_665
Cd1 O10 2.221004 1_566
Cd1 O14 2.222640 1_565
Cd2 O26 2.205784 1_555
Cd2 O23 2.209222 1_655
Cd2 O9 2.221004 1_555
Cd2 O13 2.222640 1_555
Cd3 O27 2.205784 1_556
Cd3 O22 2.209222 1_455
Cd3 O8 2.221004 1_556
Cd3 O12 2.222640 1_555
Cd4 O0 2.189136 1_555
Cd4 O4 2.191851 1_555
Cd4 O18 2.215701 1_555
Cd4 O28 2.226870 1_555
Cd5 O1 2.189136 1_555
Cd5 O5 2.191851 1_555
Cd5 O19 2.215701 1_555
Cd5 O29 2.226870 1_555
Cd6 O2 2.189136 1_555
Cd6 O6 2.191851 1_555
Cd6 O16 2.215701 1_555
Cd6 O30 2.226870 1_555
Cd7 O3 2.189136 1_555
Cd7 O7 2.191851 1_555
Cd7 O17 2.215701 1_555
Cd7 O31 2.226870 1_555
Ge0 O12 1.786458 1_555
Ge0 O30 1.789498 1_555
Ge0 O22 1.790401 1_555
Ge0 O0 1.793739 1_555
Ge1 O13 1.786458 1_555
Ge1 O31 1.789498 1_555
Ge1 O23 1.790401 1_555
Ge1 O1 1.793739 1_555
Ge2 O14 1.786458 1_565
Ge2 O28 1.789498 1_565
Ge2 O20 1.790401 1_565
Ge2 O2 1.793739 1_555
Ge3 O15 1.786458 1_545
Ge3 O29 1.789498 1_545
Ge3 O21 1.790401 1_545
Ge3 O3 1.793739 1_555
Ge4 O9 1.784888 1_455
Ge4 O24 1.784946 1_555
Ge4 O4 1.785690 1_555
Ge4 O18 1.786751 1_455
Ge5 O8 1.784888 1_655
Ge5 O25 1.784946 1_555
Ge5 O5 1.785690 1_555
Ge5 O19 1.786751 1_655
Ge6 O11 1.784888 1_655
Ge6 O26 1.784946 1_555
Ge6 O6 1.785690 1_555
Ge6 O16 1.786751 1_655
Ge7 O10 1.784888 1_455
Ge7 O27 1.784946 1_555
Ge7 O7 1.785690 1_555
Ge7 O17 1.786751 1_455
