# generated using pymatgen
data_La3Co2S7
_symmetry_space_group_name_H-M   'P 1'
_cell_length_a   10.11781627
_cell_length_b   10.11781627
_cell_length_c   5.94505700
_cell_angle_alpha   90.00000000
_cell_angle_beta   90.00000000
_cell_angle_gamma   120.00000177
_symmetry_Int_Tables_number   1
_chemical_formula_structural   La3Co2S7
_chemical_formula_sum   'La6 Co4 S14'
_cell_volume   527.06020241
_cell_formula_units_Z   2
loop_
 _symmetry_equiv_pos_site_id
 _symmetry_equiv_pos_as_xyz
  1  'x, y, z'
loop_
 _atom_site_type_symbol
 _atom_site_label
 _atom_site_symmetry_multiplicity
 _atom_site_fract_x
 _atom_site_fract_y
 _atom_site_fract_z
 _atom_site_occupancy
  La  La0  1  0.75987100  0.14285800  0.75199300  1
  La  La1  1  0.38298600  0.24012900  0.75199300  1
  La  La2  1  0.85714200  0.61701400  0.75199300  1
  La  La3  1  0.24012900  0.85714200  0.25199300  1
  La  La4  1  0.61701400  0.75987100  0.25199300  1
  La  La5  1  0.14285800  0.38298600  0.25199300  1
  Co  Co0  1  0.00000000  0.00000000  0.51428500  1
  Co  Co1  1  0.00000000  0.00000000  0.01428500  1
  Co  Co2  1  0.66666700  0.33333300  0.15731100  1
  Co  Co3  1  0.33333300  0.66666700  0.65731100  1
  S  S0  1  0.87126100  0.07635100  0.26748600  1
  S  S1  1  0.20509100  0.12873900  0.26748600  1
  S  S2  1  0.92364900  0.79490900  0.26748600  1
  S  S3  1  0.12873900  0.92364900  0.76748600  1
  S  S4  1  0.79490900  0.87126100  0.76748600  1
  S  S5  1  0.07635100  0.20509100  0.76748600  1
  S  S6  1  0.90231900  0.41560200  0.02702800  1
  S  S7  1  0.51328400  0.09768100  0.02702800  1
  S  S8  1  0.58439800  0.48671600  0.02702800  1
  S  S9  1  0.09768100  0.58439800  0.52702800  1
  S  S10  1  0.48671600  0.90231900  0.52702800  1
  S  S11  1  0.41560200  0.51328400  0.52702800  1
  S  S12  1  0.66666700  0.33333300  0.52856900  1
  S  S13  1  0.33333300  0.66666700  0.02856900  1
loop_
_geom_bond_atom_site_label_1
_geom_bond_atom_site_label_2
_geom_bond_distance
_geom_bond_site_symmetry_2
La0 S7 2.822536 1_556
La0 S12 2.860950 1_555
La0 S6 2.896336 1_556
La0 S10 2.936630 1_545
La0 S5 2.939742 1_655
La0 S4 2.942731 1_545
La0 S0 3.283016 1_555
La0 S0 3.445773 1_556
La1 S8 2.822541 1_556
La1 S12 2.860967 1_555
La1 S7 2.896350 1_556
La1 S11 2.936630 1_555
La1 S3 2.939742 1_545
La1 S5 2.942731 1_555
La1 S1 3.283008 1_555
La1 S1 3.445766 1_556
La2 S6 2.822552 1_556
La2 S12 2.860963 1_555
La2 S8 2.896336 1_556
La2 S9 2.936630 1_655
La2 S4 2.939742 1_555
La2 S3 2.942731 1_655
La2 S2 3.283007 1_555
La2 S2 3.445765 1_556
La3 S10 2.822536 1_555
La3 S13 2.860950 1_555
La3 S9 2.896336 1_555
La3 S7 2.936630 1_565
La3 S2 2.939742 1_455
La3 S1 2.942731 1_565
La3 S3 3.283016 1_554
La3 S3 3.445773 1_555
La4 S11 2.822541 1_555
La4 S13 2.860967 1_555
La4 S10 2.896350 1_555
La4 S8 2.936630 1_555
La4 S0 2.939742 1_565
La4 S2 2.942731 1_555
La4 S4 3.283008 1_554
La4 S4 3.445766 1_555
La5 S9 2.822552 1_555
La5 S13 2.860963 1_555
La5 S11 2.896336 1_555
La5 S6 2.936630 1_455
La5 S1 2.939742 1_555
La5 S0 2.942731 1_455
La5 S5 3.283007 1_554
La5 S5 3.445765 1_555
Co0 S0 2.335044 1_455
Co0 S1 2.335050 1_555
Co0 S2 2.335051 1_445
Co0 S3 2.359145 1_545
Co0 S4 2.359151 1_445
Co0 S5 2.359152 1_555
Co1 S3 2.335044 1_544
Co1 S4 2.335050 1_444
Co1 S5 2.335051 1_554
Co1 S0 2.359145 1_455
Co1 S1 2.359151 1_555
Co1 S2 2.359152 1_445
Co2 S12 2.207150 1_555
Co2 S7 2.234490 1_555
Co2 S6 2.234490 1_555
Co2 S8 2.234490 1_555
Co3 S13 2.207150 1_556
Co3 S10 2.234490 1_555
Co3 S9 2.234490 1_555
Co3 S11 2.234490 1_555
