# generated using pymatgen
data_Sr3Ca5Mn8O23
_symmetry_space_group_name_H-M   'P 1'
_cell_length_a   7.73338262
_cell_length_b   7.65037561
_cell_length_c   7.66592500
_cell_angle_alpha   90.00000000
_cell_angle_beta   90.00000000
_cell_angle_gamma   89.90553240
_symmetry_Int_Tables_number   1
_chemical_formula_structural   Sr3Ca5Mn8O23
_chemical_formula_sum   'Sr3 Ca5 Mn8 O23'
_cell_volume   453.54066425
_cell_formula_units_Z   1
loop_
 _symmetry_equiv_pos_site_id
 _symmetry_equiv_pos_as_xyz
  1  'x, y, z'
loop_
 _atom_site_type_symbol
 _atom_site_label
 _atom_site_symmetry_multiplicity
 _atom_site_fract_x
 _atom_site_fract_y
 _atom_site_fract_z
 _atom_site_occupancy
  Sr  Sr0  1  0.26198200  0.25370000  0.25000000  1
  Sr  Sr1  1  0.24947400  0.25459400  0.75000000  1
  Sr  Sr2  1  0.74462100  0.25530200  0.25000000  1
  Ca  Ca0  1  0.26369200  0.73559900  0.25000000  1
  Ca  Ca1  1  0.25536300  0.74288000  0.75000000  1
  Ca  Ca2  1  0.74186800  0.27569700  0.75000000  1
  Ca  Ca3  1  0.75133700  0.74427600  0.25000000  1
  Ca  Ca4  1  0.72973800  0.74179600  0.75000000  1
  Mn  Mn0  1  0.99539500  0.99235600  0.98428100  1
  Mn  Mn1  1  0.99539500  0.99235600  0.51571900  1
  Mn  Mn2  1  0.99992400  0.50589200  0.00131200  1
  Mn  Mn3  1  0.99992400  0.50589200  0.49868800  1
  Mn  Mn4  1  0.50396800  0.99904500  0.00048500  1
  Mn  Mn5  1  0.50396800  0.99904500  0.49951500  1
  Mn  Mn6  1  0.50151300  0.50555200  0.99850200  1
  Mn  Mn7  1  0.50151300  0.50555200  0.50149800  1
  O  O0  1  0.97849800  0.93044400  0.75000000  1
  O  O1  1  0.98844000  0.45790800  0.25000000  1
  O  O2  1  0.01934400  0.54640800  0.75000000  1
  O  O3  1  0.47625900  0.95959000  0.25000000  1
  O  O4  1  0.54083800  0.03557600  0.75000000  1
  O  O5  1  0.51761000  0.54079800  0.25000000  1
  O  O6  1  0.49090200  0.47062800  0.75000000  1
  O  O7  1  0.24585900  0.01261500  0.99232300  1
  O  O8  1  0.24585900  0.01261500  0.50767700  1
  O  O9  1  0.25124100  0.49937900  0.01603200  1
  O  O10  1  0.25124100  0.49937900  0.48396800  1
  O  O11  1  0.75470900  0.98188300  0.04468200  1
  O  O12  1  0.75470900  0.98188300  0.45531800  1
  O  O13  1  0.75144500  0.52231900  0.97828400  1
  O  O14  1  0.75144500  0.52231900  0.52171600  1
  O  O15  1  0.97945000  0.24649500  0.96663200  1
  O  O16  1  0.97945000  0.24649500  0.53336800  1
  O  O17  1  0.01300500  0.75562000  0.06418500  1
  O  O18  1  0.01300500  0.75562000  0.43581500  1
  O  O19  1  0.51123700  0.25249000  0.02864100  1
  O  O20  1  0.51123700  0.25249000  0.47135900  1
  O  O21  1  0.48727100  0.75375700  0.95354400  1
  O  O22  1  0.48727100  0.75375700  0.54645600  1
loop_
_geom_bond_atom_site_label_1
_geom_bond_atom_site_label_2
_geom_bond_distance
_geom_bond_site_symmetry_2
Ca0 O3 2.376562 1_555
Ca0 O18 2.410377 1_555
Ca0 O17 2.410377 1_555
Ca0 O5 2.463179 1_555
Ca0 O9 2.548068 1_555
Ca0 O10 2.548068 1_555
Ca0 O7 2.900229 1_564
Ca0 O8 2.900229 1_565
Ca1 O2 2.366381 1_555
Ca1 O21 2.378765 1_555
Ca1 O22 2.378765 1_555
Ca1 O0 2.575506 1_455
Ca1 O10 2.762352 1_555
Ca1 O9 2.762352 1_556
Ca1 O6 2.764703 1_555
Ca1 O7 2.777414 1_565
Ca1 O8 2.777414 1_565
Ca2 O4 2.408517 1_555
Ca2 O6 2.445646 1_555
Ca2 O15 2.486392 1_555
Ca2 O16 2.486392 1_555
Ca2 O14 2.574549 1_555
Ca2 O13 2.574549 1_555
Ca2 O19 2.788604 1_556
Ca2 O20 2.788604 1_555
Ca2 O2 2.984701 1_655
Ca3 O5 2.387383 1_555
Ca3 O11 2.404682 1_555
Ca3 O12 2.404682 1_555
Ca3 O17 2.476292 1_655
Ca3 O18 2.476292 1_655
Ca3 O14 2.687394 1_555
Ca3 O13 2.687394 1_554
Ca3 O3 2.688337 1_555
Ca3 O1 2.854571 1_555
Ca4 O0 2.406845 1_555
Ca4 O14 2.430863 1_555
Ca4 O13 2.430863 1_555
Ca4 O22 2.440998 1_555
Ca4 O21 2.440998 1_555
Ca4 O4 2.678543 1_565
Ca4 O2 2.690599 1_655
Ca4 O6 2.779890 1_555
Ca4 O11 2.918092 1_556
Ca4 O12 2.918092 1_555
Mn0 O0 1.862034 1_555
Mn0 O17 1.916530 1_656
Mn0 O11 1.919846 1_556
Mn0 O7 1.944357 1_665
Mn0 O15 1.952655 1_565
Mn1 O0 1.862034 1_555
Mn1 O18 1.916530 1_655
Mn1 O12 1.919846 1_555
Mn1 O8 1.944357 1_665
Mn1 O16 1.952655 1_565
Mn2 O13 1.933557 1_554
Mn2 O1 1.943503 1_555
Mn2 O9 1.947359 1_655
Mn2 O2 1.957125 1_654
Mn2 O17 1.973128 1_655
Mn2 O15 2.008722 1_554
Mn3 O14 1.933557 1_555
Mn3 O1 1.943503 1_555
Mn3 O10 1.947359 1_655
Mn3 O2 1.957125 1_655
Mn3 O18 1.973128 1_655
Mn3 O16 2.008722 1_555
Mn4 O21 1.915303 1_554
Mn4 O3 1.948308 1_555
Mn4 O19 1.951828 1_565
Mn4 O4 1.961335 1_564
Mn4 O11 1.972614 1_555
Mn4 O7 1.999562 1_564
Mn5 O22 1.915303 1_555
Mn5 O3 1.948308 1_555
Mn5 O20 1.951828 1_565
Mn5 O4 1.961335 1_565
Mn5 O12 1.972614 1_555
Mn5 O8 1.999562 1_565
Mn6 O6 1.925411 1_555
Mn6 O21 1.932847 1_555
Mn6 O9 1.940761 1_556
Mn6 O13 1.943473 1_555
Mn6 O5 1.950734 1_556
Mn6 O19 1.951083 1_556
Mn7 O6 1.925411 1_555
Mn7 O22 1.932847 1_555
Mn7 O10 1.940761 1_555
Mn7 O14 1.943473 1_555
Mn7 O5 1.950734 1_555
Mn7 O20 1.951083 1_555
O1 Sr2 2.442838 1_555
O1 Sr0 2.627684 1_655
O2 Sr1 2.852747 1_555
O3 Sr0 2.792199 1_565
O3 Sr2 3.072553 1_565
O4 Sr1 2.805731 1_555
O5 Sr2 2.799978 1_555
O5 Sr0 2.957454 1_555
O6 Sr1 2.495521 1_555
O7 Sr1 2.622746 1_555
O7 Sr0 2.705554 1_556
O8 Sr1 2.622746 1_555
O8 Sr0 2.705554 1_555
O9 Sr0 2.599226 1_555
O9 Sr1 2.768816 1_554
O10 Sr0 2.599226 1_555
O10 Sr1 2.768816 1_555
O11 Sr2 2.618841 1_565
O12 Sr2 2.618841 1_565
O13 Sr2 2.918012 1_556
O14 Sr2 2.918012 1_555
O15 Sr1 2.668841 1_655
O15 Sr2 2.832113 1_556
O15 Sr0 3.081580 1_656
O16 Sr1 2.668841 1_655
O16 Sr2 2.832113 1_555
O16 Sr0 3.081580 1_655
O19 Sr2 2.477420 1_555
O19 Sr0 2.568103 1_555
O19 Sr1 2.942901 1_554
O20 Sr2 2.477420 1_555
O20 Sr0 2.568103 1_555
O20 Sr1 2.942901 1_555
