# generated using pymatgen
data_PrB2Ir3
_symmetry_space_group_name_H-M   'P 1'
_cell_length_a   11.34894554
_cell_length_b   11.34894480
_cell_length_c   5.93546036
_cell_angle_alpha   90.00000000
_cell_angle_beta   90.00000000
_cell_angle_gamma   120.00001432
_symmetry_Int_Tables_number   1
_chemical_formula_structural   PrB2Ir3
_chemical_formula_sum   'Pr8 B16 Ir24'
_cell_volume   662.05790183
_cell_formula_units_Z   8
loop_
 _symmetry_equiv_pos_site_id
 _symmetry_equiv_pos_as_xyz
  1  'x, y, z'
loop_
 _atom_site_type_symbol
 _atom_site_label
 _atom_site_symmetry_multiplicity
 _atom_site_fract_x
 _atom_site_fract_y
 _atom_site_fract_z
 _atom_site_occupancy
  Pr  Pr0_0  1  0.00000000  0.00000000  0.00000000  1
  Pr  Pr0_1  1  0.00000000  0.00000000  0.50000000  1
  Pr  Pr0_2  1  1.00000000  0.50000000  0.00000000  1
  Pr  Pr0_3  1  1.00000000  0.50000000  0.50000000  1
  Pr  Pr0_4  1  0.50000000  0.00000000  0.00000000  1
  Pr  Pr0_5  1  0.50000000  0.00000000  0.50000000  1
  Pr  Pr0_6  1  0.50000000  0.50000000  0.00000000  1
  Pr  Pr0_7  1  0.50000000  0.50000000  0.50000000  1
  B  B0_0  1  0.33333350  0.16666650  0.00000000  1
  B  B0_1  1  0.33333350  0.16666650  0.50000000  1
  B  B0_2  1  0.33333350  0.66666650  0.00000000  1
  B  B0_3  1  0.33333350  0.66666650  0.50000000  1
  B  B0_4  1  0.83333350  0.16666650  0.00000000  1
  B  B0_5  1  0.83333350  0.16666650  0.50000000  1
  B  B0_6  1  0.83333350  0.66666650  0.00000000  1
  B  B0_7  1  0.83333350  0.66666650  0.50000000  1
  B  B1_0  1  0.16666650  0.33333350  0.00000000  1
  B  B1_1  1  0.16666650  0.33333350  0.50000000  1
  B  B1_2  1  0.16666650  0.83333350  0.00000000  1
  B  B1_3  1  0.16666650  0.83333350  0.50000000  1
  B  B1_4  1  0.66666650  0.33333350  0.00000000  1
  B  B1_5  1  0.66666650  0.33333350  0.50000000  1
  B  B1_6  1  0.66666650  0.83333350  0.00000000  1
  B  B1_7  1  0.66666650  0.83333350  0.50000000  1
  Ir  Ir0_0  1  0.25000000  0.25000000  0.25000000  1
  Ir  Ir0_1  1  0.25000000  0.25000000  0.75000000  1
  Ir  Ir0_2  1  0.25000000  0.75000000  0.25000000  1
  Ir  Ir0_3  1  0.25000000  0.75000000  0.75000000  1
  Ir  Ir0_4  1  0.75000000  0.25000000  0.25000000  1
  Ir  Ir0_5  1  0.75000000  0.25000000  0.75000000  1
  Ir  Ir0_6  1  0.75000000  0.75000000  0.25000000  1
  Ir  Ir0_7  1  0.75000000  0.75000000  0.75000000  1
  Ir  Ir1_0  1  0.25000000  0.00000000  0.25000000  1
  Ir  Ir1_1  1  0.25000000  0.00000000  0.75000000  1
  Ir  Ir1_2  1  0.25000000  0.50000000  0.25000000  1
  Ir  Ir1_3  1  0.25000000  0.50000000  0.75000000  1
  Ir  Ir1_4  1  0.75000000  0.00000000  0.25000000  1
  Ir  Ir1_5  1  0.75000000  0.00000000  0.75000000  1
  Ir  Ir1_6  1  0.75000000  0.50000000  0.25000000  1
  Ir  Ir1_7  1  0.75000000  0.50000000  0.75000000  1
  Ir  Ir2_0  1  0.00000000  0.25000000  0.25000000  1
  Ir  Ir2_1  1  0.00000000  0.25000000  0.75000000  1
  Ir  Ir2_2  1  1.00000000  0.75000000  0.25000000  1
  Ir  Ir2_3  1  1.00000000  0.75000000  0.75000000  1
  Ir  Ir2_4  1  0.50000000  0.25000000  0.25000000  1
  Ir  Ir2_5  1  0.50000000  0.25000000  0.75000000  1
  Ir  Ir2_6  1  0.50000000  0.75000000  0.25000000  1
  Ir  Ir2_7  1  0.50000000  0.75000000  0.75000000  1
loop_
_geom_bond_atom_site_label_1
_geom_bond_atom_site_label_2
_geom_bond_distance
_geom_bond_site_symmetry_2
Pr0_0 Pr0_1 2.967730 1_555
Pr0_0 Pr0_1 2.967730 1_554
Pr0_2 Pr0_3 2.967730 1_554
Pr0_2 Pr0_3 2.967730 1_555
Pr0_4 Pr0_5 2.967730 1_555
Pr0_4 Pr0_5 2.967730 1_554
Pr0_6 Pr0_7 2.967730 1_554
Pr0_6 Pr0_7 2.967730 1_555
B0_0 Ir1_0 2.210238 1_555
B0_0 Ir1_1 2.210238 1_554
B0_0 Ir2_5 2.210238 1_554
B0_0 Ir2_4 2.210238 1_555
B0_0 Ir0_1 2.210242 1_554
B0_0 Ir0_0 2.210242 1_555
B0_0 Pr0_4 3.276155 1_555
B0_0 Pr0_6 3.276159 1_555
B0_0 Pr0_0 3.276160 1_555
B0_1 Ir1_0 2.210238 1_555
B0_1 Ir1_1 2.210238 1_555
B0_1 Ir2_4 2.210238 1_555
B0_1 Ir2_5 2.210238 1_555
B0_1 Ir0_1 2.210242 1_555
B0_1 Ir0_0 2.210242 1_555
B0_1 Pr0_5 3.276155 1_555
B0_1 Pr0_7 3.276159 1_555
B0_1 Pr0_1 3.276160 1_555
B0_2 Ir1_2 2.210238 1_555
B0_2 Ir1_3 2.210238 1_554
B0_2 Ir2_7 2.210238 1_554
B0_2 Ir2_6 2.210238 1_555
B0_2 Ir0_3 2.210242 1_554
B0_2 Ir0_2 2.210242 1_555
B0_2 Pr0_6 3.276155 1_555
B0_2 Pr0_4 3.276159 1_565
B0_2 Pr0_2 3.276160 1_455
B0_3 Ir1_2 2.210238 1_555
B0_3 Ir1_3 2.210238 1_555
B0_3 Ir2_6 2.210238 1_555
B0_3 Ir2_7 2.210238 1_555
B0_3 Ir0_2 2.210242 1_555
B0_3 Ir0_3 2.210242 1_555
B0_3 Pr0_7 3.276155 1_555
B0_3 Pr0_5 3.276159 1_565
B0_3 Pr0_3 3.276160 1_455
B0_4 Ir1_5 2.210238 1_554
B0_4 Ir1_4 2.210238 1_555
B0_4 Ir2_1 2.210238 1_654
B0_4 Ir2_0 2.210238 1_655
B0_4 Ir0_5 2.210242 1_554
B0_4 Ir0_4 2.210242 1_555
B0_4 Pr0_0 3.276155 1_655
B0_4 Pr0_2 3.276159 1_555
B0_4 Pr0_4 3.276160 1_555
B0_5 Ir1_4 2.210238 1_555
B0_5 Ir1_5 2.210238 1_555
B0_5 Ir2_0 2.210238 1_655
B0_5 Ir2_1 2.210238 1_655
B0_5 Ir0_4 2.210242 1_555
B0_5 Ir0_5 2.210242 1_555
B0_5 Pr0_1 3.276155 1_655
B0_5 Pr0_3 3.276159 1_555
B0_5 Pr0_5 3.276160 1_555
B0_6 Ir1_6 2.210238 1_555
B0_6 Ir1_7 2.210238 1_554
B0_6 Ir2_3 2.210238 1_554
B0_6 Ir2_2 2.210238 1_555
B0_6 Ir0_7 2.210242 1_554
B0_6 Ir0_6 2.210242 1_555
B0_6 Pr0_2 3.276155 1_555
B0_6 Pr0_0 3.276159 1_665
B0_6 Pr0_6 3.276160 1_555
B0_7 Ir1_6 2.210238 1_555
B0_7 Ir1_7 2.210238 1_555
B0_7 Ir2_3 2.210238 1_555
B0_7 Ir2_2 2.210238 1_555
B0_7 Ir0_7 2.210242 1_555
B0_7 Ir0_6 2.210242 1_555
B0_7 Pr0_3 3.276155 1_555
B0_7 Pr0_1 3.276159 1_665
B0_7 Pr0_7 3.276160 1_555
B1_0 Ir1_2 2.210238 1_555
B1_0 Ir1_3 2.210238 1_554
B1_0 Ir2_1 2.210238 1_554
B1_0 Ir2_0 2.210238 1_555
B1_0 Ir0_0 2.210242 1_555
B1_0 Ir0_1 2.210242 1_554
B1_0 Pr0_2 3.276155 1_455
B1_0 Pr0_0 3.276159 1_555
B1_0 Pr0_6 3.276160 1_555
B1_1 Ir1_2 2.210238 1_555
B1_1 Ir1_3 2.210238 1_555
B1_1 Ir2_1 2.210238 1_555
B1_1 Ir2_0 2.210238 1_555
B1_1 Ir0_0 2.210242 1_555
B1_1 Ir0_1 2.210242 1_555
B1_1 Pr0_3 3.276155 1_455
B1_1 Pr0_1 3.276159 1_555
B1_1 Pr0_7 3.276160 1_555
B1_2 Ir1_1 2.210238 1_564
B1_2 Ir1_0 2.210238 1_565
B1_2 Ir2_2 2.210238 1_455
B1_2 Ir2_3 2.210238 1_454
B1_2 Ir0_3 2.210242 1_554
B1_2 Ir0_2 2.210242 1_555
B1_2 Pr0_0 3.276155 1_565
B1_2 Pr0_2 3.276159 1_455
B1_2 Pr0_4 3.276160 1_565
B1_3 Ir1_1 2.210238 1_565
B1_3 Ir1_0 2.210238 1_565
B1_3 Ir2_2 2.210238 1_455
B1_3 Ir2_3 2.210238 1_455
B1_3 Ir0_3 2.210242 1_555
B1_3 Ir0_2 2.210242 1_555
B1_3 Pr0_1 3.276155 1_565
B1_3 Pr0_3 3.276159 1_455
B1_3 Pr0_5 3.276160 1_565
B1_4 Ir1_6 2.210238 1_555
B1_4 Ir1_7 2.210238 1_554
B1_4 Ir2_4 2.210238 1_555
B1_4 Ir2_5 2.210238 1_554
B1_4 Ir0_5 2.210242 1_554
B1_4 Ir0_4 2.210242 1_555
B1_4 Pr0_6 3.276155 1_555
B1_4 Pr0_4 3.276159 1_555
B1_4 Pr0_2 3.276160 1_555
B1_5 Ir1_6 2.210238 1_555
B1_5 Ir1_7 2.210238 1_555
B1_5 Ir2_4 2.210238 1_555
B1_5 Ir2_5 2.210238 1_555
B1_5 Ir0_4 2.210242 1_555
B1_5 Ir0_5 2.210242 1_555
B1_5 Pr0_7 3.276155 1_555
B1_5 Pr0_5 3.276159 1_555
B1_5 Pr0_3 3.276160 1_555
B1_6 Ir1_5 2.210238 1_564
B1_6 Ir1_4 2.210238 1_565
B1_6 Ir2_7 2.210238 1_554
B1_6 Ir2_6 2.210238 1_555
B1_6 Ir0_7 2.210242 1_554
B1_6 Ir0_6 2.210242 1_555
B1_6 Pr0_4 3.276155 1_565
B1_6 Pr0_6 3.276159 1_555
B1_6 Pr0_0 3.276160 1_665
B1_7 Ir1_5 2.210238 1_565
B1_7 Ir1_4 2.210238 1_565
B1_7 Ir2_6 2.210238 1_555
B1_7 Ir2_7 2.210238 1_555
B1_7 Ir0_7 2.210242 1_555
B1_7 Ir0_6 2.210242 1_555
B1_7 Pr0_5 3.276155 1_565
B1_7 Pr0_7 3.276159 1_555
B1_7 Pr0_1 3.276160 1_665
Ir0_0 Pr0_1 3.201837 1_555
Ir0_0 Pr0_0 3.201837 1_555
Ir0_0 Pr0_6 3.201837 1_555
Ir0_0 Pr0_7 3.201837 1_555
Ir0_1 Pr0_1 3.201837 1_555
Ir0_1 Pr0_6 3.201837 1_556
Ir0_1 Pr0_0 3.201837 1_556
Ir0_1 Pr0_7 3.201837 1_555
Ir0_2 Pr0_4 3.201837 1_565
Ir0_2 Pr0_3 3.201837 1_455
Ir0_2 Pr0_5 3.201837 1_565
Ir0_2 Pr0_2 3.201837 1_455
Ir0_3 Pr0_2 3.201837 1_456
Ir0_3 Pr0_3 3.201837 1_455
Ir0_3 Pr0_4 3.201837 1_566
Ir0_3 Pr0_5 3.201837 1_565
Ir0_4 Pr0_2 3.201837 1_555
Ir0_4 Pr0_4 3.201837 1_555
Ir0_4 Pr0_5 3.201837 1_555
Ir0_4 Pr0_3 3.201837 1_555
Ir0_5 Pr0_5 3.201837 1_555
Ir0_5 Pr0_4 3.201837 1_556
Ir0_5 Pr0_2 3.201837 1_556
Ir0_5 Pr0_3 3.201837 1_555
Ir0_6 Pr0_6 3.201837 1_555
Ir0_6 Pr0_7 3.201837 1_555
Ir0_6 Pr0_0 3.201837 1_665
Ir0_6 Pr0_1 3.201837 1_665
Ir0_7 Pr0_7 3.201837 1_555
Ir0_7 Pr0_6 3.201837 1_556
Ir0_7 Pr0_0 3.201837 1_666
Ir0_7 Pr0_1 3.201837 1_665
Ir1_0 Pr0_1 3.201838 1_555
Ir1_0 Pr0_0 3.201838 1_555
Ir1_0 Pr0_4 3.201838 1_555
Ir1_0 Pr0_5 3.201838 1_555
Ir1_1 Pr0_1 3.201838 1_555
Ir1_1 Pr0_0 3.201838 1_556
Ir1_1 Pr0_4 3.201838 1_556
Ir1_1 Pr0_5 3.201838 1_555
Ir1_2 Pr0_7 3.201838 1_555
Ir1_2 Pr0_6 3.201838 1_555
Ir1_2 Pr0_3 3.201838 1_455
Ir1_2 Pr0_2 3.201838 1_455
Ir1_3 Pr0_6 3.201838 1_556
Ir1_3 Pr0_7 3.201838 1_555
Ir1_3 Pr0_2 3.201838 1_456
Ir1_3 Pr0_3 3.201838 1_455
Ir1_4 Pr0_0 3.201838 1_655
Ir1_4 Pr0_4 3.201838 1_555
Ir1_4 Pr0_1 3.201838 1_655
Ir1_4 Pr0_5 3.201838 1_555
Ir1_5 Pr0_0 3.201838 1_656
Ir1_5 Pr0_1 3.201838 1_655
Ir1_5 Pr0_5 3.201838 1_555
Ir1_5 Pr0_4 3.201838 1_556
Ir1_6 Pr0_3 3.201838 1_555
Ir1_6 Pr0_2 3.201838 1_555
Ir1_6 Pr0_7 3.201838 1_555
Ir1_6 Pr0_6 3.201838 1_555
Ir1_7 Pr0_3 3.201838 1_555
Ir1_7 Pr0_2 3.201838 1_556
Ir1_7 Pr0_6 3.201838 1_556
Ir1_7 Pr0_7 3.201838 1_555
Ir2_0 Pr0_1 3.201838 1_555
Ir2_0 Pr0_0 3.201838 1_555
Ir2_0 Pr0_3 3.201838 1_455
Ir2_0 Pr0_2 3.201838 1_455
Ir2_1 Pr0_1 3.201838 1_555
Ir2_1 Pr0_0 3.201838 1_556
Ir2_1 Pr0_2 3.201838 1_456
Ir2_1 Pr0_3 3.201838 1_455
Ir2_2 Pr0_0 3.201838 1_665
Ir2_2 Pr0_1 3.201838 1_665
Ir2_2 Pr0_3 3.201838 1_555
Ir2_2 Pr0_2 3.201838 1_555
Ir2_3 Pr0_0 3.201838 1_666
Ir2_3 Pr0_1 3.201838 1_665
Ir2_3 Pr0_2 3.201838 1_556
Ir2_3 Pr0_3 3.201838 1_555
Ir2_4 Pr0_6 3.201838 1_555
Ir2_4 Pr0_4 3.201838 1_555
Ir2_4 Pr0_5 3.201838 1_555
Ir2_4 Pr0_7 3.201838 1_555
Ir2_5 Pr0_5 3.201838 1_555
Ir2_5 Pr0_6 3.201838 1_556
Ir2_5 Pr0_4 3.201838 1_556
Ir2_5 Pr0_7 3.201838 1_555
Ir2_6 Pr0_4 3.201838 1_565
Ir2_6 Pr0_5 3.201838 1_565
Ir2_6 Pr0_7 3.201838 1_555
Ir2_6 Pr0_6 3.201838 1_555
Ir2_7 Pr0_4 3.201838 1_566
Ir2_7 Pr0_5 3.201838 1_565
Ir2_7 Pr0_6 3.201838 1_556
Ir2_7 Pr0_7 3.201838 1_555
