# generated using pymatgen
data_BaTbEuSnO6
_symmetry_space_group_name_H-M   'P 1'
_cell_length_a   8.53337446
_cell_length_b   8.48637053
_cell_length_c   8.52041586
_cell_angle_alpha   90.00000000
_cell_angle_beta   90.00000000
_cell_angle_gamma   90.00000000
_symmetry_Int_Tables_number   1
_chemical_formula_structural   BaTbEuSnO6
_chemical_formula_sum   'Ba4 Tb4 Eu4 Sn4 O24'
_cell_volume   617.02617212
_cell_formula_units_Z   4
loop_
 _symmetry_equiv_pos_site_id
 _symmetry_equiv_pos_as_xyz
  1  'x, y, z'
loop_
 _atom_site_type_symbol
 _atom_site_label
 _atom_site_symmetry_multiplicity
 _atom_site_fract_x
 _atom_site_fract_y
 _atom_site_fract_z
 _atom_site_occupancy
  Ba  Ba0  1  0.00000000  0.00000000  -0.00000000  1
  Ba  Ba1  1  0.50000000  0.50000000  0.50000000  1
  Ba  Ba2  1  0.50000000  0.00000000  0.50000000  1
  Ba  Ba3  1  -0.00000000  0.50000000  0.00000000  1
  Tb  Tb0  1  0.25000000  0.25000000  0.25000000  1
  Tb  Tb1  1  0.75000000  0.75000000  0.25000000  1
  Tb  Tb2  1  0.75000000  0.25000000  0.75000000  1
  Tb  Tb3  1  0.25000000  0.75000000  0.75000000  1
  Eu  Eu0  1  0.00000000  0.50000000  0.50000000  1
  Eu  Eu1  1  0.50000000  0.50000000  0.00000000  1
  Eu  Eu2  1  0.50000000  0.00000000  0.00000000  1
  Eu  Eu3  1  0.00000000  0.00000000  0.50000000  1
  Sn  Sn0  1  0.75000000  0.75000000  0.75000000  1
  Sn  Sn1  1  0.25000000  0.25000000  0.75000000  1
  Sn  Sn2  1  0.25000000  0.75000000  0.25000000  1
  Sn  Sn3  1  0.75000000  0.25000000  0.25000000  1
  O  O0  1  0.99098884  0.19122187  0.28561754  1
  O  O1  1  0.00901116  0.80877813  0.28561754  1
  O  O2  1  0.00901116  0.19122187  0.71438246  1
  O  O3  1  0.99098884  0.80877813  0.71438246  1
  O  O4  1  0.30567384  0.99071905  0.20329645  1
  O  O5  1  0.30567384  0.00928095  0.79670355  1
  O  O6  1  0.69432616  0.00928095  0.20329645  1
  O  O7  1  0.69432616  0.99071905  0.79670355  1
  O  O8  1  0.22656577  0.28374286  0.99088605  1
  O  O9  1  0.77343423  0.28374286  0.00911395  1
  O  O10  1  0.22656577  0.71625714  0.00911395  1
  O  O11  1  0.77343423  0.71625714  0.99088605  1
  O  O12  1  0.50901116  0.30877813  0.21438246  1
  O  O13  1  0.49098884  0.69122187  0.21438246  1
  O  O14  1  0.49098884  0.30877813  0.78561754  1
  O  O15  1  0.50901116  0.69122187  0.78561754  1
  O  O16  1  0.19432616  0.50928095  0.29670355  1
  O  O17  1  0.19432616  0.49071905  0.70329645  1
  O  O18  1  0.80567384  0.49071905  0.29670355  1
  O  O19  1  0.80567384  0.50928095  0.70329645  1
  O  O20  1  0.27343423  0.21625714  0.50911395  1
  O  O21  1  0.72656577  0.21625714  0.49088605  1
  O  O22  1  0.27343423  0.78374286  0.49088605  1
  O  O23  1  0.72656577  0.78374286  0.50911395  1
loop_
_geom_bond_atom_site_label_1
_geom_bond_atom_site_label_2
_geom_bond_distance
_geom_bond_site_symmetry_2
Ba0 O2 2.926028 1_554
Ba0 O3 2.926028 1_444
Ba0 O1 2.926028 1_545
Ba0 O0 2.926028 1_455
Ba0 O8 3.089039 1_554
Ba0 O9 3.089039 1_455
Ba0 O11 3.089039 1_444
Ba0 O10 3.089039 1_545
Ba0 O5 3.132175 1_554
Ba0 O7 3.132175 1_444
Ba0 O6 3.132175 1_455
Ba0 O4 3.132175 1_545
Ba1 O15 2.926028 1_555
Ba1 O14 2.926028 1_555
Ba1 O12 2.926028 1_555
Ba1 O13 2.926028 1_555
Ba1 O21 3.089039 1_555
Ba1 O22 3.089039 1_555
Ba1 O20 3.089039 1_555
Ba1 O23 3.089039 1_555
Ba1 O17 3.132175 1_555
Ba1 O19 3.132175 1_555
Ba1 O18 3.132175 1_555
Ba1 O16 3.132175 1_555
Ba2 O20 2.666843 1_555
Ba2 O22 2.666843 1_545
Ba2 O21 2.666843 1_555
Ba2 O23 2.666843 1_545
Ba2 O4 3.024400 1_545
Ba2 O6 3.024400 1_555
Ba2 O5 3.024400 1_555
Ba2 O7 3.024400 1_545
Ba3 O10 2.666843 1_555
Ba3 O11 2.666843 1_454
Ba3 O8 2.666843 1_554
Ba3 O9 2.666843 1_455
Ba3 O19 3.024400 1_454
Ba3 O17 3.024400 1_554
Ba3 O18 3.024400 1_455
Ba3 O16 3.024400 1_555
Eu0 O17 2.399258 1_555
Eu0 O16 2.399258 1_555
Eu0 O19 2.399258 1_455
Eu0 O18 2.399258 1_455
Eu1 O12 2.444564 1_555
Eu1 O13 2.444564 1_555
Eu1 O14 2.444564 1_554
Eu1 O15 2.444564 1_554
Eu1 O10 2.969595 1_555
Eu1 O11 2.969595 1_554
Eu1 O9 2.969595 1_555
Eu1 O8 2.969595 1_554
Eu2 O6 2.399258 1_555
Eu2 O5 2.399258 1_554
Eu2 O4 2.399258 1_545
Eu2 O7 2.399258 1_544
Eu3 O1 2.444564 1_545
Eu3 O0 2.444564 1_455
Eu3 O2 2.444564 1_555
Eu3 O3 2.444564 1_445
Eu3 O23 2.969595 1_445
Eu3 O22 2.969595 1_545
Eu3 O20 2.969595 1_555
Eu3 O21 2.969595 1_455
O0 Sn3 2.137730 1_555
O0 Tb0 2.286060 1_655
O1 Sn2 2.137730 1_555
O1 Tb1 2.286060 1_455
O2 Sn1 2.137730 1_555
O2 Tb2 2.286060 1_455
O3 Sn0 2.137730 1_555
O3 Tb3 2.286060 1_655
O4 Sn2 2.134764 1_555
O4 Tb0 2.285961 1_565
O5 Sn1 2.134764 1_555
O5 Tb3 2.285961 1_545
O6 Sn3 2.134764 1_555
O6 Tb1 2.285961 1_545
O7 Sn0 2.134764 1_555
O7 Tb2 2.285961 1_565
O8 Sn1 2.081955 1_555
O8 Tb0 2.235215 1_556
O9 Sn3 2.081955 1_555
O9 Tb2 2.235215 1_554
O10 Sn2 2.081955 1_555
O10 Tb3 2.235215 1_554
O11 Sn0 2.081955 1_555
O11 Tb1 2.235215 1_556
O12 Sn3 2.137730 1_555
O12 Tb0 2.286060 1_555
O13 Sn2 2.137730 1_555
O13 Tb1 2.286060 1_555
O14 Sn1 2.137730 1_555
O14 Tb2 2.286060 1_555
O15 Sn0 2.137730 1_555
O15 Tb3 2.286060 1_555
O16 Sn2 2.134764 1_555
O16 Tb0 2.285961 1_555
O17 Sn1 2.134764 1_555
O17 Tb3 2.285961 1_555
O18 Sn3 2.134764 1_555
O18 Tb1 2.285961 1_555
O19 Sn0 2.134764 1_555
O19 Tb2 2.285961 1_555
O20 Sn1 2.081955 1_555
O20 Tb0 2.235215 1_555
O21 Sn3 2.081955 1_555
O21 Tb2 2.235215 1_555
O22 Sn2 2.081955 1_555
O22 Tb3 2.235215 1_555
O23 Sn0 2.081955 1_555
O23 Tb1 2.235215 1_555
