# generated using pymatgen
data_ZrInPt2
_symmetry_space_group_name_H-M   'P 1'
_cell_length_a   6.80034400
_cell_length_b   6.80034400
_cell_length_c   13.21561200
_cell_angle_alpha   90.00000000
_cell_angle_beta   90.00000000
_cell_angle_gamma   90.00000000
_symmetry_Int_Tables_number   1
_chemical_formula_structural   ZrInPt2
_chemical_formula_sum   'Zr8 In8 Pt16'
_cell_volume   611.15172836
_cell_formula_units_Z   8
loop_
 _symmetry_equiv_pos_site_id
 _symmetry_equiv_pos_as_xyz
  1  'x, y, z'
loop_
 _atom_site_type_symbol
 _atom_site_label
 _atom_site_symmetry_multiplicity
 _atom_site_fract_x
 _atom_site_fract_y
 _atom_site_fract_z
 _atom_site_occupancy
  Zr  Zr0_0  1  0.00000000  0.00000000  0.25000000  1
  Zr  Zr0_1  1  0.00000000  0.00000000  0.75000000  1
  Zr  Zr0_2  1  0.00000000  0.50000000  0.25000000  1
  Zr  Zr0_3  1  0.00000000  0.50000000  0.75000000  1
  Zr  Zr0_4  1  0.50000000  0.00000000  0.25000000  1
  Zr  Zr0_5  1  0.50000000  0.00000000  0.75000000  1
  Zr  Zr0_6  1  0.50000000  0.50000000  0.25000000  1
  Zr  Zr0_7  1  0.50000000  0.50000000  0.75000000  1
  In  In0_0  1  0.00000000  0.00000000  0.00000000  1
  In  In0_1  1  0.00000000  0.00000000  0.50000000  1
  In  In0_2  1  0.00000000  0.50000000  0.00000000  1
  In  In0_3  1  0.00000000  0.50000000  0.50000000  1
  In  In0_4  1  0.50000000  0.00000000  0.00000000  1
  In  In0_5  1  0.50000000  0.00000000  0.50000000  1
  In  In0_6  1  0.50000000  0.50000000  0.00000000  1
  In  In0_7  1  0.50000000  0.50000000  0.50000000  1
  Pt  Pt0_0  1  0.25000000  0.25000000  0.13571650  1
  Pt  Pt0_1  1  0.25000000  0.25000000  0.63571650  1
  Pt  Pt0_2  1  0.25000000  0.75000000  0.13571650  1
  Pt  Pt0_3  1  0.25000000  0.75000000  0.63571650  1
  Pt  Pt0_4  1  0.75000000  0.25000000  0.13571650  1
  Pt  Pt0_5  1  0.75000000  0.25000000  0.63571650  1
  Pt  Pt0_6  1  0.75000000  0.75000000  0.13571650  1
  Pt  Pt0_7  1  0.75000000  0.75000000  0.63571650  1
  Pt  Pt1_0  1  0.25000000  0.25000000  0.36428350  1
  Pt  Pt1_1  1  0.25000000  0.25000000  0.86428350  1
  Pt  Pt1_2  1  0.25000000  0.75000000  0.36428350  1
  Pt  Pt1_3  1  0.25000000  0.75000000  0.86428350  1
  Pt  Pt1_4  1  0.75000000  0.25000000  0.36428350  1
  Pt  Pt1_5  1  0.75000000  0.25000000  0.86428350  1
  Pt  Pt1_6  1  0.75000000  0.75000000  0.36428350  1
  Pt  Pt1_7  1  0.75000000  0.75000000  0.86428350  1
loop_
_geom_bond_atom_site_label_1
_geom_bond_atom_site_label_2
_geom_bond_distance
_geom_bond_site_symmetry_2
In0_0 Pt0_4 2.999584 1_455
In0_0 Pt0_2 2.999584 1_545
In0_0 Pt0_6 2.999584 1_445
In0_0 Pt0_0 2.999584 1_555
In0_0 Pt1_7 2.999584 1_444
In0_0 Pt1_5 2.999584 1_454
In0_0 Pt1_1 2.999584 1_554
In0_0 Pt1_3 2.999584 1_544
In0_0 Zr0_0 3.303903 1_555
In0_0 Zr0_1 3.303903 1_554
In0_0 In0_4 3.400172 1_555
In0_0 In0_4 3.400172 1_455
In0_0 In0_2 3.400172 1_545
In0_0 In0_2 3.400172 1_555
In0_1 Pt1_0 2.999584 1_555
In0_1 Pt1_4 2.999584 1_455
In0_1 Pt0_3 2.999584 1_545
In0_1 Pt1_2 2.999584 1_545
In0_1 Pt1_6 2.999584 1_445
In0_1 Pt0_7 2.999584 1_445
In0_1 Pt0_1 2.999584 1_555
In0_1 Pt0_5 2.999584 1_455
In0_1 Zr0_0 3.303903 1_555
In0_1 Zr0_1 3.303903 1_555
In0_1 In0_3 3.400172 1_545
In0_1 In0_5 3.400172 1_455
In0_1 In0_5 3.400172 1_555
In0_1 In0_3 3.400172 1_555
In0_2 Pt0_2 2.999584 1_555
In0_2 Pt0_6 2.999584 1_455
In0_2 Pt0_4 2.999584 1_455
In0_2 Pt0_0 2.999584 1_555
In0_2 Pt1_3 2.999584 1_554
In0_2 Pt1_5 2.999584 1_454
In0_2 Pt1_7 2.999584 1_454
In0_2 Pt1_1 2.999584 1_554
In0_2 Zr0_2 3.303903 1_555
In0_2 Zr0_3 3.303903 1_554
In0_2 In0_6 3.400172 1_455
In0_2 In0_6 3.400172 1_555
In0_3 Pt1_0 2.999584 1_555
In0_3 Pt1_4 2.999584 1_455
In0_3 Pt0_3 2.999584 1_555
In0_3 Pt1_6 2.999584 1_455
In0_3 Pt0_7 2.999584 1_455
In0_3 Pt1_2 2.999584 1_555
In0_3 Pt0_1 2.999584 1_555
In0_3 Pt0_5 2.999584 1_455
In0_3 Zr0_2 3.303903 1_555
In0_3 Zr0_3 3.303903 1_555
In0_3 In0_7 3.400172 1_455
In0_3 In0_7 3.400172 1_555
In0_4 Pt0_2 2.999584 1_545
In0_4 Pt0_0 2.999584 1_555
In0_4 Pt0_4 2.999584 1_555
In0_4 Pt0_6 2.999584 1_545
In0_4 Pt1_7 2.999584 1_544
In0_4 Pt1_3 2.999584 1_544
In0_4 Pt1_1 2.999584 1_554
In0_4 Pt1_5 2.999584 1_554
In0_4 Zr0_4 3.303903 1_555
In0_4 Zr0_5 3.303903 1_554
In0_4 In0_6 3.400172 1_555
In0_4 In0_6 3.400172 1_545
In0_5 Pt1_0 2.999584 1_555
In0_5 Pt1_6 2.999584 1_545
In0_5 Pt0_3 2.999584 1_545
In0_5 Pt0_5 2.999584 1_555
In0_5 Pt1_2 2.999584 1_545
In0_5 Pt0_7 2.999584 1_545
In0_5 Pt1_4 2.999584 1_555
In0_5 Pt0_1 2.999584 1_555
In0_5 Zr0_4 3.303903 1_555
In0_5 Zr0_5 3.303903 1_555
In0_5 In0_7 3.400172 1_555
In0_5 In0_7 3.400172 1_545
In0_6 Pt0_2 2.999584 1_555
In0_6 Pt0_6 2.999584 1_555
In0_6 Pt0_0 2.999584 1_555
In0_6 Pt0_4 2.999584 1_555
In0_6 Pt1_3 2.999584 1_554
In0_6 Pt1_7 2.999584 1_554
In0_6 Pt1_1 2.999584 1_554
In0_6 Pt1_5 2.999584 1_554
In0_6 Zr0_6 3.303903 1_555
In0_6 Zr0_7 3.303903 1_554
In0_7 Pt1_0 2.999584 1_555
In0_7 Pt0_5 2.999584 1_555
In0_7 Pt1_6 2.999584 1_555
In0_7 Pt0_3 2.999584 1_555
In0_7 Pt1_4 2.999584 1_555
In0_7 Pt1_2 2.999584 1_555
In0_7 Pt0_7 2.999584 1_555
In0_7 Pt0_1 2.999584 1_555
In0_7 Zr0_6 3.303903 1_555
In0_7 Zr0_7 3.303903 1_555
Pt0_0 Zr0_0 2.839308 1_555
Pt0_0 Zr0_6 2.839308 1_555
Pt0_0 Zr0_4 2.839308 1_555
Pt0_0 Zr0_2 2.839308 1_555
Pt0_0 Pt1_0 3.020653 1_555
Pt0_1 Zr0_5 2.839308 1_555
Pt0_1 Zr0_3 2.839308 1_555
Pt0_1 Zr0_7 2.839308 1_555
Pt0_1 Zr0_1 2.839308 1_555
Pt0_1 Pt1_1 3.020653 1_555
Pt0_2 Zr0_6 2.839308 1_555
Pt0_2 Zr0_0 2.839308 1_565
Pt0_2 Zr0_4 2.839308 1_565
Pt0_2 Zr0_2 2.839308 1_555
Pt0_2 Pt1_2 3.020653 1_555
Pt0_3 Zr0_1 2.839308 1_565
Pt0_3 Zr0_3 2.839308 1_555
Pt0_3 Zr0_5 2.839308 1_565
Pt0_3 Zr0_7 2.839308 1_555
Pt0_3 Pt1_3 3.020653 1_555
Pt0_4 Zr0_2 2.839308 1_655
Pt0_4 Zr0_6 2.839308 1_555
Pt0_4 Zr0_0 2.839308 1_655
Pt0_4 Zr0_4 2.839308 1_555
Pt0_4 Pt1_4 3.020653 1_555
Pt0_5 Zr0_3 2.839308 1_655
Pt0_5 Zr0_5 2.839308 1_555
Pt0_5 Zr0_1 2.839308 1_655
Pt0_5 Zr0_7 2.839308 1_555
Pt0_5 Pt1_5 3.020653 1_555
Pt0_6 Zr0_2 2.839308 1_655
Pt0_6 Zr0_6 2.839308 1_555
Pt0_6 Zr0_4 2.839308 1_565
Pt0_6 Zr0_0 2.839308 1_665
Pt0_6 Pt1_6 3.020653 1_555
Pt0_7 Zr0_3 2.839308 1_655
Pt0_7 Zr0_1 2.839308 1_665
Pt0_7 Zr0_5 2.839308 1_565
Pt0_7 Zr0_7 2.839308 1_555
Pt0_7 Pt1_7 3.020653 1_555
Pt1_0 Zr0_0 2.839308 1_555
Pt1_0 Zr0_6 2.839308 1_555
Pt1_0 Zr0_4 2.839308 1_555
Pt1_0 Zr0_2 2.839308 1_555
Pt1_1 Zr0_3 2.839308 1_555
Pt1_1 Zr0_1 2.839308 1_555
Pt1_1 Zr0_7 2.839308 1_555
Pt1_1 Zr0_5 2.839308 1_555
Pt1_2 Zr0_6 2.839308 1_555
Pt1_2 Zr0_0 2.839308 1_565
Pt1_2 Zr0_4 2.839308 1_565
Pt1_2 Zr0_2 2.839308 1_555
Pt1_3 Zr0_3 2.839308 1_555
Pt1_3 Zr0_5 2.839308 1_565
Pt1_3 Zr0_1 2.839308 1_565
Pt1_3 Zr0_7 2.839308 1_555
Pt1_4 Zr0_2 2.839308 1_655
Pt1_4 Zr0_6 2.839308 1_555
Pt1_4 Zr0_0 2.839308 1_655
Pt1_4 Zr0_4 2.839308 1_555
Pt1_5 Zr0_1 2.839308 1_655
Pt1_5 Zr0_7 2.839308 1_555
Pt1_5 Zr0_3 2.839308 1_655
Pt1_5 Zr0_5 2.839308 1_555
Pt1_6 Zr0_2 2.839308 1_655
Pt1_6 Zr0_6 2.839308 1_555
Pt1_6 Zr0_4 2.839308 1_565
Pt1_6 Zr0_0 2.839308 1_665
Pt1_7 Zr0_5 2.839308 1_565
Pt1_7 Zr0_1 2.839308 1_665
Pt1_7 Zr0_7 2.839308 1_555
Pt1_7 Zr0_3 2.839308 1_655
