# generated using pymatgen
data_Sr2MnSnO6
_symmetry_space_group_name_H-M   'P 1'
_cell_length_a   5.63969519
_cell_length_b   5.63969519
_cell_length_c   5.63969519
_cell_angle_alpha   60.00000000
_cell_angle_beta   60.00000000
_cell_angle_gamma   60.00000000
_symmetry_Int_Tables_number   1
_chemical_formula_structural   Sr2MnSnO6
_chemical_formula_sum   'Sr2 Mn1 Sn1 O6'
_cell_volume   126.83873379
_cell_formula_units_Z   1
loop_
 _symmetry_equiv_pos_site_id
 _symmetry_equiv_pos_as_xyz
  1  'x, y, z'
loop_
 _atom_site_type_symbol
 _atom_site_label
 _atom_site_symmetry_multiplicity
 _atom_site_fract_x
 _atom_site_fract_y
 _atom_site_fract_z
 _atom_site_occupancy
  Sr  Sr0  1  0.25000000  0.25000000  0.25000000  1
  Sr  Sr1  1  0.75000000  0.75000000  0.75000000  1
  Mn  Mn0  1  0.00000000  -0.00000000  -0.00000000  1
  Sn  Sn0  1  0.50000000  0.50000000  0.50000000  1
  O  O0  1  0.75768386  0.24231614  0.24231614  1
  O  O1  1  0.24231614  0.75768386  0.75768386  1
  O  O2  1  0.75768386  0.24231614  0.75768386  1
  O  O3  1  0.24231614  0.75768386  0.24231614  1
  O  O4  1  0.75768386  0.75768386  0.24231614  1
  O  O5  1  0.24231614  0.24231614  0.75768386  1
loop_
_geom_bond_atom_site_label_1
_geom_bond_atom_site_label_2
_geom_bond_distance
_geom_bond_site_symmetry_2
Mn0 O1 1.932649 1_544
Mn0 O5 1.932649 1_554
Mn0 O0 1.932649 1_455
Mn0 O3 1.932649 1_545
Mn0 O2 1.932649 1_454
Mn0 O4 1.932649 1_445
O0 Sn0 2.055218 1_555
O0 Sr1 2.820513 1_554
O0 Sr0 2.820513 1_655
O0 Sr0 2.820513 1_555
O0 Sr1 2.820513 1_545
O1 Sn0 2.055218 1_555
O1 Sr0 2.820513 1_556
O1 Sr1 2.820513 1_455
O1 Sr1 2.820513 1_555
O1 Sr0 2.820513 1_565
O2 Sn0 2.055218 1_555
O2 Sr0 2.820513 1_556
O2 Sr1 2.820513 1_555
O2 Sr0 2.820513 1_655
O2 Sr1 2.820513 1_545
O3 Sn0 2.055218 1_555
O3 Sr1 2.820513 1_455
O3 Sr1 2.820513 1_554
O3 Sr0 2.820513 1_565
O3 Sr0 2.820513 1_555
O4 Sn0 2.055218 1_555
O4 Sr1 2.820513 1_554
O4 Sr1 2.820513 1_555
O4 Sr0 2.820513 1_565
O4 Sr0 2.820513 1_655
O5 Sn0 2.055218 1_555
O5 Sr0 2.820513 1_556
O5 Sr1 2.820513 1_455
O5 Sr1 2.820513 1_545
O5 Sr0 2.820513 1_555
