# generated using pymatgen
data_Mn2GaCu3
_symmetry_space_group_name_H-M   'P 1'
_cell_length_a   4.85532576
_cell_length_b   4.85532576
_cell_length_c   4.85532556
_cell_angle_alpha   60.12409242
_cell_angle_beta   60.12409242
_cell_angle_gamma   60.12409465
_symmetry_Int_Tables_number   1
_chemical_formula_structural   Mn2GaCu3
_chemical_formula_sum   'Mn2 Ga1 Cu3'
_cell_volume   81.16322996
_cell_formula_units_Z   1
loop_
 _symmetry_equiv_pos_site_id
 _symmetry_equiv_pos_as_xyz
  1  'x, y, z'
loop_
 _atom_site_type_symbol
 _atom_site_label
 _atom_site_symmetry_multiplicity
 _atom_site_fract_x
 _atom_site_fract_y
 _atom_site_fract_z
 _atom_site_occupancy
  Mn  Mn0  1  0.62513100  0.62513100  0.62513100  1
  Mn  Mn1  1  0.37486900  0.37486900  0.37486900  1
  Ga  Ga0  1  0.00000000  0.00000000  0.00000000  1
  Cu  Cu0  1  0.00000000  0.50000000  0.00000000  1
  Cu  Cu1  1  0.50000000  0.00000000  0.00000000  1
  Cu  Cu2  1  0.00000000  0.00000000  0.50000000  1
loop_
_geom_bond_atom_site_label_1
_geom_bond_atom_site_label_2
_geom_bond_distance
_geom_bond_site_symmetry_2
Mn0 Mn1 2.973589 1_555
Mn0 Mn1 2.976881 1_556
Mn0 Mn1 2.976881 1_655
Mn0 Mn1 2.976881 1_565
Ga0 Mn1 2.851512 1_554
Ga0 Mn0 2.851512 1_445
Ga0 Mn1 2.851513 1_455
Ga0 Mn1 2.851513 1_545
Ga0 Mn0 2.851513 1_454
Ga0 Mn0 2.851513 1_544
Cu0 Ga0 2.427663 1_565
Cu0 Ga0 2.427663 1_555
Cu0 Cu2 2.432215 1_555
Cu0 Cu2 2.432215 1_564
Cu0 Cu1 2.432215 1_465
Cu0 Cu1 2.432215 1_555
Cu0 Mn1 2.844605 1_555
Cu0 Mn0 2.844605 1_454
Cu0 Mn0 2.850654 1_455
Cu0 Mn1 2.850654 1_554
Cu0 Mn1 2.850654 1_455
Cu0 Mn0 2.850654 1_554
Cu1 Ga0 2.427663 1_555
Cu1 Ga0 2.427663 1_655
Cu1 Cu2 2.432215 1_555
Cu1 Cu2 2.432215 1_654
Cu1 Mn1 2.844605 1_555
Cu1 Mn0 2.844605 1_544
Cu1 Mn0 2.850654 1_545
Cu1 Mn1 2.850654 1_554
Cu1 Mn1 2.850654 1_545
Cu1 Mn0 2.850654 1_554
Cu2 Ga0 2.427663 1_555
Cu2 Ga0 2.427663 1_556
Cu2 Mn0 2.844605 1_445
Cu2 Mn1 2.844605 1_555
Cu2 Mn0 2.850654 1_455
Cu2 Mn1 2.850654 1_455
Cu2 Mn0 2.850654 1_545
Cu2 Mn1 2.850654 1_545
