# generated using pymatgen
data_AlH16(C3O7)2
_symmetry_space_group_name_H-M   'P 1'
_cell_length_a   15.59564945
_cell_length_b   15.59564945
_cell_length_c   15.95755984
_cell_angle_alpha   119.25255982
_cell_angle_beta   119.25255982
_cell_angle_gamma   90.00000000
_symmetry_Int_Tables_number   1
_chemical_formula_structural   AlH16(C3O7)2
_chemical_formula_sum   'Al8 H128 C48 O112'
_cell_volume   2805.33219531
_cell_formula_units_Z   8
loop_
 _symmetry_equiv_pos_site_id
 _symmetry_equiv_pos_as_xyz
  1  'x, y, z'
loop_
 _atom_site_type_symbol
 _atom_site_label
 _atom_site_symmetry_multiplicity
 _atom_site_fract_x
 _atom_site_fract_y
 _atom_site_fract_z
 _atom_site_occupancy
  Al  Al0  1  0.75000000  0.58151469  -0.00000000  1
  Al  Al1  1  0.75000000  0.08151469  -0.00000000  1
  Al  Al2  1  0.91848531  0.25000000  0.50000000  1
  Al  Al3  1  0.08151469  0.75000000  0.50000000  1
  Al  Al4  1  0.25000000  0.41848531  0.00000000  1
  Al  Al5  1  0.25000000  0.91848531  -0.00000000  1
  Al  Al6  1  0.41848531  0.25000000  0.50000000  1
  Al  Al7  1  0.58151469  0.75000000  0.50000000  1
  H  H0  1  0.69398784  0.73725986  0.98788673  1
  H  H1  1  0.79389890  0.23725986  0.98788673  1
  H  H2  1  0.75062688  0.29389890  0.48788673  1
  H  H3  1  0.23725986  0.79389890  0.48788673  1
  H  H4  1  0.30601216  0.26274014  0.01211327  1
  H  H5  1  0.20610110  0.76274014  0.01211327  1
  H  H6  1  0.24937312  0.70610110  0.51211327  1
  H  H7  1  0.76274014  0.20610110  0.51211327  1
  H  H8  1  0.19398784  0.25062688  0.98788673  1
  H  H9  1  0.29389890  0.75062688  0.98788673  1
  H  H10  1  0.25062688  0.19398784  0.48788673  1
  H  H11  1  0.73725986  0.69398784  0.48788673  1
  H  H12  1  0.80601216  0.74937312  0.01211327  1
  H  H13  1  0.70610110  0.24937312  0.01211327  1
  H  H14  1  0.74937312  0.80601216  0.51211327  1
  H  H15  1  0.26274014  0.30601216  0.51211327  1
  H  H16  1  0.57838754  0.60373166  0.98466438  1
  H  H17  1  0.90627684  0.10373166  0.98466438  1
  H  H18  1  0.88093272  0.40627684  0.48466438  1
  H  H19  1  0.10373166  0.90627684  0.48466438  1
  H  H20  1  0.42161246  0.39626834  0.01533562  1
  H  H21  1  0.09372316  0.89626834  0.01533562  1
  H  H22  1  0.11906728  0.59372316  0.51533562  1
  H  H23  1  0.89626834  0.09372316  0.51533562  1
  H  H24  1  0.07838754  0.38093272  0.98466438  1
  H  H25  1  0.40627684  0.88093272  0.98466438  1
  H  H26  1  0.38093272  0.07838754  0.48466438  1
  H  H27  1  0.60373166  0.57838754  0.48466438  1
  H  H28  1  0.92161246  0.61906728  0.01533562  1
  H  H29  1  0.59372316  0.11906728  0.01533562  1
  H  H30  1  0.61906728  0.92161246  0.51533562  1
  H  H31  1  0.39626834  0.42161246  0.51533562  1
  H  H32  1  0.55254060  0.48427461  0.88679511  1
  H  H33  1  0.83425451  0.98427461  0.88679511  1
  H  H34  1  0.90252050  0.33425451  0.38679511  1
  H  H35  1  0.98427461  0.83425451  0.38679511  1
  H  H36  1  0.44745940  0.51572539  0.11320489  1
  H  H37  1  0.16574549  0.01572539  0.11320489  1
  H  H38  1  0.09747950  0.66574549  0.61320489  1
  H  H39  1  0.01572539  0.16574549  0.61320489  1
  H  H40  1  0.05254060  0.40252050  0.88679511  1
  H  H41  1  0.33425451  0.90252050  0.88679511  1
  H  H42  1  0.40252050  0.05254060  0.38679511  1
  H  H43  1  0.48427461  0.55254060  0.38679511  1
  H  H44  1  0.94745940  0.59747950  0.11320489  1
  H  H45  1  0.66574549  0.09747950  0.11320489  1
  H  H46  1  0.59747950  0.94745940  0.61320489  1
  H  H47  1  0.51572539  0.44745940  0.61320489  1
  H  H48  1  0.76602971  0.62340595  0.18555130  1
  H  H49  1  0.91952159  0.12340595  0.18555130  1
  H  H50  1  0.06214534  0.41952159  0.68555130  1
  H  H51  1  0.12340595  0.91952159  0.68555130  1
  H  H52  1  0.23397029  0.37659405  0.81444870  1
  H  H53  1  0.08047841  0.87659405  0.81444870  1
  H  H54  1  0.93785466  0.58047841  0.31444870  1
  H  H55  1  0.87659405  0.08047841  0.31444870  1
  H  H56  1  0.26602971  0.56214534  0.18555130  1
  H  H57  1  0.41952159  0.06214534  0.18555130  1
  H  H58  1  0.56214534  0.26602971  0.68555130  1
  H  H59  1  0.62340595  0.76602971  0.68555130  1
  H  H60  1  0.73397029  0.43785466  0.81444870  1
  H  H61  1  0.58047841  0.93785466  0.81444870  1
  H  H62  1  0.43785466  0.73397029  0.31444870  1
  H  H63  1  0.37659405  0.23397029  0.31444870  1
  H  H64  1  0.81590841  0.73408386  0.20895828  1
  H  H65  1  0.89304987  0.23408386  0.20895828  1
  H  H66  1  0.97487442  0.39304987  0.70895828  1
  H  H67  1  0.23408386  0.89304987  0.70895828  1
  H  H68  1  0.18409159  0.26591614  0.79104172  1
  H  H69  1  0.10695013  0.76591614  0.79104172  1
  H  H70  1  0.02512558  0.60695013  0.29104172  1
  H  H71  1  0.76591614  0.10695013  0.29104172  1
  H  H72  1  0.31590841  0.47487442  0.20895828  1
  H  H73  1  0.39304987  0.97487442  0.20895828  1
  H  H74  1  0.47487442  0.31590841  0.70895828  1
  H  H75  1  0.73408386  0.81590841  0.70895828  1
  H  H76  1  0.68409159  0.52512558  0.79104172  1
  H  H77  1  0.60695013  0.02512558  0.79104172  1
  H  H78  1  0.52512558  0.68409159  0.29104172  1
  H  H79  1  0.26591614  0.18409159  0.29104172  1
  H  H80  1  0.80026624  0.41794221  0.99911485  1
  H  H81  1  0.69884861  0.91794221  0.99911485  1
  H  H82  1  0.08117264  0.19884861  0.49911485  1
  H  H83  1  0.91794221  0.69884861  0.49911485  1
  H  H84  1  0.19973376  0.58205779  0.00088515  1
  H  H85  1  0.30115139  0.08205779  0.00088515  1
  H  H86  1  0.91882736  0.80115139  0.50088515  1
  H  H87  1  0.08205779  0.30115139  0.50088515  1
  H  H88  1  0.30026624  0.58117264  0.99911485  1
  H  H89  1  0.19884861  0.08117264  0.99911485  1
  H  H90  1  0.58117264  0.30026624  0.49911485  1
  H  H91  1  0.41794221  0.80026624  0.49911485  1
  H  H92  1  0.69973376  0.41882736  0.00088515  1
  H  H93  1  0.80115139  0.91882736  0.00088515  1
  H  H94  1  0.41882736  0.69973376  0.50088515  1
  H  H95  1  0.58205779  0.19973376  0.50088515  1
  H  H96  1  0.53441916  0.64637406  0.13963245  1
  H  H97  1  0.10521329  0.14637406  0.13963245  1
  H  H98  1  0.99325839  0.60521329  0.63963245  1
  H  H99  1  0.14637406  0.10521329  0.63963245  1
  H  H100  1  0.46558084  0.35362594  0.86036755  1
  H  H101  1  0.89478671  0.85362594  0.86036755  1
  H  H102  1  0.00674161  0.39478671  0.36036755  1
  H  H103  1  0.85362594  0.89478671  0.36036755  1
  H  H104  1  0.03441916  0.49325839  0.13963245  1
  H  H105  1  0.60521329  0.99325839  0.13963245  1
  H  H106  1  0.49325839  0.03441916  0.63963245  1
  H  H107  1  0.64637406  0.53441916  0.63963245  1
  H  H108  1  0.96558084  0.50674161  0.86036755  1
  H  H109  1  0.39478671  0.00674161  0.86036755  1
  H  H110  1  0.50674161  0.96558084  0.36036755  1
  H  H111  1  0.35362594  0.46558084  0.36036755  1
  H  H112  1  0.61016989  0.60117977  0.20735877  1
  H  H113  1  0.09718888  0.10117977  0.20735877  1
  H  H114  1  0.10617900  0.59718888  0.70735877  1
  H  H115  1  0.10117977  0.09718888  0.70735877  1
  H  H116  1  0.38983011  0.39882023  0.79264123  1
  H  H117  1  0.90281112  0.89882023  0.79264123  1
  H  H118  1  0.89382100  0.40281112  0.29264123  1
  H  H119  1  0.89882023  0.90281112  0.29264123  1
  H  H120  1  0.11016989  0.60617900  0.20735877  1
  H  H121  1  0.59718888  0.10617900  0.20735877  1
  H  H122  1  0.60617900  0.11016989  0.70735877  1
  H  H123  1  0.60117977  0.61016989  0.70735877  1
  H  H124  1  0.88983011  0.39382100  0.79264123  1
  H  H125  1  0.40281112  0.89382100  0.79264123  1
  H  H126  1  0.39382100  0.88983011  0.29264123  1
  H  H127  1  0.39882023  0.38983011  0.29264123  1
  C  C0  1  0.18840633  0.81159367  0.25000000  1
  C  C1  1  0.56159367  0.31159367  0.25000000  1
  C  C2  1  0.93840633  0.06159367  0.75000000  1
  C  C3  1  0.31159367  0.56159367  0.75000000  1
  C  C4  1  0.81159367  0.18840633  0.75000000  1
  C  C5  1  0.43840633  0.68840633  0.75000000  1
  C  C6  1  0.06159367  0.93840633  0.25000000  1
  C  C7  1  0.68840633  0.43840633  0.25000000  1
  C  C8  1  0.21123936  0.89755902  0.35608767  1
  C  C9  1  0.64484831  0.39755902  0.35608767  1
  C  C10  1  0.95852865  0.14484831  0.85608767  1
  C  C11  1  0.39755902  0.64484831  0.85608767  1
  C  C12  1  0.78876064  0.10244098  0.64391233  1
  C  C13  1  0.35515169  0.60244098  0.64391233  1
  C  C14  1  0.04147135  0.85515169  0.14391233  1
  C  C15  1  0.60244098  0.35515169  0.14391233  1
  C  C16  1  0.71123936  0.45852865  0.35608767  1
  C  C17  1  0.14484831  0.95852865  0.35608767  1
  C  C18  1  0.45852865  0.71123936  0.85608767  1
  C  C19  1  0.89755902  0.21123936  0.85608767  1
  C  C20  1  0.28876064  0.54147135  0.64391233  1
  C  C21  1  0.85515169  0.04147135  0.64391233  1
  C  C22  1  0.54147135  0.28876064  0.14391233  1
  C  C23  1  0.10244098  0.78876064  0.14391233  1
  C  C24  1  0.30870533  0.92519062  0.46882220  1
  C  C25  1  0.66011687  0.42519062  0.46882220  1
  C  C26  1  0.04363157  0.16011687  0.96882220  1
  C  C27  1  0.42519062  0.66011687  0.96882220  1
  C  C28  1  0.69129467  0.07480938  0.53117780  1
  C  C29  1  0.33988313  0.57480938  0.53117780  1
  C  C30  1  0.95636843  0.83988313  0.03117780  1
  C  C31  1  0.57480938  0.33988313  0.03117780  1
  C  C32  1  0.80870533  0.54363157  0.46882220  1
  C  C33  1  0.16011687  0.04363157  0.46882220  1
  C  C34  1  0.54363157  0.80870533  0.96882220  1
  C  C35  1  0.92519062  0.30870533  0.96882220  1
  C  C36  1  0.19129467  0.45636843  0.53117780  1
  C  C37  1  0.83988313  0.95636843  0.53117780  1
  C  C38  1  0.45636843  0.19129467  0.03117780  1
  C  C39  1  0.07480938  0.69129467  0.03117780  1
  C  C40  1  0.25694262  0.74305738  0.25000000  1
  C  C41  1  0.49305738  0.24305738  0.25000000  1
  C  C42  1  0.00694262  0.99305738  0.75000000  1
  C  C43  1  0.24305738  0.49305738  0.75000000  1
  C  C44  1  0.74305738  0.25694262  0.75000000  1
  C  C45  1  0.50694262  0.75694262  0.75000000  1
  C  C46  1  0.99305738  0.00694262  0.25000000  1
  C  C47  1  0.75694262  0.50694262  0.25000000  1
  O  O0  1  0.37205258  0.01607372  0.53610165  1
  O  O1  1  0.66404907  0.51607372  0.53610165  1
  O  O2  1  0.02002792  0.16404907  0.03610165  1
  O  O3  1  0.51607372  0.66404907  0.03610165  1
  O  O4  1  0.62794742  0.98392628  0.46389835  1
  O  O5  1  0.33595093  0.48392628  0.46389835  1
  O  O6  1  0.97997208  0.83595093  0.96389835  1
  O  O7  1  0.48392628  0.33595093  0.96389835  1
  O  O8  1  0.87205258  0.52002792  0.53610165  1
  O  O9  1  0.16404907  0.02002792  0.53610165  1
  O  O10  1  0.52002792  0.87205258  0.03610165  1
  O  O11  1  0.01607372  0.37205258  0.03610165  1
  O  O12  1  0.12794742  0.47997208  0.46389835  1
  O  O13  1  0.83595093  0.97997208  0.46389835  1
  O  O14  1  0.47997208  0.12794742  0.96389835  1
  O  O15  1  0.98392628  0.62794742  0.96389835  1
  O  O16  1  0.32338158  0.85496682  0.48864504  1
  O  O17  1  0.66526346  0.35496682  0.48864504  1
  O  O18  1  0.13367821  0.16526346  0.98864504  1
  O  O19  1  0.35496682  0.66526346  0.98864504  1
  O  O20  1  0.67661842  0.14503318  0.51135496  1
  O  O21  1  0.33473654  0.64503318  0.51135496  1
  O  O22  1  0.86632179  0.83473654  0.01135496  1
  O  O23  1  0.64503318  0.33473654  0.01135496  1
  O  O24  1  0.82338158  0.63367821  0.48864504  1
  O  O25  1  0.16526346  0.13367821  0.48864504  1
  O  O26  1  0.63367821  0.82338158  0.98864504  1
  O  O27  1  0.85496682  0.32338158  0.98864504  1
  O  O28  1  0.17661842  0.36632179  0.51135496  1
  O  O29  1  0.83473654  0.86632179  0.51135496  1
  O  O30  1  0.36632179  0.17661842  0.01135496  1
  O  O31  1  0.14503318  0.67661842  0.01135496  1
  O  O32  1  0.34745432  0.78115046  0.28143227  1
  O  O33  1  0.43397796  0.28115046  0.28143227  1
  O  O34  1  0.00028182  0.93397796  0.78143227  1
  O  O35  1  0.28115046  0.43397796  0.78143227  1
  O  O36  1  0.65254568  0.21884954  0.71856773  1
  O  O37  1  0.56602204  0.71884954  0.71856773  1
  O  O38  1  0.99971818  0.06602204  0.21856773  1
  O  O39  1  0.71884954  0.56602204  0.21856773  1
  O  O40  1  0.84745432  0.50028182  0.28143227  1
  O  O41  1  0.93397796  0.00028182  0.28143227  1
  O  O42  1  0.50028182  0.84745432  0.78143227  1
  O  O43  1  0.78115046  0.34745432  0.78143227  1
  O  O44  1  0.15254568  0.49971818  0.71856773  1
  O  O45  1  0.06602204  0.99971818  0.71856773  1
  O  O46  1  0.49971818  0.15254568  0.21856773  1
  O  O47  1  0.21884954  0.65254568  0.21856773  1
  O  O48  1  0.75000000  0.70371566  -0.00000000  1
  O  O49  1  0.75000000  0.20371566  -0.00000000  1
  O  O50  1  0.79628434  0.25000000  0.50000000  1
  O  O51  1  0.20371566  0.75000000  0.50000000  1
  O  O52  1  0.25000000  0.29628434  0.00000000  1
  O  O53  1  0.25000000  0.79628434  -0.00000000  1
  O  O54  1  0.29628434  0.25000000  0.50000000  1
  O  O55  1  0.70371566  0.75000000  0.50000000  1
  O  O56  1  0.60669451  0.55451432  0.94214828  1
  O  O57  1  0.83545377  0.05451432  0.94214828  1
  O  O58  1  0.88763396  0.33545377  0.44214828  1
  O  O59  1  0.05451432  0.83545377  0.44214828  1
  O  O60  1  0.39330549  0.44548568  0.05785172  1
  O  O61  1  0.16454623  0.94548568  0.05785172  1
  O  O62  1  0.11236604  0.66454623  0.55785172  1
  O  O63  1  0.94548568  0.16454623  0.55785172  1
  O  O64  1  0.10669451  0.38763396  0.94214828  1
  O  O65  1  0.33545377  0.88763396  0.94214828  1
  O  O66  1  0.38763396  0.10669451  0.44214828  1
  O  O67  1  0.55451432  0.60669451  0.44214828  1
  O  O68  1  0.89330549  0.61236604  0.05785172  1
  O  O69  1  0.66454623  0.11236604  0.05785172  1
  O  O70  1  0.61236604  0.89330549  0.55785172  1
  O  O71  1  0.44548568  0.39330549  0.55785172  1
  O  O72  1  0.78471034  0.65667883  0.15320824  1
  O  O73  1  0.86849789  0.15667883  0.15320824  1
  O  O74  1  0.99652941  0.36849789  0.65320824  1
  O  O75  1  0.15667883  0.86849789  0.65320824  1
  O  O76  1  0.21528966  0.34332117  0.84679176  1
  O  O77  1  0.13150211  0.84332117  0.84679176  1
  O  O78  1  0.00347059  0.63150211  0.34679176  1
  O  O79  1  0.84332117  0.13150211  0.34679176  1
  O  O80  1  0.28471034  0.49652941  0.15320824  1
  O  O81  1  0.36849789  0.99652941  0.15320824  1
  O  O82  1  0.49652941  0.28471034  0.65320824  1
  O  O83  1  0.65667883  0.78471034  0.65320824  1
  O  O84  1  0.71528966  0.50347059  0.84679176  1
  O  O85  1  0.63150211  0.00347059  0.84679176  1
  O  O86  1  0.50347059  0.71528966  0.34679176  1
  O  O87  1  0.34332117  0.21528966  0.34679176  1
  O  O88  1  0.75000000  0.45766112  -0.00000000  1
  O  O89  1  0.75000000  0.95766112  -0.00000000  1
  O  O90  1  0.04233888  0.25000000  0.50000000  1
  O  O91  1  0.95766112  0.75000000  0.50000000  1
  O  O92  1  0.25000000  0.54233888  0.00000000  1
  O  O93  1  0.25000000  0.04233888  0.00000000  1
  O  O94  1  0.54233888  0.25000000  0.50000000  1
  O  O95  1  0.45766112  0.75000000  0.50000000  1
  O  O96  1  0.54523543  0.62051920  0.18967247  1
  O  O97  1  0.14443705  0.12051920  0.18967247  1
  O  O98  1  0.06915328  0.64443705  0.68967247  1
  O  O99  1  0.12051920  0.14443705  0.68967247  1
  O  O100  1  0.45476457  0.37948080  0.81032753  1
  O  O101  1  0.85556295  0.87948080  0.81032753  1
  O  O102  1  0.93084672  0.35556295  0.31032753  1
  O  O103  1  0.87948080  0.85556295  0.31032753  1
  O  O104  1  0.04523543  0.56915328  0.18967247  1
  O  O105  1  0.64443705  0.06915328  0.18967247  1
  O  O106  1  0.56915328  0.04523543  0.68967247  1
  O  O107  1  0.62051920  0.54523543  0.68967247  1
  O  O108  1  0.95476457  0.43084672  0.81032753  1
  O  O109  1  0.35556295  0.93084672  0.81032753  1
  O  O110  1  0.43084672  0.95476457  0.31032753  1
  O  O111  1  0.37948080  0.45476457  0.31032753  1
loop_
_geom_bond_atom_site_label_1
_geom_bond_atom_site_label_2
_geom_bond_distance
_geom_bond_site_symmetry_2
Al0 O84 1.884145 1_554
Al0 O72 1.884145 1_555
Al0 O68 1.904774 1_555
Al0 O56 1.904774 1_554
Al0 O48 1.905803 1_555
Al0 O88 1.931577 1_555
Al1 O85 1.884145 1_554
Al1 O73 1.884145 1_555
Al1 O69 1.904774 1_555
Al1 O57 1.904774 1_554
Al1 O49 1.905803 1_555
Al1 O89 1.931577 1_545
Al2 O74 1.884145 1_555
Al2 O79 1.884145 1_555
Al2 O58 1.904774 1_555
Al2 O63 1.904774 1_555
Al2 O50 1.905803 1_555
Al2 O90 1.931577 1_655
Al3 O78 1.884145 1_555
Al3 O75 1.884145 1_555
Al3 O62 1.904774 1_555
Al3 O59 1.904774 1_555
Al3 O51 1.905803 1_555
Al3 O91 1.931577 1_455
Al4 O80 1.884145 1_555
Al4 O76 1.884145 1_554
Al4 O64 1.904774 1_554
Al4 O60 1.904774 1_555
Al4 O52 1.905803 1_555
Al4 O92 1.931577 1_555
Al5 O81 1.884145 1_555
Al5 O77 1.884145 1_554
Al5 O65 1.904774 1_554
Al5 O61 1.904774 1_555
Al5 O53 1.905803 1_555
Al5 O93 1.931577 1_565
Al6 O82 1.884145 1_555
Al6 O87 1.884145 1_555
Al6 O66 1.904774 1_555
Al6 O71 1.904774 1_555
Al6 O54 1.905803 1_555
Al6 O94 1.931577 1_555
Al7 O86 1.884145 1_555
Al7 O83 1.884145 1_555
Al7 O70 1.904774 1_555
Al7 O67 1.904774 1_555
Al7 O55 1.905803 1_555
Al7 O95 1.931577 1_555
H0 O48 1.003957 1_556
H0 O26 1.638303 1_555
H1 O49 1.003957 1_556
H1 O27 1.638303 1_555
H2 O50 1.003957 1_555
H2 O17 1.638303 1_555
H3 O51 1.003957 1_555
H3 O16 1.638303 1_555
H4 O52 1.003957 1_555
H4 O30 1.638303 1_555
H5 O53 1.003957 1_555
H5 O31 1.638303 1_555
H6 O51 1.003957 1_555
H6 O21 1.638303 1_555
H7 O50 1.003957 1_555
H7 O20 1.638303 1_555
H8 O52 1.003957 1_556
H8 O18 1.638303 1_555
H9 O53 1.003957 1_556
H9 O19 1.638303 1_555
H10 O54 1.003957 1_555
H10 O25 1.638303 1_555
H11 O55 1.003957 1_555
H11 O24 1.638303 1_555
H12 O48 1.003957 1_555
H12 O22 1.638303 1_555
H13 O49 1.003957 1_555
H13 O23 1.638303 1_555
H14 O55 1.003957 1_555
H14 O29 1.638303 1_555
H15 O54 1.003957 1_555
H15 O28 1.638303 1_555
H16 O56 1.013968 1_555
H16 O3 1.589984 1_556
H17 O57 1.013968 1_555
H17 O2 1.589984 1_656
H18 O58 1.013968 1_555
H18 O8 1.589984 1_555
H19 O59 1.013968 1_555
H19 O9 1.589984 1_565
H20 O60 1.013968 1_555
H20 O7 1.589984 1_554
H21 O61 1.013968 1_555
H21 O6 1.589984 1_454
H22 O62 1.013968 1_555
H22 O12 1.589984 1_555
H23 O63 1.013968 1_555
H23 O13 1.589984 1_545
H24 O64 1.013968 1_555
H24 O11 1.589984 1_556
H25 O65 1.013968 1_555
H25 O10 1.589984 1_556
H26 O66 1.013968 1_555
H26 O0 1.589984 1_555
H27 O67 1.013968 1_555
H27 O1 1.589984 1_555
H28 O68 1.013968 1_555
H28 O15 1.589984 1_554
H29 O69 1.013968 1_555
H29 O14 1.589984 1_554
H30 O70 1.013968 1_555
H30 O4 1.589984 1_555
H31 O71 1.013968 1_555
H31 O5 1.589984 1_555
H32 O56 1.009330 1_555
H32 O100 1.648549 1_555
H33 O57 1.009330 1_565
H33 O101 1.648549 1_555
H34 O58 1.009330 1_555
H34 O102 1.648549 1_555
H35 O59 1.009330 1_655
H35 O103 1.648549 1_555
H36 O60 1.009330 1_555
H36 O96 1.648549 1_555
H37 O61 1.009330 1_545
H37 O97 1.648549 1_555
H38 O62 1.009330 1_555
H38 O98 1.648549 1_555
H39 O63 1.009330 1_455
H39 O99 1.648549 1_555
H40 O64 1.009330 1_555
H40 O108 1.648549 1_455
H41 O65 1.009330 1_555
H41 O109 1.648549 1_555
H42 O66 1.009330 1_555
H42 O110 1.648549 1_545
H43 O67 1.009330 1_555
H43 O111 1.648549 1_555
H44 O68 1.009330 1_555
H44 O104 1.648549 1_655
H45 O69 1.009330 1_555
H45 O105 1.648549 1_555
H46 O70 1.009330 1_555
H46 O106 1.648549 1_565
H47 O71 1.009330 1_555
H47 O107 1.648549 1_555
H48 O72 1.014505 1_555
H48 O39 1.568311 1_555
H49 O73 1.014506 1_555
H49 O38 1.568311 1_555
H50 O74 1.014505 1_455
H50 O44 1.568311 1_555
H51 O75 1.014506 1_555
H51 O45 1.568311 1_555
H52 O76 1.014505 1_555
H52 O35 1.568311 1_555
H53 O77 1.014506 1_555
H53 O34 1.568311 1_555
H54 O78 1.014505 1_655
H54 O40 1.568311 1_555
H55 O79 1.014506 1_555
H55 O41 1.568311 1_555
H56 O80 1.014505 1_555
H56 O47 1.568311 1_555
H57 O81 1.014505 1_545
H57 O46 1.568311 1_555
H58 O82 1.014505 1_555
H58 O36 1.568311 1_555
H59 O83 1.014505 1_555
H59 O37 1.568311 1_555
H60 O84 1.014505 1_555
H60 O43 1.568311 1_555
H61 O85 1.014505 1_565
H61 O42 1.568311 1_555
H62 O86 1.014505 1_555
H62 O32 1.568311 1_555
H63 O87 1.014505 1_555
H63 O33 1.568311 1_555
H64 O72 1.006400 1_555
H64 O103 1.620617 1_555
H65 O73 1.006400 1_555
H65 O102 1.620617 1_555
H66 O74 1.006400 1_555
H66 O108 1.620617 1_555
H67 O75 1.006400 1_555
H67 O109 1.620617 1_555
H68 O76 1.006400 1_555
H68 O99 1.620617 1_555
H69 O77 1.006400 1_555
H69 O98 1.620617 1_555
H70 O78 1.006400 1_555
H70 O104 1.620617 1_555
H71 O79 1.006400 1_555
H71 O105 1.620617 1_555
H72 O80 1.006400 1_555
H72 O111 1.620617 1_555
H73 O81 1.006400 1_555
H73 O110 1.620617 1_555
H74 O82 1.006400 1_555
H74 O100 1.620617 1_555
H75 O83 1.006400 1_555
H75 O101 1.620617 1_555
H76 O84 1.006400 1_555
H76 O107 1.620617 1_555
H77 O85 1.006400 1_555
H77 O106 1.620617 1_555
H78 O86 1.006400 1_555
H78 O96 1.620617 1_555
H79 O87 1.006400 1_555
H79 O97 1.620617 1_555
H80 O88 1.000366 1_556
H80 O27 1.681968 1_555
H81 O89 1.000366 1_556
H81 O26 1.681968 1_555
H82 O90 1.000366 1_555
H82 O25 1.681968 1_555
H83 O91 1.000366 1_555
H83 O24 1.681968 1_555
H84 O92 1.000366 1_555
H84 O31 1.681968 1_555
H85 O93 1.000366 1_555
H85 O30 1.681968 1_555
H86 O91 1.000366 1_555
H86 O29 1.681968 1_555
H87 O90 1.000366 1_555
H87 O28 1.681968 1_555
H88 O92 1.000366 1_556
H88 O19 1.681968 1_555
H89 O93 1.000366 1_556
H89 O18 1.681968 1_555
H90 O94 1.000366 1_555
H90 O17 1.681968 1_555
H91 O95 1.000366 1_555
H91 O16 1.681968 1_555
H92 O88 1.000366 1_555
H92 O23 1.681968 1_555
H93 O89 1.000366 1_555
H93 O22 1.681968 1_555
H94 O95 1.000366 1_555
H94 O21 1.681968 1_555
H95 O94 1.000366 1_555
H95 O20 1.681968 1_555
H96 O96 1.005836 1_555
H96 O3 1.694223 1_555
H97 O97 1.005836 1_555
H97 O2 1.694223 1_555
H98 O98 1.005837 1_655
H98 O8 1.694223 1_555
H99 O99 1.005836 1_555
H99 O9 1.694223 1_555
H100 O100 1.005836 1_555
H100 O7 1.694223 1_555
H101 O101 1.005836 1_555
H101 O6 1.694223 1_555
H102 O102 1.005837 1_455
H102 O12 1.694223 1_555
H103 O103 1.005836 1_555
H103 O13 1.694223 1_555
H104 O104 1.005837 1_555
H104 O11 1.694223 1_555
H105 O105 1.005837 1_565
H105 O10 1.694223 1_555
H106 O106 1.005837 1_555
H106 O0 1.694223 1_555
H107 O107 1.005836 1_555
H107 O1 1.694223 1_555
H108 O108 1.005837 1_555
H108 O15 1.694223 1_555
H109 O109 1.005837 1_545
H109 O14 1.694223 1_555
H110 O110 1.005837 1_555
H110 O4 1.694223 1_555
H111 O111 1.005836 1_555
H111 O5 1.694223 1_555
H112 O96 1.000018 1_555
H113 O97 1.000018 1_555
H114 O98 1.000018 1_555
H115 O99 1.000018 1_555
H116 O100 1.000018 1_555
H117 O101 1.000018 1_555
H118 O102 1.000018 1_555
H119 O103 1.000018 1_555
H120 O104 1.000018 1_555
H121 O105 1.000018 1_555
H122 O106 1.000018 1_555
H123 O107 1.000018 1_555
H124 O108 1.000018 1_555
H125 O109 1.000018 1_555
H126 O110 1.000018 1_555
H127 O111 1.000018 1_555
C0 C23 1.408126 1_555
C0 C8 1.408126 1_555
C0 C40 1.511608 1_555
C1 C9 1.408126 1_555
C1 C22 1.408126 1_555
C1 C41 1.511608 1_555
C2 C21 1.408126 1_555
C2 C42 1.511608 1_645
C3 C43 1.511608 1_555
C4 C44 1.511608 1_555
C10 C19 1.405779 1_555
C10 C2 1.408126 1_555
C10 C26 1.517359 1_655
C11 C18 1.405779 1_555
C11 C3 1.408126 1_555
C11 C27 1.517359 1_555
C12 C21 1.405779 1_555
C12 C4 1.408126 1_555
C12 C28 1.517359 1_555
C13 C20 1.405779 1_555
C13 C5 1.408126 1_555
C13 C29 1.517359 1_555
C14 C23 1.405779 1_555
C14 C6 1.408126 1_555
C14 C30 1.517359 1_455
C15 C22 1.405779 1_555
C15 C7 1.408126 1_555
C15 C31 1.517359 1_555
C16 C9 1.405779 1_555
C16 C7 1.408126 1_555
C16 C32 1.517359 1_555
C17 C8 1.405779 1_555
C17 C6 1.408126 1_555
C17 C33 1.517359 1_565
C18 C5 1.408126 1_555
C18 C34 1.517359 1_555
C19 C4 1.408126 1_555
C19 C35 1.517359 1_555
C20 C3 1.408126 1_555
C20 C36 1.517359 1_555
C21 C37 1.517359 1_545
C22 C38 1.517359 1_555
C23 C39 1.517359 1_555
C24 O0 1.270363 1_565
C24 O16 1.272674 1_555
C24 C8 1.517359 1_555
C25 O1 1.270363 1_555
C25 O17 1.272674 1_555
C25 C9 1.517359 1_555
C26 O2 1.270363 1_556
C26 O18 1.272674 1_555
C27 O3 1.270363 1_556
C27 O19 1.272674 1_555
C28 O4 1.270363 1_545
C28 O20 1.272674 1_555
C29 O5 1.270363 1_555
C29 O21 1.272674 1_555
C30 O6 1.270363 1_554
C30 O22 1.272674 1_555
C31 O7 1.270363 1_554
C31 O23 1.272674 1_555
C32 O8 1.270363 1_555
C32 O24 1.272674 1_555
C33 O9 1.270363 1_555
C33 O25 1.272674 1_555
C34 O10 1.270363 1_556
C34 O26 1.272674 1_555
C35 O11 1.270363 1_656
C35 O27 1.272674 1_555
C36 O12 1.270363 1_555
C36 O28 1.272674 1_555
C37 O13 1.270363 1_555
C37 O29 1.272674 1_555
C38 O14 1.270363 1_554
C38 O30 1.272674 1_555
C39 O15 1.270363 1_454
C39 O31 1.272674 1_555
C40 O47 1.270398 1_555
C40 O32 1.270398 1_555
C41 O33 1.270398 1_555
C41 O46 1.270398 1_555
C42 O34 1.270398 1_555
C42 O45 1.270398 1_555
C43 O35 1.270398 1_555
C43 O44 1.270398 1_555
C44 O43 1.270398 1_555
C44 O36 1.270398 1_555
C45 O37 1.270398 1_555
C45 O42 1.270398 1_555
C45 C5 1.511608 1_555
C46 O41 1.270398 1_555
C46 O38 1.270398 1_555
C46 C6 1.511608 1_645
C47 O39 1.270398 1_555
C47 O40 1.270398 1_555
C47 C7 1.511608 1_555
