# generated using pymatgen
data_Fe4OF7
_symmetry_space_group_name_H-M   'P 1'
_cell_length_a   5.80026030
_cell_length_b   5.80026030
_cell_length_c   10.59134708
_cell_angle_alpha   69.35565719
_cell_angle_beta   69.35565719
_cell_angle_gamma   68.96093898
_symmetry_Int_Tables_number   1
_chemical_formula_structural   Fe4OF7
_chemical_formula_sum   'Fe8 O2 F14'
_cell_volume   300.61676970
_cell_formula_units_Z   2
loop_
 _symmetry_equiv_pos_site_id
 _symmetry_equiv_pos_as_xyz
  1  'x, y, z'
loop_
 _atom_site_type_symbol
 _atom_site_label
 _atom_site_symmetry_multiplicity
 _atom_site_fract_x
 _atom_site_fract_y
 _atom_site_fract_z
 _atom_site_occupancy
  Fe  Fe0  1  0.12732700  0.12732700  0.75357000  1
  Fe  Fe1  1  0.37723700  0.37723700  0.24925400  1
  Fe  Fe2  1  0.25676900  0.74724700  0.50444300  1
  Fe  Fe3  1  0.74724700  0.25676900  0.50444300  1
  Fe  Fe4  1  0.51016700  0.99416300  0.00411200  1
  Fe  Fe5  1  0.86788500  0.86788500  0.23884300  1
  Fe  Fe6  1  0.61740200  0.61740200  0.73657200  1
  Fe  Fe7  1  0.99416300  0.51016700  0.00411200  1
  O  O0  1  0.54636600  0.54636600  0.60246900  1
  O  O1  1  0.79962000  0.79962000  0.10138800  1
  F  F0  1  0.05390400  0.05390400  0.60083900  1
  F  F1  1  0.24142800  0.71933000  0.84796200  1
  F  F2  1  0.25681000  0.78496700  0.15449000  1
  F  F3  1  0.00726300  0.53367600  0.65423700  1
  F  F4  1  0.53367600  0.00726300  0.65423700  1
  F  F5  1  0.69559400  0.69559400  0.89183300  1
  F  F6  1  0.44680700  0.44680700  0.40049700  1
  F  F7  1  0.20203100  0.20203100  0.90372100  1
  F  F8  1  0.30170600  0.30170600  0.10100500  1
  F  F9  1  0.97115500  0.49061100  0.34748200  1
  F  F10  1  0.49061100  0.97115500  0.34748200  1
  F  F11  1  0.71933000  0.24142800  0.84796200  1
  F  F12  1  0.78496700  0.25681000  0.15449000  1
  F  F13  1  0.95053300  0.95053300  0.39455800  1
loop_
_geom_bond_atom_site_label_1
_geom_bond_atom_site_label_2
_geom_bond_distance
_geom_bond_site_symmetry_2
Fe2 O0 2.056329 1_555
Fe3 O0 2.056329 1_555
Fe4 O1 2.047723 1_555
Fe5 O1 1.832627 1_555
Fe6 O0 1.817712 1_555
Fe7 O1 2.047723 1_555
F0 Fe0 2.020201 1_555
F0 Fe3 2.126339 1_455
F0 Fe2 2.126339 1_545
F1 Fe6 2.061311 1_555
F1 Fe7 2.103795 1_456
F1 Fe0 2.170601 1_565
F2 Fe5 2.054573 1_455
F2 Fe4 2.106123 1_555
F2 Fe1 2.173189 1_555
F3 Fe6 2.056551 1_455
F3 Fe2 2.104371 1_555
F3 Fe0 2.176366 1_555
F4 Fe6 2.056551 1_545
F4 Fe3 2.104371 1_555
F4 Fe0 2.176366 1_555
F5 Fe6 2.077253 1_555
F5 Fe4 2.186989 1_556
F5 Fe7 2.186989 1_556
F6 Fe1 1.979934 1_555
F6 Fe3 2.140497 1_555
F6 Fe2 2.140497 1_555
F7 Fe0 2.002787 1_555
F7 Fe7 2.160412 1_456
F7 Fe4 2.160412 1_546
F8 Fe1 1.989262 1_555
F8 Fe4 2.136444 1_545
F8 Fe7 2.136444 1_455
F9 Fe5 2.059305 1_555
F9 Fe3 2.107713 1_555
F9 Fe1 2.169104 1_655
F10 Fe5 2.059305 1_555
F10 Fe2 2.107713 1_555
F10 Fe1 2.169104 1_565
F11 Fe6 2.061311 1_555
F11 Fe4 2.103795 1_546
F11 Fe0 2.170601 1_655
F12 Fe5 2.054573 1_545
F12 Fe7 2.106123 1_555
F12 Fe1 2.173189 1_555
F13 Fe5 2.111763 1_555
F13 Fe2 2.210455 1_655
F13 Fe3 2.210455 1_565
