# generated using pymatgen
data_SnO
_symmetry_space_group_name_H-M   'P 1'
_cell_length_a   11.34094743
_cell_length_b   12.19680335
_cell_length_c   12.54310877
_cell_angle_alpha   93.16884710
_cell_angle_beta   88.27893530
_cell_angle_gamma   85.34718162
_symmetry_Int_Tables_number   1
_chemical_formula_structural   SnO
_chemical_formula_sum   'Sn40 O40'
_cell_volume   1725.60353759
_cell_formula_units_Z   40
loop_
 _symmetry_equiv_pos_site_id
 _symmetry_equiv_pos_as_xyz
  1  'x, y, z'
loop_
 _atom_site_type_symbol
 _atom_site_label
 _atom_site_symmetry_multiplicity
 _atom_site_fract_x
 _atom_site_fract_y
 _atom_site_fract_z
 _atom_site_occupancy
  Sn  Sn0  1  0.79553587  0.26193196  0.70936086  1
  Sn  Sn1  1  0.47225010  0.19451250  0.15364020  1
  Sn  Sn2  1  0.28869303  0.44041387  0.27307924  1
  Sn  Sn3  1  0.66000280  0.57484983  0.04783483  1
  Sn  Sn4  1  0.79171872  0.23994655  0.37595874  1
  Sn  Sn5  1  0.06673085  0.67705789  0.45053183  1
  Sn  Sn6  1  0.86476106  0.01105407  0.54924155  1
  Sn  Sn7  1  0.01592216  0.87435126  0.28544809  1
  Sn  Sn8  1  0.29651195  0.90905867  0.42141548  1
  Sn  Sn9  1  0.57794206  0.07755567  0.74614196  1
  Sn  Sn10  1  0.31688829  0.87202942  0.73436045  1
  Sn  Sn11  1  0.55180555  0.07891669  0.50195997  1
  Sn  Sn12  1  0.07764724  0.39620043  0.46135399  1
  Sn  Sn13  1  0.17331349  0.87148957  0.97434385  1
  Sn  Sn14  1  0.76901162  0.12864506  0.09261062  1
  Sn  Sn15  1  0.31286145  0.98586783  0.16933661  1
  Sn  Sn16  1  0.35622502  0.59424242  0.54682545  1
  Sn  Sn17  1  0.03733078  0.61134966  0.05808196  1
  Sn  Sn18  1  0.61805475  0.96929553  0.25793454  1
  Sn  Sn19  1  0.96715244  0.00691166  0.83425704  1
  Sn  Sn20  1  0.29685830  0.13568214  0.89211145  1
  Sn  Sn21  1  0.92943665  0.41759552  0.18215616  1
  Sn  Sn22  1  0.49046378  0.71834235  0.30669313  1
  Sn  Sn23  1  0.27119146  0.41485577  0.02828855  1
  Sn  Sn24  1  0.04195970  0.18809883  0.04007033  1
  Sn  Sn25  1  0.58795104  0.89281037  0.99355913  1
  Sn  Sn26  1  0.59222547  0.33367620  0.92613175  1
  Sn  Sn27  1  0.39784670  0.31652174  0.64836538  1
  Sn  Sn28  1  0.05601695  0.69661911  0.76160695  1
  Sn  Sn29  1  0.59234545  0.53878819  0.74431787  1
  Sn  Sn30  1  0.53918204  0.37646695  0.40568175  1
  Sn  Sn31  1  0.76558859  0.88440990  0.73442808  1
  Sn  Sn32  1  0.11116501  0.35236063  0.75134281  1
  Sn  Sn33  1  0.87981458  0.46805176  0.88115971  1
  Sn  Sn34  1  0.09907599  0.12323414  0.57583935  1
  Sn  Sn35  1  0.12001404  0.16511313  0.30559764  1
  Sn  Sn36  1  0.37307792  0.69204133  0.05120615  1
  Sn  Sn37  1  0.79398829  0.75075201  0.40247170  1
  Sn  Sn38  1  0.58155682  0.77672250  0.58246847  1
  Sn  Sn39  1  0.85642687  0.55531699  0.62593901  1
  O  O0  1  0.56096643  0.72634907  0.02400289  1
  O  O1  1  0.18492514  0.05549517  0.41507182  1
  O  O2  1  0.62001896  0.19892140  0.03036765  1
  O  O3  1  0.15069700  0.81332609  0.38827195  1
  O  O4  1  0.08290526  0.41764746  0.07181091  1
  O  O5  1  0.93936502  0.83737803  0.80099478  1
  O  O6  1  0.72768768  0.57327040  0.89137565  1
  O  O7  1  0.65534400  0.79319654  0.29477473  1
  O  O8  1  0.13715338  0.52482898  0.37434795  1
  O  O9  1  0.86807632  0.90761730  0.40670689  1
  O  O10  1  0.52654493  0.24245586  0.79294218  1
  O  O11  1  0.95759094  0.71436778  0.30779970  1
  O  O12  1  0.71539249  0.96866077  0.10881427  1
  O  O13  1  0.29565868  0.92859266  0.58123295  1
  O  O14  1  0.67845319  0.63089800  0.63039476  1
  O  O15  1  0.75393008  0.43306362  0.68537687  1
  O  O16  1  0.47836664  0.24673079  0.49954328  1
  O  O17  1  0.02652510  0.23437063  0.45056666  1
  O  O18  1  0.91129996  0.46828862  0.48446693  1
  O  O19  1  0.88113561  0.26513675  0.10548266  1
  O  O20  1  0.47211965  0.46354377  0.60526203  1
  O  O21  1  0.35150305  0.24922879  0.03180449  1
  O  O22  1  0.73156973  0.12040523  0.48023410  1
  O  O23  1  0.48750312  0.91791388  0.14430285  1
  O  O24  1  0.38578011  0.48420166  0.40415237  1
  O  O25  1  0.25401377  0.83031913  0.12454505  1
  O  O26  1  0.98058845  0.25821679  0.69568987  1
  O  O27  1  0.44739542  0.74733399  0.68865665  1
  O  O28  1  0.91684298  0.06756535  0.00410359  1
  O  O29  1  0.42428276  0.01719867  0.80786192  1
  O  O30  1  0.15866135  0.40866972  0.60092738  1
  O  O31  1  0.71523911  0.15515745  0.24681926  1
  O  O32  1  0.01554540  0.61531813  0.89691495  1
  O  O33  1  0.26761715  0.01676529  0.00674084  1
  O  O34  1  0.20078953  0.31330076  0.34249304  1
  O  O35  1  0.86953608  0.52871813  0.06204067  1
  O  O36  1  0.49744338  0.67621227  0.46637944  1
  O  O37  1  0.46122512  0.33502060  0.25399292  1
  O  O38  1  0.77196550  0.31465399  0.87583569  1
  O  O39  1  0.31563770  0.76607038  0.91640976  1
loop_
_geom_bond_atom_site_label_1
_geom_bond_atom_site_label_2
_geom_bond_distance
_geom_bond_site_symmetry_2
O0 Sn3 2.123624 1_555
O0 Sn25 2.130978 1_554
O0 Sn36 2.224577 1_555
O1 Sn35 2.078221 1_555
O1 Sn8 2.110187 1_545
O1 Sn34 2.294399 1_555
O2 Sn14 2.029193 1_555
O2 Sn26 2.165269 1_554
O2 Sn1 2.251731 1_555
O3 Sn8 2.138161 1_555
O3 Sn7 2.143272 1_555
O3 Sn5 2.152814 1_555
O4 Sn23 2.185176 1_555
O4 Sn21 2.191005 1_455
O4 Sn17 2.393877 1_555
O5 Sn28 2.107175 1_655
O5 Sn19 2.137119 1_565
O5 Sn31 2.208756 1_555
O6 Sn33 2.061366 1_555
O6 Sn3 2.084197 1_556
O6 Sn29 2.474725 1_555
O7 Sn22 2.151201 1_555
O7 Sn37 2.153592 1_555
O7 Sn18 2.231527 1_555
O8 Sn12 2.103462 1_555
O8 Sn5 2.125036 1_555
O8 Sn2 2.250410 1_555
O9 Sn6 2.127974 1_565
O9 Sn37 2.149791 1_555
O9 Sn7 2.226552 1_655
O10 Sn9 2.094809 1_555
O10 Sn26 2.141813 1_555
O10 Sn27 2.522133 1_555
O11 Sn7 2.140679 1_655
O11 Sn37 2.173799 1_555
O11 Sn5 2.253019 1_655
O12 Sn14 2.108926 1_565
O12 Sn18 2.142466 1_555
O12 Sn25 2.286761 1_554
O13 Sn8 2.005235 1_555
O13 Sn10 2.090529 1_555
O14 Sn29 2.128219 1_555
O14 Sn38 2.138490 1_555
O14 Sn39 2.147671 1_555
O15 Sn39 2.117179 1_555
O15 Sn0 2.141952 1_555
O15 Sn29 2.235482 1_555
O16 Sn11 2.148434 1_555
O16 Sn27 2.153796 1_555
O16 Sn30 2.167924 1_555
O17 Sn12 2.100285 1_555
O17 Sn35 2.170992 1_555
O17 Sn34 2.261771 1_555
O18 Sn12 2.021385 1_655
O18 Sn39 2.069081 1_555
O19 Sn24 2.104639 1_655
O19 Sn21 2.163778 1_555
O19 Sn14 2.177269 1_555
O20 Sn27 2.131257 1_555
O20 Sn16 2.157101 1_555
O20 Sn29 2.431544 1_555
O21 Sn23 2.150851 1_555
O21 Sn1 2.178572 1_555
O21 Sn20 2.303988 1_554
O22 Sn4 2.149523 1_555
O22 Sn11 2.153102 1_555
O22 Sn6 2.165418 1_555
O23 Sn15 2.091859 1_555
O23 Sn25 2.171773 1_554
O23 Sn18 2.189717 1_555
O24 Sn2 2.075470 1_555
O24 Sn30 2.094652 1_555
O24 Sn16 2.177541 1_555
O25 Sn15 2.114358 1_555
O25 Sn13 2.184674 1_554
O25 Sn36 2.213224 1_555
O26 Sn32 2.061085 1_655
O26 Sn0 2.097135 1_555
O26 Sn34 2.454019 1_655
O27 Sn38 2.058414 1_555
O27 Sn10 2.078412 1_555
O28 Sn14 2.047530 1_555
O28 Sn24 2.163732 1_655
O28 Sn19 2.257366 1_554
O29 Sn9 2.090014 1_555
O29 Sn20 2.166581 1_555
O29 Sn10 2.388566 1_545
O30 Sn12 2.005499 1_555
O30 Sn32 2.112725 1_555
O31 Sn14 2.011419 1_555
O31 Sn4 2.119027 1_555
O31 Sn18 2.608485 1_545
O32 Sn17 2.046673 1_556
O32 Sn28 2.070628 1_555
O32 Sn33 2.462194 1_455
O33 Sn20 2.135625 1_554
O33 Sn15 2.163595 1_545
O33 Sn13 2.168528 1_544
O34 Sn2 2.122119 1_555
O34 Sn35 2.126432 1_555
O34 Sn12 2.162088 1_555
O35 Sn21 2.169379 1_555
O35 Sn17 2.224957 1_655
O35 Sn33 2.343738 1_554
O35 Sn3 2.411383 1_555
O36 Sn22 2.097351 1_555
O36 Sn38 2.146834 1_555
O36 Sn16 2.203837 1_555
O37 Sn1 2.062590 1_555
O37 Sn30 2.173586 1_555
O37 Sn2 2.251242 1_555
O38 Sn26 2.106380 1_555
O38 Sn0 2.152975 1_555
O38 Sn33 2.315882 1_555
O39 Sn36 2.058596 1_556
O39 Sn13 2.067878 1_555
O39 Sn10 2.685498 1_555
