# generated using pymatgen
data_KFe2Se3
_symmetry_space_group_name_H-M   'P 1'
_cell_length_a   5.35946100
_cell_length_b   7.30946859
_cell_length_c   7.30946859
_cell_angle_alpha   102.90317685
_cell_angle_beta   90.00000000
_cell_angle_gamma   90.00000000
_symmetry_Int_Tables_number   1
_chemical_formula_structural   KFe2Se3
_chemical_formula_sum   'K2 Fe4 Se6'
_cell_volume   279.11645356
_cell_formula_units_Z   2
loop_
 _symmetry_equiv_pos_site_id
 _symmetry_equiv_pos_as_xyz
  1  'x, y, z'
loop_
 _atom_site_type_symbol
 _atom_site_label
 _atom_site_symmetry_multiplicity
 _atom_site_fract_x
 _atom_site_fract_y
 _atom_site_fract_z
 _atom_site_occupancy
  K  K0  1  0.25000000  0.33357900  0.66642100  1
  K  K1  1  0.75000000  0.66642100  0.33357900  1
  Fe  Fe0  1  0.00000000  0.85638500  0.85638500  1
  Fe  Fe1  1  0.50000000  0.85638500  0.85638500  1
  Fe  Fe2  1  0.00000000  0.14361500  0.14361500  1
  Fe  Fe3  1  0.50000000  0.14361500  0.14361500  1
  Se  Se0  1  0.25000000  0.88162100  0.11837900  1
  Se  Se1  1  0.75000000  0.11837900  0.88162100  1
  Se  Se2  1  0.25000000  0.82962900  0.60421400  1
  Se  Se3  1  0.75000000  0.60421400  0.82962900  1
  Se  Se4  1  0.75000000  0.17037100  0.39578600  1
  Se  Se5  1  0.25000000  0.39578600  0.17037100  1
loop_
_geom_bond_atom_site_label_1
_geom_bond_atom_site_label_2
_geom_bond_distance
_geom_bond_site_symmetry_2
K0 Se4 3.385768 1_455
K0 Se4 3.385768 1_555
K0 Se3 3.385768 1_455
K0 Se3 3.385768 1_555
K0 Se2 3.609386 1_545
K0 Se5 3.609386 1_556
K0 Se1 3.637946 1_555
K0 Se1 3.637946 1_455
K0 Se5 3.753657 1_555
K0 Se2 3.753657 1_555
K1 Se5 3.385768 1_555
K1 Se5 3.385768 1_655
K1 Se2 3.385768 1_555
K1 Se2 3.385768 1_655
K1 Se3 3.609386 1_554
K1 Se4 3.609386 1_565
K1 Se0 3.637946 1_555
K1 Se0 3.637946 1_655
K1 Se4 3.753657 1_555
K1 Se3 3.753657 1_555
Fe0 Se3 2.251668 1_455
Fe0 Se2 2.251668 1_555
Fe0 Se0 2.310599 1_556
Fe0 Se1 2.310599 1_465
Fe1 Se3 2.251668 1_555
Fe1 Se2 2.251668 1_555
Fe1 Se0 2.310599 1_556
Fe1 Se1 2.310599 1_565
Fe2 Se4 2.251668 1_455
Fe2 Se5 2.251668 1_555
Fe2 Se0 2.310599 1_545
Fe2 Se1 2.310599 1_454
Fe3 Se5 2.251668 1_555
Fe3 Se4 2.251668 1_555
Fe3 Se0 2.310599 1_545
Fe3 Se1 2.310599 1_554
