# generated using pymatgen
data_Cs2B12H2OF12
_symmetry_space_group_name_H-M   'P 1'
_cell_length_a   10.27667800
_cell_length_b   10.62635200
_cell_length_c   15.37803000
_cell_angle_alpha   90.00000000
_cell_angle_beta   90.00000000
_cell_angle_gamma   90.00000000
_symmetry_Int_Tables_number   1
_chemical_formula_structural   Cs2B12H2OF12
_chemical_formula_sum   'Cs8 B48 H8 O4 F48'
_cell_volume   1679.33620336
_cell_formula_units_Z   4
loop_
 _symmetry_equiv_pos_site_id
 _symmetry_equiv_pos_as_xyz
  1  'x, y, z'
loop_
 _atom_site_type_symbol
 _atom_site_label
 _atom_site_symmetry_multiplicity
 _atom_site_fract_x
 _atom_site_fract_y
 _atom_site_fract_z
 _atom_site_occupancy
  Cs  Cs0  1  0.96056600  0.99888900  0.11222200  1
  Cs  Cs1  1  0.53943400  0.00111100  0.61222200  1
  Cs  Cs2  1  0.46056600  0.50111100  0.88777800  1
  Cs  Cs3  1  0.03943400  0.49888900  0.38777800  1
  Cs  Cs4  1  0.39020400  0.66074100  0.19454700  1
  Cs  Cs5  1  0.10979600  0.33925900  0.69454700  1
  Cs  Cs6  1  0.89020400  0.83925900  0.80545300  1
  Cs  Cs7  1  0.60979600  0.16074100  0.30545300  1
  B  B0  1  0.04866200  0.99306500  0.55151700  1
  B  B1  1  0.45133800  0.00693500  0.05151700  1
  B  B2  1  0.54866200  0.50693500  0.44848300  1
  B  B3  1  0.95133800  0.49306500  0.94848300  1
  B  B4  1  0.18874100  0.08026700  0.51561900  1
  B  B5  1  0.31125900  0.91973300  0.01561900  1
  B  B6  1  0.68874100  0.41973300  0.48438100  1
  B  B7  1  0.81125900  0.58026700  0.98438100  1
  B  B8  1  0.19419700  0.91224200  0.51700800  1
  B  B9  1  0.30580300  0.08775800  0.01700800  1
  B  B10  1  0.69419700  0.58775800  0.48299200  1
  B  B11  1  0.80580300  0.41224200  0.98299200  1
  B  B12  1  0.03710900  0.85486800  0.48507300  1
  B  B13  1  0.46289100  0.14513200  0.98507300  1
  B  B14  1  0.53710900  0.64513200  0.51492700  1
  B  B15  1  0.96289100  0.35486800  0.01492700  1
  B  B16  1  0.93304500  0.98925300  0.46414800  1
  B  B17  1  0.56695500  0.01074700  0.96414800  1
  B  B18  1  0.43304500  0.51074700  0.53585200  1
  B  B19  1  0.06695500  0.48925300  0.03585200  1
  B  B20  1  0.02926300  0.12857200  0.48297600  1
  B  B21  1  0.47073700  0.87142800  0.98297600  1
  B  B22  1  0.52926300  0.37142800  0.51702400  1
  B  B23  1  0.97073700  0.62857200  0.01702400  1
  B  B24  1  0.26349700  0.99785100  0.42687500  1
  B  B25  1  0.23650300  0.00214900  0.92687500  1
  B  B26  1  0.76349700  0.50214900  0.57312500  1
  B  B27  1  0.73650300  0.49785100  0.07312500  1
  B  B28  1  0.16883300  0.85809600  0.40768600  1
  B  B29  1  0.33116700  0.14190400  0.90768600  1
  B  B30  1  0.66883300  0.64190400  0.59231400  1
  B  B31  1  0.83116700  0.35809600  0.09231400  1
  B  B32  1  0.00826100  0.90551900  0.37558200  1
  B  B33  1  0.49173900  0.09448100  0.87558200  1
  B  B34  1  0.50826100  0.59448100  0.62441800  1
  B  B35  1  0.99173900  0.40551900  0.12441800  1
  B  B36  1  0.00315300  0.07389300  0.37415400  1
  B  B37  1  0.49684700  0.92610700  0.87415400  1
  B  B38  1  0.50315300  0.42610700  0.62584600  1
  B  B39  1  0.99684700  0.57389300  0.12584600  1
  B  B40  1  0.16045600  0.13176600  0.40581400  1
  B  B41  1  0.33954400  0.86823400  0.90581400  1
  B  B42  1  0.66045600  0.36823400  0.59418600  1
  B  B43  1  0.83954400  0.63176600  0.09418600  1
  B  B44  1  0.14813400  0.99359500  0.33944000  1
  B  B45  1  0.35186600  0.00640500  0.83944000  1
  B  B46  1  0.64813400  0.50640500  0.66056000  1
  B  B47  1  0.85186600  0.49359500  0.16056000  1
  H  H0  1  0.73794000  0.83904000  0.31558000  1
  H  H1  1  0.76206000  0.16096000  0.81558000  1
  H  H2  1  0.23794000  0.66096000  0.68442000  1
  H  H3  1  0.26206000  0.33904000  0.18442000  1
  H  H4  1  0.59141300  0.83395800  0.33608500  1
  H  H5  1  0.90858700  0.16604200  0.83608500  1
  H  H6  1  0.09141300  0.66604200  0.66391500  1
  H  H7  1  0.40858700  0.33395800  0.16391500  1
  O  O0  1  0.65407700  0.87536400  0.29827000  1
  O  O1  1  0.84592300  0.12463600  0.79827000  1
  O  O2  1  0.15407700  0.62463600  0.70173000  1
  O  O3  1  0.34592300  0.37536400  0.20173000  1
  F  F0  1  0.01114500  0.99202800  0.63866200  1
  F  F1  1  0.48885500  0.00797200  0.13866200  1
  F  F2  1  0.51114500  0.50797200  0.36133800  1
  F  F3  1  0.98885500  0.49202800  0.86133800  1
  F  F4  1  0.25960900  0.15254800  0.57507700  1
  F  F5  1  0.24039100  0.84745200  0.07507700  1
  F  F6  1  0.75960900  0.34745200  0.42492300  1
  F  F7  1  0.74039100  0.65254800  0.92492300  1
  F  F8  1  0.26826500  0.84703400  0.57787400  1
  F  F9  1  0.23173500  0.15296600  0.07787400  1
  F  F10  1  0.76826500  0.65296600  0.42212600  1
  F  F11  1  0.73173500  0.34703400  0.92212600  1
  F  F12  1  0.99501600  0.74057700  0.51963700  1
  F  F13  1  0.50498400  0.25942300  0.01963700  1
  F  F14  1  0.49501600  0.75942300  0.48036300  1
  F  F15  1  0.00498400  0.24057700  0.98036300  1
  F  F16  1  0.79857100  0.98864800  0.47676000  1
  F  F17  1  0.70142900  0.01135200  0.97676000  1
  F  F18  1  0.29857100  0.51135200  0.52324000  1
  F  F19  1  0.20142900  0.48864800  0.02324000  1
  F  F20  1  0.98132200  0.24292700  0.51444400  1
  F  F21  1  0.51867800  0.75707300  0.01444400  1
  F  F22  1  0.48132200  0.25707300  0.48555600  1
  F  F23  1  0.01867800  0.74292700  0.98555600  1
  F  F24  1  0.39770800  0.00242100  0.41166900  1
  F  F25  1  0.10229200  0.99757900  0.91166900  1
  F  F26  1  0.89770800  0.49757900  0.58833100  1
  F  F27  1  0.60229200  0.50242100  0.08833100  1
  F  F28  1  0.22313600  0.74690900  0.37468100  1
  F  F29  1  0.27686400  0.25309100  0.87468100  1
  F  F30  1  0.72313600  0.75309100  0.62531900  1
  F  F31  1  0.77686400  0.24690900  0.12531900  1
  F  F32  1  0.93569800  0.83674800  0.31484800  1
  F  F33  1  0.56430200  0.16325200  0.81484800  1
  F  F34  1  0.43569800  0.66325200  0.68515200  1
  F  F35  1  0.06430200  0.33674800  0.18515200  1
  F  F36  1  0.20744600  0.24660700  0.37568300  1
  F  F37  1  0.29255400  0.75339300  0.87568300  1
  F  F38  1  0.70744600  0.25339300  0.62431700  1
  F  F39  1  0.79255400  0.74660700  0.12431700  1
  F  F40  1  0.92346300  0.13559800  0.31365100  1
  F  F41  1  0.57653700  0.86440200  0.81365100  1
  F  F42  1  0.42346300  0.36440200  0.68634900  1
  F  F43  1  0.07653700  0.63559800  0.18634900  1
  F  F44  1  0.18557100  0.99042000  0.25236800  1
  F  F45  1  0.31442900  0.00958000  0.75236800  1
  F  F46  1  0.68557100  0.50958000  0.74763200  1
  F  F47  1  0.81442900  0.49042000  0.24763200  1
loop_
_geom_bond_atom_site_label_1
_geom_bond_atom_site_label_2
_geom_bond_distance
_geom_bond_site_symmetry_2
Cs0 F44 3.162215 1_655
Cs0 F39 3.194159 1_555
Cs0 F31 3.248175 1_565
Cs0 F9 3.274975 1_665
Cs0 F15 3.303941 1_664
Cs0 F5 3.344454 1_655
Cs0 F17 3.383627 1_564
Cs0 F23 3.398374 1_654
Cs0 F25 3.410754 1_654
Cs0 F40 3.442497 1_565
Cs0 F32 3.569778 1_555
Cs1 F45 3.162215 1_555
Cs1 F38 3.194159 1_555
Cs1 F30 3.248175 1_545
Cs1 F8 3.274975 1_545
Cs1 F14 3.303941 1_545
Cs1 F4 3.344454 1_555
Cs1 F16 3.383627 1_545
Cs1 F22 3.398374 1_555
Cs1 F24 3.410754 1_555
Cs1 F41 3.442497 1_545
Cs1 F33 3.569778 1_555
Cs2 F46 3.162215 1_555
Cs2 F37 3.194159 1_555
Cs2 F29 3.248175 1_555
Cs2 F11 3.274975 1_555
Cs2 F13 3.303941 1_556
Cs2 F7 3.344454 1_555
Cs2 F19 3.383627 1_556
Cs2 F21 3.398374 1_556
Cs2 F27 3.410754 1_556
Cs2 F42 3.442497 1_555
Cs2 F34 3.569778 1_555
Cs3 F47 3.162215 1_455
Cs3 F36 3.194159 1_555
Cs3 F28 3.248175 1_555
Cs3 F10 3.274975 1_455
Cs3 F12 3.303941 1_455
Cs3 F6 3.344454 1_455
Cs3 F18 3.383627 1_555
Cs3 F20 3.398374 1_455
Cs3 F26 3.410754 1_455
Cs3 F43 3.442497 1_555
Cs3 F35 3.569778 1_555
Cs4 O3 3.068459 1_555
Cs4 F5 3.111614 1_555
Cs4 F27 3.201375 1_555
Cs4 F21 3.234482 1_555
Cs4 F43 3.236964 1_555
Cs4 F2 3.280074 1_555
Cs4 F28 3.385213 1_555
Cs5 O2 3.068459 1_555
Cs5 F4 3.111614 1_555
Cs5 F26 3.201375 1_455
Cs5 F20 3.234482 1_455
Cs5 F42 3.236964 1_555
Cs5 F3 3.280074 1_455
Cs5 F29 3.385213 1_555
Cs6 O1 3.068459 1_565
Cs6 F7 3.111614 1_555
Cs6 F25 3.201375 1_655
Cs6 F23 3.234482 1_655
Cs6 F41 3.236964 1_555
Cs6 F0 3.280074 1_655
Cs6 F30 3.385213 1_555
Cs7 O0 3.068459 1_545
Cs7 F6 3.111614 1_555
Cs7 F24 3.201375 1_555
Cs7 F22 3.234482 1_555
Cs7 F40 3.236964 1_555
Cs7 F1 3.280074 1_555
Cs7 F31 3.385213 1_555
B0 F0 1.394521 1_555
B1 F1 1.394521 1_555
B2 F2 1.394521 1_555
B3 F3 1.394521 1_555
B4 F4 1.398708 1_555
B5 F5 1.398708 1_555
B6 F6 1.398708 1_555
B7 F7 1.398708 1_555
B8 F8 1.391266 1_555
B9 F9 1.391266 1_555
B10 F10 1.391266 1_555
B11 F11 1.391266 1_555
B12 F12 1.394505 1_455
B13 F13 1.394505 1_556
B14 F14 1.394505 1_555
B15 F15 1.394505 1_654
B16 F16 1.395504 1_555
B17 F17 1.395504 1_555
B18 F18 1.395504 1_555
B19 F19 1.395504 1_555
B20 F20 1.397697 1_455
B21 F21 1.397697 1_556
B22 F22 1.397697 1_555
B23 F23 1.397697 1_654
B24 F24 1.399768 1_565
B25 F25 1.399768 1_545
B26 F26 1.399768 1_555
B27 F27 1.399768 1_555
B28 F28 1.401786 1_555
B29 F29 1.401786 1_555
B30 F30 1.401786 1_555
B31 F31 1.401786 1_555
B32 F32 1.400865 1_455
B33 F33 1.400865 1_555
B34 F34 1.400865 1_555
B35 F35 1.400865 1_655
B36 F40 1.402246 1_455
B37 F41 1.402246 1_555
B38 F42 1.402246 1_555
B39 F43 1.402246 1_655
B40 F36 1.391806 1_555
B41 F37 1.391806 1_555
B42 F38 1.391806 1_555
B43 F39 1.391806 1_555
B44 F44 1.393579 1_555
B45 F45 1.393579 1_555
B46 F46 1.393579 1_555
B47 F47 1.393579 1_555
H0 O0 0.981124 1_555
H1 O1 0.981124 1_555
H2 O2 0.981124 1_555
H3 O3 0.981124 1_555
H4 O0 0.972866 1_555
H5 O1 0.972866 1_555
H6 O2 0.972866 1_555
H7 O3 0.972866 1_555
