# generated using pymatgen
data_Ce3S4
_symmetry_space_group_name_H-M   'P 1'
_cell_length_a   7.39333508
_cell_length_b   7.39333508
_cell_length_c   7.39333508
_cell_angle_alpha   109.47122063
_cell_angle_beta   109.47122063
_cell_angle_gamma   109.47122063
_symmetry_Int_Tables_number   1
_chemical_formula_structural   Ce3S4
_chemical_formula_sum   'Ce6 S8'
_cell_volume   311.09947538
_cell_formula_units_Z   2
loop_
 _symmetry_equiv_pos_site_id
 _symmetry_equiv_pos_as_xyz
  1  'x, y, z'
loop_
 _atom_site_type_symbol
 _atom_site_label
 _atom_site_symmetry_multiplicity
 _atom_site_fract_x
 _atom_site_fract_y
 _atom_site_fract_z
 _atom_site_occupancy
  Ce  Ce0  1  0.87500000  0.25000000  0.12500000  1
  Ce  Ce1  1  0.12500000  0.87500000  0.25000000  1
  Ce  Ce2  1  0.37500000  0.62500000  0.75000000  1
  Ce  Ce3  1  0.25000000  0.12500000  0.87500000  1
  Ce  Ce4  1  0.75000000  0.37500000  0.62500000  1
  Ce  Ce5  1  0.62500000  0.75000000  0.37500000  1
  S  S0  1  0.50000000  0.00000000  0.65105200  1
  S  S1  1  0.15105200  0.50000000  0.00000000  1
  S  S2  1  0.34894800  0.34894800  0.34894800  1
  S  S3  1  0.00000000  0.15105200  0.50000000  1
  S  S4  1  0.84894800  0.84894800  0.84894800  1
  S  S5  1  0.00000000  0.65105200  0.50000000  1
  S  S6  1  0.50000000  0.00000000  0.15105200  1
  S  S7  1  0.65105200  0.50000000  0.00000000  1
loop_
_geom_bond_atom_site_label_1
_geom_bond_atom_site_label_2
_geom_bond_distance
_geom_bond_site_symmetry_2
Ce0 S5 2.883957 1_655
Ce0 S6 2.883957 1_555
Ce0 S1 2.883957 1_655
Ce0 S4 2.883957 1_544
Ce0 S0 3.028321 1_554
Ce0 S3 3.028321 1_655
Ce0 S7 3.028321 1_555
Ce0 S2 3.028321 1_655
Ce1 S3 2.883957 1_565
Ce1 S4 2.883957 1_454
Ce1 S1 2.883957 1_555
Ce1 S0 2.883957 1_565
Ce1 S5 3.028321 1_555
Ce1 S2 3.028321 1_565
Ce1 S6 3.028321 1_565
Ce1 S7 3.028321 1_455
Ce2 S7 2.883957 1_556
Ce2 S5 2.883957 1_555
Ce2 S2 2.883957 1_555
Ce2 S6 2.883957 1_566
Ce2 S0 3.028321 1_565
Ce2 S1 3.028321 1_556
Ce2 S3 3.028321 1_555
Ce2 S4 3.028321 1_555
Ce3 S7 2.883957 1_556
Ce3 S4 2.883957 1_445
Ce3 S3 2.883957 1_555
Ce3 S6 2.883957 1_556
Ce3 S2 3.028321 1_556
Ce3 S0 3.028321 1_555
Ce3 S5 3.028321 1_545
Ce3 S1 3.028321 1_556
Ce4 S0 2.883957 1_555
Ce4 S1 2.883957 1_656
Ce4 S5 2.883957 1_655
Ce4 S2 2.883957 1_555
Ce4 S6 3.028321 1_555
Ce4 S3 3.028321 1_655
Ce4 S4 3.028321 1_555
Ce4 S7 3.028321 1_556
Ce5 S7 2.883957 1_555
Ce5 S3 2.883957 1_665
Ce5 S0 2.883957 1_565
Ce5 S2 2.883957 1_555
Ce5 S5 3.028321 1_655
Ce5 S4 3.028321 1_555
Ce5 S6 3.028321 1_565
Ce5 S1 3.028321 1_555
