# generated using pymatgen
data_TaN
_symmetry_space_group_name_H-M   'P 1'
_cell_length_a   10.59739624
_cell_length_b   10.72753960
_cell_length_c   11.28906667
_cell_angle_alpha   91.51588300
_cell_angle_beta   90.17307850
_cell_angle_gamma   84.53434077
_symmetry_Int_Tables_number   1
_chemical_formula_structural   TaN
_chemical_formula_sum   'Ta50 N50'
_cell_volume   1277.10389297
_cell_formula_units_Z   50
loop_
 _symmetry_equiv_pos_site_id
 _symmetry_equiv_pos_as_xyz
  1  'x, y, z'
loop_
 _atom_site_type_symbol
 _atom_site_label
 _atom_site_symmetry_multiplicity
 _atom_site_fract_x
 _atom_site_fract_y
 _atom_site_fract_z
 _atom_site_occupancy
  Ta  Ta0  1  0.69756200  0.74274500  0.12159600  1
  Ta  Ta1  1  0.35231700  0.76354100  0.20294800  1
  Ta  Ta2  1  0.46082800  0.43009800  0.35792400  1
  Ta  Ta3  1  0.93186200  0.84746900  0.04158200  1
  Ta  Ta4  1  0.20360000  0.81355500  0.94714600  1
  Ta  Ta5  1  0.06433700  0.58247600  0.10179100  1
  Ta  Ta6  1  0.33022300  0.95850400  0.47042800  1
  Ta  Ta7  1  0.26991100  0.04969200  0.23472400  1
  Ta  Ta8  1  0.69544600  0.15661200  0.68636500  1
  Ta  Ta9  1  0.77278100  0.98506700  0.26233600  1
  Ta  Ta10  1  0.03064800  0.08592400  0.87853500  1
  Ta  Ta11  1  0.06565600  0.92554600  0.37231700  1
  Ta  Ta12  1  0.86128800  0.63113800  0.62572600  1
  Ta  Ta13  1  0.34205100  0.61907800  0.74813400  1
  Ta  Ta14  1  0.80797100  0.33778000  0.90255600  1
  Ta  Ta15  1  0.25667800  0.25224200  0.38442100  1
  Ta  Ta16  1  0.71112200  0.48832400  0.30527400  1
  Ta  Ta17  1  0.70275500  0.88195900  0.87438600  1
  Ta  Ta18  1  0.40044000  0.17885400  0.62500400  1
  Ta  Ta19  1  0.12255300  0.33909700  0.83914300  1
  Ta  Ta20  1  0.52669800  0.10978400  0.38013000  1
  Ta  Ta21  1  0.25780300  0.29875700  0.08181800  1
  Ta  Ta22  1  0.51526100  0.82573300  0.68812400  1
  Ta  Ta23  1  0.48067500  0.75677500  0.94959900  1
  Ta  Ta24  1  0.23325800  0.88183900  0.68912700  1
  Ta  Ta25  1  0.96646400  0.34286100  0.15284200  1
  Ta  Ta26  1  0.00109100  0.07293200  0.16490700  1
  Ta  Ta27  1  0.20857400  0.56451700  0.32460700  1
  Ta  Ta28  1  0.26996200  0.43492500  0.57977200  1
  Ta  Ta29  1  0.52933800  0.97381800  0.10657300  1
  Ta  Ta30  1  0.97295900  0.44276600  0.43391900  1
  Ta  Ta31  1  0.85162300  0.60404000  0.93963000  1
  Ta  Ta32  1  0.70695900  0.94488100  0.51439800  1
  Ta  Ta33  1  0.56995700  0.82498700  0.33794500  1
  Ta  Ta34  1  0.53945800  0.24656600  0.15237500  1
  Ta  Ta35  1  0.56870600  0.42799200  0.60503900  1
  Ta  Ta36  1  0.56784500  0.16799500  0.89818700  1
  Ta  Ta37  1  0.86958300  0.74028600  0.34582400  1
  Ta  Ta38  1  0.90426100  0.91230300  0.69121300  1
  Ta  Ta39  1  0.63371700  0.57587200  0.79857400  1
  Ta  Ta40  1  0.41218700  0.37830500  0.82345500  1
  Ta  Ta41  1  0.89526800  0.35345400  0.65581100  1
  Ta  Ta42  1  0.78561300  0.09290800  0.01428300  1
  Ta  Ta43  1  0.58040900  0.45702600  0.01486500  1
  Ta  Ta44  1  0.07800600  0.60710300  0.77993700  1
  Ta  Ta45  1  0.39904300  0.67043200  0.50640900  1
  Ta  Ta46  1  0.79896500  0.21429600  0.41827800  1
  Ta  Ta47  1  0.11081400  0.71400200  0.55094500  1
  Ta  Ta48  1  0.07010700  0.10307800  0.58034800  1
  Ta  Ta49  1  0.33179700  0.05602300  0.93788100  1
  N  N0  1  0.82400500  0.77431200  0.52380900  1
  N  N1  1  0.73004600  0.29932100  0.57957600  1
  N  N2  1  0.95264500  0.45306900  0.81856500  1
  N  N3  1  0.09116700  0.94636400  0.04733300  1
  N  N4  1  0.88417900  0.95790500  0.87863400  1
  N  N5  1  0.02503000  0.21148800  0.73569000  1
  N  N6  1  0.06998700  0.71586800  0.37400200  1
  N  N7  1  0.15669700  0.42137000  0.43745600  1
  N  N8  1  0.45541600  0.55894000  0.89745800  1
  N  N9  1  0.17321200  0.08540200  0.41157200  1
  N  N10  1  0.78164000  0.69841400  0.78157500  1
  N  N11  1  0.38832800  0.18199700  0.81199800  1
  N  N12  1  0.85471300  0.45151300  0.04963900  1
  N  N13  1  0.67496900  0.27118900  0.02547500  1
  N  N14  1  0.42953000  0.34507100  0.01329200  1
  N  N15  1  0.62336800  0.49505300  0.45003400  1
  N  N16  1  0.86190200  0.35027100  0.31334500  1
  N  N17  1  0.36532200  0.80173800  0.80782300  1
  N  N18  1  0.23112300  0.46687700  0.77166700  1
  N  N19  1  0.41815900  0.31246600  0.49482800  1
  N  N20  1  0.13330100  0.21190200  0.20112800  1
  N  N21  1  0.69409700  0.67437600  0.29183200  1
  N  N22  1  0.21702500  0.65763000  0.15234100  1
  N  N23  1  0.88721100  0.68013700  0.11854300  1
  N  N24  1  0.19144900  0.96989300  0.84910000  1
  N  N25  1  0.52126400  0.63509000  0.64928900  1
  N  N26  1  0.12117200  0.42398100  0.01360300  1
  N  N27  1  0.52008600  0.97420100  0.91022700  1
  N  N28  1  0.24945000  0.88039900  0.31160800  1
  N  N29  1  0.18028300  0.19167300  0.94723700  1
  N  N30  1  0.56869600  0.09402000  0.55596000  1
  N  N31  1  0.34954300  0.88638300  0.05451700  1
  N  N32  1  0.03114100  0.70601200  0.93231000  1
  N  N33  1  0.03869700  0.49077900  0.24918700  1
  N  N34  1  0.25772400  0.05940200  0.62888000  1
  N  N35  1  0.85295100  0.06500900  0.58638000  1
  N  N36  1  0.69350600  0.93197800  0.70174900  1
  N  N37  1  0.38475400  0.12842800  0.10965400  1
  N  N38  1  0.51996200  0.84164600  0.50699200  1
  N  N39  1  0.56894200  0.45197600  0.19275200  1
  N  N40  1  0.95240600  0.88453300  0.22633200  1
  N  N41  1  0.73333000  0.92245800  0.07710400  1
  N  N42  1  0.31792900  0.37129900  0.24835000  1
  N  N43  1  0.94136200  0.20388600  0.01332600  1
  N  N44  1  0.61670800  0.35257000  0.80616700  1
  N  N45  1  0.61635200  0.25933300  0.32824100  1
  N  N46  1  0.92259400  0.08595700  0.33821000  1
  N  N47  1  0.39890100  0.62256300  0.32661200  1
  N  N48  1  0.65317200  0.63512100  0.97882100  1
  N  N49  1  0.05961200  0.90669400  0.56659800  1
loop_
_geom_bond_atom_site_label_1
_geom_bond_atom_site_label_2
_geom_bond_distance
_geom_bond_site_symmetry_2
N0 Ta12 1.952951 1_555
N0 Ta37 2.082602 1_555
N0 Ta32 2.115439 1_555
N0 Ta38 2.562860 1_555
N1 Ta8 2.034392 1_555
N1 Ta41 2.074073 1_555
N1 Ta35 2.108002 1_555
N1 Ta46 2.115259 1_555
N2 Ta19 2.093809 1_655
N2 Ta41 2.213741 1_555
N2 Ta44 2.268332 1_655
N2 Ta31 2.279998 1_555
N2 Ta14 2.282824 1_555
N3 Ta26 2.044959 1_565
N3 Ta3 2.077664 1_455
N3 Ta4 2.080429 1_554
N3 Ta10 2.498917 1_564
N4 Ta17 2.158310 1_555
N4 Ta38 2.165496 1_555
N4 Ta10 2.168294 1_665
N4 Ta3 2.244636 1_556
N4 Ta42 2.266645 1_566
N5 Ta48 2.108879 1_555
N5 Ta19 2.117467 1_555
N5 Ta10 2.125426 1_555
N5 Ta41 2.165585 1_455
N6 Ta47 2.042775 1_555
N6 Ta37 2.138812 1_455
N6 Ta27 2.146359 1_555
N6 Ta11 2.246006 1_555
N7 Ta30 1.939207 1_455
N7 Ta28 2.013044 1_555
N7 Ta15 2.086390 1_555
N7 Ta27 2.133514 1_555
N8 Ta43 2.120555 1_556
N8 Ta13 2.144489 1_555
N8 Ta40 2.178049 1_555
N8 Ta39 2.222228 1_555
N8 Ta23 2.227866 1_555
N9 Ta15 2.100450 1_555
N9 Ta6 2.161685 1_545
N9 Ta11 2.182980 1_545
N9 Ta48 2.194101 1_555
N9 Ta7 2.253841 1_555
N10 Ta12 2.038259 1_555
N10 Ta39 2.151750 1_555
N10 Ta31 2.168694 1_555
N10 Ta17 2.292623 1_555
N10 Ta38 2.948525 1_555
N11 Ta49 2.113212 1_555
N11 Ta18 2.114457 1_555
N11 Ta36 2.128513 1_555
N11 Ta40 2.145299 1_555
N12 Ta25 1.979641 1_555
N12 Ta31 2.077913 1_554
N12 Ta14 2.119894 1_554
N13 Ta34 2.071003 1_555
N13 Ta42 2.146962 1_555
N13 Ta43 2.150397 1_555
N13 Ta14 2.162994 1_554
N13 Ta36 2.173590 1_554
N14 Ta21 2.087646 1_555
N14 Ta43 2.088970 1_555
N14 Ta40 2.186150 1_554
N14 Ta34 2.186608 1_555
N14 Ta36 2.606905 1_554
N15 Ta16 1.879048 1_555
N15 Ta35 2.016736 1_555
N15 Ta2 2.171013 1_555
N16 Ta46 2.063343 1_555
N16 Ta16 2.076112 1_555
N16 Ta30 2.088966 1_555
N16 Ta25 2.122496 1_555
N17 Ta23 2.050702 1_555
N17 Ta24 2.076795 1_555
N17 Ta13 2.091811 1_555
N17 Ta22 2.127519 1_555
N17 Ta4 2.321944 1_555
N18 Ta19 2.035686 1_555
N18 Ta44 2.105478 1_555
N18 Ta13 2.123396 1_555
N18 Ta40 2.145164 1_555
N18 Ta28 2.217892 1_555
N19 Ta2 2.097999 1_555
N19 Ta18 2.100879 1_555
N19 Ta28 2.158988 1_555
N19 Ta15 2.248216 1_555
N19 Ta35 2.431517 1_555
N19 Ta20 2.666597 1_555
N20 Ta26 2.171387 1_555
N20 Ta21 2.175869 1_555
N20 Ta7 2.195315 1_555
N20 Ta25 2.226718 1_455
N20 Ta15 2.494483 1_555
N21 Ta16 1.996591 1_555
N21 Ta33 2.041290 1_555
N21 Ta0 2.076713 1_555
N21 Ta37 2.133246 1_555
N22 Ta5 1.952554 1_555
N22 Ta1 1.985926 1_555
N22 Ta27 2.215532 1_555
N22 Ta4 2.888218 1_554
N23 Ta0 2.057563 1_555
N23 Ta5 2.067319 1_655
N23 Ta3 2.108980 1_555
N23 Ta31 2.203379 1_554
N23 Ta37 2.631894 1_555
N24 Ta4 2.027473 1_555
N24 Ta10 2.034968 1_565
N24 Ta24 2.045696 1_555
N24 Ta49 2.067399 1_565
N25 Ta22 2.075272 1_555
N25 Ta45 2.085484 1_555
N25 Ta39 2.136404 1_555
N25 Ta13 2.228605 1_555
N25 Ta35 2.273339 1_555
N26 Ta5 1.990924 1_555
N26 Ta21 2.042444 1_555
N26 Ta19 2.147334 1_554
N26 Ta25 2.505150 1_455
N27 Ta49 2.122507 1_565
N27 Ta17 2.123418 1_555
N27 Ta36 2.193719 1_565
N27 Ta29 2.218530 1_556
N27 Ta23 2.460456 1_555
N28 Ta1 1.982671 1_555
N28 Ta7 2.063519 1_565
N28 Ta11 2.075753 1_555
N28 Ta6 2.167305 1_555
N29 Ta49 2.062680 1_555
N29 Ta19 2.068280 1_555
N29 Ta21 2.093478 1_556
N29 Ta10 2.166041 1_555
N30 Ta20 2.040790 1_555
N30 Ta18 2.068053 1_555
N30 Ta32 2.108215 1_545
N30 Ta8 2.128354 1_555
N31 Ta4 2.154154 1_554
N31 Ta1 2.157403 1_555
N31 Ta23 2.195883 1_554
N31 Ta49 2.267361 1_564
N31 Ta29 2.271571 1_555
N31 Ta7 2.731327 1_565
N32 Ta44 2.034602 1_555
N32 Ta3 2.129801 1_456
N32 Ta4 2.255832 1_555
N32 Ta31 2.285794 1_455
N32 Ta5 2.362612 1_556
N33 Ta5 1.987583 1_555
N33 Ta25 2.102833 1_455
N33 Ta27 2.194981 1_555
N33 Ta30 2.287724 1_455
N34 Ta48 2.074219 1_555
N34 Ta18 2.074593 1_555
N34 Ta24 2.078897 1_545
N34 Ta6 2.170026 1_545
N35 Ta38 2.075771 1_545
N35 Ta8 2.160086 1_555
N35 Ta32 2.243091 1_545
N35 Ta48 2.376719 1_655
N35 Ta46 2.544224 1_555
N36 Ta17 2.034683 1_555
N36 Ta32 2.129285 1_555
N36 Ta38 2.226542 1_555
N36 Ta22 2.299966 1_555
N36 Ta8 2.422639 1_565
N37 Ta7 2.111263 1_555
N37 Ta29 2.147778 1_545
N37 Ta49 2.162258 1_554
N37 Ta21 2.192476 1_555
N37 Ta34 2.210257 1_555
N38 Ta33 1.981059 1_555
N38 Ta22 2.057566 1_555
N38 Ta6 2.308061 1_555
N38 Ta45 2.337359 1_555
N38 Ta32 2.360654 1_555
N39 Ta43 2.014688 1_555
N39 Ta16 2.027322 1_555
N39 Ta2 2.220795 1_555
N39 Ta34 2.288703 1_555
N40 Ta11 2.097675 1_655
N40 Ta3 2.127279 1_555
N40 Ta9 2.131257 1_555
N40 Ta26 2.259792 1_665
N40 Ta37 2.315354 1_555
N41 Ta0 2.074671 1_555
N41 Ta42 2.101752 1_565
N41 Ta29 2.203474 1_555
N41 Ta3 2.213605 1_555
N41 Ta9 2.229905 1_555
N41 Ta17 2.345355 1_554
N42 Ta2 2.085822 1_555
N42 Ta21 2.134425 1_555
N42 Ta15 2.163318 1_555
N42 Ta27 2.415457 1_555
N42 Ta34 2.795706 1_555
N43 Ta10 2.119157 1_654
N43 Ta42 2.125285 1_555
N43 Ta25 2.173213 1_555
N43 Ta26 2.292082 1_655
N43 Ta14 2.307087 1_554
N44 Ta40 2.167396 1_555
N44 Ta14 2.291736 1_555
N44 Ta36 2.361191 1_555
N44 Ta39 2.423093 1_555
N44 Ta35 2.465887 1_555
N44 Ta8 2.542962 1_555
N44 Ta43 2.595778 1_556
N45 Ta20 2.040350 1_555
N45 Ta34 2.149778 1_555
N45 Ta46 2.201733 1_555
N45 Ta2 2.362245 1_555
N46 Ta46 2.006658 1_555
N46 Ta26 2.124232 1_655
N46 Ta9 2.166951 1_545
N46 Ta11 2.223175 1_645
N47 Ta45 2.080512 1_555
N47 Ta1 2.108359 1_555
N47 Ta2 2.144204 1_555
N47 Ta27 2.166717 1_555
N48 Ta0 2.037786 1_556
N48 Ta39 2.130959 1_555
N48 Ta31 2.143369 1_555
N48 Ta23 2.172166 1_555
N48 Ta43 2.175758 1_556
N49 Ta47 2.089541 1_555
N49 Ta48 2.121780 1_565
N49 Ta38 2.164179 1_455
N49 Ta11 2.209556 1_555
N49 Ta24 2.298135 1_555
