# generated using pymatgen
data_KFe2P2O11
_symmetry_space_group_name_H-M   'P 1'
_cell_length_a   9.67933200
_cell_length_b   9.61650500
_cell_length_c   12.33397982
_cell_angle_alpha   50.57498934
_cell_angle_beta   90.00000000
_cell_angle_gamma   90.00000000
_symmetry_Int_Tables_number   1
_chemical_formula_structural   KFe2P2O11
_chemical_formula_sum   'K4 Fe8 P8 O44'
_cell_volume   886.82897334
_cell_formula_units_Z   4
loop_
 _symmetry_equiv_pos_site_id
 _symmetry_equiv_pos_as_xyz
  1  'x, y, z'
loop_
 _atom_site_type_symbol
 _atom_site_label
 _atom_site_symmetry_multiplicity
 _atom_site_fract_x
 _atom_site_fract_y
 _atom_site_fract_z
 _atom_site_occupancy
  K  K0  1  0.69468500  0.37489400  0.01788700  1
  K  K1  1  0.80531500  0.37489400  0.51788700  1
  K  K2  1  0.30531500  0.62510600  0.98211300  1
  K  K3  1  0.19468500  0.62510600  0.48211300  1
  Fe  Fe0  1  0.05271600  0.97530900  0.90025800  1
  Fe  Fe1  1  0.44728400  0.97530900  0.40025800  1
  Fe  Fe2  1  0.94728400  0.02469100  0.09974200  1
  Fe  Fe3  1  0.55271600  0.02469100  0.59974200  1
  Fe  Fe4  1  0.73752000  0.72786200  0.09053000  1
  Fe  Fe5  1  0.76248000  0.72786200  0.59053000  1
  Fe  Fe6  1  0.26248000  0.27213800  0.90947000  1
  Fe  Fe7  1  0.23752000  0.27213800  0.40947000  1
  P  P0  1  0.02878700  0.63430200  0.21557100  1
  P  P1  1  0.47121300  0.63430200  0.71557100  1
  P  P2  1  0.97121300  0.36569800  0.78442900  1
  P  P3  1  0.52878700  0.36569800  0.28442900  1
  P  P4  1  0.82791600  0.85037800  0.78269800  1
  P  P5  1  0.67208400  0.85037800  0.28269800  1
  P  P6  1  0.17208400  0.14962200  0.21730200  1
  P  P7  1  0.32791600  0.14962200  0.71730200  1
  O  O0  1  0.10070800  0.72151400  0.07323800  1
  O  O1  1  0.39929200  0.72151400  0.57323800  1
  O  O2  1  0.89929200  0.27848600  0.92676200  1
  O  O3  1  0.60070800  0.27848600  0.42676200  1
  O  O4  1  0.61630700  0.51794200  0.15844900  1
  O  O5  1  0.88369300  0.51794200  0.65844900  1
  O  O6  1  0.38369300  0.48205800  0.84155100  1
  O  O7  1  0.11630700  0.48205800  0.34155100  1
  O  O8  1  0.98652100  0.23032600  0.75394700  1
  O  O9  1  0.51347900  0.23032600  0.25394700  1
  O  O10  1  0.01347900  0.76967400  0.24605300  1
  O  O11  1  0.48652100  0.76967400  0.74605300  1
  O  O12  1  0.88454300  0.55693400  0.22303700  1
  O  O13  1  0.61545700  0.55693400  0.72303700  1
  O  O14  1  0.11545700  0.44306600  0.77696300  1
  O  O15  1  0.38454300  0.44306600  0.27696300  1
  O  O16  1  0.76787300  0.72520600  0.93323700  1
  O  O17  1  0.73212700  0.72520600  0.43323700  1
  O  O18  1  0.23212700  0.27479400  0.06676300  1
  O  O19  1  0.26787300  0.27479400  0.56676300  1
  O  O20  1  0.97444500  0.91152800  0.78761000  1
  O  O21  1  0.52555500  0.91152800  0.28761000  1
  O  O22  1  0.02555500  0.08847200  0.21239000  1
  O  O23  1  0.47444500  0.08847200  0.71239000  1
  O  O24  1  0.23462900  0.98484300  0.81969600  1
  O  O25  1  0.26537100  0.98484300  0.31969600  1
  O  O26  1  0.76537100  0.01515700  0.18030400  1
  O  O27  1  0.73462900  0.01515700  0.68030400  1
  O  O28  1  0.65714200  0.73392500  0.23591600  1
  O  O29  1  0.84285800  0.73392500  0.73591600  1
  O  O30  1  0.34285800  0.26607500  0.76408400  1
  O  O31  1  0.15714200  0.26607500  0.26408400  1
  O  O32  1  0.87177200  0.92832200  0.00890100  1
  O  O33  1  0.62822800  0.92832200  0.50890100  1
  O  O34  1  0.12822800  0.07167800  0.99109900  1
  O  O35  1  0.37177200  0.07167800  0.49109900  1
  O  O36  1  0.55722800  0.88380700  0.98959700  1
  O  O37  1  0.94277200  0.88380700  0.48959700  1
  O  O38  1  0.44277200  0.11619300  0.01040300  1
  O  O39  1  0.05722800  0.11619300  0.51040300  1
  O  O40  1  0.61709900  0.14199500  0.84998100  1
  O  O41  1  0.88290100  0.14199500  0.34998100  1
  O  O42  1  0.38290100  0.85800500  0.15001900  1
  O  O43  1  0.11709900  0.85800500  0.65001900  1
loop_
_geom_bond_atom_site_label_1
_geom_bond_atom_site_label_2
_geom_bond_distance
_geom_bond_site_symmetry_2
K0 O2 2.714492 1_554
K0 O26 2.765238 1_555
K0 O9 2.888786 1_555
K0 O16 2.910879 1_554
K0 O4 2.915940 1_555
K0 O13 2.965125 1_554
K1 O3 2.714492 1_555
K1 O27 2.765238 1_555
K1 O8 2.888786 1_555
K1 O17 2.910879 1_555
K1 O5 2.915940 1_555
K1 O12 2.965125 1_555
K2 O0 2.714492 1_556
K2 O24 2.765238 1_555
K2 O11 2.888786 1_555
K2 O18 2.910879 1_556
K2 O6 2.915940 1_555
K2 O15 2.965125 1_556
K3 O1 2.714492 1_555
K3 O25 2.765238 1_555
K3 O10 2.888786 1_555
K3 O19 2.910879 1_555
K3 O7 2.915940 1_555
K3 O14 2.965125 1_555
Fe0 O20 1.990727 1_455
Fe0 O34 1.991797 1_565
Fe0 O24 1.995104 1_555
Fe0 O8 2.014990 1_465
Fe0 O0 2.027462 1_556
Fe0 O32 2.073208 1_456
Fe1 O21 1.990727 1_555
Fe1 O35 1.991797 1_565
Fe1 O25 1.995104 1_555
Fe1 O9 2.014990 1_565
Fe1 O1 2.027462 1_555
Fe1 O33 2.073208 1_555
Fe2 O22 1.990727 1_655
Fe2 O32 1.991797 1_545
Fe2 O26 1.995104 1_555
Fe2 O10 2.014990 1_645
Fe2 O2 2.027462 1_554
Fe2 O34 2.073208 1_654
Fe3 O23 1.990727 1_555
Fe3 O33 1.991797 1_545
Fe3 O27 1.995104 1_555
Fe3 O11 2.014990 1_545
Fe3 O3 2.027462 1_555
Fe3 O35 2.073208 1_555
Fe4 O16 1.978306 1_554
Fe4 O32 1.988282 1_555
Fe4 O28 1.989223 1_555
Fe4 O12 1.996490 1_555
Fe4 O4 2.001382 1_555
Fe4 O36 2.114920 1_554
Fe5 O17 1.978306 1_555
Fe5 O33 1.988282 1_555
Fe5 O29 1.989223 1_555
Fe5 O13 1.996490 1_555
Fe5 O5 2.001382 1_555
Fe5 O37 2.114920 1_555
Fe6 O18 1.978306 1_556
Fe6 O34 1.988282 1_555
Fe6 O30 1.989223 1_555
Fe6 O14 1.996490 1_555
Fe6 O6 2.001382 1_555
Fe6 O38 2.114920 1_556
Fe7 O19 1.978306 1_555
Fe7 O35 1.988282 1_555
Fe7 O31 1.989223 1_555
Fe7 O15 1.996490 1_555
Fe7 O7 2.001382 1_555
Fe7 O39 2.114920 1_555
O0 P0 1.549143 1_555
O1 P1 1.549143 1_555
O2 P2 1.549143 1_555
O3 P3 1.549143 1_555
O4 P3 1.544690 1_555
O5 P2 1.544690 1_555
O6 P1 1.544690 1_555
O7 P0 1.544690 1_555
O8 P2 1.574690 1_555
O9 P3 1.574690 1_555
O10 P0 1.574690 1_555
O11 P1 1.574690 1_555
O12 P0 1.557031 1_655
O13 P1 1.557031 1_555
O14 P2 1.557031 1_455
O15 P3 1.557031 1_555
O16 P4 1.547726 1_555
O17 P5 1.547726 1_555
O18 P6 1.547726 1_555
O19 P7 1.547726 1_555
O20 P4 1.551227 1_555
O21 P5 1.551227 1_555
O22 P6 1.551227 1_555
O23 P7 1.551227 1_555
O24 P7 1.542540 1_565
O25 P6 1.542540 1_565
O26 P5 1.542540 1_545
O27 P4 1.542540 1_545
O28 P5 1.558427 1_555
O29 P4 1.558427 1_555
O30 P7 1.558427 1_555
O31 P6 1.558427 1_555
O36 O40 2.008803 1_565
O37 O41 2.008803 1_565
O38 O42 2.008803 1_545
O39 O43 2.008803 1_545
