# generated using pymatgen
data_GaSb2(TeCl2)2
_symmetry_space_group_name_H-M   'P 1'
_cell_length_a   9.80670800
_cell_length_b   13.48689043
_cell_length_c   18.43148624
_cell_angle_alpha   76.10678009
_cell_angle_beta   87.89866245
_cell_angle_gamma   89.18439628
_symmetry_Int_Tables_number   1
_chemical_formula_structural   GaSb2(TeCl2)2
_chemical_formula_sum   'Ga8 Sb16 Te16 Cl32'
_cell_volume   2364.83911044
_cell_formula_units_Z   8
loop_
 _symmetry_equiv_pos_site_id
 _symmetry_equiv_pos_as_xyz
  1  'x, y, z'
loop_
 _atom_site_type_symbol
 _atom_site_label
 _atom_site_symmetry_multiplicity
 _atom_site_fract_x
 _atom_site_fract_y
 _atom_site_fract_z
 _atom_site_occupancy
  Ga  Ga0  1  0.52121900  0.99965100  0.33753200  1
  Ga  Ga1  1  0.47878100  0.00034900  0.66246800  1
  Ga  Ga2  1  0.99669900  0.74731800  0.81295600  1
  Ga  Ga3  1  0.00330100  0.25268200  0.18704400  1
  Ga  Ga4  1  0.98318600  0.24435100  0.85757200  1
  Ga  Ga5  1  0.01681400  0.75564900  0.14242800  1
  Ga  Ga6  1  0.46708100  0.47696900  0.67022100  1
  Ga  Ga7  1  0.53291900  0.52303100  0.32977900  1
  Sb  Sb0  1  0.38326600  0.99577900  0.90897500  1
  Sb  Sb1  1  0.61673400  0.00422100  0.09102500  1
  Sb  Sb2  1  0.70315300  0.75258700  0.99916500  1
  Sb  Sb3  1  0.29684700  0.24741300  0.00083500  1
  Sb  Sb4  1  0.31666900  0.76919600  0.94622700  1
  Sb  Sb5  1  0.68333100  0.23080400  0.05377300  1
  Sb  Sb6  1  0.42739100  0.48912900  0.10487900  1
  Sb  Sb7  1  0.57260900  0.51087100  0.89512100  1
  Sb  Sb8  1  0.81446100  0.04282700  0.46583600  1
  Sb  Sb9  1  0.18553900  0.95717300  0.53416400  1
  Sb  Sb10  1  0.96124600  0.78055800  0.38132000  1
  Sb  Sb11  1  0.03875400  0.21944200  0.61868000  1
  Sb  Sb12  1  0.11639300  0.73023200  0.58227800  1
  Sb  Sb13  1  0.88360700  0.26976800  0.41772200  1
  Sb  Sb14  1  0.19429800  0.48668300  0.46764000  1
  Sb  Sb15  1  0.80570200  0.51331700  0.53236000  1
  Te  Te0  1  0.66606200  0.98424400  0.94102500  1
  Te  Te1  1  0.33393800  0.01575600  0.05897500  1
  Te  Te2  1  0.45114800  0.73549500  0.08569600  1
  Te  Te3  1  0.54885200  0.26450500  0.91430400  1
  Te  Te4  1  0.56621100  0.74896700  0.86586700  1
  Te  Te5  1  0.43378900  0.25103300  0.13413300  1
  Te  Te6  1  0.30660900  0.50519000  0.96273300  1
  Te  Te7  1  0.69339100  0.49481000  0.03726700  1
  Te  Te8  1  0.05939900  0.99476600  0.39193700  1
  Te  Te9  1  0.94060100  0.00523400  0.60806300  1
  Te  Te10  1  0.84380500  0.75646300  0.52945000  1
  Te  Te11  1  0.15619500  0.24353700  0.47055000  1
  Te  Te12  1  0.22320600  0.72061600  0.43812000  1
  Te  Te13  1  0.77679400  0.27938400  0.56188000  1
  Te  Te14  1  0.94511100  0.53218700  0.38940100  1
  Te  Te15  1  0.05488900  0.46781300  0.61059900  1
  Cl  Cl0  1  0.73176200  0.97915800  0.29464200  1
  Cl  Cl1  1  0.26823800  0.02084200  0.70535800  1
  Cl  Cl2  1  0.49465200  0.89372200  0.44831700  1
  Cl  Cl3  1  0.50534800  0.10627800  0.55168300  1
  Cl  Cl4  1  0.49318400  0.15612400  0.34919100  1
  Cl  Cl5  1  0.50681600  0.84387600  0.65080900  1
  Cl  Cl6  1  0.37593900  0.96615700  0.25931100  1
  Cl  Cl7  1  0.62406100  0.03384300  0.74068900  1
  Cl  Cl8  1  0.86708400  0.71152000  0.72776300  1
  Cl  Cl9  1  0.13291600  0.28848000  0.27223700  1
  Cl  Cl10  1  0.95977000  0.63380700  0.91991600  1
  Cl  Cl11  1  0.04023000  0.36619300  0.08008400  1
  Cl  Cl12  1  0.21253300  0.74523600  0.77709400  1
  Cl  Cl13  1  0.78746700  0.25476400  0.22290600  1
  Cl  Cl14  1  0.94469400  0.89693000  0.83288400  1
  Cl  Cl15  1  0.05530600  0.10307000  0.16711600  1
  Cl  Cl16  1  0.85426300  0.20352500  0.77412500  1
  Cl  Cl17  1  0.14573700  0.79647500  0.22587500  1
  Cl  Cl18  1  0.95838300  0.13209200  0.96669900  1
  Cl  Cl19  1  0.04161700  0.86790800  0.03330100  1
  Cl  Cl20  1  0.19940300  0.23972900  0.82257200  1
  Cl  Cl21  1  0.80059700  0.76027100  0.17742800  1
  Cl  Cl22  1  0.92095700  0.39308000  0.87559500  1
  Cl  Cl23  1  0.07904300  0.60692000  0.12440500  1
  Cl  Cl24  1  0.33943200  0.49888300  0.76517700  1
  Cl  Cl25  1  0.66056800  0.50111700  0.23482300  1
  Cl  Cl26  1  0.40205400  0.34475000  0.63052600  1
  Cl  Cl27  1  0.59794600  0.65525000  0.36947400  1
  Cl  Cl28  1  0.45549800  0.61210900  0.57526900  1
  Cl  Cl29  1  0.54450200  0.38789100  0.42473100  1
  Cl  Cl30  1  0.68205000  0.45838700  0.70364900  1
  Cl  Cl31  1  0.31795000  0.54161300  0.29635100  1
loop_
_geom_bond_atom_site_label_1
_geom_bond_atom_site_label_2
_geom_bond_distance
_geom_bond_site_symmetry_2
Sb0 Te0 2.850977 1_555
Sb0 Te1 2.864650 1_566
Sb0 Sb4 3.041844 1_555
Sb1 Te1 2.850977 1_555
Sb1 Te0 2.864650 1_544
Sb1 Sb5 3.041844 1_555
Sb2 Te4 2.853698 1_555
Sb2 Te2 2.873145 1_556
Sb2 Te0 3.070913 1_555
Sb2 Te7 3.379531 1_556
Sb3 Te5 2.853698 1_555
Sb3 Te3 2.873145 1_554
Sb3 Te1 3.070913 1_555
Sb3 Te6 3.379531 1_554
Sb4 Te4 2.857658 1_555
Sb4 Te2 2.867814 1_556
Sb4 Te6 3.502556 1_555
Sb5 Te5 2.857658 1_555
Sb5 Te3 2.867814 1_554
Sb5 Te7 3.502556 1_555
Sb6 Te7 2.843416 1_555
Sb6 Te6 2.874341 1_554
Sb6 Te5 3.125951 1_555
Sb6 Te2 3.266730 1_555
Sb7 Te6 2.843416 1_555
Sb7 Te7 2.874341 1_556
Sb7 Te4 3.125951 1_555
Sb7 Te3 3.266730 1_555
Sb8 Te8 2.860924 1_645
Sb8 Te9 2.870711 1_555
Sb9 Te9 2.860924 1_465
Sb9 Te8 2.870711 1_555
Sb10 Te12 2.842679 1_655
Sb10 Te10 2.870595 1_555
Sb10 Te8 3.110563 1_655
Sb10 Te14 3.322924 1_555
Sb11 Te13 2.842679 1_455
Sb11 Te11 2.870595 1_555
Sb11 Te9 3.110563 1_455
Sb11 Te15 3.322924 1_555
Sb12 Te12 2.851569 1_555
Sb12 Te10 2.866658 1_455
Sb12 Sb9 3.053821 1_555
Sb12 Te15 3.508961 1_555
Sb13 Te13 2.851569 1_555
Sb13 Te11 2.866658 1_655
Sb13 Sb8 3.053821 1_555
Sb13 Te14 3.508961 1_555
Sb14 Te14 2.866809 1_455
Sb14 Te15 2.881057 1_555
Sb14 Te12 3.085513 1_555
Sb14 Te11 3.293198 1_555
Sb15 Te15 2.866809 1_655
Sb15 Te14 2.881057 1_555
Sb15 Te13 3.085513 1_555
Sb15 Te10 3.293198 1_555
Cl0 Ga0 2.221132 1_555
Cl1 Ga1 2.221132 1_555
Cl2 Ga0 2.202062 1_555
Cl3 Ga1 2.202062 1_555
Cl4 Ga0 2.184538 1_545
Cl5 Ga1 2.184538 1_565
Cl6 Ga0 2.189561 1_555
Cl7 Ga1 2.189561 1_555
Cl8 Ga2 2.200529 1_555
Cl9 Ga3 2.200529 1_555
Cl10 Ga2 2.208041 1_555
Cl11 Ga3 2.208041 1_555
Cl12 Ga2 2.195997 1_455
Cl13 Ga3 2.195997 1_655
Cl14 Ga2 2.186186 1_555
Cl15 Ga3 2.186186 1_555
Cl16 Ga4 2.199176 1_555
Cl17 Ga5 2.199176 1_555
Cl18 Ga4 2.215681 1_555
Cl19 Ga5 2.215681 1_555
Cl20 Ga4 2.198017 1_455
Cl21 Ga5 2.198017 1_655
Cl22 Ga4 2.185555 1_555
Cl23 Ga5 2.185555 1_555
Cl24 Ga6 2.189687 1_555
Cl25 Ga7 2.189687 1_555
Cl26 Ga6 2.194304 1_555
Cl27 Ga7 2.194304 1_555
Cl28 Ga6 2.207846 1_555
Cl29 Ga7 2.207846 1_555
Cl30 Ga6 2.211951 1_555
Cl31 Ga7 2.211951 1_555
