# generated using pymatgen
data_LiNiBO3
_symmetry_space_group_name_H-M   'P 1'
_cell_length_a   6.26784008
_cell_length_b   8.66393155
_cell_length_c   8.07419510
_cell_angle_alpha   117.84310748
_cell_angle_beta   90.01369997
_cell_angle_gamma   68.77671206
_symmetry_Int_Tables_number   1
_chemical_formula_structural   LiNiBO3
_chemical_formula_sum   'Li6 Ni6 B6 O18'
_cell_volume   353.74326773
_cell_formula_units_Z   6
loop_
 _symmetry_equiv_pos_site_id
 _symmetry_equiv_pos_as_xyz
  1  'x, y, z'
loop_
 _atom_site_type_symbol
 _atom_site_label
 _atom_site_symmetry_multiplicity
 _atom_site_fract_x
 _atom_site_fract_y
 _atom_site_fract_z
 _atom_site_occupancy
  Li  Li0  1  0.81510500  0.36976800  0.32743900  1
  Li  Li1  1  0.31512100  0.36974600  0.32742700  1
  Li  Li2  1  0.66411100  0.67183200  0.04185700  1
  Li  Li3  1  0.16409100  0.67186700  0.04187000  1
  Li  Li4  1  0.52098200  0.95813100  0.63006000  1
  Li  Li5  1  0.02092900  0.95814800  0.63006500  1
  Ni  Ni0  1  0.60433300  0.29155300  0.95153400  1
  Ni  Ni1  1  0.22592900  0.04812800  0.34005800  1
  Ni  Ni2  1  0.91991200  0.66018900  0.70801400  1
  Ni  Ni3  1  0.10442500  0.29154600  0.95152000  1
  Ni  Ni4  1  0.72589800  0.04824900  0.33977300  1
  Ni  Ni5  1  0.41957700  0.66046100  0.70799400  1
  B  B0  1  0.08325500  0.33357400  0.66713600  1
  B  B1  1  0.58319800  0.33366600  0.66708700  1
  B  B2  1  0.00006700  0.99981400  0.99982300  1
  B  B3  1  0.50009700  0.99974400  0.99981000  1
  B  B4  1  0.91656500  0.66684900  0.33337200  1
  B  B5  1  0.41658000  0.66676400  0.33330800  1
  O  O0  1  0.94060900  0.11883300  0.92236200  1
  O  O1  1  0.44064900  0.11874000  0.92235300  1
  O  O2  1  0.96137900  0.07737100  0.19651300  1
  O  O3  1  0.46124900  0.07732100  0.19650300  1
  O  O4  1  0.59850200  0.80294500  0.88055100  1
  O  O5  1  0.09832700  0.80302000  0.88059300  1
  O  O6  1  0.17685200  0.14622700  0.62825700  1
  O  O7  1  0.67677300  0.14631400  0.62812500  1
  O  O8  1  0.00920800  0.48191700  0.85455100  1
  O  O9  1  0.50914800  0.48196800  0.85453400  1
  O  O10  1  0.06394900  0.37202600  0.51859600  1
  O  O11  1  0.56385000  0.37223600  0.51860800  1
  O  O12  1  0.01614900  0.46767100  0.23017300  1
  O  O13  1  0.51615300  0.46758500  0.23008700  1
  O  O14  1  0.86850500  0.76301000  0.53256900  1
  O  O15  1  0.36850500  0.76297000  0.53249200  1
  O  O16  1  0.86499600  0.76994700  0.23751800  1
  O  O17  1  0.36502100  0.76986900  0.23746600  1
loop_
_geom_bond_atom_site_label_1
_geom_bond_atom_site_label_2
_geom_bond_distance
_geom_bond_site_symmetry_2
Li0 O2 2.047697 1_555
Li0 O13 2.078215 1_555
Li0 O12 2.078634 1_655
Li0 O10 2.192722 1_655
Li0 O11 2.192941 1_555
Li1 O3 2.047900 1_555
Li1 O12 2.078101 1_555
Li1 O13 2.078471 1_555
Li1 O11 2.192218 1_555
Li1 O10 2.193513 1_555
Li2 O4 2.049223 1_554
Li2 O16 2.079253 1_555
Li2 O17 2.079830 1_555
Li2 O9 2.183791 1_554
Li2 O8 2.184841 1_654
Li3 O5 2.049283 1_554
Li3 O17 2.078900 1_555
Li3 O16 2.079931 1_455
Li3 O8 2.183861 1_554
Li3 O9 2.184733 1_554
Li4 O1 2.045792 1_565
Li4 O14 2.076989 1_555
Li4 O15 2.078059 1_555
Li4 O6 2.187606 1_565
Li4 O7 2.188245 1_565
Li5 O0 2.045853 1_465
Li5 O15 2.077366 1_555
Li5 O14 2.077649 1_455
Li5 O6 2.187654 1_565
Li5 O7 2.188352 1_465
Ni0 O13 1.968778 1_556
Ni0 O0 2.030941 1_555
Ni0 O1 2.032807 1_555
Ni0 O9 2.045750 1_555
Ni0 O7 2.264038 1_555
Ni1 O17 1.967612 1_545
Ni1 O2 2.031304 1_455
Ni1 O3 2.031672 1_555
Ni1 O6 2.048276 1_555
Ni1 O10 2.267810 1_555
Ni2 O14 1.968461 1_555
Ni2 O5 2.028301 1_655
Ni2 O4 2.028978 1_555
Ni2 O10 2.046779 1_655
Ni2 O8 2.275866 1_655
Ni3 O12 1.969521 1_556
Ni3 O1 2.030927 1_555
Ni3 O0 2.032738 1_455
Ni3 O8 2.045224 1_555
Ni3 O6 2.262946 1_555
Ni4 O16 1.968349 1_545
Ni4 O3 2.030247 1_555
Ni4 O2 2.030552 1_555
Ni4 O7 2.049491 1_555
Ni4 O11 2.268550 1_555
Ni5 O15 1.966920 1_555
Ni5 O5 2.028526 1_555
Ni5 O4 2.029231 1_555
Ni5 O11 2.047115 1_555
Ni5 O9 2.277481 1_555
B0 O10 1.381310 1_555
B0 O8 1.381614 1_555
B0 O6 1.382774 1_555
B1 O11 1.381456 1_555
B1 O9 1.381679 1_555
B1 O7 1.382598 1_555
B2 O0 1.384725 1_465
B2 O2 1.384855 1_466
B2 O5 1.385612 1_555
B3 O1 1.384528 1_565
B3 O3 1.384858 1_566
B3 O4 1.385672 1_555
B4 O16 1.392098 1_555
B4 O14 1.392305 1_555
B4 O12 1.392505 1_655
B5 O17 1.392065 1_555
B5 O15 1.392206 1_555
B5 O13 1.392515 1_555
