# generated using pymatgen
data_YGePd2
_symmetry_space_group_name_H-M   'P 1'
_cell_length_a   11.27885208
_cell_length_b   11.27885208
_cell_length_c   11.27885208
_cell_angle_alpha   129.97085028
_cell_angle_beta   116.79049898
_cell_angle_gamma   84.65645489
_symmetry_Int_Tables_number   1
_chemical_formula_structural   YGePd2
_chemical_formula_sum   'Y1 Ge1 Pd2'
_cell_volume   940.23907793
_cell_formula_units_Z   1
loop_
 _symmetry_equiv_pos_site_id
 _symmetry_equiv_pos_as_xyz
  1  'x, y, z'
loop_
 _atom_site_type_symbol
 _atom_site_label
 _atom_site_symmetry_multiplicity
 _atom_site_fract_x
 _atom_site_fract_y
 _atom_site_fract_z
 _atom_site_occupancy
  Y  Y0  1  0.00000000  0.50000000  0.50000000  1
  Ge  Ge0  1  0.00000000  0.00000000  0.00000000  1
  Pd  Pd0  1  0.00000000  0.24816000  0.24816000  1
  Pd  Pd1  1  0.00000000  0.75184000  0.75184000  1
loop_
_geom_bond_atom_site_label_1
_geom_bond_atom_site_label_2
_geom_bond_distance
_geom_bond_site_symmetry_2
Ge0 Pd0 2.367074 1_555
Ge0 Pd1 2.367074 1_544
Pd0 Y0 2.402175 1_555
Pd1 Y0 2.402175 1_555
