# generated using pymatgen
data_BaTaSe3
_symmetry_space_group_name_H-M   'P 1'
_cell_length_a   7.27841450
_cell_length_b   7.27841450
_cell_length_c   5.92588800
_cell_angle_alpha   90.00000000
_cell_angle_beta   90.00000000
_cell_angle_gamma   120.00000454
_symmetry_Int_Tables_number   1
_chemical_formula_structural   BaTaSe3
_chemical_formula_sum   'Ba2 Ta2 Se6'
_cell_volume   271.86770441
_cell_formula_units_Z   2
loop_
 _symmetry_equiv_pos_site_id
 _symmetry_equiv_pos_as_xyz
  1  'x, y, z'
loop_
 _atom_site_type_symbol
 _atom_site_label
 _atom_site_symmetry_multiplicity
 _atom_site_fract_x
 _atom_site_fract_y
 _atom_site_fract_z
 _atom_site_occupancy
  Ba  Ba0  1  0.33333300  0.66666700  0.75000000  1
  Ba  Ba1  1  0.66666700  0.33333300  0.25000000  1
  Ta  Ta0  1  0.00000000  0.00000000  0.50000000  1
  Ta  Ta1  1  0.00000000  0.00000000  0.00000000  1
  Se  Se0  1  0.17245000  0.82755000  0.25000000  1
  Se  Se1  1  0.17245000  0.34490000  0.25000000  1
  Se  Se2  1  0.65510000  0.82755000  0.25000000  1
  Se  Se3  1  0.82755000  0.17245000  0.75000000  1
  Se  Se4  1  0.82755000  0.65510000  0.75000000  1
  Se  Se5  1  0.34490000  0.17245000  0.75000000  1
loop_
_geom_bond_atom_site_label_1
_geom_bond_atom_site_label_2
_geom_bond_distance
_geom_bond_site_symmetry_2
Ba0 Se0 3.590623 1_556
Ba0 Se0 3.590623 1_555
Ba0 Se2 3.590626 1_555
Ba0 Se1 3.590626 1_556
Ba0 Se1 3.590626 1_555
Ba0 Se2 3.590626 1_556
Ba0 Se4 3.639934 1_455
Ba0 Se5 3.639934 1_565
Ba0 Se3 3.639937 1_455
Ba0 Se3 3.639937 1_565
Ba0 Se5 3.639941 1_555
Ba0 Se4 3.639941 1_555
Ba1 Se3 3.590623 1_554
Ba1 Se3 3.590623 1_555
Ba1 Se4 3.590626 1_554
Ba1 Se5 3.590626 1_554
Ba1 Se4 3.590626 1_555
Ba1 Se5 3.590626 1_555
Ba1 Se1 3.639934 1_655
Ba1 Se2 3.639934 1_545
Ba1 Se0 3.639937 1_655
Ba1 Se0 3.639937 1_545
Ba1 Se2 3.639941 1_555
Ba1 Se1 3.639941 1_555
Se0 Ta1 2.630791 1_565
Se0 Ta0 2.630791 1_565
Se1 Ta1 2.630790 1_555
Se1 Ta0 2.630790 1_555
Se2 Ta1 2.630790 1_665
Se2 Ta0 2.630790 1_665
Se3 Ta1 2.630791 1_656
Se3 Ta0 2.630791 1_655
Se4 Ta0 2.630790 1_665
Se4 Ta1 2.630790 1_666
Se5 Ta0 2.630790 1_555
Se5 Ta1 2.630790 1_556
