# generated using pymatgen
data_CaLaAl3O7
_symmetry_space_group_name_H-M   'P 1'
_cell_length_a   7.85963000
_cell_length_b   7.85963000
_cell_length_c   5.19517100
_cell_angle_alpha   90.00000000
_cell_angle_beta   90.00000000
_cell_angle_gamma   91.27437748
_symmetry_Int_Tables_number   1
_chemical_formula_structural   CaLaAl3O7
_chemical_formula_sum   'Ca2 La2 Al6 O14'
_cell_volume   320.84599067
_cell_formula_units_Z   2
loop_
 _symmetry_equiv_pos_site_id
 _symmetry_equiv_pos_as_xyz
  1  'x, y, z'
loop_
 _atom_site_type_symbol
 _atom_site_label
 _atom_site_symmetry_multiplicity
 _atom_site_fract_x
 _atom_site_fract_y
 _atom_site_fract_z
 _atom_site_occupancy
  Ca  Ca0  1  0.65980400  0.65980400  0.48536700  1
  Ca  Ca1  1  0.34019600  0.34019600  0.48536700  1
  La  La0  1  0.83482100  0.16517900  0.50791000  1
  La  La1  1  0.16517900  0.83482100  0.50791000  1
  Al  Al0  1  0.85332300  0.85332300  0.04142200  1
  Al  Al1  1  0.63970900  0.36029100  0.95771200  1
  Al  Al2  1  0.14667700  0.14667700  0.04142200  1
  Al  Al3  1  0.36029100  0.63970900  0.95771200  1
  Al  Al4  1  0.50000000  0.00000000  0.00484700  1
  Al  Al5  1  0.00000000  0.50000000  0.00484700  1
  O  O0  1  0.86070500  0.86070500  0.70496200  1
  O  O1  1  0.64253900  0.35746100  0.29325700  1
  O  O2  1  0.13929500  0.13929500  0.70496200  1
  O  O3  1  0.35746100  0.64253900  0.29325700  1
  O  O4  1  0.66276700  0.91322100  0.19748600  1
  O  O5  1  0.83821900  0.41019700  0.80667900  1
  O  O6  1  0.33723300  0.08677900  0.19748600  1
  O  O7  1  0.16178100  0.58980300  0.80667900  1
  O  O8  1  0.41019700  0.83821900  0.80667900  1
  O  O9  1  0.08677900  0.33723300  0.19748600  1
  O  O10  1  0.58980300  0.16178100  0.80667900  1
  O  O11  1  0.91322100  0.66276700  0.19748600  1
  O  O12  1  0.50000000  0.50000000  0.80933800  1
  O  O13  1  0.00000000  0.00000000  0.18304700  1
loop_
_geom_bond_atom_site_label_1
_geom_bond_atom_site_label_2
_geom_bond_distance
_geom_bond_site_symmetry_2
Ca0 O12 2.432628 1_555
Ca0 O0 2.485383 1_555
Ca0 O4 2.490461 1_555
Ca0 O11 2.490461 1_555
Ca0 O3 2.578175 1_555
Ca0 O1 2.578175 1_555
Ca0 O5 2.953632 1_555
Ca0 O8 2.953632 1_555
Ca1 O12 2.432628 1_555
Ca1 O2 2.485383 1_555
Ca1 O9 2.490461 1_555
Ca1 O6 2.490461 1_555
Ca1 O3 2.578175 1_555
Ca1 O1 2.578175 1_555
Ca1 O10 2.953632 1_555
Ca1 O7 2.953632 1_555
La0 O1 2.431669 1_555
La0 O10 2.473081 1_555
La0 O5 2.473081 1_555
La0 O13 2.508834 1_655
La0 O2 2.614908 1_655
La0 O0 2.614908 1_545
La0 O4 2.869136 1_545
La0 O9 2.869136 1_655
La1 O3 2.431669 1_555
La1 O7 2.473081 1_555
La1 O8 2.473081 1_555
La1 O13 2.508834 1_565
La1 O2 2.614908 1_565
La1 O0 2.614908 1_455
La1 O11 2.869136 1_455
La1 O6 2.869136 1_565
Al0 O0 1.749849 1_554
Al0 O13 1.772077 1_665
Al0 O11 1.775798 1_555
Al0 O4 1.775798 1_555
Al1 O1 1.743504 1_556
Al1 O12 1.749081 1_555
Al1 O5 1.782293 1_555
Al1 O10 1.782293 1_555
Al2 O2 1.749849 1_554
Al2 O13 1.772077 1_555
Al2 O9 1.775798 1_555
Al2 O6 1.775798 1_555
Al3 O3 1.743504 1_556
Al3 O12 1.749081 1_555
Al3 O8 1.782293 1_555
Al3 O7 1.782293 1_555
Al4 O10 1.770586 1_554
Al4 O8 1.770586 1_544
Al4 O4 1.772616 1_545
Al4 O6 1.772616 1_555
Al5 O7 1.770586 1_554
Al5 O5 1.770586 1_454
Al5 O11 1.772616 1_455
Al5 O9 1.772616 1_555
