# generated using pymatgen
data_Ge2WO6
_symmetry_space_group_name_H-M   'P 1'
_cell_length_a   9.27212400
_cell_length_b   5.71240400
_cell_length_c   9.87536138
_cell_angle_alpha   76.51523461
_cell_angle_beta   90.00000000
_cell_angle_gamma   90.00000000
_symmetry_Int_Tables_number   1
_chemical_formula_structural   Ge2WO6
_chemical_formula_sum   'Ge8 W4 O24'
_cell_volume   508.63983036
_cell_formula_units_Z   4
loop_
 _symmetry_equiv_pos_site_id
 _symmetry_equiv_pos_as_xyz
  1  'x, y, z'
loop_
 _atom_site_type_symbol
 _atom_site_label
 _atom_site_symmetry_multiplicity
 _atom_site_fract_x
 _atom_site_fract_y
 _atom_site_fract_z
 _atom_site_occupancy
  Ge  Ge0  1  0.33332100  0.17906300  0.05810500  1
  Ge  Ge1  1  0.83332100  0.32093700  0.94189500  1
  Ge  Ge2  1  0.66667900  0.82093700  0.94189500  1
  Ge  Ge3  1  0.16667900  0.67906300  0.05810500  1
  Ge  Ge4  1  0.33489500  0.80957800  0.45036500  1
  Ge  Ge5  1  0.83489500  0.69042200  0.54963500  1
  Ge  Ge6  1  0.66510500  0.19042200  0.54963500  1
  Ge  Ge7  1  0.16510500  0.30957800  0.45036500  1
  W  W0  1  0.64987800  0.00068700  0.24824800  1
  W  W1  1  0.14987800  0.49931300  0.75175200  1
  W  W2  1  0.35012200  0.99931300  0.75175200  1
  W  W3  1  0.85012200  0.50068700  0.24824800  1
  O  O0  1  0.25275000  0.58434500  0.38331100  1
  O  O1  1  0.75275000  0.91565500  0.61668900  1
  O  O2  1  0.74725000  0.41565500  0.61668900  1
  O  O3  1  0.24725000  0.08434500  0.38331100  1
  O  O4  1  0.28731800  0.87250800  0.11589300  1
  O  O5  1  0.78731800  0.62749200  0.88410700  1
  O  O6  1  0.71268200  0.12749200  0.88410700  1
  O  O7  1  0.21268200  0.37250800  0.11589300  1
  O  O8  1  0.98555200  0.33690700  0.39632900  1
  O  O9  1  0.48555200  0.16309300  0.60367100  1
  O  O10  1  0.01444800  0.66309300  0.60367100  1
  O  O11  1  0.51444800  0.83690700  0.39632900  1
  O  O12  1  0.99246500  0.70775900  0.11430100  1
  O  O13  1  0.49246500  0.79224100  0.88569900  1
  O  O14  1  0.00753500  0.29224100  0.88569900  1
  O  O15  1  0.50753500  0.20775900  0.11430100  1
  O  O16  1  0.31161400  0.24965700  0.86786400  1
  O  O17  1  0.81161400  0.25034300  0.13213600  1
  O  O18  1  0.68838600  0.75034300  0.13213600  1
  O  O19  1  0.18838600  0.74965700  0.86786400  1
  O  O20  1  0.31764300  0.73319400  0.63788100  1
  O  O21  1  0.81764300  0.76680600  0.36211900  1
  O  O22  1  0.68235700  0.26680600  0.36211900  1
  O  O23  1  0.18235700  0.23319400  0.63788100  1
loop_
_geom_bond_atom_site_label_1
_geom_bond_atom_site_label_2
_geom_bond_distance
_geom_bond_site_symmetry_2
Ge0 O15 1.728171 1_555
Ge0 O7 1.758437 1_555
Ge0 O4 1.762988 1_545
Ge0 O16 1.838290 1_554
Ge1 O14 1.728171 1_655
Ge1 O6 1.758437 1_555
Ge1 O5 1.762988 1_555
Ge1 O17 1.838290 1_556
Ge2 O13 1.728171 1_555
Ge2 O5 1.758437 1_555
Ge2 O6 1.762988 1_565
Ge2 O18 1.838290 1_556
Ge3 O12 1.728171 1_455
Ge3 O4 1.758437 1_555
Ge3 O7 1.762988 1_555
Ge3 O19 1.838290 1_554
Ge4 O11 1.744122 1_555
Ge4 O0 1.752526 1_555
Ge4 O3 1.754352 1_565
Ge4 O20 1.807835 1_555
Ge5 O10 1.744122 1_655
Ge5 O1 1.752526 1_555
Ge5 O2 1.754352 1_555
Ge5 O21 1.807835 1_555
Ge6 O9 1.744122 1_555
Ge6 O2 1.752526 1_555
Ge6 O1 1.754352 1_545
Ge6 O22 1.807835 1_555
Ge7 O8 1.744122 1_455
Ge7 O3 1.752526 1_555
Ge7 O0 1.754352 1_555
Ge7 O23 1.807835 1_555
O8 W3 1.988104 1_555
O9 W2 1.988104 1_545
O10 W1 1.988104 1_555
O11 W0 1.988104 1_565
O12 W3 2.039887 1_555
O13 W2 2.039887 1_555
O14 W1 2.039887 1_555
O15 W0 2.039887 1_555
O16 W2 2.062069 1_545
O16 W1 2.198846 1_555
O17 W3 2.062069 1_555
O17 W0 2.198846 1_555
O18 W0 2.062069 1_565
O18 W3 2.198846 1_555
O19 W1 2.062069 1_555
O19 W2 2.198846 1_555
O20 W2 2.112682 1_555
O20 W1 2.183695 1_555
O21 W3 2.112682 1_555
O21 W0 2.183695 1_565
O22 W0 2.112682 1_555
O22 W3 2.183695 1_555
O23 W1 2.112682 1_555
O23 W2 2.183695 1_545
