# generated using pymatgen
data_URuC2
_symmetry_space_group_name_H-M   'P 1'
_cell_length_a   3.31352400
_cell_length_b   5.48548500
_cell_length_c   10.83712400
_cell_angle_alpha   90.00000000
_cell_angle_beta   90.00000000
_cell_angle_gamma   90.00000000
_symmetry_Int_Tables_number   1
_chemical_formula_structural   URuC2
_chemical_formula_sum   'U4 Ru4 C8'
_cell_volume   196.97866740
_cell_formula_units_Z   4
loop_
 _symmetry_equiv_pos_site_id
 _symmetry_equiv_pos_as_xyz
  1  'x, y, z'
loop_
 _atom_site_type_symbol
 _atom_site_label
 _atom_site_symmetry_multiplicity
 _atom_site_fract_x
 _atom_site_fract_y
 _atom_site_fract_z
 _atom_site_occupancy
  U  U0  1  0.25000000  0.58533100  0.85727600  1
  U  U1  1  0.75000000  0.41466900  0.14272400  1
  U  U2  1  0.75000000  0.91466900  0.35727600  1
  U  U3  1  0.25000000  0.08533100  0.64272400  1
  Ru  Ru0  1  0.25000000  0.90662800  0.09840000  1
  Ru  Ru1  1  0.75000000  0.09337200  0.90160000  1
  Ru  Ru2  1  0.75000000  0.59337200  0.59840000  1
  Ru  Ru3  1  0.25000000  0.40662800  0.40160000  1
  C  C0  1  0.25000000  0.65092700  0.24520800  1
  C  C1  1  0.75000000  0.34907300  0.75479200  1
  C  C2  1  0.75000000  0.84907300  0.74520800  1
  C  C3  1  0.25000000  0.15092700  0.25479200  1
  C  C4  1  0.25000000  0.73749500  0.50919200  1
  C  C5  1  0.75000000  0.26250500  0.49080800  1
  C  C6  1  0.75000000  0.76250500  0.00919200  1
  C  C7  1  0.25000000  0.23749500  0.99080800  1
loop_
_geom_bond_atom_site_label_1
_geom_bond_atom_site_label_2
_geom_bond_distance
_geom_bond_site_symmetry_2
C0 Ru0 2.120994 1_555
C0 Ru3 2.160635 1_555
C0 U1 2.378645 1_555
C0 U1 2.378645 1_455
C0 U2 2.512559 1_455
C0 U2 2.512559 1_555
C1 Ru1 2.120994 1_555
C1 Ru2 2.160635 1_555
C1 U0 2.378645 1_555
C1 U0 2.378645 1_655
C1 U3 2.512559 1_555
C1 U3 2.512559 1_655
C2 Ru2 2.120994 1_555
C2 Ru1 2.160635 1_565
C2 U3 2.378645 1_565
C2 U3 2.378645 1_665
C2 U0 2.512559 1_555
C2 U0 2.512559 1_655
C3 Ru3 2.120994 1_555
C3 Ru0 2.160635 1_545
C3 U2 2.378645 1_445
C3 U2 2.378645 1_545
C3 U1 2.512559 1_455
C3 U1 2.512559 1_555
C4 Ru2 2.074730 1_555
C4 Ru2 2.074730 1_455
C4 Ru3 2.157227 1_555
C4 U3 2.394736 1_565
C4 U2 2.529789 1_555
C4 U2 2.529789 1_455
C5 Ru3 2.074730 1_555
C5 Ru3 2.074730 1_655
C5 Ru2 2.157227 1_555
C5 U2 2.394736 1_545
C5 U3 2.529789 1_655
C5 U3 2.529789 1_555
C6 Ru0 2.074730 1_555
C6 Ru0 2.074730 1_655
C6 Ru1 2.157227 1_564
C6 U1 2.394736 1_555
C6 U0 2.529789 1_654
C6 U0 2.529789 1_554
C7 Ru1 2.074730 1_555
C7 Ru1 2.074730 1_455
C7 Ru0 2.157227 1_546
C7 U0 2.394736 1_555
C7 U1 2.529789 1_456
C7 U1 2.529789 1_556
