# generated using pymatgen
data_Mg16Al12Os
_symmetry_space_group_name_H-M   'P 1'
_cell_length_a   9.38935704
_cell_length_b   8.93810069
_cell_length_c   8.93810093
_cell_angle_alpha   108.42599574
_cell_angle_beta   110.49724640
_cell_angle_gamma   110.49723650
_symmetry_Int_Tables_number   1
_chemical_formula_structural   Mg16Al12Os
_chemical_formula_sum   'Mg16 Al12 Os1'
_cell_volume   569.96460007
_cell_formula_units_Z   1
loop_
 _symmetry_equiv_pos_site_id
 _symmetry_equiv_pos_as_xyz
  1  'x, y, z'
loop_
 _atom_site_type_symbol
 _atom_site_label
 _atom_site_symmetry_multiplicity
 _atom_site_fract_x
 _atom_site_fract_y
 _atom_site_fract_z
 _atom_site_occupancy
  Mg  Mg0  1  0.00510000  0.35875200  0.00000000  1
  Mg  Mg1  1  0.31894200  0.59087400  0.00000000  1
  Mg  Mg2  1  0.56259100  0.24770800  0.00000000  1
  Mg  Mg3  1  0.98441600  0.99999900  0.00000000  1
  Mg  Mg4  1  0.56259100  0.00000000  0.24770800  1
  Mg  Mg5  1  0.68081500  0.67110500  0.27264000  1
  Mg  Mg6  1  0.00971100  0.60153500  0.32889500  1
  Mg  Mg7  1  0.00510100  0.00000000  0.35875200  1
  Mg  Mg8  1  0.40817600  0.72736000  0.39846500  1
  Mg  Mg9  1  0.72806900  0.40912700  0.40912600  1
  Mg  Mg10  1  0.31894300  0.00000000  0.59087300  1
  Mg  Mg11  1  0.00971100  0.32889500  0.60153500  1
  Mg  Mg12  1  0.64634800  0.64124700  0.64124700  1
  Mg  Mg13  1  0.68081500  0.27264000  0.67110400  1
  Mg  Mg14  1  0.40817600  0.39846500  0.72736000  1
  Mg  Mg15  1  0.31488300  0.75229100  0.75229100  1
  Al  Al0  1  0.81104000  0.60800200  0.00000000  1
  Al  Al1  1  0.65403000  0.80631500  0.00000100  1
  Al  Al2  1  0.18404800  0.81780000  0.17898900  1
  Al  Al3  1  0.36624800  0.36118900  0.18219900  1
  Al  Al4  1  0.84771400  0.19368500  0.19368400  1
  Al  Al5  1  0.36624800  0.18219900  0.36118900  1
  Al  Al6  1  0.20303800  0.39200000  0.39199900  1
  Al  Al7  1  0.81104000  0.00000000  0.60800100  1
  Al  Al8  1  0.00505900  0.82101100  0.63881100  1
  Al  Al9  1  0.65403000  0.00000000  0.80631500  1
  Al  Al10  1  0.18404800  0.17898900  0.81780000  1
  Al  Al11  1  0.00505900  0.63881100  0.82101100  1
  Os  Os0  1  0.26401400  0.00000000  0.00000000  1
loop_
_geom_bond_atom_site_label_1
_geom_bond_atom_site_label_2
_geom_bond_distance
_geom_bond_site_symmetry_2
Mg0 Mg1 2.950656 1_555
Mg0 Mg6 3.027388 1_555
Mg0 Mg13 3.027398 1_454
Mg0 Mg3 3.143833 1_445
Mg0 Mg11 3.503250 1_554
Mg0 Mg8 3.503250 1_555
Mg1 Mg4 2.997292 1_565
Mg1 Mg15 2.997294 1_554
Mg1 Mg11 3.053268 1_554
Mg1 Mg8 3.053268 1_555
Mg1 Mg5 3.063927 1_555
Mg1 Mg14 3.063934 1_554
Mg2 Os0 2.900760 1_555
Mg2 Mg9 2.997291 1_555
Mg3 Os0 2.625242 1_665
Mg3 Mg7 3.143818 1_665
Mg4 Os0 2.900760 1_555
Mg4 Mg9 2.997299 1_555
Mg5 Mg7 3.027399 1_665
Mg5 Mg9 3.053265 1_555
Mg6 Mg9 3.063924 1_455
Mg6 Mg7 3.503247 1_565
Mg10 Mg7 2.950652 1_555
Mg10 Mg2 2.997298 1_556
Mg10 Mg15 2.997299 1_545
Mg10 Mg14 3.053270 1_555
Mg10 Mg6 3.053270 1_545
Mg10 Mg13 3.063920 1_555
Mg10 Mg8 3.063923 1_545
Mg11 Mg7 3.027394 1_555
Mg11 Mg9 3.063933 1_455
Mg12 Mg9 2.950647 1_555
Mg12 Mg8 3.027390 1_555
Mg12 Mg14 3.027390 1_555
Mg12 Mg3 3.143827 1_556
Mg12 Mg13 3.503238 1_555
Mg12 Mg5 3.503241 1_555
Mg13 Mg9 3.053270 1_555
Mg14 Mg7 3.503247 1_555
Mg15 Os0 2.900770 1_566
Al0 Al1 2.673064 1_555
Al0 Al2 2.814625 1_655
Al0 Al11 2.814626 1_654
Al0 Mg6 2.909882 1_655
Al0 Mg13 2.909885 1_554
Al0 Mg14 3.074470 1_554
Al0 Mg5 3.074478 1_555
Al0 Mg7 3.195802 1_665
Al0 Mg12 3.195806 1_554
Al0 Mg2 3.248289 1_555
Al0 Mg3 3.306296 1_555
Al0 Mg0 3.335576 1_655
Al1 Al4 2.808648 1_565
Al1 Al9 2.808655 1_564
Al1 Mg4 2.930042 1_565
Al1 Mg15 2.930049 1_554
Al1 Mg3 2.976430 1_555
Al1 Mg5 3.017864 1_555
Al1 Mg14 3.017873 1_554
Al1 Mg7 3.039212 1_665
Al1 Mg12 3.039229 1_554
Al1 Mg1 3.060073 1_555
Al2 Al5 2.642096 1_565
Al2 Os0 2.721610 1_565
Al2 Mg8 2.869317 1_555
Al2 Mg6 3.027964 1_555
Al2 Mg10 3.051133 1_565
Al2 Mg1 3.073182 1_555
Al2 Mg4 3.073660 1_565
Al2 Mg7 3.195235 1_565
Al2 Mg3 3.226386 1_455
Al2 Mg0 3.370052 1_555
Al3 Al5 2.595554 1_555
Al3 Os0 2.721609 1_555
Al3 Al6 2.814642 1_555
Al3 Mg5 2.869308 1_555
Al3 Mg8 3.027967 1_555
Al3 Mg1 3.051136 1_555
Al3 Mg9 3.073187 1_555
Al3 Mg2 3.073655 1_555
Al3 Mg0 3.195241 1_555
Al3 Mg3 3.226400 1_445
Al3 Mg12 3.370051 1_555
Al4 Al6 2.673072 1_655
Al4 Al9 2.808641 1_554
Al4 Mg2 2.930038 1_555
Al4 Mg4 2.930047 1_555
Al4 Mg3 2.976435 1_545
Al4 Mg6 3.017869 1_655
Al4 Mg11 3.017879 1_655
Al4 Mg0 3.039209 1_655
Al4 Mg7 3.039226 1_655
Al4 Mg9 3.060072 1_555
Al5 Os0 2.721609 1_555
Al5 Al6 2.814648 1_555
Al5 Mg13 2.869303 1_555
Al5 Mg14 3.027967 1_555
Al5 Mg10 3.051126 1_555
Al5 Mg9 3.073194 1_555
Al5 Mg4 3.073654 1_555
Al5 Mg7 3.195233 1_555
Al5 Mg3 3.226394 1_445
Al5 Mg12 3.370051 1_555
Al6 Mg8 2.909873 1_555
Al6 Mg14 2.909885 1_555
Al6 Mg6 3.074456 1_555
Al6 Mg11 3.074466 1_555
Al6 Mg0 3.195803 1_555
Al6 Mg7 3.195813 1_555
Al6 Mg15 3.248264 1_555
Al6 Mg3 3.306322 1_445
Al6 Mg12 3.335575 1_555
Al7 Al9 2.673072 1_555
Al7 Al8 2.814626 1_645
Al7 Mg5 2.909875 1_545
Al7 Mg11 2.909878 1_655
Al7 Mg8 3.074471 1_545
Al7 Mg13 3.074477 1_555
Al7 Mg0 3.195809 1_656
Al7 Mg12 3.195811 1_545
Al7 Mg4 3.248283 1_555
Al7 Mg3 3.306316 1_546
Al7 Mg7 3.335576 1_655
Al8 Os0 2.721610 1_566
Al8 Mg6 2.869317 1_555
Al8 Mg5 3.027969 1_455
Al8 Mg9 3.051135 1_455
Al8 Mg10 3.073195 1_565
Al8 Mg15 3.073665 1_555
Al8 Mg12 3.195239 1_455
Al8 Mg3 3.226392 1_456
Al8 Mg7 3.370052 1_565
Al9 Mg15 2.930047 1_545
Al9 Mg2 2.930048 1_556
Al9 Mg3 2.976431 1_546
Al9 Mg8 3.017871 1_545
Al9 Mg13 3.017878 1_555
Al9 Mg0 3.039212 1_656
Al9 Mg12 3.039221 1_545
Al9 Mg10 3.060072 1_555
Al10 Al8 2.595540 1_545
Al10 Al3 2.642095 1_556
Al10 Os0 2.721610 1_556
Al10 Al7 2.814626 1_455
Al10 Mg14 2.869317 1_555
Al10 Mg11 3.027964 1_555
Al10 Mg1 3.051143 1_556
Al10 Mg10 3.073195 1_555
Al10 Mg2 3.073660 1_556
Al10 Mg0 3.195243 1_556
Al10 Mg3 3.226398 1_446
Al10 Mg7 3.370053 1_555
Al11 Al2 2.595540 1_556
Al11 Al8 2.642103 1_555
Al11 Os0 2.721610 1_566
Al11 Mg11 2.869317 1_555
Al11 Mg13 3.027967 1_455
Al11 Mg9 3.051141 1_455
Al11 Mg1 3.073182 1_556
Al11 Mg15 3.073665 1_555
Al11 Mg12 3.195239 1_455
Al11 Mg3 3.226386 1_456
Al11 Mg0 3.370052 1_556
