# generated using pymatgen
data_Mg5Si9
_symmetry_space_group_name_H-M   'P 1'
_cell_length_a   5.74939600
_cell_length_b   7.23844599
_cell_length_c   12.67276772
_cell_angle_alpha   84.93965895
_cell_angle_beta   78.30335334
_cell_angle_gamma   71.99218323
_symmetry_Int_Tables_number   1
_chemical_formula_structural   Mg5Si9
_chemical_formula_sum   'Mg10 Si18'
_cell_volume   490.96396027
_cell_formula_units_Z   2
loop_
 _symmetry_equiv_pos_site_id
 _symmetry_equiv_pos_as_xyz
  1  'x, y, z'
loop_
 _atom_site_type_symbol
 _atom_site_label
 _atom_site_symmetry_multiplicity
 _atom_site_fract_x
 _atom_site_fract_y
 _atom_site_fract_z
 _atom_site_occupancy
  Mg  Mg0  1  0.08253000  0.93992500  0.70848500  1
  Mg  Mg1  1  0.14398800  0.99512900  0.45393100  1
  Mg  Mg2  1  0.98219100  0.63802400  0.55659800  1
  Mg  Mg3  1  0.91936600  0.43722700  0.37695300  1
  Mg  Mg4  1  0.47083700  0.62630700  0.57095000  1
  Mg  Mg5  1  0.48531500  0.25028500  0.43449200  1
  Mg  Mg6  1  0.13453200  0.09726400  0.06818500  1
  Mg  Mg7  1  0.47631300  0.13495100  0.83464100  1
  Mg  Mg8  1  0.62228300  0.60744600  0.01363000  1
  Mg  Mg9  1  0.94015200  0.25863700  0.87156000  1
  Si  Si0  1  0.66130400  0.36295600  0.21373200  1
  Si  Si1  1  0.20743800  0.47356400  0.97384000  1
  Si  Si2  1  0.67786400  0.84174000  0.40431100  1
  Si  Si3  1  0.21468500  0.28016600  0.65154800  1
  Si  Si4  1  0.32064900  0.19599600  0.23669500  1
  Si  Si5  1  0.69535800  0.75637900  0.77926700  1
  Si  Si6  1  0.26062200  0.74424000  0.20329000  1
  Si  Si7  1  0.60275300  0.46241600  0.75667300  1
  Si  Si8  1  0.64136700  0.86817100  0.17206800  1
  Si  Si9  1  0.58275200  0.98129900  0.60878000  1
  Si  Si10  1  0.22865400  0.83419000  0.90901100  1
  Si  Si11  1  0.57081200  0.24391600  0.05004800  1
  Si  Si12  1  0.92585300  0.04249000  0.27898600  1
  Si  Si13  1  0.15430200  0.55443700  0.77368300  1
  Si  Si14  1  0.78450000  0.92725200  0.97375300  1
  Si  Si15  1  0.00305200  0.54665600  0.16191600  1
  Si  Si16  1  0.82581200  0.27212800  0.59350400  1
  Si  Si17  1  0.38458600  0.62677500  0.36922100  1
loop_
_geom_bond_atom_site_label_1
_geom_bond_atom_site_label_2
_geom_bond_distance
_geom_bond_site_symmetry_2
Mg0 Si13 2.767404 1_555
Mg0 Si3 2.790095 1_565
Mg0 Si10 2.806126 1_555
Mg0 Si16 2.853673 1_465
Mg0 Si5 2.886797 1_455
Mg0 Si9 2.991627 1_555
Mg0 Mg9 3.041486 1_465
Mg0 Mg2 3.284053 1_455
Mg1 Si12 2.707974 1_465
Mg1 Si16 2.746099 1_465
Mg1 Si17 2.792406 1_555
Mg1 Si2 2.878055 1_555
Mg1 Mg2 3.105232 1_455
Mg1 Si4 3.130140 1_565
Mg2 Si3 2.811751 1_655
Mg2 Mg4 2.826702 1_655
Mg2 Si9 2.833969 1_555
Mg2 Si2 2.869182 1_555
Mg2 Mg4 2.935707 1_555
Mg2 Mg3 2.944090 1_555
Mg2 Si17 2.947519 1_655
Mg2 Si5 3.013700 1_555
Mg2 Si16 3.020767 1_555
Mg2 Si13 3.058363 1_655
Mg3 Si15 2.758330 1_655
Mg3 Si4 2.815169 1_655
Mg3 Si2 2.844599 1_555
Mg3 Si16 2.910164 1_555
Mg3 Si0 2.950021 1_555
Mg3 Si17 2.972502 1_555
Mg3 Si12 3.201239 1_555
Mg4 Si7 2.682728 1_555
Mg4 Si17 2.700533 1_555
Mg4 Si16 2.773393 1_555
Mg4 Si2 2.802789 1_555
Mg4 Si9 2.934505 1_555
Mg4 Si13 2.938904 1_555
Mg5 Si17 2.695750 1_555
Mg5 Si9 2.837578 1_545
Mg5 Si2 2.849692 1_545
Mg5 Si3 2.862806 1_555
Mg5 Si0 2.911306 1_555
Mg5 Si4 2.949566 1_555
Mg5 Si12 2.950388 1_555
Mg5 Si16 3.124932 1_555
Mg6 Si12 2.746075 1_455
Mg6 Si10 2.754249 1_544
Mg6 Si4 2.807964 1_555
Mg6 Si6 2.927947 1_545
Mg6 Mg9 2.937835 1_454
Mg6 Si11 2.973383 1_555
Mg6 Si1 2.992097 1_554
Mg6 Si14 3.124765 1_444
Mg6 Si11 3.133027 1_455
Mg6 Si0 3.139930 1_455
Mg7 Si5 2.726667 1_545
Mg7 Si7 2.735735 1_555
Mg7 Si14 2.767618 1_545
Mg7 Mg9 2.881947 1_455
Mg7 Si10 2.943770 1_545
Mg7 Si3 2.959487 1_555
Mg7 Si1 2.970431 1_555
Mg7 Si9 3.038868 1_545
Mg7 Si11 3.100847 1_556
Mg7 Mg9 3.191903 1_555
Mg8 Si14 2.724223 1_554
Mg8 Si11 2.727022 1_555
Mg8 Si10 2.847704 1_554
Mg8 Si6 2.863813 1_555
Mg8 Si8 2.913933 1_555
Mg8 Si0 2.967539 1_555
Mg8 Si1 2.980794 1_554
Mg8 Si5 3.060887 1_554
Mg8 Si15 3.073127 1_655
Mg8 Mg9 3.093718 1_554
Mg8 Si1 3.145533 1_654
Mg9 Si7 2.656240 1_555
Mg9 Si11 2.790479 1_556
Mg9 Si13 2.860271 1_655
Mg9 Si14 2.922531 1_545
Mg9 Si3 2.929256 1_655
Mg9 Si1 3.017195 1_655
Mg9 Si10 3.053996 1_645
Si0 Si11 2.519140 1_555
Si0 Si12 2.523545 1_555
Si0 Si4 2.559599 1_555
Si0 Si15 2.645400 1_655
Si0 Si17 2.752253 1_555
Si1 Si15 2.458460 1_556
Si1 Si11 2.539340 1_556
Si1 Si13 2.609932 1_555
Si1 Si10 2.698481 1_555
Si2 Si9 2.753084 1_555
Si3 Si9 2.522535 1_545
Si4 Si8 2.593621 1_545
Si5 Si7 2.400604 1_555
Si5 Si9 2.651909 1_555
Si6 Si8 2.560000 1_555
Si10 Si14 2.415018 1_455
Si10 Si5 2.767796 1_555
Si11 Si14 2.422059 1_544
Si11 Si4 2.562836 1_555
Si12 Si6 2.516554 1_645
Si12 Si2 2.573436 1_545
Si12 Si4 2.763179 1_655
Si12 Si8 2.929079 1_545
Si13 Si7 2.424049 1_555
Si13 Si3 2.521038 1_555
Si13 Si5 2.581074 1_455
Si14 Si8 2.523034 1_556
Si15 Si6 2.503995 1_555
Si15 Si8 2.590184 1_455
Si15 Si4 2.843685 1_555
Si16 Si7 2.480472 1_555
Si16 Si3 2.509580 1_655
Si16 Si9 2.838896 1_545
Si17 Si6 2.360143 1_555
Si17 Si2 2.740511 1_555
