# generated using pymatgen
data_NdCuS2
_symmetry_space_group_name_H-M   'P 1'
_cell_length_a   6.50377781
_cell_length_b   6.86556000
_cell_length_c   7.19106285
_cell_angle_alpha   90.00000000
_cell_angle_beta   90.00000000
_cell_angle_gamma   97.67523915
_symmetry_Int_Tables_number   1
_chemical_formula_structural   NdCuS2
_chemical_formula_sum   'Nd4 Cu4 S8'
_cell_volume   318.21919555
_cell_formula_units_Z   4
loop_
 _symmetry_equiv_pos_site_id
 _symmetry_equiv_pos_as_xyz
  1  'x, y, z'
loop_
 _atom_site_type_symbol
 _atom_site_label
 _atom_site_symmetry_multiplicity
 _atom_site_fract_x
 _atom_site_fract_y
 _atom_site_fract_z
 _atom_site_occupancy
  Nd  Nd0  1  0.19006055  0.80034010  0.94885106  1
  Nd  Nd1  1  0.80993945  0.69965990  0.44885106  1
  Nd  Nd2  1  0.80993945  0.19965990  0.05114894  1
  Nd  Nd3  1  0.19006055  0.30034010  0.55114894  1
  Cu  Cu0  1  0.57366272  0.05024756  0.66261234  1
  Cu  Cu1  1  0.42633728  0.94975244  0.33738766  1
  Cu  Cu2  1  0.42633728  0.44975244  0.16261234  1
  Cu  Cu3  1  0.57366272  0.55024756  0.83738766  1
  S  S0  1  0.91296497  0.00167247  0.72576436  1
  S  S1  1  0.08703503  0.49832753  0.22576436  1
  S  S2  1  0.08703503  0.99832753  0.27423564  1
  S  S3  1  0.91296497  0.50167247  0.77423564  1
  S  S4  1  0.58847145  0.77603173  0.11483091  1
  S  S5  1  0.58847145  0.27603173  0.38516909  1
  S  S6  1  0.41152855  0.22396827  0.88516909  1
  S  S7  1  0.41152855  0.72396827  0.61483091  1
loop_
_geom_bond_atom_site_label_1
_geom_bond_atom_site_label_2
_geom_bond_distance
_geom_bond_site_symmetry_2
Nd0 S2 2.831059 1_556
Nd0 S3 2.835852 1_455
Nd0 S4 2.877876 1_556
Nd0 S7 2.884574 1_555
Nd0 S1 2.888335 1_556
Nd0 S0 2.897828 1_465
Nd0 S6 3.102327 1_565
Nd1 S3 2.831059 1_555
Nd1 S2 2.835852 1_655
Nd1 S7 2.877876 1_555
Nd1 S4 2.884574 1_555
Nd1 S0 2.888335 1_565
Nd1 S1 2.897828 1_655
Nd1 S5 3.102327 1_555
Nd2 S0 2.831059 1_554
Nd2 S1 2.835852 1_655
Nd2 S6 2.877876 1_554
Nd2 S5 2.884574 1_555
Nd2 S3 2.888335 1_554
Nd2 S2 2.897828 1_645
Nd2 S4 3.102327 1_545
Nd3 S1 2.831059 1_555
Nd3 S0 2.835852 1_455
Nd3 S5 2.877876 1_555
Nd3 S6 2.884574 1_555
Nd3 S2 2.888335 1_545
Nd3 S3 2.897828 1_455
Nd3 S7 3.102327 1_555
Cu0 S0 2.320294 1_555
Cu0 S6 2.330608 1_555
Cu0 S7 2.370029 1_545
Cu0 S5 2.520473 1_555
Cu1 S2 2.320294 1_555
Cu1 S4 2.330608 1_555
Cu1 S5 2.370029 1_565
Cu1 S7 2.520473 1_555
Cu2 S1 2.320294 1_555
Cu2 S5 2.330608 1_555
Cu2 S4 2.370029 1_555
Cu2 S6 2.520473 1_554
Cu3 S3 2.320294 1_555
Cu3 S7 2.330608 1_555
Cu3 S6 2.370029 1_555
Cu3 S4 2.520473 1_556
