# generated using pymatgen
data_CeMg7
_symmetry_space_group_name_H-M   'P 1'
_cell_length_a   6.75535248
_cell_length_b   6.75535248
_cell_length_c   5.20717200
_cell_angle_alpha   90.00000000
_cell_angle_beta   90.00000000
_cell_angle_gamma   120.00000472
_symmetry_Int_Tables_number   1
_chemical_formula_structural   CeMg7
_chemical_formula_sum   'Ce1 Mg7'
_cell_volume   205.79203586
_cell_formula_units_Z   1
loop_
 _symmetry_equiv_pos_site_id
 _symmetry_equiv_pos_as_xyz
  1  'x, y, z'
loop_
 _atom_site_type_symbol
 _atom_site_label
 _atom_site_symmetry_multiplicity
 _atom_site_fract_x
 _atom_site_fract_y
 _atom_site_fract_z
 _atom_site_occupancy
  Ce  Ce0  1  0.66666700  0.33333300  0.00000000  1
  Mg  Mg0  1  0.17064700  0.34129500  0.00000000  1
  Mg  Mg1  1  0.17064700  0.82935300  0.00000000  1
  Mg  Mg2  1  0.65870500  0.82935300  0.00000000  1
  Mg  Mg3  1  0.00700100  0.50350000  0.50000000  1
  Mg  Mg4  1  0.49650000  0.50350000  0.50000000  1
  Mg  Mg5  1  0.49650000  0.99299900  0.50000000  1
  Mg  Mg6  1  0.00000000  0.00000000  0.50000000  1
loop_
_geom_bond_atom_site_label_1
_geom_bond_atom_site_label_2
_geom_bond_distance
_geom_bond_site_symmetry_2
Ce0 Mg3 3.277647 1_655
Ce0 Mg3 3.277647 1_654
Ce0 Mg5 3.277647 1_544
Ce0 Mg5 3.277647 1_545
Ce0 Mg4 3.277648 1_555
Ce0 Mg4 3.277648 1_554
Ce0 Mg2 3.377991 1_545
Ce0 Mg0 3.377991 1_655
Ce0 Mg1 3.377997 1_655
Ce0 Mg1 3.377997 1_545
Ce0 Mg0 3.378004 1_555
Ce0 Mg2 3.378004 1_555
Mg0 Mg3 3.226883 1_555
Mg0 Mg3 3.226883 1_554
Mg0 Mg4 3.226889 1_555
Mg0 Mg4 3.226889 1_554
Mg0 Mg6 3.281066 1_554
Mg0 Mg6 3.281066 1_555
Mg0 Mg2 3.297004 1_555
Mg0 Mg1 3.297004 1_555
Mg0 Mg2 3.458348 1_445
Mg0 Mg1 3.458349 1_545
Mg1 Mg5 3.226889 1_555
Mg1 Mg3 3.226889 1_554
Mg1 Mg3 3.226889 1_555
Mg1 Mg5 3.226889 1_554
Mg1 Mg6 3.281062 1_565
Mg1 Mg6 3.281062 1_564
Mg1 Mg2 3.297004 1_555
Mg1 Mg2 3.458349 1_455
Mg2 Mg5 3.226883 1_554
Mg2 Mg5 3.226883 1_555
Mg2 Mg4 3.226889 1_555
Mg2 Mg4 3.226889 1_554
Mg2 Mg6 3.281066 1_664
Mg2 Mg6 3.281066 1_665
Mg3 Mg5 3.306738 1_555
Mg3 Mg4 3.306738 1_555
Mg3 Mg6 3.377921 1_555
Mg3 Mg6 3.377928 1_565
Mg3 Mg5 3.448614 1_445
Mg3 Mg4 3.448614 1_455
Mg4 Mg5 3.306738 1_555
Mg4 Mg6 3.377924 1_555
Mg4 Mg6 3.377924 1_665
Mg4 Mg5 3.448614 1_545
Mg5 Mg6 3.377921 1_665
Mg5 Mg6 3.377928 1_565
