# generated using pymatgen
data_Y3Sc2(GaO4)3
_symmetry_space_group_name_H-M   'P 1'
_cell_length_a   10.92331525
_cell_length_b   10.92331525
_cell_length_c   10.92331525
_cell_angle_alpha   109.47122063
_cell_angle_beta   109.47122063
_cell_angle_gamma   109.47122063
_symmetry_Int_Tables_number   1
_chemical_formula_structural   Y3Sc2(GaO4)3
_chemical_formula_sum   'Y12 Sc8 Ga12 O48'
_cell_volume   1003.32471947
_cell_formula_units_Z   4
loop_
 _symmetry_equiv_pos_site_id
 _symmetry_equiv_pos_as_xyz
  1  'x, y, z'
loop_
 _atom_site_type_symbol
 _atom_site_label
 _atom_site_symmetry_multiplicity
 _atom_site_fract_x
 _atom_site_fract_y
 _atom_site_fract_z
 _atom_site_occupancy
  Y  Y0  1  0.25000000  0.37500000  0.12500000  1
  Y  Y1  1  0.75000000  0.62500000  0.87500000  1
  Y  Y2  1  0.75000000  0.12500000  0.37500000  1
  Y  Y3  1  0.12500000  0.25000000  0.37500000  1
  Y  Y4  1  0.37500000  0.75000000  0.12500000  1
  Y  Y5  1  0.25000000  0.87500000  0.62500000  1
  Y  Y6  1  0.87500000  0.75000000  0.62500000  1
  Y  Y7  1  0.62500000  0.25000000  0.87500000  1
  Y  Y8  1  0.37500000  0.12500000  0.25000000  1
  Y  Y9  1  0.62500000  0.87500000  0.75000000  1
  Y  Y10  1  0.12500000  0.37500000  0.75000000  1
  Y  Y11  1  0.87500000  0.62500000  0.25000000  1
  Sc  Sc0  1  0.00000000  0.00000000  0.00000000  1
  Sc  Sc1  1  0.50000000  0.00000000  0.50000000  1
  Sc  Sc2  1  0.00000000  0.50000000  0.50000000  1
  Sc  Sc3  1  0.50000000  0.00000000  0.00000000  1
  Sc  Sc4  1  0.50000000  0.50000000  0.00000000  1
  Sc  Sc5  1  0.50000000  0.50000000  0.50000000  1
  Sc  Sc6  1  0.00000000  0.00000000  0.50000000  1
  Sc  Sc7  1  0.00000000  0.50000000  0.00000000  1
  Ga  Ga0  1  0.25000000  0.62500000  0.37500000  1
  Ga  Ga1  1  0.75000000  0.37500000  0.62500000  1
  Ga  Ga2  1  0.75000000  0.87500000  0.12500000  1
  Ga  Ga3  1  0.37500000  0.25000000  0.62500000  1
  Ga  Ga4  1  0.62500000  0.75000000  0.37500000  1
  Ga  Ga5  1  0.25000000  0.12500000  0.87500000  1
  Ga  Ga6  1  0.12500000  0.75000000  0.87500000  1
  Ga  Ga7  1  0.87500000  0.25000000  0.12500000  1
  Ga  Ga8  1  0.62500000  0.37500000  0.25000000  1
  Ga  Ga9  1  0.37500000  0.62500000  0.75000000  1
  Ga  Ga10  1  0.87500000  0.12500000  0.75000000  1
  Ga  Ga11  1  0.12500000  0.87500000  0.25000000  1
  O  O0  1  0.46955800  0.37321000  0.28726900  1
  O  O1  1  0.53044200  0.62679000  0.71273100  1
  O  O2  1  0.58594100  0.18228900  0.21273100  1
  O  O3  1  0.91405900  0.12679000  0.59634800  1
  O  O4  1  0.28726900  0.46955800  0.37321000  1
  O  O5  1  0.31771100  0.91405900  0.28726900  1
  O  O6  1  0.41405900  0.81771100  0.78726900  1
  O  O7  1  0.08594100  0.87321000  0.40365200  1
  O  O8  1  0.71273100  0.53044200  0.62679000  1
  O  O9  1  0.68228900  0.08594100  0.71273100  1
  O  O10  1  0.03044200  0.31771100  0.90365200  1
  O  O11  1  0.21273100  0.58594100  0.18228900  1
  O  O12  1  0.12679000  0.03044200  0.21273100  1
  O  O13  1  0.96955800  0.68228900  0.09634800  1
  O  O14  1  0.78726900  0.41405900  0.81771100  1
  O  O15  1  0.87321000  0.96955800  0.78726900  1
  O  O16  1  0.59634800  0.91405900  0.12679000  1
  O  O17  1  0.18228900  0.46955800  0.59634800  1
  O  O18  1  0.40365200  0.08594100  0.87321000  1
  O  O19  1  0.81771100  0.53044200  0.40365200  1
  O  O20  1  0.90365200  0.03044200  0.31771100  1
  O  O21  1  0.37321000  0.58594100  0.90365200  1
  O  O22  1  0.09634800  0.96955800  0.68228900  1
  O  O23  1  0.62679000  0.41405900  0.09634800  1
  O  O24  1  0.37321000  0.28726900  0.46955800  1
  O  O25  1  0.58594100  0.90365200  0.37321000  1
  O  O26  1  0.62679000  0.71273100  0.53044200  1
  O  O27  1  0.41405900  0.09634800  0.62679000  1
  O  O28  1  0.12679000  0.59634800  0.91405900  1
  O  O29  1  0.03044200  0.21273100  0.12679000  1
  O  O30  1  0.87321000  0.40365200  0.08594100  1
  O  O31  1  0.96955800  0.78726900  0.87321000  1
  O  O32  1  0.31771100  0.90365200  0.03044200  1
  O  O33  1  0.91405900  0.28726900  0.31771100  1
  O  O34  1  0.68228900  0.09634800  0.96955800  1
  O  O35  1  0.08594100  0.71273100  0.68228900  1
  O  O36  1  0.18228900  0.21273100  0.58594100  1
  O  O37  1  0.46955800  0.59634800  0.18228900  1
  O  O38  1  0.81771100  0.78726900  0.41405900  1
  O  O39  1  0.53044200  0.40365200  0.81771100  1
  O  O40  1  0.28726900  0.31771100  0.91405900  1
  O  O41  1  0.71273100  0.68228900  0.08594100  1
  O  O42  1  0.21273100  0.12679000  0.03044200  1
  O  O43  1  0.78726900  0.87321000  0.96955800  1
  O  O44  1  0.90365200  0.37321000  0.58594100  1
  O  O45  1  0.09634800  0.62679000  0.41405900  1
  O  O46  1  0.59634800  0.18228900  0.46955800  1
  O  O47  1  0.40365200  0.81771100  0.53044200  1
loop_
_geom_bond_atom_site_label_1
_geom_bond_atom_site_label_2
_geom_bond_distance
_geom_bond_site_symmetry_2
Ga0 O47 1.868988 1_555
Ga0 O4 1.868988 1_555
Ga0 O45 1.868988 1_555
Ga0 O11 1.868988 1_555
Ga1 O8 1.868988 1_555
Ga1 O14 1.868988 1_555
Ga1 O44 1.868988 1_555
Ga1 O46 1.868988 1_555
Ga2 O20 1.868988 1_565
Ga2 O16 1.868988 1_555
Ga2 O41 1.868988 1_555
Ga2 O43 1.868988 1_554
Ga3 O39 1.868988 1_555
Ga3 O24 1.868988 1_555
Ga3 O27 1.868988 1_555
Ga3 O36 1.868988 1_555
Ga4 O26 1.868988 1_555
Ga4 O38 1.868988 1_555
Ga4 O25 1.868988 1_555
Ga4 O37 1.868988 1_555
Ga5 O40 1.868988 1_555
Ga5 O18 1.868988 1_555
Ga5 O42 1.868988 1_556
Ga5 O22 1.868988 1_545
Ga6 O32 1.868988 1_556
Ga6 O28 1.868988 1_555
Ga6 O35 1.868988 1_555
Ga6 O31 1.868988 1_455
Ga7 O33 1.868988 1_555
Ga7 O30 1.868988 1_555
Ga7 O29 1.868988 1_655
Ga7 O34 1.868988 1_554
Ga8 O19 1.868988 1_555
Ga8 O0 1.868988 1_555
Ga8 O23 1.868988 1_555
Ga8 O2 1.868988 1_555
Ga9 O1 1.868988 1_555
Ga9 O6 1.868988 1_555
Ga9 O21 1.868988 1_555
Ga9 O17 1.868988 1_555
Ga10 O10 1.868988 1_655
Ga10 O3 1.868988 1_555
Ga10 O9 1.868988 1_555
Ga10 O15 1.868988 1_545
Ga11 O5 1.868988 1_555
Ga11 O7 1.868988 1_555
Ga11 O12 1.868988 1_565
Ga11 O13 1.868988 1_455
O0 Sc5 2.112045 1_555
O0 Y8 2.387567 1_555
O0 Y0 2.472730 1_555
O1 Sc5 2.112045 1_555
O1 Y9 2.387567 1_555
O1 Y1 2.472730 1_555
O2 Sc3 2.112045 1_555
O2 Y8 2.387567 1_555
O2 Y2 2.472730 1_555
O3 Sc6 2.112045 1_655
O3 Y10 2.387567 1_655
O3 Y2 2.472730 1_555
O4 Sc5 2.112045 1_555
O4 Y0 2.387567 1_555
O4 Y3 2.472730 1_555
O5 Sc1 2.112045 1_565
O5 Y8 2.387567 1_565
O5 Y4 2.472730 1_555
O6 Sc3 2.112045 1_566
O6 Y9 2.387567 1_555
O6 Y5 2.472730 1_555
O7 Sc6 2.112045 1_565
O7 Y11 2.387567 1_455
O7 Y5 2.472730 1_555
O8 Sc5 2.112045 1_555
O8 Y1 2.387567 1_555
O8 Y6 2.472730 1_555
O9 Sc1 2.112045 1_555
O9 Y9 2.387567 1_545
O9 Y7 2.472730 1_555
O10 Sc7 2.112045 1_556
O10 Y10 2.387567 1_555
O10 Y0 2.472730 1_556
O11 Sc7 2.112045 1_555
O11 Y0 2.387567 1_555
O11 Y4 2.472730 1_555
O12 Sc0 2.112045 1_555
O12 Y8 2.387567 1_555
O12 Y3 2.472730 1_555
O13 Sc7 2.112045 1_655
O13 Y11 2.387567 1_555
O13 Y1 2.472730 1_554
O14 Sc7 2.112045 1_656
O14 Y1 2.387567 1_555
O14 Y7 2.472730 1_555
O15 Sc0 2.112045 1_666
O15 Y9 2.387567 1_555
O15 Y6 2.472730 1_555
O16 Sc3 2.112045 1_565
O16 Y2 2.387567 1_565
O16 Y4 2.472730 1_555
O17 Sc2 2.112045 1_555
O17 Y10 2.387567 1_555
O17 Y3 2.472730 1_555
O18 Sc3 2.112045 1_556
O18 Y5 2.387567 1_545
O18 Y7 2.472730 1_555
O19 Sc2 2.112045 1_655
O19 Y11 2.387567 1_555
O19 Y6 2.472730 1_555
O20 Sc6 2.112045 1_655
O20 Y2 2.387567 1_555
O20 Y3 2.472730 1_655
O21 Sc4 2.112045 1_556
O21 Y10 2.387567 1_555
O21 Y4 2.472730 1_556
O22 Sc6 2.112045 1_565
O22 Y5 2.387567 1_555
O22 Y6 2.472730 1_455
O23 Sc4 2.112045 1_555
O23 Y11 2.387567 1_555
O23 Y7 2.472730 1_554
O24 Sc5 2.112045 1_555
O24 Y3 2.387567 1_555
O24 Y8 2.472730 1_555
O25 Sc1 2.112045 1_565
O25 Y4 2.387567 1_555
O25 Y2 2.472730 1_565
O26 Sc5 2.112045 1_555
O26 Y6 2.387567 1_555
O26 Y9 2.472730 1_555
O27 Sc1 2.112045 1_555
O27 Y7 2.387567 1_555
O27 Y5 2.472730 1_545
O28 Sc7 2.112045 1_556
O28 Y4 2.387567 1_556
O28 Y10 2.472730 1_555
O29 Sc0 2.112045 1_555
O29 Y3 2.387567 1_555
O29 Y0 2.472730 1_555
O30 Sc7 2.112045 1_655
O30 Y7 2.387567 1_554
O30 Y11 2.472730 1_555
O31 Sc0 2.112045 1_666
O31 Y6 2.387567 1_555
O31 Y1 2.472730 1_555
O32 Sc3 2.112045 1_565
O32 Y4 2.387567 1_555
O32 Y8 2.472730 1_565
O33 Sc2 2.112045 1_655
O33 Y3 2.387567 1_655
O33 Y2 2.472730 1_555
O34 Sc3 2.112045 1_556
O34 Y7 2.387567 1_555
O34 Y9 2.472730 1_545
O35 Sc2 2.112045 1_555
O35 Y6 2.387567 1_455
O35 Y5 2.472730 1_555
O36 Sc6 2.112045 1_555
O36 Y3 2.387567 1_555
O36 Y10 2.472730 1_555
O37 Sc4 2.112045 1_555
O37 Y4 2.387567 1_555
O37 Y0 2.472730 1_555
O38 Sc6 2.112045 1_665
O38 Y6 2.387567 1_555
O38 Y11 2.472730 1_555
O39 Sc4 2.112045 1_556
O39 Y7 2.387567 1_555
O39 Y1 2.472730 1_555
O40 Sc4 2.112045 1_556
O40 Y0 2.387567 1_556
O40 Y10 2.472730 1_555
O41 Sc4 2.112045 1_555
O41 Y1 2.387567 1_554
O41 Y11 2.472730 1_555
O42 Sc0 2.112045 1_555
O42 Y0 2.387567 1_555
O42 Y8 2.472730 1_555
O43 Sc0 2.112045 1_666
O43 Y1 2.387567 1_555
O43 Y9 2.472730 1_555
O44 Sc2 2.112045 1_655
O44 Y2 2.387567 1_555
O44 Y10 2.472730 1_655
O45 Sc2 2.112045 1_555
O45 Y5 2.387567 1_555
O45 Y11 2.472730 1_455
O46 Sc1 2.112045 1_555
O46 Y2 2.387567 1_555
O46 Y8 2.472730 1_555
O47 Sc1 2.112045 1_565
O47 Y5 2.387567 1_555
O47 Y9 2.472730 1_555
