# generated using pymatgen
data_Mg(InS2)2
_symmetry_space_group_name_H-M   'P 1'
_cell_length_a   7.65770089
_cell_length_b   7.65770089
_cell_length_c   7.65770089
_cell_angle_alpha   108.55538313
_cell_angle_beta   108.55538313
_cell_angle_gamma   111.31884497
_symmetry_Int_Tables_number   1
_chemical_formula_structural   Mg(InS2)2
_chemical_formula_sum   'Mg2 In4 S8'
_cell_volume   345.40867344
_cell_formula_units_Z   2
loop_
 _symmetry_equiv_pos_site_id
 _symmetry_equiv_pos_as_xyz
  1  'x, y, z'
loop_
 _atom_site_type_symbol
 _atom_site_label
 _atom_site_symmetry_multiplicity
 _atom_site_fract_x
 _atom_site_fract_y
 _atom_site_fract_z
 _atom_site_occupancy
  Mg  Mg0  1  0.00000000  0.00000000  0.00000000  1
  Mg  Mg1  1  0.25000000  0.75000000  0.50000000  1
  In  In0  1  0.74072800  0.87500000  0.36572800  1
  In  In1  1  0.12500000  0.49072800  0.86572800  1
  In  In2  1  0.50927200  0.37500000  0.63427200  1
  In  In3  1  0.62500000  0.25927200  0.13427200  1
  S  S0  1  0.36197600  0.60596500  0.24280500  1
  S  S1  1  0.39403500  0.63684000  0.75601100  1
  S  S2  1  0.36316000  0.11917100  0.75719500  1
  S  S3  1  0.88082900  0.63802400  0.24398900  1
  S  S4  1  0.88684000  0.14403500  0.25601100  1
  S  S5  1  0.36917100  0.11316000  0.25719500  1
  S  S6  1  0.88802400  0.63082900  0.74398900  1
  S  S7  1  0.85596500  0.11197600  0.74280500  1
loop_
_geom_bond_atom_site_label_1
_geom_bond_atom_site_label_2
_geom_bond_distance
_geom_bond_site_symmetry_2
Mg0 S5 2.492149 1_555
Mg0 S6 2.492149 1_444
Mg0 S7 2.492149 1_454
Mg0 S4 2.492149 1_455
Mg1 S0 2.492149 1_555
Mg1 S1 2.492149 1_555
Mg1 S2 2.492149 1_565
Mg1 S3 2.492149 1_455
In0 S0 2.495202 1_555
In0 S4 2.495202 1_565
In0 S7 2.507720 1_565
In0 S3 2.507720 1_555
In1 S1 2.495202 1_555
In1 S7 2.495202 1_455
In1 S6 2.507720 1_455
In1 S0 2.507720 1_556
In2 S6 2.495202 1_555
In2 S2 2.495202 1_555
In2 S5 2.507720 1_555
In2 S1 2.507720 1_555
In3 S3 2.495202 1_555
In3 S5 2.495202 1_555
In3 S2 2.507720 1_554
In3 S4 2.507720 1_555
