# generated using pymatgen
data_ErCr2O2
_symmetry_space_group_name_H-M   'P 1'
_cell_length_a   7.88589617
_cell_length_b   7.88589617
_cell_length_c   7.88589617
_cell_angle_alpha   111.97963461
_cell_angle_beta   111.97963461
_cell_angle_gamma   104.56309450
_symmetry_Int_Tables_number   1
_chemical_formula_structural   ErCr2O2
_chemical_formula_sum   'Er4 Cr8 O8'
_cell_volume   375.45841986
_cell_formula_units_Z   4
loop_
 _symmetry_equiv_pos_site_id
 _symmetry_equiv_pos_as_xyz
  1  'x, y, z'
loop_
 _atom_site_type_symbol
 _atom_site_label
 _atom_site_symmetry_multiplicity
 _atom_site_fract_x
 _atom_site_fract_y
 _atom_site_fract_z
 _atom_site_occupancy
  Er  Er0  1  0.87500000  0.12500000  0.25000000  1
  Er  Er1  1  0.87500000  0.62500000  0.75000000  1
  Er  Er2  1  0.37500000  0.12500000  0.25000000  1
  Er  Er3  1  0.87500000  0.12500000  0.75000000  1
  Cr  Cr0  1  0.51658000  0.21428900  0.69770900  1
  Cr  Cr1  1  0.51658000  0.81887100  0.30229100  1
  Cr  Cr2  1  0.56887100  0.76658000  0.80229100  1
  Cr  Cr3  1  0.23342000  0.43112900  0.19770900  1
  Cr  Cr4  1  0.23342000  0.03571100  0.80229100  1
  Cr  Cr5  1  0.96428900  0.76658000  0.19770900  1
  Cr  Cr6  1  0.18112900  0.48342000  0.69770900  1
  Cr  Cr7  1  0.78571100  0.48342000  0.30229100  1
  O  O0  1  0.67400500  0.51985200  0.84584600  1
  O  O1  1  0.67400500  0.82815900  0.15415400  1
  O  O2  1  0.57815900  0.92400500  0.65415400  1
  O  O3  1  0.07599500  0.42184100  0.34584600  1
  O  O4  1  0.07599500  0.73014800  0.65415400  1
  O  O5  1  0.26985200  0.92400500  0.34584600  1
  O  O6  1  0.17184100  0.32599500  0.84584600  1
  O  O7  1  0.48014800  0.32599500  0.15415400  1
loop_
_geom_bond_atom_site_label_1
_geom_bond_atom_site_label_2
_geom_bond_distance
_geom_bond_site_symmetry_2
Er0 O3 2.115685 1_655
Er0 O1 2.115685 1_545
Er1 O4 2.115682 1_655
Er1 O0 2.115682 1_555
Er2 O5 2.115682 1_545
Er2 O7 2.115682 1_555
Er3 O6 2.115685 1_655
Er3 O2 2.115685 1_545
Cr0 O0 2.003780 1_555
Cr0 O5 2.385227 1_545
Cr0 O2 2.385228 1_545
Cr1 O1 2.003774 1_555
Cr1 O5 2.385221 1_555
Cr1 O2 2.385228 1_555
Cr2 O2 2.003774 1_555
Cr2 O0 2.385221 1_555
Cr2 O1 2.385228 1_556
Cr3 O3 2.003774 1_555
Cr3 O7 2.385221 1_555
Cr3 O6 2.385228 1_554
Cr4 O4 2.003780 1_545
Cr4 O7 2.385227 1_556
Cr4 O6 2.385228 1_555
Cr5 O5 2.003780 1_655
Cr5 O0 2.385227 1_554
Cr5 O1 2.385228 1_555
Cr6 O6 2.003774 1_555
Cr6 O4 2.385221 1_555
Cr6 O3 2.385228 1_555
Cr7 O7 2.003780 1_555
Cr7 O4 2.385227 1_655
Cr7 O3 2.385228 1_655
