# generated using pymatgen
data_Sm2Zr8O19
_symmetry_space_group_name_H-M   'P 1'
_cell_length_a   3.66331200
_cell_length_b   3.66331200
_cell_length_c   25.94073600
_cell_angle_alpha   90.00000000
_cell_angle_beta   90.00000000
_cell_angle_gamma   90.00000000
_symmetry_Int_Tables_number   1
_chemical_formula_structural   Sm2Zr8O19
_chemical_formula_sum   'Sm2 Zr8 O19'
_cell_volume   348.12091077
_cell_formula_units_Z   1
loop_
 _symmetry_equiv_pos_site_id
 _symmetry_equiv_pos_as_xyz
  1  'x, y, z'
loop_
 _atom_site_type_symbol
 _atom_site_label
 _atom_site_symmetry_multiplicity
 _atom_site_fract_x
 _atom_site_fract_y
 _atom_site_fract_z
 _atom_site_occupancy
  Sm  Sm0  1  0.00000000  0.50000000  0.94245000  1
  Sm  Sm1  1  0.50000000  0.00000000  0.05755000  1
  Zr  Zr0  1  0.00000000  0.50000000  0.15536500  1
  Zr  Zr1  1  0.50000000  0.00000000  0.25367800  1
  Zr  Zr2  1  0.00000000  0.50000000  0.35243200  1
  Zr  Zr3  1  0.50000000  0.00000000  0.45085800  1
  Zr  Zr4  1  0.00000000  0.50000000  0.54914200  1
  Zr  Zr5  1  0.50000000  0.00000000  0.64756800  1
  Zr  Zr6  1  0.00000000  0.50000000  0.74632200  1
  Zr  Zr7  1  0.50000000  0.00000000  0.84463500  1
  O  O0  1  0.00000000  0.00000000  0.39903000  1
  O  O1  1  0.50000000  0.50000000  0.50000000  1
  O  O2  1  0.00000000  0.00000000  0.60097000  1
  O  O3  1  0.50000000  0.50000000  0.69296500  1
  O  O4  1  0.00000000  0.00000000  0.80089700  1
  O  O5  1  0.50000000  0.50000000  0.88802800  1
  O  O6  1  0.50000000  0.50000000  0.00000000  1
  O  O7  1  0.50000000  0.50000000  0.11197200  1
  O  O8  1  0.00000000  0.00000000  0.19910300  1
  O  O9  1  0.00000000  0.00000000  0.10070400  1
  O  O10  1  0.50000000  0.50000000  0.20964900  1
  O  O11  1  0.50000000  0.50000000  0.30703500  1
  O  O12  1  0.00000000  0.00000000  0.29873100  1
  O  O13  1  0.50000000  0.50000000  0.40382100  1
  O  O14  1  0.00000000  0.00000000  0.50000000  1
  O  O15  1  0.50000000  0.50000000  0.59617900  1
  O  O16  1  0.00000000  0.00000000  0.70126900  1
  O  O17  1  0.50000000  0.50000000  0.79035100  1
  O  O18  1  0.00000000  0.00000000  0.89929600  1
loop_
_geom_bond_atom_site_label_1
_geom_bond_atom_site_label_2
_geom_bond_distance
_geom_bond_site_symmetry_2
O0 Zr2 2.194568 1_545
O0 Zr2 2.194568 1_555
O0 Zr3 2.272119 1_555
O0 Zr3 2.272119 1_455
O1 Zr4 2.231597 1_655
O1 Zr4 2.231597 1_555
O1 Zr3 2.231597 1_555
O1 Zr3 2.231597 1_565
O2 Zr5 2.194568 1_555
O2 Zr5 2.194568 1_455
O2 Zr4 2.272119 1_545
O2 Zr4 2.272119 1_555
O3 Zr5 2.177563 1_565
O3 Zr5 2.177563 1_555
O3 Zr6 2.295812 1_555
O3 Zr6 2.295812 1_655
O4 Zr7 2.154593 1_455
O4 Zr7 2.154593 1_555
O4 Zr6 2.314998 1_555
O4 Zr6 2.314998 1_545
O5 Zr7 2.149894 1_565
O5 Zr7 2.149894 1_555
O5 Sm0 2.312573 1_655
O5 Sm0 2.312573 1_555
O6 Sm0 2.362982 1_554
O6 Sm0 2.362982 1_654
O6 Sm1 2.362982 1_565
O6 Sm1 2.362982 1_555
O7 Zr0 2.149894 1_555
O7 Zr0 2.149894 1_655
O7 Sm1 2.312573 1_565
O7 Sm1 2.312573 1_555
O8 Zr0 2.154593 1_555
O8 Zr0 2.154593 1_545
O8 Zr1 2.314998 1_455
O8 Zr1 2.314998 1_555
O9 Sm1 2.146654 1_455
O9 Sm1 2.146654 1_555
O9 Zr0 2.316363 1_555
O9 Zr0 2.316363 1_545
O10 Zr1 2.158578 1_565
O10 Zr1 2.158578 1_555
O10 Zr0 2.310389 1_555
O10 Zr0 2.310389 1_655
O11 Zr2 2.177563 1_655
O11 Zr2 2.177563 1_555
O11 Zr1 2.295812 1_565
O11 Zr1 2.295812 1_555
O12 Zr1 2.172750 1_555
O12 Zr1 2.172750 1_455
O12 Zr2 2.301203 1_555
O12 Zr2 2.301203 1_545
O13 Zr3 2.200861 1_555
O13 Zr3 2.200861 1_565
O13 Zr2 2.265400 1_555
O13 Zr2 2.265400 1_655
O14 Zr4 2.231597 1_545
O14 Zr3 2.231597 1_455
O14 Zr3 2.231597 1_555
O14 Zr4 2.231597 1_555
O15 Zr4 2.200861 1_655
O15 Zr4 2.200861 1_555
O15 Zr5 2.265400 1_565
O15 Zr5 2.265400 1_555
O16 Zr6 2.172750 1_545
O16 Zr6 2.172750 1_555
O16 Zr5 2.301203 1_555
O16 Zr5 2.301203 1_455
O17 Zr6 2.158578 1_655
O17 Zr6 2.158578 1_555
O17 Zr7 2.310389 1_555
O17 Zr7 2.310389 1_565
O18 Sm0 2.146654 1_545
O18 Sm0 2.146654 1_555
O18 Zr7 2.316363 1_455
O18 Zr7 2.316363 1_555
