# generated using pymatgen
data_Ba2Zn3(AsO)2
_symmetry_space_group_name_H-M   'P 1'
_cell_length_a   4.22445000
_cell_length_b   4.22445000
_cell_length_c   10.50510806
_cell_angle_alpha   101.59933024
_cell_angle_beta   101.59933024
_cell_angle_gamma   90.00000000
_symmetry_Int_Tables_number   1
_chemical_formula_structural   Ba2Zn3(AsO)2
_chemical_formula_sum   'Ba2 Zn3 As2 O2'
_cell_volume   179.73505160
_cell_formula_units_Z   1
loop_
 _symmetry_equiv_pos_site_id
 _symmetry_equiv_pos_as_xyz
  1  'x, y, z'
loop_
 _atom_site_type_symbol
 _atom_site_label
 _atom_site_symmetry_multiplicity
 _atom_site_fract_x
 _atom_site_fract_y
 _atom_site_fract_z
 _atom_site_occupancy
  Ba  Ba0  1  0.58902200  0.58902200  0.17804400  1
  Ba  Ba1  1  0.41097800  0.41097800  0.82195600  1
  Zn  Zn0  1  0.00000000  0.00000000  0.00000000  1
  Zn  Zn1  1  0.75000000  0.25000000  0.50000000  1
  Zn  Zn2  1  0.25000000  0.75000000  0.50000000  1
  As  As0  1  0.17494300  0.17494300  0.34988600  1
  As  As1  1  0.82505700  0.82505700  0.65011400  1
  O  O0  1  0.00000000  0.50000000  0.00000000  1
  O  O1  1  0.50000000  0.00000000  0.00000000  1
loop_
_geom_bond_atom_site_label_1
_geom_bond_atom_site_label_2
_geom_bond_distance
_geom_bond_site_symmetry_2
Ba0 O1 2.770727 1_565
Ba0 O0 2.770727 1_555
Ba0 O1 2.770727 1_555
Ba0 O0 2.770727 1_655
Ba1 O0 2.770727 1_656
Ba1 O1 2.770727 1_566
Ba1 O0 2.770727 1_556
Ba1 O1 2.770727 1_556
As0 Zn1 2.597544 1_555
As0 Zn2 2.597544 1_545
As0 Zn2 2.597544 1_555
As0 Zn1 2.597544 1_455
As0 Ba0 3.452291 1_445
As0 Ba0 3.452291 1_545
As0 Ba0 3.452291 1_455
As0 Ba0 3.452291 1_555
As1 Zn1 2.597544 1_565
As1 Zn2 2.597544 1_655
As1 Zn1 2.597544 1_555
As1 Zn2 2.597544 1_555
As1 Ba1 3.452291 1_555
As1 Ba1 3.452291 1_565
As1 Ba1 3.452291 1_655
As1 Ba1 3.452291 1_665
O0 Zn0 2.112225 1_555
O0 Zn0 2.112225 1_565
O1 Zn0 2.112225 1_555
O1 Zn0 2.112225 1_655
