# generated using pymatgen
data_Na4ZnP4H16C2(NO8)2
_symmetry_space_group_name_H-M   'P 1'
_cell_length_a   5.62754300
_cell_length_b   6.21215961
_cell_length_c   12.53102599
_cell_angle_alpha   92.23176455
_cell_angle_beta   92.57213637
_cell_angle_gamma   94.05933776
_symmetry_Int_Tables_number   1
_chemical_formula_structural   Na4ZnP4H16C2(NO8)2
_chemical_formula_sum   'Na4 Zn1 P4 H16 C2 N2 O16'
_cell_volume   436.14521626
_cell_formula_units_Z   1
loop_
 _symmetry_equiv_pos_site_id
 _symmetry_equiv_pos_as_xyz
  1  'x, y, z'
loop_
 _atom_site_type_symbol
 _atom_site_label
 _atom_site_symmetry_multiplicity
 _atom_site_fract_x
 _atom_site_fract_y
 _atom_site_fract_z
 _atom_site_occupancy
  Na  Na0  1  0.48222200  0.90765800  0.68631900  1
  Na  Na1  1  0.51777800  0.09234200  0.31368100  1
  Na  Na2  1  0.88779400  0.90353000  0.88359100  1
  Na  Na3  1  0.11220600  0.09647000  0.11640900  1
  Zn  Zn0  1  0.50000000  0.50000000  0.50000000  1
  P  P0  1  0.63791300  0.39598700  0.75059800  1
  P  P1  1  0.36208700  0.60401300  0.24940200  1
  P  P2  1  0.98950500  0.69843700  0.63537800  1
  P  P3  1  0.01049500  0.30156300  0.36462200  1
  H  H0  1  0.00005600  0.11053600  0.67643300  1
  H  H1  1  0.99994400  0.88946400  0.32356700  1
  H  H2  1  0.19041100  0.28502800  0.62187900  1
  H  H3  1  0.80958900  0.71497200  0.37812100  1
  H  H4  1  0.90941900  0.25203500  0.56641400  1
  H  H5  1  0.09058100  0.74796500  0.43358600  1
  H  H6  1  0.35146800  0.64686700  0.90099500  1
  H  H7  1  0.64853200  0.35313300  0.09900500  1
  H  H8  1  0.28032300  0.68834200  0.02114800  1
  H  H9  1  0.71967700  0.31165800  0.97885200  1
  H  H10  1  0.19156100  0.33563600  0.94829000  1
  H  H11  1  0.80843900  0.66436400  0.05171000  1
  H  H12  1  0.35112600  0.16436100  0.90088300  1
  H  H13  1  0.64887400  0.83563900  0.09911700  1
  H  H14  1  0.07170400  0.46095400  0.77799600  1
  H  H15  1  0.92829600  0.53904600  0.22200400  1
  C  C0  1  0.94675500  0.44560400  0.70779000  1
  C  C1  1  0.05324500  0.55439600  0.29221000  1
  N  N0  1  0.01089300  0.26091200  0.63881000  1
  N  N1  1  0.98910700  0.73908800  0.36119000  1
  O  O0  1  0.50098700  0.32130800  0.64253800  1
  O  O1  1  0.49901300  0.67869200  0.35746200  1
  O  O2  1  0.56661200  0.60831600  0.80155900  1
  O  O3  1  0.43338800  0.39168400  0.19844100  1
  O  O4  1  0.63148900  0.20421700  0.82602100  1
  O  O5  1  0.36851100  0.79578300  0.17397900  1
  O  O6  1  0.75329300  0.73334000  0.57260100  1
  O  O7  1  0.24670700  0.26666000  0.42739900  1
  O  O8  1  0.04929900  0.87754800  0.72271300  1
  O  O9  1  0.95070100  0.12245200  0.27728700  1
  O  O10  1  0.20228200  0.68089800  0.56275700  1
  O  O11  1  0.79771800  0.31910200  0.43724300  1
  O  O12  1  0.21496000  0.64177600  0.94885900  1
  O  O13  1  0.78504000  0.35822400  0.05114100  1
  O  O14  1  0.20716800  0.17762400  0.94257300  1
  O  O15  1  0.79283200  0.82237600  0.05742700  1
loop_
_geom_bond_atom_site_label_1
_geom_bond_atom_site_label_2
_geom_bond_distance
_geom_bond_site_symmetry_2
Na0 O6 2.416428 1_555
Na0 O2 2.457942 1_555
Na0 O10 2.482050 1_555
Na0 O8 2.494062 1_555
Na0 O4 2.561629 1_565
Na0 O0 2.644214 1_565
Na1 O7 2.416428 1_555
Na1 O3 2.457942 1_555
Na1 O11 2.482050 1_555
Na1 O9 2.494062 1_555
Na1 O5 2.561629 1_545
Na1 O1 2.644214 1_545
Na2 O8 2.253022 1_655
Na2 O15 2.331694 1_556
Na2 O14 2.454640 1_665
Na2 O4 2.546168 1_565
Na2 O2 2.627541 1_555
Na2 O12 2.663656 1_655
Na3 O9 2.253022 1_455
Na3 O14 2.331694 1_554
Na3 O15 2.454640 1_445
Na3 O5 2.546168 1_545
Na3 O3 2.627541 1_555
Na3 O13 2.663656 1_455
H0 N0 1.061819 1_555
H0 O8 1.617313 1_545
H1 N1 1.061819 1_555
H1 O9 1.617313 1_565
H2 N0 1.043234 1_555
H2 O0 1.752605 1_555
H3 N1 1.043234 1_555
H3 O1 1.752605 1_555
H4 N0 1.047517 1_655
H5 N1 1.047517 1_455
H6 O12 0.995125 1_555
H7 O13 0.995125 1_555
H8 O12 0.987003 1_554
H9 O13 0.987003 1_556
H10 O14 0.991802 1_555
H11 O15 0.991802 1_555
H12 O14 0.990002 1_555
H13 O15 0.990002 1_555
C0 H14 1.098152 1_655
C0 N0 1.484325 1_655
C0 P0 1.850457 1_555
C0 P2 1.850743 1_555
C1 H15 1.098152 1_455
C1 N1 1.484325 1_455
C1 P1 1.850457 1_555
C1 P3 1.850743 1_555
O0 P0 1.565051 1_555
O0 Zn0 2.139392 1_555
O1 P1 1.565051 1_555
O1 Zn0 2.139392 1_555
O2 P0 1.530016 1_555
O3 P1 1.530016 1_555
O4 P0 1.548691 1_555
O5 P1 1.548691 1_555
O6 P2 1.546965 1_555
O6 Zn0 2.109274 1_555
O7 P3 1.546965 1_555
O7 Zn0 2.109274 1_555
O8 P2 1.538850 1_455
O9 P3 1.538850 1_655
O10 P2 1.543485 1_455
O10 Zn0 2.237034 1_555
O11 P3 1.543485 1_655
O11 Zn0 2.237034 1_555
