# generated using pymatgen
data_Ce(Cu2P)2
_symmetry_space_group_name_H-M   'P 1'
_cell_length_a   3.84524600
_cell_length_b   10.91555200
_cell_length_c   14.71731800
_cell_angle_alpha   90.00000000
_cell_angle_beta   90.00000000
_cell_angle_gamma   90.00000000
_symmetry_Int_Tables_number   1
_chemical_formula_structural   Ce(Cu2P)2
_chemical_formula_sum   'Ce6 Cu24 P12'
_cell_volume   617.72973330
_cell_formula_units_Z   6
loop_
 _symmetry_equiv_pos_site_id
 _symmetry_equiv_pos_as_xyz
  1  'x, y, z'
loop_
 _atom_site_type_symbol
 _atom_site_label
 _atom_site_symmetry_multiplicity
 _atom_site_fract_x
 _atom_site_fract_y
 _atom_site_fract_z
 _atom_site_occupancy
  Ce  Ce0  1  0.00000000  0.12203200  0.72701300  1
  Ce  Ce1  1  0.00000000  0.87796800  0.27298700  1
  Ce  Ce2  1  0.50000000  0.37796800  0.22701300  1
  Ce  Ce3  1  0.50000000  0.62203200  0.77298700  1
  Ce  Ce4  1  0.00000000  0.00000000  0.00000000  1
  Ce  Ce5  1  0.50000000  0.50000000  0.50000000  1
  Cu  Cu0  1  0.00000000  0.07109700  0.43818400  1
  Cu  Cu1  1  0.00000000  0.92890300  0.56181600  1
  Cu  Cu2  1  0.50000000  0.42890300  0.93818400  1
  Cu  Cu3  1  0.50000000  0.57109700  0.06181600  1
  Cu  Cu4  1  0.00000000  0.39717500  0.05336100  1
  Cu  Cu5  1  0.00000000  0.60282500  0.94663900  1
  Cu  Cu6  1  0.50000000  0.10282500  0.55336100  1
  Cu  Cu7  1  0.50000000  0.89717500  0.44663900  1
  Cu  Cu8  1  0.00000000  0.57785300  0.33006800  1
  Cu  Cu9  1  0.00000000  0.42214700  0.66993200  1
  Cu  Cu10  1  0.50000000  0.92214700  0.83006800  1
  Cu  Cu11  1  0.50000000  0.07785300  0.16993200  1
  Cu  Cu12  1  0.00000000  0.26570700  0.53551000  1
  Cu  Cu13  1  0.00000000  0.73429300  0.46449000  1
  Cu  Cu14  1  0.50000000  0.23429300  0.03551000  1
  Cu  Cu15  1  0.50000000  0.76570700  0.96449000  1
  Cu  Cu16  1  0.00000000  0.74364100  0.08863400  1
  Cu  Cu17  1  0.00000000  0.25635900  0.91136600  1
  Cu  Cu18  1  0.50000000  0.75635900  0.58863400  1
  Cu  Cu19  1  0.50000000  0.24364100  0.41136600  1
  Cu  Cu20  1  0.00000000  0.17442100  0.28729500  1
  Cu  Cu21  1  0.00000000  0.82557900  0.71270500  1
  Cu  Cu22  1  0.50000000  0.32557900  0.78729500  1
  Cu  Cu23  1  0.50000000  0.67442100  0.21270500  1
  P  P0  1  0.00000000  0.37155200  0.38355900  1
  P  P1  1  0.00000000  0.62844800  0.61644100  1
  P  P2  1  0.50000000  0.12844800  0.88355900  1
  P  P3  1  0.50000000  0.87155200  0.11644100  1
  P  P4  1  0.00000000  0.55601400  0.16461900  1
  P  P5  1  0.00000000  0.44398600  0.83538100  1
  P  P6  1  0.50000000  0.94398600  0.66461900  1
  P  P7  1  0.50000000  0.05601400  0.33538100  1
  P  P8  1  0.00000000  0.20538500  0.13119100  1
  P  P9  1  0.00000000  0.79461500  0.86880900  1
  P  P10  1  0.50000000  0.29461500  0.63119100  1
  P  P11  1  0.50000000  0.70538500  0.36880900  1
loop_
_geom_bond_atom_site_label_1
_geom_bond_atom_site_label_2
_geom_bond_distance
_geom_bond_site_symmetry_2
Ce0 P6 2.883883 1_545
Ce0 P6 2.883883 1_445
Ce0 P2 3.001585 1_555
Ce0 P2 3.001585 1_455
Ce0 P10 3.038768 1_555
Ce0 P10 3.038768 1_455
Ce0 Cu22 3.069219 1_455
Ce0 Cu22 3.069219 1_555
Ce0 Cu17 3.084032 1_555
Ce0 Cu6 3.204995 1_555
Ce0 Cu6 3.204995 1_455
Ce0 Cu1 3.217940 1_545
Ce0 Cu12 3.225365 1_555
Ce0 Cu21 3.242792 1_545
Ce0 Cu10 3.279837 1_445
Ce0 Cu10 3.279837 1_545
Ce0 Cu9 3.381921 1_555
Ce1 P7 2.883883 1_465
Ce1 P7 2.883883 1_565
Ce1 P3 3.001585 1_555
Ce1 P3 3.001585 1_455
Ce1 P11 3.038768 1_455
Ce1 P11 3.038768 1_555
Ce1 Cu23 3.069219 1_455
Ce1 Cu23 3.069219 1_555
Ce1 Cu16 3.084032 1_555
Ce1 Cu7 3.204995 1_455
Ce1 Cu7 3.204995 1_555
Ce1 Cu0 3.217940 1_565
Ce1 Cu13 3.225365 1_555
Ce1 Cu20 3.242792 1_565
Ce1 Cu11 3.279837 1_565
Ce1 Cu11 3.279837 1_465
Ce1 Cu8 3.381921 1_555
Ce2 P4 2.883883 1_555
Ce2 P4 2.883883 1_655
Ce2 P0 3.001585 1_555
Ce2 P0 3.001585 1_655
Ce2 P8 3.038768 1_555
Ce2 P8 3.038768 1_655
Ce2 Cu20 3.069219 1_655
Ce2 Cu20 3.069219 1_555
Ce2 Cu19 3.084032 1_555
Ce2 Cu4 3.204995 1_655
Ce2 Cu4 3.204995 1_555
Ce2 Cu3 3.217940 1_555
Ce2 Cu14 3.225365 1_555
Ce2 Cu23 3.242792 1_555
Ce2 Cu8 3.279837 1_555
Ce2 Cu8 3.279837 1_655
Ce2 Cu11 3.381921 1_555
Ce3 P5 2.883883 1_655
Ce3 P5 2.883883 1_555
Ce3 P1 3.001585 1_555
Ce3 P1 3.001585 1_655
Ce3 P9 3.038768 1_555
Ce3 P9 3.038768 1_655
Ce3 Cu21 3.069219 1_555
Ce3 Cu21 3.069219 1_655
Ce3 Cu18 3.084032 1_555
Ce3 Cu5 3.204995 1_655
Ce3 Cu5 3.204995 1_555
Ce3 Cu2 3.217940 1_555
Ce3 Cu15 3.225365 1_555
Ce3 Cu22 3.242792 1_555
Ce3 Cu9 3.279837 1_655
Ce3 Cu9 3.279837 1_555
Ce3 Cu10 3.381921 1_555
Ce4 P3 2.932418 1_545
Ce4 P2 2.932418 1_454
Ce4 P2 2.932418 1_554
Ce4 P3 2.932418 1_445
Ce4 P9 2.958713 1_544
Ce4 P8 2.958713 1_555
Ce4 Cu17 3.087408 1_554
Ce4 Cu16 3.087408 1_545
Ce4 Cu14 3.241927 1_455
Ce4 Cu14 3.241927 1_555
Ce4 Cu15 3.241927 1_444
Ce4 Cu15 3.241927 1_544
Ce4 Cu10 3.267013 1_544
Ce4 Cu10 3.267013 1_444
Ce4 Cu11 3.267013 1_555
Ce4 Cu11 3.267013 1_455
Ce5 P0 2.932418 1_555
Ce5 P1 2.932418 1_655
Ce5 P1 2.932418 1_555
Ce5 P0 2.932418 1_655
Ce5 P10 2.958713 1_555
Ce5 P11 2.958713 1_555
Ce5 Cu19 3.087408 1_555
Ce5 Cu18 3.087408 1_555
Ce5 Cu13 3.241927 1_555
Ce5 Cu13 3.241927 1_655
Ce5 Cu12 3.241927 1_655
Ce5 Cu12 3.241927 1_555
Ce5 Cu9 3.267013 1_655
Ce5 Cu9 3.267013 1_555
Ce5 Cu8 3.267013 1_655
Ce5 Cu8 3.267013 1_555
Cu0 Cu1 2.391608 1_545
Cu0 P7 2.452082 1_455
Cu0 P7 2.452082 1_555
Cu0 Cu20 2.490672 1_555
Cu0 Cu12 2.562080 1_555
Cu0 Cu6 2.586460 1_455
Cu0 Cu6 2.586460 1_555
Cu0 Cu7 2.704828 1_445
Cu0 Cu7 2.704828 1_545
Cu0 Cu19 2.720203 1_455
Cu0 Cu19 2.720203 1_555
Cu1 P6 2.452082 1_555
Cu1 P6 2.452082 1_455
Cu1 Cu21 2.490672 1_555
Cu1 Cu13 2.562080 1_555
Cu1 Cu7 2.586460 1_555
Cu1 Cu7 2.586460 1_455
Cu1 Cu6 2.704828 1_565
Cu1 Cu6 2.704828 1_465
Cu1 Cu18 2.720203 1_555
Cu1 Cu18 2.720203 1_455
Cu2 Cu3 2.391608 1_556
Cu2 P5 2.452082 1_655
Cu2 P5 2.452082 1_555
Cu2 Cu22 2.490672 1_555
Cu2 Cu4 2.586460 1_556
Cu2 Cu4 2.586460 1_656
Cu2 Cu5 2.704828 1_555
Cu2 Cu5 2.704828 1_655
Cu3 P4 2.452082 1_655
Cu3 P4 2.452082 1_555
Cu3 Cu5 2.586460 1_654
Cu3 Cu5 2.586460 1_554
Cu3 Cu4 2.704828 1_555
Cu3 Cu4 2.704828 1_655
Cu4 P4 2.384797 1_555
Cu4 P8 2.386372 1_555
Cu5 P5 2.384797 1_555
Cu5 P9 2.386372 1_555
Cu6 P6 2.384797 1_545
Cu6 P10 2.386372 1_555
Cu7 P7 2.384797 1_565
Cu7 P11 2.386372 1_555
Cu8 P0 2.385531 1_555
Cu8 P11 2.441200 1_555
Cu8 P11 2.441200 1_455
Cu8 P4 2.446607 1_555
Cu9 P1 2.385531 1_555
Cu9 P10 2.441200 1_455
Cu9 P10 2.441200 1_555
Cu9 P5 2.446607 1_555
Cu10 P2 2.385531 1_565
Cu10 P9 2.441200 1_655
Cu10 P9 2.441200 1_555
Cu10 P6 2.446607 1_555
Cu10 Cu21 2.791245 1_655
Cu10 Cu21 2.791245 1_555
Cu11 P3 2.385531 1_545
Cu11 P8 2.441200 1_555
Cu11 P8 2.441200 1_655
Cu11 P7 2.446607 1_555
Cu11 Cu20 2.791245 1_655
Cu11 Cu20 2.791245 1_555
Cu12 P10 2.403952 1_455
Cu12 P10 2.403952 1_555
Cu12 P0 2.517129 1_555
Cu13 P11 2.403952 1_455
Cu13 P11 2.403952 1_555
Cu13 P1 2.517129 1_555
Cu14 P8 2.403952 1_555
Cu14 P8 2.403952 1_655
Cu14 P2 2.517129 1_554
Cu14 Cu2 2.562080 1_554
Cu15 P9 2.403952 1_555
Cu15 P9 2.403952 1_655
Cu15 P3 2.517129 1_556
Cu15 Cu3 2.562080 1_556
Cu16 P4 2.333474 1_555
Cu16 P3 2.411097 1_555
Cu16 P3 2.411097 1_455
Cu16 Cu3 2.720203 1_455
Cu16 Cu3 2.720203 1_555
Cu16 Cu23 2.757104 1_555
Cu16 Cu23 2.757104 1_455
Cu17 P5 2.333474 1_555
Cu17 P2 2.411097 1_455
Cu17 P2 2.411097 1_555
Cu17 Cu2 2.720203 1_555
Cu17 Cu2 2.720203 1_455
Cu17 Cu22 2.757104 1_455
Cu17 Cu22 2.757104 1_555
Cu18 P6 2.333474 1_555
Cu18 P1 2.411097 1_655
Cu18 P1 2.411097 1_555
Cu18 Cu21 2.757104 1_655
Cu18 Cu21 2.757104 1_555
Cu19 P7 2.333474 1_555
Cu19 P0 2.411097 1_555
Cu19 P0 2.411097 1_655
Cu19 Cu20 2.757104 1_655
Cu19 Cu20 2.757104 1_555
Cu20 P8 2.322161 1_555
Cu20 P7 2.422357 1_455
Cu20 P7 2.422357 1_555
Cu20 P0 2.576313 1_555
Cu21 P9 2.322161 1_555
Cu21 P6 2.422357 1_455
Cu21 P6 2.422357 1_555
Cu21 P1 2.576313 1_555
Cu22 P10 2.322161 1_555
Cu22 P5 2.422357 1_655
Cu22 P5 2.422357 1_555
Cu22 P2 2.576313 1_555
Cu22 Cu9 2.791245 1_555
Cu22 Cu9 2.791245 1_655
Cu23 P11 2.322161 1_555
Cu23 P4 2.422357 1_555
Cu23 P4 2.422357 1_655
Cu23 Cu3 2.490672 1_555
Cu23 P3 2.576313 1_555
Cu23 Cu8 2.791245 1_555
Cu23 Cu8 2.791245 1_655
