# generated using pymatgen
data_MnBi4S7
_symmetry_space_group_name_H-M   'P 1'
_cell_length_a   3.97293807
_cell_length_b   6.74945517
_cell_length_c   11.96022878
_cell_angle_alpha   104.04061943
_cell_angle_beta   90.00000000
_cell_angle_gamma   107.11648494
_symmetry_Int_Tables_number   1
_chemical_formula_structural   MnBi4S7
_chemical_formula_sum   'Mn1 Bi4 S7'
_cell_volume   296.47007760
_cell_formula_units_Z   1
loop_
 _symmetry_equiv_pos_site_id
 _symmetry_equiv_pos_as_xyz
  1  'x, y, z'
loop_
 _atom_site_type_symbol
 _atom_site_label
 _atom_site_symmetry_multiplicity
 _atom_site_fract_x
 _atom_site_fract_y
 _atom_site_fract_z
 _atom_site_occupancy
  Mn  Mn0  1  0.00000000  0.00000000  0.50000000  1
  Bi  Bi0  1  0.12008638  0.24017276  0.92504267  1
  Bi  Bi1  1  0.87991362  0.75982724  0.07495733  1
  Bi  Bi2  1  0.31843125  0.63686250  0.66001631  1
  Bi  Bi3  1  0.68156875  0.36313750  0.33998369  1
  S  S0  1  0.96774137  0.93548373  0.69534667  1
  S  S1  1  0.03225863  0.06451627  0.30465433  1
  S  S2  1  0.25666662  0.51333423  0.14093929  1
  S  S3  1  0.74333338  0.48666577  0.85906071  1
  S  S4  1  0.35172251  0.70344502  0.45225535  1
  S  S5  1  0.64827749  0.29655498  0.54774465  1
  S  S6  1  0.50000000  0.00000000  0.00000000  1
loop_
_geom_bond_atom_site_label_1
_geom_bond_atom_site_label_2
_geom_bond_distance
_geom_bond_site_symmetry_2
Mn0 S1 2.474976 1_555
Mn0 S0 2.474988 1_445
Mn0 S5 2.716036 1_455
Mn0 S4 2.716036 1_545
Mn0 S5 2.716036 1_555
Mn0 S4 2.716036 1_445
Bi0 S2 2.731734 1_556
Bi0 S3 2.781006 1_455
Bi0 S3 2.781009 1_555
Bi0 S6 2.802690 1_556
Bi0 S6 2.802691 1_456
Bi0 S0 2.944265 1_445
Bi1 S3 2.731734 1_554
Bi1 S2 2.781006 1_655
Bi1 S2 2.781009 1_555
Bi1 S6 2.802690 1_565
Bi1 S6 2.802691 1_665
Bi1 S1 2.944274 1_665
Bi2 S4 2.626951 1_555
Bi2 S0 2.724304 1_555
Bi2 S0 2.724306 1_455
Bi2 S5 3.011865 1_555
Bi2 S5 3.011866 1_455
Bi3 S5 2.626951 1_555
Bi3 S1 2.724304 1_555
Bi3 S1 2.724307 1_655
Bi3 S4 3.011865 1_555
Bi3 S4 3.011866 1_655
