# generated using pymatgen
data_SrLaCoO4
_symmetry_space_group_name_H-M   'P 1'
_cell_length_a   3.85762600
_cell_length_b   3.85763900
_cell_length_c   6.86610905
_cell_angle_alpha   73.68174101
_cell_angle_beta   73.68145755
_cell_angle_gamma   89.99943555
_symmetry_Int_Tables_number   1
_chemical_formula_structural   SrLaCoO4
_chemical_formula_sum   'Sr1 La1 Co1 O4'
_cell_volume   93.76402150
_cell_formula_units_Z   1
loop_
 _symmetry_equiv_pos_site_id
 _symmetry_equiv_pos_as_xyz
  1  'x, y, z'
loop_
 _atom_site_type_symbol
 _atom_site_label
 _atom_site_symmetry_multiplicity
 _atom_site_fract_x
 _atom_site_fract_y
 _atom_site_fract_z
 _atom_site_occupancy
  Sr  Sr0  1  0.35859100  0.35859000  0.28283000  1
  La  La0  1  0.64145900  0.64146100  0.71707800  1
  Co  Co0  1  0.99712600  0.99712700  0.00574000  1
  O  O0  1  0.50570300  0.00570600  0.98856200  1
  O  O1  1  0.00570700  0.50570300  0.98856300  1
  O  O2  1  0.16354000  0.16354000  0.67293700  1
  O  O3  1  0.82787400  0.82787400  0.34429100  1
loop_
_geom_bond_atom_site_label_1
_geom_bond_atom_site_label_2
_geom_bond_distance
_geom_bond_site_symmetry_2
La0 O3 2.348850 1_555
La0 O1 2.578002 1_555
La0 O0 2.578021 1_555
La0 O0 2.578088 1_565
La0 O1 2.578106 1_655
La0 O2 2.741883 1_565
La0 O2 2.741885 1_555
La0 O2 2.741891 1_655
La0 O2 2.741942 1_665
Co0 O0 1.931795 1_664
Co0 O1 1.931799 1_664
Co0 O0 1.931900 1_564
Co0 O1 1.931908 1_654
Co0 O2 2.096919 1_664
Co0 O3 2.133136 1_555
O0 Sr0 2.675339 1_546
O0 Sr0 2.675587 1_556
O1 Sr0 2.675323 1_456
O1 Sr0 2.675585 1_556
O2 Sr0 2.457980 1_555
O3 Sr0 2.755015 1_665
O3 Sr0 2.755095 1_565
O3 Sr0 2.755097 1_655
O3 Sr0 2.755230 1_555
