# generated using pymatgen
data_Te4MoW3(SeS)2
_symmetry_space_group_name_H-M   'P 1'
_cell_length_a   3.40220615
_cell_length_b   3.40220615
_cell_length_c   40.44924000
_cell_angle_alpha   90.00000000
_cell_angle_beta   90.00000000
_cell_angle_gamma   120.00000295
_symmetry_Int_Tables_number   1
_chemical_formula_structural   Te4MoW3(SeS)2
_chemical_formula_sum   'Te4 Mo1 W3 Se2 S2'
_cell_volume   405.47327594
_cell_formula_units_Z   1
loop_
 _symmetry_equiv_pos_site_id
 _symmetry_equiv_pos_as_xyz
  1  'x, y, z'
loop_
 _atom_site_type_symbol
 _atom_site_label
 _atom_site_symmetry_multiplicity
 _atom_site_fract_x
 _atom_site_fract_y
 _atom_site_fract_z
 _atom_site_occupancy
  Te  Te0  1  0.00000000  0.00000000  0.70599100  1
  Te  Te1  1  0.33333300  0.66666700  0.42167000  1
  Te  Te2  1  0.33333300  0.66666700  0.51482200  1
  Te  Te3  1  0.00000000  0.00000000  0.61289700  1
  Mo  Mo0  1  0.00000000  0.00000000  0.09413800  1
  W  W0  1  0.00000000  0.00000000  0.46824800  1
  W  W1  1  0.33333300  0.66666700  0.28108400  1
  W  W2  1  0.33333300  0.66666700  0.65947400  1
  Se  Se0  1  0.00000000  0.00000000  0.32191400  1
  Se  Se1  1  0.00000000  0.00000000  0.24024800  1
  S  S0  1  0.33333300  0.66666700  0.05702100  1
  S  S1  1  0.33333300  0.66666700  0.13124000  1
loop_
_geom_bond_atom_site_label_1
_geom_bond_atom_site_label_2
_geom_bond_distance
_geom_bond_site_symmetry_2
Te0 W2 2.720048 1_545
Te0 W2 2.720050 1_555
Te0 W2 2.720050 1_445
Te1 W0 2.721755 1_565
Te1 W0 2.721757 1_555
Te1 W0 2.721757 1_665
Te2 W0 2.721643 1_565
Te2 W0 2.721645 1_665
Te2 W0 2.721645 1_555
Te3 W2 2.721727 1_545
Te3 W2 2.721729 1_555
Te3 W2 2.721729 1_445
Mo0 S1 2.471957 1_545
Mo0 S1 2.471959 1_555
Mo0 S1 2.471959 1_445
Mo0 S0 2.472325 1_545
Mo0 S0 2.472328 1_555
Mo0 S0 2.472328 1_445
Se0 W1 2.566305 1_545
Se0 W1 2.566307 1_445
Se0 W1 2.566307 1_555
Se1 W1 2.566461 1_545
Se1 W1 2.566463 1_445
Se1 W1 2.566463 1_555
