# generated using pymatgen
data_Cd3H8(SO4)3
_symmetry_space_group_name_H-M   'P 1'
_cell_length_a   9.66085864
_cell_length_b   9.66085864
_cell_length_c   9.74717550
_cell_angle_alpha   83.42125687
_cell_angle_beta   83.42125687
_cell_angle_gamma   82.05645749
_symmetry_Int_Tables_number   1
_chemical_formula_structural   Cd3H8(SO4)3
_chemical_formula_sum   'Cd6 H16 S6 O24'
_cell_volume   890.54504998
_cell_formula_units_Z   2
loop_
 _symmetry_equiv_pos_site_id
 _symmetry_equiv_pos_as_xyz
  1  'x, y, z'
loop_
 _atom_site_type_symbol
 _atom_site_label
 _atom_site_symmetry_multiplicity
 _atom_site_fract_x
 _atom_site_fract_y
 _atom_site_fract_z
 _atom_site_occupancy
  Cd  Cd0  1  0.46285000  0.24751600  0.03213200  1
  Cd  Cd1  1  0.53715000  0.75248400  0.96786800  1
  Cd  Cd2  1  0.75248400  0.53715000  0.46786800  1
  Cd  Cd3  1  0.24751600  0.46285000  0.53213200  1
  Cd  Cd4  1  0.03514400  0.96485600  0.25000000  1
  Cd  Cd5  1  0.96485600  0.03514400  0.75000000  1
  H  H0  1  0.60521000  0.80970300  0.40800400  1
  H  H1  1  0.39479000  0.19029700  0.59199600  1
  H  H2  1  0.19029700  0.39479000  0.09199600  1
  H  H3  1  0.80970300  0.60521000  0.90800400  1
  H  H4  1  0.65528000  0.13108900  0.40705600  1
  H  H5  1  0.34472000  0.86891100  0.59294400  1
  H  H6  1  0.86891100  0.34472000  0.09294400  1
  H  H7  1  0.13108900  0.65528000  0.90705600  1
  H  H8  1  0.37716400  0.19206600  0.20555900  1
  H  H9  1  0.62283600  0.80793400  0.79444100  1
  H  H10  1  0.80793400  0.62283600  0.29444100  1
  H  H11  1  0.19206600  0.37716400  0.70555900  1
  H  H12  1  0.25971700  0.90852000  0.30233400  1
  H  H13  1  0.74028300  0.09148000  0.69766600  1
  H  H14  1  0.09148000  0.74028300  0.19766600  1
  H  H15  1  0.90852000  0.25971700  0.80233400  1
  S  S0  1  0.49852500  0.50147500  0.25000000  1
  S  S1  1  0.50147500  0.49852500  0.75000000  1
  S  S2  1  0.75035600  0.98940800  0.04618800  1
  S  S3  1  0.24964400  0.01059200  0.95381200  1
  S  S4  1  0.01059200  0.24964400  0.45381200  1
  S  S5  1  0.98940800  0.75035600  0.54618800  1
  O  O0  1  0.51414200  0.64688300  0.18954300  1
  O  O1  1  0.48585800  0.35311700  0.81045700  1
  O  O2  1  0.35311700  0.48585800  0.31045700  1
  O  O3  1  0.64688300  0.51414200  0.68954300  1
  O  O4  1  0.54279200  0.40693300  0.13628500  1
  O  O5  1  0.45720800  0.59306700  0.86371500  1
  O  O6  1  0.59306700  0.45720800  0.36371500  1
  O  O7  1  0.40693300  0.54279200  0.63628500  1
  O  O8  1  0.64403100  0.88749300  0.07918200  1
  O  O9  1  0.35596900  0.11250700  0.92081800  1
  O  O10  1  0.11250700  0.35596900  0.42081800  1
  O  O11  1  0.88749300  0.64403100  0.57918200  1
  O  O12  1  0.14197700  0.06430100  0.06522900  1
  O  O13  1  0.85802300  0.93569900  0.93477100  1
  O  O14  1  0.93569900  0.85802300  0.43477100  1
  O  O15  1  0.06430100  0.14197700  0.56522900  1
  O  O16  1  0.68288000  0.13076600  0.99623100  1
  O  O17  1  0.31712000  0.86923400  0.00376900  1
  O  O18  1  0.86923400  0.31712000  0.50376900  1
  O  O19  1  0.13076600  0.68288000  0.49623100  1
  O  O20  1  0.81608500  0.99234000  0.17496300  1
  O  O21  1  0.18391500  0.00766000  0.82503700  1
  O  O22  1  0.00766000  0.18391500  0.32503700  1
  O  O23  1  0.99234000  0.81608500  0.67496300  1
loop_
_geom_bond_atom_site_label_1
_geom_bond_atom_site_label_2
_geom_bond_distance
_geom_bond_site_symmetry_2
Cd0 H8 1.850455 1_555
Cd0 O4 2.205828 1_555
Cd0 O9 2.213103 1_554
Cd0 O16 2.273864 1_554
Cd0 O1 2.281750 1_554
Cd1 H9 1.850455 1_555
Cd1 O5 2.205828 1_555
Cd1 O8 2.213103 1_556
Cd1 O17 2.273864 1_556
Cd1 O0 2.281750 1_556
Cd2 H10 1.850455 1_555
Cd2 O6 2.205828 1_555
Cd2 O11 2.213103 1_555
Cd2 O18 2.273864 1_555
Cd2 O3 2.281750 1_555
Cd3 H11 1.850455 1_555
Cd3 O7 2.205828 1_555
Cd3 O10 2.213103 1_555
Cd3 O19 2.273864 1_555
Cd3 O2 2.281750 1_555
Cd4 O12 2.164134 1_565
Cd4 O14 2.164134 1_455
Cd4 H12 2.264301 1_555
Cd4 H14 2.264301 1_555
Cd4 O22 2.288892 1_565
Cd4 O20 2.288892 1_455
Cd5 O15 2.164134 1_655
Cd5 O13 2.164134 1_545
Cd5 H15 2.264301 1_555
Cd5 H13 2.264301 1_555
Cd5 O21 2.288892 1_655
Cd5 O23 2.288892 1_545
O0 S0 1.480511 1_555
O1 S1 1.480511 1_555
O2 S0 1.480511 1_555
O3 S1 1.480511 1_555
O4 S0 1.503681 1_555
O5 S1 1.503681 1_555
O6 S0 1.503681 1_555
O7 S1 1.503681 1_555
O8 S2 1.503078 1_555
O9 S3 1.503078 1_555
O10 S4 1.503078 1_555
O11 S5 1.503078 1_555
O12 S3 1.500554 1_554
O13 S2 1.500554 1_556
O14 S5 1.500554 1_555
O15 S4 1.500554 1_555
O16 S2 1.483688 1_546
O17 S3 1.483688 1_564
O18 S4 1.483688 1_655
O19 S5 1.483688 1_455
O20 S2 1.474885 1_555
O21 S3 1.474885 1_555
O22 S4 1.474885 1_555
O23 S5 1.474885 1_555
