# generated using pymatgen
data_Zr2N2O
_symmetry_space_group_name_H-M   'P 1'
_cell_length_a   8.86589400
_cell_length_b   8.87085939
_cell_length_c   8.87714709
_cell_angle_alpha   109.59068963
_cell_angle_beta   109.27898708
_cell_angle_gamma   109.40271378
_symmetry_Int_Tables_number   1
_chemical_formula_structural   Zr2N2O
_chemical_formula_sum   'Zr16 N16 O8'
_cell_volume   538.38405387
_cell_formula_units_Z   8
loop_
 _symmetry_equiv_pos_site_id
 _symmetry_equiv_pos_as_xyz
  1  'x, y, z'
loop_
 _atom_site_type_symbol
 _atom_site_label
 _atom_site_symmetry_multiplicity
 _atom_site_fract_x
 _atom_site_fract_y
 _atom_site_fract_z
 _atom_site_occupancy
  Zr  Zr0  1  0.23935800  0.78449800  0.96750800  1
  Zr  Zr1  1  0.46811200  0.25453600  0.77594300  1
  Zr  Zr2  1  0.00129100  0.00723700  0.98892100  1
  Zr  Zr3  1  0.97379500  0.24952900  0.27974900  1
  Zr  Zr4  1  0.50038300  0.99940500  0.50295300  1
  Zr  Zr5  1  0.49751800  0.49778900  0.99130600  1
  Zr  Zr6  1  0.74800500  0.71716400  0.54208800  1
  Zr  Zr7  1  0.28115300  0.03108500  0.26647700  1
  Zr  Zr8  1  0.71426700  0.96570500  0.74661100  1
  Zr  Zr9  1  0.79332000  0.53458500  0.25105600  1
  Zr  Zr10  1  0.21256600  0.45846200  0.74701700  1
  Zr  Zr11  1  0.25393300  0.28854000  0.46103800  1
  Zr  Zr12  1  0.00151100  0.51078200  0.49952500  1
  Zr  Zr13  1  0.53382600  0.75664900  0.21631100  1
  Zr  Zr14  1  0.02835300  0.74971900  0.71553600  1
  Zr  Zr15  1  0.75917200  0.21252800  0.02822400  1
  N  N0  1  0.99224800  0.76274800  0.96928100  1
  N  N1  1  0.04751300  0.53118800  0.22635100  1
  N  N2  1  0.74247400  0.97017100  0.48272600  1
  N  N3  1  0.50713500  0.03732900  0.73381300  1
  N  N4  1  0.23090000  0.26378600  0.22942800  1
  N  N5  1  0.49265700  0.95753400  0.27107200  1
  N  N6  1  0.72561900  0.45526600  0.53182700  1
  N  N7  1  0.76858300  0.73596400  0.77630100  1
  N  N8  1  0.23839500  0.22418600  0.72946400  1
  N  N9  1  0.26330000  0.03320700  0.51471300  1
  N  N10  1  0.03483000  0.77472600  0.45058500  1
  N  N11  1  0.46132800  0.51136300  0.76756700  1
  N  N12  1  0.77567200  0.01148600  0.95104100  1
  N  N13  1  0.95228700  0.46710100  0.77265400  1
  N  N14  1  0.27374500  0.54254700  0.46374700  1
  N  N15  1  0.00554500  0.23456000  0.03737400  1
  O  O0  1  0.72029900  0.27446400  0.26444200  1
  O  O1  1  0.45393100  0.72315200  0.01592000  1
  O  O2  1  0.75432700  0.76790700  0.27299300  1
  O  O3  1  0.53922800  0.48973400  0.23507400  1
  O  O4  1  0.96671500  0.22372200  0.54875600  1
  O  O5  1  0.22869900  0.98933700  0.04724600  1
  O  O6  1  0.27493200  0.72709700  0.73883000  1
  O  O7  1  0.54307000  0.27321100  0.98853300  1
loop_
_geom_bond_atom_site_label_1
_geom_bond_atom_site_label_2
_geom_bond_distance
_geom_bond_site_symmetry_2
Zr0 Zr14 2.233543 1_555
Zr11 Zr3 2.300956 1_455
Zr12 Zr14 2.205497 1_555
Zr12 Zr3 2.347482 1_455
Zr14 Zr6 2.308637 1_455
Zr15 Zr3 2.236513 1_555
N0 N7 2.023424 1_555
N0 O5 2.055067 1_656
N0 Zr2 2.088613 1_665
N0 Zr0 2.140387 1_655
N0 Zr14 2.348585 1_655
N0 Zr7 2.542182 1_666
N1 Zr9 2.344140 1_455
N1 Zr15 2.552438 1_455
N1 Zr3 2.609306 1_455
N1 Zr12 2.641624 1_555
N2 Zr13 2.093318 1_555
N2 Zr4 2.302045 1_555
N2 Zr8 2.448290 1_555
N2 Zr6 2.483257 1_555
N3 Zr4 1.939066 1_545
N3 Zr1 2.004318 1_555
N3 Zr8 2.115389 1_545
N3 Zr15 2.313324 1_556
N4 Zr11 1.925461 1_555
N4 Zr2 2.162219 1_554
N4 Zr7 2.353170 1_555
N4 Zr3 2.435208 1_455
N5 Zr13 1.874445 1_555
N5 Zr4 1.938326 1_555
N5 Zr7 2.173446 1_565
N5 Zr0 2.366623 1_554
N6 Zr6 2.232715 1_555
N6 Zr12 2.462787 1_655
N6 Zr14 2.506246 1_655
N7 Zr6 1.969953 1_555
N7 Zr2 2.166567 1_665
N7 Zr8 2.320187 1_555
N7 Zr14 2.507565 1_655
N8 Zr1 1.843082 1_555
N8 Zr10 2.125643 1_555
N8 Zr5 2.357416 1_555
N9 Zr1 2.080189 1_555
N9 Zr4 2.249819 1_545
N9 Zr7 2.255187 1_555
N9 Zr11 2.487337 1_555
N10 Zr9 2.048115 1_455
N10 Zr14 2.452563 1_555
N10 Zr12 2.462834 1_555
N11 Zr5 1.956407 1_555
N11 Zr10 2.026567 1_555
N11 Zr11 2.316639 1_555
N11 Zr1 2.324087 1_555
N12 Zr8 1.568798 1_545
N12 Zr15 1.758272 1_556
N12 Zr2 1.931367 1_655
N12 Zr3 2.465372 1_556
N13 Zr10 2.415638 1_655
N13 Zr0 2.542243 1_655
N13 Zr14 2.636699 1_655
N13 Zr12 2.726852 1_655
N14 Zr11 2.192378 1_555
N14 Zr12 2.473877 1_555
N14 Zr3 2.487623 1_455
N15 Zr2 1.900002 1_554
N15 N4 2.018880 1_555
N15 Zr15 2.098711 1_455
N15 Zr3 2.226977 1_455
O0 Zr15 2.155979 1_555
O0 Zr9 2.236050 1_555
O0 Zr12 2.263549 1_655
O0 Zr3 2.295060 1_555
O1 Zr13 1.558249 1_555
O1 Zr0 2.098737 1_554
O1 Zr5 2.114202 1_554
O1 Zr10 2.306623 1_554
O2 Zr13 1.808859 1_555
O2 Zr9 2.165859 1_555
O2 Zr5 2.403341 1_554
O2 Zr6 2.589370 1_555
O3 Zr9 2.099740 1_555
O3 Zr5 2.101767 1_554
O3 Zr6 2.329093 1_555
O3 Zr13 2.443542 1_555
O4 Zr10 2.044069 1_655
O4 Zr3 2.492991 1_555
O5 Zr7 1.716249 1_565
O5 Zr0 1.762823 1_554
O5 Zr2 1.984130 1_564
O5 Zr14 2.486850 1_554
O6 Zr0 2.077498 1_555
O6 Zr12 2.201508 1_555
O6 Zr14 2.209763 1_555
O6 Zr10 2.292822 1_555
O7 Zr1 1.708688 1_555
O7 Zr15 2.109837 1_556
O7 Zr5 2.154254 1_555
O7 Zr9 2.296480 1_556
