# generated using pymatgen
data_Ca(CoN)2
_symmetry_space_group_name_H-M   'P 1'
_cell_length_a   3.46138200
_cell_length_b   3.46138200
_cell_length_c   6.04848500
_cell_angle_alpha   90.00000000
_cell_angle_beta   90.00000000
_cell_angle_gamma   90.00000000
_symmetry_Int_Tables_number   1
_chemical_formula_structural   Ca(CoN)2
_chemical_formula_sum   'Ca1 Co2 N2'
_cell_volume   72.46789890
_cell_formula_units_Z   1
loop_
 _symmetry_equiv_pos_site_id
 _symmetry_equiv_pos_as_xyz
  1  'x, y, z'
loop_
 _atom_site_type_symbol
 _atom_site_label
 _atom_site_symmetry_multiplicity
 _atom_site_fract_x
 _atom_site_fract_y
 _atom_site_fract_z
 _atom_site_occupancy
  Ca  Ca0  1  0.00000000  0.00000000  0.00000000  1
  Co  Co0  1  0.50000000  0.50000000  0.69946900  1
  Co  Co1  1  0.50000000  0.50000000  0.30053100  1
  N  N0  1  0.50000000  0.00000000  0.28306700  1
  N  N1  1  0.00000000  0.50000000  0.71693300  1
loop_
_geom_bond_atom_site_label_1
_geom_bond_atom_site_label_2
_geom_bond_distance
_geom_bond_site_symmetry_2
Ca0 N1 2.434475 1_544
Ca0 N1 2.434475 1_554
Ca0 N0 2.434475 1_555
Ca0 N0 2.434475 1_455
Co0 N1 1.733912 1_555
Co0 N1 1.733912 1_655
Co1 N0 1.733912 1_565
Co1 N0 1.733912 1_555
