# generated using pymatgen
data_Eu2SiN3
_symmetry_space_group_name_H-M   'P 1'
_cell_length_a   5.96377444
_cell_length_b   5.96377444
_cell_length_c   11.67764975
_cell_angle_alpha   90.00000000
_cell_angle_beta   90.00000000
_cell_angle_gamma   125.89265134
_symmetry_Int_Tables_number   1
_chemical_formula_structural   Eu2SiN3
_chemical_formula_sum   'Eu8 Si4 N12'
_cell_volume   336.46936213
_cell_formula_units_Z   4
loop_
 _symmetry_equiv_pos_site_id
 _symmetry_equiv_pos_as_xyz
  1  'x, y, z'
loop_
 _atom_site_type_symbol
 _atom_site_label
 _atom_site_symmetry_multiplicity
 _atom_site_fract_x
 _atom_site_fract_y
 _atom_site_fract_z
 _atom_site_occupancy
  Eu  Eu0  1  0.05197000  0.94803000  0.85601313  1
  Eu  Eu1  1  0.94803000  0.05197000  0.14398687  1
  Eu  Eu2  1  0.44803000  0.55197000  0.35601313  1
  Eu  Eu3  1  0.55197000  0.44803000  0.64398687  1
  Eu  Eu4  1  0.64069829  0.35930171  0.07538856  1
  Eu  Eu5  1  0.35930171  0.64069829  0.92461144  1
  Eu  Eu6  1  0.85930171  0.14069829  0.57538856  1
  Eu  Eu7  1  0.14069829  0.85930171  0.42461144  1
  Si  Si0  1  0.74347502  0.25652498  0.83492020  1
  Si  Si1  1  0.25652498  0.74347502  0.16507980  1
  Si  Si2  1  0.75652498  0.24347502  0.33492020  1
  Si  Si3  1  0.24347502  0.75652498  0.66507980  1
  N  N0  1  0.58166425  0.41833575  0.86625046  1
  N  N1  1  0.41833575  0.58166425  0.13374954  1
  N  N2  1  0.91833575  0.08166425  0.36625046  1
  N  N3  1  0.08166425  0.91833575  0.63374954  1
  N  N4  1  0.53041011  0.96958989  0.75000000  1
  N  N5  1  0.96958989  0.53041011  0.25000000  1
  N  N6  1  0.46958989  0.03041011  0.25000000  1
  N  N7  1  0.03041011  0.46958989  0.75000000  1
  N  N8  1  0.84167255  0.15832745  0.95444132  1
  N  N9  1  0.15832745  0.84167255  0.04555868  1
  N  N10  1  0.65832745  0.34167255  0.45444132  1
  N  N11  1  0.34167255  0.65832745  0.54555868  1
loop_
_geom_bond_atom_site_label_1
_geom_bond_atom_site_label_2
_geom_bond_distance
_geom_bond_site_symmetry_2
Eu0 N9 2.485104 1_556
Eu0 N8 2.512237 1_465
Eu0 N3 2.614612 1_555
Eu0 N0 2.733368 1_565
Eu0 N0 2.733368 1_455
Eu1 N8 2.485104 1_554
Eu1 N9 2.512237 1_645
Eu1 N2 2.614612 1_555
Eu1 N1 2.733368 1_655
Eu1 N1 2.733368 1_545
Eu2 N11 2.485104 1_555
Eu2 N10 2.512237 1_555
Eu2 N1 2.614612 1_555
Eu2 N2 2.733368 1_455
Eu2 N2 2.733368 1_565
Eu3 N10 2.485104 1_555
Eu3 N11 2.512237 1_555
Eu3 N0 2.614612 1_555
Eu3 N3 2.733368 1_545
Eu3 N3 2.733368 1_655
Eu4 N1 2.458388 1_555
Eu4 N0 2.521464 1_554
Eu4 N8 2.559756 1_554
Eu4 N5 2.588318 1_555
Eu4 N6 2.588318 1_555
Eu4 N9 2.741154 1_545
Eu4 N9 2.741154 1_655
Eu5 N0 2.458388 1_555
Eu5 N1 2.521464 1_556
Eu5 N9 2.559756 1_556
Eu5 N4 2.588318 1_555
Eu5 N7 2.588318 1_555
Eu5 N8 2.741154 1_455
Eu5 N8 2.741154 1_565
Eu6 N3 2.458388 1_645
Eu6 N2 2.521464 1_555
Eu6 N10 2.559756 1_555
Eu6 N4 2.588318 1_545
Eu6 N7 2.588318 1_655
Eu6 N11 2.741154 1_655
Eu6 N11 2.741154 1_545
Eu7 N2 2.458388 1_465
Eu7 N3 2.521464 1_555
Eu7 N11 2.559756 1_555
Eu7 N6 2.588318 1_565
Eu7 N5 2.588318 1_455
Eu7 N10 2.741154 1_565
Eu7 N10 2.741154 1_455
N0 Si0 1.757333 1_555
N1 Si1 1.757333 1_555
N2 Si2 1.757333 1_555
N3 Si3 1.757333 1_555
N4 Si0 1.725316 1_565
N4 Si3 1.725316 1_555
N5 Si2 1.725316 1_555
N5 Si1 1.725316 1_655
N6 Si1 1.725316 1_545
N6 Si2 1.725316 1_555
N7 Si0 1.725316 1_455
N7 Si3 1.725316 1_555
N8 Si0 1.742442 1_555
N9 Si1 1.742442 1_555
N10 Si2 1.742442 1_555
N11 Si3 1.742442 1_555
