# generated using pymatgen
data_Ba2MgMn2(P2O7)2
_symmetry_space_group_name_H-M   'P 1'
_cell_length_a   5.58675164
_cell_length_b   8.83293748
_cell_length_c   7.65604877
_cell_angle_alpha   109.72061475
_cell_angle_beta   91.89222256
_cell_angle_gamma   91.03466312
_symmetry_Int_Tables_number   1
_chemical_formula_structural   Ba2MgMn2(P2O7)2
_chemical_formula_sum   'Ba2 Mg1 Mn2 P4 O14'
_cell_volume   355.28251304
_cell_formula_units_Z   1
loop_
 _symmetry_equiv_pos_site_id
 _symmetry_equiv_pos_as_xyz
  1  'x, y, z'
loop_
 _atom_site_type_symbol
 _atom_site_label
 _atom_site_symmetry_multiplicity
 _atom_site_fract_x
 _atom_site_fract_y
 _atom_site_fract_z
 _atom_site_occupancy
  Ba  Ba0  1  0.22100200  0.79008700  0.96445000  1
  Ba  Ba1  1  0.80470700  0.24728400  0.02893400  1
  Mg  Mg0  1  0.77986600  0.07539500  0.40134200  1
  Mn  Mn0  1  0.19851700  0.59689800  0.41131400  1
  Mn  Mn1  1  0.80723200  0.40746500  0.61810200  1
  P  P0  1  0.69246000  0.70221300  0.23089100  1
  P  P1  1  0.31170900  0.31715100  0.77296900  1
  P  P2  1  0.72080200  0.79524400  0.63834900  1
  P  P3  1  0.28140600  0.18579700  0.33756800  1
  O  O0  1  0.50351900  0.10175900  0.23907400  1
  O  O1  1  0.46726100  0.72184400  0.63129800  1
  O  O2  1  0.77710800  0.94838300  0.79681700  1
  O  O3  1  0.06779800  0.06702600  0.24805800  1
  O  O4  1  0.24362300  0.35182500  0.32410800  1
  O  O5  1  0.91803000  0.66922600  0.62313500  1
  O  O6  1  0.73923300  0.84319300  0.44475500  1
  O  O7  1  0.31092500  0.19484600  0.55221000  1
  O  O8  1  0.12055900  0.44512000  0.79284400  1
  O  O9  1  0.87228900  0.57274800  0.22759100  1
  O  O10  1  0.56089200  0.40217000  0.81867800  1
  O  O11  1  0.42575300  0.65283700  0.22151400  1
  O  O12  1  0.26781800  0.20520000  0.88181400  1
  O  O13  1  0.74499300  0.79557600  0.10251900  1
loop_
_geom_bond_atom_site_label_1
_geom_bond_atom_site_label_2
_geom_bond_distance
_geom_bond_site_symmetry_2
Ba0 O1 2.825940 1_555
Ba0 O3 2.836344 1_566
Ba0 O11 2.857136 1_556
Ba0 O13 2.889214 1_456
Ba0 O8 2.917794 1_555
Ba0 O5 2.931397 1_455
Ba0 O13 3.073334 1_556
Ba0 O0 3.195054 1_566
Ba0 O2 3.298220 1_455
Ba1 O2 2.636891 1_544
Ba1 O9 2.773513 1_555
Ba1 O10 2.779761 1_554
Ba1 O12 2.836465 1_654
Ba1 O0 2.927170 1_555
Ba1 O3 3.038793 1_655
Ba1 O12 3.139699 1_554
Ba1 O4 3.180647 1_655
Ba1 O8 3.415471 1_654
Mg0 O3 2.010151 1_655
Mg0 O0 2.015627 1_555
Mg0 O6 2.194752 1_545
Mn0 O4 2.061720 1_555
Mn0 O11 2.133325 1_555
Mn0 O1 2.197168 1_555
Mn0 O9 2.227079 1_455
Mn0 O5 2.235710 1_455
Mn1 O10 2.107146 1_555
Mn1 O8 2.118638 1_655
Mn1 O5 2.370053 1_555
O0 P3 1.541672 1_555
O1 P2 1.538769 1_555
O2 P2 1.500836 1_555
O3 P3 1.552406 1_555
O4 P3 1.522358 1_555
O5 P2 1.559472 1_555
O6 P2 1.678970 1_555
O6 P0 1.698198 1_555
O7 P3 1.620813 1_555
O7 P1 1.670564 1_555
O8 P1 1.542564 1_555
O9 P0 1.530154 1_555
O10 P1 1.541798 1_555
O11 P0 1.537492 1_555
O12 P1 1.514346 1_555
O13 P0 1.513092 1_555
