# generated using pymatgen
data_TiSiOs
_symmetry_space_group_name_H-M   'P 1'
_cell_length_a   7.36708792
_cell_length_b   7.36708792
_cell_length_c   7.36708792
_cell_angle_alpha   127.86952499
_cell_angle_beta   122.41266631
_cell_angle_gamma   81.38009453
_symmetry_Int_Tables_number   1
_chemical_formula_structural   TiSiOs
_chemical_formula_sum   'Ti6 Si6 Os6'
_cell_volume   256.65554713
_cell_formula_units_Z   6
loop_
 _symmetry_equiv_pos_site_id
 _symmetry_equiv_pos_as_xyz
  1  'x, y, z'
loop_
 _atom_site_type_symbol
 _atom_site_label
 _atom_site_symmetry_multiplicity
 _atom_site_fract_x
 _atom_site_fract_y
 _atom_site_fract_z
 _atom_site_occupancy
  Ti  Ti0  1  0.44609055  0.40197037  0.45587981  1
  Ti  Ti1  1  0.55390945  0.00978926  0.95587981  1
  Ti  Ti2  1  0.02616111  0.00710232  0.48094221  1
  Ti  Ti3  1  0.97383889  0.45478110  0.98094221  1
  Ti  Ti4  1  0.24651972  0.57969592  0.83317520  1
  Ti  Ti5  1  0.75348028  0.58665548  0.33317520  1
  Si  Si0  1  0.21812329  0.96101857  0.24289628  1
  Si  Si1  1  0.78187671  0.02477300  0.74289628  1
  Si  Si2  1  0.17438484  0.67193110  0.51169966  1
  Si  Si3  1  0.82561516  0.33731482  0.49754626  1
  Si  Si4  1  0.66023044  0.67193110  0.99754626  1
  Si  Si5  1  0.33976956  0.33731482  0.01169966  1
  Os  Os0  1  0.00000000  0.25518524  0.25518524  1
  Os  Os1  1  0.50000000  0.25518524  0.75518524  1
  Os  Os2  1  0.40843020  0.74880146  0.41130307  1
  Os  Os3  1  0.59156980  0.00287287  0.34037226  1
  Os  Os4  1  0.83749839  0.74880146  0.84037226  1
  Os  Os5  1  0.16250161  0.00287287  0.91130307  1
loop_
_geom_bond_atom_site_label_1
_geom_bond_atom_site_label_2
_geom_bond_distance
_geom_bond_site_symmetry_2
Si0 Ti2 2.640936 1_565
Si0 Ti4 2.671479 1_554
Si0 Ti0 2.896199 1_565
Si1 Ti3 2.640936 1_555
Si1 Ti5 2.671484 1_545
Si1 Ti1 2.896193 1_555
Si2 Ti0 2.610794 1_555
Si2 Ti3 2.620463 1_454
Si2 Ti4 2.621347 1_555
Si2 Ti5 2.633855 1_455
Si2 Ti2 2.637102 1_565
Si2 Ti1 2.645542 1_565
Si3 Ti1 2.610794 1_554
Si3 Ti2 2.620469 1_655
Si3 Ti5 2.621353 1_555
Si3 Ti4 2.633857 1_655
Si3 Ti3 2.637109 1_555
Si3 Ti0 2.645542 1_555
Si4 Ti0 2.610795 1_555
Si4 Ti3 2.620469 1_555
Si4 Ti4 2.621345 1_555
Si4 Ti5 2.633853 1_556
Si4 Ti2 2.637110 1_666
Si4 Ti1 2.645541 1_565
Si5 Ti1 2.610790 1_554
Si5 Ti2 2.620466 1_554
Si5 Ti5 2.621347 1_555
Si5 Ti4 2.633862 1_554
Si5 Ti3 2.637115 1_454
Si5 Ti0 2.645544 1_555
Os0 Si2 2.470681 1_555
Os0 Si3 2.470681 1_455
Os0 Si1 2.481559 1_454
Os0 Si0 2.481564 1_545
Os0 Ti5 2.767368 1_455
Os0 Ti4 2.767368 1_555
Os0 Ti1 2.837093 1_454
Os0 Ti0 2.837093 1_555
Os1 Si5 2.470675 1_556
Os1 Si4 2.470679 1_555
Os1 Si1 2.481558 1_555
Os1 Si0 2.481559 1_545
Os1 Ti5 2.767368 1_556
Os1 Ti4 2.767373 1_555
Os1 Ti1 2.837093 1_555
Os1 Ti0 2.837093 1_555
Os2 Si0 2.410151 1_555
Os2 Si2 2.452517 1_555
Os2 Si5 2.453325 1_555
Os2 Si1 2.458536 1_565
Os2 Ti0 2.726455 1_555
Os2 Ti1 2.734751 1_565
Os2 Ti3 2.785671 1_454
Os2 Ti5 2.834468 1_555
Os3 Si1 2.410150 1_555
Os3 Si3 2.452520 1_555
Os3 Si4 2.453322 1_544
Os3 Si0 2.458534 1_545
Os3 Ti1 2.726463 1_554
Os3 Ti0 2.734752 1_555
Os3 Ti2 2.785673 1_655
Os3 Ti4 2.834466 1_544
Os4 Si0 2.410155 1_656
Os4 Si4 2.452516 1_555
Os4 Si3 2.453325 1_555
Os4 Si1 2.458541 1_565
Os4 Ti0 2.726455 1_555
Os4 Ti1 2.734748 1_565
Os4 Ti3 2.785666 1_555
Os4 Ti5 2.834475 1_555
Os5 Si1 2.410157 1_455
Os5 Si5 2.452520 1_556
Os5 Si2 2.453323 1_545
Os5 Si0 2.458541 1_546
Os5 Ti1 2.726456 1_555
Os5 Ti0 2.734751 1_556
Os5 Ti2 2.785666 1_555
Os5 Ti4 2.834461 1_545
