# generated using pymatgen
data_GaFe2
_symmetry_space_group_name_H-M   'P 1'
_cell_length_a   12.62985433
_cell_length_b   12.27499415
_cell_length_c   5.19885599
_cell_angle_alpha   81.80618210
_cell_angle_beta   74.15031209
_cell_angle_gamma   24.04350581
_symmetry_Int_Tables_number   1
_chemical_formula_structural   GaFe2
_chemical_formula_sum   'Ga8 Fe16'
_cell_volume   303.92234674
_cell_formula_units_Z   8
loop_
 _symmetry_equiv_pos_site_id
 _symmetry_equiv_pos_as_xyz
  1  'x, y, z'
loop_
 _atom_site_type_symbol
 _atom_site_label
 _atom_site_symmetry_multiplicity
 _atom_site_fract_x
 _atom_site_fract_y
 _atom_site_fract_z
 _atom_site_occupancy
  Ga  Ga0_0  1  0.00000000  0.00000000  0.00000000  1
  Ga  Ga0_1  1  0.00000000  0.00000000  0.50000000  1
  Ga  Ga0_2  1  0.00000000  0.50000000  0.00000000  1
  Ga  Ga0_3  1  0.00000000  0.50000000  0.50000000  1
  Ga  Ga0_4  1  0.50000000  0.00000000  0.00000000  1
  Ga  Ga0_5  1  0.50000000  0.00000000  0.50000000  1
  Ga  Ga0_6  1  0.50000000  0.50000000  0.00000000  1
  Ga  Ga0_7  1  0.50000000  0.50000000  0.50000000  1
  Fe  Fe0_0  1  0.16501650  0.16501650  0.33498350  1
  Fe  Fe0_1  1  0.16501650  0.16501650  0.83498350  1
  Fe  Fe0_2  1  0.16501650  0.66501650  0.33498350  1
  Fe  Fe0_3  1  0.16501650  0.66501650  0.83498350  1
  Fe  Fe0_4  1  0.66501650  0.16501650  0.33498350  1
  Fe  Fe0_5  1  0.66501650  0.16501650  0.83498350  1
  Fe  Fe0_6  1  0.66501650  0.66501650  0.33498350  1
  Fe  Fe0_7  1  0.66501650  0.66501650  0.83498350  1
  Fe  Fe1_0  1  0.33498350  0.33498350  0.16501650  1
  Fe  Fe1_1  1  0.33498350  0.33498350  0.66501650  1
  Fe  Fe1_2  1  0.33498350  0.83498350  0.16501650  1
  Fe  Fe1_3  1  0.33498350  0.83498350  0.66501650  1
  Fe  Fe1_4  1  0.83498350  0.33498350  0.16501650  1
  Fe  Fe1_5  1  0.83498350  0.33498350  0.66501650  1
  Fe  Fe1_6  1  0.83498350  0.83498350  0.16501650  1
  Fe  Fe1_7  1  0.83498350  0.83498350  0.66501650  1
loop_
_geom_bond_atom_site_label_1
_geom_bond_atom_site_label_2
_geom_bond_distance
_geom_bond_site_symmetry_2
Ga0_0 Ga0_6 2.599428 1_545
Ga0_0 Ga0_1 2.599428 1_554
Ga0_0 Ga0_1 2.599428 1_555
Ga0_0 Ga0_6 2.599428 1_455
Ga0_1 Ga0_7 2.599428 1_455
Ga0_1 Ga0_7 2.599428 1_545
Ga0_2 Ga0_3 2.599428 1_555
Ga0_2 Ga0_4 2.599428 1_555
Ga0_2 Ga0_3 2.599428 1_554
Ga0_2 Ga0_4 2.599428 1_465
Ga0_3 Ga0_5 2.599428 1_465
Ga0_3 Ga0_5 2.599428 1_555
Ga0_4 Ga0_5 2.599428 1_555
Ga0_4 Ga0_5 2.599428 1_554
Ga0_6 Ga0_7 2.599428 1_555
Ga0_6 Ga0_7 2.599428 1_554
Fe0_0 Fe1_5 2.429247 1_455
Fe0_0 Fe1_2 2.429247 1_545
Fe0_0 Ga0_4 2.522673 1_555
Fe0_0 Ga0_3 2.522673 1_555
Fe0_0 Fe0_6 2.599428 1_545
Fe0_0 Fe0_1 2.599428 1_555
Fe0_0 Fe0_6 2.599428 1_455
Fe0_0 Fe0_1 2.599428 1_554
Fe0_1 Fe1_4 2.429247 1_456
Fe0_1 Fe1_3 2.429247 1_545
Fe0_1 Ga0_5 2.522673 1_555
Fe0_1 Ga0_2 2.522673 1_556
Fe0_1 Fe0_7 2.599428 1_455
Fe0_1 Fe0_7 2.599428 1_545
Fe0_2 Fe1_0 2.429247 1_555
Fe0_2 Fe1_7 2.429247 1_455
Fe0_2 Ga0_6 2.522673 1_555
Fe0_2 Ga0_1 2.522673 1_565
Fe0_2 Fe0_3 2.599428 1_554
Fe0_2 Fe0_4 2.599428 1_555
Fe0_2 Fe0_4 2.599428 1_465
Fe0_2 Fe0_3 2.599428 1_555
Fe0_3 Fe1_1 2.429247 1_555
Fe0_3 Fe1_6 2.429247 1_456
Fe0_3 Ga0_7 2.522673 1_555
Fe0_3 Ga0_0 2.522673 1_566
Fe0_3 Fe0_5 2.599428 1_465
Fe0_3 Fe0_5 2.599428 1_555
Fe0_4 Fe1_1 2.429247 1_555
Fe0_4 Fe1_6 2.429247 1_545
Fe0_4 Ga0_0 2.522673 1_655
Fe0_4 Ga0_7 2.522673 1_555
Fe0_4 Fe0_5 2.599428 1_555
Fe0_4 Fe0_5 2.599428 1_554
Fe0_5 Fe1_7 2.429247 1_545
Fe0_5 Fe1_0 2.429247 1_556
Fe0_5 Ga0_1 2.522673 1_655
Fe0_5 Ga0_6 2.522673 1_556
Fe0_6 Fe1_4 2.429247 1_555
Fe0_6 Fe1_3 2.429247 1_555
Fe0_6 Ga0_2 2.522673 1_655
Fe0_6 Ga0_5 2.522673 1_565
Fe0_6 Fe0_7 2.599428 1_554
Fe0_6 Fe0_7 2.599428 1_555
Fe0_7 Fe1_2 2.429247 1_556
Fe0_7 Fe1_5 2.429247 1_555
Fe0_7 Ga0_3 2.522673 1_655
Fe0_7 Ga0_4 2.522673 1_566
Fe1_0 Ga0_4 2.522673 1_555
Fe1_0 Ga0_3 2.522673 1_555
Fe1_0 Fe1_1 2.599428 1_555
Fe1_0 Fe1_1 2.599428 1_554
Fe1_0 Fe1_6 2.599428 1_455
Fe1_0 Fe1_6 2.599428 1_545
Fe1_1 Ga0_5 2.522673 1_555
Fe1_1 Ga0_2 2.522673 1_556
Fe1_1 Fe1_7 2.599428 1_455
Fe1_1 Fe1_7 2.599428 1_545
Fe1_2 Ga0_6 2.522673 1_555
Fe1_2 Ga0_1 2.522673 1_565
Fe1_2 Fe1_4 2.599428 1_555
Fe1_2 Fe1_3 2.599428 1_554
Fe1_2 Fe1_3 2.599428 1_555
Fe1_2 Fe1_4 2.599428 1_465
Fe1_3 Ga0_7 2.522673 1_555
Fe1_3 Ga0_0 2.522673 1_566
Fe1_3 Fe1_5 2.599428 1_465
Fe1_3 Fe1_5 2.599428 1_555
Fe1_4 Ga0_0 2.522673 1_655
Fe1_4 Ga0_7 2.522673 1_555
Fe1_4 Fe1_5 2.599428 1_555
Fe1_4 Fe1_5 2.599428 1_554
Fe1_5 Ga0_1 2.522673 1_655
Fe1_5 Ga0_6 2.522673 1_556
Fe1_6 Ga0_2 2.522673 1_655
Fe1_6 Ga0_5 2.522673 1_565
Fe1_6 Fe1_7 2.599428 1_554
Fe1_6 Fe1_7 2.599428 1_555
Fe1_7 Ga0_3 2.522673 1_655
Fe1_7 Ga0_4 2.522673 1_566
