# generated using pymatgen
data_Ni(TePd)2
_symmetry_space_group_name_H-M   'P 1'
_cell_length_a   5.12299271
_cell_length_b   6.36646257
_cell_length_c   7.03337814
_cell_angle_alpha   116.90992342
_cell_angle_beta   111.35783922
_cell_angle_gamma   89.99999788
_symmetry_Int_Tables_number   1
_chemical_formula_structural   Ni(TePd)2
_chemical_formula_sum   'Ni2 Te4 Pd4'
_cell_volume   186.71872421
_cell_formula_units_Z   2
loop_
 _symmetry_equiv_pos_site_id
 _symmetry_equiv_pos_as_xyz
  1  'x, y, z'
loop_
 _atom_site_type_symbol
 _atom_site_label
 _atom_site_symmetry_multiplicity
 _atom_site_fract_x
 _atom_site_fract_y
 _atom_site_fract_z
 _atom_site_occupancy
  Ni  Ni0  1  0.75000000  -0.00000000  -0.00000000  1
  Ni  Ni1  1  0.25000000  -0.00000000  -0.00000000  1
  Te  Te0  1  0.35574915  0.07680687  0.71149630  1
  Te  Te1  1  0.64425085  0.92319313  0.28850370  1
  Te  Te2  1  0.14425085  0.36530957  0.28850370  1
  Te  Te3  1  0.85574915  0.63469043  0.71149630  1
  Pd  Pd0  1  0.60507022  0.47371283  0.21014044  1
  Pd  Pd1  1  0.89492978  0.26357239  0.78985956  1
  Pd  Pd2  1  0.10507022  0.73642761  0.21014044  1
  Pd  Pd3  1  0.39492978  0.52628717  0.78985956  1
loop_
_geom_bond_atom_site_label_1
_geom_bond_atom_site_label_2
_geom_bond_distance
_geom_bond_site_symmetry_2
Ni0 Te2 2.519701 1_655
Ni0 Te0 2.519704 1_554
Ni0 Te3 2.519706 1_544
Ni0 Te1 2.519710 1_545
Ni0 Ni1 2.561496 1_555
Ni0 Ni1 2.561496 1_655
Ni0 Pd2 2.931853 1_645
Ni0 Pd1 2.931853 1_554
Ni0 Pd3 2.931853 1_544
Ni0 Pd0 2.931853 1_555
Ni1 Te3 2.519701 1_444
Ni1 Te1 2.519704 1_545
Ni1 Te2 2.519706 1_555
Ni1 Te0 2.519710 1_554
Ni1 Pd1 2.931853 1_454
Ni1 Pd2 2.931853 1_545
Ni1 Pd0 2.931853 1_555
Ni1 Pd3 2.931853 1_544
Pd0 Te1 2.650395 1_555
Pd0 Te2 2.765020 1_655
Pd0 Te2 2.765029 1_555
Pd0 Te3 2.926460 1_555
Pd0 Pd3 2.930285 1_554
Pd0 Te0 3.005328 1_554
Pd0 Pd2 3.059205 1_555
Pd0 Pd2 3.059205 1_655
Pd1 Te3 2.650401 1_555
Pd1 Te0 2.765017 1_555
Pd1 Te0 2.765027 1_655
Pd1 Te1 2.926461 1_545
Pd1 Pd2 2.930285 1_656
Pd1 Te2 3.005329 1_656
Pd1 Pd3 3.059205 1_555
Pd1 Pd3 3.059205 1_655
Pd2 Te2 2.650401 1_555
Pd2 Te1 2.765017 1_555
Pd2 Te1 2.765027 1_455
Pd2 Te0 2.926461 1_565
Pd2 Te3 3.005329 1_454
Pd3 Te0 2.650395 1_555
Pd3 Te3 2.765020 1_455
Pd3 Te3 2.765029 1_555
Pd3 Te2 2.926460 1_555
Pd3 Te1 3.005328 1_556
