# generated using pymatgen
data_Fe6BMo6C
_symmetry_space_group_name_H-M   'P 1'
_cell_length_a   7.85224909
_cell_length_b   7.85224909
_cell_length_c   7.85224909
_cell_angle_alpha   120.12460071
_cell_angle_beta   119.83216871
_cell_angle_gamma   90.03762931
_symmetry_Int_Tables_number   1
_chemical_formula_structural   Fe6BMo6C
_chemical_formula_sum   'Fe12 B2 Mo12 C2'
_cell_volume   342.45651955
_cell_formula_units_Z   2
loop_
 _symmetry_equiv_pos_site_id
 _symmetry_equiv_pos_as_xyz
  1  'x, y, z'
loop_
 _atom_site_type_symbol
 _atom_site_label
 _atom_site_symmetry_multiplicity
 _atom_site_fract_x
 _atom_site_fract_y
 _atom_site_fract_z
 _atom_site_occupancy
  Fe  Fe0  1  0.00000000  0.50000000  0.50000000  1
  Fe  Fe1  1  0.50000000  0.50000000  0.00000000  1
  Fe  Fe2  1  0.50000000  0.00000000  0.00000000  1
  Fe  Fe3  1  0.50000000  0.50000000  0.50000000  1
  Fe  Fe4  1  0.60606400  0.70200200  0.90406200  1
  Fe  Fe5  1  0.29794100  0.70200200  0.59593800  1
  Fe  Fe6  1  0.29785900  0.39372800  0.59586900  1
  Fe  Fe7  1  0.29785900  0.70199000  0.90413100  1
  Fe  Fe8  1  0.39393600  0.29799800  0.09593800  1
  Fe  Fe9  1  0.70205900  0.29799800  0.40406200  1
  Fe  Fe10  1  0.70214100  0.60627200  0.40413100  1
  Fe  Fe11  1  0.70214100  0.29801000  0.09586900  1
  B  B0  1  0.00000000  0.50000000  0.00000000  1
  B  B1  1  0.00000000  0.00000000  0.50000000  1
  Mo  Mo0  1  0.33269800  0.07740700  0.65843900  1
  Mo  Mo1  1  0.33269800  0.67425900  0.25529100  1
  Mo  Mo2  1  0.32728300  0.07728300  0.25000000  1
  Mo  Mo3  1  0.91896800  0.67425900  0.84156100  1
  Mo  Mo4  1  0.91896800  0.07740700  0.24470900  1
  Mo  Mo5  1  0.91906300  0.66906300  0.25000000  1
  Mo  Mo6  1  0.66730200  0.92259300  0.34156100  1
  Mo  Mo7  1  0.66730200  0.32574100  0.74470900  1
  Mo  Mo8  1  0.67271700  0.92271700  0.75000000  1
  Mo  Mo9  1  0.08103200  0.32574100  0.15843900  1
  Mo  Mo10  1  0.08103200  0.92259300  0.75529100  1
  Mo  Mo11  1  0.08093700  0.33093700  0.75000000  1
  C  C0  1  0.50000000  0.00000000  0.50000000  1
  C  C1  1  0.00000000  0.00000000  0.00000000  1
loop_
_geom_bond_atom_site_label_1
_geom_bond_atom_site_label_2
_geom_bond_distance
_geom_bond_site_symmetry_2
Fe0 Fe9 2.366217 1_455
Fe0 Fe5 2.366217 1_555
Fe0 Fe10 2.369536 1_455
Fe0 Fe7 2.369536 1_555
Fe0 Fe11 2.369536 1_455
Fe0 Fe6 2.369536 1_555
Fe0 Mo5 2.719469 1_455
Fe0 Mo11 2.719469 1_555
Fe0 Mo9 2.736005 1_555
Fe0 Mo3 2.736005 1_455
Fe0 Mo10 2.736005 1_555
Fe0 Mo4 2.736005 1_455
Fe1 Fe8 2.366211 1_555
Fe1 Fe4 2.366211 1_554
Fe1 Fe10 2.369536 1_555
Fe1 Fe6 2.369536 1_554
Fe1 Fe11 2.369536 1_555
Fe1 Fe7 2.369536 1_554
Fe1 Mo5 2.719469 1_555
Fe1 Mo11 2.719469 1_554
Fe1 Mo1 2.736005 1_555
Fe1 Mo6 2.736005 1_555
Fe1 Mo7 2.736005 1_554
Fe1 Mo0 2.736005 1_554
Fe2 Fe9 2.365143 1_555
Fe2 Fe5 2.365143 1_544
Fe2 Fe4 2.365143 1_544
Fe2 Fe8 2.365143 1_555
Fe2 Fe7 2.366441 1_544
Fe2 Mo0 2.724038 1_554
Fe2 Mo6 2.724038 1_545
Fe2 Mo4 2.724038 1_555
Fe2 Mo10 2.724038 1_544
Fe2 Mo8 2.741412 1_544
Fe2 Mo2 2.741412 1_555
Fe3 Fe5 2.365137 1_555
Fe3 Fe9 2.365137 1_555
Fe3 Fe4 2.365143 1_555
Fe3 Fe8 2.365143 1_555
Fe3 Fe6 2.366441 1_555
Fe3 Mo1 2.724038 1_555
Fe3 Mo3 2.724038 1_555
Fe3 Mo7 2.724038 1_555
Fe3 Mo9 2.724038 1_555
Fe3 Mo8 2.741412 1_555
Fe3 Mo2 2.741412 1_555
Fe4 Fe7 2.420372 1_555
Fe4 Fe6 2.420372 1_555
Fe4 Fe5 2.425597 1_555
Fe4 Mo6 2.723168 1_556
Fe4 Mo7 2.723168 1_555
Fe4 Mo4 2.723648 1_566
Fe4 Mo3 2.723648 1_555
Fe4 Mo8 2.733912 1_555
Fe4 Mo5 2.747718 1_556
Fe5 Fe6 2.420372 1_555
Fe5 Fe7 2.420376 1_555
Fe5 Mo9 2.723168 1_555
Fe5 Mo10 2.723175 1_555
Fe5 Mo1 2.723644 1_555
Fe5 Mo0 2.723648 1_565
Fe5 Mo8 2.733905 1_555
Fe5 Mo5 2.747723 1_455
Fe6 Fe7 2.415990 1_555
Fe6 Mo11 2.694082 1_555
Fe6 Mo7 2.705841 1_555
Fe6 Mo9 2.705841 1_555
Fe6 Mo2 2.730342 1_555
Fe6 Mo4 2.752772 1_455
Fe6 Mo0 2.752772 1_555
Fe7 Mo11 2.694082 1_555
Fe7 Mo6 2.705841 1_556
Fe7 Mo10 2.705841 1_555
Fe7 Mo2 2.730342 1_566
Fe7 Mo3 2.752772 1_455
Fe7 Mo1 2.752772 1_556
Fe8 Fe9 2.425597 1_555
Fe8 Mo1 2.723168 1_555
Fe8 Mo0 2.723168 1_554
Fe8 Mo10 2.723648 1_544
Fe8 Mo9 2.723648 1_555
Fe8 Mo2 2.733912 1_555
Fe8 Mo11 2.747718 1_554
Fe9 Mo3 2.723168 1_555
Fe9 Mo4 2.723175 1_555
Fe9 Mo7 2.723644 1_555
Fe9 Mo6 2.723648 1_545
Fe9 Mo2 2.733905 1_555
Fe9 Mo11 2.747723 1_655
Fe10 Fe3 2.366441 1_555
Fe10 Fe11 2.415990 1_555
Fe10 Fe9 2.420372 1_555
Fe10 Fe8 2.420372 1_555
Fe10 Mo5 2.694082 1_555
Fe10 Mo1 2.705841 1_555
Fe10 Mo3 2.705841 1_555
Fe10 Mo8 2.730342 1_555
Fe10 Mo10 2.752772 1_655
Fe10 Mo6 2.752772 1_555
Fe11 Fe2 2.366441 1_555
Fe11 Fe8 2.420372 1_555
Fe11 Fe9 2.420376 1_555
Fe11 Mo5 2.694082 1_555
Fe11 Mo0 2.705841 1_554
Fe11 Mo4 2.705841 1_555
Fe11 Mo8 2.730342 1_544
Fe11 Mo9 2.752772 1_655
Fe11 Mo7 2.752772 1_554
B0 Mo11 2.155549 1_554
B0 Mo5 2.155549 1_455
B0 Mo3 2.178822 1_454
B0 Mo1 2.178822 1_555
B0 Mo7 2.178822 1_454
B0 Mo9 2.178822 1_555
B1 Mo11 2.155549 1_555
B1 Mo5 2.155549 1_445
B1 Mo10 2.178822 1_545
B1 Mo0 2.178822 1_555
B1 Mo6 2.178822 1_445
B1 Mo4 2.178822 1_455
C0 Mo6 2.123940 1_545
C0 Mo7 2.123940 1_555
C0 Mo0 2.123940 1_555
C0 Mo1 2.123940 1_545
C0 Mo2 2.146909 1_555
C0 Mo8 2.146909 1_545
C1 Mo4 2.123940 1_455
C1 Mo9 2.123940 1_555
C1 Mo10 2.123940 1_544
C1 Mo3 2.123940 1_444
C1 Mo8 2.146909 1_444
C1 Mo2 2.146909 1_555
