# generated using pymatgen
data_Sr(YbSe2)2
_symmetry_space_group_name_H-M   'P 1'
_cell_length_a   4.68606400
_cell_length_b   11.06995600
_cell_length_c   15.09279300
_cell_angle_alpha   90.00000000
_cell_angle_beta   90.00000000
_cell_angle_gamma   90.00000000
_symmetry_Int_Tables_number   1
_chemical_formula_structural   Sr(YbSe2)2
_chemical_formula_sum   'Sr4 Yb8 Se16'
_cell_volume   782.93142694
_cell_formula_units_Z   4
loop_
 _symmetry_equiv_pos_site_id
 _symmetry_equiv_pos_as_xyz
  1  'x, y, z'
loop_
 _atom_site_type_symbol
 _atom_site_label
 _atom_site_symmetry_multiplicity
 _atom_site_fract_x
 _atom_site_fract_y
 _atom_site_fract_z
 _atom_site_occupancy
  Sr  Sr0  1  0.75000000  0.72357500  0.18138000  1
  Sr  Sr1  1  0.75000000  0.22357500  0.31862000  1
  Sr  Sr2  1  0.25000000  0.27642500  0.81862000  1
  Sr  Sr3  1  0.25000000  0.77642500  0.68138000  1
  Yb  Yb0  1  0.75000000  0.05989000  0.10366900  1
  Yb  Yb1  1  0.75000000  0.55989000  0.39633100  1
  Yb  Yb2  1  0.25000000  0.94011000  0.89633100  1
  Yb  Yb3  1  0.25000000  0.44011000  0.60366900  1
  Yb  Yb4  1  0.75000000  0.09682300  0.60338300  1
  Yb  Yb5  1  0.75000000  0.59682300  0.89661700  1
  Yb  Yb6  1  0.25000000  0.90317700  0.39661700  1
  Yb  Yb7  1  0.25000000  0.40317700  0.10338300  1
  Se  Se0  1  0.75000000  0.33501400  0.67152500  1
  Se  Se1  1  0.75000000  0.83501400  0.82847500  1
  Se  Se2  1  0.25000000  0.66498600  0.32847500  1
  Se  Se3  1  0.25000000  0.16498600  0.17152500  1
  Se  Se4  1  0.75000000  0.32618000  0.97302100  1
  Se  Se5  1  0.75000000  0.82618000  0.52697900  1
  Se  Se6  1  0.25000000  0.67382000  0.02697900  1
  Se  Se7  1  0.25000000  0.17382000  0.47302100  1
  Se  Se8  1  0.75000000  0.45442400  0.20568100  1
  Se  Se9  1  0.75000000  0.95442400  0.29431900  1
  Se  Se10  1  0.25000000  0.54557600  0.79431900  1
  Se  Se11  1  0.25000000  0.04557600  0.70568100  1
  Se  Se12  1  0.75000000  0.11094500  0.90857000  1
  Se  Se13  1  0.75000000  0.61094500  0.59143000  1
  Se  Se14  1  0.25000000  0.88905500  0.09143000  1
  Se  Se15  1  0.25000000  0.38905500  0.40857000  1
loop_
_geom_bond_atom_site_label_1
_geom_bond_atom_site_label_2
_geom_bond_distance
_geom_bond_site_symmetry_2
Se0 Yb3 2.809301 1_555
Se0 Yb3 2.809301 1_655
Se0 Yb4 2.830237 1_555
Se0 Sr2 3.292291 1_555
Se0 Sr2 3.292291 1_655
Se1 Yb2 2.809301 1_555
Se1 Yb2 2.809301 1_655
Se1 Yb5 2.830237 1_555
Se1 Sr3 3.292291 1_655
Se1 Sr3 3.292291 1_555
Se2 Yb1 2.809301 1_455
Se2 Yb1 2.809301 1_555
Se2 Yb6 2.830237 1_555
Se2 Sr0 3.292291 1_455
Se2 Sr0 3.292291 1_555
Se3 Yb0 2.809301 1_455
Se3 Yb0 2.809301 1_555
Se3 Yb7 2.830237 1_555
Se3 Sr1 3.292291 1_455
Se3 Sr1 3.292291 1_555
Se4 Yb7 3.176077 1_556
Se4 Yb7 3.176077 1_656
Se4 Yb5 3.210266 1_555
Se4 Sr2 3.350173 1_555
Se4 Sr2 3.350173 1_655
Se4 Yb0 3.546519 1_556
Se5 Yb6 3.176077 1_655
Se5 Yb6 3.176077 1_555
Se5 Yb4 3.210266 1_565
Se5 Sr3 3.350173 1_555
Se5 Sr3 3.350173 1_655
Se5 Yb1 3.546519 1_555
Se6 Yb5 3.176077 1_554
Se6 Yb5 3.176077 1_454
Se6 Yb7 3.210266 1_555
Se6 Sr0 3.350173 1_455
Se6 Sr0 3.350173 1_555
Se6 Yb2 3.546519 1_554
Se7 Yb4 3.176077 1_555
Se7 Yb4 3.176077 1_455
Se7 Yb6 3.210266 1_545
Se7 Sr1 3.350173 1_455
Se7 Sr1 3.350173 1_555
Se7 Yb3 3.546519 1_555
Se8 Yb7 2.862770 1_555
Se8 Yb7 2.862770 1_655
Se8 Sr0 3.001979 1_555
Se8 Sr1 3.071817 1_555
Se8 Yb1 3.105275 1_555
Se9 Yb6 2.862770 1_555
Se9 Yb6 2.862770 1_655
Se9 Sr1 3.001979 1_565
Se9 Sr0 3.071817 1_555
Se9 Yb0 3.105275 1_565
Se10 Yb5 2.862770 1_555
Se10 Yb5 2.862770 1_455
Se10 Sr2 3.001979 1_555
Se10 Sr3 3.071817 1_555
Se10 Yb3 3.105275 1_555
Se11 Yb4 2.862770 1_455
Se11 Yb4 2.862770 1_555
Se11 Sr3 3.001979 1_545
Se11 Sr2 3.071817 1_555
Se11 Yb2 3.105275 1_545
Se12 Se4 2.573561 1_555
Se12 Yb0 2.998338 1_556
Se12 Yb2 3.016673 1_645
Se12 Yb2 3.016673 1_545
Se12 Sr2 3.269337 1_555
Se12 Sr2 3.269337 1_655
Se13 Se5 2.573561 1_555
Se13 Yb1 2.998338 1_555
Se13 Yb3 3.016673 1_555
Se13 Yb3 3.016673 1_655
Se13 Sr3 3.269337 1_555
Se13 Sr3 3.269337 1_655
Se14 Se6 2.573561 1_555
Se14 Yb2 2.998338 1_554
Se14 Yb0 3.016673 1_465
Se14 Yb0 3.016673 1_565
Se14 Sr0 3.269337 1_555
Se14 Sr0 3.269337 1_455
Se15 Se7 2.573561 1_555
Se15 Yb3 2.998338 1_555
Se15 Yb1 3.016673 1_455
Se15 Yb1 3.016673 1_555
Se15 Sr1 3.269337 1_455
Se15 Sr1 3.269337 1_555
