# generated using pymatgen
data_Ba2Mg2Tl2Fe3O10
_symmetry_space_group_name_H-M   'P 1'
_cell_length_a   3.92778300
_cell_length_b   3.96555137
_cell_length_c   18.03748020
_cell_angle_alpha   95.89916776
_cell_angle_beta   95.35541289
_cell_angle_gamma   90.70755498
_symmetry_Int_Tables_number   1
_chemical_formula_structural   Ba2Mg2Tl2Fe3O10
_chemical_formula_sum   'Ba2 Mg2 Tl2 Fe3 O10'
_cell_volume   278.17265289
_cell_formula_units_Z   1
loop_
 _symmetry_equiv_pos_site_id
 _symmetry_equiv_pos_as_xyz
  1  'x, y, z'
loop_
 _atom_site_type_symbol
 _atom_site_label
 _atom_site_symmetry_multiplicity
 _atom_site_fract_x
 _atom_site_fract_y
 _atom_site_fract_z
 _atom_site_occupancy
  Ba  Ba0  1  0.84860500  0.89077600  0.71906600  1
  Ba  Ba1  1  0.17852600  0.18945400  0.28271600  1
  Mg  Mg0  1  0.08611800  0.10458800  0.09116300  1
  Mg  Mg1  1  0.95585500  0.00128900  0.91202400  1
  Tl  Tl0  1  0.28013500  0.38364300  0.56463600  1
  Tl  Tl1  1  0.72976900  0.82501900  0.43685300  1
  Fe  Fe0  1  0.63556900  0.62141700  0.15990600  1
  Fe  Fe1  1  0.40956200  0.43629300  0.83980700  1
  Fe  Fe2  1  0.43425700  0.64483200  0.99988100  1
  O  O0  1  0.13795100  0.61102400  0.16085000  1
  O  O1  1  0.68751200  0.69890800  0.31745900  1
  O  O2  1  0.64176500  0.11805200  0.15614400  1
  O  O3  1  0.23679400  0.16254800  0.44674300  1
  O  O4  1  0.37075200  0.15860000  0.99637300  1
  O  O5  1  0.40388200  0.93091200  0.83722300  1
  O  O6  1  0.33148300  0.36976900  0.68397800  1
  O  O7  1  0.91113600  0.42401900  0.84602600  1
  O  O8  1  0.77855700  0.71119500  0.55411700  1
  O  O9  1  0.92380900  0.71657300  0.00407300  1
loop_
_geom_bond_atom_site_label_1
_geom_bond_atom_site_label_2
_geom_bond_distance
_geom_bond_site_symmetry_2
Ba0 O6 2.826306 1_665
Ba0 O6 2.860488 1_555
Ba0 O6 2.869936 1_565
Ba0 O5 2.872433 1_555
Ba0 O6 2.884190 1_655
Ba0 O5 2.894545 1_655
Ba0 O7 2.943283 1_565
Ba0 O8 2.973527 1_555
Ba0 O7 3.083528 1_555
Ba1 O1 2.806614 1_555
Ba1 O1 2.873199 1_455
Ba1 O1 2.877478 1_445
Ba1 O1 2.878607 1_545
Ba1 O0 2.889398 1_555
Ba1 O2 2.948082 1_455
Ba1 O3 2.959117 1_555
Ba1 O0 3.001319 1_545
Ba1 O2 3.042744 1_555
Mg0 O9 2.129239 1_445
Mg0 O4 2.155285 1_554
Mg0 O2 2.189544 1_455
Mg0 O0 2.253427 1_555
Mg0 O2 2.376246 1_555
Mg0 O0 2.433119 1_545
Mg1 O9 2.113800 1_546
Mg1 O7 2.153280 1_555
Mg1 O4 2.162546 1_655
Mg1 O5 2.317962 1_645
Mg1 O5 2.441366 1_545
Mg1 O7 2.465618 1_545
Fe0 O0 1.956161 1_555
Fe0 O0 1.972708 1_655
Fe0 O2 1.977486 1_565
Fe0 O2 1.990818 1_555
Fe1 O7 1.964276 1_555
Fe1 O5 1.967126 1_555
Fe1 O7 1.971634 1_455
Fe1 O5 1.999661 1_545
Fe1 O6 2.783650 1_555
Fe2 O9 1.933636 1_556
Fe2 O4 1.934990 1_555
Fe2 O9 2.035770 1_456
Fe2 O4 2.062333 1_565
O1 Tl1 2.150661 1_555
O3 Tl0 2.205711 1_555
O3 Tl1 2.368154 1_445
O3 Tl1 2.377401 1_545
O6 Tl0 2.149673 1_555
O8 Tl1 2.199326 1_555
O8 Tl0 2.369169 1_555
O8 Tl0 2.376666 1_655
