# generated using pymatgen
data_Mg6TiCu
_symmetry_space_group_name_H-M   'P 1'
_cell_length_a   4.85449600
_cell_length_b   6.14522400
_cell_length_c   10.81239200
_cell_angle_alpha   90.00000000
_cell_angle_beta   90.00000000
_cell_angle_gamma   90.00000000
_symmetry_Int_Tables_number   1
_chemical_formula_structural   Mg6TiCu
_chemical_formula_sum   'Mg12 Ti2 Cu2'
_cell_volume   322.55490325
_cell_formula_units_Z   2
loop_
 _symmetry_equiv_pos_site_id
 _symmetry_equiv_pos_as_xyz
  1  'x, y, z'
loop_
 _atom_site_type_symbol
 _atom_site_label
 _atom_site_symmetry_multiplicity
 _atom_site_fract_x
 _atom_site_fract_y
 _atom_site_fract_z
 _atom_site_occupancy
  Mg  Mg0  1  0.00000000  0.74230200  0.08652400  1
  Mg  Mg1  1  0.00000000  0.25769800  0.08652400  1
  Mg  Mg2  1  0.00000000  0.00000000  0.33179600  1
  Mg  Mg3  1  0.50000000  0.25950700  0.41764200  1
  Mg  Mg4  1  0.50000000  0.74049300  0.41764200  1
  Mg  Mg5  1  0.50000000  0.00000000  0.16605700  1
  Mg  Mg6  1  0.00000000  0.24230200  0.58652400  1
  Mg  Mg7  1  0.00000000  0.75769800  0.58652400  1
  Mg  Mg8  1  0.00000000  0.50000000  0.83179600  1
  Mg  Mg9  1  0.50000000  0.75950700  0.91764200  1
  Mg  Mg10  1  0.50000000  0.24049300  0.91764200  1
  Mg  Mg11  1  0.50000000  0.50000000  0.66605700  1
  Ti  Ti0  1  0.50000000  0.50000000  0.17764900  1
  Ti  Ti1  1  0.50000000  0.00000000  0.67764900  1
  Cu  Cu0  1  0.00000000  0.50000000  0.31616600  1
  Cu  Cu1  1  0.00000000  0.00000000  0.81616600  1
loop_
_geom_bond_atom_site_label_1
_geom_bond_atom_site_label_2
_geom_bond_distance
_geom_bond_site_symmetry_2
Mg0 Mg1 2.978000 1_555
Mg0 Ti0 3.013209 1_555
Mg0 Ti0 3.013209 1_455
Mg0 Mg5 3.023055 1_465
Mg0 Mg5 3.023055 1_565
Mg0 Mg9 3.039252 1_454
Mg0 Mg9 3.039252 1_554
Mg0 Mg2 3.088820 1_565
Mg0 Mg8 3.130949 1_554
Mg0 Mg1 3.167224 1_565
Mg1 Ti0 3.013209 1_555
Mg1 Ti0 3.013209 1_455
Mg1 Mg5 3.023055 1_555
Mg1 Mg5 3.023055 1_455
Mg1 Mg10 3.039252 1_454
Mg1 Mg10 3.039252 1_554
Mg1 Mg2 3.088820 1_555
Mg1 Mg8 3.130949 1_554
Mg2 Mg5 3.017105 1_555
Mg2 Mg5 3.017105 1_455
Mg2 Mg3 3.048975 1_455
Mg2 Mg3 3.048975 1_555
Mg2 Mg4 3.048975 1_445
Mg2 Mg4 3.048975 1_545
Mg2 Mg7 3.130949 1_545
Mg2 Mg6 3.130949 1_555
Mg3 Mg4 2.955767 1_555
Mg3 Ti0 2.986241 1_555
Mg3 Mg6 3.039252 1_655
Mg3 Mg6 3.039252 1_555
Mg3 Mg5 3.153227 1_555
Mg3 Mg4 3.189457 1_545
Mg3 Ti1 3.232113 1_555
Mg4 Ti0 2.986241 1_555
Mg4 Mg7 3.039252 1_555
Mg4 Mg7 3.039252 1_655
Mg4 Mg5 3.153227 1_565
Mg4 Ti1 3.232113 1_565
Mg5 Mg9 3.065701 1_544
Mg5 Ti0 3.075167 1_555
Mg5 Ti0 3.075167 1_545
Mg6 Mg7 2.978000 1_545
Mg6 Ti1 3.013209 1_555
Mg6 Ti1 3.013209 1_455
Mg6 Mg8 3.088820 1_555
Mg6 Mg7 3.167224 1_555
Mg7 Ti1 3.013209 1_465
Mg7 Ti1 3.013209 1_565
Mg7 Mg8 3.088820 1_555
Mg8 Mg9 3.048975 1_455
Mg8 Mg9 3.048975 1_555
Mg9 Ti1 2.986241 1_565
Mg9 Ti0 3.232113 1_556
Mg10 Mg9 2.955767 1_545
Mg10 Ti1 2.986241 1_555
Mg10 Mg8 3.048975 1_555
Mg10 Mg8 3.048975 1_655
Mg10 Mg5 3.065701 1_556
Mg10 Mg11 3.153227 1_555
Mg10 Mg9 3.189457 1_555
Mg10 Ti0 3.232113 1_556
Mg11 Mg8 3.017105 1_655
Mg11 Mg8 3.017105 1_555
Mg11 Mg6 3.023055 1_555
Mg11 Mg7 3.023055 1_555
Mg11 Mg6 3.023055 1_655
Mg11 Mg7 3.023055 1_655
Mg11 Mg3 3.065701 1_555
Mg11 Mg4 3.065701 1_555
Mg11 Ti1 3.075167 1_555
Mg11 Ti1 3.075167 1_565
Mg11 Mg9 3.153227 1_555
Cu0 Ti0 2.852129 1_555
Cu0 Ti0 2.852129 1_455
Cu0 Mg0 2.895221 1_555
Cu0 Mg1 2.895221 1_555
Cu0 Mg4 3.046230 1_455
Cu0 Mg3 3.046230 1_455
Cu0 Mg3 3.046230 1_555
Cu0 Mg4 3.046230 1_555
Cu0 Mg2 3.077256 1_555
Cu0 Mg2 3.077256 1_565
Cu0 Mg7 3.324609 1_555
Cu0 Mg6 3.324609 1_555
Cu1 Ti1 2.852129 1_455
Cu1 Ti1 2.852129 1_555
Cu1 Mg6 2.895221 1_555
Cu1 Mg7 2.895221 1_545
Cu1 Mg10 3.046230 1_455
Cu1 Mg10 3.046230 1_555
Cu1 Mg9 3.046230 1_545
Cu1 Mg9 3.046230 1_445
Cu1 Mg8 3.077256 1_555
Cu1 Mg8 3.077256 1_545
Cu1 Mg1 3.324609 1_556
Cu1 Mg0 3.324609 1_546
