# generated using pymatgen
data_NdCrGe3
_symmetry_space_group_name_H-M   'P 1'
_cell_length_a   6.16528214
_cell_length_b   6.16528214
_cell_length_c   5.75008500
_cell_angle_alpha   90.00000000
_cell_angle_beta   90.00000000
_cell_angle_gamma   120.00000155
_symmetry_Int_Tables_number   1
_chemical_formula_structural   NdCrGe3
_chemical_formula_sum   'Nd2 Cr2 Ge6'
_cell_volume   189.28264755
_cell_formula_units_Z   2
loop_
 _symmetry_equiv_pos_site_id
 _symmetry_equiv_pos_as_xyz
  1  'x, y, z'
loop_
 _atom_site_type_symbol
 _atom_site_label
 _atom_site_symmetry_multiplicity
 _atom_site_fract_x
 _atom_site_fract_y
 _atom_site_fract_z
 _atom_site_occupancy
  Nd  Nd0  1  0.33333300  0.66666700  0.75000000  1
  Nd  Nd1  1  0.66666700  0.33333300  0.25000000  1
  Cr  Cr0  1  0.00000000  0.00000000  0.50000000  1
  Cr  Cr1  1  0.00000000  0.00000000  0.00000000  1
  Ge  Ge0  1  0.19236800  0.80763200  0.25000000  1
  Ge  Ge1  1  0.19236800  0.38473500  0.25000000  1
  Ge  Ge2  1  0.61526500  0.80763200  0.25000000  1
  Ge  Ge3  1  0.80763200  0.19236800  0.75000000  1
  Ge  Ge4  1  0.80763200  0.61526500  0.75000000  1
  Ge  Ge5  1  0.38473500  0.19236800  0.75000000  1
loop_
_geom_bond_atom_site_label_1
_geom_bond_atom_site_label_2
_geom_bond_distance
_geom_bond_site_symmetry_2
Cr0 Ge4 2.507240 1_445
Cr0 Ge5 2.507240 1_555
Cr0 Ge1 2.507240 1_555
Cr0 Ge2 2.507240 1_445
Cr0 Ge0 2.507245 1_545
Cr0 Ge3 2.507245 1_455
Cr1 Ge4 2.507240 1_444
Cr1 Ge5 2.507240 1_554
Cr1 Ge1 2.507240 1_555
Cr1 Ge2 2.507240 1_445
Cr1 Ge0 2.507245 1_545
Cr1 Ge3 2.507245 1_454
Ge0 Ge1 2.607279 1_555
Ge0 Ge2 2.607279 1_555
Ge0 Nd1 3.094834 1_455
Ge0 Nd1 3.094834 1_565
Ge0 Nd0 3.245276 1_554
Ge0 Nd0 3.245276 1_555
Ge1 Ge2 2.607279 1_555
Ge1 Nd1 3.094834 1_455
Ge1 Nd1 3.094834 1_555
Ge1 Nd0 3.245281 1_554
Ge1 Nd0 3.245281 1_555
Ge2 Nd1 3.094834 1_565
Ge2 Nd1 3.094834 1_555
Ge2 Nd0 3.245281 1_554
Ge2 Nd0 3.245281 1_555
Ge3 Ge5 2.607279 1_555
Ge3 Ge4 2.607279 1_555
Ge3 Nd0 3.094834 1_545
Ge3 Nd0 3.094834 1_655
Ge3 Nd1 3.245276 1_555
Ge3 Nd1 3.245276 1_556
Ge4 Ge5 2.607279 1_555
Ge4 Nd0 3.094834 1_655
Ge4 Nd0 3.094834 1_555
Ge4 Nd1 3.245281 1_555
Ge4 Nd1 3.245281 1_556
Ge5 Nd0 3.094834 1_545
Ge5 Nd0 3.094834 1_555
Ge5 Nd1 3.245281 1_555
Ge5 Nd1 3.245281 1_556
