# generated using pymatgen
data_CaSm4(HO2)4
_symmetry_space_group_name_H-M   'P 1'
_cell_length_a   5.58369941
_cell_length_b   11.13272408
_cell_length_c   3.63097700
_cell_angle_alpha   90.00000000
_cell_angle_beta   90.00000000
_cell_angle_gamma   88.17104862
_symmetry_Int_Tables_number   1
_chemical_formula_structural   CaSm4(HO2)4
_chemical_formula_sum   'Ca1 Sm4 H4 O8'
_cell_volume   225.59302661
_cell_formula_units_Z   1
loop_
 _symmetry_equiv_pos_site_id
 _symmetry_equiv_pos_as_xyz
  1  'x, y, z'
loop_
 _atom_site_type_symbol
 _atom_site_label
 _atom_site_symmetry_multiplicity
 _atom_site_fract_x
 _atom_site_fract_y
 _atom_site_fract_z
 _atom_site_occupancy
  Ca  Ca0  1  0.55968200  0.97238400  0.25000000  1
  Sm  Sm0  1  0.07973700  0.84642400  0.25000000  1
  Sm  Sm1  1  0.38811700  0.35425400  0.25000000  1
  Sm  Sm2  1  0.61178400  0.64390400  0.75000000  1
  Sm  Sm3  1  0.91006700  0.14518800  0.75000000  1
  H  H0  1  0.16633500  0.59642400  0.25000000  1
  H  H1  1  0.32874900  0.12862300  0.25000000  1
  H  H2  1  0.63676200  0.87035800  0.75000000  1
  H  H3  1  0.82882700  0.40145900  0.75000000  1
  O  O0  1  0.18705700  0.07551900  0.25000000  1
  O  O1  1  0.15566000  0.31037500  0.75000000  1
  O  O2  1  0.39426700  0.83451900  0.75000000  1
  O  O3  1  0.33955300  0.57216700  0.25000000  1
  O  O4  1  0.65793200  0.42802800  0.75000000  1
  O  O5  1  0.64135000  0.18554200  0.25000000  1
  O  O6  1  0.85436800  0.67546600  0.25000000  1
  O  O7  1  0.80975300  0.91174800  0.75000000  1
loop_
_geom_bond_atom_site_label_1
_geom_bond_atom_site_label_2
_geom_bond_distance
_geom_bond_site_symmetry_2
Ca0 H1 2.131886 1_565
Ca0 H2 2.177185 1_554
Ca0 H2 2.177185 1_555
Ca0 O0 2.344103 1_565
Ca0 O7 2.375127 1_554
Ca0 O7 2.375127 1_555
Ca0 O5 2.430697 1_565
Ca0 O2 2.568117 1_555
Ca0 O2 2.568117 1_554
H0 O3 0.995853 1_555
H1 O0 1.002650 1_555
H1 Sm1 2.544134 1_555
H2 O7 1.083398 1_555
H2 O2 1.423742 1_555
H2 Sm2 2.529345 1_555
H3 O4 0.989960 1_555
O0 Sm3 2.492600 1_455
O0 Sm3 2.492600 1_454
O0 Sm0 2.638456 1_545
O1 Sm1 2.293430 1_556
O1 Sm1 2.293430 1_555
O1 Sm3 2.328806 1_455
O2 Sm2 2.411176 1_555
O2 Sm0 2.526478 1_555
O2 Sm0 2.526478 1_556
O3 Sm1 2.432457 1_555
O3 Sm2 2.514332 1_555
O3 Sm2 2.514332 1_554
O4 Sm2 2.408871 1_555
O4 Sm1 2.513815 1_555
O4 Sm1 2.513815 1_556
O5 Sm1 2.314635 1_555
O5 Sm3 2.388745 1_555
O5 Sm3 2.388745 1_554
O6 Sm2 2.298816 1_554
O6 Sm2 2.298816 1_555
O6 Sm0 2.314888 1_655
O7 Sm0 2.455091 1_656
O7 Sm0 2.455091 1_655
O7 Sm3 2.675918 1_565
