# generated using pymatgen
data_Te
_symmetry_space_group_name_H-M   'P 1'
_cell_length_a   6.31304036
_cell_length_b   8.95494206
_cell_length_c   18.33074830
_cell_angle_alpha   90.00000000
_cell_angle_beta   90.00000000
_cell_angle_gamma   90.00000000
_symmetry_Int_Tables_number   1
_chemical_formula_structural   Te
_chemical_formula_sum   Te32
_cell_volume   1036.29055572
_cell_formula_units_Z   32
loop_
 _symmetry_equiv_pos_site_id
 _symmetry_equiv_pos_as_xyz
  1  'x, y, z'
loop_
 _atom_site_type_symbol
 _atom_site_label
 _atom_site_symmetry_multiplicity
 _atom_site_fract_x
 _atom_site_fract_y
 _atom_site_fract_z
 _atom_site_occupancy
  Te  Te0_0  1  0.25000000  0.25240221  0.37996195  1
  Te  Te0_1  1  0.25000000  0.25240221  0.87996195  1
  Te  Te0_2  1  0.25000000  0.75240222  0.37996195  1
  Te  Te0_3  1  0.25000000  0.75240222  0.87996195  1
  Te  Te0_4  1  0.75000000  0.25240221  0.37996195  1
  Te  Te0_5  1  0.75000000  0.25240221  0.87996195  1
  Te  Te0_6  1  0.75000000  0.75240222  0.37996195  1
  Te  Te0_7  1  0.75000000  0.75240222  0.87996195  1
  Te  Te1_0  1  0.25000000  0.24759779  0.12996194  1
  Te  Te1_1  1  0.25000000  0.24759779  0.62996195  1
  Te  Te1_2  1  0.25000000  0.74759779  0.12996194  1
  Te  Te1_3  1  0.25000000  0.74759779  0.62996195  1
  Te  Te1_4  1  0.75000000  0.24759779  0.12996194  1
  Te  Te1_5  1  0.75000000  0.24759779  0.62996195  1
  Te  Te1_6  1  0.75000000  0.74759779  0.12996194  1
  Te  Te1_7  1  0.75000000  0.74759779  0.62996195  1
  Te  Te2_0  1  0.25000000  0.00132657  0.00503806  1
  Te  Te2_1  1  0.25000000  0.00132657  0.50503805  1
  Te  Te2_2  1  0.25000000  0.50132657  0.00503806  1
  Te  Te2_3  1  0.25000000  0.50132657  0.50503805  1
  Te  Te2_4  1  0.75000000  0.00132657  0.00503806  1
  Te  Te2_5  1  0.75000000  0.00132657  0.50503805  1
  Te  Te2_6  1  0.75000000  0.50132657  0.00503806  1
  Te  Te2_7  1  0.75000000  0.50132657  0.50503805  1
  Te  Te3_0  1  0.25000000  0.49867343  0.25503805  1
  Te  Te3_1  1  0.25000000  0.49867343  0.75503805  1
  Te  Te3_2  1  0.25000000  0.99867343  0.25503805  1
  Te  Te3_3  1  0.25000000  0.99867343  0.75503805  1
  Te  Te3_4  1  0.75000000  0.49867343  0.25503805  1
  Te  Te3_5  1  0.75000000  0.49867343  0.75503805  1
  Te  Te3_6  1  0.75000000  0.99867343  0.25503805  1
  Te  Te3_7  1  0.75000000  0.99867343  0.75503805  1
loop_
_geom_bond_atom_site_label_1
_geom_bond_atom_site_label_2
_geom_bond_distance
_geom_bond_site_symmetry_2
Te0_0 Te0_4 3.156520 1_555
Te0_0 Te0_4 3.156520 1_455
Te0_0 Te3_0 3.179215 1_555
Te0_0 Te2_3 3.197742 1_555
Te0_0 Te2_1 3.211200 1_555
Te0_0 Te3_2 3.225899 1_545
Te0_1 Te0_5 3.156520 1_555
Te0_1 Te0_5 3.156520 1_455
Te0_1 Te3_1 3.179215 1_555
Te0_1 Te2_2 3.197742 1_556
Te0_1 Te2_0 3.211200 1_556
Te0_1 Te3_3 3.225899 1_545
Te0_2 Te0_6 3.156520 1_555
Te0_2 Te0_6 3.156520 1_455
Te0_2 Te3_2 3.179215 1_555
Te0_2 Te2_1 3.197742 1_565
Te0_2 Te2_3 3.211200 1_555
Te0_2 Te3_0 3.225899 1_555
Te0_3 Te0_7 3.156520 1_555
Te0_3 Te0_7 3.156520 1_455
Te0_3 Te3_3 3.179215 1_555
Te0_3 Te2_0 3.197742 1_566
Te0_3 Te2_2 3.211200 1_556
Te0_3 Te3_1 3.225899 1_555
Te0_4 Te3_4 3.179215 1_555
Te0_4 Te2_7 3.197742 1_555
Te0_4 Te2_5 3.211200 1_555
Te0_4 Te3_6 3.225899 1_545
Te0_5 Te3_5 3.179215 1_555
Te0_5 Te2_6 3.197742 1_556
Te0_5 Te2_4 3.211200 1_556
Te0_5 Te3_7 3.225899 1_545
Te0_6 Te3_6 3.179215 1_555
Te0_6 Te2_5 3.197742 1_565
Te0_6 Te2_7 3.211200 1_555
Te0_6 Te3_4 3.225899 1_555
Te0_7 Te3_7 3.179215 1_555
Te0_7 Te2_4 3.197742 1_566
Te0_7 Te2_6 3.211200 1_556
Te0_7 Te3_5 3.225899 1_555
Te1_0 Te1_4 3.156520 1_555
Te1_0 Te1_4 3.156520 1_455
Te1_0 Te2_0 3.179215 1_555
Te1_0 Te3_2 3.197742 1_545
Te1_0 Te3_0 3.211200 1_555
Te1_0 Te2_2 3.225899 1_555
Te1_1 Te1_5 3.156520 1_555
Te1_1 Te1_5 3.156520 1_455
Te1_1 Te2_1 3.179215 1_555
Te1_1 Te3_3 3.197742 1_545
Te1_1 Te3_1 3.211200 1_555
Te1_1 Te2_3 3.225899 1_555
Te1_2 Te1_6 3.156520 1_555
Te1_2 Te1_6 3.156520 1_455
Te1_2 Te2_2 3.179215 1_555
Te1_2 Te3_0 3.197742 1_555
Te1_2 Te3_2 3.211200 1_555
Te1_2 Te2_0 3.225899 1_565
Te1_3 Te1_7 3.156520 1_555
Te1_3 Te1_7 3.156520 1_455
Te1_3 Te2_3 3.179215 1_555
Te1_3 Te3_1 3.197742 1_555
Te1_3 Te3_3 3.211200 1_555
Te1_3 Te2_1 3.225899 1_565
Te1_4 Te2_4 3.179215 1_555
Te1_4 Te3_6 3.197742 1_545
Te1_4 Te3_4 3.211200 1_555
Te1_4 Te2_6 3.225899 1_555
Te1_5 Te2_5 3.179215 1_555
Te1_5 Te3_7 3.197742 1_545
Te1_5 Te3_5 3.211200 1_555
Te1_5 Te2_7 3.225899 1_555
Te1_6 Te2_6 3.179215 1_555
Te1_6 Te3_4 3.197742 1_555
Te1_6 Te3_6 3.211200 1_555
Te1_6 Te2_4 3.225899 1_565
Te1_7 Te2_7 3.179215 1_555
Te1_7 Te3_5 3.197742 1_555
Te1_7 Te3_7 3.211200 1_555
Te1_7 Te2_5 3.225899 1_565
Te2_0 Te2_4 3.156520 1_555
Te2_0 Te2_4 3.156520 1_455
Te2_1 Te2_5 3.156520 1_555
Te2_1 Te2_5 3.156520 1_455
Te2_2 Te2_6 3.156520 1_555
Te2_2 Te2_6 3.156520 1_455
Te2_3 Te2_7 3.156520 1_555
Te2_3 Te2_7 3.156520 1_455
Te3_0 Te3_4 3.156520 1_555
Te3_0 Te3_4 3.156520 1_455
Te3_1 Te3_5 3.156520 1_555
Te3_1 Te3_5 3.156520 1_455
Te3_2 Te3_6 3.156520 1_555
Te3_2 Te3_6 3.156520 1_455
Te3_3 Te3_7 3.156520 1_555
Te3_3 Te3_7 3.156520 1_455
