# generated using pymatgen
data_La2Sn4Ru
_symmetry_space_group_name_H-M   'P 1'
_cell_length_a   4.69049504
_cell_length_b   4.75949680
_cell_length_c   8.89010862
_cell_angle_alpha   74.62010401
_cell_angle_beta   90.01424046
_cell_angle_gamma   89.99934370
_symmetry_Int_Tables_number   1
_chemical_formula_structural   La2Sn4Ru
_chemical_formula_sum   'La2 Sn4 Ru1'
_cell_volume   191.35892845
_cell_formula_units_Z   1
loop_
 _symmetry_equiv_pos_site_id
 _symmetry_equiv_pos_as_xyz
  1  'x, y, z'
loop_
 _atom_site_type_symbol
 _atom_site_label
 _atom_site_symmetry_multiplicity
 _atom_site_fract_x
 _atom_site_fract_y
 _atom_site_fract_z
 _atom_site_occupancy
  La  La0  1  0.24995900  0.89865400  0.20536000  1
  La  La1  1  0.75050600  0.10489900  0.79459500  1
  Sn  Sn0  1  0.25023500  0.54159100  0.91338000  1
  Sn  Sn1  1  0.75012500  0.42716700  0.14942900  1
  Sn  Sn2  1  0.25026700  0.25931200  0.47748800  1
  Sn  Sn3  1  0.74950200  0.76157700  0.47859200  1
  Ru  Ru0  1  0.24940600  0.69180000  0.61115600  1
loop_
_geom_bond_atom_site_label_1
_geom_bond_atom_site_label_2
_geom_bond_distance
_geom_bond_site_symmetry_2
La0 Sn3 3.312499 1_555
La0 Sn3 3.316397 1_455
La0 Sn2 3.316938 1_565
La0 Sn2 3.347746 1_555
La0 Sn1 3.372077 1_455
La0 Sn1 3.373296 1_555
La0 Sn1 3.377444 1_465
La0 Sn1 3.378737 1_565
La0 Sn0 3.447968 1_564
La0 Sn0 3.459168 1_554
La0 La1 4.228624 1_464
La0 La1 4.232488 1_564
La1 Sn0 3.477410 1_655
La1 Sn0 3.479446 1_555
La1 Sn0 3.506326 1_645
La1 Sn0 3.508418 1_545
La1 Sn2 3.589820 1_655
La1 Sn2 3.590358 1_555
La1 Sn3 3.605169 1_545
La1 Sn3 3.606003 1_555
La1 Ru0 3.677503 1_655
La1 Ru0 3.683521 1_555
La1 Ru0 3.701862 1_645
La1 Ru0 3.707909 1_545
La1 Sn1 3.856179 1_556
La1 Sn1 3.867618 1_546
Sn0 Sn1 3.096673 1_556
Sn0 Sn1 3.098253 1_456
Ru0 Sn0 2.590589 1_555
Ru0 Sn3 2.605427 1_455
Ru0 Sn3 2.606772 1_555
Ru0 Sn2 2.635665 1_555
Ru0 Sn2 2.646763 1_565
