# generated using pymatgen
data_CuAs2H3OF13
_symmetry_space_group_name_H-M   'P 1'
_cell_length_a   14.63996800
_cell_length_b   7.01679500
_cell_length_c   10.70513800
_cell_angle_alpha   90.00000000
_cell_angle_beta   90.00000000
_cell_angle_gamma   90.00000000
_symmetry_Int_Tables_number   1
_chemical_formula_structural   CuAs2H3OF13
_chemical_formula_sum   'Cu4 As8 H12 O4 F52'
_cell_volume   1099.69230502
_cell_formula_units_Z   4
loop_
 _symmetry_equiv_pos_site_id
 _symmetry_equiv_pos_as_xyz
  1  'x, y, z'
loop_
 _atom_site_type_symbol
 _atom_site_label
 _atom_site_symmetry_multiplicity
 _atom_site_fract_x
 _atom_site_fract_y
 _atom_site_fract_z
 _atom_site_occupancy
  Cu  Cu0  1  0.00000000  0.00000000  0.00000000  1
  Cu  Cu1  1  0.50000000  0.50000000  0.50000000  1
  Cu  Cu2  1  0.00000000  0.50000000  0.00000000  1
  Cu  Cu3  1  0.50000000  0.00000000  0.50000000  1
  As  As0  1  0.14659600  0.25000000  0.74950700  1
  As  As1  1  0.64659600  0.25000000  0.75049300  1
  As  As2  1  0.85340400  0.75000000  0.25049300  1
  As  As3  1  0.35340400  0.75000000  0.24950700  1
  As  As4  1  0.90166100  0.75000000  0.73818700  1
  As  As5  1  0.40166100  0.75000000  0.76181300  1
  As  As6  1  0.09833900  0.25000000  0.26181300  1
  As  As7  1  0.59833900  0.25000000  0.23818700  1
  H  H0  1  0.15413100  0.62892900  0.58263600  1
  H  H1  1  0.65413100  0.87107100  0.91736400  1
  H  H2  1  0.84586900  0.12892900  0.41736400  1
  H  H3  1  0.34586900  0.37107100  0.08263600  1
  H  H4  1  0.84586900  0.37107100  0.41736400  1
  H  H5  1  0.34586900  0.12892900  0.08263600  1
  H  H6  1  0.15413100  0.87107100  0.58263600  1
  H  H7  1  0.65413100  0.62892900  0.91736400  1
  H  H8  1  0.08503400  0.75000000  0.49225700  1
  H  H9  1  0.58503400  0.75000000  0.00774300  1
  H  H10  1  0.91496600  0.25000000  0.50774300  1
  H  H11  1  0.41496600  0.25000000  0.99225700  1
  O  O0  1  0.14511300  0.75000000  0.53217900  1
  O  O1  1  0.64511300  0.75000000  0.96782100  1
  O  O2  1  0.85488700  0.25000000  0.46782100  1
  O  O3  1  0.35488700  0.25000000  0.03217900  1
  F  F0  1  0.90840900  0.93060100  0.86256900  1
  F  F1  1  0.40840900  0.56939900  0.63743100  1
  F  F2  1  0.09159100  0.43060100  0.13743100  1
  F  F3  1  0.59159100  0.06939900  0.36256900  1
  F  F4  1  0.09159100  0.06939900  0.13743100  1
  F  F5  1  0.59159100  0.43060100  0.36256900  1
  F  F6  1  0.90840900  0.56939900  0.86256900  1
  F  F7  1  0.40840900  0.93060100  0.63743100  1
  F  F8  1  0.12277600  0.06957200  0.86213500  1
  F  F9  1  0.62277600  0.43042800  0.63786500  1
  F  F10  1  0.87722400  0.56957200  0.13786500  1
  F  F11  1  0.37722400  0.93042800  0.36213500  1
  F  F12  1  0.87722400  0.93042800  0.13786500  1
  F  F13  1  0.37722400  0.56957200  0.36213500  1
  F  F14  1  0.12277600  0.43042800  0.86213500  1
  F  F15  1  0.62277600  0.06957200  0.63786500  1
  F  F16  1  0.04522800  0.75000000  0.01130100  1
  F  F17  1  0.54522800  0.75000000  0.48869900  1
  F  F18  1  0.95477200  0.25000000  0.98869900  1
  F  F19  1  0.45477200  0.25000000  0.51130100  1
  F  F20  1  0.26132000  0.25000000  0.79019000  1
  F  F21  1  0.76132000  0.25000000  0.70981000  1
  F  F22  1  0.73868000  0.75000000  0.20981000  1
  F  F23  1  0.23868000  0.75000000  0.29019000  1
  F  F24  1  0.17012600  0.42793100  0.63278600  1
  F  F25  1  0.67012600  0.07206900  0.86721400  1
  F  F26  1  0.82987400  0.92793100  0.36721400  1
  F  F27  1  0.32987400  0.57206900  0.13278600  1
  F  F28  1  0.82987400  0.57206900  0.36721400  1
  F  F29  1  0.32987400  0.92793100  0.13278600  1
  F  F30  1  0.17012600  0.07206900  0.63278600  1
  F  F31  1  0.67012600  0.42793100  0.86721400  1
  F  F32  1  0.03142200  0.25000000  0.70279000  1
  F  F33  1  0.53142200  0.25000000  0.79721000  1
  F  F34  1  0.96857800  0.75000000  0.29721000  1
  F  F35  1  0.46857800  0.75000000  0.20279000  1
  F  F36  1  0.89711500  0.56905700  0.62614400  1
  F  F37  1  0.39711500  0.93094300  0.87385600  1
  F  F38  1  0.10288500  0.06905700  0.37385600  1
  F  F39  1  0.60288500  0.43094300  0.12614400  1
  F  F40  1  0.10288500  0.43094300  0.37385600  1
  F  F41  1  0.60288500  0.06905700  0.12614400  1
  F  F42  1  0.89711500  0.93094300  0.62614400  1
  F  F43  1  0.39711500  0.56905700  0.87385600  1
  F  F44  1  0.02177400  0.75000000  0.73324800  1
  F  F45  1  0.52177400  0.75000000  0.76675200  1
  F  F46  1  0.97822600  0.25000000  0.26675200  1
  F  F47  1  0.47822600  0.25000000  0.23324800  1
  F  F48  1  0.78348400  0.75000000  0.75909100  1
  F  F49  1  0.28348400  0.75000000  0.74090900  1
  F  F50  1  0.21651600  0.25000000  0.24090900  1
  F  F51  1  0.71651600  0.25000000  0.25909100  1
loop_
_geom_bond_atom_site_label_1
_geom_bond_atom_site_label_2
_geom_bond_distance
_geom_bond_site_symmetry_2
Cu0 F16 1.878902 1_545
Cu0 F18 1.878902 1_454
Cu0 F4 2.049291 1_555
Cu0 F0 2.049291 1_444
Cu0 F8 2.376398 1_554
Cu0 F12 2.376398 1_445
Cu1 F17 1.878902 1_555
Cu1 F19 1.878902 1_555
Cu1 F5 2.049291 1_555
Cu1 F1 2.049291 1_555
Cu1 F9 2.376398 1_555
Cu1 F13 2.376398 1_555
Cu2 F16 1.878902 1_555
Cu2 F18 1.878902 1_454
Cu2 F2 2.049291 1_555
Cu2 F6 2.049291 1_454
Cu2 F14 2.376398 1_554
Cu2 F10 2.376398 1_455
Cu3 F17 1.878902 1_545
Cu3 F19 1.878902 1_555
Cu3 F3 2.049291 1_555
Cu3 F7 2.049291 1_545
Cu3 F15 2.376398 1_555
Cu3 F11 2.376398 1_545
As0 F20 1.735103 1_555
As0 F32 1.758747 1_555
As0 F8 1.782734 1_555
As0 F14 1.782734 1_555
As0 F30 1.799644 1_555
As0 F24 1.799644 1_555
As1 F21 1.735103 1_555
As1 F33 1.758747 1_555
As1 F15 1.782734 1_555
As1 F9 1.782734 1_555
As1 F31 1.799644 1_555
As1 F25 1.799644 1_555
As2 F22 1.735103 1_555
As2 F34 1.758747 1_555
As2 F12 1.782734 1_555
As2 F10 1.782734 1_555
As2 F26 1.799644 1_555
As2 F28 1.799644 1_555
As3 F23 1.735103 1_555
As3 F35 1.758747 1_555
As3 F11 1.782734 1_555
As3 F13 1.782734 1_555
As3 F29 1.799644 1_555
As3 F27 1.799644 1_555
As4 F48 1.744520 1_555
As4 F42 1.747873 1_555
As4 F36 1.747873 1_555
As4 F44 1.759245 1_655
As4 F6 1.840820 1_555
As4 F0 1.840820 1_555
As5 F49 1.744520 1_555
As5 F37 1.747873 1_555
As5 F43 1.747873 1_555
As5 F45 1.759245 1_555
As5 F1 1.840820 1_555
As5 F7 1.840820 1_555
As6 F50 1.744520 1_555
As6 F40 1.747873 1_555
As6 F38 1.747873 1_555
As6 F46 1.759245 1_455
As6 F2 1.840820 1_555
As6 F4 1.840820 1_555
As7 F51 1.744520 1_555
As7 F39 1.747873 1_555
As7 F41 1.747873 1_555
As7 F47 1.759245 1_555
As7 F5 1.840820 1_555
As7 F3 1.840820 1_555
H0 O0 1.015329 1_555
H1 O1 1.015329 1_555
H2 O2 1.015329 1_555
H3 O3 1.015329 1_555
H4 O2 1.015329 1_555
H5 O3 1.015329 1_555
H6 O0 1.015329 1_555
H7 O1 1.015329 1_555
H8 O0 0.977886 1_555
H9 O1 0.977886 1_554
H10 O2 0.977886 1_555
H11 O3 0.977886 1_556
F24 H0 1.527146 1_555
F25 H1 1.527146 1_545
F26 H2 1.527146 1_565
F27 H3 1.527146 1_555
F28 H4 1.527146 1_555
F29 H5 1.527146 1_565
F30 H6 1.527146 1_545
F31 H7 1.527146 1_555
