# generated using pymatgen
data_Ba3CaCuSi6O17
_symmetry_space_group_name_H-M   'P 1'
_cell_length_a   8.13606262
_cell_length_b   8.13606262
_cell_length_c   16.29708000
_cell_angle_alpha   90.00000000
_cell_angle_beta   90.00000000
_cell_angle_gamma   127.62127284
_symmetry_Int_Tables_number   1
_chemical_formula_structural   Ba3CaCuSi6O17
_chemical_formula_sum   'Ba6 Ca2 Cu2 Si12 O34'
_cell_volume   854.47255526
_cell_formula_units_Z   2
loop_
 _symmetry_equiv_pos_site_id
 _symmetry_equiv_pos_as_xyz
  1  'x, y, z'
loop_
 _atom_site_type_symbol
 _atom_site_label
 _atom_site_symmetry_multiplicity
 _atom_site_fract_x
 _atom_site_fract_y
 _atom_site_fract_z
 _atom_site_occupancy
  Ba  Ba0  1  0.98561000  0.49642000  0.61361200  1
  Ba  Ba1  1  0.50358000  0.01439000  0.38638800  1
  Ba  Ba2  1  0.50358000  0.01439000  0.11361200  1
  Ba  Ba3  1  0.98561000  0.49642000  0.88638800  1
  Ba  Ba4  1  0.02142600  0.03955400  0.25000000  1
  Ba  Ba5  1  0.96044600  0.97857400  0.75000000  1
  Ca  Ca0  1  0.99943700  0.00056300  0.00000000  1
  Ca  Ca1  1  0.99943700  0.00056300  0.50000000  1
  Cu  Cu0  1  0.52250700  0.47749300  0.00000000  1
  Cu  Cu1  1  0.52250700  0.47749300  0.50000000  1
  Si  Si0  1  0.65499000  0.41890700  0.25000000  1
  Si  Si1  1  0.58109300  0.34501000  0.75000000  1
  Si  Si2  1  0.43264100  0.60771400  0.25000000  1
  Si  Si3  1  0.39228600  0.56735900  0.75000000  1
  Si  Si4  1  0.13461600  0.39513100  0.08988500  1
  Si  Si5  1  0.60486900  0.86538400  0.91011500  1
  Si  Si6  1  0.60486900  0.86538400  0.58988500  1
  Si  Si7  1  0.13461600  0.39513100  0.41011500  1
  Si  Si8  1  0.93988700  0.62631500  0.09473300  1
  Si  Si9  1  0.37368500  0.06011300  0.90526700  1
  Si  Si10  1  0.37368500  0.06011300  0.59473300  1
  Si  Si11  1  0.93988700  0.62631500  0.40526700  1
  O  O0  1  0.23438900  0.37500300  0.00721900  1
  O  O1  1  0.62499700  0.76561100  0.99278100  1
  O  O2  1  0.62499700  0.76561100  0.50721900  1
  O  O3  1  0.23438900  0.37500300  0.49278100  1
  O  O4  1  0.29353100  0.46894500  0.16975300  1
  O  O5  1  0.53105500  0.70646900  0.83024700  1
  O  O6  1  0.53105500  0.70646900  0.66975300  1
  O  O7  1  0.29353100  0.46894500  0.33024700  1
  O  O8  1  0.11460700  0.58532700  0.07504100  1
  O  O9  1  0.41467300  0.88539300  0.92495900  1
  O  O10  1  0.41467300  0.88539300  0.57504100  1
  O  O11  1  0.11460700  0.58532700  0.42495900  1
  O  O12  1  0.51604600  0.84264200  0.25000000  1
  O  O13  1  0.15735800  0.48395400  0.75000000  1
  O  O14  1  0.81096700  0.57570700  0.01000700  1
  O  O15  1  0.42429300  0.18903300  0.98999300  1
  O  O16  1  0.42429300  0.18903300  0.51000700  1
  O  O17  1  0.81096700  0.57570700  0.48999300  1
  O  O18  1  0.63869400  0.61158900  0.25000000  1
  O  O19  1  0.38841100  0.36130600  0.75000000  1
  O  O20  1  0.06548100  0.86562400  0.12087200  1
  O  O21  1  0.13437600  0.93451900  0.87912800  1
  O  O22  1  0.13437600  0.93451900  0.62087200  1
  O  O23  1  0.06548100  0.86562400  0.37912800  1
  O  O24  1  0.79008800  0.45354100  0.16733100  1
  O  O25  1  0.54645900  0.20991200  0.83266900  1
  O  O26  1  0.54645900  0.20991200  0.66733100  1
  O  O27  1  0.79008800  0.45354100  0.33266900  1
  O  O28  1  0.44306900  0.18842300  0.25000000  1
  O  O29  1  0.81157700  0.55693100  0.75000000  1
  O  O30  1  0.91883700  0.17056200  0.10867200  1
  O  O31  1  0.82943800  0.08116300  0.89132800  1
  O  O32  1  0.82943800  0.08116300  0.60867200  1
  O  O33  1  0.91883700  0.17056200  0.39132800  1
loop_
_geom_bond_atom_site_label_1
_geom_bond_atom_site_label_2
_geom_bond_distance
_geom_bond_site_symmetry_2
Ba0 O13 2.660154 1_655
Ba0 O17 2.759148 1_555
Ba0 O32 2.791869 1_555
Ba0 O29 2.835288 1_555
Ba0 O26 2.966122 1_555
Ba0 O22 2.986098 1_655
Ba0 O10 3.018106 1_655
Ba0 O11 3.185968 1_655
Ba0 O3 3.375149 1_655
Ba1 O12 2.660154 1_545
Ba1 O16 2.759148 1_555
Ba1 O33 2.791869 1_555
Ba1 O28 2.835288 1_555
Ba1 O27 2.966122 1_555
Ba1 O23 2.986098 1_545
Ba1 O11 3.018106 1_545
Ba1 O10 3.185968 1_545
Ba1 O2 3.375149 1_545
Ba2 O12 2.660154 1_545
Ba2 O15 2.759148 1_554
Ba2 O30 2.791869 1_555
Ba2 O28 2.835288 1_555
Ba2 O24 2.966122 1_555
Ba2 O20 2.986098 1_545
Ba2 O8 3.018106 1_545
Ba2 O9 3.185968 1_544
Ba2 O1 3.375149 1_544
Ba3 O13 2.660154 1_655
Ba3 O14 2.759148 1_556
Ba3 O31 2.791869 1_555
Ba3 O29 2.835288 1_555
Ba3 O25 2.966122 1_555
Ba3 O21 2.986098 1_655
Ba3 O9 3.018106 1_655
Ba3 O8 3.185968 1_656
Ba3 O0 3.375149 1_656
Ba4 O23 2.679327 1_545
Ba4 O20 2.679327 1_545
Ba4 O28 2.857030 1_555
Ba4 O33 2.867726 1_455
Ba4 O30 2.867726 1_455
Ba4 O18 2.929693 1_445
Ba4 O7 3.061673 1_555
Ba4 O4 3.061673 1_555
Ba4 O12 3.380992 1_445
Ba5 O21 2.679327 1_655
Ba5 O22 2.679327 1_655
Ba5 O29 2.857030 1_555
Ba5 O32 2.867726 1_565
Ba5 O31 2.867726 1_565
Ba5 O19 2.929693 1_665
Ba5 O6 3.061673 1_555
Ba5 O5 3.061673 1_555
Ba5 O13 3.380992 1_665
Ca0 O1 2.416418 1_544
Ca0 O0 2.416418 1_655
Ca0 O20 2.468732 1_645
Ca0 O21 2.468732 1_644
Ca0 O31 2.566509 1_554
Ca0 O30 2.566509 1_555
Ca0 O14 2.802710 1_545
Ca0 O15 2.802710 1_654
Ca1 O2 2.416418 1_545
Ca1 O3 2.416418 1_655
Ca1 O23 2.468732 1_645
Ca1 O22 2.468732 1_645
Ca1 O33 2.566509 1_555
Ca1 O32 2.566509 1_555
Ca1 O17 2.802710 1_545
Ca1 O16 2.802710 1_655
Cu0 O1 1.953904 1_554
Cu0 O0 1.953904 1_555
Cu0 O15 1.970683 1_554
Cu0 O14 1.970683 1_555
Cu1 O2 1.953904 1_555
Cu1 O3 1.953904 1_555
Cu1 O16 1.970683 1_555
Cu1 O17 1.970683 1_555
O0 Si4 1.631887 1_555
O1 Si5 1.631887 1_555
O2 Si6 1.631887 1_555
O3 Si7 1.631887 1_555
O4 Si2 1.644970 1_555
O4 Si4 1.666906 1_555
O5 Si3 1.644970 1_555
O5 Si5 1.666906 1_555
O6 Si3 1.644970 1_555
O6 Si6 1.666906 1_555
O7 Si2 1.644970 1_555
O7 Si7 1.666906 1_555
O8 Si4 1.669483 1_555
O8 Si8 1.677414 1_455
O9 Si5 1.669483 1_555
O9 Si9 1.677414 1_565
O10 Si6 1.669483 1_555
O10 Si10 1.677414 1_565
O11 Si7 1.669483 1_555
O11 Si11 1.677414 1_455
O12 Si2 1.590709 1_555
O13 Si3 1.590709 1_555
O14 Si8 1.627582 1_555
O15 Si9 1.627582 1_555
O16 Si10 1.627582 1_555
O17 Si11 1.627582 1_555
O18 Si0 1.651949 1_555
O18 Si2 1.657403 1_555
O19 Si1 1.651949 1_555
O19 Si3 1.657403 1_555
O20 Si8 1.608588 1_455
O21 Si9 1.608588 1_565
O22 Si10 1.608588 1_565
O23 Si11 1.608588 1_455
O24 Si0 1.650620 1_555
O24 Si8 1.664201 1_555
O25 Si1 1.650620 1_555
O25 Si9 1.664201 1_555
O26 Si1 1.650620 1_555
O26 Si10 1.664201 1_555
O27 Si0 1.650620 1_555
O27 Si11 1.664201 1_555
O28 Si0 1.594342 1_555
O29 Si1 1.594342 1_555
O30 Si4 1.611834 1_655
O31 Si5 1.611834 1_545
O32 Si6 1.611834 1_545
O33 Si7 1.611834 1_655
