# generated using pymatgen
data_Na3Hf
_symmetry_space_group_name_H-M   'P 1'
_cell_length_a   6.92647362
_cell_length_b   6.92647362
_cell_length_c   5.64975800
_cell_angle_alpha   90.00000000
_cell_angle_beta   90.00000000
_cell_angle_gamma   119.99999634
_symmetry_Int_Tables_number   1
_chemical_formula_structural   Na3Hf
_chemical_formula_sum   'Na6 Hf2'
_cell_volume   234.73879027
_cell_formula_units_Z   2
loop_
 _symmetry_equiv_pos_site_id
 _symmetry_equiv_pos_as_xyz
  1  'x, y, z'
loop_
 _atom_site_type_symbol
 _atom_site_label
 _atom_site_symmetry_multiplicity
 _atom_site_fract_x
 _atom_site_fract_y
 _atom_site_fract_z
 _atom_site_occupancy
  Na  Na0  1  0.16787000  0.33573900  0.25000000  1
  Na  Na1  1  0.66426100  0.83213000  0.25000000  1
  Na  Na2  1  0.16787000  0.83213000  0.25000000  1
  Na  Na3  1  0.83213000  0.66426100  0.75000000  1
  Na  Na4  1  0.33573900  0.16787000  0.75000000  1
  Na  Na5  1  0.83213000  0.16787000  0.75000000  1
  Hf  Hf0  1  0.33333300  0.66666700  0.75000000  1
  Hf  Hf1  1  0.66666700  0.33333300  0.25000000  1
loop_
_geom_bond_atom_site_label_1
_geom_bond_atom_site_label_2
_geom_bond_distance
_geom_bond_site_symmetry_2
Na0 Na2 3.438239 1_555
Na0 Na1 3.438239 1_555
Na0 Na4 3.469270 1_555
Na0 Na4 3.469270 1_554
Na0 Na5 3.469277 1_455
Na0 Na5 3.469277 1_454
Na0 Na2 3.488234 1_545
Na0 Na1 3.488235 1_445
Na1 Na2 3.438239 1_555
Na1 Na3 3.469270 1_554
Na1 Na3 3.469270 1_555
Na1 Na5 3.469277 1_565
Na1 Na5 3.469277 1_564
Na1 Na2 3.488234 1_655
Na2 Na3 3.469277 1_455
Na2 Na3 3.469277 1_454
Na2 Na4 3.469277 1_564
Na2 Na4 3.469277 1_565
Na3 Na5 3.438239 1_555
Na3 Na4 3.438239 1_555
Na3 Na5 3.488234 1_565
Na3 Na4 3.488235 1_665
Na4 Na5 3.438239 1_555
Na4 Na5 3.488234 1_455
Hf0 Na2 3.452594 1_555
Hf0 Na2 3.452594 1_556
Hf0 Na1 3.452601 1_556
Hf0 Na1 3.452601 1_555
Hf0 Na0 3.452601 1_555
Hf0 Na0 3.452601 1_556
Hf0 Na3 3.463267 1_555
Hf0 Na4 3.463267 1_555
Hf0 Na3 3.463267 1_455
Hf0 Na4 3.463267 1_565
Hf0 Na5 3.463267 1_455
Hf0 Na5 3.463267 1_565
Hf1 Na5 3.452594 1_554
Hf1 Na5 3.452594 1_555
Hf1 Na3 3.452601 1_555
Hf1 Na4 3.452601 1_555
Hf1 Na4 3.452601 1_554
Hf1 Na3 3.452601 1_554
Hf1 Na0 3.463267 1_555
Hf1 Na1 3.463267 1_555
Hf1 Na0 3.463267 1_655
Hf1 Na1 3.463267 1_545
Hf1 Na2 3.463267 1_655
Hf1 Na2 3.463267 1_545
