# generated using pymatgen
data_BaLi2MnV2O8
_symmetry_space_group_name_H-M   'P 1'
_cell_length_a   5.35145904
_cell_length_b   9.13787040
_cell_length_c   9.12853731
_cell_angle_alpha   61.04528758
_cell_angle_beta   72.95561526
_cell_angle_gamma   73.00019056
_symmetry_Int_Tables_number   1
_chemical_formula_structural   BaLi2MnV2O8
_chemical_formula_sum   'Ba2 Li4 Mn2 V4 O16'
_cell_volume   367.35007136
_cell_formula_units_Z   2
loop_
 _symmetry_equiv_pos_site_id
 _symmetry_equiv_pos_as_xyz
  1  'x, y, z'
loop_
 _atom_site_type_symbol
 _atom_site_label
 _atom_site_symmetry_multiplicity
 _atom_site_fract_x
 _atom_site_fract_y
 _atom_site_fract_z
 _atom_site_occupancy
  Ba  Ba0  1  0.75018600  0.25008600  0.24979100  1
  Ba  Ba1  1  0.24995600  0.75011300  0.74988900  1
  Li  Li0  1  0.61860900  0.71440500  0.04812400  1
  Li  Li1  1  0.11874200  0.21440600  0.54807500  1
  Li  Li2  1  0.38122900  0.28561500  0.95193100  1
  Li  Li3  1  0.88131300  0.78561400  0.45188100  1
  Mn  Mn0  1  0.50092000  0.49971300  0.50018200  1
  Mn  Mn1  1  0.99956000  0.00002600  0.99982300  1
  V  V0  1  0.12666500  0.53970200  0.20704900  1
  V  V1  1  0.62659100  0.03968800  0.70702700  1
  V  V2  1  0.87338800  0.46033800  0.79300400  1
  V  V3  1  0.37328400  0.96028100  0.29299900  1
  O  O0  1  0.24379800  0.42329500  0.09018800  1
  O  O1  1  0.74376800  0.92328900  0.59021100  1
  O  O2  1  0.75621100  0.57671900  0.90980100  1
  O  O3  1  0.25616900  0.07672200  0.40985300  1
  O  O4  1  0.77453900  0.26211700  0.92245200  1
  O  O5  1  0.27462000  0.76208200  0.42248100  1
  O  O6  1  0.22051800  0.44163800  0.74284200  1
  O  O7  1  0.72041200  0.94162600  0.24289700  1
  O  O8  1  0.72858800  0.57474500  0.60987600  1
  O  O9  1  0.22849500  0.07468300  0.10993000  1
  O  O10  1  0.22520200  0.73792700  0.07749900  1
  O  O11  1  0.72546600  0.23784200  0.57758800  1
  O  O12  1  0.77945600  0.55836500  0.25717200  1
  O  O13  1  0.27942400  0.05837200  0.75718100  1
  O  O14  1  0.27149800  0.42532400  0.39011500  1
  O  O15  1  0.77139100  0.92526700  0.89013800  1
loop_
_geom_bond_atom_site_label_1
_geom_bond_atom_site_label_2
_geom_bond_distance
_geom_bond_site_symmetry_2
Ba0 O12 2.900451 1_555
Ba0 O7 2.900771 1_545
Ba0 O9 2.901287 1_655
Ba0 O4 2.901721 1_554
Ba0 O14 2.903620 1_555
Ba0 O11 2.904542 1_555
Ba0 O0 3.089532 1_555
Ba0 O3 3.089711 1_655
Ba0 O0 3.092158 1_655
Ba0 O2 3.093617 1_554
Ba0 O3 3.094678 1_555
Ba0 O1 3.096430 1_545
Ba1 O13 2.900221 1_565
Ba1 O6 2.900998 1_555
Ba1 O5 2.902194 1_555
Ba1 O15 2.902534 1_455
Ba1 O8 2.902770 1_555
Ba1 O10 2.903030 1_556
Ba1 O1 3.088927 1_455
Ba1 O2 3.090319 1_555
Ba1 O1 3.092905 1_555
Ba1 O2 3.093601 1_455
Ba1 O3 3.093734 1_565
Ba1 O0 3.095935 1_556
Li0 O15 2.000104 1_554
Li0 O10 2.002662 1_555
Li0 O12 2.006575 1_555
Li0 O2 2.042292 1_554
Li1 O14 2.000381 1_555
Li1 O11 2.001927 1_455
Li1 O13 2.006515 1_555
Li1 O3 2.041531 1_555
Li2 O9 2.000467 1_556
Li2 O4 2.002067 1_555
Li2 O6 2.006466 1_555
Li2 O0 2.041760 1_556
Li3 O8 2.000016 1_555
Li3 O5 2.002097 1_655
Li3 O7 2.006260 1_555
Li3 O1 2.042263 1_555
Mn0 O12 2.192625 1_555
Mn0 O6 2.195218 1_555
Mn0 O8 2.196719 1_555
Mn0 O11 2.201961 1_555
Mn0 O14 2.202588 1_555
Mn0 O5 2.208386 1_555
Mn1 O13 2.193670 1_655
Mn1 O7 2.194629 1_546
Mn1 O15 2.197014 1_545
Mn1 O9 2.202530 1_656
Mn1 O4 2.204346 1_555
Mn1 O10 2.205353 1_646
O0 V0 1.726038 1_555
O1 V1 1.725647 1_565
O2 V2 1.725373 1_555
O3 V3 1.726238 1_545
O4 V2 1.754560 1_555
O5 V3 1.754025 1_555
O6 V2 1.755344 1_455
O7 V3 1.755371 1_555
O8 V2 1.755419 1_555
O9 V3 1.754960 1_545
O10 V0 1.753992 1_555
O11 V1 1.754123 1_555
O12 V0 1.755777 1_655
O13 V1 1.755546 1_555
O14 V0 1.755065 1_555
O15 V1 1.755297 1_565
