# generated using pymatgen
data_Na2MnPHO3F4
_symmetry_space_group_name_H-M   'P 1'
_cell_length_a   5.85093182
_cell_length_b   7.04901609
_cell_length_c   7.97381507
_cell_angle_alpha   89.98516779
_cell_angle_beta   90.00537463
_cell_angle_gamma   108.94246934
_symmetry_Int_Tables_number   1
_chemical_formula_structural   Na2MnPHO3F4
_chemical_formula_sum   'Na4 Mn2 P2 H2 O6 F8'
_cell_volume   311.05676942
_cell_formula_units_Z   2
loop_
 _symmetry_equiv_pos_site_id
 _symmetry_equiv_pos_as_xyz
  1  'x, y, z'
loop_
 _atom_site_type_symbol
 _atom_site_label
 _atom_site_symmetry_multiplicity
 _atom_site_fract_x
 _atom_site_fract_y
 _atom_site_fract_z
 _atom_site_occupancy
  Na  Na0  1  0.49998400  0.00000500  0.50000500  1
  Na  Na1  1  0.49999300  0.00002500  0.00000100  1
  Na  Na2  1  0.48094600  0.45909300  0.74995100  1
  Na  Na3  1  0.51910000  0.54090600  0.25004400  1
  Mn  Mn0  1  0.99993700  0.49995700  0.00004500  1
  Mn  Mn1  1  0.00003100  0.50004400  0.49999200  1
  P  P0  1  0.95590600  0.88109200  0.74990800  1
  P  P1  1  0.04410200  0.11890900  0.25010800  1
  H  H0  1  0.91525200  0.18569800  0.74995500  1
  H  H1  1  0.08473700  0.81428600  0.25003200  1
  O  O0  1  0.81025600  0.03509300  0.74988900  1
  O  O1  1  0.18972700  0.96488500  0.25010900  1
  O  O2  1  0.91987300  0.76560500  0.58880100  1
  O  O3  1  0.08008900  0.23441900  0.08897100  1
  O  O4  1  0.08010000  0.23439500  0.41120600  1
  O  O5  1  0.91996400  0.76556600  0.91103400  1
  F  F0  1  0.06144800  0.39478800  0.74998600  1
  F  F1  1  0.93855300  0.60521000  0.25000800  1
  F  F2  1  0.23569500  0.02957600  0.74987800  1
  F  F3  1  0.76429400  0.97043000  0.25010000  1
  F  F4  1  0.63248300  0.33521900  0.51722800  1
  F  F5  1  0.36752000  0.66481000  0.01728700  1
  F  F6  1  0.36757500  0.66481400  0.48274500  1
  F  F7  1  0.63243700  0.33517600  0.98271500  1
loop_
_geom_bond_atom_site_label_1
_geom_bond_atom_site_label_2
_geom_bond_distance
_geom_bond_site_symmetry_2
Na0 O1 2.652346 1_545
Na0 O0 2.652360 1_555
Na1 O1 2.653792 1_545
Na1 O0 2.653870 1_554
Mn0 O3 2.189849 1_655
Mn0 O5 2.190016 1_554
Mn1 O2 2.190056 1_455
Mn1 O4 2.190314 1_555
H0 O0 1.039715 1_555
H1 O1 1.039671 1_555
O0 P0 1.582802 1_545
O1 P1 1.582831 1_565
O2 P0 1.498838 1_555
O3 P1 1.498806 1_555
O4 P1 1.498780 1_555
O5 P0 1.498796 1_555
F0 H0 1.444121 1_455
F0 Mn1 2.196699 1_555
F0 Mn0 2.197490 1_456
F0 Na2 2.346805 1_555
F1 H1 1.444021 1_655
F1 Mn1 2.196476 1_655
F1 Mn0 2.196823 1_555
F1 Na3 2.346547 1_555
F2 P0 1.631855 1_445
F2 Na0 2.571865 1_555
F2 Na1 2.573096 1_556
F3 P1 1.631932 1_665
F3 Na0 2.572148 1_565
F3 Na1 2.573044 1_565
F4 Mn1 2.090753 1_655
F4 Na0 2.239228 1_555
F4 Na2 2.344344 1_555
F4 Na3 2.775574 1_555
F5 Mn0 2.090987 1_455
F5 Na1 2.239199 1_565
F5 Na3 2.344300 1_555
F5 Na2 2.777406 1_554
F6 Mn1 2.090653 1_555
F6 Na0 2.239091 1_565
F6 Na3 2.344289 1_555
F6 Na2 2.775824 1_555
F7 Mn0 2.090508 1_556
F7 Na1 2.238773 1_556
F7 Na2 2.344129 1_555
F7 Na3 2.777205 1_556
