# generated using pymatgen
data_Bi2P3(PbO4)3
_symmetry_space_group_name_H-M   'P 1'
_cell_length_a   9.78698556
_cell_length_b   9.78698556
_cell_length_c   7.51100400
_cell_angle_alpha   90.00000000
_cell_angle_beta   90.00000000
_cell_angle_gamma   119.99999706
_symmetry_Int_Tables_number   1
_chemical_formula_structural   Bi2P3(PbO4)3
_chemical_formula_sum   'Bi4 P6 Pb6 O24'
_cell_volume   623.05521202
_cell_formula_units_Z   2
loop_
 _symmetry_equiv_pos_site_id
 _symmetry_equiv_pos_as_xyz
  1  'x, y, z'
loop_
 _atom_site_type_symbol
 _atom_site_label
 _atom_site_symmetry_multiplicity
 _atom_site_fract_x
 _atom_site_fract_y
 _atom_site_fract_z
 _atom_site_occupancy
  Bi  Bi0  1  0.33333300  0.66666700  0.99869400  1
  Bi  Bi1  1  0.66666700  0.33333300  0.00130600  1
  Bi  Bi2  1  0.66666700  0.33333300  0.49869400  1
  Bi  Bi3  1  0.33333300  0.66666700  0.50130600  1
  P  P0  1  0.40398400  0.03184800  0.25000000  1
  P  P1  1  0.59601600  0.96815200  0.75000000  1
  P  P2  1  0.96815200  0.37213600  0.25000000  1
  P  P3  1  0.03184800  0.62786400  0.75000000  1
  P  P4  1  0.62786400  0.59601600  0.25000000  1
  P  P5  1  0.37213600  0.40398400  0.75000000  1
  Pb  Pb0  1  0.22103600  0.22541400  0.25000000  1
  Pb  Pb1  1  0.77896400  0.77458600  0.75000000  1
  Pb  Pb2  1  0.77458600  0.99562200  0.25000000  1
  Pb  Pb3  1  0.22541400  0.00437800  0.75000000  1
  Pb  Pb4  1  0.00437800  0.77896400  0.25000000  1
  Pb  Pb5  1  0.99562200  0.22103600  0.75000000  1
  O  O0  1  0.34434000  0.07895500  0.08173700  1
  O  O1  1  0.65566000  0.92104500  0.91826300  1
  O  O2  1  0.92104500  0.26538500  0.08173700  1
  O  O3  1  0.65566000  0.92104500  0.58173700  1
  O  O4  1  0.07895500  0.73461500  0.91826300  1
  O  O5  1  0.34434000  0.07895500  0.41826300  1
  O  O6  1  0.73461500  0.65566000  0.08173700  1
  O  O7  1  0.07895500  0.73461500  0.58173700  1
  O  O8  1  0.26538500  0.34434000  0.91826300  1
  O  O9  1  0.92104500  0.26538500  0.41826300  1
  O  O10  1  0.26538500  0.34434000  0.58173700  1
  O  O11  1  0.73461500  0.65566000  0.41826300  1
  O  O12  1  0.59077000  0.13667700  0.25000000  1
  O  O13  1  0.40923000  0.86332300  0.75000000  1
  O  O14  1  0.86332300  0.45409300  0.25000000  1
  O  O15  1  0.13667700  0.54590700  0.75000000  1
  O  O16  1  0.54590700  0.40923000  0.25000000  1
  O  O17  1  0.45409300  0.59077000  0.75000000  1
  O  O18  1  0.14709500  0.49939400  0.25000000  1
  O  O19  1  0.85290500  0.50060600  0.75000000  1
  O  O20  1  0.50060600  0.64770000  0.25000000  1
  O  O21  1  0.49939400  0.35230000  0.75000000  1
  O  O22  1  0.35230000  0.85290500  0.25000000  1
  O  O23  1  0.64770000  0.14709500  0.75000000  1
loop_
_geom_bond_atom_site_label_1
_geom_bond_atom_site_label_2
_geom_bond_distance
_geom_bond_site_symmetry_2
Bi0 O13 2.513099 1_555
Bi0 O15 2.513099 1_555
Bi0 O17 2.513105 1_555
Bi0 O22 2.565397 1_556
Bi0 O18 2.565402 1_556
Bi0 O20 2.565410 1_556
Bi1 O12 2.513099 1_555
Bi1 O14 2.513099 1_555
Bi1 O16 2.513105 1_555
Bi1 O23 2.565397 1_554
Bi1 O19 2.565402 1_554
Bi1 O21 2.565410 1_554
Bi2 O12 2.513099 1_555
Bi2 O14 2.513099 1_555
Bi2 O16 2.513105 1_555
Bi2 O23 2.565397 1_555
Bi2 O19 2.565402 1_555
Bi2 O21 2.565410 1_555
Bi3 O13 2.513099 1_555
Bi3 O15 2.513099 1_555
Bi3 O17 2.513105 1_555
Bi3 O22 2.565397 1_555
Bi3 O18 2.565402 1_555
Bi3 O20 2.565410 1_555
O0 P0 1.555530 1_555
O0 Pb0 2.614947 1_555
O0 Pb3 2.691911 1_554
O1 P1 1.555530 1_555
O1 Pb1 2.614947 1_555
O1 Pb2 2.691911 1_556
O2 P2 1.555530 1_555
O2 Pb2 2.614947 1_545
O2 Pb5 2.691911 1_554
O3 P1 1.555530 1_555
O3 Pb1 2.614947 1_555
O3 Pb2 2.691911 1_555
O4 P3 1.555530 1_555
O4 Pb3 2.614947 1_565
O4 Pb4 2.691911 1_556
O5 P0 1.555530 1_555
O5 Pb0 2.614947 1_555
O5 Pb3 2.691911 1_555
O6 P4 1.555530 1_555
O6 Pb4 2.614947 1_655
O6 Pb1 2.691911 1_554
O7 P3 1.555530 1_555
O7 Pb3 2.614947 1_565
O7 Pb4 2.691911 1_555
O8 P5 1.555530 1_555
O8 Pb5 2.614947 1_455
O8 Pb0 2.691911 1_556
O9 P2 1.555530 1_555
O9 Pb2 2.614947 1_545
O9 Pb5 2.691911 1_555
O10 P5 1.555530 1_555
O10 Pb5 2.614947 1_455
O10 Pb0 2.691911 1_555
O11 P4 1.555530 1_555
O11 Pb4 2.614947 1_655
O11 Pb1 2.691911 1_555
O12 P0 1.587108 1_555
O12 Pb2 2.761474 1_545
O13 P1 1.587108 1_555
O13 Pb3 2.761474 1_565
O14 P2 1.587108 1_555
O14 Pb4 2.761474 1_655
O15 P3 1.587108 1_555
O15 Pb5 2.761474 1_455
O16 P4 1.587108 1_555
O16 Pb0 2.761474 1_555
O17 P5 1.587108 1_555
O17 Pb1 2.761474 1_555
O18 P2 1.561117 1_455
O19 P3 1.561117 1_655
O20 P4 1.561110 1_555
O21 P5 1.561110 1_555
O22 P0 1.561119 1_565
O23 P1 1.561119 1_545
