# generated using pymatgen
data_Yb2Ge6Pd
_symmetry_space_group_name_H-M   'P 1'
_cell_length_a   5.75326783
_cell_length_b   5.75326783
_cell_length_c   22.55508100
_cell_angle_alpha   90.00000000
_cell_angle_beta   90.00000000
_cell_angle_gamma   91.49928838
_symmetry_Int_Tables_number   1
_chemical_formula_structural   Yb2Ge6Pd
_chemical_formula_sum   'Yb8 Ge24 Pd4'
_cell_volume   746.31963854
_cell_formula_units_Z   4
loop_
 _symmetry_equiv_pos_site_id
 _symmetry_equiv_pos_as_xyz
  1  'x, y, z'
loop_
 _atom_site_type_symbol
 _atom_site_label
 _atom_site_symmetry_multiplicity
 _atom_site_fract_x
 _atom_site_fract_y
 _atom_site_fract_z
 _atom_site_occupancy
  Yb  Yb0  1  0.62503100  0.12597500  0.08493200  1
  Yb  Yb1  1  0.87496900  0.37402500  0.58493200  1
  Yb  Yb2  1  0.62597500  0.12503100  0.41506800  1
  Yb  Yb3  1  0.87402500  0.37496900  0.91506800  1
  Yb  Yb4  1  0.37496900  0.87402500  0.91506800  1
  Yb  Yb5  1  0.12503100  0.62597500  0.41506800  1
  Yb  Yb6  1  0.37402500  0.87496900  0.58493200  1
  Yb  Yb7  1  0.12597500  0.62503100  0.08493200  1
  Ge  Ge0  1  0.59629900  0.59629900  0.80547600  1
  Ge  Ge1  1  0.90370100  0.90370100  0.30547600  1
  Ge  Ge2  1  0.09629900  0.09629900  0.69452400  1
  Ge  Ge3  1  0.40370100  0.40370100  0.19452400  1
  Ge  Ge4  1  0.65214200  0.65214200  0.69426500  1
  Ge  Ge5  1  0.84785800  0.84785800  0.19426500  1
  Ge  Ge6  1  0.15214200  0.15214200  0.80573500  1
  Ge  Ge7  1  0.34785800  0.34785800  0.30573500  1
  Ge  Ge8  1  0.87066600  0.87066600  0.96974900  1
  Ge  Ge9  1  0.62933400  0.62933400  0.46974900  1
  Ge  Ge10  1  0.37066600  0.37066600  0.53025100  1
  Ge  Ge11  1  0.12933400  0.12933400  0.03025100  1
  Ge  Ge12  1  0.85156600  0.39968900  0.19492800  1
  Ge  Ge13  1  0.64843400  0.10031100  0.69492800  1
  Ge  Ge14  1  0.89968900  0.35156600  0.30507200  1
  Ge  Ge15  1  0.60031100  0.14843400  0.80507200  1
  Ge  Ge16  1  0.14843400  0.60031100  0.80507200  1
  Ge  Ge17  1  0.35156600  0.89968900  0.30507200  1
  Ge  Ge18  1  0.10031100  0.64843400  0.69492800  1
  Ge  Ge19  1  0.39968900  0.85156600  0.19492800  1
  Ge  Ge20  1  0.12170700  0.12170700  0.46431200  1
  Ge  Ge21  1  0.37829300  0.37829300  0.96431200  1
  Ge  Ge22  1  0.62170700  0.62170700  0.03568800  1
  Ge  Ge23  1  0.87829300  0.87829300  0.53568800  1
  Pd  Pd0  1  0.87427300  0.87427300  0.85944800  1
  Pd  Pd1  1  0.62572700  0.62572700  0.35944800  1
  Pd  Pd2  1  0.37427300  0.37427300  0.64055200  1
  Pd  Pd3  1  0.12572700  0.12572700  0.14055200  1
loop_
_geom_bond_atom_site_label_1
_geom_bond_atom_site_label_2
_geom_bond_distance
_geom_bond_site_symmetry_2
Ge0 Pd0 2.542311 1_555
Ge0 Ge4 2.548132 1_555
Ge0 Ge15 2.577411 1_555
Ge0 Ge16 2.577411 1_555
Ge0 Yb3 3.223521 1_555
Ge0 Yb4 3.223521 1_555
Ge1 Pd1 2.542311 1_555
Ge1 Ge5 2.548132 1_555
Ge1 Ge14 2.577411 1_565
Ge1 Ge17 2.577411 1_655
Ge1 Yb2 3.223521 1_565
Ge1 Yb5 3.223521 1_655
Ge2 Pd2 2.542311 1_555
Ge2 Ge6 2.548132 1_555
Ge2 Yb6 3.223521 1_545
Ge2 Yb1 3.223521 1_455
Ge3 Pd3 2.542311 1_555
Ge3 Ge7 2.548132 1_555
Ge3 Yb0 3.223521 1_555
Ge3 Yb7 3.223521 1_555
Ge4 Pd2 2.538778 1_555
Ge4 Yb1 3.223711 1_555
Ge4 Yb6 3.223711 1_555
Ge5 Pd3 2.538778 1_665
Ge5 Yb7 3.223711 1_655
Ge5 Yb0 3.223711 1_565
Ge6 Pd0 2.538778 1_445
Ge6 Yb4 3.223711 1_545
Ge6 Yb3 3.223711 1_455
Ge7 Pd1 2.538778 1_555
Ge7 Yb2 3.223711 1_555
Ge7 Yb5 3.223711 1_555
Ge8 Pd0 2.488017 1_555
Ge8 Yb4 3.107664 1_555
Ge8 Yb3 3.107664 1_555
Ge8 Yb4 3.152240 1_655
Ge8 Yb3 3.152240 1_565
Ge8 Yb0 3.318543 1_566
Ge8 Yb7 3.318543 1_656
Ge9 Pd1 2.488017 1_555
Ge9 Yb2 3.107664 1_565
Ge9 Yb5 3.107664 1_655
Ge9 Yb5 3.152240 1_555
Ge9 Yb2 3.152240 1_555
Ge9 Yb6 3.318543 1_555
Ge9 Yb1 3.318543 1_555
Ge10 Ge9 2.485098 1_555
Ge10 Pd2 2.488017 1_555
Ge10 Ge20 2.491528 1_555
Ge10 Yb1 3.107664 1_455
Ge10 Yb6 3.107664 1_545
Ge10 Yb1 3.152240 1_555
Ge10 Yb6 3.152240 1_555
Ge10 Yb5 3.318543 1_555
Ge10 Yb2 3.318543 1_555
Ge11 Ge8 2.485098 1_444
Ge11 Pd3 2.488017 1_555
Ge11 Ge21 2.491528 1_554
Ge11 Yb0 3.107664 1_555
Ge11 Yb7 3.107664 1_555
Ge11 Yb7 3.152240 1_545
Ge11 Yb0 3.152240 1_455
Ge11 Yb4 3.318543 1_544
Ge11 Yb3 3.318543 1_454
Ge12 Ge14 2.515770 1_555
Ge12 Pd3 2.570324 1_655
Ge12 Ge3 2.577411 1_555
Ge12 Ge5 2.579126 1_555
Ge12 Yb7 3.197083 1_655
Ge12 Yb0 3.197855 1_555
Ge13 Ge15 2.515770 1_555
Ge13 Pd2 2.570324 1_555
Ge13 Ge2 2.577411 1_655
Ge13 Ge4 2.579126 1_545
Ge13 Yb6 3.197083 1_545
Ge13 Yb1 3.197855 1_555
Ge14 Pd1 2.570324 1_555
Ge14 Ge7 2.579126 1_655
Ge14 Yb5 3.197083 1_655
Ge14 Yb2 3.197855 1_555
Ge15 Pd0 2.570324 1_545
Ge15 Ge6 2.579126 1_555
Ge15 Yb4 3.197083 1_545
Ge15 Yb3 3.197855 1_555
Ge16 Ge18 2.515770 1_555
Ge16 Pd0 2.570324 1_455
Ge16 Ge6 2.579126 1_555
Ge16 Yb3 3.197083 1_455
Ge16 Yb4 3.197855 1_555
Ge17 Ge19 2.515770 1_555
Ge17 Pd1 2.570324 1_555
Ge17 Ge7 2.579126 1_565
Ge17 Yb2 3.197083 1_565
Ge17 Yb5 3.197855 1_555
Ge18 Pd2 2.570324 1_555
Ge18 Ge2 2.577411 1_565
Ge18 Ge4 2.579126 1_455
Ge18 Yb1 3.197083 1_455
Ge18 Yb6 3.197855 1_555
Ge19 Pd3 2.570324 1_565
Ge19 Ge3 2.577411 1_555
Ge19 Ge5 2.579126 1_555
Ge19 Yb0 3.197083 1_565
Ge19 Yb7 3.197855 1_555
Ge20 Ge23 2.532096 1_445
Ge20 Yb2 3.061247 1_455
Ge20 Yb5 3.061247 1_545
Ge20 Yb5 3.106126 1_555
Ge20 Yb2 3.106126 1_555
Ge20 Yb1 3.410555 1_455
Ge20 Yb6 3.410555 1_545
Ge21 Ge22 2.532096 1_556
Ge21 Yb3 3.061247 1_555
Ge21 Yb4 3.061247 1_555
Ge21 Yb3 3.106126 1_455
Ge21 Yb4 3.106126 1_545
Ge21 Yb0 3.410555 1_556
Ge21 Yb7 3.410555 1_556
Ge22 Ge8 2.491528 1_554
Ge22 Yb7 3.061247 1_555
Ge22 Yb0 3.061247 1_555
Ge22 Yb7 3.106126 1_655
Ge22 Yb0 3.106126 1_565
Ge22 Yb4 3.410555 1_554
Ge22 Yb3 3.410555 1_554
Ge23 Ge9 2.491528 1_555
Ge23 Yb1 3.061247 1_565
Ge23 Yb6 3.061247 1_655
Ge23 Yb1 3.106126 1_555
Ge23 Yb6 3.106126 1_555
Ge23 Yb2 3.410555 1_565
Ge23 Yb5 3.410555 1_655
Pd0 Yb3 3.134580 1_555
Pd0 Yb4 3.134580 1_555
Pd0 Yb4 3.141989 1_655
Pd0 Yb3 3.141989 1_565
Pd1 Yb2 3.134580 1_565
Pd1 Yb5 3.134580 1_655
Pd1 Yb5 3.141989 1_555
Pd1 Yb2 3.141989 1_555
Pd2 Yb6 3.134580 1_545
Pd2 Yb1 3.134580 1_455
Pd2 Yb1 3.141989 1_555
Pd2 Yb6 3.141989 1_555
Pd3 Yb0 3.134580 1_555
Pd3 Yb7 3.134580 1_555
Pd3 Yb0 3.141989 1_455
Pd3 Yb7 3.141989 1_545
