# generated using pymatgen
data_AlCo4(CuO4)3
_symmetry_space_group_name_H-M   'P 1'
_cell_length_a   6.16653216
_cell_length_b   6.16653216
_cell_length_c   6.16653216
_cell_angle_alpha   109.47122063
_cell_angle_beta   109.47122063
_cell_angle_gamma   109.47122063
_symmetry_Int_Tables_number   1
_chemical_formula_structural   AlCo4(CuO4)3
_chemical_formula_sum   'Al1 Co4 Cu3 O12'
_cell_volume   180.50993537
_cell_formula_units_Z   1
loop_
 _symmetry_equiv_pos_site_id
 _symmetry_equiv_pos_as_xyz
  1  'x, y, z'
loop_
 _atom_site_type_symbol
 _atom_site_label
 _atom_site_symmetry_multiplicity
 _atom_site_fract_x
 _atom_site_fract_y
 _atom_site_fract_z
 _atom_site_occupancy
  Al  Al0  1  0.00000000  0.00000000  0.00000000  1
  Co  Co0  1  0.00000000  0.00000000  0.50000000  1
  Co  Co1  1  0.00000000  0.50000000  0.00000000  1
  Co  Co2  1  0.50000000  0.00000000  0.00000000  1
  Co  Co3  1  0.50000000  0.50000000  0.50000000  1
  Cu  Cu0  1  0.00000000  0.50000000  0.50000000  1
  Cu  Cu1  1  0.50000000  0.00000000  0.50000000  1
  Cu  Cu2  1  0.50000000  0.50000000  0.00000000  1
  O  O0  1  0.29208400  0.12726600  0.83518200  1
  O  O1  1  0.70791600  0.87273400  0.16481800  1
  O  O2  1  0.70791600  0.54309800  0.83518200  1
  O  O3  1  0.45690200  0.16481800  0.29208400  1
  O  O4  1  0.16481800  0.29208400  0.45690200  1
  O  O5  1  0.83518200  0.29208400  0.12726600  1
  O  O6  1  0.87273400  0.16481800  0.70791600  1
  O  O7  1  0.83518200  0.70791600  0.54309800  1
  O  O8  1  0.29208400  0.45690200  0.16481800  1
  O  O9  1  0.54309800  0.83518200  0.70791600  1
  O  O10  1  0.16481800  0.70791600  0.87273400  1
  O  O11  1  0.12726600  0.83518200  0.29208400  1
loop_
_geom_bond_atom_site_label_1
_geom_bond_atom_site_label_2
_geom_bond_distance
_geom_bond_site_symmetry_2
Al0 O8 2.388054 1_555
Al0 O4 2.388054 1_555
Al0 O7 2.388054 1_444
Al0 O5 2.388054 1_455
Al0 O6 2.388054 1_454
Al0 O1 2.388054 1_445
Al0 O10 2.388054 1_544
Al0 O3 2.388054 1_555
Al0 O11 2.388054 1_545
Al0 O0 2.388054 1_554
Al0 O2 2.388054 1_444
Al0 O9 2.388054 1_444
Co0 O11 1.904344 1_545
Co0 O4 1.904344 1_555
Co0 O7 1.904344 1_445
Co0 O1 1.904344 1_445
Co0 O6 1.904344 1_455
Co0 O0 1.904344 1_555
Co1 O2 1.904344 1_454
Co1 O5 1.904344 1_455
Co1 O10 1.904344 1_554
Co1 O6 1.904344 1_454
Co1 O8 1.904344 1_555
Co1 O11 1.904344 1_555
Co2 O5 1.904344 1_555
Co2 O10 1.904344 1_544
Co2 O9 1.904344 1_544
Co2 O3 1.904344 1_555
Co2 O1 1.904344 1_545
Co2 O0 1.904344 1_554
Co3 O3 1.904344 1_555
Co3 O7 1.904344 1_555
Co3 O4 1.904344 1_555
Co3 O8 1.904344 1_555
Co3 O2 1.904344 1_555
Co3 O9 1.904344 1_555
Cu0 O7 1.889202 1_455
Cu0 O4 1.889202 1_555
Cu0 O5 1.889202 1_455
Cu0 O10 1.889202 1_555
Cu1 O11 1.889202 1_545
Cu1 O3 1.889202 1_555
Cu1 O6 1.889202 1_555
Cu1 O9 1.889202 1_545
Cu2 O8 1.889202 1_555
Cu2 O1 1.889202 1_555
Cu2 O0 1.889202 1_554
Cu2 O2 1.889202 1_554
