# generated using pymatgen
data_Sr5ZnN4
_symmetry_space_group_name_H-M   'P 1'
_cell_length_a   11.10469213
_cell_length_b   15.16391000
_cell_length_c   11.43524836
_cell_angle_alpha   90.00000000
_cell_angle_beta   101.96005050
_cell_angle_gamma   90.00000000
_symmetry_Int_Tables_number   1
_chemical_formula_structural   Sr5ZnN4
_chemical_formula_sum   'Sr40 Zn8 N32'
_cell_volume   1883.78775894
_cell_formula_units_Z   8
loop_
 _symmetry_equiv_pos_site_id
 _symmetry_equiv_pos_as_xyz
  1  'x, y, z'
loop_
 _atom_site_type_symbol
 _atom_site_label
 _atom_site_symmetry_multiplicity
 _atom_site_fract_x
 _atom_site_fract_y
 _atom_site_fract_z
 _atom_site_occupancy
  Sr  Sr0  1  0.51112800  0.75000000  0.76865500  1
  Sr  Sr1  1  0.48887200  0.25000000  0.23134500  1
  Sr  Sr2  1  0.55627800  0.75000000  0.28717000  1
  Sr  Sr3  1  0.44372200  0.25000000  0.71283000  1
  Sr  Sr4  1  0.16996800  0.62858200  0.77062600  1
  Sr  Sr5  1  0.83003200  0.12858200  0.22937400  1
  Sr  Sr6  1  0.83003200  0.37141800  0.22937400  1
  Sr  Sr7  1  0.16996800  0.87141800  0.77062600  1
  Sr  Sr8  1  0.71978100  0.36844000  0.60458000  1
  Sr  Sr9  1  0.28021900  0.86844000  0.39542000  1
  Sr  Sr10  1  0.28021900  0.63156000  0.39542000  1
  Sr  Sr11  1  0.71978100  0.13156000  0.60458000  1
  Sr  Sr12  1  0.94491400  0.25000000  0.84661800  1
  Sr  Sr13  1  0.05508600  0.75000000  0.15338200  1
  Sr  Sr14  1  0.22507500  0.49430600  0.05397400  1
  Sr  Sr15  1  0.77492500  0.99430600  0.94602600  1
  Sr  Sr16  1  0.77492500  0.50569400  0.94602600  1
  Sr  Sr17  1  0.22507500  0.00569400  0.05397400  1
  Sr  Sr18  1  0.00000000  0.50000000  0.50000000  1
  Sr  Sr19  1  0.00000000  0.00000000  0.50000000  1
  Sr  Sr20  1  0.49817300  0.38338000  0.98306300  1
  Sr  Sr21  1  0.50182700  0.88338000  0.01693700  1
  Sr  Sr22  1  0.50182700  0.61662000  0.01693700  1
  Sr  Sr23  1  0.49817300  0.11662000  0.98306300  1
  Sr  Sr24  1  0.22495800  0.38575900  0.76901000  1
  Sr  Sr25  1  0.77504200  0.88575900  0.23099000  1
  Sr  Sr26  1  0.77504200  0.61424100  0.23099000  1
  Sr  Sr27  1  0.22495800  0.11424100  0.76901000  1
  Sr  Sr28  1  0.79154800  0.63185200  0.65588100  1
  Sr  Sr29  1  0.20845200  0.13185200  0.34411900  1
  Sr  Sr30  1  0.20845200  0.36814800  0.34411900  1
  Sr  Sr31  1  0.79154800  0.86814800  0.65588100  1
  Sr  Sr32  1  0.78480400  0.75000000  0.96099100  1
  Sr  Sr33  1  0.21519600  0.25000000  0.03900900  1
  Sr  Sr34  1  0.51131900  0.48621000  0.27926400  1
  Sr  Sr35  1  0.48868100  0.98621000  0.72073600  1
  Sr  Sr36  1  0.48868100  0.51379000  0.72073600  1
  Sr  Sr37  1  0.51131900  0.01379000  0.27926400  1
  Sr  Sr38  1  0.03153700  0.25000000  0.51503400  1
  Sr  Sr39  1  0.96846300  0.75000000  0.48496600  1
  Zn  Zn0  1  0.97647500  0.45871300  0.78680500  1
  Zn  Zn1  1  0.02352500  0.95871300  0.21319500  1
  Zn  Zn2  1  0.02352500  0.54128700  0.21319500  1
  Zn  Zn3  1  0.97647500  0.04128700  0.78680500  1
  Zn  Zn4  1  0.55985700  0.75000000  0.52910400  1
  Zn  Zn5  1  0.44014300  0.25000000  0.47089600  1
  Zn  Zn6  1  0.67415400  0.25000000  0.85746200  1
  Zn  Zn7  1  0.32584600  0.75000000  0.14253800  1
  N  N0  1  0.86611900  0.25000000  0.63317100  1
  N  N1  1  0.13388100  0.75000000  0.36682900  1
  N  N2  1  0.01181600  0.75000000  0.70060300  1
  N  N3  1  0.98818400  0.25000000  0.29939700  1
  N  N4  1  0.34852200  0.37440600  0.18616100  1
  N  N5  1  0.65147800  0.87440600  0.81383900  1
  N  N6  1  0.65147800  0.62559400  0.81383900  1
  N  N7  1  0.34852200  0.12559400  0.18616100  1
  N  N8  1  0.35486800  0.50883000  0.87764200  1
  N  N9  1  0.64513200  0.00883000  0.12235800  1
  N  N10  1  0.64513200  0.49117000  0.12235800  1
  N  N11  1  0.35486800  0.99117000  0.87764200  1
  N  N12  1  0.76533900  0.51793400  0.47784600  1
  N  N13  1  0.23466100  0.01793400  0.52215400  1
  N  N14  1  0.23466100  0.48206600  0.52215400  1
  N  N15  1  0.76533900  0.98206600  0.47784600  1
  N  N16  1  0.62277900  0.36857800  0.80255100  1
  N  N17  1  0.37722100  0.86857800  0.19744900  1
  N  N18  1  0.37722100  0.63142200  0.19744900  1
  N  N19  1  0.62277900  0.13142200  0.80255100  1
  N  N20  1  0.92548200  0.61154300  0.09499400  1
  N  N21  1  0.07451800  0.11154300  0.90500600  1
  N  N22  1  0.07451800  0.38845700  0.90500600  1
  N  N23  1  0.92548200  0.88845700  0.09499400  1
  N  N24  1  0.65934100  0.75000000  0.12190800  1
  N  N25  1  0.34065900  0.25000000  0.87809200  1
  N  N26  1  0.77182400  0.46179700  0.39839500  1
  N  N27  1  0.22817600  0.96179700  0.60160500  1
  N  N28  1  0.22817600  0.53820300  0.60160500  1
  N  N29  1  0.77182400  0.03820300  0.39839500  1
  N  N30  1  0.71871100  0.75000000  0.48822200  1
  N  N31  1  0.28128900  0.25000000  0.51177800  1
loop_
_geom_bond_atom_site_label_1
_geom_bond_atom_site_label_2
_geom_bond_distance
_geom_bond_site_symmetry_2
Sr0 Zn4 2.900184 1_555
Sr1 Zn5 2.900184 1_555
Sr2 Zn7 2.743938 1_555
Sr2 Zn4 2.758613 1_555
Sr3 Zn6 2.743938 1_555
Sr3 Zn5 2.758613 1_555
Sr8 Zn0 3.446680 1_555
Sr8 Zn5 3.638405 1_555
Sr9 Zn1 3.446680 1_555
Sr9 Zn4 3.638405 1_555
Sr10 Zn2 3.446680 1_555
Sr10 Zn4 3.638405 1_555
Sr11 Zn3 3.446680 1_555
Sr11 Zn5 3.638405 1_555
Sr14 Zn2 3.243589 1_555
Sr15 Zn3 3.243589 1_565
Sr16 Zn0 3.243589 1_555
Sr17 Zn1 3.243589 1_545
N0 Sr11 2.398563 1_555
N0 Sr8 2.398563 1_555
N0 Sr12 2.416206 1_555
N0 Sr38 2.495547 1_655
N1 Sr9 2.398563 1_555
N1 Sr10 2.398563 1_555
N1 Sr13 2.416206 1_555
N1 Sr39 2.495547 1_455
N2 Sr39 2.412516 1_455
N2 Sr4 2.555892 1_555
N2 Sr7 2.555892 1_555
N2 Sr31 2.989285 1_455
N2 Sr28 2.989285 1_455
N3 Sr38 2.412516 1_655
N3 Sr5 2.555892 1_555
N3 Sr6 2.555892 1_555
N3 Sr29 2.989285 1_655
N3 Sr30 2.989285 1_655
N4 Sr1 2.433327 1_555
N4 Sr34 2.545250 1_555
N4 Sr14 2.571181 1_555
N4 Sr30 2.618303 1_555
N4 Sr33 2.747692 1_555
N4 Sr20 3.126294 1_554
N5 Sr0 2.433327 1_555
N5 Sr35 2.545250 1_555
N5 Sr15 2.571181 1_555
N5 Sr31 2.618303 1_555
N5 Sr32 2.747692 1_555
N5 Sr21 3.126294 1_556
N6 Sr0 2.433327 1_555
N6 Sr36 2.545250 1_555
N6 Sr16 2.571181 1_555
N6 Sr28 2.618303 1_555
N6 Sr32 2.747692 1_555
N6 Sr22 3.126294 1_556
N7 Sr1 2.433327 1_555
N7 Sr37 2.545250 1_555
N7 Sr17 2.571181 1_555
N7 Sr29 2.618303 1_555
N7 Sr33 2.747692 1_555
N7 Sr23 3.126294 1_554
N8 Sr24 2.522772 1_555
N8 Sr36 2.556971 1_555
N8 Sr22 2.606670 1_556
N8 Sr20 2.609479 1_555
N8 Sr14 2.719610 1_556
N8 Sr4 2.823041 1_555
N9 Sr25 2.522772 1_545
N9 Sr37 2.556971 1_555
N9 Sr23 2.606670 1_554
N9 Sr21 2.609479 1_545
N9 Sr15 2.719610 1_544
N9 Sr5 2.823041 1_555
N10 Sr26 2.522772 1_555
N10 Sr34 2.556971 1_555
N10 Sr20 2.606670 1_554
N10 Sr22 2.609479 1_555
N10 Sr16 2.719610 1_554
N10 Sr6 2.823041 1_555
N11 Sr27 2.522772 1_565
N11 Sr35 2.556971 1_555
N11 Sr21 2.606670 1_556
N11 Sr23 2.609479 1_565
N11 Sr17 2.719610 1_566
N11 Sr7 2.823041 1_555
N12 N26 1.257930 1_555
N12 Sr18 2.579713 1_655
N12 Sr28 2.639691 1_555
N12 Sr8 2.792668 1_555
N13 N27 1.257930 1_545
N13 Sr19 2.579713 1_555
N13 Sr29 2.639691 1_555
N13 Sr9 2.792668 1_545
N14 N28 1.257930 1_555
N14 Sr18 2.579713 1_555
N14 Sr30 2.639691 1_555
N14 Sr10 2.792668 1_555
N15 N29 1.257930 1_565
N15 Sr19 2.579713 1_665
N15 Sr31 2.639691 1_555
N15 Sr11 2.792668 1_565
N16 Zn6 1.950506 1_555
N16 Sr8 2.701112 1_555
N16 Sr36 2.713683 1_555
N16 Sr3 2.719180 1_555
N16 Sr20 2.722087 1_555
N16 Sr16 2.953066 1_555
N17 Zn7 1.950506 1_555
N17 Sr9 2.701112 1_555
N17 Sr37 2.713683 1_565
N17 Sr2 2.719180 1_555
N17 Sr21 2.722087 1_555
N17 Sr17 2.953066 1_565
N18 Zn7 1.950506 1_555
N18 Sr10 2.701112 1_555
N18 Sr34 2.713683 1_555
N18 Sr2 2.719180 1_555
N18 Sr22 2.722087 1_555
N18 Sr14 2.953066 1_555
N19 Zn6 1.950506 1_555
N19 Sr11 2.701112 1_555
N19 Sr35 2.713683 1_545
N19 Sr3 2.719180 1_555
N19 Sr23 2.722087 1_555
N19 Sr15 2.953066 1_545
N20 Zn2 1.880796 1_655
N20 Sr26 2.507549 1_555
N20 Sr13 2.554794 1_655
N20 Sr16 2.663265 1_554
N20 Sr32 2.864351 1_554
N21 Zn3 1.880796 1_455
N21 Sr27 2.507549 1_555
N21 Sr12 2.554794 1_455
N21 Sr17 2.663265 1_556
N21 Sr33 2.864351 1_556
N22 Zn0 1.880796 1_455
N22 Sr24 2.507549 1_555
N22 Sr12 2.554794 1_455
N22 Sr14 2.663265 1_556
N22 Sr33 2.864351 1_556
N23 Zn1 1.880796 1_655
N23 Sr25 2.507549 1_555
N23 Sr13 2.554794 1_655
N23 Sr15 2.663265 1_554
N23 Sr32 2.864351 1_554
N24 Sr2 2.403674 1_555
N24 Sr32 2.527786 1_554
N24 Sr25 2.603935 1_555
N24 Sr26 2.603935 1_555
N24 Sr22 2.778659 1_555
N24 Sr21 2.778659 1_555
N25 Sr3 2.403674 1_555
N25 Sr33 2.527786 1_556
N25 Sr27 2.603935 1_555
N25 Sr24 2.603935 1_555
N25 Sr20 2.778659 1_555
N25 Sr23 2.778659 1_555
N26 Sr6 2.559214 1_555
N26 Sr18 2.624054 1_655
N26 Sr8 2.908941 1_555
N26 Sr34 2.954320 1_555
N26 Sr26 3.006319 1_555
N27 Sr7 2.559214 1_555
N27 Sr19 2.624054 1_565
N27 Sr9 2.908941 1_555
N27 Sr35 2.954320 1_555
N27 Sr27 3.006319 1_565
N28 Sr4 2.559214 1_555
N28 Sr18 2.624054 1_555
N28 Sr10 2.908941 1_555
N28 Sr36 2.954320 1_555
N28 Sr24 3.006319 1_555
N29 Sr5 2.559214 1_555
N29 Sr19 2.624054 1_655
N29 Sr11 2.908941 1_555
N29 Sr37 2.954320 1_555
N29 Sr25 3.006319 1_545
N30 Zn4 1.916280 1_555
N30 Sr2 2.611624 1_555
N30 Sr28 2.626219 1_555
N30 Sr31 2.626219 1_555
N30 Sr39 2.781373 1_555
N31 Zn5 1.916280 1_555
N31 Sr3 2.611624 1_555
N31 Sr30 2.626219 1_555
N31 Sr29 2.626219 1_555
N31 Sr38 2.781373 1_555
