# generated using pymatgen
data_Pr2CoSn4
_symmetry_space_group_name_H-M   'P 1'
_cell_length_a   4.51582221
_cell_length_b   4.54972588
_cell_length_c   8.94490085
_cell_angle_alpha   75.29516139
_cell_angle_beta   89.99997397
_cell_angle_gamma   89.99999596
_symmetry_Int_Tables_number   1
_chemical_formula_structural   Pr2CoSn4
_chemical_formula_sum   'Pr2 Co1 Sn4'
_cell_volume   177.76026251
_cell_formula_units_Z   1
loop_
 _symmetry_equiv_pos_site_id
 _symmetry_equiv_pos_as_xyz
  1  'x, y, z'
loop_
 _atom_site_type_symbol
 _atom_site_label
 _atom_site_symmetry_multiplicity
 _atom_site_fract_x
 _atom_site_fract_y
 _atom_site_fract_z
 _atom_site_occupancy
  Pr  Pr0  1  0.25000086  0.89845464  0.20260691  1
  Pr  Pr1  1  0.74999935  0.10853835  0.78347989  1
  Co  Co0  1  0.24999953  0.69611479  0.60766045  1
  Sn  Sn0  1  0.24999963  0.55362810  0.89306441  1
  Sn  Sn1  1  0.75000026  0.44241535  0.11414978  1
  Sn  Sn2  1  0.24999960  0.25966320  0.48058546  1
  Sn  Sn3  1  0.74999977  0.75918557  0.48245511  1
loop_
_geom_bond_atom_site_label_1
_geom_bond_atom_site_label_2
_geom_bond_distance
_geom_bond_site_symmetry_2
Pr0 Sn1 3.294701 1_565
Pr0 Sn1 3.294705 1_465
Pr0 Sn1 3.295859 1_555
Pr0 Sn1 3.295864 1_455
Pr0 Sn2 3.310276 1_565
Pr0 Sn3 3.310661 1_555
Pr0 Sn3 3.310667 1_455
Pr0 Sn2 3.310679 1_555
Pr0 Sn0 3.511846 1_554
Pr0 Sn0 3.515936 1_564
Pr1 Sn0 3.341781 1_555
Pr1 Sn0 3.341783 1_655
Pr1 Sn0 3.343152 1_545
Pr1 Sn0 3.343154 1_645
Pr1 Sn3 3.456799 1_545
Pr1 Sn2 3.459163 1_655
Pr1 Sn2 3.459163 1_555
Pr1 Sn3 3.459306 1_555
Pr1 Sn1 3.652010 1_556
Pr1 Sn1 3.658240 1_546
Co0 Sn0 2.469293 1_555
Co0 Sn3 2.504323 1_455
Co0 Sn3 2.504324 1_555
Co0 Sn2 2.526078 1_555
Co0 Sn2 2.527149 1_565
Co0 Pr1 3.547348 1_555
Co0 Pr1 3.547348 1_455
Co0 Pr1 3.548324 1_465
Co0 Pr1 3.548324 1_565
Sn0 Sn1 2.959226 1_456
Sn0 Sn1 2.959231 1_556
