# generated using pymatgen
data_MgAu2
_symmetry_space_group_name_H-M   'P 1'
_cell_length_a   5.35480645
_cell_length_b   5.35480645
_cell_length_c   7.39800291
_cell_angle_alpha   69.66548026
_cell_angle_beta   69.66548026
_cell_angle_gamma   33.41608741
_symmetry_Int_Tables_number   1
_chemical_formula_structural   MgAu2
_chemical_formula_sum   'Mg2 Au4'
_cell_volume   108.86285733
_cell_formula_units_Z   2
loop_
 _symmetry_equiv_pos_site_id
 _symmetry_equiv_pos_as_xyz
  1  'x, y, z'
loop_
 _atom_site_type_symbol
 _atom_site_label
 _atom_site_symmetry_multiplicity
 _atom_site_fract_x
 _atom_site_fract_y
 _atom_site_fract_z
 _atom_site_occupancy
  Mg  Mg0  1  0.01849200  0.01849200  0.73179100  1
  Mg  Mg1  1  0.98150800  0.98150800  0.26820900  1
  Au  Au0  1  0.65003500  0.65003500  0.94423000  1
  Au  Au1  1  0.34996500  0.34996500  0.05577000  1
  Au  Au2  1  0.66478400  0.66478400  0.39996400  1
  Au  Au3  1  0.33521600  0.33521600  0.60003600  1
loop_
_geom_bond_atom_site_label_1
_geom_bond_atom_site_label_2
_geom_bond_distance
_geom_bond_site_symmetry_2
Au0 Mg1 2.845420 1_546
Au0 Mg1 2.845420 1_456
Au0 Mg0 2.863457 1_565
Au0 Mg0 2.863457 1_655
Au1 Mg0 2.845420 1_654
Au1 Mg0 2.845420 1_564
Au1 Mg1 2.863457 1_455
Au1 Mg1 2.863457 1_545
Au2 Mg0 2.824011 1_565
Au2 Mg0 2.824011 1_655
Au2 Mg1 2.860764 1_545
Au2 Mg1 2.860764 1_455
Au2 Mg1 3.034281 1_555
Au3 Mg1 2.824011 1_545
Au3 Mg1 2.824011 1_455
Au3 Mg0 2.860764 1_565
Au3 Mg0 2.860764 1_655
Au3 Mg0 3.034281 1_555
