# generated using pymatgen
data_Ta3(InS3)2
_symmetry_space_group_name_H-M   'P 1'
_cell_length_a   8.69690525
_cell_length_b   8.69690525
_cell_length_c   8.69690552
_cell_angle_alpha   39.00342431
_cell_angle_beta   39.00342431
_cell_angle_gamma   39.00342493
_symmetry_Int_Tables_number   1
_chemical_formula_structural   Ta3(InS3)2
_chemical_formula_sum   'Ta3 In2 S6'
_cell_volume   234.32407168
_cell_formula_units_Z   1
loop_
 _symmetry_equiv_pos_site_id
 _symmetry_equiv_pos_as_xyz
  1  'x, y, z'
loop_
 _atom_site_type_symbol
 _atom_site_label
 _atom_site_symmetry_multiplicity
 _atom_site_fract_x
 _atom_site_fract_y
 _atom_site_fract_z
 _atom_site_occupancy
  Ta  Ta0  1  0.33322779  0.33322779  0.33322779  1
  Ta  Ta1  1  0.66677221  0.66677221  0.66677221  1
  Ta  Ta2  1  -0.00000000  -0.00000000  0.00000000  1
  In  In0  1  0.16651868  0.16651868  0.16651868  1
  In  In1  1  0.83348132  0.83348132  0.83348132  1
  S  S0  1  0.39754160  0.72974755  0.06555724  1
  S  S1  1  0.06555724  0.39754160  0.72974755  1
  S  S2  1  0.72974755  0.06555724  0.39754160  1
  S  S3  1  0.27025245  0.60245840  0.93444276  1
  S  S4  1  0.93444276  0.27025245  0.60245840  1
  S  S5  1  0.60245840  0.93444276  0.27025245  1
loop_
_geom_bond_atom_site_label_1
_geom_bond_atom_site_label_2
_geom_bond_distance
_geom_bond_site_symmetry_2
In0 S2 3.133205 1_455
In0 S0 3.133205 1_545
In0 S1 3.133205 1_554
In0 S3 3.139202 1_554
In0 S5 3.139203 1_545
In0 S4 3.139203 1_455
In1 S4 3.133205 1_565
In1 S3 3.133205 1_655
In1 S5 3.133205 1_556
In1 S0 3.139202 1_556
In1 S1 3.139203 1_655
In1 S2 3.139203 1_565
S0 Ta0 2.474140 1_555
S0 Ta1 2.479644 1_554
S0 Ta2 2.480726 1_565
S1 Ta0 2.474140 1_555
S1 Ta1 2.479644 1_455
S1 Ta2 2.480726 1_556
S2 Ta0 2.474140 1_555
S2 Ta1 2.479644 1_545
S2 Ta2 2.480726 1_655
S3 Ta1 2.474140 1_555
S3 Ta0 2.479644 1_556
S3 Ta2 2.480726 1_566
S4 Ta1 2.474140 1_555
S4 Ta0 2.479644 1_655
S4 Ta2 2.480726 1_656
S5 Ta1 2.474140 1_555
S5 Ta0 2.479644 1_565
S5 Ta2 2.480726 1_665
