# generated using pymatgen
data_NaAlH8(NF3)2
_symmetry_space_group_name_H-M   'P 1'
_cell_length_a   6.02208622
_cell_length_b   6.02208622
_cell_length_c   6.02208622
_cell_angle_alpha   60.00000000
_cell_angle_beta   60.00000000
_cell_angle_gamma   60.00000000
_symmetry_Int_Tables_number   1
_chemical_formula_structural   NaAlH8(NF3)2
_chemical_formula_sum   'Na1 Al1 H8 N2 F6'
_cell_volume   154.42795084
_cell_formula_units_Z   1
loop_
 _symmetry_equiv_pos_site_id
 _symmetry_equiv_pos_as_xyz
  1  'x, y, z'
loop_
 _atom_site_type_symbol
 _atom_site_label
 _atom_site_symmetry_multiplicity
 _atom_site_fract_x
 _atom_site_fract_y
 _atom_site_fract_z
 _atom_site_occupancy
  Na  Na0  1  0.50000000  0.50000000  0.50000000  1
  Al  Al0  1  0.00000000  0.00000000  0.00000000  1
  H  H0  1  0.81979800  0.81979800  0.81979800  1
  H  H1  1  0.54060700  0.81979800  0.81979800  1
  H  H2  1  0.81979800  0.54060700  0.81979800  1
  H  H3  1  0.81979800  0.81979800  0.54060700  1
  H  H4  1  0.18020200  0.18020200  0.18020200  1
  H  H5  1  0.45939300  0.18020200  0.18020200  1
  H  H6  1  0.18020200  0.45939300  0.18020200  1
  H  H7  1  0.18020200  0.18020200  0.45939300  1
  N  N0  1  0.75000000  0.75000000  0.75000000  1
  N  N1  1  0.25000000  0.25000000  0.25000000  1
  F  F0  1  0.78424900  0.21575100  0.21575100  1
  F  F1  1  0.78424900  0.78424900  0.21575100  1
  F  F2  1  0.21575100  0.78424900  0.21575100  1
  F  F3  1  0.21575100  0.21575100  0.78424900  1
  F  F4  1  0.78424900  0.21575100  0.78424900  1
  F  F5  1  0.21575100  0.78424900  0.78424900  1
loop_
_geom_bond_atom_site_label_1
_geom_bond_atom_site_label_2
_geom_bond_distance
_geom_bond_site_symmetry_2
Al0 F3 1.837447 1_554
Al0 F0 1.837447 1_455
Al0 F2 1.837447 1_545
Al0 F4 1.837447 1_454
Al0 F5 1.837447 1_544
Al0 F1 1.837447 1_445
H0 N0 1.029593 1_555
H1 N0 1.029588 1_555
H2 N0 1.029588 1_555
H3 N0 1.029588 1_555
H4 N1 1.029593 1_555
H5 N1 1.029588 1_555
H6 N1 1.029588 1_555
H7 N1 1.029588 1_555
F0 Na0 2.420811 1_555
F1 Na0 2.420811 1_555
F2 Na0 2.420811 1_555
F3 Na0 2.420811 1_555
F4 Na0 2.420811 1_555
F5 Na0 2.420811 1_555
