# generated using pymatgen
data_Pr12(OsC3)5
_symmetry_space_group_name_H-M   'P 1'
_cell_length_a   11.03189019
_cell_length_b   11.03183582
_cell_length_c   5.39621599
_cell_angle_alpha   89.99999867
_cell_angle_beta   89.99999980
_cell_angle_gamma   119.99863519
_symmetry_Int_Tables_number   1
_chemical_formula_structural   Pr12(OsC3)5
_chemical_formula_sum   'Pr12 Os5 C15'
_cell_volume   568.75293235
_cell_formula_units_Z   1
loop_
 _symmetry_equiv_pos_site_id
 _symmetry_equiv_pos_as_xyz
  1  'x, y, z'
loop_
 _atom_site_type_symbol
 _atom_site_label
 _atom_site_symmetry_multiplicity
 _atom_site_fract_x
 _atom_site_fract_y
 _atom_site_fract_z
 _atom_site_occupancy
  Pr  Pr0  1  0.79333683  -0.00001766  0.49999996  1
  Pr  Pr1  1  -0.00004491  0.79332792  0.49999996  1
  Pr  Pr2  1  0.20666683  0.20663662  0.49999997  1
  Pr  Pr3  1  0.27332431  0.45819000  -0.00000000  1
  Pr  Pr4  1  0.54182216  0.81511483  -0.00000007  1
  Pr  Pr5  1  0.45821476  0.27331862  0.00000005  1
  Pr  Pr6  1  0.18487931  0.72669375  -0.00000005  1
  Pr  Pr7  1  0.81508958  0.54180090  0.00000017  1
  Pr  Pr8  1  0.72668294  0.18489327  0.00000005  1
  Pr  Pr9  1  0.42734704  0.00002278  0.50000000  1
  Pr  Pr10  1  -0.00003545  0.42733193  0.50000007  1
  Pr  Pr11  1  0.57272144  0.57269425  0.50000002  1
  Os  Os0  1  0.16063239  0.00000146  -0.00000007  1
  Os  Os1  1  -0.00000155  0.16062570  0.00000000  1
  Os  Os2  1  0.83937084  0.83936932  0.99999966  1
  Os  Os3  1  0.33333488  0.66666743  0.50000005  1
  Os  Os4  1  0.66666285  0.33333513  0.50000016  1
  C  C0  1  0.33044838  0.00000479  -0.00000002  1
  C  C1  1  -0.00001158  0.33043163  0.00000011  1
  C  C2  1  0.66955906  0.66955017  -0.00000011  1
  C  C3  1  0.80245526  -0.00001646  -0.00000014  1
  C  C4  1  -0.00001287  0.80244881  -0.00000007  1
  C  C5  1  0.19752408  0.19752094  -0.00000002  1
  C  C6  1  0.45093925  0.00000900  0.00000002  1
  C  C7  1  -0.00002113  0.45092337  0.00000003  1
  C  C8  1  0.54907728  0.54906192  0.00000003  1
  C  C9  1  0.28862873  0.47583454  0.49999999  1
  C  C10  1  0.52419062  0.81281077  0.49999997  1
  C  C11  1  0.47582768  0.28862547  0.50000006  1
  C  C12  1  0.18719384  0.71138407  0.50000004  1
  C  C13  1  0.81281247  0.52420409  0.50000013  1
  C  C14  1  0.71138369  0.18720067  0.50000005  1
loop_
_geom_bond_atom_site_label_1
_geom_bond_atom_site_label_2
_geom_bond_distance
_geom_bond_site_symmetry_2
C0 C6 1.329219 1_555
C0 Os0 1.873373 1_555
C0 Pr6 2.613062 1_545
C0 Pr5 2.613074 1_555
C0 Pr9 2.902117 1_554
C0 Pr9 2.902117 1_555
C1 C7 1.329298 1_555
C1 Os1 1.873326 1_555
C1 Pr8 2.613010 1_455
C1 Pr3 2.613306 1_555
C1 Pr10 2.902207 1_555
C1 Pr10 2.902207 1_554
C2 C8 1.329202 1_555
C2 Os2 1.873420 1_554
C2 Pr7 2.612705 1_555
C2 Pr4 2.612921 1_555
C2 Pr11 2.901949 1_554
C2 Pr11 2.901951 1_555
C3 Os2 2.006723 1_544
C3 Os1 2.006975 1_655
C3 Pr4 2.561800 1_545
C3 Pr8 2.562229 1_555
C3 Pr0 2.699982 1_554
C3 Pr0 2.699983 1_555
C4 Os2 2.006787 1_454
C4 Os0 2.007050 1_565
C4 Pr6 2.561912 1_555
C4 Pr7 2.561985 1_455
C4 Pr1 2.699977 1_554
C4 Pr1 2.699977 1_555
C5 Os0 2.006715 1_555
C5 Os1 2.006779 1_555
C5 Pr3 2.562048 1_555
C5 Pr5 2.562298 1_555
C5 Pr2 2.699987 1_555
C5 Pr2 2.699987 1_554
C6 Pr8 2.685039 1_555
C6 Pr4 2.685266 1_545
C6 Pr9 2.710639 1_555
C6 Pr9 2.710639 1_554
C7 Pr7 2.685177 1_455
C7 Pr6 2.685286 1_555
C7 Pr10 2.710623 1_554
C7 Pr10 2.710624 1_555
C8 Pr5 2.684992 1_555
C8 Pr3 2.685088 1_555
C8 Pr11 2.710681 1_555
C8 Pr11 2.710681 1_554
C9 Os3 1.907096 1_555
C9 Pr2 2.636636 1_555
C9 Pr3 2.704315 1_555
C9 Pr3 2.704315 1_556
C9 Pr11 2.759616 1_555
C9 Pr10 2.953564 1_555
C10 Os3 1.907355 1_555
C10 Pr0 2.636099 1_565
C10 Pr4 2.704315 1_556
C10 Pr4 2.704316 1_555
C10 Pr9 2.759210 1_565
C10 Pr11 2.953234 1_555
C11 Os4 1.907120 1_555
C11 Pr2 2.636195 1_555
C11 Pr5 2.704301 1_556
C11 Pr5 2.704301 1_555
C11 Pr11 2.759284 1_555
C11 Pr9 2.952965 1_555
C12 Os3 1.907318 1_555
C12 Pr1 2.636493 1_555
C12 Pr6 2.704306 1_556
C12 Pr6 2.704307 1_555
C12 Pr10 2.759279 1_555
C12 Pr9 2.953390 1_565
C13 Os4 1.907470 1_555
C13 Pr1 2.635839 1_655
C13 Pr7 2.704297 1_555
C13 Pr7 2.704298 1_556
C13 Pr10 2.758833 1_655
C13 Pr11 2.952685 1_555
C14 Os4 1.907272 1_555
C14 Pr0 2.636347 1_555
C14 Pr8 2.704296 1_556
C14 Pr8 2.704296 1_555
C14 Pr9 2.759056 1_555
C14 Pr10 2.952907 1_655
