# generated using pymatgen
data_PrP4NO12
_symmetry_space_group_name_H-M   'P 1'
_cell_length_a   7.54616721
_cell_length_b   7.54616721
_cell_length_c   10.78968634
_cell_angle_alpha   79.32591134
_cell_angle_beta   79.32591134
_cell_angle_gamma   115.65048245
_symmetry_Int_Tables_number   1
_chemical_formula_structural   PrP4NO12
_chemical_formula_sum   'Pr2 P8 N2 O24'
_cell_volume   519.27987096
_cell_formula_units_Z   2
loop_
 _symmetry_equiv_pos_site_id
 _symmetry_equiv_pos_as_xyz
  1  'x, y, z'
loop_
 _atom_site_type_symbol
 _atom_site_label
 _atom_site_symmetry_multiplicity
 _atom_site_fract_x
 _atom_site_fract_y
 _atom_site_fract_z
 _atom_site_occupancy
  Pr  Pr0  1  0.12004100  0.87995900  0.25000000  1
  Pr  Pr1  1  0.87995900  0.12004100  0.75000000  1
  P  P0  1  0.70969900  0.37154200  0.50118000  1
  P  P1  1  0.62845800  0.29030100  0.99882000  1
  P  P2  1  0.29030100  0.62845800  0.49882000  1
  P  P3  1  0.37154200  0.70969900  0.00118000  1
  P  P4  1  0.69240200  0.73428200  0.55910600  1
  P  P5  1  0.26571800  0.30759800  0.94089400  1
  P  P6  1  0.30759800  0.26571800  0.44089400  1
  P  P7  1  0.73428200  0.69240200  0.05910600  1
  N  N0  1  0.81948800  0.18051200  0.25000000  1
  N  N1  1  0.18051200  0.81948800  0.75000000  1
  O  O0  1  0.47313800  0.71951200  0.56499700  1
  O  O1  1  0.28048800  0.52686200  0.93500300  1
  O  O2  1  0.52686200  0.28048800  0.43500300  1
  O  O3  1  0.71951200  0.47313800  0.06499700  1
  O  O4  1  0.63926900  0.49669400  0.58807400  1
  O  O5  1  0.50330600  0.36073100  0.91192600  1
  O  O6  1  0.36073100  0.50330600  0.41192600  1
  O  O7  1  0.49669400  0.63926900  0.08807400  1
  O  O8  1  0.90363400  0.51274500  0.39001900  1
  O  O9  1  0.48725500  0.09636600  0.10998100  1
  O  O10  1  0.09636600  0.48725500  0.60998100  1
  O  O11  1  0.51274500  0.90363400  0.89001900  1
  O  O12  1  0.69697000  0.19252000  0.59778200  1
  O  O13  1  0.80748000  0.30303000  0.90221800  1
  O  O14  1  0.30303000  0.80748000  0.40221800  1
  O  O15  1  0.19252000  0.69697000  0.09778200  1
  O  O16  1  0.74955700  0.80620000  0.67383300  1
  O  O17  1  0.19380000  0.25044300  0.82616700  1
  O  O18  1  0.25044300  0.19380000  0.32616700  1
  O  O19  1  0.80620000  0.74955700  0.17383300  1
  O  O20  1  0.84222200  0.85946800  0.42359500  1
  O  O21  1  0.14053200  0.15777800  0.07640500  1
  O  O22  1  0.15777800  0.14053200  0.57640500  1
  O  O23  1  0.85946800  0.84222200  0.92359500  1
loop_
_geom_bond_atom_site_label_1
_geom_bond_atom_site_label_2
_geom_bond_distance
_geom_bond_site_symmetry_2
O0 P4 1.597789 1_555
O0 P2 1.616019 1_555
O1 P5 1.597789 1_555
O1 P3 1.616019 1_556
O2 P6 1.597789 1_555
O2 P0 1.616019 1_555
O3 P7 1.597789 1_555
O3 P1 1.616019 1_554
O4 P4 1.611365 1_555
O4 P0 1.622155 1_555
O5 P5 1.611365 1_555
O5 P1 1.622155 1_555
O6 P6 1.611365 1_555
O6 P2 1.622155 1_555
O7 P7 1.611365 1_555
O7 P3 1.622155 1_555
O8 P0 1.497312 1_555
O8 Pr0 2.499087 1_655
O9 P1 1.497312 1_554
O9 Pr0 2.499087 1_545
O10 P2 1.497312 1_555
O10 Pr1 2.499087 1_455
O11 P3 1.497312 1_556
O11 Pr1 2.499087 1_565
O12 P0 1.499863 1_555
O12 Pr1 2.462640 1_555
O13 P1 1.499863 1_555
O13 Pr1 2.462640 1_555
O14 P2 1.499863 1_555
O14 Pr0 2.462640 1_555
O15 P3 1.499863 1_555
O15 Pr0 2.462640 1_555
O16 P4 1.502285 1_555
O16 Pr1 2.501094 1_565
O17 P5 1.502285 1_555
O17 Pr1 2.501094 1_455
O18 P6 1.502285 1_555
O18 Pr0 2.501094 1_545
O19 P7 1.502285 1_555
O19 Pr0 2.501094 1_655
O20 P4 1.503236 1_555
O20 Pr0 2.466731 1_655
O21 P5 1.503236 1_554
O21 Pr0 2.466731 1_545
O22 P6 1.503236 1_555
O22 Pr1 2.466731 1_455
O23 P7 1.503236 1_556
O23 Pr1 2.466731 1_565
