# generated using pymatgen
data_FeH10S2NO11
_symmetry_space_group_name_H-M   'P 1'
_cell_length_a   10.64415132
_cell_length_b   10.65504100
_cell_length_c   9.59311020
_cell_angle_alpha   90.00000000
_cell_angle_beta   92.37691984
_cell_angle_gamma   90.00000000
_symmetry_Int_Tables_number   1
_chemical_formula_structural   FeH10S2NO11
_chemical_formula_sum   'Fe4 H40 S8 N4 O44'
_cell_volume   1087.05565197
_cell_formula_units_Z   4
loop_
 _symmetry_equiv_pos_site_id
 _symmetry_equiv_pos_as_xyz
  1  'x, y, z'
loop_
 _atom_site_type_symbol
 _atom_site_label
 _atom_site_symmetry_multiplicity
 _atom_site_fract_x
 _atom_site_fract_y
 _atom_site_fract_z
 _atom_site_occupancy
  Fe  Fe0  1  0.18617900  0.36422300  0.01182100  1
  Fe  Fe1  1  0.81382100  0.86422300  0.48817900  1
  Fe  Fe2  1  0.81382100  0.63577700  0.98817900  1
  Fe  Fe3  1  0.18617900  0.13577700  0.51182100  1
  H  H0  1  0.30342300  0.65275500  0.45588800  1
  H  H1  1  0.69657700  0.15275500  0.04411200  1
  H  H2  1  0.69657700  0.34724500  0.54411200  1
  H  H3  1  0.30342300  0.84724500  0.95588800  1
  H  H4  1  0.36418700  0.48006000  0.67164900  1
  H  H5  1  0.63581300  0.98006000  0.82835100  1
  H  H6  1  0.63581300  0.51994000  0.32835100  1
  H  H7  1  0.36418700  0.01994000  0.17164900  1
  H  H8  1  0.32907300  0.44284800  0.50375800  1
  H  H9  1  0.67092700  0.94284800  0.99624200  1
  H  H10  1  0.67092700  0.55715200  0.49624200  1
  H  H11  1  0.32907300  0.05715200  0.00375800  1
  H  H12  1  0.21336500  0.49969600  0.61194800  1
  H  H13  1  0.78663500  0.99969600  0.88805200  1
  H  H14  1  0.78663500  0.50030400  0.38805200  1
  H  H15  1  0.21336500  0.00030400  0.11194800  1
  H  H16  1  0.32545900  0.57040200  0.98693400  1
  H  H17  1  0.67454100  0.07040200  0.51306600  1
  H  H18  1  0.67454100  0.42959800  0.01306600  1
  H  H19  1  0.32545900  0.92959800  0.48693400  1
  H  H20  1  0.36194800  0.53433400  0.04321900  1
  H  H21  1  0.63805200  0.03433400  0.45678100  1
  H  H22  1  0.63805200  0.46566600  0.95678100  1
  H  H23  1  0.36194800  0.96566600  0.54321900  1
  H  H24  1  0.02966600  0.17285200  0.93606300  1
  H  H25  1  0.97033400  0.67285200  0.56393700  1
  H  H26  1  0.97033400  0.82714800  0.06393700  1
  H  H27  1  0.02966600  0.32714800  0.43606300  1
  H  H28  1  0.02728800  0.19385600  0.10477000  1
  H  H29  1  0.97271200  0.69385600  0.39523000  1
  H  H30  1  0.97271200  0.80614400  0.89523000  1
  H  H31  1  0.02728800  0.30614400  0.60477000  1
  H  H32  1  0.78758600  0.26615800  0.73475500  1
  H  H33  1  0.21241400  0.76615800  0.76524500  1
  H  H34  1  0.21241400  0.73384200  0.26524500  1
  H  H35  1  0.78758600  0.23384200  0.23475500  1
  H  H36  1  0.63878600  0.26531700  0.72567900  1
  H  H37  1  0.36121400  0.76531700  0.77432100  1
  H  H38  1  0.36121400  0.73468300  0.27432100  1
  H  H39  1  0.63878600  0.23468300  0.22567900  1
  S  S0  1  0.99760800  0.48767700  0.77743800  1
  S  S1  1  0.00239200  0.98767700  0.72256200  1
  S  S2  1  0.00239200  0.51232300  0.22256200  1
  S  S3  1  0.99760800  0.01232300  0.27743800  1
  S  S4  1  0.36781200  0.23578900  0.77822100  1
  S  S5  1  0.63218800  0.73578900  0.72177900  1
  S  S6  1  0.63218800  0.76421100  0.22177900  1
  S  S7  1  0.36781200  0.26421100  0.27822100  1
  N  N0  1  0.30748400  0.50431100  0.58581100  1
  N  N1  1  0.69251600  0.00431100  0.91418900  1
  N  N2  1  0.69251600  0.49568900  0.41418900  1
  N  N3  1  0.30748400  0.99568900  0.08581100  1
  O  O0  1  0.04962700  0.55629400  0.65933400  1
  O  O1  1  0.95037300  0.05629400  0.84066600  1
  O  O2  1  0.95037300  0.44370600  0.34066600  1
  O  O3  1  0.04962700  0.94370600  0.15933400  1
  O  O4  1  0.96697900  0.35626600  0.74088600  1
  O  O5  1  0.03302100  0.85626600  0.75911400  1
  O  O6  1  0.03302100  0.64373400  0.25911400  1
  O  O7  1  0.96697900  0.14373400  0.24088600  1
  O  O8  1  0.87950700  0.55285500  0.81929800  1
  O  O9  1  0.12049300  0.05285500  0.68070200  1
  O  O10  1  0.12049300  0.44714500  0.18070200  1
  O  O11  1  0.87950700  0.94714500  0.31929800  1
  O  O12  1  0.09196400  0.49231500  0.89859600  1
  O  O13  1  0.90803600  0.99231500  0.60140400  1
  O  O14  1  0.90803600  0.50768500  0.10140400  1
  O  O15  1  0.09196400  0.00768500  0.39859600  1
  O  O16  1  0.47862800  0.31523900  0.76940100  1
  O  O17  1  0.52137200  0.81523900  0.73059900  1
  O  O18  1  0.52137200  0.68476100  0.23059900  1
  O  O19  1  0.47862800  0.18476100  0.26940100  1
  O  O20  1  0.26235100  0.31552800  0.83618600  1
  O  O21  1  0.73764900  0.81552800  0.66381400  1
  O  O22  1  0.73764900  0.68447200  0.16381400  1
  O  O23  1  0.26235100  0.18447200  0.33618600  1
  O  O24  1  0.32257700  0.20565900  0.62844100  1
  O  O25  1  0.67742300  0.70565900  0.87155900  1
  O  O26  1  0.67742300  0.79434100  0.37155900  1
  O  O27  1  0.32257700  0.29434100  0.12844100  1
  O  O28  1  0.38493400  0.11985200  0.85680000  1
  O  O29  1  0.61506600  0.61985200  0.64320000  1
  O  O30  1  0.61506600  0.88014800  0.14320000  1
  O  O31  1  0.38493400  0.38014800  0.35680000  1
  O  O32  1  0.06788400  0.22146900  0.01591700  1
  O  O33  1  0.93211600  0.72146900  0.48408300  1
  O  O34  1  0.93211600  0.77853100  0.98408300  1
  O  O35  1  0.06788400  0.27853100  0.51591700  1
  O  O36  1  0.33843400  0.87055400  0.05390600  1
  O  O37  1  0.66156600  0.37055400  0.44609400  1
  O  O38  1  0.66156600  0.12944600  0.94609400  1
  O  O39  1  0.33843400  0.62944600  0.55390600  1
  O  O40  1  0.71453300  0.25503000  0.67090100  1
  O  O41  1  0.28546700  0.75503000  0.82909900  1
  O  O42  1  0.28546700  0.74497000  0.32909900  1
  O  O43  1  0.71453300  0.24497000  0.17090100  1
loop_
_geom_bond_atom_site_label_1
_geom_bond_atom_site_label_2
_geom_bond_distance
_geom_bond_site_symmetry_2
Fe0 O27 1.944000 1_555
Fe0 O20 1.969449 1_554
Fe0 O32 1.976031 1_555
Fe0 O12 1.989440 1_554
Fe0 O10 1.997033 1_555
Fe1 O26 1.944000 1_555
Fe1 O21 1.969449 1_555
Fe1 O33 1.976031 1_555
Fe1 O13 1.989440 1_555
Fe1 O11 1.997033 1_555
Fe2 O25 1.944000 1_555
Fe2 O22 1.969449 1_556
Fe2 O34 1.976031 1_555
Fe2 O14 1.989440 1_556
Fe2 O8 1.997033 1_555
Fe3 O24 1.944000 1_555
Fe3 O23 1.969449 1_555
Fe3 O35 1.976031 1_555
Fe3 O15 1.989440 1_555
Fe3 O9 1.997033 1_555
H0 O39 1.027450 1_555
H0 O42 1.569092 1_555
H1 O38 1.027450 1_554
H1 O43 1.569092 1_555
H2 O37 1.027450 1_555
H2 O40 1.569092 1_555
H3 O36 1.027450 1_556
H3 O41 1.569092 1_555
H4 N0 1.033392 1_555
H5 N1 1.033392 1_565
H6 N2 1.033392 1_555
H7 N3 1.033392 1_545
H8 N0 1.056545 1_555
H8 O31 1.690231 1_555
H9 N1 1.056545 1_565
H9 O30 1.690231 1_556
H10 N2 1.056545 1_555
H10 O29 1.690231 1_555
H11 N3 1.056545 1_545
H11 O28 1.690231 1_554
H12 N0 1.043915 1_555
H13 N1 1.043915 1_565
H14 N2 1.043915 1_555
H15 N3 1.043915 1_545
H16 H20 0.756763 1_556
H17 H21 0.756763 1_555
H18 H22 0.756763 1_554
H19 H23 0.756763 1_555
H24 O32 0.997400 1_556
H25 O33 0.997400 1_555
H26 O34 0.997400 1_554
H27 O35 0.997400 1_555
H28 O32 1.015076 1_555
H28 O7 1.572220 1_455
H29 O33 1.015076 1_555
H29 O6 1.572220 1_655
H30 O34 1.015076 1_555
H30 O5 1.572220 1_655
H31 O35 1.015076 1_555
H31 O4 1.572220 1_455
H32 O40 0.976944 1_555
H33 O41 0.976944 1_555
H34 O42 0.976944 1_555
H35 O43 0.976944 1_555
H36 O40 0.986589 1_555
H37 O41 0.986589 1_555
H38 O42 0.986589 1_555
H39 O43 0.986589 1_555
N0 O39 1.410074 1_555
N1 O38 1.410074 1_555
N2 O37 1.410074 1_555
N3 O36 1.410074 1_555
O0 S0 1.475399 1_455
O1 S1 1.475399 1_645
O2 S2 1.475399 1_655
O3 S3 1.475399 1_465
O4 S0 1.476581 1_555
O5 S1 1.476581 1_555
O6 S2 1.476581 1_555
O7 S3 1.476581 1_555
O8 S0 1.505219 1_555
O9 S1 1.505219 1_545
O10 S2 1.505219 1_555
O11 S3 1.505219 1_565
O12 S0 1.505063 1_455
O13 S1 1.505063 1_655
O14 S2 1.505063 1_655
O15 S3 1.505063 1_455
O16 S4 1.457186 1_555
O17 S5 1.457186 1_555
O18 S6 1.457186 1_555
O19 S7 1.457186 1_555
O20 S4 1.530668 1_555
O21 S5 1.530668 1_555
O22 S6 1.530668 1_555
O23 S7 1.530668 1_555
O24 S4 1.530381 1_555
O25 S5 1.530381 1_555
O26 S6 1.530381 1_555
O27 S7 1.530381 1_555
O28 S4 1.454668 1_555
O29 S5 1.454668 1_555
O30 S6 1.454668 1_555
O31 S7 1.454668 1_555
