# generated using pymatgen
data_BaMnO4
_symmetry_space_group_name_H-M   'P 1'
_cell_length_a   5.44728410
_cell_length_b   9.19671006
_cell_length_c   7.33638805
_cell_angle_alpha   90.00000000
_cell_angle_beta   90.00000000
_cell_angle_gamma   90.00000000
_symmetry_Int_Tables_number   1
_chemical_formula_structural   BaMnO4
_chemical_formula_sum   'Ba4 Mn4 O16'
_cell_volume   367.53171063
_cell_formula_units_Z   4
loop_
 _symmetry_equiv_pos_site_id
 _symmetry_equiv_pos_as_xyz
  1  'x, y, z'
loop_
 _atom_site_type_symbol
 _atom_site_label
 _atom_site_symmetry_multiplicity
 _atom_site_fract_x
 _atom_site_fract_y
 _atom_site_fract_z
 _atom_site_occupancy
  Ba  Ba0  1  0.75000000  0.81551244  0.34758048  1
  Ba  Ba1  1  0.25000000  0.18448756  0.65241952  1
  Ba  Ba2  1  0.25000000  0.68448756  0.84758048  1
  Ba  Ba3  1  0.75000000  0.31551244  0.15241952  1
  Mn  Mn0  1  0.75000000  0.94445394  0.80485105  1
  Mn  Mn1  1  0.25000000  0.05554606  0.19514895  1
  Mn  Mn2  1  0.25000000  0.55554606  0.30485105  1
  Mn  Mn3  1  0.75000000  0.44445394  0.69514895  1
  O  O0  1  0.75000000  0.61363920  0.62721072  1
  O  O1  1  0.25000000  0.38636080  0.37278928  1
  O  O2  1  0.25000000  0.88636080  0.12721072  1
  O  O3  1  0.75000000  0.11363920  0.87278928  1
  O  O4  1  0.75000000  0.82439604  0.96943861  1
  O  O5  1  0.25000000  0.17560396  0.03056139  1
  O  O6  1  0.25000000  0.67560396  0.46943861  1
  O  O7  1  0.75000000  0.32439604  0.53056139  1
  O  O8  1  0.99444890  0.91703503  0.67620132  1
  O  O9  1  0.00555110  0.08296497  0.32379868  1
  O  O10  1  0.00555110  0.58296497  0.17620132  1
  O  O11  1  0.49444890  0.08296497  0.32379868  1
  O  O12  1  0.99444890  0.41703503  0.82379868  1
  O  O13  1  0.50555110  0.91703503  0.67620132  1
  O  O14  1  0.50555110  0.41703503  0.82379868  1
  O  O15  1  0.49444890  0.58296497  0.17620132  1
loop_
_geom_bond_atom_site_label_1
_geom_bond_atom_site_label_2
_geom_bond_distance
_geom_bond_site_symmetry_2
Ba0 O0 2.766840 1_555
Ba0 O4 2.775398 1_554
Ba0 O9 2.831662 1_665
Ba0 O11 2.831662 1_565
Ba0 O10 2.844742 1_655
Ba0 O15 2.844742 1_555
Ba0 O13 2.908135 1_555
Ba0 O8 2.908135 1_555
Ba0 O6 3.142141 1_555
Ba0 O6 3.142141 1_655
Ba0 O2 3.233659 1_555
Ba0 O2 3.233659 1_655
Ba1 O1 2.766840 1_555
Ba1 O5 2.775398 1_556
Ba1 O13 2.831662 1_545
Ba1 O8 2.831662 1_445
Ba1 O14 2.844742 1_555
Ba1 O12 2.844742 1_455
Ba1 O11 2.908135 1_555
Ba1 O9 2.908135 1_555
Ba1 O7 3.142141 1_555
Ba1 O7 3.142141 1_455
Ba1 O3 3.233659 1_455
Ba1 O3 3.233659 1_555
Ba2 O2 2.766840 1_556
Ba2 O6 2.775398 1_555
Ba2 O14 2.831662 1_555
Ba2 O12 2.831662 1_455
Ba2 O13 2.844742 1_555
Ba2 O8 2.844742 1_455
Ba2 O15 2.908135 1_556
Ba2 O10 2.908135 1_556
Ba2 O4 3.142141 1_455
Ba2 O4 3.142141 1_555
Ba2 O0 3.233659 1_455
Ba2 O0 3.233659 1_555
Ba3 O3 2.766840 1_554
Ba3 O7 2.775398 1_555
Ba3 O10 2.831662 1_655
Ba3 O15 2.831662 1_555
Ba3 O9 2.844742 1_655
Ba3 O11 2.844742 1_555
Ba3 O14 2.908135 1_554
Ba3 O12 2.908135 1_554
Ba3 O5 3.142141 1_555
Ba3 O5 3.142141 1_655
Ba3 O1 3.233659 1_655
Ba3 O1 3.233659 1_555
Mn0 O3 1.633829 1_565
Mn0 O4 1.636192 1_555
Mn0 O13 1.651515 1_555
Mn0 O8 1.651515 1_555
Mn1 O2 1.633829 1_545
Mn1 O5 1.636192 1_555
Mn1 O11 1.651515 1_555
Mn1 O9 1.651515 1_555
Mn2 O1 1.633829 1_555
Mn2 O6 1.636192 1_555
Mn2 O15 1.651515 1_555
Mn2 O10 1.651515 1_555
Mn3 O0 1.633829 1_555
Mn3 O7 1.636192 1_555
Mn3 O12 1.651515 1_555
Mn3 O14 1.651515 1_555
