# generated using pymatgen
data_MgCu2SiS4
_symmetry_space_group_name_H-M   'P 1'
_cell_length_a   6.20401600
_cell_length_b   6.45778100
_cell_length_c   7.56673400
_cell_angle_alpha   90.00000000
_cell_angle_beta   90.00000000
_cell_angle_gamma   90.00000000
_symmetry_Int_Tables_number   1
_chemical_formula_structural   MgCu2SiS4
_chemical_formula_sum   'Mg2 Cu4 Si2 S8'
_cell_volume   303.15496763
_cell_formula_units_Z   2
loop_
 _symmetry_equiv_pos_site_id
 _symmetry_equiv_pos_as_xyz
  1  'x, y, z'
loop_
 _atom_site_type_symbol
 _atom_site_label
 _atom_site_symmetry_multiplicity
 _atom_site_fract_x
 _atom_site_fract_y
 _atom_site_fract_z
 _atom_site_occupancy
  Mg  Mg0  1  0.99711700  0.65456000  0.50000000  1
  Mg  Mg1  1  0.49711700  0.34544000  0.00000000  1
  Cu  Cu0  1  0.00676700  0.17731200  0.24762100  1
  Cu  Cu1  1  0.00676700  0.17731200  0.75237900  1
  Cu  Cu2  1  0.50676700  0.82268800  0.25237900  1
  Cu  Cu3  1  0.50676700  0.82268800  0.74762100  1
  Si  Si0  1  0.49885600  0.32213200  0.50000000  1
  Si  Si1  1  0.99885600  0.67786800  0.00000000  1
  S  S0  1  0.37682000  0.16163000  0.27078800  1
  S  S1  1  0.37682000  0.16163000  0.72921200  1
  S  S2  1  0.87682000  0.83837000  0.22921200  1
  S  S3  1  0.87682000  0.83837000  0.77078800  1
  S  S4  1  0.84623000  0.30584400  0.50000000  1
  S  S5  1  0.34623000  0.69415600  0.00000000  1
  S  S6  1  0.39552300  0.64067600  0.50000000  1
  S  S7  1  0.89552300  0.35932400  0.00000000  1
loop_
_geom_bond_atom_site_label_1
_geom_bond_atom_site_label_2
_geom_bond_distance
_geom_bond_site_symmetry_2
Mg0 S4 2.438747 1_555
Mg0 S6 2.473343 1_655
Mg0 S3 2.482801 1_555
Mg0 S2 2.482801 1_555
Mg1 S5 2.438747 1_555
Mg1 S7 2.473343 1_555
Mg1 S0 2.482801 1_555
Mg1 S1 2.482801 1_554
Cu0 S0 2.304724 1_555
Cu0 S4 2.308205 1_455
Cu0 S7 2.317014 1_455
Cu0 S2 2.336719 1_445
Cu1 S1 2.304724 1_555
Cu1 S4 2.308205 1_455
Cu1 S7 2.317014 1_456
Cu1 S3 2.336719 1_445
Cu2 S2 2.304724 1_555
Cu2 S5 2.308205 1_555
Cu2 S6 2.317014 1_555
Cu2 S0 2.336719 1_565
Cu3 S3 2.304724 1_555
Cu3 S5 2.308205 1_556
Cu3 S6 2.317014 1_555
Cu3 S1 2.336719 1_565
S0 Si0 2.157689 1_555
S1 Si0 2.157689 1_555
S2 Si1 2.157689 1_555
S3 Si1 2.157689 1_556
S4 Si0 2.157679 1_555
S5 Si1 2.157679 1_455
S6 Si0 2.154667 1_555
S7 Si1 2.154667 1_555
