# generated using pymatgen
data_Ba2YTlFe2O7
_symmetry_space_group_name_H-M   'P 1'
_cell_length_a   3.96540200
_cell_length_b   3.96540200
_cell_length_c   12.96003300
_cell_angle_alpha   90.00000000
_cell_angle_beta   90.00000000
_cell_angle_gamma   90.00000000
_symmetry_Int_Tables_number   1
_chemical_formula_structural   Ba2YTlFe2O7
_chemical_formula_sum   'Ba2 Y1 Tl1 Fe2 O7'
_cell_volume   203.78891167
_cell_formula_units_Z   1
loop_
 _symmetry_equiv_pos_site_id
 _symmetry_equiv_pos_as_xyz
  1  'x, y, z'
loop_
 _atom_site_type_symbol
 _atom_site_label
 _atom_site_symmetry_multiplicity
 _atom_site_fract_x
 _atom_site_fract_y
 _atom_site_fract_z
 _atom_site_occupancy
  Ba  Ba0  1  0.00000000  0.00000000  0.20076600  1
  Ba  Ba1  1  0.00000000  0.00000000  0.79923400  1
  Y  Y0  1  0.00000000  0.00000000  0.50000000  1
  Tl  Tl0  1  0.50000000  0.50000000  0.00000000  1
  Fe  Fe0  1  0.50000000  0.50000000  0.37190800  1
  Fe  Fe1  1  0.50000000  0.50000000  0.62809200  1
  O  O0  1  0.50000000  0.50000000  0.16654000  1
  O  O1  1  0.50000000  0.00000000  0.38929300  1
  O  O2  1  0.00000000  0.50000000  0.38929300  1
  O  O3  1  0.00000000  0.50000000  0.61070700  1
  O  O4  1  0.00000000  0.00000000  0.00000000  1
  O  O5  1  0.50000000  0.00000000  0.61070700  1
  O  O6  1  0.50000000  0.50000000  0.83346000  1
loop_
_geom_bond_atom_site_label_1
_geom_bond_atom_site_label_2
_geom_bond_distance
_geom_bond_site_symmetry_2
Ba0 O4 2.601934 1_555
Ba0 O0 2.838831 1_545
Ba0 O0 2.838831 1_555
Ba0 O0 2.838831 1_445
Ba0 O0 2.838831 1_455
Ba0 O2 3.146569 1_545
Ba0 O1 3.146569 1_455
Ba0 O1 3.146569 1_555
Ba0 O2 3.146569 1_555
Ba1 O4 2.601934 1_556
Ba1 O6 2.838831 1_445
Ba1 O6 2.838831 1_545
Ba1 O6 2.838831 1_455
Ba1 O6 2.838831 1_555
Ba1 O5 3.146569 1_455
Ba1 O5 3.146569 1_555
Ba1 O3 3.146569 1_545
Ba1 O3 3.146569 1_555
Fe0 O2 1.995462 1_555
Fe0 O2 1.995462 1_655
Fe0 O1 1.995462 1_555
Fe0 O1 1.995462 1_565
Fe0 O0 2.661576 1_555
Fe1 O5 1.995462 1_565
Fe1 O3 1.995462 1_555
Fe1 O3 1.995462 1_655
Fe1 O5 1.995462 1_555
Fe1 O6 2.661576 1_555
O0 Tl0 2.158364 1_555
O1 Y0 2.447378 1_555
O1 Y0 2.447378 1_655
O2 Y0 2.447378 1_565
O2 Y0 2.447378 1_555
O3 Y0 2.447378 1_565
O3 Y0 2.447378 1_555
O4 Tl0 2.803963 1_455
O4 Tl0 2.803963 1_555
O4 Tl0 2.803963 1_545
O4 Tl0 2.803963 1_445
O5 Y0 2.447378 1_555
O5 Y0 2.447378 1_655
O6 Tl0 2.158364 1_556
