# generated using pymatgen
data_MgV12Zn6O24
_symmetry_space_group_name_H-M   'P 1'
_cell_length_a   6.05689650
_cell_length_b   6.15260423
_cell_length_c   18.26073370
_cell_angle_alpha   60.54340321
_cell_angle_beta   60.01018730
_cell_angle_gamma   60.84199566
_symmetry_Int_Tables_number   1
_chemical_formula_structural   MgV12Zn6O24
_chemical_formula_sum   'Mg1 V12 Zn6 O24'
_cell_volume   486.19357847
_cell_formula_units_Z   1
loop_
 _symmetry_equiv_pos_site_id
 _symmetry_equiv_pos_as_xyz
  1  'x, y, z'
loop_
 _atom_site_type_symbol
 _atom_site_label
 _atom_site_symmetry_multiplicity
 _atom_site_fract_x
 _atom_site_fract_y
 _atom_site_fract_z
 _atom_site_occupancy
  Mg  Mg0  1  0.01453557  0.48275826  0.32924751  1
  V  V0  1  0.00030539  0.53602076  0.15801612  1
  V  V1  1  0.49073073  0.53591307  0.15811911  1
  V  V2  1  0.00806714  0.46081026  0.50573687  1
  V  V3  1  0.48385872  0.02529171  0.16908009  1
  V  V4  1  0.49694851  0.51555156  0.32839180  1
  V  V5  1  0.50759904  0.46162297  0.50615001  1
  V  V6  1  0.00450280  0.50281524  0.83287874  1
  V  V7  1  0.51540720  0.97464791  0.49735485  1
  V  V8  1  0.49896578  0.00403453  0.83390613  1
  V  V9  1  0.50650934  0.49026382  0.66638035  1
  V  V10  1  0.49913722  0.50139793  0.83334750  1
  V  V11  1  0.87424858  0.89181887  0.95488447  1
  Zn  Zn0  1  0.11391908  0.14160862  0.04444373  1
  Zn  Zn1  1  0.08996684  0.01023324  0.43197329  1
  Zn  Zn2  1  0.50071850  0.50495723  0.99914701  1
  Zn  Zn3  1  0.13074549  0.11501953  0.70897086  1
  Zn  Zn4  1  0.83751960  0.96670037  0.28430240  1
  Zn  Zn5  1  0.88103728  0.84813881  0.63032139  1
  O  O0  1  0.24881800  0.27196580  0.09017229  1
  O  O1  1  0.24315689  0.30222946  0.23657269  1
  O  O2  1  0.25422621  0.74763941  0.08285476  1
  O  O3  1  0.71146594  0.27216975  0.08989497  1
  O  O4  1  0.25165503  0.76305608  0.24483957  1
  O  O5  1  0.24708910  0.25212287  0.41579084  1
  O  O6  1  0.73645297  0.33305205  0.23088393  1
  O  O7  1  0.73430548  0.77916059  0.08534705  1
  O  O8  1  0.26465157  0.67015352  0.43129132  1
  O  O9  1  0.26921552  0.23198882  0.57581361  1
  O  O10  1  0.74895319  0.76307276  0.24456879  1
  O  O11  1  0.74510805  0.25796507  0.41511973  1
  O  O12  1  0.28974487  0.70110578  0.58207463  1
  O  O13  1  0.25294541  0.26523769  0.75530880  1
  O  O14  1  0.75054422  0.24821994  0.58404930  1
  O  O15  1  0.76953147  0.70311014  0.41828601  1
  O  O16  1  0.26276532  0.26334142  0.90628906  1
  O  O17  1  0.27234723  0.71368063  0.75315705  1
  O  O18  1  0.76300129  0.70757637  0.58028558  1
  O  O19  1  0.71989284  0.25412949  0.75330261  1
  O  O20  1  0.26969009  0.76057279  0.90960245  1
  O  O21  1  0.73669448  0.73859256  0.76344857  1
  O  O22  1  0.74377662  0.28042860  0.90916573  1
  O  O23  1  0.75923739  0.74982571  0.90851141  1
loop_
_geom_bond_atom_site_label_1
_geom_bond_atom_site_label_2
_geom_bond_distance
_geom_bond_site_symmetry_2
Mg0 O1 2.005595 1_555
Mg0 O15 2.116426 1_455
Mg0 O11 2.131422 1_455
Mg0 O5 2.137093 1_555
Mg0 O4 2.235777 1_555
Mg0 O10 2.261286 1_455
O0 Zn0 1.996870 1_555
O0 V0 2.042633 1_555
O0 V3 2.049575 1_555
O0 Zn2 2.097172 1_554
O1 V1 2.072577 1_555
O1 V0 2.075743 1_555
O1 V3 2.096714 1_555
O2 Zn0 2.001525 1_565
O2 V1 2.006695 1_555
O2 V0 2.006941 1_555
O2 Zn2 2.141503 1_554
O3 Zn0 2.000309 1_655
O3 V1 2.044965 1_555
O3 V3 2.045986 1_555
O3 Zn2 2.103710 1_554
O4 Zn4 2.097518 1_455
O4 V1 2.114218 1_555
O4 V3 2.136791 1_565
O4 V4 2.151856 1_555
O5 Zn1 1.968336 1_555
O5 V2 2.080370 1_555
O5 V4 2.212647 1_555
O5 V7 2.233714 1_545
O6 Zn4 1.869966 1_545
O6 V0 2.017077 1_655
O6 V1 2.018460 1_555
O6 V4 2.081478 1_555
O7 V11 1.950427 1_554
O7 V1 2.101868 1_555
O7 V0 2.104956 1_655
O7 V3 2.156949 1_565
O8 Zn1 1.831083 1_565
O8 V2 2.009633 1_555
O8 V5 2.031332 1_555
O8 V4 2.055711 1_555
O9 Zn3 1.990511 1_555
O9 V5 2.020664 1_555
O9 V2 2.050151 1_555
O9 V7 2.139583 1_545
O10 Zn4 2.078907 1_555
O10 V0 2.112102 1_655
O10 V3 2.140627 1_565
O10 V4 2.151454 1_555
O11 Zn1 1.964643 1_655
O11 V5 2.074667 1_555
O11 V4 2.206577 1_555
O11 V7 2.220200 1_545
O12 V5 2.029817 1_555
O12 Zn5 2.035696 1_455
O12 V9 2.042885 1_555
O12 V7 2.158910 1_555
O13 V6 2.041968 1_555
O13 Zn3 2.044476 1_555
O13 V9 2.068837 1_555
O13 V8 2.097386 1_555
O14 V2 2.026642 1_655
O14 Zn5 2.030765 1_545
O14 V5 2.070183 1_555
O14 V9 2.120933 1_555
O15 Zn4 2.127625 1_555
O15 V5 2.169432 1_555
O15 V2 2.173988 1_655
O15 V7 2.211330 1_555
O16 V10 2.046293 1_555
O16 Zn0 2.064983 1_556
O16 V8 2.073320 1_555
O16 V6 2.079104 1_555
O17 V10 2.029436 1_555
O17 Zn3 2.037776 1_565
O17 V6 2.065601 1_555
O17 V9 2.099492 1_555
O18 Zn5 2.031393 1_555
O18 V2 2.044084 1_655
O18 V9 2.046419 1_555
O18 V7 2.159642 1_555
O19 V8 2.033383 1_555
O19 Zn3 2.042697 1_655
O19 V9 2.062426 1_555
O19 V10 2.118942 1_555
O20 V11 1.965882 1_455
O20 V8 2.038267 1_565
O20 V10 2.122016 1_555
O20 Zn2 2.172297 1_555
O21 Zn5 1.991578 1_555
O21 V10 2.051185 1_555
O21 V6 2.072937 1_655
O21 V8 2.078222 1_565
O22 V11 1.973152 1_545
O22 V10 2.048742 1_555
O22 V6 2.082835 1_655
O22 Zn2 2.146637 1_555
O23 V11 1.968735 1_555
O23 V6 2.058474 1_655
O23 V8 2.106207 1_565
O23 Zn2 2.171728 1_555
