# generated using pymatgen
data_Ba4Ce2BiO12
_symmetry_space_group_name_H-M   'P 1'
_cell_length_a   6.17409012
_cell_length_b   6.29079007
_cell_length_c   8.85477414
_cell_angle_alpha   88.28056340
_cell_angle_beta   89.56043019
_cell_angle_gamma   90.40028081
_symmetry_Int_Tables_number   1
_chemical_formula_structural   Ba4Ce2BiO12
_chemical_formula_sum   'Ba4 Ce2 Bi1 O12'
_cell_volume   343.74465503
_cell_formula_units_Z   1
loop_
 _symmetry_equiv_pos_site_id
 _symmetry_equiv_pos_as_xyz
  1  'x, y, z'
loop_
 _atom_site_type_symbol
 _atom_site_label
 _atom_site_symmetry_multiplicity
 _atom_site_fract_x
 _atom_site_fract_y
 _atom_site_fract_z
 _atom_site_occupancy
  Ba  Ba0  1  0.51202700  0.01573100  0.72643000  1
  Ba  Ba1  1  0.02407100  0.49255000  0.72114400  1
  Ba  Ba2  1  0.48797300  0.98426900  0.27357000  1
  Ba  Ba3  1  0.97592900  0.50745000  0.27885600  1
  Ce  Ce0  1  0.50000000  0.50000000  0.00000000  1
  Ce  Ce1  1  0.00000000  0.00000000  0.00000000  1
  Bi  Bi0  1  0.00000000  0.00000000  0.50000000  1
  O  O0  1  0.49180600  0.57973800  0.77920700  1
  O  O1  1  0.99453700  0.93206500  0.74752600  1
  O  O2  1  0.50819300  0.42026200  0.22079300  1
  O  O3  1  0.00546300  0.06793500  0.25247400  1
  O  O4  1  0.22848900  0.73640200  0.05110700  1
  O  O5  1  0.74981900  0.77740700  0.47526900  1
  O  O6  1  0.77731000  0.24734500  0.52590400  1
  O  O7  1  0.26419800  0.22885900  0.94709900  1
  O  O8  1  0.77151100  0.26359800  0.94889300  1
  O  O9  1  0.25018100  0.22259300  0.52473100  1
  O  O10  1  0.22269000  0.75265500  0.47409600  1
  O  O11  1  0.73580200  0.77114100  0.05290100  1
loop_
_geom_bond_atom_site_label_1
_geom_bond_atom_site_label_2
_geom_bond_distance
_geom_bond_site_symmetry_2
Ba0 O9 2.725996 1_555
Ba0 O0 2.770200 1_545
Ba0 O6 2.779421 1_555
Ba0 O7 2.845501 1_555
Ba0 O8 3.012673 1_555
Ba0 O1 3.035006 1_545
Ba0 O5 3.087071 1_545
Ba0 O1 3.237526 1_445
Ba0 O10 3.341300 1_545
Ba1 O1 2.788840 1_455
Ba1 O6 2.803019 1_455
Ba1 O9 2.833870 1_555
Ba1 O8 2.884258 1_455
Ba1 O10 2.946617 1_555
Ba1 O7 2.972125 1_555
Ba1 O0 2.987030 1_555
Ba1 O5 3.268514 1_455
Ba1 O0 3.373544 1_455
Ba2 O5 2.725996 1_555
Ba2 O2 2.770200 1_565
Ba2 O10 2.779421 1_555
Ba2 O11 2.845501 1_555
Ba2 O4 3.012673 1_555
Ba2 O3 3.035006 1_565
Ba2 O9 3.087071 1_565
Ba2 O3 3.237526 1_665
Ba2 O6 3.341300 1_565
Ba3 O3 2.788840 1_655
Ba3 O10 2.803019 1_655
Ba3 O5 2.833870 1_555
Ba3 O4 2.884258 1_655
Ba3 O6 2.946617 1_555
Ba3 O11 2.972125 1_555
Ba3 O2 2.987036 1_555
Ba3 O9 3.268514 1_655
Ba3 O2 3.373538 1_655
Ce0 O2 2.004870 1_555
Ce0 O0 2.004870 1_554
Ce0 O11 2.296096 1_555
Ce0 O7 2.296096 1_554
Ce0 O4 2.300021 1_555
Ce0 O8 2.300021 1_554
Ce1 O7 2.206336 1_554
Ce1 O11 2.206336 1_445
Ce1 O4 2.223085 1_545
Ce1 O8 2.223085 1_454
Ce1 O3 2.289100 1_555
Ce1 O1 2.289100 1_444
Bi0 O9 2.094765 1_555
Bi0 O5 2.094765 1_445
Bi0 O6 2.100138 1_455
Bi0 O10 2.100138 1_545
Bi0 O1 2.220396 1_445
Bi0 O3 2.220396 1_555
