# generated using pymatgen
data_LiYGeO4
_symmetry_space_group_name_H-M   'P 1'
_cell_length_a   5.10753500
_cell_length_b   6.40389600
_cell_length_c   11.16386800
_cell_angle_alpha   90.00000000
_cell_angle_beta   90.00000000
_cell_angle_gamma   90.00000000
_symmetry_Int_Tables_number   1
_chemical_formula_structural   LiYGeO4
_chemical_formula_sum   'Li4 Y4 Ge4 O16'
_cell_volume   365.14916721
_cell_formula_units_Z   4
loop_
 _symmetry_equiv_pos_site_id
 _symmetry_equiv_pos_as_xyz
  1  'x, y, z'
loop_
 _atom_site_type_symbol
 _atom_site_label
 _atom_site_symmetry_multiplicity
 _atom_site_fract_x
 _atom_site_fract_y
 _atom_site_fract_z
 _atom_site_occupancy
  Li  Li0  1  0.50000000  0.50000000  0.50000000  1
  Li  Li1  1  0.00000000  0.50000000  0.00000000  1
  Li  Li2  1  0.50000000  0.00000000  0.50000000  1
  Li  Li3  1  0.00000000  0.00000000  0.00000000  1
  Y  Y0  1  0.02090600  0.75000000  0.72667000  1
  Y  Y1  1  0.97909400  0.25000000  0.27333000  1
  Y  Y2  1  0.52090600  0.25000000  0.77333000  1
  Y  Y3  1  0.47909400  0.75000000  0.22667000  1
  Ge  Ge0  1  0.57817300  0.75000000  0.91843200  1
  Ge  Ge1  1  0.42182700  0.25000000  0.08156800  1
  Ge  Ge2  1  0.07817300  0.25000000  0.58156800  1
  Ge  Ge3  1  0.92182700  0.75000000  0.41843200  1
  O  O0  1  0.73302800  0.53762700  0.83853900  1
  O  O1  1  0.26697200  0.46237300  0.16146100  1
  O  O2  1  0.23302800  0.46237300  0.66146100  1
  O  O3  1  0.26697200  0.03762700  0.16146100  1
  O  O4  1  0.76697200  0.53762700  0.33853900  1
  O  O5  1  0.73302800  0.96237300  0.83853900  1
  O  O6  1  0.76697200  0.96237300  0.33853900  1
  O  O7  1  0.23302800  0.03762700  0.66146100  1
  O  O8  1  0.77199700  0.75000000  0.56049100  1
  O  O9  1  0.22800300  0.25000000  0.43950900  1
  O  O10  1  0.27199700  0.25000000  0.93950900  1
  O  O11  1  0.72800300  0.75000000  0.06049100  1
  O  O12  1  0.23727300  0.75000000  0.90918600  1
  O  O13  1  0.76272700  0.25000000  0.09081400  1
  O  O14  1  0.73727300  0.25000000  0.59081400  1
  O  O15  1  0.26272700  0.75000000  0.40918600  1
loop_
_geom_bond_atom_site_label_1
_geom_bond_atom_site_label_2
_geom_bond_distance
_geom_bond_site_symmetry_2
Li0 O9 2.224666 1_555
Li0 O8 2.224666 1_555
Li0 O14 2.249363 1_555
Li0 O15 2.249363 1_555
Li0 O2 2.272992 1_555
Li0 O4 2.272992 1_555
Li1 O10 2.224666 1_554
Li1 O11 2.224666 1_455
Li1 O12 2.249363 1_554
Li1 O13 2.249363 1_455
Li1 O0 2.272992 1_454
Li1 O1 2.272992 1_555
Li2 O9 2.224666 1_555
Li2 O8 2.224666 1_545
Li2 O14 2.249363 1_555
Li2 O15 2.249363 1_545
Li2 O7 2.272992 1_555
Li2 O6 2.272992 1_545
Li3 O10 2.224666 1_554
Li3 O11 2.224666 1_445
Li3 O13 2.249363 1_455
Li3 O12 2.249363 1_544
Li3 O5 2.272992 1_444
Li3 O3 2.272992 1_555
Ge0 O12 1.744216 1_555
Ge0 O11 1.760907 1_556
Ge0 O5 1.808513 1_555
Ge0 O0 1.808513 1_555
Ge1 O13 1.744216 1_555
Ge1 O10 1.760907 1_554
Ge1 O1 1.808513 1_555
Ge1 O3 1.808513 1_555
Ge2 O14 1.744216 1_455
Ge2 O9 1.760907 1_555
Ge2 O2 1.808513 1_555
Ge2 O7 1.808513 1_555
Ge3 O15 1.744216 1_655
Ge3 O8 1.760907 1_555
Ge3 O4 1.808513 1_555
Ge3 O6 1.808513 1_555
O0 Y2 2.257539 1_555
O0 Y0 2.360358 1_655
O1 Y3 2.257539 1_555
O1 Y1 2.360358 1_455
O2 Y0 2.257539 1_555
O2 Y2 2.360358 1_555
O3 Y3 2.257539 1_545
O3 Y1 2.360358 1_455
O4 Y1 2.257539 1_555
O4 Y3 2.360358 1_555
O5 Y2 2.257539 1_565
O5 Y0 2.360358 1_655
O6 Y1 2.257539 1_565
O6 Y3 2.360358 1_555
O7 Y0 2.257539 1_545
O7 Y2 2.360358 1_555
O8 Y0 2.249000 1_655
O9 Y1 2.249000 1_455
O10 Y2 2.249000 1_555
O11 Y3 2.249000 1_555
O12 Y0 2.317974 1_555
O13 Y1 2.317974 1_555
O14 Y2 2.317974 1_555
O15 Y3 2.317974 1_555
