# generated using pymatgen
data_Cu3Te2
_symmetry_space_group_name_H-M   'P 1'
_cell_length_a   4.04873138
_cell_length_b   4.04873138
_cell_length_c   5.96329066
_cell_angle_alpha   90.00000000
_cell_angle_beta   90.00000000
_cell_angle_gamma   90.00000000
_symmetry_Int_Tables_number   1
_chemical_formula_structural   Cu3Te2
_chemical_formula_sum   'Cu3 Te2'
_cell_volume   97.75160693
_cell_formula_units_Z   1
loop_
 _symmetry_equiv_pos_site_id
 _symmetry_equiv_pos_as_xyz
  1  'x, y, z'
loop_
 _atom_site_type_symbol
 _atom_site_label
 _atom_site_symmetry_multiplicity
 _atom_site_fract_x
 _atom_site_fract_y
 _atom_site_fract_z
 _atom_site_occupancy
  Cu  Cu0  1  0.50000000  -0.00000000  0.99346128  1
  Cu  Cu1  1  -0.00000000  0.50000000  0.99346128  1
  Cu  Cu2  1  -0.00000000  -0.00000000  0.27213846  1
  Te  Te0  1  0.00000000  0.00000000  0.72112866  1
  Te  Te1  1  0.50000000  0.50000000  0.28981032  1
loop_
_geom_bond_atom_site_label_1
_geom_bond_atom_site_label_2
_geom_bond_distance
_geom_bond_site_symmetry_2
Cu0 Te0 2.595270 1_555
Cu0 Te0 2.595270 1_655
Cu0 Cu2 2.619112 1_556
Cu0 Cu2 2.619112 1_656
Cu0 Te1 2.687212 1_546
Cu0 Te1 2.687212 1_556
Cu0 Cu1 2.862885 1_645
Cu0 Cu1 2.862885 1_545
Cu0 Cu1 2.862885 1_555
Cu0 Cu1 2.862885 1_655
Cu1 Te0 2.595270 1_555
Cu1 Te0 2.595270 1_565
Cu1 Cu2 2.619112 1_566
Cu1 Cu2 2.619112 1_556
Cu1 Te1 2.687212 1_456
Cu1 Te1 2.687212 1_556
Cu2 Te0 2.677459 1_555
Cu2 Te1 2.864824 1_545
Cu2 Te1 2.864824 1_455
Cu2 Te1 2.864824 1_445
Cu2 Te1 2.864824 1_555
