# generated using pymatgen
data_Ba2TaCu2Pb2ClO8
_symmetry_space_group_name_H-M   'P 1'
_cell_length_a   3.98710927
_cell_length_b   3.98710927
_cell_length_c   16.03831500
_cell_angle_alpha   90.00000000
_cell_angle_beta   90.00000000
_cell_angle_gamma   90.00475549
_symmetry_Int_Tables_number   1
_chemical_formula_structural   Ba2TaCu2Pb2ClO8
_chemical_formula_sum   'Ba2 Ta1 Cu2 Pb2 Cl1 O8'
_cell_volume   254.96173957
_cell_formula_units_Z   1
loop_
 _symmetry_equiv_pos_site_id
 _symmetry_equiv_pos_as_xyz
  1  'x, y, z'
loop_
 _atom_site_type_symbol
 _atom_site_label
 _atom_site_symmetry_multiplicity
 _atom_site_fract_x
 _atom_site_fract_y
 _atom_site_fract_z
 _atom_site_occupancy
  Ba  Ba0  1  0.49201300  0.49201300  0.34935700  1
  Ba  Ba1  1  0.49201300  0.49201300  0.65064300  1
  Ta  Ta0  1  0.98638000  0.98638000  0.50000000  1
  Cu  Cu0  1  0.99832300  0.99832300  0.22150600  1
  Cu  Cu1  1  0.99832300  0.99832300  0.77849400  1
  Pb  Pb0  1  0.49973600  0.49973600  0.11919000  1
  Pb  Pb1  1  0.49973600  0.49973600  0.88081000  1
  Cl  Cl0  1  0.99943200  0.99943200  0.00000000  1
  O  O0  1  0.98724500  0.98724500  0.37623200  1
  O  O1  1  0.98724500  0.98724500  0.62376800  1
  O  O2  1  0.99926600  0.49875100  0.21065000  1
  O  O3  1  0.49875100  0.99926600  0.21065000  1
  O  O4  1  0.99926600  0.49875100  0.78935000  1
  O  O5  1  0.49875100  0.99926600  0.78935000  1
  O  O6  1  0.97687100  0.48365000  0.50000000  1
  O  O7  1  0.48365000  0.97687100  0.50000000  1
loop_
_geom_bond_atom_site_label_1
_geom_bond_atom_site_label_2
_geom_bond_distance
_geom_bond_site_symmetry_2
Ba0 O0 2.825383 1_555
Ba0 O0 2.852313 1_455
Ba0 O0 2.852313 1_545
Ba0 O0 2.878533 1_445
Ba0 O3 2.968078 1_545
Ba0 O2 2.968078 1_455
Ba0 O3 3.006672 1_555
Ba0 O2 3.006672 1_555
Ba0 O7 3.094456 1_555
Ba0 O6 3.094456 1_555
Ba0 O7 3.171287 1_545
Ba0 O6 3.171287 1_455
Ba1 O1 2.825383 1_555
Ba1 O1 2.852313 1_455
Ba1 O1 2.852313 1_545
Ba1 O1 2.878533 1_445
Ba1 O5 2.968078 1_545
Ba1 O4 2.968078 1_455
Ba1 O4 3.006672 1_555
Ba1 O5 3.006672 1_555
Ba1 O6 3.094456 1_555
Ba1 O7 3.094456 1_555
Ba1 O7 3.171287 1_545
Ba1 O6 3.171287 1_455
Cu0 O3 1.999447 1_555
Cu0 O2 1.999447 1_555
Cu0 O3 2.002847 1_655
Cu0 O2 2.002847 1_565
Cu0 O0 2.482330 1_555
Cu1 O5 1.999447 1_555
Cu1 O4 1.999447 1_555
Cu1 O5 2.002847 1_655
Cu1 O4 2.002847 1_565
Cu1 O1 2.482330 1_555
O0 Ta0 1.985036 1_555
O1 Ta0 1.985036 1_555
O2 Pb0 2.473560 1_555
O2 Pb0 2.476578 1_655
O3 Pb0 2.473560 1_555
O3 Pb0 2.476578 1_565
O4 Pb1 2.473560 1_555
O4 Pb1 2.476578 1_655
O5 Pb1 2.473560 1_555
O5 Pb1 2.476578 1_565
O6 Ta0 1.983035 1_545
O6 Ta0 2.004795 1_555
O7 Ta0 1.983035 1_455
O7 Ta0 2.004795 1_555
