# generated using pymatgen
data_KLaSmSbO6
_symmetry_space_group_name_H-M   'P 1'
_cell_length_a   8.37331474
_cell_length_b   8.49512031
_cell_length_c   8.47802903
_cell_angle_alpha   90.00000000
_cell_angle_beta   90.00000000
_cell_angle_gamma   90.00000000
_symmetry_Int_Tables_number   1
_chemical_formula_structural   KLaSmSbO6
_chemical_formula_sum   'K4 La4 Sm4 Sb4 O24'
_cell_volume   603.06184095
_cell_formula_units_Z   4
loop_
 _symmetry_equiv_pos_site_id
 _symmetry_equiv_pos_as_xyz
  1  'x, y, z'
loop_
 _atom_site_type_symbol
 _atom_site_label
 _atom_site_symmetry_multiplicity
 _atom_site_fract_x
 _atom_site_fract_y
 _atom_site_fract_z
 _atom_site_occupancy
  K  K0  1  0.50000000  0.00000000  0.50000000  1
  K  K1  1  0.50000000  0.50000000  0.00000000  1
  K  K2  1  0.00000000  0.50000000  0.00000000  1
  K  K3  1  0.00000000  -0.00000000  0.50000000  1
  La  La0  1  0.00000000  0.50000000  0.50000000  1
  La  La1  1  0.50000000  0.00000000  -0.00000000  1
  La  La2  1  0.00000000  0.00000000  0.00000000  1
  La  La3  1  0.50000000  0.50000000  0.50000000  1
  Sm  Sm0  1  0.25000000  0.25000000  0.25000000  1
  Sm  Sm1  1  0.75000000  0.75000000  0.25000000  1
  Sm  Sm2  1  0.75000000  0.25000000  0.75000000  1
  Sm  Sm3  1  0.25000000  0.75000000  0.75000000  1
  Sb  Sb0  1  0.75000000  0.75000000  0.75000000  1
  Sb  Sb1  1  0.25000000  0.25000000  0.75000000  1
  Sb  Sb2  1  0.25000000  0.75000000  0.25000000  1
  Sb  Sb3  1  0.75000000  0.25000000  0.25000000  1
  O  O0  1  0.98315607  0.21666319  0.27319350  1
  O  O1  1  0.01684393  0.78333681  0.27319350  1
  O  O2  1  0.01684393  0.21666319  0.72680650  1
  O  O3  1  0.98315607  0.78333681  0.72680650  1
  O  O4  1  0.28016232  0.98415318  0.19819275  1
  O  O5  1  0.28016232  0.01584682  0.80180725  1
  O  O6  1  0.71983768  0.01584682  0.19819275  1
  O  O7  1  0.71983768  0.98415318  0.80180725  1
  O  O8  1  0.21544965  0.26027364  0.98345927  1
  O  O9  1  0.78455035  0.26027364  0.01654073  1
  O  O10  1  0.21544965  0.73972636  0.01654073  1
  O  O11  1  0.78455035  0.73972636  0.98345927  1
  O  O12  1  0.51684393  0.28333681  0.22680650  1
  O  O13  1  0.48315607  0.71666319  0.22680650  1
  O  O14  1  0.48315607  0.28333681  0.77319350  1
  O  O15  1  0.51684393  0.71666319  0.77319350  1
  O  O16  1  0.21983768  0.51584682  0.30180725  1
  O  O17  1  0.21983768  0.48415318  0.69819275  1
  O  O18  1  0.78016232  0.48415318  0.30180725  1
  O  O19  1  0.78016232  0.51584682  0.69819275  1
  O  O20  1  0.28455035  0.23972636  0.51654073  1
  O  O21  1  0.71544965  0.23972636  0.48345927  1
  O  O22  1  0.28455035  0.76027364  0.48345927  1
  O  O23  1  0.71544965  0.76027364  0.51654073  1
loop_
_geom_bond_atom_site_label_1
_geom_bond_atom_site_label_2
_geom_bond_distance
_geom_bond_site_symmetry_2
K0 O20 2.724249 1_555
K0 O22 2.724249 1_545
K0 O21 2.724249 1_555
K0 O23 2.724249 1_545
K0 O5 3.154942 1_555
K0 O6 3.154942 1_555
K0 O7 3.154942 1_545
K0 O4 3.154942 1_545
K1 O13 2.665532 1_555
K1 O12 2.665532 1_555
K1 O14 2.665532 1_554
K1 O15 2.665532 1_554
K1 O8 3.137505 1_554
K1 O9 3.137505 1_555
K1 O10 3.137505 1_555
K1 O11 3.137505 1_554
K2 O9 2.724249 1_455
K2 O10 2.724249 1_555
K2 O11 2.724249 1_454
K2 O8 2.724249 1_554
K2 O17 3.154942 1_554
K2 O19 3.154942 1_454
K2 O18 3.154942 1_455
K2 O16 3.154942 1_555
K3 O2 2.665532 1_555
K3 O3 2.665532 1_445
K3 O1 2.665532 1_545
K3 O0 2.665532 1_455
K3 O21 3.137505 1_455
K3 O23 3.137505 1_445
K3 O22 3.137505 1_545
K3 O20 3.137505 1_555
La0 O16 2.495979 1_555
La0 O18 2.495979 1_455
La0 O17 2.495979 1_555
La0 O19 2.495979 1_455
La1 O4 2.495979 1_545
La1 O6 2.495979 1_555
La1 O5 2.495979 1_554
La1 O7 2.495979 1_544
La2 O11 2.857088 1_444
La2 O9 2.857088 1_455
La2 O10 2.857088 1_545
La2 O8 2.857088 1_554
La2 O4 2.888713 1_545
La2 O7 2.888713 1_444
La2 O6 2.888713 1_455
La2 O5 2.888713 1_554
La2 O1 2.961780 1_545
La2 O0 2.961780 1_455
La2 O3 2.961780 1_444
La2 O2 2.961780 1_554
La3 O22 2.857088 1_555
La3 O20 2.857088 1_555
La3 O23 2.857088 1_555
La3 O21 2.857088 1_555
La3 O19 2.888713 1_555
La3 O16 2.888713 1_555
La3 O17 2.888713 1_555
La3 O18 2.888713 1_555
La3 O15 2.961780 1_555
La3 O12 2.961780 1_555
La3 O13 2.961780 1_555
La3 O14 2.961780 1_555
O0 Sb3 1.982499 1_555
O0 Sm0 2.260812 1_655
O1 Sb2 1.982499 1_555
O1 Sm1 2.260812 1_455
O2 Sb1 1.982499 1_555
O2 Sm2 2.260812 1_455
O3 Sb0 1.982499 1_555
O3 Sm3 2.260812 1_655
O4 Sb2 2.052671 1_555
O4 Sm0 2.314536 1_565
O5 Sb1 2.052671 1_555
O5 Sm3 2.314536 1_545
O6 Sb3 2.052671 1_555
O6 Sm1 2.314536 1_545
O7 Sb0 2.052671 1_555
O7 Sm2 2.314536 1_565
O8 Sb1 2.002209 1_555
O8 Sm0 2.279855 1_556
O9 Sb3 2.002209 1_555
O9 Sm2 2.279855 1_554
O10 Sb2 2.002209 1_555
O10 Sm3 2.279855 1_554
O11 Sb0 2.002209 1_555
O11 Sm1 2.279855 1_556
O12 Sb3 1.982499 1_555
O12 Sm0 2.260812 1_555
O13 Sb2 1.982499 1_555
O13 Sm1 2.260812 1_555
O14 Sb1 1.982499 1_555
O14 Sm2 2.260812 1_555
O15 Sb0 1.982499 1_555
O15 Sm3 2.260812 1_555
O16 Sb2 2.052671 1_555
O16 Sm0 2.314536 1_555
O17 Sb1 2.052671 1_555
O17 Sm3 2.314536 1_555
O18 Sb3 2.052671 1_555
O18 Sm1 2.314536 1_555
O19 Sb0 2.052671 1_555
O19 Sm2 2.314536 1_555
O20 Sb1 2.002209 1_555
O20 Sm0 2.279855 1_555
O21 Sb3 2.002209 1_555
O21 Sm2 2.279855 1_555
O22 Sb2 2.002209 1_555
O22 Sm3 2.279855 1_555
O23 Sb0 2.002209 1_555
O23 Sm1 2.279855 1_555
