# generated using pymatgen
data_S2(NO2)3
_symmetry_space_group_name_H-M   'P 1'
_cell_length_a   7.58263708
_cell_length_b   7.58263708
_cell_length_c   7.49480834
_cell_angle_alpha   84.36680838
_cell_angle_beta   84.36680838
_cell_angle_gamma   63.50888248
_symmetry_Int_Tables_number   1
_chemical_formula_structural   S2(NO2)3
_chemical_formula_sum   'S4 N6 O12'
_cell_volume   383.10039850
_cell_formula_units_Z   2
loop_
 _symmetry_equiv_pos_site_id
 _symmetry_equiv_pos_as_xyz
  1  'x, y, z'
loop_
 _atom_site_type_symbol
 _atom_site_label
 _atom_site_symmetry_multiplicity
 _atom_site_fract_x
 _atom_site_fract_y
 _atom_site_fract_z
 _atom_site_occupancy
  S  S0  1  0.77847400  0.43361200  0.12225900  1
  S  S1  1  0.56638800  0.22152600  0.37774100  1
  S  S2  1  0.22152600  0.56638800  0.87774100  1
  S  S3  1  0.43361200  0.77847400  0.62225900  1
  N  N0  1  0.28896700  0.01219300  0.15110500  1
  N  N1  1  0.98780700  0.71103300  0.34889500  1
  N  N2  1  0.71103300  0.98780700  0.84889500  1
  N  N3  1  0.01219300  0.28896700  0.65110500  1
  N  N4  1  0.60268800  0.39731200  0.25000000  1
  N  N5  1  0.39731200  0.60268800  0.75000000  1
  O  O0  1  0.81090800  0.31286000  0.97054100  1
  O  O1  1  0.68714000  0.18909200  0.52945900  1
  O  O2  1  0.18909200  0.68714000  0.02945900  1
  O  O3  1  0.31286000  0.81090800  0.47054100  1
  O  O4  1  0.68969700  0.64464000  0.08071200  1
  O  O5  1  0.35536000  0.31030300  0.41928800  1
  O  O6  1  0.31030300  0.35536000  0.91928800  1
  O  O7  1  0.64464000  0.68969700  0.58071200  1
  O  O8  1  0.94545000  0.36060500  0.23759200  1
  O  O9  1  0.63939500  0.05455000  0.26240800  1
  O  O10  1  0.05455000  0.63939500  0.76240800  1
  O  O11  1  0.36060500  0.94545000  0.73759200  1
loop_
_geom_bond_atom_site_label_1
_geom_bond_atom_site_label_2
_geom_bond_distance
_geom_bond_site_symmetry_2
N4 S1 1.671553 1_555
N4 S0 1.671553 1_555
N5 S3 1.671553 1_555
N5 S2 1.671553 1_555
O0 S0 1.463024 1_556
O1 S1 1.463024 1_555
O2 S2 1.463024 1_554
O3 S3 1.463024 1_555
O4 S0 1.446708 1_555
O5 S1 1.446708 1_555
O6 S2 1.446708 1_555
O7 S3 1.446708 1_555
O8 S0 1.467080 1_555
O9 S1 1.467080 1_555
O10 S2 1.467080 1_555
O11 S3 1.467080 1_555
