# generated using pymatgen
data_Na4H4PdPt
_symmetry_space_group_name_H-M   'P 1'
_cell_length_a   3.63865200
_cell_length_b   3.63865200
_cell_length_c   11.27551500
_cell_angle_alpha   90.00000000
_cell_angle_beta   90.00000000
_cell_angle_gamma   90.00000000
_symmetry_Int_Tables_number   1
_chemical_formula_structural   Na4H4PdPt
_chemical_formula_sum   'Na4 H4 Pd1 Pt1'
_cell_volume   149.28543244
_cell_formula_units_Z   1
loop_
 _symmetry_equiv_pos_site_id
 _symmetry_equiv_pos_as_xyz
  1  'x, y, z'
loop_
 _atom_site_type_symbol
 _atom_site_label
 _atom_site_symmetry_multiplicity
 _atom_site_fract_x
 _atom_site_fract_y
 _atom_site_fract_z
 _atom_site_occupancy
  Na  Na0  1  0.50000000  0.50000000  0.13878900  1
  Na  Na1  1  0.00000000  0.00000000  0.63449900  1
  Na  Na2  1  0.00000000  0.00000000  0.36550100  1
  Na  Na3  1  0.50000000  0.50000000  0.86121100  1
  H  H0  1  0.50000000  0.50000000  0.35162600  1
  H  H1  1  0.00000000  0.00000000  0.84927900  1
  H  H2  1  0.00000000  0.00000000  0.15072100  1
  H  H3  1  0.50000000  0.50000000  0.64837400  1
  Pd  Pd0  1  0.00000000  0.00000000  0.00000000  1
  Pt  Pt0  1  0.50000000  0.50000000  0.50000000  1
loop_
_geom_bond_atom_site_label_1
_geom_bond_atom_site_label_2
_geom_bond_distance
_geom_bond_site_symmetry_2
Na0 Pd0 3.011455 1_555
Na0 Pd0 3.011455 1_565
Na0 Pd0 3.011455 1_665
Na0 Pd0 3.011455 1_655
Na3 Pd0 3.011455 1_556
Na3 Pd0 3.011455 1_566
Na3 Pd0 3.011455 1_656
Na3 Pd0 3.011455 1_666
H0 Pt0 1.672993 1_555
H0 Na0 2.399847 1_555
H0 Na2 2.577668 1_555
H0 Na2 2.577668 1_655
H0 Na2 2.577668 1_665
H0 Na2 2.577668 1_565
H1 Pd0 1.699457 1_556
H1 Na1 2.421755 1_555
H1 Na3 2.576431 1_545
H1 Na3 2.576431 1_555
H1 Na3 2.576431 1_445
H1 Na3 2.576431 1_455
H2 Pd0 1.699457 1_555
H2 Na2 2.421755 1_555
H2 Na0 2.576431 1_455
H2 Na0 2.576431 1_555
H2 Na0 2.576431 1_445
H2 Na0 2.576431 1_545
H3 Pt0 1.672993 1_555
H3 Na3 2.399847 1_555
H3 Na1 2.577668 1_655
H3 Na1 2.577668 1_665
H3 Na1 2.577668 1_555
H3 Na1 2.577668 1_565
