# generated using pymatgen
data_K2TaAgCl6
_symmetry_space_group_name_H-M   'P 1'
_cell_length_a   7.35376910
_cell_length_b   7.35376910
_cell_length_c   7.35376910
_cell_angle_alpha   60.00000000
_cell_angle_beta   60.00000000
_cell_angle_gamma   60.00000000
_symmetry_Int_Tables_number   1
_chemical_formula_structural   K2TaAgCl6
_chemical_formula_sum   'K2 Ta1 Ag1 Cl6'
_cell_volume   281.19977631
_cell_formula_units_Z   1
loop_
 _symmetry_equiv_pos_site_id
 _symmetry_equiv_pos_as_xyz
  1  'x, y, z'
loop_
 _atom_site_type_symbol
 _atom_site_label
 _atom_site_symmetry_multiplicity
 _atom_site_fract_x
 _atom_site_fract_y
 _atom_site_fract_z
 _atom_site_occupancy
  K  K0  1  0.25000000  0.25000000  0.25000000  1
  K  K1  1  0.75000000  0.75000000  0.75000000  1
  Ta  Ta0  1  0.50000000  0.50000000  0.50000000  1
  Ag  Ag0  1  0.00000000  0.00000000  0.00000000  1
  Cl  Cl0  1  0.26157900  0.26157900  0.73842100  1
  Cl  Cl1  1  0.26157900  0.73842100  0.73842100  1
  Cl  Cl2  1  0.73842100  0.73842100  0.26157900  1
  Cl  Cl3  1  0.26157900  0.73842100  0.26157900  1
  Cl  Cl4  1  0.73842100  0.26157900  0.73842100  1
  Cl  Cl5  1  0.73842100  0.26157900  0.26157900  1
loop_
_geom_bond_atom_site_label_1
_geom_bond_atom_site_label_2
_geom_bond_distance
_geom_bond_site_symmetry_2
Ag0 Cl5 2.720369 1_455
Ag0 Cl0 2.720369 1_554
Ag0 Cl1 2.720369 1_544
Ag0 Cl3 2.720369 1_545
Ag0 Cl4 2.720369 1_454
Ag0 Cl2 2.720369 1_445
Cl0 Ta0 2.479531 1_555
Cl0 K0 3.678856 1_555
Cl0 K0 3.678856 1_556
Cl0 K1 3.678856 1_545
Cl0 K1 3.678856 1_455
Cl1 Ta0 2.479531 1_555
Cl1 K1 3.678856 1_555
Cl1 K0 3.678856 1_556
Cl1 K0 3.678856 1_565
Cl1 K1 3.678856 1_455
Cl2 Ta0 2.479531 1_555
Cl2 K0 3.678856 1_655
Cl2 K1 3.678856 1_555
Cl2 K1 3.678856 1_554
Cl2 K0 3.678856 1_565
Cl3 Ta0 2.479531 1_555
Cl3 K0 3.678856 1_555
Cl3 K1 3.678856 1_554
Cl3 K0 3.678856 1_565
Cl3 K1 3.678856 1_455
Cl4 Ta0 2.479531 1_555
Cl4 K0 3.678856 1_655
Cl4 K1 3.678856 1_555
Cl4 K0 3.678856 1_556
Cl4 K1 3.678856 1_545
Cl5 Ta0 2.479531 1_555
Cl5 K0 3.678856 1_555
Cl5 K0 3.678856 1_655
Cl5 K1 3.678856 1_554
Cl5 K1 3.678856 1_545
