# generated using pymatgen
data_KGaH9C3F
_symmetry_space_group_name_H-M   'P 1'
_cell_length_a   12.85190051
_cell_length_b   12.85190051
_cell_length_c   12.85190051
_cell_angle_alpha   60.00000000
_cell_angle_beta   60.00000000
_cell_angle_gamma   60.00000000
_symmetry_Int_Tables_number   1
_chemical_formula_structural   KGaH9C3F
_chemical_formula_sum   'K8 Ga8 H72 C24 F8'
_cell_volume   1501.02203117
_cell_formula_units_Z   8
loop_
 _symmetry_equiv_pos_site_id
 _symmetry_equiv_pos_as_xyz
  1  'x, y, z'
loop_
 _atom_site_type_symbol
 _atom_site_label
 _atom_site_symmetry_multiplicity
 _atom_site_fract_x
 _atom_site_fract_y
 _atom_site_fract_z
 _atom_site_occupancy
  K  K0  1  0.92056500  0.92056500  0.23830600  1
  K  K1  1  0.23830600  0.92056500  0.92056500  1
  K  K2  1  0.92056500  0.92056500  0.92056500  1
  K  K3  1  0.92056500  0.23830600  0.92056500  1
  K  K4  1  0.42056500  0.73830600  0.42056500  1
  K  K5  1  0.73830600  0.42056500  0.42056500  1
  K  K6  1  0.42056500  0.42056500  0.42056500  1
  K  K7  1  0.42056500  0.42056500  0.73830600  1
  Ga  Ga0  1  0.13272700  0.60181800  0.13272700  1
  Ga  Ga1  1  0.60181800  0.13272700  0.13272700  1
  Ga  Ga2  1  0.13272700  0.13272700  0.60181800  1
  Ga  Ga3  1  0.13272700  0.13272700  0.13272700  1
  Ga  Ga4  1  0.63272700  0.63272700  0.10181800  1
  Ga  Ga5  1  0.10181800  0.63272700  0.63272700  1
  Ga  Ga6  1  0.63272700  0.10181800  0.63272700  1
  Ga  Ga7  1  0.63272700  0.63272700  0.63272700  1
  H  H0  1  0.23758500  0.61767000  0.89410200  1
  H  H1  1  0.89410200  0.61767000  0.25064400  1
  H  H2  1  0.25064400  0.61767000  0.23758500  1
  H  H3  1  0.61767000  0.23758500  0.25064400  1
  H  H4  1  0.61767000  0.89410200  0.23758500  1
  H  H5  1  0.61767000  0.25064400  0.89410200  1
  H  H6  1  0.25064400  0.89410200  0.61767000  1
  H  H7  1  0.23758500  0.25064400  0.61767000  1
  H  H8  1  0.89410200  0.23758500  0.61767000  1
  H  H9  1  0.89410200  0.25064400  0.23758500  1
  H  H10  1  0.25064400  0.23758500  0.89410200  1
  H  H11  1  0.23758500  0.89410200  0.25064400  1
  H  H12  1  0.73758500  0.39410200  0.11767000  1
  H  H13  1  0.39410200  0.75064400  0.11767000  1
  H  H14  1  0.75064400  0.73758500  0.11767000  1
  H  H15  1  0.11767000  0.75064400  0.73758500  1
  H  H16  1  0.11767000  0.73758500  0.39410200  1
  H  H17  1  0.11767000  0.39410200  0.75064400  1
  H  H18  1  0.75064400  0.11767000  0.39410200  1
  H  H19  1  0.73758500  0.11767000  0.75064400  1
  H  H20  1  0.39410200  0.11767000  0.73758500  1
  H  H21  1  0.39410200  0.73758500  0.75064400  1
  H  H22  1  0.75064400  0.39410200  0.73758500  1
  H  H23  1  0.73758500  0.75064400  0.39410200  1
  H  H24  1  0.23989000  0.45870900  0.99636900  1
  H  H25  1  0.99636900  0.45870900  0.30503200  1
  H  H26  1  0.30503200  0.45870900  0.23989000  1
  H  H27  1  0.45870900  0.23989000  0.30503200  1
  H  H28  1  0.45870900  0.99636900  0.23989000  1
  H  H29  1  0.45870900  0.30503200  0.99636900  1
  H  H30  1  0.30503200  0.99636900  0.45870900  1
  H  H31  1  0.23989000  0.30503200  0.45870900  1
  H  H32  1  0.99636900  0.23989000  0.45870900  1
  H  H33  1  0.99636900  0.30503200  0.23989000  1
  H  H34  1  0.30503200  0.23989000  0.99636900  1
  H  H35  1  0.23989000  0.99636900  0.30503200  1
  H  H36  1  0.73989000  0.49636900  0.95870900  1
  H  H37  1  0.49636900  0.80503200  0.95870900  1
  H  H38  1  0.80503200  0.73989000  0.95870900  1
  H  H39  1  0.95870900  0.80503200  0.73989000  1
  H  H40  1  0.95870900  0.73989000  0.49636900  1
  H  H41  1  0.95870900  0.49636900  0.80503200  1
  H  H42  1  0.80503200  0.95870900  0.49636900  1
  H  H43  1  0.73989000  0.95870900  0.80503200  1
  H  H44  1  0.49636900  0.95870900  0.73989000  1
  H  H45  1  0.49636900  0.73989000  0.80503200  1
  H  H46  1  0.80503200  0.49636900  0.73989000  1
  H  H47  1  0.73989000  0.80503200  0.49636900  1
  H  H48  1  0.09717000  0.57604900  0.96553000  1
  H  H49  1  0.96553000  0.57604900  0.36125100  1
  H  H50  1  0.36125100  0.57604900  0.09717000  1
  H  H51  1  0.57604900  0.09717000  0.36125100  1
  H  H52  1  0.57604900  0.96553000  0.09717000  1
  H  H53  1  0.57604900  0.36125100  0.96553000  1
  H  H54  1  0.36125100  0.96553000  0.57604900  1
  H  H55  1  0.09717000  0.36125100  0.57604900  1
  H  H56  1  0.96553000  0.09717000  0.57604900  1
  H  H57  1  0.96553000  0.36125100  0.09717000  1
  H  H58  1  0.36125100  0.09717000  0.96553000  1
  H  H59  1  0.09717000  0.96553000  0.36125100  1
  H  H60  1  0.59717000  0.46553000  0.07604900  1
  H  H61  1  0.46553000  0.86125100  0.07604900  1
  H  H62  1  0.86125100  0.59717000  0.07604900  1
  H  H63  1  0.07604900  0.86125100  0.59717000  1
  H  H64  1  0.07604900  0.59717000  0.46553000  1
  H  H65  1  0.07604900  0.46553000  0.86125100  1
  H  H66  1  0.86125100  0.07604900  0.46553000  1
  H  H67  1  0.59717000  0.07604900  0.86125100  1
  H  H68  1  0.46553000  0.07604900  0.59717000  1
  H  H69  1  0.46553000  0.59717000  0.86125100  1
  H  H70  1  0.86125100  0.46553000  0.59717000  1
  H  H71  1  0.59717000  0.86125100  0.46553000  1
  C  C0  1  0.18140000  0.56038400  0.98040100  1
  C  C1  1  0.98040100  0.56038400  0.27781600  1
  C  C2  1  0.27781600  0.56038400  0.18140000  1
  C  C3  1  0.56038400  0.18140000  0.27781600  1
  C  C4  1  0.56038400  0.98040100  0.18140000  1
  C  C5  1  0.56038400  0.27781600  0.98040100  1
  C  C6  1  0.27781600  0.98040100  0.56038400  1
  C  C7  1  0.18140000  0.27781600  0.56038400  1
  C  C8  1  0.98040100  0.18140000  0.56038400  1
  C  C9  1  0.98040100  0.27781600  0.18140000  1
  C  C10  1  0.27781600  0.18140000  0.98040100  1
  C  C11  1  0.18140000  0.98040100  0.27781600  1
  C  C12  1  0.68140000  0.48040100  0.06038400  1
  C  C13  1  0.48040100  0.77781600  0.06038400  1
  C  C14  1  0.77781600  0.68140000  0.06038400  1
  C  C15  1  0.06038400  0.77781600  0.68140000  1
  C  C16  1  0.06038400  0.68140000  0.48040100  1
  C  C17  1  0.06038400  0.48040100  0.77781600  1
  C  C18  1  0.77781600  0.06038400  0.48040100  1
  C  C19  1  0.68140000  0.06038400  0.77781600  1
  C  C20  1  0.48040100  0.06038400  0.68140000  1
  C  C21  1  0.48040100  0.68140000  0.77781600  1
  C  C22  1  0.77781600  0.48040100  0.68140000  1
  C  C23  1  0.68140000  0.77781600  0.48040100  1
  F  F0  1  0.06836000  0.79492000  0.06836000  1
  F  F1  1  0.79492000  0.06836000  0.06836000  1
  F  F2  1  0.06836000  0.06836000  0.79492000  1
  F  F3  1  0.06836000  0.06836000  0.06836000  1
  F  F4  1  0.56836000  0.56836000  0.29492000  1
  F  F5  1  0.29492000  0.56836000  0.56836000  1
  F  F6  1  0.56836000  0.29492000  0.56836000  1
  F  F7  1  0.56836000  0.56836000  0.56836000  1
loop_
_geom_bond_atom_site_label_1
_geom_bond_atom_site_label_2
_geom_bond_distance
_geom_bond_site_symmetry_2
C0 H48 1.095160 1_555
C0 H0 1.098979 1_555
C0 H24 1.103866 1_555
C0 Ga0 1.998032 1_556
C1 H49 1.095147 1_555
C1 H1 1.098979 1_555
C1 H25 1.103869 1_555
C1 Ga0 1.998040 1_655
C2 H50 1.095152 1_555
C2 H2 1.098979 1_555
C2 H26 1.103865 1_555
C2 Ga0 1.998057 1_555
C3 H51 1.095152 1_555
C3 H3 1.098979 1_555
C3 H27 1.103865 1_555
C3 Ga1 1.998057 1_555
C4 H52 1.095160 1_555
C4 H4 1.098979 1_555
C4 H28 1.103866 1_555
C4 Ga1 1.998032 1_565
C5 H53 1.095147 1_555
C5 H5 1.098979 1_555
C5 H29 1.103869 1_555
C5 Ga1 1.998040 1_556
C6 H54 1.095147 1_555
C6 H6 1.098979 1_555
C6 H30 1.103869 1_555
C6 Ga2 1.998040 1_565
C7 H55 1.095152 1_555
C7 H7 1.098979 1_555
C7 H31 1.103865 1_555
C7 Ga2 1.998057 1_555
C8 H56 1.095160 1_555
C8 H8 1.098979 1_555
C8 H32 1.103866 1_555
C8 Ga2 1.998032 1_655
C9 H57 1.095155 1_555
C9 H9 1.098979 1_555
C9 H33 1.103857 1_555
C9 Ga3 1.998048 1_655
C10 H58 1.095155 1_555
C10 H10 1.098979 1_555
C10 H34 1.103857 1_555
C10 Ga3 1.998048 1_556
C11 H59 1.095155 1_555
C11 H11 1.098979 1_555
C11 H35 1.103857 1_555
C11 Ga3 1.998048 1_565
C12 H60 1.095160 1_555
C12 H12 1.098979 1_555
C12 H36 1.103866 1_554
C12 Ga4 1.998032 1_555
C13 H61 1.095147 1_555
C13 H13 1.098979 1_555
C13 H37 1.103869 1_554
C13 Ga4 1.998040 1_555
C14 H62 1.095152 1_555
C14 H14 1.098979 1_555
C14 H38 1.103865 1_554
C14 Ga4 1.998057 1_555
C15 H63 1.095152 1_555
C15 H15 1.098979 1_555
C15 H39 1.103865 1_455
C15 Ga5 1.998057 1_555
C16 H64 1.095160 1_555
C16 H16 1.098979 1_555
C16 H40 1.103866 1_455
C16 Ga5 1.998032 1_555
C17 H65 1.095147 1_555
C17 H17 1.098979 1_555
C17 H41 1.103869 1_455
C17 Ga5 1.998040 1_555
C18 H66 1.095147 1_555
C18 H18 1.098979 1_555
C18 H42 1.103869 1_545
C18 Ga6 1.998040 1_555
C19 H67 1.095152 1_555
C19 H19 1.098979 1_555
C19 H43 1.103865 1_545
C19 Ga6 1.998057 1_555
C20 H68 1.095160 1_555
C20 H20 1.098979 1_555
C20 H44 1.103866 1_545
C20 Ga6 1.998032 1_555
C21 H69 1.095155 1_555
C21 H21 1.098979 1_555
C21 H45 1.103857 1_555
C21 Ga7 1.998048 1_555
C22 H70 1.095155 1_555
C22 H22 1.098979 1_555
C22 H46 1.103857 1_555
C22 Ga7 1.998048 1_555
C23 H71 1.095155 1_555
C23 H23 1.098979 1_555
C23 H47 1.103857 1_555
C23 Ga7 1.998048 1_555
F0 Ga0 2.026322 1_555
F0 K2 2.701265 1_454
F0 K0 2.701275 1_455
F0 K1 2.701275 1_554
F1 Ga1 2.026322 1_555
F1 K2 2.701265 1_544
F1 K0 2.701275 1_545
F1 K3 2.701275 1_554
F2 Ga2 2.026322 1_555
F2 K2 2.701265 1_445
F2 K3 2.701275 1_455
F2 K1 2.701275 1_545
F3 Ga3 2.026312 1_555
F3 K0 2.701266 1_445
F3 K3 2.701266 1_454
F3 K1 2.701266 1_544
F4 Ga4 2.026322 1_555
F4 K6 2.701265 1_555
F4 K5 2.701275 1_555
F4 K4 2.701275 1_555
F5 Ga5 2.026322 1_555
F5 K6 2.701265 1_555
F5 K4 2.701275 1_555
F5 K7 2.701275 1_555
F6 Ga6 2.026322 1_555
F6 K6 2.701265 1_555
F6 K7 2.701275 1_555
F6 K5 2.701275 1_555
F7 Ga7 2.026312 1_555
F7 K7 2.701266 1_555
F7 K5 2.701266 1_555
F7 K4 2.701266 1_555
