# generated using pymatgen
data_NaS2
_symmetry_space_group_name_H-M   'P 1'
_cell_length_a   8.93840577
_cell_length_b   8.93840521
_cell_length_c   8.93840506
_cell_angle_alpha   98.56182035
_cell_angle_beta   115.18622533
_cell_angle_gamma   115.18622262
_symmetry_Int_Tables_number   1
_chemical_formula_structural   NaS2
_chemical_formula_sum   'Na8 S16'
_cell_volume   535.22305101
_cell_formula_units_Z   8
loop_
 _symmetry_equiv_pos_site_id
 _symmetry_equiv_pos_as_xyz
  1  'x, y, z'
loop_
 _atom_site_type_symbol
 _atom_site_label
 _atom_site_symmetry_multiplicity
 _atom_site_fract_x
 _atom_site_fract_y
 _atom_site_fract_z
 _atom_site_occupancy
  Na  Na0  1  -0.00000000  0.17197833  0.17197833  1
  Na  Na1  1  0.00000000  0.82802167  0.82802167  1
  Na  Na2  1  0.50000000  0.57802167  0.07802167  1
  Na  Na3  1  0.50000000  0.92197833  0.42197833  1
  Na  Na4  1  0.52259390  0.37500000  0.39759390  1
  Na  Na5  1  0.97740610  0.60240610  0.12500000  1
  Na  Na6  1  0.02259390  0.14759390  0.62500000  1
  Na  Na7  1  0.47740610  0.87500000  0.85240610  1
  S  S0  1  0.28417086  0.54783382  0.32813719  1
  S  S1  1  0.21969364  0.67186281  0.95603368  1
  S  S2  1  0.78030636  0.73633904  0.45216618  1
  S  S3  1  0.71969364  0.70603368  0.92186281  1
  S  S4  1  0.28030636  0.20216618  0.98633904  1
  S  S5  1  0.71582914  0.04396632  0.26366096  1
  S  S6  1  0.78417086  0.07813719  0.79783382  1
  S  S7  1  0.21582914  0.01366096  0.29396632  1
  S  S8  1  0.26270558  0.51409617  0.54438756  1
  S  S9  1  0.96970661  0.45561244  0.71832002  1
  S  S10  1  0.03029339  0.74861141  0.48590383  1
  S  S11  1  0.46970661  0.46832002  0.70561244  1
  S  S12  1  0.53029339  0.23590383  0.99861141  1
  S  S13  1  0.73729442  0.28167998  0.25138859  1
  S  S14  1  0.76270558  0.29438756  0.76409617  1
  S  S15  1  0.23729442  0.00138859  0.53167998  1
loop_
_geom_bond_atom_site_label_1
_geom_bond_atom_site_label_2
_geom_bond_distance
_geom_bond_site_symmetry_2
Na0 S6 2.811703 1_454
Na0 S7 2.811718 1_555
Na0 S5 2.830154 1_455
Na0 S0 2.830168 1_555
Na0 S13 3.185952 1_455
Na0 S8 3.185972 1_555
Na1 S4 2.811707 1_565
Na1 S3 2.811726 1_455
Na1 S1 2.830148 1_555
Na1 S2 2.830169 1_455
Na1 S9 3.185961 1_455
Na1 S10 3.185980 1_555
Na2 S2 2.811706 1_555
Na2 S1 2.811726 1_554
Na2 S3 2.830148 1_554
Na2 S4 2.830169 1_554
Na2 S11 3.185961 1_554
Na2 S12 3.185980 1_554
Na3 S0 2.811703 1_555
Na3 S5 2.811718 1_565
Na3 S7 2.830154 1_565
Na3 S6 2.830168 1_565
Na3 S15 3.185952 1_565
Na3 S14 3.185972 1_565
Na4 S7 2.866702 1_555
Na4 S2 2.866710 1_555
Na4 S11 3.042843 1_555
Na4 S13 3.042848 1_555
Na4 S4 3.045527 1_554
Na4 S0 3.045541 1_555
Na5 S0 2.866690 1_655
Na5 S3 2.866708 1_554
Na5 S10 3.042822 1_655
Na5 S14 3.042827 1_554
Na5 S1 3.045518 1_654
Na5 S7 3.045526 1_665
Na6 S5 2.866702 1_455
Na6 S4 2.866710 1_555
Na6 S9 3.042843 1_455
Na6 S15 3.042848 1_555
Na6 S2 3.045527 1_445
Na6 S6 3.045541 1_455
Na7 S6 2.866690 1_565
Na7 S1 2.866708 1_555
Na7 S12 3.042822 1_565
Na7 S8 3.042827 1_555
Na7 S3 3.045518 1_555
Na7 S5 3.045526 1_566
S0 S8 2.074596 1_555
S1 S9 2.074586 1_455
S10 S15 2.053805 1_565
S10 S2 2.074587 1_455
S11 S8 2.053805 1_555
S11 S3 2.074586 1_555
S12 S13 2.053805 1_556
S12 S4 2.074587 1_555
S13 S5 2.074578 1_555
S14 S9 2.053805 1_555
S14 S6 2.074596 1_555
S15 S7 2.074578 1_555
