# generated using pymatgen
data_Ti3O5
_symmetry_space_group_name_H-M   'P 1'
_cell_length_a   10.96267402
_cell_length_b   10.58602906
_cell_length_c   11.00488792
_cell_angle_alpha   89.26310306
_cell_angle_beta   91.94959677
_cell_angle_gamma   89.43895088
_symmetry_Int_Tables_number   1
_chemical_formula_structural   Ti3O5
_chemical_formula_sum   'Ti39 O65'
_cell_volume   1276.21858292
_cell_formula_units_Z   13
loop_
 _symmetry_equiv_pos_site_id
 _symmetry_equiv_pos_as_xyz
  1  'x, y, z'
loop_
 _atom_site_type_symbol
 _atom_site_label
 _atom_site_symmetry_multiplicity
 _atom_site_fract_x
 _atom_site_fract_y
 _atom_site_fract_z
 _atom_site_occupancy
  Ti  Ti0  1  0.53275800  0.54204700  0.25009800  1
  Ti  Ti1  1  0.63217900  0.86158100  0.58992500  1
  Ti  Ti2  1  0.46271500  0.05580800  0.12115000  1
  Ti  Ti3  1  0.54638400  0.58965300  0.65720900  1
  Ti  Ti4  1  0.08013900  0.68771100  0.13656800  1
  Ti  Ti5  1  0.19532400  0.15342300  0.98095100  1
  Ti  Ti6  1  0.72109600  0.29931000  0.13331000  1
  Ti  Ti7  1  0.74090200  0.18142900  0.68264300  1
  Ti  Ti8  1  0.58801900  0.90893900  0.84202400  1
  Ti  Ti9  1  0.34878500  0.56431000  0.79494000  1
  Ti  Ti10  1  0.89200200  0.56321100  0.27455200  1
  Ti  Ti11  1  0.15514400  0.32467200  0.50591200  1
  Ti  Ti12  1  0.62877800  0.47877300  0.94905700  1
  Ti  Ti13  1  0.06939700  0.94445400  0.91669200  1
  Ti  Ti14  1  0.67638300  0.82084000  0.20215200  1
  Ti  Ti15  1  0.87645500  0.50374500  0.62389600  1
  Ti  Ti16  1  0.40537800  0.04465000  0.41058400  1
  Ti  Ti17  1  0.33778500  0.84935700  0.75513100  1
  Ti  Ti18  1  0.61769800  0.29044600  0.44880000  1
  Ti  Ti19  1  0.11962700  0.62828500  0.61781900  1
  Ti  Ti20  1  0.88228200  0.86049200  0.64641000  1
  Ti  Ti21  1  0.71647900  0.62189900  0.46148200  1
  Ti  Ti22  1  0.90207000  0.90651400  0.18415900  1
  Ti  Ti23  1  0.24631500  0.09869200  0.68666300  1
  Ti  Ti24  1  0.69295000  0.05439700  0.35423700  1
  Ti  Ti25  1  0.84345600  0.71127300  0.87162700  1
  Ti  Ti26  1  0.98546100  0.24055700  0.80047700  1
  Ti  Ti27  1  0.15146400  0.51153900  0.93299700  1
  Ti  Ti28  1  0.52915200  0.15697300  0.91134000  1
  Ti  Ti29  1  0.36637400  0.70278900  0.47212100  1
  Ti  Ti30  1  0.03020200  0.14484700  0.27129900  1
  Ti  Ti31  1  0.43642000  0.30262800  0.70734000  1
  Ti  Ti32  1  0.38194100  0.73980500  0.05945600  1
  Ti  Ti33  1  0.24344400  0.50190800  0.23310500  1
  Ti  Ti34  1  0.16643900  0.91020100  0.47741800  1
  Ti  Ti35  1  0.20529800  0.99020700  0.16317400  1
  Ti  Ti36  1  0.93667900  0.11254700  0.55399700  1
  Ti  Ti37  1  0.88498600  0.47431500  0.97596300  1
  Ti  Ti38  1  0.36420000  0.38004600  0.01036700  1
  O  O0  1  0.84437400  0.03220500  0.68920900  1
  O  O1  1  0.21883000  0.01330200  0.85620000  1
  O  O2  1  0.96610900  0.67952900  0.62438700  1
  O  O3  1  0.28185100  0.39783100  0.84762300  1
  O  O4  1  0.35615000  0.86795000  0.41455800  1
  O  O5  1  0.79368100  0.91589700  0.31329900  1
  O  O6  1  0.72046500  0.80699400  0.76354400  1
  O  O7  1  0.58340800  0.99024100  0.47797500  1
  O  O8  1  0.26475500  0.07043600  0.50114900  1
  O  O9  1  0.40516700  0.44423800  0.17440200  1
  O  O10  1  0.38496000  0.58700900  0.35262000  1
  O  O11  1  0.01292300  0.11098400  0.91977300  1
  O  O12  1  0.86457100  0.43277600  0.15778600  1
  O  O13  1  0.49038400  0.90471600  0.69590600  1
  O  O14  1  0.74808800  0.60726900  0.98148800  1
  O  O15  1  0.34212200  0.90850800  0.09477000  1
  O  O16  1  0.13359800  0.16495200  0.14272700  1
  O  O17  1  0.28418300  0.27294400  0.61646200  1
  O  O18  1  0.21777700  0.38943200  0.37517500  1
  O  O19  1  0.89061100  0.10287300  0.19473900  1
  O  O20  1  0.07809700  0.45866800  0.58917500  1
  O  O21  1  0.51433000  0.34229600  0.87798400  1
  O  O22  1  0.87241200  0.51960500  0.43897300  1
  O  O23  1  0.41867300  0.47353400  0.64556400  1
  O  O24  1  0.39990000  0.13894400  0.77700400  1
  O  O25  1  0.76100900  0.16414600  0.50319200  1
  O  O26  1  0.36252000  0.69627100  0.65872800  1
  O  O27  1  0.69507700  0.22959400  0.29481100  1
  O  O28  1  0.53598400  0.98303100  0.98382900  1
  O  O29  1  0.06961600  0.54481700  0.25086900  1
  O  O30  1  0.34422200  0.07475600  0.25575800  1
  O  O31  1  0.02152300  0.38226200  0.89806400  1
  O  O32  1  0.20239000  0.40780200  0.08012700  1
  O  O33  1  0.94497700  0.73725800  0.23672900  1
  O  O34  1  0.61901200  0.44612600  0.12451500  1
  O  O35  1  0.36954200  0.19473000  0.02050900  1
  O  O36  1  0.70089400  0.52310500  0.62192000  1
  O  O37  1  0.07026200  0.87854600  0.08154300  1
  O  O38  1  0.60914900  0.46211500  0.39130000  1
  O  O39  1  0.48053700  0.21015500  0.41494200  1
  O  O40  1  0.96441100  0.83912800  0.82372900  1
  O  O41  1  0.77750500  0.86266700  0.07054900  1
  O  O42  1  0.17418900  0.62494300  0.78378200  1
  O  O43  1  0.42837200  0.79797100  0.89808800  1
  O  O44  1  0.55056500  0.71133200  0.51434000  1
  O  O45  1  0.87107100  0.55853700  0.79799300  1
  O  O46  1  0.07204100  0.16998300  0.66599700  1
  O  O47  1  0.77780600  0.77594400  0.52357000  1
  O  O48  1  0.75668700  0.34775000  0.95423100  1
  O  O49  1  0.00449300  0.62175700  0.99546000  1
  O  O50  1  0.25189600  0.68775200  0.17152200  1
  O  O51  1  0.52309100  0.70788500  0.15184000  1
  O  O52  1  0.71909300  0.65447400  0.27864700  1
  O  O53  1  0.64891000  0.08403700  0.80639400  1
  O  O54  1  0.02647600  0.22123400  0.42932200  1
  O  O55  1  0.59986000  0.18782600  0.07602300  1
  O  O56  1  0.86300300  0.31876900  0.68150700  1
  O  O57  1  0.20637500  0.91210700  0.65173900  1
  O  O58  1  0.99610700  0.94193500  0.52748000  1
  O  O59  1  0.32940000  0.58630700  0.97228700  1
  O  O60  1  0.58624500  0.27501300  0.62979600  1
  O  O61  1  0.57692700  0.97468400  0.23662500  1
  O  O62  1  0.18224800  0.72144700  0.48406700  1
  O  O63  1  0.53768300  0.58620500  0.82876500  1
  O  O64  1  0.09451500  0.98169000  0.30906700  1
loop_
_geom_bond_atom_site_label_1
_geom_bond_atom_site_label_2
_geom_bond_distance
_geom_bond_site_symmetry_2
O0 Ti20 1.928557 1_545
O0 Ti7 1.934874 1_555
O0 Ti36 2.012012 1_555
O1 Ti13 1.934712 1_545
O1 Ti5 2.054360 1_555
O1 Ti23 2.095011 1_555
O1 Ti17 2.460440 1_545
O2 Ti19 1.767282 1_655
O2 Ti15 2.112939 1_555
O2 Ti20 2.136747 1_555
O3 Ti38 1.983942 1_556
O3 Ti9 2.002107 1_555
O3 Ti27 2.112245 1_555
O3 Ti31 2.540646 1_555
O4 Ti29 1.852996 1_555
O4 Ti16 1.952278 1_565
O4 Ti34 2.256444 1_555
O5 Ti22 1.886189 1_555
O5 Ti24 1.895040 1_565
O5 Ti14 2.027864 1_555
O6 Ti25 2.023023 1_555
O6 Ti8 2.024198 1_555
O6 Ti1 2.180847 1_555
O6 Ti20 2.299075 1_555
O7 Ti1 1.885863 1_555
O7 Ti24 1.964965 1_565
O7 Ti16 2.135264 1_565
O8 Ti16 1.883529 1_555
O8 Ti34 2.033516 1_545
O8 Ti23 2.083486 1_555
O9 Ti0 1.921911 1_555
O9 Ti38 1.975990 1_555
O9 Ti33 2.000039 1_555
O10 Ti29 1.824283 1_555
O10 Ti0 2.061023 1_555
O10 Ti33 2.206197 1_555
O11 Ti13 1.863819 1_545
O11 Ti26 1.901143 1_455
O11 Ti5 2.141797 1_555
O12 Ti10 1.917212 1_555
O12 Ti37 2.063246 1_554
O12 Ti6 2.137094 1_555
O13 Ti8 1.902370 1_555
O13 Ti17 1.910592 1_555
O13 Ti1 2.026885 1_555
O14 Ti12 1.924581 1_555
O14 Ti25 1.959906 1_555
O14 Ti37 2.050360 1_555
O15 Ti32 1.882852 1_555
O15 Ti35 1.905967 1_555
O15 Ti2 2.071089 1_565
O16 Ti30 1.854242 1_555
O16 Ti5 1.930880 1_554
O16 Ti35 2.009780 1_545
O17 Ti11 1.905696 1_555
O17 Ti31 1.946547 1_555
O17 Ti23 2.042553 1_555
O18 Ti11 1.749997 1_555
O18 Ti33 1.982400 1_555
O19 Ti30 1.784463 1_655
O19 Ti22 2.086212 1_545
O20 Ti19 1.884548 1_555
O20 Ti11 1.904666 1_555
O20 Ti15 2.302537 1_455
O21 Ti28 1.995274 1_555
O21 Ti12 2.066644 1_555
O21 Ti31 2.085804 1_555
O21 Ti38 2.270710 1_556
O22 Ti10 1.881531 1_555
O22 Ti21 2.038543 1_555
O22 Ti15 2.038759 1_555
O23 Ti3 1.874340 1_555
O23 Ti31 1.930224 1_555
O23 Ti9 2.079578 1_555
O24 Ti31 1.936698 1_555
O24 Ti23 1.978862 1_555
O24 Ti28 2.024776 1_555
O25 Ti7 2.005036 1_555
O25 Ti36 2.053777 1_555
O25 Ti18 2.118599 1_555
O25 Ti24 2.139229 1_555
O26 Ti17 1.969897 1_555
O26 Ti9 2.046150 1_555
O26 Ti29 2.055746 1_555
O26 Ti3 2.301128 1_555
O27 Ti6 1.946716 1_555
O27 Ti24 1.959236 1_555
O27 Ti18 2.030151 1_555
O28 Ti8 1.859891 1_555
O28 Ti2 1.903383 1_566
O28 Ti28 1.997005 1_565
O29 Ti4 1.961656 1_555
O29 Ti33 1.971449 1_555
O29 Ti10 1.981299 1_455
O30 Ti16 1.832555 1_555
O30 Ti2 2.013825 1_555
O30 Ti35 2.025645 1_545
O31 Ti26 1.893164 1_455
O31 Ti37 2.001296 1_455
O31 Ti27 2.016015 1_555
O32 Ti38 1.977515 1_555
O32 Ti27 2.005004 1_554
O32 Ti33 2.007373 1_555
O33 Ti22 1.924741 1_555
O33 Ti4 1.948437 1_655
O33 Ti10 1.980626 1_555
O34 Ti6 1.905784 1_555
O34 Ti12 1.963896 1_554
O34 Ti0 1.985296 1_555
O35 Ti38 1.963686 1_555
O35 Ti5 1.998275 1_554
O35 Ti2 2.069888 1_555
O35 Ti28 2.192355 1_554
O36 Ti3 1.882721 1_555
O36 Ti15 1.932859 1_555
O36 Ti21 2.053495 1_555
O37 Ti13 1.935000 1_554
O37 Ti35 2.089689 1_555
O37 Ti4 2.102223 1_555
O37 Ti22 2.214099 1_455
O38 Ti18 1.916977 1_555
O38 Ti0 1.922424 1_555
O38 Ti21 2.202908 1_555
O39 Ti18 1.765585 1_555
O39 Ti16 1.943855 1_555
O40 Ti13 1.894415 1_655
O40 Ti25 1.983015 1_555
O40 Ti20 2.129500 1_555
O41 Ti22 1.885353 1_555
O41 Ti14 1.903901 1_555
O41 Ti25 2.838787 1_554
O42 Ti19 1.902202 1_555
O42 Ti9 2.012097 1_555
O42 Ti27 2.045170 1_555
O43 Ti17 1.902170 1_555
O43 Ti32 1.957382 1_556
O43 Ti8 2.217826 1_555
O44 Ti1 2.008353 1_555
O44 Ti3 2.021696 1_555
O44 Ti29 2.059646 1_555
O44 Ti21 2.143682 1_555
O45 Ti25 1.844819 1_555
O45 Ti15 2.011534 1_555
O45 Ti37 2.141530 1_555
O46 Ti26 1.938912 1_455
O46 Ti36 2.000851 1_455
O46 Ti23 2.051611 1_555
O47 Ti21 1.896575 1_555
O47 Ti20 1.971343 1_555
O47 Ti1 1.992930 1_555
O48 Ti12 1.961563 1_555
O48 Ti37 1.962860 1_555
O48 Ti6 2.080688 1_556
O49 Ti4 1.881014 1_556
O49 Ti37 2.056247 1_455
O49 Ti27 2.118724 1_555
O49 Ti25 2.375304 1_455
O50 Ti4 1.908947 1_555
O50 Ti32 1.993637 1_555
O50 Ti33 2.076510 1_555
O51 Ti32 1.848265 1_555
O51 Ti0 2.049932 1_555
O51 Ti14 2.133890 1_555
O52 Ti14 1.987071 1_555
O52 Ti21 2.038251 1_555
O52 Ti10 2.121217 1_555
O52 Ti0 2.387779 1_555
O53 Ti28 1.939034 1_555
O53 Ti7 2.003085 1_555
O53 Ti8 2.014570 1_545
O54 Ti30 1.928763 1_555
O54 Ti11 1.967784 1_555
O54 Ti36 2.061268 1_455
O55 Ti6 1.884020 1_555
O55 Ti28 1.979047 1_554
O55 Ti2 2.129391 1_555
O56 Ti7 1.986063 1_555
O56 Ti26 2.008140 1_555
O56 Ti15 2.058686 1_555
O57 Ti17 1.913510 1_555
O57 Ti34 1.953534 1_555
O57 Ti23 2.065389 1_565
O58 Ti36 1.942950 1_565
O58 Ti34 1.991390 1_655
O58 Ti20 2.028926 1_555
O59 Ti32 1.978189 1_556
O59 Ti9 1.986805 1_555
O59 Ti27 2.144790 1_555
O59 Ti38 2.244558 1_556
O60 Ti31 1.898372 1_555
O60 Ti7 2.019763 1_555
O60 Ti18 2.037763 1_555
O61 Ti2 1.939767 1_565
O61 Ti24 1.985495 1_565
O61 Ti14 1.998568 1_555
O62 Ti19 1.911840 1_555
O62 Ti34 2.004148 1_555
O62 Ti29 2.035094 1_555
O63 Ti3 1.893503 1_555
O63 Ti12 1.972872 1_555
O63 Ti9 2.107079 1_555
O64 Ti30 1.894928 1_565
O64 Ti35 2.047419 1_555
O64 Ti34 2.116534 1_555
O64 Ti22 2.614847 1_455
