# generated using pymatgen
data_Si2Sn5N6
_symmetry_space_group_name_H-M   'P 1'
_cell_length_a   5.60884094
_cell_length_b   7.81989635
_cell_length_c   15.61295434
_cell_angle_alpha   89.99999793
_cell_angle_beta   83.43173615
_cell_angle_gamma   134.19515560
_symmetry_Int_Tables_number   1
_chemical_formula_structural   Si2Sn5N6
_chemical_formula_sum   'Si4 Sn10 N12'
_cell_volume   484.68675885
_cell_formula_units_Z   2
loop_
 _symmetry_equiv_pos_site_id
 _symmetry_equiv_pos_as_xyz
  1  'x, y, z'
loop_
 _atom_site_type_symbol
 _atom_site_label
 _atom_site_symmetry_multiplicity
 _atom_site_fract_x
 _atom_site_fract_y
 _atom_site_fract_z
 _atom_site_occupancy
  Si  Si0  1  0.52902900  0.94613900  0.56949700  1
  Si  Si1  1  0.47097100  0.41711000  0.93050300  1
  Si  Si2  1  0.47097100  0.05386100  0.43050300  1
  Si  Si3  1  0.52902900  0.58289000  0.06949700  1
  Sn  Sn0  1  0.00000000  0.55225500  0.75000000  1
  Sn  Sn1  1  0.00000000  0.44774500  0.25000000  1
  Sn  Sn2  1  0.17588300  0.88260500  0.95311000  1
  Sn  Sn3  1  0.82411700  0.70672200  0.54689000  1
  Sn  Sn4  1  0.82411700  0.11739500  0.04689000  1
  Sn  Sn5  1  0.17588300  0.29327800  0.45311000  1
  Sn  Sn6  1  0.32683800  0.18070200  0.64903200  1
  Sn  Sn7  1  0.67316200  0.85386500  0.85096800  1
  Sn  Sn8  1  0.67316200  0.81929800  0.35096800  1
  Sn  Sn9  1  0.32683800  0.14613500  0.14903200  1
  N  N0  1  0.19194000  0.82769300  0.65094900  1
  N  N1  1  0.80806000  0.63575300  0.84905100  1
  N  N2  1  0.80806000  0.17230700  0.34905100  1
  N  N3  1  0.19194000  0.36424700  0.15094900  1
  N  N4  1  0.61892600  0.20058600  0.52625300  1
  N  N5  1  0.38107400  0.58166000  0.97374700  1
  N  N6  1  0.38107400  0.79941400  0.47374700  1
  N  N7  1  0.61892600  0.41834000  0.02625300  1
  N  N8  1  0.88954500  0.01730800  0.58504500  1
  N  N9  1  0.11045500  0.12776300  0.91495500  1
  N  N10  1  0.11045500  0.98269200  0.41495500  1
  N  N11  1  0.88954500  0.87223700  0.08504500  1
loop_
_geom_bond_atom_site_label_1
_geom_bond_atom_site_label_2
_geom_bond_distance
_geom_bond_site_symmetry_2
N0 Si0 1.748770 1_555
N0 Sn0 2.139177 1_555
N0 Sn6 2.297064 1_565
N0 Sn3 2.415882 1_455
N1 Si1 1.748770 1_555
N1 Sn0 2.139177 1_655
N1 Sn7 2.297072 1_555
N1 Sn2 2.415883 1_655
N2 Si2 1.748770 1_555
N2 Sn1 2.139177 1_655
N2 Sn8 2.297064 1_545
N2 Sn5 2.415882 1_655
N3 Si3 1.748770 1_555
N3 Sn1 2.139177 1_555
N3 Sn9 2.297072 1_555
N3 Sn4 2.415883 1_455
N4 Si0 1.786768 1_545
N4 Si2 1.787816 1_555
N4 Sn6 2.304165 1_555
N5 Si1 1.786768 1_555
N5 Si3 1.787816 1_556
N5 Sn7 2.304168 1_555
N6 Si2 1.786768 1_565
N6 Si0 1.787816 1_555
N6 Sn8 2.304165 1_555
N7 Si3 1.786768 1_555
N7 Si1 1.787816 1_554
N7 Sn9 2.304168 1_555
N8 Si0 1.732273 1_545
N8 Sn6 2.199474 1_655
N8 Sn3 2.279416 1_545
N8 Sn5 2.427071 1_655
N9 Si1 1.732273 1_555
N9 Sn7 2.199472 1_445
N9 Sn2 2.279416 1_545
N9 Sn4 2.427071 1_456
N10 Si2 1.732273 1_565
N10 Sn8 2.199474 1_455
N10 Sn5 2.279416 1_565
N10 Sn3 2.427071 1_455
N11 Si3 1.732273 1_555
N11 Sn9 2.199472 1_665
N11 Sn4 2.279416 1_565
N11 Sn2 2.427071 1_654
