# generated using pymatgen
data_Sm2MnSb2O
_symmetry_space_group_name_H-M   'P 1'
_cell_length_a   3.41209900
_cell_length_b   3.41209900
_cell_length_c   16.22189800
_cell_angle_alpha   90.00000000
_cell_angle_beta   90.00000000
_cell_angle_gamma   90.00000000
_symmetry_Int_Tables_number   1
_chemical_formula_structural   Sm2MnSb2O
_chemical_formula_sum   'Sm2 Mn1 Sb2 O1'
_cell_volume   188.86214299
_cell_formula_units_Z   1
loop_
 _symmetry_equiv_pos_site_id
 _symmetry_equiv_pos_as_xyz
  1  'x, y, z'
loop_
 _atom_site_type_symbol
 _atom_site_label
 _atom_site_symmetry_multiplicity
 _atom_site_fract_x
 _atom_site_fract_y
 _atom_site_fract_z
 _atom_site_occupancy
  Sm  Sm0  1  0.50000000  0.50000000  0.62760000  1
  Sm  Sm1  1  0.50000000  0.50000000  0.37240000  1
  Mn  Mn0  1  0.50000000  0.50000000  0.00000000  1
  Sb  Sb0  1  0.50000000  0.50000000  0.16691500  1
  Sb  Sb1  1  0.50000000  0.50000000  0.83308500  1
  O  O0  1  0.50000000  0.50000000  0.50000000  1
loop_
_geom_bond_atom_site_label_1
_geom_bond_atom_site_label_2
_geom_bond_distance
_geom_bond_site_symmetry_2
Mn0 Sb0 2.707678 1_555
Mn0 Sb1 2.707678 1_554
Sb0 Sm1 3.333357 1_555
Sb1 Sm0 3.333357 1_555
O0 Sm1 2.069914 1_555
O0 Sm0 2.069914 1_555
