# generated using pymatgen
data_Li4Cr3NiO8
_symmetry_space_group_name_H-M   'P 1'
_cell_length_a   5.91734778
_cell_length_b   5.92495236
_cell_length_c   10.24005139
_cell_angle_alpha   72.86345361
_cell_angle_beta   90.15872397
_cell_angle_gamma   120.44875256
_symmetry_Int_Tables_number   1
_chemical_formula_structural   Li4Cr3NiO8
_chemical_formula_sum   'Li8 Cr6 Ni2 O16'
_cell_volume   291.04411910
_cell_formula_units_Z   2
loop_
 _symmetry_equiv_pos_site_id
 _symmetry_equiv_pos_as_xyz
  1  'x, y, z'
loop_
 _atom_site_type_symbol
 _atom_site_label
 _atom_site_symmetry_multiplicity
 _atom_site_fract_x
 _atom_site_fract_y
 _atom_site_fract_z
 _atom_site_occupancy
  Li  Li0  1  0.74870800  0.49684400  0.75125200  1
  Li  Li1  1  0.25132300  0.50312000  0.24875800  1
  Li  Li2  1  0.00010300  0.49991500  0.00004000  1
  Li  Li3  1  0.49990800  0.49995300  0.50002100  1
  Li  Li4  1  0.25559400  0.00538100  0.74519700  1
  Li  Li5  1  0.74418100  0.99439900  0.25492000  1
  Li  Li6  1  0.50012400  0.99978000  0.00006300  1
  Li  Li7  1  0.99987200  0.00004100  0.50001700  1
  Cr  Cr0  1  0.99991700  0.49999000  0.50004600  1
  Cr  Cr1  1  0.25452200  0.50223600  0.75071300  1
  Cr  Cr2  1  0.74551400  0.49786100  0.24924300  1
  Cr  Cr3  1  0.75151800  0.00364100  0.74872500  1
  Cr  Cr4  1  0.24856500  0.99675700  0.25122900  1
  Cr  Cr5  1  0.50037300  0.50007000  0.99986200  1
  Ni  Ni0  1  0.49959900  0.99988700  0.49998100  1
  Ni  Ni1  1  0.00039400  0.00030900  0.99992900  1
  O  O0  1  0.11854300  0.25990300  0.62913900  1
  O  O1  1  0.61309200  0.25780500  0.12633100  1
  O  O2  1  0.38698000  0.74199700  0.87367800  1
  O  O3  1  0.88126700  0.74015300  0.37082900  1
  O  O4  1  0.37835900  0.27169600  0.88085200  1
  O  O5  1  0.85548200  0.25479300  0.38037400  1
  O  O6  1  0.62056400  0.76117600  0.63107200  1
  O  O7  1  0.11166500  0.75476500  0.13129000  1
  O  O8  1  0.84649600  0.74408800  0.87950700  1
  O  O9  1  0.35872100  0.75351100  0.37400600  1
  O  O10  1  0.62205500  0.72838500  0.11897800  1
  O  O11  1  0.14406200  0.74501800  0.61978900  1
  O  O12  1  0.37923900  0.23885900  0.36891600  1
  O  O13  1  0.88846500  0.24518000  0.86874700  1
  O  O14  1  0.15385900  0.25614300  0.12042900  1
  O  O15  1  0.64093300  0.24635100  0.62606700  1
loop_
_geom_bond_atom_site_label_1
_geom_bond_atom_site_label_2
_geom_bond_distance
_geom_bond_site_symmetry_2
Li0 O4 2.086435 1_555
Li0 O15 2.100007 1_555
Li0 O8 2.115671 1_555
Li0 O13 2.131185 1_555
Li0 O6 2.145922 1_555
Li0 O11 2.193580 1_655
Li1 O10 2.088861 1_555
Li1 O9 2.100218 1_555
Li1 O14 2.115282 1_555
Li1 O7 2.130570 1_555
Li1 O12 2.144557 1_555
Li1 O5 2.196290 1_455
Li2 O2 2.137080 1_554
Li2 O1 2.137354 1_455
Li2 O13 2.168462 1_454
Li2 O7 2.168615 1_555
Li2 O14 2.170265 1_555
Li2 O8 2.171835 1_454
Li3 O0 2.125765 1_555
Li3 O3 2.126017 1_555
Li3 O15 2.177633 1_555
Li3 O9 2.178025 1_555
Li3 O12 2.191884 1_555
Li3 O6 2.191985 1_555
Li4 O15 2.101259 1_555
Li4 O0 2.126565 1_555
Li4 O11 2.143659 1_545
Li4 O2 2.187408 1_545
Li4 O4 2.251989 1_555
Li4 O8 2.261355 1_445
Li5 O9 2.101639 1_555
Li5 O3 2.124980 1_555
Li5 O5 2.144257 1_565
Li5 O1 2.186677 1_565
Li5 O10 2.253256 1_555
Li5 O14 2.264504 1_665
Li6 O2 2.140003 1_554
Li6 O1 2.140133 1_565
Li6 O10 2.146198 1_555
Li6 O4 2.148868 1_564
Li6 O13 2.163645 1_564
Li6 O7 2.163875 1_555
Li7 O6 2.125938 1_545
Li7 O12 2.126411 1_655
Li7 O0 2.170408 1_655
Li7 O3 2.171086 1_545
Li7 O5 2.172742 1_555
Li7 O11 2.173504 1_645
Cr0 O9 2.017492 1_655
Cr0 O15 2.018147 1_555
Cr0 O11 2.031471 1_655
Cr0 O5 2.031657 1_555
Cr0 O0 2.040217 1_655
Cr0 O3 2.041183 1_555
Cr1 O13 2.014566 1_455
Cr1 O6 2.021204 1_555
Cr1 O11 2.026192 1_555
Cr1 O4 2.028558 1_555
Cr1 O0 2.033641 1_555
Cr1 O2 2.034206 1_555
Cr2 O7 2.014606 1_655
Cr2 O12 2.022294 1_555
Cr2 O5 2.026319 1_555
Cr2 O10 2.027520 1_555
Cr2 O3 2.033527 1_555
Cr2 O1 2.034951 1_555
Cr3 O15 1.989614 1_555
Cr3 O6 2.000558 1_545
Cr3 O13 2.017634 1_555
Cr3 O0 2.024490 1_655
Cr3 O8 2.032847 1_545
Cr3 O2 2.037300 1_545
Cr4 O9 1.990598 1_555
Cr4 O12 1.999302 1_565
Cr4 O7 2.018769 1_555
Cr4 O3 2.025724 1_455
Cr4 O14 2.031174 1_565
Cr4 O1 2.036891 1_565
Cr5 O8 1.940813 1_555
Cr5 O14 1.943282 1_556
Cr5 O4 1.952956 1_555
Cr5 O10 1.953581 1_556
Cr5 O1 2.013097 1_556
Cr5 O2 2.013210 1_555
Ni0 O11 1.978432 1_555
Ni0 O5 1.979012 1_565
Ni0 O12 2.051879 1_565
Ni0 O6 2.053447 1_555
Ni0 O9 2.088133 1_555
Ni0 O15 2.089540 1_565
Ni1 O13 2.041718 1_455
Ni1 O7 2.042600 1_546
Ni1 O4 2.071049 1_555
Ni1 O10 2.072646 1_446
Ni1 O14 2.084649 1_556
Ni1 O8 2.085736 1_445
