# generated using pymatgen
data_CrB2Ru
_symmetry_space_group_name_H-M   'P 1'
_cell_length_a   2.91172600
_cell_length_b   4.31419800
_cell_length_c   5.85197300
_cell_angle_alpha   90.00000000
_cell_angle_beta   90.00000000
_cell_angle_gamma   90.00000000
_symmetry_Int_Tables_number   1
_chemical_formula_structural   CrB2Ru
_chemical_formula_sum   'Cr2 B4 Ru2'
_cell_volume   73.51109490
_cell_formula_units_Z   2
loop_
 _symmetry_equiv_pos_site_id
 _symmetry_equiv_pos_as_xyz
  1  'x, y, z'
loop_
 _atom_site_type_symbol
 _atom_site_label
 _atom_site_symmetry_multiplicity
 _atom_site_fract_x
 _atom_site_fract_y
 _atom_site_fract_z
 _atom_site_occupancy
  Cr  Cr0  1  0.00000000  0.12782600  0.68315900  1
  Cr  Cr1  1  0.00000000  0.87217400  0.18315900  1
  B  B0  1  0.00000000  0.65074100  0.52912200  1
  B  B1  1  0.00000000  0.34925900  0.02912200  1
  B  B2  1  0.50000000  0.86727400  0.46596500  1
  B  B3  1  0.50000000  0.13272600  0.96596500  1
  Ru  Ru0  1  0.50000000  0.36328300  0.32175400  1
  Ru  Ru1  1  0.50000000  0.63671700  0.82175400  1
loop_
_geom_bond_atom_site_label_1
_geom_bond_atom_site_label_2
_geom_bond_distance
_geom_bond_site_symmetry_2
Cr0 Ru1 2.695628 1_545
Cr0 Ru1 2.695628 1_445
Cr0 Ru1 2.756334 1_455
Cr0 Ru1 2.756334 1_555
Cr0 Ru0 2.761221 1_455
Cr0 Ru0 2.761221 1_555
Cr1 Ru0 2.695628 1_565
Cr1 Ru0 2.695628 1_465
Cr1 Ru0 2.756334 1_555
Cr1 Ru0 2.756334 1_455
Cr1 Ru1 2.761221 1_554
Cr1 Ru1 2.761221 1_454
B0 B2 1.768842 1_455
B0 B2 1.768842 1_555
B0 Cr1 2.238633 1_555
B0 Cr0 2.246977 1_565
B0 Ru1 2.248503 1_555
B0 Ru1 2.248503 1_455
B0 Ru0 2.264977 1_555
B0 Ru0 2.264977 1_455
B0 Cr0 2.429384 1_555
B1 B3 1.768842 1_554
B1 B3 1.768842 1_454
B1 Cr0 2.238633 1_554
B1 Cr1 2.246977 1_545
B1 Ru0 2.248503 1_455
B1 Ru0 2.248503 1_555
B1 Ru1 2.264977 1_554
B1 Ru1 2.264977 1_454
B1 Cr1 2.429384 1_555
B2 Cr1 2.204296 1_555
B2 Cr1 2.204296 1_655
B2 Cr0 2.235744 1_565
B2 Cr0 2.235744 1_665
B2 Ru0 2.300280 1_565
B2 Ru1 2.307460 1_555
B2 Ru0 2.332349 1_555
B3 Cr0 2.204296 1_655
B3 Cr0 2.204296 1_555
B3 Cr1 2.235744 1_546
B3 Cr1 2.235744 1_646
B3 Ru1 2.300280 1_545
B3 Ru0 2.307460 1_556
B3 Ru1 2.332349 1_555
