# generated using pymatgen
data_CeZn2Co
_symmetry_space_group_name_H-M   'P 1'
_cell_length_a   6.69621564
_cell_length_b   6.69621564
_cell_length_c   4.40290200
_cell_angle_alpha   90.00000000
_cell_angle_beta   90.00000000
_cell_angle_gamma   135.71295268
_symmetry_Int_Tables_number   1
_chemical_formula_structural   CeZn2Co
_chemical_formula_sum   'Ce2 Zn4 Co2'
_cell_volume   137.85133806
_cell_formula_units_Z   2
loop_
 _symmetry_equiv_pos_site_id
 _symmetry_equiv_pos_as_xyz
  1  'x, y, z'
loop_
 _atom_site_type_symbol
 _atom_site_label
 _atom_site_symmetry_multiplicity
 _atom_site_fract_x
 _atom_site_fract_y
 _atom_site_fract_z
 _atom_site_occupancy
  Ce  Ce0  1  0.80000300  0.19999700  0.25000000  1
  Ce  Ce1  1  0.19999700  0.80000300  0.75000000  1
  Zn  Zn0  1  0.80057600  0.68731800  0.25000000  1
  Zn  Zn1  1  0.19942400  0.31268200  0.75000000  1
  Zn  Zn2  1  0.31268200  0.19942400  0.25000000  1
  Zn  Zn3  1  0.68731800  0.80057600  0.75000000  1
  Co  Co0  1  0.36433800  0.63566200  0.25000000  1
  Co  Co1  1  0.63566200  0.36433800  0.75000000  1
loop_
_geom_bond_atom_site_label_1
_geom_bond_atom_site_label_2
_geom_bond_distance
_geom_bond_site_symmetry_2
Ce0 Co0 2.647153 1_545
Ce0 Co0 2.647153 1_655
Ce0 Co1 3.000373 1_555
Ce0 Co1 3.000373 1_554
Ce0 Zn3 3.111251 1_545
Ce0 Zn3 3.111251 1_544
Ce0 Zn1 3.111251 1_654
Ce0 Zn1 3.111251 1_655
Ce0 Zn0 3.260461 1_555
Ce0 Zn2 3.260461 1_555
Ce0 Zn2 3.435757 1_655
Ce0 Zn0 3.435757 1_545
Ce1 Co1 2.647153 1_455
Ce1 Co1 2.647153 1_565
Ce1 Co0 3.000373 1_555
Ce1 Co0 3.000373 1_556
Ce1 Zn0 3.111251 1_455
Ce1 Zn0 3.111251 1_456
Ce1 Zn2 3.111251 1_566
Ce1 Zn2 3.111251 1_565
Ce1 Zn3 3.260461 1_555
Ce1 Zn1 3.260461 1_555
Ce1 Zn1 3.435757 1_565
Ce1 Zn3 3.435757 1_455
Zn0 Zn2 2.462880 1_555
Zn0 Zn2 2.585102 1_665
Zn0 Zn3 2.611551 1_555
Zn0 Zn3 2.611551 1_554
Zn1 Zn3 2.462880 1_555
Zn1 Zn3 2.585102 1_445
Zn1 Zn2 2.611551 1_556
Zn1 Zn2 2.611551 1_555
Co0 Zn2 2.684419 1_555
Co0 Zn0 2.684419 1_555
Co0 Zn3 2.706283 1_555
Co0 Zn3 2.706283 1_554
Co0 Zn1 2.706283 1_554
Co0 Zn1 2.706283 1_555
Co1 Zn1 2.684419 1_555
Co1 Zn3 2.684419 1_555
Co1 Zn0 2.706283 1_555
Co1 Zn0 2.706283 1_556
Co1 Zn2 2.706283 1_556
Co1 Zn2 2.706283 1_555
