# generated using pymatgen
data_Ta3Cu
_symmetry_space_group_name_H-M   'P 1'
_cell_length_a   5.07551332
_cell_length_b   5.07551332
_cell_length_c   5.07551332
_cell_angle_alpha   133.42678000
_cell_angle_beta   133.42678000
_cell_angle_gamma   67.98470610
_symmetry_Int_Tables_number   1
_chemical_formula_structural   Ta3Cu
_chemical_formula_sum   'Ta3 Cu1'
_cell_volume   67.76955371
_cell_formula_units_Z   1
loop_
 _symmetry_equiv_pos_site_id
 _symmetry_equiv_pos_as_xyz
  1  'x, y, z'
loop_
 _atom_site_type_symbol
 _atom_site_label
 _atom_site_symmetry_multiplicity
 _atom_site_fract_x
 _atom_site_fract_y
 _atom_site_fract_z
 _atom_site_occupancy
  Ta  Ta0  1  0.75000000  0.25000000  0.50000000  1
  Ta  Ta1  1  0.25000000  0.75000000  0.50000000  1
  Ta  Ta2  1  0.50000000  0.50000000  0.00000000  1
  Cu  Cu0  1  0.00000000  0.00000000  0.00000000  1
loop_
_geom_bond_atom_site_label_1
_geom_bond_atom_site_label_2
_geom_bond_distance
_geom_bond_site_symmetry_2
Ta0 Ta1 2.837629 1_555
Ta0 Ta1 2.837629 1_544
Ta0 Ta1 2.837629 1_656
Ta0 Ta1 2.837629 1_645
Ta0 Ta2 2.907446 1_656
Ta0 Ta2 2.907446 1_555
Ta0 Ta2 2.907446 1_556
Ta0 Ta2 2.907446 1_545
Ta1 Ta2 2.907446 1_455
Ta1 Ta2 2.907446 1_555
Ta1 Ta2 2.907446 1_556
Ta1 Ta2 2.907446 1_566
Cu0 Ta2 2.837629 1_455
Cu0 Ta2 2.837629 1_444
Cu0 Ta2 2.837629 1_556
Cu0 Ta2 2.837629 1_545
Cu0 Ta1 2.907446 1_544
Cu0 Ta1 2.907446 1_555
Cu0 Ta0 2.907446 1_444
Cu0 Ta1 2.907446 1_545
Cu0 Ta1 2.907446 1_444
Cu0 Ta0 2.907446 1_455
Cu0 Ta0 2.907446 1_454
Cu0 Ta0 2.907446 1_555
