# generated using pymatgen
data_Te8Mo3W
_symmetry_space_group_name_H-M   'P 1'
_cell_length_a   3.55932983
_cell_length_b   3.55932983
_cell_length_c   40.10720000
_cell_angle_alpha   90.00000000
_cell_angle_beta   90.00000000
_cell_angle_gamma   119.99999677
_symmetry_Int_Tables_number   1
_chemical_formula_structural   Te8Mo3W
_chemical_formula_sum   'Te8 Mo3 W1'
_cell_volume   440.03726560
_cell_formula_units_Z   1
loop_
 _symmetry_equiv_pos_site_id
 _symmetry_equiv_pos_as_xyz
  1  'x, y, z'
loop_
 _atom_site_type_symbol
 _atom_site_label
 _atom_site_symmetry_multiplicity
 _atom_site_fract_x
 _atom_site_fract_y
 _atom_site_fract_z
 _atom_site_occupancy
  Te  Te0  1  0.00000000  0.00000000  0.32701300  1
  Te  Te1  1  0.00000000  0.00000000  0.70271100  1
  Te  Te2  1  0.33333300  0.66666700  0.04873200  1
  Te  Te3  1  0.33333300  0.66666700  0.42431000  1
  Te  Te4  1  0.33333300  0.66666700  0.13913900  1
  Te  Te5  1  0.33333300  0.66666700  0.51500200  1
  Te  Te6  1  0.00000000  0.00000000  0.23659100  1
  Te  Te7  1  0.00000000  0.00000000  0.61232500  1
  Mo  Mo0  1  0.00000000  0.00000000  0.09391200  1
  Mo  Mo1  1  0.33333300  0.66666700  0.28180200  1
  Mo  Mo2  1  0.33333300  0.66666700  0.65754400  1
  W  W0  1  0.00000000  0.00000000  0.46966700  1
loop_
_geom_bond_atom_site_label_1
_geom_bond_atom_site_label_2
_geom_bond_distance
_geom_bond_site_symmetry_2
Te3 W0 2.744488 1_565
Te3 W0 2.744490 1_665
Te3 W0 2.744490 1_555
Te5 W0 2.743903 1_565
Te5 W0 2.743905 1_665
Te5 W0 2.743905 1_555
Mo0 Te2 2.739787 1_545
Mo0 Te2 2.739790 1_555
Mo0 Te2 2.739790 1_445
Mo0 Te4 2.741035 1_545
Mo0 Te4 2.741037 1_445
Mo0 Te4 2.741037 1_555
Mo1 Te6 2.740610 1_565
Mo1 Te0 2.740610 1_565
Mo1 Te6 2.740612 1_665
Mo1 Te0 2.740612 1_555
Mo1 Te0 2.740612 1_665
Mo1 Te6 2.740612 1_555
Mo2 Te1 2.739443 1_565
Mo2 Te1 2.739445 1_665
Mo2 Te1 2.739445 1_555
Mo2 Te7 2.740822 1_565
Mo2 Te7 2.740825 1_665
Mo2 Te7 2.740825 1_555
