# generated using pymatgen
data_YbPdPb
_symmetry_space_group_name_H-M   'P 1'
_cell_length_a   7.80392449
_cell_length_b   7.80392449
_cell_length_c   4.02048700
_cell_angle_alpha   90.00000000
_cell_angle_beta   90.00000000
_cell_angle_gamma   120.00000416
_symmetry_Int_Tables_number   1
_chemical_formula_structural   YbPdPb
_chemical_formula_sum   'Yb3 Pd3 Pb3'
_cell_volume   212.04859189
_cell_formula_units_Z   3
loop_
 _symmetry_equiv_pos_site_id
 _symmetry_equiv_pos_as_xyz
  1  'x, y, z'
loop_
 _atom_site_type_symbol
 _atom_site_label
 _atom_site_symmetry_multiplicity
 _atom_site_fract_x
 _atom_site_fract_y
 _atom_site_fract_z
 _atom_site_occupancy
  Yb  Yb0  1  0.40583200  0.40583200  0.50000000  1
  Yb  Yb1  1  0.59416800  0.00000000  0.50000000  1
  Yb  Yb2  1  0.00000000  0.59416800  0.50000000  1
  Pd  Pd0  1  0.66666700  0.33333300  0.00000000  1
  Pd  Pd1  1  0.33333300  0.66666700  0.00000000  1
  Pd  Pd2  1  0.00000000  0.00000000  0.50000000  1
  Pb  Pb0  1  0.73686600  0.73686600  0.00000000  1
  Pb  Pb1  1  0.26313400  0.00000000  0.00000000  1
  Pb  Pb2  1  0.00000000  0.26313400  0.00000000  1
loop_
_geom_bond_atom_site_label_1
_geom_bond_atom_site_label_2
_geom_bond_distance
_geom_bond_site_symmetry_2
Pd0 Yb1 3.107445 1_554
Pd0 Yb1 3.107445 1_555
Pd0 Yb2 3.107447 1_655
Pd0 Yb2 3.107447 1_654
Pd0 Yb0 3.107451 1_554
Pd0 Yb0 3.107451 1_555
Pd1 Yb2 3.107445 1_554
Pd1 Yb2 3.107445 1_555
Pd1 Yb1 3.107447 1_565
Pd1 Yb1 3.107447 1_564
Pd1 Yb0 3.107451 1_554
Pd1 Yb0 3.107451 1_555
Pd2 Yb0 3.167082 1_555
Pd2 Yb1 3.167082 1_455
Pd2 Yb2 3.167082 1_545
Pb0 Pd2 2.873647 1_665
Pb0 Pd2 2.873647 1_664
Pb0 Pd1 2.914107 1_555
Pb0 Pd0 2.914107 1_555
Pb0 Yb0 3.273354 1_555
Pb0 Yb0 3.273354 1_554
Pb0 Yb2 3.432889 1_655
Pb0 Yb1 3.432889 1_565
Pb0 Yb2 3.432889 1_654
Pb0 Yb1 3.432889 1_564
Pb1 Pd2 2.873648 1_555
Pb1 Pd2 2.873648 1_554
Pb1 Pd1 2.914099 1_545
Pb1 Pd0 2.914104 1_555
Pb1 Yb1 3.273355 1_554
Pb1 Yb1 3.273355 1_555
Pb1 Yb2 3.432889 1_544
Pb1 Yb2 3.432889 1_545
Pb1 Yb0 3.432889 1_554
Pb1 Yb0 3.432889 1_555
Pb2 Pd2 2.873648 1_555
Pb2 Pd2 2.873648 1_554
Pb2 Pd0 2.914099 1_455
Pb2 Pd1 2.914104 1_555
Pb2 Yb2 3.273355 1_554
Pb2 Yb2 3.273355 1_555
Pb2 Yb1 3.432889 1_455
Pb2 Yb1 3.432889 1_454
Pb2 Yb0 3.432889 1_554
Pb2 Yb0 3.432889 1_555
