# generated using pymatgen
data_ZrGa6(FeCo)3
_symmetry_space_group_name_H-M   'P 1'
_cell_length_a   4.97837200
_cell_length_b   6.46111783
_cell_length_c   6.47991457
_cell_angle_alpha   80.18041710
_cell_angle_beta   67.85163707
_cell_angle_gamma   67.89008696
_symmetry_Int_Tables_number   1
_chemical_formula_structural   ZrGa6(FeCo)3
_chemical_formula_sum   'Zr1 Ga6 Fe3 Co3'
_cell_volume   178.75585508
_cell_formula_units_Z   1
loop_
 _symmetry_equiv_pos_site_id
 _symmetry_equiv_pos_as_xyz
  1  'x, y, z'
loop_
 _atom_site_type_symbol
 _atom_site_label
 _atom_site_symmetry_multiplicity
 _atom_site_fract_x
 _atom_site_fract_y
 _atom_site_fract_z
 _atom_site_occupancy
  Zr  Zr0  1  0.00000000  0.00000000  0.00000000  1
  Ga  Ga0  1  0.67520500  0.82888500  0.82390200  1
  Ga  Ga1  1  0.32479500  0.17111500  0.17609800  1
  Ga  Ga2  1  0.00312700  0.66652900  0.33747000  1
  Ga  Ga3  1  0.99687300  0.33347100  0.66253000  1
  Ga  Ga4  1  0.66186500  0.33846200  0.34373100  1
  Ga  Ga5  1  0.33813500  0.66153800  0.65626900  1
  Fe  Fe0  1  0.50000000  0.00000000  0.50000000  1
  Fe  Fe1  1  0.00000000  0.50000000  0.00000000  1
  Fe  Fe2  1  0.50000000  0.50000000  0.00000000  1
  Co  Co0  1  0.48898100  0.24775500  0.75782800  1
  Co  Co1  1  0.51101900  0.75224500  0.24217200  1
  Co  Co2  1  0.00000000  0.00000000  0.50000000  1
loop_
_geom_bond_atom_site_label_1
_geom_bond_atom_site_label_2
_geom_bond_distance
_geom_bond_site_symmetry_2
Ga0 Zr0 2.882056 1_666
Ga0 Zr0 2.926462 1_566
Ga1 Zr0 2.882056 1_555
Ga1 Zr0 2.926462 1_655
Ga2 Ga3 2.742885 1_455
Ga2 Zr0 2.796040 1_565
Ga3 Zr0 2.796040 1_656
Ga4 Zr0 2.939427 1_655
Ga5 Zr0 2.939427 1_566
Fe0 Ga0 2.500256 1_545
Fe0 Ga1 2.500256 1_555
Fe0 Ga4 2.532383 1_555
Fe0 Ga5 2.532383 1_545
Fe0 Ga3 2.597636 1_455
Fe0 Ga2 2.597636 1_645
Fe1 Fe2 2.489186 1_455
Fe1 Fe2 2.489186 1_555
Fe1 Ga1 2.531753 1_555
Fe1 Ga0 2.531753 1_454
Fe1 Ga5 2.566446 1_554
Fe1 Ga4 2.566446 1_455
Fe1 Ga2 2.603990 1_555
Fe1 Ga3 2.603990 1_454
Fe1 Zr0 3.230559 1_565
Fe1 Zr0 3.230559 1_555
Fe2 Ga0 2.529043 1_554
Fe2 Ga1 2.529043 1_555
Fe2 Ga4 2.574306 1_555
Fe2 Ga5 2.574306 1_554
Fe2 Ga2 2.603628 1_555
Fe2 Ga3 2.603628 1_554
Fe2 Zr0 3.252567 1_565
Fe2 Zr0 3.252567 1_655
Co0 Fe1 2.459700 1_556
Co0 Fe2 2.475143 1_556
Co0 Fe0 2.476642 1_555
Co0 Ga0 2.526374 1_545
Co0 Ga4 2.527123 1_555
Co0 Ga5 2.530972 1_555
Co0 Ga1 2.536888 1_556
Co0 Co2 2.543165 1_655
Co0 Ga3 2.587036 1_455
Co0 Ga3 2.615607 1_555
Co0 Zr0 3.185463 1_556
Co0 Zr0 3.253453 1_656
Co1 Fe1 2.459700 1_655
Co1 Fe2 2.475143 1_555
Co1 Fe0 2.476642 1_565
Co1 Ga1 2.526374 1_565
Co1 Ga5 2.527123 1_555
Co1 Ga4 2.530972 1_555
Co1 Ga0 2.536888 1_554
Co1 Co2 2.543165 1_565
Co1 Ga2 2.587036 1_655
Co1 Ga2 2.615607 1_555
Co1 Zr0 3.185463 1_665
Co1 Zr0 3.253453 1_565
Co2 Fe0 2.489186 1_555
Co2 Fe0 2.489186 1_455
Co2 Ga0 2.497471 1_445
Co2 Ga1 2.497471 1_555
Co2 Ga5 2.529861 1_545
Co2 Ga4 2.529861 1_455
Co2 Ga3 2.547175 1_455
Co2 Ga2 2.547175 1_545
Co2 Zr0 3.239957 1_555
Co2 Zr0 3.239957 1_556
