# generated using pymatgen
data_EuSbPd
_symmetry_space_group_name_H-M   'P 1'
_cell_length_a   4.70593470
_cell_length_b   7.63308433
_cell_length_c   7.97892291
_cell_angle_alpha   89.99858280
_cell_angle_beta   90.00000000
_cell_angle_gamma   90.00000000
_symmetry_Int_Tables_number   1
_chemical_formula_structural   EuSbPd
_chemical_formula_sum   'Eu4 Sb4 Pd4'
_cell_volume   286.60926543
_cell_formula_units_Z   4
loop_
 _symmetry_equiv_pos_site_id
 _symmetry_equiv_pos_as_xyz
  1  'x, y, z'
loop_
 _atom_site_type_symbol
 _atom_site_label
 _atom_site_symmetry_multiplicity
 _atom_site_fract_x
 _atom_site_fract_y
 _atom_site_fract_z
 _atom_site_occupancy
  Eu  Eu0  1  0.25000000  0.00692083  0.29729532  1
  Eu  Eu1  1  0.25000000  0.50694830  0.20270034  1
  Eu  Eu2  1  0.75000000  0.99308017  0.70271654  1
  Eu  Eu3  1  0.75000000  0.49300276  0.79726510  1
  Sb  Sb0  1  0.25000000  0.69641555  0.59242661  1
  Sb  Sb1  1  0.25000000  0.19663912  0.90766576  1
  Sb  Sb2  1  0.75000000  0.30350804  0.40766714  1
  Sb  Sb3  1  0.75000000  0.80337606  0.09229387  1
  Pd  Pd0  1  0.25000000  0.31436100  0.58070645  1
  Pd  Pd1  1  0.25000000  0.81447861  0.91919941  1
  Pd  Pd2  1  0.75000000  0.68563537  0.41928135  1
  Pd  Pd3  1  0.75000000  0.18563417  0.08078409  1
loop_
_geom_bond_atom_site_label_1
_geom_bond_atom_site_label_2
_geom_bond_distance
_geom_bond_site_symmetry_2
Eu0 Pd3 3.222041 1_455
Eu0 Pd3 3.222041 1_555
Eu0 Pd0 3.258971 1_555
Eu0 Sb3 3.259750 1_445
Eu0 Sb3 3.259750 1_545
Eu0 Sb0 3.341015 1_545
Eu0 Pd1 3.355449 1_544
Eu0 Sb2 3.381897 1_455
Eu0 Sb2 3.381897 1_555
Eu0 Sb1 3.429528 1_554
Eu0 Pd2 3.535243 1_545
Eu0 Pd2 3.535243 1_445
Eu1 Pd2 3.222291 1_455
Eu1 Pd2 3.222291 1_555
Eu1 Sb2 3.259192 1_555
Eu1 Sb2 3.259192 1_455
Eu1 Pd1 3.259883 1_554
Eu1 Sb1 3.339492 1_554
Eu1 Pd0 3.355225 1_555
Eu1 Sb3 3.381125 1_555
Eu1 Sb3 3.381125 1_455
Eu1 Sb0 3.429484 1_555
Eu1 Pd3 3.535275 1_555
Eu1 Pd3 3.535275 1_455
Eu2 Pd1 3.221558 1_555
Eu2 Pd1 3.221558 1_655
Eu2 Pd2 3.259129 1_555
Eu2 Sb1 3.259592 1_665
Eu2 Sb1 3.259592 1_565
Eu2 Sb2 3.340136 1_565
Eu2 Pd3 3.355619 1_566
Eu2 Sb0 3.382122 1_655
Eu2 Sb0 3.382122 1_555
Eu2 Sb3 3.429105 1_556
Eu2 Pd0 3.535272 1_565
Eu2 Pd0 3.535272 1_665
Eu3 Pd0 3.222049 1_655
Eu3 Pd0 3.222049 1_555
Eu3 Sb0 3.258579 1_555
Eu3 Sb0 3.258579 1_655
Eu3 Pd3 3.259094 1_556
Eu3 Sb3 3.339807 1_556
Eu3 Pd2 3.355216 1_555
Eu3 Sb1 3.380785 1_655
Eu3 Sb1 3.380785 1_555
Eu3 Sb2 3.428644 1_555
Eu3 Pd1 3.536171 1_555
Eu3 Pd1 3.536171 1_655
Pd0 Sb2 2.729389 1_455
Pd0 Sb2 2.729389 1_555
Pd0 Sb1 2.759181 1_555
Pd0 Sb0 2.917756 1_555
Pd1 Sb3 2.729668 1_456
Pd1 Sb3 2.729668 1_556
Pd1 Sb0 2.758666 1_555
Pd1 Sb1 2.918512 1_565
Pd2 Sb0 2.729800 1_655
Pd2 Sb0 2.729800 1_555
Pd2 Sb3 2.759441 1_555
Pd2 Sb2 2.918284 1_555
Pd3 Sb1 2.729742 1_554
Pd3 Sb1 2.729742 1_654
Pd3 Sb2 2.759026 1_555
Pd3 Sb3 2.919251 1_545
