# generated using pymatgen
data_KLiSm2(MoO4)4
_symmetry_space_group_name_H-M   'P 1'
_cell_length_a   7.00999216
_cell_length_b   7.00999216
_cell_length_c   19.75324598
_cell_angle_alpha   88.87881611
_cell_angle_beta   88.87881611
_cell_angle_gamma   135.12754005
_symmetry_Int_Tables_number   1
_chemical_formula_structural   KLiSm2(MoO4)4
_chemical_formula_sum   'K2 Li2 Sm4 Mo8 O32'
_cell_volume   683.94018120
_cell_formula_units_Z   2
loop_
 _symmetry_equiv_pos_site_id
 _symmetry_equiv_pos_as_xyz
  1  'x, y, z'
loop_
 _atom_site_type_symbol
 _atom_site_label
 _atom_site_symmetry_multiplicity
 _atom_site_fract_x
 _atom_site_fract_y
 _atom_site_fract_z
 _atom_site_occupancy
  K  K0  1  0.53120900  0.46879100  0.25000000  1
  K  K1  1  0.46879100  0.53120900  0.75000000  1
  Li  Li0  1  0.81359300  0.18640700  0.25000000  1
  Li  Li1  1  0.18640700  0.81359300  0.75000000  1
  Sm  Sm0  1  0.64717400  0.35393100  0.03308900  1
  Sm  Sm1  1  0.35282600  0.64606900  0.96691100  1
  Sm  Sm2  1  0.64606900  0.35282600  0.46691100  1
  Sm  Sm3  1  0.35393100  0.64717400  0.53308900  1
  Mo  Mo0  1  0.91941800  0.04426600  0.09215300  1
  Mo  Mo1  1  0.08058200  0.95573400  0.90784700  1
  Mo  Mo2  1  0.95573400  0.08058200  0.40784700  1
  Mo  Mo3  1  0.04426600  0.91941800  0.59215300  1
  Mo  Mo4  1  0.23307300  0.74729400  0.14900700  1
  Mo  Mo5  1  0.76692700  0.25270600  0.85099300  1
  Mo  Mo6  1  0.25270600  0.76692700  0.35099300  1
  Mo  Mo7  1  0.74729400  0.23307300  0.64900700  1
  O  O0  1  0.67232800  0.01034800  0.04338400  1
  O  O1  1  0.32767200  0.98965200  0.95661600  1
  O  O2  1  0.98965200  0.32767200  0.45661600  1
  O  O3  1  0.01034800  0.67232800  0.54338400  1
  O  O4  1  0.48761700  0.76767600  0.17382000  1
  O  O5  1  0.51238300  0.23232400  0.82618000  1
  O  O6  1  0.23232400  0.51238300  0.32618000  1
  O  O7  1  0.76767600  0.48761700  0.67382000  1
  O  O8  1  0.72598600  0.76513200  0.46192600  1
  O  O9  1  0.27401400  0.23486800  0.53807400  1
  O  O10  1  0.23486800  0.27401400  0.03807400  1
  O  O11  1  0.76513200  0.72598600  0.96192600  1
  O  O12  1  0.43109000  0.91194500  0.43229000  1
  O  O13  1  0.56891000  0.08805500  0.56771000  1
  O  O14  1  0.08805500  0.56891000  0.06771000  1
  O  O15  1  0.91194500  0.43109000  0.93229000  1
  O  O16  1  0.80199400  0.98604100  0.32929500  1
  O  O17  1  0.19800600  0.01395900  0.67070500  1
  O  O18  1  0.01395900  0.19800600  0.17070500  1
  O  O19  1  0.98604100  0.80199400  0.82929500  1
  O  O20  1  0.72496600  0.81184700  0.60207300  1
  O  O21  1  0.27503400  0.18815300  0.39792700  1
  O  O22  1  0.18815200  0.27503400  0.89792700  1
  O  O23  1  0.81184800  0.72496600  0.10207300  1
  O  O24  1  0.39567500  0.09276200  0.13383200  1
  O  O25  1  0.60432500  0.90723800  0.86616800  1
  O  O26  1  0.90723800  0.60432500  0.36616800  1
  O  O27  1  0.09276200  0.39567500  0.63383200  1
  O  O28  1  0.43629500  0.02772200  0.28632600  1
  O  O29  1  0.56370500  0.97227800  0.71367400  1
  O  O30  1  0.97227800  0.56370500  0.21367400  1
  O  O31  1  0.02772200  0.43629500  0.78632600  1
loop_
_geom_bond_atom_site_label_1
_geom_bond_atom_site_label_2
_geom_bond_distance
_geom_bond_site_symmetry_2
K0 O28 2.737899 1_555
K0 O30 2.737899 1_555
K0 O4 2.747665 1_555
K0 O6 2.747665 1_555
K0 O18 3.128448 1_555
K0 O16 3.128448 1_555
K0 O26 3.144675 1_555
K0 O24 3.144675 1_555
K0 O21 3.193080 1_555
K0 O23 3.193081 1_555
K1 O31 2.737899 1_555
K1 O29 2.737899 1_555
K1 O7 2.747665 1_555
K1 O5 2.747665 1_555
K1 O17 3.128448 1_555
K1 O19 3.128448 1_555
K1 O25 3.144675 1_555
K1 O27 3.144675 1_555
K1 O20 3.193080 1_555
K1 O22 3.193081 1_555
Li0 O18 2.044472 1_655
Li0 O16 2.044472 1_545
Li0 O28 2.114721 1_555
Li0 O30 2.114721 1_555
Li1 O19 2.044472 1_455
Li1 O17 2.044472 1_565
Li1 O29 2.114721 1_555
Li1 O31 2.114721 1_555
Mo0 O18 1.761159 1_655
Mo0 O23 1.789349 1_545
Mo0 O10 1.848591 1_655
Mo0 O0 1.864211 1_555
Mo1 O19 1.761159 1_455
Mo1 O22 1.789349 1_565
Mo1 O11 1.848591 1_455
Mo1 O1 1.864211 1_555
Mo2 O16 1.761159 1_545
Mo2 O21 1.789345 1_655
Mo2 O8 1.848591 1_545
Mo2 O2 1.864211 1_555
Mo3 O17 1.761159 1_565
Mo3 O20 1.789345 1_455
Mo3 O9 1.848591 1_565
Mo3 O3 1.864211 1_555
Mo4 O4 1.766403 1_555
Mo4 O30 1.771927 1_455
Mo4 O24 1.816487 1_565
Mo4 O14 1.875282 1_555
Mo5 O5 1.766403 1_555
Mo5 O31 1.771927 1_655
Mo5 O25 1.816487 1_545
Mo5 O15 1.875282 1_555
Mo6 O6 1.766403 1_555
Mo6 O28 1.771927 1_565
Mo6 O26 1.816487 1_455
Mo6 O12 1.875282 1_555
Mo7 O7 1.766403 1_555
Mo7 O29 1.771927 1_545
Mo7 O27 1.816487 1_655
Mo7 O13 1.875282 1_555
O0 Sm1 2.448687 1_544
O0 Sm0 2.541174 1_555
O1 Sm0 2.448687 1_566
O1 Sm1 2.541174 1_555
O2 Sm3 2.448687 1_655
O2 Sm2 2.541174 1_555
O3 Sm2 2.448687 1_455
O3 Sm3 2.541174 1_555
O8 Sm3 2.493250 1_555
O8 Sm2 2.523669 1_555
O9 Sm2 2.493250 1_555
O9 Sm3 2.523669 1_555
O10 Sm1 2.493250 1_554
O10 Sm0 2.523669 1_555
O11 Sm0 2.493250 1_556
O11 Sm1 2.523669 1_555
O12 Sm2 2.410826 1_565
O12 Sm3 2.468258 1_555
O13 Sm3 2.410826 1_545
O13 Sm2 2.468258 1_555
O14 Sm0 2.410826 1_455
O14 Sm1 2.468258 1_554
O15 Sm1 2.410826 1_655
O15 Sm0 2.468258 1_556
O20 Sm3 2.428801 1_555
O21 Sm2 2.428801 1_555
O22 Sm1 2.428799 1_555
O23 Sm0 2.428799 1_555
O24 Sm0 2.359114 1_555
O25 Sm1 2.359114 1_555
O26 Sm2 2.359114 1_555
O27 Sm3 2.359114 1_555
