# generated using pymatgen
data_Ba2YTi2F11
_symmetry_space_group_name_H-M   'P 1'
_cell_length_a   7.82191243
_cell_length_b   7.82191243
_cell_length_c   13.74762800
_cell_angle_alpha   90.00000000
_cell_angle_beta   90.00000000
_cell_angle_gamma   120.00000368
_symmetry_Int_Tables_number   1
_chemical_formula_structural   Ba2YTi2F11
_chemical_formula_sum   'Ba6 Y3 Ti6 F33'
_cell_volume   728.42406822
_cell_formula_units_Z   3
loop_
 _symmetry_equiv_pos_site_id
 _symmetry_equiv_pos_as_xyz
  1  'x, y, z'
loop_
 _atom_site_type_symbol
 _atom_site_label
 _atom_site_symmetry_multiplicity
 _atom_site_fract_x
 _atom_site_fract_y
 _atom_site_fract_z
 _atom_site_occupancy
  Ba  Ba0  1  0.89550700  0.87966200  0.66287800  1
  Ba  Ba1  1  0.51749900  0.19593200  0.81201000  1
  Ba  Ba2  1  0.98415500  0.10449300  0.99621100  1
  Ba  Ba3  1  0.80406800  0.32156700  0.47867700  1
  Ba  Ba4  1  0.67843300  0.48250100  0.14534300  1
  Ba  Ba5  1  0.12033800  0.01584500  0.32954400  1
  Y  Y0  1  0.46823300  0.66910400  0.88835300  1
  Y  Y1  1  0.20087100  0.53176700  0.22168700  1
  Y  Y2  1  0.33089600  0.79912900  0.55502000  1
  Ti  Ti0  1  0.00654600  0.64404600  0.87506000  1
  Ti  Ti1  1  0.11689000  0.42940600  0.74046100  1
  Ti  Ti2  1  0.57059400  0.68748400  0.40712700  1
  Ti  Ti3  1  0.63750000  0.99345400  0.20839400  1
  Ti  Ti4  1  0.31251600  0.88311000  0.07379400  1
  Ti  Ti5  1  0.35595400  0.36250000  0.54172700  1
  F  F0  1  0.02321000  0.75612200  0.01802200  1
  F  F1  1  0.83357200  0.39027000  0.94294300  1
  F  F2  1  0.73291200  0.97679000  0.35135500  1
  F  F3  1  0.41555400  0.10797200  0.49506500  1
  F  F4  1  0.86439300  0.94511700  0.17247500  1
  F  F5  1  0.26995400  0.29977500  0.18688300  1
  F  F6  1  0.89202800  0.30758200  0.16173100  1
  F  F7  1  0.70022500  0.97017900  0.85355000  1
  F  F8  1  0.08072400  0.13560700  0.50580800  1
  F  F9  1  0.61014600  0.00603600  0.06043800  1
  F  F10  1  0.69241800  0.58444600  0.82839800  1
  F  F11  1  0.24387800  0.26708800  0.68468800  1
  F  F12  1  0.64298200  0.68656200  0.01213500  1
  F  F13  1  0.36573400  0.15541400  0.02555900  1
  F  F14  1  0.04358000  0.35701800  0.34546900  1
  F  F15  1  0.60973000  0.44330200  0.60960900  1
  F  F16  1  0.31742500  0.84490500  0.91153200  1
  F  F17  1  0.39589000  0.38985400  0.39377100  1
  F  F18  1  0.33092600  0.74187000  0.38968500  1
  F  F19  1  0.31343800  0.95642000  0.67880200  1
  F  F20  1  0.41094400  0.66907400  0.72301900  1
  F  F21  1  0.84458600  0.21032000  0.69222500  1
  F  F22  1  0.78968000  0.63426600  0.35889200  1
  F  F23  1  0.52748000  0.68257500  0.24486500  1
  F  F24  1  0.99396400  0.60411000  0.72710500  1
  F  F25  1  0.05488300  0.91927600  0.83914100  1
  F  F26  1  0.55669800  0.16642800  0.27627600  1
  F  F27  1  0.25794100  0.35118600  0.86446900  1
  F  F28  1  0.09324500  0.74205900  0.19780200  1
  F  F29  1  0.25813000  0.58905600  0.05635200  1
  F  F30  1  0.02982100  0.73004600  0.52021700  1
  F  F31  1  0.15509500  0.47252000  0.57819800  1
  F  F32  1  0.64881400  0.90675500  0.53113600  1
loop_
_geom_bond_atom_site_label_1
_geom_bond_atom_site_label_2
_geom_bond_distance
_geom_bond_site_symmetry_2
Ba0 F25 2.671273 1_655
Ba0 F32 2.730835 1_555
Ba0 F30 2.747599 1_655
Ba0 F24 2.770940 1_555
Ba0 F8 2.805206 1_665
Ba0 F21 2.835652 1_565
Ba0 F11 2.905318 1_665
Ba0 F19 3.021951 1_655
Ba0 F10 3.060295 1_555
Ba0 F15 3.090818 1_555
Ba0 F7 3.284373 1_555
Ba0 F20 3.394011 1_555
Ba1 F19 2.533933 1_545
Ba1 F10 2.645737 1_555
Ba1 F16 2.750094 1_545
Ba1 F1 2.811561 1_555
Ba1 F7 2.830350 1_545
Ba1 F27 2.929539 1_555
Ba1 F21 2.997031 1_555
Ba1 F11 3.024140 1_555
Ba1 F13 3.122865 1_556
Ba1 F25 3.175739 1_545
Ba1 F15 3.257441 1_555
Ba2 F4 2.671285 1_546
Ba2 F27 2.730835 1_655
Ba2 F7 2.747599 1_545
Ba2 F9 2.770939 1_556
Ba2 F25 2.805206 1_645
Ba2 F13 2.835654 1_656
Ba2 F0 2.905320 1_646
Ba2 F12 3.021951 1_546
Ba2 F6 3.060295 1_556
Ba2 F1 3.090815 1_555
Ba2 F5 3.284373 1_656
Ba2 F29 3.394011 1_656
Ba3 F14 2.533934 1_655
Ba3 F3 2.645737 1_555
Ba3 F31 2.750087 1_655
Ba3 F15 2.811552 1_555
Ba3 F30 2.830350 1_655
Ba3 F32 2.929539 1_545
Ba3 F22 2.997031 1_555
Ba3 F2 3.024140 1_545
Ba3 F21 3.122852 1_555
Ba3 F8 3.175739 1_655
Ba3 F26 3.257441 1_555
Ba4 F12 2.533934 1_555
Ba4 F6 2.645737 1_555
Ba4 F23 2.750094 1_555
Ba4 F26 2.811561 1_555
Ba4 F5 2.830350 1_555
Ba4 F28 2.929539 1_655
Ba4 F13 2.997024 1_555
Ba4 F0 3.024132 1_655
Ba4 F22 3.122865 1_555
Ba4 F4 3.175741 1_555
Ba4 F1 3.257429 1_554
Ba5 F8 2.671285 1_555
Ba5 F28 2.730835 1_545
Ba5 F5 2.747599 1_555
Ba5 F17 2.770939 1_555
Ba5 F4 2.805195 1_445
Ba5 F22 2.835653 1_445
Ba5 F2 2.905320 1_445
Ba5 F14 3.021952 1_555
Ba5 F3 3.060305 1_555
Ba5 F26 3.090815 1_555
Ba5 F30 3.284384 1_545
Ba5 F18 3.394011 1_545
F0 Ti4 2.108933 1_555
F0 Ti0 2.129316 1_554
F1 Ti0 1.988988 1_655
F2 Ti2 2.108933 1_555
F2 Ti3 2.129304 1_555
F3 Y2 2.313871 1_545
F3 Ti5 2.349603 1_555
F4 Ti3 2.051216 1_555
F5 Y1 2.189595 1_555
F6 Y1 2.313876 1_655
F6 Ti3 2.349607 1_545
F7 Y0 2.189592 1_555
F8 Ti5 2.051216 1_555
F9 Ti4 2.034584 1_545
F9 Ti3 2.052768 1_545
F10 Y0 2.313872 1_555
F10 Ti0 2.349603 1_655
F11 Ti1 2.108938 1_555
F11 Ti5 2.129304 1_555
F12 Y0 2.143862 1_554
F13 Ti4 2.064707 1_545
F14 Y1 2.143862 1_555
F15 Ti5 1.988982 1_555
F16 Ti0 2.193713 1_555
F16 Y0 2.237407 1_555
F16 Ti4 2.253520 1_556
F17 Ti2 2.034584 1_555
F17 Ti5 2.052768 1_555
F18 Ti2 2.133145 1_555
F18 Y2 2.316692 1_555
F18 Y1 2.719921 1_555
F19 Y2 2.143862 1_555
F20 Ti1 2.133145 1_555
F20 Y0 2.316679 1_555
F20 Y2 2.719933 1_555
F21 Ti1 2.064712 1_655
F22 Ti2 2.064707 1_555
F23 Ti3 2.193710 1_555
F23 Y1 2.237405 1_555
F23 Ti2 2.253520 1_555
F24 Ti1 2.034584 1_655
F24 Ti0 2.052754 1_655
F25 Ti0 2.051216 1_555
F26 Ti3 1.988982 1_545
F27 Y0 2.215150 1_555
F27 Ti1 2.274424 1_555
F28 Y1 2.215152 1_555
F28 Ti4 2.274424 1_555
F29 Ti4 2.133145 1_555
F29 Y1 2.316692 1_555
F29 Y0 2.719933 1_554
F30 Y2 2.189592 1_555
F31 Ti5 2.193710 1_555
F31 Y2 2.237405 1_555
F31 Ti1 2.253534 1_555
F32 Y2 2.215150 1_555
F32 Ti2 2.274434 1_555
