# generated using pymatgen
data_Zr(SO3)2
_symmetry_space_group_name_H-M   'P 1'
_cell_length_a   7.03569700
_cell_length_b   10.44777249
_cell_length_c   17.71322755
_cell_angle_alpha   86.16575761
_cell_angle_beta   78.54489389
_cell_angle_gamma   70.32356932
_symmetry_Int_Tables_number   1
_chemical_formula_structural   Zr(SO3)2
_chemical_formula_sum   'Zr4 S8 O24'
_cell_volume   1201.60298756
_cell_formula_units_Z   4
loop_
 _symmetry_equiv_pos_site_id
 _symmetry_equiv_pos_as_xyz
  1  'x, y, z'
loop_
 _atom_site_type_symbol
 _atom_site_label
 _atom_site_symmetry_multiplicity
 _atom_site_fract_x
 _atom_site_fract_y
 _atom_site_fract_z
 _atom_site_occupancy
  Zr  Zr0  1  0.87500000  0.25000000  0.25000000  1
  Zr  Zr1  1  0.87500000  0.75000000  0.25000000  1
  Zr  Zr2  1  0.87500000  0.25000000  0.75000000  1
  Zr  Zr3  1  0.37500000  0.75000000  0.75000000  1
  S  S0  1  0.54713900  0.20695900  0.85491900  1
  S  S1  1  0.59794200  0.79304100  0.85491900  1
  S  S2  1  0.24590200  0.20695900  0.14508100  1
  S  S3  1  0.20286100  0.29304100  0.64508100  1
  S  S4  1  0.60901700  0.79304100  0.14508100  1
  S  S5  1  0.15205800  0.70695900  0.64508100  1
  S  S6  1  0.50409800  0.29304100  0.35491900  1
  S  S7  1  0.14098300  0.70695900  0.35491900  1
  O  O0  1  0.67731300  0.83352200  0.06789000  1
  O  O1  1  0.25479600  0.16647800  0.06789000  1
  O  O2  1  0.48916500  0.83352200  0.93211000  1
  O  O3  1  0.07268700  0.66647800  0.43211000  1
  O  O4  1  0.57872500  0.16647800  0.93211000  1
  O  O5  1  0.49520400  0.33352200  0.43211000  1
  O  O6  1  0.26083500  0.66647800  0.56789000  1
  O  O7  1  0.17127500  0.33352200  0.56789000  1
  O  O8  1  0.03549400  0.34357100  0.16909700  1
  O  O9  1  0.79541000  0.65642900  0.16909700  1
  O  O10  1  0.62093500  0.34357100  0.83090300  1
  O  O11  1  0.71450600  0.15642900  0.33090300  1
  O  O12  1  0.54816100  0.65642900  0.83090300  1
  O  O13  1  0.95459000  0.84357100  0.33090300  1
  O  O14  1  0.12906500  0.15642900  0.66909700  1
  O  O15  1  0.20183900  0.84357100  0.66909700  1
  O  O16  1  0.74782200  0.10439800  0.79377400  1
  O  O17  1  0.45840400  0.89560200  0.79377400  1
  O  O18  1  0.14778000  0.10439800  0.20622600  1
  O  O19  1  0.00217800  0.39560200  0.70622600  1
  O  O20  1  0.64599400  0.89560200  0.20622600  1
  O  O21  1  0.29159600  0.60439800  0.70622600  1
  O  O22  1  0.60222000  0.39560200  0.29377400  1
  O  O23  1  0.10400600  0.60439800  0.29377400  1
loop_
_geom_bond_atom_site_label_1
_geom_bond_atom_site_label_2
_geom_bond_distance
_geom_bond_site_symmetry_2
O0 S4 1.441469 1_555
O1 S2 1.441471 1_555
O2 S1 1.441469 1_555
O3 S7 1.441469 1_555
O4 S0 1.441469 1_555
O5 S6 1.441471 1_555
O6 S5 1.441469 1_555
O7 S3 1.441469 1_555
O8 S2 1.678633 1_555
O8 Zr0 2.048829 1_455
O9 S4 1.678637 1_555
O9 Zr1 2.048825 1_555
O10 S0 1.678633 1_555
O10 Zr2 2.048829 1_555
O11 S6 1.678633 1_555
O11 Zr0 2.048829 1_555
O12 S1 1.678637 1_555
O12 Zr3 2.048825 1_555
O13 S7 1.678637 1_655
O13 Zr1 2.048825 1_555
O14 S3 1.678633 1_555
O14 Zr2 2.048829 1_455
O15 S5 1.678637 1_555
O15 Zr3 2.048825 1_555
O16 S0 1.686351 1_555
O16 Zr2 2.049209 1_555
O17 S1 1.686351 1_555
O17 Zr3 2.049209 1_555
O18 S2 1.686351 1_555
O18 Zr0 2.049209 1_455
O19 S3 1.686351 1_555
O19 Zr2 2.049209 1_455
O20 S4 1.686351 1_555
O20 Zr1 2.049209 1_555
O21 S5 1.686351 1_555
O21 Zr3 2.049209 1_555
O22 S6 1.686351 1_555
O22 Zr0 2.049209 1_555
O23 S7 1.686351 1_555
O23 Zr1 2.049209 1_455
