# generated using pymatgen
data_Ba10Y5Cu15O34
_symmetry_space_group_name_H-M   'P 1'
_cell_length_a   8.35058523
_cell_length_b   8.93719771
_cell_length_c   13.26878886
_cell_angle_alpha   106.38566822
_cell_angle_beta   98.76617259
_cell_angle_gamma   84.27328219
_symmetry_Int_Tables_number   1
_chemical_formula_structural   Ba10Y5Cu15O34
_chemical_formula_sum   'Ba10 Y5 Cu15 O34'
_cell_volume   937.25731907
_cell_formula_units_Z   1
loop_
 _symmetry_equiv_pos_site_id
 _symmetry_equiv_pos_as_xyz
  1  'x, y, z'
loop_
 _atom_site_type_symbol
 _atom_site_label
 _atom_site_symmetry_multiplicity
 _atom_site_fract_x
 _atom_site_fract_y
 _atom_site_fract_z
 _atom_site_occupancy
  Ba  Ba0  1  0.66389200  0.83022400  0.83698400  1
  Ba  Ba1  1  0.46882600  0.43605200  0.83970900  1
  Ba  Ba2  1  0.27117200  0.03805900  0.83712800  1
  Ba  Ba3  1  0.06789000  0.63158700  0.83808300  1
  Ba  Ba4  1  0.86631700  0.24239400  0.83725400  1
  Ba  Ba5  1  0.52882800  0.56194100  0.16287200  1
  Ba  Ba6  1  0.33117400  0.16394800  0.16029100  1
  Ba  Ba7  1  0.13610800  0.76977600  0.16301600  1
  Ba  Ba8  1  0.93368300  0.35760600  0.16274600  1
  Ba  Ba9  1  0.73211000  0.96841300  0.16191700  1
  Y  Y0  1  0.60010100  0.68659900  0.49980400  1
  Y  Y1  1  0.40000000  0.30000000  0.50000000  1
  Y  Y2  1  0.19989900  0.91340100  0.50019600  1
  Y  Y3  1  0.98517400  0.48262300  0.50005300  1
  Y  Y4  1  0.81482600  0.11737700  0.49994700  1
  Cu  Cu0  1  0.93127800  0.86327800  0.65583500  1
  Cu  Cu1  1  0.73266700  0.44427900  0.64607400  1
  Cu  Cu2  1  0.51461200  0.06192000  0.64110400  1
  Cu  Cu3  1  0.34106400  0.65066700  0.64026400  1
  Cu  Cu4  1  0.12632600  0.27383100  0.64797500  1
  Cu  Cu5  1  0.86872200  0.73672200  0.34416500  1
  Cu  Cu6  1  0.67367400  0.32616900  0.35202500  1
  Cu  Cu7  1  0.45893600  0.94933300  0.35973600  1
  Cu  Cu8  1  0.28538800  0.53808000  0.35889600  1
  Cu  Cu9  1  0.06733300  0.15572100  0.35392600  1
  Cu  Cu10  1  0.80539200  0.61031700  0.02155600  1
  Cu  Cu11  1  0.60224400  0.19955500  0.99768400  1
  Cu  Cu12  1  0.40000000  0.80000000  0.00000000  1
  Cu  Cu13  1  0.19775600  0.40044500  0.00231600  1
  Cu  Cu14  1  0.99460800  0.98968300  0.97844400  1
  O  O0  1  0.96181700  0.92607100  0.81145600  1
  O  O1  1  0.75306800  0.51815000  0.78668700  1
  O  O2  1  0.56699500  0.11086900  0.78437200  1
  O  O3  1  0.34580400  0.71683100  0.78283500  1
  O  O4  1  0.16292900  0.31366400  0.78876200  1
  O  O5  1  0.83818300  0.67392900  0.18854400  1
  O  O6  1  0.63707100  0.28633600  0.21123800  1
  O  O7  1  0.45419600  0.88316900  0.21716500  1
  O  O8  1  0.23300500  0.48913100  0.21562800  1
  O  O9  1  0.04693200  0.08185000  0.21331300  1
  O  O10  1  0.80045400  0.09743000  0.00880800  1
  O  O11  1  0.59776000  0.69279500  0.99048200  1
  O  O12  1  0.40000000  0.30000000  0.00000000  1
  O  O13  1  0.20224000  0.90720500  0.00951800  1
  O  O14  1  0.99954600  0.50257000  0.99119200  1
  O  O15  1  0.90000000  0.80000000  0.00000000  1
  O  O16  1  0.69919800  0.39023400  0.00244900  1
  O  O17  1  0.49627000  0.99386400  0.99811100  1
  O  O18  1  0.30373000  0.60613600  0.00188900  1
  O  O19  1  0.10080200  0.20976500  0.99755100  1
  O  O20  1  0.05103200  0.22003200  0.50069500  1
  O  O21  1  0.39968600  0.55009100  0.49945700  1
  O  O22  1  0.40031400  0.04990900  0.50054300  1
  O  O23  1  0.74896800  0.37996800  0.49930600  1
  O  O24  1  0.01202100  0.01843900  0.61378000  1
  O  O25  1  0.22524900  0.45934700  0.62200800  1
  O  O26  1  0.42330800  0.84767600  0.61911700  1
  O  O27  1  0.62436400  0.23760800  0.62219700  1
  O  O28  1  0.83401900  0.67369600  0.61346300  1
  O  O29  1  0.96598100  0.92630400  0.38653700  1
  O  O30  1  0.17563600  0.36239200  0.37780300  1
  O  O31  1  0.37669200  0.75232400  0.38088300  1
  O  O32  1  0.57475100  0.14065300  0.37799200  1
  O  O33  1  0.78797900  0.58156100  0.38622000  1
loop_
_geom_bond_atom_site_label_1
_geom_bond_atom_site_label_2
_geom_bond_distance
_geom_bond_site_symmetry_2
Ba0 O17 2.721859 1_555
Ba0 O1 2.732330 1_555
Ba0 O15 2.749994 1_556
Ba0 O2 2.800665 1_565
Ba0 O11 2.802034 1_555
Ba0 O0 2.807803 1_555
Ba0 O3 2.853670 1_555
Ba0 O10 2.980007 1_566
Ba0 O26 3.292266 1_555
Ba0 O28 3.364273 1_555
Ba1 O18 2.735435 1_556
Ba1 O16 2.758043 1_556
Ba1 O11 2.770035 1_555
Ba1 O4 2.791510 1_555
Ba1 O1 2.795538 1_555
Ba1 O2 2.856807 1_555
Ba1 O3 2.870452 1_555
Ba1 O12 2.881580 1_556
Ba1 O27 3.310138 1_555
Ba1 O25 3.314911 1_555
Ba2 O17 2.712196 1_545
Ba2 O19 2.748518 1_555
Ba2 O4 2.750753 1_555
Ba2 O3 2.786078 1_545
Ba2 O0 2.801175 1_445
Ba2 O2 2.849680 1_555
Ba2 O12 2.871871 1_556
Ba2 O13 2.996026 1_546
Ba2 O26 3.284629 1_545
Ba2 O24 3.365162 1_555
Ba3 O15 2.742135 1_456
Ba3 O18 2.745766 1_556
Ba3 O14 2.754795 1_455
Ba3 O3 2.773113 1_555
Ba3 O4 2.791151 1_555
Ba3 O0 2.792869 1_455
Ba3 O1 2.828356 1_455
Ba3 O13 3.018769 1_556
Ba3 O25 3.251289 1_555
Ba3 O28 3.398627 1_455
Ba4 O19 2.722058 1_655
Ba4 O16 2.725486 1_556
Ba4 O1 2.773562 1_555
Ba4 O2 2.776338 1_555
Ba4 O0 2.798679 1_545
Ba4 O14 2.821445 1_555
Ba4 O4 2.826042 1_655
Ba4 O10 3.057829 1_556
Ba4 O27 3.227664 1_555
Ba4 O24 3.397681 1_655
Ba5 O18 2.712196 1_555
Ba5 O16 2.748521 1_555
Ba5 O6 2.750753 1_555
Ba5 O7 2.786078 1_555
Ba5 O5 2.801175 1_555
Ba5 O8 2.849680 1_555
Ba5 O12 2.871871 1_555
Ba5 O11 2.996026 1_554
Ba5 O31 3.284629 1_555
Ba5 O33 3.365162 1_555
Ba6 O17 2.735435 1_544
Ba6 O19 2.758041 1_554
Ba6 O13 2.770035 1_545
Ba6 O6 2.791510 1_555
Ba6 O9 2.795538 1_555
Ba6 O8 2.856807 1_555
Ba6 O7 2.870452 1_545
Ba6 O12 2.881580 1_555
Ba6 O30 3.310138 1_555
Ba6 O32 3.314911 1_555
Ba7 O18 2.721859 1_555
Ba7 O9 2.732330 1_565
Ba7 O15 2.749994 1_455
Ba7 O8 2.800665 1_555
Ba7 O13 2.802034 1_555
Ba7 O5 2.807803 1_455
Ba7 O7 2.853670 1_555
Ba7 O14 2.980007 1_454
Ba7 O31 3.292266 1_555
Ba7 O29 3.364273 1_455
Ba8 O16 2.722056 1_555
Ba8 O19 2.725488 1_654
Ba8 O9 2.773562 1_655
Ba8 O8 2.776338 1_655
Ba8 O5 2.798679 1_555
Ba8 O10 2.821445 1_555
Ba8 O6 2.826042 1_555
Ba8 O14 3.057829 1_554
Ba8 O30 3.227664 1_655
Ba8 O33 3.397681 1_555
Ba9 O15 2.742135 1_555
Ba9 O17 2.745766 1_554
Ba9 O10 2.754795 1_565
Ba9 O7 2.773113 1_555
Ba9 O6 2.791151 1_565
Ba9 O5 2.792869 1_555
Ba9 O9 2.828356 1_665
Ba9 O11 3.018769 1_554
Ba9 O32 3.251289 1_565
Ba9 O29 3.398627 1_555
Cu0 O24 1.851164 1_665
Cu0 O28 1.855926 1_555
Cu0 O0 1.964190 1_555
Cu1 O1 1.782289 1_555
Cu1 O23 1.890779 1_555
Cu1 O27 2.060535 1_555
Cu1 O28 2.462916 1_555
Cu2 O2 1.819896 1_555
Cu2 O22 1.940595 1_555
Cu2 O27 1.986909 1_555
Cu2 O26 2.059379 1_545
Cu3 O3 1.811253 1_555
Cu3 O21 1.944668 1_555
Cu3 O25 1.985589 1_555
Cu3 O26 2.056528 1_555
Cu4 O4 1.783906 1_555
Cu4 O20 1.897680 1_555
Cu4 O25 2.057287 1_555
Cu4 O24 2.458699 1_555
Cu5 O33 1.851164 1_555
Cu5 O29 1.855926 1_555
Cu5 O5 1.964190 1_555
Cu6 O6 1.783906 1_555
Cu6 O23 1.897692 1_555
Cu6 O32 2.057287 1_555
Cu6 O33 2.458699 1_555
Cu7 O7 1.811253 1_555
Cu7 O22 1.944668 1_565
Cu7 O32 1.985589 1_565
Cu7 O31 2.056528 1_555
Cu8 O8 1.819896 1_555
Cu8 O21 1.940595 1_555
Cu8 O30 1.986909 1_555
Cu8 O31 2.059379 1_555
Cu9 O9 1.782289 1_555
Cu9 O20 1.890792 1_555
Cu9 O30 2.060535 1_555
Cu9 O29 2.462916 1_445
Cu10 O14 1.840341 1_554
Cu10 O11 1.848810 1_554
Cu10 O15 2.046827 1_555
Cu10 O5 2.107858 1_555
Cu10 O16 2.172019 1_555
Cu11 O10 1.815068 1_556
Cu11 O12 1.832139 1_556
Cu11 O16 1.939721 1_556
Cu11 O17 2.120040 1_545
Cu12 O13 1.827738 1_555
Cu12 O11 1.827738 1_554
Cu12 O18 1.989326 1_555
Cu12 O17 1.989326 1_554
Cu13 O14 1.815068 1_454
Cu13 O12 1.832139 1_555
Cu13 O19 1.939729 1_554
Cu13 O18 2.120040 1_555
Cu14 O10 1.840341 1_566
Cu14 O13 1.848810 1_656
Cu14 O15 2.046827 1_556
Cu14 O0 2.107858 1_555
Cu14 O19 2.172011 1_665
O20 Y4 2.254427 1_455
O20 Y3 2.358474 1_455
O21 Y0 2.165929 1_555
O21 Y1 2.236895 1_555
O22 Y2 2.165929 1_545
O22 Y1 2.236895 1_555
O23 Y3 2.254430 1_555
O23 Y4 2.358471 1_555
O24 Y2 2.289680 1_545
O24 Y4 2.340872 1_455
O25 Y1 2.404784 1_555
O25 Y3 2.408069 1_455
O26 Y2 2.392141 1_555
O26 Y0 2.400138 1_555
O27 Y4 2.403611 1_555
O27 Y1 2.413674 1_555
O28 Y0 2.293153 1_555
O28 Y3 2.339390 1_555
O29 Y2 2.293153 1_655
O29 Y4 2.339390 1_565
O30 Y3 2.403611 1_455
O30 Y1 2.413674 1_555
O31 Y0 2.392141 1_555
O31 Y2 2.400138 1_555
O32 Y1 2.404784 1_555
O32 Y4 2.408069 1_555
O33 Y0 2.289680 1_555
O33 Y3 2.340872 1_555
