# generated using pymatgen
data_La7SmCo5Cu3O20
_symmetry_space_group_name_H-M   'P 1'
_cell_length_a   10.77879440
_cell_length_b   11.38913203
_cell_length_c   17.93377248
_cell_angle_alpha   108.45233145
_cell_angle_beta   107.46069667
_cell_angle_gamma   89.99340018
_symmetry_Int_Tables_number   1
_chemical_formula_structural   La7SmCo5Cu3O20
_chemical_formula_sum   'La28 Sm4 Co20 Cu12 O80'
_cell_volume   1981.17907407
_cell_formula_units_Z   4
loop_
 _symmetry_equiv_pos_site_id
 _symmetry_equiv_pos_as_xyz
  1  'x, y, z'
loop_
 _atom_site_type_symbol
 _atom_site_label
 _atom_site_symmetry_multiplicity
 _atom_site_fract_x
 _atom_site_fract_y
 _atom_site_fract_z
 _atom_site_occupancy
  La  La0  1  0.30187600  0.06436700  0.11140700  1
  La  La1  1  0.30713000  0.06342800  0.60951400  1
  La  La2  1  0.30609100  0.56749200  0.61193500  1
  La  La3  1  0.80483500  0.06497300  0.61041700  1
  La  La4  1  0.80587100  0.56761800  0.11138400  1
  La  La5  1  0.80700000  0.56707400  0.61228300  1
  La  La6  1  0.19431000  0.43337500  0.38843500  1
  La  La7  1  0.19294300  0.43568800  0.89033600  1
  La  La8  1  0.19812200  0.93346700  0.38672900  1
  La  La9  1  0.19399100  0.93374400  0.88883200  1
  La  La10  1  0.69378900  0.43501600  0.38868000  1
  La  La11  1  0.69337000  0.93277200  0.38836700  1
  La  La12  1  0.69465600  0.93373000  0.88895700  1
  La  La13  1  0.05390900  0.29528400  0.11169400  1
  La  La14  1  0.05755600  0.29604900  0.61011700  1
  La  La15  1  0.05588400  0.79623900  0.61213100  1
  La  La16  1  0.55916600  0.29425300  0.11124600  1
  La  La17  1  0.55909300  0.29750100  0.61270600  1
  La  La18  1  0.55331000  0.79704000  0.11243500  1
  La  La19  1  0.55683900  0.79485700  0.61183300  1
  La  La20  1  0.44783300  0.20488700  0.38850500  1
  La  La21  1  0.44907900  0.20610700  0.88882900  1
  La  La22  1  0.44292300  0.70263800  0.38597500  1
  La  La23  1  0.44468200  0.70320000  0.88853800  1
  La  La24  1  0.94590000  0.20303700  0.38713400  1
  La  La25  1  0.94261400  0.20566900  0.88892700  1
  La  La26  1  0.94397600  0.70369400  0.38786200  1
  La  La27  1  0.94396300  0.70291600  0.88899400  1
  Sm  Sm0  1  0.29956800  0.56886100  0.10855200  1
  Sm  Sm1  1  0.80277600  0.06674100  0.10939200  1
  Sm  Sm2  1  0.69328400  0.43317900  0.89184500  1
  Sm  Sm3  1  0.05389700  0.79252500  0.11017000  1
  Co  Co0  1  0.00400600  0.99792700  0.49798200  1
  Co  Co1  1  0.25548500  0.25134700  0.00144200  1
  Co  Co2  1  0.25544300  0.25015600  0.49968100  1
  Co  Co3  1  0.75461400  0.25056000  0.49991200  1
  Co  Co4  1  0.10541400  0.09393100  0.25037500  1
  Co  Co5  1  0.10908800  0.09793700  0.75098000  1
  Co  Co6  1  0.10926500  0.59532000  0.24836400  1
  Co  Co7  1  0.10898200  0.59338900  0.75077300  1
  Co  Co8  1  0.61106000  0.09584500  0.25162400  1
  Co  Co9  1  0.60858000  0.09725900  0.75090100  1
  Co  Co10  1  0.60463100  0.59399000  0.24770100  1
  Co  Co11  1  0.60976300  0.59415000  0.75216600  1
  Co  Co12  1  0.35558700  0.40417700  0.24509000  1
  Co  Co13  1  0.35878100  0.40292700  0.74817800  1
  Co  Co14  1  0.35489500  0.90312900  0.24773800  1
  Co  Co15  1  0.35916000  0.90607600  0.75060900  1
  Co  Co16  1  0.85763300  0.40382100  0.24883100  1
  Co  Co17  1  0.85498400  0.40319200  0.74899100  1
  Co  Co18  1  0.86061000  0.90577800  0.25020700  1
  Co  Co19  1  0.85903400  0.90624300  0.75098800  1
  Cu  Cu0  1  0.00270200  0.99924400  0.00220800  1
  Cu  Cu1  1  0.00179400  0.50079700  0.00063200  1
  Cu  Cu2  1  0.00288700  0.50051600  0.49928900  1
  Cu  Cu3  1  0.50355700  0.00002800  0.00092800  1
  Cu  Cu4  1  0.50352900  0.99903800  0.49980900  1
  Cu  Cu5  1  0.50323300  0.50161100  0.00119200  1
  Cu  Cu6  1  0.50307900  0.50099100  0.49992600  1
  Cu  Cu7  1  0.25264700  0.75100500  0.00118200  1
  Cu  Cu8  1  0.25298500  0.74861100  0.49887600  1
  Cu  Cu9  1  0.75338800  0.24964600  0.00035000  1
  Cu  Cu10  1  0.75354200  0.75100900  0.00160500  1
  Cu  Cu11  1  0.75214800  0.74874600  0.49904500  1
  O  O0  1  0.12082000  0.11907400  0.48430700  1
  O  O1  1  0.11777700  0.11874700  0.98592400  1
  O  O2  1  0.11980300  0.62025200  0.48655500  1
  O  O3  1  0.12055800  0.62336100  0.99093600  1
  O  O4  1  0.61979600  0.11928600  0.48654100  1
  O  O5  1  0.62229700  0.12088900  0.98947200  1
  O  O6  1  0.62023700  0.62086200  0.48670700  1
  O  O7  1  0.61997000  0.61758400  0.98416200  1
  O  O8  1  0.13461300  0.38478900  0.01599000  1
  O  O9  1  0.13301600  0.38097900  0.51307400  1
  O  O10  1  0.13174000  0.87838000  0.01741700  1
  O  O11  1  0.13753500  0.87911600  0.51575400  1
  O  O12  1  0.63173600  0.37813800  0.00972000  1
  O  O13  1  0.63243000  0.38069000  0.51260200  1
  O  O14  1  0.63684300  0.88363000  0.01713600  1
  O  O15  1  0.63238600  0.87832300  0.51181100  1
  O  O16  1  0.37184100  0.11441900  0.48617300  1
  O  O17  1  0.37209900  0.11498400  0.98559400  1
  O  O18  1  0.36989400  0.61644400  0.48660300  1
  O  O19  1  0.36955300  0.61640500  0.98931500  1
  O  O20  1  0.87030400  0.11576000  0.48504200  1
  O  O21  1  0.86961900  0.11475000  0.99038600  1
  O  O22  1  0.87098500  0.61662200  0.48722000  1
  O  O23  1  0.86778300  0.61342400  0.98540000  1
  O  O24  1  0.38517500  0.39058500  0.01747200  1
  O  O25  1  0.38501200  0.38490900  0.51281600  1
  O  O26  1  0.38217400  0.88421200  0.01242300  1
  O  O27  1  0.38332600  0.88212100  0.51121800  1
  O  O28  1  0.87955500  0.38334900  0.00948500  1
  O  O29  1  0.88553200  0.38577200  0.51389400  1
  O  O30  1  0.88669900  0.88692000  0.02047400  1
  O  O31  1  0.88234500  0.88263700  0.51456000  1
  O  O32  1  0.10092100  0.11752500  0.14784600  1
  O  O33  1  0.08881300  0.10753500  0.64010300  1
  O  O34  1  0.10432500  0.61626700  0.14514500  1
  O  O35  1  0.09787400  0.61458900  0.64661300  1
  O  O36  1  0.60751900  0.11412200  0.14777200  1
  O  O37  1  0.59551700  0.11476900  0.64537200  1
  O  O38  1  0.60330200  0.61576900  0.14503900  1
  O  O39  1  0.59791000  0.61285000  0.64677200  1
  O  O40  1  0.44952700  0.38600300  0.35101700  1
  O  O41  1  0.45932400  0.38649000  0.85280600  1
  O  O42  1  0.44694000  0.88508700  0.35315300  1
  O  O43  1  0.45359700  0.88531100  0.85500600  1
  O  O44  1  0.95140500  0.38538200  0.35385500  1
  O  O45  1  0.95426900  0.38623000  0.85376300  1
  O  O46  1  0.95036300  0.89373200  0.36082400  1
  O  O47  1  0.95120400  0.88541500  0.85568600  1
  O  O48  1  0.33862900  0.27981300  0.13648800  1
  O  O49  1  0.33568600  0.28262800  0.63693500  1
  O  O50  1  0.34685500  0.78021200  0.14344400  1
  O  O51  1  0.34800800  0.78316900  0.64542800  1
  O  O52  1  0.84329500  0.28009300  0.14320200  1
  O  O53  1  0.83388000  0.28422900  0.63757100  1
  O  O54  1  0.85887000  0.78165400  0.14695600  1
  O  O55  1  0.84546400  0.78263500  0.64575700  1
  O  O56  1  0.19791500  0.21453800  0.36107400  1
  O  O57  1  0.20158000  0.21837400  0.86215300  1
  O  O58  1  0.20025600  0.71802300  0.35467000  1
  O  O59  1  0.20080800  0.71610900  0.85684400  1
  O  O60  1  0.69746200  0.21782300  0.36211900  1
  O  O61  1  0.70020600  0.22008900  0.85687900  1
  O  O62  1  0.69932000  0.71538800  0.35407200  1
  O  O63  1  0.70257400  0.71931900  0.85720300  1
  O  O64  1  0.42081000  0.07089600  0.24951200  1
  O  O65  1  0.41814200  0.07369800  0.74965600  1
  O  O66  1  0.41354600  0.57037400  0.24292000  1
  O  O67  1  0.41934700  0.57065300  0.74999500  1
  O  O68  1  0.91417800  0.07178700  0.24524200  1
  O  O69  1  0.92026800  0.07381600  0.75009000  1
  O  O70  1  0.92089900  0.57118500  0.24972500  1
  O  O71  1  0.91986500  0.56947500  0.75044100  1
  O  O72  1  0.16935400  0.42784800  0.25003100  1
  O  O73  1  0.17042500  0.42497500  0.75021500  1
  O  O74  1  0.16406100  0.92447600  0.24449700  1
  O  O75  1  0.17071000  0.93183400  0.75113300  1
  O  O76  1  0.66862500  0.42769300  0.24981800  1
  O  O77  1  0.66993000  0.42766800  0.75592000  1
  O  O78  1  0.67189200  0.92854800  0.25064400  1
  O  O79  1  0.67013000  0.93067500  0.75067400  1
loop_
_geom_bond_atom_site_label_1
_geom_bond_atom_site_label_2
_geom_bond_distance
_geom_bond_site_symmetry_2
La0 O48 2.361087 1_555
La0 O64 2.400265 1_555
La0 O32 2.466588 1_555
La0 O10 2.564535 1_545
La0 O26 2.593481 1_545
La0 O1 2.754580 1_554
La0 O17 2.800810 1_554
La0 O36 3.174439 1_555
La1 O49 2.387730 1_555
La1 O65 2.402345 1_555
La1 O11 2.548999 1_545
La1 O27 2.571020 1_545
La1 O33 2.586651 1_555
La1 O16 2.730520 1_555
La1 O0 2.769658 1_555
La1 O37 2.996798 1_555
La2 O51 2.345655 1_555
La2 O67 2.398244 1_555
La2 O35 2.517469 1_555
La2 O9 2.601517 1_555
La2 O25 2.602822 1_555
La2 O18 2.748965 1_555
La2 O2 2.755806 1_555
La2 O39 3.027848 1_555
La3 O53 2.389507 1_555
La3 O69 2.408864 1_555
La3 O37 2.535436 1_555
La3 O31 2.562677 1_545
La3 O15 2.598053 1_545
La3 O4 2.739825 1_555
La3 O20 2.768323 1_555
La3 O33 2.957502 1_655
La4 O54 2.339405 1_555
La4 O70 2.405078 1_555
La4 O38 2.452247 1_555
La4 O28 2.611037 1_555
La4 O12 2.638328 1_555
La4 O23 2.733731 1_554
La4 O7 2.760920 1_554
La4 O34 3.105108 1_655
La5 O55 2.340398 1_555
La5 O71 2.401660 1_555
La5 O39 2.523061 1_555
La5 O29 2.585177 1_555
La5 O13 2.611999 1_555
La5 O22 2.748463 1_555
La5 O6 2.766216 1_555
La5 O35 3.022074 1_655
La6 O56 2.385666 1_555
La6 O72 2.395327 1_555
La6 O44 2.519884 1_455
La6 O18 2.589647 1_555
La6 O2 2.597719 1_555
La6 O9 2.742192 1_555
La6 O25 2.744670 1_555
La6 O40 3.031052 1_555
La7 O57 2.371948 1_555
La7 O73 2.414199 1_555
La7 O45 2.473806 1_455
La7 O19 2.582884 1_555
La7 O3 2.614480 1_555
La7 O8 2.736171 1_556
La7 O24 2.767999 1_556
La7 O41 3.151466 1_555
La8 O58 2.338099 1_555
La8 O74 2.433991 1_555
La8 O16 2.569872 1_565
La8 O46 2.583620 1_455
La8 O0 2.599620 1_565
La8 O27 2.731861 1_555
La8 O11 2.824435 1_555
La8 O42 2.935615 1_555
La9 O59 2.367159 1_555
La9 O75 2.399126 1_555
La9 O47 2.522784 1_455
La9 O1 2.584917 1_565
La9 O17 2.586868 1_565
La9 O26 2.727370 1_556
La9 O10 2.831012 1_556
La9 O43 3.051050 1_555
La10 O60 2.369126 1_555
La10 O76 2.396955 1_555
La10 O40 2.528676 1_555
La10 O6 2.584504 1_555
La10 O22 2.590464 1_555
La10 O13 2.740775 1_555
La10 O29 2.764139 1_555
La10 O44 3.039248 1_555
La11 O62 2.360455 1_555
La11 O78 2.395397 1_555
La11 O42 2.554571 1_555
La11 O4 2.590573 1_565
La11 O20 2.591483 1_565
La11 O15 2.731311 1_555
La11 O31 2.765535 1_555
La11 O46 2.965939 1_555
La12 O63 2.333139 1_555
La12 O79 2.402735 1_555
La12 O43 2.502900 1_555
La12 O21 2.585364 1_565
La12 O5 2.610040 1_565
La12 O14 2.772742 1_556
La12 O30 2.828062 1_556
La12 O47 3.014554 1_555
La13 O32 2.325795 1_555
La13 O72 2.399896 1_555
La13 O52 2.516872 1_455
La13 O8 2.597188 1_555
La13 O28 2.644588 1_455
La13 O21 2.735390 1_454
La13 O1 2.768497 1_554
La13 O48 2.979549 1_555
La14 O33 2.373678 1_555
La14 O73 2.404049 1_555
La14 O9 2.557597 1_555
La14 O29 2.579890 1_455
La14 O53 2.612974 1_455
La14 O0 2.768108 1_555
La14 O20 2.773047 1_455
La14 O49 2.902292 1_555
La15 O35 2.347133 1_555
La15 O75 2.417209 1_555
La15 O55 2.532161 1_455
La15 O11 2.568792 1_555
La15 O31 2.579607 1_455
La15 O22 2.756050 1_455
La15 O2 2.763542 1_555
La15 O51 3.036634 1_555
La16 O36 2.356927 1_555
La16 O76 2.393236 1_555
La16 O48 2.564306 1_555
La16 O12 2.606861 1_555
La16 O24 2.612262 1_555
La16 O5 2.700502 1_554
La16 O17 2.770195 1_554
La16 O52 2.956163 1_555
La17 O37 2.337120 1_555
La17 O77 2.443421 1_555
La17 O13 2.583396 1_555
La17 O49 2.586666 1_555
La17 O25 2.613864 1_555
La17 O4 2.765541 1_555
La17 O16 2.797871 1_555
La17 O53 2.871298 1_555
La18 O38 2.338658 1_555
La18 O78 2.402027 1_555
La18 O50 2.471502 1_555
La18 O14 2.587427 1_555
La18 O26 2.597442 1_555
La18 O19 2.744396 1_554
La18 O7 2.828558 1_554
La18 O54 3.179071 1_555
La19 O39 2.353945 1_555
La19 O79 2.412750 1_555
La19 O51 2.512398 1_555
La19 O15 2.596252 1_555
La19 O27 2.617470 1_555
La19 O6 2.744871 1_555
La19 O18 2.762151 1_555
La19 O55 2.997617 1_555
La20 O40 2.364854 1_555
La20 O64 2.404878 1_555
La20 O4 2.570262 1_555
La20 O56 2.598005 1_555
La20 O16 2.608469 1_555
La20 O13 2.728316 1_555
La20 O25 2.764847 1_555
La20 O60 2.879894 1_555
La21 O41 2.352266 1_555
La21 O65 2.394335 1_555
La21 O57 2.577124 1_555
La21 O5 2.602285 1_555
La21 O17 2.604111 1_555
La21 O12 2.676901 1_556
La21 O24 2.845382 1_556
La21 O61 2.944366 1_555
La22 O42 2.335756 1_555
La22 O66 2.453054 1_555
La22 O58 2.523586 1_555
La22 O6 2.603154 1_555
La22 O18 2.610393 1_555
La22 O27 2.755938 1_555
La22 O15 2.764731 1_555
La22 O62 2.997960 1_555
La23 O43 2.344563 1_555
La23 O67 2.396930 1_555
La23 O59 2.531949 1_555
La23 O7 2.564216 1_555
La23 O19 2.628449 1_555
La23 O26 2.763808 1_556
La23 O14 2.822412 1_556
La23 O63 3.013210 1_555
La24 O44 2.340618 1_555
La24 O68 2.428321 1_555
La24 O0 2.566897 1_655
La24 O20 2.588181 1_555
La24 O60 2.593715 1_555
La24 O9 2.765120 1_655
La24 O29 2.795532 1_555
La24 O56 2.900894 1_655
La25 O45 2.347535 1_555
La25 O69 2.405374 1_555
La25 O61 2.518498 1_555
La25 O1 2.586400 1_655
La25 O21 2.655942 1_555
La25 O28 2.709884 1_556
La25 O8 2.804532 1_656
La25 O57 2.981855 1_655
La26 O46 2.368285 1_555
La26 O70 2.395860 1_555
La26 O62 2.535992 1_555
La26 O2 2.584373 1_655
La26 O22 2.595666 1_555
La26 O31 2.780586 1_555
La26 O11 2.798843 1_655
La26 O58 3.010005 1_655
La27 O47 2.344580 1_555
La27 O71 2.402825 1_555
La27 O63 2.511345 1_555
La27 O23 2.582620 1_555
La27 O3 2.597381 1_655
La27 O10 2.772090 1_656
La27 O30 2.842111 1_556
La27 O59 3.005383 1_655
Co0 O20 1.981859 1_465
Co0 O0 1.987249 1_565
Co0 O11 2.000355 1_555
Co0 O31 2.003408 1_455
Co0 O46 2.256510 1_455
Co0 O33 2.340542 1_565
Co1 O17 2.001804 1_554
Co1 O24 2.005566 1_555
Co1 O8 2.006933 1_555
Co1 O1 2.011951 1_554
Co1 O48 2.230315 1_555
Co1 O57 2.292104 1_554
Co2 O0 1.977437 1_555
Co2 O25 1.983824 1_555
Co2 O16 1.991870 1_555
Co2 O9 1.995562 1_555
Co2 O49 2.256092 1_555
Co2 O56 2.272608 1_555
Co3 O20 1.980676 1_555
Co3 O13 1.987133 1_555
Co3 O4 1.992228 1_555
Co3 O29 1.992321 1_555
Co3 O53 2.259813 1_555
Co3 O60 2.264586 1_555
Co4 O32 1.927388 1_555
Co4 O56 1.976956 1_555
Co4 O74 2.011549 1_545
Co4 O68 2.047575 1_455
Co5 O33 1.972417 1_555
Co5 O57 1.981604 1_555
Co5 O75 2.005462 1_545
Co5 O69 2.048373 1_455
Co6 O34 1.925291 1_555
Co6 O58 1.934210 1_555
Co6 O72 2.020547 1_555
Co6 O70 2.057334 1_455
Co7 O35 1.926987 1_555
Co7 O59 1.933675 1_555
Co7 O73 2.027145 1_555
Co7 O71 2.054586 1_455
Co8 O36 1.927769 1_555
Co8 O60 1.968287 1_555
Co8 O78 2.011492 1_545
Co8 O64 2.057696 1_555
Co9 O37 1.928801 1_555
Co9 O61 1.932722 1_555
Co9 O79 2.009017 1_545
Co9 O65 2.062736 1_555
Co10 O38 1.929950 1_555
Co10 O62 1.937700 1_555
Co10 O76 2.023337 1_555
Co10 O66 2.049749 1_555
Co11 O39 1.934971 1_555
Co11 O63 1.936734 1_555
Co11 O77 2.018560 1_555
Co11 O67 2.057007 1_555
Co12 O40 1.942013 1_555
Co12 O48 1.968001 1_555
Co12 O66 2.009013 1_555
Co12 O72 2.049768 1_555
Co13 O41 1.931920 1_555
Co13 O49 1.972548 1_555
Co13 O67 2.006099 1_555
Co13 O73 2.055454 1_555
Co14 O50 1.926359 1_555
Co14 O42 1.928937 1_555
Co14 O64 2.026060 1_565
Co14 O74 2.056856 1_555
Co15 O51 1.929893 1_555
Co15 O43 1.932333 1_555
Co15 O65 2.019028 1_565
Co15 O75 2.054691 1_555
Co16 O44 1.929018 1_555
Co16 O52 1.932000 1_555
Co16 O70 2.018171 1_555
Co16 O76 2.059903 1_555
Co17 O45 1.932901 1_555
Co17 O53 1.973241 1_555
Co17 O71 2.008611 1_555
Co17 O77 2.049024 1_555
Co18 O54 1.936395 1_555
Co18 O46 1.977545 1_555
Co18 O68 2.013388 1_565
Co18 O78 2.052620 1_555
Co19 O55 1.928037 1_555
Co19 O47 1.931642 1_555
Co19 O69 2.025941 1_565
Co19 O79 2.053625 1_555
Cu0 O30 1.954156 1_455
Cu0 O21 1.956235 1_464
Cu0 O10 1.978220 1_555
Cu0 O1 1.986351 1_564
Cu0 O47 2.421149 1_454
Cu0 O32 2.422999 1_565
Cu1 O23 1.947077 1_454
Cu1 O28 1.952149 1_455
Cu1 O8 1.965800 1_555
Cu1 O3 1.976146 1_554
Cu1 O34 2.406564 1_555
Cu1 O45 2.432560 1_454
Cu2 O29 1.947407 1_455
Cu2 O22 1.952661 1_455
Cu2 O2 1.967278 1_555
Cu2 O9 1.971420 1_555
Cu2 O44 2.407616 1_455
Cu2 O35 2.433266 1_555
Cu3 O17 1.947096 1_554
Cu3 O26 1.956674 1_545
Cu3 O14 1.974534 1_545
Cu3 O5 1.977946 1_554
Cu3 O43 2.415661 1_544
Cu3 O36 2.437737 1_555
Cu4 O16 1.948366 1_565
Cu4 O27 1.955920 1_555
Cu4 O15 1.968020 1_555
Cu4 O4 1.971900 1_565
Cu4 O37 2.409145 1_565
Cu4 O42 2.418772 1_555
Cu5 O24 1.939206 1_555
Cu5 O19 1.955138 1_554
Cu5 O7 1.976744 1_554
Cu5 O12 1.981925 1_555
Cu5 O38 2.390834 1_555
Cu5 O41 2.461760 1_554
Cu6 O25 1.947119 1_555
Cu6 O18 1.959479 1_555
Cu6 O13 1.969612 1_555
Cu6 O6 1.974765 1_555
Cu6 O39 2.421619 1_555
Cu6 O40 2.457857 1_555
Cu7 O10 1.961525 1_555
Cu7 O3 1.961795 1_554
Cu7 O26 1.982289 1_555
Cu7 O19 1.984223 1_554
Cu7 O50 2.357762 1_555
Cu7 O59 2.377281 1_554
Cu8 O11 1.946843 1_555
Cu8 O2 1.962752 1_555
Cu8 O18 1.964306 1_555
Cu8 O27 1.983867 1_555
Cu8 O58 2.383329 1_555
Cu8 O51 2.416897 1_555
Cu9 O5 1.959340 1_554
Cu9 O12 1.966046 1_555
Cu9 O28 1.975830 1_555
Cu9 O21 1.980403 1_554
Cu9 O52 2.360176 1_555
Cu9 O61 2.372503 1_554
Cu10 O14 1.970976 1_555
Cu10 O7 1.977171 1_554
Cu10 O30 1.986958 1_555
Cu10 O23 1.995544 1_554
Cu10 O63 2.386019 1_554
Cu10 O54 2.419464 1_555
Cu11 O6 1.949262 1_555
Cu11 O15 1.964623 1_555
Cu11 O31 1.967171 1_555
Cu11 O22 1.977535 1_555
Cu11 O62 2.390497 1_555
Cu11 O55 2.419184 1_555
O3 Sm0 2.635069 1_556
O3 Sm3 2.667274 1_556
O5 Sm1 2.668052 1_556
O7 Sm2 2.521900 1_555
O8 Sm0 2.517652 1_555
O10 Sm3 2.508873 1_555
O12 Sm2 2.642423 1_554
O14 Sm1 2.515223 1_565
O19 Sm0 2.671325 1_556
O21 Sm1 2.652276 1_556
O23 Sm2 2.548269 1_555
O23 Sm3 2.758604 1_656
O24 Sm0 2.539024 1_555
O28 Sm2 2.649514 1_554
O30 Sm3 2.519096 1_655
O30 Sm1 2.520579 1_565
O32 Sm1 3.091213 1_455
O34 Sm3 2.304528 1_555
O34 Sm0 2.399011 1_555
O36 Sm1 2.414203 1_555
O38 Sm0 3.150468 1_555
O41 Sm2 2.416103 1_555
O45 Sm2 3.096337 1_555
O50 Sm0 2.302367 1_555
O50 Sm3 3.044524 1_555
O52 Sm1 2.317636 1_555
O54 Sm3 2.398668 1_655
O61 Sm2 2.313728 1_555
O66 Sm0 2.348092 1_555
O68 Sm1 2.352988 1_555
O74 Sm3 2.337464 1_555
O77 Sm2 2.354644 1_555
