# generated using pymatgen
data_Y2FeSbO7
_symmetry_space_group_name_H-M   'P 1'
_cell_length_a   7.30951673
_cell_length_b   7.30951673
_cell_length_c   7.30951673
_cell_angle_alpha   120.17101765
_cell_angle_beta   119.55045113
_cell_angle_gamma   90.24222147
_symmetry_Int_Tables_number   1
_chemical_formula_structural   Y2FeSbO7
_chemical_formula_sum   'Y4 Fe2 Sb2 O14'
_cell_volume   276.72231482
_cell_formula_units_Z   2
loop_
 _symmetry_equiv_pos_site_id
 _symmetry_equiv_pos_as_xyz
  1  'x, y, z'
loop_
 _atom_site_type_symbol
 _atom_site_label
 _atom_site_symmetry_multiplicity
 _atom_site_fract_x
 _atom_site_fract_y
 _atom_site_fract_z
 _atom_site_occupancy
  Y  Y0  1  0.50000000  0.00000000  0.00000000  1
  Y  Y1  1  0.50000000  0.50000000  0.50000000  1
  Y  Y2  1  0.50000000  0.00000000  0.50000000  1
  Y  Y3  1  0.00000000  0.00000000  0.00000000  1
  Fe  Fe0  1  0.00000000  0.50000000  0.00000000  1
  Fe  Fe1  1  0.00000000  0.00000000  0.50000000  1
  Sb  Sb0  1  0.00000000  0.50000000  0.50000000  1
  Sb  Sb1  1  0.50000000  0.50000000  0.00000000  1
  O  O0  1  0.32984400  0.57984400  0.75000000  1
  O  O1  1  0.91230000  0.16230000  0.75000000  1
  O  O2  1  0.33839600  0.16955700  0.75976500  1
  O  O3  1  0.90979200  0.57863100  0.74023500  1
  O  O4  1  0.33839600  0.57863100  0.16883900  1
  O  O5  1  0.90979200  0.16955700  0.33116100  1
  O  O6  1  0.67015600  0.42015600  0.25000000  1
  O  O7  1  0.08770000  0.83770000  0.25000000  1
  O  O8  1  0.66160400  0.83044300  0.24023500  1
  O  O9  1  0.09020800  0.42136900  0.25976500  1
  O  O10  1  0.66160400  0.42136900  0.83116100  1
  O  O11  1  0.09020800  0.83044300  0.66883900  1
  O  O12  1  0.62277600  0.87277600  0.75000000  1
  O  O13  1  0.37722400  0.12722400  0.25000000  1
loop_
_geom_bond_atom_site_label_1
_geom_bond_atom_site_label_2
_geom_bond_distance
_geom_bond_site_symmetry_2
Fe0 O1 2.034814 1_454
Fe0 O7 2.034814 1_555
Fe0 O9 2.058061 1_555
Fe0 O3 2.058061 1_454
Fe0 O10 2.058061 1_454
Fe0 O4 2.058061 1_555
Fe1 O7 2.034814 1_545
Fe1 O1 2.034814 1_455
Fe1 O5 2.058061 1_455
Fe1 O2 2.058061 1_555
Fe1 O8 2.058061 1_445
Fe1 O11 2.058061 1_545
O0 Sb0 2.015724 1_555
O0 Sb1 2.015724 1_556
O0 Y0 2.530386 1_566
O0 Y1 2.530386 1_555
O1 Y2 2.487504 1_555
O1 Y3 2.487504 1_656
O2 Sb1 1.994863 1_556
O2 Y0 2.483728 1_556
O2 Y2 2.529027 1_555
O3 Sb0 1.994863 1_655
O3 Y1 2.483728 1_555
O3 Y3 2.529027 1_666
O4 Sb1 1.994863 1_555
O4 Y1 2.483728 1_555
O4 Y2 2.529027 1_565
O5 Sb0 1.994863 1_655
O5 Y0 2.483728 1_555
O5 Y3 2.529027 1_655
O6 Sb1 2.015724 1_555
O6 Sb0 2.015724 1_655
O6 Y1 2.530386 1_555
O6 Y0 2.530386 1_555
O7 Y2 2.487504 1_565
O7 Y3 2.487504 1_565
O8 Sb1 1.994863 1_555
O8 Y0 2.483728 1_565
O8 Y2 2.529027 1_565
O9 Sb0 1.994863 1_555
O9 Y1 2.483728 1_555
O9 Y3 2.529027 1_555
O10 Sb1 1.994863 1_556
O10 Y1 2.483728 1_555
O10 Y2 2.529027 1_555
O11 Sb0 1.994863 1_555
O11 Y0 2.483728 1_566
O11 Y3 2.529027 1_566
O12 Y0 2.219466 1_566
O12 Y1 2.219466 1_555
O12 Y3 2.259886 1_666
O12 Y2 2.259886 1_565
O13 Y1 2.219466 1_555
O13 Y0 2.219466 1_555
O13 Y3 2.259886 1_555
O13 Y2 2.259886 1_555
