# generated using pymatgen
data_Ta3Ir
_symmetry_space_group_name_H-M   'P 1'
_cell_length_a   4.56221283
_cell_length_b   4.56221283
_cell_length_c   4.56221283
_cell_angle_alpha   60.00000000
_cell_angle_beta   60.00000000
_cell_angle_gamma   60.00000000
_symmetry_Int_Tables_number   1
_chemical_formula_structural   Ta3Ir
_chemical_formula_sum   'Ta3 Ir1'
_cell_volume   67.14468288
_cell_formula_units_Z   1
loop_
 _symmetry_equiv_pos_site_id
 _symmetry_equiv_pos_as_xyz
  1  'x, y, z'
loop_
 _atom_site_type_symbol
 _atom_site_label
 _atom_site_symmetry_multiplicity
 _atom_site_fract_x
 _atom_site_fract_y
 _atom_site_fract_z
 _atom_site_occupancy
  Ta  Ta0  1  -0.00000000  0.00000000  0.00000000  1
  Ta  Ta1  1  0.49999900  0.49999900  0.49999900  1
  Ta  Ta2  1  0.25000100  0.25000100  0.25000100  1
  Ir  Ir0  1  0.75000000  0.75000000  0.75000000  1
loop_
_geom_bond_atom_site_label_1
_geom_bond_atom_site_label_2
_geom_bond_distance
_geom_bond_site_symmetry_2
Ta0 Ta2 2.793770 1_554
Ta0 Ta2 2.793770 1_455
Ta0 Ta2 2.793770 1_545
Ta0 Ta2 2.793785 1_555
Ta1 Ta2 2.793751 1_555
Ta1 Ta2 2.793781 1_565
Ta1 Ta2 2.793781 1_556
Ta1 Ta2 2.793781 1_655
Ir0 Ta1 2.793770 1_556
Ir0 Ta1 2.793770 1_565
Ir0 Ta1 2.793770 1_655
Ir0 Ta0 2.793773 1_666
Ir0 Ta0 2.793773 1_566
Ir0 Ta0 2.793773 1_665
Ir0 Ta0 2.793773 1_656
Ir0 Ta1 2.793785 1_555
Ir0 Ta2 3.225965 1_565
Ir0 Ta2 3.225965 1_655
Ir0 Ta2 3.225965 1_556
Ir0 Ta2 3.225978 1_566
Ir0 Ta2 3.225978 1_665
Ir0 Ta2 3.225978 1_656
