# generated using pymatgen
data_SmEu(CoO3)2
_symmetry_space_group_name_H-M   'P 1'
_cell_length_a   7.89303759
_cell_length_b   7.89303759
_cell_length_c   7.99839451
_cell_angle_alpha   90.00000000
_cell_angle_beta   90.00000000
_cell_angle_gamma   90.00000000
_symmetry_Int_Tables_number   1
_chemical_formula_structural   SmEu(CoO3)2
_chemical_formula_sum   'Sm4 Eu4 Co8 O24'
_cell_volume   498.30031708
_cell_formula_units_Z   4
loop_
 _symmetry_equiv_pos_site_id
 _symmetry_equiv_pos_as_xyz
  1  'x, y, z'
loop_
 _atom_site_type_symbol
 _atom_site_label
 _atom_site_symmetry_multiplicity
 _atom_site_fract_x
 _atom_site_fract_y
 _atom_site_fract_z
 _atom_site_occupancy
  Sm  Sm0  1  0.00000000  0.50000000  0.50000000  1
  Sm  Sm1  1  0.00000000  0.00000000  0.50000000  1
  Sm  Sm2  1  0.50000000  0.50000000  -0.00000000  1
  Sm  Sm3  1  0.50000000  0.00000000  0.50000000  1
  Eu  Eu0  1  0.00000000  0.50000000  -0.00000000  1
  Eu  Eu1  1  0.00000000  0.00000000  0.00000000  1
  Eu  Eu2  1  0.50000000  0.50000000  0.50000000  1
  Eu  Eu3  1  0.50000000  0.00000000  -0.00000000  1
  Co  Co0  1  0.24831650  0.24831650  0.75209970  1
  Co  Co1  1  0.24831650  0.24831650  0.24790030  1
  Co  Co2  1  0.24831650  0.75168350  0.75209970  1
  Co  Co3  1  0.24831650  0.75168350  0.24790030  1
  Co  Co4  1  0.75168350  0.24831650  0.75209970  1
  Co  Co5  1  0.75168350  0.24831650  0.24790030  1
  Co  Co6  1  0.75168350  0.75168350  0.75209970  1
  Co  Co7  1  0.75168350  0.75168350  0.24790030  1
  O  O0  1  0.25028726  0.25028726  -0.00000000  1
  O  O1  1  0.24697082  0.24697082  0.50000000  1
  O  O2  1  0.25028726  0.74971274  0.00000000  1
  O  O3  1  0.24697082  0.75302918  0.50000000  1
  O  O4  1  0.74971274  0.25028726  -0.00000000  1
  O  O5  1  0.75302918  0.24697082  0.50000000  1
  O  O6  1  0.74971274  0.74971274  0.00000000  1
  O  O7  1  0.75302918  0.75302918  0.50000000  1
  O  O8  1  0.50000000  0.25046071  0.75095499  1
  O  O9  1  0.50000000  0.25046071  0.24904501  1
  O  O10  1  0.50000000  0.74953929  0.75095499  1
  O  O11  1  0.50000000  0.74953929  0.24904501  1
  O  O12  1  0.00000000  0.24626040  0.74678516  1
  O  O13  1  0.00000000  0.24626040  0.25321484  1
  O  O14  1  0.00000000  0.75373960  0.74678516  1
  O  O15  1  0.00000000  0.75373960  0.25321484  1
  O  O16  1  0.24626040  0.00000000  0.74678516  1
  O  O17  1  0.24626040  0.00000000  0.25321484  1
  O  O18  1  0.25046071  0.50000000  0.75095499  1
  O  O19  1  0.25046071  0.50000000  0.24904501  1
  O  O20  1  0.75373960  0.00000000  0.74678516  1
  O  O21  1  0.75373960  0.00000000  0.25321484  1
  O  O22  1  0.74953929  0.50000000  0.75095499  1
  O  O23  1  0.74953929  0.50000000  0.24904501  1
loop_
_geom_bond_atom_site_label_1
_geom_bond_atom_site_label_2
_geom_bond_distance
_geom_bond_site_symmetry_2
Eu0 O6 2.790612 1_455
Eu0 O0 2.790612 1_555
Eu0 O4 2.790612 1_455
Eu0 O2 2.790612 1_555
Eu0 O22 2.806425 1_454
Eu0 O18 2.806425 1_554
Eu0 O19 2.806425 1_555
Eu0 O23 2.806425 1_455
Eu0 O14 2.848333 1_554
Eu0 O15 2.848333 1_555
Eu0 O12 2.848333 1_554
Eu0 O13 2.848333 1_555
Eu1 O2 2.793817 1_545
Eu1 O6 2.793817 1_445
Eu1 O0 2.793817 1_555
Eu1 O4 2.793817 1_455
Eu1 O12 2.807138 1_554
Eu1 O16 2.807138 1_554
Eu1 O14 2.807138 1_544
Eu1 O13 2.807138 1_555
Eu1 O20 2.807138 1_454
Eu1 O17 2.807138 1_555
Eu1 O15 2.807138 1_545
Eu1 O21 2.807138 1_455
Eu2 O10 2.812190 1_555
Eu2 O22 2.812190 1_555
Eu2 O19 2.812190 1_555
Eu2 O9 2.812190 1_555
Eu2 O11 2.812190 1_555
Eu2 O23 2.812190 1_555
Eu2 O8 2.812190 1_555
Eu2 O18 2.812190 1_555
Eu2 O3 2.824423 1_555
Eu2 O1 2.824423 1_555
Eu2 O5 2.824423 1_555
Eu2 O7 2.824423 1_555
Eu3 O4 2.790612 1_555
Eu3 O6 2.790612 1_545
Eu3 O0 2.790612 1_555
Eu3 O2 2.790612 1_545
Eu3 O8 2.806425 1_554
Eu3 O11 2.806425 1_545
Eu3 O10 2.806425 1_544
Eu3 O9 2.806425 1_555
Eu3 O20 2.848333 1_554
Eu3 O16 2.848333 1_554
Eu3 O21 2.848333 1_555
Eu3 O17 2.848333 1_555
Co0 O12 1.960500 1_555
Co0 O16 1.960500 1_555
Co0 O0 1.982926 1_556
Co0 O18 1.986641 1_555
Co0 O8 1.986641 1_555
Co0 O1 2.016449 1_555
Co1 O13 1.960500 1_555
Co1 O17 1.960500 1_555
Co1 O0 1.982926 1_555
Co1 O19 1.986641 1_555
Co1 O9 1.986641 1_555
Co1 O1 2.016449 1_555
Co2 O14 1.960500 1_555
Co2 O16 1.960500 1_565
Co2 O2 1.982926 1_556
Co2 O18 1.986641 1_555
Co2 O10 1.986641 1_555
Co2 O3 2.016449 1_555
Co3 O15 1.960500 1_555
Co3 O17 1.960500 1_565
Co3 O2 1.982926 1_555
Co3 O19 1.986641 1_555
Co3 O11 1.986641 1_555
Co3 O3 2.016449 1_555
Co4 O20 1.960500 1_555
Co4 O12 1.960500 1_655
Co4 O4 1.982926 1_556
Co4 O8 1.986641 1_555
Co4 O22 1.986641 1_555
Co4 O5 2.016449 1_555
Co5 O21 1.960500 1_555
Co5 O13 1.960500 1_655
Co5 O4 1.982926 1_555
Co5 O9 1.986641 1_555
Co5 O23 1.986641 1_555
Co5 O5 2.016449 1_555
Co6 O20 1.960500 1_565
Co6 O14 1.960500 1_655
Co6 O6 1.982926 1_556
Co6 O22 1.986641 1_555
Co6 O10 1.986641 1_555
Co6 O7 2.016449 1_555
Co7 O21 1.960500 1_565
Co7 O15 1.960500 1_655
Co7 O6 1.982926 1_555
Co7 O23 1.986641 1_555
Co7 O11 1.986641 1_555
Co7 O7 2.016449 1_555
O0 Sm2 2.787404 1_555
O1 Sm1 2.756797 1_555
O1 Sm3 2.790815 1_555
O1 Sm0 2.790815 1_555
O2 Sm2 2.787404 1_555
O3 Sm1 2.756797 1_565
O3 Sm0 2.790815 1_555
O3 Sm3 2.790815 1_565
O4 Sm2 2.787404 1_555
O5 Sm1 2.756797 1_655
O5 Sm3 2.790815 1_555
O5 Sm0 2.790815 1_655
O6 Sm2 2.787404 1_555
O7 Sm1 2.756797 1_665
O7 Sm0 2.790815 1_655
O7 Sm3 2.790815 1_565
O8 Sm2 2.801307 1_556
O8 Sm3 2.817289 1_555
O9 Sm2 2.801307 1_555
O9 Sm3 2.817289 1_555
O10 Sm2 2.801307 1_556
O10 Sm3 2.817289 1_565
O11 Sm2 2.801307 1_555
O11 Sm3 2.817289 1_565
O12 Sm1 2.770263 1_555
O12 Sm0 2.811998 1_555
O13 Sm1 2.770263 1_555
O13 Sm0 2.811998 1_555
O14 Sm1 2.770263 1_565
O14 Sm0 2.811998 1_555
O15 Sm1 2.770263 1_565
O15 Sm0 2.811998 1_555
O16 Sm1 2.770263 1_555
O16 Sm3 2.811998 1_555
O17 Sm1 2.770263 1_555
O17 Sm3 2.811998 1_555
O18 Sm2 2.801307 1_556
O18 Sm0 2.817289 1_555
O19 Sm2 2.801307 1_555
O19 Sm0 2.817289 1_555
O20 Sm1 2.770263 1_655
O20 Sm3 2.811998 1_555
O21 Sm1 2.770263 1_655
O21 Sm3 2.811998 1_555
O22 Sm2 2.801307 1_556
O22 Sm0 2.817289 1_655
O23 Sm2 2.801307 1_555
O23 Sm0 2.817289 1_655
