# generated using pymatgen
data_HfTaB2
_symmetry_space_group_name_H-M   'P 1'
_cell_length_a   4.80708936
_cell_length_b   4.80708936
_cell_length_c   3.15814049
_cell_angle_alpha   90.00000000
_cell_angle_beta   90.00000000
_cell_angle_gamma   138.88234314
_symmetry_Int_Tables_number   1
_chemical_formula_structural   HfTaB2
_chemical_formula_sum   'Hf1 Ta1 B2'
_cell_volume   47.99130446
_cell_formula_units_Z   1
loop_
 _symmetry_equiv_pos_site_id
 _symmetry_equiv_pos_as_xyz
  1  'x, y, z'
loop_
 _atom_site_type_symbol
 _atom_site_label
 _atom_site_symmetry_multiplicity
 _atom_site_fract_x
 _atom_site_fract_y
 _atom_site_fract_z
 _atom_site_occupancy
  Hf  Hf0  1  0.14651866  0.85348134  0.50000000  1
  Ta  Ta0  1  0.85811169  0.14188831  -0.00000000  1
  B  B0  1  0.44002663  0.55997337  0.50000000  1
  B  B1  1  0.55067902  0.44932098  0.00000000  1
loop_
_geom_bond_atom_site_label_1
_geom_bond_atom_site_label_2
_geom_bond_distance
_geom_bond_site_symmetry_2
B0 B1 1.866986 1_556
B0 B1 1.866986 1_555
B0 Ta0 2.426291 1_566
B0 Ta0 2.426291 1_565
B0 Ta0 2.426291 1_456
B0 Ta0 2.426291 1_455
B0 Hf0 2.510951 1_655
B0 Hf0 2.510951 1_545
B0 Hf0 2.642121 1_555
B1 Ta0 2.419626 1_565
B1 Ta0 2.419626 1_455
B1 Hf0 2.467278 1_655
B1 Hf0 2.467278 1_654
B1 Hf0 2.467278 1_545
B1 Hf0 2.467278 1_544
B1 Ta0 2.767470 1_555
