# generated using pymatgen
data_Dy2B6Os
_symmetry_space_group_name_H-M   'P 1'
_cell_length_a   3.65568642
_cell_length_b   9.14793537
_cell_length_c   11.51428735
_cell_angle_alpha   90.00003336
_cell_angle_beta   90.00000087
_cell_angle_gamma   90.00000257
_symmetry_Int_Tables_number   1
_chemical_formula_structural   Dy2B6Os
_chemical_formula_sum   'Dy8 B24 Os4'
_cell_volume   385.06060300
_cell_formula_units_Z   4
loop_
 _symmetry_equiv_pos_site_id
 _symmetry_equiv_pos_as_xyz
  1  'x, y, z'
loop_
 _atom_site_type_symbol
 _atom_site_label
 _atom_site_symmetry_multiplicity
 _atom_site_fract_x
 _atom_site_fract_y
 _atom_site_fract_z
 _atom_site_occupancy
  Dy  Dy0  1  0.00000009  0.32223305  0.41397284  1
  Dy  Dy1  1  0.00000004  0.67776869  0.58602796  1
  Dy  Dy2  1  0.00000005  0.82223146  0.08600779  1
  Dy  Dy3  1  -0.00000005  0.17776721  0.91399243  1
  Dy  Dy4  1  -0.00000006  0.94416318  0.37341031  1
  Dy  Dy5  1  -0.00000001  0.05583574  0.62658907  1
  Dy  Dy6  1  -0.00000010  0.44416034  0.12656788  1
  Dy  Dy7  1  -0.00000007  0.55584055  0.87343169  1
  B  B0  1  0.50000003  0.55379002  0.43279747  1
  B  B1  1  0.50000007  0.44621297  0.56720114  1
  B  B2  1  0.50000004  0.05378270  0.06718035  1
  B  B3  1  0.49999992  0.94621388  0.93281824  1
  B  B4  1  0.50000004  0.74729463  0.42003407  1
  B  B5  1  0.50000007  0.25270387  0.57996642  1
  B  B6  1  0.50000006  0.24730123  0.07995241  1
  B  B7  1  0.49999996  0.75270003  0.92004811  1
  B  B8  1  0.50000002  0.79046662  0.26703862  1
  B  B9  1  0.50000017  0.20953422  0.73295997  1
  B  B10  1  0.50000006  0.29046097  0.23293413  1
  B  B11  1  0.49999998  0.70953885  0.76706504  1
  B  B12  1  0.50000003  0.63221578  0.18581069  1
  B  B13  1  0.50000001  0.36778432  0.81419041  1
  B  B14  1  0.49999997  0.13221929  0.31416439  1
  B  B15  1  0.50000003  0.86777986  0.68583728  1
  B  B16  1  0.49999999  0.98380194  0.21310497  1
  B  B17  1  0.49999988  0.01619207  0.78689675  1
  B  B18  1  0.50000001  0.48380466  0.28687123  1
  B  B19  1  0.50000002  0.51620089  0.71313024  1
  B  B20  1  0.50000003  0.61128385  0.03089453  1
  B  B21  1  0.50000002  0.38871711  0.96910501  1
  B  B22  1  0.50000006  0.11127746  0.46910383  1
  B  B23  1  0.50000005  0.88872127  0.53089622  1
  Os  Os0  1  0.00000001  0.63736294  0.32162605  1
  Os  Os1  1  -0.00000003  0.36264389  0.67837272  1
  Os  Os2  1  -0.00000014  0.13734286  0.17833134  1
  Os  Os3  1  -0.00000028  0.86264962  0.82166640  1
loop_
_geom_bond_atom_site_label_1
_geom_bond_atom_site_label_2
_geom_bond_distance
_geom_bond_site_symmetry_2
Dy0 Os1 3.066739 1_555
Dy0 Os0 3.072636 1_555
Dy0 Os2 3.197248 1_555
Dy1 Os0 3.066756 1_555
Dy1 Os1 3.072584 1_555
Dy1 Os3 3.197174 1_555
Dy2 Os3 3.066078 1_554
Dy2 Os2 3.072384 1_565
Dy2 Os0 3.196918 1_555
Dy3 Os2 3.066057 1_556
Dy3 Os3 3.072447 1_545
Dy3 Os1 3.196972 1_555
Dy4 Os2 2.858037 1_565
Dy4 Os0 2.869227 1_555
Dy5 Os3 2.858059 1_545
Dy5 Os1 2.869296 1_555
Dy6 Os0 2.857977 1_555
Dy6 Os2 2.869332 1_555
Dy7 Os1 2.857951 1_555
Dy7 Os3 2.869261 1_555
B0 B4 1.776258 1_555
B0 B18 1.798076 1_555
B0 B1 1.833963 1_555
B0 Os0 2.358825 1_655
B0 Os0 2.358825 1_555
B0 Dy1 2.782121 1_655
B0 Dy1 2.782121 1_555
B0 Dy0 2.806252 1_555
B0 Dy0 2.806252 1_655
B1 B5 1.776300 1_555
B1 B19 1.798115 1_555
B1 Os1 2.358814 1_655
B1 Os1 2.358815 1_555
B1 Dy0 2.782110 1_555
B1 Dy0 2.782110 1_655
B1 Dy1 2.806245 1_655
B1 Dy1 2.806246 1_555
B2 B6 1.776393 1_555
B2 B3 1.833518 1_544
B2 Os2 2.358658 1_655
B2 Os2 2.358660 1_555
B2 Dy3 2.781833 1_654
B2 Dy3 2.781833 1_554
B2 Dy2 2.806215 1_545
B2 Dy2 2.806215 1_645
B3 B7 1.776348 1_555
B3 Os3 2.358676 1_655
B3 Os3 2.358677 1_555
B3 Dy2 2.781837 1_556
B3 Dy2 2.781837 1_656
B3 Dy3 2.806228 1_565
B3 Dy3 2.806228 1_665
B4 B8 1.805361 1_555
B4 Os0 2.374079 1_655
B4 Os0 2.374079 1_555
B4 Dy4 2.621563 1_655
B4 Dy4 2.621564 1_555
B4 Dy1 2.720038 1_655
B4 Dy1 2.720038 1_555
B5 B9 1.805335 1_555
B5 Os1 2.374101 1_655
B5 Os1 2.374102 1_555
B5 Dy5 2.621558 1_655
B5 Dy5 2.621559 1_555
B5 Dy0 2.720042 1_555
B5 Dy0 2.720042 1_655
B6 Os2 2.374022 1_655
B6 Os2 2.374023 1_555
B6 Dy6 2.621484 1_655
B6 Dy6 2.621485 1_555
B6 Dy3 2.719780 1_654
B6 Dy3 2.719780 1_554
B7 Os3 2.374003 1_655
B7 Os3 2.374005 1_555
B7 Dy7 2.621489 1_655
B7 Dy7 2.621489 1_555
B7 Dy2 2.719772 1_556
B7 Dy2 2.719772 1_656
B8 Os0 2.386986 1_555
B8 Os0 2.386986 1_655
B8 Dy4 2.611127 1_655
B8 Dy4 2.611127 1_555
B8 Dy2 2.787534 1_555
B8 Dy2 2.787534 1_655
B9 Os1 2.387017 1_655
B9 Os1 2.387018 1_555
B9 Dy5 2.611132 1_655
B9 Dy5 2.611132 1_555
B9 Dy3 2.787549 1_655
B9 Dy3 2.787550 1_555
B10 B14 1.723457 1_555
B10 B6 1.805181 1_555
B10 B18 1.874562 1_555
B10 Os2 2.387109 1_655
B10 Os2 2.387110 1_555
B10 Dy6 2.611112 1_655
B10 Dy6 2.611112 1_555
B10 Dy0 2.787608 1_555
B10 Dy0 2.787608 1_655
B11 B15 1.723437 1_555
B11 B7 1.805199 1_555
B11 B19 1.874504 1_555
B11 Os3 2.387065 1_655
B11 Os3 2.387066 1_555
B11 Dy7 2.611109 1_655
B11 Dy7 2.611109 1_555
B11 Dy1 2.787592 1_555
B11 Dy1 2.787592 1_655
B12 B8 1.723512 1_555
B12 B18 1.788096 1_555
B12 B20 1.793997 1_555
B12 Os0 2.405982 1_655
B12 Os0 2.405983 1_555
B12 Dy6 2.601119 1_655
B12 Dy6 2.601119 1_555
B12 Dy2 2.771840 1_555
B12 Dy2 2.771840 1_655
B13 B9 1.723522 1_555
B13 B19 1.788131 1_555
B13 B21 1.793980 1_555
B13 Os1 2.405999 1_655
B13 Os1 2.405999 1_555
B13 Dy7 2.601119 1_655
B13 Dy7 2.601119 1_555
B13 Dy3 2.771844 1_655
B13 Dy3 2.771844 1_555
B14 B16 1.788130 1_545
B14 B22 1.794274 1_555
B14 Os2 2.406110 1_655
B14 Os2 2.406111 1_555
B14 Dy4 2.601133 1_645
B14 Dy4 2.601133 1_545
B14 Dy0 2.771854 1_555
B14 Dy0 2.771855 1_655
B15 B17 1.788095 1_565
B15 B23 1.794292 1_555
B15 Os3 2.406082 1_655
B15 Os3 2.406083 1_555
B15 Dy5 2.601138 1_665
B15 Dy5 2.601139 1_565
B15 Dy1 2.771844 1_555
B15 Dy1 2.771844 1_655
B16 B2 1.798044 1_565
B16 B8 1.874477 1_555
B16 Os2 2.339696 1_665
B16 Os2 2.339697 1_565
B16 Dy4 2.622877 1_655
B16 Dy4 2.622877 1_555
B16 Dy2 2.768977 1_555
B16 Dy2 2.768978 1_655
B17 B3 1.798002 1_545
B17 B9 1.874548 1_555
B17 Os3 2.339696 1_645
B17 Os3 2.339697 1_545
B17 Dy5 2.622902 1_555
B17 Dy5 2.622902 1_655
B17 Dy3 2.768991 1_555
B17 Dy3 2.768991 1_655
B18 Os0 2.339754 1_655
B18 Os0 2.339754 1_555
B18 Dy6 2.622867 1_655
B18 Dy6 2.622868 1_555
B18 Dy0 2.769011 1_555
B18 Dy0 2.769011 1_655
B19 Os1 2.339752 1_655
B19 Os1 2.339753 1_555
B19 Dy7 2.622846 1_655
B19 Dy7 2.622847 1_555
B19 Dy1 2.768996 1_555
B19 Dy1 2.768997 1_655
B20 B7 1.817295 1_554
B20 B21 2.156752 1_554
B20 Dy7 2.624020 1_654
B20 Dy7 2.624021 1_554
B20 Dy6 2.625242 1_655
B20 Dy6 2.625242 1_555
B20 Dy2 2.732689 1_655
B20 Dy2 2.732689 1_555
B21 B6 1.817301 1_556
B21 Dy6 2.624020 1_656
B21 Dy6 2.624021 1_556
B21 Dy7 2.625241 1_655
B21 Dy7 2.625242 1_555
B21 Dy3 2.732702 1_655
B21 Dy3 2.732702 1_555
B22 B5 1.817491 1_555
B22 B23 2.156673 1_545
B22 Dy5 2.624196 1_655
B22 Dy5 2.624197 1_555
B22 Dy4 2.625289 1_645
B22 Dy4 2.625290 1_545
B22 Dy0 2.732789 1_555
B22 Dy0 2.732789 1_655
B23 B4 1.817489 1_555
B23 Dy4 2.624202 1_655
B23 Dy4 2.624202 1_555
B23 Dy5 2.625287 1_665
B23 Dy5 2.625287 1_565
B23 Dy1 2.732771 1_555
B23 Dy1 2.732771 1_655
