# generated using pymatgen
data_BaNaSr3(SbO4)3
_symmetry_space_group_name_H-M   'P 1'
_cell_length_a   8.28602548
_cell_length_b   8.28602548
_cell_length_c   8.23034000
_cell_angle_alpha   90.00000000
_cell_angle_beta   90.00000000
_cell_angle_gamma   90.82759809
_symmetry_Int_Tables_number   1
_chemical_formula_structural   BaNaSr3(SbO4)3
_chemical_formula_sum   'Ba2 Na2 Sr6 Sb6 O24'
_cell_volume   565.02153189
_cell_formula_units_Z   2
loop_
 _symmetry_equiv_pos_site_id
 _symmetry_equiv_pos_as_xyz
  1  'x, y, z'
loop_
 _atom_site_type_symbol
 _atom_site_label
 _atom_site_symmetry_multiplicity
 _atom_site_fract_x
 _atom_site_fract_y
 _atom_site_fract_z
 _atom_site_occupancy
  Ba  Ba0  1  0.50216600  0.49783400  0.25000000  1
  Ba  Ba1  1  0.49783400  0.50216600  0.75000000  1
  Na  Na0  1  0.74961100  0.74961100  0.00000000  1
  Na  Na1  1  0.25038900  0.25038900  0.50000000  1
  Sr  Sr0  1  0.99381300  0.00618700  0.75000000  1
  Sr  Sr1  1  0.00618700  0.99381300  0.25000000  1
  Sr  Sr2  1  0.49835700  0.99597000  0.25525500  1
  Sr  Sr3  1  0.99597000  0.49835700  0.74474500  1
  Sr  Sr4  1  0.50164300  0.00403000  0.75525500  1
  Sr  Sr5  1  0.00403000  0.50164300  0.24474500  1
  Sb  Sb0  1  0.75334600  0.24608900  0.00030200  1
  Sb  Sb1  1  0.24608900  0.75334600  0.99969800  1
  Sb  Sb2  1  0.75391100  0.24665400  0.49969800  1
  Sb  Sb3  1  0.24665400  0.75391100  0.50030200  1
  Sb  Sb4  1  0.24747500  0.24747500  0.00000000  1
  Sb  Sb5  1  0.75252500  0.75252500  0.50000000  1
  O  O0  1  0.78736300  0.21263700  0.25000000  1
  O  O1  1  0.21263700  0.78736300  0.75000000  1
  O  O2  1  0.72365600  0.27634400  0.75000000  1
  O  O3  1  0.27634400  0.72365600  0.25000000  1
  O  O4  1  0.76235000  0.47555300  0.02755300  1
  O  O5  1  0.47555300  0.76235000  0.97244700  1
  O  O6  1  0.98257200  0.25216000  0.53290300  1
  O  O7  1  0.25216000  0.98257200  0.46709700  1
  O  O8  1  0.74784000  0.01742800  0.96709700  1
  O  O9  1  0.01742800  0.74784000  0.03290300  1
  O  O10  1  0.52444700  0.23765000  0.47244700  1
  O  O11  1  0.23765000  0.52444700  0.52755300  1
  O  O12  1  0.72120400  0.78399500  0.27190700  1
  O  O13  1  0.78399500  0.72120400  0.72809300  1
  O  O14  1  0.27879600  0.21600500  0.77190700  1
  O  O15  1  0.21600500  0.27879600  0.22809300  1
  O  O16  1  0.75640600  0.49906900  0.46788300  1
  O  O17  1  0.49906900  0.75640600  0.53211700  1
  O  O18  1  0.00079500  0.24414000  0.95849900  1
  O  O19  1  0.24414000  0.00079500  0.04150100  1
  O  O20  1  0.75586000  0.99920500  0.54150100  1
  O  O21  1  0.99920500  0.75586000  0.45849900  1
  O  O22  1  0.50093100  0.24359400  0.03211700  1
  O  O23  1  0.24359400  0.50093100  0.96788300  1
loop_
_geom_bond_atom_site_label_1
_geom_bond_atom_site_label_2
_geom_bond_distance
_geom_bond_site_symmetry_2
Ba0 O3 2.665272 1_555
Ba0 O16 2.766435 1_555
Ba0 O22 2.766435 1_555
Ba0 O10 2.836429 1_555
Ba0 O4 2.836429 1_555
Ba0 O12 2.970613 1_555
Ba0 O15 2.970613 1_555
Ba0 O17 3.159748 1_555
Ba0 O23 3.159748 1_554
Ba0 O11 3.175657 1_555
Ba0 O5 3.175657 1_554
Ba0 O0 3.366047 1_555
Ba1 O2 2.665272 1_555
Ba1 O17 2.766435 1_555
Ba1 O23 2.766435 1_555
Ba1 O5 2.836429 1_555
Ba1 O11 2.836429 1_555
Ba1 O13 2.970613 1_555
Ba1 O14 2.970613 1_555
Ba1 O16 3.159748 1_555
Ba1 O22 3.159748 1_556
Ba1 O4 3.175657 1_556
Ba1 O10 3.175657 1_555
Ba1 O1 3.366047 1_555
Na0 O8 2.235859 1_564
Na0 O9 2.235859 1_655
Na0 O13 2.268623 1_554
Na0 O12 2.268623 1_555
Na0 O4 2.286101 1_555
Na0 O5 2.286101 1_554
Na1 O6 2.235859 1_455
Na1 O7 2.235859 1_545
Na1 O15 2.268623 1_555
Na1 O14 2.268623 1_555
Na1 O11 2.286101 1_555
Na1 O10 2.286101 1_555
O0 Sb2 2.093316 1_555
O0 Sb0 2.093316 1_555
O0 Sr1 2.582678 1_645
O0 Sr2 2.972448 1_545
O0 Sr5 2.972448 1_655
O1 Sb3 2.093316 1_555
O1 Sb1 2.093316 1_555
O1 Sr0 2.582678 1_465
O1 Sr3 2.972448 1_455
O1 Sr4 2.972448 1_565
O2 Sb0 2.090225 1_556
O2 Sb2 2.090225 1_555
O2 Sr4 2.890926 1_555
O2 Sr3 2.890926 1_555
O2 Sr0 3.188537 1_555
O3 Sb1 2.090225 1_554
O3 Sb3 2.090225 1_555
O3 Sr5 2.890926 1_555
O3 Sr2 2.890926 1_555
O3 Sr1 3.188537 1_555
O4 Sb0 1.914911 1_555
O4 Sr5 2.690704 1_655
O4 Sr3 3.031524 1_554
O5 Sb1 1.914911 1_555
O5 Sr4 2.690704 1_565
O5 Sr2 3.031524 1_556
O6 Sb2 1.914190 1_555
O6 Sr3 2.684635 1_555
O6 Sr0 2.713072 1_555
O6 Sr5 3.149456 1_655
O6 Sr1 3.170843 1_645
O7 Sb3 1.914190 1_555
O7 Sr2 2.684635 1_555
O7 Sr1 2.713072 1_555
O7 Sr4 3.149456 1_565
O7 Sr0 3.170843 1_465
O8 Sb0 1.914190 1_556
O8 Sr4 2.684635 1_555
O8 Sr0 2.713072 1_555
O8 Sr2 3.149456 1_546
O8 Sr1 3.170843 1_646
O9 Sb1 1.914190 1_554
O9 Sr5 2.684635 1_555
O9 Sr1 2.713072 1_555
O9 Sr3 3.149456 1_454
O9 Sr0 3.170843 1_464
O10 Sb2 1.914911 1_555
O10 Sr2 2.690704 1_545
O10 Sr4 3.031524 1_555
O11 Sb3 1.914911 1_555
O11 Sr3 2.690704 1_455
O11 Sr5 3.031524 1_555
O12 Sb5 1.913504 1_555
O12 Sr2 2.570436 1_555
O12 Sr1 2.917635 1_655
O13 Sb5 1.913504 1_555
O13 Sr3 2.570436 1_555
O13 Sr0 2.917635 1_565
O14 Sb4 1.913504 1_556
O14 Sr4 2.570436 1_555
O14 Sr0 2.917635 1_455
O15 Sb4 1.913504 1_555
O15 Sr5 2.570436 1_555
O15 Sr1 2.917635 1_545
O16 Sb2 2.107650 1_555
O16 Sb5 2.117418 1_555
O16 Sr5 2.753523 1_655
O16 Sr3 3.022095 1_555
O17 Sb3 2.107650 1_555
O17 Sb5 2.117418 1_555
O17 Sr4 2.753523 1_565
O17 Sr2 3.022095 1_555
O18 Sb4 2.072130 1_556
O18 Sb0 2.079327 1_456
O18 Sr0 2.613869 1_455
O18 Sr3 2.745211 1_455
O18 Sr1 3.172220 1_546
O18 Sr5 3.178351 1_556
O19 Sb4 2.072130 1_555
O19 Sb1 2.079327 1_544
O19 Sr1 2.613869 1_545
O19 Sr2 2.745211 1_545
O19 Sr0 3.172220 1_454
O19 Sr4 3.178351 1_554
O20 Sb5 2.072130 1_555
O20 Sb2 2.079327 1_565
O20 Sr0 2.613869 1_565
O20 Sr4 2.745211 1_565
O20 Sr1 3.172220 1_655
O20 Sr2 3.178351 1_555
O21 Sb5 2.072130 1_555
O21 Sb3 2.079327 1_655
O21 Sr1 2.613869 1_655
O21 Sr5 2.745211 1_655
O21 Sr0 3.172220 1_565
O21 Sr3 3.178351 1_555
O22 Sb0 2.107650 1_555
O22 Sb4 2.117418 1_555
O22 Sr2 2.753523 1_545
O22 Sr4 3.022095 1_554
O23 Sb1 2.107650 1_555
O23 Sb4 2.117418 1_556
O23 Sr3 2.753523 1_455
O23 Sr5 3.022095 1_556
