# generated using pymatgen
data_Pu(BRu)4
_symmetry_space_group_name_H-M   'P 1'
_cell_length_a   9.18547743
_cell_length_b   9.18547743
_cell_length_c   9.18547743
_cell_angle_alpha   132.12725883
_cell_angle_beta   132.12725883
_cell_angle_gamma   70.02810952
_symmetry_Int_Tables_number   1
_chemical_formula_structural   Pu(BRu)4
_chemical_formula_sum   'Pu4 B16 Ru16'
_cell_volume   417.93805536
_cell_formula_units_Z   4
loop_
 _symmetry_equiv_pos_site_id
 _symmetry_equiv_pos_as_xyz
  1  'x, y, z'
loop_
 _atom_site_type_symbol
 _atom_site_label
 _atom_site_symmetry_multiplicity
 _atom_site_fract_x
 _atom_site_fract_y
 _atom_site_fract_z
 _atom_site_occupancy
  Pu  Pu0  1  0.25000000  0.25000000  0.00000000  1
  Pu  Pu1  1  0.75000000  0.75000000  0.00000000  1
  Pu  Pu2  1  0.50000000  0.00000000  0.50000000  1
  Pu  Pu3  1  0.00000000  0.50000000  0.50000000  1
  B  B0  1  0.22408100  0.91468300  0.97320800  1
  B  B1  1  0.72408100  0.75087400  0.30939900  1
  B  B2  1  0.16468300  0.97408100  0.47320800  1
  B  B3  1  0.66468300  0.19147500  0.19060100  1
  B  B4  1  0.52591900  0.33531700  0.52679200  1
  B  B5  1  0.02591900  0.49912600  0.19060100  1
  B  B6  1  0.58531700  0.27591900  0.02679200  1
  B  B7  1  0.08531700  0.05852500  0.30939900  1
  B  B8  1  0.44147500  0.41468300  0.69060100  1
  B  B9  1  0.94147500  0.25087400  0.02679200  1
  B  B10  1  0.00087400  0.47408100  0.80939900  1
  B  B11  1  0.50087400  0.69147500  0.52679200  1
  B  B12  1  0.30852500  0.83531700  0.80939900  1
  B  B13  1  0.80852500  0.99912600  0.47320800  1
  B  B14  1  0.74912600  0.77591900  0.69060100  1
  B  B15  1  0.24912600  0.55852500  0.97320800  1
  Ru  Ru0  1  0.53727400  0.07321900  0.23480700  1
  Ru  Ru1  1  0.03727400  0.80246800  0.46405500  1
  Ru  Ru2  1  0.32321900  0.28727400  0.73480700  1
  Ru  Ru3  1  0.82321900  0.08841300  0.03594500  1
  Ru  Ru4  1  0.21272600  0.17678100  0.26519300  1
  Ru  Ru5  1  0.71272600  0.44753200  0.03594500  1
  Ru  Ru6  1  0.42678100  0.96272600  0.76519300  1
  Ru  Ru7  1  0.92678100  0.16158700  0.46405500  1
  Ru  Ru8  1  0.33841300  0.57321900  0.53594500  1
  Ru  Ru9  1  0.83841300  0.30246800  0.76519300  1
  Ru  Ru10  1  0.05246800  0.78727400  0.96405500  1
  Ru  Ru11  1  0.55246800  0.58841300  0.26519300  1
  Ru  Ru12  1  0.41158700  0.67678100  0.96405500  1
  Ru  Ru13  1  0.91158700  0.94753200  0.73480700  1
  Ru  Ru14  1  0.69753200  0.46272600  0.53594500  1
  Ru  Ru15  1  0.19753200  0.66158700  0.23480700  1
loop_
_geom_bond_atom_site_label_1
_geom_bond_atom_site_label_2
_geom_bond_distance
_geom_bond_site_symmetry_2
Pu0 Ru9 2.896178 1_454
Pu0 Ru15 2.896178 1_555
Pu0 Ru0 2.896183 1_555
Pu0 Ru6 2.896183 1_544
Pu0 Ru4 3.158687 1_555
Pu0 Ru2 3.158687 1_554
Pu0 Ru11 3.158701 1_555
Pu0 Ru13 3.158701 1_444
Pu0 Ru14 3.222539 1_555
Pu0 Ru8 3.222539 1_555
Pu0 Ru7 3.222539 1_454
Pu0 Ru1 3.222539 1_544
Pu1 Ru7 2.896178 1_565
Pu1 Ru8 2.896178 1_554
Pu1 Ru1 2.896178 1_655
Pu1 Ru14 2.896178 1_554
Pu1 Ru10 3.158697 1_654
Pu1 Ru12 3.158697 1_554
Pu1 Ru3 3.158697 1_565
Pu1 Ru5 3.158697 1_555
Pu1 Ru15 3.222539 1_655
Pu1 Ru9 3.222539 1_554
Pu1 Ru0 3.222543 1_565
Pu1 Ru6 3.222543 1_554
Pu2 Ru11 2.896178 1_545
Pu2 Ru13 2.896178 1_545
Pu2 Ru2 2.896183 1_555
Pu2 Ru4 2.896183 1_555
Pu2 Ru6 3.158687 1_545
Pu2 Ru0 3.158687 1_555
Pu2 Ru15 3.158701 1_545
Pu2 Ru9 3.158701 1_555
Pu2 Ru3 3.222539 1_556
Pu2 Ru5 3.222539 1_556
Pu2 Ru10 3.222539 1_544
Pu2 Ru12 3.222539 1_544
Pu3 Ru10 2.896178 1_555
Pu3 Ru12 2.896178 1_555
Pu3 Ru3 2.896178 1_455
Pu3 Ru5 2.896178 1_455
Pu3 Ru1 3.158697 1_555
Pu3 Ru7 3.158697 1_455
Pu3 Ru14 3.158697 1_455
Pu3 Ru8 3.158697 1_555
Pu3 Ru11 3.222539 1_455
Pu3 Ru13 3.222539 1_455
Pu3 Ru2 3.222543 1_555
Pu3 Ru4 3.222543 1_555
B0 B12 1.762100 1_555
B0 Ru4 2.131084 1_566
B0 Ru10 2.193627 1_555
B0 Ru13 2.233332 1_455
B0 Ru0 2.250394 1_566
B0 Ru12 2.263959 1_555
B0 Pu3 2.963174 1_555
B0 Pu0 3.001561 1_566
B0 Pu2 3.204500 1_566
B1 B13 1.762095 1_555
B1 Ru5 2.131096 1_555
B1 Ru11 2.193621 1_555
B1 Ru12 2.233335 1_554
B1 Ru1 2.250398 1_655
B1 Ru13 2.263960 1_555
B1 Pu2 2.963168 1_565
B1 Pu1 3.001564 1_555
B1 Pu3 3.204503 1_655
B2 B7 1.762100 1_565
B2 Ru6 2.131084 1_555
B2 Ru1 2.193627 1_555
B2 Ru15 2.233332 1_555
B2 Ru2 2.250394 1_565
B2 Ru7 2.263959 1_465
B2 Pu1 2.963174 1_455
B2 Pu2 3.001561 1_565
B2 Pu0 3.204500 1_566
B3 B6 1.762100 1_555
B3 Ru7 2.131093 1_555
B3 Ru0 2.193644 1_555
B3 Ru14 2.233339 1_555
B3 Ru3 2.250389 1_555
B3 Ru6 2.263959 1_544
B3 Pu0 2.963176 1_555
B3 Pu3 3.001557 1_655
B3 Pu1 3.204502 1_545
B4 B8 1.762100 1_555
B4 Ru0 2.131084 1_555
B4 Ru14 2.193627 1_555
B4 Ru9 2.233332 1_555
B4 Ru4 2.250394 1_555
B4 Ru8 2.263959 1_555
B4 Pu1 2.963174 1_556
B4 Pu2 3.001561 1_555
B4 Pu0 3.204500 1_555
B5 B9 1.762095 1_455
B5 Ru1 2.131096 1_555
B5 Ru15 2.193621 1_555
B5 Ru8 2.233335 1_555
B5 Ru5 2.250398 1_455
B5 Ru9 2.263960 1_454
B5 Pu0 2.963168 1_555
B5 Pu3 3.001564 1_555
B5 Pu1 3.204503 1_455
B6 Ru2 2.131084 1_554
B6 Ru5 2.193627 1_555
B6 Ru11 2.233332 1_555
B6 Ru6 2.250394 1_544
B6 Ru3 2.263959 1_555
B6 Pu3 2.963174 1_655
B6 Pu0 3.001561 1_555
B6 Pu2 3.204500 1_554
B7 Ru3 2.131093 1_455
B7 Ru4 2.193644 1_555
B7 Ru10 2.233339 1_544
B7 Ru7 2.250389 1_455
B7 Ru2 2.263959 1_555
B7 Pu2 2.963176 1_555
B7 Pu1 3.001557 1_445
B7 Pu3 3.204502 1_555
B8 Ru12 2.131093 1_555
B8 Ru2 2.193644 1_555
B8 Ru5 2.233339 1_556
B8 Ru8 2.250389 1_555
B8 Ru4 2.263959 1_555
B8 Pu2 2.963176 1_555
B8 Pu1 3.001557 1_556
B8 Pu3 3.204502 1_555
B9 Ru13 2.131090 1_544
B9 Ru3 2.193635 1_555
B9 Ru4 2.233335 1_655
B9 Ru9 2.250398 1_554
B9 Ru5 2.263955 1_555
B9 Pu3 2.963176 1_655
B9 Pu0 3.001557 1_655
B9 Pu2 3.204502 1_554
B10 B15 1.762095 1_555
B10 Ru14 2.131096 1_455
B10 Ru9 2.193621 1_455
B10 Ru7 2.233335 1_455
B10 Ru10 2.250398 1_555
B10 Ru15 2.263960 1_556
B10 Pu0 2.963168 1_556
B10 Pu3 3.001564 1_555
B10 Pu1 3.204503 1_456
B11 B14 1.762095 1_555
B11 Ru15 2.131090 1_555
B11 Ru8 2.193635 1_555
B11 Ru6 2.233335 1_555
B11 Ru11 2.250398 1_555
B11 Ru14 2.263955 1_555
B11 Pu1 2.963176 1_556
B11 Pu2 3.001557 1_565
B11 Pu0 3.204502 1_555
B12 Ru8 2.131093 1_555
B12 Ru6 2.193644 1_555
B12 Ru1 2.233339 1_555
B12 Ru12 2.250389 1_555
B12 Ru0 2.263959 1_566
B12 Pu0 2.963176 1_566
B12 Pu3 3.001557 1_555
B12 Pu1 3.204502 1_556
B13 Ru9 2.131090 1_565
B13 Ru7 2.193635 1_565
B13 Ru0 2.233335 1_565
B13 Ru13 2.250398 1_555
B13 Ru1 2.263955 1_655
B13 Pu1 2.963176 1_555
B13 Pu2 3.001557 1_565
B13 Pu0 3.204502 1_666
B14 Ru10 2.131096 1_655
B14 Ru13 2.193621 1_555
B14 Ru3 2.233335 1_566
B14 Ru14 2.250398 1_555
B14 Ru11 2.263960 1_555
B14 Pu2 2.963168 1_565
B14 Pu1 3.001564 1_556
B14 Pu3 3.204503 1_655
B15 Ru11 2.131090 1_556
B15 Ru12 2.193635 1_555
B15 Ru2 2.233335 1_555
B15 Ru15 2.250398 1_556
B15 Ru10 2.263955 1_555
B15 Pu3 2.963176 1_555
B15 Pu0 3.001557 1_556
B15 Pu2 3.204502 1_566
