# generated using pymatgen
data_Nb3SnGeMo3
_symmetry_space_group_name_H-M   'P 1'
_cell_length_a   5.14972238
_cell_length_b   5.14972238
_cell_length_c   5.14972225
_cell_angle_alpha   89.89203027
_cell_angle_beta   89.89203027
_cell_angle_gamma   89.89202963
_symmetry_Int_Tables_number   1
_chemical_formula_structural   Nb3SnGeMo3
_chemical_formula_sum   'Nb3 Sn1 Ge1 Mo3'
_cell_volume   136.56805676
_cell_formula_units_Z   1
loop_
 _symmetry_equiv_pos_site_id
 _symmetry_equiv_pos_as_xyz
  1  'x, y, z'
loop_
 _atom_site_type_symbol
 _atom_site_label
 _atom_site_symmetry_multiplicity
 _atom_site_fract_x
 _atom_site_fract_y
 _atom_site_fract_z
 _atom_site_occupancy
  Nb  Nb0  1  0.25549100  0.99862600  0.50101600  1
  Nb  Nb1  1  0.99862600  0.50101600  0.25549100  1
  Nb  Nb2  1  0.50101600  0.25549100  0.99862600  1
  Sn  Sn0  1  0.99896600  0.99896600  0.99896600  1
  Ge  Ge0  1  0.50004200  0.50004200  0.50004200  1
  Mo  Mo0  1  0.74609200  0.99923300  0.50053500  1
  Mo  Mo1  1  0.99923300  0.50053500  0.74609200  1
  Mo  Mo2  1  0.50053500  0.74609200  0.99923300  1
loop_
_geom_bond_atom_site_label_1
_geom_bond_atom_site_label_2
_geom_bond_distance
_geom_bond_site_symmetry_2
Nb0 Sn0 2.882365 1_455
Nb0 Sn0 2.905574 1_454
Nb1 Sn0 2.882365 1_554
Nb1 Sn0 2.905575 1_544
Nb2 Sn0 2.882365 1_545
Nb2 Sn0 2.905575 1_445
Ge0 Nb2 2.857672 1_555
Ge0 Nb1 2.857672 1_555
Ge0 Nb0 2.857672 1_555
Ge0 Mo2 2.868154 1_555
Ge0 Mo1 2.868154 1_555
Ge0 Mo0 2.868154 1_555
Ge0 Mo2 2.871337 1_554
Ge0 Mo1 2.871337 1_455
Ge0 Mo0 2.871337 1_545
Ge0 Nb2 2.875019 1_554
Ge0 Nb1 2.875019 1_455
Ge0 Nb0 2.875019 1_545
Mo0 Nb0 2.526463 1_555
Mo0 Nb0 2.623265 1_655
Mo0 Sn0 2.880408 1_555
Mo0 Sn0 2.890453 1_554
Mo1 Nb1 2.526463 1_555
Mo1 Nb1 2.623265 1_556
Mo1 Sn0 2.880408 1_555
Mo1 Sn0 2.890454 1_545
Mo2 Nb2 2.526463 1_555
Mo2 Nb2 2.623265 1_565
Mo2 Sn0 2.880408 1_555
Mo2 Sn0 2.890454 1_455
