# generated using pymatgen
data_CeCuSi
_symmetry_space_group_name_H-M   'P 1'
_cell_length_a   4.10358149
_cell_length_b   4.10358149
_cell_length_c   4.12137696
_cell_angle_alpha   90.00000000
_cell_angle_beta   90.00000000
_cell_angle_gamma   119.99999054
_symmetry_Int_Tables_number   1
_chemical_formula_structural   CeCuSi
_chemical_formula_sum   'Ce1 Cu1 Si1'
_cell_volume   60.10341337
_cell_formula_units_Z   1
loop_
 _symmetry_equiv_pos_site_id
 _symmetry_equiv_pos_as_xyz
  1  'x, y, z'
loop_
 _atom_site_type_symbol
 _atom_site_label
 _atom_site_symmetry_multiplicity
 _atom_site_fract_x
 _atom_site_fract_y
 _atom_site_fract_z
 _atom_site_occupancy
  Ce  Ce0  1  0.33333300  0.66666700  0.00000000  1
  Cu  Cu0  1  0.66666700  0.33333300  0.50000000  1
  Si  Si0  1  0.00000000  -0.00000000  0.50000000  1
loop_
_geom_bond_atom_site_label_1
_geom_bond_atom_site_label_2
_geom_bond_distance
_geom_bond_site_symmetry_2
Ce0 Si0 3.139992 1_564
Ce0 Si0 3.139992 1_565
Ce0 Cu0 3.139993 1_454
Ce0 Cu0 3.139993 1_455
Ce0 Cu0 3.139993 1_565
Ce0 Cu0 3.139993 1_564
Ce0 Si0 3.139995 1_664
Ce0 Si0 3.139995 1_665
Ce0 Si0 3.139995 1_555
Ce0 Si0 3.139995 1_554
Ce0 Cu0 3.139998 1_554
Ce0 Cu0 3.139998 1_555
Cu0 Si0 2.369201 1_655
Cu0 Si0 2.369205 1_665
Cu0 Si0 2.369205 1_555
