# generated using pymatgen
data_Hg3N4(Cl5O)2
_symmetry_space_group_name_H-M   'P 1'
_cell_length_a   3.44826400
_cell_length_b   16.58740800
_cell_length_c   22.20053400
_cell_angle_alpha   90.00000000
_cell_angle_beta   90.00000000
_cell_angle_gamma   90.00000000
_symmetry_Int_Tables_number   1
_chemical_formula_structural   Hg3N4(Cl5O)2
_chemical_formula_sum   'Hg6 N8 Cl20 O4'
_cell_volume   1269.82085689
_cell_formula_units_Z   2
loop_
 _symmetry_equiv_pos_site_id
 _symmetry_equiv_pos_as_xyz
  1  'x, y, z'
loop_
 _atom_site_type_symbol
 _atom_site_label
 _atom_site_symmetry_multiplicity
 _atom_site_fract_x
 _atom_site_fract_y
 _atom_site_fract_z
 _atom_site_occupancy
  Hg  Hg0  1  0.50000000  0.98956700  0.60321700  1
  Hg  Hg1  1  0.50000000  0.01043300  0.39678300  1
  Hg  Hg2  1  0.50000000  0.98956700  0.89678300  1
  Hg  Hg3  1  0.50000000  0.01043300  0.10321700  1
  Hg  Hg4  1  0.50000000  0.50000000  0.50000000  1
  Hg  Hg5  1  0.50000000  0.50000000  0.00000000  1
  N  N0  1  0.00000000  0.28272200  0.47888200  1
  N  N1  1  0.00000000  0.71727800  0.52111800  1
  N  N2  1  0.00000000  0.28272200  0.02111800  1
  N  N3  1  0.00000000  0.71727800  0.97888200  1
  N  N4  1  0.00000000  0.52102900  0.75000000  1
  N  N5  1  0.00000000  0.47897100  0.25000000  1
  N  N6  1  0.00000000  0.23062500  0.75000000  1
  N  N7  1  0.00000000  0.76937500  0.25000000  1
  Cl  Cl0  1  0.50000000  0.12256000  0.63877700  1
  Cl  Cl1  1  0.50000000  0.87744000  0.36122300  1
  Cl  Cl2  1  0.50000000  0.12256000  0.86122300  1
  Cl  Cl3  1  0.50000000  0.87744000  0.13877700  1
  Cl  Cl4  1  0.50000000  0.84807400  0.61115300  1
  Cl  Cl5  1  0.50000000  0.15192600  0.38884700  1
  Cl  Cl6  1  0.50000000  0.84807400  0.88884700  1
  Cl  Cl7  1  0.50000000  0.15192600  0.11115300  1
  Cl  Cl8  1  0.00000000  0.00000000  0.50000000  1
  Cl  Cl9  1  0.00000000  0.00000000  0.00000000  1
  Cl  Cl10  1  0.00000000  0.92178100  0.75000000  1
  Cl  Cl11  1  0.00000000  0.07821900  0.25000000  1
  Cl  Cl12  1  0.50000000  0.43414600  0.59050900  1
  Cl  Cl13  1  0.50000000  0.56585400  0.40949100  1
  Cl  Cl14  1  0.50000000  0.43414600  0.90949100  1
  Cl  Cl15  1  0.50000000  0.56585400  0.09050900  1
  Cl  Cl16  1  0.00000000  0.65985900  0.57950500  1
  Cl  Cl17  1  0.00000000  0.34014100  0.42049500  1
  Cl  Cl18  1  0.00000000  0.65985900  0.92049500  1
  Cl  Cl19  1  0.00000000  0.34014100  0.07950500  1
  O  O0  1  0.50000000  0.52127000  0.75000000  1
  O  O1  1  0.50000000  0.47873000  0.25000000  1
  O  O2  1  0.00000000  0.82817200  0.75000000  1
  O  O3  1  0.00000000  0.17182800  0.25000000  1
loop_
_geom_bond_atom_site_label_1
_geom_bond_atom_site_label_2
_geom_bond_distance
_geom_bond_site_symmetry_2
N4 O0 1.724137 1_555
N4 O0 1.724137 1_455
N5 O1 1.724137 1_455
N5 O1 1.724137 1_555
Cl0 Hg0 2.343013 1_545
Cl1 Hg1 2.343013 1_565
Cl2 Hg2 2.343013 1_545
Cl3 Hg3 2.343013 1_565
Cl4 Hg0 2.353606 1_555
Cl5 Hg1 2.353606 1_555
Cl6 Hg2 2.353606 1_555
Cl7 Hg3 2.353606 1_555
Cl8 Hg1 2.872878 1_455
Cl8 Hg0 2.872878 1_545
Cl8 Hg0 2.872878 1_445
Cl8 Hg1 2.872878 1_555
Cl9 Hg3 2.872878 1_455
Cl9 Hg3 2.872878 1_555
Cl9 Hg2 2.872878 1_544
Cl9 Hg2 2.872878 1_444
Cl10 O2 1.552731 1_555
Cl11 O3 1.552731 1_555
Cl12 Hg4 2.287073 1_555
Cl13 Hg4 2.287073 1_555
Cl14 Hg5 2.287073 1_556
Cl15 Hg5 2.287073 1_555
Cl16 N1 1.608515 1_555
Cl17 N0 1.608515 1_555
Cl18 N3 1.608515 1_555
Cl19 N2 1.608515 1_555
