# generated using pymatgen
data_Mn2Fe5Si8(HO12)2
_symmetry_space_group_name_H-M   'P 1'
_cell_length_a   5.39710100
_cell_length_b   9.84178400
_cell_length_c   18.54128000
_cell_angle_alpha   90.00000000
_cell_angle_beta   90.00000000
_cell_angle_gamma   90.00000000
_symmetry_Int_Tables_number   1
_chemical_formula_structural   Mn2Fe5Si8(HO12)2
_chemical_formula_sum   'Mn4 Fe10 Si16 H4 O48'
_cell_volume   984.85906594
_cell_formula_units_Z   2
loop_
 _symmetry_equiv_pos_site_id
 _symmetry_equiv_pos_as_xyz
  1  'x, y, z'
loop_
 _atom_site_type_symbol
 _atom_site_label
 _atom_site_symmetry_multiplicity
 _atom_site_fract_x
 _atom_site_fract_y
 _atom_site_fract_z
 _atom_site_occupancy
  Mn  Mn0  1  0.00000000  0.50000000  0.22957300  1
  Mn  Mn1  1  0.00000000  0.50000000  0.77042700  1
  Mn  Mn2  1  0.50000000  0.00000000  0.27042700  1
  Mn  Mn3  1  0.50000000  0.00000000  0.72957300  1
  Fe  Fe0  1  0.00000000  0.50000000  0.39309300  1
  Fe  Fe1  1  0.00000000  0.50000000  0.60690700  1
  Fe  Fe2  1  0.50000000  0.00000000  0.10690700  1
  Fe  Fe3  1  0.50000000  0.00000000  0.89309300  1
  Fe  Fe4  1  0.00000000  0.00000000  0.17798800  1
  Fe  Fe5  1  0.00000000  0.00000000  0.82201200  1
  Fe  Fe6  1  0.50000000  0.50000000  0.32201200  1
  Fe  Fe7  1  0.50000000  0.50000000  0.67798800  1
  Fe  Fe8  1  0.00000000  0.00000000  0.00000000  1
  Fe  Fe9  1  0.50000000  0.50000000  0.50000000  1
  Si  Si0  1  0.16033300  0.20395900  0.33050800  1
  Si  Si1  1  0.83966700  0.79604100  0.66949200  1
  Si  Si2  1  0.83966700  0.79604100  0.33050800  1
  Si  Si3  1  0.33966700  0.70395900  0.16949200  1
  Si  Si4  1  0.16033300  0.20395900  0.66949200  1
  Si  Si5  1  0.66033300  0.29604100  0.83050800  1
  Si  Si6  1  0.66033300  0.29604100  0.16949200  1
  Si  Si7  1  0.33966700  0.70395900  0.83050800  1
  Si  Si8  1  0.16353100  0.28024700  0.08420700  1
  Si  Si9  1  0.83646900  0.71975300  0.91579300  1
  Si  Si10  1  0.83646900  0.71975300  0.08420700  1
  Si  Si11  1  0.33646900  0.78024700  0.41579300  1
  Si  Si12  1  0.16353100  0.28024700  0.91579300  1
  Si  Si13  1  0.66353100  0.21975300  0.58420700  1
  Si  Si14  1  0.66353100  0.21975300  0.41579300  1
  Si  Si15  1  0.33646900  0.78024700  0.58420700  1
  H  H0  1  0.63761700  0.99585600  0.00000000  1
  H  H1  1  0.36238300  0.00414400  0.00000000  1
  H  H2  1  0.86238300  0.49585600  0.50000000  1
  H  H3  1  0.13761700  0.50414400  0.50000000  1
  O  O0  1  0.16902600  0.36960800  0.31886600  1
  O  O1  1  0.83097400  0.63039200  0.68113400  1
  O  O2  1  0.83097400  0.63039200  0.31886600  1
  O  O3  1  0.33097400  0.86960800  0.18113400  1
  O  O4  1  0.16902600  0.36960800  0.68113400  1
  O  O5  1  0.66902600  0.13039200  0.81886600  1
  O  O6  1  0.66902600  0.13039200  0.18113400  1
  O  O7  1  0.33097400  0.86960800  0.81886600  1
  O  O8  1  0.41364800  0.34051700  0.12283000  1
  O  O9  1  0.58635200  0.65948300  0.87717000  1
  O  O10  1  0.58635200  0.65948300  0.12283000  1
  O  O11  1  0.08635200  0.84051700  0.37717000  1
  O  O12  1  0.41364800  0.34051700  0.87717000  1
  O  O13  1  0.91364800  0.15948300  0.62283000  1
  O  O14  1  0.91364800  0.15948300  0.37717000  1
  O  O15  1  0.08635200  0.84051700  0.62283000  1
  O  O16  1  0.17802300  0.11558000  0.25698600  1
  O  O17  1  0.82197700  0.88442000  0.74301400  1
  O  O18  1  0.82197700  0.88442000  0.25698600  1
  O  O19  1  0.32197700  0.61558000  0.24301400  1
  O  O20  1  0.17802300  0.11558000  0.74301400  1
  O  O21  1  0.67802300  0.38442000  0.75698600  1
  O  O22  1  0.67802300  0.38442000  0.24301400  1
  O  O23  1  0.32197700  0.61558000  0.75698600  1
  O  O24  1  0.42149300  0.15361800  0.37290600  1
  O  O25  1  0.57850700  0.84638200  0.62709400  1
  O  O26  1  0.57850700  0.84638200  0.37290600  1
  O  O27  1  0.07850700  0.65361800  0.12709400  1
  O  O28  1  0.42149300  0.15361800  0.62709400  1
  O  O29  1  0.92149300  0.34638200  0.87290600  1
  O  O30  1  0.92149300  0.34638200  0.12709400  1
  O  O31  1  0.07850700  0.65361800  0.87290600  1
  O  O32  1  0.15591100  0.11488800  0.09136400  1
  O  O33  1  0.84408900  0.88511200  0.90863600  1
  O  O34  1  0.84408900  0.88511200  0.09136400  1
  O  O35  1  0.34408900  0.61488800  0.40863600  1
  O  O36  1  0.15591100  0.11488800  0.90863600  1
  O  O37  1  0.65591100  0.38511200  0.59136400  1
  O  O38  1  0.65591100  0.38511200  0.40863600  1
  O  O39  1  0.34408900  0.61488800  0.59136400  1
  O  O40  1  0.66196200  0.09575600  0.00000000  1
  O  O41  1  0.33803800  0.90424400  0.00000000  1
  O  O42  1  0.83803800  0.59575600  0.50000000  1
  O  O43  1  0.16196200  0.40424400  0.50000000  1
  O  O44  1  0.15530100  0.32888300  0.00000000  1
  O  O45  1  0.84469900  0.67111700  0.00000000  1
  O  O46  1  0.34469900  0.82888300  0.50000000  1
  O  O47  1  0.65530100  0.17111700  0.50000000  1
loop_
_geom_bond_atom_site_label_1
_geom_bond_atom_site_label_2
_geom_bond_distance
_geom_bond_site_symmetry_2
Mn0 O19 2.091840 1_555
Mn0 O22 2.091840 1_455
Mn0 O0 2.284747 1_555
Mn0 O2 2.284747 1_455
Mn0 O27 2.464883 1_555
Mn0 O30 2.464883 1_455
Mn1 O23 2.091840 1_555
Mn1 O21 2.091840 1_455
Mn1 O4 2.284747 1_555
Mn1 O1 2.284747 1_455
Mn1 O31 2.464883 1_555
Mn1 O29 2.464883 1_455
Mn2 O18 2.091840 1_545
Mn2 O16 2.091840 1_555
Mn2 O6 2.284747 1_555
Mn2 O3 2.284747 1_545
Mn2 O24 2.464883 1_555
Mn2 O26 2.464883 1_545
Mn3 O17 2.091840 1_545
Mn3 O20 2.091840 1_555
Mn3 O5 2.284747 1_555
Mn3 O7 2.284747 1_545
Mn3 O28 2.464883 1_555
Mn3 O25 2.464883 1_545
Fe0 O0 2.091204 1_555
Fe0 O2 2.091204 1_455
Fe0 O35 2.193239 1_555
Fe0 O38 2.193239 1_455
Fe1 O4 2.091204 1_555
Fe1 O1 2.091204 1_455
Fe1 O39 2.193239 1_555
Fe1 O37 2.193239 1_455
Fe2 O6 2.091204 1_555
Fe2 O3 2.091204 1_545
Fe2 O32 2.193239 1_555
Fe2 O34 2.193239 1_545
Fe3 O5 2.091204 1_555
Fe3 O7 2.091204 1_545
Fe3 O36 2.193239 1_555
Fe3 O33 2.193239 1_545
Fe4 O18 2.088661 1_445
Fe4 O16 2.088661 1_555
Fe4 O32 2.136862 1_555
Fe4 O34 2.136862 1_445
Fe4 O6 2.200251 1_455
Fe4 O3 2.200251 1_545
Fe5 O17 2.088661 1_445
Fe5 O20 2.088661 1_555
Fe5 O36 2.136862 1_555
Fe5 O33 2.136862 1_445
Fe5 O5 2.200251 1_455
Fe5 O7 2.200251 1_545
Fe6 O22 2.088661 1_555
Fe6 O19 2.088661 1_555
Fe6 O35 2.136862 1_555
Fe6 O38 2.136862 1_555
Fe6 O2 2.200251 1_555
Fe6 O0 2.200251 1_555
Fe7 O21 2.088661 1_555
Fe7 O23 2.088661 1_555
Fe7 O37 2.136862 1_555
Fe7 O39 2.136862 1_555
Fe7 O1 2.200251 1_555
Fe7 O4 2.200251 1_555
Fe8 H1 1.956243 1_555
Fe8 H0 1.956243 1_445
Fe8 O40 2.053452 1_455
Fe8 O41 2.053452 1_545
Fe8 O32 2.203681 1_555
Fe8 O36 2.203681 1_554
Fe8 O33 2.203681 1_444
Fe8 O34 2.203681 1_445
Fe9 H3 1.956243 1_555
Fe9 H2 1.956243 1_555
Fe9 O42 2.053452 1_555
Fe9 O43 2.053452 1_555
Fe9 O39 2.203681 1_555
Fe9 O37 2.203681 1_555
Fe9 O38 2.203681 1_555
Fe9 O35 2.203681 1_555
H0 O40 0.991935 1_565
H1 O41 0.991935 1_545
H2 O42 0.991935 1_555
H3 O43 0.991935 1_555
O0 Si0 1.645179 1_555
O1 Si1 1.645179 1_555
O2 Si2 1.645179 1_555
O3 Si3 1.645179 1_555
O4 Si4 1.645179 1_555
O5 Si5 1.645179 1_555
O6 Si6 1.645179 1_555
O7 Si7 1.645179 1_555
O8 Si8 1.639183 1_555
O8 Si6 1.647030 1_555
O9 Si9 1.639183 1_555
O9 Si7 1.647030 1_555
O10 Si10 1.639183 1_555
O10 Si3 1.647030 1_555
O11 Si11 1.639183 1_555
O11 Si2 1.647030 1_455
O12 Si12 1.639183 1_555
O12 Si5 1.647030 1_555
O13 Si13 1.639183 1_555
O13 Si4 1.647030 1_655
O14 Si14 1.639183 1_555
O14 Si0 1.647030 1_655
O15 Si15 1.639183 1_555
O15 Si1 1.647030 1_455
O16 Si0 1.619868 1_555
O17 Si1 1.619868 1_555
O18 Si2 1.619868 1_555
O19 Si3 1.619868 1_555
O20 Si4 1.619868 1_555
O21 Si5 1.619868 1_555
O22 Si6 1.619868 1_555
O23 Si7 1.619868 1_555
O24 Si14 1.662045 1_555
O24 Si0 1.688239 1_555
O25 Si15 1.662045 1_555
O25 Si1 1.688239 1_555
O26 Si11 1.662045 1_555
O26 Si2 1.688239 1_555
O27 Si10 1.662045 1_455
O27 Si3 1.688239 1_555
O28 Si13 1.662045 1_555
O28 Si4 1.688239 1_555
O29 Si12 1.662045 1_655
O29 Si5 1.688239 1_555
O30 Si8 1.662045 1_655
O30 Si6 1.688239 1_555
O31 Si9 1.662045 1_455
O31 Si7 1.688239 1_555
O32 Si8 1.633347 1_555
O33 Si9 1.633347 1_555
O34 Si10 1.633347 1_555
O35 Si11 1.633347 1_555
O36 Si12 1.633347 1_555
O37 Si13 1.633347 1_555
O38 Si14 1.633347 1_555
O39 Si15 1.633347 1_555
O44 Si8 1.633637 1_555
O44 Si12 1.633637 1_554
O45 Si10 1.633637 1_555
O45 Si9 1.633637 1_554
O46 Si15 1.633637 1_555
O46 Si11 1.633637 1_555
O47 Si13 1.633637 1_555
O47 Si14 1.633637 1_555
