# generated using pymatgen
data_MgSi
_symmetry_space_group_name_H-M   'P 1'
_cell_length_a   6.18038917
_cell_length_b   6.18038917
_cell_length_c   9.97534005
_cell_angle_alpha   84.90070369
_cell_angle_beta   84.90070369
_cell_angle_gamma   36.84162516
_symmetry_Int_Tables_number   1
_chemical_formula_structural   MgSi
_chemical_formula_sum   'Mg6 Si6'
_cell_volume   227.46288761
_cell_formula_units_Z   6
loop_
 _symmetry_equiv_pos_site_id
 _symmetry_equiv_pos_as_xyz
  1  'x, y, z'
loop_
 _atom_site_type_symbol
 _atom_site_label
 _atom_site_symmetry_multiplicity
 _atom_site_fract_x
 _atom_site_fract_y
 _atom_site_fract_z
 _atom_site_occupancy
  Mg  Mg0  1  0.50793000  0.50793000  0.83862700  1
  Mg  Mg1  1  0.60001000  0.60001000  0.13084800  1
  Mg  Mg2  1  0.98818200  0.98818200  0.34469500  1
  Mg  Mg3  1  0.19008100  0.19008100  0.66705400  1
  Mg  Mg4  1  0.31081400  0.31081400  0.15623000  1
  Mg  Mg5  1  0.79869500  0.79869500  0.87462700  1
  Si  Si0  1  0.54723100  0.54723100  0.56556800  1
  Si  Si1  1  0.31079600  0.31079600  0.43065500  1
  Si  Si2  1  0.15182100  0.15182100  0.94554000  1
  Si  Si3  1  0.95764900  0.95764900  0.05560700  1
  Si  Si4  1  0.68996100  0.68996100  0.37002200  1
  Si  Si5  1  0.92094800  0.92094800  0.62046600  1
loop_
_geom_bond_atom_site_label_1
_geom_bond_atom_site_label_2
_geom_bond_distance
_geom_bond_site_symmetry_2
Mg0 Si0 2.719669 1_555
Mg0 Si2 2.852408 1_655
Mg0 Si2 2.852408 1_565
Mg0 Si3 2.933851 1_456
Mg0 Si3 2.933851 1_546
Mg1 Si4 2.697518 1_555
Mg1 Si2 2.718420 1_654
Mg1 Si2 2.718420 1_564
Mg1 Si3 2.720203 1_455
Mg1 Si3 2.720203 1_545
Mg2 Si5 2.789768 1_555
Mg2 Si1 2.922788 1_655
Mg2 Si1 2.922788 1_565
Mg2 Si3 2.938998 1_555
Mg2 Si0 3.071473 1_565
Mg2 Si0 3.071473 1_655
Mg2 Si4 3.096695 1_655
Mg2 Si4 3.096695 1_565
Mg3 Si1 2.634305 1_555
Mg3 Si2 2.772188 1_555
Mg3 Si0 2.821915 1_455
Mg3 Si0 2.821915 1_545
Mg4 Si3 2.731850 1_545
Mg4 Si3 2.731850 1_455
Mg4 Si1 2.737463 1_555
Mg4 Si2 2.937356 1_554
Mg4 Si4 3.131238 1_455
Mg4 Si4 3.131238 1_545
Mg5 Si2 2.655751 1_655
Mg5 Si2 2.655751 1_565
Mg5 Si3 2.713806 1_556
Mg5 Si5 2.793284 1_555
Si0 Si4 2.448473 1_555
Si0 Si5 2.480986 1_455
Si0 Si5 2.480986 1_545
Si1 Si4 2.519645 1_455
Si1 Si4 2.519645 1_545
Si2 Si3 2.433602 1_446
