# generated using pymatgen
data_Li8VO6
_symmetry_space_group_name_H-M   'P 1'
_cell_length_a   5.39288856
_cell_length_b   10.50086324
_cell_length_c   5.39799160
_cell_angle_alpha   89.99773433
_cell_angle_beta   119.39012581
_cell_angle_gamma   75.34622860
_symmetry_Int_Tables_number   1
_chemical_formula_structural   Li8VO6
_chemical_formula_sum   'Li16 V2 O12'
_cell_volume   254.87017067
_cell_formula_units_Z   2
loop_
 _symmetry_equiv_pos_site_id
 _symmetry_equiv_pos_as_xyz
  1  'x, y, z'
loop_
 _atom_site_type_symbol
 _atom_site_label
 _atom_site_symmetry_multiplicity
 _atom_site_fract_x
 _atom_site_fract_y
 _atom_site_fract_z
 _atom_site_occupancy
  Li  Li0  1  0.33257200  0.48929700  0.15639700  1
  Li  Li1  1  0.35539200  0.98877000  0.68145500  1
  Li  Li2  1  0.64468000  0.01108500  0.31888700  1
  Li  Li3  1  0.66757800  0.51063600  0.84345600  1
  Li  Li4  1  0.23962800  0.17773100  0.31130200  1
  Li  Li5  1  0.23480200  0.67718800  0.81542900  1
  Li  Li6  1  0.10506500  0.32094700  0.91284300  1
  Li  Li7  1  0.09851300  0.82621300  0.41391600  1
  Li  Li8  1  0.48849100  0.32483300  0.57216600  1
  Li  Li9  1  0.49036300  0.82046800  0.08108300  1
  Li  Li10  1  0.50982500  0.17945600  0.91913900  1
  Li  Li11  1  0.51138200  0.67519300  0.42774200  1
  Li  Li12  1  0.90158500  0.17371000  0.58623300  1
  Li  Li13  1  0.89494300  0.67908500  0.08692000  1
  Li  Li14  1  0.76519100  0.32282500  0.18453900  1
  Li  Li15  1  0.76048800  0.82226700  0.68877100  1
  V  V0  1  0.99965100  0.49993900  0.49979500  1
  V  V1  1  0.99988200  0.00020300  0.99997400  1
  O  O0  1  0.09039200  0.38181600  0.23779100  1
  O  O1  1  0.08925700  0.88491100  0.75103200  1
  O  O2  1  0.23256100  0.11811800  0.96821300  1
  O  O3  1  0.22156600  0.61482500  0.47159800  1
  O  O4  1  0.62255300  0.11684300  0.64987100  1
  O  O5  1  0.61966800  0.61712900  0.15042800  1
  O  O6  1  0.38024500  0.38287500  0.84942400  1
  O  O7  1  0.37762300  0.88316600  0.35032800  1
  O  O8  1  0.77825100  0.38521400  0.52830500  1
  O  O9  1  0.76748000  0.88194100  0.03187700  1
  O  O10  1  0.91086000  0.11513400  0.24918300  1
  O  O11  1  0.90951500  0.61818200  0.76190400  1
loop_
_geom_bond_atom_site_label_1
_geom_bond_atom_site_label_2
_geom_bond_distance
_geom_bond_site_symmetry_2
Li0 O6 2.081742 1_554
Li0 O0 2.116987 1_555
Li0 O8 2.221810 1_555
Li0 O11 2.289221 1_454
Li0 O5 2.302301 1_555
Li0 O3 2.364634 1_555
Li1 O9 2.094704 1_556
Li1 O7 2.140607 1_555
Li1 O1 2.170574 1_555
Li1 O4 2.266059 1_565
Li1 O2 2.287153 1_565
Li1 O10 2.419183 1_465
Li2 O2 2.095878 1_554
Li2 O4 2.140570 1_555
Li2 O10 2.172463 1_555
Li2 O7 2.264078 1_545
Li2 O9 2.287074 1_545
Li2 O1 2.418353 1_645
Li3 O5 2.082598 1_556
Li3 O11 2.116774 1_555
Li3 O3 2.222876 1_555
Li3 O0 2.288102 1_656
Li3 O6 2.302795 1_555
Li3 O8 2.363022 1_555
Li4 O4 1.908132 1_555
Li4 O10 1.922036 1_455
Li4 O2 1.940637 1_554
Li4 O0 2.052255 1_555
Li5 O11 1.896637 1_455
Li5 O5 1.905105 1_556
Li5 O3 1.942262 1_555
Li5 O1 2.088242 1_555
Li6 O0 1.897970 1_556
Li6 O8 1.917743 1_455
Li6 O6 1.931132 1_555
Li6 O2 2.038572 1_555
Li7 O9 1.907924 1_455
Li7 O7 1.924498 1_555
Li7 O1 1.941026 1_555
Li7 O3 2.125203 1_555
Li8 O6 1.905190 1_555
Li8 O8 1.940194 1_555
Li8 O0 1.942071 1_555
Li8 O4 2.090975 1_555
Li9 O7 1.892167 1_555
Li9 O9 1.896932 1_555
Li9 O1 1.946247 1_554
Li9 O5 2.043527 1_555
Li10 O4 1.892005 1_555
Li10 O2 1.896540 1_555
Li10 O10 1.945929 1_556
Li10 O6 2.044345 1_555
Li11 O5 1.905660 1_555
Li11 O3 1.940394 1_555
Li11 O11 1.941740 1_555
Li11 O7 2.090784 1_555
Li12 O2 1.907525 1_655
Li12 O4 1.923792 1_555
Li12 O10 1.940331 1_555
Li12 O8 2.126334 1_555
Li13 O11 1.898210 1_554
Li13 O3 1.917904 1_655
Li13 O5 1.932037 1_555
Li13 O9 2.038878 1_555
Li14 O0 1.896561 1_655
Li14 O6 1.905593 1_554
Li14 O8 1.942357 1_555
Li14 O10 2.087919 1_555
Li15 O7 1.907678 1_555
Li15 O1 1.922112 1_655
Li15 O9 1.941082 1_556
Li15 O11 2.052217 1_555
O0 V0 2.037302 1_455
O1 V1 1.960712 1_465
O2 V1 2.033312 1_455
O3 V0 1.954501 1_455
O4 V1 2.043716 1_555
O5 V0 2.049632 1_555
O6 V0 2.051088 1_455
O7 V1 2.046624 1_464
O8 V0 1.951595 1_555
O9 V1 2.035185 1_564
O10 V1 1.958960 1_554
O11 V0 2.037063 1_555
