# generated using pymatgen
data_Mg3(SiO3)4
_symmetry_space_group_name_H-M   'P 1'
_cell_length_a   5.33036200
_cell_length_b   5.38227022
_cell_length_c   9.68497561
_cell_angle_alpha   98.50851066
_cell_angle_beta   85.86577078
_cell_angle_gamma   119.58041792
_symmetry_Int_Tables_number   1
_chemical_formula_structural   Mg3(SiO3)4
_chemical_formula_sum   'Mg3 Si4 O12'
_cell_volume   238.98212760
_cell_formula_units_Z   1
loop_
 _symmetry_equiv_pos_site_id
 _symmetry_equiv_pos_as_xyz
  1  'x, y, z'
loop_
 _atom_site_type_symbol
 _atom_site_label
 _atom_site_symmetry_multiplicity
 _atom_site_fract_x
 _atom_site_fract_y
 _atom_site_fract_z
 _atom_site_occupancy
  Mg  Mg0  1  0.67758500  0.85510800  0.00011800  1
  Mg  Mg1  1  0.32241500  0.14489200  0.99988200  1
  Mg  Mg2  1  0.00000000  0.50000000  0.00000000  1
  Si  Si0  1  0.32743300  0.91005700  0.29114700  1
  Si  Si1  1  0.67256700  0.08994300  0.70885300  1
  Si  Si2  1  0.00452200  0.75458600  0.70891400  1
  Si  Si3  1  0.99547800  0.24541400  0.29108600  1
  O  O0  1  0.64736500  0.52282800  0.08702000  1
  O  O1  1  0.35263500  0.47717200  0.91298000  1
  O  O2  1  0.14526100  0.59239500  0.34586500  1
  O  O3  1  0.85473900  0.40760500  0.65413500  1
  O  O4  1  0.32672500  0.86534500  0.11882300  1
  O  O5  1  0.67327500  0.13465500  0.88117700  1
  O  O6  1  0.00688400  0.80243500  0.88115900  1
  O  O7  1  0.99311600  0.19756500  0.11884100  1
  O  O8  1  0.33811400  0.92222800  0.65263300  1
  O  O9  1  0.66188600  0.07777200  0.34736700  1
  O  O10  1  0.17689800  0.10795500  0.34784800  1
  O  O11  1  0.82310200  0.89204500  0.65215200  1
loop_
_geom_bond_atom_site_label_1
_geom_bond_atom_site_label_2
_geom_bond_distance
_geom_bond_site_symmetry_2
Mg0 O0 2.018465 1_555
Mg0 O1 2.018509 1_554
Mg0 O7 2.034524 1_565
Mg0 O5 2.035222 1_564
Mg0 O6 2.142853 1_654
Mg0 O4 2.143690 1_555
Mg1 O1 2.018465 1_555
Mg1 O0 2.018509 1_556
Mg1 O6 2.034524 1_545
Mg1 O4 2.035222 1_546
Mg1 O7 2.142853 1_456
Mg1 O5 2.143690 1_555
Mg2 O1 2.056091 1_554
Mg2 O0 2.056091 1_455
Mg2 O4 2.112426 1_555
Mg2 O5 2.112426 1_454
Mg2 O7 2.113082 1_455
Mg2 O6 2.113082 1_554
O2 Si0 1.643706 1_555
O2 Si3 1.643905 1_455
O3 Si1 1.643706 1_555
O3 Si2 1.643905 1_655
O4 Si0 1.650605 1_555
O5 Si1 1.650605 1_555
O6 Si2 1.649859 1_555
O7 Si3 1.649859 1_555
O8 Si2 1.641606 1_555
O8 Si1 1.641716 1_565
O9 Si3 1.641606 1_555
O9 Si0 1.641716 1_545
O10 Si0 1.639248 1_545
O10 Si3 1.639542 1_455
O11 Si1 1.639248 1_565
O11 Si2 1.639542 1_655
