# generated using pymatgen
data_Mg5Si6
_symmetry_space_group_name_H-M   'P 1'
_cell_length_a   4.33450000
_cell_length_b   6.99347714
_cell_length_c   13.91647498
_cell_angle_alpha   101.68297352
_cell_angle_beta   95.54192967
_cell_angle_gamma   95.03137798
_symmetry_Int_Tables_number   1
_chemical_formula_structural   Mg5Si6
_chemical_formula_sum   'Mg10 Si12'
_cell_volume   408.68568361
_cell_formula_units_Z   2
loop_
 _symmetry_equiv_pos_site_id
 _symmetry_equiv_pos_as_xyz
  1  'x, y, z'
loop_
 _atom_site_type_symbol
 _atom_site_label
 _atom_site_symmetry_multiplicity
 _atom_site_fract_x
 _atom_site_fract_y
 _atom_site_fract_z
 _atom_site_occupancy
  Mg  Mg0  1  0.35384400  0.91624500  0.74349700  1
  Mg  Mg1  1  0.64615600  0.08375500  0.25650300  1
  Mg  Mg2  1  0.20069600  0.96083700  0.40633200  1
  Mg  Mg3  1  0.11183300  0.17607500  0.10431800  1
  Mg  Mg4  1  0.90294900  0.25051700  0.83020200  1
  Mg  Mg5  1  0.79930400  0.03916300  0.59366800  1
  Mg  Mg6  1  0.17653200  0.43569100  0.33013100  1
  Mg  Mg7  1  0.09705100  0.74948300  0.16979800  1
  Mg  Mg8  1  0.88816700  0.82392500  0.89568200  1
  Mg  Mg9  1  0.82346800  0.56430900  0.66986900  1
  Si  Si0  1  0.35224700  0.27386700  0.69662000  1
  Si  Si1  1  0.33891700  0.57914500  0.81236800  1
  Si  Si2  1  0.66108300  0.42085500  0.18763200  1
  Si  Si3  1  0.64775300  0.72613300  0.30338000  1
  Si  Si4  1  0.74619800  0.64538700  0.46200700  1
  Si  Si5  1  0.26906200  0.56981000  0.98016200  1
  Si  Si6  1  0.55157300  0.89493500  0.05710100  1
  Si  Si7  1  0.71553200  0.28083000  0.45004700  1
  Si  Si8  1  0.25380200  0.35461300  0.53799300  1
  Si  Si9  1  0.44842700  0.10506500  0.94289900  1
  Si  Si10  1  0.73093800  0.43019000  0.01983800  1
  Si  Si11  1  0.28446800  0.71917000  0.54995300  1
loop_
_geom_bond_atom_site_label_1
_geom_bond_atom_site_label_2
_geom_bond_distance
_geom_bond_site_symmetry_2
Mg0 Si0 2.709921 1_565
Mg0 Si1 2.716785 1_555
Mg0 Si11 2.740819 1_555
Mg0 Si9 2.795274 1_565
Mg1 Si3 2.709921 1_545
Mg1 Si2 2.716785 1_555
Mg1 Si7 2.740819 1_555
Mg1 Si6 2.795274 1_545
Mg2 Si3 2.861036 1_455
Mg2 Si11 2.884195 1_555
Mg2 Si3 2.939994 1_555
Mg2 Si7 2.944223 1_565
Mg2 Si8 2.959351 1_565
Mg2 Si4 3.094010 1_455
Mg2 Si7 3.212741 1_465
Mg3 Si9 2.780243 1_554
Mg3 Si2 2.809056 1_555
Mg3 Si10 2.872648 1_455
Mg3 Si6 2.882110 1_545
Mg3 Si2 2.883118 1_455
Mg3 Si6 2.919919 1_445
Mg4 Si0 2.835776 1_655
Mg4 Si9 2.875276 1_555
Mg4 Si10 2.881115 1_556
Mg4 Si1 2.911075 1_655
Mg4 Si0 2.917978 1_555
Mg4 Si5 2.951472 1_655
Mg4 Si9 3.071878 1_655
Mg5 Si0 2.861036 1_655
Mg5 Si7 2.884195 1_555
Mg5 Si0 2.939994 1_555
Mg5 Si11 2.944223 1_545
Mg5 Si4 2.959351 1_545
Mg5 Si8 3.094010 1_655
Mg5 Si11 3.212741 1_645
Mg6 Si2 2.820521 1_455
Mg6 Si3 2.856854 1_555
Mg6 Si7 2.991173 1_455
Mg6 Si4 3.002562 1_555
Mg6 Si4 3.008165 1_455
Mg6 Si2 3.018933 1_555
Mg6 Si8 3.051539 1_555
Mg6 Si7 3.136693 1_555
Mg6 Si11 3.257649 1_555
Mg7 Si3 2.835776 1_455
Mg7 Si6 2.875276 1_555
Mg7 Si5 2.881115 1_554
Mg7 Si2 2.911075 1_455
Mg7 Si3 2.917978 1_555
Mg7 Si10 2.951472 1_455
Mg7 Si6 3.071878 1_455
Mg8 Si6 2.780243 1_556
Mg8 Si1 2.809056 1_555
Mg8 Si5 2.872648 1_655
Mg8 Si9 2.882110 1_565
Mg8 Si1 2.883118 1_655
Mg8 Si9 2.919919 1_665
Mg9 Si1 2.820521 1_655
Mg9 Si0 2.856854 1_555
Mg9 Si11 2.991173 1_655
Mg9 Si8 3.002562 1_555
Mg9 Si8 3.008165 1_655
Mg9 Si1 3.018933 1_555
Mg9 Si4 3.051539 1_555
Mg9 Si11 3.136693 1_555
Mg9 Si7 3.257649 1_555
Si0 Si8 2.395689 1_555
Si0 Si1 2.408922 1_555
Si1 Si5 2.396554 1_555
Si2 Si3 2.408922 1_555
Si3 Si4 2.395689 1_555
Si4 Si7 2.511943 1_555
Si5 Si6 2.467450 1_556
Si6 Si9 2.410216 1_564
Si7 Si8 2.483575 1_555
Si7 Si8 2.487813 1_655
Si10 Si5 2.369391 1_554
Si10 Si2 2.396554 1_555
Si10 Si9 2.467450 1_554
Si10 Si5 2.601240 1_654
Si11 Si4 2.483575 1_555
Si11 Si4 2.487813 1_455
Si11 Si8 2.511943 1_555
