# generated using pymatgen
data_Yb(MnGe)6
_symmetry_space_group_name_H-M   'P 1'
_cell_length_a   5.13681341
_cell_length_b   5.13689368
_cell_length_c   8.14298052
_cell_angle_alpha   90.00000000
_cell_angle_beta   90.00000000
_cell_angle_gamma   119.99948356
_symmetry_Int_Tables_number   1
_chemical_formula_structural   Yb(MnGe)6
_chemical_formula_sum   'Yb1 Mn6 Ge6'
_cell_volume   186.08469520
_cell_formula_units_Z   1
loop_
 _symmetry_equiv_pos_site_id
 _symmetry_equiv_pos_as_xyz
  1  'x, y, z'
loop_
 _atom_site_type_symbol
 _atom_site_label
 _atom_site_symmetry_multiplicity
 _atom_site_fract_x
 _atom_site_fract_y
 _atom_site_fract_z
 _atom_site_occupancy
  Yb  Yb0  1  0.99999436  0.00000000  0.00000000  1
  Mn  Mn0  1  0.49998006  0.00000000  0.25119856  1
  Mn  Mn1  1  0.49999025  0.49999993  0.25117771  1
  Mn  Mn2  1  0.99998932  0.50000007  0.25117771  1
  Mn  Mn3  1  0.49998006  0.00000000  0.74880144  1
  Mn  Mn4  1  0.49999025  0.49999993  0.74882229  1
  Mn  Mn5  1  0.99998932  0.50000007  0.74882229  1
  Ge  Ge0  1  0.33330822  0.66662937  0.00000000  1
  Ge  Ge1  1  0.66667985  0.33337063  0.00000000  1
  Ge  Ge2  1  0.33321448  0.66649655  0.50000000  1
  Ge  Ge3  1  0.66671793  0.33350345  0.50000000  1
  Ge  Ge4  1  0.99998294  0.00000000  0.34239328  1
  Ge  Ge5  1  0.99998294  0.00000000  0.65760672  1
loop_
_geom_bond_atom_site_label_1
_geom_bond_atom_site_label_2
_geom_bond_distance
_geom_bond_site_symmetry_2
Ge0 Mn1 2.526269 1_555
Ge0 Mn4 2.526269 1_554
Ge0 Mn2 2.526288 1_455
Ge0 Mn5 2.526288 1_454
Ge0 Mn0 2.526574 1_565
Ge0 Mn3 2.526574 1_564
Ge0 Yb0 2.965636 1_455
Ge0 Yb0 2.965835 1_465
Ge0 Yb0 2.965843 1_565
Ge1 Mn2 2.526264 1_555
Ge1 Mn5 2.526264 1_554
Ge1 Mn1 2.526288 1_555
Ge1 Mn4 2.526288 1_554
Ge1 Mn0 2.526574 1_555
Ge1 Mn3 2.526574 1_554
Ge1 Yb0 2.965636 1_565
Ge1 Yb0 2.965838 1_555
Ge1 Yb0 2.965840 1_455
Ge2 Mn5 2.510539 1_455
Ge2 Mn2 2.510539 1_455
Ge2 Mn4 2.510663 1_555
Ge2 Mn1 2.510663 1_555
Ge2 Mn3 2.511147 1_565
Ge2 Mn0 2.511147 1_565
Ge3 Mn4 2.510536 1_555
Ge3 Mn1 2.510536 1_555
Ge3 Mn5 2.510660 1_555
Ge3 Mn2 2.510660 1_555
Ge3 Mn3 2.511147 1_555
Ge3 Mn0 2.511147 1_555
Ge4 Ge5 2.566777 1_555
Ge4 Mn0 2.673591 1_655
Ge4 Mn0 2.673619 1_555
Ge4 Mn1 2.673673 1_545
Ge4 Mn2 2.673675 1_555
Ge4 Mn2 2.673706 1_545
Ge4 Mn1 2.673708 1_655
Ge4 Yb0 2.788102 1_555
Ge5 Mn3 2.673591 1_655
Ge5 Mn3 2.673619 1_555
Ge5 Mn4 2.673673 1_545
Ge5 Mn5 2.673675 1_555
Ge5 Mn5 2.673706 1_545
Ge5 Mn4 2.673708 1_655
Ge5 Yb0 2.788102 1_556
