# generated using pymatgen
data_Sr2NbAlO6
_symmetry_space_group_name_H-M   'P 1'
_cell_length_a   5.57058298
_cell_length_b   5.57058298
_cell_length_c   5.57058298
_cell_angle_alpha   60.00000000
_cell_angle_beta   60.00000000
_cell_angle_gamma   60.00000000
_symmetry_Int_Tables_number   1
_chemical_formula_structural   Sr2NbAlO6
_chemical_formula_sum   'Sr2 Nb1 Al1 O6'
_cell_volume   122.23257076
_cell_formula_units_Z   1
loop_
 _symmetry_equiv_pos_site_id
 _symmetry_equiv_pos_as_xyz
  1  'x, y, z'
loop_
 _atom_site_type_symbol
 _atom_site_label
 _atom_site_symmetry_multiplicity
 _atom_site_fract_x
 _atom_site_fract_y
 _atom_site_fract_z
 _atom_site_occupancy
  Sr  Sr0  1  0.75000000  0.75000000  0.75000000  1
  Sr  Sr1  1  0.25000000  0.25000000  0.25000000  1
  Nb  Nb0  1  0.00000000  0.00000000  0.00000000  1
  Al  Al0  1  0.50000000  0.50000000  0.50000000  1
  O  O0  1  0.74478700  0.74478700  0.25521300  1
  O  O1  1  0.25521300  0.25521300  0.74478700  1
  O  O2  1  0.74478700  0.25521300  0.74478700  1
  O  O3  1  0.25521300  0.74478700  0.25521300  1
  O  O4  1  0.25521300  0.74478700  0.74478700  1
  O  O5  1  0.74478700  0.25521300  0.25521300  1
loop_
_geom_bond_atom_site_label_1
_geom_bond_atom_site_label_2
_geom_bond_distance
_geom_bond_site_symmetry_2
Nb0 O1 2.010566 1_554
Nb0 O5 2.010566 1_455
Nb0 O3 2.010566 1_545
Nb0 O2 2.010566 1_454
Nb0 O4 2.010566 1_544
Nb0 O0 2.010566 1_445
Al0 O0 1.928431 1_555
Al0 O2 1.928431 1_555
Al0 O4 1.928431 1_555
Al0 O5 1.928431 1_555
Al0 O3 1.928431 1_555
Al0 O1 1.928431 1_555
O0 Sr0 2.785594 1_554
O0 Sr1 2.785594 1_655
O0 Sr1 2.785594 1_565
O0 Sr0 2.785594 1_555
O1 Sr1 2.785594 1_555
O1 Sr0 2.785594 1_545
O1 Sr0 2.785594 1_455
O1 Sr1 2.785594 1_556
O2 Sr0 2.785594 1_545
O2 Sr1 2.785594 1_655
O2 Sr1 2.785594 1_556
O2 Sr0 2.785594 1_555
O3 Sr1 2.785594 1_555
O3 Sr0 2.785594 1_455
O3 Sr0 2.785594 1_554
O3 Sr1 2.785594 1_565
O4 Sr0 2.785594 1_455
O4 Sr1 2.785594 1_556
O4 Sr1 2.785594 1_565
O4 Sr0 2.785594 1_555
O5 Sr1 2.785594 1_555
O5 Sr0 2.785594 1_545
O5 Sr0 2.785594 1_554
O5 Sr1 2.785594 1_655
