# generated using pymatgen
data_ThCuPO
_symmetry_space_group_name_H-M   'P 1'
_cell_length_a   3.91147200
_cell_length_b   3.91147200
_cell_length_c   8.29032400
_cell_angle_alpha   90.00000000
_cell_angle_beta   90.00000000
_cell_angle_gamma   90.00000000
_symmetry_Int_Tables_number   1
_chemical_formula_structural   ThCuPO
_chemical_formula_sum   'Th2 Cu2 P2 O2'
_cell_volume   126.83875056
_cell_formula_units_Z   2
loop_
 _symmetry_equiv_pos_site_id
 _symmetry_equiv_pos_as_xyz
  1  'x, y, z'
loop_
 _atom_site_type_symbol
 _atom_site_label
 _atom_site_symmetry_multiplicity
 _atom_site_fract_x
 _atom_site_fract_y
 _atom_site_fract_z
 _atom_site_occupancy
  Th  Th0  1  0.00000000  0.50000000  0.33251900  1
  Th  Th1  1  0.50000000  0.00000000  0.66748100  1
  Cu  Cu0  1  0.00000000  0.00000000  0.00000000  1
  Cu  Cu1  1  0.50000000  0.50000000  0.00000000  1
  P  P0  1  0.00000000  0.50000000  0.83015200  1
  P  P1  1  0.50000000  0.00000000  0.16984800  1
  O  O0  1  0.00000000  0.00000000  0.50000000  1
  O  O1  1  0.50000000  0.50000000  0.50000000  1
loop_
_geom_bond_atom_site_label_1
_geom_bond_atom_site_label_2
_geom_bond_distance
_geom_bond_site_symmetry_2
Cu0 P0 2.409903 1_544
Cu0 P1 2.409903 1_455
Cu0 P1 2.409903 1_555
Cu0 P0 2.409903 1_554
Cu1 P0 2.409903 1_654
Cu1 P1 2.409903 1_565
Cu1 P1 2.409903 1_555
Cu1 P0 2.409903 1_554
P0 Th1 3.077095 1_465
P0 Th1 3.077095 1_455
P0 Th1 3.077095 1_565
P0 Th1 3.077095 1_555
P1 Th0 3.077095 1_645
P1 Th0 3.077095 1_555
P1 Th0 3.077095 1_545
P1 Th0 3.077095 1_655
O0 Th1 2.398491 1_455
O0 Th0 2.398491 1_555
O0 Th1 2.398491 1_555
O0 Th0 2.398491 1_545
O1 Th0 2.398491 1_655
O1 Th1 2.398491 1_565
O1 Th0 2.398491 1_555
O1 Th1 2.398491 1_555
