# generated using pymatgen
data_Na3As(SO2)4
_symmetry_space_group_name_H-M   'P 1'
_cell_length_a   10.03277075
_cell_length_b   10.71663861
_cell_length_c   12.11867125
_cell_angle_alpha   90.00000000
_cell_angle_beta   105.33355575
_cell_angle_gamma   90.00000000
_symmetry_Int_Tables_number   1
_chemical_formula_structural   Na3As(SO2)4
_chemical_formula_sum   'Na12 As4 S16 O32'
_cell_volume   1256.58798261
_cell_formula_units_Z   4
loop_
 _symmetry_equiv_pos_site_id
 _symmetry_equiv_pos_as_xyz
  1  'x, y, z'
loop_
 _atom_site_type_symbol
 _atom_site_label
 _atom_site_symmetry_multiplicity
 _atom_site_fract_x
 _atom_site_fract_y
 _atom_site_fract_z
 _atom_site_occupancy
  Na  Na0  1  0.00000000  0.50000000  0.50000000  1
  Na  Na1  1  0.00000000  -0.00000000  0.00000000  1
  Na  Na2  1  0.50000000  -0.00000000  0.50000000  1
  Na  Na3  1  0.50000000  0.50000000  0.00000000  1
  Na  Na4  1  0.29975225  0.90186121  0.93792127  1
  Na  Na5  1  0.70024775  0.40186121  0.56207873  1
  Na  Na6  1  0.70024775  0.09813879  0.06207873  1
  Na  Na7  1  0.29975225  0.59813879  0.43792127  1
  Na  Na8  1  0.83653973  0.39983873  0.94676511  1
  Na  Na9  1  0.16346027  0.89983873  0.55323489  1
  Na  Na10  1  0.16346027  0.60016127  0.05323489  1
  Na  Na11  1  0.83653973  0.10016127  0.44676511  1
  As  As0  1  0.73595266  0.74961146  0.73082820  1
  As  As1  1  0.26404734  0.24961146  0.76917180  1
  As  As2  1  0.26404734  0.25038854  0.26917180  1
  As  As3  1  0.73595266  0.75038854  0.23082820  1
  S  S0  1  0.71955666  0.06851515  0.75816617  1
  S  S1  1  0.28044334  0.56851515  0.74183383  1
  S  S2  1  0.28044334  0.93148485  0.24183383  1
  S  S3  1  0.71955666  0.43148485  0.25816617  1
  S  S4  1  0.66775867  0.69762839  0.50980703  1
  S  S5  1  0.33224133  0.19762839  0.99019297  1
  S  S6  1  0.33224133  0.30237161  0.49019297  1
  S  S7  1  0.66775867  0.80237161  0.00980703  1
  S  S8  1  0.59038825  0.65082815  0.81076539  1
  S  S9  1  0.40961175  0.15082815  0.68923461  1
  S  S10  1  0.40961175  0.34917185  0.18923461  1
  S  S11  1  0.59038825  0.84917185  0.31076539  1
  S  S12  1  0.92575272  0.58605667  0.77947198  1
  S  S13  1  0.07424728  0.08605667  0.72052802  1
  S  S14  1  0.07424728  0.41394333  0.22052802  1
  S  S15  1  0.92575272  0.91394333  0.27947198  1
  O  O0  1  0.22456645  0.39562148  0.49995164  1
  O  O1  1  0.77543355  0.89562148  0.00004836  1
  O  O2  1  0.77543355  0.60437852  0.50004836  1
  O  O3  1  0.22456645  0.10437852  -0.00004836  1
  O  O4  1  0.16131698  0.67360863  0.55465771  1
  O  O5  1  0.83868302  0.17360863  0.94534229  1
  O  O6  1  0.83868302  0.32639137  0.44534229  1
  O  O7  1  0.16131698  0.82639137  0.05465771  1
  O  O8  1  0.69522101  0.09228264  0.63161635  1
  O  O9  1  0.30477899  0.59228264  0.86838365  1
  O  O10  1  0.30477899  0.90771736  0.36838365  1
  O  O11  1  0.69522101  0.40771736  0.13161635  1
  O  O12  1  0.37147968  0.01996717  0.63538024  1
  O  O13  1  0.62852032  0.51996717  0.86461976  1
  O  O14  1  0.62852032  0.98003283  0.36461976  1
  O  O15  1  0.37147968  0.48003283  0.13538024  1
  O  O16  1  0.47149068  0.13948953  0.01075362  1
  O  O17  1  0.52850932  0.63948953  0.48924638  1
  O  O18  1  0.52850932  0.86051047  0.98924638  1
  O  O19  1  0.47149068  0.36051047  0.51075362  1
  O  O20  1  0.14566753  0.96576193  0.76666517  1
  O  O21  1  0.85433247  0.46576193  0.73333483  1
  O  O22  1  0.85433247  0.03423807  0.23333483  1
  O  O23  1  0.14566753  0.53423807  0.26666517  1
  O  O24  1  0.80572120  0.19315606  0.82187294  1
  O  O25  1  0.19427880  0.69315606  0.67812706  1
  O  O26  1  0.19427880  0.80684394  0.17812706  1
  O  O27  1  0.80572120  0.30684394  0.32187294  1
  O  O28  1  0.95633168  0.58741919  0.90758866  1
  O  O29  1  0.04366832  0.08741919  0.59241134  1
  O  O30  1  0.04366832  0.41258081  0.09241134  1
  O  O31  1  0.95633168  0.91258081  0.40758866  1
loop_
_geom_bond_atom_site_label_1
_geom_bond_atom_site_label_2
_geom_bond_distance
_geom_bond_site_symmetry_2
Na0 O4 2.439803 1_555
Na0 O6 2.439803 1_455
Na0 O2 2.515562 1_455
Na0 O0 2.515562 1_555
Na1 O5 2.439803 1_454
Na1 O7 2.439803 1_545
Na1 O3 2.515562 1_555
Na1 O1 2.515562 1_445
Na2 O14 2.349224 1_545
Na2 O12 2.349224 1_555
Na2 O10 2.388733 1_545
Na2 O8 2.388733 1_555
Na3 O15 2.349224 1_555
Na3 O13 2.349224 1_554
Na3 O9 2.388733 1_554
Na3 O11 2.388733 1_555
Na4 O18 2.257345 1_555
Na4 O20 2.338632 1_555
Na4 O7 2.371424 1_556
Na4 O3 2.478752 1_566
Na5 O19 2.257345 1_555
Na5 O21 2.338632 1_555
Na5 O6 2.371424 1_555
Na5 O2 2.478752 1_555
Na6 O16 2.257345 1_555
Na6 O22 2.338632 1_555
Na6 O5 2.371424 1_554
Na6 O1 2.478752 1_545
Na7 O17 2.257345 1_555
Na7 O23 2.338632 1_555
Na7 O4 2.371424 1_555
Na7 O0 2.478752 1_555
Na8 O30 2.347881 1_656
Na8 O5 2.424623 1_555
Na8 O13 2.430053 1_555
Na8 O28 2.452069 1_555
Na8 O24 2.654212 1_555
Na8 O21 2.732234 1_555
Na8 O11 2.952184 1_556
Na9 O31 2.347881 1_455
Na9 O4 2.424623 1_555
Na9 O12 2.430053 1_565
Na9 O29 2.452069 1_565
Na9 O25 2.654212 1_555
Na9 O20 2.732234 1_555
Na9 O10 2.952184 1_555
Na10 O28 2.347881 1_454
Na10 O7 2.424623 1_555
Na10 O15 2.430053 1_555
Na10 O30 2.452069 1_555
Na10 O26 2.654212 1_555
Na10 O23 2.732234 1_555
Na10 O9 2.952184 1_554
Na11 O29 2.347881 1_655
Na11 O6 2.424623 1_555
Na11 O14 2.430053 1_545
Na11 O31 2.452069 1_545
Na11 O27 2.654212 1_555
Na11 O22 2.732234 1_555
Na11 O8 2.952184 1_555
As0 S8 2.222649 1_555
As0 S12 2.540087 1_555
As0 S4 2.642634 1_555
As1 S9 2.222649 1_555
As1 S13 2.540087 1_555
As1 S5 2.642634 1_555
As2 S10 2.222649 1_555
As2 S14 2.540087 1_555
As2 S6 2.642634 1_555
As3 S11 2.222649 1_555
As3 S15 2.540087 1_555
As3 S7 2.642634 1_555
O0 S6 1.499067 1_555
O1 S7 1.499067 1_555
O2 S4 1.499067 1_555
O3 S5 1.499067 1_554
O8 S0 1.509448 1_555
O9 S1 1.509448 1_555
O10 S2 1.509448 1_555
O11 S3 1.509448 1_555
O12 S9 1.551435 1_555
O13 S8 1.551435 1_555
O14 S11 1.551435 1_555
O15 S10 1.551435 1_555
O16 S5 1.489277 1_554
O17 S4 1.489277 1_555
O18 S7 1.489277 1_556
O19 S6 1.489277 1_555
O20 S13 1.508670 1_565
O21 S12 1.508670 1_555
O22 S15 1.508670 1_545
O23 S14 1.508670 1_555
O24 O5 1.459594 1_555
O24 S0 1.665701 1_555
O25 O4 1.459594 1_555
O25 S1 1.665701 1_555
O26 O7 1.459594 1_555
O26 S2 1.665701 1_555
O27 O6 1.459594 1_555
O27 S3 1.665701 1_555
O28 S12 1.500998 1_555
O29 S13 1.500998 1_555
O30 S14 1.500998 1_555
O31 S15 1.500998 1_555
