# generated using pymatgen
data_NdErFe14B
_symmetry_space_group_name_H-M   'P 1'
_cell_length_a   8.75920200
_cell_length_b   8.75920200
_cell_length_c   12.00184500
_cell_angle_alpha   90.00000000
_cell_angle_beta   90.00000000
_cell_angle_gamma   90.00000000
_symmetry_Int_Tables_number   1
_chemical_formula_structural   NdErFe14B
_chemical_formula_sum   'Nd4 Er4 Fe56 B4'
_cell_volume   920.82499120
_cell_formula_units_Z   4
loop_
 _symmetry_equiv_pos_site_id
 _symmetry_equiv_pos_as_xyz
  1  'x, y, z'
loop_
 _atom_site_type_symbol
 _atom_site_label
 _atom_site_symmetry_multiplicity
 _atom_site_fract_x
 _atom_site_fract_y
 _atom_site_fract_z
 _atom_site_occupancy
  Nd  Nd0  1  0.23363000  0.76637000  0.50000000  1
  Nd  Nd1  1  0.76637000  0.23363000  0.50000000  1
  Nd  Nd2  1  0.26637000  0.26637000  0.00000000  1
  Nd  Nd3  1  0.73363000  0.73363000  0.00000000  1
  Er  Er0  1  0.64493000  0.64493000  0.50000000  1
  Er  Er1  1  0.35507000  0.35507000  0.50000000  1
  Er  Er2  1  0.85507000  0.14493000  0.00000000  1
  Er  Er3  1  0.14493000  0.85507000  0.00000000  1
  Fe  Fe0  1  0.93201200  0.72499300  0.37231900  1
  Fe  Fe1  1  0.06798800  0.27500700  0.37231900  1
  Fe  Fe2  1  0.56798800  0.22499300  0.87231900  1
  Fe  Fe3  1  0.43201200  0.77500700  0.87231900  1
  Fe  Fe4  1  0.06798800  0.27500700  0.62768100  1
  Fe  Fe5  1  0.93201200  0.72499300  0.62768100  1
  Fe  Fe6  1  0.43201200  0.77500700  0.12768100  1
  Fe  Fe7  1  0.56798800  0.22499300  0.12768100  1
  Fe  Fe8  1  0.72499300  0.93201200  0.37231900  1
  Fe  Fe9  1  0.27500700  0.06798800  0.37231900  1
  Fe  Fe10  1  0.22499300  0.56798800  0.87231900  1
  Fe  Fe11  1  0.77500700  0.43201200  0.87231900  1
  Fe  Fe12  1  0.27500700  0.06798800  0.62768100  1
  Fe  Fe13  1  0.72499300  0.93201200  0.62768100  1
  Fe  Fe14  1  0.77500700  0.43201200  0.12768100  1
  Fe  Fe15  1  0.22499300  0.56798800  0.12768100  1
  Fe  Fe16  1  0.14074200  0.53554300  0.32478800  1
  Fe  Fe17  1  0.85925800  0.46445700  0.32478800  1
  Fe  Fe18  1  0.35925800  0.03554300  0.82478800  1
  Fe  Fe19  1  0.64074200  0.96445700  0.82478800  1
  Fe  Fe20  1  0.85925800  0.46445700  0.67521200  1
  Fe  Fe21  1  0.14074200  0.53554300  0.67521200  1
  Fe  Fe22  1  0.64074200  0.96445700  0.17521200  1
  Fe  Fe23  1  0.35925800  0.03554300  0.17521200  1
  Fe  Fe24  1  0.53554300  0.14074200  0.32478800  1
  Fe  Fe25  1  0.46445700  0.85925800  0.32478800  1
  Fe  Fe26  1  0.03554300  0.35925800  0.82478800  1
  Fe  Fe27  1  0.96445700  0.64074200  0.82478800  1
  Fe  Fe28  1  0.46445700  0.85925800  0.67521200  1
  Fe  Fe29  1  0.53554300  0.14074200  0.67521200  1
  Fe  Fe30  1  0.96445700  0.64074200  0.17521200  1
  Fe  Fe31  1  0.03554300  0.35925800  0.17521200  1
  Fe  Fe32  1  0.18230200  0.81769800  0.25283500  1
  Fe  Fe33  1  0.81769800  0.18230200  0.25283500  1
  Fe  Fe34  1  0.31769800  0.31769800  0.75283500  1
  Fe  Fe35  1  0.68230200  0.68230200  0.75283500  1
  Fe  Fe36  1  0.81769800  0.18230200  0.74716500  1
  Fe  Fe37  1  0.18230200  0.81769800  0.74716500  1
  Fe  Fe38  1  0.68230200  0.68230200  0.24716500  1
  Fe  Fe39  1  0.31769800  0.31769800  0.24716500  1
  Fe  Fe40  1  0.40319300  0.59680700  0.30070300  1
  Fe  Fe41  1  0.59680700  0.40319300  0.30070300  1
  Fe  Fe42  1  0.09680700  0.09680700  0.80070300  1
  Fe  Fe43  1  0.90319300  0.90319300  0.80070300  1
  Fe  Fe44  1  0.59680700  0.40319300  0.69929700  1
  Fe  Fe45  1  0.40319300  0.59680700  0.69929700  1
  Fe  Fe46  1  0.90319300  0.90319300  0.19929700  1
  Fe  Fe47  1  0.09680700  0.09680700  0.19929700  1
  Fe  Fe48  1  0.00000000  0.50000000  0.50000000  1
  Fe  Fe49  1  0.50000000  0.00000000  0.00000000  1
  Fe  Fe50  1  0.50000000  0.00000000  0.50000000  1
  Fe  Fe51  1  0.00000000  0.50000000  0.00000000  1
  Fe  Fe52  1  0.50000000  0.50000000  0.11728600  1
  Fe  Fe53  1  0.00000000  0.00000000  0.61728600  1
  Fe  Fe54  1  0.50000000  0.50000000  0.88271400  1
  Fe  Fe55  1  0.00000000  0.00000000  0.38271400  1
  B  B0  1  0.87623900  0.87623900  0.50000000  1
  B  B1  1  0.12376100  0.12376100  0.50000000  1
  B  B2  1  0.62376100  0.37623900  0.00000000  1
  B  B3  1  0.37623900  0.62376100  0.00000000  1
loop_
_geom_bond_atom_site_label_1
_geom_bond_atom_site_label_2
_geom_bond_distance
_geom_bond_site_symmetry_2
Er0 Fe0 3.027100 1_555
Er0 Fe8 3.027100 1_555
Er0 Fe5 3.027100 1_555
Er0 Fe13 3.027100 1_555
Er0 Fe35 3.069597 1_555
Er0 Fe38 3.069597 1_555
Er0 Fe45 3.222188 1_555
Er0 Fe44 3.222188 1_555
Er0 Fe40 3.222188 1_555
Er0 Fe41 3.222188 1_555
Er0 Fe17 3.231933 1_555
Er0 Fe25 3.231933 1_555
Er0 Fe20 3.231933 1_555
Er0 Fe28 3.231933 1_555
Er0 Fe48 3.359236 1_655
Er0 Fe50 3.359236 1_565
Er0 Er1 3.590607 1_555
Er0 Nd1 3.756415 1_555
Er0 Nd0 3.756415 1_555
Er1 Fe9 3.027100 1_555
Er1 Fe1 3.027100 1_555
Er1 Fe12 3.027100 1_555
Er1 Fe4 3.027100 1_555
Er1 Fe39 3.069597 1_555
Er1 Fe34 3.069597 1_555
Er1 Fe45 3.222188 1_555
Er1 Fe44 3.222188 1_555
Er1 Fe40 3.222188 1_555
Er1 Fe41 3.222188 1_555
Er1 Fe16 3.231933 1_555
Er1 Fe24 3.231933 1_555
Er1 Fe29 3.231933 1_555
Er1 Fe21 3.231933 1_555
Er1 Fe48 3.359236 1_555
Er1 Fe50 3.359236 1_555
Er1 Nd1 3.756415 1_555
Er1 Nd0 3.756415 1_555
Er2 Fe7 3.027100 1_555
Er2 Fe2 3.027100 1_554
Er2 Fe14 3.027100 1_555
Er2 Fe11 3.027100 1_554
Er2 Fe33 3.069597 1_555
Er2 Fe36 3.069597 1_554
Er2 Fe43 3.222188 1_544
Er2 Fe42 3.222188 1_654
Er2 Fe46 3.222188 1_545
Er2 Fe47 3.222188 1_655
Er2 Fe22 3.231933 1_545
Er2 Fe19 3.231933 1_544
Er2 Fe26 3.231933 1_654
Er2 Fe31 3.231933 1_655
Er2 Fe49 3.359236 1_555
Er2 Fe51 3.359236 1_655
Er2 Er3 3.590607 1_645
Er2 Nd3 3.756415 1_545
Er2 Nd2 3.756415 1_655
Er3 Fe15 3.027100 1_555
Er3 Fe10 3.027100 1_554
Er3 Fe6 3.027100 1_555
Er3 Fe3 3.027100 1_554
Er3 Fe32 3.069597 1_555
Er3 Fe37 3.069597 1_554
Er3 Fe43 3.222188 1_454
Er3 Fe46 3.222188 1_455
Er3 Fe42 3.222188 1_564
Er3 Fe47 3.222188 1_565
Er3 Fe27 3.231933 1_454
Er3 Fe30 3.231933 1_455
Er3 Fe23 3.231933 1_565
Er3 Fe18 3.231933 1_564
Er3 Fe49 3.359236 1_565
Er3 Fe51 3.359236 1_555
Er3 Nd3 3.756415 1_455
Er3 Nd2 3.756415 1_565
Fe0 Fe17 2.437100 1_555
Fe0 Fe30 2.494325 1_555
Fe0 Fe16 2.534136 1_655
Fe0 Fe48 2.566478 1_655
Fe0 Fe46 2.610038 1_555
Fe0 Fe38 2.679586 1_555
Fe0 Fe32 2.742658 1_655
Fe0 Nd0 3.075620 1_655
Fe1 Fe16 2.437100 1_555
Fe1 Fe31 2.494325 1_555
Fe1 Fe17 2.534136 1_455
Fe1 Fe48 2.566478 1_555
Fe1 Fe47 2.610038 1_555
Fe1 Fe39 2.679586 1_555
Fe1 Fe33 2.742658 1_455
Fe1 Nd1 3.075620 1_455
Fe2 Fe29 2.494325 1_555
Fe2 Fe49 2.566478 1_556
Fe2 Fe44 2.610038 1_555
Fe2 Fe36 2.679586 1_555
Fe2 Fe34 2.742658 1_555
Fe2 Nd2 3.075620 1_556
Fe3 Fe49 2.566478 1_566
Fe3 Fe45 2.610038 1_555
Fe3 Fe37 2.679586 1_555
Fe3 Fe35 2.742658 1_555
Fe3 Nd3 3.075620 1_556
Fe4 Fe48 2.566478 1_555
Fe4 Fe42 2.610038 1_555
Fe4 Nd1 3.075620 1_455
Fe5 Nd0 3.075620 1_655
Fe6 Nd3 3.075620 1_555
Fe7 Nd2 3.075620 1_555
Fe8 Nd1 3.075620 1_565
Fe9 Nd0 3.075620 1_545
Fe10 Fe27 2.437100 1_455
Fe10 Fe21 2.494325 1_555
Fe10 Fe26 2.534136 1_555
Fe10 Fe51 2.566478 1_556
Fe10 Fe45 2.610038 1_555
Fe10 Fe37 2.679586 1_555
Fe10 Fe34 2.742658 1_555
Fe10 Nd2 3.075620 1_556
Fe11 Fe26 2.437100 1_655
Fe11 Fe20 2.494325 1_555
Fe11 Fe27 2.534136 1_555
Fe11 Fe51 2.566478 1_656
Fe11 Fe44 2.610038 1_555
Fe11 Fe36 2.679586 1_555
Fe11 Fe35 2.742658 1_555
Fe11 Nd3 3.075620 1_556
Fe12 Fe29 2.437100 1_555
Fe12 Fe18 2.494325 1_555
Fe12 Fe28 2.534136 1_545
Fe12 Fe50 2.566478 1_555
Fe12 Fe42 2.610038 1_555
Fe12 Fe34 2.679586 1_555
Fe12 Fe37 2.742658 1_545
Fe12 Nd0 3.075620 1_545
Fe13 Fe28 2.437100 1_555
Fe13 Fe19 2.494325 1_555
Fe13 Fe29 2.534136 1_565
Fe13 Fe50 2.566478 1_565
Fe13 Fe43 2.610038 1_555
Fe13 Fe35 2.679586 1_555
Fe13 Fe36 2.742658 1_565
Fe13 Nd1 3.075620 1_565
Fe14 Fe31 2.437100 1_655
Fe14 Fe17 2.494325 1_555
Fe14 Fe30 2.534136 1_555
Fe14 Fe51 2.566478 1_655
Fe14 Fe41 2.610038 1_555
Fe14 Fe33 2.679586 1_555
Fe14 Fe38 2.742658 1_555
Fe14 Nd3 3.075620 1_555
Fe15 Fe30 2.437100 1_455
Fe15 Fe16 2.494325 1_555
Fe15 Fe31 2.534136 1_555
Fe15 Fe51 2.566478 1_555
Fe15 Fe40 2.610038 1_555
Fe15 Fe32 2.679586 1_555
Fe15 Fe39 2.742658 1_555
Fe15 Nd2 3.075620 1_555
Fe16 Fe40 2.378295 1_555
Fe16 Fe48 2.457385 1_555
Fe16 Fe31 2.540882 1_555
Fe16 Fe30 2.540882 1_455
Fe16 Fe17 2.542983 1_455
Fe16 Fe39 2.628959 1_555
Fe16 Fe32 2.643170 1_555
Fe16 Nd0 3.028524 1_555
Fe17 Fe41 2.378295 1_555
Fe17 Fe48 2.457385 1_655
Fe17 Fe30 2.540882 1_555
Fe17 Fe31 2.540882 1_655
Fe17 Fe38 2.628959 1_555
Fe17 Fe33 2.643170 1_555
Fe17 Nd1 3.028524 1_555
Fe18 Fe42 2.378295 1_555
Fe18 Fe3 2.437100 1_545
Fe18 Fe49 2.457385 1_556
Fe18 Fe2 2.534136 1_555
Fe18 Fe29 2.540882 1_555
Fe18 Fe28 2.540882 1_545
Fe18 Fe19 2.542983 1_545
Fe18 Fe37 2.628959 1_545
Fe18 Fe34 2.643170 1_555
Fe18 Nd2 3.028524 1_556
Fe19 Fe43 2.378295 1_555
Fe19 Fe2 2.437100 1_565
Fe19 Fe49 2.457385 1_566
Fe19 Fe3 2.534136 1_555
Fe19 Fe29 2.540882 1_565
Fe19 Fe28 2.540882 1_555
Fe19 Fe36 2.628959 1_565
Fe19 Fe35 2.643170 1_555
Fe19 Nd3 3.028524 1_556
Fe20 Fe44 2.378295 1_555
Fe20 Fe5 2.437100 1_555
Fe20 Fe48 2.457385 1_655
Fe20 Fe4 2.534136 1_655
Fe20 Fe27 2.540882 1_555
Fe20 Fe26 2.540882 1_655
Fe20 Fe21 2.542983 1_655
Fe20 Fe35 2.628959 1_555
Fe20 Fe36 2.643170 1_555
Fe20 Nd1 3.028524 1_555
Fe21 Fe45 2.378295 1_555
Fe21 Fe4 2.437100 1_555
Fe21 Fe48 2.457385 1_555
Fe21 Fe5 2.534136 1_455
Fe21 Fe26 2.540882 1_555
Fe21 Fe27 2.540882 1_455
Fe21 Fe34 2.628959 1_555
Fe21 Fe37 2.643170 1_555
Fe21 Nd0 3.028524 1_555
Fe22 Fe46 2.378295 1_555
Fe22 Fe7 2.437100 1_565
Fe22 Fe49 2.457385 1_565
Fe22 Fe8 2.494325 1_555
Fe22 Fe6 2.534136 1_555
Fe22 Fe24 2.540882 1_565
Fe22 Fe25 2.540882 1_555
Fe22 Fe23 2.542983 1_565
Fe22 Fe33 2.628959 1_565
Fe22 Fe38 2.643170 1_555
Fe22 Nd3 3.028524 1_555
Fe23 Fe47 2.378295 1_555
Fe23 Fe6 2.437100 1_545
Fe23 Fe49 2.457385 1_555
Fe23 Fe9 2.494325 1_555
Fe23 Fe7 2.534136 1_555
Fe23 Fe25 2.540882 1_545
Fe23 Fe24 2.540882 1_555
Fe23 Fe32 2.628959 1_545
Fe23 Fe39 2.643170 1_555
Fe23 Nd2 3.028524 1_555
Fe24 Fe41 2.378295 1_555
Fe24 Fe9 2.437100 1_555
Fe24 Fe50 2.457385 1_555
Fe24 Fe7 2.494325 1_555
Fe24 Fe8 2.534136 1_545
Fe24 Fe25 2.542983 1_545
Fe24 Fe39 2.628959 1_555
Fe24 Fe33 2.643170 1_555
Fe24 Nd1 3.028524 1_555
Fe25 Fe40 2.378295 1_555
Fe25 Fe8 2.437100 1_555
Fe25 Fe50 2.457385 1_565
Fe25 Fe6 2.494325 1_555
Fe25 Fe9 2.534136 1_565
Fe25 Fe38 2.628959 1_555
Fe25 Fe32 2.643170 1_555
Fe25 Nd0 3.028524 1_555
Fe26 Fe42 2.378295 1_555
Fe26 Fe51 2.457385 1_556
Fe26 Fe4 2.494325 1_555
Fe26 Fe27 2.542983 1_455
Fe26 Fe36 2.628959 1_455
Fe26 Fe34 2.643170 1_555
Fe26 Nd2 3.028524 1_556
Fe27 Fe43 2.378295 1_555
Fe27 Fe51 2.457385 1_656
Fe27 Fe5 2.494325 1_555
Fe27 Fe37 2.628959 1_655
Fe27 Fe35 2.643170 1_555
Fe27 Nd3 3.028524 1_556
Fe28 Fe45 2.378295 1_555
Fe28 Fe50 2.457385 1_565
Fe28 Fe3 2.494325 1_555
Fe28 Fe29 2.542983 1_565
Fe28 Fe35 2.628959 1_555
Fe28 Fe37 2.643170 1_555
Fe28 Nd0 3.028524 1_555
Fe29 Fe44 2.378295 1_555
Fe29 Fe50 2.457385 1_555
Fe29 Fe34 2.628959 1_555
Fe29 Fe36 2.643170 1_555
Fe29 Nd1 3.028524 1_555
Fe30 Fe46 2.378295 1_555
Fe30 Fe51 2.457385 1_655
Fe30 Fe31 2.542983 1_655
Fe30 Fe32 2.628959 1_655
Fe30 Fe38 2.643170 1_555
Fe30 Nd3 3.028524 1_555
Fe31 Fe47 2.378295 1_555
Fe31 Fe51 2.457385 1_555
Fe31 Fe33 2.628959 1_455
Fe31 Fe39 2.643170 1_555
Fe31 Nd2 3.028524 1_555
Fe32 Fe46 2.636397 1_455
Fe32 Fe47 2.636397 1_565
Fe32 Fe6 2.679586 1_555
Fe32 Fe9 2.742658 1_565
Fe32 Fe55 2.743991 1_565
Fe32 Fe40 2.795922 1_555
Fe32 Nd0 3.033811 1_555
Fe33 Fe46 2.636397 1_545
Fe33 Fe47 2.636397 1_655
Fe33 Fe7 2.679586 1_555
Fe33 Fe8 2.742658 1_545
Fe33 Fe55 2.743991 1_655
Fe33 Fe41 2.795922 1_555
Fe33 Nd1 3.033811 1_555
Fe34 Fe45 2.636397 1_555
Fe34 Fe44 2.636397 1_555
Fe34 Fe4 2.679586 1_555
Fe34 Fe54 2.743991 1_555
Fe34 Fe42 2.795922 1_555
Fe34 Nd2 3.033811 1_556
Fe35 Fe44 2.636397 1_555
Fe35 Fe45 2.636397 1_555
Fe35 Fe5 2.679586 1_555
Fe35 Fe54 2.743991 1_555
Fe35 Fe43 2.795922 1_555
Fe35 Nd3 3.033811 1_556
Fe36 Fe43 2.636397 1_545
Fe36 Fe42 2.636397 1_655
Fe36 Fe4 2.742658 1_655
Fe36 Fe53 2.743991 1_655
Fe36 Fe44 2.795922 1_555
Fe36 Nd1 3.033811 1_555
Fe37 Fe43 2.636397 1_455
Fe37 Fe42 2.636397 1_565
Fe37 Fe5 2.742658 1_455
Fe37 Fe53 2.743991 1_565
Fe37 Fe45 2.795922 1_555
Fe37 Nd0 3.033811 1_555
Fe38 Fe40 2.636397 1_555
Fe38 Fe41 2.636397 1_555
Fe38 Fe8 2.679586 1_555
Fe38 Fe6 2.742658 1_555
Fe38 Fe52 2.743991 1_555
Fe38 Fe46 2.795922 1_555
Fe38 Nd3 3.033811 1_555
Fe39 Fe40 2.636397 1_555
Fe39 Fe41 2.636397 1_555
Fe39 Fe9 2.679586 1_555
Fe39 Fe7 2.742658 1_555
Fe39 Fe52 2.743991 1_555
Fe39 Fe47 2.795922 1_555
Fe39 Nd2 3.033811 1_555
Fe40 Fe41 2.398371 1_555
Fe40 Fe52 2.506782 1_555
Fe40 Fe6 2.610038 1_555
Fe40 Nd0 3.183268 1_555
Fe41 Fe52 2.506782 1_555
Fe41 Fe7 2.610038 1_555
Fe41 Nd1 3.183268 1_555
Fe42 Fe43 2.398371 1_445
Fe42 Fe53 2.506782 1_555
Fe42 Nd2 3.183268 1_556
Fe43 Fe53 2.506782 1_665
Fe43 Fe5 2.610038 1_555
Fe43 Nd3 3.183268 1_556
Fe44 Fe45 2.398371 1_555
Fe44 Fe54 2.506782 1_555
Fe44 Nd1 3.183268 1_555
Fe45 Fe54 2.506782 1_555
Fe45 Nd0 3.183268 1_555
Fe46 Fe47 2.398371 1_665
Fe46 Fe55 2.506782 1_665
Fe46 Fe8 2.610038 1_555
Fe46 Nd3 3.183268 1_555
Fe47 Fe55 2.506782 1_555
Fe47 Fe9 2.610038 1_555
Fe47 Nd2 3.183268 1_555
Fe48 Fe5 2.566478 1_455
Fe48 Nd1 3.103478 1_455
Fe48 Nd0 3.103478 1_555
Fe49 Fe6 2.566478 1_545
Fe49 Fe7 2.566478 1_555
Fe49 Nd2 3.103478 1_555
Fe49 Nd3 3.103478 1_545
Fe50 Fe9 2.566478 1_555
Fe50 Fe8 2.566478 1_545
Fe50 Nd0 3.103478 1_545
Fe50 Nd1 3.103478 1_555
Fe51 Nd3 3.103478 1_455
Fe51 Nd2 3.103478 1_555
Fe52 Nd2 3.218242 1_555
Fe52 Nd3 3.218242 1_555
Fe53 Nd1 3.218242 1_455
Fe53 Nd0 3.218242 1_545
Fe54 Nd2 3.218242 1_556
Fe54 Nd3 3.218242 1_556
Fe55 Nd1 3.218242 1_455
Fe55 Nd0 3.218242 1_545
B0 Fe53 2.081296 1_665
B0 Fe55 2.081296 1_665
B0 Fe8 2.083749 1_555
B0 Fe0 2.083749 1_555
B0 Fe13 2.083749 1_555
B0 Fe5 2.083749 1_555
B0 Er0 2.865313 1_555
B0 Nd0 3.275046 1_655
B0 Nd1 3.275046 1_565
B1 Fe53 2.081296 1_555
B1 Fe55 2.081296 1_555
B1 Fe1 2.083749 1_555
B1 Fe9 2.083749 1_555
B1 Fe12 2.083749 1_555
B1 Fe4 2.083749 1_555
B1 Er1 2.865313 1_555
B1 Nd1 3.275046 1_455
B1 Nd0 3.275046 1_545
B2 Fe52 2.081296 1_555
B2 Fe54 2.081296 1_554
B2 Fe7 2.083749 1_555
B2 Fe14 2.083749 1_555
B2 Fe11 2.083749 1_554
B2 Fe2 2.083749 1_554
B2 Er2 2.865313 1_555
B2 Nd2 3.275046 1_555
B2 Nd3 3.275046 1_555
B3 Fe52 2.081296 1_555
B3 Fe54 2.081296 1_554
B3 Fe6 2.083749 1_555
B3 Fe15 2.083749 1_555
B3 Fe3 2.083749 1_554
B3 Fe10 2.083749 1_554
B3 Er3 2.865313 1_555
B3 Nd2 3.275046 1_555
B3 Nd3 3.275046 1_555
