# generated using pymatgen
data_Er2CuSi3
_symmetry_space_group_name_H-M   'P 1'
_cell_length_a   7.42069332
_cell_length_b   7.42069332
_cell_length_c   7.42069332
_cell_angle_alpha   149.38937988
_cell_angle_beta   148.47267973
_cell_angle_gamma   44.51731629
_symmetry_Int_Tables_number   1
_chemical_formula_structural   Er2CuSi3
_chemical_formula_sum   'Er2 Cu1 Si3'
_cell_volume   108.47900297
_cell_formula_units_Z   1
loop_
 _symmetry_equiv_pos_site_id
 _symmetry_equiv_pos_as_xyz
  1  'x, y, z'
loop_
 _atom_site_type_symbol
 _atom_site_label
 _atom_site_symmetry_multiplicity
 _atom_site_fract_x
 _atom_site_fract_y
 _atom_site_fract_z
 _atom_site_occupancy
  Er  Er0  1  0.75374101  0.25374101  0.50000000  1
  Er  Er1  1  0.99758973  0.99758973  -0.00000000  1
  Cu  Cu0  1  0.16349540  0.66349540  0.50000000  1
  Si  Si0  1  0.58805832  0.58805832  -0.00000000  1
  Si  Si1  1  0.32665377  0.82665377  0.50000000  1
  Si  Si2  1  0.42046077  0.42046077  0.00000000  1
loop_
_geom_bond_atom_site_label_1
_geom_bond_atom_site_label_2
_geom_bond_distance
_geom_bond_site_symmetry_2
Er0 Si1 2.983955 1_544
Er0 Si1 2.983955 1_645
Er0 Si1 2.983955 1_555
Er0 Si1 2.983955 1_656
Er0 Si0 3.002627 1_545
Er0 Si0 3.002627 1_556
Er0 Si2 3.050925 1_555
Er0 Si2 3.050925 1_656
Er1 Si2 3.003887 1_554
Er1 Si2 3.003887 1_666
Er1 Si2 3.003887 1_655
Er1 Si2 3.003887 1_565
Er1 Si0 3.073293 1_565
Er1 Si0 3.073293 1_666
Er1 Si0 3.073293 1_655
Er1 Si0 3.073293 1_554
Er1 Si1 3.094629 1_554
Er1 Si1 3.094629 1_655
Cu0 Si1 2.241054 1_555
Cu0 Si0 2.266673 1_455
Cu0 Si0 2.266673 1_556
Cu0 Er1 3.004949 1_456
Cu0 Er1 3.004949 1_445
Cu0 Er0 3.072056 1_465
Cu0 Er0 3.072056 1_454
Cu0 Er0 3.072056 1_566
Cu0 Er0 3.072056 1_555
Si0 Si2 2.302029 1_555
Si1 Si2 2.344573 1_566
Si1 Si2 2.344573 1_555
