# generated using pymatgen
data_Al3Tl4Fe(As2O7)4
_symmetry_space_group_name_H-M   'P 1'
_cell_length_a   6.40787700
_cell_length_b   6.48534004
_cell_length_c   16.40977012
_cell_angle_alpha   100.68830622
_cell_angle_beta   93.20815835
_cell_angle_gamma   102.99199321
_symmetry_Int_Tables_number   1
_chemical_formula_structural   Al3Tl4Fe(As2O7)4
_chemical_formula_sum   'Al3 Tl4 Fe1 As8 O28'
_cell_volume   649.55469856
_cell_formula_units_Z   1
loop_
 _symmetry_equiv_pos_site_id
 _symmetry_equiv_pos_as_xyz
  1  'x, y, z'
loop_
 _atom_site_type_symbol
 _atom_site_label
 _atom_site_symmetry_multiplicity
 _atom_site_fract_x
 _atom_site_fract_y
 _atom_site_fract_z
 _atom_site_occupancy
  Al  Al0  1  0.26063900  0.68448100  0.88539000  1
  Al  Al1  1  0.73892100  0.31603900  0.11326100  1
  Al  Al2  1  0.23949300  0.31454200  0.61533000  1
  Tl  Tl0  1  0.24948400  0.99887200  0.25011800  1
  Tl  Tl1  1  0.74970500  0.99877900  0.75031500  1
  Tl  Tl2  1  0.00071700  0.00046900  0.99968000  1
  Tl  Tl3  1  0.49976500  0.99908200  0.50015200  1
  Fe  Fe0  1  0.76080600  0.68617300  0.38617500  1
  As  As0  1  0.82119800  0.24444900  0.33001600  1
  As  As1  1  0.32145600  0.24159900  0.83185900  1
  As  As2  1  0.67856200  0.75994100  0.16500000  1
  As  As3  1  0.17945300  0.75817000  0.66853900  1
  As  As4  1  0.27074400  0.47113600  0.09277100  1
  As  As5  1  0.77110700  0.46929900  0.59656700  1
  As  As6  1  0.22842300  0.52509900  0.40764100  1
  As  As7  1  0.72833100  0.52848100  0.90684600  1
  O  O0  1  0.04528500  0.32452200  0.13632600  1
  O  O1  1  0.54498600  0.31931900  0.63867100  1
  O  O2  1  0.44504700  0.67672100  0.35979400  1
  O  O3  1  0.95422800  0.67560700  0.86368900  1
  O  O4  1  0.70002500  0.25115500  0.23131900  1
  O  O5  1  0.19979200  0.25029000  0.73294900  1
  O  O6  1  0.80851700  0.75324400  0.26259100  1
  O  O7  1  0.30080800  0.74996400  0.76749100  1
  O  O8  1  0.08054900  0.71085200  0.41095200  1
  O  O9  1  0.56961100  0.70771900  0.90715600  1
  O  O10  1  0.42959800  0.29213900  0.09257500  1
  O  O11  1  0.93008500  0.29230300  0.59318900  1
  O  O12  1  0.22925200  0.64541700  0.00296500  1
  O  O13  1  0.72343200  0.64780300  0.50899100  1
  O  O14  1  0.27236600  0.35114600  0.49705700  1
  O  O15  1  0.77105300  0.35461100  0.99641500  1
  O  O16  1  0.39764100  0.63591700  0.17006100  1
  O  O17  1  0.89897400  0.63371000  0.67348800  1
  O  O18  1  0.10210600  0.36716000  0.32828500  1
  O  O19  1  0.60299000  0.36465300  0.82922900  1
  O  O20  1  0.70646000  0.36920000  0.38831900  1
  O  O21  1  0.21343000  0.37849800  0.88797700  1
  O  O22  1  0.78547700  0.62151800  0.10927700  1
  O  O23  1  0.28630000  0.62062000  0.61225500  1
  O  O24  1  0.81153500  0.99640500  0.38841900  1
  O  O25  1  0.30510000  0.98807400  0.88699300  1
  O  O26  1  0.69244400  0.01363500  0.11070000  1
  O  O27  1  0.19410500  0.01118900  0.61320600  1
loop_
_geom_bond_atom_site_label_1
_geom_bond_atom_site_label_2
_geom_bond_distance
_geom_bond_site_symmetry_2
Al0 O25 1.919942 1_555
Al0 O21 1.947805 1_555
Al0 O9 1.958784 1_555
Al0 O3 1.961777 1_455
Al0 O12 2.007229 1_556
Al0 O7 2.073887 1_555
Al1 O26 1.908441 1_555
Al1 O22 1.950039 1_555
Al1 O10 1.958322 1_555
Al1 O0 1.964882 1_655
Al1 O15 1.995094 1_554
Al1 O4 2.074033 1_555
Al2 O27 1.916355 1_555
Al2 O23 1.950374 1_555
Al2 O11 1.963432 1_455
Al2 O1 1.965737 1_555
Al2 O14 2.015374 1_555
Al2 O5 2.066220 1_555
Fe0 O24 1.957580 1_555
Fe0 O20 2.013614 1_555
Fe0 O2 2.030133 1_555
Fe0 O8 2.030760 1_655
Fe0 O13 2.096258 1_555
Fe0 O6 2.175364 1_555
As0 O20 1.472936 1_555
As0 O4 1.768736 1_555
As0 O18 1.801177 1_655
As0 O24 2.010920 1_545
As1 O21 1.469644 1_555
As1 O5 1.776921 1_555
As1 O19 1.807606 1_555
As1 O25 2.004452 1_545
As2 O22 1.467499 1_555
As2 O6 1.775602 1_555
As2 O16 1.812384 1_555
As2 O26 1.998934 1_565
As3 O23 1.468795 1_555
As3 O7 1.775818 1_555
As3 O17 1.810161 1_455
As3 O27 2.004701 1_565
As4 O16 1.550142 1_555
As4 O10 1.707056 1_555
As4 O0 1.803368 1_555
As4 O12 2.056477 1_555
As5 O17 1.547170 1_555
As5 O11 1.693213 1_555
As5 O1 1.802934 1_555
As5 O13 2.055663 1_555
As6 O18 1.553889 1_555
As6 O8 1.687242 1_555
As6 O2 1.817928 1_555
As6 O14 2.053182 1_555
As7 O19 1.547915 1_555
As7 O9 1.707516 1_555
As7 O3 1.803236 1_555
As7 O15 2.053119 1_555
O0 Tl2 2.727041 1_554
O1 Tl3 2.732886 1_545
O2 Tl3 2.755443 1_555
O3 Tl2 2.721562 1_665
O17 Tl1 2.855840 1_555
O19 Tl1 2.861913 1_545
O24 Tl3 2.786931 1_555
O25 Tl2 2.765715 1_565
O26 Tl2 2.765744 1_654
O27 Tl3 2.775960 1_545
