# generated using pymatgen
data_NdGeIr
_symmetry_space_group_name_H-M   'P 1'
_cell_length_a   4.46364873
_cell_length_b   7.21255704
_cell_length_c   7.47284317
_cell_angle_alpha   90.00000000
_cell_angle_beta   90.00000000
_cell_angle_gamma   90.00000000
_symmetry_Int_Tables_number   1
_chemical_formula_structural   NdGeIr
_chemical_formula_sum   'Nd4 Ge4 Ir4'
_cell_volume   240.58311233
_cell_formula_units_Z   4
loop_
 _symmetry_equiv_pos_site_id
 _symmetry_equiv_pos_as_xyz
  1  'x, y, z'
loop_
 _atom_site_type_symbol
 _atom_site_label
 _atom_site_symmetry_multiplicity
 _atom_site_fract_x
 _atom_site_fract_y
 _atom_site_fract_z
 _atom_site_occupancy
  Nd  Nd0  1  0.25000000  0.98312643  0.80419398  1
  Nd  Nd1  1  0.25000000  0.48312643  0.69580602  1
  Nd  Nd2  1  0.75000000  0.01687357  0.19580602  1
  Nd  Nd3  1  0.75000000  0.51687357  0.30419398  1
  Ge  Ge0  1  0.25000000  0.82178767  0.41445146  1
  Ge  Ge1  1  0.25000000  0.32178767  0.08554854  1
  Ge  Ge2  1  0.75000000  0.17821233  0.58554854  1
  Ge  Ge3  1  0.75000000  0.67821233  0.91445146  1
  Ir  Ir0  1  0.25000000  0.19559800  0.40936734  1
  Ir  Ir1  1  0.25000000  0.69559800  0.09063266  1
  Ir  Ir2  1  0.75000000  0.80440200  0.59063266  1
  Ir  Ir3  1  0.75000000  0.30440200  0.90936734  1
loop_
_geom_bond_atom_site_label_1
_geom_bond_atom_site_label_2
_geom_bond_distance
_geom_bond_site_symmetry_2
Ge0 Ir1 2.585350 1_555
Ge0 Ir2 2.594250 1_555
Ge0 Ir2 2.594250 1_455
Ge0 Ir0 2.696396 1_565
Ge0 Nd2 3.103308 1_465
Ge0 Nd2 3.103308 1_565
Ge0 Nd0 3.136349 1_555
Ge0 Nd1 3.222878 1_555
Ge0 Nd3 3.239821 1_555
Ge0 Nd3 3.239821 1_455
Ge1 Ir0 2.585350 1_555
Ge1 Ir3 2.594250 1_454
Ge1 Ir3 2.594250 1_554
Ge1 Ir1 2.696396 1_555
Ge1 Nd3 3.103308 1_455
Ge1 Nd3 3.103308 1_555
Ge1 Nd1 3.136349 1_554
Ge1 Nd0 3.222878 1_544
Ge1 Nd2 3.239821 1_555
Ge1 Nd2 3.239821 1_455
Ge2 Ir3 2.585350 1_555
Ge2 Ir0 2.594250 1_555
Ge2 Ir0 2.594250 1_655
Ge2 Ir2 2.696396 1_545
Ge2 Nd0 3.103308 1_645
Ge2 Nd0 3.103308 1_545
Ge2 Nd2 3.136349 1_555
Ge2 Nd3 3.222878 1_555
Ge2 Nd1 3.239821 1_655
Ge2 Nd1 3.239821 1_555
Ge3 Ir2 2.585350 1_555
Ge3 Ir1 2.594250 1_656
Ge3 Ir1 2.594250 1_556
Ge3 Ir3 2.696396 1_555
Ge3 Nd1 3.103308 1_655
Ge3 Nd1 3.103308 1_555
Ge3 Nd3 3.136349 1_556
Ge3 Nd2 3.222878 1_566
Ge3 Nd0 3.239821 1_555
Ge3 Nd0 3.239821 1_655
Ir0 Nd1 2.980352 1_555
Ir0 Nd2 3.031443 1_455
Ir0 Nd2 3.031443 1_555
Ir0 Nd3 3.311835 1_455
Ir0 Nd3 3.311835 1_555
Ir0 Nd0 3.324720 1_545
Ir1 Nd0 2.980352 1_554
Ir1 Nd3 3.031443 1_555
Ir1 Nd3 3.031443 1_455
Ir1 Nd2 3.311835 1_465
Ir1 Nd2 3.311835 1_565
Ir1 Nd1 3.324720 1_554
Ir2 Nd3 2.980352 1_555
Ir2 Nd0 3.031443 1_655
Ir2 Nd0 3.031443 1_555
Ir2 Nd1 3.311835 1_655
Ir2 Nd1 3.311835 1_555
Ir2 Nd2 3.324720 1_565
Ir3 Nd2 2.980352 1_556
Ir3 Nd1 3.031443 1_555
Ir3 Nd1 3.031443 1_655
Ir3 Nd0 3.311835 1_645
Ir3 Nd0 3.311835 1_545
Ir3 Nd3 3.324720 1_556
