# generated using pymatgen
data_NaLaV4O12
_symmetry_space_group_name_H-M   'P 1'
_cell_length_a   5.58483894
_cell_length_b   5.58483894
_cell_length_c   7.40811884
_cell_angle_alpha   90.00000000
_cell_angle_beta   90.00000000
_cell_angle_gamma   98.53519432
_symmetry_Int_Tables_number   1
_chemical_formula_structural   NaLaV4O12
_chemical_formula_sum   'Na1 La1 V4 O12'
_cell_volume   228.50333974
_cell_formula_units_Z   1
loop_
 _symmetry_equiv_pos_site_id
 _symmetry_equiv_pos_as_xyz
  1  'x, y, z'
loop_
 _atom_site_type_symbol
 _atom_site_label
 _atom_site_symmetry_multiplicity
 _atom_site_fract_x
 _atom_site_fract_y
 _atom_site_fract_z
 _atom_site_occupancy
  Na  Na0  1  0.98339403  0.01660597  0.50000000  1
  La  La0  1  0.46662953  0.53337047  0.00000000  1
  V  V0  1  0.47353465  0.03421552  0.25623661  1
  V  V1  1  0.47353465  0.03421552  0.74376339  1
  V  V2  1  0.96578448  0.52646535  0.74376339  1
  V  V3  1  0.96578448  0.52646535  0.25623661  1
  O  O0  1  0.28630572  0.24411743  0.24878943  1
  O  O1  1  0.75588257  0.71369428  0.24878943  1
  O  O2  1  0.75588257  0.71369428  0.75121057  1
  O  O3  1  0.28630572  0.24411743  0.75121057  1
  O  O4  1  0.25988450  0.74011550  0.22115124  1
  O  O5  1  0.77035804  0.22964196  0.27833048  1
  O  O6  1  0.77035804  0.22964196  0.72166952  1
  O  O7  1  0.25988450  0.74011550  0.77884876  1
  O  O8  1  0.53560156  0.01588641  0.00000000  1
  O  O9  1  0.46952532  0.96926392  0.50000000  1
  O  O10  1  0.98411359  0.46439844  0.00000000  1
  O  O11  1  0.03073608  0.53047468  0.50000000  1
loop_
_geom_bond_atom_site_label_1
_geom_bond_atom_site_label_2
_geom_bond_distance
_geom_bond_site_symmetry_2
Na0 O6 2.438846 1_555
Na0 O5 2.438846 1_555
Na0 O1 2.702151 1_545
Na0 O3 2.702151 1_655
Na0 O0 2.702151 1_655
Na0 O2 2.702151 1_545
Na0 O9 2.766589 1_645
Na0 O11 2.766589 1_645
Na0 O9 2.842683 1_545
Na0 O11 2.842683 1_655
La0 O4 2.397120 1_555
La0 O7 2.397120 1_554
La0 O3 2.556911 1_554
La0 O1 2.556911 1_555
La0 O2 2.556911 1_554
La0 O0 2.556911 1_555
La0 O10 2.664970 1_455
La0 O8 2.664970 1_565
La0 O10 2.971751 1_555
La0 O8 2.971751 1_555
O0 V0 1.683591 1_555
O1 V3 1.683591 1_555
O2 V2 1.683591 1_555
O3 V1 1.683591 1_555
O4 V0 1.899303 1_565
O4 V3 1.899303 1_455
O5 V3 1.851743 1_555
O5 V0 1.851743 1_555
O6 V1 1.851743 1_555
O6 V2 1.851743 1_555
O7 V1 1.899303 1_565
O7 V2 1.899303 1_455
O8 V1 1.935058 1_554
O8 V0 1.935058 1_555
O9 V0 1.841382 1_565
O9 V1 1.841382 1_565
O10 V2 1.935058 1_554
O10 V3 1.935058 1_555
O11 V2 1.841382 1_455
O11 V3 1.841382 1_455
