# generated using pymatgen
data_K2Fe2Co2C12N12O
_symmetry_space_group_name_H-M   'P 1'
_cell_length_a   7.42506300
_cell_length_b   7.96291880
_cell_length_c   10.85455014
_cell_angle_alpha   90.16218382
_cell_angle_beta   90.13346708
_cell_angle_gamma   90.16444935
_symmetry_Int_Tables_number   1
_chemical_formula_structural   K2Fe2Co2C12N12O
_chemical_formula_sum   'K2 Fe2 Co2 C12 N12 O1'
_cell_volume   641.77019511
_cell_formula_units_Z   1
loop_
 _symmetry_equiv_pos_site_id
 _symmetry_equiv_pos_as_xyz
  1  'x, y, z'
loop_
 _atom_site_type_symbol
 _atom_site_label
 _atom_site_symmetry_multiplicity
 _atom_site_fract_x
 _atom_site_fract_y
 _atom_site_fract_z
 _atom_site_occupancy
  K  K0  1  0.72129000  0.47024600  0.76635200  1
  K  K1  1  0.72136700  0.47041300  0.23106500  1
  Fe  Fe0  1  0.24037100  0.48267800  0.49990400  1
  Fe  Fe1  1  0.76226800  0.98136200  0.00007300  1
  Co  Co0  1  0.25968500  0.48346600  0.00000800  1
  Co  Co1  1  0.73874100  0.98129600  0.49989700  1
  C  C0  1  0.04710000  0.27563600  0.49923400  1
  C  C1  1  0.95229600  0.77639500  0.99986800  1
  C  C2  1  0.42981500  0.68919700  0.50029800  1
  C  C3  1  0.57301300  0.18996300  0.00000700  1
  C  C4  1  0.24818200  0.48317400  0.30037600  1
  C  C5  1  0.24816200  0.48368900  0.69965300  1
  C  C6  1  0.75290500  0.98446800  0.19918400  1
  C  C7  1  0.75197100  0.98394500  0.80085200  1
  C  C8  1  0.02346600  0.66701600  0.49955800  1
  C  C9  1  0.96733200  0.17545800  0.00017200  1
  C  C10  1  0.44481500  0.28898700  0.50018400  1
  C  C11  1  0.55671100  0.78792500  0.99967000  1
  N  N0  1  0.53417700  0.79964900  0.50066100  1
  N  N1  1  0.47872000  0.30784800  0.00122400  1
  N  N2  1  0.94773400  0.16052900  0.49888000  1
  N  N3  1  0.05061000  0.66172300  0.99876800  1
  N  N4  1  0.25845700  0.48157100  0.19283000  1
  N  N5  1  0.25829700  0.48401600  0.80724500  1
  N  N6  1  0.74542700  0.98486000  0.30682500  1
  N  N7  1  0.74278500  0.98490800  0.69324200  1
  N  N8  1  0.54986300  0.17943400  0.50111500  1
  N  N9  1  0.45763800  0.67325500  0.99844800  1
  N  N10  1  0.92512400  0.78219900  0.49951100  1
  N  N11  1  0.06612600  0.29033400  0.00072900  1
  O  O0  1  0.79585300  0.45756100  0.49416600  1
loop_
_geom_bond_atom_site_label_1
_geom_bond_atom_site_label_2
_geom_bond_distance
_geom_bond_site_symmetry_2
K0 O0 3.008618 1_555
K1 O0 2.909779 1_555
Co0 N5 2.092374 1_554
Co0 N4 2.093134 1_555
Co0 N11 2.101933 1_555
Co0 N9 2.105255 1_554
Co0 N3 2.106561 1_554
Co0 N1 2.147989 1_555
Co1 N0 2.094477 1_555
Co1 N6 2.096684 1_555
Co1 N7 2.098932 1_555
Co1 N2 2.105367 1_565
Co1 N10 2.107432 1_555
Co1 N8 2.113995 1_565
C0 N2 1.174981 1_455
C0 Fe0 2.182612 1_555
C1 N3 1.170737 1_655
C1 Fe1 2.160537 1_556
C2 N0 1.170507 1_555
C2 Fe0 2.160937 1_555
C3 N1 1.172723 1_555
C3 Fe1 2.178815 1_545
C4 N4 1.170067 1_555
C4 Fe0 2.166713 1_555
C5 N5 1.170105 1_555
C5 Fe0 2.168814 1_555
C6 N6 1.169838 1_555
C6 Fe1 2.162614 1_555
C7 N7 1.169937 1_555
C7 Fe1 2.163786 1_556
C8 N10 1.173999 1_455
C8 Fe0 2.182211 1_555
C9 N11 1.170895 1_655
C9 Fe1 2.166475 1_545
C10 N8 1.171929 1_555
C10 Fe0 2.167173 1_555
C11 N9 1.170946 1_555
C11 Fe1 2.165309 1_556
