# generated using pymatgen
data_Yb(HoSe2)2
_symmetry_space_group_name_H-M   'P 1'
_cell_length_a   4.11892800
_cell_length_b   7.02391800
_cell_length_c   7.19556986
_cell_angle_alpha   71.91763271
_cell_angle_beta   90.00000000
_cell_angle_gamma   90.00000000
_symmetry_Int_Tables_number   1
_chemical_formula_structural   Yb(HoSe2)2
_chemical_formula_sum   'Yb1 Ho2 Se4'
_cell_volume   197.89362253
_cell_formula_units_Z   1
loop_
 _symmetry_equiv_pos_site_id
 _symmetry_equiv_pos_as_xyz
  1  'x, y, z'
loop_
 _atom_site_type_symbol
 _atom_site_label
 _atom_site_symmetry_multiplicity
 _atom_site_fract_x
 _atom_site_fract_y
 _atom_site_fract_z
 _atom_site_occupancy
  Yb  Yb0  1  0.00000000  0.50000000  0.50000000  1
  Ho  Ho0  1  0.00000000  0.00000000  0.00000000  1
  Ho  Ho1  1  0.50000000  0.50000000  0.00000000  1
  Se  Se0  1  0.50000000  0.75627200  0.24319000  1
  Se  Se1  1  0.00000000  0.25792200  0.23340900  1
  Se  Se2  1  0.50000000  0.24372800  0.75681000  1
  Se  Se3  1  0.00000000  0.74207800  0.76659100  1
loop_
_geom_bond_atom_site_label_1
_geom_bond_atom_site_label_2
_geom_bond_distance
_geom_bond_site_symmetry_2
Ho0 Se3 2.826925 1_544
Ho0 Se1 2.826925 1_555
Ho0 Se0 2.893886 1_445
Ho0 Se0 2.893886 1_545
Ho0 Se2 2.893886 1_554
Ho0 Se2 2.893886 1_454
Ho1 Se3 2.860165 1_654
Ho1 Se3 2.860165 1_554
Ho1 Se1 2.860165 1_555
Ho1 Se1 2.860165 1_655
Ho1 Se0 2.873599 1_555
Ho1 Se2 2.873599 1_554
Se0 Yb0 2.971764 1_555
Se0 Yb0 2.971764 1_655
Se1 Yb0 2.931840 1_555
Se2 Yb0 2.971764 1_555
Se2 Yb0 2.971764 1_655
Se3 Yb0 2.931840 1_555
