# generated using pymatgen
data_CaTl6C2(O3F)2
_symmetry_space_group_name_H-M   'P 1'
_cell_length_a   7.44778090
_cell_length_b   7.96457386
_cell_length_c   8.05103817
_cell_angle_alpha   125.12998996
_cell_angle_beta   90.88067722
_cell_angle_gamma   89.63530223
_symmetry_Int_Tables_number   1
_chemical_formula_structural   CaTl6C2(O3F)2
_chemical_formula_sum   'Ca1 Tl6 C2 O6 F2'
_cell_volume   390.53589181
_cell_formula_units_Z   1
loop_
 _symmetry_equiv_pos_site_id
 _symmetry_equiv_pos_as_xyz
  1  'x, y, z'
loop_
 _atom_site_type_symbol
 _atom_site_label
 _atom_site_symmetry_multiplicity
 _atom_site_fract_x
 _atom_site_fract_y
 _atom_site_fract_z
 _atom_site_occupancy
  Ca  Ca0  1  0.50957000  0.15514300  0.04581700  1
  Tl  Tl0  1  0.27420400  0.67764100  0.45397200  1
  Tl  Tl1  1  0.85965600  0.77952900  0.59472600  1
  Tl  Tl2  1  0.67815700  0.30821600  0.63898900  1
  Tl  Tl3  1  0.13725000  0.11188400  0.35085600  1
  Tl  Tl4  1  0.16967800  0.35497700  0.89787400  1
  Tl  Tl5  1  0.59963700  0.74513600  0.18326200  1
  C  C0  1  0.27171400  0.72359700  0.88068000  1
  C  C1  1  0.82958200  0.32337200  0.13388300  1
  O  O0  1  0.21504000  0.73126600  0.03786200  1
  O  O1  1  0.32985800  0.89292700  0.90811000  1
  O  O2  1  0.27136500  0.55362800  0.70283900  1
  O  O3  1  0.76338200  0.23006900  0.94738900  1
  O  O4  1  0.76217000  0.27101400  0.24738200  1
  O  O5  1  0.94974200  0.46420000  0.20103900  1
  F  F0  1  0.86343500  0.97882500  0.43901000  1
  F  F1  1  0.44264300  0.03190800  0.50297700  1
loop_
_geom_bond_atom_site_label_1
_geom_bond_atom_site_label_2
_geom_bond_distance
_geom_bond_site_symmetry_2
Ca0 O1 2.169666 1_544
Ca0 O3 2.272027 1_554
Ca0 O4 2.286741 1_555
C0 O2 1.285258 1_555
C0 O0 1.307848 1_556
C0 O1 1.310289 1_555
C1 O5 1.285013 1_555
C1 O4 1.310071 1_555
C1 O3 1.321943 1_554
O0 Tl4 2.545610 1_554
O0 Tl3 2.665788 1_565
O2 Tl0 2.696244 1_555
O5 Tl4 2.656789 1_654
O5 Tl1 2.772466 1_555
F0 Tl1 2.526635 1_555
F0 Tl2 2.557345 1_565
F0 Tl3 2.592919 1_665
F0 Tl5 2.659996 1_555
F1 Tl2 2.517043 1_555
F1 Tl5 2.549897 1_545
