# generated using pymatgen
data_Sr2InF7
_symmetry_space_group_name_H-M   'P 1'
_cell_length_a   12.30250104
_cell_length_b   5.45721209
_cell_length_c   8.30371036
_cell_angle_alpha   89.34757165
_cell_angle_beta   90.00000000
_cell_angle_gamma   90.00000000
_symmetry_Int_Tables_number   1
_chemical_formula_structural   Sr2InF7
_chemical_formula_sum   'Sr8 In4 F28'
_cell_volume   557.45302751
_cell_formula_units_Z   4
loop_
 _symmetry_equiv_pos_site_id
 _symmetry_equiv_pos_as_xyz
  1  'x, y, z'
loop_
 _atom_site_type_symbol
 _atom_site_label
 _atom_site_symmetry_multiplicity
 _atom_site_fract_x
 _atom_site_fract_y
 _atom_site_fract_z
 _atom_site_occupancy
  Sr  Sr0  1  0.27855570  0.76289266  0.44570771  1
  Sr  Sr1  1  0.77855570  0.23710734  0.05429229  1
  Sr  Sr2  1  0.72144430  0.23710734  0.55429229  1
  Sr  Sr3  1  0.22144430  0.76289266  0.94570771  1
  Sr  Sr4  1  0.06245266  0.23637627  0.67544329  1
  Sr  Sr5  1  0.56245266  0.76362373  0.82455671  1
  Sr  Sr6  1  0.93754734  0.76362373  0.32455671  1
  Sr  Sr7  1  0.43754734  0.23637627  0.17544329  1
  In  In0  1  0.37531310  0.27891145  0.71254955  1
  In  In1  1  0.87531310  0.72108855  0.78745045  1
  In  In2  1  0.62468690  0.72108855  0.28745045  1
  In  In3  1  0.12468690  0.27891145  0.21254955  1
  F  F0  1  0.85826145  0.79254256  0.03532037  1
  F  F1  1  0.35826145  0.20745744  0.46467963  1
  F  F2  1  0.14173855  0.20745744  0.96467963  1
  F  F3  1  0.64173855  0.79254256  0.53532037  1
  F  F4  1  0.57268618  0.36664012  0.37459002  1
  F  F5  1  0.07268618  0.63335988  0.12540998  1
  F  F6  1  0.42731382  0.63335988  0.62540998  1
  F  F7  1  0.92731382  0.36664012  0.87459002  1
  F  F8  1  0.22911524  0.49397741  0.70165776  1
  F  F9  1  0.72911524  0.50602259  0.79834224  1
  F  F10  1  0.77088476  0.50602259  0.29834224  1
  F  F11  1  0.27088476  0.49397741  0.20165776  1
  F  F12  1  0.39582861  0.49401147  0.92587532  1
  F  F13  1  0.89582861  0.50598853  0.57412468  1
  F  F14  1  0.60417139  0.50598853  0.07412468  1
  F  F15  1  0.10417139  0.49401147  0.42587532  1
  F  F16  1  0.24499242  0.01126361  0.69357299  1
  F  F17  1  0.74499242  0.98873639  0.80642701  1
  F  F18  1  0.75500758  0.98873639  0.30642701  1
  F  F19  1  0.25500758  0.01126361  0.19357299  1
  F  F20  1  0.39606618  0.01279125  0.91035657  1
  F  F21  1  0.89606618  0.98720875  0.58964343  1
  F  F22  1  0.60393382  0.98720875  0.08964343  1
  F  F23  1  0.10393382  0.01279125  0.41035657  1
  F  F24  1  0.04279814  0.79833232  0.78662644  1
  F  F25  1  0.54279814  0.20166768  0.71337356  1
  F  F26  1  0.95720186  0.20166768  0.21337356  1
  F  F27  1  0.45720186  0.79833232  0.28662644  1
loop_
_geom_bond_atom_site_label_1
_geom_bond_atom_site_label_2
_geom_bond_distance
_geom_bond_site_symmetry_2
F0 In1 2.109666 1_554
F0 Sr6 2.595388 1_555
F0 Sr1 2.623155 1_565
F1 In0 2.109666 1_555
F1 Sr7 2.595388 1_555
F1 Sr0 2.623155 1_545
F2 In3 2.109666 1_556
F2 Sr4 2.595388 1_555
F2 Sr3 2.623155 1_545
F3 In2 2.109666 1_555
F3 Sr5 2.595388 1_555
F3 Sr2 2.623155 1_565
F4 In2 2.154641 1_555
F4 Sr7 2.455760 1_555
F4 Sr2 2.459994 1_555
F5 In3 2.154641 1_555
F5 Sr6 2.455760 1_455
F5 Sr3 2.459994 1_554
F6 In0 2.154641 1_555
F6 Sr5 2.455760 1_555
F6 Sr0 2.459994 1_555
F7 In1 2.154641 1_555
F7 Sr4 2.455760 1_655
F7 Sr1 2.459994 1_556
F8 In0 2.149000 1_555
F8 Sr4 2.496915 1_555
F8 Sr3 2.517351 1_555
F8 Sr0 2.640003 1_555
F9 In1 2.149000 1_555
F9 Sr5 2.496915 1_555
F9 Sr2 2.517351 1_555
F9 Sr1 2.640003 1_556
F10 In2 2.149000 1_555
F10 Sr6 2.496915 1_555
F10 Sr1 2.517351 1_555
F10 Sr2 2.640003 1_555
F11 In3 2.149000 1_555
F11 Sr7 2.496915 1_555
F11 Sr0 2.517351 1_555
F11 Sr3 2.640003 1_554
F12 In0 2.151003 1_555
F12 Sr7 2.543307 1_556
F12 Sr3 2.605436 1_555
F12 Sr5 2.654525 1_555
F13 In1 2.151003 1_555
F13 Sr6 2.543307 1_555
F13 Sr2 2.605436 1_555
F13 Sr4 2.654525 1_655
F14 In2 2.151003 1_555
F14 Sr5 2.543307 1_554
F14 Sr1 2.605436 1_555
F14 Sr7 2.654525 1_555
F15 In3 2.151003 1_555
F15 Sr4 2.543307 1_555
F15 Sr0 2.605436 1_555
F15 Sr6 2.654525 1_455
F16 In0 2.175760 1_555
F16 Sr3 2.497965 1_545
F16 Sr0 2.511447 1_545
F16 Sr4 2.563354 1_555
F17 In1 2.175760 1_555
F17 Sr2 2.497965 1_565
F17 Sr1 2.511447 1_566
F17 Sr5 2.563354 1_555
F18 In2 2.175760 1_555
F18 Sr1 2.497965 1_565
F18 Sr2 2.511447 1_565
F18 Sr6 2.563354 1_555
F19 In3 2.175760 1_555
F19 Sr0 2.497965 1_545
F19 Sr3 2.511447 1_544
F19 Sr7 2.563354 1_555
F20 In0 2.194966 1_555
F20 Sr3 2.559687 1_545
F20 Sr5 2.562946 1_545
F20 Sr7 2.579856 1_556
F21 In1 2.194966 1_555
F21 Sr2 2.559687 1_565
F21 Sr4 2.562946 1_665
F21 Sr6 2.579856 1_555
F22 In2 2.194966 1_555
F22 Sr1 2.559687 1_565
F22 Sr7 2.562946 1_565
F22 Sr5 2.579856 1_554
F23 In3 2.194966 1_555
F23 Sr0 2.559687 1_545
F23 Sr6 2.562946 1_445
F23 Sr4 2.579856 1_555
F24 In1 2.103157 1_455
F24 Sr4 2.564186 1_565
F24 Sr3 2.570376 1_555
F25 In0 2.103157 1_555
F25 Sr5 2.564186 1_545
F25 Sr2 2.570376 1_555
F26 In3 2.103157 1_655
F26 Sr6 2.564186 1_545
F26 Sr1 2.570376 1_555
F27 In2 2.103157 1_555
F27 Sr7 2.564186 1_565
F27 Sr0 2.570376 1_555
