# generated using pymatgen
data_TbFe5P3
_symmetry_space_group_name_H-M   'P 1'
_cell_length_a   3.65774400
_cell_length_b   10.32355500
_cell_length_c   11.82938300
_cell_angle_alpha   90.00000000
_cell_angle_beta   90.00000000
_cell_angle_gamma   90.00000000
_symmetry_Int_Tables_number   1
_chemical_formula_structural   TbFe5P3
_chemical_formula_sum   'Tb4 Fe20 P12'
_cell_volume   446.68840120
_cell_formula_units_Z   4
loop_
 _symmetry_equiv_pos_site_id
 _symmetry_equiv_pos_as_xyz
  1  'x, y, z'
loop_
 _atom_site_type_symbol
 _atom_site_label
 _atom_site_symmetry_multiplicity
 _atom_site_fract_x
 _atom_site_fract_y
 _atom_site_fract_z
 _atom_site_occupancy
  Tb  Tb0  1  0.25000000  0.58135900  0.70430000  1
  Tb  Tb1  1  0.25000000  0.91864100  0.20430000  1
  Tb  Tb2  1  0.75000000  0.41864100  0.29570000  1
  Tb  Tb3  1  0.75000000  0.08135900  0.79570000  1
  Fe  Fe0  1  0.25000000  0.70603600  0.98791200  1
  Fe  Fe1  1  0.25000000  0.79396400  0.48791200  1
  Fe  Fe2  1  0.75000000  0.29396400  0.01208800  1
  Fe  Fe3  1  0.75000000  0.20603600  0.51208800  1
  Fe  Fe4  1  0.25000000  0.40486300  0.49026400  1
  Fe  Fe5  1  0.25000000  0.09513700  0.99026400  1
  Fe  Fe6  1  0.75000000  0.59513700  0.50973600  1
  Fe  Fe7  1  0.75000000  0.90486300  0.00973600  1
  Fe  Fe8  1  0.25000000  0.21928200  0.17609500  1
  Fe  Fe9  1  0.25000000  0.28071800  0.67609500  1
  Fe  Fe10  1  0.75000000  0.78071800  0.82390500  1
  Fe  Fe11  1  0.75000000  0.71928200  0.32390500  1
  Fe  Fe12  1  0.25000000  0.87716400  0.70017200  1
  Fe  Fe13  1  0.25000000  0.62283600  0.20017200  1
  Fe  Fe14  1  0.75000000  0.12283600  0.29982800  1
  Fe  Fe15  1  0.75000000  0.37716400  0.79982800  1
  Fe  Fe16  1  0.25000000  0.46382000  0.93321900  1
  Fe  Fe17  1  0.25000000  0.03618000  0.43321900  1
  Fe  Fe18  1  0.75000000  0.53618000  0.06678100  1
  Fe  Fe19  1  0.75000000  0.96382000  0.56678100  1
  P  P0  1  0.25000000  0.42086200  0.11263100  1
  P  P1  1  0.25000000  0.07913800  0.61263100  1
  P  P2  1  0.75000000  0.57913800  0.88736900  1
  P  P3  1  0.75000000  0.92086200  0.38736900  1
  P  P4  1  0.25000000  0.26706200  0.87136200  1
  P  P5  1  0.25000000  0.23293800  0.37136200  1
  P  P6  1  0.75000000  0.73293800  0.12863800  1
  P  P7  1  0.75000000  0.76706200  0.62863800  1
  P  P8  1  0.25000000  0.60223000  0.39593700  1
  P  P9  1  0.25000000  0.89777000  0.89593700  1
  P  P10  1  0.75000000  0.39777000  0.60406300  1
  P  P11  1  0.75000000  0.10223000  0.10406300  1
loop_
_geom_bond_atom_site_label_1
_geom_bond_atom_site_label_2
_geom_bond_distance
_geom_bond_site_symmetry_2
Fe0 P9 2.258692 1_555
Fe0 P6 2.488601 1_456
Fe0 P6 2.488601 1_556
Fe0 P2 2.544711 1_455
Fe0 P2 2.544711 1_555
Fe1 P8 2.258692 1_555
Fe1 P7 2.488601 1_455
Fe1 P7 2.488601 1_555
Fe1 P3 2.544711 1_555
Fe1 P3 2.544711 1_455
Fe2 P11 2.258692 1_555
Fe2 P4 2.488601 1_554
Fe2 P4 2.488601 1_654
Fe2 P0 2.544711 1_555
Fe2 P0 2.544711 1_655
Fe3 P10 2.258692 1_555
Fe3 P5 2.488601 1_655
Fe3 P5 2.488601 1_555
Fe3 P1 2.544711 1_555
Fe3 P1 2.544711 1_655
Fe4 P5 2.264627 1_555
Fe4 P10 2.272073 1_555
Fe4 P10 2.272073 1_455
Fe4 P8 2.323059 1_555
Fe4 Tb2 2.943168 1_455
Fe4 Tb2 2.943168 1_555
Fe4 Tb0 3.119377 1_555
Fe5 P4 2.264627 1_555
Fe5 P11 2.272073 1_456
Fe5 P11 2.272073 1_556
Fe5 P9 2.323059 1_545
Fe5 Tb3 2.943168 1_455
Fe5 Tb3 2.943168 1_555
Fe5 Tb1 3.119377 1_546
Fe6 P7 2.264627 1_555
Fe6 P8 2.272073 1_655
Fe6 P8 2.272073 1_555
Fe6 P10 2.323059 1_555
Fe6 Tb0 2.943168 1_655
Fe6 Tb0 2.943168 1_555
Fe6 Tb2 3.119377 1_555
Fe7 P6 2.264627 1_555
Fe7 P9 2.272073 1_654
Fe7 P9 2.272073 1_554
Fe7 P11 2.323059 1_565
Fe7 Tb1 2.943168 1_655
Fe7 Tb1 2.943168 1_555
Fe7 Tb3 3.119377 1_564
Fe8 P0 2.212298 1_555
Fe8 P5 2.314186 1_555
Fe8 P11 2.351818 1_455
Fe8 P11 2.351818 1_555
Fe8 Tb2 3.095534 1_455
Fe8 Tb2 3.095534 1_555
Fe8 Tb1 3.121566 1_545
Fe9 P1 2.212298 1_555
Fe9 P4 2.314186 1_555
Fe9 P10 2.351818 1_455
Fe9 P10 2.351818 1_555
Fe9 Tb3 3.095534 1_555
Fe9 Tb3 3.095534 1_455
Fe9 Tb0 3.121566 1_555
Fe10 P2 2.212298 1_555
Fe10 P7 2.314186 1_555
Fe10 P9 2.351818 1_655
Fe10 P9 2.351818 1_555
Fe10 Tb0 3.095534 1_655
Fe10 Tb0 3.095534 1_555
Fe10 Tb3 3.121566 1_565
Fe11 P3 2.212298 1_555
Fe11 P6 2.314186 1_555
Fe11 P8 2.351818 1_655
Fe11 P8 2.351818 1_555
Fe11 Tb1 3.095534 1_555
Fe11 Tb1 3.095534 1_655
Fe11 Tb2 3.121566 1_555
Fe12 P7 2.313610 1_455
Fe12 P7 2.313610 1_555
Fe12 P9 2.325529 1_555
Fe12 P1 2.328084 1_565
Fe12 Tb3 3.010897 1_465
Fe12 Tb3 3.010897 1_565
Fe12 Tb0 3.054150 1_555
Fe13 P6 2.313610 1_555
Fe13 P6 2.313610 1_455
Fe13 P8 2.325529 1_555
Fe13 P0 2.328084 1_555
Fe13 Tb2 3.010897 1_455
Fe13 Tb2 3.010897 1_555
Fe13 Tb1 3.054150 1_555
Fe14 P5 2.313610 1_655
Fe14 P5 2.313610 1_555
Fe14 P11 2.325529 1_555
Fe14 P3 2.328084 1_545
Fe14 Tb1 3.010897 1_645
Fe14 Tb1 3.010897 1_545
Fe14 Tb2 3.054150 1_555
Fe15 P4 2.313610 1_655
Fe15 P4 2.313610 1_555
Fe15 P10 2.325529 1_555
Fe15 P2 2.328084 1_555
Fe15 Tb0 3.010897 1_655
Fe15 Tb0 3.010897 1_555
Fe15 Tb3 3.054150 1_555
Fe16 P4 2.159021 1_555
Fe16 P0 2.168173 1_556
Fe16 P2 2.248603 1_455
Fe16 P2 2.248603 1_555
Fe16 Tb0 2.967405 1_555
Fe17 P5 2.159021 1_555
Fe17 P1 2.168173 1_555
Fe17 P3 2.248603 1_445
Fe17 P3 2.248603 1_545
Fe17 Tb1 2.967405 1_545
Fe18 P6 2.159021 1_555
Fe18 P2 2.168173 1_554
Fe18 P0 2.248603 1_555
Fe18 P0 2.248603 1_655
Fe18 Tb2 2.967405 1_555
Fe19 P7 2.159021 1_555
Fe19 P3 2.168173 1_555
Fe19 P1 2.248603 1_565
Fe19 P1 2.248603 1_665
Fe19 Tb3 2.967405 1_565
P0 Tb2 2.834624 1_555
P0 Tb2 2.834624 1_455
P1 Tb3 2.834624 1_555
P1 Tb3 2.834624 1_455
P2 Tb0 2.834624 1_555
P2 Tb0 2.834624 1_655
P3 Tb1 2.834624 1_655
P3 Tb1 2.834624 1_555
P4 Tb3 2.796639 1_455
P4 Tb3 2.796639 1_555
P5 Tb2 2.796639 1_555
P5 Tb2 2.796639 1_455
P6 Tb1 2.796639 1_555
P6 Tb1 2.796639 1_655
P7 Tb0 2.796639 1_655
P7 Tb0 2.796639 1_555
P8 Tb2 2.888405 1_455
P8 Tb2 2.888405 1_555
P9 Tb3 2.888405 1_565
P9 Tb3 2.888405 1_465
P10 Tb0 2.888405 1_555
P10 Tb0 2.888405 1_655
P11 Tb1 2.888405 1_545
P11 Tb1 2.888405 1_645
