# generated using pymatgen
data_NbCr3(CuS4)2
_symmetry_space_group_name_H-M   'P 1'
_cell_length_a   3.44577200
_cell_length_b   5.94043300
_cell_length_c   11.40619059
_cell_angle_alpha   89.31860956
_cell_angle_beta   90.00000000
_cell_angle_gamma   90.00000000
_symmetry_Int_Tables_number   1
_chemical_formula_structural   NbCr3(CuS4)2
_chemical_formula_sum   'Nb1 Cr3 Cu2 S8'
_cell_volume   233.46111290
_cell_formula_units_Z   1
loop_
 _symmetry_equiv_pos_site_id
 _symmetry_equiv_pos_as_xyz
  1  'x, y, z'
loop_
 _atom_site_type_symbol
 _atom_site_label
 _atom_site_symmetry_multiplicity
 _atom_site_fract_x
 _atom_site_fract_y
 _atom_site_fract_z
 _atom_site_occupancy
  Nb  Nb0  1  0.50000000  0.54104200  0.25498300  1
  Cr  Cr0  1  0.00000000  0.02052700  0.76052800  1
  Cr  Cr1  1  0.00000000  0.95943400  0.24284600  1
  Cr  Cr2  1  0.50000000  0.48129100  0.74027800  1
  Cu  Cu0  1  0.50000000  0.50112700  0.99760900  1
  Cu  Cu1  1  0.00000000  0.00699600  0.50579600  1
  S  S0  1  0.50000000  0.17169700  0.87463200  1
  S  S1  1  0.50000000  0.84382200  0.11263300  1
  S  S2  1  0.00000000  0.67069300  0.39031500  1
  S  S3  1  0.00000000  0.33290900  0.62447800  1
  S  S4  1  0.00000000  0.65858800  0.85897900  1
  S  S5  1  0.00000000  0.32287200  0.13648000  1
  S  S6  1  0.50000000  0.14581600  0.35661300  1
  S  S7  1  0.50000000  0.84318500  0.64382800  1
loop_
_geom_bond_atom_site_label_1
_geom_bond_atom_site_label_2
_geom_bond_distance
_geom_bond_site_symmetry_2
Nb0 S1 2.408728 1_555
Nb0 S2 2.443883 1_655
Nb0 S2 2.443883 1_555
Nb0 S5 2.552780 1_555
Nb0 S5 2.552780 1_655
Nb0 S6 2.606006 1_555
Cr0 S0 2.344450 1_555
Cr0 S0 2.344450 1_455
Cr0 S3 2.404827 1_555
Cr0 S4 2.413796 1_545
Cr0 S7 2.425564 1_445
Cr0 S7 2.425564 1_545
Cr1 S1 2.381217 1_555
Cr1 S1 2.381217 1_455
Cr1 S2 2.388048 1_555
Cr1 S6 2.431516 1_565
Cr1 S6 2.431516 1_465
Cr1 S5 2.463903 1_565
Cr2 S3 2.348957 1_655
Cr2 S3 2.348957 1_555
Cr2 S0 2.379873 1_555
Cr2 S7 2.403268 1_555
Cr2 S4 2.438164 1_555
Cr2 S4 2.438164 1_655
Cu0 S0 2.421267 1_555
Cu0 S1 2.434982 1_556
Cu0 S4 2.511658 1_655
Cu0 S4 2.511658 1_555
Cu0 S5 2.561007 1_556
Cu0 S5 2.561007 1_656
Cu1 S3 2.375544 1_555
Cu1 S2 2.405981 1_545
Cu1 S7 2.521435 1_445
Cu1 S7 2.521435 1_545
Cu1 S6 2.551565 1_455
Cu1 S6 2.551565 1_555
