# generated using pymatgen
data_Nb3Al2Mo3
_symmetry_space_group_name_H-M   'P 1'
_cell_length_a   5.09565044
_cell_length_b   5.09565044
_cell_length_c   5.09564994
_cell_angle_alpha   90.23345054
_cell_angle_beta   90.23345054
_cell_angle_gamma   90.23345003
_symmetry_Int_Tables_number   1
_chemical_formula_structural   Nb3Al2Mo3
_chemical_formula_sum   'Nb3 Al2 Mo3'
_cell_volume   132.30857619
_cell_formula_units_Z   1
loop_
 _symmetry_equiv_pos_site_id
 _symmetry_equiv_pos_as_xyz
  1  'x, y, z'
loop_
 _atom_site_type_symbol
 _atom_site_label
 _atom_site_symmetry_multiplicity
 _atom_site_fract_x
 _atom_site_fract_y
 _atom_site_fract_z
 _atom_site_occupancy
  Nb  Nb0  1  0.50000000  0.24625000  0.75375000  1
  Nb  Nb1  1  0.24625000  0.75375000  0.50000000  1
  Nb  Nb2  1  0.75375000  0.50000000  0.24625000  1
  Al  Al0  1  0.75189200  0.75189200  0.75189200  1
  Al  Al1  1  0.24810800  0.24810800  0.24810800  1
  Mo  Mo0  1  0.00000000  0.24971900  0.75028100  1
  Mo  Mo1  1  0.24971900  0.75028100  0.00000000  1
  Mo  Mo2  1  0.75028100  0.00000000  0.24971900  1
loop_
_geom_bond_atom_site_label_1
_geom_bond_atom_site_label_2
_geom_bond_distance
_geom_bond_site_symmetry_2
Al0 Mo2 2.829785 1_566
Al0 Mo1 2.829785 1_656
Al0 Mo0 2.829785 1_665
Al0 Nb2 2.831889 1_556
Al0 Nb1 2.831889 1_655
Al0 Nb0 2.831889 1_565
Al0 Mo2 2.858791 1_565
Al0 Mo1 2.858791 1_556
Al0 Mo0 2.858791 1_655
Al0 Nb2 2.873967 1_555
Al0 Nb1 2.873967 1_555
Al0 Nb0 2.873967 1_555
Al1 Mo0 2.829785 1_554
Al1 Mo1 2.829785 1_545
Al1 Mo2 2.829785 1_455
Al1 Nb0 2.831889 1_554
Al1 Nb1 2.831889 1_545
Al1 Nb2 2.831889 1_455
Al1 Mo0 2.858791 1_555
Al1 Mo1 2.858791 1_555
Al1 Mo2 2.858791 1_555
Al1 Nb0 2.873967 1_555
Al1 Nb1 2.873967 1_555
Al1 Nb2 2.873967 1_555
Mo0 Nb0 2.547948 1_555
Mo0 Nb0 2.547948 1_455
Mo1 Nb1 2.547948 1_555
Mo1 Nb1 2.547948 1_554
Mo2 Nb2 2.547948 1_545
Mo2 Nb2 2.547948 1_555
