# generated using pymatgen
data_K3Na(FeO4)2
_symmetry_space_group_name_H-M   'P 1'
_cell_length_a   5.90627300
_cell_length_b   9.67142163
_cell_length_c   9.67116530
_cell_angle_alpha   75.27808276
_cell_angle_beta   107.78032920
_cell_angle_gamma   72.22142158
_symmetry_Int_Tables_number   1
_chemical_formula_structural   K3Na(FeO4)2
_chemical_formula_sum   'K6 Na2 Fe4 O16'
_cell_volume   462.71220515
_cell_formula_units_Z   2
loop_
 _symmetry_equiv_pos_site_id
 _symmetry_equiv_pos_as_xyz
  1  'x, y, z'
loop_
 _atom_site_type_symbol
 _atom_site_label
 _atom_site_symmetry_multiplicity
 _atom_site_fract_x
 _atom_site_fract_y
 _atom_site_fract_z
 _atom_site_occupancy
  K  K0  1  0.99999900  0.25000000  0.25000000  1
  K  K1  1  0.00000000  0.75000000  0.75000000  1
  K  K2  1  0.66666600  0.75070800  0.08403900  1
  K  K3  1  0.66667100  0.25071100  0.58405000  1
  K  K4  1  0.33332900  0.24928900  0.91594900  1
  K  K5  1  0.33333400  0.74929200  0.41596100  1
  Na  Na0  1  0.00000200  0.99999800  0.00000100  1
  Na  Na1  1  0.99999800  0.50000300  0.49999900  1
  Fe  Fe0  1  0.33333300  0.02955900  0.69622200  1
  Fe  Fe1  1  0.66667100  0.47044000  0.80377800  1
  Fe  Fe2  1  0.33332500  0.52958000  0.19622900  1
  Fe  Fe3  1  0.66667400  0.97041900  0.30377400  1
  O  O0  1  0.66666300  0.57721200  0.91053900  1
  O  O1  1  0.66667000  0.07722200  0.41055900  1
  O  O2  1  0.33333000  0.42277800  0.08944100  1
  O  O3  1  0.33333600  0.92278700  0.58946000  1
  O  O4  1  0.81889100  0.27893900  0.91670800  1
  O  O5  1  0.81889500  0.77894200  0.41671700  1
  O  O6  1  0.81888000  0.50726200  0.68839700  1
  O  O7  1  0.81887500  0.00727000  0.18839300  1
  O  O8  1  0.36225100  0.50726200  0.68840000  1
  O  O9  1  0.36223600  0.00727000  0.18839200  1
  O  O10  1  0.18110700  0.72105400  0.08328300  1
  O  O11  1  0.18110700  0.22106400  0.58329200  1
  O  O12  1  0.63776300  0.49273000  0.31160700  1
  O  O13  1  0.63775000  0.99273800  0.81160000  1
  O  O14  1  0.18112400  0.49273200  0.31160800  1
  O  O15  1  0.18112100  0.99273900  0.81160400  1
loop_
_geom_bond_atom_site_label_1
_geom_bond_atom_site_label_2
_geom_bond_distance
_geom_bond_site_symmetry_2
K0 O4 2.977454 1_554
K0 O11 2.977462 1_655
K0 O12 2.977507 1_555
K0 O7 2.977515 1_555
K0 O9 2.977516 1_655
K0 O14 2.977539 1_655
K1 O10 2.977352 1_556
K1 O5 2.977363 1_455
K1 O13 2.977558 1_455
K1 O8 2.977561 1_555
K1 O6 2.977564 1_455
K1 O15 2.977579 1_555
K2 O0 2.657449 1_554
K2 O12 2.965909 1_555
K2 O15 2.965917 1_554
K2 O14 2.965921 1_655
K2 O10 2.965946 1_655
K2 O13 2.965968 1_554
K2 O10 2.966036 1_555
K2 O5 3.172420 1_555
K2 O7 3.172468 1_565
K2 O9 3.172521 1_565
K3 O1 2.657327 1_555
K3 O13 2.965839 1_545
K3 O15 2.965851 1_645
K3 O14 2.965923 1_555
K3 O11 2.965938 1_655
K3 O12 2.965957 1_555
K3 O11 2.966034 1_555
K3 O4 3.172212 1_555
K3 O6 3.172338 1_555
K3 O8 3.172403 1_555
K4 O2 2.657334 1_556
K4 O8 2.965837 1_555
K4 O6 2.965847 1_455
K4 O7 2.965922 1_556
K4 O4 2.965947 1_455
K4 O9 2.965960 1_556
K4 O4 2.966031 1_555
K4 O11 3.172190 1_555
K4 O15 3.172318 1_545
K4 O13 3.172399 1_545
K5 O3 2.657434 1_555
K5 O9 2.965911 1_565
K5 O6 2.965921 1_555
K5 O7 2.965929 1_465
K5 O5 2.965943 1_455
K5 O8 2.965965 1_555
K5 O5 2.966033 1_555
K5 O10 3.172437 1_555
K5 O14 3.172448 1_555
K5 O12 3.172526 1_555
Na0 O4 2.382849 1_464
Na0 O9 2.382878 1_565
Na0 O10 2.382885 1_555
Na0 O13 2.382940 1_454
Na0 O7 2.382969 1_465
Na0 O15 2.382970 1_554
Na1 O11 2.382832 1_655
Na1 O5 2.382841 1_555
Na1 O12 2.382892 1_555
Na1 O8 2.382940 1_655
Na1 O14 2.382956 1_655
Na1 O6 2.382975 1_555
Fe0 O3 1.635338 1_545
Fe0 O13 1.669238 1_545
Fe0 O15 1.669258 1_545
Fe0 O11 1.669374 1_555
Fe1 O0 1.635330 1_555
Fe1 O6 1.669240 1_555
Fe1 O8 1.669249 1_555
Fe1 O4 1.669343 1_555
Fe2 O2 1.635767 1_555
Fe2 O10 1.669172 1_555
Fe2 O14 1.669239 1_555
Fe2 O12 1.669258 1_555
Fe3 O1 1.635752 1_565
Fe3 O5 1.669189 1_555
Fe3 O7 1.669260 1_565
Fe3 O9 1.669266 1_565
