# generated using pymatgen
data_PrSbO4
_symmetry_space_group_name_H-M   'P 1'
_cell_length_a   5.55616821
_cell_length_b   7.71014058
_cell_length_c   7.69016243
_cell_angle_alpha   79.24628726
_cell_angle_beta   90.00000000
_cell_angle_gamma   90.00000000
_symmetry_Int_Tables_number   1
_chemical_formula_structural   PrSbO4
_chemical_formula_sum   'Pr4 Sb4 O16'
_cell_volume   323.65214055
_cell_formula_units_Z   4
loop_
 _symmetry_equiv_pos_site_id
 _symmetry_equiv_pos_as_xyz
  1  'x, y, z'
loop_
 _atom_site_type_symbol
 _atom_site_label
 _atom_site_symmetry_multiplicity
 _atom_site_fract_x
 _atom_site_fract_y
 _atom_site_fract_z
 _atom_site_occupancy
  Pr  Pr0  1  0.27337499  0.09903995  0.15245882  1
  Pr  Pr1  1  0.77337499  0.40096005  0.84754118  1
  Pr  Pr2  1  0.72662501  0.90096005  0.84754118  1
  Pr  Pr3  1  0.22662501  0.59903995  0.15245882  1
  Sb  Sb0  1  0.76783975  0.30043054  0.33624008  1
  Sb  Sb1  1  0.26783975  0.19956946  0.66375992  1
  Sb  Sb2  1  0.23216025  0.69956946  0.66375992  1
  Sb  Sb3  1  0.73216025  0.80043054  0.33624008  1
  O  O0  1  0.97570737  0.32688183  0.12116424  1
  O  O1  1  0.47570737  0.17311817  0.87883576  1
  O  O2  1  0.02429263  0.67311817  0.87883576  1
  O  O3  1  0.52429263  0.82688183  0.12116424  1
  O  O4  1  0.64590927  0.05366951  0.33331252  1
  O  O5  1  0.14590927  0.44633049  0.66668748  1
  O  O6  1  0.35409073  0.94633049  0.66668748  1
  O  O7  1  0.85409073  0.55366951  0.33331252  1
  O  O8  1  0.99503175  0.86848351  0.17159668  1
  O  O9  1  0.49503175  0.63151649  0.82840332  1
  O  O10  1  0.00496825  0.13151649  0.82840332  1
  O  O11  1  0.50496825  0.36848351  0.17159668  1
  O  O12  1  0.91293042  0.79451337  0.55912049  1
  O  O13  1  0.41293042  0.70548663  0.44087951  1
  O  O14  1  0.08706958  0.20548663  0.44087951  1
  O  O15  1  0.58706958  0.29451337  0.55912049  1
loop_
_geom_bond_atom_site_label_1
_geom_bond_atom_site_label_2
_geom_bond_distance
_geom_bond_site_symmetry_2
O0 Sb0 1.996304 1_555
O0 Pr1 2.359919 1_554
O0 Pr0 2.391961 1_655
O0 Pr3 2.567720 1_655
O1 Sb1 1.996304 1_555
O1 Pr0 2.359919 1_556
O1 Pr1 2.391961 1_555
O1 Pr2 2.567720 1_545
O2 Sb2 1.996304 1_555
O2 Pr3 2.359919 1_556
O2 Pr2 2.391961 1_455
O2 Pr1 2.567720 1_455
O3 Sb3 1.996304 1_555
O3 Pr2 2.359919 1_554
O3 Pr3 2.391961 1_555
O3 Pr0 2.567720 1_565
O4 Sb3 2.006501 1_545
O4 Sb0 2.023659 1_555
O4 Pr0 2.481825 1_555
O5 Sb2 2.006501 1_555
O5 Sb1 2.023659 1_555
O5 Pr1 2.481825 1_455
O6 Sb1 2.006501 1_565
O6 Sb2 2.023659 1_555
O6 Pr2 2.481825 1_555
O7 Sb0 2.006501 1_555
O7 Sb3 2.023659 1_555
O7 Pr3 2.481825 1_655
O8 Sb3 1.940031 1_555
O8 Pr0 2.340022 1_665
O8 Pr3 2.471300 1_655
O8 Pr2 2.874737 1_554
O9 Sb2 1.940031 1_555
O9 Pr1 2.340022 1_555
O9 Pr2 2.471300 1_555
O9 Pr3 2.874737 1_556
O10 Sb1 1.940031 1_555
O10 Pr2 2.340022 1_445
O10 Pr1 2.471300 1_455
O10 Pr0 2.874737 1_556
O11 Sb0 1.940031 1_555
O11 Pr3 2.340022 1_555
O11 Pr0 2.471300 1_555
O11 Pr1 2.874737 1_554
O12 Sb3 1.979760 1_555
O12 Sb2 2.027208 1_655
O12 Pr2 2.709972 1_555
O13 Sb2 1.979760 1_555
O13 Sb3 2.027208 1_555
O13 Pr3 2.709972 1_555
O14 Sb1 1.979760 1_555
O14 Sb0 2.027208 1_455
O14 Pr0 2.709972 1_555
O15 Sb0 1.979760 1_555
O15 Sb1 2.027208 1_555
O15 Pr1 2.709972 1_555
