# generated using pymatgen
data_PrGaCo
_symmetry_space_group_name_H-M   'P 1'
_cell_length_a   4.36877900
_cell_length_b   7.11031600
_cell_length_c   7.51685000
_cell_angle_alpha   90.00000000
_cell_angle_beta   90.00000000
_cell_angle_gamma   90.00000000
_symmetry_Int_Tables_number   1
_chemical_formula_structural   PrGaCo
_chemical_formula_sum   'Pr4 Ga4 Co4'
_cell_volume   233.49891246
_cell_formula_units_Z   4
loop_
 _symmetry_equiv_pos_site_id
 _symmetry_equiv_pos_as_xyz
  1  'x, y, z'
loop_
 _atom_site_type_symbol
 _atom_site_label
 _atom_site_symmetry_multiplicity
 _atom_site_fract_x
 _atom_site_fract_y
 _atom_site_fract_z
 _atom_site_occupancy
  Pr  Pr0  1  0.25000000  0.02093500  0.81119700  1
  Pr  Pr1  1  0.25000000  0.52093500  0.68880300  1
  Pr  Pr2  1  0.75000000  0.97906500  0.18880300  1
  Pr  Pr3  1  0.75000000  0.47906500  0.31119700  1
  Ga  Ga0  1  0.25000000  0.16563100  0.42221100  1
  Ga  Ga1  1  0.25000000  0.66563100  0.07778900  1
  Ga  Ga2  1  0.75000000  0.83436900  0.57778900  1
  Ga  Ga3  1  0.75000000  0.33436900  0.92221100  1
  Co  Co0  1  0.25000000  0.80361200  0.39656600  1
  Co  Co1  1  0.25000000  0.30361200  0.10343400  1
  Co  Co2  1  0.75000000  0.19638800  0.60343400  1
  Co  Co3  1  0.75000000  0.69638800  0.89656600  1
loop_
_geom_bond_atom_site_label_1
_geom_bond_atom_site_label_2
_geom_bond_distance
_geom_bond_site_symmetry_2
Pr0 Pr2 3.593987 1_446
Pr0 Pr2 3.593987 1_546
Pr0 Pr1 3.672272 1_555
Pr0 Pr1 3.672272 1_545
Pr1 Pr3 3.593987 1_455
Pr1 Pr3 3.593987 1_555
Pr2 Pr3 3.672272 1_565
Pr2 Pr3 3.672272 1_555
Ga0 Pr0 3.099674 1_555
Ga0 Pr2 3.099923 1_445
Ga0 Pr2 3.099923 1_545
Ga0 Pr1 3.224602 1_555
Ga0 Pr3 3.230268 1_455
Ga0 Pr3 3.230268 1_555
Ga1 Pr1 3.099674 1_554
Ga1 Pr3 3.099923 1_555
Ga1 Pr3 3.099923 1_455
Ga1 Pr0 3.224602 1_564
Ga1 Pr2 3.230268 1_455
Ga1 Pr2 3.230268 1_555
Ga2 Pr2 3.099674 1_555
Ga2 Pr0 3.099923 1_665
Ga2 Pr0 3.099923 1_565
Ga2 Pr3 3.224602 1_555
Ga2 Pr1 3.230268 1_655
Ga2 Pr1 3.230268 1_555
Ga3 Pr3 3.099674 1_556
Ga3 Pr1 3.099923 1_555
Ga3 Pr1 3.099923 1_655
Ga3 Pr2 3.224602 1_546
Ga3 Pr0 3.230268 1_555
Ga3 Pr0 3.230268 1_655
Co0 Ga0 2.581278 1_565
Co0 Ga2 2.583611 1_455
Co0 Ga2 2.583611 1_555
Co0 Ga1 2.589267 1_555
Co0 Pr2 2.960888 1_555
Co0 Pr2 2.960888 1_455
Co0 Pr1 2.977463 1_555
Co0 Pr3 3.241683 1_455
Co0 Pr3 3.241683 1_555
Co0 Pr0 3.478748 1_565
Co1 Ga1 2.581278 1_555
Co1 Ga3 2.583611 1_454
Co1 Ga3 2.583611 1_554
Co1 Ga0 2.589267 1_555
Co1 Pr3 2.960888 1_455
Co1 Pr3 2.960888 1_555
Co1 Pr0 2.977463 1_554
Co1 Pr2 3.241683 1_545
Co1 Pr2 3.241683 1_445
Co1 Pr1 3.478748 1_554
Co2 Ga2 2.581278 1_545
Co2 Ga0 2.583611 1_555
Co2 Ga0 2.583611 1_655
Co2 Ga3 2.589267 1_555
Co2 Pr0 2.960888 1_655
Co2 Pr0 2.960888 1_555
Co2 Pr3 2.977463 1_555
Co2 Pr1 3.241683 1_655
Co2 Pr1 3.241683 1_555
Co2 Pr2 3.478748 1_545
Co3 Ga3 2.581278 1_555
Co3 Ga1 2.583611 1_656
Co3 Ga1 2.583611 1_556
Co3 Ga2 2.589267 1_555
Co3 Pr1 2.960888 1_555
Co3 Pr1 2.960888 1_655
Co3 Pr2 2.977463 1_556
Co3 Pr0 3.241683 1_565
Co3 Pr0 3.241683 1_665
Co3 Pr3 3.478748 1_556
