# generated using pymatgen
data_YCu3(SnO3)4
_symmetry_space_group_name_H-M   'P 1'
_cell_length_a   6.74633963
_cell_length_b   6.74633963
_cell_length_c   6.74633963
_cell_angle_alpha   109.47122063
_cell_angle_beta   109.47122063
_cell_angle_gamma   109.47122063
_symmetry_Int_Tables_number   1
_chemical_formula_structural   YCu3(SnO3)4
_chemical_formula_sum   'Y1 Cu3 Sn4 O12'
_cell_volume   236.36475155
_cell_formula_units_Z   1
loop_
 _symmetry_equiv_pos_site_id
 _symmetry_equiv_pos_as_xyz
  1  'x, y, z'
loop_
 _atom_site_type_symbol
 _atom_site_label
 _atom_site_symmetry_multiplicity
 _atom_site_fract_x
 _atom_site_fract_y
 _atom_site_fract_z
 _atom_site_occupancy
  Y  Y0  1  0.00000000  0.00000000  0.00000000  1
  Cu  Cu0  1  0.00000000  0.50000000  0.50000000  1
  Cu  Cu1  1  0.50000000  0.00000000  0.50000000  1
  Cu  Cu2  1  0.50000000  0.50000000  0.00000000  1
  Sn  Sn0  1  0.00000000  0.00000000  0.50000000  1
  Sn  Sn1  1  0.00000000  0.50000000  0.00000000  1
  Sn  Sn2  1  0.50000000  0.00000000  0.00000000  1
  Sn  Sn3  1  0.50000000  0.50000000  0.50000000  1
  O  O0  1  0.29687000  0.12863600  0.83176500  1
  O  O1  1  0.70313000  0.87136400  0.16823500  1
  O  O2  1  0.70313000  0.53489500  0.83176500  1
  O  O3  1  0.46510500  0.16823500  0.29687000  1
  O  O4  1  0.16823500  0.29687000  0.46510500  1
  O  O5  1  0.83176500  0.29687000  0.12863600  1
  O  O6  1  0.87136400  0.16823500  0.70313000  1
  O  O7  1  0.83176500  0.70313000  0.53489500  1
  O  O8  1  0.29687000  0.46510500  0.16823500  1
  O  O9  1  0.53489500  0.83176500  0.70313000  1
  O  O10  1  0.16823500  0.70313000  0.87136400  1
  O  O11  1  0.12863600  0.83176500  0.29687000  1
loop_
_geom_bond_atom_site_label_1
_geom_bond_atom_site_label_2
_geom_bond_distance
_geom_bond_site_symmetry_2
Cu0 O10 2.054619 1_555
Cu0 O5 2.054619 1_455
Cu0 O4 2.054624 1_555
Cu0 O7 2.054624 1_455
Cu1 O11 2.054619 1_545
Cu1 O6 2.054619 1_555
Cu1 O3 2.054624 1_555
Cu1 O9 2.054624 1_545
Cu2 O0 2.054619 1_554
Cu2 O1 2.054619 1_555
Cu2 O8 2.054624 1_555
Cu2 O2 2.054624 1_554
O0 Sn0 2.081290 1_555
O0 Sn2 2.081297 1_556
O0 Y0 2.658148 1_556
O1 Sn0 2.081290 1_665
O1 Sn2 2.081297 1_565
O1 Y0 2.658148 1_665
O2 Sn1 2.081291 1_656
O2 Sn3 2.081291 1_555
O2 Y0 2.658147 1_666
O3 Sn3 2.081291 1_555
O3 Sn2 2.081291 1_555
O3 Y0 2.658147 1_555
O4 Sn3 2.081291 1_555
O4 Sn0 2.081291 1_555
O4 Y0 2.658147 1_555
O5 Sn2 2.081290 1_555
O5 Sn1 2.081297 1_655
O5 Y0 2.658148 1_655
O6 Sn1 2.081290 1_656
O6 Sn0 2.081297 1_655
O6 Y0 2.658148 1_656
O7 Sn0 2.081291 1_665
O7 Sn3 2.081291 1_555
O7 Y0 2.658147 1_666
O8 Sn3 2.081291 1_555
O8 Sn1 2.081291 1_555
O8 Y0 2.658147 1_555
O9 Sn2 2.081291 1_566
O9 Sn3 2.081291 1_555
O9 Y0 2.658147 1_666
O10 Sn2 2.081290 1_566
O10 Sn1 2.081297 1_556
O10 Y0 2.658148 1_566
O11 Sn1 2.081290 1_555
O11 Sn0 2.081297 1_565
O11 Y0 2.658148 1_565
