# generated using pymatgen
data_SrV10O15
_symmetry_space_group_name_H-M   'P 1'
_cell_length_a   7.89121304
_cell_length_b   7.89121360
_cell_length_c   9.57821500
_cell_angle_alpha   90.00000000
_cell_angle_beta   90.00000000
_cell_angle_gamma   96.44357245
_symmetry_Int_Tables_number   1
_chemical_formula_structural   SrV10O15
_chemical_formula_sum   'Sr2 V20 O30'
_cell_volume   592.67955777
_cell_formula_units_Z   2
loop_
 _symmetry_equiv_pos_site_id
 _symmetry_equiv_pos_as_xyz
  1  'x, y, z'
loop_
 _atom_site_type_symbol
 _atom_site_label
 _atom_site_symmetry_multiplicity
 _atom_site_fract_x
 _atom_site_fract_y
 _atom_site_fract_z
 _atom_site_occupancy
  Sr  Sr0  1  0.50000000  0.50000000  0.50000000  1
  Sr  Sr1  1  0.00000000  0.00000000  0.00000000  1
  V  V0  1  0.81905000  0.81905100  0.63030700  1
  V  V1  1  0.68094900  0.68094900  0.13030700  1
  V  V2  1  0.31905000  0.31905000  0.86969300  1
  V  V3  1  0.18094900  0.18095000  0.36969400  1
  V  V4  1  0.04178000  0.79067800  0.35390900  1
  V  V5  1  0.45822000  0.70932200  0.85390900  1
  V  V6  1  0.29067800  0.54178100  0.14609100  1
  V  V7  1  0.20932200  0.95821900  0.64609200  1
  V  V8  1  0.95821900  0.20932300  0.64609200  1
  V  V9  1  0.54178100  0.29067700  0.14609100  1
  V  V10  1  0.70932300  0.45821900  0.85390900  1
  V  V11  1  0.91898900  0.40706200  0.11878500  1
  V  V12  1  0.40706300  0.91898800  0.11878500  1
  V  V13  1  0.09293800  0.58101200  0.61878500  1
  V  V14  1  0.41898800  0.90706200  0.38121500  1
  V  V15  1  0.08101200  0.59293700  0.88121600  1
  V  V16  1  0.59293700  0.08101100  0.88121600  1
  V  V17  1  0.90706200  0.41898900  0.38121500  1
  V  V18  1  0.58101200  0.09293800  0.61878500  1
  V  V19  1  0.79067800  0.04178100  0.35390900  1
  O  O0  1  0.00000000  0.00000000  0.50000000  1
  O  O1  1  0.50000000  0.50000000  0.00000000  1
  O  O2  1  0.24071400  0.75928500  0.50000000  1
  O  O3  1  0.25928600  0.74071400  0.00000000  1
  O  O4  1  0.75928600  0.24071400  0.50000000  1
  O  O5  1  0.74071400  0.25928600  0.00000000  1
  O  O6  1  0.64732700  0.64732700  0.73373300  1
  O  O7  1  0.85267300  0.85267300  0.23373300  1
  O  O8  1  0.14732700  0.14732600  0.76626700  1
  O  O9  1  0.35267300  0.35267300  0.26626700  1
  O  O10  1  0.57229500  0.07229500  0.25000000  1
  O  O11  1  0.92770400  0.42770500  0.75000000  1
  O  O12  1  0.42770500  0.92770400  0.75000000  1
  O  O13  1  0.07229500  0.57229500  0.25000000  1
  O  O14  1  0.71238900  0.46553200  0.24341500  1
  O  O15  1  0.78761000  0.03446800  0.74341500  1
  O  O16  1  0.96553200  0.21239000  0.25658500  1
  O  O17  1  0.53446800  0.28761000  0.75658500  1
  O  O18  1  0.28761000  0.53446800  0.75658500  1
  O  O19  1  0.21239000  0.96553200  0.25658500  1
  O  O20  1  0.03446800  0.78761100  0.74341500  1
  O  O21  1  0.46553200  0.71239000  0.24341500  1
  O  O22  1  0.10956900  0.35864100  0.50701500  1
  O  O23  1  0.39043000  0.14135800  0.00701400  1
  O  O24  1  0.85864200  0.60956900  0.99298500  1
  O  O25  1  0.64135800  0.89043100  0.49298600  1
  O  O26  1  0.35864200  0.10957000  0.50701500  1
  O  O27  1  0.60956900  0.85864200  0.99298500  1
  O  O28  1  0.14135800  0.39043000  0.00701400  1
  O  O29  1  0.89043000  0.64135800  0.49298600  1
loop_
_geom_bond_atom_site_label_1
_geom_bond_atom_site_label_2
_geom_bond_distance
_geom_bond_site_symmetry_2
O0 V4 2.217522 1_545
O0 V19 2.217524 1_455
O0 V7 2.217530 1_545
O0 V8 2.217536 1_455
O0 V3 2.275516 1_555
O0 V0 2.275522 1_445
O1 V5 2.217522 1_554
O1 V6 2.217524 1_555
O1 V10 2.217530 1_554
O1 V9 2.217530 1_555
O1 V1 2.275517 1_555
O1 V2 2.275526 1_554
O2 V13 2.065232 1_555
O2 V14 2.065241 1_555
O2 V4 2.137999 1_555
O2 V7 2.138004 1_555
O2 Sr0 3.051640 1_555
O3 V15 2.065236 1_554
O3 V12 2.065241 1_555
O3 V6 2.137992 1_555
O3 V5 2.137997 1_554
O3 Sr1 3.051646 1_565
O4 V18 2.065237 1_555
O4 V17 2.065242 1_555
O4 V19 2.137992 1_555
O4 V8 2.137996 1_555
O4 Sr0 3.051646 1_555
O5 V16 2.065241 1_554
O5 V11 2.065242 1_555
O5 V9 2.137990 1_555
O5 V10 2.137990 1_554
O5 Sr1 3.051646 1_655
O6 V5 1.988735 1_555
O6 V10 1.988744 1_555
O6 V0 2.059570 1_555
O6 Sr0 2.722469 1_555
O7 V4 1.988735 1_655
O7 V19 1.988741 1_565
O7 V1 2.059575 1_555
O7 Sr1 2.722469 1_665
O8 V7 1.988730 1_545
O8 V8 1.988741 1_455
O8 V2 2.059570 1_555
O8 Sr1 2.722466 1_556
O9 V6 1.988741 1_555
O9 V9 1.988744 1_555
O9 V3 2.059575 1_555
O9 Sr0 2.722469 1_555
O10 V9 2.027665 1_555
O10 V19 2.027672 1_555
O10 V12 2.095037 1_545
O10 V14 2.095042 1_545
O11 V10 2.027658 1_555
O11 V8 2.027662 1_555
O11 V13 2.095046 1_655
O11 V15 2.095047 1_655
O12 V5 2.027667 1_555
O12 V7 2.027669 1_555
O12 V16 2.095043 1_565
O12 V18 2.095046 1_565
O13 V6 2.027672 1_555
O13 V4 2.027673 1_555
O13 V17 2.095038 1_455
O13 V11 2.095038 1_455
O14 V9 2.041681 1_555
O14 V1 2.054161 1_555
O14 V17 2.088909 1_555
O14 V11 2.112980 1_555
O14 Sr0 3.004201 1_555
O15 V8 2.041681 1_555
O15 V0 2.054161 1_545
O15 V16 2.088915 1_555
O15 V18 2.112967 1_555
O15 Sr1 3.004206 1_656
O16 V19 2.041681 1_555
O16 V3 2.054166 1_655
O16 V11 2.088903 1_555
O16 V17 2.112974 1_555
O16 Sr1 3.004206 1_655
O17 V10 2.041686 1_555
O17 V2 2.054167 1_555
O17 V18 2.088905 1_555
O17 V16 2.112977 1_555
O17 Sr0 3.004206 1_555
O18 V5 2.041686 1_555
O18 V2 2.054167 1_555
O18 V13 2.088905 1_555
O18 V15 2.112970 1_555
O18 Sr0 3.004206 1_555
O19 V4 2.041686 1_555
O19 V3 2.054174 1_565
O19 V12 2.088911 1_555
O19 V14 2.112967 1_555
O19 Sr1 3.004206 1_565
O20 V7 2.041672 1_555
O20 V0 2.054167 1_455
O20 V15 2.088923 1_555
O20 V13 2.112974 1_555
O20 Sr1 3.004201 1_566
O21 V6 2.041681 1_555
O21 V1 2.054162 1_555
O21 V14 2.088905 1_555
O21 V12 2.112965 1_555
O21 Sr0 3.004206 1_555
O22 V3 2.047120 1_555
O22 V8 2.067239 1_455
O22 V13 2.072257 1_555
O22 V17 2.098370 1_455
O22 Sr0 3.157508 1_555
O23 V2 2.047126 1_554
O23 V9 2.067248 1_555
O23 V12 2.072257 1_545
O23 V16 2.098357 1_554
O23 Sr1 3.157498 1_555
O24 V1 2.047137 1_556
O24 V10 2.067237 1_555
O24 V15 2.072246 1_655
O24 V11 2.098368 1_556
O24 Sr1 3.157506 1_666
O25 V0 2.047125 1_555
O25 V19 2.067247 1_565
O25 V14 2.072255 1_555
O25 V18 2.098360 1_565
O25 Sr0 3.157506 1_555
O26 V3 2.047131 1_555
O26 V7 2.067252 1_545
O26 V18 2.072251 1_555
O26 V14 2.098372 1_545
O26 Sr0 3.157499 1_555
O27 V1 2.047137 1_556
O27 V5 2.067237 1_555
O27 V16 2.072240 1_565
O27 V12 2.098359 1_556
O27 Sr1 3.157506 1_666
O28 V2 2.047125 1_554
O28 V6 2.067252 1_555
O28 V11 2.072249 1_455
O28 V15 2.098355 1_554
O28 Sr1 3.157498 1_555
O29 V0 2.047131 1_555
O29 V4 2.067247 1_655
O29 V17 2.072249 1_555
O29 V13 2.098366 1_655
O29 Sr0 3.157498 1_555
