# generated using pymatgen
data_Sc2(NbGe)3
_symmetry_space_group_name_H-M   'P 1'
_cell_length_a   7.87077573
_cell_length_b   7.87077573
_cell_length_c   5.43173155
_cell_angle_alpha   90.00000000
_cell_angle_beta   90.00000000
_cell_angle_gamma   120.55672459
_symmetry_Int_Tables_number   1
_chemical_formula_structural   Sc2(NbGe)3
_chemical_formula_sum   'Sc4 Nb6 Ge6'
_cell_volume   289.76118352
_cell_formula_units_Z   2
loop_
 _symmetry_equiv_pos_site_id
 _symmetry_equiv_pos_as_xyz
  1  'x, y, z'
loop_
 _atom_site_type_symbol
 _atom_site_label
 _atom_site_symmetry_multiplicity
 _atom_site_fract_x
 _atom_site_fract_y
 _atom_site_fract_z
 _atom_site_occupancy
  Sc  Sc0  1  0.24649149  0.24649149  0.00000000  1
  Sc  Sc1  1  0.99942747  0.74543817  0.00000000  1
  Sc  Sc2  1  0.74543817  0.99942747  0.00000000  1
  Sc  Sc3  1  0.74688039  0.74688039  0.50000000  1
  Nb  Nb0  1  0.00006809  0.26777446  0.50000000  1
  Nb  Nb1  1  0.26777446  0.00006809  0.50000000  1
  Nb  Nb2  1  0.66621447  0.33232395  0.24971502  1
  Nb  Nb3  1  0.33232395  0.66621447  0.24971502  1
  Nb  Nb4  1  0.33232395  0.66621447  0.75028498  1
  Nb  Nb5  1  0.66621447  0.33232395  0.75028498  1
  Ge  Ge0  1  0.60829834  0.60829834  0.00000000  1
  Ge  Ge1  1  -0.00001062  0.38957852  0.00000000  1
  Ge  Ge2  1  0.38957852  -0.00001062  0.00000000  1
  Ge  Ge3  1  0.38449102  0.38449102  0.50000000  1
  Ge  Ge4  1  0.00013799  0.61435885  0.50000000  1
  Ge  Ge5  1  0.61435885  0.00013799  0.50000000  1
loop_
_geom_bond_atom_site_label_1
_geom_bond_atom_site_label_2
_geom_bond_distance
_geom_bond_site_symmetry_2
Ge0 Sc2 2.695091 1_555
Ge0 Sc1 2.695091 1_555
Ge0 Nb3 2.787922 1_555
Ge0 Nb2 2.787922 1_555
Ge0 Nb4 2.787922 1_554
Ge0 Nb5 2.787922 1_554
Ge0 Sc0 2.823704 1_555
Ge0 Sc3 2.923302 1_554
Ge0 Sc3 2.923302 1_555
Ge1 Sc2 2.681083 1_445
Ge1 Sc0 2.693374 1_555
Ge1 Nb4 2.762557 1_554
Ge1 Nb3 2.762557 1_555
Ge1 Nb2 2.782196 1_455
Ge1 Nb5 2.782196 1_454
Ge1 Sc1 2.803143 1_455
Ge1 Nb0 2.880212 1_555
Ge1 Nb0 2.880212 1_554
Ge2 Sc1 2.681083 1_445
Ge2 Sc0 2.693374 1_555
Ge2 Nb2 2.762557 1_555
Ge2 Nb5 2.762557 1_554
Ge2 Nb4 2.782196 1_544
Ge2 Nb3 2.782196 1_545
Ge2 Sc2 2.803143 1_545
Ge2 Nb1 2.880212 1_554
Ge2 Nb1 2.880212 1_555
Ge3 Nb0 2.678172 1_555
Ge3 Nb1 2.678172 1_555
Ge3 Nb4 2.803442 1_555
Ge3 Nb5 2.803442 1_555
Ge3 Nb2 2.803442 1_555
Ge3 Nb3 2.803442 1_555
Ge3 Sc3 2.828250 1_555
Ge3 Sc0 2.921623 1_555
Ge3 Sc0 2.921623 1_556
Ge4 Nb1 2.674195 1_565
Ge4 Sc3 2.678687 1_455
Ge4 Nb0 2.727608 1_555
Ge4 Nb2 2.784119 1_455
Ge4 Nb5 2.784119 1_455
Ge4 Nb4 2.786696 1_555
Ge4 Nb3 2.786696 1_555
Ge4 Sc1 2.906238 1_456
Ge4 Sc1 2.906238 1_455
Ge5 Nb0 2.674195 1_655
Ge5 Sc3 2.678687 1_545
Ge5 Nb1 2.727608 1_555
Ge5 Nb4 2.784119 1_545
Ge5 Nb3 2.784119 1_545
Ge5 Nb5 2.786696 1_555
Ge5 Nb2 2.786696 1_555
Ge5 Sc2 2.906238 1_545
Ge5 Sc2 2.906238 1_546
