# generated using pymatgen
data_CsYMg30O32
_symmetry_space_group_name_H-M   'P 1'
_cell_length_a   8.58825740
_cell_length_b   8.58825740
_cell_length_c   8.73581876
_cell_angle_alpha   90.00000000
_cell_angle_beta   90.00000000
_cell_angle_gamma   90.00000000
_symmetry_Int_Tables_number   1
_chemical_formula_structural   CsYMg30O32
_chemical_formula_sum   'Cs1 Y1 Mg30 O32'
_cell_volume   644.33796298
_cell_formula_units_Z   1
loop_
 _symmetry_equiv_pos_site_id
 _symmetry_equiv_pos_as_xyz
  1  'x, y, z'
loop_
 _atom_site_type_symbol
 _atom_site_label
 _atom_site_symmetry_multiplicity
 _atom_site_fract_x
 _atom_site_fract_y
 _atom_site_fract_z
 _atom_site_occupancy
  Cs  Cs0  1  -0.00000000  0.00000000  0.50000000  1
  Y  Y0  1  -0.00000000  0.00000000  0.00000000  1
  Mg  Mg0  1  -0.00000000  0.50000000  0.00000000  1
  Mg  Mg1  1  -0.00000000  0.50000000  0.50000000  1
  Mg  Mg2  1  0.50000000  0.00000000  0.00000000  1
  Mg  Mg3  1  0.50000000  0.00000000  0.50000000  1
  Mg  Mg4  1  0.50000000  0.50000000  0.00000000  1
  Mg  Mg5  1  0.50000000  0.50000000  0.50000000  1
  Mg  Mg6  1  -0.00000000  0.26075469  0.25340248  1
  Mg  Mg7  1  -0.00000000  0.26075469  0.74659752  1
  Mg  Mg8  1  -0.00000000  0.73924531  0.25340248  1
  Mg  Mg9  1  -0.00000000  0.73924531  0.74659752  1
  Mg  Mg10  1  0.50000000  0.25146923  0.25151085  1
  Mg  Mg11  1  0.50000000  0.25146923  0.74848915  1
  Mg  Mg12  1  0.50000000  0.74853077  0.25151085  1
  Mg  Mg13  1  0.50000000  0.74853077  0.74848915  1
  Mg  Mg14  1  0.26075469  0.00000000  0.25340248  1
  Mg  Mg15  1  0.26075469  0.00000000  0.74659752  1
  Mg  Mg16  1  0.25146923  0.50000000  0.25151085  1
  Mg  Mg17  1  0.25146923  0.50000000  0.74848915  1
  Mg  Mg18  1  0.73924531  0.00000000  0.25340248  1
  Mg  Mg19  1  0.73924531  0.00000000  0.74659752  1
  Mg  Mg20  1  0.74853077  0.50000000  0.25151085  1
  Mg  Mg21  1  0.74853077  0.50000000  0.74848915  1
  Mg  Mg22  1  0.25631377  0.25631377  -0.00000000  1
  Mg  Mg23  1  0.25526851  0.25526851  0.50000000  1
  Mg  Mg24  1  0.25631377  0.74368623  0.00000000  1
  Mg  Mg25  1  0.25526851  0.74473149  0.50000000  1
  Mg  Mg26  1  0.74368623  0.25631377  -0.00000000  1
  Mg  Mg27  1  0.74473149  0.25526851  0.50000000  1
  Mg  Mg28  1  0.74368623  0.74368623  0.00000000  1
  Mg  Mg29  1  0.74473149  0.74473149  0.50000000  1
  O  O0  1  0.26232604  0.00000000  -0.00000000  1
  O  O1  1  0.28652496  0.00000000  0.50000000  1
  O  O2  1  0.25315674  0.50000000  0.00000000  1
  O  O3  1  0.25746171  0.50000000  0.50000000  1
  O  O4  1  0.73767396  0.00000000  0.00000000  1
  O  O5  1  0.71347504  0.00000000  0.50000000  1
  O  O6  1  0.74684326  0.50000000  -0.00000000  1
  O  O7  1  0.74253829  0.50000000  0.50000000  1
  O  O8  1  0.24975822  0.24975822  0.25009094  1
  O  O9  1  0.24975822  0.24975822  0.74990906  1
  O  O10  1  0.24975822  0.75024178  0.25009094  1
  O  O11  1  0.24975822  0.75024178  0.74990906  1
  O  O12  1  0.75024178  0.24975822  0.25009094  1
  O  O13  1  0.75024178  0.24975822  0.74990906  1
  O  O14  1  0.75024178  0.75024178  0.25009094  1
  O  O15  1  0.75024178  0.75024178  0.74990906  1
  O  O16  1  -0.00000000  0.00000000  0.22985189  1
  O  O17  1  -0.00000000  0.00000000  0.77014811  1
  O  O18  1  -0.00000000  0.50000000  0.24303171  1
  O  O19  1  -0.00000000  0.50000000  0.75696829  1
  O  O20  1  0.50000000  0.00000000  0.24303171  1
  O  O21  1  0.50000000  0.00000000  0.75696829  1
  O  O22  1  0.50000000  0.50000000  0.24758310  1
  O  O23  1  0.50000000  0.50000000  0.75241690  1
  O  O24  1  -0.00000000  0.26232604  -0.00000000  1
  O  O25  1  -0.00000000  0.28652496  0.50000000  1
  O  O26  1  -0.00000000  0.73767396  0.00000000  1
  O  O27  1  -0.00000000  0.71347504  0.50000000  1
  O  O28  1  0.50000000  0.25315674  -0.00000000  1
  O  O29  1  0.50000000  0.25746171  0.50000000  1
  O  O30  1  0.50000000  0.74684326  0.00000000  1
  O  O31  1  0.50000000  0.74253829  0.50000000  1
loop_
_geom_bond_atom_site_label_1
_geom_bond_atom_site_label_2
_geom_bond_distance
_geom_bond_site_symmetry_2
Cs0 O16 2.359965 1_555
Cs0 O17 2.359965 1_555
Cs0 O5 2.460750 1_455
Cs0 O27 2.460750 1_545
Cs0 O1 2.460750 1_555
Cs0 O25 2.460750 1_555
Mg0 O26 2.041205 1_555
Mg0 O24 2.041205 1_555
Mg0 O18 2.123081 1_555
Mg0 O19 2.123081 1_554
Mg0 O2 2.174175 1_555
Mg0 O6 2.174175 1_455
Mg1 O25 1.833379 1_555
Mg1 O27 1.833379 1_555
Mg1 O7 2.211147 1_455
Mg1 O3 2.211147 1_555
Mg1 O18 2.244828 1_555
Mg1 O19 2.244828 1_555
Mg2 O4 2.041205 1_555
Mg2 O0 2.041205 1_555
Mg2 O20 2.123081 1_555
Mg2 O21 2.123081 1_554
Mg2 O30 2.174175 1_545
Mg2 O28 2.174175 1_555
Mg3 O1 1.833379 1_555
Mg3 O5 1.833379 1_555
Mg3 O31 2.211147 1_545
Mg3 O29 2.211147 1_555
Mg3 O21 2.244828 1_555
Mg3 O20 2.244828 1_555
Mg4 O30 2.119953 1_555
Mg4 O2 2.119953 1_555
Mg4 O28 2.119953 1_555
Mg4 O6 2.119953 1_555
Mg4 O22 2.162841 1_555
Mg4 O23 2.162841 1_554
Mg5 O29 2.082981 1_555
Mg5 O3 2.082981 1_555
Mg5 O31 2.082981 1_555
Mg5 O7 2.082981 1_555
Mg5 O23 2.205068 1_555
Mg5 O22 2.205068 1_555
Mg6 O18 2.056697 1_555
Mg6 O8 2.147261 1_555
Mg6 O12 2.147261 1_455
Mg6 O25 2.165570 1_555
Mg6 O24 2.213719 1_555
Mg6 O16 2.248859 1_555
Mg7 O19 2.056697 1_555
Mg7 O9 2.147261 1_555
Mg7 O13 2.147261 1_455
Mg7 O25 2.165570 1_555
Mg7 O24 2.213719 1_556
Mg7 O17 2.248859 1_555
Mg8 O18 2.056697 1_555
Mg8 O10 2.147261 1_555
Mg8 O14 2.147261 1_455
Mg8 O27 2.165570 1_555
Mg8 O26 2.213719 1_555
Mg8 O16 2.248859 1_565
Mg9 O19 2.056697 1_555
Mg9 O11 2.147261 1_555
Mg9 O15 2.147261 1_455
Mg9 O27 2.165570 1_555
Mg9 O26 2.213719 1_556
Mg9 O17 2.248859 1_565
Mg10 O22 2.134722 1_555
Mg10 O12 2.149227 1_555
Mg10 O8 2.149227 1_555
Mg10 O20 2.160952 1_555
Mg10 O29 2.171366 1_555
Mg10 O28 2.197201 1_555
Mg11 O23 2.134722 1_555
Mg11 O9 2.149227 1_555
Mg11 O13 2.149227 1_555
Mg11 O21 2.160952 1_555
Mg11 O29 2.171366 1_555
Mg11 O28 2.197201 1_556
Mg12 O22 2.134722 1_555
Mg12 O10 2.149227 1_555
Mg12 O14 2.149227 1_555
Mg12 O20 2.160952 1_565
Mg12 O31 2.171366 1_555
Mg12 O30 2.197201 1_555
Mg13 O23 2.134722 1_555
Mg13 O15 2.149227 1_555
Mg13 O11 2.149227 1_555
Mg13 O21 2.160952 1_565
Mg13 O31 2.171366 1_555
Mg13 O30 2.197201 1_556
Mg14 O20 2.056697 1_555
Mg14 O8 2.147261 1_555
Mg14 O10 2.147261 1_545
Mg14 O1 2.165570 1_555
Mg14 O0 2.213719 1_555
Mg14 O16 2.248859 1_555
Mg15 O21 2.056697 1_555
Mg15 O9 2.147261 1_555
Mg15 O11 2.147261 1_545
Mg15 O1 2.165570 1_555
Mg15 O0 2.213719 1_556
Mg15 O17 2.248859 1_555
Mg16 O22 2.134722 1_555
Mg16 O10 2.149227 1_555
Mg16 O8 2.149227 1_555
Mg16 O18 2.160952 1_555
Mg16 O3 2.171366 1_555
Mg16 O2 2.197201 1_555
Mg17 O23 2.134722 1_555
Mg17 O9 2.149227 1_555
Mg17 O11 2.149227 1_555
Mg17 O19 2.160952 1_555
Mg17 O3 2.171366 1_555
Mg17 O2 2.197201 1_556
Mg18 O20 2.056697 1_555
Mg18 O12 2.147261 1_555
Mg18 O14 2.147261 1_545
Mg18 O5 2.165570 1_555
Mg18 O4 2.213719 1_555
Mg18 O16 2.248859 1_655
Mg19 O21 2.056697 1_555
Mg19 O13 2.147261 1_555
Mg19 O15 2.147261 1_545
Mg19 O5 2.165570 1_555
Mg19 O4 2.213719 1_556
Mg19 O17 2.248859 1_655
Mg20 O22 2.134722 1_555
Mg20 O12 2.149227 1_555
Mg20 O14 2.149227 1_555
Mg20 O18 2.160952 1_655
Mg20 O7 2.171366 1_555
Mg20 O6 2.197201 1_555
Mg21 O23 2.134722 1_555
Mg21 O15 2.149227 1_555
Mg21 O13 2.149227 1_555
Mg21 O19 2.160952 1_655
Mg21 O7 2.171366 1_555
Mg21 O6 2.197201 1_556
Mg22 O2 2.093016 1_555
Mg22 O28 2.093016 1_555
Mg22 O8 2.186200 1_555
Mg22 O9 2.186200 1_554
Mg22 O24 2.201894 1_555
Mg22 O0 2.201894 1_555
Mg23 O3 2.101901 1_555
Mg23 O29 2.101901 1_555
Mg23 O9 2.184186 1_555
Mg23 O8 2.184186 1_555
Mg23 O25 2.208685 1_555
Mg23 O1 2.208685 1_555
Mg24 O30 2.093016 1_555
Mg24 O2 2.093016 1_555
Mg24 O10 2.186200 1_555
Mg24 O11 2.186200 1_554
Mg24 O0 2.201894 1_565
Mg24 O26 2.201894 1_555
Mg25 O31 2.101901 1_555
Mg25 O3 2.101901 1_555
Mg25 O10 2.184186 1_555
Mg25 O11 2.184186 1_555
Mg25 O1 2.208685 1_565
Mg25 O27 2.208685 1_555
Mg26 O6 2.093016 1_555
Mg26 O28 2.093016 1_555
Mg26 O13 2.186200 1_554
Mg26 O12 2.186200 1_555
Mg26 O24 2.201894 1_655
Mg26 O4 2.201894 1_555
Mg27 O7 2.101901 1_555
Mg27 O29 2.101901 1_555
Mg27 O13 2.184186 1_555
Mg27 O12 2.184186 1_555
Mg27 O25 2.208685 1_655
Mg27 O5 2.208685 1_555
Mg28 O6 2.093016 1_555
Mg28 O30 2.093016 1_555
Mg28 O14 2.186200 1_555
Mg28 O15 2.186200 1_554
Mg28 O4 2.201894 1_565
Mg28 O26 2.201894 1_655
Mg29 O7 2.101901 1_555
Mg29 O31 2.101901 1_555
Mg29 O15 2.184186 1_555
Mg29 O14 2.184186 1_555
Mg29 O27 2.208685 1_655
Mg29 O5 2.208685 1_565
O0 Y0 2.252924 1_555
O4 Y0 2.252924 1_655
O16 Y0 2.007944 1_555
O17 Y0 2.007944 1_556
O24 Y0 2.252924 1_555
O26 Y0 2.252924 1_565
