# generated using pymatgen
data_GaPt3
_symmetry_space_group_name_H-M   'P 1'
_cell_length_a   6.65880900
_cell_length_b   6.65880900
_cell_length_c   5.70627500
_cell_angle_alpha   90.00000000
_cell_angle_beta   90.00000000
_cell_angle_gamma   90.00000000
_symmetry_Int_Tables_number   1
_chemical_formula_structural   GaPt3
_chemical_formula_sum   'Ga4 Pt12'
_cell_volume   253.01473445
_cell_formula_units_Z   4
loop_
 _symmetry_equiv_pos_site_id
 _symmetry_equiv_pos_as_xyz
  1  'x, y, z'
loop_
 _atom_site_type_symbol
 _atom_site_label
 _atom_site_symmetry_multiplicity
 _atom_site_fract_x
 _atom_site_fract_y
 _atom_site_fract_z
 _atom_site_occupancy
  Ga  Ga0  1  0.50000000  0.00000000  0.75718300  1
  Ga  Ga1  1  0.00000000  0.50000000  0.24281700  1
  Ga  Ga2  1  0.50000000  0.00000000  0.24281700  1
  Ga  Ga3  1  0.00000000  0.50000000  0.75718300  1
  Pt  Pt0  1  0.73605500  0.76394500  0.00000000  1
  Pt  Pt1  1  0.27592000  0.77592000  0.50000000  1
  Pt  Pt2  1  0.23605500  0.73605500  0.00000000  1
  Pt  Pt3  1  0.26394500  0.23605500  0.00000000  1
  Pt  Pt4  1  0.00000000  0.00000000  0.74782200  1
  Pt  Pt5  1  0.77592000  0.72408000  0.50000000  1
  Pt  Pt6  1  0.22408000  0.27592000  0.50000000  1
  Pt  Pt7  1  0.72408000  0.22408000  0.50000000  1
  Pt  Pt8  1  0.00000000  0.00000000  0.25217800  1
  Pt  Pt9  1  0.50000000  0.50000000  0.74782200  1
  Pt  Pt10  1  0.50000000  0.50000000  0.25217800  1
  Pt  Pt11  1  0.76394500  0.26394500  0.00000000  1
loop_
_geom_bond_atom_site_label_1
_geom_bond_atom_site_label_2
_geom_bond_distance
_geom_bond_site_symmetry_2
Ga0 Pt1 2.570308 1_545
Ga0 Pt7 2.570308 1_555
Ga0 Pt0 2.619395 1_546
Ga0 Pt3 2.619395 1_556
Ga0 Ga2 2.771161 1_556
Ga0 Pt2 2.845674 1_546
Ga0 Pt11 2.845674 1_556
Ga0 Ga2 2.935114 1_555
Ga0 Pt6 2.984134 1_555
Ga0 Pt5 2.984134 1_545
Ga1 Pt6 2.570308 1_555
Ga1 Pt5 2.570308 1_455
Ga1 Pt2 2.619395 1_555
Ga1 Pt11 2.619395 1_455
Ga1 Ga3 2.771161 1_554
Ga1 Pt3 2.845674 1_555
Ga1 Pt0 2.845674 1_455
Ga1 Ga3 2.935114 1_555
Ga1 Pt7 2.984134 1_455
Ga1 Pt1 2.984134 1_555
Ga2 Pt1 2.570308 1_545
Ga2 Pt7 2.570308 1_555
Ga2 Pt3 2.619395 1_555
Ga2 Pt0 2.619395 1_545
Ga2 Pt11 2.845674 1_555
Ga2 Pt2 2.845674 1_545
Ga2 Pt5 2.984134 1_545
Ga2 Pt6 2.984134 1_555
Ga3 Pt5 2.570308 1_455
Ga3 Pt6 2.570308 1_555
Ga3 Pt2 2.619395 1_556
Ga3 Pt11 2.619395 1_456
Ga3 Pt3 2.845674 1_556
Ga3 Pt0 2.845674 1_456
Ga3 Pt7 2.984134 1_455
Ga3 Pt1 2.984134 1_555
Pt0 Pt9 2.762322 1_554
Pt0 Pt4 2.762322 1_664
Pt0 Pt8 2.762322 1_665
Pt0 Pt10 2.762322 1_555
Pt0 Pt5 2.877729 1_555
Pt0 Pt5 2.877729 1_554
Pt1 Pt4 2.757143 1_565
Pt1 Pt8 2.757143 1_565
Pt1 Pt10 2.757143 1_555
Pt1 Pt9 2.757143 1_555
Pt1 Pt2 2.877729 1_556
Pt1 Pt2 2.877729 1_555
Pt2 Pt9 2.762322 1_554
Pt2 Pt8 2.762322 1_565
Pt2 Pt4 2.762322 1_564
Pt3 Pt9 2.762322 1_554
Pt3 Pt8 2.762322 1_555
Pt3 Pt4 2.762322 1_554
Pt3 Pt6 2.877729 1_554
Pt3 Pt6 2.877729 1_555
Pt4 Pt7 2.757143 1_455
Pt4 Pt5 2.757143 1_445
Pt4 Pt6 2.757143 1_555
Pt4 Pt8 2.828281 1_555
Pt4 Pt8 2.877994 1_556
Pt5 Pt8 2.757143 1_665
Pt5 Pt9 2.757143 1_555
Pt6 Pt9 2.757143 1_555
Pt6 Pt8 2.757143 1_555
Pt7 Pt8 2.757143 1_655
Pt7 Pt9 2.757143 1_555
Pt10 Pt6 2.757143 1_555
Pt10 Pt7 2.757143 1_555
Pt10 Pt5 2.757143 1_555
Pt10 Pt2 2.762322 1_555
Pt10 Pt3 2.762322 1_555
Pt10 Pt11 2.762322 1_555
Pt10 Pt9 2.828281 1_555
Pt10 Pt9 2.877994 1_554
Pt11 Pt4 2.762322 1_654
Pt11 Pt9 2.762322 1_554
Pt11 Pt8 2.762322 1_655
Pt11 Pt7 2.877729 1_554
Pt11 Pt7 2.877729 1_555
