# generated using pymatgen
data_LiCu6OF11
_symmetry_space_group_name_H-M   'P 1'
_cell_length_a   5.41787201
_cell_length_b   4.70038346
_cell_length_c   9.12851998
_cell_angle_alpha   91.67683169
_cell_angle_beta   90.32875436
_cell_angle_gamma   87.09440421
_symmetry_Int_Tables_number   1
_chemical_formula_structural   LiCu6OF11
_chemical_formula_sum   'Li1 Cu6 O1 F11'
_cell_volume   232.06719774
_cell_formula_units_Z   1
loop_
 _symmetry_equiv_pos_site_id
 _symmetry_equiv_pos_as_xyz
  1  'x, y, z'
loop_
 _atom_site_type_symbol
 _atom_site_label
 _atom_site_symmetry_multiplicity
 _atom_site_fract_x
 _atom_site_fract_y
 _atom_site_fract_z
 _atom_site_occupancy
  Li  Li0  1  0.49274200  0.70120900  0.79823900  1
  Cu  Cu0  1  0.99413800  0.99210500  0.00420700  1
  Cu  Cu1  1  0.47119200  0.52116400  0.07950900  1
  Cu  Cu2  1  0.33793200  0.98494800  0.32716800  1
  Cu  Cu3  1  0.82577000  0.50624700  0.32952000  1
  Cu  Cu4  1  0.15705000  0.48935300  0.63966800  1
  Cu  Cu5  1  0.68453700  0.05051700  0.62720600  1
  O  O0  1  0.55638200  0.70645200  0.25149700  1
  F  F0  1  0.26525900  0.18659400  0.08262700  1
  F  F1  1  0.06122500  0.77438700  0.25604500  1
  F  F2  1  0.77940800  0.27843100  0.08915300  1
  F  F3  1  0.11071700  0.27938200  0.40874000  1
  F  F4  1  0.60869700  0.20291100  0.40704300  1
  F  F5  1  0.37892200  0.80676900  0.60337300  1
  F  F6  1  0.87063300  0.70590700  0.56535200  1
  F  F7  1  0.45584700  0.31810200  0.73068100  1
  F  F8  1  0.22765000  0.69860900  0.93099200  1
  F  F9  1  0.95819100  0.21308700  0.72867500  1
  F  F10  1  0.72620800  0.79215700  0.92936400  1
loop_
_geom_bond_atom_site_label_1
_geom_bond_atom_site_label_2
_geom_bond_distance
_geom_bond_site_symmetry_2
Cu0 F10 1.883236 1_554
Cu0 F2 1.885889 1_565
Cu0 F0 1.895152 1_665
Cu0 F8 1.931114 1_654
Cu1 O0 1.840880 1_555
Cu1 F0 1.974740 1_555
Cu1 F2 1.977122 1_555
Cu1 F8 2.051534 1_554
Cu1 F10 2.390043 1_554
Cu2 O0 1.841435 1_555
Cu2 F1 1.936544 1_555
Cu2 F3 1.939769 1_565
Cu2 F4 1.956947 1_565
Cu2 F0 2.472334 1_565
Cu3 O0 1.846905 1_555
Cu3 F1 1.971797 1_655
Cu3 F3 1.977076 1_655
Cu3 F4 2.038490 1_555
Cu3 F6 2.339495 1_555
Cu3 F2 2.430572 1_555
Cu4 F9 1.928941 1_455
Cu4 F6 1.942293 1_455
Cu4 F7 1.962254 1_555
Cu4 F5 1.999018 1_555
Cu4 F3 2.319084 1_555
Cu5 F9 1.922945 1_555
Cu5 F6 1.935602 1_545
Cu5 F7 1.948134 1_555
Cu5 F5 2.067656 1_545
Cu5 F4 2.183120 1_555
F5 Li0 1.949044 1_555
F7 Li0 1.906060 1_555
F8 Li0 1.885230 1_555
F10 Li0 1.795256 1_555
