# generated using pymatgen
data_Mg16Al12O
_symmetry_space_group_name_H-M   'P 1'
_cell_length_a   9.04976306
_cell_length_b   9.04976306
_cell_length_c   9.04976260
_cell_angle_alpha   108.64947640
_cell_angle_beta   108.64947640
_cell_angle_gamma   108.64947812
_symmetry_Int_Tables_number   1
_chemical_formula_structural   Mg16Al12O
_chemical_formula_sum   'Mg16 Al12 O1'
_cell_volume   587.26175683
_cell_formula_units_Z   1
loop_
 _symmetry_equiv_pos_site_id
 _symmetry_equiv_pos_as_xyz
  1  'x, y, z'
loop_
 _atom_site_type_symbol
 _atom_site_label
 _atom_site_symmetry_multiplicity
 _atom_site_fract_x
 _atom_site_fract_y
 _atom_site_fract_z
 _atom_site_occupancy
  Mg  Mg0  1  0.46334600  0.46334600  0.69523900  1
  Mg  Mg1  1  0.00632100  0.00632100  0.33553400  1
  Mg  Mg2  1  0.70128400  0.70128400  0.29033000  1
  Mg  Mg3  1  0.80549600  0.80549600  0.80549600  1
  Mg  Mg4  1  0.69523900  0.46334600  0.46334600  1
  Mg  Mg5  1  0.59356900  0.33048300  0.00298600  1
  Mg  Mg6  1  0.33048300  0.00298600  0.59356900  1
  Mg  Mg7  1  0.33553400  0.00632100  0.00632100  1
  Mg  Mg8  1  0.00298600  0.59356900  0.33048300  1
  Mg  Mg9  1  0.70128400  0.29033000  0.70128400  1
  Mg  Mg10  1  0.29033000  0.70128400  0.70128400  1
  Mg  Mg11  1  0.59356900  0.00298600  0.33048300  1
  Mg  Mg12  1  0.00632100  0.33553400  0.00632100  1
  Mg  Mg13  1  0.00298600  0.33048300  0.59356900  1
  Mg  Mg14  1  0.33048300  0.59356900  0.00298600  1
  Mg  Mg15  1  0.46334600  0.69523900  0.46334600  1
  Al  Al0  1  0.20368200  0.20368200  0.80206800  1
  Al  Al1  1  0.35376500  0.35376500  0.16105100  1
  Al  Al2  1  0.02635000  0.83576200  0.64049000  1
  Al  Al3  1  0.35376500  0.16105100  0.35376500  1
  Al  Al4  1  0.83576200  0.64049000  0.02635000  1
  Al  Al5  1  0.02635000  0.64049000  0.83576200  1
  Al  Al6  1  0.20368200  0.80206800  0.20368200  1
  Al  Al7  1  0.80206800  0.20368200  0.20368200  1
  Al  Al8  1  0.64049000  0.02635000  0.83576200  1
  Al  Al9  1  0.64049000  0.83576200  0.02635000  1
  Al  Al10  1  0.16105100  0.35376500  0.35376500  1
  Al  Al11  1  0.83576200  0.02635000  0.64049000  1
  O  O0  1  0.59422400  0.59422400  0.59422400  1
loop_
_geom_bond_atom_site_label_1
_geom_bond_atom_site_label_2
_geom_bond_distance
_geom_bond_site_symmetry_2
Mg0 O0 2.032026 1_555
Mg0 Mg10 3.037584 1_555
Mg0 Mg9 3.037584 1_555
Mg1 Mg2 3.014970 1_445
Mg1 Mg6 3.127348 1_555
Mg1 Mg13 3.127348 1_555
Mg2 Mg4 3.037584 1_555
Mg2 Mg5 3.111067 1_555
Mg2 Mg8 3.135471 1_655
Mg3 O0 1.988196 1_555
Mg4 O0 2.032026 1_555
Mg4 Mg9 3.037584 1_555
Mg5 Mg7 3.127348 1_555
Mg5 Mg9 3.135471 1_554
Mg6 Mg9 3.111067 1_555
Mg10 Mg7 3.014970 1_566
Mg10 Mg15 3.037584 1_555
Mg10 Mg8 3.111067 1_555
Mg10 Mg13 3.111067 1_555
Mg10 Mg14 3.135471 1_556
Mg10 Mg6 3.135471 1_565
Mg11 Mg9 3.111067 1_555
Mg11 Mg7 3.127348 1_555
Mg11 Mg2 3.135471 1_545
Mg12 Mg9 3.014970 1_454
Mg12 Mg8 3.127348 1_555
Mg12 Mg14 3.127348 1_555
Mg13 Mg9 3.135471 1_455
Mg14 Mg2 3.111067 1_555
Mg15 O0 2.032026 1_555
Mg15 Mg2 3.037584 1_555
Al0 Al1 2.723929 1_556
Al0 Al11 2.787074 1_455
Al0 Al2 2.787074 1_545
Al0 Mg6 2.949879 1_555
Al0 Mg13 2.949879 1_555
Al0 Mg14 3.007553 1_556
Al0 Mg5 3.007553 1_556
Al0 Mg12 3.177174 1_556
Al0 Mg7 3.177174 1_556
Al0 Mg0 3.369418 1_555
Al1 Al3 2.833452 1_555
Al1 Al10 2.833452 1_555
Al1 Mg7 2.929012 1_555
Al1 Mg12 2.929012 1_555
Al1 Mg14 2.980819 1_555
Al1 Mg5 2.980819 1_555
Al1 Mg15 2.985856 1_555
Al1 Mg4 2.985856 1_555
Al1 Mg2 3.180921 1_555
Al2 Mg8 2.847982 1_555
Al2 Mg3 2.849530 1_455
Al2 Al5 2.871062 1_555
Al2 Mg6 2.922392 1_565
Al2 Mg10 2.989634 1_555
Al2 Mg7 3.036003 1_566
Al2 Mg2 3.075498 1_455
Al2 Mg4 3.149773 1_455
Al3 Al6 2.723930 1_545
Al3 Mg7 2.929012 1_555
Al3 Mg1 2.929012 1_555
Al3 Mg6 2.980819 1_555
Al3 Mg11 2.980819 1_555
Al3 Mg0 2.985856 1_555
Al3 Mg4 2.985856 1_555
Al3 Mg9 3.180921 1_555
Al4 Al6 2.787074 1_655
Al4 Al5 2.802194 1_654
Al4 Mg5 2.847982 1_555
Al4 Mg3 2.849530 1_554
Al4 Al9 2.871062 1_555
Al4 Mg8 2.922392 1_655
Al4 Mg2 2.989634 1_555
Al4 Mg1 3.036003 1_665
Al4 Mg9 3.075498 1_554
Al4 Mg0 3.149773 1_554
Al5 Al6 2.787074 1_556
Al5 Mg13 2.847982 1_555
Al5 Mg3 2.849530 1_455
Al5 Mg14 2.922392 1_556
Al5 Mg10 2.989634 1_555
Al5 Mg7 3.036003 1_566
Al5 Mg9 3.075498 1_455
Al5 Mg4 3.149773 1_455
Al6 Mg8 2.949879 1_555
Al6 Mg14 2.949879 1_555
Al6 Mg6 3.007553 1_565
Al6 Mg11 3.007553 1_565
Al6 Mg7 3.177174 1_565
Al6 Mg1 3.177175 1_565
Al6 Mg15 3.369418 1_555
Al7 Al8 2.787074 1_554
Al7 Al9 2.787074 1_545
Al7 Mg11 2.949879 1_555
Al7 Mg5 2.949879 1_555
Al7 Mg13 3.007553 1_655
Al7 Mg8 3.007553 1_655
Al7 Mg12 3.177174 1_655
Al7 Mg1 3.177175 1_655
Al7 Mg4 3.369418 1_555
Al8 Al9 2.802194 1_546
Al8 Mg6 2.847982 1_555
Al8 Mg3 2.849530 1_545
Al8 Mg5 2.922392 1_556
Al8 Mg9 2.989634 1_555
Al8 Mg12 3.036003 1_656
Al8 Mg10 3.075498 1_545
Al8 Mg15 3.149773 1_545
Al9 Mg14 2.847982 1_555
Al9 Mg3 2.849530 1_554
Al9 Mg11 2.922392 1_565
Al9 Mg2 2.989634 1_555
Al9 Mg1 3.036003 1_665
Al9 Mg10 3.075498 1_554
Al9 Mg0 3.149773 1_554
Al10 Al7 2.723930 1_455
Al10 Al3 2.833452 1_555
Al10 Mg12 2.929012 1_555
Al10 Mg1 2.929012 1_555
Al10 Mg13 2.980819 1_555
Al10 Mg8 2.980819 1_555
Al10 Mg0 2.985856 1_555
Al10 Mg15 2.985856 1_555
Al10 Mg10 3.180921 1_555
Al11 Al2 2.802194 1_645
Al11 Mg11 2.847982 1_555
Al11 Mg3 2.849530 1_545
Al11 Al8 2.871062 1_555
Al11 Mg13 2.922392 1_655
Al11 Mg9 2.989634 1_555
Al11 Mg12 3.036003 1_656
Al11 Mg2 3.075498 1_545
Al11 Mg15 3.149773 1_545
