# generated using pymatgen
data_Bi4Se3N2
_symmetry_space_group_name_H-M   'P 1'
_cell_length_a   7.18073703
_cell_length_b   11.15247521
_cell_length_c   11.08990782
_cell_angle_alpha   90.00000000
_cell_angle_beta   90.00000000
_cell_angle_gamma   90.00000000
_symmetry_Int_Tables_number   1
_chemical_formula_structural   Bi4Se3N2
_chemical_formula_sum   'Bi16 Se12 N8'
_cell_volume   888.11299609
_cell_formula_units_Z   4
loop_
 _symmetry_equiv_pos_site_id
 _symmetry_equiv_pos_as_xyz
  1  'x, y, z'
loop_
 _atom_site_type_symbol
 _atom_site_label
 _atom_site_symmetry_multiplicity
 _atom_site_fract_x
 _atom_site_fract_y
 _atom_site_fract_z
 _atom_site_occupancy
  Bi  Bi0  1  0.59006666  0.25000000  0.81619775  1
  Bi  Bi1  1  0.09006666  0.25000000  0.68380225  1
  Bi  Bi2  1  0.40993334  0.75000000  0.18380225  1
  Bi  Bi3  1  0.90993334  0.75000000  0.31619775  1
  Bi  Bi4  1  0.73925332  0.25000000  0.46450753  1
  Bi  Bi5  1  0.23925332  0.25000000  0.03549247  1
  Bi  Bi6  1  0.26074668  0.75000000  0.53549247  1
  Bi  Bi7  1  0.76074668  0.75000000  0.96450753  1
  Bi  Bi8  1  0.67752855  0.44418824  0.09812362  1
  Bi  Bi9  1  0.17752855  0.05581176  0.40187638  1
  Bi  Bi10  1  0.32247145  0.94418824  0.90187638  1
  Bi  Bi11  1  0.82247145  0.55581176  0.59812362  1
  Bi  Bi12  1  0.32247145  0.55581176  0.90187638  1
  Bi  Bi13  1  0.82247145  0.94418824  0.59812362  1
  Bi  Bi14  1  0.67752855  0.05581176  0.09812362  1
  Bi  Bi15  1  0.17752855  0.44418824  0.40187638  1
  Se  Se0  1  0.95282956  0.25000000  0.26448201  1
  Se  Se1  1  0.45282956  0.25000000  0.23551799  1
  Se  Se2  1  0.04717044  0.75000000  0.73551799  1
  Se  Se3  1  0.54717044  0.75000000  0.76448201  1
  Se  Se4  1  0.60703956  0.56498554  0.36142709  1
  Se  Se5  1  0.10703956  0.93501446  0.13857291  1
  Se  Se6  1  0.39296044  0.06498554  0.63857291  1
  Se  Se7  1  0.89296044  0.43501446  0.86142709  1
  Se  Se8  1  0.39296044  0.43501446  0.63857291  1
  Se  Se9  1  0.89296044  0.06498554  0.86142709  1
  Se  Se10  1  0.60703956  0.93501446  0.36142709  1
  Se  Se11  1  0.10703956  0.56498554  0.13857291  1
  N  N0  1  0.55030458  0.62182141  0.04391985  1
  N  N1  1  0.05030458  0.87817859  0.45608015  1
  N  N2  1  0.44969542  0.12182141  0.95608015  1
  N  N3  1  0.94969542  0.37817859  0.54391985  1
  N  N4  1  0.44969542  0.37817859  0.95608015  1
  N  N5  1  0.94969542  0.12182141  0.54391985  1
  N  N6  1  0.55030458  0.87817859  0.04391985  1
  N  N7  1  0.05030458  0.62182141  0.45608015  1
loop_
_geom_bond_atom_site_label_1
_geom_bond_atom_site_label_2
_geom_bond_distance
_geom_bond_site_symmetry_2
Bi0 N2 2.337942 1_555
Bi0 N4 2.337942 1_555
Bi0 Se9 3.039689 1_555
Bi0 Se7 3.039689 1_555
Bi0 Se6 3.184500 1_555
Bi0 Se8 3.184500 1_555
Bi1 N3 2.337942 1_455
Bi1 N5 2.337942 1_455
Bi1 Se6 3.039689 1_555
Bi1 Se8 3.039689 1_555
Bi1 Se7 3.184500 1_455
Bi1 Se9 3.184500 1_455
Bi2 N6 2.337942 1_555
Bi2 N0 2.337942 1_555
Bi2 Se11 3.039689 1_555
Bi2 Se5 3.039689 1_555
Bi2 Se10 3.184500 1_555
Bi2 Se4 3.184500 1_555
Bi3 N7 2.337942 1_655
Bi3 N1 2.337942 1_655
Bi3 Se4 3.039689 1_555
Bi3 Se10 3.039689 1_555
Bi3 Se11 3.184500 1_655
Bi3 Se5 3.184500 1_655
Bi4 N3 2.258893 1_555
Bi4 N5 2.258893 1_555
Bi4 Se0 2.696801 1_555
Bi4 Se1 3.267886 1_555
Bi5 N2 2.258893 1_554
Bi5 N4 2.258893 1_554
Bi5 Se1 2.696801 1_555
Bi5 Se0 3.267886 1_455
Bi6 N1 2.258893 1_555
Bi6 N7 2.258893 1_555
Bi6 Se2 2.696801 1_555
Bi6 Se3 3.267886 1_555
Bi7 N6 2.258893 1_556
Bi7 N0 2.258893 1_556
Bi7 Se3 2.696801 1_555
Bi7 Se2 3.267886 1_655
Bi8 N0 2.262850 1_555
Bi8 N4 2.387443 1_554
Bi8 Se7 3.048586 1_554
Bi8 Se1 3.100838 1_555
Bi8 Se4 3.255393 1_555
Bi8 Se11 3.395359 1_655
Bi9 N1 2.262850 1_545
Bi9 N5 2.387443 1_455
Bi9 Se6 3.048586 1_555
Bi9 Se0 3.100838 1_455
Bi9 Se5 3.255393 1_545
Bi9 Se10 3.395359 1_545
Bi10 N2 2.262850 1_565
Bi10 N6 2.387443 1_556
Bi10 Se5 3.048586 1_556
Bi10 Se3 3.100838 1_555
Bi10 Se6 3.255393 1_565
Bi10 Se9 3.395359 1_465
Bi11 N3 2.262850 1_555
Bi11 N7 2.387443 1_655
Bi11 Se4 3.048586 1_555
Bi11 Se2 3.100838 1_655
Bi11 Se7 3.255393 1_555
Bi11 Se8 3.395359 1_555
Bi12 N4 2.262850 1_555
Bi12 N0 2.387443 1_556
Bi12 Se11 3.048586 1_556
Bi12 Se3 3.100838 1_555
Bi12 Se8 3.255393 1_555
Bi12 Se7 3.395359 1_455
Bi13 N5 2.262850 1_565
Bi13 N1 2.387443 1_655
Bi13 Se10 3.048586 1_555
Bi13 Se2 3.100838 1_655
Bi13 Se9 3.255393 1_565
Bi13 Se6 3.395359 1_565
Bi14 N6 2.262850 1_545
Bi14 N2 2.387443 1_554
Bi14 Se9 3.048586 1_554
Bi14 Se1 3.100838 1_555
Bi14 Se10 3.255393 1_545
Bi14 Se5 3.395359 1_645
Bi15 N7 2.262850 1_555
Bi15 N3 2.387443 1_455
Bi15 Se8 3.048586 1_555
Bi15 Se0 3.100838 1_455
Bi15 Se11 3.255393 1_555
Bi15 Se4 3.395359 1_555
