# generated using pymatgen
data_Ni10(WC)3
_symmetry_space_group_name_H-M   'P 1'
_cell_length_a   7.38388526
_cell_length_b   7.38388526
_cell_length_c   7.83836000
_cell_angle_alpha   90.00000000
_cell_angle_beta   90.00000000
_cell_angle_gamma   119.99999337
_symmetry_Int_Tables_number   1
_chemical_formula_structural   Ni10(WC)3
_chemical_formula_sum   'Ni20 W6 C6'
_cell_volume   370.10567594
_cell_formula_units_Z   2
loop_
 _symmetry_equiv_pos_site_id
 _symmetry_equiv_pos_as_xyz
  1  'x, y, z'
loop_
 _atom_site_type_symbol
 _atom_site_label
 _atom_site_symmetry_multiplicity
 _atom_site_fract_x
 _atom_site_fract_y
 _atom_site_fract_z
 _atom_site_occupancy
  Ni  Ni0  1  0.10916800  0.89083200  0.25000000  1
  Ni  Ni1  1  0.10916800  0.21833700  0.25000000  1
  Ni  Ni2  1  0.78166300  0.89083200  0.25000000  1
  Ni  Ni3  1  0.89083200  0.10916800  0.75000000  1
  Ni  Ni4  1  0.89083200  0.78166300  0.75000000  1
  Ni  Ni5  1  0.21833700  0.10916800  0.75000000  1
  Ni  Ni6  1  0.20140400  0.79859600  0.94966900  1
  Ni  Ni7  1  0.20140400  0.40280900  0.94966900  1
  Ni  Ni8  1  0.59719100  0.79859600  0.94966900  1
  Ni  Ni9  1  0.79859600  0.20140400  0.05033100  1
  Ni  Ni10  1  0.79859600  0.59719100  0.05033100  1
  Ni  Ni11  1  0.40280900  0.20140400  0.05033100  1
  Ni  Ni12  1  0.79859600  0.20140400  0.44966900  1
  Ni  Ni13  1  0.79859600  0.59719100  0.44966900  1
  Ni  Ni14  1  0.40280900  0.20140400  0.44966900  1
  Ni  Ni15  1  0.20140400  0.79859600  0.55033100  1
  Ni  Ni16  1  0.20140400  0.40280900  0.55033100  1
  Ni  Ni17  1  0.59719100  0.79859600  0.55033100  1
  Ni  Ni18  1  0.00000000  0.00000000  0.50000000  1
  Ni  Ni19  1  0.00000000  0.00000000  0.00000000  1
  W  W0  1  0.45518400  0.54481600  0.25000000  1
  W  W1  1  0.45518400  0.91036800  0.25000000  1
  W  W2  1  0.08963200  0.54481600  0.25000000  1
  W  W3  1  0.54481600  0.45518400  0.75000000  1
  W  W4  1  0.54481600  0.08963200  0.75000000  1
  W  W5  1  0.91036800  0.45518400  0.75000000  1
  C  C0  1  0.50000000  0.50000000  0.50000000  1
  C  C1  1  0.50000000  0.00000000  0.50000000  1
  C  C2  1  0.00000000  0.50000000  0.50000000  1
  C  C3  1  0.50000000  0.50000000  0.00000000  1
  C  C4  1  0.50000000  0.00000000  0.00000000  1
  C  C5  1  0.00000000  0.50000000  0.00000000  1
loop_
_geom_bond_atom_site_label_1
_geom_bond_atom_site_label_2
_geom_bond_distance
_geom_bond_site_symmetry_2
Ni0 Ni18 2.406098 1_565
Ni0 Ni19 2.406098 1_565
Ni0 W2 2.485958 1_555
Ni0 W1 2.485958 1_555
Ni1 Ni19 2.406102 1_555
Ni1 Ni18 2.406102 1_555
Ni1 W2 2.485950 1_555
Ni1 W0 2.485954 1_555
Ni2 W1 2.485950 1_555
Ni2 W0 2.485954 1_555
Ni3 W4 2.485958 1_555
Ni3 W5 2.485958 1_555
Ni4 W5 2.485950 1_555
Ni4 W3 2.485954 1_555
Ni5 W4 2.485950 1_555
Ni5 W3 2.485954 1_555
Ni10 Ni19 2.605852 1_665
Ni11 Ni19 2.605852 1_555
Ni12 Ni18 2.605846 1_655
Ni13 Ni18 2.605852 1_665
Ni14 Ni18 2.605852 1_555
Ni15 Ni18 2.605846 1_565
Ni16 Ni18 2.605852 1_555
Ni17 Ni18 2.605852 1_665
Ni18 Ni3 2.406098 1_455
Ni18 Ni2 2.406102 1_445
Ni18 Ni4 2.406102 1_445
Ni18 Ni5 2.406102 1_555
Ni19 Ni3 2.406098 1_454
Ni19 Ni2 2.406102 1_445
Ni19 Ni5 2.406102 1_554
Ni19 Ni4 2.406102 1_444
Ni19 Ni6 2.605846 1_544
Ni19 Ni9 2.605846 1_455
Ni19 Ni7 2.605852 1_554
Ni19 Ni8 2.605852 1_444
C0 Ni17 1.987342 1_555
C0 Ni14 1.987342 1_555
C0 Ni16 1.987342 1_555
C0 Ni13 1.987342 1_555
C0 W3 2.041693 1_555
C0 W0 2.041693 1_555
C1 Ni14 1.987335 1_555
C1 Ni17 1.987335 1_545
C1 Ni12 1.987340 1_555
C1 Ni15 1.987340 1_545
C1 W1 2.041693 1_545
C1 W4 2.041693 1_555
C2 Ni16 1.987335 1_555
C2 Ni13 1.987335 1_455
C2 Ni15 1.987340 1_555
C2 Ni12 1.987340 1_455
C2 W5 2.041693 1_455
C2 W2 2.041693 1_555
C3 Ni11 1.987342 1_555
C3 Ni7 1.987342 1_554
C3 Ni8 1.987342 1_554
C3 Ni10 1.987342 1_555
C3 W3 2.041693 1_554
C3 W0 2.041693 1_555
C4 Ni11 1.987335 1_555
C4 Ni8 1.987335 1_544
C4 Ni9 1.987340 1_555
C4 Ni6 1.987340 1_544
C4 W1 2.041693 1_545
C4 W4 2.041693 1_554
C5 Ni7 1.987335 1_554
C5 Ni10 1.987335 1_455
C5 Ni6 1.987340 1_554
C5 Ni9 1.987340 1_455
C5 W5 2.041693 1_454
C5 W2 2.041693 1_555
