# generated using pymatgen
data_SmAlZn
_symmetry_space_group_name_H-M   'P 1'
_cell_length_a   5.73764900
_cell_length_b   5.73764900
_cell_length_c   7.38098823
_cell_angle_alpha   51.00406164
_cell_angle_beta   51.00406164
_cell_angle_gamma   46.28794016
_symmetry_Int_Tables_number   1
_chemical_formula_structural   SmAlZn
_chemical_formula_sum   'Sm2 Al2 Zn2'
_cell_volume   128.06715815
_cell_formula_units_Z   2
loop_
 _symmetry_equiv_pos_site_id
 _symmetry_equiv_pos_as_xyz
  1  'x, y, z'
loop_
 _atom_site_type_symbol
 _atom_site_label
 _atom_site_symmetry_multiplicity
 _atom_site_fract_x
 _atom_site_fract_y
 _atom_site_fract_z
 _atom_site_occupancy
  Sm  Sm0  1  0.53516945  0.53516945  0.21124380  1
  Sm  Sm1  1  0.46483055  0.46483055  0.78875620  1
  Al  Al0  1  0.16444925  0.16444925  0.38590191  1
  Al  Al1  1  0.83555075  0.83555075  0.61409809  1
  Zn  Zn0  1  0.83584620  0.83584620  0.21500656  1
  Zn  Zn1  1  0.16415380  0.16415380  0.78499344  1
loop_
_geom_bond_atom_site_label_1
_geom_bond_atom_site_label_2
_geom_bond_distance
_geom_bond_site_symmetry_2
Sm0 Zn0 3.070829 1_545
Sm0 Zn0 3.070829 1_455
Sm0 Zn0 3.191742 1_555
Sm0 Zn1 3.250986 1_555
Sm0 Zn1 3.312952 1_564
Sm0 Zn1 3.312952 1_654
Sm1 Zn1 3.070829 1_655
Sm1 Zn1 3.070829 1_565
Sm1 Zn1 3.191742 1_555
Sm1 Zn0 3.250986 1_555
Sm1 Zn0 3.312952 1_456
Sm1 Zn0 3.312952 1_546
Al0 Zn0 2.612518 1_455
Al0 Zn0 2.612518 1_545
Al0 Al1 2.623088 1_445
Al0 Zn1 2.943557 1_555
Al0 Sm1 3.129152 1_545
Al0 Sm1 3.129152 1_455
Al0 Sm0 3.172016 1_555
Al0 Sm1 3.217455 1_554
Al0 Sm0 3.318937 1_545
Al0 Sm0 3.318937 1_455
Al1 Zn1 2.612518 1_655
Al1 Zn1 2.612518 1_565
Al1 Zn0 2.943557 1_555
Al1 Sm0 3.129152 1_655
Al1 Sm0 3.129152 1_565
Al1 Sm1 3.172016 1_555
Al1 Sm0 3.217455 1_556
Al1 Sm1 3.318937 1_565
Al1 Sm1 3.318937 1_655
Zn0 Zn1 2.650610 1_664
