# generated using pymatgen
data_Rb2Na(NO3)3
_symmetry_space_group_name_H-M   'P 1'
_cell_length_a   5.40849500
_cell_length_b   9.19545800
_cell_length_c   9.81518400
_cell_angle_alpha   90.00000000
_cell_angle_beta   90.00000000
_cell_angle_gamma   90.00000000
_symmetry_Int_Tables_number   1
_chemical_formula_structural   Rb2Na(NO3)3
_chemical_formula_sum   'Rb4 Na2 N6 O18'
_cell_volume   488.14432324
_cell_formula_units_Z   2
loop_
 _symmetry_equiv_pos_site_id
 _symmetry_equiv_pos_as_xyz
  1  'x, y, z'
loop_
 _atom_site_type_symbol
 _atom_site_label
 _atom_site_symmetry_multiplicity
 _atom_site_fract_x
 _atom_site_fract_y
 _atom_site_fract_z
 _atom_site_occupancy
  Rb  Rb0  1  0.50000000  0.91885000  0.83282700  1
  Rb  Rb1  1  0.50000000  0.08115000  0.33282700  1
  Rb  Rb2  1  0.50000000  0.62155800  0.16009500  1
  Rb  Rb3  1  0.50000000  0.37844200  0.66009500  1
  Na  Na0  1  0.00000000  0.30006100  0.11662600  1
  Na  Na1  1  0.00000000  0.69993900  0.61662600  1
  N  N0  1  0.00000000  0.94787600  0.12782000  1
  N  N1  1  0.00000000  0.05212400  0.62782000  1
  N  N2  1  0.00000000  0.58727200  0.91512400  1
  N  N3  1  0.00000000  0.41272800  0.41512400  1
  N  N4  1  0.50000000  0.74850300  0.48314100  1
  N  N5  1  0.50000000  0.25149700  0.98314100  1
  O  O0  1  0.00000000  0.06059800  0.20473300  1
  O  O1  1  0.00000000  0.93940200  0.70473300  1
  O  O2  1  0.79643500  0.89352100  0.09107000  1
  O  O3  1  0.20356500  0.89352100  0.09107000  1
  O  O4  1  0.20356500  0.10647900  0.59107000  1
  O  O5  1  0.79643500  0.10647900  0.59107000  1
  O  O6  1  0.00000000  0.54272900  0.03802800  1
  O  O7  1  0.00000000  0.45727100  0.53802800  1
  O  O8  1  0.20290400  0.60978300  0.85419000  1
  O  O9  1  0.79709600  0.60978300  0.85419000  1
  O  O10  1  0.79709600  0.39021700  0.35419100  1
  O  O11  1  0.20290400  0.39021700  0.35419100  1
  O  O12  1  0.50000000  0.70170000  0.60532900  1
  O  O13  1  0.50000000  0.29830000  0.10532900  1
  O  O14  1  0.70376900  0.77170300  0.42296900  1
  O  O15  1  0.29623100  0.77170300  0.42296900  1
  O  O16  1  0.29623100  0.22829700  0.92296900  1
  O  O17  1  0.70376900  0.22829700  0.92296900  1
loop_
_geom_bond_atom_site_label_1
_geom_bond_atom_site_label_2
_geom_bond_distance
_geom_bond_site_symmetry_2
Na0 O6 2.361034 1_555
Na0 O0 2.365700 1_555
Na0 O16 2.572035 1_554
Na0 O17 2.572035 1_454
Na0 O13 2.706568 1_555
Na0 O13 2.706568 1_455
Na0 O11 2.707141 1_555
Na0 O10 2.707141 1_455
Na1 O7 2.361034 1_555
Na1 O1 2.365700 1_555
Na1 O15 2.572035 1_555
Na1 O14 2.572035 1_455
Na1 O12 2.706568 1_455
Na1 O12 2.706568 1_555
Na1 O9 2.707133 1_455
Na1 O8 2.707133 1_555
N0 O2 1.261779 1_455
N0 O3 1.261779 1_555
N0 O0 1.282300 1_565
N1 O4 1.261779 1_555
N1 O5 1.261779 1_455
N1 O1 1.282300 1_545
N2 O9 1.266825 1_455
N2 O8 1.266825 1_555
N2 O6 1.273965 1_556
N3 O11 1.266820 1_555
N3 O10 1.266820 1_455
N3 O7 1.273965 1_555
N4 O14 1.268427 1_555
N4 O15 1.268427 1_555
N4 O12 1.274181 1_555
N5 O16 1.268427 1_555
N5 O17 1.268427 1_555
N5 O13 1.274181 1_556
O0 Rb1 2.988208 1_455
O0 Rb1 2.988208 1_555
O1 Rb0 2.988208 1_555
O1 Rb0 2.988208 1_455
O2 Rb0 3.008227 1_554
O2 Rb2 3.046898 1_555
O2 Rb1 3.343329 1_565
O3 Rb0 3.008227 1_554
O3 Rb2 3.046898 1_555
O3 Rb1 3.343329 1_565
O4 Rb1 3.008227 1_555
O4 Rb3 3.046898 1_555
O4 Rb0 3.343329 1_545
O5 Rb1 3.008227 1_555
O5 Rb3 3.046898 1_555
O5 Rb0 3.343329 1_545
O6 Rb2 3.045301 1_555
O6 Rb2 3.045301 1_455
O7 Rb3 3.045301 1_555
O7 Rb3 3.045301 1_455
O8 Rb0 3.271535 1_555
O8 Rb3 3.276677 1_555
O8 Rb2 3.407162 1_556
O9 Rb0 3.271535 1_555
O9 Rb3 3.276677 1_555
O9 Rb2 3.407162 1_556
O10 Rb1 3.271536 1_555
O10 Rb2 3.276683 1_555
O10 Rb3 3.407154 1_555
O11 Rb1 3.271536 1_555
O11 Rb2 3.276683 1_555
O11 Rb3 3.407154 1_555
O12 Rb0 2.995527 1_555
O12 Rb3 3.020718 1_555
O13 Rb1 2.995527 1_555
O13 Rb2 3.020718 1_555
O14 Rb2 3.126979 1_555
O14 Rb1 3.177153 1_565
O15 Rb2 3.126979 1_555
O15 Rb1 3.177153 1_565
O16 Rb3 3.126979 1_555
O16 Rb0 3.177153 1_545
O17 Rb3 3.126979 1_555
O17 Rb0 3.177153 1_545
