# generated using pymatgen
data_Ca(NiO2)2
_symmetry_space_group_name_H-M   'P 1'
_cell_length_a   6.30161897
_cell_length_b   6.30161897
_cell_length_c   6.30161882
_cell_angle_alpha   57.31451064
_cell_angle_beta   57.31451064
_cell_angle_gamma   57.31451082
_symmetry_Int_Tables_number   1
_chemical_formula_structural   Ca(NiO2)2
_chemical_formula_sum   'Ca2 Ni4 O8'
_cell_volume   166.00681556
_cell_formula_units_Z   2
loop_
 _symmetry_equiv_pos_site_id
 _symmetry_equiv_pos_as_xyz
  1  'x, y, z'
loop_
 _atom_site_type_symbol
 _atom_site_label
 _atom_site_symmetry_multiplicity
 _atom_site_fract_x
 _atom_site_fract_y
 _atom_site_fract_z
 _atom_site_occupancy
  Ca  Ca0  1  0.01380400  0.01380400  0.01380400  1
  Ca  Ca1  1  0.62485300  0.62485300  0.62485300  1
  Ni  Ni0  1  0.23312100  0.23312100  0.23312100  1
  Ni  Ni1  1  0.63910100  0.63910100  0.11390200  1
  Ni  Ni2  1  0.11390200  0.63910100  0.63910100  1
  Ni  Ni3  1  0.63910100  0.11390200  0.63910100  1
  O  O0  1  0.36298100  0.83649200  0.36298100  1
  O  O1  1  0.83649200  0.36298100  0.36298100  1
  O  O2  1  0.36298100  0.36298100  0.83649200  1
  O  O3  1  0.34650800  0.34650800  0.34650800  1
  O  O4  1  0.87413800  0.87413800  0.87413800  1
  O  O5  1  0.87698100  0.87698100  0.44905800  1
  O  O6  1  0.44905800  0.87698100  0.87698100  1
  O  O7  1  0.87698100  0.44905800  0.87698100  1
loop_
_geom_bond_atom_site_label_1
_geom_bond_atom_site_label_2
_geom_bond_distance
_geom_bond_site_symmetry_2
Ca0 O5 2.168946 1_445
Ca0 O6 2.168946 1_544
Ca0 O7 2.168946 1_454
Ca0 O4 2.198573 1_444
Ca1 O6 2.280422 1_555
Ca1 O7 2.280422 1_555
Ca1 O5 2.280422 1_555
Ca1 O1 2.326429 1_555
Ca1 O0 2.326429 1_555
Ca1 O2 2.326429 1_555
Ni0 O3 1.784898 1_555
Ni0 O2 1.972682 1_554
Ni0 O1 1.972682 1_455
Ni0 O0 1.972682 1_545
Ni1 O7 1.866890 1_554
Ni1 O6 1.866890 1_554
Ni1 O1 1.964644 1_555
Ni1 O0 1.964644 1_555
Ni1 O4 2.050757 1_554
Ni2 O5 1.866890 1_455
Ni2 O7 1.866890 1_455
Ni2 O2 1.964644 1_555
Ni2 O0 1.964644 1_555
Ni2 O4 2.050757 1_455
Ni3 O5 1.866890 1_545
Ni3 O6 1.866890 1_545
Ni3 O2 1.964644 1_555
Ni3 O1 1.964644 1_555
Ni3 O4 2.050757 1_545
