# generated using pymatgen
data_Zr6Al16Rh7
_symmetry_space_group_name_H-M   'P 1'
_cell_length_a   8.75156506
_cell_length_b   8.75156506
_cell_length_c   8.75156506
_cell_angle_alpha   60.00000000
_cell_angle_beta   60.00000000
_cell_angle_gamma   60.00000000
_symmetry_Int_Tables_number   1
_chemical_formula_structural   Zr6Al16Rh7
_chemical_formula_sum   'Zr6 Al16 Rh7'
_cell_volume   473.96053317
_cell_formula_units_Z   1
loop_
 _symmetry_equiv_pos_site_id
 _symmetry_equiv_pos_as_xyz
  1  'x, y, z'
loop_
 _atom_site_type_symbol
 _atom_site_label
 _atom_site_symmetry_multiplicity
 _atom_site_fract_x
 _atom_site_fract_y
 _atom_site_fract_z
 _atom_site_occupancy
  Zr  Zr0  1  0.68987200  0.68987200  0.31012800  1
  Zr  Zr1  1  0.31012800  0.68987200  0.31012800  1
  Zr  Zr2  1  0.68987200  0.31012800  0.31012800  1
  Zr  Zr3  1  0.31012800  0.31012800  0.68987200  1
  Zr  Zr4  1  0.68987200  0.31012800  0.68987200  1
  Zr  Zr5  1  0.31012800  0.68987200  0.68987200  1
  Al  Al0  1  0.88014700  0.88014700  0.35955800  1
  Al  Al1  1  0.88014700  0.35955800  0.88014700  1
  Al  Al2  1  0.35955800  0.88014700  0.88014700  1
  Al  Al3  1  0.88014700  0.88014700  0.88014700  1
  Al  Al4  1  0.11985300  0.11985300  0.64044200  1
  Al  Al5  1  0.11985300  0.64044200  0.11985300  1
  Al  Al6  1  0.64044200  0.11985300  0.11985300  1
  Al  Al7  1  0.11985300  0.11985300  0.11985300  1
  Al  Al8  1  0.66294000  0.66294000  0.01117900  1
  Al  Al9  1  0.66294000  0.01117900  0.66294000  1
  Al  Al10  1  0.01117900  0.66294000  0.66294000  1
  Al  Al11  1  0.66294000  0.66294000  0.66294000  1
  Al  Al12  1  0.33706000  0.33706000  0.98882100  1
  Al  Al13  1  0.33706000  0.98882100  0.33706000  1
  Al  Al14  1  0.98882100  0.33706000  0.33706000  1
  Al  Al15  1  0.33706000  0.33706000  0.33706000  1
  Rh  Rh0  1  0.00000000  0.00000000  0.00000000  1
  Rh  Rh1  1  0.00000000  0.00000000  0.50000000  1
  Rh  Rh2  1  0.50000000  0.00000000  0.50000000  1
  Rh  Rh3  1  0.00000000  0.50000000  0.50000000  1
  Rh  Rh4  1  0.50000000  0.50000000  0.00000000  1
  Rh  Rh5  1  0.00000000  0.50000000  0.00000000  1
  Rh  Rh6  1  0.50000000  0.00000000  0.00000000  1
loop_
_geom_bond_atom_site_label_1
_geom_bond_atom_site_label_2
_geom_bond_distance
_geom_bond_site_symmetry_2
Al0 Rh0 2.569266 1_665
Al0 Rh2 2.718379 1_565
Al0 Rh3 2.718379 1_655
Al0 Rh1 2.718386 1_665
Al0 Zr0 3.153815 1_555
Al0 Zr1 3.153822 1_655
Al0 Zr2 3.153822 1_565
Al1 Rh0 2.569266 1_656
Al1 Rh3 2.718379 1_655
Al1 Rh4 2.718379 1_556
Al1 Rh5 2.718386 1_656
Al1 Zr4 3.153815 1_555
Al1 Zr2 3.153822 1_556
Al1 Zr3 3.153822 1_655
Al2 Rh0 2.569266 1_566
Al2 Rh2 2.718379 1_565
Al2 Rh4 2.718379 1_556
Al2 Rh6 2.718386 1_566
Al2 Zr5 3.153815 1_555
Al2 Zr3 3.153822 1_565
Al2 Zr1 3.153822 1_556
Al3 Rh0 2.569273 1_666
Al3 Rh6 2.718378 1_566
Al3 Rh5 2.718378 1_656
Al3 Rh1 2.718378 1_665
Al3 Zr4 3.153821 1_565
Al3 Zr0 3.153821 1_556
Al3 Zr5 3.153821 1_655
Al4 Rh0 2.569266 1_556
Al4 Rh2 2.718379 1_555
Al4 Rh3 2.718379 1_555
Al4 Rh1 2.718386 1_555
Al4 Zr3 3.153815 1_555
Al4 Zr5 3.153822 1_545
Al4 Zr4 3.153822 1_455
Al5 Rh0 2.569266 1_565
Al5 Rh4 2.718379 1_555
Al5 Rh3 2.718379 1_555
Al5 Rh5 2.718386 1_555
Al5 Zr1 3.153815 1_555
Al5 Zr5 3.153822 1_554
Al5 Zr0 3.153822 1_455
Al6 Rh0 2.569266 1_655
Al6 Rh2 2.718379 1_555
Al6 Rh4 2.718379 1_555
Al6 Rh6 2.718386 1_555
Al6 Zr2 3.153815 1_555
Al6 Zr4 3.153822 1_554
Al6 Zr0 3.153822 1_545
Al7 Rh0 2.569273 1_555
Al7 Rh6 2.718378 1_555
Al7 Rh5 2.718378 1_555
Al7 Rh1 2.718378 1_555
Al7 Zr1 3.153821 1_545
Al7 Zr2 3.153821 1_455
Al7 Zr3 3.153821 1_554
Al8 Rh4 2.527617 1_555
Al8 Rh5 2.527624 1_655
Al8 Rh6 2.527624 1_565
Al8 Zr2 2.871377 1_555
Al8 Zr1 2.871377 1_555
Al8 Zr0 2.871382 1_555
Al9 Rh2 2.527617 1_555
Al9 Rh1 2.527624 1_655
Al9 Rh6 2.527624 1_556
Al9 Zr2 2.871377 1_555
Al9 Zr3 2.871377 1_555
Al9 Zr4 2.871382 1_555
Al10 Rh3 2.527617 1_555
Al10 Rh1 2.527624 1_565
Al10 Rh5 2.527624 1_556
Al10 Zr1 2.871377 1_555
Al10 Zr3 2.871377 1_555
Al10 Zr5 2.871382 1_555
Al11 Rh3 2.527622 1_655
Al11 Rh4 2.527622 1_556
Al11 Rh2 2.527622 1_565
Al11 Zr5 2.871373 1_555
Al11 Zr4 2.871373 1_555
Al11 Zr0 2.871373 1_555
Al12 Rh4 2.527617 1_556
Al12 Rh5 2.527624 1_556
Al12 Rh6 2.527624 1_556
Al12 Zr4 2.871377 1_555
Al12 Zr5 2.871377 1_555
Al12 Zr3 2.871382 1_555
Al13 Rh2 2.527617 1_565
Al13 Rh1 2.527624 1_565
Al13 Rh6 2.527624 1_565
Al13 Zr5 2.871377 1_555
Al13 Zr0 2.871377 1_555
Al13 Zr1 2.871382 1_555
Al14 Rh3 2.527617 1_655
Al14 Rh1 2.527624 1_655
Al14 Rh5 2.527624 1_655
Al14 Zr4 2.871377 1_555
Al14 Zr0 2.871377 1_555
Al14 Zr2 2.871382 1_555
Al15 Rh2 2.527622 1_555
Al15 Rh4 2.527622 1_555
Al15 Rh3 2.527622 1_555
Al15 Zr3 2.871373 1_555
Al15 Zr1 2.871373 1_555
Al15 Zr2 2.871373 1_555
Rh1 Zr2 3.182379 1_455
Rh1 Zr1 3.182379 1_545
Rh1 Zr5 3.182379 1_545
Rh1 Zr4 3.182379 1_455
Rh2 Zr0 3.182379 1_545
Rh2 Zr5 3.182379 1_545
Rh2 Zr2 3.182379 1_555
Rh2 Zr3 3.182379 1_555
Rh3 Zr0 3.182379 1_455
Rh3 Zr4 3.182379 1_455
Rh3 Zr1 3.182379 1_555
Rh3 Zr3 3.182379 1_555
Rh4 Zr5 3.182379 1_554
Rh4 Zr4 3.182379 1_554
Rh4 Zr2 3.182379 1_555
Rh4 Zr1 3.182379 1_555
Rh5 Zr3 3.182379 1_554
Rh5 Zr2 3.182379 1_455
Rh5 Zr5 3.182379 1_554
Rh5 Zr0 3.182379 1_455
Rh6 Zr3 3.182379 1_554
Rh6 Zr1 3.182379 1_545
Rh6 Zr0 3.182379 1_545
Rh6 Zr4 3.182379 1_554
