# generated using pymatgen
data_Mg6Si5
_symmetry_space_group_name_H-M   'P 1'
_cell_length_a   4.15183200
_cell_length_b   7.06823800
_cell_length_c   14.03373441
_cell_angle_alpha   86.72749850
_cell_angle_beta   90.00000000
_cell_angle_gamma   90.00000000
_symmetry_Int_Tables_number   1
_chemical_formula_structural   Mg6Si5
_chemical_formula_sum   'Mg12 Si10'
_cell_volume   411.16431955
_cell_formula_units_Z   2
loop_
 _symmetry_equiv_pos_site_id
 _symmetry_equiv_pos_as_xyz
  1  'x, y, z'
loop_
 _atom_site_type_symbol
 _atom_site_label
 _atom_site_symmetry_multiplicity
 _atom_site_fract_x
 _atom_site_fract_y
 _atom_site_fract_z
 _atom_site_occupancy
  Mg  Mg0  1  0.50000000  0.61370200  0.95331400  1
  Mg  Mg1  1  0.50000000  0.24308900  0.51956000  1
  Mg  Mg2  1  0.00000000  0.77120200  0.28428900  1
  Mg  Mg3  1  0.50000000  0.01313600  0.77278700  1
  Mg  Mg4  1  0.50000000  0.51612500  0.70798700  1
  Mg  Mg5  1  0.50000000  0.47518500  0.20794500  1
  Mg  Mg6  1  0.00000000  0.97856500  0.45713600  1
  Mg  Mg7  1  0.00000000  0.55650800  0.54066500  1
  Mg  Mg8  1  0.00000000  0.33409500  0.83939900  1
  Mg  Mg9  1  0.50000000  0.96014800  0.12644700  1
  Mg  Mg10  1  0.00000000  0.32678900  0.05908600  1
  Mg  Mg11  1  0.00000000  0.95132200  0.95423000  1
  Si  Si0  1  0.50000000  0.81088200  0.56999500  1
  Si  Si1  1  0.50000000  0.61216800  0.40144200  1
  Si  Si2  1  0.00000000  0.69037400  0.09925300  1
  Si  Si3  1  0.00000000  0.71134900  0.81509900  1
  Si  Si4  1  0.00000000  0.23015600  0.65716800  1
  Si  Si5  1  0.00000000  0.37772100  0.36939100  1
  Si  Si6  1  0.00000000  0.17385800  0.23481600  1
  Si  Si7  1  0.00000000  0.87906900  0.66073300  1
  Si  Si8  1  0.50000000  0.20706300  0.95124700  1
  Si  Si9  1  0.50000000  0.06380700  0.32153000  1
loop_
_geom_bond_atom_site_label_1
_geom_bond_atom_site_label_2
_geom_bond_distance
_geom_bond_site_symmetry_2
Mg0 Si8 2.876023 1_555
Mg0 Si3 2.897461 1_655
Mg0 Si3 2.897461 1_555
Mg0 Si2 2.987378 1_656
Mg0 Si2 2.987378 1_556
Mg1 Si4 2.833193 1_655
Mg1 Si4 2.833193 1_555
Mg1 Si1 3.009911 1_555
Mg1 Si5 3.070390 1_555
Mg1 Si5 3.070390 1_655
Mg1 Si0 3.096252 1_545
Mg1 Si9 3.119501 1_555
Mg2 Si2 2.690514 1_555
Mg2 Si1 2.839904 1_455
Mg2 Si1 2.839904 1_555
Mg2 Si6 2.890769 1_565
Mg2 Si5 2.963493 1_555
Mg2 Si9 2.997238 1_465
Mg2 Si9 2.997238 1_565
Mg3 Si7 2.801858 1_545
Mg3 Si7 2.801858 1_645
Mg3 Si8 2.922864 1_555
Mg3 Si4 3.001831 1_555
Mg3 Si4 3.001831 1_655
Mg3 Si3 3.011235 1_645
Mg3 Si3 3.011235 1_545
Mg4 Si0 2.762277 1_555
Mg4 Si3 2.951252 1_555
Mg4 Si3 2.951252 1_655
Mg4 Si4 3.011358 1_655
Mg4 Si4 3.011358 1_555
Mg5 Si1 2.934536 1_555
Mg5 Si2 2.946984 1_655
Mg5 Si2 2.946984 1_555
Mg5 Si6 2.982650 1_555
Mg5 Si6 2.982650 1_655
Mg5 Si5 3.120763 1_655
Mg5 Si5 3.120763 1_555
Mg6 Si0 2.829910 1_455
Mg6 Si0 2.829910 1_555
Mg6 Si9 2.857126 1_465
Mg6 Si9 2.857126 1_565
Mg6 Si7 2.903258 1_555
Mg6 Si5 3.013234 1_565
Mg7 Si4 2.750194 1_555
Mg7 Si5 2.778688 1_555
Mg7 Si0 2.792143 1_555
Mg7 Si0 2.792143 1_455
Mg7 Si1 2.862491 1_555
Mg7 Si1 2.862491 1_455
Mg7 Si7 2.911350 1_555
Mg8 Si3 2.668859 1_555
Mg8 Si4 2.700822 1_555
Mg8 Si8 2.723695 1_555
Mg8 Si8 2.723695 1_455
Mg9 Si2 2.859046 1_555
Mg9 Si2 2.859046 1_655
Mg9 Si9 2.874209 1_565
Mg9 Si8 2.932790 1_564
Mg9 Si6 3.027603 1_565
Mg9 Si6 3.027603 1_665
Mg10 Si6 2.635525 1_555
Mg10 Si2 2.662246 1_555
Mg10 Si8 2.731688 1_454
Mg10 Si8 2.731688 1_554
Mg11 Si3 2.658482 1_555
Mg11 Si2 2.667488 1_556
Mg11 Si8 2.751381 1_465
Mg11 Si8 2.751381 1_565
Si0 Si7 2.496660 1_555
Si0 Si7 2.496660 1_655
Si0 Si1 2.819104 1_555
Si1 Si5 2.709781 1_555
Si1 Si5 2.709781 1_655
Si3 Si7 2.409390 1_555
Si4 Si7 2.479214 1_545
Si5 Si6 2.440044 1_555
Si6 Si9 2.507454 1_455
Si6 Si9 2.507454 1_555
