# generated using pymatgen
data_BaCaZr2O6
_symmetry_space_group_name_H-M   'P 1'
_cell_length_a   4.23372934
_cell_length_b   5.88804247
_cell_length_c   5.88804247
_cell_angle_alpha   90.81868240
_cell_angle_beta   90.00000000
_cell_angle_gamma   90.00000000
_symmetry_Int_Tables_number   1
_chemical_formula_structural   BaCaZr2O6
_chemical_formula_sum   'Ba1 Ca1 Zr2 O6'
_cell_volume   146.76436593
_cell_formula_units_Z   1
loop_
 _symmetry_equiv_pos_site_id
 _symmetry_equiv_pos_as_xyz
  1  'x, y, z'
loop_
 _atom_site_type_symbol
 _atom_site_label
 _atom_site_symmetry_multiplicity
 _atom_site_fract_x
 _atom_site_fract_y
 _atom_site_fract_z
 _atom_site_occupancy
  Ba  Ba0  1  0.50000000  0.50000000  0.50000000  1
  Ca  Ca0  1  0.50000000  -0.00000000  -0.00000000  1
  Zr  Zr0  1  0.00000000  -0.00000000  0.50000000  1
  Zr  Zr1  1  0.00000000  0.50000000  -0.00000000  1
  O  O0  1  0.50000000  -0.00000000  0.50000000  1
  O  O1  1  0.50000000  0.50000000  -0.00000000  1
  O  O2  1  0.00000000  0.29526134  0.70473866  1
  O  O3  1  0.00000000  0.70473866  0.29526134  1
  O  O4  1  0.00000000  0.80740460  0.80740460  1
  O  O5  1  0.00000000  0.19259540  0.19259540  1
loop_
_geom_bond_atom_site_label_1
_geom_bond_atom_site_label_2
_geom_bond_distance
_geom_bond_site_symmetry_2
Ba0 O3 2.725647 1_655
Ba0 O2 2.725647 1_655
Ba0 O3 2.725647 1_555
Ba0 O2 2.725647 1_555
Ba0 O0 2.944021 1_555
Ba0 O1 2.944021 1_555
Ba0 O1 2.944021 1_556
Ba0 O0 2.944021 1_565
Ba0 O4 3.307533 1_555
Ba0 O4 3.307533 1_655
Ba0 O5 3.307533 1_555
Ba0 O5 3.307533 1_655
Ca0 O5 2.648835 1_555
Ca0 O5 2.648835 1_655
Ca0 O4 2.648835 1_644
Ca0 O4 2.648835 1_544
Ca0 O1 2.944021 1_545
Ca0 O0 2.944021 1_555
Ca0 O0 2.944021 1_554
Ca0 O1 2.944021 1_555
O0 Zr0 2.116865 1_555
O0 Zr0 2.116865 1_655
O1 Zr1 2.116865 1_555
O1 Zr1 2.116865 1_655
O2 Zr0 2.101377 1_555
O2 Zr1 2.101377 1_556
O3 Zr1 2.101377 1_555
O3 Zr0 2.101377 1_565
O4 Zr0 2.149599 1_565
O4 Zr1 2.149599 1_556
O5 Zr1 2.149599 1_555
O5 Zr0 2.149599 1_555
