# generated using pymatgen
data_Zn3P6H6O19
_symmetry_space_group_name_H-M   'P 1'
_cell_length_a   12.56004332
_cell_length_b   12.56004332
_cell_length_c   12.56004319
_cell_angle_alpha   115.70571874
_cell_angle_beta   115.70571874
_cell_angle_gamma   115.70571855
_symmetry_Int_Tables_number   1
_chemical_formula_structural   Zn3P6H6O19
_chemical_formula_sum   'Zn6 P12 H12 O38'
_cell_volume   1034.08847076
_cell_formula_units_Z   2
loop_
 _symmetry_equiv_pos_site_id
 _symmetry_equiv_pos_as_xyz
  1  'x, y, z'
loop_
 _atom_site_type_symbol
 _atom_site_label
 _atom_site_symmetry_multiplicity
 _atom_site_fract_x
 _atom_site_fract_y
 _atom_site_fract_z
 _atom_site_occupancy
  Zn  Zn0  1  0.15918600  0.58051200  0.92524500  1
  Zn  Zn1  1  0.58051200  0.92524500  0.15918600  1
  Zn  Zn2  1  0.92524500  0.15918600  0.58051200  1
  Zn  Zn3  1  0.84081400  0.41948800  0.07475500  1
  Zn  Zn4  1  0.41948800  0.07475500  0.84081400  1
  Zn  Zn5  1  0.07475500  0.84081400  0.41948800  1
  P  P0  1  0.88512500  0.93070400  0.26548800  1
  P  P1  1  0.93070400  0.26548800  0.88512500  1
  P  P2  1  0.26548800  0.88512500  0.93070400  1
  P  P3  1  0.11487500  0.06929600  0.73451200  1
  P  P4  1  0.06929600  0.73451200  0.11487500  1
  P  P5  1  0.73451200  0.11487500  0.06929600  1
  P  P6  1  0.49619900  0.24001800  0.70227800  1
  P  P7  1  0.24001800  0.70227800  0.49619900  1
  P  P8  1  0.70227800  0.49619900  0.24001800  1
  P  P9  1  0.50380100  0.75998200  0.29772200  1
  P  P10  1  0.75998200  0.29772200  0.50380100  1
  P  P11  1  0.29772200  0.50380100  0.75998200  1
  H  H0  1  0.92450300  0.24228600  0.19288100  1
  H  H1  1  0.24228600  0.19288100  0.92450300  1
  H  H2  1  0.19288100  0.92450300  0.24228600  1
  H  H3  1  0.07549700  0.75771400  0.80711900  1
  H  H4  1  0.75771400  0.80711900  0.07549700  1
  H  H5  1  0.80711900  0.07549700  0.75771400  1
  H  H6  1  0.57428400  0.40726400  0.77557100  1
  H  H7  1  0.40726400  0.77557100  0.57428400  1
  H  H8  1  0.77557100  0.57428400  0.40726400  1
  H  H9  1  0.42571600  0.59273600  0.22442900  1
  H  H10  1  0.59273600  0.22442900  0.42571600  1
  H  H11  1  0.22442900  0.42571600  0.59273600  1
  O  O0  1  0.81901900  0.99646100  0.31762200  1
  O  O1  1  0.99646100  0.31762200  0.81901900  1
  O  O2  1  0.31762200  0.81901900  0.99646100  1
  O  O3  1  0.18098100  0.00353900  0.68237800  1
  O  O4  1  0.00353900  0.68237800  0.18098100  1
  O  O5  1  0.68237800  0.18098100  0.00353900  1
  O  O6  1  0.89437300  0.83320500  0.30400400  1
  O  O7  1  0.83320500  0.30400400  0.89437300  1
  O  O8  1  0.30400400  0.89437300  0.83320500  1
  O  O9  1  0.10562700  0.16679500  0.69599600  1
  O  O10  1  0.16679500  0.69599600  0.10562700  1
  O  O11  1  0.69599600  0.10562700  0.16679500  1
  O  O12  1  0.07757200  0.10162900  0.37494100  1
  O  O13  1  0.10162900  0.37494100  0.07757200  1
  O  O14  1  0.37494100  0.07757200  0.10162900  1
  O  O15  1  0.92242800  0.89837100  0.62505900  1
  O  O16  1  0.89837100  0.62505900  0.92242800  1
  O  O17  1  0.62505900  0.92242800  0.89837100  1
  O  O18  1  0.56998300  0.27027900  0.85992200  1
  O  O19  1  0.27027900  0.85992200  0.56998300  1
  O  O20  1  0.85992200  0.56998300  0.27027900  1
  O  O21  1  0.43001700  0.72972100  0.14007800  1
  O  O22  1  0.72972100  0.14007800  0.43001700  1
  O  O23  1  0.14007800  0.43001700  0.72972100  1
  O  O24  1  0.28416100  0.08737300  0.53788800  1
  O  O25  1  0.08737300  0.53788800  0.28416100  1
  O  O26  1  0.53788800  0.28416100  0.08737300  1
  O  O27  1  0.71583900  0.91262700  0.46211200  1
  O  O28  1  0.91262700  0.46211200  0.71583900  1
  O  O29  1  0.46211200  0.71583900  0.91262700  1
  O  O30  1  0.52883000  0.16679900  0.60135500  1
  O  O31  1  0.16679900  0.60135500  0.52883000  1
  O  O32  1  0.60135500  0.52883000  0.16679900  1
  O  O33  1  0.47117000  0.83320100  0.39864500  1
  O  O34  1  0.83320100  0.39864500  0.47117000  1
  O  O35  1  0.39864500  0.47117000  0.83320100  1
  O  O36  1  0.29235800  0.29235800  0.29235800  1
  O  O37  1  0.70764200  0.70764200  0.70764200  1
loop_
_geom_bond_atom_site_label_1
_geom_bond_atom_site_label_2
_geom_bond_distance
_geom_bond_site_symmetry_2
H0 P5 1.408481 1_555
H1 P3 1.408481 1_555
H2 P4 1.408481 1_555
H3 P2 1.408481 1_555
H4 P0 1.408481 1_555
H5 P1 1.408481 1_555
H6 P6 1.404976 1_555
H7 P7 1.404976 1_555
H8 P8 1.404976 1_555
H9 P9 1.404976 1_555
H10 P10 1.404976 1_555
H11 P11 1.404976 1_555
O0 P0 1.548439 1_555
O0 Zn1 2.166567 1_555
O0 Zn2 2.195072 1_565
O1 P1 1.548439 1_555
O1 Zn2 2.166567 1_555
O1 Zn0 2.195072 1_655
O2 P2 1.548439 1_555
O2 Zn0 2.166567 1_555
O2 Zn1 2.195072 1_556
O3 P3 1.548439 1_555
O3 Zn4 2.166567 1_555
O3 Zn5 2.195072 1_545
O4 P4 1.548439 1_555
O4 Zn5 2.166567 1_555
O4 Zn3 2.195072 1_455
O5 P5 1.548439 1_555
O5 Zn3 2.166567 1_555
O5 Zn4 2.195072 1_554
O6 P0 1.528302 1_555
O6 Zn5 2.021664 1_655
O7 P1 1.528302 1_555
O7 Zn3 2.021664 1_556
O8 P2 1.528302 1_555
O8 Zn4 2.021664 1_565
O9 P3 1.528302 1_555
O9 Zn2 2.021664 1_455
O10 P4 1.528302 1_555
O10 Zn0 2.021664 1_554
O11 P5 1.528302 1_555
O11 Zn1 2.021664 1_545
O12 P0 1.548171 1_445
O13 P1 1.548171 1_454
O14 P2 1.548171 1_544
O15 P3 1.548171 1_665
O16 P4 1.548171 1_656
O17 P5 1.548171 1_566
O18 P6 1.540629 1_555
O18 Zn3 2.117712 1_556
O18 Zn4 2.174788 1_555
O19 P7 1.540629 1_555
O19 Zn4 2.117712 1_565
O19 Zn5 2.174788 1_555
O20 P8 1.540629 1_555
O20 Zn5 2.117712 1_655
O20 Zn3 2.174788 1_555
O21 P9 1.540629 1_555
O21 Zn0 2.117712 1_554
O21 Zn1 2.174788 1_555
O22 P10 1.540629 1_555
O22 Zn1 2.117712 1_545
O22 Zn2 2.174788 1_555
O23 P11 1.540629 1_555
O23 Zn2 2.117712 1_455
O23 Zn0 2.174788 1_555
O24 P6 1.548509 1_555
O24 Zn5 2.065280 1_545
O25 P7 1.548509 1_555
O25 Zn3 2.065280 1_455
O26 P8 1.548509 1_555
O26 Zn4 2.065280 1_554
O27 P9 1.548509 1_555
O27 Zn2 2.065280 1_565
O28 P10 1.548509 1_555
O28 Zn0 2.065280 1_655
O29 P11 1.548509 1_555
O29 Zn1 2.065280 1_556
O30 P6 1.544956 1_555
O31 P7 1.544956 1_555
O32 P8 1.544956 1_555
O33 P9 1.544956 1_555
O34 P10 1.544956 1_555
O35 P11 1.544956 1_555
