# generated using pymatgen
data_LiYMo3O8
_symmetry_space_group_name_H-M   'P 1'
_cell_length_a   6.28155594
_cell_length_b   6.28155594
_cell_length_c   4.96265600
_cell_angle_alpha   90.00000000
_cell_angle_beta   90.00000000
_cell_angle_gamma   119.99999935
_symmetry_Int_Tables_number   1
_chemical_formula_structural   LiYMo3O8
_chemical_formula_sum   'Li1 Y1 Mo3 O8'
_cell_volume   169.58181130
_cell_formula_units_Z   1
loop_
 _symmetry_equiv_pos_site_id
 _symmetry_equiv_pos_as_xyz
  1  'x, y, z'
loop_
 _atom_site_type_symbol
 _atom_site_label
 _atom_site_symmetry_multiplicity
 _atom_site_fract_x
 _atom_site_fract_y
 _atom_site_fract_z
 _atom_site_occupancy
  Li  Li0  1  0.00000000  0.00000000  0.68369500  1
  Y  Y0  1  0.66666700  0.33333300  0.74800800  1
  Mo  Mo0  1  0.16935000  0.33870000  0.24755400  1
  Mo  Mo1  1  0.66130000  0.83065000  0.24755400  1
  Mo  Mo2  1  0.16935000  0.83065000  0.24755400  1
  O  O0  1  0.00000000  0.00000000  0.04062700  1
  O  O1  1  0.00797500  0.50398700  0.04172500  1
  O  O2  1  0.49601300  0.99202500  0.04172500  1
  O  O3  1  0.49601300  0.50398700  0.04172500  1
  O  O4  1  0.33333300  0.66666700  0.46472500  1
  O  O5  1  0.30506900  0.15253400  0.48237000  1
  O  O6  1  0.84746600  0.69493100  0.48237000  1
  O  O7  1  0.84746600  0.15253400  0.48237000  1
loop_
_geom_bond_atom_site_label_1
_geom_bond_atom_site_label_2
_geom_bond_distance
_geom_bond_site_symmetry_2
Li0 O0 1.771331 1_556
Li0 O7 1.937104 1_455
Li0 O5 1.937109 1_555
Li0 O6 1.937109 1_445
Mo0 O1 2.049729 1_555
Mo0 O3 2.049734 1_555
Mo0 O4 2.084389 1_555
Mo0 O7 2.109316 1_455
Mo0 O5 2.109320 1_555
Mo0 O0 2.109368 1_555
Mo1 O2 2.049729 1_555
Mo1 O3 2.049734 1_555
Mo1 O4 2.084389 1_555
Mo1 O7 2.109316 1_565
Mo1 O6 2.109320 1_555
Mo1 O0 2.109368 1_665
Mo2 O2 2.049734 1_555
Mo2 O1 2.049734 1_555
Mo2 O4 2.084384 1_555
Mo2 O5 2.109315 1_565
Mo2 O6 2.109315 1_455
Mo2 O0 2.109368 1_565
O1 Y0 2.360513 1_454
O2 Y0 2.360513 1_564
O3 Y0 2.360513 1_554
O5 Y0 2.367968 1_555
O6 Y0 2.367968 1_555
O7 Y0 2.367968 1_555
