# generated using pymatgen
data_Sr7CaFe5Co3O20
_symmetry_space_group_name_H-M   'P 1'
_cell_length_a   10.91986077
_cell_length_b   11.35698658
_cell_length_c   17.74962079
_cell_angle_alpha   108.65558747
_cell_angle_beta   108.00882120
_cell_angle_gamma   89.83184066
_symmetry_Int_Tables_number   1
_chemical_formula_structural   Sr7CaFe5Co3O20
_chemical_formula_sum   'Sr28 Ca4 Fe20 Co12 O80'
_cell_volume   1972.13723728
_cell_formula_units_Z   4
loop_
 _symmetry_equiv_pos_site_id
 _symmetry_equiv_pos_as_xyz
  1  'x, y, z'
loop_
 _atom_site_type_symbol
 _atom_site_label
 _atom_site_symmetry_multiplicity
 _atom_site_fract_x
 _atom_site_fract_y
 _atom_site_fract_z
 _atom_site_occupancy
  Sr  Sr0  1  0.30979300  0.06314100  0.60855200  1
  Sr  Sr1  1  0.30841800  0.56396900  0.60876600  1
  Sr  Sr2  1  0.80489700  0.06313900  0.60894400  1
  Sr  Sr3  1  0.80972900  0.56722400  0.10903200  1
  Sr  Sr4  1  0.80625800  0.56444400  0.60955400  1
  Sr  Sr5  1  0.19939100  0.43594400  0.38973100  1
  Sr  Sr6  1  0.19644200  0.43675700  0.89196900  1
  Sr  Sr7  1  0.20073300  0.93611400  0.38814600  1
  Sr  Sr8  1  0.19950300  0.93616200  0.89334600  1
  Sr  Sr9  1  0.69517600  0.43597900  0.39054200  1
  Sr  Sr10  1  0.70073200  0.44003900  0.89262100  1
  Sr  Sr11  1  0.69426300  0.93476800  0.38971100  1
  Sr  Sr12  1  0.69995300  0.93690200  0.89377600  1
  Sr  Sr13  1  0.05196700  0.29343500  0.10962300  1
  Sr  Sr14  1  0.05263600  0.29639400  0.60808300  1
  Sr  Sr15  1  0.05527600  0.79524900  0.60920100  1
  Sr  Sr16  1  0.55971600  0.29172800  0.10984200  1
  Sr  Sr17  1  0.55642200  0.29561100  0.60851800  1
  Sr  Sr18  1  0.55884900  0.79814200  0.11004700  1
  Sr  Sr19  1  0.56094500  0.79746800  0.60877100  1
  Sr  Sr20  1  0.44558500  0.20186100  0.38713400  1
  Sr  Sr21  1  0.44928900  0.20432700  0.89200000  1
  Sr  Sr22  1  0.45006300  0.70367900  0.38748300  1
  Sr  Sr23  1  0.45099800  0.70688400  0.89325100  1
  Sr  Sr24  1  0.94272400  0.20138300  0.38855900  1
  Sr  Sr25  1  0.94662700  0.20534100  0.89316100  1
  Sr  Sr26  1  0.94485800  0.70224400  0.38949600  1
  Sr  Sr27  1  0.95135100  0.70599800  0.89403800  1
  Ca  Ca0  1  0.30105500  0.06321900  0.10523000  1
  Ca  Ca1  1  0.29982400  0.56741800  0.10553600  1
  Ca  Ca2  1  0.80230500  0.06520400  0.10480700  1
  Ca  Ca3  1  0.05416700  0.78912900  0.10546900  1
  Fe  Fe0  1  0.00124600  0.00096300  0.49857300  1
  Fe  Fe1  1  0.00143100  0.49835100  0.49920500  1
  Fe  Fe2  1  0.25710900  0.25198900  0.00575100  1
  Fe  Fe3  1  0.25409500  0.24963700  0.49972200  1
  Fe  Fe4  1  0.10359500  0.08597300  0.24572300  1
  Fe  Fe5  1  0.10854500  0.09107800  0.75031500  1
  Fe  Fe6  1  0.11138500  0.59332400  0.25025000  1
  Fe  Fe7  1  0.10855500  0.59070200  0.75005100  1
  Fe  Fe8  1  0.60535700  0.09002200  0.25020100  1
  Fe  Fe9  1  0.60868800  0.09140100  0.75123100  1
  Fe  Fe10  1  0.60254100  0.58792800  0.24521300  1
  Fe  Fe11  1  0.60851400  0.59146700  0.75007800  1
  Fe  Fe12  1  0.35585600  0.40751200  0.24594700  1
  Fe  Fe13  1  0.35751000  0.40897800  0.74959500  1
  Fe  Fe14  1  0.35127200  0.90658700  0.24421500  1
  Fe  Fe15  1  0.35864700  0.90827100  0.74919300  1
  Fe  Fe16  1  0.85808800  0.40742900  0.25026000  1
  Fe  Fe17  1  0.85668700  0.40804200  0.74698200  1
  Fe  Fe18  1  0.85979000  0.91294800  0.24925000  1
  Fe  Fe19  1  0.86037600  0.91071500  0.75262200  1
  Co  Co0  1  0.00836800  0.00154000  0.00670000  1
  Co  Co1  1  0.00826200  0.50402400  0.00580300  1
  Co  Co2  1  0.50777600  0.00189000  0.00406100  1
  Co  Co3  1  0.50671100  0.00101200  0.49923800  1
  Co  Co4  1  0.50846300  0.50412200  0.00582200  1
  Co  Co5  1  0.51024600  0.50007300  0.50155400  1
  Co  Co6  1  0.25856300  0.75346900  0.00662500  1
  Co  Co7  1  0.25419000  0.74780900  0.49900900  1
  Co  Co8  1  0.75563200  0.24982900  0.00123400  1
  Co  Co9  1  0.75106900  0.24937900  0.49943900  1
  Co  Co10  1  0.76010100  0.75484900  0.00579600  1
  Co  Co11  1  0.75464300  0.75004500  0.49982000  1
  O  O0  1  0.12355100  0.12085800  0.49197600  1
  O  O1  1  0.12669600  0.12303200  0.99461600  1
  O  O2  1  0.12278600  0.61812400  0.49074500  1
  O  O3  1  0.12880900  0.62283100  0.99621600  1
  O  O4  1  0.62063500  0.12057500  0.49234300  1
  O  O5  1  0.62498600  0.12349100  0.99432800  1
  O  O6  1  0.62275500  0.62308300  0.49109000  1
  O  O7  1  0.62625500  0.62513900  0.99204300  1
  O  O8  1  0.13505800  0.38186400  0.01318400  1
  O  O9  1  0.13001100  0.37477300  0.50658300  1
  O  O10  1  0.13787900  0.88224500  0.01767100  1
  O  O11  1  0.13938500  0.87292000  0.50653000  1
  O  O12  1  0.62705000  0.38483900  0.00805800  1
  O  O13  1  0.62825000  0.37758200  0.50638200  1
  O  O14  1  0.63816200  0.88474100  0.01346300  1
  O  O15  1  0.63719400  0.87603400  0.50774100  1
  O  O16  1  0.37270100  0.12259400  0.49087400  1
  O  O17  1  0.37605200  0.11994500  0.99470700  1
  O  O18  1  0.37537600  0.62465900  0.49259100  1
  O  O19  1  0.38143000  0.61406400  0.99568600  1
  O  O20  1  0.86974300  0.12118300  0.49171100  1
  O  O21  1  0.87535500  0.11734200  0.99478500  1
  O  O22  1  0.87191100  0.62064900  0.49178400  1
  O  O23  1  0.88017100  0.62316700  0.99452500  1
  O  O24  1  0.38184400  0.38310700  0.01340800  1
  O  O25  1  0.38002400  0.38059300  0.50537900  1
  O  O26  1  0.38455500  0.88467900  0.01285300  1
  O  O27  1  0.39121700  0.88759000  0.50569700  1
  O  O28  1  0.88324100  0.38365800  0.01009800  1
  O  O29  1  0.87673700  0.37742800  0.50606700  1
  O  O30  1  0.88936200  0.88453300  0.01785100  1
  O  O31  1  0.88402700  0.87770000  0.50593500  1
  O  O32  1  0.09410900  0.09883200  0.14196600  1
  O  O33  1  0.07964900  0.09001200  0.63768900  1
  O  O34  1  0.09132100  0.60821700  0.14508000  1
  O  O35  1  0.07894300  0.58970200  0.63785600  1
  O  O36  1  0.59535300  0.09889200  0.14598400  1
  O  O37  1  0.58391000  0.09593300  0.64164300  1
  O  O38  1  0.58711400  0.59530700  0.13845800  1
  O  O39  1  0.58115500  0.59303700  0.63874100  1
  O  O40  1  0.44141100  0.40711600  0.35651500  1
  O  O41  1  0.44034100  0.40231400  0.85720900  1
  O  O42  1  0.43808600  0.90814600  0.35520600  1
  O  O43  1  0.44279200  0.90149700  0.85657000  1
  O  O44  1  0.93920200  0.40689800  0.36176800  1
  O  O45  1  0.94215700  0.39809900  0.85262500  1
  O  O46  1  0.94435100  0.91269900  0.36162100  1
  O  O47  1  0.94379700  0.90444000  0.86058100  1
  O  O48  1  0.33190900  0.28455300  0.13960000  1
  O  O49  1  0.33056500  0.29614500  0.63853800  1
  O  O50  1  0.33850500  0.78437000  0.14127200  1
  O  O51  1  0.33313700  0.79647000  0.63854300  1
  O  O52  1  0.83370900  0.28835800  0.14406700  1
  O  O53  1  0.82223200  0.29787600  0.63278500  1
  O  O54  1  0.84065600  0.79523200  0.14419600  1
  O  O55  1  0.83708600  0.79563300  0.64500800  1
  O  O56  1  0.18764600  0.19757200  0.35709600  1
  O  O57  1  0.19253100  0.20295200  0.86048600  1
  O  O58  1  0.19568500  0.70398600  0.36095900  1
  O  O59  1  0.19257600  0.70236200  0.85871400  1
  O  O60  1  0.68333800  0.20006400  0.36430100  1
  O  O61  1  0.69050100  0.20519300  0.85978700  1
  O  O62  1  0.68558000  0.70257400  0.35283500  1
  O  O63  1  0.69366700  0.70415000  0.85787100  1
  O  O64  1  0.42325000  0.06005300  0.24026100  1
  O  O65  1  0.43155900  0.06365200  0.74968000  1
  O  O66  1  0.42257000  0.56025400  0.23976900  1
  O  O67  1  0.43232200  0.56380100  0.75024300  1
  O  O68  1  0.92375000  0.06619600  0.24201800  1
  O  O69  1  0.93302100  0.06517500  0.75070800  1
  O  O70  1  0.93542700  0.55947700  0.24905000  1
  O  O71  1  0.93275300  0.56323200  0.75025500  1
  O  O72  1  0.18209700  0.43689500  0.24881000  1
  O  O73  1  0.18070800  0.43509300  0.74945100  1
  O  O74  1  0.17154000  0.92667800  0.24128400  1
  O  O75  1  0.18226400  0.93654600  0.75023800  1
  O  O76  1  0.68197600  0.43681200  0.24979400  1
  O  O77  1  0.68211500  0.43644200  0.74929800  1
  O  O78  1  0.68404700  0.93806300  0.25102100  1
  O  O79  1  0.68312100  0.93731900  0.75121200  1
loop_
_geom_bond_atom_site_label_1
_geom_bond_atom_site_label_2
_geom_bond_distance
_geom_bond_site_symmetry_2
Ca0 O64 2.367186 1_555
Ca0 O48 2.387703 1_555
Ca0 O10 2.465837 1_545
Ca0 O26 2.533362 1_545
Ca0 O32 2.536253 1_555
Ca0 O1 2.544714 1_554
Ca0 O17 2.595995 1_554
Ca1 O50 2.343555 1_555
Ca1 O66 2.372476 1_555
Ca1 O3 2.486429 1_554
Ca1 O8 2.520662 1_555
Ca1 O24 2.561739 1_555
Ca1 O19 2.571846 1_554
Ca1 O34 2.581696 1_555
Ca1 O38 3.006244 1_555
Ca2 O68 2.382369 1_555
Ca2 O52 2.398677 1_555
Ca2 O14 2.478054 1_545
Ca2 O30 2.523066 1_545
Ca2 O21 2.550749 1_554
Ca2 O5 2.551071 1_554
Ca2 O36 2.573901 1_555
Ca3 O74 2.363562 1_555
Ca3 O34 2.371343 1_555
Ca3 O30 2.483410 1_455
Ca3 O10 2.514629 1_555
Ca3 O23 2.524563 1_454
Ca3 O3 2.572360 1_554
Ca3 O54 2.621600 1_455
Ca3 O50 2.974610 1_555
Fe0 O31 1.961172 1_445
Fe0 O0 1.964910 1_555
Fe0 O20 1.981866 1_455
Fe0 O11 2.096861 1_545
Fe0 O46 2.193345 1_445
Fe0 O33 2.225599 1_555
Fe1 O2 1.973134 1_555
Fe1 O22 1.984232 1_455
Fe1 O9 1.987622 1_555
Fe1 O29 1.993852 1_455
Fe1 O44 2.202194 1_455
Fe1 O35 2.221041 1_555
Fe2 O24 1.964474 1_555
Fe2 O1 1.965978 1_554
Fe2 O17 1.982980 1_554
Fe2 O8 1.985444 1_555
Fe2 O48 2.165179 1_555
Fe2 O57 2.327006 1_554
Fe3 O16 1.937444 1_555
Fe3 O9 1.962275 1_555
Fe3 O25 1.985977 1_555
Fe3 O0 1.988077 1_555
Fe3 O49 2.223743 1_555
Fe3 O56 2.279028 1_555
Fe4 O32 1.864870 1_555
Fe4 O56 1.907530 1_555
Fe4 O74 1.940788 1_545
Fe4 O68 1.955733 1_455
Fe5 O57 1.894141 1_555
Fe5 O33 1.921066 1_555
Fe5 O75 1.928463 1_545
Fe5 O69 1.942475 1_455
Fe6 O34 1.873545 1_555
Fe6 O58 1.896479 1_555
Fe6 O72 1.930846 1_555
Fe6 O70 1.952928 1_455
Fe7 O59 1.875580 1_555
Fe7 O35 1.912544 1_555
Fe7 O73 1.931074 1_555
Fe7 O71 1.947115 1_455
Fe8 O36 1.854208 1_555
Fe8 O60 1.925931 1_555
Fe8 O78 1.927845 1_545
Fe8 O64 1.962155 1_555
Fe9 O61 1.878898 1_555
Fe9 O37 1.896837 1_555
Fe9 O79 1.927241 1_545
Fe9 O65 1.951000 1_555
Fe10 O62 1.873836 1_555
Fe10 O38 1.878838 1_555
Fe10 O76 1.934263 1_555
Fe10 O66 1.958860 1_555
Fe11 O63 1.871766 1_555
Fe11 O39 1.911112 1_555
Fe11 O77 1.931035 1_555
Fe11 O67 1.951435 1_555
Fe12 O48 1.895284 1_555
Fe12 O40 1.896398 1_555
Fe12 O66 1.931425 1_555
Fe12 O72 1.938869 1_555
Fe13 O41 1.869804 1_555
Fe13 O49 1.908384 1_555
Fe13 O67 1.936208 1_555
Fe13 O73 1.951785 1_555
Fe14 O50 1.872369 1_555
Fe14 O42 1.898183 1_555
Fe14 O64 1.944441 1_565
Fe14 O74 1.961782 1_555
Fe15 O43 1.869015 1_555
Fe15 O51 1.901441 1_555
Fe15 O65 1.934489 1_565
Fe15 O75 1.956498 1_555
Fe16 O52 1.874436 1_555
Fe16 O44 1.904085 1_555
Fe16 O70 1.933665 1_555
Fe16 O76 1.948839 1_555
Fe17 O45 1.858129 1_555
Fe17 O71 1.926901 1_555
Fe17 O53 1.929832 1_555
Fe17 O77 1.943212 1_555
Fe18 O54 1.863826 1_555
Fe18 O46 1.922409 1_555
Fe18 O68 1.933625 1_565
Fe18 O78 1.947716 1_555
Fe19 O47 1.874697 1_555
Fe19 O55 1.877721 1_555
Fe19 O69 1.941807 1_565
Fe19 O79 1.951900 1_555
Co0 O30 1.957352 1_445
Co0 O10 1.964898 1_545
Co0 O21 1.964911 1_454
Co0 O1 1.997638 1_554
Co0 O32 2.186516 1_555
Co0 O47 2.341762 1_444
Co1 O23 1.953580 1_454
Co1 O8 1.962627 1_555
Co1 O3 1.969303 1_554
Co1 O28 1.969840 1_455
Co1 O34 2.254471 1_555
Co1 O45 2.461602 1_454
Co2 O14 1.951712 1_545
Co2 O5 1.968497 1_554
Co2 O17 1.969166 1_554
Co2 O26 1.969802 1_545
Co2 O36 2.283667 1_555
Co2 O43 2.367166 1_544
Co3 O27 1.859144 1_545
Co3 O4 1.901788 1_555
Co3 O16 2.013720 1_555
Co3 O15 2.014900 1_545
Co3 O37 2.281728 1_555
Co3 O42 2.303204 1_545
Co4 O19 1.869466 1_554
Co4 O12 1.872432 1_555
Co4 O7 2.005790 1_554
Co4 O24 2.015794 1_555
Co4 O38 2.132550 1_555
Co4 O41 2.385137 1_554
Co5 O13 1.897500 1_555
Co5 O6 1.952627 1_555
Co5 O25 1.999484 1_555
Co5 O18 2.045297 1_555
Co5 O39 2.199499 1_555
Co5 O40 2.318708 1_555
Co6 O10 1.969545 1_555
Co6 O3 1.979410 1_554
Co6 O26 1.984501 1_555
Co6 O19 2.072768 1_554
Co6 O50 2.184534 1_555
Co6 O59 2.367806 1_554
Co7 O11 1.892104 1_555
Co7 O18 1.923728 1_555
Co7 O2 1.998442 1_555
Co7 O27 2.134650 1_555
Co7 O58 2.216689 1_555
Co7 O51 2.233716 1_555
Co8 O5 1.974940 1_554
Co8 O21 1.989238 1_554
Co8 O28 2.000121 1_555
Co8 O12 2.076270 1_555
Co8 O61 2.269334 1_554
Co8 O52 2.302549 1_555
Co9 O20 1.946525 1_555
Co9 O29 1.953015 1_555
Co9 O13 1.977319 1_555
Co9 O4 1.991945 1_555
Co9 O53 2.130828 1_555
Co9 O60 2.158758 1_555
Co10 O30 1.957342 1_555
Co10 O7 1.981878 1_554
Co10 O14 1.984895 1_555
Co10 O23 1.988707 1_554
Co10 O54 2.228048 1_555
Co10 O63 2.368367 1_554
Co11 O15 1.919378 1_555
Co11 O22 1.946155 1_555
Co11 O6 1.977002 1_555
Co11 O31 1.981495 1_555
Co11 O55 2.331148 1_555
Co11 O62 2.356241 1_555
O0 Sr24 2.631931 1_455
O0 Sr7 2.642956 1_545
O0 Sr0 2.665545 1_555
O0 Sr14 2.677758 1_555
O1 Sr8 2.607753 1_545
O1 Sr25 2.619119 1_455
O1 Sr13 2.659238 1_556
O2 Sr5 2.596004 1_555
O2 Sr26 2.616465 1_455
O2 Sr1 2.658366 1_555
O2 Sr15 2.693433 1_555
O3 Sr6 2.601774 1_555
O3 Sr27 2.616976 1_455
O4 Sr11 2.618069 1_545
O4 Sr20 2.622739 1_555
O4 Sr17 2.637966 1_555
O4 Sr2 2.653019 1_555
O5 Sr21 2.593149 1_555
O5 Sr16 2.598431 1_556
O5 Sr12 2.611452 1_545
O6 Sr22 2.588104 1_555
O6 Sr9 2.600486 1_555
O6 Sr19 2.637857 1_555
O6 Sr4 2.676358 1_555
O7 Sr23 2.560335 1_555
O7 Sr10 2.588207 1_555
O7 Sr3 2.655596 1_556
O7 Sr18 2.664813 1_556
O8 Sr13 2.612944 1_555
O8 Sr6 2.686874 1_554
O8 Sr25 2.715302 1_454
O9 Sr14 2.592986 1_555
O9 Sr1 2.654881 1_555
O9 Sr24 2.680343 1_455
O9 Sr5 2.693503 1_555
O10 Sr27 2.724141 1_454
O10 Sr8 2.735413 1_554
O11 Sr0 2.616524 1_565
O11 Sr15 2.647799 1_555
O11 Sr7 2.686489 1_555
O11 Sr26 2.702668 1_455
O12 Sr3 2.630693 1_555
O12 Sr16 2.640248 1_555
O12 Sr21 2.657705 1_554
O12 Sr10 2.661341 1_554
O13 Sr17 2.594531 1_555
O13 Sr4 2.640561 1_555
O13 Sr9 2.646875 1_555
O13 Sr20 2.674302 1_555
O14 Sr18 2.580318 1_555
O14 Sr12 2.648223 1_554
O14 Sr23 2.716693 1_554
O15 Sr2 2.577323 1_565
O15 Sr19 2.579997 1_555
O15 Sr11 2.631731 1_555
O15 Sr22 2.686423 1_555
O16 Sr7 2.602312 1_545
O16 Sr20 2.608688 1_555
O16 Sr17 2.655948 1_555
O16 Sr0 2.661360 1_555
O17 Sr8 2.605119 1_545
O17 Sr21 2.627735 1_555
O17 Sr16 2.634928 1_556
O18 Sr22 2.639572 1_555
O18 Sr5 2.640299 1_555
O18 Sr19 2.657217 1_555
O18 Sr1 2.665762 1_555
O19 Sr6 2.622471 1_555
O19 Sr23 2.660652 1_555
O19 Sr18 2.668629 1_556
O20 Sr24 2.605825 1_555
O20 Sr11 2.618846 1_545
O20 Sr2 2.656548 1_555
O20 Sr14 2.656657 1_655
O21 Sr12 2.575201 1_545
O21 Sr13 2.618735 1_656
O21 Sr25 2.623753 1_555
O22 Sr26 2.600863 1_555
O22 Sr9 2.611642 1_555
O22 Sr4 2.659711 1_555
O22 Sr15 2.661562 1_655
O23 Sr27 2.570074 1_555
O23 Sr10 2.619609 1_555
O23 Sr3 2.630954 1_556
O24 Sr16 2.616940 1_555
O24 Sr6 2.692752 1_554
O24 Sr21 2.735345 1_554
O25 Sr1 2.597853 1_555
O25 Sr5 2.610395 1_555
O25 Sr17 2.632928 1_555
O25 Sr20 2.689395 1_555
O26 Sr18 2.570597 1_555
O26 Sr8 2.657234 1_554
O26 Sr23 2.704021 1_554
O27 Sr0 2.600608 1_565
O27 Sr19 2.630597 1_555
O27 Sr7 2.651246 1_555
O27 Sr22 2.683318 1_555
O28 Sr3 2.567875 1_555
O28 Sr13 2.588371 1_655
O28 Sr10 2.647076 1_554
O28 Sr25 2.660700 1_554
O29 Sr14 2.592364 1_655
O29 Sr4 2.616498 1_555
O29 Sr9 2.632194 1_555
O29 Sr24 2.668299 1_555
O30 Sr27 2.731314 1_554
O30 Sr12 2.737879 1_554
O31 Sr15 2.588787 1_655
O31 Sr26 2.624834 1_555
O31 Sr2 2.650979 1_565
O31 Sr11 2.678435 1_555
O32 Sr13 2.463387 1_555
O33 Sr14 2.558320 1_555
O33 Sr0 2.715631 1_555
O33 Sr2 2.883440 1_455
O34 Sr3 2.946645 1_455
O35 Sr15 2.539616 1_555
O35 Sr1 2.707473 1_555
O35 Sr4 2.861667 1_455
O35 Sr14 3.200553 1_555
O36 Sr16 2.469549 1_555
O37 Sr17 2.513628 1_555
O37 Sr2 2.649773 1_555
O37 Sr0 2.867602 1_555
O38 Sr18 2.509758 1_555
O38 Sr3 2.637776 1_555
O39 Sr19 2.537046 1_555
O39 Sr4 2.662920 1_555
O39 Sr1 2.859310 1_555
O40 Sr20 2.554589 1_555
O40 Sr9 2.644791 1_555
O40 Sr5 2.876487 1_555
O41 Sr21 2.509288 1_555
O41 Sr10 2.719103 1_555
O41 Sr6 2.912491 1_555
O42 Sr22 2.557460 1_555
O42 Sr11 2.668180 1_555
O42 Sr7 2.823799 1_555
O43 Sr23 2.490054 1_555
O43 Sr12 2.678365 1_555
O43 Sr8 2.922462 1_555
O44 Sr24 2.524587 1_555
O44 Sr5 2.730665 1_655
O44 Sr9 2.863414 1_555
O45 Sr25 2.509536 1_555
O45 Sr6 2.646282 1_655
O45 Sr10 2.935066 1_555
O46 Sr26 2.590822 1_555
O46 Sr7 2.690670 1_655
O46 Sr11 2.920157 1_555
O46 Sr24 3.159120 1_565
O47 Sr27 2.502695 1_555
O47 Sr8 2.670688 1_655
O47 Sr12 2.898038 1_555
O48 Sr16 2.704636 1_555
O48 Sr13 2.943619 1_555
O49 Sr0 2.522905 1_555
O49 Sr17 2.679022 1_555
O49 Sr14 2.913696 1_555
O50 Sr18 2.646378 1_555
O51 Sr1 2.519451 1_555
O51 Sr19 2.698985 1_555
O51 Sr15 2.914849 1_555
O52 Sr13 2.642302 1_655
O52 Sr16 2.865783 1_555
O53 Sr2 2.560011 1_555
O53 Sr14 2.683245 1_655
O53 Sr17 2.798503 1_555
O54 Sr3 2.459644 1_555
O54 Sr18 2.949086 1_555
O55 Sr4 2.494054 1_555
O55 Sr15 2.648632 1_655
O55 Sr19 2.883723 1_555
O56 Sr5 2.575599 1_555
O56 Sr20 2.697373 1_555
O56 Sr24 2.893814 1_455
O56 Sr7 3.183885 1_545
O57 Sr6 2.530107 1_555
O57 Sr21 2.683122 1_555
O57 Sr25 2.915486 1_455
O58 Sr7 2.521186 1_555
O58 Sr22 2.670216 1_555
O58 Sr26 2.936601 1_455
O59 Sr8 2.522345 1_555
O59 Sr23 2.693102 1_555
O59 Sr27 2.887480 1_455
O60 Sr9 2.564887 1_555
O60 Sr24 2.729554 1_555
O60 Sr20 2.747739 1_555
O60 Sr11 3.182701 1_545
O61 Sr10 2.536304 1_555
O61 Sr25 2.673629 1_555
O61 Sr21 2.863556 1_555
O62 Sr11 2.500032 1_555
O62 Sr26 2.702204 1_555
O62 Sr22 2.822310 1_555
O63 Sr12 2.508883 1_555
O63 Sr27 2.684255 1_555
O63 Sr23 2.904024 1_555
O64 Sr20 2.524382 1_555
O65 Sr0 2.444208 1_555
O65 Sr21 2.467530 1_555
O66 Sr22 2.530121 1_555
O67 Sr1 2.457395 1_555
O67 Sr23 2.483616 1_555
O68 Sr24 2.505870 1_555
O69 Sr2 2.464896 1_555
O69 Sr25 2.478593 1_555
O70 Sr3 2.469458 1_555
O70 Sr26 2.471902 1_555
O71 Sr4 2.456423 1_555
O71 Sr27 2.493494 1_555
O72 Sr5 2.453049 1_555
O72 Sr13 2.458658 1_555
O73 Sr14 2.459225 1_555
O73 Sr6 2.475814 1_555
O74 Sr7 2.493168 1_555
O75 Sr15 2.461989 1_555
O75 Sr8 2.489788 1_555
O76 Sr16 2.451895 1_555
O76 Sr9 2.460577 1_555
O77 Sr17 2.453839 1_555
O77 Sr10 2.475552 1_555
O78 Sr11 2.441903 1_555
O78 Sr18 2.451349 1_555
O79 Sr19 2.460185 1_555
O79 Sr12 2.481349 1_555
