# generated using pymatgen
data_LaSnF7
_symmetry_space_group_name_H-M   'P 1'
_cell_length_a   5.72706086
_cell_length_b   9.31050353
_cell_length_c   12.52154662
_cell_angle_alpha   61.75323132
_cell_angle_beta   90.00000000
_cell_angle_gamma   90.00000000
_symmetry_Int_Tables_number   1
_chemical_formula_structural   LaSnF7
_chemical_formula_sum   'La4 Sn4 F28'
_cell_volume   588.16360311
_cell_formula_units_Z   4
loop_
 _symmetry_equiv_pos_site_id
 _symmetry_equiv_pos_as_xyz
  1  'x, y, z'
loop_
 _atom_site_type_symbol
 _atom_site_label
 _atom_site_symmetry_multiplicity
 _atom_site_fract_x
 _atom_site_fract_y
 _atom_site_fract_z
 _atom_site_occupancy
  La  La0  1  0.75958046  0.81142233  0.26452577  1
  La  La1  1  0.25958046  0.18857767  0.23547423  1
  La  La2  1  0.24041954  0.18857767  0.73547423  1
  La  La3  1  0.74041954  0.81142233  0.76452577  1
  Sn  Sn0  1  0.24488808  0.72631260  0.54276049  1
  Sn  Sn1  1  0.74488808  0.27368740  0.95723951  1
  Sn  Sn2  1  0.75511192  0.27368740  0.45723951  1
  Sn  Sn3  1  0.25511192  0.72631260  0.04276049  1
  F  F0  1  0.95717294  0.71593172  0.45860157  1
  F  F1  1  0.45717294  0.28406828  0.04139843  1
  F  F2  1  0.04282706  0.28406828  0.54139843  1
  F  F3  1  0.54282706  0.71593172  0.95860157  1
  F  F4  1  0.05629719  0.71209944  0.91915349  1
  F  F5  1  0.55629719  0.28790056  0.58084651  1
  F  F6  1  0.94370281  0.28790056  0.08084651  1
  F  F7  1  0.44370281  0.71209944  0.41915349  1
  F  F8  1  0.73440454  0.51354881  0.86172438  1
  F  F9  1  0.23440454  0.48645119  0.63827562  1
  F  F10  1  0.26559546  0.48645119  0.13827562  1
  F  F11  1  0.76559546  0.51354881  0.36172438  1
  F  F12  1  0.73811321  0.03342143  0.05206219  1
  F  F13  1  0.23811321  0.96657857  0.44793781  1
  F  F14  1  0.26188679  0.96657857  0.94793781  1
  F  F15  1  0.76188679  0.03342143  0.55206219  1
  F  F16  1  0.05345858  0.74150361  0.66877413  1
  F  F17  1  0.55345858  0.25849639  0.83122587  1
  F  F18  1  0.94654142  0.25849639  0.33122587  1
  F  F19  1  0.44654142  0.74150361  0.16877413  1
  F  F20  1  0.02490759  0.26942461  0.86667655  1
  F  F21  1  0.52490759  0.73057539  0.63332345  1
  F  F22  1  0.97509241  0.73057539  0.13332345  1
  F  F23  1  0.47509241  0.26942461  0.36667655  1
  F  F24  1  0.10331672  0.96211873  0.23107243  1
  F  F25  1  0.60331672  0.03788127  0.26892757  1
  F  F26  1  0.89668328  0.03788127  0.76892757  1
  F  F27  1  0.39668328  0.96211873  0.73107243  1
loop_
_geom_bond_atom_site_label_1
_geom_bond_atom_site_label_2
_geom_bond_distance
_geom_bond_site_symmetry_2
F0 Sn0 1.982766 1_655
F0 La0 2.435467 1_555
F1 Sn1 1.982766 1_554
F1 La1 2.435467 1_555
F2 Sn2 1.982766 1_455
F2 La2 2.435467 1_555
F3 Sn3 1.982766 1_556
F3 La3 2.435467 1_555
F4 Sn3 1.975696 1_556
F4 La3 2.486333 1_455
F5 Sn2 1.975696 1_555
F5 La2 2.486333 1_555
F6 Sn1 1.975696 1_554
F6 La1 2.486333 1_655
F7 Sn0 1.975696 1_555
F7 La0 2.486333 1_555
F8 Sn1 1.973115 1_555
F8 La3 2.445202 1_555
F9 Sn0 1.973115 1_555
F9 La2 2.445202 1_555
F10 Sn3 1.973115 1_555
F10 La1 2.445202 1_555
F11 Sn2 1.973115 1_555
F11 La0 2.445202 1_555
F12 Sn1 1.975184 1_554
F12 La0 2.481945 1_545
F13 Sn0 1.975184 1_555
F13 La1 2.481945 1_565
F14 Sn3 1.975184 1_556
F14 La2 2.481945 1_565
F15 Sn2 1.975184 1_555
F15 La3 2.481945 1_545
F16 Sn0 1.980632 1_555
F16 La3 2.411256 1_455
F17 Sn1 1.980632 1_555
F17 La2 2.411256 1_555
F18 Sn2 1.980632 1_555
F18 La1 2.411256 1_655
F19 Sn3 1.980632 1_555
F19 La0 2.411256 1_555
F20 Sn1 1.975329 1_455
F20 La2 2.441200 1_555
F21 Sn0 1.975329 1_555
F21 La3 2.441200 1_555
F22 Sn3 1.975329 1_655
F22 La0 2.441200 1_555
F23 Sn2 1.975329 1_555
F23 La1 2.441200 1_555
F24 La1 2.315057 1_565
F24 La0 2.337331 1_455
F25 La0 2.315057 1_545
F25 La1 2.337331 1_555
F26 La3 2.315057 1_545
F26 La2 2.337331 1_655
F27 La2 2.315057 1_565
F27 La3 2.337331 1_555
