# generated using pymatgen
data_Zn5Fe3(P3O14)2
_symmetry_space_group_name_H-M   'P 1'
_cell_length_a   6.34961594
_cell_length_b   9.33344862
_cell_length_c   9.88590657
_cell_angle_alpha   71.12034994
_cell_angle_beta   79.12464878
_cell_angle_gamma   75.16715239
_symmetry_Int_Tables_number   1
_chemical_formula_structural   Zn5Fe3(P3O14)2
_chemical_formula_sum   'Zn5 Fe3 P6 O28'
_cell_volume   532.28414179
_cell_formula_units_Z   1
loop_
 _symmetry_equiv_pos_site_id
 _symmetry_equiv_pos_as_xyz
  1  'x, y, z'
loop_
 _atom_site_type_symbol
 _atom_site_label
 _atom_site_symmetry_multiplicity
 _atom_site_fract_x
 _atom_site_fract_y
 _atom_site_fract_z
 _atom_site_occupancy
  Zn  Zn0  1  0.04690900  0.84147500  0.21332800  1
  Zn  Zn1  1  0.94725900  0.15663500  0.78137600  1
  Zn  Zn2  1  0.01580200  0.49732800  0.19852800  1
  Zn  Zn3  1  0.98375300  0.50054300  0.80188100  1
  Zn  Zn4  1  0.28888200  0.63076300  0.51929200  1
  Fe  Fe0  1  0.45326000  0.24556700  0.16437900  1
  Fe  Fe1  1  0.54505000  0.75666200  0.83505500  1
  Fe  Fe2  1  0.70332600  0.38029300  0.48260200  1
  P  P0  1  0.24557800  0.27295100  0.48166200  1
  P  P1  1  0.75350600  0.72007100  0.51416500  1
  P  P2  1  0.00058000  0.20421700  0.08257800  1
  P  P3  1  0.99689200  0.79679300  0.91557700  1
  P  P4  1  0.47113000  0.59457600  0.18991600  1
  P  P5  1  0.52504600  0.40712600  0.81199700  1
  O  O0  1  0.99957500  0.72351900  0.08291600  1
  O  O1  1  0.00201000  0.27162500  0.91476600  1
  O  O2  1  0.30624300  0.67858500  0.29390900  1
  O  O3  1  0.69243300  0.32679000  0.70514900  1
  O  O4  1  0.02800000  0.38383700  0.41852000  1
  O  O5  1  0.96530300  0.62268400  0.58690900  1
  O  O6  1  0.31003900  0.49239200  0.74354900  1
  O  O7  1  0.68666900  0.50518600  0.25961400  1
  O  O8  1  0.48815300  0.28324600  0.95350200  1
  O  O9  1  0.51447700  0.71480900  0.04661200  1
  O  O10  1  0.47493800  0.01415200  0.17563900  1
  O  O11  1  0.53238000  0.98877800  0.80400600  1
  O  O12  1  0.76953700  0.20459300  0.16221400  1
  O  O13  1  0.22909700  0.79291500  0.83480200  1
  O  O14  1  0.13899000  0.03554800  0.11566900  1
  O  O15  1  0.86324100  0.96447700  0.89155700  1
  O  O16  1  0.37478500  0.18417800  0.37487600  1
  O  O17  1  0.59645000  0.80894900  0.61682500  1
  O  O18  1  0.25476800  0.84963900  0.54069000  1
  O  O19  1  0.79057100  0.15986400  0.49733300  1
  O  O20  1  0.36331400  0.47210700  0.16714900  1
  O  O21  1  0.63434100  0.52806600  0.83625000  1
  O  O22  1  0.38567300  0.38226100  0.49608200  1
  O  O23  1  0.62875200  0.60407500  0.49708500  1
  O  O24  1  0.11276500  0.30394300  0.13393400  1
  O  O25  1  0.88236200  0.70179100  0.85968400  1
  O  O26  1  0.81436100  0.83232400  0.36967100  1
  O  O27  1  0.18379900  0.16466800  0.62875300  1
loop_
_geom_bond_atom_site_label_1
_geom_bond_atom_site_label_2
_geom_bond_distance
_geom_bond_site_symmetry_2
Fe0 O12 1.943087 1_555
Fe0 O16 1.972366 1_555
Fe0 O8 1.977352 1_554
Fe0 O20 2.052049 1_555
Fe0 O10 2.096299 1_555
Fe0 O24 2.144305 1_555
Fe1 O13 1.947574 1_555
Fe1 O9 1.980220 1_556
Fe1 O17 2.033113 1_555
Fe1 O21 2.059285 1_555
Fe1 O11 2.069757 1_555
Fe1 O25 2.112665 1_555
Fe2 O19 1.952906 1_555
Fe2 O22 1.991852 1_555
Fe2 O4 2.044742 1_655
Fe2 O23 2.066104 1_555
Fe2 O3 2.084168 1_555
Fe2 O7 2.142757 1_555
O0 P3 1.573911 1_554
O0 Zn2 2.036016 1_655
O0 Zn0 2.049080 1_655
O1 P2 1.571584 1_556
O1 Zn3 2.050070 1_455
O1 Zn1 2.071615 1_455
O2 P4 1.569418 1_555
O2 Zn0 2.021617 1_555
O2 Zn4 2.113001 1_555
O3 P5 1.577498 1_555
O3 Zn1 2.019415 1_555
O4 P0 1.595201 1_555
O4 Zn2 2.094890 1_555
O5 P1 1.570980 1_555
O5 Zn4 2.049966 1_655
O5 Zn3 2.070614 1_555
O6 P5 1.548819 1_555
O6 Zn3 2.031628 1_455
O6 Zn4 2.184396 1_555
O7 P4 1.563031 1_555
O7 Zn2 2.052210 1_655
O8 P5 1.522149 1_555
O9 P4 1.524540 1_555
O12 P2 1.528181 1_655
O13 P3 1.536218 1_455
O14 P2 1.557090 1_555
O14 Zn0 1.937136 1_545
O15 P3 1.543216 1_555
O15 Zn1 1.921984 1_565
O16 P0 1.537938 1_555
O17 P1 1.565888 1_555
O18 Zn4 2.073835 1_555
O20 P4 1.565629 1_555
O20 Zn2 2.131573 1_555
O21 P5 1.565973 1_555
O21 Zn3 2.141025 1_555
O22 P0 1.568168 1_555
O22 Zn4 2.317597 1_555
O23 P1 1.560763 1_555
O23 Zn4 2.085374 1_555
O24 P2 1.553481 1_555
O24 Zn2 2.018232 1_555
O25 P3 1.555394 1_555
O25 Zn3 2.050812 1_555
O26 P1 1.522476 1_555
O26 Zn0 1.922090 1_655
O27 P0 1.525268 1_555
O27 Zn1 1.915017 1_455
