# generated using pymatgen
data_BaB12(H2O)6
_symmetry_space_group_name_H-M   'P 1'
_cell_length_a   7.88068529
_cell_length_b   7.88068529
_cell_length_c   13.86038200
_cell_angle_alpha   90.00000000
_cell_angle_beta   90.00000000
_cell_angle_gamma   99.42866613
_symmetry_Int_Tables_number   1
_chemical_formula_structural   BaB12(H2O)6
_chemical_formula_sum   'Ba2 B24 H24 O12'
_cell_volume   849.17265167
_cell_formula_units_Z   2
loop_
 _symmetry_equiv_pos_site_id
 _symmetry_equiv_pos_as_xyz
  1  'x, y, z'
loop_
 _atom_site_type_symbol
 _atom_site_label
 _atom_site_symmetry_multiplicity
 _atom_site_fract_x
 _atom_site_fract_y
 _atom_site_fract_z
 _atom_site_occupancy
  Ba  Ba0  1  0.76137300  0.76137300  0.25000000  1
  Ba  Ba1  1  0.23862700  0.23862700  0.75000000  1
  B  B0  1  0.33571900  0.33571900  0.97786300  1
  B  B1  1  0.66428100  0.66428100  0.02213700  1
  B  B2  1  0.33571900  0.33571900  0.52213700  1
  B  B3  1  0.66428100  0.66428100  0.47786300  1
  B  B4  1  0.39941300  0.39941300  0.09669800  1
  B  B5  1  0.60058700  0.60058700  0.90330200  1
  B  B6  1  0.39941300  0.39941300  0.40330200  1
  B  B7  1  0.60058700  0.60058700  0.59669800  1
  B  B8  1  0.62472400  0.47640900  0.09553100  1
  B  B9  1  0.52359100  0.37527600  0.90446900  1
  B  B10  1  0.62472400  0.47640900  0.40446900  1
  B  B11  1  0.52359100  0.37527600  0.59553100  1
  B  B12  1  0.37527600  0.52359100  0.90446900  1
  B  B13  1  0.47640900  0.62472400  0.09553100  1
  B  B14  1  0.37527600  0.52359100  0.59553100  1
  B  B15  1  0.47640900  0.62472400  0.40446900  1
  B  B16  1  0.29750900  0.53836700  0.02355800  1
  B  B17  1  0.46163300  0.70249100  0.97644200  1
  B  B18  1  0.29750900  0.53836700  0.47644200  1
  B  B19  1  0.46163300  0.70249100  0.52355800  1
  B  B20  1  0.70249100  0.46163300  0.97644200  1
  B  B21  1  0.53836700  0.29750900  0.02355800  1
  B  B22  1  0.70249100  0.46163300  0.52355800  1
  B  B23  1  0.53836700  0.29750900  0.47644200  1
  H  H0  1  0.21932900  0.21932900  0.96075800  1
  H  H1  1  0.78067100  0.78067100  0.03924200  1
  H  H2  1  0.21932900  0.21932900  0.53924200  1
  H  H3  1  0.78067100  0.78067100  0.46075800  1
  H  H4  1  0.33126200  0.33126200  0.16727800  1
  H  H5  1  0.66873800  0.66873800  0.83272200  1
  H  H6  1  0.33126200  0.33126200  0.33272200  1
  H  H7  1  0.66873800  0.66873800  0.66727800  1
  H  H8  1  0.71456300  0.45718500  0.16396900  1
  H  H9  1  0.54281500  0.28543700  0.83603100  1
  H  H10  1  0.71456300  0.45718500  0.33603100  1
  H  H11  1  0.54281500  0.28543700  0.66396900  1
  H  H12  1  0.28543700  0.54281500  0.83603100  1
  H  H13  1  0.45718500  0.71456300  0.16396900  1
  H  H14  1  0.28543700  0.54281500  0.66396900  1
  H  H15  1  0.45718500  0.71456300  0.33603100  1
  H  H16  1  0.15517900  0.56834200  0.03852600  1
  H  H17  1  0.43165800  0.84482100  0.96147400  1
  H  H18  1  0.15517900  0.56834200  0.46147400  1
  H  H19  1  0.43165800  0.84482100  0.53852600  1
  H  H20  1  0.84482100  0.43165800  0.96147400  1
  H  H21  1  0.56834200  0.15517900  0.03852600  1
  H  H22  1  0.84482100  0.43165800  0.53852600  1
  H  H23  1  0.56834200  0.15517900  0.46147400  1
  O  O0  1  0.85687900  0.20169300  0.25000000  1
  O  O1  1  0.79830700  0.14312100  0.75000000  1
  O  O2  1  0.14312100  0.79830700  0.75000000  1
  O  O3  1  0.20169300  0.85687900  0.25000000  1
  O  O4  1  0.83426900  0.11427900  0.32965700  1
  O  O5  1  0.88572100  0.16573100  0.67034300  1
  O  O6  1  0.83426900  0.11427900  0.17034300  1
  O  O7  1  0.88572100  0.16573100  0.82965700  1
  O  O8  1  0.16573100  0.88572100  0.67034300  1
  O  O9  1  0.11427900  0.83426900  0.32965700  1
  O  O10  1  0.16573100  0.88572100  0.82965700  1
  O  O11  1  0.11427900  0.83426900  0.17034300  1
loop_
_geom_bond_atom_site_label_1
_geom_bond_atom_site_label_2
_geom_bond_distance
_geom_bond_site_symmetry_2
Ba0 H15 2.648553 1_555
Ba0 H10 2.648553 1_555
Ba0 H13 2.648553 1_555
Ba0 H8 2.648553 1_555
Ba0 H1 2.927799 1_555
Ba0 H3 2.927799 1_555
Ba0 O6 2.959778 1_565
Ba0 O4 2.959778 1_565
Ba0 O11 2.959778 1_655
Ba0 O9 2.959778 1_655
Ba1 H9 2.648553 1_555
Ba1 H12 2.648553 1_555
Ba1 H11 2.648553 1_555
Ba1 H14 2.648553 1_555
Ba1 H2 2.927799 1_555
Ba1 H0 2.927799 1_555
Ba1 O8 2.959778 1_545
Ba1 O7 2.959778 1_455
Ba1 O5 2.959778 1_455
Ba1 O10 2.959778 1_545
B0 H0 1.209625 1_555
B1 H1 1.209625 1_555
B2 H2 1.209625 1_555
B3 H3 1.209625 1_555
B4 H4 1.199749 1_555
B5 H5 1.199749 1_555
B6 H6 1.199749 1_555
B7 H7 1.199749 1_555
B8 H8 1.207951 1_555
B9 H9 1.207951 1_555
B10 H10 1.207951 1_555
B11 H11 1.207951 1_555
B12 H12 1.207951 1_555
B13 H13 1.207951 1_555
B14 H14 1.207951 1_555
B15 H15 1.207951 1_555
B16 H16 1.201570 1_555
B17 H17 1.201570 1_555
B18 H18 1.201570 1_555
B19 H19 1.201570 1_555
B20 H20 1.201570 1_555
B21 H21 1.201570 1_555
B22 H22 1.201570 1_555
B23 H23 1.201570 1_555
O0 O4 1.298105 1_555
O0 O6 1.298105 1_555
O1 O5 1.298105 1_555
O1 O7 1.298105 1_555
O2 O8 1.298105 1_555
O3 O9 1.298105 1_555
O10 O2 1.298105 1_555
O11 O3 1.298105 1_555
