# generated using pymatgen
data_NaEr(MoO4)2
_symmetry_space_group_name_H-M   'P 1'
_cell_length_a   6.77338696
_cell_length_b   6.77338696
_cell_length_c   6.77338696
_cell_angle_alpha   134.59829367
_cell_angle_beta   134.59829367
_cell_angle_gamma   66.15500525
_symmetry_Int_Tables_number   1
_chemical_formula_structural   NaEr(MoO4)2
_chemical_formula_sum   'Na1 Er1 Mo2 O8'
_cell_volume   155.12473931
_cell_formula_units_Z   1
loop_
 _symmetry_equiv_pos_site_id
 _symmetry_equiv_pos_as_xyz
  1  'x, y, z'
loop_
 _atom_site_type_symbol
 _atom_site_label
 _atom_site_symmetry_multiplicity
 _atom_site_fract_x
 _atom_site_fract_y
 _atom_site_fract_z
 _atom_site_occupancy
  Na  Na0  1  0.00000000  0.00000000  0.00000000  1
  Er  Er0  1  0.75000000  0.25000000  0.50000000  1
  Mo  Mo0  1  0.50000000  0.50000000  0.00000000  1
  Mo  Mo1  1  0.25000000  0.75000000  0.50000000  1
  O  O0  1  0.44398300  0.34444400  0.60842800  1
  O  O1  1  0.73601600  0.83555500  0.39157200  1
  O  O2  1  0.57887800  0.66782700  0.58341900  1
  O  O3  1  0.08440800  0.99546000  0.41658100  1
  O  O4  1  0.33217300  0.91559200  0.91105100  1
  O  O5  1  0.00454000  0.42112200  0.08894900  1
  O  O6  1  0.16444500  0.55601700  0.90046100  1
  O  O7  1  0.65555600  0.26398400  0.09953900  1
loop_
_geom_bond_atom_site_label_1
_geom_bond_atom_site_label_2
_geom_bond_distance
_geom_bond_site_symmetry_2
Na0 O3 2.476257 1_545
Na0 O5 2.476260 1_555
Na0 O4 2.476262 1_544
Na0 O2 2.476262 1_444
Na0 O6 2.497592 1_544
Na0 O1 2.497592 1_444
Na0 O0 2.497592 1_555
Na0 O7 2.497592 1_455
Er0 O1 2.377155 1_545
Er0 O0 2.377155 1_555
Er0 O7 2.377155 1_555
Er0 O6 2.377155 1_655
Er0 O3 2.386232 1_645
Er0 O2 2.386233 1_555
Er0 O4 2.386233 1_544
Er0 O5 2.386235 1_656
Mo0 O6 1.809544 1_554
Mo0 O7 1.809544 1_555
Mo0 O1 1.809544 1_555
Mo0 O0 1.809544 1_554
Mo1 O2 1.806374 1_555
Mo1 O4 1.806374 1_555
Mo1 O5 1.806376 1_555
Mo1 O3 1.806380 1_555
