# generated using pymatgen
data_PrGe2Ir
_symmetry_space_group_name_H-M   'P 1'
_cell_length_a   4.41931900
_cell_length_b   9.09129600
_cell_length_c   9.61187067
_cell_angle_alpha   118.22402198
_cell_angle_beta   103.29051637
_cell_angle_gamma   90.00000000
_symmetry_Int_Tables_number   1
_chemical_formula_structural   PrGe2Ir
_chemical_formula_sum   'Pr4 Ge8 Ir4'
_cell_volume   328.47902046
_cell_formula_units_Z   4
loop_
 _symmetry_equiv_pos_site_id
 _symmetry_equiv_pos_as_xyz
  1  'x, y, z'
loop_
 _atom_site_type_symbol
 _atom_site_label
 _atom_site_symmetry_multiplicity
 _atom_site_fract_x
 _atom_site_fract_y
 _atom_site_fract_z
 _atom_site_occupancy
  Pr  Pr0  1  0.00000000  0.26465100  0.00000000  1
  Pr  Pr1  1  0.00000000  0.73534900  0.00000000  1
  Pr  Pr2  1  0.79230300  0.29230300  0.58460600  1
  Pr  Pr3  1  0.20769700  0.70769700  0.41539400  1
  Ge  Ge0  1  0.42102000  0.92102000  0.84204100  1
  Ge  Ge1  1  0.57898000  0.07898000  0.15795900  1
  Ge  Ge2  1  0.42195100  0.42195100  0.84390200  1
  Ge  Ge3  1  0.57804900  0.57804900  0.15609800  1
  Ge  Ge4  1  0.19919000  0.04211100  0.39838000  1
  Ge  Ge5  1  0.80081000  0.95788900  0.60162000  1
  Ge  Ge6  1  0.19919000  0.35627000  0.39838000  1
  Ge  Ge7  1  0.80081000  0.64373000  0.60162000  1
  Ir  Ir0  1  0.35405900  0.10140100  0.70811700  1
  Ir  Ir1  1  0.64594100  0.89859900  0.29188300  1
  Ir  Ir2  1  0.35405900  0.60671600  0.70811700  1
  Ir  Ir3  1  0.64594100  0.39328400  0.29188300  1
loop_
_geom_bond_atom_site_label_1
_geom_bond_atom_site_label_2
_geom_bond_distance
_geom_bond_site_symmetry_2
Ge0 Ir2 2.501066 1_555
Ge0 Ir0 2.501074 1_565
Ge0 Ge1 2.582860 1_566
Ge0 Pr3 3.488150 1_555
Ge0 Pr1 3.512733 1_556
Ge0 Pr1 3.512735 1_656
Ge0 Pr0 3.512739 1_566
Ge0 Pr0 3.512741 1_666
Ge1 Ir3 2.501066 1_555
Ge1 Ir1 2.501074 1_545
Ge1 Pr2 3.488150 1_555
Ge1 Pr0 3.512733 1_655
Ge1 Pr0 3.512735 1_555
Ge1 Pr1 3.512739 1_645
Ge1 Pr1 3.512741 1_545
Ge2 Ir2 2.551186 1_555
Ge2 Ir0 2.551186 1_555
Ge2 Ge3 2.552430 1_556
Ge2 Pr2 3.062142 1_455
Ge2 Pr2 3.062142 1_555
Ge2 Pr1 3.330064 1_656
Ge2 Pr0 3.330064 1_656
Ge2 Pr1 3.330064 1_556
Ge2 Pr0 3.330064 1_556
Ge3 Ir1 2.551186 1_555
Ge3 Ir3 2.551186 1_555
Ge3 Pr3 3.062142 1_655
Ge3 Pr3 3.062142 1_555
Ge3 Pr1 3.330064 1_555
Ge3 Pr0 3.330064 1_555
Ge3 Pr1 3.330064 1_655
Ge3 Pr0 3.330064 1_655
Ge4 Ir1 2.512786 1_545
Ge4 Ir1 2.512790 1_445
Ge4 Ir0 2.677259 1_555
Ge4 Ge6 2.856112 1_555
Ge4 Pr2 3.039742 1_555
Ge4 Pr2 3.039743 1_455
Ge4 Pr3 3.120698 1_545
Ge4 Pr1 3.400703 1_545
Ge5 Ir0 2.512786 1_565
Ge5 Ir0 2.512790 1_665
Ge5 Ir1 2.677259 1_555
Ge5 Ge7 2.856112 1_555
Ge5 Pr3 3.039742 1_555
Ge5 Pr3 3.039743 1_655
Ge5 Pr2 3.120698 1_565
Ge5 Pr0 3.400703 1_666
Ge6 Ir3 2.512783 1_555
Ge6 Ir3 2.512787 1_455
Ge6 Ir2 2.677256 1_555
Ge6 Pr2 3.039747 1_555
Ge6 Pr2 3.039747 1_455
Ge6 Pr3 3.120689 1_555
Ge6 Pr0 3.400700 1_555
Ge7 Ir2 2.512783 1_555
Ge7 Ir2 2.512787 1_655
Ge7 Ir3 2.677256 1_555
Ge7 Pr3 3.039747 1_555
Ge7 Pr3 3.039747 1_655
Ge7 Pr2 3.120689 1_555
Ge7 Pr1 3.400700 1_656
Ir0 Pr0 3.256078 1_656
Ir0 Pr0 3.256081 1_556
Ir0 Pr3 3.283902 1_545
Ir0 Pr2 3.343412 1_555
Ir0 Pr2 3.343415 1_455
Ir1 Pr1 3.256078 1_555
Ir1 Pr1 3.256081 1_655
Ir1 Pr2 3.283902 1_565
Ir1 Pr3 3.343412 1_555
Ir1 Pr3 3.343415 1_655
Ir2 Pr1 3.256078 1_656
Ir2 Pr1 3.256081 1_556
Ir2 Pr3 3.283902 1_555
Ir2 Pr2 3.343412 1_555
Ir2 Pr2 3.343415 1_455
Ir3 Pr0 3.256078 1_555
Ir3 Pr0 3.256081 1_655
Ir3 Pr2 3.283902 1_555
Ir3 Pr3 3.343412 1_555
Ir3 Pr3 3.343415 1_655
