# generated using pymatgen
data_V2FeS4
_symmetry_space_group_name_H-M   'P 1'
_cell_length_a   12.82386583
_cell_length_b   11.22536212
_cell_length_c   6.26707287
_cell_angle_alpha   89.65823042
_cell_angle_beta   74.88321762
_cell_angle_gamma   31.18328325
_symmetry_Int_Tables_number   1
_chemical_formula_structural   V2FeS4
_chemical_formula_sum   'V8 Fe4 S16'
_cell_volume   406.18244597
_cell_formula_units_Z   4
loop_
 _symmetry_equiv_pos_site_id
 _symmetry_equiv_pos_as_xyz
  1  'x, y, z'
loop_
 _atom_site_type_symbol
 _atom_site_label
 _atom_site_symmetry_multiplicity
 _atom_site_fract_x
 _atom_site_fract_y
 _atom_site_fract_z
 _atom_site_occupancy
  V  V0  1  0.00016800  0.99787500  0.99684100  1
  V  V1  1  0.20241700  0.31390400  0.52134000  1
  V  V2  1  0.04756300  0.68382800  0.48057200  1
  V  V3  1  0.44496300  0.31029300  0.51707400  1
  V  V4  1  0.70494300  0.31604800  0.51758500  1
  V  V5  1  0.55092500  0.69023600  0.48303200  1
  V  V6  1  0.94627200  0.31607200  0.52150900  1
  V  V7  1  0.79930000  0.68762300  0.47847000  1
  Fe  Fe0  1  0.24153900  0.00015800  0.00221600  1
  Fe  Fe1  1  0.49959000  0.99888000  0.99706300  1
  Fe  Fe2  1  0.75983200  0.00155500  0.99996500  1
  Fe  Fe3  1  0.30474500  0.68043300  0.47803300  1
  S  S0  1  0.14426800  0.02239700  0.71961000  1
  S  S1  1  0.14832300  0.43369100  0.20588400  1
  S  S2  1  0.38969000  0.02527200  0.73268800  1
  S  S3  1  0.10095200  0.56586500  0.79594900  1
  S  S4  1  0.39513800  0.44025000  0.21318900  1
  S  S5  1  0.64034900  0.02304800  0.73654200  1
  S  S6  1  0.10894200  0.97451100  0.28392600  1
  S  S7  1  0.36442000  0.54993800  0.77780800  1
  S  S8  1  0.63517800  0.45016700  0.21866600  1
  S  S9  1  0.89911900  0.01545800  0.71361900  1
  S  S10  1  0.35713500  0.98026700  0.26930300  1
  S  S11  1  0.59921200  0.56842500  0.79538300  1
  S  S12  1  0.89611900  0.43717000  0.20791500  1
  S  S13  1  0.61226400  0.97357000  0.26461900  1
  S  S14  1  0.85379300  0.56331700  0.78919000  1
  S  S15  1  0.85284000  0.97975100  0.28200900  1
loop_
_geom_bond_atom_site_label_1
_geom_bond_atom_site_label_2
_geom_bond_distance
_geom_bond_site_symmetry_2
Fe0 S11 2.268271 1_544
Fe0 S12 2.294517 1_455
Fe0 S6 2.314520 1_545
Fe0 S0 2.317186 1_554
Fe0 S10 2.402603 1_545
Fe0 S2 2.403983 1_554
Fe1 S1 2.282362 1_566
Fe1 S14 2.285799 1_555
Fe1 S5 2.300669 1_565
Fe1 S10 2.305440 1_556
Fe1 S2 2.305829 1_565
Fe1 S13 2.352812 1_556
Fe2 S15 2.280749 1_546
Fe2 S9 2.288458 1_555
Fe2 S3 2.289342 1_645
Fe2 S4 2.306764 1_556
Fe2 S13 2.409290 1_546
Fe2 S5 2.411112 1_555
Fe3 S8 2.235165 1_555
Fe3 S7 2.249435 1_555
Fe3 S4 2.251698 1_555
Fe3 S9 2.443277 1_465
Fe3 S6 2.458604 1_555
Fe3 S0 2.488013 1_565
S0 V0 2.387321 1_545
S0 V5 2.461575 1_545
S0 V6 2.475745 1_455
S1 V2 2.281867 1_555
S1 V1 2.298989 1_555
S1 V7 2.305841 1_455
S2 V5 2.438247 1_545
S2 V7 2.477424 1_545
S2 V1 2.512719 1_555
S3 V3 2.264952 1_555
S3 V1 2.290777 1_555
S3 V2 2.291738 1_555
S4 V3 2.273779 1_555
S4 V2 2.336123 1_555
S5 V2 2.454187 1_645
S5 V7 2.483748 1_545
S5 V3 2.547095 1_555
S6 V4 2.410047 1_465
S6 V0 2.434952 1_554
S6 V6 2.456035 1_465
S7 V4 2.311176 1_555
S7 V3 2.321972 1_555
S7 V0 2.353088 1_555
S8 V4 2.261048 1_555
S8 V5 2.304842 1_555
S8 V0 2.376409 1_644
S9 V0 2.372033 1_645
S9 V2 2.470743 1_645
S9 V4 2.503035 1_555
S10 V1 2.485903 1_565
S10 V6 2.492576 1_465
S10 V5 2.531814 1_555
S11 V4 2.269493 1_555
S11 V5 2.288362 1_555
S11 V6 2.297925 1_555
S12 V5 2.280234 1_555
S12 V6 2.292482 1_555
S12 V7 2.303674 1_555
S13 V3 2.412203 1_565
S13 V1 2.472689 1_565
S13 V7 2.510878 1_555
S14 V7 2.288301 1_555
S14 V6 2.304279 1_555
S14 V1 2.317049 1_655
S15 V0 2.386862 1_654
S15 V3 2.476976 1_565
S15 V2 2.489413 1_655
S15 V4 2.526504 1_565
