# generated using pymatgen
data_Te2MoWSe2
_symmetry_space_group_name_H-M   'P 1'
_cell_length_a   3.43799028
_cell_length_b   3.43799028
_cell_length_c   39.13950100
_cell_angle_alpha   90.00000000
_cell_angle_beta   90.00000000
_cell_angle_gamma   120.00000537
_symmetry_Int_Tables_number   1
_chemical_formula_structural   Te2MoWSe2
_chemical_formula_sum   'Te4 Mo2 W2 Se4'
_cell_volume   400.64080642
_cell_formula_units_Z   2
loop_
 _symmetry_equiv_pos_site_id
 _symmetry_equiv_pos_as_xyz
  1  'x, y, z'
loop_
 _atom_site_type_symbol
 _atom_site_label
 _atom_site_symmetry_multiplicity
 _atom_site_fract_x
 _atom_site_fract_y
 _atom_site_fract_z
 _atom_site_occupancy
  Te  Te0  1  0.00000000  0.00000000  0.32951100  1
  Te  Te1  1  0.33333300  0.66666700  0.04651800  1
  Te  Te2  1  0.33333300  0.66666700  0.14127000  1
  Te  Te3  1  0.00000000  0.00000000  0.23416000  1
  Mo  Mo0  1  0.00000000  0.00000000  0.09387700  1
  Mo  Mo1  1  0.00000000  0.00000000  0.46966200  1
  W  W0  1  0.33333300  0.66666700  0.28184000  1
  W  W1  1  0.33333300  0.66666700  0.65753000  1
  Se  Se0  1  0.00000000  0.00000000  0.69946300  1
  Se  Se1  1  0.33333300  0.66666700  0.42783300  1
  Se  Se2  1  0.33333300  0.66666700  0.51147700  1
  Se  Se3  1  0.00000000  0.00000000  0.61560800  1
loop_
_geom_bond_atom_site_label_1
_geom_bond_atom_site_label_2
_geom_bond_distance
_geom_bond_site_symmetry_2
Te0 W0 2.724188 1_545
Te0 W0 2.724190 1_445
Te0 W0 2.724190 1_555
Te3 W0 2.724429 1_545
Te3 W0 2.724431 1_445
Te3 W0 2.724431 1_555
Mo0 Te1 2.715839 1_545
Mo0 Te1 2.715841 1_555
Mo0 Te1 2.715841 1_445
Mo0 Te2 2.716747 1_545
Mo0 Te2 2.716749 1_555
Mo0 Te2 2.716749 1_445
Mo1 Se2 2.572632 1_545
Mo1 Se2 2.572635 1_445
Mo1 Se2 2.572635 1_555
Mo1 Se1 2.572981 1_545
Mo1 Se1 2.572983 1_555
Mo1 Se1 2.572983 1_445
Se0 W1 2.575573 1_545
Se0 W1 2.575575 1_555
Se0 W1 2.575575 1_445
Se3 W1 2.575299 1_545
Se3 W1 2.575301 1_445
Se3 W1 2.575301 1_555
