# generated using pymatgen
data_Y2V3O9
_symmetry_space_group_name_H-M   'P 1'
_cell_length_a   5.28496100
_cell_length_b   7.63349400
_cell_length_c   16.37200400
_cell_angle_alpha   90.00000000
_cell_angle_beta   90.00000000
_cell_angle_gamma   90.00000000
_symmetry_Int_Tables_number   1
_chemical_formula_structural   Y2V3O9
_chemical_formula_sum   'Y8 V12 O36'
_cell_volume   660.49114184
_cell_formula_units_Z   4
loop_
 _symmetry_equiv_pos_site_id
 _symmetry_equiv_pos_as_xyz
  1  'x, y, z'
loop_
 _atom_site_type_symbol
 _atom_site_label
 _atom_site_symmetry_multiplicity
 _atom_site_fract_x
 _atom_site_fract_y
 _atom_site_fract_z
 _atom_site_occupancy
  Y  Y0  1  0.51691800  0.00186300  0.06191300  1
  Y  Y1  1  0.50862500  0.00061700  0.73365300  1
  Y  Y2  1  0.00862500  0.49938300  0.26634700  1
  Y  Y3  1  0.01691800  0.49813700  0.93808700  1
  Y  Y4  1  0.48308200  0.50186300  0.43808700  1
  Y  Y5  1  0.49137500  0.50061700  0.76634700  1
  Y  Y6  1  0.98308200  0.99813700  0.56191300  1
  Y  Y7  1  0.99137500  0.99938300  0.23365300  1
  V  V0  1  0.00511600  0.24668800  0.41744700  1
  V  V1  1  0.01399100  0.25977500  0.08532700  1
  V  V2  1  0.00348500  0.24831300  0.74934600  1
  V  V3  1  0.50511600  0.25331200  0.58255300  1
  V  V4  1  0.50348500  0.25168700  0.25065400  1
  V  V5  1  0.51399100  0.24022500  0.91467300  1
  V  V6  1  0.98600900  0.75977500  0.41467300  1
  V  V7  1  0.99488400  0.74668800  0.08255300  1
  V  V8  1  0.99651500  0.74831300  0.75065400  1
  V  V9  1  0.48600900  0.74022500  0.58532700  1
  V  V10  1  0.49651500  0.75168700  0.24934600  1
  V  V11  1  0.49488400  0.75331200  0.91744700  1
  O  O0  1  0.21099800  0.29166600  0.50637900  1
  O  O1  1  0.19132100  0.28121100  0.18894100  1
  O  O2  1  0.21614800  0.31429600  0.84764300  1
  O  O3  1  0.71099800  0.20833400  0.49362100  1
  O  O4  1  0.71614800  0.18570400  0.15235700  1
  O  O5  1  0.69132100  0.21878900  0.81105900  1
  O  O6  1  0.81013100  0.21906100  0.31313600  1
  O  O7  1  0.76943500  0.22230200  0.98840100  1
  O  O8  1  0.79324200  0.18458000  0.65397000  1
  O  O9  1  0.29324200  0.31542000  0.34603000  1
  O  O10  1  0.26943500  0.27769800  0.01159900  1
  O  O11  1  0.31013100  0.28093900  0.68686400  1
  O  O12  1  0.80867900  0.78121100  0.31105900  1
  O  O13  1  0.78900200  0.79166600  0.99362100  1
  O  O14  1  0.78385200  0.81429600  0.65235700  1
  O  O15  1  0.28385200  0.68570400  0.34764300  1
  O  O16  1  0.28900200  0.70833400  0.00637900  1
  O  O17  1  0.30867900  0.71878900  0.68894100  1
  O  O18  1  0.23056500  0.72230200  0.51159900  1
  O  O19  1  0.18986900  0.71906100  0.18686400  1
  O  O20  1  0.20675800  0.68458000  0.84603000  1
  O  O21  1  0.73056500  0.77769800  0.48840100  1
  O  O22  1  0.70675800  0.81542000  0.15397000  1
  O  O23  1  0.68986900  0.78093900  0.81313600  1
  O  O24  1  0.06210800  0.00112300  0.41880800  1
  O  O25  1  0.10700800  0.99737800  0.09648800  1
  O  O26  1  0.07690300  0.00195000  0.75881400  1
  O  O27  1  0.56210800  0.49887700  0.58119200  1
  O  O28  1  0.57690300  0.49805000  0.24118600  1
  O  O29  1  0.60700800  0.50262200  0.90351200  1
  O  O30  1  0.89299200  0.49737800  0.40351200  1
  O  O31  1  0.93789200  0.50112300  0.08119200  1
  O  O32  1  0.92309700  0.50195000  0.74118600  1
  O  O33  1  0.42309700  0.99805000  0.25881400  1
  O  O34  1  0.43789200  0.99887700  0.91880800  1
  O  O35  1  0.39299200  0.00262200  0.59648800  1
loop_
_geom_bond_atom_site_label_1
_geom_bond_atom_site_label_2
_geom_bond_distance
_geom_bond_site_symmetry_2
O0 V0 1.849789 1_555
O0 V3 2.014248 1_555
O0 Y4 2.427416 1_555
O0 Y6 2.701492 1_445
O1 V1 1.944930 1_555
O1 V4 1.947662 1_555
O1 Y2 2.304757 1_555
O1 Y7 2.506137 1_445
O2 V5 2.000444 1_555
O2 V2 2.026521 1_555
O2 Y3 2.295791 1_555
O2 Y5 2.431078 1_555
O3 V3 1.849789 1_555
O3 V0 2.014248 1_655
O3 Y6 2.427416 1_545
O3 Y4 2.701492 1_555
O4 V1 2.000444 1_655
O4 V4 2.026521 1_555
O4 Y0 2.295791 1_555
O4 Y7 2.431078 1_545
O5 V5 1.944930 1_555
O5 V2 1.947662 1_655
O5 Y1 2.304757 1_555
O5 Y5 2.506137 1_555
O6 V4 1.932575 1_555
O6 V0 2.005715 1_655
O6 Y7 2.328714 1_545
O6 Y2 2.503232 1_655
O7 V5 1.816117 1_555
O7 V1 2.066511 1_656
O7 Y0 2.461921 1_556
O7 Y3 2.612037 1_655
O8 V2 1.977261 1_655
O8 V3 1.990255 1_555
O8 Y6 2.302968 1_545
O8 Y1 2.436492 1_555
O9 V4 1.977261 1_555
O9 V0 1.990255 1_555
O9 Y4 2.302968 1_555
O9 Y2 2.436492 1_555
O10 V1 1.816117 1_555
O10 V5 2.066511 1_554
O10 Y3 2.461921 1_554
O10 Y0 2.612037 1_555
O11 V2 1.932575 1_555
O11 V3 2.005715 1_555
O11 Y5 2.328714 1_555
O11 Y1 2.503232 1_555
O12 V6 1.944930 1_555
O12 V10 1.947662 1_555
O12 Y7 2.304757 1_555
O12 Y2 2.506137 1_655
O13 V7 1.849789 1_556
O13 V11 2.014248 1_555
O13 Y0 2.427416 1_566
O13 Y3 2.701492 1_655
O14 V9 2.000444 1_555
O14 V8 2.026521 1_555
O14 Y6 2.295791 1_555
O14 Y1 2.431078 1_565
O15 V6 2.000444 1_455
O15 V10 2.026521 1_555
O15 Y4 2.295791 1_555
O15 Y2 2.431078 1_555
O16 V11 1.849789 1_554
O16 V7 2.014248 1_455
O16 Y3 2.427416 1_554
O16 Y0 2.701492 1_565
O17 V9 1.944930 1_555
O17 V8 1.947662 1_455
O17 Y5 2.304757 1_555
O17 Y1 2.506137 1_565
O18 V9 1.816117 1_555
O18 V6 2.066511 1_455
O18 Y4 2.461921 1_555
O18 Y6 2.612037 1_455
O19 V10 1.932575 1_555
O19 V7 2.005715 1_455
O19 Y2 2.328714 1_555
O19 Y7 2.503232 1_455
O20 V8 1.977261 1_455
O20 V11 1.990255 1_555
O20 Y3 2.302968 1_555
O20 Y5 2.436492 1_555
O21 V6 1.816117 1_555
O21 V9 2.066511 1_555
O21 Y6 2.461921 1_555
O21 Y4 2.612037 1_555
O22 V10 1.977261 1_555
O22 V7 1.990255 1_555
O22 Y0 2.302968 1_565
O22 Y7 2.436492 1_555
O23 V8 1.932575 1_555
O23 V11 2.005715 1_555
O23 Y1 2.328714 1_565
O23 Y5 2.503232 1_555
O24 V6 1.886930 1_445
O24 V0 1.898694 1_555
O24 Y6 2.379959 1_445
O25 V7 2.016237 1_455
O25 V1 2.070528 1_565
O25 Y0 2.239354 1_565
O25 Y7 2.327383 1_455
O26 V2 1.926467 1_555
O26 V8 1.986698 1_445
O26 Y1 2.318544 1_555
O27 V9 1.886930 1_555
O27 V3 1.898694 1_555
O27 Y4 2.379959 1_555
O28 V4 1.926467 1_555
O28 V10 1.986698 1_555
O28 Y2 2.318544 1_655
O29 V11 2.016237 1_555
O29 V5 2.070528 1_555
O29 Y3 2.239354 1_655
O29 Y5 2.327383 1_555
O30 V0 2.016237 1_655
O30 V6 2.070528 1_555
O30 Y4 2.239354 1_555
O30 Y2 2.327383 1_655
O31 V1 1.886930 1_655
O31 V7 1.898694 1_555
O31 Y3 2.379959 1_654
O32 V8 1.926467 1_555
O32 V2 1.986698 1_655
O32 Y5 2.318544 1_555
O33 V10 1.926467 1_555
O33 V4 1.986698 1_565
O33 Y7 2.318544 1_455
O34 V5 1.886930 1_565
O34 V11 1.898694 1_555
O34 Y0 2.379959 1_566
O35 V3 2.016237 1_555
O35 V9 2.070528 1_545
O35 Y6 2.239354 1_445
O35 Y1 2.327383 1_555
