# generated using pymatgen
data_Mn5H8SO12
_symmetry_space_group_name_H-M   'P 1'
_cell_length_a   7.29037736
_cell_length_b   9.81098539
_cell_length_c   9.09109289
_cell_angle_alpha   107.29681470
_cell_angle_beta   102.97296375
_cell_angle_gamma   103.14558008
_symmetry_Int_Tables_number   1
_chemical_formula_structural   Mn5H8SO12
_chemical_formula_sum   'Mn10 H16 S2 O24'
_cell_volume   573.95949144
_cell_formula_units_Z   2
loop_
 _symmetry_equiv_pos_site_id
 _symmetry_equiv_pos_as_xyz
  1  'x, y, z'
loop_
 _atom_site_type_symbol
 _atom_site_label
 _atom_site_symmetry_multiplicity
 _atom_site_fract_x
 _atom_site_fract_y
 _atom_site_fract_z
 _atom_site_occupancy
  Mn  Mn0  1  0.95962700  0.22244000  0.53452600  1
  Mn  Mn1  1  0.78554500  0.90997000  0.82217200  1
  Mn  Mn2  1  0.01527300  0.43016900  0.31015800  1
  Mn  Mn3  1  0.04400400  0.66071800  0.09406800  1
  Mn  Mn4  1  0.31254600  0.94323100  0.87801700  1
  Mn  Mn5  1  0.04037300  0.77756000  0.46547400  1
  Mn  Mn6  1  0.95599600  0.33928200  0.90593200  1
  Mn  Mn7  1  0.21445500  0.09003000  0.17782800  1
  Mn  Mn8  1  0.68745400  0.05676900  0.12198300  1
  Mn  Mn9  1  0.98472700  0.56983100  0.68984200  1
  H  H0  1  0.38343400  0.04764100  0.78777700  1
  H  H1  1  0.68884400  0.62454600  0.76096500  1
  H  H2  1  0.43449600  0.58235000  0.93617800  1
  H  H3  1  0.67400900  0.25168600  0.34235400  1
  H  H4  1  0.49102500  0.34526000  0.05162200  1
  H  H5  1  0.32599100  0.74831400  0.65764600  1
  H  H6  1  0.04531000  0.83492400  0.97650600  1
  H  H7  1  0.50897500  0.65474000  0.94837800  1
  H  H8  1  0.91735200  0.86957800  0.21604200  1
  H  H9  1  0.08264800  0.13042200  0.78395800  1
  H  H10  1  0.95469000  0.16507600  0.02349400  1
  H  H11  1  0.56550400  0.41765000  0.06382200  1
  H  H12  1  0.31115600  0.37545400  0.23903500  1
  H  H13  1  0.61656600  0.95235900  0.21222300  1
  H  H14  1  0.26840500  0.44311800  0.60176200  1
  H  H15  1  0.73159500  0.55688200  0.39823800  1
  S  S0  1  0.46839600  0.72711300  0.41023400  1
  S  S1  1  0.53160400  0.27288700  0.58976600  1
  O  O0  1  0.56030000  0.89826100  0.91888800  1
  O  O1  1  0.06780200  0.98392700  0.83555100  1
  O  O2  1  0.16739800  0.84820800  0.06012200  1
  O  O3  1  0.20454400  0.76716900  0.68152900  1
  O  O4  1  0.93219800  0.01607300  0.16444900  1
  O  O5  1  0.81939800  0.69864200  0.78590100  1
  O  O6  1  0.93021100  0.77886000  0.24441300  1
  O  O7  1  0.79545600  0.23283100  0.31847100  1
  O  O8  1  0.54405500  0.85250600  0.36267400  1
  O  O9  1  0.87188000  0.56226500  0.44559400  1
  O  O10  1  0.43970000  0.10173900  0.08111200  1
  O  O11  1  0.53088300  0.77654100  0.59210700  1
  O  O12  1  0.76205900  0.32247800  0.64617200  1
  O  O13  1  0.12812000  0.43773500  0.55440600  1
  O  O14  1  0.92305800  0.46546000  0.10048600  1
  O  O15  1  0.45594500  0.14749400  0.63732600  1
  O  O16  1  0.51686000  0.58979600  0.33686000  1
  O  O17  1  0.23794100  0.67752200  0.35382800  1
  O  O18  1  0.07694200  0.53454000  0.89951400  1
  O  O19  1  0.18060200  0.30135800  0.21409900  1
  O  O20  1  0.06978900  0.22114000  0.75558700  1
  O  O21  1  0.48314000  0.41020400  0.66314000  1
  O  O22  1  0.46911700  0.22345900  0.40789300  1
  O  O23  1  0.83260200  0.15179200  0.93987800  1
loop_
_geom_bond_atom_site_label_1
_geom_bond_atom_site_label_2
_geom_bond_distance
_geom_bond_site_symmetry_2
Mn0 O20 1.994803 1_655
Mn0 O7 2.102368 1_555
Mn0 O13 2.120457 1_655
Mn0 O12 2.185197 1_555
Mn1 O1 1.982842 1_655
Mn1 O0 2.026170 1_555
Mn1 O5 2.081132 1_555
Mn1 O23 2.201561 1_565
Mn1 O11 2.249015 1_555
Mn2 O14 2.031802 1_455
Mn2 O19 2.078860 1_555
Mn2 O9 2.129251 1_455
Mn2 O13 2.160299 1_555
Mn2 O7 2.247757 1_455
Mn2 O17 2.455184 1_555
Mn3 O18 1.934521 1_554
Mn3 O14 1.942148 1_455
Mn3 O6 1.975922 1_455
Mn3 O2 1.999413 1_555
Mn3 O17 2.401309 1_555
Mn4 O10 1.885517 1_566
Mn4 O1 1.896977 1_555
Mn4 O3 1.926031 1_555
Mn4 O0 1.937467 1_555
Mn5 O6 1.994803 1_455
Mn5 O3 2.102368 1_555
Mn5 O9 2.120457 1_455
Mn5 O17 2.185197 1_555
Mn6 O14 1.934521 1_556
Mn6 O18 1.942148 1_655
Mn6 O20 1.975922 1_655
Mn6 O23 1.999413 1_555
Mn6 O12 2.401309 1_555
Mn7 O4 1.982842 1_455
Mn7 O10 2.026170 1_555
Mn7 O19 2.081132 1_555
Mn7 O2 2.201561 1_545
Mn7 O22 2.249015 1_555
Mn8 O0 1.885517 1_544
Mn8 O4 1.896977 1_555
Mn8 O7 1.926031 1_555
Mn8 O10 1.937467 1_555
Mn9 O18 2.031802 1_655
Mn9 O5 2.078860 1_555
Mn9 O13 2.129251 1_655
Mn9 O9 2.160299 1_555
Mn9 O3 2.247757 1_655
Mn9 O12 2.455184 1_555
H0 Mn4 1.561637 1_545
H1 O5 0.988012 1_555
H2 H7 0.749834 1_555
H3 O7 1.001105 1_555
H3 O22 1.724097 1_555
H5 O3 1.001105 1_555
H5 O11 1.724097 1_555
H6 O2 0.985696 1_556
H8 O6 1.015418 1_555
H8 O4 1.627983 1_565
H9 O20 1.015418 1_555
H9 O1 1.627983 1_545
H10 O23 0.985696 1_554
H11 H4 0.749834 1_555
H12 O19 0.988012 1_555
H13 Mn8 1.561637 1_565
H14 O13 0.999168 1_555
H14 O21 1.676695 1_555
H15 O9 0.999168 1_555
H15 O16 1.676695 1_555
O8 S0 1.455809 1_555
O11 S0 1.503678 1_555
O12 S1 1.554167 1_555
O15 S1 1.455809 1_555
O16 S0 1.474016 1_555
O17 S0 1.554167 1_555
O21 S1 1.474016 1_555
O22 S1 1.503678 1_555
