# generated using pymatgen
data_Ta4Fe2N
_symmetry_space_group_name_H-M   'P 1'
_cell_length_a   8.21737417
_cell_length_b   8.21737417
_cell_length_c   8.21737417
_cell_angle_alpha   60.00000000
_cell_angle_beta   60.00000000
_cell_angle_gamma   60.00000000
_symmetry_Int_Tables_number   1
_chemical_formula_structural   Ta4Fe2N
_chemical_formula_sum   'Ta16 Fe8 N4'
_cell_volume   392.35951600
_cell_formula_units_Z   4
loop_
 _symmetry_equiv_pos_site_id
 _symmetry_equiv_pos_as_xyz
  1  'x, y, z'
loop_
 _atom_site_type_symbol
 _atom_site_label
 _atom_site_symmetry_multiplicity
 _atom_site_fract_x
 _atom_site_fract_y
 _atom_site_fract_z
 _atom_site_occupancy
  Ta  Ta0  1  0.12500000  0.62500000  0.62500000  1
  Ta  Ta1  1  0.62500000  0.12500000  0.62500000  1
  Ta  Ta2  1  0.62500000  0.62500000  0.12500000  1
  Ta  Ta3  1  0.62500000  0.62500000  0.62500000  1
  Ta  Ta4  1  0.81166200  0.81166200  0.18833800  1
  Ta  Ta5  1  0.18833800  0.18833800  0.81166200  1
  Ta  Ta6  1  0.81166200  0.18833800  0.81166200  1
  Ta  Ta7  1  0.18833800  0.81166200  0.18833800  1
  Ta  Ta8  1  0.18833800  0.81166200  0.81166200  1
  Ta  Ta9  1  0.81166200  0.18833800  0.18833800  1
  Ta  Ta10  1  0.43833800  0.43833800  0.06166200  1
  Ta  Ta11  1  0.06166200  0.06166200  0.43833800  1
  Ta  Ta12  1  0.43833800  0.06166200  0.43833800  1
  Ta  Ta13  1  0.06166200  0.43833800  0.06166200  1
  Ta  Ta14  1  0.06166200  0.43833800  0.43833800  1
  Ta  Ta15  1  0.43833800  0.06166200  0.06166200  1
  Fe  Fe0  1  0.76435700  0.41188100  0.41188100  1
  Fe  Fe1  1  0.41188100  0.76435700  0.41188100  1
  Fe  Fe2  1  0.41188100  0.41188100  0.76435700  1
  Fe  Fe3  1  0.41188100  0.41188100  0.41188100  1
  Fe  Fe4  1  0.48564300  0.83811900  0.83811900  1
  Fe  Fe5  1  0.83811900  0.48564300  0.83811900  1
  Fe  Fe6  1  0.83811900  0.83811900  0.48564300  1
  Fe  Fe7  1  0.83811900  0.83811900  0.83811900  1
  N  N0  1  0.62500000  0.12500000  0.12500000  1
  N  N1  1  0.12500000  0.62500000  0.12500000  1
  N  N2  1  0.12500000  0.12500000  0.62500000  1
  N  N3  1  0.12500000  0.12500000  0.12500000  1
loop_
_geom_bond_atom_site_label_1
_geom_bond_atom_site_label_2
_geom_bond_distance
_geom_bond_site_symmetry_2
Fe0 Ta3 2.549774 1_555
Fe0 Ta1 2.549774 1_555
Fe0 Ta2 2.549774 1_555
Fe0 Ta14 2.678181 1_655
Fe0 Ta13 2.678181 1_655
Fe0 Ta11 2.678181 1_655
Fe1 Ta3 2.549774 1_555
Fe1 Ta0 2.549774 1_555
Fe1 Ta2 2.549774 1_555
Fe1 Ta12 2.678181 1_565
Fe1 Ta11 2.678181 1_565
Fe1 Ta15 2.678181 1_565
Fe2 Ta3 2.549774 1_555
Fe2 Ta0 2.549774 1_555
Fe2 Ta1 2.549774 1_555
Fe2 Ta10 2.678181 1_556
Fe2 Ta15 2.678181 1_556
Fe2 Ta13 2.678181 1_556
Fe3 Ta0 2.549774 1_555
Fe3 Ta1 2.549774 1_555
Fe3 Ta2 2.549774 1_555
Fe3 Ta12 2.678181 1_555
Fe3 Ta10 2.678181 1_555
Fe3 Ta14 2.678181 1_555
Fe4 Ta3 2.549774 1_555
Fe4 Ta2 2.549774 1_556
Fe4 Ta1 2.549774 1_565
Fe4 Ta5 2.678181 1_565
Fe4 Ta7 2.678181 1_556
Fe4 Ta8 2.678181 1_555
Fe5 Ta3 2.549774 1_555
Fe5 Ta2 2.549774 1_556
Fe5 Ta0 2.549774 1_655
Fe5 Ta9 2.678181 1_556
Fe5 Ta5 2.678181 1_655
Fe5 Ta6 2.678181 1_555
Fe6 Ta3 2.549774 1_555
Fe6 Ta1 2.549774 1_565
Fe6 Ta0 2.549774 1_655
Fe6 Ta7 2.678181 1_655
Fe6 Ta9 2.678181 1_565
Fe6 Ta4 2.678181 1_555
Fe7 Ta0 2.549774 1_655
Fe7 Ta2 2.549774 1_556
Fe7 Ta1 2.549774 1_565
Fe7 Ta6 2.678181 1_565
Fe7 Ta8 2.678181 1_655
Fe7 Ta4 2.678181 1_556
N0 Ta9 2.182226 1_555
N0 Ta12 2.182226 1_555
N0 Ta10 2.182226 1_555
N0 Ta4 2.182226 1_545
N0 Ta6 2.182226 1_554
N0 Ta15 2.182226 1_555
N1 Ta7 2.182226 1_555
N1 Ta14 2.182226 1_555
N1 Ta8 2.182226 1_554
N1 Ta4 2.182226 1_455
N1 Ta10 2.182226 1_555
N1 Ta13 2.182226 1_555
N2 Ta5 2.182226 1_555
N2 Ta8 2.182226 1_545
N2 Ta6 2.182226 1_455
N2 Ta12 2.182226 1_555
N2 Ta14 2.182226 1_555
N2 Ta11 2.182226 1_555
N3 Ta11 2.182226 1_555
N3 Ta15 2.182226 1_555
N3 Ta13 2.182226 1_555
N3 Ta9 2.182226 1_455
N3 Ta5 2.182226 1_554
N3 Ta7 2.182226 1_545
