# generated using pymatgen
data_Gd4C2Cl3
_symmetry_space_group_name_H-M   'P 1'
_cell_length_a   3.70697558
_cell_length_b   10.69447744
_cell_length_c   19.94707239
_cell_angle_alpha   90.00000000
_cell_angle_beta   90.00000000
_cell_angle_gamma   90.00000000
_symmetry_Int_Tables_number   1
_chemical_formula_structural   Gd4C2Cl3
_chemical_formula_sum   'Gd16 C8 Cl12'
_cell_volume   790.78506322
_cell_formula_units_Z   4
loop_
 _symmetry_equiv_pos_site_id
 _symmetry_equiv_pos_as_xyz
  1  'x, y, z'
loop_
 _atom_site_type_symbol
 _atom_site_label
 _atom_site_symmetry_multiplicity
 _atom_site_fract_x
 _atom_site_fract_y
 _atom_site_fract_z
 _atom_site_occupancy
  Gd  Gd0  1  0.75000000  0.36068420  0.92765824  1
  Gd  Gd1  1  0.75000000  0.86068420  0.57234176  1
  Gd  Gd2  1  0.25000000  0.63931580  0.07234176  1
  Gd  Gd3  1  0.25000000  0.13931580  0.42765824  1
  Gd  Gd4  1  0.75000000  0.86202873  0.74361151  1
  Gd  Gd5  1  0.75000000  0.36202873  0.75638849  1
  Gd  Gd6  1  0.25000000  0.13797127  0.25638849  1
  Gd  Gd7  1  0.25000000  0.63797127  0.24361151  1
  Gd  Gd8  1  0.75000000  0.39972617  0.16844976  1
  Gd  Gd9  1  0.75000000  0.89972617  0.33155024  1
  Gd  Gd10  1  0.25000000  0.60027383  0.83155024  1
  Gd  Gd11  1  0.25000000  0.10027383  0.66844976  1
  Gd  Gd12  1  0.75000000  0.37623050  0.33666274  1
  Gd  Gd13  1  0.75000000  0.87623050  0.16333726  1
  Gd  Gd14  1  0.25000000  0.62376950  0.66333726  1
  Gd  Gd15  1  0.25000000  0.12376950  0.83666274  1
  C  C0  1  0.75000000  0.63642141  0.15128390  1
  C  C1  1  0.75000000  0.13642141  0.34871610  1
  C  C2  1  0.25000000  0.36357859  0.84871610  1
  C  C3  1  0.25000000  0.86357859  0.65128390  1
  C  C4  1  0.75000000  0.11129964  0.75080791  1
  C  C5  1  0.75000000  0.61129964  0.74919209  1
  C  C6  1  0.25000000  0.88870036  0.24919209  1
  C  C7  1  0.25000000  0.38870036  0.25080791  1
  Cl  Cl0  1  0.75000000  0.12003785  0.54828333  1
  Cl  Cl1  1  0.75000000  0.62003785  0.95171667  1
  Cl  Cl2  1  0.25000000  0.87996215  0.45171667  1
  Cl  Cl3  1  0.25000000  0.37996215  0.04828333  1
  Cl  Cl4  1  0.75000000  0.61240682  0.55337455  1
  Cl  Cl5  1  0.75000000  0.11240682  0.94662545  1
  Cl  Cl6  1  0.25000000  0.38759318  0.44662545  1
  Cl  Cl7  1  0.25000000  0.88759318  0.05337455  1
  Cl  Cl8  1  0.75000000  0.13994716  0.14477294  1
  Cl  Cl9  1  0.75000000  0.63994716  0.35522706  1
  Cl  Cl10  1  0.25000000  0.86005284  0.85522706  1
  Cl  Cl11  1  0.25000000  0.36005284  0.64477294  1
loop_
_geom_bond_atom_site_label_1
_geom_bond_atom_site_label_2
_geom_bond_distance
_geom_bond_site_symmetry_2
C0 Gd2 2.432271 1_555
C0 Gd2 2.432271 1_655
C0 Gd8 2.554385 1_555
C0 Gd13 2.575878 1_555
C0 Gd7 2.612934 1_655
C0 Gd7 2.612934 1_555
C1 Gd3 2.432271 1_655
C1 Gd3 2.432271 1_555
C1 Gd9 2.554385 1_545
C1 Gd12 2.575878 1_555
C1 Gd6 2.612934 1_655
C1 Gd6 2.612934 1_555
C2 Gd0 2.432271 1_455
C2 Gd0 2.432271 1_555
C2 Gd10 2.554385 1_555
C2 Gd15 2.575878 1_555
C2 Gd5 2.612934 1_455
C2 Gd5 2.612934 1_555
C3 Gd1 2.432271 1_555
C3 Gd1 2.432271 1_455
C3 Gd11 2.554385 1_565
C3 Gd14 2.575878 1_555
C3 Gd4 2.612934 1_555
C3 Gd4 2.612934 1_455
C4 Gd11 2.479541 1_655
C4 Gd11 2.479541 1_555
C4 Gd15 2.527061 1_555
C4 Gd15 2.527061 1_655
C4 Gd4 2.669684 1_545
C4 Gd5 2.683726 1_555
C5 Gd10 2.479541 1_555
C5 Gd10 2.479541 1_655
C5 Gd14 2.527061 1_655
C5 Gd14 2.527061 1_555
C5 Gd5 2.669684 1_555
C5 Gd4 2.683726 1_555
C6 Gd9 2.479541 1_455
C6 Gd9 2.479541 1_555
C6 Gd13 2.527061 1_455
C6 Gd13 2.527061 1_555
C6 Gd6 2.669684 1_565
C6 Gd7 2.683726 1_555
C7 Gd8 2.479541 1_555
C7 Gd8 2.479541 1_455
C7 Gd12 2.527061 1_455
C7 Gd12 2.527061 1_555
C7 Gd7 2.669684 1_555
C7 Gd6 2.683726 1_555
Cl0 Gd1 2.814861 1_545
Cl0 Gd11 3.037359 1_555
Cl0 Gd11 3.037359 1_655
Cl0 Gd3 3.044228 1_555
Cl0 Gd3 3.044228 1_655
Cl1 Gd0 2.814861 1_555
Cl1 Gd10 3.037359 1_555
Cl1 Gd10 3.037359 1_655
Cl1 Gd2 3.044228 1_656
Cl1 Gd2 3.044228 1_556
Cl2 Gd3 2.814861 1_565
Cl2 Gd9 3.037359 1_455
Cl2 Gd9 3.037359 1_555
Cl2 Gd1 3.044228 1_455
Cl2 Gd1 3.044228 1_555
Cl3 Gd2 2.814861 1_555
Cl3 Gd8 3.037359 1_555
Cl3 Gd8 3.037359 1_455
Cl3 Gd0 3.044228 1_554
Cl3 Gd0 3.044228 1_454
Cl4 Gd1 2.682016 1_555
Cl4 Gd14 2.874254 1_655
Cl4 Gd14 2.874254 1_555
Cl5 Gd0 2.682016 1_555
Cl5 Gd15 2.874254 1_655
Cl5 Gd15 2.874254 1_555
Cl6 Gd3 2.682016 1_555
Cl6 Gd12 2.874254 1_455
Cl6 Gd12 2.874254 1_555
Cl7 Gd2 2.682016 1_555
Cl7 Gd13 2.874254 1_455
Cl7 Gd13 2.874254 1_555
Cl8 Gd8 2.818058 1_555
Cl8 Gd13 2.844518 1_545
Cl8 Gd6 2.897022 1_555
Cl8 Gd6 2.897022 1_655
Cl9 Gd9 2.818058 1_555
Cl9 Gd12 2.844518 1_555
Cl9 Gd7 2.897022 1_555
Cl9 Gd7 2.897022 1_655
Cl10 Gd10 2.818058 1_555
Cl10 Gd15 2.844518 1_565
Cl10 Gd4 2.897022 1_555
Cl10 Gd4 2.897022 1_455
Cl11 Gd11 2.818058 1_555
Cl11 Gd14 2.844518 1_555
Cl11 Gd5 2.897022 1_555
Cl11 Gd5 2.897022 1_455
