# generated using pymatgen
data_Al4(CoO4)3
_symmetry_space_group_name_H-M   'P 1'
_cell_length_a   5.75123722
_cell_length_b   5.75123722
_cell_length_c   13.90918689
_cell_angle_alpha   89.70135018
_cell_angle_beta   89.70135018
_cell_angle_gamma   59.98089101
_symmetry_Int_Tables_number   1
_chemical_formula_structural   Al4(CoO4)3
_chemical_formula_sum   'Al8 Co6 O24'
_cell_volume   398.34870939
_cell_formula_units_Z   2
loop_
 _symmetry_equiv_pos_site_id
 _symmetry_equiv_pos_as_xyz
  1  'x, y, z'
loop_
 _atom_site_type_symbol
 _atom_site_label
 _atom_site_symmetry_multiplicity
 _atom_site_fract_x
 _atom_site_fract_y
 _atom_site_fract_z
 _atom_site_occupancy
  Al  Al0  1  0.83289300  0.33575200  0.79139300  1
  Al  Al1  1  0.83320300  0.83320300  0.79273200  1
  Al  Al2  1  0.33575200  0.83289300  0.79139300  1
  Al  Al3  1  0.16172600  0.66914100  0.46163400  1
  Al  Al4  1  0.66914100  0.16172600  0.46163400  1
  Al  Al5  1  0.50444700  0.00015100  0.12353700  1
  Al  Al6  1  0.33416900  0.33416900  0.29157800  1
  Al  Al7  1  0.00015100  0.50444700  0.12353700  1
  Co  Co0  1  0.00889000  0.00889000  0.99973200  1
  Co  Co1  1  0.33584300  0.33584300  0.67348000  1
  Co  Co2  1  0.66468300  0.66468300  0.95343100  1
  Co  Co3  1  0.66567300  0.66567300  0.57638500  1
  Co  Co4  1  0.67120100  0.67120100  0.33234800  1
  Co  Co5  1  0.99810000  0.99810000  0.25381400  1
  O  O0  1  0.95139300  0.52430800  0.86846100  1
  O  O1  1  0.66829800  0.66829800  0.71173900  1
  O  O2  1  0.52256900  0.52256900  0.86785900  1
  O  O3  1  0.52430800  0.95139300  0.86846100  1
  O  O4  1  0.16258300  0.67383800  0.72159400  1
  O  O5  1  0.34600700  0.80987900  0.53629700  1
  O  O6  1  0.16539300  0.16539300  0.72042500  1
  O  O7  1  0.99146500  0.99146500  0.38704700  1
  O  O8  1  0.83947000  0.83947000  0.53234800  1
  O  O9  1  0.00019700  0.00019700  0.86035500  1
  O  O10  1  0.80987900  0.34600700  0.53629700  1
  O  O11  1  0.67383800  0.16258300  0.72159400  1
  O  O12  1  0.64528100  0.15718500  0.21145900  1
  O  O13  1  0.51016700  0.02446900  0.37238900  1
  O  O14  1  0.48293900  0.48293900  0.37871800  1
  O  O15  1  0.32231000  0.32231000  0.05595700  1
  O  O16  1  0.34907600  0.34907600  0.53986800  1
  O  O17  1  0.18060300  0.18060300  0.20751000  1
  O  O18  1  0.15718500  0.64528100  0.21145900  1
  O  O19  1  0.02446900  0.51016700  0.37238900  1
  O  O20  1  0.84953700  0.36118600  0.03722400  1
  O  O21  1  0.82215000  0.82215000  0.04599000  1
  O  O22  1  0.68070700  0.68070700  0.20113700  1
  O  O23  1  0.36118600  0.84953700  0.03722400  1
loop_
_geom_bond_atom_site_label_1
_geom_bond_atom_site_label_2
_geom_bond_distance
_geom_bond_site_symmetry_2
Al0 O2 1.882646 1_555
Al0 O0 1.883817 1_555
Al0 O11 1.924093 1_555
Al0 O9 1.924212 1_655
Al0 O6 1.925329 1_655
Al0 O1 1.989666 1_555
Al1 O3 1.872774 1_555
Al1 O0 1.872774 1_555
Al1 O4 1.913192 1_655
Al1 O11 1.913192 1_565
Al1 O9 1.916062 1_665
Al1 O1 1.997582 1_555
Al2 O2 1.882646 1_555
Al2 O3 1.883817 1_555
Al2 O4 1.924093 1_555
Al2 O9 1.924212 1_565
Al2 O6 1.925329 1_565
Al2 O1 1.989666 1_555
Al3 O8 1.880545 1_455
Al3 O7 1.909410 1_455
Al3 O5 1.932744 1_555
Al3 O16 1.933991 1_555
Al3 O19 1.934989 1_555
Al3 O14 1.975061 1_555
Al4 O8 1.880545 1_545
Al4 O7 1.909410 1_545
Al4 O10 1.932744 1_555
Al4 O16 1.933991 1_555
Al4 O13 1.934989 1_555
Al4 O14 1.975061 1_555
Al5 O15 1.861158 1_555
Al5 O23 1.898884 1_545
Al5 O21 1.915563 1_545
Al5 O22 1.922285 1_545
Al5 O12 1.928998 1_555
Al5 O17 1.991508 1_555
Al6 O13 1.909855 1_555
Al6 O19 1.909855 1_555
Al6 O18 1.910021 1_555
Al6 O12 1.910021 1_555
Al6 O14 1.920238 1_555
Al6 O17 1.931161 1_555
Al7 O15 1.861158 1_555
Al7 O20 1.898884 1_455
Al7 O21 1.915563 1_455
Al7 O22 1.922285 1_455
Al7 O18 1.928998 1_555
Al7 O17 1.991508 1_555
Co0 O20 1.834437 1_456
Co0 O23 1.834437 1_546
Co0 O9 1.941075 1_555
Co0 O21 1.964835 1_446
Co1 O11 1.813280 1_555
Co1 O4 1.813280 1_555
Co1 O6 1.815635 1_555
Co1 O16 1.862313 1_555
Co2 O3 1.850730 1_555
Co2 O0 1.850730 1_555
Co2 O2 1.855108 1_555
Co2 O23 1.915802 1_556
Co2 O20 1.915802 1_556
Co2 O21 2.035370 1_556
Co3 O5 1.690847 1_555
Co3 O10 1.690847 1_555
Co3 O8 1.833106 1_555
Co3 O1 1.883003 1_555
Co4 O22 1.826924 1_555
Co4 O13 1.849189 1_565
Co4 O19 1.849189 1_655
Co4 O14 1.979666 1_555
Co5 O7 1.853944 1_555
Co5 O12 1.857643 1_565
Co5 O18 1.857643 1_655
Co5 O17 1.925211 1_665
