# generated using pymatgen
data_GaAs
_symmetry_space_group_name_H-M   'P 1'
_cell_length_a   12.96300988
_cell_length_b   12.84217365
_cell_length_c   14.57984225
_cell_angle_alpha   94.31759967
_cell_angle_beta   92.61643445
_cell_angle_gamma   85.34912946
_symmetry_Int_Tables_number   1
_chemical_formula_structural   GaAs
_chemical_formula_sum   'Ga50 As50'
_cell_volume   2410.38570339
_cell_formula_units_Z   50
loop_
 _symmetry_equiv_pos_site_id
 _symmetry_equiv_pos_as_xyz
  1  'x, y, z'
loop_
 _atom_site_type_symbol
 _atom_site_label
 _atom_site_symmetry_multiplicity
 _atom_site_fract_x
 _atom_site_fract_y
 _atom_site_fract_z
 _atom_site_occupancy
  Ga  Ga0  1  0.95159311  0.59193813  0.22355504  1
  Ga  Ga1  1  0.81973720  0.77788586  0.65820371  1
  Ga  Ga2  1  0.50757822  0.08040183  0.52894399  1
  Ga  Ga3  1  0.23210132  0.92453801  0.94770285  1
  Ga  Ga4  1  0.27318500  0.72025525  0.88851157  1
  Ga  Ga5  1  0.72824496  0.42855610  0.30740558  1
  Ga  Ga6  1  0.89491313  0.30527283  0.53535134  1
  Ga  Ga7  1  0.63840925  0.59137842  0.09531751  1
  Ga  Ga8  1  0.36114656  0.16865329  0.62931073  1
  Ga  Ga9  1  0.74289653  0.41801849  0.73751732  1
  Ga  Ga10  1  0.82954232  0.06459252  0.52349459  1
  Ga  Ga11  1  0.85705192  0.76428481  0.17867374  1
  Ga  Ga12  1  0.66931657  0.17772559  0.62142471  1
  Ga  Ga13  1  0.06608869  0.91874778  0.44273484  1
  Ga  Ga14  1  0.62449060  0.50327600  0.61098282  1
  Ga  Ga15  1  0.30594454  0.65939714  0.35993794  1
  Ga  Ga16  1  0.53601300  0.43700563  0.25772173  1
  Ga  Ga17  1  0.52950908  0.75375071  0.51345887  1
  Ga  Ga18  1  0.94019956  0.56155981  0.62718668  1
  Ga  Ga19  1  0.82236569  0.14285356  0.36040956  1
  Ga  Ga20  1  0.35502561  0.48993449  0.80292420  1
  Ga  Ga21  1  0.01269785  0.96231779  0.24334229  1
  Ga  Ga22  1  0.13024825  0.70943586  0.45297612  1
  Ga  Ga23  1  0.26726764  0.58102109  0.18822156  1
  Ga  Ga24  1  0.04790234  0.32095257  0.01295239  1
  Ga  Ga25  1  0.63064235  0.38975913  0.06188835  1
  Ga  Ga26  1  0.38550149  0.85245839  0.80891200  1
  Ga  Ga27  1  0.67828527  0.96684997  0.62682676  1
  Ga  Ga28  1  0.36028064  0.85079491  0.34977079  1
  Ga  Ga29  1  0.66443412  0.87479862  0.46610712  1
  Ga  Ga30  1  0.57715051  0.81164193  0.90694258  1
  Ga  Ga31  1  0.56961432  0.25470125  0.76254372  1
  Ga  Ga32  1  0.83774640  0.67719349  0.39644042  1
  Ga  Ga33  1  0.54076149  0.69829837  0.33467527  1
  Ga  Ga34  1  0.85936638  0.46289562  0.44438608  1
  Ga  Ga35  1  0.24934218  0.58161066  0.00914340  1
  Ga  Ga36  1  0.47850704  0.64595671  0.84123965  1
  Ga  Ga37  1  0.73384197  0.73970971  0.02216305  1
  Ga  Ga38  1  0.12331237  0.36998692  0.34908470  1
  Ga  Ga39  1  0.13658947  0.48288224  0.58890523  1
  Ga  Ga40  1  0.16622068  0.19063067  0.63372434  1
  Ga  Ga41  1  0.16713532  0.31873524  0.88148767  1
  Ga  Ga42  1  0.30029574  0.87520420  0.64325124  1
  Ga  Ga43  1  0.17380683  0.20706665  0.10808143  1
  Ga  Ga44  1  0.88684940  0.08698899  0.71075538  1
  Ga  Ga45  1  0.93541084  0.43812128  0.86833313  1
  Ga  Ga46  1  0.79519802  0.00333010  0.84099895  1
  Ga  Ga47  1  0.89911787  0.21387621  0.01662630  1
  Ga  Ga48  1  0.43178543  0.22534748  0.42603060  1
  Ga  Ga49  1  0.66452306  0.85194045  0.19729750  1
  As  As0  1  0.81734949  0.60752165  0.76255486  1
  As  As1  1  0.39944677  0.92246267  0.51188526  1
  As  As2  1  0.33281202  0.66890703  0.60939576  1
  As  As3  1  0.89882402  0.04300778  0.10195833  1
  As  As4  1  0.83529255  0.93619990  0.29739520  1
  As  As5  1  0.30685710  0.08977808  0.01775104  1
  As  As6  1  0.46461065  0.60047583  0.18769078  1
  As  As7  1  0.13117459  0.79278548  0.22007942  1
  As  As8  1  0.99347739  0.23233505  0.39011287  1
  As  As9  1  0.54829128  0.90590364  0.32623964  1
  As  As10  1  0.88091230  0.69811316  0.90568571  1
  As  As11  1  0.27115604  0.91143779  0.19936025  1
  As  As12  1  0.51690968  0.66854326  0.66708512  1
  As  As13  1  0.32339174  0.40591898  0.94276344  1
  As  As14  1  0.61732971  0.94929797  0.78599312  1
  As  As15  1  0.16159314  0.07831991  0.23831421  1
  As  As16  1  0.73458442  0.17590067  0.93494307  1
  As  As17  1  0.90661746  0.28666791  0.70546676  1
  As  As18  1  0.57795895  0.12035778  0.18454449  1
  As  As19  1  0.22762104  0.37853798  0.20583486  1
  As  As20  1  0.15338960  0.11260462  0.41081082  1
  As  As21  1  0.01956383  0.55005230  0.38206706  1
  As  As22  1  0.05346762  0.73219202  0.61334344  1
  As  As23  1  0.86402559  0.86189746  0.44940136  1
  As  As24  1  0.71258120  0.26056698  0.47567222  1
  As  As25  1  0.32167219  0.52119442  0.48689893  1
  As  As26  1  0.02029195  0.78101098  0.07694722  1
  As  As27  1  0.79494281  0.33688692  0.15336246  1
  As  As28  1  0.67611678  0.35240615  0.88357576  1
  As  As29  1  0.08556957  0.35326478  0.72083029  1
  As  As30  1  0.52290824  0.10909474  0.85839104  1
  As  As31  1  0.75681133  0.61699154  0.53761373  1
  As  As32  1  0.40361664  0.30853708  0.25759644  1
  As  As33  1  0.48022841  0.40075190  0.52877549  1
  As  As34  1  0.36010445  0.05412378  0.77427987  1
  As  As35  1  0.94266798  0.48615605  0.07133853  1
  As  As36  1  0.04288695  0.04128133  0.60130645  1
  As  As37  1  0.48446659  0.26245250  0.10011293  1
  As  As38  1  0.71772283  0.62320253  0.26606631  1
  As  As39  1  0.76213441  0.16251089  0.19651727  1
  As  As40  1  0.04038571  0.92590120  0.97737289  1
  As  As41  1  0.04287761  0.60282555  0.98300572  1
  As  As42  1  0.21963632  0.61931512  0.73108355  1
  As  As43  1  0.21030840  0.11770976  0.86839472  1
  As  As44  1  0.94583381  0.85268250  0.83427601  1
  As  As45  1  0.76844851  0.94226134  0.00716693  1
  As  As46  1  0.23817750  0.27756120  0.47082014  1
  As  As47  1  0.41962428  0.35226647  0.68089000  1
  As  As48  1  0.11636001  0.89689650  0.69769556  1
  As  As49  1  0.59351441  0.96338013  0.06669137  1
loop_
_geom_bond_atom_site_label_1
_geom_bond_atom_site_label_2
_geom_bond_distance
_geom_bond_site_symmetry_2
Ga0 Ga11 2.556136 1_555
Ga2 Ga48 2.582815 1_555
Ga2 Ga8 2.585335 1_555
Ga3 Ga4 2.717591 1_555
Ga10 Ga19 2.645174 1_555
Ga10 Ga44 2.796425 1_555
Ga10 Ga12 2.816466 1_555
Ga10 Ga27 2.939971 1_545
Ga11 Ga49 2.670194 1_555
Ga11 Ga37 2.738283 1_555
Ga12 Ga31 2.571037 1_555
Ga13 Ga22 2.761525 1_555
Ga13 Ga21 3.040035 1_555
Ga14 Ga9 2.594467 1_555
Ga15 Ga28 2.627705 1_555
Ga15 Ga23 2.668382 1_555
Ga15 Ga22 2.711771 1_555
Ga16 Ga5 2.559155 1_555
Ga17 Ga29 2.581672 1_555
Ga17 Ga33 2.657316 1_555
Ga18 Ga39 2.727857 1_655
Ga18 Ga34 3.042794 1_555
Ga23 Ga35 2.611190 1_555
Ga24 Ga47 2.462565 1_455
Ga24 Ga41 2.513711 1_554
Ga24 Ga43 2.537346 1_555
Ga24 Ga45 2.945777 1_454
Ga25 Ga7 2.607600 1_555
Ga26 Ga42 2.636163 1_555
Ga26 Ga4 2.683457 1_555
Ga26 Ga30 2.840246 1_555
Ga26 Ga36 2.885527 1_555
Ga26 Ga3 2.948335 1_555
Ga27 Ga29 2.549414 1_555
Ga30 Ga36 2.665072 1_555
Ga30 Ga37 2.723782 1_556
Ga32 Ga34 2.878834 1_555
Ga34 Ga6 2.503183 1_555
Ga34 Ga5 2.598306 1_555
Ga35 Ga4 2.639970 1_554
Ga37 Ga7 2.665552 1_555
Ga40 Ga8 2.522916 1_555
Ga44 Ga46 2.625238 1_555
Ga45 Ga9 3.086741 1_555
As0 As10 2.453600 1_555
As0 Ga18 2.595934 1_555
As0 Ga9 2.683706 1_555
As0 Ga1 2.760224 1_555
As0 Ga45 3.033664 1_555
As1 Ga42 2.492979 1_555
As1 Ga28 2.515977 1_555
As1 Ga2 2.548302 1_565
As1 Ga17 2.636088 1_555
As2 As42 2.503002 1_555
As2 As25 2.513916 1_555
As2 Ga42 2.661039 1_555
As3 As45 2.512446 1_545
As3 Ga47 2.603030 1_555
As3 As39 2.618981 1_555
As3 Ga21 2.701433 1_645
As3 As40 2.893802 1_644
As4 Ga21 2.520433 1_655
As4 Ga11 2.705202 1_555
As4 Ga19 2.736799 1_565
As4 Ga49 2.838465 1_555
As5 Ga3 2.530213 1_544
As5 Ga43 2.542708 1_555
As6 Ga16 2.495537 1_555
As6 Ga23 2.590831 1_555
As6 Ga33 2.597639 1_555
As6 Ga7 2.667195 1_555
As7 Ga21 2.570590 1_555
As7 Ga23 3.135348 1_555
As8 Ga19 2.584348 1_555
As8 Ga6 2.597726 1_555
As8 Ga38 2.655004 1_655
As9 Ga49 2.485516 1_555
As9 Ga29 2.515873 1_555
As9 Ga28 2.636483 1_555
As9 Ga33 2.688016 1_555
As10 As44 2.528748 1_555
As10 As41 2.598344 1_655
As10 Ga37 2.607259 1_556
As11 As7 2.504701 1_555
As11 As15 2.515846 1_565
As11 Ga28 2.574935 1_555
As12 As2 2.493629 1_555
As12 Ga14 2.545820 1_555
As12 Ga17 2.583097 1_555
As12 Ga36 2.651213 1_555
As13 Ga20 2.443035 1_555
As13 Ga41 2.491291 1_555
As13 Ga35 2.520635 1_556
As14 As30 2.491600 1_565
As14 Ga27 2.517044 1_555
As14 Ga46 2.539248 1_565
As14 Ga30 2.684888 1_555
As15 As20 2.525936 1_555
As15 Ga21 2.538837 1_545
As15 Ga43 2.628060 1_555
As16 Ga47 2.460593 1_556
As16 As28 2.489680 1_555
As16 Ga46 2.600713 1_555
As17 Ga6 2.506146 1_555
As17 As29 2.531472 1_655
As17 Ga44 2.604888 1_555
As17 Ga9 2.638044 1_555
As17 Ga45 2.983667 1_555
As18 As37 2.481422 1_555
As18 As39 2.486128 1_555
As18 As49 2.549762 1_545
As19 As32 2.488970 1_555
As19 Ga38 2.553216 1_555
As19 Ga43 2.655709 1_555
As19 Ga23 2.724165 1_555
As20 As8 2.499648 1_455
As20 As46 2.543986 1_555
As20 Ga13 2.893894 1_545
As21 Ga0 2.516185 1_455
As21 Ga38 2.602805 1_555
As21 Ga34 2.663290 1_455
As21 Ga22 2.709098 1_555
As21 Ga32 2.763031 1_455
As22 As48 2.539198 1_555
As22 Ga22 2.570080 1_555
As22 Ga18 2.759310 1_455
As23 As4 2.479175 1_555
As23 Ga32 2.483931 1_555
As23 Ga29 2.600552 1_555
As23 Ga10 2.752204 1_565
As23 Ga13 2.783431 1_655
As24 Ga12 2.551108 1_555
As24 Ga19 2.573251 1_555
As24 Ga6 2.574928 1_555
As24 Ga10 2.944110 1_555
As25 As33 2.549861 1_555
As25 Ga15 2.649446 1_555
As25 Ga39 2.972815 1_555
As26 As40 2.481450 1_554
As26 As7 2.481472 1_555
As26 As41 2.579532 1_554
As26 Ga11 2.670565 1_455
As27 As39 2.445926 1_555
As27 Ga25 2.533456 1_555
As27 Ga5 2.606092 1_555
As27 Ga47 2.778350 1_555
As28 Ga31 2.513849 1_555
As28 Ga9 2.559480 1_555
As28 Ga25 2.691224 1_556
As29 Ga40 2.536886 1_555
As29 Ga41 2.579823 1_555
As29 Ga39 2.772112 1_555
As29 Ga45 3.047410 1_455
As30 As34 2.516169 1_555
As30 Ga31 2.543667 1_555
As31 Ga32 2.550156 1_555
As31 Ga34 2.619998 1_555
As31 Ga14 2.651044 1_555
As31 Ga18 2.728692 1_555
As31 Ga1 2.760670 1_555
As32 Ga16 2.475049 1_555
As32 As37 2.575888 1_555
As32 Ga48 2.748681 1_555
As33 As47 2.523862 1_555
As33 Ga14 2.573771 1_555
As33 Ga48 2.710697 1_555
As34 As43 2.477441 1_555
As34 Ga8 2.665481 1_555
As34 Ga26 2.667203 1_545
As34 Ga42 3.003809 1_545
As35 Ga0 2.516385 1_555
As35 As41 2.519894 1_654
As35 Ga24 2.539957 1_655
As35 Ga45 2.976373 1_554
As36 As48 2.510772 1_545
As36 Ga40 2.598053 1_555
As36 Ga44 2.635044 1_455
As36 Ga13 2.711222 1_545
As36 Ga10 2.942036 1_455
As37 Ga25 2.703705 1_555
As38 Ga32 2.494219 1_555
As38 Ga5 2.606596 1_555
As38 Ga33 2.626475 1_555
As38 Ga7 2.665132 1_555
As38 Ga11 3.042466 1_555
As39 Ga19 2.504335 1_555
As40 As44 2.529278 1_455
As40 Ga3 2.540407 1_555
As41 Ga35 2.680829 1_556
As41 Ga45 2.990421 1_455
As42 Ga20 2.561113 1_555
As42 Ga4 2.642531 1_555
As42 Ga39 2.842729 1_555
As43 As5 2.496590 1_556
As43 Ga41 2.591444 1_555
As43 Ga3 2.803457 1_545
As44 Ga46 2.634720 1_565
As44 Ga1 3.112044 1_555
As45 As49 2.452258 1_555
As45 Ga46 2.647956 1_564
As45 Ga37 2.701691 1_555
As46 Ga38 2.562319 1_555
As46 Ga48 2.643039 1_555
As46 Ga40 2.920263 1_555
As46 Ga8 3.102506 1_555
As47 Ga31 2.527006 1_555
As47 Ga20 2.532765 1_555
As47 Ga8 2.582851 1_555
As48 Ga42 2.534693 1_555
As49 Ga49 2.560885 1_555
As49 Ga30 2.933519 1_554
