# generated using pymatgen
data_HgAs2HF13
_symmetry_space_group_name_H-M   'P 1'
_cell_length_a   9.73154100
_cell_length_b   9.77517200
_cell_length_c   10.92901079
_cell_angle_alpha   90.00000000
_cell_angle_beta   103.03226053
_cell_angle_gamma   90.00000000
_symmetry_Int_Tables_number   1
_chemical_formula_structural   HgAs2HF13
_chemical_formula_sum   'Hg4 As8 H4 F52'
_cell_volume   1012.87134581
_cell_formula_units_Z   4
loop_
 _symmetry_equiv_pos_site_id
 _symmetry_equiv_pos_as_xyz
  1  'x, y, z'
loop_
 _atom_site_type_symbol
 _atom_site_label
 _atom_site_symmetry_multiplicity
 _atom_site_fract_x
 _atom_site_fract_y
 _atom_site_fract_z
 _atom_site_occupancy
  Hg  Hg0  1  0.25120500  0.83264900  0.51492000  1
  Hg  Hg1  1  0.74879500  0.33264900  0.98508000  1
  Hg  Hg2  1  0.74879500  0.16735100  0.48508000  1
  Hg  Hg3  1  0.25120500  0.66735100  0.01492000  1
  As  As0  1  0.50957500  0.83501700  0.32261300  1
  As  As1  1  0.49042500  0.33501700  0.17738700  1
  As  As2  1  0.49042500  0.16498300  0.67738700  1
  As  As3  1  0.50957500  0.66498300  0.82261300  1
  As  As4  1  0.00430100  0.13994100  0.30324800  1
  As  As5  1  0.99569900  0.63994100  0.19675200  1
  As  As6  1  0.99569900  0.86005900  0.69675200  1
  As  As7  1  0.00430100  0.36005900  0.80324800  1
  H  H0  1  0.20472300  0.52449700  0.57571700  1
  H  H1  1  0.79527700  0.02449700  0.92428300  1
  H  H2  1  0.79527700  0.47550300  0.42428300  1
  H  H3  1  0.20472300  0.97550300  0.07571700  1
  F  F0  1  0.24866900  0.57322500  0.52009000  1
  F  F1  1  0.75133100  0.07322500  0.97991000  1
  F  F2  1  0.75133100  0.42677500  0.47991000  1
  F  F3  1  0.24866900  0.92677500  0.02009000  1
  F  F4  1  0.40053700  0.71193600  0.22264800  1
  F  F5  1  0.59946300  0.21193600  0.27735200  1
  F  F6  1  0.59946300  0.28806400  0.77735200  1
  F  F7  1  0.40053700  0.78806400  0.72264800  1
  F  F8  1  0.61109200  0.95354100  0.43232900  1
  F  F9  1  0.38890800  0.45354100  0.06767100  1
  F  F10  1  0.38890800  0.04645900  0.56767100  1
  F  F11  1  0.61109200  0.54645900  0.93232900  1
  F  F12  1  0.35959700  0.94255000  0.30660200  1
  F  F13  1  0.64040300  0.44255000  0.19339800  1
  F  F14  1  0.64040300  0.05745000  0.69339800  1
  F  F15  1  0.35959700  0.55745000  0.80660200  1
  F  F16  1  0.44910300  0.75812400  0.45547900  1
  F  F17  1  0.55089700  0.25812400  0.04452100  1
  F  F18  1  0.55089700  0.24187600  0.54452100  1
  F  F19  1  0.44910300  0.74187600  0.95547900  1
  F  F20  1  0.64683100  0.71752000  0.35486900  1
  F  F21  1  0.35316900  0.21752000  0.14513100  1
  F  F22  1  0.35316900  0.28248000  0.64513100  1
  F  F23  1  0.64683100  0.78248000  0.85486900  1
  F  F24  1  0.56150400  0.90936100  0.19676000  1
  F  F25  1  0.43849600  0.40936100  0.30324000  1
  F  F26  1  0.43849600  0.09063900  0.80324000  1
  F  F27  1  0.56150400  0.59063900  0.69676000  1
  F  F28  1  0.10742000  0.02923500  0.41920100  1
  F  F29  1  0.89258000  0.52923500  0.08079900  1
  F  F30  1  0.89258000  0.97076500  0.58079900  1
  F  F31  1  0.10742000  0.47076500  0.91920100  1
  F  F32  1  0.89398000  0.25368500  0.19592600  1
  F  F33  1  0.10602000  0.75368500  0.30407400  1
  F  F34  1  0.10602000  0.74631500  0.80407400  1
  F  F35  1  0.89398000  0.24631500  0.69592600  1
  F  F36  1  0.85332700  0.03954200  0.30698200  1
  F  F37  1  0.14667300  0.53954200  0.19301800  1
  F  F38  1  0.14667300  0.96045800  0.69301800  1
  F  F39  1  0.85332700  0.46045800  0.80698200  1
  F  F40  1  0.95662300  0.23662300  0.43274100  1
  F  F41  1  0.04337700  0.73662300  0.06725900  1
  F  F42  1  0.04337700  0.76337700  0.56725900  1
  F  F43  1  0.95662300  0.26337700  0.93274100  1
  F  F44  1  0.14637000  0.24938300  0.31543300  1
  F  F45  1  0.85363000  0.74938300  0.18456700  1
  F  F46  1  0.85363000  0.75061700  0.68456700  1
  F  F47  1  0.14637000  0.25061700  0.81543300  1
  F  F48  1  0.04387300  0.04395700  0.18022900  1
  F  F49  1  0.95612700  0.54395700  0.31977100  1
  F  F50  1  0.95612700  0.95604300  0.81977100  1
  F  F51  1  0.04387300  0.45604300  0.68022900  1
loop_
_geom_bond_atom_site_label_1
_geom_bond_atom_site_label_2
_geom_bond_distance
_geom_bond_site_symmetry_2
As0 F24 1.728829 1_555
As0 F20 1.736437 1_555
As0 F12 1.774979 1_555
As0 F8 1.794958 1_555
As0 F4 1.801181 1_555
As0 F16 1.845333 1_555
As1 F25 1.728829 1_555
As1 F21 1.736437 1_555
As1 F13 1.774979 1_555
As1 F9 1.794958 1_555
As1 F5 1.801181 1_555
As1 F17 1.845333 1_555
As2 F26 1.728829 1_555
As2 F22 1.736437 1_555
As2 F14 1.774979 1_555
As2 F10 1.794958 1_555
As2 F6 1.801181 1_555
As2 F18 1.845333 1_555
As3 F27 1.728829 1_555
As3 F23 1.736437 1_555
As3 F15 1.774979 1_555
As3 F11 1.794958 1_555
As3 F7 1.801181 1_555
As3 F19 1.845333 1_555
As4 F44 1.729349 1_555
As4 F48 1.752071 1_555
As4 F36 1.774954 1_455
As4 F32 1.787927 1_455
As4 F28 1.791790 1_555
As4 F40 1.845936 1_455
As5 F45 1.729349 1_555
As5 F49 1.752071 1_555
As5 F37 1.774954 1_655
As5 F33 1.787927 1_655
As5 F29 1.791790 1_555
As5 F41 1.845936 1_655
As6 F46 1.729349 1_555
As6 F50 1.752071 1_555
As6 F38 1.774954 1_655
As6 F34 1.787927 1_655
As6 F30 1.791790 1_555
As6 F42 1.845936 1_655
As7 F47 1.729349 1_555
As7 F51 1.752071 1_555
As7 F39 1.774954 1_455
As7 F35 1.787927 1_455
As7 F31 1.791790 1_555
As7 F43 1.845936 1_455
F0 H0 0.946910 1_555
F0 Hg0 2.536788 1_555
F1 H1 0.946910 1_555
F1 Hg1 2.536788 1_555
F2 H2 0.946910 1_555
F2 Hg2 2.536788 1_555
F3 H3 0.946910 1_555
F3 Hg3 2.536788 1_555
F4 Hg3 2.442942 1_555
F5 Hg2 2.442942 1_555
F6 Hg1 2.442942 1_555
F7 Hg0 2.442942 1_555
F8 Hg2 2.479503 1_565
F9 Hg3 2.479503 1_555
F10 Hg0 2.479503 1_545
F11 Hg1 2.479503 1_555
F16 Hg0 2.286017 1_555
F17 Hg1 2.286017 1_554
F18 Hg2 2.286017 1_555
F19 Hg3 2.286017 1_556
F28 Hg0 2.466754 1_545
F29 Hg1 2.466754 1_554
F30 Hg2 2.466754 1_565
F31 Hg3 2.466754 1_556
F32 Hg1 2.536466 1_554
F33 Hg0 2.536466 1_555
F34 Hg3 2.536466 1_556
F35 Hg2 2.536466 1_555
F40 Hg2 2.323346 1_555
F41 Hg3 2.323346 1_555
F42 Hg0 2.323346 1_555
F43 Hg1 2.323346 1_555
