# generated using pymatgen
data_SrYb
_symmetry_space_group_name_H-M   'P 1'
_cell_length_a   7.54201943
_cell_length_b   7.54201943
_cell_length_c   12.74784392
_cell_angle_alpha   90.00000000
_cell_angle_beta   90.00000000
_cell_angle_gamma   120.00000929
_symmetry_Int_Tables_number   1
_chemical_formula_structural   SrYb
_chemical_formula_sum   'Sr8 Yb8'
_cell_volume   627.97538724
_cell_formula_units_Z   8
loop_
 _symmetry_equiv_pos_site_id
 _symmetry_equiv_pos_as_xyz
  1  'x, y, z'
loop_
 _atom_site_type_symbol
 _atom_site_label
 _atom_site_symmetry_multiplicity
 _atom_site_fract_x
 _atom_site_fract_y
 _atom_site_fract_z
 _atom_site_occupancy
  Sr  Sr0_0  1  0.16666650  0.33333350  0.25000000  1
  Sr  Sr0_1  1  0.16666650  0.33333350  0.75000000  1
  Sr  Sr0_2  1  0.16666650  0.83333350  0.25000000  1
  Sr  Sr0_3  1  0.16666650  0.83333350  0.75000000  1
  Sr  Sr0_4  1  0.66666650  0.33333350  0.25000000  1
  Sr  Sr0_5  1  0.66666650  0.33333350  0.75000000  1
  Sr  Sr0_6  1  0.66666650  0.83333350  0.25000000  1
  Sr  Sr0_7  1  0.66666650  0.83333350  0.75000000  1
  Yb  Yb0_0  1  0.00000000  0.00000000  0.00000000  1
  Yb  Yb0_1  1  0.00000000  0.00000000  0.50000000  1
  Yb  Yb0_2  1  0.00000000  0.50000000  0.00000000  1
  Yb  Yb0_3  1  0.00000000  0.50000000  0.50000000  1
  Yb  Yb0_4  1  0.50000000  0.00000000  0.00000000  1
  Yb  Yb0_5  1  0.50000000  0.00000000  0.50000000  1
  Yb  Yb0_6  1  0.50000000  0.50000000  0.00000000  1
  Yb  Yb0_7  1  0.50000000  0.50000000  0.50000000  1
loop_
_geom_bond_atom_site_label_1
_geom_bond_atom_site_label_2
_geom_bond_distance
_geom_bond_site_symmetry_2
Sr0_0 Sr0_6 3.771009 1_555
Sr0_0 Sr0_6 3.771009 1_445
Sr0_0 Sr0_4 3.771010 1_555
Sr0_0 Sr0_2 3.771010 1_555
Sr0_0 Sr0_2 3.771010 1_545
Sr0_0 Sr0_4 3.771010 1_455
Sr0_0 Yb0_2 3.859648 1_555
Sr0_0 Yb0_3 3.859648 1_555
Sr0_0 Yb0_0 3.859650 1_555
Sr0_0 Yb0_1 3.859650 1_555
Sr0_0 Yb0_6 3.859650 1_555
Sr0_0 Yb0_7 3.859650 1_555
Sr0_1 Sr0_7 3.771009 1_555
Sr0_1 Sr0_7 3.771009 1_445
Sr0_1 Sr0_5 3.771010 1_555
Sr0_1 Sr0_3 3.771010 1_555
Sr0_1 Sr0_3 3.771010 1_545
Sr0_1 Sr0_5 3.771010 1_455
Sr0_1 Yb0_2 3.859648 1_556
Sr0_1 Yb0_3 3.859648 1_555
Sr0_1 Yb0_0 3.859650 1_556
Sr0_1 Yb0_1 3.859650 1_555
Sr0_1 Yb0_6 3.859650 1_556
Sr0_1 Yb0_7 3.859650 1_555
Sr0_2 Sr0_4 3.771009 1_455
Sr0_2 Sr0_4 3.771009 1_565
Sr0_2 Sr0_6 3.771010 1_555
Sr0_2 Sr0_6 3.771010 1_455
Sr0_2 Yb0_0 3.859648 1_565
Sr0_2 Yb0_1 3.859648 1_565
Sr0_2 Yb0_2 3.859650 1_555
Sr0_2 Yb0_3 3.859650 1_555
Sr0_2 Yb0_4 3.859650 1_565
Sr0_2 Yb0_5 3.859650 1_565
Sr0_3 Sr0_5 3.771009 1_565
Sr0_3 Sr0_5 3.771009 1_455
Sr0_3 Sr0_7 3.771010 1_555
Sr0_3 Sr0_7 3.771010 1_455
Sr0_3 Yb0_0 3.859648 1_566
Sr0_3 Yb0_1 3.859648 1_565
Sr0_3 Yb0_2 3.859650 1_556
Sr0_3 Yb0_3 3.859650 1_555
Sr0_3 Yb0_4 3.859650 1_566
Sr0_3 Yb0_5 3.859650 1_565
Sr0_4 Sr0_6 3.771010 1_545
Sr0_4 Sr0_6 3.771010 1_555
Sr0_4 Yb0_6 3.859648 1_555
Sr0_4 Yb0_7 3.859648 1_555
Sr0_4 Yb0_4 3.859650 1_555
Sr0_4 Yb0_5 3.859650 1_555
Sr0_4 Yb0_2 3.859650 1_655
Sr0_4 Yb0_3 3.859650 1_655
Sr0_5 Sr0_7 3.771010 1_545
Sr0_5 Sr0_7 3.771010 1_555
Sr0_5 Yb0_6 3.859648 1_556
Sr0_5 Yb0_7 3.859648 1_555
Sr0_5 Yb0_4 3.859650 1_556
Sr0_5 Yb0_5 3.859650 1_555
Sr0_5 Yb0_2 3.859650 1_656
Sr0_5 Yb0_3 3.859650 1_655
Sr0_6 Yb0_5 3.859648 1_565
Sr0_6 Yb0_4 3.859648 1_565
Sr0_6 Yb0_6 3.859650 1_555
Sr0_6 Yb0_7 3.859650 1_555
Sr0_6 Yb0_1 3.859650 1_665
Sr0_6 Yb0_0 3.859650 1_665
Sr0_7 Yb0_4 3.859648 1_566
Sr0_7 Yb0_5 3.859648 1_565
Sr0_7 Yb0_6 3.859650 1_556
Sr0_7 Yb0_7 3.859650 1_555
Sr0_7 Yb0_0 3.859650 1_666
Sr0_7 Yb0_1 3.859650 1_665
Yb0_0 Yb0_6 3.771009 1_555
Yb0_0 Yb0_6 3.771009 1_445
Yb0_0 Yb0_2 3.771010 1_545
Yb0_0 Yb0_2 3.771010 1_555
Yb0_0 Yb0_4 3.771010 1_455
Yb0_0 Yb0_4 3.771010 1_555
Yb0_1 Yb0_7 3.771009 1_445
Yb0_1 Yb0_7 3.771009 1_555
Yb0_1 Yb0_5 3.771010 1_555
Yb0_1 Yb0_5 3.771010 1_455
Yb0_1 Yb0_3 3.771010 1_545
Yb0_1 Yb0_3 3.771010 1_555
Yb0_2 Yb0_4 3.771009 1_455
Yb0_2 Yb0_4 3.771009 1_565
Yb0_2 Yb0_6 3.771010 1_455
Yb0_2 Yb0_6 3.771010 1_555
Yb0_3 Yb0_5 3.771009 1_565
Yb0_3 Yb0_5 3.771009 1_455
Yb0_3 Yb0_7 3.771010 1_555
Yb0_3 Yb0_7 3.771010 1_455
Yb0_4 Yb0_6 3.771010 1_545
Yb0_4 Yb0_6 3.771010 1_555
Yb0_5 Yb0_7 3.771010 1_555
Yb0_5 Yb0_7 3.771010 1_545
