# generated using pymatgen
data_IrRh3
_symmetry_space_group_name_H-M   'P 1'
_cell_length_a   4.67547639
_cell_length_b   4.67547639
_cell_length_c   4.67547639
_cell_angle_alpha   131.86339783
_cell_angle_beta   131.86339783
_cell_angle_gamma   70.44486091
_symmetry_Int_Tables_number   1
_chemical_formula_structural   IrRh3
_chemical_formula_sum   'Ir1 Rh3'
_cell_volume   55.54758310
_cell_formula_units_Z   1
loop_
 _symmetry_equiv_pos_site_id
 _symmetry_equiv_pos_as_xyz
  1  'x, y, z'
loop_
 _atom_site_type_symbol
 _atom_site_label
 _atom_site_symmetry_multiplicity
 _atom_site_fract_x
 _atom_site_fract_y
 _atom_site_fract_z
 _atom_site_occupancy
  Ir  Ir0  1  0.00000000  0.00000000  0.00000000  1
  Rh  Rh0  1  0.75000100  0.25000000  0.50000100  1
  Rh  Rh1  1  0.25000000  0.75000100  0.50000100  1
  Rh  Rh2  1  0.50000000  0.50000000  0.00000000  1
loop_
_geom_bond_atom_site_label_1
_geom_bond_atom_site_label_2
_geom_bond_distance
_geom_bond_site_symmetry_2
Ir0 Rh2 2.696591 1_545
Ir0 Rh2 2.696591 1_455
Ir0 Rh2 2.696591 1_556
Ir0 Rh2 2.696591 1_444
Ir0 Rh1 2.698686 1_544
Ir0 Rh0 2.698686 1_454
Ir0 Rh0 2.698689 1_444
Ir0 Rh1 2.698689 1_444
Ir0 Rh0 2.698689 1_455
Ir0 Rh1 2.698689 1_545
Ir0 Rh1 2.698691 1_555
Ir0 Rh0 2.698691 1_555
Rh0 Rh1 2.696586 1_645
Rh0 Rh1 2.696591 1_656
Rh0 Rh1 2.696591 1_544
Rh0 Rh1 2.696597 1_555
Rh0 Rh2 2.698686 1_656
Rh0 Rh2 2.698689 1_556
Rh0 Rh2 2.698689 1_545
Rh0 Rh2 2.698691 1_555
Rh1 Rh2 2.698686 1_566
Rh1 Rh2 2.698689 1_455
Rh1 Rh2 2.698689 1_556
Rh1 Rh2 2.698691 1_555
