# generated using pymatgen
data_Eu2Pt2O7
_symmetry_space_group_name_H-M   'P 1'
_cell_length_a   7.32298697
_cell_length_b   7.32287974
_cell_length_c   7.32296102
_cell_angle_alpha   59.86988332
_cell_angle_beta   59.87039156
_cell_angle_gamma   59.86989390
_symmetry_Int_Tables_number   1
_chemical_formula_structural   Eu2Pt2O7
_chemical_formula_sum   'Eu4 Pt4 O14'
_cell_volume   276.85951783
_cell_formula_units_Z   2
loop_
 _symmetry_equiv_pos_site_id
 _symmetry_equiv_pos_as_xyz
  1  'x, y, z'
loop_
 _atom_site_type_symbol
 _atom_site_label
 _atom_site_symmetry_multiplicity
 _atom_site_fract_x
 _atom_site_fract_y
 _atom_site_fract_z
 _atom_site_occupancy
  Eu  Eu0  1  0.62500156  0.12499920  0.12499952  1
  Eu  Eu1  1  0.12499957  0.62500138  0.12499979  1
  Eu  Eu2  1  0.12499979  0.12499984  0.62500087  1
  Eu  Eu3  1  0.12500022  0.12499968  0.12499884  1
  Pt  Pt0  1  0.12500063  0.62499843  0.62499937  1
  Pt  Pt1  1  0.62499979  0.12499797  0.62500249  1
  Pt  Pt2  1  0.62500045  0.62500204  0.12499949  1
  Pt  Pt3  1  0.62500385  0.62499983  0.62499877  1
  O  O0  1  0.24968459  0.24963505  0.24968016  1
  O  O1  1  0.00031617  0.00036508  0.00031903  1
  O  O2  1  0.70857275  0.70861532  0.29131469  1
  O  O3  1  0.29038572  0.29038635  0.70835860  1
  O  O4  1  0.70860080  0.29130461  0.70861012  1
  O  O5  1  0.29039427  0.70837711  0.29039503  1
  O  O6  1  0.29131200  0.70861411  0.70858111  1
  O  O7  1  0.70837136  0.29038534  0.29038384  1
  O  O8  1  0.54142565  0.54138275  0.95868761  1
  O  O9  1  0.95961428  0.95961581  0.54163989  1
  O  O10  1  0.54139832  0.95869631  0.54138894  1
  O  O11  1  0.95960472  0.54162264  0.95960679  1
  O  O12  1  0.95868512  0.54138735  0.54142038  1
  O  O13  1  0.54162939  0.95961380  0.95961566  1
loop_
_geom_bond_atom_site_label_1
_geom_bond_atom_site_label_2
_geom_bond_distance
_geom_bond_site_symmetry_2
Eu0 O1 2.240427 1_655
Eu0 O0 2.240441 1_555
Eu0 O7 2.502679 1_555
Eu0 O13 2.502684 1_544
Eu0 O8 2.510324 1_554
Eu0 O2 2.510330 1_545
Eu0 O10 2.510373 1_545
Eu0 O4 2.510376 1_554
Eu1 O1 2.240675 1_565
Eu1 O0 2.240691 1_555
Eu1 O5 2.502838 1_555
Eu1 O11 2.502841 1_454
Eu1 O6 2.510553 1_554
Eu1 O12 2.510563 1_455
Eu1 O8 2.510603 1_554
Eu1 O2 2.510611 1_455
Eu2 O1 2.240440 1_556
Eu2 O0 2.240455 1_555
Eu2 O9 2.502628 1_445
Eu2 O3 2.502629 1_555
Eu2 O6 2.510334 1_545
Eu2 O12 2.510345 1_455
Eu2 O10 2.510431 1_545
Eu2 O4 2.510437 1_455
Eu3 O1 2.238389 1_555
Eu3 O0 2.238405 1_555
Eu3 O11 2.509003 1_454
Eu3 O5 2.509004 1_545
Eu3 O7 2.509067 1_455
Eu3 O13 2.509067 1_544
Eu3 O3 2.509122 1_554
Eu3 O9 2.509124 1_445
O2 Pt3 2.023178 1_555
O2 Pt2 2.026302 1_555
O3 Pt0 2.026027 1_555
O3 Pt1 2.026075 1_555
O4 Pt3 2.023193 1_555
O4 Pt1 2.026367 1_555
O5 Pt0 2.026027 1_555
O5 Pt2 2.026045 1_555
O6 Pt3 2.023224 1_555
O6 Pt0 2.026344 1_555
O7 Pt2 2.026051 1_555
O7 Pt1 2.026092 1_555
O8 Pt3 2.023198 1_555
O8 Pt2 2.026327 1_556
O9 Pt0 2.026058 1_655
O9 Pt1 2.026071 1_565
O10 Pt3 2.023193 1_555
O10 Pt1 2.026369 1_565
O11 Pt2 2.026032 1_556
O11 Pt0 2.026047 1_655
O12 Pt3 2.023161 1_555
O12 Pt0 2.026331 1_655
O13 Pt2 2.026023 1_556
O13 Pt1 2.026058 1_565
