# generated using pymatgen
data_LiCoBO3
_symmetry_space_group_name_H-M   'P 1'
_cell_length_a   6.23223100
_cell_length_b   8.23536611
_cell_length_c   8.80333698
_cell_angle_alpha   62.12943558
_cell_angle_beta   69.27026766
_cell_angle_gamma   90.00058637
_symmetry_Int_Tables_number   1
_chemical_formula_structural   LiCoBO3
_chemical_formula_sum   'Li6 Co6 B6 O18'
_cell_volume   366.00219790
_cell_formula_units_Z   6
loop_
 _symmetry_equiv_pos_site_id
 _symmetry_equiv_pos_as_xyz
  1  'x, y, z'
loop_
 _atom_site_type_symbol
 _atom_site_label
 _atom_site_symmetry_multiplicity
 _atom_site_fract_x
 _atom_site_fract_y
 _atom_site_fract_z
 _atom_site_occupancy
  Li  Li0  1  0.81853400  0.01446300  0.36295500  1
  Li  Li1  1  0.31853200  0.01446300  0.36295500  1
  Li  Li2  1  0.99275300  0.62256200  0.01448000  1
  Li  Li3  1  0.49275800  0.62256200  0.01448000  1
  Li  Li4  1  0.68870300  0.36295000  0.62259500  1
  Li  Li5  1  0.18870100  0.36295000  0.62259500  1
  Co  Co0  1  0.25733600  0.31011700  0.98532000  1
  Co  Co1  1  0.09488200  0.70452900  0.31022000  1
  Co  Co2  1  0.39776300  0.98561700  0.70447400  1
  Co  Co3  1  0.75733700  0.31011800  0.98531500  1
  Co  Co4  1  0.59488700  0.70453500  0.31021800  1
  Co  Co5  1  0.89775900  0.98560900  0.70448100  1
  B  B0  1  0.91664900  0.66662400  0.66668500  1
  B  B1  1  0.41664900  0.66660200  0.66668400  1
  B  B2  1  0.49999300  0.99998500  0.00000900  1
  B  B3  1  0.99998800  0.99998600  0.00001000  1
  B  B4  1  0.08335100  0.33337100  0.33330500  1
  B  B5  1  0.58336500  0.33338300  0.33328100  1
  O  O0  1  0.54251900  0.19483500  0.91495600  1
  O  O1  1  0.04251800  0.19483500  0.91495900  1
  O  O2  1  0.90255100  0.89020200  0.19486700  1
  O  O3  1  0.40255600  0.89019300  0.19486300  1
  O  O4  1  0.55494100  0.91497800  0.89010600  1
  O  O5  1  0.05494400  0.91497400  0.89010700  1
  O  O6  1  0.95810500  0.55594000  0.58381200  1
  O  O7  1  0.45810500  0.55591000  0.58381300  1
  O  O8  1  0.81989800  0.58377800  0.86018900  1
  O  O9  1  0.31990000  0.58375300  0.86018200  1
  O  O10  1  0.97202500  0.86011300  0.55599700  1
  O  O11  1  0.47200900  0.86009100  0.55602900  1
  O  O12  1  0.12374600  0.22004500  0.25254300  1
  O  O13  1  0.62374000  0.22003000  0.25254700  1
  O  O14  1  0.98627100  0.25252300  0.52742800  1
  O  O15  1  0.48628000  0.25251500  0.52740700  1
  O  O16  1  0.13996700  0.52742300  0.22007700  1
  O  O17  1  0.63998700  0.52743600  0.22005500  1
loop_
_geom_bond_atom_site_label_1
_geom_bond_atom_site_label_2
_geom_bond_distance
_geom_bond_site_symmetry_2
Li0 O2 2.092432 1_545
Li0 O10 2.133082 1_545
Li0 O11 2.133135 1_545
Li0 O13 2.140426 1_555
Li0 O12 2.140523 1_655
Li1 O3 2.092523 1_545
Li1 O10 2.132968 1_445
Li1 O11 2.133249 1_545
Li1 O13 2.140442 1_555
Li1 O12 2.140472 1_555
Li2 O5 2.093441 1_654
Li2 O8 2.132816 1_554
Li2 O9 2.132959 1_654
Li2 O17 2.140133 1_555
Li2 O16 2.140381 1_655
Li3 O4 2.093470 1_554
Li3 O8 2.132812 1_554
Li3 O9 2.132976 1_554
Li3 O17 2.140292 1_555
Li3 O16 2.140304 1_555
Li4 O0 2.092728 1_555
Li4 O7 2.132442 1_555
Li4 O6 2.132684 1_555
Li4 O14 2.140234 1_555
Li4 O15 2.140496 1_555
Li5 O1 2.092748 1_555
Li5 O7 2.132532 1_555
Li5 O6 2.132599 1_455
Li5 O14 2.140340 1_455
Li5 O15 2.140376 1_555
Co0 O12 1.938924 1_556
Co0 O9 1.954155 1_555
Co0 O1 2.052857 1_555
Co0 O0 2.052905 1_555
Co1 O16 1.939151 1_555
Co1 O6 1.953462 1_455
Co1 O3 2.053202 1_555
Co1 O2 2.053303 1_455
Co2 O15 1.937325 1_565
Co2 O11 1.955887 1_555
Co2 O4 2.052546 1_555
Co2 O5 2.052603 1_555
Co3 O13 1.938970 1_556
Co3 O8 1.954335 1_555
Co3 O0 2.052849 1_555
Co3 O1 2.052886 1_655
Co4 O17 1.939222 1_555
Co4 O7 1.953498 1_555
Co4 O2 2.053178 1_555
Co4 O3 2.053246 1_555
Co5 O14 1.937404 1_565
Co5 O10 1.955965 1_555
Co5 O5 2.052538 1_655
Co5 O4 2.052586 1_555
B0 O8 1.384606 1_555
B0 O10 1.384891 1_555
B0 O6 1.384992 1_555
B1 O9 1.384559 1_555
B1 O11 1.384869 1_555
B1 O7 1.385038 1_555
B2 O3 1.393285 1_555
B2 O0 1.393550 1_564
B2 O4 1.393613 1_554
B3 O2 1.393300 1_555
B3 O1 1.393543 1_664
B3 O5 1.393647 1_654
B4 O12 1.390522 1_555
B4 O16 1.390555 1_555
B4 O14 1.390695 1_455
B5 O13 1.390536 1_555
B5 O17 1.390560 1_555
B5 O15 1.390701 1_555
