# generated using pymatgen
data_Mg7Si4
_symmetry_space_group_name_H-M   'P 1'
_cell_length_a   5.37160500
_cell_length_b   6.13192904
_cell_length_c   13.62012129
_cell_angle_alpha   99.94610959
_cell_angle_beta   96.80173100
_cell_angle_gamma   90.00663413
_symmetry_Int_Tables_number   1
_chemical_formula_structural   Mg7Si4
_chemical_formula_sum   'Mg14 Si8'
_cell_volume   438.67406441
_cell_formula_units_Z   2
loop_
 _symmetry_equiv_pos_site_id
 _symmetry_equiv_pos_as_xyz
  1  'x, y, z'
loop_
 _atom_site_type_symbol
 _atom_site_label
 _atom_site_symmetry_multiplicity
 _atom_site_fract_x
 _atom_site_fract_y
 _atom_site_fract_z
 _atom_site_occupancy
  Mg  Mg0  1  0.68972600  0.95859300  0.13521500  1
  Mg  Mg1  1  0.05308200  0.40202200  0.21755600  1
  Mg  Mg2  1  0.50161500  0.53656200  0.49740700  1
  Mg  Mg3  1  0.69362100  0.76232200  0.32934300  1
  Mg  Mg4  1  0.52669700  0.45279800  0.12018100  1
  Mg  Mg5  1  0.74240000  0.37094700  0.71501000  1
  Mg  Mg6  1  0.62517700  0.86399300  0.71174600  1
  Mg  Mg7  1  0.51142100  0.05611100  0.52148500  1
  Mg  Mg8  1  0.01080900  0.51491200  0.00430000  1
  Mg  Mg9  1  0.15526000  0.03300000  0.02977400  1
  Mg  Mg10  1  0.49993400  0.66334700  0.90761800  1
  Mg  Mg11  1  0.57693000  0.17091500  0.91725900  1
  Mg  Mg12  1  0.00259400  0.29697000  0.50980600  1
  Mg  Mg13  1  0.01209900  0.81489400  0.56216200  1
  Si  Si0  1  0.04421100  0.12965700  0.84155800  1
  Si  Si1  1  0.21323800  0.81077300  0.18973600  1
  Si  Si2  1  0.69433900  0.26021700  0.32474800  1
  Si  Si3  1  0.23324900  0.57106600  0.70271300  1
  Si  Si4  1  0.99885300  0.73501800  0.84182500  1
  Si  Si5  1  0.25700300  0.14528000  0.34071100  1
  Si  Si6  1  0.20043100  0.77544200  0.37623800  1
  Si  Si7  1  0.25728200  0.17890300  0.69992000  1
loop_
_geom_bond_atom_site_label_1
_geom_bond_atom_site_label_2
_geom_bond_distance
_geom_bond_site_symmetry_2
Mg0 Si2 2.901872 1_565
Mg0 Si1 2.933646 1_555
Mg0 Si1 3.003233 1_655
Mg1 Si5 2.639961 1_555
Mg1 Si1 2.751485 1_555
Mg1 Si2 2.775894 1_455
Mg1 Si6 2.902672 1_555
Mg2 Si6 2.773056 1_555
Mg2 Si2 2.945137 1_555
Mg2 Si5 3.099066 1_555
Mg3 Si6 2.719582 1_655
Mg3 Si6 2.795695 1_555
Mg3 Si2 3.064498 1_565
Mg3 Si1 3.065217 1_555
Mg3 Si2 3.068694 1_555
Mg4 Si1 2.865533 1_555
Mg5 Si4 2.822864 1_555
Mg5 Si0 2.829818 1_655
Mg5 Si7 2.829898 1_555
Mg5 Si3 2.942893 1_655
Mg5 Si3 2.996186 1_555
Mg5 Si7 3.021607 1_655
Mg6 Si4 2.726795 1_555
Mg6 Si3 2.745022 1_555
Mg6 Si7 2.773621 1_565
Mg6 Si0 2.984592 1_665
Mg7 Si6 2.776080 1_545
Mg7 Si5 2.810178 1_555
Mg7 Si7 2.913912 1_555
Mg8 Si4 2.778652 1_454
Mg8 Si1 2.935786 1_555
Mg8 Si0 2.968422 1_554
Mg9 Si0 2.727912 1_554
Mg9 Si1 2.750561 1_545
Mg9 Si4 2.910668 1_444
Mg10 Si4 2.793906 1_455
Mg10 Si3 2.944209 1_555
Mg10 Si4 2.980463 1_555
Mg11 Si0 2.819660 1_655
Mg11 Si0 2.920008 1_555
Mg12 Si2 2.821461 1_455
Mg12 Si5 2.835977 1_555
Mg12 Si7 2.984858 1_555
Mg12 Si3 2.994368 1_555
Mg13 Si3 2.785985 1_555
Mg13 Si6 2.808874 1_555
Mg13 Si7 2.864338 1_565
Si0 Si7 2.418020 1_555
Si0 Si4 2.432776 1_445
Si1 Si6 2.595318 1_555
Si1 Si5 2.630457 1_565
Si2 Si5 2.497248 1_555
Si3 Si7 2.402167 1_555
Si3 Si4 2.468466 1_455
Si5 Si6 2.425539 1_545
