# generated using pymatgen
data_Se
_symmetry_space_group_name_H-M   'P 1'
_cell_length_a   5.57707772
_cell_length_b   8.54576705
_cell_length_c   9.22686280
_cell_angle_alpha   90.00000000
_cell_angle_beta   90.00000000
_cell_angle_gamma   109.04475983
_symmetry_Int_Tables_number   1
_chemical_formula_structural   Se
_chemical_formula_sum   Se16
_cell_volume   415.68552876
_cell_formula_units_Z   16
loop_
 _symmetry_equiv_pos_site_id
 _symmetry_equiv_pos_as_xyz
  1  'x, y, z'
loop_
 _atom_site_type_symbol
 _atom_site_label
 _atom_site_symmetry_multiplicity
 _atom_site_fract_x
 _atom_site_fract_y
 _atom_site_fract_z
 _atom_site_occupancy
  Se  Se0_0  1  0.03217234  0.06434468  0.12500000  1
  Se  Se0_1  1  0.03217234  0.06434468  0.62500000  1
  Se  Se0_2  1  0.03217234  0.56434468  0.12500000  1
  Se  Se0_3  1  0.03217234  0.56434468  0.62500000  1
  Se  Se0_4  1  0.53217234  0.06434468  0.12500000  1
  Se  Se0_5  1  0.53217234  0.06434468  0.62500000  1
  Se  Se0_6  1  0.53217234  0.56434468  0.12500000  1
  Se  Se0_7  1  0.53217234  0.56434468  0.62500000  1
  Se  Se1_0  1  0.46782766  0.43565532  0.37500000  1
  Se  Se1_1  1  0.46782766  0.43565532  0.87500000  1
  Se  Se1_2  1  0.46782766  0.93565532  0.37500000  1
  Se  Se1_3  1  0.46782766  0.93565532  0.87500000  1
  Se  Se1_4  1  0.96782766  0.43565532  0.37500000  1
  Se  Se1_5  1  0.96782766  0.43565532  0.87500000  1
  Se  Se1_6  1  0.96782766  0.93565532  0.37500000  1
  Se  Se1_7  1  0.96782766  0.93565532  0.87500000  1
loop_
_geom_bond_atom_site_label_1
_geom_bond_atom_site_label_2
_geom_bond_distance
_geom_bond_site_symmetry_2
Se0_0 Se1_7 2.530140 1_444
Se0_0 Se1_6 2.530140 1_445
Se0_0 Se0_4 2.788539 1_455
Se0_0 Se0_4 2.788539 1_555
Se0_1 Se1_6 2.530140 1_445
Se0_1 Se1_7 2.530140 1_445
Se0_1 Se0_5 2.788539 1_455
Se0_1 Se0_5 2.788539 1_555
Se0_2 Se1_5 2.530140 1_454
Se0_2 Se1_4 2.530140 1_455
Se0_2 Se0_6 2.788539 1_455
Se0_2 Se0_6 2.788539 1_555
Se0_3 Se1_4 2.530140 1_455
Se0_3 Se1_5 2.530140 1_455
Se0_3 Se0_7 2.788539 1_455
Se0_3 Se0_7 2.788539 1_555
Se0_4 Se1_3 2.530140 1_544
Se0_4 Se1_2 2.530140 1_545
Se0_5 Se1_2 2.530140 1_545
Se0_5 Se1_3 2.530140 1_545
Se0_6 Se1_1 2.530140 1_554
Se0_6 Se1_0 2.530140 1_555
Se0_7 Se1_0 2.530140 1_555
Se0_7 Se1_1 2.530140 1_555
Se1_0 Se1_4 2.788539 1_555
Se1_0 Se1_4 2.788539 1_455
Se1_1 Se1_5 2.788539 1_555
Se1_1 Se1_5 2.788539 1_455
Se1_2 Se1_6 2.788539 1_555
Se1_2 Se1_6 2.788539 1_455
Se1_3 Se1_7 2.788539 1_555
Se1_3 Se1_7 2.788539 1_455
