# generated using pymatgen
data_AlBi3Sb2O11
_symmetry_space_group_name_H-M   'P 1'
_cell_length_a   9.56223200
_cell_length_b   9.48462800
_cell_length_c   13.46485539
_cell_angle_alpha   45.27297031
_cell_angle_beta   90.00000000
_cell_angle_gamma   90.00000000
_symmetry_Int_Tables_number   1
_chemical_formula_structural   AlBi3Sb2O11
_chemical_formula_sum   'Al4 Bi12 Sb8 O44'
_cell_volume   867.61195321
_cell_formula_units_Z   4
loop_
 _symmetry_equiv_pos_site_id
 _symmetry_equiv_pos_as_xyz
  1  'x, y, z'
loop_
 _atom_site_type_symbol
 _atom_site_label
 _atom_site_symmetry_multiplicity
 _atom_site_fract_x
 _atom_site_fract_y
 _atom_site_fract_z
 _atom_site_occupancy
  Al  Al0  1  0.24877500  0.84042000  0.25388900  1
  Al  Al1  1  0.75223400  0.65834800  0.09005600  1
  Al  Al2  1  0.75122500  0.84042000  0.75388900  1
  Al  Al3  1  0.24776600  0.65834800  0.59005600  1
  Bi  Bi0  1  0.00052500  0.98491900  0.51195000  1
  Bi  Bi1  1  0.52277500  0.52166000  0.99394400  1
  Bi  Bi2  1  0.47722500  0.52166000  0.49394400  1
  Bi  Bi3  1  0.99947500  0.98491900  0.01195000  1
  Bi  Bi4  1  0.38007800  0.00653900  0.87709600  1
  Bi  Bi5  1  0.12420000  0.27065200  0.62270300  1
  Bi  Bi6  1  0.11169500  0.74512500  0.87332400  1
  Bi  Bi7  1  0.38332700  0.98233400  0.62699600  1
  Bi  Bi8  1  0.61667300  0.98233400  0.12699600  1
  Bi  Bi9  1  0.88830500  0.74512500  0.37332400  1
  Bi  Bi10  1  0.87580000  0.27065200  0.12270300  1
  Bi  Bi11  1  0.61992200  0.00653900  0.37709600  1
  Sb  Sb0  1  0.25052300  0.14367500  0.25430700  1
  Sb  Sb1  1  0.74897900  0.34221300  0.40539000  1
  Sb  Sb2  1  0.90957500  0.50432900  0.74783600  1
  Sb  Sb3  1  0.59008300  0.50661500  0.74702400  1
  Sb  Sb4  1  0.74947700  0.14367500  0.75430700  1
  Sb  Sb5  1  0.25102100  0.34221300  0.90539000  1
  Sb  Sb6  1  0.09042500  0.50432900  0.24783600  1
  Sb  Sb7  1  0.40991700  0.50661500  0.24702400  1
  O  O0  1  0.14858600  0.00306300  0.64554500  1
  O  O1  1  0.35105400  0.79422500  0.85354100  1
  O  O2  1  0.35268100  0.20565700  0.64573100  1
  O  O3  1  0.14713600  0.99998800  0.85298800  1
  O  O4  1  0.85286400  0.99998800  0.35298800  1
  O  O5  1  0.64731900  0.20565700  0.14573100  1
  O  O6  1  0.64894600  0.79422500  0.35354100  1
  O  O7  1  0.85141400  0.00306300  0.14554500  1
  O  O8  1  0.24502700  0.04734700  0.04147100  1
  O  O9  1  0.25593600  0.63418500  0.46045300  1
  O  O10  1  0.24903800  0.37242800  0.03931300  1
  O  O11  1  0.24438600  0.94178900  0.46545500  1
  O  O12  1  0.95856300  0.66546800  0.08807800  1
  O  O13  1  0.54285600  0.66014500  0.08801900  1
  O  O14  1  0.96431700  0.33464500  0.41433800  1
  O  O15  1  0.53536100  0.33538900  0.41440000  1
  O  O16  1  0.91300900  0.28488800  0.75222800  1
  O  O17  1  0.90796100  0.71986400  0.74462700  1
  O  O18  1  0.58764200  0.28930800  0.74851800  1
  O  O19  1  0.59247200  0.71116200  0.75425200  1
  O  O20  1  0.75561400  0.94178900  0.96545500  1
  O  O21  1  0.75096200  0.37242800  0.53931300  1
  O  O22  1  0.74406400  0.63418500  0.96045300  1
  O  O23  1  0.75497300  0.04734700  0.54147100  1
  O  O24  1  0.03568300  0.33464500  0.91433800  1
  O  O25  1  0.46463900  0.33538900  0.91440000  1
  O  O26  1  0.04143700  0.66546800  0.58807800  1
  O  O27  1  0.45714400  0.66014500  0.58801900  1
  O  O28  1  0.09203900  0.71986400  0.24462700  1
  O  O29  1  0.08699100  0.28488800  0.25222800  1
  O  O30  1  0.40752800  0.71116200  0.25425200  1
  O  O31  1  0.41235800  0.28930800  0.24851800  1
  O  O32  1  0.25015400  0.36630100  0.74409800  1
  O  O33  1  0.24925800  0.63879600  0.74570800  1
  O  O34  1  0.25035700  0.64190500  0.10826300  1
  O  O35  1  0.24982900  0.36422500  0.38585100  1
  O  O36  1  0.88857400  0.99066100  0.75131100  1
  O  O37  1  0.61065500  0.99173300  0.75129600  1
  O  O38  1  0.75074200  0.63879600  0.24570800  1
  O  O39  1  0.74984600  0.36630100  0.24409800  1
  O  O40  1  0.75017100  0.36422500  0.88585100  1
  O  O41  1  0.74964300  0.64190500  0.60826300  1
  O  O42  1  0.11142600  0.99066100  0.25131100  1
  O  O43  1  0.38934500  0.99173300  0.25129600  1
loop_
_geom_bond_atom_site_label_1
_geom_bond_atom_site_label_2
_geom_bond_distance
_geom_bond_site_symmetry_2
Al0 O42 1.920176 1_555
Al0 O28 1.941629 1_555
Al0 O43 1.948619 1_555
Al0 O30 1.949103 1_555
Al0 O9 1.977249 1_555
Al0 O8 2.032999 1_565
Al1 O22 1.914899 1_554
Al1 O20 1.922210 1_554
Al1 O38 1.969792 1_555
Al1 O39 1.972053 1_555
Al1 O12 1.973660 1_555
Al1 O13 2.002217 1_555
Al2 O36 1.920176 1_555
Al2 O17 1.941629 1_555
Al2 O37 1.948619 1_555
Al2 O19 1.949103 1_555
Al2 O22 1.977249 1_555
Al2 O23 2.032999 1_565
Al3 O9 1.914899 1_555
Al3 O11 1.922210 1_555
Al3 O33 1.969792 1_555
Al3 O32 1.972053 1_555
Al3 O26 1.973660 1_555
Al3 O27 2.002217 1_555
Bi0 O0 2.388639 1_565
Bi0 O17 2.415268 1_455
Bi0 O26 2.452071 1_555
Bi0 O4 2.482908 1_455
Bi0 O23 2.520531 1_465
Bi0 O11 2.521364 1_555
Bi0 O14 2.591123 1_465
Bi0 O29 2.646565 1_565
Bi1 O22 2.267717 1_555
Bi1 O13 2.389218 1_556
Bi1 O19 2.434433 1_555
Bi1 O5 2.440672 1_556
Bi1 O1 2.464705 1_555
Bi1 O31 2.662543 1_556
Bi1 O25 2.690853 1_555
Bi1 O10 2.830388 1_556
Bi2 O9 2.267717 1_555
Bi2 O27 2.389218 1_555
Bi2 O30 2.434433 1_555
Bi2 O2 2.440672 1_555
Bi2 O6 2.464705 1_555
Bi2 O18 2.662543 1_555
Bi2 O15 2.690853 1_555
Bi2 O21 2.830388 1_555
Bi3 O7 2.388639 1_565
Bi3 O28 2.415268 1_655
Bi3 O12 2.452071 1_555
Bi3 O3 2.482908 1_654
Bi3 O8 2.520531 1_665
Bi3 O20 2.521364 1_554
Bi3 O24 2.591123 1_664
Bi3 O16 2.646565 1_564
Bi4 O2 2.249373 1_555
Bi4 O3 2.258126 1_545
Bi4 O1 2.265304 1_545
Bi4 O18 2.755797 1_555
Bi5 O2 2.231688 1_555
Bi5 O3 2.247112 1_545
Bi5 O0 2.343432 1_555
Bi5 O16 2.733045 1_455
Bi5 O9 2.765172 1_555
Bi6 O0 2.226103 1_565
Bi6 O3 2.258644 1_555
Bi6 O1 2.313410 1_555
Bi6 O17 2.727627 1_455
Bi7 O1 2.218882 1_555
Bi7 O0 2.282234 1_565
Bi7 O2 2.321219 1_565
Bi7 O19 2.710701 1_555
Bi7 O33 2.735846 1_555
Bi7 O37 2.782876 1_555
Bi7 O11 2.796690 1_555
Bi7 O15 2.833648 1_565
Bi8 O6 2.218882 1_555
Bi8 O7 2.282234 1_565
Bi8 O5 2.321219 1_565
Bi8 O30 2.710701 1_555
Bi8 O38 2.735846 1_555
Bi8 O43 2.782876 1_555
Bi8 O20 2.796690 1_554
Bi8 O25 2.833648 1_564
Bi9 O7 2.226103 1_565
Bi9 O4 2.258644 1_555
Bi9 O6 2.313410 1_555
Bi9 O28 2.727627 1_655
Bi10 O5 2.231688 1_555
Bi10 O4 2.247112 1_545
Bi10 O7 2.343432 1_555
Bi10 O29 2.733045 1_655
Bi10 O22 2.765172 1_554
Bi11 O5 2.249373 1_555
Bi11 O4 2.258126 1_545
Bi11 O6 2.265304 1_545
Bi11 O31 2.755797 1_555
O8 Sb5 1.992421 1_554
O10 Sb5 2.015328 1_554
O10 Sb0 2.061015 1_555
O11 Sb0 2.022593 1_565
O12 Sb6 1.981355 1_655
O13 Sb7 1.982982 1_555
O14 Sb6 1.998048 1_655
O14 Sb1 2.060931 1_555
O15 Sb7 2.001017 1_555
O15 Sb1 2.044587 1_555
O16 Sb2 2.040396 1_555
O16 Sb4 2.046249 1_555
O17 Sb2 2.014155 1_555
O18 Sb4 2.038928 1_555
O18 Sb3 2.047102 1_555
O19 Sb3 2.009862 1_555
O20 Sb4 2.022593 1_565
O21 Sb1 2.015328 1_555
O21 Sb4 2.061015 1_555
O23 Sb1 1.992421 1_555
O24 Sb2 1.998048 1_455
O24 Sb5 2.060931 1_555
O25 Sb3 2.001017 1_555
O25 Sb5 2.044587 1_555
O26 Sb2 1.981355 1_455
O27 Sb3 1.982982 1_555
O28 Sb6 2.014155 1_555
O29 Sb6 2.040396 1_555
O29 Sb0 2.046249 1_555
O30 Sb7 2.009862 1_555
O31 Sb0 2.038928 1_555
O31 Sb7 2.047102 1_555
O32 Sb5 2.017552 1_555
O33 Sb5 2.005863 1_555
O34 Sb7 2.022622 1_555
O34 Sb6 2.030236 1_555
O35 Sb6 2.016679 1_555
O35 Sb7 2.026902 1_555
O36 Sb4 1.989812 1_565
O37 Sb4 1.980607 1_565
O38 Sb1 2.005863 1_555
O39 Sb1 2.017552 1_555
O40 Sb2 2.016679 1_555
O40 Sb3 2.026902 1_555
O41 Sb3 2.022622 1_555
O41 Sb2 2.030236 1_555
O42 Sb0 1.989812 1_565
O43 Sb0 1.980607 1_565
