# generated using pymatgen
data_Fe3Ni3Ge2
_symmetry_space_group_name_H-M   'P 1'
_cell_length_a   7.01620122
_cell_length_b   7.01620122
_cell_length_c   7.01620104
_cell_angle_alpha   33.54046606
_cell_angle_beta   33.54046606
_cell_angle_gamma   33.54045908
_symmetry_Int_Tables_number   1
_chemical_formula_structural   Fe3Ni3Ge2
_chemical_formula_sum   'Fe3 Ni3 Ge2'
_cell_volume   93.91653428
_cell_formula_units_Z   1
loop_
 _symmetry_equiv_pos_site_id
 _symmetry_equiv_pos_as_xyz
  1  'x, y, z'
loop_
 _atom_site_type_symbol
 _atom_site_label
 _atom_site_symmetry_multiplicity
 _atom_site_fract_x
 _atom_site_fract_y
 _atom_site_fract_z
 _atom_site_occupancy
  Fe  Fe0  1  0.37529000  0.37529000  0.37529000  1
  Fe  Fe1  1  0.87540300  0.87540300  0.87540300  1
  Fe  Fe2  1  0.12418800  0.12418800  0.12418800  1
  Ni  Ni0  1  0.62532100  0.62532100  0.62532100  1
  Ni  Ni1  1  0.74944000  0.74944000  0.74944000  1
  Ni  Ni2  1  0.25059300  0.25059300  0.25059300  1
  Ge  Ge0  1  0.99971200  0.99971200  0.99971200  1
  Ge  Ge1  1  0.50005400  0.50005400  0.50005400  1
loop_
_geom_bond_atom_site_label_1
_geom_bond_atom_site_label_2
_geom_bond_distance
_geom_bond_site_symmetry_2
Fe0 Ni1 2.473969 1_545
Fe0 Ni1 2.473969 1_455
Fe0 Ni1 2.473969 1_554
Fe0 Ni2 2.474740 1_555
Fe0 Ge1 2.476069 1_555
Fe0 Ge0 2.483392 1_544
Fe0 Ge0 2.483392 1_454
Fe0 Ge0 2.483393 1_445
Fe0 Ni0 2.863124 1_545
Fe0 Ni0 2.863124 1_455
Fe0 Ni0 2.863124 1_554
Fe1 Ge0 2.467039 1_555
Fe1 Ni2 2.480803 1_656
Fe1 Ni2 2.480803 1_566
Fe1 Ni2 2.480804 1_665
Fe1 Ge1 2.481862 1_565
Fe1 Ge1 2.481862 1_655
Fe1 Ge1 2.481862 1_556
Fe1 Ni1 2.499865 1_555
Fe1 Ni0 2.862540 1_565
Fe1 Ni0 2.862540 1_655
Fe1 Ni0 2.862540 1_556
Fe2 Ge0 2.470354 1_444
Fe2 Ni1 2.477880 1_544
Fe2 Ni1 2.477880 1_454
Fe2 Ni1 2.477880 1_445
Fe2 Ge1 2.485328 1_545
Fe2 Ge1 2.485328 1_455
Fe2 Ge1 2.485328 1_554
Fe2 Ni2 2.508637 1_555
Ni0 Ni1 2.463269 1_555
Ni0 Ni2 2.477748 1_565
Ni0 Ni2 2.477748 1_655
Ni0 Ni2 2.477749 1_556
Ge0 Ni0 2.475539 1_655
Ge0 Ni0 2.475539 1_565
Ge0 Ni0 2.475539 1_556
Ge0 Ni2 2.853417 1_656
Ge0 Ni2 2.853417 1_566
Ge0 Ni2 2.853417 1_665
Ge0 Ni1 2.860365 1_565
Ge0 Ni1 2.860365 1_655
Ge0 Ni1 2.860365 1_556
Ge1 Ni0 2.486052 1_555
Ge1 Ni2 2.869671 1_565
Ge1 Ni2 2.869671 1_655
Ge1 Ni2 2.869671 1_556
Ge1 Ni1 2.870534 1_455
Ge1 Ni1 2.870534 1_545
Ge1 Ni1 2.870535 1_554
