# generated using pymatgen
data_MgSi2
_symmetry_space_group_name_H-M   'P 1'
_cell_length_a   5.74124300
_cell_length_b   7.60943518
_cell_length_c   9.97199747
_cell_angle_alpha   87.05317125
_cell_angle_beta   81.80254471
_cell_angle_gamma   79.19963181
_symmetry_Int_Tables_number   1
_chemical_formula_structural   MgSi2
_chemical_formula_sum   'Mg8 Si16'
_cell_volume   423.42665809
_cell_formula_units_Z   8
loop_
 _symmetry_equiv_pos_site_id
 _symmetry_equiv_pos_as_xyz
  1  'x, y, z'
loop_
 _atom_site_type_symbol
 _atom_site_label
 _atom_site_symmetry_multiplicity
 _atom_site_fract_x
 _atom_site_fract_y
 _atom_site_fract_z
 _atom_site_occupancy
  Mg  Mg0  1  0.72870300  0.04720000  0.69358600  1
  Mg  Mg1  1  0.27129700  0.95280000  0.30641400  1
  Mg  Mg2  1  0.21424300  0.57208700  0.03755100  1
  Mg  Mg3  1  0.49724500  0.30901300  0.23305800  1
  Mg  Mg4  1  0.13510800  0.05872800  0.86437400  1
  Mg  Mg5  1  0.86489200  0.94127200  0.13562600  1
  Mg  Mg6  1  0.50275500  0.69098700  0.76694200  1
  Mg  Mg7  1  0.78575700  0.42791300  0.96244900  1
  Si  Si0  1  0.63877900  0.38902100  0.56419100  1
  Si  Si1  1  0.10242600  0.22793900  0.11781900  1
  Si  Si2  1  0.50154000  0.83684900  0.01599500  1
  Si  Si3  1  0.72484600  0.07675300  0.41043200  1
  Si  Si4  1  0.38549700  0.36405800  0.78816000  1
  Si  Si5  1  0.70479100  0.76852700  0.49909600  1
  Si  Si6  1  0.27515400  0.92324700  0.58956800  1
  Si  Si7  1  0.97539700  0.32546800  0.35271200  1
  Si  Si8  1  0.89757400  0.77206100  0.88218100  1
  Si  Si9  1  0.29520900  0.23147300  0.50090400  1
  Si  Si10  1  0.02460300  0.67453200  0.64728800  1
  Si  Si11  1  0.61450300  0.63594200  0.21184000  1
  Si  Si12  1  0.00731000  0.35573800  0.69144400  1
  Si  Si13  1  0.49846000  0.16315100  0.98400500  1
  Si  Si14  1  0.99269000  0.64426200  0.30855600  1
  Si  Si15  1  0.36122100  0.61097900  0.43580900  1
loop_
_geom_bond_atom_site_label_1
_geom_bond_atom_site_label_2
_geom_bond_distance
_geom_bond_site_symmetry_2
Mg0 Si3 2.823919 1_555
Mg0 Si0 2.835249 1_555
Mg0 Si8 2.866124 1_545
Mg0 Si4 2.916986 1_555
Mg0 Si5 2.980760 1_545
Mg0 Si10 3.040783 1_645
Mg0 Si12 3.076316 1_655
Mg0 Si13 3.105950 1_555
Mg0 Si6 3.141949 1_645
Mg0 Mg6 3.226213 1_545
Mg0 Si6 3.246129 1_545
Mg1 Si6 2.823919 1_555
Mg1 Si15 2.835249 1_555
Mg1 Si1 2.866124 1_565
Mg1 Si11 2.916986 1_555
Mg1 Si9 2.980760 1_565
Mg1 Si7 3.040783 1_465
Mg1 Si14 3.076316 1_455
Mg1 Si2 3.105950 1_555
Mg1 Si3 3.141949 1_465
Mg1 Mg3 3.226213 1_565
Mg1 Si3 3.246129 1_565
Mg2 Si8 2.746898 1_454
Mg2 Si2 2.815248 1_555
Mg2 Si14 2.851913 1_455
Mg2 Si1 2.859857 1_555
Mg2 Si4 2.963363 1_554
Mg2 Mg3 3.119502 1_555
Mg2 Mg6 3.143285 1_554
Mg2 Si11 3.190891 1_555
Mg3 Si11 2.686963 1_555
Mg3 Si3 2.726135 1_555
Mg3 Si13 2.770491 1_554
Mg3 Si9 2.835240 1_555
Mg3 Si1 2.859922 1_555
Mg3 Si7 3.044841 1_455
Mg3 Si15 3.054900 1_555
Mg3 Mg7 3.143285 1_554
Mg3 Si7 3.170756 1_555
Mg3 Mg5 3.272744 1_545
Mg4 Si8 2.766897 1_445
Mg4 Si13 2.799053 1_555
Mg4 Si12 2.821111 1_555
Mg4 Si1 2.861721 1_556
Mg4 Si6 2.927523 1_545
Mg4 Si4 2.966631 1_555
Mg4 Si2 2.979250 1_546
Mg4 Mg6 3.272744 1_545
Mg5 Si1 2.766897 1_665
Mg5 Si2 2.799053 1_555
Mg5 Si14 2.821111 1_555
Mg5 Si8 2.861721 1_554
Mg5 Si3 2.927523 1_565
Mg5 Si11 2.966631 1_555
Mg5 Si13 2.979250 1_564
Mg6 Si4 2.686963 1_555
Mg6 Si6 2.726135 1_555
Mg6 Si2 2.770491 1_556
Mg6 Si5 2.835240 1_555
Mg6 Si8 2.859922 1_555
Mg6 Si10 3.044841 1_655
Mg6 Si0 3.054900 1_555
Mg6 Mg7 3.119502 1_555
Mg6 Si10 3.170756 1_555
Mg7 Si1 2.746898 1_656
Mg7 Si13 2.815248 1_555
Mg7 Si12 2.851913 1_655
Mg7 Si8 2.859857 1_555
Mg7 Si11 2.963363 1_556
Mg7 Si4 3.190891 1_555
Si0 Si4 2.504505 1_555
Si0 Si15 2.526205 1_555
Si0 Si12 2.585135 1_655
Si0 Si7 2.647359 1_555
Si0 Si9 2.654317 1_555
Si0 Si3 2.821326 1_555
Si1 Si13 2.444546 1_554
Si1 Si7 2.461302 1_455
Si2 Si8 2.444546 1_554
Si3 Si5 2.480922 1_545
Si3 Si7 2.579642 1_555
Si3 Si9 2.582759 1_555
Si5 Si6 2.582759 1_555
Si6 Si9 2.480922 1_565
Si7 Si9 2.497924 1_655
Si10 Si12 2.460980 1_555
Si10 Si8 2.461302 1_455
Si10 Si5 2.497924 1_455
Si10 Si6 2.579642 1_555
Si10 Si15 2.647359 1_555
Si11 Si2 2.500902 1_555
Si11 Si15 2.504505 1_555
Si11 Si14 2.510682 1_555
Si12 Si9 2.437174 1_555
Si12 Si4 2.510682 1_555
Si13 Si2 2.484140 1_546
Si13 Si4 2.500902 1_555
Si14 Si5 2.437174 1_555
Si14 Si7 2.460980 1_555
Si14 Si15 2.585135 1_655
Si15 Si5 2.654317 1_555
Si15 Si6 2.821326 1_555
