# generated using pymatgen
data_BaBe2(PO4)2
_symmetry_space_group_name_H-M   'P 1'
_cell_length_a   5.10920224
_cell_length_b   5.10920224
_cell_length_c   7.50023900
_cell_angle_alpha   90.00000000
_cell_angle_beta   90.00000000
_cell_angle_gamma   120.00000308
_symmetry_Int_Tables_number   1
_chemical_formula_structural   BaBe2(PO4)2
_chemical_formula_sum   'Ba1 Be2 P2 O8'
_cell_volume   169.55551035
_cell_formula_units_Z   1
loop_
 _symmetry_equiv_pos_site_id
 _symmetry_equiv_pos_as_xyz
  1  'x, y, z'
loop_
 _atom_site_type_symbol
 _atom_site_label
 _atom_site_symmetry_multiplicity
 _atom_site_fract_x
 _atom_site_fract_y
 _atom_site_fract_z
 _atom_site_occupancy
  Ba  Ba0  1  0.00000000  0.00000000  0.00000000  1
  Be  Be0  1  0.66666700  0.33333300  0.29751900  1
  Be  Be1  1  0.33333300  0.66666700  0.70248100  1
  P  P0  1  0.33333300  0.66666700  0.29202700  1
  P  P1  1  0.66666700  0.33333300  0.70797300  1
  O  O0  1  0.66666700  0.33333300  0.50762300  1
  O  O1  1  0.33333300  0.66666700  0.49237700  1
  O  O2  1  0.49579700  0.99159500  0.21160000  1
  O  O3  1  0.00840500  0.50420300  0.21160000  1
  O  O4  1  0.49579700  0.50420300  0.21160000  1
  O  O5  1  0.50420300  0.00840500  0.78840000  1
  O  O6  1  0.99159500  0.49579700  0.78840000  1
  O  O7  1  0.50420300  0.49579700  0.78840000  1
loop_
_geom_bond_atom_site_label_1
_geom_bond_atom_site_label_2
_geom_bond_distance
_geom_bond_site_symmetry_2
Ba0 O6 3.007671 1_454
Ba0 O2 3.007671 1_545
Ba0 O3 3.007671 1_545
Ba0 O5 3.007671 1_454
Ba0 O7 3.007673 1_554
Ba0 O4 3.007673 1_555
Ba0 O7 3.007673 1_444
Ba0 O4 3.007673 1_445
Ba0 O2 3.007676 1_445
Ba0 O3 3.007676 1_555
Ba0 O6 3.007676 1_444
Ba0 O5 3.007676 1_554
Be0 O0 1.575830 1_555
Be0 O2 1.643678 1_545
Be0 O3 1.643678 1_655
Be0 O4 1.643686 1_555
Be1 O1 1.575830 1_555
Be1 O6 1.643678 1_455
Be1 O5 1.643678 1_565
Be1 O7 1.643686 1_555
O0 P1 1.502673 1_555
O1 P0 1.502673 1_555
O2 P0 1.559129 1_555
O3 P0 1.559129 1_555
O4 P0 1.559129 1_555
O5 P1 1.559129 1_555
O6 P1 1.559129 1_555
O7 P1 1.559129 1_555
