# generated using pymatgen
data_Na4TeO5
_symmetry_space_group_name_H-M   'P 1'
_cell_length_a   5.65446009
_cell_length_b   5.68375762
_cell_length_c   8.47891907
_cell_angle_alpha   101.65545289
_cell_angle_beta   108.90400474
_cell_angle_gamma   102.53059002
_symmetry_Int_Tables_number   1
_chemical_formula_structural   Na4TeO5
_chemical_formula_sum   'Na8 Te2 O10'
_cell_volume   240.47243006
_cell_formula_units_Z   2
loop_
 _symmetry_equiv_pos_site_id
 _symmetry_equiv_pos_as_xyz
  1  'x, y, z'
loop_
 _atom_site_type_symbol
 _atom_site_label
 _atom_site_symmetry_multiplicity
 _atom_site_fract_x
 _atom_site_fract_y
 _atom_site_fract_z
 _atom_site_occupancy
  Na  Na0  1  0.68748593  0.48152868  0.90076049  1
  Na  Na1  1  0.88299721  0.50489430  0.30441339  1
  Na  Na2  1  0.69696334  0.00345599  0.40105437  1
  Na  Na3  1  0.30303666  0.99654401  0.59894563  1
  Na  Na4  1  0.31251407  0.51847132  0.09923951  1
  Na  Na5  1  0.50000000  0.50000000  0.50000000  1
  Na  Na6  1  0.50000000  -0.00000000  -0.00000000  1
  Na  Na7  1  0.11700279  0.49510570  0.69558661  1
  Te  Te0  1  0.90124127  0.99408490  0.79644153  1
  Te  Te1  1  0.09875873  0.00591510  0.20355847  1
  O  O0  1  0.24293980  0.21390273  0.84603323  1
  O  O1  1  0.75706020  0.78609727  0.15396677  1
  O  O2  1  0.90954349  0.77449369  0.59708989  1
  O  O3  1  0.09045651  0.22550631  0.40291011  1
  O  O4  1  0.43468587  0.22332387  0.23974480  1
  O  O5  1  0.56531413  0.77667613  0.76025520  1
  O  O6  1  0.07615800  0.80612744  0.96202849  1
  O  O7  1  0.92384200  0.19387256  0.03797251  1
  O  O8  1  0.25755782  0.78984350  0.31427440  1
  O  O9  1  0.74244218  0.21015650  0.68572560  1
loop_
_geom_bond_atom_site_label_1
_geom_bond_atom_site_label_2
_geom_bond_distance
_geom_bond_site_symmetry_2
Na0 O9 2.288823 1_555
Na0 O1 2.327284 1_556
Na0 O5 2.342596 1_555
Na0 O6 2.370073 1_655
Na0 O0 2.479420 1_555
Na0 O7 2.553821 1_556
Na1 O3 2.303167 1_655
Na1 O1 2.327638 1_555
Na1 O8 2.336196 1_655
Na1 O4 2.504454 1_555
Na1 O2 2.578993 1_555
Na1 O7 2.680231 1_555
Na2 O3 2.300971 1_655
Na2 O8 2.309591 1_545
Na2 O9 2.365010 1_555
Na2 O1 2.372464 1_545
Na2 O4 2.410861 1_555
Na2 O2 2.481810 1_545
Na3 O2 2.300971 1_455
Na3 O9 2.309591 1_565
Na3 O8 2.365010 1_555
Na3 O0 2.372464 1_565
Na3 O5 2.410861 1_555
Na3 O3 2.481810 1_565
Na4 O8 2.288823 1_555
Na4 O0 2.327284 1_554
Na4 O4 2.342596 1_555
Na4 O7 2.370075 1_455
Na4 O1 2.479420 1_555
Na4 O6 2.553817 1_554
Na5 O3 2.269918 1_555
Na5 O2 2.269918 1_555
Na5 O5 2.301433 1_555
Na5 O4 2.301433 1_555
Na5 O8 2.775325 1_555
Na5 O9 2.775325 1_555
Na6 O7 2.296152 1_555
Na6 O6 2.296154 1_544
Na6 O0 2.339590 1_554
Na6 O1 2.339590 1_545
Na6 O5 2.350970 1_544
Na6 O4 2.350970 1_555
Na7 O2 2.303167 1_455
Na7 O0 2.327638 1_555
Na7 O9 2.336196 1_455
Na7 O5 2.504454 1_555
Na7 O3 2.578993 1_555
Na7 O6 2.680237 1_555
O0 Te0 1.919559 1_445
O1 Te1 1.919559 1_665
O2 Te0 1.908262 1_555
O3 Te1 1.908262 1_555
O4 Te1 1.918284 1_555
O5 Te0 1.918284 1_555
O6 Te0 2.062876 1_455
O6 Te1 2.080281 1_566
O7 Te1 2.062871 1_655
O7 Te0 2.080288 1_544
O8 Te1 1.895754 1_565
O9 Te0 1.895754 1_545
