# generated using pymatgen
data_Sm2TeO2
_symmetry_space_group_name_H-M   'P 1'
_cell_length_a   4.00505994
_cell_length_b   4.00506038
_cell_length_c   6.97023530
_cell_angle_alpha   106.69621172
_cell_angle_beta   106.69621428
_cell_angle_gamma   90.00000196
_symmetry_Int_Tables_number   1
_chemical_formula_structural   Sm2TeO2
_chemical_formula_sum   'Sm2 Te1 O2'
_cell_volume   102.16170203
_cell_formula_units_Z   1
loop_
 _symmetry_equiv_pos_site_id
 _symmetry_equiv_pos_as_xyz
  1  'x, y, z'
loop_
 _atom_site_type_symbol
 _atom_site_label
 _atom_site_symmetry_multiplicity
 _atom_site_fract_x
 _atom_site_fract_y
 _atom_site_fract_z
 _atom_site_occupancy
  Sm  Sm0  1  0.66088033  0.66088033  0.32176067  1
  Sm  Sm1  1  0.33911967  0.33911967  0.67823933  1
  Te  Te0  1  -0.00000000  0.00000000  -0.00000000  1
  O  O0  1  0.25000000  0.75000000  0.50000000  1
  O  O1  1  0.75000000  0.25000000  0.50000000  1
loop_
_geom_bond_atom_site_label_1
_geom_bond_atom_site_label_2
_geom_bond_distance
_geom_bond_site_symmetry_2
Sm0 Te0 3.495688 1_665
Sm0 Te0 3.495688 1_565
Sm0 Te0 3.495688 1_655
Sm0 Te0 3.495688 1_555
Sm1 Te0 3.495688 1_556
Sm1 Te0 3.495688 1_656
Sm1 Te0 3.495688 1_566
Sm1 Te0 3.495688 1_666
O0 Sm0 2.301915 1_555
O0 Sm1 2.301915 1_555
O0 Sm0 2.301915 1_455
O0 Sm1 2.301915 1_565
O1 Sm1 2.301915 1_555
O1 Sm0 2.301915 1_555
O1 Sm1 2.301915 1_655
O1 Sm0 2.301915 1_545
