# generated using pymatgen
data_CsHS
_symmetry_space_group_name_H-M   'P 1'
_cell_length_a   7.45097573
_cell_length_b   7.45097573
_cell_length_c   7.45097573
_cell_angle_alpha   112.21452373
_cell_angle_beta   112.21452373
_cell_angle_gamma   104.11382688
_symmetry_Int_Tables_number   1
_chemical_formula_structural   CsHS
_chemical_formula_sum   'Cs4 H4 S4'
_cell_volume   316.37078994
_cell_formula_units_Z   4
loop_
 _symmetry_equiv_pos_site_id
 _symmetry_equiv_pos_as_xyz
  1  'x, y, z'
loop_
 _atom_site_type_symbol
 _atom_site_label
 _atom_site_symmetry_multiplicity
 _atom_site_fract_x
 _atom_site_fract_y
 _atom_site_fract_z
 _atom_site_occupancy
  Cs  Cs0  1  0.25000000  0.75000000  0.50000000  1
  Cs  Cs1  1  0.26720894  0.26720894  -0.00000000  1
  Cs  Cs2  1  0.73279106  0.73279106  -0.00000000  1
  Cs  Cs3  1  0.75000000  0.25000000  0.50000000  1
  H  H0  1  0.08607945  0.24183886  0.32791730  1
  H  H1  1  0.24183886  0.91392055  0.15575841  1
  H  H2  1  0.75816114  0.08607945  0.84424159  1
  H  H3  1  0.91392055  0.75816114  0.67208270  1
  S  S0  1  0.24180129  0.75132290  0.99312419  1
  S  S1  1  0.24867710  0.24180129  0.49047839  1
  S  S2  1  0.75132290  0.75819871  0.50952161  1
  S  S3  1  0.75819871  0.24867710  0.00687581  1
loop_
_geom_bond_atom_site_label_1
_geom_bond_atom_site_label_2
_geom_bond_distance
_geom_bond_site_symmetry_2
Cs0 H0 3.218910 1_555
Cs0 H2 3.218912 1_565
Cs0 H3 3.218916 1_455
Cs0 H1 3.218918 1_555
Cs0 S2 3.694133 1_555
Cs0 S0 3.694133 1_555
Cs0 S1 3.694133 1_565
Cs0 S3 3.694133 1_455
Cs1 H0 3.247316 1_555
Cs1 H1 3.247318 1_545
Cs1 H3 3.247323 1_444
Cs1 H2 3.247325 1_454
Cs1 S1 3.676306 1_554
Cs1 S0 3.676306 1_554
Cs1 S2 3.676306 1_555
Cs1 S3 3.676306 1_555
Cs2 H3 3.247316 1_554
Cs2 H2 3.247318 1_564
Cs2 H0 3.247323 1_665
Cs2 H1 3.247325 1_655
Cs2 S2 3.676306 1_555
Cs2 S0 3.676306 1_554
Cs2 S1 3.676306 1_554
Cs2 S3 3.676306 1_555
Cs3 H3 3.218910 1_555
Cs3 H1 3.218912 1_545
Cs3 H0 3.218916 1_655
Cs3 H2 3.218918 1_555
Cs3 S3 3.694133 1_555
Cs3 S2 3.694133 1_545
Cs3 S0 3.694133 1_655
Cs3 S1 3.694133 1_555
H0 S1 1.351178 1_555
H1 S0 1.351170 1_554
H2 S3 1.351170 1_556
H3 S2 1.351178 1_555
