# generated using pymatgen
data_HoCd3
_symmetry_space_group_name_H-M   'P 1'
_cell_length_a   4.82973257
_cell_length_b   6.44971718
_cell_length_c   6.44971622
_cell_angle_alpha   113.50967772
_cell_angle_beta   90.00000000
_cell_angle_gamma   90.00000000
_symmetry_Int_Tables_number   1
_chemical_formula_structural   HoCd3
_chemical_formula_sum   'Ho2 Cd6'
_cell_volume   184.23419650
_cell_formula_units_Z   2
loop_
 _symmetry_equiv_pos_site_id
 _symmetry_equiv_pos_as_xyz
  1  'x, y, z'
loop_
 _atom_site_type_symbol
 _atom_site_label
 _atom_site_symmetry_multiplicity
 _atom_site_fract_x
 _atom_site_fract_y
 _atom_site_fract_z
 _atom_site_occupancy
  Ho  Ho0  1  0.75000000  0.36374835  0.63625165  1
  Ho  Ho1  1  0.25000000  0.63625165  0.36374835  1
  Cd  Cd0  1  0.75000000  0.82627162  0.17372838  1
  Cd  Cd1  1  0.25000000  0.17372838  0.82627162  1
  Cd  Cd2  1  0.75000000  0.31096622  0.12277810  1
  Cd  Cd3  1  0.25000000  0.68903378  0.87722190  1
  Cd  Cd4  1  0.25000000  0.12277810  0.31096622  1
  Cd  Cd5  1  0.75000000  0.87722190  0.68903378  1
loop_
_geom_bond_atom_site_label_1
_geom_bond_atom_site_label_2
_geom_bond_distance
_geom_bond_site_symmetry_2
Cd0 Cd3 2.986937 1_654
Cd0 Cd3 2.986937 1_554
Cd0 Cd4 2.986937 1_565
Cd0 Cd4 2.986937 1_665
Cd0 Ho1 3.167646 1_655
Cd0 Ho1 3.167646 1_555
Cd0 Cd5 3.206678 1_555
Cd0 Cd2 3.206678 1_555
Cd0 Cd5 3.271138 1_554
Cd0 Cd2 3.271138 1_565
Cd0 Ho0 3.558920 1_554
Cd0 Ho0 3.558921 1_565
Cd1 Cd2 2.986937 1_456
Cd1 Cd2 2.986937 1_556
Cd1 Cd5 2.986937 1_545
Cd1 Cd5 2.986937 1_445
Cd1 Ho0 3.167646 1_555
Cd1 Ho0 3.167646 1_455
Cd1 Cd4 3.206678 1_555
Cd1 Cd3 3.206678 1_555
Cd1 Cd4 3.271138 1_556
Cd1 Cd3 3.271138 1_545
Cd1 Ho1 3.558920 1_556
Cd1 Ho1 3.558921 1_545
Cd2 Cd5 3.067336 1_544
Cd2 Cd4 3.154893 1_655
Cd2 Cd4 3.154893 1_555
Cd2 Ho1 3.169745 1_655
Cd2 Ho1 3.169745 1_555
Cd2 Ho0 3.191265 1_555
Cd2 Ho0 3.288606 1_554
Cd3 Cd4 3.067336 1_566
Cd3 Cd5 3.154893 1_455
Cd3 Cd5 3.154893 1_555
Cd3 Ho0 3.169745 1_555
Cd3 Ho0 3.169745 1_455
Cd3 Ho1 3.191265 1_555
Cd3 Ho1 3.288606 1_556
Cd4 Ho0 3.169745 1_455
Cd4 Ho0 3.169745 1_555
Cd4 Ho1 3.191266 1_555
Cd4 Ho1 3.288607 1_545
Cd5 Ho1 3.169745 1_555
Cd5 Ho1 3.169745 1_655
Cd5 Ho0 3.191266 1_555
Cd5 Ho0 3.288607 1_565
