# generated using pymatgen
data_Li3V4O8
_symmetry_space_group_name_H-M   'P 1'
_cell_length_a   5.90704582
_cell_length_b   10.67985350
_cell_length_c   5.90101415
_cell_angle_alpha   89.79695400
_cell_angle_beta   60.30372481
_cell_angle_gamma   74.02336294
_symmetry_Int_Tables_number   1
_chemical_formula_structural   Li3V4O8
_chemical_formula_sum   'Li6 V8 O16'
_cell_volume   306.93291258
_cell_formula_units_Z   2
loop_
 _symmetry_equiv_pos_site_id
 _symmetry_equiv_pos_as_xyz
  1  'x, y, z'
loop_
 _atom_site_type_symbol
 _atom_site_label
 _atom_site_symmetry_multiplicity
 _atom_site_fract_x
 _atom_site_fract_y
 _atom_site_fract_z
 _atom_site_occupancy
  Li  Li0  1  0.99948800  0.25002900  0.25078000  1
  Li  Li1  1  0.00058700  0.75001800  0.74914200  1
  Li  Li2  1  0.14644000  0.03400200  0.18333500  1
  Li  Li3  1  0.14684500  0.53413800  0.68261600  1
  Li  Li4  1  0.85303500  0.46586600  0.31745200  1
  Li  Li5  1  0.85390700  0.96606000  0.81645600  1
  V  V0  1  0.49992100  0.49994300  0.99999900  1
  V  V1  1  0.49966100  0.00003000  0.49998800  1
  V  V2  1  0.49929200  0.25027700  0.25086800  1
  V  V3  1  0.50070700  0.74973700  0.74935500  1
  V  V4  1  0.49943700  0.25116800  0.75172000  1
  V  V5  1  0.50064500  0.74875400  0.24824500  1
  V  V6  1  0.00040000  0.24967900  0.75021200  1
  V  V7  1  0.99951600  0.75045300  0.24993000  1
  O  O0  1  0.28022200  0.35109800  0.61993500  1
  O  O1  1  0.28069500  0.85069300  0.11872800  1
  O  O2  1  0.71954000  0.14924800  0.88121400  1
  O  O3  1  0.71985800  0.64882200  0.37998100  1
  O  O4  1  0.25707300  0.13269900  0.38872400  1
  O  O5  1  0.25772900  0.63207300  0.88855800  1
  O  O6  1  0.72492900  0.12981400  0.40080900  1
  O  O7  1  0.72751100  0.62887300  0.89709200  1
  O  O8  1  0.25109500  0.13716500  0.86660900  1
  O  O9  1  0.25015200  0.63689800  0.36644700  1
  O  O10  1  0.27252300  0.37097100  0.10287000  1
  O  O11  1  0.27514000  0.87015300  0.59921000  1
  O  O12  1  0.74988100  0.36311200  0.63347200  1
  O  O13  1  0.74890500  0.86292000  0.13345400  1
  O  O14  1  0.74195100  0.36802900  0.11159000  1
  O  O15  1  0.74291600  0.86728100  0.61120800  1
loop_
_geom_bond_atom_site_label_1
_geom_bond_atom_site_label_2
_geom_bond_distance
_geom_bond_site_symmetry_2
Li0 O12 2.114789 1_555
Li0 O8 2.120370 1_654
Li0 O4 2.172170 1_655
Li0 O14 2.180005 1_555
Li0 O10 2.185270 1_655
Li0 O6 2.185872 1_555
Li1 O9 2.114950 1_555
Li1 O13 2.121133 1_456
Li1 O15 2.172224 1_455
Li1 O5 2.179048 1_555
Li1 O11 2.185152 1_555
Li1 O7 2.187167 1_455
Li2 O1 1.859561 1_545
Li2 O4 2.044537 1_555
Li2 O8 2.074800 1_554
Li2 O6 2.081905 1_455
Li3 O0 1.856743 1_555
Li3 O5 2.043204 1_555
Li3 O9 2.069737 1_555
Li3 O7 2.069884 1_455
Li4 O3 1.855867 1_555
Li4 O14 2.043111 1_555
Li4 O12 2.069041 1_555
Li4 O10 2.070864 1_655
Li5 O2 1.858373 1_565
Li5 O15 2.046039 1_555
Li5 O13 2.075852 1_556
Li5 O11 2.080797 1_655
O0 V4 1.910931 1_555
O0 V2 2.008558 1_555
O0 V6 2.053530 1_555
O1 V5 1.912262 1_555
O1 V3 2.010245 1_554
O1 V7 2.050136 1_455
O2 V4 1.912737 1_555
O2 V2 2.011744 1_556
O2 V6 2.050240 1_655
O3 V5 1.910716 1_555
O3 V3 2.010292 1_555
O3 V7 2.054518 1_555
O4 V2 2.028386 1_555
O4 V6 2.044893 1_555
O4 V1 2.073640 1_555
O5 V3 2.032568 1_555
O5 V7 2.051131 1_456
O5 V0 2.069955 1_555
O6 V4 2.019337 1_555
O6 V1 2.066969 1_555
O6 V2 2.104984 1_555
O7 V5 2.012919 1_556
O7 V0 2.067938 1_555
O7 V3 2.102000 1_555
O8 V4 2.021383 1_555
O8 V6 2.032495 1_555
O8 V1 2.161632 1_555
O9 V5 2.011864 1_555
O9 V7 2.037089 1_455
O9 V0 2.159996 1_554
O10 V4 2.012521 1_554
O10 V0 2.067544 1_554
O10 V2 2.102190 1_555
O11 V5 2.019781 1_555
O11 V1 2.064768 1_565
O11 V3 2.105369 1_555
O12 V4 2.012395 1_555
O12 V6 2.036986 1_655
O12 V0 2.159655 1_555
O13 V5 2.022441 1_555
O13 V7 2.032261 1_555
O13 V1 2.161150 1_565
O14 V2 2.032081 1_555
O14 V6 2.051104 1_654
O14 V0 2.068774 1_554
O15 V3 2.028137 1_555
O15 V7 2.043362 1_555
O15 V1 2.076491 1_565
