# generated using pymatgen
data_CaZn2(PO4)2
_symmetry_space_group_name_H-M   'P 1'
_cell_length_a   5.04255700
_cell_length_b   8.53746020
_cell_length_c   9.08796804
_cell_angle_alpha   113.47630357
_cell_angle_beta   102.21132045
_cell_angle_gamma   94.09643006
_symmetry_Int_Tables_number   1
_chemical_formula_structural   CaZn2(PO4)2
_chemical_formula_sum   'Ca2 Zn4 P4 O16'
_cell_volume   345.40776757
_cell_formula_units_Z   2
loop_
 _symmetry_equiv_pos_site_id
 _symmetry_equiv_pos_as_xyz
  1  'x, y, z'
loop_
 _atom_site_type_symbol
 _atom_site_label
 _atom_site_symmetry_multiplicity
 _atom_site_fract_x
 _atom_site_fract_y
 _atom_site_fract_z
 _atom_site_occupancy
  Ca  Ca0  1  0.77514000  0.26745600  0.94754600  1
  Ca  Ca1  1  0.22486000  0.73254400  0.05245400  1
  Zn  Zn0  1  0.61736600  0.38988300  0.58869700  1
  Zn  Zn1  1  0.38263400  0.61011700  0.41130300  1
  Zn  Zn2  1  0.84251200  0.08331000  0.28806700  1
  Zn  Zn3  1  0.15748800  0.91669000  0.71193300  1
  P  P0  1  0.89025500  0.71916000  0.30253500  1
  P  P1  1  0.10974500  0.28084000  0.69746500  1
  P  P2  1  0.32048800  0.20874000  0.18242500  1
  P  P3  1  0.67951200  0.79126000  0.81757500  1
  O  O0  1  0.03977300  0.43893500  0.83227000  1
  O  O1  1  0.96022700  0.56106500  0.16773000  1
  O  O2  1  0.44177500  0.05215600  0.19962800  1
  O  O3  1  0.55822500  0.94784400  0.80037200  1
  O  O4  1  0.06106200  0.72746800  0.47443600  1
  O  O5  1  0.93893800  0.27253200  0.52556400  1
  O  O6  1  0.99631000  0.11758700  0.71540100  1
  O  O7  1  0.00369000  0.88241300  0.28459900  1
  O  O8  1  0.43268000  0.36717700  0.35841400  1
  O  O9  1  0.56732000  0.63282300  0.64158600  1
  O  O10  1  0.60803900  0.74325700  0.95018300  1
  O  O11  1  0.39196100  0.25674300  0.04981700  1
  O  O12  1  0.42103400  0.28833200  0.70475200  1
  O  O13  1  0.57896600  0.71166800  0.29524800  1
  O  O14  1  0.99944200  0.82935400  0.85194600  1
  O  O15  1  0.00055800  0.17064600  0.14805400  1
loop_
_geom_bond_atom_site_label_1
_geom_bond_atom_site_label_2
_geom_bond_distance
_geom_bond_site_symmetry_2
Ca0 O11 2.325470 1_556
Ca0 O15 2.398661 1_656
Ca0 O1 2.457216 1_556
Ca0 O6 2.525944 1_555
Ca0 O3 2.545171 1_545
Ca0 O0 2.560420 1_655
Ca0 O12 2.604007 1_555
Ca1 O10 2.325470 1_554
Ca1 O14 2.398661 1_454
Ca1 O0 2.457216 1_554
Ca1 O7 2.525944 1_555
Ca1 O2 2.545171 1_565
Ca1 O1 2.560420 1_455
Ca1 O13 2.604007 1_555
O0 P1 1.542916 1_555
O1 P0 1.542916 1_555
O2 P2 1.558360 1_555
O2 Zn2 1.966199 1_555
O3 P3 1.558360 1_555
O3 Zn3 1.966199 1_555
O4 P0 1.587832 1_455
O4 Zn1 2.032254 1_555
O4 Zn3 2.042174 1_555
O5 P1 1.587832 1_655
O5 Zn0 2.032254 1_555
O5 Zn2 2.042174 1_555
O6 P1 1.550126 1_655
O6 Zn3 1.941706 1_645
O7 P0 1.550126 1_455
O7 Zn2 1.941706 1_465
O8 P2 1.578597 1_555
O8 Zn1 1.982013 1_555
O8 Zn0 2.027606 1_555
O9 P3 1.578597 1_555
O9 Zn0 1.982013 1_555
O9 Zn1 2.027606 1_555
O10 P3 1.518666 1_555
O11 P2 1.518666 1_555
O12 P1 1.552648 1_555
O12 Zn0 1.972775 1_555
O13 P0 1.552648 1_555
O13 Zn1 1.972775 1_555
O14 P3 1.561054 1_555
O14 Zn3 1.977421 1_655
O15 P2 1.561054 1_555
O15 Zn2 1.977421 1_455
