# generated using pymatgen
data_CsRe2OsSe4Cl3
_symmetry_space_group_name_H-M   'P 1'
_cell_length_a   10.52345633
_cell_length_b   10.52345633
_cell_length_c   15.57382228
_cell_angle_alpha   89.79736173
_cell_angle_beta   89.79736173
_cell_angle_gamma   120.05711621
_symmetry_Int_Tables_number   1
_chemical_formula_structural   CsRe2OsSe4Cl3
_chemical_formula_sum   'Cs4 Re8 Os4 Se16 Cl12'
_cell_volume   1492.73091226
_cell_formula_units_Z   4
loop_
 _symmetry_equiv_pos_site_id
 _symmetry_equiv_pos_as_xyz
  1  'x, y, z'
loop_
 _atom_site_type_symbol
 _atom_site_label
 _atom_site_symmetry_multiplicity
 _atom_site_fract_x
 _atom_site_fract_y
 _atom_site_fract_z
 _atom_site_occupancy
  Cs  Cs0  1  0.99923500  0.99936300  0.49998300  1
  Cs  Cs1  1  0.99936300  0.99923500  0.99998300  1
  Cs  Cs2  1  0.33434700  0.66736200  0.24999200  1
  Cs  Cs3  1  0.66736200  0.33434700  0.74999200  1
  Re  Re0  1  0.66545400  0.47691500  0.31867000  1
  Re  Re1  1  0.52172600  0.18810700  0.31940400  1
  Re  Re2  1  0.47691500  0.66545400  0.81867000  1
  Re  Re3  1  0.18810700  0.52172600  0.81940400  1
  Re  Re4  1  0.18889700  0.66632400  0.68132500  1
  Re  Re5  1  0.47780100  0.81181600  0.68068100  1
  Re  Re6  1  0.66632400  0.18889700  0.18132500  1
  Re  Re7  1  0.81181600  0.47780100  0.18068100  1
  Os  Os0  1  0.81286300  0.33361000  0.32019900  1
  Os  Os1  1  0.33361000  0.81286300  0.82019900  1
  Os  Os2  1  0.33403900  0.52075600  0.67972200  1
  Os  Os3  1  0.52075600  0.33403900  0.17972200  1
  Se  Se0  1  0.66759900  0.33248200  0.44912100  1
  Se  Se1  1  0.33248200  0.66759900  0.94912100  1
  Se  Se2  1  0.33427400  0.66572900  0.55088700  1
  Se  Se3  1  0.66572900  0.33427400  0.05088700  1
  Se  Se4  1  0.94379500  0.60925200  0.31768700  1
  Se  Se5  1  0.38671600  0.33129200  0.31517200  1
  Se  Se6  1  0.67020700  0.05822100  0.31885100  1
  Se  Se7  1  0.33129200  0.38671600  0.81517200  1
  Se  Se8  1  0.60925200  0.94379500  0.81768700  1
  Se  Se9  1  0.05822100  0.67020700  0.81885100  1
  Se  Se10  1  0.05859200  0.38760800  0.68246300  1
  Se  Se11  1  0.60971600  0.66564500  0.68114200  1
  Se  Se12  1  0.33235200  0.94470800  0.68468000  1
  Se  Se13  1  0.66564500  0.60971600  0.18114200  1
  Se  Se14  1  0.38760800  0.05859200  0.18246300  1
  Se  Se15  1  0.94470800  0.33235200  0.18468000  1
  Cl  Cl0  1  0.00473800  0.33839500  0.40667200  1
  Cl  Cl1  1  0.66173800  0.66444000  0.40511100  1
  Cl  Cl2  1  0.33451700  0.99538900  0.40727800  1
  Cl  Cl3  1  0.66444000  0.66173800  0.90511100  1
  Cl  Cl4  1  0.33839500  0.00473800  0.90667200  1
  Cl  Cl5  1  0.99538900  0.33451700  0.90727800  1
  Cl  Cl6  1  0.99736100  0.66190500  0.59478600  1
  Cl  Cl7  1  0.33970700  0.33474200  0.59244500  1
  Cl  Cl8  1  0.66652600  0.00437300  0.59373300  1
  Cl  Cl9  1  0.33474200  0.33970700  0.09244500  1
  Cl  Cl10  1  0.66190500  0.99736100  0.09478600  1
  Cl  Cl11  1  0.00437300  0.66652600  0.09373300  1
loop_
_geom_bond_atom_site_label_1
_geom_bond_atom_site_label_2
_geom_bond_distance
_geom_bond_site_symmetry_2
Cs2 Se13 3.971084 1_555
Cs2 Se5 3.971496 1_555
Cs2 Se4 3.977980 1_455
Cs2 Se15 3.981287 1_455
Cs2 Se14 4.003032 1_565
Cs2 Se6 4.006947 1_565
Cs3 Se11 3.971084 1_555
Cs3 Se7 3.971496 1_555
Cs3 Se8 3.977980 1_545
Cs3 Se12 3.981287 1_545
Cs3 Se10 4.003032 1_655
Cs3 Se9 4.006947 1_655
Re0 Se4 2.536268 1_555
Re0 Se0 2.539890 1_555
Re0 Se5 2.540549 1_555
Re0 Se13 2.552749 1_555
Re1 Se5 2.537294 1_555
Re1 Se6 2.539544 1_555
Re1 Se0 2.540341 1_555
Re1 Se14 2.552039 1_555
Re2 Se8 2.536268 1_555
Re2 Se1 2.539890 1_555
Re2 Se7 2.540549 1_555
Re2 Se11 2.552749 1_555
Re3 Se7 2.537294 1_555
Re3 Se9 2.539544 1_555
Re3 Se1 2.540341 1_555
Re3 Se10 2.552039 1_555
Re4 Se12 2.536829 1_555
Re4 Se10 2.540476 1_555
Re4 Se2 2.540650 1_555
Re4 Se9 2.552675 1_555
Re5 Se11 2.536204 1_555
Re5 Se12 2.539024 1_555
Re5 Se2 2.539351 1_555
Re5 Se8 2.551963 1_555
Re6 Se15 2.536829 1_555
Re6 Se14 2.540476 1_555
Re6 Se3 2.540650 1_555
Re6 Se6 2.552675 1_555
Re7 Se13 2.536204 1_555
Re7 Se15 2.539024 1_555
Re7 Se3 2.539351 1_555
Re7 Se4 2.551963 1_555
Os0 Se6 2.509045 1_555
Os0 Se4 2.511827 1_555
Os0 Se0 2.515599 1_555
Os0 Se15 2.525378 1_555
Os0 Re7 2.649031 1_555
Os0 Re0 2.650404 1_555
Os0 Re1 2.651879 1_555
Os0 Re6 2.658822 1_555
Os1 Se9 2.509045 1_555
Os1 Se8 2.511827 1_555
Os1 Se1 2.515599 1_555
Os1 Se12 2.525378 1_555
Os1 Re5 2.649031 1_555
Os1 Re2 2.650404 1_555
Os1 Re3 2.651879 1_555
Os1 Re4 2.658822 1_555
Os2 Se10 2.509478 1_555
Os2 Se11 2.512216 1_555
Os2 Se2 2.515532 1_555
Os2 Se7 2.525487 1_555
Os2 Re2 2.648568 1_555
Os2 Re4 2.650290 1_555
Os2 Re5 2.651289 1_555
Os2 Re3 2.661395 1_555
Os3 Se14 2.509478 1_555
Os3 Se13 2.512216 1_555
Os3 Se3 2.515532 1_555
Os3 Se5 2.525487 1_555
Os3 Re0 2.648568 1_555
Os3 Re6 2.650290 1_555
Os3 Re7 2.651289 1_555
Os3 Re1 2.661395 1_555
Cl0 Os0 2.410635 1_455
Cl0 Cs0 3.821001 1_445
Cl1 Re0 2.409129 1_555
Cl1 Cs0 3.841100 1_555
Cl2 Re1 2.413731 1_565
Cl2 Cs0 3.827206 1_455
Cl3 Re2 2.409129 1_555
Cl3 Cs1 3.841100 1_555
Cl4 Os1 2.410635 1_545
Cl4 Cs1 3.821001 1_445
Cl5 Re3 2.413731 1_655
Cl5 Cs1 3.827206 1_545
Cl6 Re4 2.409785 1_655
Cl6 Cs0 3.831974 1_555
Cl7 Os2 2.412081 1_555
Cl7 Cs0 3.843500 1_445
Cl8 Re5 2.411288 1_545
Cl8 Cs0 3.813470 1_545
Cl9 Os3 2.412081 1_555
Cl9 Cs1 3.843500 1_444
Cl10 Re6 2.409785 1_565
Cl10 Cs1 3.831974 1_554
Cl11 Re7 2.411288 1_455
Cl11 Cs1 3.813470 1_454
