# generated using pymatgen
data_WO3
_symmetry_space_group_name_H-M   'P 1'
_cell_length_a   7.36612661
_cell_length_b   7.57579512
_cell_length_c   7.74727780
_cell_angle_alpha   90.00000000
_cell_angle_beta   90.00000000
_cell_angle_gamma   90.00000000
_symmetry_Int_Tables_number   1
_chemical_formula_structural   WO3
_chemical_formula_sum   'W8 O24'
_cell_volume   432.33115132
_cell_formula_units_Z   8
loop_
 _symmetry_equiv_pos_site_id
 _symmetry_equiv_pos_as_xyz
  1  'x, y, z'
loop_
 _atom_site_type_symbol
 _atom_site_label
 _atom_site_symmetry_multiplicity
 _atom_site_fract_x
 _atom_site_fract_y
 _atom_site_fract_z
 _atom_site_occupancy
  W  W0  1  0.75191050  0.02606359  0.22036068  1
  W  W1  1  0.74808950  0.02606359  0.72036068  1
  W  W2  1  0.24808950  0.97393641  0.77963932  1
  W  W3  1  0.24808950  0.47393641  0.22036068  1
  W  W4  1  0.75191050  0.52606359  0.77963932  1
  W  W5  1  0.74808950  0.52606359  0.27963932  1
  W  W6  1  0.25191050  0.97393641  0.27963932  1
  W  W7  1  0.25191050  0.47393641  0.72036068  1
  O  O0  1  0.71164023  0.75954018  0.25741979  1
  O  O1  1  0.49954269  0.03735763  0.28013555  1
  O  O2  1  0.28835977  0.24045982  0.74258021  1
  O  O3  1  0.78835977  0.25954018  0.24258021  1
  O  O4  1  0.71764336  0.01128822  0.99430715  1
  O  O5  1  -0.00045731  0.96264237  0.21986445  1
  O  O6  1  0.00045731  0.03735763  0.78013555  1
  O  O7  1  0.78835977  0.75954018  0.75741979  1
  O  O8  1  0.00045731  0.53735763  0.21986445  1
  O  O9  1  0.49954269  0.53735763  0.71986445  1
  O  O10  1  0.21764336  0.98871178  0.50569285  1
  O  O11  1  -0.00045731  0.46264237  0.78013555  1
  O  O12  1  0.50045731  0.96264237  0.71986445  1
  O  O13  1  0.21764336  0.48871178  0.49430715  1
  O  O14  1  0.71164023  0.25954018  0.74258021  1
  O  O15  1  0.28235664  0.48871178  0.99430715  1
  O  O16  1  0.50045731  0.46264237  0.28013555  1
  O  O17  1  0.71764336  0.51128822  0.00569285  1
  O  O18  1  0.21164023  0.74045982  0.75741979  1
  O  O19  1  0.28235664  0.98871178  0.00569285  1
  O  O20  1  0.78235664  0.01128822  0.49430715  1
  O  O21  1  0.28835977  0.74045982  0.25741979  1
  O  O22  1  0.78235664  0.51128822  0.50569285  1
  O  O23  1  0.21164023  0.24045982  0.24258021  1
loop_
_geom_bond_atom_site_label_1
_geom_bond_atom_site_label_2
_geom_bond_distance
_geom_bond_site_symmetry_2
O0 W5 1.797295 1_555
O0 W0 2.060897 1_565
O1 W6 1.886310 1_545
O1 W0 1.917696 1_555
O2 W7 1.797295 1_555
O2 W2 2.060897 1_545
O3 W0 1.797295 1_555
O3 W5 2.060897 1_555
O4 W0 1.772934 1_556
O4 W1 2.137089 1_555
O5 W0 1.886310 1_465
O5 W6 1.917696 1_555
O6 W2 1.886310 1_545
O6 W1 1.917696 1_455
O7 W4 1.797295 1_555
O7 W1 2.060897 1_565
O8 W3 1.886310 1_555
O8 W5 1.917696 1_455
O9 W7 1.886310 1_555
O9 W4 1.917696 1_555
O10 W6 1.772934 1_555
O10 W2 2.137089 1_555
O11 W4 1.886310 1_455
O11 W7 1.917696 1_555
O12 W1 1.886310 1_565
O12 W2 1.917696 1_555
O13 W7 1.772934 1_555
O13 W3 2.137089 1_555
O14 W1 1.797295 1_555
O14 W4 2.060897 1_555
O15 W3 1.772934 1_556
O15 W7 2.137089 1_555
O16 W5 1.886310 1_555
O16 W3 1.917696 1_555
O17 W4 1.772934 1_554
O17 W5 2.137089 1_555
O18 W2 1.797295 1_555
O18 W7 2.060897 1_555
O19 W2 1.772934 1_554
O19 W6 2.137089 1_555
O20 W1 1.772934 1_555
O20 W0 2.137089 1_555
O21 W6 1.797295 1_555
O21 W3 2.060897 1_555
O22 W5 1.772934 1_555
O22 W4 2.137089 1_555
O23 W3 1.797295 1_555
O23 W6 2.060897 1_545
