# generated using pymatgen
data_NaGa(SeO3)2
_symmetry_space_group_name_H-M   'P 1'
_cell_length_a   5.40304800
_cell_length_b   7.96404900
_cell_length_c   12.69423900
_cell_angle_alpha   90.00000000
_cell_angle_beta   90.00000000
_cell_angle_gamma   90.00000000
_symmetry_Int_Tables_number   1
_chemical_formula_structural   NaGa(SeO3)2
_chemical_formula_sum   'Na4 Ga4 Se8 O24'
_cell_volume   546.23486894
_cell_formula_units_Z   4
loop_
 _symmetry_equiv_pos_site_id
 _symmetry_equiv_pos_as_xyz
  1  'x, y, z'
loop_
 _atom_site_type_symbol
 _atom_site_label
 _atom_site_symmetry_multiplicity
 _atom_site_fract_x
 _atom_site_fract_y
 _atom_site_fract_z
 _atom_site_occupancy
  Na  Na0  1  0.25000000  0.48938300  0.38531100  1
  Na  Na1  1  0.25000000  0.01061700  0.88531100  1
  Na  Na2  1  0.75000000  0.51061700  0.61468900  1
  Na  Na3  1  0.75000000  0.98938300  0.11468900  1
  Ga  Ga0  1  0.75000000  0.79953700  0.39841900  1
  Ga  Ga1  1  0.75000000  0.70046300  0.89841900  1
  Ga  Ga2  1  0.25000000  0.20046300  0.60158100  1
  Ga  Ga3  1  0.25000000  0.29953700  0.10158100  1
  Se  Se0  1  0.25000000  0.78960900  0.56648400  1
  Se  Se1  1  0.25000000  0.71039100  0.06648400  1
  Se  Se2  1  0.75000000  0.21039100  0.43351600  1
  Se  Se3  1  0.75000000  0.28960900  0.93351600  1
  Se  Se4  1  0.75000000  0.50974700  0.20580500  1
  Se  Se5  1  0.75000000  0.99025300  0.70580500  1
  Se  Se6  1  0.25000000  0.49025300  0.79419500  1
  Se  Se7  1  0.25000000  0.00974700  0.29419500  1
  O  O0  1  0.25000000  0.99199800  0.51990500  1
  O  O1  1  0.25000000  0.50800200  0.01990500  1
  O  O2  1  0.75000000  0.00800200  0.48009500  1
  O  O3  1  0.75000000  0.49199800  0.98009500  1
  O  O4  1  0.00505900  0.70061100  0.49805200  1
  O  O5  1  0.49494100  0.79938900  0.99805200  1
  O  O6  1  0.50505900  0.29938900  0.50194800  1
  O  O7  1  0.99494100  0.20061100  0.00194800  1
  O  O8  1  0.99494100  0.29938900  0.50194800  1
  O  O9  1  0.50505900  0.20061100  0.00194800  1
  O  O10  1  0.49494100  0.70061100  0.49805200  1
  O  O11  1  0.00505900  0.79938900  0.99805200  1
  O  O12  1  0.75000000  0.56621000  0.33812200  1
  O  O13  1  0.75000000  0.93379000  0.83812200  1
  O  O14  1  0.25000000  0.43379000  0.66187800  1
  O  O15  1  0.25000000  0.06621000  0.16187800  1
  O  O16  1  0.99956600  0.37281300  0.21157000  1
  O  O17  1  0.50043400  0.12718700  0.71157000  1
  O  O18  1  0.49956600  0.62718700  0.78843000  1
  O  O19  1  0.00043400  0.87281300  0.28843000  1
  O  O20  1  0.00043400  0.62718700  0.78843000  1
  O  O21  1  0.49956600  0.87281300  0.28843000  1
  O  O22  1  0.50043400  0.37281300  0.21157000  1
  O  O23  1  0.99956600  0.12718700  0.71157000  1
loop_
_geom_bond_atom_site_label_1
_geom_bond_atom_site_label_2
_geom_bond_distance
_geom_bond_site_symmetry_2
Na0 O6 2.526047 1_555
Na0 O8 2.526047 1_455
Na0 O10 2.574798 1_555
Na0 O4 2.574798 1_555
Na0 O22 2.749007 1_555
Na0 O16 2.749007 1_455
Na0 O12 2.833978 1_555
Na0 O12 2.833978 1_455
Na1 O9 2.526047 1_556
Na1 O7 2.526047 1_456
Na1 O5 2.574798 1_545
Na1 O11 2.574798 1_545
Na1 O17 2.749007 1_555
Na1 O23 2.749007 1_455
Na1 O13 2.833978 1_445
Na1 O13 2.833978 1_545
Na2 O4 2.526047 1_655
Na2 O10 2.526047 1_555
Na2 O8 2.574798 1_555
Na2 O6 2.574798 1_555
Na2 O20 2.749007 1_655
Na2 O18 2.749007 1_555
Na2 O14 2.833978 1_555
Na2 O14 2.833978 1_655
Na3 O11 2.526047 1_654
Na3 O5 2.526047 1_554
Na3 O7 2.574798 1_565
Na3 O9 2.574798 1_565
Na3 O19 2.749007 1_655
Na3 O21 2.749007 1_555
Na3 O15 2.833978 1_565
Na3 O15 2.833978 1_665
Ga0 O2 1.957379 1_565
Ga0 O12 2.009698 1_555
Ga0 O4 2.029653 1_655
Ga0 O10 2.029653 1_555
Ga0 O19 2.030001 1_655
Ga0 O21 2.030001 1_555
Ga1 O3 1.957379 1_555
Ga1 O13 2.009698 1_555
Ga1 O11 2.029653 1_655
Ga1 O5 2.029653 1_555
Ga1 O20 2.030001 1_655
Ga1 O18 2.030001 1_555
Ga2 O0 1.957379 1_545
Ga2 O14 2.009698 1_555
Ga2 O6 2.029653 1_555
Ga2 O8 2.029653 1_455
Ga2 O17 2.030001 1_555
Ga2 O23 2.030001 1_455
Ga3 O1 1.957379 1_555
Ga3 O15 2.009698 1_555
Ga3 O9 2.029653 1_555
Ga3 O7 2.029653 1_455
Ga3 O22 2.030001 1_555
Ga3 O16 2.030001 1_455
O0 Se0 1.716867 1_555
O1 Se1 1.716867 1_555
O2 Se2 1.716867 1_555
O3 Se3 1.716867 1_555
O4 Se0 1.734492 1_555
O5 Se1 1.734492 1_556
O6 Se2 1.734492 1_555
O7 Se3 1.734492 1_554
O8 Se2 1.734492 1_555
O9 Se3 1.734492 1_554
O10 Se0 1.734492 1_555
O11 Se1 1.734492 1_556
O12 Se4 1.738815 1_555
O13 Se5 1.738815 1_555
O14 Se6 1.738815 1_555
O15 Se7 1.738815 1_555
O16 Se4 1.735765 1_555
O17 Se5 1.735765 1_545
O18 Se6 1.735765 1_555
O19 Se7 1.735765 1_565
O20 Se6 1.735765 1_555
O21 Se7 1.735765 1_565
O22 Se4 1.735765 1_555
O23 Se5 1.735765 1_545
