# generated using pymatgen
data_Pr3Si2BO10
_symmetry_space_group_name_H-M   'P 1'
_cell_length_a   7.22211500
_cell_length_b   9.94071800
_cell_length_c   23.36359100
_cell_angle_alpha   90.00000000
_cell_angle_beta   90.00000000
_cell_angle_gamma   90.00000000
_symmetry_Int_Tables_number   1
_chemical_formula_structural   Pr3Si2BO10
_chemical_formula_sum   'Pr24 Si16 B8 O80'
_cell_volume   1677.34248909
_cell_formula_units_Z   8
loop_
 _symmetry_equiv_pos_site_id
 _symmetry_equiv_pos_as_xyz
  1  'x, y, z'
loop_
 _atom_site_type_symbol
 _atom_site_label
 _atom_site_symmetry_multiplicity
 _atom_site_fract_x
 _atom_site_fract_y
 _atom_site_fract_z
 _atom_site_occupancy
  Pr  Pr0  1  0.63993200  0.00818000  0.07151100  1
  Pr  Pr1  1  0.86006800  0.50818000  0.92848900  1
  Pr  Pr2  1  0.13993200  0.99182000  0.42848900  1
  Pr  Pr3  1  0.36006800  0.49182000  0.57151100  1
  Pr  Pr4  1  0.36006800  0.99182000  0.92848900  1
  Pr  Pr5  1  0.13993200  0.49182000  0.07151100  1
  Pr  Pr6  1  0.86006800  0.00818000  0.57151100  1
  Pr  Pr7  1  0.63993200  0.50818000  0.42848900  1
  Pr  Pr8  1  0.67453600  0.36559700  0.16303600  1
  Pr  Pr9  1  0.82546400  0.86559700  0.83696400  1
  Pr  Pr10  1  0.17453600  0.63440300  0.33696400  1
  Pr  Pr11  1  0.32546400  0.13440300  0.66303600  1
  Pr  Pr12  1  0.32546400  0.63440300  0.83696400  1
  Pr  Pr13  1  0.17453600  0.13440300  0.16303600  1
  Pr  Pr14  1  0.82546400  0.36559700  0.66303600  1
  Pr  Pr15  1  0.67453600  0.86559700  0.33696400  1
  Pr  Pr16  1  0.90502900  0.23227000  0.31786400  1
  Pr  Pr17  1  0.59497100  0.73227000  0.68213600  1
  Pr  Pr18  1  0.40502900  0.76773000  0.18213600  1
  Pr  Pr19  1  0.09497100  0.26773000  0.81786400  1
  Pr  Pr20  1  0.09497100  0.76773000  0.68213600  1
  Pr  Pr21  1  0.40502900  0.26773000  0.31786400  1
  Pr  Pr22  1  0.59497100  0.23227000  0.81786400  1
  Pr  Pr23  1  0.90502900  0.73227000  0.18213600  1
  Si  Si0  1  0.64209200  0.12289700  0.42141500  1
  Si  Si1  1  0.85790800  0.62289700  0.57858500  1
  Si  Si2  1  0.14209200  0.87710300  0.07858500  1
  Si  Si3  1  0.35790800  0.37710300  0.92141500  1
  Si  Si4  1  0.35790800  0.87710300  0.57858500  1
  Si  Si5  1  0.14209200  0.37710300  0.42141500  1
  Si  Si6  1  0.85790800  0.12289700  0.92141500  1
  Si  Si7  1  0.64209200  0.62289700  0.07858500  1
  Si  Si8  1  0.68261900  0.06205500  0.22067600  1
  Si  Si9  1  0.81738100  0.56205500  0.77932400  1
  Si  Si10  1  0.18261900  0.93794500  0.27932400  1
  Si  Si11  1  0.31738100  0.43794500  0.72067600  1
  Si  Si12  1  0.31738100  0.93794500  0.77932400  1
  Si  Si13  1  0.18261900  0.43794500  0.22067600  1
  Si  Si14  1  0.81738100  0.06205500  0.72067600  1
  Si  Si15  1  0.68261900  0.56205500  0.27932400  1
  B  B0  1  0.64927500  0.25342300  0.52780300  1
  B  B1  1  0.85072500  0.75342300  0.47219700  1
  B  B2  1  0.14927500  0.74657700  0.97219700  1
  B  B3  1  0.35072500  0.24657700  0.02780300  1
  B  B4  1  0.35072500  0.74657700  0.47219700  1
  B  B5  1  0.14927500  0.24657700  0.52780300  1
  B  B6  1  0.85072500  0.25342300  0.02780300  1
  B  B7  1  0.64927500  0.75342300  0.97219700  1
  O  O0  1  0.72975100  0.23690600  0.58061500  1
  O  O1  1  0.77024900  0.73690600  0.41938500  1
  O  O2  1  0.22975100  0.76309400  0.91938500  1
  O  O3  1  0.27024900  0.26309400  0.08061500  1
  O  O4  1  0.27024900  0.76309400  0.41938500  1
  O  O5  1  0.22975100  0.26309400  0.58061500  1
  O  O6  1  0.77024900  0.23690600  0.08061500  1
  O  O7  1  0.72975100  0.73690600  0.91938500  1
  O  O8  1  0.57215400  0.36883500  0.50847700  1
  O  O9  1  0.92784600  0.86883500  0.49152300  1
  O  O10  1  0.07215400  0.63116500  0.99152300  1
  O  O11  1  0.42784600  0.13116500  0.00847700  1
  O  O12  1  0.42784600  0.63116500  0.49152300  1
  O  O13  1  0.07215400  0.13116500  0.50847700  1
  O  O14  1  0.92784600  0.36883500  0.00847700  1
  O  O15  1  0.57215400  0.86883500  0.99152300  1
  O  O16  1  0.65334000  0.13552800  0.49228400  1
  O  O17  1  0.84666000  0.63552800  0.50771600  1
  O  O18  1  0.15334000  0.86447200  0.00771600  1
  O  O19  1  0.34666000  0.36447200  0.99228400  1
  O  O20  1  0.34666000  0.86447200  0.50771600  1
  O  O21  1  0.15334000  0.36447200  0.49228400  1
  O  O22  1  0.84666000  0.13552800  0.99228400  1
  O  O23  1  0.65334000  0.63552800  0.00771600  1
  O  O24  1  0.82545400  0.04803900  0.39466000  1
  O  O25  1  0.67454600  0.54803900  0.60534000  1
  O  O26  1  0.32545400  0.95196100  0.10534000  1
  O  O27  1  0.17454600  0.45196100  0.89466000  1
  O  O28  1  0.17454600  0.95196100  0.60534000  1
  O  O29  1  0.32545400  0.45196100  0.39466000  1
  O  O30  1  0.67454600  0.04803900  0.89466000  1
  O  O31  1  0.82545400  0.54803900  0.10534000  1
  O  O32  1  0.64731300  0.27331300  0.39098400  1
  O  O33  1  0.85268700  0.77331300  0.60901600  1
  O  O34  1  0.14731300  0.72668700  0.10901600  1
  O  O35  1  0.35268700  0.22668700  0.89098400  1
  O  O36  1  0.35268700  0.72668700  0.60901600  1
  O  O37  1  0.14731300  0.22668700  0.39098400  1
  O  O38  1  0.85268700  0.27331300  0.89098400  1
  O  O39  1  0.64731300  0.77331300  0.10901600  1
  O  O40  1  0.46413600  0.03763500  0.39810900  1
  O  O41  1  0.03586400  0.53763500  0.60189100  1
  O  O42  1  0.96413600  0.96236500  0.10189100  1
  O  O43  1  0.53586400  0.46236500  0.89810900  1
  O  O44  1  0.53586400  0.96236500  0.60189100  1
  O  O45  1  0.96413600  0.46236500  0.39810900  1
  O  O46  1  0.03586400  0.03763500  0.89810900  1
  O  O47  1  0.46413600  0.53763500  0.10189100  1
  O  O48  1  0.70109300  0.89668500  0.22107000  1
  O  O49  1  0.79890700  0.39668500  0.77893000  1
  O  O50  1  0.20109300  0.10331500  0.27893000  1
  O  O51  1  0.29890700  0.60331500  0.72107000  1
  O  O52  1  0.29890700  0.10331500  0.77893000  1
  O  O53  1  0.20109300  0.60331500  0.22107000  1
  O  O54  1  0.79890700  0.89668500  0.72107000  1
  O  O55  1  0.70109300  0.39668500  0.27893000  1
  O  O56  1  0.62937200  0.09862900  0.28785000  1
  O  O57  1  0.87062800  0.59862900  0.71215000  1
  O  O58  1  0.12937200  0.90137100  0.21215000  1
  O  O59  1  0.37062800  0.40137100  0.78785000  1
  O  O60  1  0.37062800  0.90137100  0.71215000  1
  O  O61  1  0.12937200  0.40137100  0.28785000  1
  O  O62  1  0.87062800  0.09862900  0.78785000  1
  O  O63  1  0.62937200  0.59862900  0.21215000  1
  O  O64  1  0.53402100  0.10818700  0.17162900  1
  O  O65  1  0.96597900  0.60818700  0.82837100  1
  O  O66  1  0.03402100  0.89181300  0.32837100  1
  O  O67  1  0.46597900  0.39181300  0.67162900  1
  O  O68  1  0.46597900  0.89181300  0.82837100  1
  O  O69  1  0.03402100  0.39181300  0.17162900  1
  O  O70  1  0.96597900  0.10818700  0.67162900  1
  O  O71  1  0.53402100  0.60818700  0.32837100  1
  O  O72  1  0.86902800  0.15509500  0.21089500  1
  O  O73  1  0.63097200  0.65509500  0.78910500  1
  O  O74  1  0.36902800  0.84490500  0.28910500  1
  O  O75  1  0.13097200  0.34490500  0.71089500  1
  O  O76  1  0.13097200  0.84490500  0.78910500  1
  O  O77  1  0.36902800  0.34490500  0.21089500  1
  O  O78  1  0.63097200  0.15509500  0.71089500  1
  O  O79  1  0.86902800  0.65509500  0.28910500  1
loop_
_geom_bond_atom_site_label_1
_geom_bond_atom_site_label_2
_geom_bond_distance
_geom_bond_site_symmetry_2
B0 O8 1.352902 1_555
B0 O0 1.373759 1_555
B0 O16 1.436317 1_555
B1 O9 1.352902 1_555
B1 O1 1.373759 1_555
B1 O17 1.436317 1_555
B2 O10 1.352902 1_555
B2 O2 1.373759 1_555
B2 O18 1.436317 1_556
B3 O11 1.352902 1_555
B3 O3 1.373759 1_555
B3 O19 1.436317 1_554
B4 O12 1.352902 1_555
B4 O4 1.373759 1_555
B4 O20 1.436317 1_555
B5 O13 1.352902 1_555
B5 O5 1.373759 1_555
B5 O21 1.436317 1_555
B6 O14 1.352902 1_555
B6 O6 1.373759 1_555
B6 O22 1.436317 1_554
B7 O15 1.352902 1_555
B7 O7 1.373759 1_555
B7 O23 1.436317 1_556
O0 Pr14 2.412989 1_555
O0 Pr6 2.469969 1_555
O1 Pr15 2.412989 1_555
O1 Pr7 2.469969 1_555
O2 Pr12 2.412989 1_555
O2 Pr4 2.469969 1_555
O3 Pr13 2.412989 1_555
O3 Pr5 2.469969 1_555
O4 Pr10 2.412989 1_555
O4 Pr2 2.469969 1_555
O5 Pr11 2.412989 1_555
O5 Pr3 2.469969 1_555
O6 Pr8 2.412989 1_555
O6 Pr0 2.469969 1_555
O7 Pr9 2.412989 1_555
O7 Pr1 2.469969 1_555
O8 Pr7 2.377141 1_555
O8 Pr3 2.451455 1_555
O9 Pr6 2.377141 1_565
O9 Pr2 2.451455 1_655
O10 Pr5 2.377141 1_556
O10 Pr1 2.451455 1_455
O11 Pr4 2.377141 1_544
O11 Pr0 2.451455 1_555
O12 Pr3 2.377141 1_555
O12 Pr7 2.451455 1_555
O13 Pr2 2.377141 1_545
O13 Pr6 2.451455 1_455
O14 Pr1 2.377141 1_554
O14 Pr5 2.451455 1_655
O15 Pr0 2.377141 1_566
O15 Pr4 2.451455 1_555
O16 Si0 1.662494 1_555
O16 Pr6 2.694062 1_555
O17 Si1 1.662494 1_555
O17 Pr7 2.694062 1_555
O18 Si2 1.662494 1_555
O18 Pr4 2.694062 1_554
O19 Si3 1.662494 1_555
O19 Pr5 2.694062 1_556
O20 Si4 1.662494 1_555
O20 Pr2 2.694062 1_555
O21 Si5 1.662494 1_555
O21 Pr3 2.694062 1_555
O22 Si6 1.662494 1_555
O22 Pr0 2.694062 1_556
O23 Si7 1.662494 1_555
O23 Pr1 2.694062 1_554
O24 Si0 1.642607 1_555
O24 Pr2 2.468873 1_645
O24 Pr15 2.508827 1_545
O24 Pr16 2.627456 1_555
O25 Si1 1.642607 1_555
O25 Pr3 2.468873 1_555
O25 Pr14 2.508827 1_555
O25 Pr17 2.627456 1_555
O26 Si2 1.642607 1_555
O26 Pr0 2.468873 1_565
O26 Pr13 2.508827 1_565
O26 Pr18 2.627456 1_555
O27 Si3 1.642607 1_555
O27 Pr1 2.468873 1_455
O27 Pr12 2.508827 1_555
O27 Pr19 2.627456 1_555
O28 Si4 1.642607 1_555
O28 Pr6 2.468873 1_465
O28 Pr11 2.508827 1_565
O28 Pr20 2.627456 1_555
O29 Si5 1.642607 1_555
O29 Pr7 2.468873 1_555
O29 Pr10 2.508827 1_555
O29 Pr21 2.627456 1_555
O30 Si6 1.642607 1_555
O30 Pr4 2.468873 1_545
O30 Pr9 2.508827 1_545
O30 Pr22 2.627456 1_555
O31 Si7 1.642607 1_555
O31 Pr5 2.468873 1_655
O31 Pr8 2.508827 1_555
O31 Pr23 2.627456 1_555
O32 Si0 1.656099 1_555
O32 Pr21 2.446086 1_555
O32 Pr7 2.494334 1_555
O32 Pr16 2.559136 1_555
O33 Si1 1.656099 1_555
O33 Pr20 2.446086 1_655
O33 Pr6 2.494334 1_565
O33 Pr17 2.559136 1_555
O34 Si2 1.656099 1_555
O34 Pr23 2.446086 1_455
O34 Pr5 2.494334 1_555
O34 Pr18 2.559136 1_555
O35 Si3 1.656099 1_555
O35 Pr22 2.446086 1_555
O35 Pr4 2.494334 1_545
O35 Pr19 2.559136 1_555
O36 Si4 1.656099 1_555
O36 Pr17 2.446086 1_555
O36 Pr3 2.494334 1_555
O36 Pr20 2.559136 1_555
O37 Si5 1.656099 1_555
O37 Pr16 2.446086 1_455
O37 Pr2 2.494334 1_545
O37 Pr21 2.559136 1_555
O38 Si6 1.656099 1_555
O38 Pr19 2.446086 1_655
O38 Pr1 2.494334 1_555
O38 Pr22 2.559136 1_555
O39 Si7 1.656099 1_555
O39 Pr18 2.446086 1_555
O39 Pr0 2.494334 1_565
O39 Pr23 2.559136 1_555
O40 Si0 1.632987 1_555
O40 Pr2 2.488685 1_545
O40 Pr15 2.697129 1_545
O40 Pr21 2.988131 1_555
O41 Si1 1.632987 1_455
O41 Pr3 2.488685 1_555
O41 Pr14 2.697129 1_455
O41 Pr20 2.988131 1_555
O42 Si2 1.632987 1_655
O42 Pr0 2.488685 1_565
O42 Pr13 2.697129 1_665
O42 Pr23 2.988131 1_555
O43 Si3 1.632987 1_555
O43 Pr1 2.488685 1_555
O43 Pr12 2.697129 1_555
O43 Pr22 2.988131 1_555
O44 Si4 1.632987 1_555
O44 Pr6 2.488685 1_565
O44 Pr11 2.697129 1_565
O44 Pr17 2.988131 1_555
O45 Si5 1.632987 1_655
O45 Pr7 2.488685 1_555
O45 Pr10 2.697129 1_655
O45 Pr16 2.988131 1_555
O46 Si6 1.632987 1_455
O46 Pr4 2.488685 1_545
O46 Pr9 2.697129 1_445
O46 Pr19 2.988131 1_555
O47 Si7 1.632987 1_555
O47 Pr5 2.488685 1_555
O47 Pr8 2.697129 1_555
O47 Pr18 2.988131 1_555
O48 Si8 1.649328 1_565
O48 Pr23 2.380756 1_555
O48 Pr18 2.653801 1_555
O48 Pr15 2.732019 1_555
O49 Si9 1.649328 1_555
O49 Pr22 2.380756 1_555
O49 Pr19 2.653801 1_655
O49 Pr14 2.732019 1_555
O50 Si10 1.649328 1_545
O50 Pr21 2.380756 1_555
O50 Pr16 2.653801 1_455
O50 Pr13 2.732019 1_555
O51 Si11 1.649328 1_555
O51 Pr20 2.380756 1_555
O51 Pr17 2.653801 1_555
O51 Pr12 2.732019 1_555
O52 Si12 1.649328 1_545
O52 Pr19 2.380756 1_555
O52 Pr22 2.653801 1_555
O52 Pr11 2.732019 1_555
O53 Si13 1.649328 1_555
O53 Pr18 2.380756 1_555
O53 Pr23 2.653801 1_455
O53 Pr10 2.732019 1_555
O54 Si14 1.649328 1_565
O54 Pr17 2.380756 1_555
O54 Pr20 2.653801 1_655
O54 Pr9 2.732019 1_555
O55 Si15 1.649328 1_555
O55 Pr16 2.380756 1_555
O55 Pr21 2.653801 1_555
O55 Pr8 2.732019 1_555
O56 Si8 1.656250 1_555
O56 Pr21 2.437743 1_555
O56 Pr16 2.493993 1_555
O56 Pr15 2.605628 1_545
O57 Si9 1.656250 1_555
O57 Pr20 2.437743 1_655
O57 Pr17 2.493993 1_555
O57 Pr14 2.605628 1_555
O58 Si10 1.656250 1_555
O58 Pr23 2.437743 1_455
O58 Pr18 2.493993 1_555
O58 Pr13 2.605628 1_565
O59 Si11 1.656250 1_555
O59 Pr22 2.437743 1_555
O59 Pr19 2.493993 1_555
O59 Pr12 2.605628 1_555
O60 Si12 1.656250 1_555
O60 Pr17 2.437743 1_555
O60 Pr20 2.493993 1_555
O60 Pr11 2.605628 1_565
O61 Si13 1.656250 1_555
O61 Pr16 2.437743 1_455
O61 Pr21 2.493993 1_555
O61 Pr10 2.605628 1_555
O62 Si14 1.656250 1_555
O62 Pr19 2.437743 1_655
O62 Pr22 2.493993 1_555
O62 Pr9 2.605628 1_545
O63 Si15 1.656250 1_555
O63 Pr18 2.437743 1_555
O63 Pr23 2.493993 1_555
O63 Pr8 2.605628 1_555
O64 Si8 1.635592 1_555
O64 Pr13 2.617001 1_555
O64 Pr0 2.654215 1_555
O64 Pr8 2.760040 1_555
O65 Si9 1.635592 1_555
O65 Pr12 2.617001 1_655
O65 Pr1 2.654215 1_555
O65 Pr9 2.760040 1_555
O66 Si10 1.635592 1_555
O66 Pr15 2.617001 1_455
O66 Pr2 2.654215 1_555
O66 Pr10 2.760040 1_555
O67 Si11 1.635592 1_555
O67 Pr14 2.617001 1_555
O67 Pr3 2.654215 1_555
O67 Pr11 2.760040 1_555
O68 Si12 1.635592 1_555
O68 Pr9 2.617001 1_555
O68 Pr4 2.654215 1_555
O68 Pr12 2.760040 1_555
O69 Si13 1.635592 1_555
O69 Pr8 2.617001 1_455
O69 Pr5 2.654215 1_555
O69 Pr13 2.760040 1_555
O70 Si14 1.635592 1_555
O70 Pr11 2.617001 1_655
O70 Pr6 2.654215 1_555
O70 Pr14 2.760040 1_555
O71 Si15 1.635592 1_555
O71 Pr10 2.617001 1_555
O71 Pr7 2.654215 1_555
O71 Pr15 2.760040 1_555
O72 Si8 1.649263 1_555
O72 Pr13 2.482106 1_655
O72 Pr16 2.627177 1_555
O72 Pr8 2.757178 1_555
O73 Si9 1.649263 1_555
O73 Pr12 2.482106 1_555
O73 Pr17 2.627177 1_555
O73 Pr9 2.757178 1_555
O74 Si10 1.649263 1_555
O74 Pr15 2.482106 1_555
O74 Pr18 2.627177 1_555
O74 Pr10 2.757178 1_555
O75 Si11 1.649263 1_555
O75 Pr14 2.482106 1_455
O75 Pr19 2.627177 1_555
O75 Pr11 2.757178 1_555
O76 Si12 1.649263 1_555
O76 Pr9 2.482106 1_455
O76 Pr20 2.627177 1_555
O76 Pr12 2.757178 1_555
O77 Si13 1.649263 1_555
O77 Pr8 2.482106 1_555
O77 Pr21 2.627177 1_555
O77 Pr13 2.757178 1_555
O78 Si14 1.649263 1_555
O78 Pr11 2.482106 1_555
O78 Pr22 2.627177 1_555
O78 Pr14 2.757178 1_555
O79 Si15 1.649263 1_555
O79 Pr10 2.482106 1_655
O79 Pr23 2.627177 1_555
O79 Pr15 2.757178 1_555
