# generated using pymatgen
data_K3NaMoC4(N2O)2
_symmetry_space_group_name_H-M   'P 1'
_cell_length_a   7.77044300
_cell_length_b   12.48465200
_cell_length_c   7.96551100
_cell_angle_alpha   90.00000000
_cell_angle_beta   90.00000000
_cell_angle_gamma   90.00000000
_symmetry_Int_Tables_number   1
_chemical_formula_structural   K3NaMoC4(N2O)2
_chemical_formula_sum   'K6 Na2 Mo2 C8 N8 O4'
_cell_volume   772.74439200
_cell_formula_units_Z   2
loop_
 _symmetry_equiv_pos_site_id
 _symmetry_equiv_pos_as_xyz
  1  'x, y, z'
loop_
 _atom_site_type_symbol
 _atom_site_label
 _atom_site_symmetry_multiplicity
 _atom_site_fract_x
 _atom_site_fract_y
 _atom_site_fract_z
 _atom_site_occupancy
  K  K0  1  0.75125600  0.75000000  0.75000000  1
  K  K1  1  0.24874400  0.25000000  0.25000000  1
  K  K2  1  0.24874400  0.75000000  0.25000000  1
  K  K3  1  0.75125600  0.25000000  0.75000000  1
  K  K4  1  0.00000000  0.00000000  0.00000000  1
  K  K5  1  0.00000000  0.50000000  0.50000000  1
  Na  Na0  1  0.50000000  0.00000000  0.00000000  1
  Na  Na1  1  0.50000000  0.50000000  0.50000000  1
  Mo  Mo0  1  0.00000000  0.50000000  0.00000000  1
  Mo  Mo1  1  0.00000000  0.00000000  0.50000000  1
  C  C0  1  0.00000000  0.67654800  0.00000000  1
  C  C1  1  0.00000000  0.32345200  0.00000000  1
  C  C2  1  0.00000000  0.82345200  0.50000000  1
  C  C3  1  0.00000000  0.17654800  0.50000000  1
  C  C4  1  0.77971800  0.00000000  0.67222800  1
  C  C5  1  0.22028200  0.00000000  0.32777200  1
  C  C6  1  0.22028200  0.50000000  0.17222800  1
  C  C7  1  0.77971800  0.50000000  0.82777200  1
  N  N0  1  0.67790400  0.00000000  0.78303100  1
  N  N1  1  0.32209600  0.00000000  0.21696900  1
  N  N2  1  0.32209600  0.50000000  0.28303100  1
  N  N3  1  0.67790400  0.50000000  0.71696900  1
  N  N4  1  0.00000000  0.77136200  0.00000000  1
  N  N5  1  0.00000000  0.22863800  0.00000000  1
  N  N6  1  0.00000000  0.72863800  0.50000000  1
  N  N7  1  0.00000000  0.27136200  0.50000000  1
  O  O0  1  0.85898600  0.00000000  0.31043600  1
  O  O1  1  0.14101400  0.00000000  0.68956400  1
  O  O2  1  0.14101400  0.50000000  0.81043600  1
  O  O3  1  0.85898600  0.50000000  0.18956400  1
loop_
_geom_bond_atom_site_label_1
_geom_bond_atom_site_label_2
_geom_bond_distance
_geom_bond_site_symmetry_2
K0 N6 2.787943 1_655
K0 N4 2.787943 1_656
K0 N3 3.183671 1_555
K0 N0 3.183671 1_565
K1 N7 2.787943 1_555
K1 N5 2.787943 1_555
K1 N1 3.183671 1_555
K1 N2 3.183671 1_555
K2 N6 2.787943 1_555
K2 N4 2.787943 1_555
K2 N1 3.183671 1_565
K2 N2 3.183671 1_555
K3 N5 2.787943 1_656
K3 N7 2.787943 1_655
K3 N3 3.183671 1_555
K3 N0 3.183671 1_555
K4 O0 2.704680 1_455
K4 O1 2.704680 1_554
K4 N4 2.854466 1_545
K4 N5 2.854466 1_555
K4 N1 3.041556 1_555
K4 N0 3.041556 1_454
K5 O3 2.704680 1_455
K5 O2 2.704680 1_555
K5 N7 2.854466 1_555
K5 N6 2.854466 1_555
K5 N2 3.041556 1_555
K5 N3 3.041556 1_455
Mo0 O2 1.865656 1_554
Mo0 O3 1.865656 1_455
Mo1 O1 1.865656 1_555
Mo1 O0 1.865656 1_455
C0 N4 1.183720 1_555
C0 Mo0 2.204140 1_555
C0 K0 2.922743 1_454
C0 K2 2.922743 1_555
C1 N5 1.183720 1_555
C1 Mo0 2.204140 1_555
C1 K1 2.922743 1_555
C1 K3 2.922743 1_454
C2 N6 1.183720 1_555
C2 Mo1 2.204140 1_565
C2 K0 2.922743 1_455
C2 K2 2.922743 1_555
C3 N7 1.183720 1_555
C3 Mo1 2.204140 1_555
C3 K3 2.922743 1_455
C3 K1 2.922743 1_555
C4 N0 1.185280 1_555
C4 Mo1 2.193614 1_655
C4 K4 3.121943 1_656
C4 K3 3.189725 1_555
C4 K0 3.189725 1_545
C5 N1 1.185280 1_555
C5 Mo1 2.193614 1_555
C5 K4 3.121943 1_555
C5 K2 3.189725 1_545
C5 K1 3.189725 1_555
C6 N2 1.185280 1_555
C6 Mo0 2.193614 1_555
C6 K5 3.121943 1_555
C6 K1 3.189725 1_555
C6 K2 3.189725 1_555
C7 N3 1.185280 1_555
C7 Mo0 2.193614 1_656
C7 K5 3.121943 1_655
C7 K3 3.189725 1_555
C7 K0 3.189725 1_555
N0 Na0 2.213125 1_556
N1 Na0 2.213125 1_555
N2 Na1 2.213125 1_555
N3 Na1 2.213125 1_555
