# generated using pymatgen
data_NdSm(NiO3)4
_symmetry_space_group_name_H-M   'P 1'
_cell_length_a   5.32855847
_cell_length_b   5.32855847
_cell_length_c   7.55404806
_cell_angle_alpha   90.00000000
_cell_angle_beta   90.00000000
_cell_angle_gamma   90.00000000
_symmetry_Int_Tables_number   1
_chemical_formula_structural   NdSm(NiO3)4
_chemical_formula_sum   'Nd1 Sm1 Ni4 O12'
_cell_volume   214.48613076
_cell_formula_units_Z   1
loop_
 _symmetry_equiv_pos_site_id
 _symmetry_equiv_pos_as_xyz
  1  'x, y, z'
loop_
 _atom_site_type_symbol
 _atom_site_label
 _atom_site_symmetry_multiplicity
 _atom_site_fract_x
 _atom_site_fract_y
 _atom_site_fract_z
 _atom_site_occupancy
  Nd  Nd0  1  0.50000000  0.50000000  0.50000000  1
  Sm  Sm0  1  0.00000000  0.00000000  -0.00000000  1
  Ni  Ni0  1  0.00000000  0.50000000  0.75008763  1
  Ni  Ni1  1  0.00000000  0.50000000  0.24991237  1
  Ni  Ni2  1  0.50000000  0.00000000  0.75008763  1
  Ni  Ni3  1  0.50000000  0.00000000  0.24991237  1
  O  O0  1  0.24949241  0.24949241  0.75044520  1
  O  O1  1  0.24949241  0.24949241  0.24955480  1
  O  O2  1  0.75050759  0.75050759  0.24955480  1
  O  O3  1  0.75050759  0.75050759  0.75044520  1
  O  O4  1  0.75050759  0.24949241  0.24955480  1
  O  O5  1  0.75050759  0.24949241  0.75044520  1
  O  O6  1  0.24949241  0.75050759  0.24955480  1
  O  O7  1  0.24949241  0.75050759  0.75044520  1
  O  O8  1  0.00000000  0.50000000  0.50000000  1
  O  O9  1  0.00000000  0.50000000  -0.00000000  1
  O  O10  1  0.50000000  0.00000000  0.50000000  1
  O  O11  1  0.50000000  0.00000000  -0.00000000  1
loop_
_geom_bond_atom_site_label_1
_geom_bond_atom_site_label_2
_geom_bond_distance
_geom_bond_site_symmetry_2
Nd0 O8 2.664279 1_655
Nd0 O10 2.664279 1_555
Nd0 O10 2.664279 1_565
Nd0 O8 2.664279 1_555
Nd0 O7 2.672604 1_555
Nd0 O0 2.672604 1_555
Nd0 O4 2.672604 1_555
Nd0 O5 2.672604 1_555
Nd0 O2 2.672604 1_555
Nd0 O6 2.672604 1_555
Nd0 O3 2.672604 1_555
Nd0 O1 2.672604 1_555
Ni0 O3 1.883936 1_455
Ni0 O0 1.883936 1_555
Ni0 O5 1.883936 1_455
Ni0 O7 1.883936 1_555
Ni0 O9 1.887850 1_556
Ni0 O8 1.889174 1_555
Ni1 O6 1.883936 1_555
Ni1 O4 1.883936 1_455
Ni1 O1 1.883936 1_555
Ni1 O2 1.883936 1_455
Ni1 O9 1.887850 1_555
Ni1 O8 1.889174 1_555
Ni2 O5 1.883936 1_555
Ni2 O7 1.883936 1_545
Ni2 O0 1.883936 1_555
Ni2 O3 1.883936 1_545
Ni2 O11 1.887850 1_556
Ni2 O10 1.889174 1_555
Ni3 O2 1.883936 1_545
Ni3 O1 1.883936 1_555
Ni3 O4 1.883936 1_555
Ni3 O6 1.883936 1_545
Ni3 O11 1.887850 1_555
Ni3 O10 1.889174 1_555
O0 Sm0 2.662439 1_556
O1 Sm0 2.662439 1_555
O2 Sm0 2.662439 1_665
O3 Sm0 2.662439 1_666
O4 Sm0 2.662439 1_655
O5 Sm0 2.662439 1_656
O6 Sm0 2.662439 1_565
O7 Sm0 2.662439 1_566
O9 Sm0 2.664279 1_565
O9 Sm0 2.664279 1_555
O11 Sm0 2.664279 1_555
O11 Sm0 2.664279 1_655
