# generated using pymatgen
data_Li4CoO3F
_symmetry_space_group_name_H-M   'P 1'
_cell_length_a   5.22501500
_cell_length_b   5.34709061
_cell_length_c   7.75884228
_cell_angle_alpha   109.98201530
_cell_angle_beta   82.91234078
_cell_angle_gamma   113.64964108
_symmetry_Int_Tables_number   1
_chemical_formula_structural   Li4CoO3F
_chemical_formula_sum   'Li8 Co2 O6 F2'
_cell_volume   186.58868641
_cell_formula_units_Z   2
loop_
 _symmetry_equiv_pos_site_id
 _symmetry_equiv_pos_as_xyz
  1  'x, y, z'
loop_
 _atom_site_type_symbol
 _atom_site_label
 _atom_site_symmetry_multiplicity
 _atom_site_fract_x
 _atom_site_fract_y
 _atom_site_fract_z
 _atom_site_occupancy
  Li  Li0  1  0.73979000  0.75867500  0.99382100  1
  Li  Li1  1  0.28374600  0.81533900  0.78070800  1
  Li  Li2  1  0.24316500  0.51142900  0.58336300  1
  Li  Li3  1  0.75414400  0.92680300  0.55803100  1
  Li  Li4  1  0.24479700  0.05284100  0.42707800  1
  Li  Li5  1  0.77045100  0.48676900  0.42168400  1
  Li  Li6  1  0.72632400  0.18576600  0.21431400  1
  Li  Li7  1  0.24712900  0.25263100  0.00028600  1
  Co  Co0  1  0.74070700  0.40829400  0.79412600  1
  Co  Co1  1  0.30491200  0.60265200  0.24249200  1
  O  O0  1  0.83445100  0.16174600  0.98547200  1
  O  O1  1  0.50150700  0.58299600  0.80113500  1
  O  O2  1  0.98384900  0.68883400  0.60698800  1
  O  O3  1  0.45999600  0.83896500  0.37556500  1
  O  O4  1  0.01153200  0.30109800  0.39817200  1
  O  O5  1  0.50105600  0.42605200  0.19284300  1
  F  F0  1  0.50657200  0.18290400  0.62130200  1
  F  F1  1  0.14587200  0.81620600  0.00261600  1
loop_
_geom_bond_atom_site_label_1
_geom_bond_atom_site_label_2
_geom_bond_distance
_geom_bond_site_symmetry_2
Li0 O1 1.796889 1_555
Li0 O0 2.031315 1_565
Li0 O5 2.593367 1_556
Li1 O2 1.943549 1_455
Li1 O1 2.043607 1_555
Li2 O4 1.739799 1_555
Li2 O2 1.902713 1_455
Li2 O1 2.128371 1_555
Li3 O3 2.022470 1_555
Li3 O2 2.207260 1_555
Li3 O4 2.545214 1_665
Li4 O3 1.827643 1_545
Li4 O4 2.206105 1_555
Li4 O2 2.618021 1_445
Li5 O2 1.686751 1_555
Li5 O4 1.851618 1_655
Li5 O5 2.257302 1_555
Li6 O0 1.772870 1_554
Li6 O4 1.955014 1_655
Li6 O5 2.114686 1_555
Li6 O3 2.454829 1_545
Li7 O5 1.845955 1_555
Li7 O0 2.020168 1_454
Co0 F0 1.692508 1_555
Co0 O1 1.822866 1_555
Co0 O2 2.340273 1_555
Co0 O0 2.493419 1_555
Co1 O3 1.346345 1_555
Co1 O5 1.587704 1_555
Co1 O4 2.302164 1_555
F0 Li4 1.911702 1_555
F0 Li3 2.143494 1_545
F0 Li1 2.493628 1_545
F0 Li5 2.517019 1_555
F1 Li1 1.781726 1_554
F1 Li0 2.024594 1_454
F1 Li7 2.182175 1_565
