# generated using pymatgen
data_Pb2C(SO3)2
_symmetry_space_group_name_H-M   'P 1'
_cell_length_a   4.67669100
_cell_length_b   8.90765800
_cell_length_c   16.58272800
_cell_angle_alpha   90.00000000
_cell_angle_beta   90.00000000
_cell_angle_gamma   90.00000000
_symmetry_Int_Tables_number   1
_chemical_formula_structural   Pb2C(SO3)2
_chemical_formula_sum   'Pb8 C4 S8 O24'
_cell_volume   690.80931913
_cell_formula_units_Z   4
loop_
 _symmetry_equiv_pos_site_id
 _symmetry_equiv_pos_as_xyz
  1  'x, y, z'
loop_
 _atom_site_type_symbol
 _atom_site_label
 _atom_site_symmetry_multiplicity
 _atom_site_fract_x
 _atom_site_fract_y
 _atom_site_fract_z
 _atom_site_occupancy
  Pb  Pb0  1  0.41453600  0.98595900  0.13653800  1
  Pb  Pb1  1  0.08546400  0.51404100  0.63653800  1
  Pb  Pb2  1  0.58546400  0.48595900  0.86346200  1
  Pb  Pb3  1  0.91453600  0.01404100  0.36346200  1
  Pb  Pb4  1  0.58546400  0.01404100  0.86346200  1
  Pb  Pb5  1  0.91453600  0.48595900  0.36346200  1
  Pb  Pb6  1  0.41453600  0.51404100  0.13653800  1
  Pb  Pb7  1  0.08546400  0.98595900  0.63653800  1
  C  C0  1  0.62135200  0.75000000  0.71227600  1
  C  C1  1  0.87864800  0.75000000  0.21227600  1
  C  C2  1  0.37864800  0.25000000  0.28772400  1
  C  C3  1  0.12135200  0.25000000  0.78772400  1
  S  S0  1  0.92468700  0.75000000  0.00299500  1
  S  S1  1  0.57531300  0.75000000  0.50299500  1
  S  S2  1  0.07531300  0.25000000  0.99700500  1
  S  S3  1  0.42468700  0.25000000  0.49700500  1
  S  S4  1  0.06986400  0.75000000  0.88668900  1
  S  S5  1  0.43013600  0.75000000  0.38668900  1
  S  S6  1  0.93013600  0.25000000  0.11331100  1
  S  S7  1  0.56986400  0.25000000  0.61331100  1
  O  O0  1  0.16976100  0.75000000  0.06073000  1
  O  O1  1  0.33023900  0.75000000  0.56073000  1
  O  O2  1  0.83023900  0.25000000  0.93927000  1
  O  O3  1  0.66976100  0.25000000  0.43927000  1
  O  O4  1  0.50246800  0.12174000  0.27510600  1
  O  O5  1  0.99753200  0.37826000  0.77510600  1
  O  O6  1  0.49753200  0.62174000  0.72489400  1
  O  O7  1  0.00246800  0.87826000  0.22489400  1
  O  O8  1  0.49753200  0.87826000  0.72489400  1
  O  O9  1  0.00246800  0.62174000  0.22489400  1
  O  O10  1  0.50246800  0.37826000  0.27510600  1
  O  O11  1  0.99753200  0.12174000  0.77510600  1
  O  O12  1  0.75197500  0.61138500  0.01341800  1
  O  O13  1  0.74802500  0.88861500  0.51341800  1
  O  O14  1  0.24802500  0.11138500  0.98658200  1
  O  O15  1  0.25197500  0.38861500  0.48658200  1
  O  O16  1  0.24802500  0.38861500  0.98658200  1
  O  O17  1  0.25197500  0.11138500  0.48658200  1
  O  O18  1  0.75197500  0.88861500  0.01341800  1
  O  O19  1  0.74802500  0.61138500  0.51341800  1
  O  O20  1  0.61369500  0.75000000  0.18669700  1
  O  O21  1  0.88630500  0.75000000  0.68669700  1
  O  O22  1  0.38630500  0.25000000  0.81330300  1
  O  O23  1  0.11369500  0.25000000  0.31330300  1
loop_
_geom_bond_atom_site_label_1
_geom_bond_atom_site_label_2
_geom_bond_distance
_geom_bond_site_symmetry_2
C0 O6 1.297844 1_555
C0 O8 1.297844 1_555
C0 O21 1.309693 1_555
C1 O9 1.297844 1_655
C1 O7 1.297844 1_655
C1 O20 1.309693 1_555
C2 O4 1.297844 1_555
C2 O10 1.297844 1_555
C2 O23 1.309693 1_555
C3 O11 1.297844 1_455
C3 O5 1.297844 1_455
C3 O22 1.309693 1_555
S0 S4 2.044686 1_654
S1 S5 2.044686 1_555
S2 S6 2.044686 1_456
S3 S7 2.044686 1_555
O0 S0 1.493402 1_455
O0 Pb0 2.703419 1_555
O0 Pb6 2.703419 1_555
O1 S1 1.493402 1_555
O1 Pb7 2.703419 1_555
O1 Pb1 2.703419 1_555
O2 S2 1.493402 1_655
O2 Pb2 2.703419 1_555
O2 Pb4 2.703419 1_555
O3 S3 1.493402 1_555
O3 Pb5 2.703419 1_555
O3 Pb3 2.703419 1_555
O4 Pb3 2.604012 1_555
O4 Pb0 2.629073 1_545
O5 Pb2 2.604012 1_555
O5 Pb1 2.629073 1_655
O6 Pb1 2.604012 1_555
O6 Pb2 2.629073 1_555
O7 Pb0 2.604012 1_555
O7 Pb3 2.629073 1_465
O8 Pb7 2.604012 1_555
O8 Pb4 2.629073 1_565
O9 Pb6 2.604012 1_555
O9 Pb5 2.629073 1_455
O10 Pb5 2.604012 1_555
O10 Pb6 2.629073 1_555
O11 Pb4 2.604012 1_555
O11 Pb7 2.629073 1_645
O12 S0 1.485550 1_555
O12 Pb6 2.722254 1_555
O12 Pb2 2.835178 1_554
O13 S1 1.485550 1_555
O13 Pb7 2.722254 1_655
O13 Pb3 2.835178 1_565
O14 S2 1.485550 1_555
O14 Pb4 2.722254 1_555
O14 Pb0 2.835178 1_546
O15 S3 1.485550 1_555
O15 Pb5 2.722254 1_455
O15 Pb1 2.835178 1_555
O16 S2 1.485550 1_555
O16 Pb2 2.722254 1_555
O16 Pb6 2.835178 1_556
O17 S3 1.485550 1_555
O17 Pb3 2.722254 1_455
O17 Pb7 2.835178 1_545
O18 S0 1.485550 1_555
O18 Pb0 2.722254 1_555
O18 Pb4 2.835178 1_564
O19 S1 1.485550 1_555
O19 Pb1 2.722254 1_655
O19 Pb5 2.835178 1_555
O20 Pb0 2.444811 1_555
O20 Pb6 2.444811 1_555
O21 Pb7 2.444811 1_655
O21 Pb1 2.444811 1_655
O22 Pb2 2.444811 1_555
O22 Pb4 2.444811 1_555
O23 Pb5 2.444811 1_455
O23 Pb3 2.444811 1_455
