# generated using pymatgen
data_LaGe3Os
_symmetry_space_group_name_H-M   'P 1'
_cell_length_a   5.98412188
_cell_length_b   5.98412188
_cell_length_c   5.98412188
_cell_angle_alpha   136.35580944
_cell_angle_beta   136.35580944
_cell_angle_gamma   63.43072536
_symmetry_Int_Tables_number   1
_chemical_formula_structural   LaGe3Os
_chemical_formula_sum   'La1 Ge3 Os1'
_cell_volume   100.75533560
_cell_formula_units_Z   1
loop_
 _symmetry_equiv_pos_site_id
 _symmetry_equiv_pos_as_xyz
  1  'x, y, z'
loop_
 _atom_site_type_symbol
 _atom_site_label
 _atom_site_symmetry_multiplicity
 _atom_site_fract_x
 _atom_site_fract_y
 _atom_site_fract_z
 _atom_site_occupancy
  La  La0  1  0.99834397  0.99834397  0.00000000  1
  Ge  Ge0  1  0.42564206  0.42564206  -0.00000000  1
  Ge  Ge1  1  0.25966211  0.75966211  0.50000000  1
  Ge  Ge2  1  0.75966211  0.25966211  0.50000000  1
  Os  Os0  1  0.65868874  0.65868874  -0.00000000  1
loop_
_geom_bond_atom_site_label_1
_geom_bond_atom_site_label_2
_geom_bond_distance
_geom_bond_site_symmetry_2
La0 Os0 3.458039 1_555
La0 Os0 3.544200 1_554
La0 Os0 3.544200 1_666
La0 Os0 3.544200 1_565
La0 Os0 3.544200 1_655
Ge0 Os0 2.372655 1_555
Ge0 Ge2 2.793523 1_454
Ge0 Ge1 2.793523 1_544
Ge0 Ge2 2.793523 1_555
Ge0 Ge1 2.793523 1_555
Ge0 La0 3.231756 1_444
Ge0 La0 3.231756 1_545
Ge0 La0 3.231756 1_455
Ge0 La0 3.231756 1_556
Ge1 Os0 2.450510 1_455
Ge1 Os0 2.450510 1_556
Ge1 La0 3.294423 1_455
Ge1 La0 3.294423 1_556
Ge1 La0 3.467908 1_445
Ge1 La0 3.467908 1_456
Ge2 Os0 2.450510 1_545
Ge2 Os0 2.450510 1_556
Ge2 La0 3.294423 1_545
Ge2 La0 3.294423 1_556
Ge2 La0 3.467908 1_546
Ge2 La0 3.467908 1_445
