# generated using pymatgen
data_Te2Mo(WS2)3
_symmetry_space_group_name_H-M   'P 1'
_cell_length_a   3.27138567
_cell_length_b   3.27138567
_cell_length_c   37.17318100
_cell_angle_alpha   90.00000000
_cell_angle_beta   90.00000000
_cell_angle_gamma   119.99999332
_symmetry_Int_Tables_number   1
_chemical_formula_structural   Te2Mo(WS2)3
_chemical_formula_sum   'Te2 Mo1 W3 S6'
_cell_volume   344.52749071
_cell_formula_units_Z   1
loop_
 _symmetry_equiv_pos_site_id
 _symmetry_equiv_pos_as_xyz
  1  'x, y, z'
loop_
 _atom_site_type_symbol
 _atom_site_label
 _atom_site_symmetry_multiplicity
 _atom_site_fract_x
 _atom_site_fract_y
 _atom_site_fract_z
 _atom_site_occupancy
  Te  Te0  1  0.33333300  0.66666700  0.04201200  1
  Te  Te1  1  0.33333300  0.66666700  0.14569800  1
  Mo  Mo0  1  0.00000000  0.00000000  0.09384500  1
  W  W0  1  0.00000000  0.00000000  0.46965200  1
  W  W1  1  0.33333300  0.66666700  0.28184800  1
  W  W2  1  0.33333300  0.66666700  0.65756600  1
  S  S0  1  0.00000000  0.00000000  0.32338100  1
  S  S1  1  0.00000000  0.00000000  0.69909700  1
  S  S2  1  0.33333300  0.66666700  0.42811300  1
  S  S3  1  0.33333300  0.66666700  0.51121900  1
  S  S4  1  0.00000000  0.00000000  0.24032000  1
  S  S5  1  0.00000000  0.00000000  0.61599600  1
loop_
_geom_bond_atom_site_label_1
_geom_bond_atom_site_label_2
_geom_bond_distance
_geom_bond_site_symmetry_2
Mo0 Te0 2.698122 1_545
Mo0 Te0 2.698124 1_555
Mo0 Te0 2.698124 1_445
Mo0 Te1 2.698653 1_545
Mo0 Te1 2.698655 1_445
Mo0 Te1 2.698655 1_555
S0 W1 2.439464 1_545
S0 W1 2.439466 1_555
S0 W1 2.439466 1_445
S1 W2 2.439417 1_545
S1 W2 2.439419 1_445
S1 W2 2.439419 1_555
S2 W0 2.439605 1_565
S2 W0 2.439607 1_665
S2 W0 2.439607 1_555
S3 W0 2.440264 1_565
S3 W0 2.440266 1_555
S3 W0 2.440266 1_665
S4 W1 2.439346 1_545
S4 W1 2.439349 1_445
S4 W1 2.439349 1_555
S5 W2 2.440335 1_545
S5 W2 2.440337 1_555
S5 W2 2.440337 1_445
