# generated using pymatgen
data_Li4Mn3O7
_symmetry_space_group_name_H-M   'P 1'
_cell_length_a   5.08133900
_cell_length_b   6.94475763
_cell_length_c   7.72752186
_cell_angle_alpha   83.24306129
_cell_angle_beta   75.98541755
_cell_angle_gamma   79.19327078
_symmetry_Int_Tables_number   1
_chemical_formula_structural   Li4Mn3O7
_chemical_formula_sum   'Li8 Mn6 O14'
_cell_volume   259.13683357
_cell_formula_units_Z   2
loop_
 _symmetry_equiv_pos_site_id
 _symmetry_equiv_pos_as_xyz
  1  'x, y, z'
loop_
 _atom_site_type_symbol
 _atom_site_label
 _atom_site_symmetry_multiplicity
 _atom_site_fract_x
 _atom_site_fract_y
 _atom_site_fract_z
 _atom_site_occupancy
  Li  Li0  1  0.70488600  0.06458800  0.56997000  1
  Li  Li1  1  0.83641400  0.76192100  0.28690100  1
  Li  Li2  1  0.56758300  0.35996100  0.84877300  1
  Li  Li3  1  0.43241700  0.64003900  0.15122700  1
  Li  Li4  1  0.29511400  0.93541200  0.43003000  1
  Li  Li5  1  0.16358600  0.23807900  0.71309900  1
  Li  Li6  1  0.00000000  0.50000000  0.00000000  1
  Li  Li7  1  0.50000000  0.50000000  0.50000000  1
  Mn  Mn0  1  0.92992900  0.63093500  0.63996200  1
  Mn  Mn1  1  0.07007100  0.36906500  0.36003800  1
  Mn  Mn2  1  0.21576600  0.07285600  0.07326800  1
  Mn  Mn3  1  0.35542800  0.77185000  0.77980100  1
  Mn  Mn4  1  0.64457200  0.22815000  0.22019900  1
  Mn  Mn5  1  0.78423400  0.92714400  0.92673200  1
  O  O0  1  0.61162300  0.78252800  0.55096500  1
  O  O1  1  0.77350100  0.49531900  0.25700400  1
  O  O2  1  0.47161100  0.07234200  0.83515500  1
  O  O3  1  0.32737600  0.36004800  0.12634900  1
  O  O4  1  0.15332500  0.61966900  0.40047200  1
  O  O5  1  0.02656400  0.89016500  0.68137100  1
  O  O6  1  0.89887800  0.20587000  0.98211200  1
  O  O7  1  0.84667500  0.38033100  0.59952800  1
  O  O8  1  0.97343600  0.10983500  0.31862900  1
  O  O9  1  0.67262400  0.63995200  0.87365100  1
  O  O10  1  0.52838900  0.92765800  0.16484500  1
  O  O11  1  0.38837700  0.21747200  0.44903500  1
  O  O12  1  0.22649900  0.50468100  0.74299600  1
  O  O13  1  0.10112200  0.79413000  0.01788800  1
loop_
_geom_bond_atom_site_label_1
_geom_bond_atom_site_label_2
_geom_bond_distance
_geom_bond_site_symmetry_2
Li0 O2 2.105426 1_555
Li0 O11 2.107455 1_555
Li0 O8 2.113450 1_555
Li0 O0 2.129015 1_545
Li0 O5 2.138646 1_645
Li0 O7 2.483836 1_555
Li1 O1 1.985435 1_555
Li1 O4 2.055058 1_655
Li1 O0 2.089880 1_555
Li1 O10 2.109073 1_555
Li1 O13 2.197682 1_655
Li2 O7 2.104524 1_555
Li2 O12 2.126437 1_555
Li2 O9 2.151665 1_555
Li2 O2 2.162931 1_555
Li2 O3 2.196065 1_556
Li2 O6 2.223931 1_555
Li3 O4 2.104524 1_555
Li3 O1 2.126437 1_555
Li3 O3 2.151665 1_555
Li3 O10 2.162931 1_555
Li3 O9 2.196065 1_554
Li3 O13 2.223931 1_555
Li4 O10 2.105426 1_555
Li4 O0 2.107455 1_555
Li4 O5 2.113450 1_555
Li4 O11 2.129015 1_565
Li4 O8 2.138646 1_465
Li4 O4 2.483836 1_555
Li5 O12 1.985435 1_555
Li5 O7 2.055058 1_455
Li5 O11 2.089880 1_555
Li5 O2 2.109073 1_555
Li5 O6 2.197682 1_455
Li6 O12 2.040013 1_554
Li6 O1 2.040013 1_455
Li6 O9 2.149944 1_454
Li6 O3 2.149944 1_555
Li6 O13 2.224867 1_555
Li6 O6 2.224867 1_454
Li7 O1 2.047419 1_555
Li7 O12 2.047419 1_555
Li7 O7 2.083781 1_555
Li7 O4 2.083781 1_555
Li7 O0 2.243648 1_555
Li7 O11 2.243648 1_555
Mn0 O12 1.896062 1_655
Mn0 O4 1.924299 1_655
Mn0 O7 1.942576 1_555
Mn0 O9 1.956212 1_555
Mn0 O0 1.981716 1_555
Mn0 O5 2.031676 1_655
Mn1 O1 1.896062 1_455
Mn1 O7 1.924299 1_455
Mn1 O4 1.942576 1_555
Mn1 O3 1.956212 1_555
Mn1 O11 1.981716 1_555
Mn1 O8 2.031676 1_455
Mn2 O6 1.944419 1_454
Mn2 O10 1.953698 1_545
Mn2 O2 1.979145 1_554
Mn2 O8 2.010561 1_455
Mn2 O13 2.237834 1_545
Mn2 O3 2.279732 1_555
Mn3 O0 1.928109 1_555
Mn3 O9 1.954235 1_555
Mn3 O13 1.979705 1_556
Mn3 O5 1.999954 1_555
Mn3 O12 2.150100 1_555
Mn3 O2 2.383437 1_565
Mn4 O11 1.928109 1_555
Mn4 O3 1.954235 1_555
Mn4 O6 1.979705 1_554
Mn4 O8 1.999954 1_555
Mn4 O1 2.150100 1_555
Mn4 O10 2.383437 1_545
Mn5 O13 1.944419 1_656
Mn5 O2 1.953698 1_565
Mn5 O10 1.979145 1_556
Mn5 O5 2.010561 1_655
Mn5 O6 2.237834 1_565
Mn5 O9 2.279732 1_555
