# generated using pymatgen
data_Rb2TcI6
_symmetry_space_group_name_H-M   'P 1'
_cell_length_a   8.10199076
_cell_length_b   8.10198773
_cell_length_c   8.10199152
_cell_angle_alpha   60.00000930
_cell_angle_beta   59.99997214
_cell_angle_gamma   60.00001856
_symmetry_Int_Tables_number   1
_chemical_formula_structural   Rb2TcI6
_chemical_formula_sum   'Rb2 Tc1 I6'
_cell_volume   376.06257144
_cell_formula_units_Z   1
loop_
 _symmetry_equiv_pos_site_id
 _symmetry_equiv_pos_as_xyz
  1  'x, y, z'
loop_
 _atom_site_type_symbol
 _atom_site_label
 _atom_site_symmetry_multiplicity
 _atom_site_fract_x
 _atom_site_fract_y
 _atom_site_fract_z
 _atom_site_occupancy
  Rb  Rb0  1  0.25000000  0.25000000  0.25000000  1
  Rb  Rb1  1  0.75000000  0.75000000  0.75000000  1
  Tc  Tc0  1  0.00000000  -0.00000000  0.00000000  1
  I  I0  1  0.76025045  0.23974955  0.23974955  1
  I  I1  1  0.23974955  0.76025045  0.76025045  1
  I  I2  1  0.23974955  0.76025045  0.23974955  1
  I  I3  1  0.76025045  0.23974955  0.76025045  1
  I  I4  1  0.23974955  0.23974955  0.76025045  1
  I  I5  1  0.76025045  0.76025045  0.23974955  1
loop_
_geom_bond_atom_site_label_1
_geom_bond_atom_site_label_2
_geom_bond_distance
_geom_bond_site_symmetry_2
I0 Tc0 2.747036 1_655
I0 Rb1 4.052698 1_554
I0 Rb0 4.052698 1_655
I0 Rb1 4.052698 1_545
I0 Rb0 4.052698 1_555
I1 Tc0 2.747036 1_566
I1 Rb0 4.052698 1_565
I1 Rb0 4.052698 1_556
I1 Rb1 4.052698 1_455
I1 Rb1 4.052698 1_555
I2 Tc0 2.747038 1_565
I2 Rb0 4.052696 1_555
I2 Rb1 4.052696 1_455
I2 Rb1 4.052696 1_554
I2 Rb0 4.052696 1_565
I3 Tc0 2.747038 1_656
I3 Rb0 4.052696 1_556
I3 Rb1 4.052696 1_555
I3 Rb0 4.052696 1_655
I3 Rb1 4.052696 1_545
I4 Tc0 2.747036 1_556
I4 Rb0 4.052698 1_556
I4 Rb1 4.052698 1_545
I4 Rb0 4.052698 1_555
I4 Rb1 4.052698 1_455
I5 Tc0 2.747036 1_665
I5 Rb1 4.052698 1_554
I5 Rb0 4.052698 1_565
I5 Rb0 4.052698 1_655
I5 Rb1 4.052698 1_555
