# generated using pymatgen
data_LaMg6Ti
_symmetry_space_group_name_H-M   'P 1'
_cell_length_a   5.24300000
_cell_length_b   6.44509700
_cell_length_c   11.64041600
_cell_angle_alpha   90.00000000
_cell_angle_beta   90.00000000
_cell_angle_gamma   90.00000000
_symmetry_Int_Tables_number   1
_chemical_formula_structural   LaMg6Ti
_chemical_formula_sum   'La2 Mg12 Ti2'
_cell_volume   393.34878849
_cell_formula_units_Z   2
loop_
 _symmetry_equiv_pos_site_id
 _symmetry_equiv_pos_as_xyz
  1  'x, y, z'
loop_
 _atom_site_type_symbol
 _atom_site_label
 _atom_site_symmetry_multiplicity
 _atom_site_fract_x
 _atom_site_fract_y
 _atom_site_fract_z
 _atom_site_occupancy
  La  La0  1  0.50000000  0.50000000  0.16765200  1
  La  La1  1  0.50000000  0.00000000  0.66765200  1
  Mg  Mg0  1  0.50000000  0.25267500  0.41883800  1
  Mg  Mg1  1  0.50000000  0.74732500  0.41883800  1
  Mg  Mg2  1  0.00000000  0.76555800  0.08332300  1
  Mg  Mg3  1  0.00000000  0.23444200  0.08332300  1
  Mg  Mg4  1  0.00000000  0.00000000  0.32524300  1
  Mg  Mg5  1  0.00000000  0.50000000  0.33968500  1
  Mg  Mg6  1  0.50000000  0.75267500  0.91883800  1
  Mg  Mg7  1  0.50000000  0.24732500  0.91883800  1
  Mg  Mg8  1  0.00000000  0.26555800  0.58332300  1
  Mg  Mg9  1  0.00000000  0.73444200  0.58332300  1
  Mg  Mg10  1  0.00000000  0.50000000  0.82524300  1
  Mg  Mg11  1  0.00000000  0.00000000  0.83968500  1
  Ti  Ti0  1  0.50000000  0.00000000  0.16309400  1
  Ti  Ti1  1  0.50000000  0.50000000  0.66309400  1
loop_
_geom_bond_atom_site_label_1
_geom_bond_atom_site_label_2
_geom_bond_distance
_geom_bond_site_symmetry_2
La0 Ti0 3.222985 1_555
La0 Ti0 3.222985 1_565
La0 Mg2 3.281043 1_655
La0 Mg2 3.281043 1_555
La0 Mg3 3.281043 1_655
La0 Mg3 3.281043 1_555
La0 Mg5 3.298850 1_555
La0 Mg5 3.298850 1_655
La0 Mg7 3.322741 1_554
La0 Mg6 3.322741 1_554
La0 Mg1 3.330194 1_555
La0 Mg0 3.330194 1_555
La1 Ti1 3.222985 1_555
La1 Ti1 3.222985 1_545
La1 Mg8 3.281043 1_555
La1 Mg8 3.281043 1_655
La1 Mg9 3.281043 1_645
La1 Mg9 3.281043 1_545
La1 Mg11 3.298850 1_555
La1 Mg11 3.298850 1_655
La1 Mg1 3.322741 1_545
La1 Mg0 3.322741 1_555
La1 Mg6 3.330194 1_545
La1 Mg7 3.330194 1_555
Mg0 Mg1 3.188067 1_555
Mg0 Mg5 3.203457 1_655
Mg0 Mg5 3.203457 1_555
Mg0 Mg8 3.247327 1_555
Mg0 Mg8 3.247327 1_655
Mg0 Mg1 3.257030 1_545
Mg0 Ti1 3.259596 1_555
Mg0 Mg4 3.272812 1_655
Mg0 Mg4 3.272812 1_555
Mg0 Ti0 3.393286 1_555
Mg1 Mg5 3.203457 1_655
Mg1 Mg5 3.203457 1_555
Mg1 Mg9 3.247327 1_555
Mg1 Mg9 3.247327 1_655
Mg1 Ti1 3.259596 1_555
Mg1 Mg4 3.272812 1_665
Mg1 Mg4 3.272812 1_565
Mg1 Ti0 3.393286 1_565
Mg2 Mg3 3.022003 1_565
Mg2 Ti0 3.165063 1_465
Mg2 Ti0 3.165063 1_565
Mg2 Mg4 3.195819 1_565
Mg2 Mg6 3.247327 1_454
Mg2 Mg6 3.247327 1_554
Mg2 Mg3 3.423094 1_555
Mg2 Mg5 3.440146 1_555
Mg3 Ti0 3.165063 1_555
Mg3 Ti0 3.165063 1_455
Mg3 Mg4 3.195819 1_555
Mg3 Mg7 3.247327 1_554
Mg3 Mg7 3.247327 1_454
Mg3 Mg5 3.440146 1_555
Mg4 Mg5 3.226930 1_545
Mg4 Mg5 3.226930 1_555
Mg4 Ti0 3.230302 1_555
Mg4 Ti0 3.230302 1_455
Mg4 Mg8 3.457508 1_555
Mg4 Mg9 3.457508 1_545
Mg5 Mg9 3.213455 1_555
Mg5 Mg8 3.213455 1_555
Mg6 Mg7 3.188067 1_565
Mg6 Mg7 3.257030 1_555
Mg6 Ti0 3.259596 1_566
Mg6 Ti1 3.393286 1_555
Mg7 Ti0 3.259596 1_556
Mg7 Ti1 3.393286 1_555
Mg8 Mg9 3.022003 1_555
Mg8 Ti1 3.165063 1_455
Mg8 Ti1 3.165063 1_555
Mg8 Mg9 3.423094 1_545
Mg9 Ti1 3.165063 1_455
Mg9 Ti1 3.165063 1_555
Mg10 Mg9 3.195819 1_555
Mg10 Mg8 3.195819 1_555
Mg10 Mg11 3.226930 1_565
Mg10 Mg11 3.226930 1_555
Mg10 Ti1 3.230302 1_455
Mg10 Ti1 3.230302 1_555
Mg10 Mg6 3.272812 1_455
Mg10 Mg6 3.272812 1_555
Mg10 Mg7 3.272812 1_455
Mg10 Mg7 3.272812 1_555
Mg10 Mg2 3.457508 1_556
Mg10 Mg3 3.457508 1_556
Mg11 Mg7 3.203457 1_455
Mg11 Mg7 3.203457 1_555
Mg11 Mg6 3.203457 1_445
Mg11 Mg6 3.203457 1_545
Mg11 Mg3 3.213455 1_556
Mg11 Mg2 3.213455 1_546
Mg11 Mg8 3.440146 1_555
Mg11 Mg9 3.440146 1_545
