# generated using pymatgen
data_ZnCu3(P2O7)2
_symmetry_space_group_name_H-M   'P 1'
_cell_length_a   7.93634700
_cell_length_b   7.15498100
_cell_length_c   9.35064144
_cell_angle_alpha   73.01956717
_cell_angle_beta   90.00000000
_cell_angle_gamma   90.00000000
_symmetry_Int_Tables_number   1
_chemical_formula_structural   ZnCu3(P2O7)2
_chemical_formula_sum   'Zn2 Cu6 P8 O28'
_cell_volume   507.82276933
_cell_formula_units_Z   2
loop_
 _symmetry_equiv_pos_site_id
 _symmetry_equiv_pos_as_xyz
  1  'x, y, z'
loop_
 _atom_site_type_symbol
 _atom_site_label
 _atom_site_symmetry_multiplicity
 _atom_site_fract_x
 _atom_site_fract_y
 _atom_site_fract_z
 _atom_site_occupancy
  Zn  Zn0  1  0.00000000  0.50000000  0.00000000  1
  Zn  Zn1  1  0.50000000  0.50000000  0.50000000  1
  Cu  Cu0  1  0.13491900  0.82701100  0.50202500  1
  Cu  Cu1  1  0.63491900  0.17298900  0.99797500  1
  Cu  Cu2  1  0.86508100  0.17298900  0.49797500  1
  Cu  Cu3  1  0.36508100  0.82701100  0.00202500  1
  Cu  Cu4  1  0.00000000  0.00000000  0.00000000  1
  Cu  Cu5  1  0.50000000  0.00000000  0.50000000  1
  P  P0  1  0.95780200  0.42751300  0.69839200  1
  P  P1  1  0.45780200  0.57248700  0.80160800  1
  P  P2  1  0.04219800  0.57248700  0.30160800  1
  P  P3  1  0.54219800  0.42751300  0.19839200  1
  P  P4  1  0.21199700  0.11500800  0.69806900  1
  P  P5  1  0.71199700  0.88499200  0.80193100  1
  P  P6  1  0.78800300  0.88499200  0.30193100  1
  P  P7  1  0.28800300  0.11500800  0.19806900  1
  O  O0  1  0.38661000  0.15312100  0.62538200  1
  O  O1  1  0.88661000  0.84687900  0.87461800  1
  O  O2  1  0.61339000  0.84687900  0.37461800  1
  O  O3  1  0.11339000  0.15312100  0.12538200  1
  O  O4  1  0.42618800  0.63902700  0.62928500  1
  O  O5  1  0.92618800  0.36097300  0.87071500  1
  O  O6  1  0.57381200  0.36097300  0.37071500  1
  O  O7  1  0.07381200  0.63902700  0.12928500  1
  O  O8  1  0.81699600  0.34621100  0.62176000  1
  O  O9  1  0.31699600  0.65378900  0.87824000  1
  O  O10  1  0.18300400  0.65378900  0.37824000  1
  O  O11  1  0.68300400  0.34621100  0.12176000  1
  O  O12  1  0.13525500  0.32990900  0.67386100  1
  O  O13  1  0.63525500  0.67009100  0.82613900  1
  O  O14  1  0.86474500  0.67009100  0.32613900  1
  O  O15  1  0.36474500  0.32990900  0.17386100  1
  O  O16  1  0.51268400  0.64448900  0.14285600  1
  O  O17  1  0.01268400  0.35551100  0.35714400  1
  O  O18  1  0.48731600  0.35551100  0.85714400  1
  O  O19  1  0.98731600  0.64448900  0.64285600  1
  O  O20  1  0.78946400  0.97445700  0.12801000  1
  O  O21  1  0.28946400  0.02554300  0.37199000  1
  O  O22  1  0.21053600  0.02554300  0.87199000  1
  O  O23  1  0.71053600  0.97445700  0.62801000  1
  O  O24  1  0.40557200  0.00630800  0.12216800  1
  O  O25  1  0.90557200  0.99369200  0.37783200  1
  O  O26  1  0.59442800  0.99369200  0.87783200  1
  O  O27  1  0.09442800  0.00630800  0.62216800  1
loop_
_geom_bond_atom_site_label_1
_geom_bond_atom_site_label_2
_geom_bond_distance
_geom_bond_site_symmetry_2
Cu0 O19 1.951247 1_455
Cu0 O27 1.962870 1_565
Cu0 O10 1.964535 1_555
Cu0 O21 1.997939 1_565
Cu0 O25 2.296734 1_455
Cu1 O18 1.951247 1_555
Cu1 O26 1.962870 1_545
Cu1 O11 1.964535 1_556
Cu1 O20 1.997939 1_546
Cu1 O24 2.296734 1_556
Cu2 O17 1.951247 1_655
Cu2 O25 1.962870 1_545
Cu2 O8 1.964535 1_555
Cu2 O23 1.997939 1_545
Cu2 O27 2.296734 1_655
Cu3 O16 1.951247 1_555
Cu3 O24 1.962870 1_565
Cu3 O9 1.964535 1_554
Cu3 O22 1.997939 1_564
Cu3 O26 2.296734 1_554
Cu4 O22 2.032299 1_554
Cu4 O20 2.032299 1_445
Cu4 O3 2.033441 1_555
Cu4 O1 2.033441 1_444
Cu4 O7 2.579054 1_545
Cu4 O5 2.579054 1_454
Cu5 O23 2.032299 1_545
Cu5 O21 2.032299 1_555
Cu5 O0 2.033441 1_555
Cu5 O2 2.033441 1_545
Cu5 O6 2.579054 1_555
Cu5 O4 2.579054 1_545
O0 P4 1.532472 1_555
O1 P5 1.532472 1_555
O2 P6 1.532472 1_555
O3 P7 1.532472 1_555
O4 P1 1.561384 1_555
O4 Zn1 1.869888 1_555
O5 P0 1.561384 1_555
O5 Zn0 1.869888 1_656
O6 P3 1.561384 1_555
O6 Zn1 1.869888 1_555
O7 P2 1.561384 1_555
O7 Zn0 1.869888 1_555
O8 P0 1.531042 1_555
O9 P1 1.531042 1_555
O10 P2 1.531042 1_555
O11 P3 1.531042 1_555
O12 P4 1.607215 1_555
O12 P0 1.617798 1_455
O13 P5 1.607215 1_555
O13 P1 1.617798 1_555
O14 P6 1.607215 1_555
O14 P2 1.617798 1_655
O15 P7 1.607215 1_555
O15 P3 1.617798 1_555
O16 P3 1.504586 1_555
O17 P2 1.504586 1_555
O18 P1 1.504586 1_555
O19 P0 1.504586 1_555
O20 P6 1.564164 1_555
O21 P7 1.564164 1_555
O22 P4 1.564164 1_555
O23 P5 1.564164 1_555
O24 P7 1.517110 1_555
O25 P6 1.517110 1_555
O26 P5 1.517110 1_555
O27 P4 1.517110 1_555
