# generated using pymatgen
data_Fe2PHO3F2
_symmetry_space_group_name_H-M   'P 1'
_cell_length_a   5.61491700
_cell_length_b   7.45449600
_cell_length_c   10.16060000
_cell_angle_alpha   90.00000000
_cell_angle_beta   90.00000000
_cell_angle_gamma   90.00000000
_symmetry_Int_Tables_number   1
_chemical_formula_structural   Fe2PHO3F2
_chemical_formula_sum   'Fe8 P4 H4 O12 F8'
_cell_volume   425.28589720
_cell_formula_units_Z   4
loop_
 _symmetry_equiv_pos_site_id
 _symmetry_equiv_pos_as_xyz
  1  'x, y, z'
loop_
 _atom_site_type_symbol
 _atom_site_label
 _atom_site_symmetry_multiplicity
 _atom_site_fract_x
 _atom_site_fract_y
 _atom_site_fract_z
 _atom_site_occupancy
  Fe  Fe0  1  0.25249600  0.90244800  0.43947400  1
  Fe  Fe1  1  0.24750400  0.40244800  0.06052600  1
  Fe  Fe2  1  0.74750400  0.09755200  0.93947400  1
  Fe  Fe3  1  0.75249600  0.59755200  0.56052600  1
  Fe  Fe4  1  0.74750400  0.09755200  0.56052600  1
  Fe  Fe5  1  0.75249600  0.59755200  0.93947400  1
  Fe  Fe6  1  0.25249600  0.90244800  0.06052600  1
  Fe  Fe7  1  0.24750400  0.40244800  0.43947400  1
  P  P0  1  0.42167600  0.83830800  0.75000000  1
  P  P1  1  0.07832400  0.33830800  0.75000000  1
  P  P2  1  0.57832400  0.16169200  0.25000000  1
  P  P3  1  0.92167600  0.66169200  0.25000000  1
  H  H0  1  0.19420400  0.76163300  0.75000000  1
  H  H1  1  0.30579600  0.26163300  0.75000000  1
  H  H2  1  0.80579600  0.23836700  0.25000000  1
  H  H3  1  0.69420400  0.73836700  0.25000000  1
  O  O0  1  0.44128800  0.95346600  0.62443600  1
  O  O1  1  0.05871200  0.45346600  0.87556400  1
  O  O2  1  0.55871200  0.04653400  0.12443600  1
  O  O3  1  0.94128800  0.54653400  0.37556400  1
  O  O4  1  0.55871200  0.04653400  0.37556400  1
  O  O5  1  0.94128800  0.54653400  0.12443600  1
  O  O6  1  0.44128800  0.95346600  0.87556400  1
  O  O7  1  0.05871200  0.45346600  0.62443600  1
  O  O8  1  0.60859100  0.68282400  0.75000000  1
  O  O9  1  0.89140900  0.18282400  0.75000000  1
  O  O10  1  0.39140900  0.31717600  0.25000000  1
  O  O11  1  0.10859100  0.81717600  0.25000000  1
  F  F0  1  0.41936900  0.65258700  0.45509700  1
  F  F1  1  0.08063100  0.15258700  0.04490300  1
  F  F2  1  0.58063100  0.34741300  0.95509700  1
  F  F3  1  0.91936900  0.84741300  0.54490300  1
  F  F4  1  0.58063100  0.34741300  0.54490300  1
  F  F5  1  0.91936900  0.84741300  0.95509700  1
  F  F6  1  0.41936900  0.65258700  0.04490300  1
  F  F7  1  0.08063100  0.15258700  0.45509700  1
loop_
_geom_bond_atom_site_label_1
_geom_bond_atom_site_label_2
_geom_bond_distance
_geom_bond_site_symmetry_2
Fe0 O4 2.128755 1_565
Fe0 O11 2.182482 1_555
Fe0 O0 2.190938 1_555
Fe1 O5 2.128755 1_455
Fe1 O10 2.182482 1_555
Fe1 O1 2.190938 1_554
Fe2 O6 2.128755 1_545
Fe2 O9 2.182482 1_555
Fe2 O2 2.190938 1_556
Fe3 O7 2.128755 1_655
Fe3 O8 2.182482 1_555
Fe3 O3 2.190938 1_555
Fe4 O0 2.128755 1_545
Fe4 O9 2.182482 1_555
Fe4 O4 2.190938 1_555
Fe5 O1 2.128755 1_655
Fe5 O8 2.182482 1_555
Fe5 O5 2.190938 1_556
Fe6 O2 2.128755 1_565
Fe6 O11 2.182482 1_555
Fe6 O6 2.190938 1_554
Fe7 O3 2.128755 1_455
Fe7 O10 2.182482 1_555
Fe7 O7 2.190938 1_555
H0 P0 1.399296 1_555
H1 P1 1.399296 1_555
H2 P2 1.399296 1_555
H3 P3 1.399296 1_555
O0 P0 1.541666 1_555
O1 P1 1.541666 1_555
O2 P2 1.541666 1_555
O3 P3 1.541666 1_555
O4 P2 1.541666 1_555
O5 P3 1.541666 1_555
O6 P0 1.541666 1_555
O7 P1 1.541666 1_555
O8 P0 1.563612 1_555
O9 P1 1.563612 1_655
O10 P2 1.563612 1_555
O11 P3 1.563612 1_455
F0 Fe0 2.091019 1_555
F0 Fe7 2.105563 1_555
F0 Fe3 2.194203 1_555
F1 Fe1 2.091019 1_555
F1 Fe6 2.105563 1_545
F1 Fe2 2.194203 1_454
F2 Fe2 2.091019 1_555
F2 Fe5 2.105563 1_555
F2 Fe1 2.194203 1_556
F3 Fe3 2.091019 1_555
F3 Fe4 2.105563 1_565
F3 Fe0 2.194203 1_655
F4 Fe4 2.091019 1_555
F4 Fe3 2.105563 1_555
F4 Fe7 2.194203 1_555
F5 Fe5 2.091019 1_555
F5 Fe2 2.105563 1_565
F5 Fe6 2.194203 1_656
F6 Fe6 2.091019 1_555
F6 Fe1 2.105563 1_555
F6 Fe5 2.194203 1_554
F7 Fe7 2.091019 1_555
F7 Fe0 2.105563 1_545
F7 Fe4 2.194203 1_455
