# generated using pymatgen
data_Ce3ZrSb5
_symmetry_space_group_name_H-M   'P 1'
_cell_length_a   9.54163277
_cell_length_b   9.54056971
_cell_length_c   6.37285419
_cell_angle_alpha   89.99879108
_cell_angle_beta   89.99960450
_cell_angle_gamma   119.99810886
_symmetry_Int_Tables_number   1
_chemical_formula_structural   Ce3ZrSb5
_chemical_formula_sum   'Ce6 Zr2 Sb10'
_cell_volume   502.42344372
_cell_formula_units_Z   2
loop_
 _symmetry_equiv_pos_site_id
 _symmetry_equiv_pos_as_xyz
  1  'x, y, z'
loop_
 _atom_site_type_symbol
 _atom_site_label
 _atom_site_symmetry_multiplicity
 _atom_site_fract_x
 _atom_site_fract_y
 _atom_site_fract_z
 _atom_site_occupancy
  Ce  Ce0  1  0.61590761  0.00001590  0.24998752  1
  Ce  Ce1  1  0.38412985  0.00001754  0.75000058  1
  Ce  Ce2  1  -0.00000813  0.61588582  0.24999323  1
  Ce  Ce3  1  0.99999378  0.38410955  0.75000490  1
  Ce  Ce4  1  0.38410675  0.38411027  0.25001313  1
  Ce  Ce5  1  0.61585298  0.61587299  0.74998180  1
  Zr  Zr0  1  -0.00000366  0.00001769  -0.00000943  1
  Zr  Zr1  1  0.00000058  0.00001290  0.50000271  1
  Sb  Sb0  1  0.26155466  0.99998351  0.25011256  1
  Sb  Sb1  1  0.73844796  0.00001248  0.74989281  1
  Sb  Sb2  1  -0.00000644  0.26148633  0.25006759  1
  Sb  Sb3  1  -0.00001267  0.73840198  0.74993659  1
  Sb  Sb4  1  0.73842051  0.73842927  0.24986071  1
  Sb  Sb5  1  0.26155467  0.26158144  0.75015869  1
  Sb  Sb6  1  0.33335378  0.66668158  0.00006788  1
  Sb  Sb7  1  0.66668682  0.33333843  0.00006388  1
  Sb  Sb8  1  0.66669305  0.33337327  0.49993428  1
  Sb  Sb9  1  0.33332689  0.66667004  0.49993257  1
loop_
_geom_bond_atom_site_label_1
_geom_bond_atom_site_label_2
_geom_bond_distance
_geom_bond_site_symmetry_2
Ce0 Sb2 3.242238 1_655
Ce0 Sb4 3.242247 1_545
Ce0 Sb7 3.368018 1_555
Ce0 Sb6 3.368350 1_545
Ce0 Sb8 3.368425 1_555
Ce0 Sb9 3.368490 1_545
Ce0 Sb0 3.380951 1_545
Ce0 Sb1 3.393622 1_555
Ce0 Sb1 3.394740 1_554
Ce1 Sb5 3.242484 1_555
Ce1 Sb3 3.242923 1_545
Ce1 Sb6 3.368573 1_546
Ce1 Sb9 3.368653 1_545
Ce1 Sb7 3.368723 1_556
Ce1 Sb8 3.368852 1_555
Ce1 Sb1 3.380797 1_555
Ce1 Sb0 3.393572 1_545
Ce1 Sb0 3.394897 1_546
Ce2 Sb0 3.242254 1_555
Ce2 Sb4 3.242493 1_455
Ce2 Sb8 3.368117 1_455
Ce2 Sb7 3.368298 1_455
Ce2 Sb9 3.368529 1_555
Ce2 Sb6 3.368644 1_555
Ce2 Sb2 3.381181 1_555
Ce2 Sb3 3.393743 1_555
Ce2 Sb3 3.394374 1_554
Ce3 Sb1 3.242216 1_555
Ce3 Sb5 3.242289 1_655
Ce3 Sb7 3.368667 1_556
Ce3 Sb8 3.368790 1_555
Ce3 Sb9 3.368841 1_655
Ce3 Sb6 3.369063 1_656
Ce3 Sb3 3.380182 1_655
Ce3 Sb2 3.394051 1_655
Ce3 Sb2 3.394755 1_656
Ce4 Sb0 3.242357 1_545
Ce4 Sb2 3.242509 1_555
Ce4 Sb6 3.368211 1_555
Ce4 Sb9 3.368227 1_555
Ce4 Sb8 3.368442 1_555
Ce4 Sb7 3.368648 1_555
Ce4 Sb4 3.380665 1_555
Ce4 Sb5 3.393325 1_554
Ce4 Sb5 3.395005 1_555
Ce5 Sb1 3.242389 1_565
Ce5 Sb3 3.242886 1_655
Ce5 Sb8 3.368426 1_555
Ce5 Sb6 3.368578 1_556
Ce5 Sb9 3.368639 1_555
Ce5 Sb7 3.368737 1_556
Ce5 Sb5 3.380461 1_555
Ce5 Sb4 3.393542 1_556
Ce5 Sb4 3.394929 1_555
Sb0 Zr1 2.960579 1_565
Sb0 Zr0 2.961446 1_565
Sb1 Zr1 2.960447 1_655
Sb1 Zr0 2.961124 1_656
Sb2 Zr1 2.959741 1_555
Sb2 Zr0 2.960229 1_555
Sb3 Zr1 2.960761 1_565
Sb3 Zr0 2.961285 1_566
Sb4 Zr0 2.960532 1_665
Sb4 Zr1 2.961538 1_665
Sb5 Zr0 2.960232 1_556
Sb5 Zr1 2.961420 1_555
Sb6 Sb9 3.185565 1_555
Sb6 Sb9 3.187289 1_554
Sb7 Sb8 3.185601 1_555
Sb7 Sb8 3.187253 1_554
