# generated using pymatgen
data_Na3Cr2(PO4)3
_symmetry_space_group_name_H-M   'P 1'
_cell_length_a   8.78458057
_cell_length_b   8.78458057
_cell_length_c   8.89207900
_cell_angle_alpha   60.36728515
_cell_angle_beta   60.36728515
_cell_angle_gamma   60.14158981
_symmetry_Int_Tables_number   1
_chemical_formula_structural   Na3Cr2(PO4)3
_chemical_formula_sum   'Na6 Cr4 P6 O24'
_cell_volume   488.41259931
_cell_formula_units_Z   2
loop_
 _symmetry_equiv_pos_site_id
 _symmetry_equiv_pos_as_xyz
  1  'x, y, z'
loop_
 _atom_site_type_symbol
 _atom_site_label
 _atom_site_symmetry_multiplicity
 _atom_site_fract_x
 _atom_site_fract_y
 _atom_site_fract_z
 _atom_site_occupancy
  Na  Na0  1  0.50000000  0.00000000  0.50000000  1
  Na  Na1  1  0.00000000  0.50000000  0.00000000  1
  Na  Na2  1  0.74822700  0.88494700  0.75062500  1
  Na  Na3  1  0.11505300  0.25177300  0.74937500  1
  Na  Na4  1  0.25177300  0.11505300  0.24937500  1
  Na  Na5  1  0.88494700  0.74822700  0.25062500  1
  Cr  Cr0  1  0.64643600  0.15120000  0.05781300  1
  Cr  Cr1  1  0.15120000  0.64643600  0.55781300  1
  Cr  Cr2  1  0.35356400  0.84880000  0.94218700  1
  Cr  Cr3  1  0.84880000  0.35356400  0.44218700  1
  P  P0  1  0.74718300  0.54228200  0.74834500  1
  P  P1  1  0.45771800  0.25281700  0.75165500  1
  P  P2  1  0.04289000  0.95711000  0.75000000  1
  P  P3  1  0.54228200  0.74718300  0.24834500  1
  P  P4  1  0.95711000  0.04289000  0.25000000  1
  P  P5  1  0.25281700  0.45771800  0.25165500  1
  O  O0  1  0.91993100  0.56634100  0.73510300  1
  O  O1  1  0.27558900  0.41858500  0.73591900  1
  O  O2  1  0.06017100  0.78055800  0.73474000  1
  O  O3  1  0.56634100  0.91993100  0.23510300  1
  O  O4  1  0.78055800  0.06017100  0.23474000  1
  O  O5  1  0.41858500  0.27558900  0.23591900  1
  O  O6  1  0.08006900  0.43365900  0.26489700  1
  O  O7  1  0.72441100  0.58141500  0.26408100  1
  O  O8  1  0.93982900  0.21944200  0.26526000  1
  O  O9  1  0.43365900  0.08006900  0.76489700  1
  O  O10  1  0.21944200  0.93982900  0.76526000  1
  O  O11  1  0.58141500  0.72441100  0.76408100  1
  O  O12  1  0.72908800  0.36727000  0.91680600  1
  O  O13  1  0.47987500  0.21967700  0.92768500  1
  O  O14  1  0.87025000  0.98192400  0.92279900  1
  O  O15  1  0.36727000  0.72908800  0.41680600  1
  O  O16  1  0.98192400  0.87025000  0.42279900  1
  O  O17  1  0.21967700  0.47987500  0.42768500  1
  O  O18  1  0.27091200  0.63273000  0.08319400  1
  O  O19  1  0.52012500  0.78032300  0.07231500  1
  O  O20  1  0.12975000  0.01807600  0.07720100  1
  O  O21  1  0.63273000  0.27091200  0.58319400  1
  O  O22  1  0.01807600  0.12975000  0.57720100  1
  O  O23  1  0.78032300  0.52012500  0.57231500  1
loop_
_geom_bond_atom_site_label_1
_geom_bond_atom_site_label_2
_geom_bond_distance
_geom_bond_site_symmetry_2
Na0 O5 2.490316 1_555
Na0 O11 2.490316 1_545
Na0 O10 2.496550 1_545
Na0 O4 2.496550 1_555
Na0 O3 2.501083 1_545
Na0 O9 2.501083 1_555
Na1 O7 2.490316 1_455
Na1 O1 2.490316 1_554
Na1 O8 2.496550 1_455
Na1 O2 2.496550 1_554
Na1 O0 2.501083 1_454
Na1 O6 2.501083 1_555
Na2 O2 2.369239 1_655
Na2 O9 2.396302 1_565
Na2 O11 2.422365 1_555
Na2 O0 2.469854 1_555
Na2 O19 2.570640 1_556
Na2 O16 2.630428 1_555
Na2 O21 2.796149 1_565
Na2 O14 2.835579 1_555
Na3 O10 2.369239 1_545
Na3 O0 2.396302 1_455
Na3 O1 2.422365 1_555
Na3 O9 2.469854 1_555
Na3 O17 2.570640 1_555
Na3 O20 2.630428 1_556
Na3 O12 2.796149 1_455
Na3 O22 2.835579 1_555
Na4 O8 2.369239 1_455
Na4 O3 2.396302 1_545
Na4 O5 2.422365 1_555
Na4 O6 2.469854 1_555
Na4 O13 2.570640 1_554
Na4 O22 2.630428 1_555
Na4 O15 2.796149 1_545
Na4 O20 2.835579 1_555
Na5 O4 2.369239 1_565
Na5 O6 2.396302 1_655
Na5 O7 2.422365 1_555
Na5 O3 2.469854 1_555
Na5 O23 2.570640 1_555
Na5 O14 2.630428 1_554
Na5 O18 2.796149 1_655
Na5 O16 2.835579 1_555
Cr0 O12 1.954628 1_554
Cr0 O13 1.987746 1_554
Cr0 O14 2.009540 1_544
Cr0 O5 2.026662 1_555
Cr0 O4 2.038023 1_555
Cr0 O3 2.065680 1_545
Cr1 O15 1.954628 1_555
Cr1 O17 1.987746 1_555
Cr1 O16 2.009540 1_455
Cr1 O1 2.026662 1_555
Cr1 O2 2.038023 1_555
Cr1 O0 2.065680 1_455
Cr2 O18 1.954628 1_556
Cr2 O19 1.987746 1_556
Cr2 O20 2.009540 1_566
Cr2 O11 2.026662 1_555
Cr2 O10 2.038023 1_555
Cr2 O9 2.065680 1_565
Cr3 O21 1.954628 1_555
Cr3 O23 1.987746 1_555
Cr3 O22 2.009540 1_655
Cr3 O7 2.026662 1_555
Cr3 O8 2.038023 1_555
Cr3 O6 2.065680 1_655
O0 P0 1.574624 1_555
O1 P1 1.549167 1_555
O2 P2 1.549247 1_555
O3 P3 1.574624 1_555
O4 P4 1.549247 1_555
O5 P5 1.549167 1_555
O6 P5 1.574624 1_555
O7 P3 1.549167 1_555
O8 P4 1.549247 1_555
O9 P1 1.574624 1_555
O10 P2 1.549247 1_555
O11 P0 1.549167 1_555
O12 P0 1.537302 1_555
O13 P1 1.538491 1_555
O14 P2 1.551178 1_655
O15 P3 1.537302 1_555
O16 P4 1.551178 1_565
O17 P5 1.538491 1_555
O18 P5 1.537302 1_555
O19 P3 1.538491 1_555
O20 P4 1.551178 1_455
O21 P1 1.537302 1_555
O22 P2 1.551178 1_545
O23 P0 1.538491 1_555
