# generated using pymatgen
data_CdPd3
_symmetry_space_group_name_H-M   'P 1'
_cell_length_a   5.82962024
_cell_length_b   5.82962024
_cell_length_c   18.33934520
_cell_angle_alpha   90.00000000
_cell_angle_beta   80.85476382
_cell_angle_gamma   120.00000000
_symmetry_Int_Tables_number   1
_chemical_formula_structural   CdPd3
_chemical_formula_sum   'Cd8 Pd24'
_cell_volume   530.58518724
_cell_formula_units_Z   8
loop_
 _symmetry_equiv_pos_site_id
 _symmetry_equiv_pos_as_xyz
  1  'x, y, z'
loop_
 _atom_site_type_symbol
 _atom_site_label
 _atom_site_symmetry_multiplicity
 _atom_site_fract_x
 _atom_site_fract_y
 _atom_site_fract_z
 _atom_site_occupancy
  Cd  Cd0_0  1  0.00000000  0.00000000  0.00000000  1
  Cd  Cd0_1  1  0.00000000  0.00000000  0.50000000  1
  Cd  Cd0_2  1  0.00000000  0.50000000  0.00000000  1
  Cd  Cd0_3  1  0.00000000  0.50000000  0.50000000  1
  Cd  Cd0_4  1  0.50000000  0.00000000  0.00000000  1
  Cd  Cd0_5  1  0.50000000  0.00000000  0.50000000  1
  Cd  Cd0_6  1  0.50000000  0.50000000  0.00000000  1
  Cd  Cd0_7  1  0.50000000  0.50000000  0.50000000  1
  Pd  Pd0_0  1  0.24937850  0.12468950  0.12593200  1
  Pd  Pd0_1  1  0.24937850  0.12468950  0.62593200  1
  Pd  Pd0_2  1  0.24937850  0.62468950  0.12593200  1
  Pd  Pd0_3  1  0.24937850  0.62468950  0.62593200  1
  Pd  Pd0_4  1  0.74937850  0.12468950  0.12593200  1
  Pd  Pd0_5  1  0.74937850  0.12468950  0.62593200  1
  Pd  Pd0_6  1  0.74937850  0.62468950  0.12593200  1
  Pd  Pd0_7  1  0.74937850  0.62468950  0.62593200  1
  Pd  Pd1_0  1  0.00000000  0.25000000  0.25000000  1
  Pd  Pd1_1  1  0.00000000  0.25000000  0.75000000  1
  Pd  Pd1_2  1  0.00000000  0.75000000  0.25000000  1
  Pd  Pd1_3  1  0.00000000  0.75000000  0.75000000  1
  Pd  Pd1_4  1  0.50000000  0.25000000  0.25000000  1
  Pd  Pd1_5  1  0.50000000  0.25000000  0.75000000  1
  Pd  Pd1_6  1  0.50000000  0.75000000  0.25000000  1
  Pd  Pd1_7  1  0.50000000  0.75000000  0.75000000  1
  Pd  Pd2_0  1  0.25062150  0.37531050  0.37406800  1
  Pd  Pd2_1  1  0.25062150  0.37531050  0.87406800  1
  Pd  Pd2_2  1  0.25062150  0.87531050  0.37406800  1
  Pd  Pd2_3  1  0.25062150  0.87531050  0.87406800  1
  Pd  Pd2_4  1  0.75062150  0.37531050  0.37406800  1
  Pd  Pd2_5  1  0.75062150  0.37531050  0.87406800  1
  Pd  Pd2_6  1  0.75062150  0.87531050  0.37406800  1
  Pd  Pd2_7  1  0.75062150  0.87531050  0.87406800  1
loop_
_geom_bond_atom_site_label_1
_geom_bond_atom_site_label_2
_geom_bond_distance
_geom_bond_site_symmetry_2
Cd0_0 Pd0_6 2.825991 1_445
Cd0_0 Pd2_1 2.825991 1_554
Cd0_0 Pd0_0 2.825991 1_555
Cd0_0 Pd2_7 2.825991 1_444
Cd0_0 Pd0_4 2.825992 1_455
Cd0_0 Pd2_3 2.825992 1_544
Cd0_0 Cd0_4 2.914810 1_555
Cd0_0 Cd0_2 2.914810 1_545
Cd0_0 Cd0_2 2.914810 1_555
Cd0_0 Cd0_6 2.914810 1_555
Cd0_0 Cd0_6 2.914810 1_445
Cd0_0 Cd0_4 2.914810 1_455
Cd0_1 Pd0_7 2.825991 1_445
Cd0_1 Pd2_0 2.825991 1_555
Cd0_1 Pd0_1 2.825991 1_555
Cd0_1 Pd2_6 2.825991 1_445
Cd0_1 Pd0_5 2.825992 1_455
Cd0_1 Pd2_2 2.825992 1_545
Cd0_1 Cd0_5 2.914810 1_555
Cd0_1 Cd0_7 2.914810 1_555
Cd0_1 Cd0_3 2.914810 1_555
Cd0_1 Cd0_5 2.914810 1_455
Cd0_1 Cd0_7 2.914810 1_445
Cd0_1 Cd0_3 2.914810 1_545
Cd0_2 Pd0_4 2.825991 1_455
Cd0_2 Pd2_3 2.825991 1_554
Cd0_2 Pd0_2 2.825991 1_555
Cd0_2 Pd2_5 2.825991 1_454
Cd0_2 Pd0_6 2.825992 1_455
Cd0_2 Pd2_1 2.825992 1_554
Cd0_2 Cd0_6 2.914810 1_555
Cd0_2 Cd0_4 2.914810 1_565
Cd0_2 Cd0_4 2.914810 1_455
Cd0_2 Cd0_6 2.914810 1_455
Cd0_3 Pd0_5 2.825991 1_455
Cd0_3 Pd2_2 2.825991 1_555
Cd0_3 Pd0_3 2.825991 1_555
Cd0_3 Pd2_4 2.825991 1_455
Cd0_3 Pd0_7 2.825992 1_455
Cd0_3 Pd2_0 2.825992 1_555
Cd0_3 Cd0_7 2.914810 1_555
Cd0_3 Cd0_7 2.914810 1_455
Cd0_3 Cd0_5 2.914810 1_455
Cd0_3 Cd0_5 2.914810 1_565
Cd0_4 Pd0_2 2.825991 1_545
Cd0_4 Pd2_5 2.825991 1_554
Cd0_4 Pd0_4 2.825991 1_555
Cd0_4 Pd2_3 2.825991 1_544
Cd0_4 Pd0_0 2.825992 1_555
Cd0_4 Pd2_7 2.825992 1_544
Cd0_4 Cd0_6 2.914810 1_545
Cd0_4 Cd0_6 2.914810 1_555
Cd0_5 Pd0_3 2.825991 1_545
Cd0_5 Pd2_4 2.825991 1_555
Cd0_5 Pd0_5 2.825991 1_555
Cd0_5 Pd2_2 2.825991 1_545
Cd0_5 Pd0_1 2.825992 1_555
Cd0_5 Pd2_6 2.825992 1_545
Cd0_5 Cd0_7 2.914810 1_555
Cd0_5 Cd0_7 2.914810 1_545
Cd0_6 Pd0_0 2.825991 1_555
Cd0_6 Pd2_7 2.825991 1_554
Cd0_6 Pd0_6 2.825991 1_555
Cd0_6 Pd2_1 2.825991 1_554
Cd0_6 Pd0_2 2.825992 1_555
Cd0_6 Pd2_5 2.825992 1_554
Cd0_7 Pd0_1 2.825991 1_555
Cd0_7 Pd2_6 2.825991 1_555
Cd0_7 Pd0_7 2.825991 1_555
Cd0_7 Pd2_0 2.825991 1_555
Cd0_7 Pd0_3 2.825992 1_555
Cd0_7 Pd2_4 2.825992 1_555
Pd0_0 Pd1_0 2.799066 1_555
Pd0_0 Pd1_2 2.799067 1_545
Pd0_0 Pd1_4 2.799067 1_555
Pd0_0 Pd0_6 2.914810 1_555
Pd0_0 Pd0_4 2.914810 1_455
Pd0_0 Pd0_2 2.914810 1_545
Pd0_0 Pd0_4 2.914810 1_555
Pd0_0 Pd0_2 2.914810 1_555
Pd0_0 Pd0_6 2.914810 1_445
Pd0_1 Pd1_1 2.799066 1_555
Pd0_1 Pd1_3 2.799067 1_545
Pd0_1 Pd1_5 2.799067 1_555
Pd0_1 Pd0_7 2.914810 1_555
Pd0_1 Pd0_3 2.914810 1_545
Pd0_1 Pd0_5 2.914810 1_555
Pd0_1 Pd0_5 2.914810 1_455
Pd0_1 Pd0_3 2.914810 1_555
Pd0_1 Pd0_7 2.914810 1_445
Pd0_2 Pd1_2 2.799066 1_555
Pd0_2 Pd1_0 2.799067 1_555
Pd0_2 Pd1_6 2.799067 1_555
Pd0_2 Pd0_6 2.914810 1_555
Pd0_2 Pd0_4 2.914810 1_455
Pd0_2 Pd0_4 2.914810 1_565
Pd0_2 Pd0_6 2.914810 1_455
Pd0_3 Pd1_3 2.799066 1_555
Pd0_3 Pd1_1 2.799067 1_555
Pd0_3 Pd1_7 2.799067 1_555
Pd0_3 Pd0_7 2.914810 1_555
Pd0_3 Pd0_5 2.914810 1_455
Pd0_3 Pd0_5 2.914810 1_565
Pd0_3 Pd0_7 2.914810 1_455
Pd0_4 Pd1_4 2.799066 1_555
Pd0_4 Pd1_6 2.799067 1_545
Pd0_4 Pd1_0 2.799067 1_655
Pd0_4 Pd0_6 2.914810 1_545
Pd0_4 Pd0_6 2.914810 1_555
Pd0_5 Pd1_5 2.799066 1_555
Pd0_5 Pd1_7 2.799067 1_545
Pd0_5 Pd1_1 2.799067 1_655
Pd0_5 Pd0_7 2.914810 1_545
Pd0_5 Pd0_7 2.914810 1_555
Pd0_6 Pd1_6 2.799066 1_555
Pd0_6 Pd1_4 2.799067 1_555
Pd0_6 Pd1_2 2.799067 1_655
Pd0_7 Pd1_7 2.799066 1_555
Pd0_7 Pd1_5 2.799067 1_555
Pd0_7 Pd1_3 2.799067 1_655
Pd1_0 Pd2_4 2.799066 1_455
Pd1_0 Pd2_6 2.799067 1_445
Pd1_0 Pd2_0 2.799067 1_555
Pd1_0 Pd1_4 2.914810 1_555
Pd1_0 Pd1_2 2.914810 1_555
Pd1_0 Pd1_6 2.914810 1_555
Pd1_0 Pd1_2 2.914810 1_545
Pd1_0 Pd1_6 2.914810 1_445
Pd1_0 Pd1_4 2.914810 1_455
Pd1_1 Pd2_5 2.799066 1_455
Pd1_1 Pd2_7 2.799067 1_445
Pd1_1 Pd2_1 2.799067 1_555
Pd1_1 Pd1_7 2.914810 1_555
Pd1_1 Pd1_5 2.914810 1_555
Pd1_1 Pd1_3 2.914810 1_555
Pd1_1 Pd1_5 2.914810 1_455
Pd1_1 Pd1_3 2.914810 1_545
Pd1_1 Pd1_7 2.914810 1_445
Pd1_2 Pd2_6 2.799066 1_455
Pd1_2 Pd2_4 2.799067 1_455
Pd1_2 Pd2_2 2.799067 1_555
Pd1_2 Pd1_6 2.914810 1_555
Pd1_2 Pd1_4 2.914810 1_565
Pd1_2 Pd1_4 2.914810 1_455
Pd1_2 Pd1_6 2.914810 1_455
Pd1_3 Pd2_7 2.799066 1_455
Pd1_3 Pd2_5 2.799067 1_455
Pd1_3 Pd2_3 2.799067 1_555
Pd1_3 Pd1_7 2.914810 1_555
Pd1_3 Pd1_5 2.914810 1_455
Pd1_3 Pd1_5 2.914810 1_565
Pd1_3 Pd1_7 2.914810 1_455
Pd1_4 Pd2_0 2.799066 1_555
Pd1_4 Pd2_2 2.799067 1_545
Pd1_4 Pd2_4 2.799067 1_555
Pd1_4 Pd1_6 2.914810 1_555
Pd1_4 Pd1_6 2.914810 1_545
Pd1_5 Pd2_1 2.799066 1_555
Pd1_5 Pd2_3 2.799067 1_545
Pd1_5 Pd2_5 2.799067 1_555
Pd1_5 Pd1_7 2.914810 1_555
Pd1_5 Pd1_7 2.914810 1_545
Pd1_6 Pd2_2 2.799066 1_555
Pd1_6 Pd2_0 2.799067 1_555
Pd1_6 Pd2_6 2.799067 1_555
Pd1_7 Pd2_3 2.799066 1_555
Pd1_7 Pd2_1 2.799067 1_555
Pd1_7 Pd2_7 2.799067 1_555
Pd2_0 Pd2_4 2.914810 1_555
Pd2_0 Pd2_6 2.914810 1_555
Pd2_0 Pd2_2 2.914810 1_545
Pd2_0 Pd2_2 2.914810 1_555
Pd2_0 Pd2_6 2.914810 1_445
Pd2_0 Pd2_4 2.914810 1_455
Pd2_1 Pd2_5 2.914810 1_555
Pd2_1 Pd2_3 2.914810 1_545
Pd2_1 Pd2_7 2.914810 1_445
Pd2_1 Pd2_7 2.914810 1_555
Pd2_1 Pd2_3 2.914810 1_555
Pd2_1 Pd2_5 2.914810 1_455
Pd2_2 Pd2_6 2.914810 1_555
Pd2_2 Pd2_4 2.914810 1_565
Pd2_2 Pd2_4 2.914810 1_455
Pd2_2 Pd2_6 2.914810 1_455
Pd2_3 Pd2_5 2.914810 1_565
Pd2_3 Pd2_7 2.914810 1_455
Pd2_3 Pd2_7 2.914810 1_555
Pd2_3 Pd2_5 2.914810 1_455
Pd2_4 Pd2_6 2.914810 1_555
Pd2_4 Pd2_6 2.914810 1_545
Pd2_5 Pd2_7 2.914810 1_545
Pd2_5 Pd2_7 2.914810 1_555
