# generated using pymatgen
data_Mg7Si4
_symmetry_space_group_name_H-M   'P 1'
_cell_length_a   5.45924200
_cell_length_b   6.22887693
_cell_length_c   13.65375440
_cell_angle_alpha   103.05782459
_cell_angle_beta   96.38737263
_cell_angle_gamma   89.95494617
_symmetry_Int_Tables_number   1
_chemical_formula_structural   Mg7Si4
_chemical_formula_sum   'Mg14 Si8'
_cell_volume   449.33989828
_cell_formula_units_Z   2
loop_
 _symmetry_equiv_pos_site_id
 _symmetry_equiv_pos_as_xyz
  1  'x, y, z'
loop_
 _atom_site_type_symbol
 _atom_site_label
 _atom_site_symmetry_multiplicity
 _atom_site_fract_x
 _atom_site_fract_y
 _atom_site_fract_z
 _atom_site_occupancy
  Mg  Mg0  1  0.89209800  0.16451100  0.21883800  1
  Mg  Mg1  1  0.91467900  0.67541500  0.25460300  1
  Mg  Mg2  1  0.45774800  0.47189100  0.36925400  1
  Mg  Mg3  1  0.44617700  0.96706100  0.33777800  1
  Mg  Mg4  1  0.05372800  0.57773400  0.02963000  1
  Mg  Mg5  1  0.30335900  0.60180900  0.59109000  1
  Mg  Mg6  1  0.69569100  0.47602700  0.82111200  1
  Mg  Mg7  1  0.30010600  0.09498500  0.57436000  1
  Mg  Mg8  1  0.57001700  0.82742000  0.04634700  1
  Mg  Mg9  1  0.58627900  0.31520500  0.02282200  1
  Mg  Mg10  1  0.05813000  0.05476400  0.99046500  1
  Mg  Mg11  1  0.53937300  0.96471600  0.78625400  1
  Mg  Mg12  1  0.78354700  0.34811300  0.57615100  1
  Mg  Mg13  1  0.77691200  0.82240200  0.53051800  1
  Si  Si0  1  0.24534900  0.69177900  0.86388800  1
  Si  Si1  1  0.37087000  0.19006800  0.17499300  1
  Si  Si2  1  0.39743400  0.59014600  0.18518800  1
  Si  Si3  1  0.96743200  0.12397600  0.72138800  1
  Si  Si4  1  0.23814000  0.30548100  0.86240000  1
  Si  Si5  1  0.97723100  0.44961700  0.40984700  1
  Si  Si6  1  0.96816800  0.05542400  0.40389300  1
  Si  Si7  1  0.95746200  0.73517400  0.72545200  1
loop_
_geom_bond_atom_site_label_1
_geom_bond_atom_site_label_2
_geom_bond_distance
_geom_bond_site_symmetry_2
Mg0 Si6 2.749589 1_555
Mg0 Si1 2.758112 1_655
Mg0 Si5 2.794669 1_555
Mg0 Si1 2.853766 1_555
Mg1 Si6 2.744355 1_565
Mg1 Si5 2.788020 1_555
Mg1 Si2 2.886771 1_555
Mg1 Si2 2.907269 1_655
Mg2 Si5 2.750772 1_455
Mg2 Si2 2.760276 1_555
Mg2 Si1 2.821198 1_555
Mg2 Si5 2.837893 1_555
Mg3 Si2 2.755142 1_555
Mg3 Si6 2.867935 1_465
Mg3 Si1 2.868716 1_565
Mg3 Si6 2.905869 1_565
Mg4 Si2 2.660304 1_555
Mg4 Si4 2.803929 1_554
Mg4 Si0 2.823907 1_554
Mg5 Si7 2.775093 1_455
Mg5 Si5 2.855646 1_455
Mg6 Si7 2.779466 1_555
Mg6 Si3 2.821097 1_555
Mg6 Si0 2.855019 1_555
Mg6 Si4 2.876423 1_555
Mg6 Si4 3.179649 1_655
Mg7 Si6 2.750445 1_455
Mg7 Si3 2.829820 1_455
Mg8 Si1 2.828074 1_565
Mg8 Si0 2.851402 1_554
Mg8 Si2 2.886403 1_555
Mg9 Si4 2.725348 1_554
Mg9 Si1 2.753944 1_555
Mg9 Si2 2.774999 1_555
Mg10 Si0 2.786978 1_545
Mg10 Si1 2.838800 1_556
Mg10 Si4 2.842667 1_555
Mg11 Si4 2.769193 1_565
Mg11 Si0 2.790622 1_555
Mg11 Si7 2.796993 1_555
Mg11 Si3 2.844405 1_565
Mg12 Si3 2.774024 1_555
Mg12 Si5 2.803162 1_555
Mg12 Si7 2.867374 1_555
Mg12 Si6 2.908324 1_555
Mg13 Si6 2.779211 1_565
Mg13 Si5 2.823215 1_555
Mg13 Si7 2.901666 1_555
Mg13 Si3 2.930873 1_565
Si0 Si7 2.384345 1_455
Si0 Si4 2.402010 1_555
Si1 Si2 2.467789 1_555
Si3 Si4 2.356935 1_655
Si3 Si7 2.435725 1_545
Si5 Si6 2.438656 1_555
