# generated using pymatgen
data_La4HoC10
_symmetry_space_group_name_H-M   'P 1'
_cell_length_a   4.27630966
_cell_length_b   4.27630966
_cell_length_c   13.90473793
_cell_angle_alpha   82.53758384
_cell_angle_beta   97.46241616
_cell_angle_gamma   81.06009059
_symmetry_Int_Tables_number   1
_chemical_formula_structural   La4HoC10
_chemical_formula_sum   'La4 Ho1 C10'
_cell_volume   246.11696764
_cell_formula_units_Z   1
loop_
 _symmetry_equiv_pos_site_id
 _symmetry_equiv_pos_as_xyz
  1  'x, y, z'
loop_
 _atom_site_type_symbol
 _atom_site_label
 _atom_site_symmetry_multiplicity
 _atom_site_fract_x
 _atom_site_fract_y
 _atom_site_fract_z
 _atom_site_occupancy
  La  La0  1  0.59894737  0.40105263  0.19789474  1
  La  La1  1  0.19955958  0.80044042  0.39911917  1
  La  La2  1  0.80044042  0.19955958  0.60088083  1
  La  La3  1  0.40105263  0.59894737  0.80210526  1
  Ho  Ho0  1  -0.00000000  0.00000000  -0.00000000  1
  C  C0  1  0.80511594  0.99551781  0.80959813  1
  C  C1  1  0.20017112  0.59998843  0.60018269  1
  C  C2  1  0.59998843  0.20017112  0.39981731  1
  C  C3  1  0.39962876  0.39962876  -0.00000000  1
  C  C4  1  0.99551781  0.80511594  0.19040187  1
  C  C5  1  0.40001157  0.79982888  0.60018269  1
  C  C6  1  0.79982888  0.40001157  0.39981731  1
  C  C7  1  0.19488406  0.00448219  0.19040187  1
  C  C8  1  0.00448219  0.19488406  0.80959813  1
  C  C9  1  0.60037124  0.60037124  -0.00000000  1
loop_
_geom_bond_atom_site_label_1
_geom_bond_atom_site_label_2
_geom_bond_distance
_geom_bond_site_symmetry_2
C0 C8 1.295990 1_665
C0 La3 2.604281 1_555
C0 Ho0 2.673785 1_666
C0 La3 2.855321 1_565
C0 La3 2.855321 1_655
C0 La2 2.916506 1_565
C1 C5 1.299073 1_555
C1 La2 2.600756 1_455
C1 La1 2.815287 1_555
C1 La3 2.826676 1_555
C1 La2 2.853862 1_465
C1 La2 2.853862 1_555
C2 C6 1.299073 1_555
C2 La1 2.600756 1_545
C2 La2 2.815287 1_555
C2 La0 2.826676 1_555
C2 La1 2.853862 1_645
C2 La1 2.853862 1_555
C3 C9 1.304936 1_555
C3 Ho0 2.597806 1_555
C3 La3 2.773985 1_554
C3 La0 2.773985 1_555
C3 Ho0 2.854515 1_655
C3 Ho0 2.854515 1_565
C4 C7 1.295990 1_665
C4 La0 2.604281 1_555
C4 Ho0 2.673785 1_665
C4 La0 2.855321 1_655
C4 La0 2.855321 1_565
C4 La1 2.916506 1_655
C5 La2 2.600756 1_565
C5 La1 2.815287 1_555
C5 La3 2.826676 1_555
C5 La2 2.853862 1_465
C5 La2 2.853862 1_555
C6 La1 2.600756 1_655
C6 La2 2.815287 1_555
C6 La0 2.826676 1_555
C6 La1 2.853862 1_645
C6 La1 2.853862 1_555
C7 La0 2.604281 1_555
C7 Ho0 2.673785 1_555
C7 La0 2.855321 1_545
C7 La0 2.855321 1_455
C7 La1 2.916506 1_545
C8 La3 2.604281 1_555
C8 Ho0 2.673785 1_556
C8 La3 2.855321 1_455
C8 La3 2.855321 1_545
C8 La2 2.916506 1_455
C9 Ho0 2.597806 1_665
C9 La3 2.773985 1_554
C9 La0 2.773985 1_555
C9 Ho0 2.854515 1_655
C9 Ho0 2.854515 1_565
