# generated using pymatgen
data_Zr5Sn3N
_symmetry_space_group_name_H-M   'P 1'
_cell_length_a   8.45336795
_cell_length_b   8.45336795
_cell_length_c   5.77759910
_cell_angle_alpha   90.00000000
_cell_angle_beta   90.00000000
_cell_angle_gamma   119.99999695
_symmetry_Int_Tables_number   1
_chemical_formula_structural   Zr5Sn3N
_chemical_formula_sum   'Zr10 Sn6 N2'
_cell_volume   357.55066851
_cell_formula_units_Z   2
loop_
 _symmetry_equiv_pos_site_id
 _symmetry_equiv_pos_as_xyz
  1  'x, y, z'
loop_
 _atom_site_type_symbol
 _atom_site_label
 _atom_site_symmetry_multiplicity
 _atom_site_fract_x
 _atom_site_fract_y
 _atom_site_fract_z
 _atom_site_occupancy
  Zr  Zr0  1  0.66666700  0.33333300  -0.00000000  1
  Zr  Zr1  1  0.33333300  0.66666700  -0.00000000  1
  Zr  Zr2  1  0.33333300  0.66666700  0.50000000  1
  Zr  Zr3  1  0.66666700  0.33333300  0.50000000  1
  Zr  Zr4  1  0.77914080  0.77914080  0.75000000  1
  Zr  Zr5  1  0.22085920  0.00000000  0.75000000  1
  Zr  Zr6  1  0.00000000  0.22085920  0.75000000  1
  Zr  Zr7  1  0.22085920  0.22085920  0.25000000  1
  Zr  Zr8  1  0.77914080  1.00000000  0.25000000  1
  Zr  Zr9  1  1.00000000  0.77914080  0.25000000  1
  Sn  Sn0  1  0.40541083  0.40541083  0.75000000  1
  Sn  Sn1  1  0.59458917  0.00000000  0.75000000  1
  Sn  Sn2  1  -0.00000000  0.59458917  0.75000000  1
  Sn  Sn3  1  0.59458917  0.59458917  0.25000000  1
  Sn  Sn4  1  0.40541083  0.00000000  0.25000000  1
  Sn  Sn5  1  0.00000000  0.40541083  0.25000000  1
  N  N0  1  0.00000000  0.00000000  -0.00000000  1
  N  N1  1  0.00000000  0.00000000  0.50000000  1
loop_
_geom_bond_atom_site_label_1
_geom_bond_atom_site_label_2
_geom_bond_distance
_geom_bond_site_symmetry_2
Sn0 Zr2 2.946290 1_555
Sn0 Zr3 2.946290 1_555
Sn0 Zr0 2.946290 1_556
Sn0 Zr1 2.946290 1_556
Sn0 Zr5 2.971909 1_555
Sn0 Zr6 2.971909 1_555
Sn0 Zr4 3.159277 1_555
Sn0 Zr7 3.283142 1_555
Sn0 Zr7 3.283142 1_556
Sn1 Zr0 2.946282 1_556
Sn1 Zr3 2.946282 1_555
Sn1 Zr1 2.946285 1_546
Sn1 Zr2 2.946285 1_545
Sn1 Zr4 2.971909 1_545
Sn1 Zr6 2.971909 1_655
Sn1 Zr5 3.159277 1_555
Sn1 Zr8 3.283142 1_545
Sn1 Zr8 3.283142 1_546
Sn2 Zr2 2.946282 1_555
Sn2 Zr1 2.946282 1_556
Sn2 Zr0 2.946285 1_456
Sn2 Zr3 2.946285 1_455
Sn2 Zr4 2.971909 1_455
Sn2 Zr5 2.971909 1_565
Sn2 Zr6 3.159277 1_555
Sn2 Zr9 3.283142 1_455
Sn2 Zr9 3.283142 1_456
Sn3 Zr2 2.946290 1_555
Sn3 Zr1 2.946290 1_555
Sn3 Zr3 2.946290 1_555
Sn3 Zr0 2.946290 1_555
Sn3 Zr8 2.971909 1_555
Sn3 Zr9 2.971909 1_555
Sn3 Zr7 3.159277 1_555
Sn3 Zr4 3.283142 1_555
Sn3 Zr4 3.283142 1_554
Sn4 Zr2 2.946282 1_545
Sn4 Zr1 2.946282 1_545
Sn4 Zr3 2.946285 1_555
Sn4 Zr0 2.946285 1_555
Sn4 Zr7 2.971909 1_555
Sn4 Zr9 2.971909 1_445
Sn4 Zr8 3.159277 1_545
Sn4 Zr5 3.283142 1_555
Sn4 Zr5 3.283142 1_554
Sn5 Zr0 2.946282 1_455
Sn5 Zr3 2.946282 1_455
Sn5 Zr2 2.946285 1_555
Sn5 Zr1 2.946285 1_555
Sn5 Zr7 2.971909 1_555
Sn5 Zr8 2.971909 1_445
Sn5 Zr9 3.159277 1_455
Sn5 Zr6 3.283142 1_554
Sn5 Zr6 3.283142 1_555
N0 Zr5 2.360507 1_554
N0 Zr8 2.360507 1_445
N0 Zr6 2.360507 1_554
N0 Zr9 2.360507 1_445
N0 Zr7 2.360507 1_555
N0 Zr4 2.360507 1_444
N1 Zr9 2.360507 1_445
N1 Zr5 2.360507 1_555
N1 Zr8 2.360507 1_445
N1 Zr6 2.360507 1_555
N1 Zr7 2.360507 1_555
N1 Zr4 2.360507 1_445
