# generated using pymatgen
data_Cu3Ag5(PO4)4
_symmetry_space_group_name_H-M   'P 1'
_cell_length_a   9.30114089
_cell_length_b   9.30114089
_cell_length_c   17.00470059
_cell_angle_alpha   66.12363157
_cell_angle_beta   66.12363157
_cell_angle_gamma   32.23739826
_symmetry_Int_Tables_number   1
_chemical_formula_structural   Cu3Ag5(PO4)4
_chemical_formula_sum   'Cu6 Ag10 P8 O32'
_cell_volume   711.67409625
_cell_formula_units_Z   2
loop_
 _symmetry_equiv_pos_site_id
 _symmetry_equiv_pos_as_xyz
  1  'x, y, z'
loop_
 _atom_site_type_symbol
 _atom_site_label
 _atom_site_symmetry_multiplicity
 _atom_site_fract_x
 _atom_site_fract_y
 _atom_site_fract_z
 _atom_site_occupancy
  Cu  Cu0  1  0.50000000  0.00000000  0.50000000  1
  Cu  Cu1  1  0.00000000  0.50000000  0.00000000  1
  Cu  Cu2  1  0.82516700  0.37823500  0.52454100  1
  Cu  Cu3  1  0.62176500  0.17483300  0.97545900  1
  Cu  Cu4  1  0.17483300  0.62176500  0.47545900  1
  Cu  Cu5  1  0.37823500  0.82516700  0.02454100  1
  Ag  Ag0  1  0.72729100  0.27270900  0.75000000  1
  Ag  Ag1  1  0.27270900  0.72729100  0.25000000  1
  Ag  Ag2  1  0.58541200  0.14470900  0.62212400  1
  Ag  Ag3  1  0.85529100  0.41458800  0.87787600  1
  Ag  Ag4  1  0.41458800  0.85529100  0.37787600  1
  Ag  Ag5  1  0.14470900  0.58541200  0.12212400  1
  Ag  Ag6  1  0.43122100  0.92149900  0.75044200  1
  Ag  Ag7  1  0.07850100  0.56877900  0.74955800  1
  Ag  Ag8  1  0.56877900  0.07850100  0.24955800  1
  Ag  Ag9  1  0.92149900  0.43122100  0.25044200  1
  P  P0  1  0.51637500  0.04917700  0.87913700  1
  P  P1  1  0.95082300  0.48362500  0.62086300  1
  P  P2  1  0.48362500  0.95082300  0.12086300  1
  P  P3  1  0.04917700  0.51637500  0.37913700  1
  P  P4  1  0.19628300  0.81945800  0.89774100  1
  P  P5  1  0.18054200  0.80371700  0.60225900  1
  P  P6  1  0.80371700  0.18054200  0.10225900  1
  P  P7  1  0.81945800  0.19628300  0.39774100  1
  O  O0  1  0.63857800  0.79982400  0.95004100  1
  O  O1  1  0.20017600  0.36142200  0.54995900  1
  O  O2  1  0.36142200  0.20017600  0.04995900  1
  O  O3  1  0.79982400  0.63857800  0.45004100  1
  O  O4  1  0.64021300  0.09943200  0.87695400  1
  O  O5  1  0.90056800  0.35978700  0.62304600  1
  O  O6  1  0.35978700  0.90056800  0.12304600  1
  O  O7  1  0.09943200  0.64021300  0.37695400  1
  O  O8  1  0.19948600  0.30226600  0.90192600  1
  O  O9  1  0.69773400  0.80051400  0.59807400  1
  O  O10  1  0.80051400  0.69773400  0.09807400  1
  O  O11  1  0.30226600  0.19948600  0.40192600  1
  O  O12  1  0.58691100  0.98830600  0.78827500  1
  O  O13  1  0.01169400  0.41308900  0.71172500  1
  O  O14  1  0.41308900  0.01169400  0.21172500  1
  O  O15  1  0.98830600  0.58691100  0.28827500  1
  O  O16  1  0.88568800  0.12298600  0.90495800  1
  O  O17  1  0.87701400  0.11431200  0.59504200  1
  O  O18  1  0.11431200  0.87701400  0.09504200  1
  O  O19  1  0.12298600  0.88568800  0.40495800  1
  O  O20  1  0.35950400  0.80083700  0.92280900  1
  O  O21  1  0.19916300  0.64049600  0.57719100  1
  O  O22  1  0.64049600  0.19916300  0.07719100  1
  O  O23  1  0.80083700  0.35950400  0.42280900  1
  O  O24  1  0.21933300  0.62663500  0.95602100  1
  O  O25  1  0.37336500  0.78066700  0.54397900  1
  O  O26  1  0.78066700  0.37336500  0.04397900  1
  O  O27  1  0.62663500  0.21933300  0.45602100  1
  O  O28  1  0.30678100  0.77183800  0.80165700  1
  O  O29  1  0.22816200  0.69321900  0.69834300  1
  O  O30  1  0.69321900  0.22816200  0.19834300  1
  O  O31  1  0.77183800  0.30678100  0.30165700  1
loop_
_geom_bond_atom_site_label_1
_geom_bond_atom_site_label_2
_geom_bond_distance
_geom_bond_site_symmetry_2
Cu0 O9 1.952343 1_545
Cu0 O11 1.952343 1_555
Cu0 O1 2.081891 1_555
Cu0 O3 2.081891 1_545
Cu1 O10 1.952343 1_455
Cu1 O8 1.952343 1_554
Cu1 O0 2.081891 1_454
Cu1 O2 2.081891 1_555
Cu2 O23 1.924001 1_555
Cu2 O17 1.943912 1_555
Cu2 O5 1.960053 1_555
Cu2 O3 2.077704 1_555
Cu2 O25 2.246504 1_555
Cu3 O22 1.924001 1_556
Cu3 O16 1.943912 1_555
Cu3 O4 1.960053 1_555
Cu3 O2 2.077704 1_556
Cu3 O24 2.246504 1_555
Cu4 O21 1.924001 1_555
Cu4 O19 1.943912 1_555
Cu4 O7 1.960053 1_555
Cu4 O1 2.077704 1_555
Cu4 O27 2.246504 1_555
Cu5 O20 1.924001 1_554
Cu5 O18 1.943912 1_555
Cu5 O6 1.960053 1_555
Cu5 O0 2.077704 1_554
Cu5 O26 2.246504 1_555
Ag0 O4 2.426959 1_555
Ag0 O5 2.426959 1_555
Ag0 O28 2.724798 1_555
Ag0 O29 2.724798 1_555
Ag0 O16 2.784682 1_555
Ag0 O17 2.784682 1_555
Ag1 O7 2.426959 1_555
Ag1 O6 2.426959 1_555
Ag1 O30 2.724798 1_555
Ag1 O31 2.724798 1_555
Ag1 O19 2.784682 1_555
Ag1 O18 2.784682 1_555
Ag2 O17 2.333508 1_555
Ag2 O21 2.469675 1_555
Ag2 O9 2.561974 1_545
Ag2 O27 2.567720 1_555
Ag2 O12 2.601796 1_545
Ag3 O16 2.333508 1_555
Ag3 O20 2.469675 1_555
Ag3 O8 2.561974 1_655
Ag3 O26 2.567720 1_556
Ag3 O13 2.601796 1_655
Ag4 O19 2.333508 1_555
Ag4 O23 2.469675 1_555
Ag4 O11 2.561974 1_565
Ag4 O25 2.567720 1_555
Ag4 O14 2.601796 1_565
Ag5 O18 2.333508 1_555
Ag5 O22 2.469675 1_555
Ag5 O10 2.561974 1_455
Ag5 O24 2.567720 1_554
Ag5 O15 2.601796 1_455
Ag6 O28 2.228009 1_555
Ag6 O12 2.344564 1_555
Ag6 O13 2.454839 1_565
Ag6 O9 2.562469 1_555
Ag6 O20 2.704865 1_555
Ag7 O29 2.228009 1_555
Ag7 O13 2.344564 1_555
Ag7 O12 2.454839 1_455
Ag7 O8 2.562469 1_555
Ag7 O21 2.704865 1_555
Ag8 O30 2.228009 1_555
Ag8 O14 2.344564 1_555
Ag8 O15 2.454839 1_545
Ag8 O11 2.562469 1_555
Ag8 O22 2.704865 1_555
Ag9 O31 2.228009 1_555
Ag9 O15 2.344564 1_555
Ag9 O14 2.454839 1_655
Ag9 O10 2.562469 1_555
Ag9 O23 2.704865 1_555
O0 P0 1.584546 1_565
O1 P1 1.584546 1_455
O2 P2 1.584546 1_545
O3 P3 1.584546 1_655
O4 P0 1.552011 1_555
O5 P1 1.552011 1_555
O6 P2 1.552011 1_555
O7 P3 1.552011 1_555
O8 P0 1.566938 1_555
O9 P1 1.566938 1_555
O10 P2 1.566938 1_555
O11 P3 1.566938 1_555
O12 P0 1.548366 1_565
O13 P1 1.548366 1_455
O14 P2 1.548366 1_545
O15 P3 1.548366 1_655
O16 P4 1.589767 1_645
O17 P5 1.589767 1_645
O18 P6 1.589767 1_465
O19 P7 1.589767 1_465
O20 P4 1.592409 1_555
O21 P5 1.592409 1_555
O22 P6 1.592409 1_555
O23 P7 1.592409 1_555
O24 P4 1.525564 1_555
O25 P5 1.525564 1_555
O26 P6 1.525564 1_555
O27 P7 1.525564 1_555
O28 P4 1.542205 1_555
O29 P5 1.542205 1_555
O30 P6 1.542205 1_555
O31 P7 1.542205 1_555
