# generated using pymatgen
data_HfMg3
_symmetry_space_group_name_H-M   'P 1'
_cell_length_a   6.05146800
_cell_length_b   10.17864600
_cell_length_c   11.58701600
_cell_angle_alpha   90.00000000
_cell_angle_beta   90.00000000
_cell_angle_gamma   90.00000000
_symmetry_Int_Tables_number   1
_chemical_formula_structural   HfMg3
_chemical_formula_sum   'Hf8 Mg24'
_cell_volume   713.71094718
_cell_formula_units_Z   8
loop_
 _symmetry_equiv_pos_site_id
 _symmetry_equiv_pos_as_xyz
  1  'x, y, z'
loop_
 _atom_site_type_symbol
 _atom_site_label
 _atom_site_symmetry_multiplicity
 _atom_site_fract_x
 _atom_site_fract_y
 _atom_site_fract_z
 _atom_site_occupancy
  Hf  Hf0_0  1  0.25000000  0.00000000  0.07994100  1
  Hf  Hf0_1  1  0.25000000  0.00000000  0.57994100  1
  Hf  Hf0_2  1  0.25000000  0.50000000  0.07994100  1
  Hf  Hf0_3  1  0.25000000  0.50000000  0.57994100  1
  Hf  Hf0_4  1  0.75000000  0.00000000  0.07994100  1
  Hf  Hf0_5  1  0.75000000  0.00000000  0.57994100  1
  Hf  Hf0_6  1  0.75000000  0.50000000  0.07994100  1
  Hf  Hf0_7  1  0.75000000  0.50000000  0.57994100  1
  Mg  Mg0_0  1  0.00000000  0.00000000  0.32904250  1
  Mg  Mg0_1  1  0.00000000  0.00000000  0.82904250  1
  Mg  Mg0_2  1  0.00000000  0.50000000  0.32904250  1
  Mg  Mg0_3  1  0.00000000  0.50000000  0.82904250  1
  Mg  Mg0_4  1  0.50000000  0.00000000  0.32904250  1
  Mg  Mg0_5  1  0.50000000  0.00000000  0.82904250  1
  Mg  Mg0_6  1  0.50000000  0.50000000  0.32904250  1
  Mg  Mg0_7  1  0.50000000  0.50000000  0.82904250  1
  Mg  Mg1_0  1  0.00000000  0.25000000  0.16642500  1
  Mg  Mg1_1  1  0.00000000  0.25000000  0.66642500  1
  Mg  Mg1_2  1  0.00000000  0.75000000  0.16642500  1
  Mg  Mg1_3  1  0.00000000  0.75000000  0.66642500  1
  Mg  Mg1_4  1  0.50000000  0.25000000  0.16642500  1
  Mg  Mg1_5  1  0.50000000  0.25000000  0.66642500  1
  Mg  Mg1_6  1  0.50000000  0.75000000  0.16642500  1
  Mg  Mg1_7  1  0.50000000  0.75000000  0.66642500  1
  Mg  Mg2_0  1  0.25000000  0.25000000  0.42459150  1
  Mg  Mg2_1  1  0.25000000  0.25000000  0.92459150  1
  Mg  Mg2_2  1  0.25000000  0.75000000  0.42459150  1
  Mg  Mg2_3  1  0.25000000  0.75000000  0.92459150  1
  Mg  Mg2_4  1  0.75000000  0.25000000  0.42459150  1
  Mg  Mg2_5  1  0.75000000  0.25000000  0.92459150  1
  Mg  Mg2_6  1  0.75000000  0.75000000  0.42459150  1
  Mg  Mg2_7  1  0.75000000  0.75000000  0.92459150  1
loop_
_geom_bond_atom_site_label_1
_geom_bond_atom_site_label_2
_geom_bond_distance
_geom_bond_site_symmetry_2
Hf0_0 Hf0_4 3.025734 1_455
Hf0_0 Hf0_4 3.025734 1_555
Hf0_0 Mg2_1 3.116959 1_554
Hf0_0 Mg2_3 3.116959 1_544
Hf0_0 Mg1_2 3.125421 1_545
Hf0_0 Mg1_0 3.125421 1_555
Hf0_0 Mg1_4 3.125421 1_555
Hf0_0 Mg1_6 3.125421 1_545
Hf0_0 Mg0_4 3.258795 1_555
Hf0_0 Mg0_0 3.258795 1_555
Hf0_0 Mg0_1 3.277251 1_554
Hf0_0 Mg0_5 3.277251 1_554
Hf0_1 Hf0_5 3.025734 1_555
Hf0_1 Hf0_5 3.025734 1_455
Hf0_1 Mg2_2 3.116959 1_545
Hf0_1 Mg2_0 3.116959 1_555
Hf0_1 Mg1_5 3.125421 1_555
Hf0_1 Mg1_3 3.125421 1_545
Hf0_1 Mg1_1 3.125421 1_555
Hf0_1 Mg1_7 3.125421 1_545
Hf0_1 Mg0_5 3.258795 1_555
Hf0_1 Mg0_1 3.258795 1_555
Hf0_1 Mg0_0 3.277251 1_555
Hf0_1 Mg0_4 3.277251 1_555
Hf0_2 Hf0_6 3.025734 1_455
Hf0_2 Hf0_6 3.025734 1_555
Hf0_2 Mg2_1 3.116959 1_554
Hf0_2 Mg2_3 3.116959 1_554
Hf0_2 Mg1_0 3.125421 1_555
Hf0_2 Mg1_4 3.125421 1_555
Hf0_2 Mg1_2 3.125421 1_555
Hf0_2 Mg1_6 3.125421 1_555
Hf0_2 Mg0_6 3.258795 1_555
Hf0_2 Mg0_2 3.258795 1_555
Hf0_2 Mg0_7 3.277251 1_554
Hf0_2 Mg0_3 3.277251 1_554
Hf0_3 Hf0_7 3.025734 1_455
Hf0_3 Hf0_7 3.025734 1_555
Hf0_3 Mg2_0 3.116959 1_555
Hf0_3 Mg2_2 3.116959 1_555
Hf0_3 Mg1_5 3.125421 1_555
Hf0_3 Mg1_1 3.125421 1_555
Hf0_3 Mg1_7 3.125421 1_555
Hf0_3 Mg1_3 3.125421 1_555
Hf0_3 Mg0_3 3.258795 1_555
Hf0_3 Mg0_7 3.258795 1_555
Hf0_3 Mg0_6 3.277251 1_555
Hf0_3 Mg0_2 3.277251 1_555
Hf0_4 Mg2_5 3.116959 1_554
Hf0_4 Mg2_7 3.116959 1_544
Hf0_4 Mg1_0 3.125421 1_655
Hf0_4 Mg1_4 3.125421 1_555
Hf0_4 Mg1_2 3.125421 1_645
Hf0_4 Mg1_6 3.125421 1_545
Hf0_4 Mg0_0 3.258795 1_655
Hf0_4 Mg0_4 3.258795 1_555
Hf0_4 Mg0_1 3.277251 1_654
Hf0_4 Mg0_5 3.277251 1_554
Hf0_5 Mg2_4 3.116959 1_555
Hf0_5 Mg2_6 3.116959 1_545
Hf0_5 Mg1_1 3.125421 1_655
Hf0_5 Mg1_5 3.125421 1_555
Hf0_5 Mg1_3 3.125421 1_645
Hf0_5 Mg1_7 3.125421 1_545
Hf0_5 Mg0_5 3.258795 1_555
Hf0_5 Mg0_1 3.258795 1_655
Hf0_5 Mg0_0 3.277251 1_655
Hf0_5 Mg0_4 3.277251 1_555
Hf0_6 Mg2_5 3.116959 1_554
Hf0_6 Mg2_7 3.116959 1_554
Hf0_6 Mg1_0 3.125421 1_655
Hf0_6 Mg1_4 3.125421 1_555
Hf0_6 Mg1_6 3.125421 1_555
Hf0_6 Mg1_2 3.125421 1_655
Hf0_6 Mg0_2 3.258795 1_655
Hf0_6 Mg0_6 3.258795 1_555
Hf0_6 Mg0_3 3.277251 1_654
Hf0_6 Mg0_7 3.277251 1_554
Hf0_7 Mg2_4 3.116959 1_555
Hf0_7 Mg2_6 3.116959 1_555
Hf0_7 Mg1_1 3.125421 1_655
Hf0_7 Mg1_5 3.125421 1_555
Hf0_7 Mg1_3 3.125421 1_655
Hf0_7 Mg1_7 3.125421 1_555
Hf0_7 Mg0_7 3.258795 1_555
Hf0_7 Mg0_3 3.258795 1_655
Hf0_7 Mg0_2 3.277251 1_655
Hf0_7 Mg0_6 3.277251 1_555
Mg0_0 Mg0_4 3.025734 1_555
Mg0_0 Mg0_4 3.025734 1_455
Mg0_0 Mg2_4 3.160665 1_455
Mg0_0 Mg2_0 3.160665 1_555
Mg0_0 Mg2_6 3.160665 1_445
Mg0_0 Mg2_2 3.160665 1_545
Mg0_0 Mg1_0 3.166340 1_555
Mg0_0 Mg1_2 3.166340 1_545
Mg0_1 Mg0_5 3.025734 1_555
Mg0_1 Mg0_5 3.025734 1_455
Mg0_1 Mg2_1 3.160665 1_555
Mg0_1 Mg2_5 3.160665 1_455
Mg0_1 Mg2_3 3.160665 1_545
Mg0_1 Mg2_7 3.160665 1_445
Mg0_1 Mg1_1 3.166340 1_555
Mg0_1 Mg1_3 3.166340 1_545
Mg0_2 Mg0_6 3.025734 1_555
Mg0_2 Mg0_6 3.025734 1_455
Mg0_2 Mg2_4 3.160665 1_455
Mg0_2 Mg2_0 3.160665 1_555
Mg0_2 Mg2_6 3.160665 1_455
Mg0_2 Mg2_2 3.160665 1_555
Mg0_2 Mg1_0 3.166340 1_555
Mg0_2 Mg1_2 3.166340 1_555
Mg0_3 Mg0_7 3.025734 1_555
Mg0_3 Mg0_7 3.025734 1_455
Mg0_3 Mg2_1 3.160665 1_555
Mg0_3 Mg2_5 3.160665 1_455
Mg0_3 Mg2_3 3.160665 1_555
Mg0_3 Mg2_7 3.160665 1_455
Mg0_3 Mg1_1 3.166340 1_555
Mg0_3 Mg1_3 3.166340 1_555
Mg0_4 Mg2_0 3.160665 1_555
Mg0_4 Mg2_4 3.160665 1_555
Mg0_4 Mg2_2 3.160665 1_545
Mg0_4 Mg2_6 3.160665 1_545
Mg0_4 Mg1_4 3.166340 1_555
Mg0_4 Mg1_6 3.166340 1_545
Mg0_5 Mg2_1 3.160665 1_555
Mg0_5 Mg2_3 3.160665 1_545
Mg0_5 Mg2_7 3.160665 1_545
Mg0_5 Mg2_5 3.160665 1_555
Mg0_5 Mg1_5 3.166340 1_555
Mg0_5 Mg1_7 3.166340 1_545
Mg0_6 Mg2_0 3.160665 1_555
Mg0_6 Mg2_4 3.160665 1_555
Mg0_6 Mg2_2 3.160665 1_555
Mg0_6 Mg2_6 3.160665 1_555
Mg0_6 Mg1_4 3.166340 1_555
Mg0_6 Mg1_6 3.166340 1_555
Mg0_7 Mg2_1 3.160665 1_555
Mg0_7 Mg2_3 3.160665 1_555
Mg0_7 Mg2_5 3.160665 1_555
Mg0_7 Mg2_7 3.160665 1_555
Mg0_7 Mg1_5 3.166340 1_555
Mg0_7 Mg1_7 3.166340 1_555
Mg1_0 Mg1_4 3.025734 1_555
Mg1_0 Mg1_4 3.025734 1_455
Mg1_0 Mg2_5 3.184445 1_454
Mg1_0 Mg2_1 3.184445 1_554
Mg1_0 Mg2_0 3.352181 1_555
Mg1_0 Mg2_4 3.352181 1_455
Mg1_1 Mg1_5 3.025734 1_555
Mg1_1 Mg1_5 3.025734 1_455
Mg1_1 Mg2_4 3.184445 1_455
Mg1_1 Mg2_0 3.184445 1_555
Mg1_1 Mg2_5 3.352181 1_455
Mg1_1 Mg2_1 3.352181 1_555
Mg1_2 Mg1_6 3.025734 1_555
Mg1_2 Mg1_6 3.025734 1_455
Mg1_2 Mg2_7 3.184445 1_454
Mg1_2 Mg2_3 3.184445 1_554
Mg1_2 Mg2_2 3.352181 1_555
Mg1_2 Mg2_6 3.352181 1_455
Mg1_3 Mg1_7 3.025734 1_555
Mg1_3 Mg1_7 3.025734 1_455
Mg1_3 Mg2_2 3.184445 1_555
Mg1_3 Mg2_6 3.184445 1_455
Mg1_3 Mg2_3 3.352181 1_555
Mg1_3 Mg2_7 3.352181 1_455
Mg1_4 Mg2_5 3.184445 1_554
Mg1_4 Mg2_1 3.184445 1_554
Mg1_4 Mg2_0 3.352181 1_555
Mg1_4 Mg2_4 3.352181 1_555
Mg1_5 Mg2_0 3.184445 1_555
Mg1_5 Mg2_4 3.184445 1_555
Mg1_5 Mg2_1 3.352181 1_555
Mg1_5 Mg2_5 3.352181 1_555
Mg1_6 Mg2_3 3.184445 1_554
Mg1_6 Mg2_7 3.184445 1_554
Mg1_6 Mg2_2 3.352181 1_555
Mg1_6 Mg2_6 3.352181 1_555
Mg1_7 Mg2_2 3.184445 1_555
Mg1_7 Mg2_6 3.184445 1_555
Mg1_7 Mg2_3 3.352181 1_555
Mg1_7 Mg2_7 3.352181 1_555
Mg2_0 Mg2_4 3.025734 1_455
Mg2_0 Mg2_4 3.025734 1_555
Mg2_1 Mg2_5 3.025734 1_555
Mg2_1 Mg2_5 3.025734 1_455
Mg2_2 Mg2_6 3.025734 1_455
Mg2_2 Mg2_6 3.025734 1_555
Mg2_3 Mg2_7 3.025734 1_555
Mg2_3 Mg2_7 3.025734 1_455
