# generated using pymatgen
data_PbO2
_symmetry_space_group_name_H-M   'P 1'
_cell_length_a   3.79988000
_cell_length_b   5.54422500
_cell_length_c   7.58671200
_cell_angle_alpha   90.00000000
_cell_angle_beta   90.00000000
_cell_angle_gamma   90.00000000
_symmetry_Int_Tables_number   1
_chemical_formula_structural   PbO2
_chemical_formula_sum   'Pb4 O8'
_cell_volume   159.83221819
_cell_formula_units_Z   4
loop_
 _symmetry_equiv_pos_site_id
 _symmetry_equiv_pos_as_xyz
  1  'x, y, z'
loop_
 _atom_site_type_symbol
 _atom_site_label
 _atom_site_symmetry_multiplicity
 _atom_site_fract_x
 _atom_site_fract_y
 _atom_site_fract_z
 _atom_site_occupancy
  Pb  Pb0  1  0.25000000  0.76710000  0.41249800  1
  Pb  Pb1  1  0.25000000  0.26710000  0.08750200  1
  Pb  Pb2  1  0.75000000  0.23290000  0.58750200  1
  Pb  Pb3  1  0.75000000  0.73290000  0.91249800  1
  O  O0  1  0.25000000  0.88420300  0.11339500  1
  O  O1  1  0.25000000  0.38420300  0.38660500  1
  O  O2  1  0.75000000  0.11579700  0.88660500  1
  O  O3  1  0.75000000  0.61579700  0.61339500  1
  O  O4  1  0.75000000  0.47674500  0.13393400  1
  O  O5  1  0.75000000  0.97674500  0.36606600  1
  O  O6  1  0.25000000  0.52325500  0.86606600  1
  O  O7  1  0.25000000  0.02325500  0.63393400  1
loop_
_geom_bond_atom_site_label_1
_geom_bond_atom_site_label_2
_geom_bond_distance
_geom_bond_site_symmetry_2
O0 Pb1 2.131937 1_565
O0 Pb0 2.360260 1_555
O0 Pb3 2.576137 1_454
O0 Pb3 2.576137 1_554
O1 Pb0 2.131937 1_555
O1 Pb1 2.360260 1_555
O1 Pb2 2.576137 1_555
O1 Pb2 2.576137 1_455
O2 Pb3 2.131937 1_545
O2 Pb2 2.360260 1_555
O2 Pb1 2.576137 1_656
O2 Pb1 2.576137 1_556
O3 Pb2 2.131937 1_555
O3 Pb3 2.360260 1_555
O3 Pb0 2.576137 1_655
O3 Pb0 2.576137 1_555
O4 Pb3 2.199822 1_554
O4 Pb1 2.254961 1_555
O4 Pb1 2.254961 1_655
O5 Pb2 2.199822 1_565
O5 Pb0 2.254961 1_555
O5 Pb0 2.254961 1_655
O6 Pb1 2.199822 1_556
O6 Pb3 2.254961 1_555
O6 Pb3 2.254961 1_455
O7 Pb0 2.199822 1_545
O7 Pb2 2.254961 1_555
O7 Pb2 2.254961 1_455
