# generated using pymatgen
data_V6H2Pb4Se3O26
_symmetry_space_group_name_H-M   'P 1'
_cell_length_a   21.74298600
_cell_length_b   7.24570100
_cell_length_c   7.43417367
_cell_angle_alpha   85.05062528
_cell_angle_beta   90.00000000
_cell_angle_gamma   90.00000000
_symmetry_Int_Tables_number   1
_chemical_formula_structural   V6H2Pb4Se3O26
_chemical_formula_sum   'V12 H4 Pb8 Se6 O52'
_cell_volume   1166.83628164
_cell_formula_units_Z   2
loop_
 _symmetry_equiv_pos_site_id
 _symmetry_equiv_pos_as_xyz
  1  'x, y, z'
loop_
 _atom_site_type_symbol
 _atom_site_label
 _atom_site_symmetry_multiplicity
 _atom_site_fract_x
 _atom_site_fract_y
 _atom_site_fract_z
 _atom_site_occupancy
  V  V0  1  0.76492200  0.14967700  0.35494200  1
  V  V1  1  0.26492200  0.85032300  0.64505800  1
  V  V2  1  0.88678900  0.89796800  0.36910800  1
  V  V3  1  0.38678900  0.10203200  0.63089200  1
  V  V4  1  0.96811700  0.31512000  0.68215700  1
  V  V5  1  0.46811700  0.68488000  0.31784300  1
  V  V6  1  0.68300700  0.52002000  0.66407700  1
  V  V7  1  0.18300700  0.47998000  0.33592300  1
  V  V8  1  0.88406600  0.39865800  0.30559900  1
  V  V9  1  0.38406600  0.60134200  0.69440100  1
  V  V10  1  0.76832200  0.65501800  0.29956600  1
  V  V11  1  0.26832200  0.34498200  0.70043400  1
  H  H0  1  0.82932800  0.97761500  0.00114100  1
  H  H1  1  0.32932800  0.02238500  0.99885900  1
  H  H2  1  0.83226700  0.95246100  0.80175400  1
  H  H3  1  0.33226700  0.04753900  0.19824600  1
  Pb  Pb0  1  0.96485400  0.79035700  0.89032000  1
  Pb  Pb1  1  0.46485400  0.20964300  0.10968000  1
  Pb  Pb2  1  0.02606900  0.21426900  0.19585400  1
  Pb  Pb3  1  0.52606900  0.78573100  0.80414600  1
  Pb  Pb4  1  0.62541700  0.43612500  0.17182400  1
  Pb  Pb5  1  0.12541700  0.56387500  0.82817600  1
  Pb  Pb6  1  0.69422400  0.02386400  0.87577100  1
  Pb  Pb7  1  0.19422400  0.97613600  0.12422900  1
  Se  Se0  1  0.10089900  0.07375600  0.68919000  1
  Se  Se1  1  0.60089900  0.92624400  0.31081000  1
  Se  Se2  1  0.55160600  0.28607100  0.66740500  1
  Se  Se3  1  0.05160600  0.71392900  0.33259500  1
  Se  Se4  1  0.82763900  0.48141800  0.81243800  1
  Se  Se5  1  0.32763900  0.51858200  0.18756200  1
  O  O0  1  0.03917800  0.19336100  0.57160100  1
  O  O1  1  0.53917800  0.80663900  0.42839900  1
  O  O2  1  0.10432300  0.17880000  0.88735700  1
  O  O3  1  0.60432300  0.82120000  0.11264300  1
  O  O4  1  0.06736000  0.85972700  0.75283700  1
  O  O5  1  0.56736000  0.14027300  0.24716300  1
  O  O6  1  0.61371900  0.40554400  0.54967600  1
  O  O7  1  0.11371900  0.59445600  0.45032400  1
  O  O8  1  0.54568400  0.39993900  0.86007000  1
  O  O9  1  0.04568400  0.60006100  0.13993000  1
  O  O10  1  0.58676600  0.07853000  0.73993700  1
  O  O11  1  0.08676600  0.92147000  0.26006300  1
  O  O12  1  0.88202100  0.39978300  0.65976100  1
  O  O13  1  0.38202100  0.60021700  0.34023900  1
  O  O14  1  0.85777600  0.68701200  0.85396500  1
  O  O15  1  0.35777600  0.31298800  0.14603500  1
  O  O16  1  0.77156900  0.56043900  0.64706900  1
  O  O17  1  0.27156900  0.43956100  0.35293100  1
  O  O18  1  0.68511600  0.36420700  0.85183500  1
  O  O19  1  0.18511600  0.63579300  0.14816500  1
  O  O20  1  0.85711000  0.14755000  0.36310900  1
  O  O21  1  0.35711000  0.85245000  0.63689100  1
  O  O22  1  0.78998300  0.89265500  0.36764000  1
  O  O23  1  0.28998300  0.10734500  0.63236000  1
  O  O24  1  0.70936700  0.14815400  0.19042300  1
  O  O25  1  0.20936700  0.85184600  0.80957700  1
  O  O26  1  0.94274800  0.94149200  0.20858300  1
  O  O27  1  0.44274800  0.05850800  0.79141700  1
  O  O28  1  0.69558100  0.60019800  0.39753600  1
  O  O29  1  0.19558100  0.39980200  0.60246400  1
  O  O30  1  0.95971800  0.14104600  0.84507000  1
  O  O31  1  0.45971800  0.85895400  0.15493000  1
  O  O32  1  0.79234300  0.40089100  0.29244100  1
  O  O33  1  0.29234300  0.59910900  0.70755900  1
  O  O34  1  0.00548500  0.49182900  0.77167700  1
  O  O35  1  0.50548500  0.50817100  0.22832300  1
  O  O36  1  0.95630500  0.36505800  0.41787500  1
  O  O37  1  0.45630500  0.63494200  0.58212500  1
  O  O38  1  0.65164100  0.71176800  0.73613200  1
  O  O39  1  0.15164100  0.28823200  0.26386800  1
  O  O40  1  0.86376500  0.65260300  0.31589400  1
  O  O41  1  0.36376500  0.34739700  0.68410600  1
  O  O42  1  0.74841400  0.70665300  0.08760800  1
  O  O43  1  0.24841400  0.29334700  0.91239200  1
  O  O44  1  0.90840900  0.39147400  0.09654200  1
  O  O45  1  0.40840900  0.60852600  0.90345800  1
  O  O46  1  0.73022200  0.16373700  0.55285900  1
  O  O47  1  0.23022200  0.83626300  0.44714100  1
  O  O48  1  0.92205200  0.87243500  0.56720200  1
  O  O49  1  0.42205200  0.12756500  0.43279800  1
  O  O50  1  0.81751100  0.04135400  0.88494900  1
  O  O51  1  0.31751100  0.95864600  0.11505100  1
loop_
_geom_bond_atom_site_label_1
_geom_bond_atom_site_label_2
_geom_bond_distance
_geom_bond_site_symmetry_2
H0 O50 0.978063 1_564
H1 O51 0.978063 1_546
H2 O50 0.984406 1_565
H3 O51 0.984406 1_545
O0 Se0 1.784785 1_555
O0 V4 1.991537 1_455
O1 Se1 1.784785 1_555
O1 V5 1.991537 1_555
O2 Se0 1.717167 1_555
O2 Pb5 2.824355 1_555
O3 Se1 1.717167 1_555
O3 Pb4 2.824355 1_555
O4 Se0 1.741840 1_565
O4 Pb0 2.485180 1_455
O4 Pb5 2.509037 1_555
O5 Se1 1.741840 1_545
O5 Pb1 2.485180 1_555
O5 Pb4 2.509037 1_555
O6 Se2 1.791246 1_555
O6 V6 1.950042 1_555
O6 Pb4 2.810155 1_555
O7 Se3 1.791246 1_555
O7 V7 1.950042 1_555
O7 Pb5 2.810155 1_555
O8 Se2 1.718342 1_555
O8 Pb1 2.826985 1_556
O9 Se3 1.718342 1_555
O9 Pb0 2.826985 1_454
O10 Se2 1.731077 1_555
O10 Pb3 2.509127 1_545
O10 Pb6 2.562544 1_555
O11 Se3 1.731077 1_555
O11 Pb2 2.509127 1_565
O11 Pb7 2.562544 1_555
O12 Se4 1.775427 1_555
O12 V4 1.972494 1_555
O13 Se5 1.775427 1_555
O13 V5 1.972494 1_555
O14 Se4 1.680227 1_555
O14 Pb0 2.467625 1_555
O15 Se5 1.680227 1_555
O15 Pb1 2.467625 1_555
O16 Se4 1.789979 1_555
O16 V6 1.950208 1_555
O17 Se5 1.789979 1_555
O17 V7 1.950208 1_555
O18 V6 1.718459 1_555
O18 Pb6 2.465043 1_555
O18 Pb4 2.798084 1_556
O19 V7 1.718459 1_555
O19 Pb7 2.465043 1_555
O19 Pb5 2.798084 1_554
O20 V2 1.916976 1_545
O20 V8 1.924186 1_555
O20 V0 2.005381 1_555
O21 V3 1.916976 1_565
O21 V9 1.924186 1_555
O21 V1 2.005381 1_555
O22 V10 1.895532 1_555
O22 V0 1.934857 1_565
O22 V2 2.105249 1_555
O23 V11 1.895532 1_555
O23 V1 1.934857 1_545
O23 V3 2.105249 1_555
O24 V0 1.719719 1_555
O24 Pb6 2.598976 1_554
O24 Pb4 2.766738 1_555
O25 V1 1.719719 1_555
O25 Pb7 2.598976 1_556
O25 Pb5 2.766738 1_555
O26 V2 1.714364 1_555
O26 Pb2 2.676779 1_665
O26 Pb0 2.734111 1_554
O27 V3 1.714364 1_555
O27 Pb3 2.676779 1_545
O27 Pb1 2.734111 1_556
O28 V10 1.771947 1_555
O28 V6 2.034699 1_555
O28 Pb4 2.626883 1_555
O29 V11 1.771947 1_555
O29 V7 2.034699 1_555
O29 Pb5 2.626883 1_555
O30 V4 1.681497 1_555
O30 Pb0 2.536683 1_545
O31 V5 1.681497 1_555
O31 Pb1 2.536683 1_565
O32 V10 1.919091 1_555
O32 V0 1.933555 1_555
O32 V8 1.996727 1_555
O33 V11 1.919091 1_555
O33 V1 1.933555 1_555
O33 V9 1.996727 1_555
O34 V4 1.699838 1_455
O34 Pb0 2.562493 1_455
O34 Pb5 2.699399 1_555
O35 V5 1.699838 1_555
O35 Pb1 2.562493 1_555
O35 Pb4 2.699399 1_555
O36 V8 1.785488 1_555
O36 V4 1.983516 1_555
O36 Pb2 2.555404 1_655
O37 V9 1.785488 1_555
O37 V5 1.983516 1_555
O37 Pb3 2.555404 1_555
O38 V6 1.676532 1_555
O38 Pb6 2.730146 1_565
O39 V7 1.676532 1_555
O39 Pb7 2.730146 1_545
O40 V8 1.900166 1_555
O40 V2 1.920726 1_555
O40 V10 2.078748 1_555
O41 V9 1.900166 1_555
O41 V3 1.920726 1_555
O41 V11 2.078748 1_555
O42 V10 1.645768 1_555
O43 V11 1.645768 1_555
O44 V8 1.646890 1_555
O45 V9 1.646890 1_555
O46 V0 1.664438 1_555
O46 Pb6 2.642491 1_555
O47 V1 1.664438 1_555
O47 Pb7 2.642491 1_555
O48 V2 1.656449 1_555
O48 Pb0 2.596813 1_555
O49 V3 1.656449 1_555
O49 Pb1 2.596813 1_555
O50 Pb6 2.684766 1_555
O51 Pb7 2.684766 1_555
