# generated using pymatgen
data_YbDyS3
_symmetry_space_group_name_H-M   'P 1'
_cell_length_a   3.79974001
_cell_length_b   10.54368399
_cell_length_c   10.50290887
_cell_angle_alpha   90.00000000
_cell_angle_beta   90.00000000
_cell_angle_gamma   90.00000000
_symmetry_Int_Tables_number   1
_chemical_formula_structural   YbDyS3
_chemical_formula_sum   'Yb4 Dy4 S12'
_cell_volume   420.78074707
_cell_formula_units_Z   4
loop_
 _symmetry_equiv_pos_site_id
 _symmetry_equiv_pos_as_xyz
  1  'x, y, z'
loop_
 _atom_site_type_symbol
 _atom_site_label
 _atom_site_symmetry_multiplicity
 _atom_site_fract_x
 _atom_site_fract_y
 _atom_site_fract_z
 _atom_site_occupancy
  Yb  Yb0  1  0.75000000  0.49319912  0.68889548  1
  Yb  Yb1  1  0.75000000  0.00680088  0.18889548  1
  Yb  Yb2  1  0.25000000  0.50680088  0.31110452  1
  Yb  Yb3  1  0.25000000  0.99319912  0.81110452  1
  Dy  Dy0  1  0.25000000  0.18609503  0.48887815  1
  Dy  Dy1  1  0.25000000  0.31390497  0.98887815  1
  Dy  Dy2  1  0.75000000  0.81390497  0.51112185  1
  Dy  Dy3  1  0.75000000  0.68609503  0.01112185  1
  S  S0  1  0.25000000  0.31005349  0.72426193  1
  S  S1  1  0.25000000  0.18994651  0.22426193  1
  S  S2  1  0.75000000  0.68994651  0.27573807  1
  S  S3  1  0.75000000  0.81005349  0.77573807  1
  S  S4  1  0.75000000  0.05634783  0.62166593  1
  S  S5  1  0.75000000  0.44365217  0.12166593  1
  S  S6  1  0.25000000  0.94365217  0.37833407  1
  S  S7  1  0.25000000  0.55634783  0.87833407  1
  S  S8  1  0.25000000  0.62535448  0.54834114  1
  S  S9  1  0.25000000  0.87464552  0.04834114  1
  S  S10  1  0.75000000  0.37464552  0.45165886  1
  S  S11  1  0.75000000  0.12535448  0.95165886  1
loop_
_geom_bond_atom_site_label_1
_geom_bond_atom_site_label_2
_geom_bond_distance
_geom_bond_site_symmetry_2
Dy0 S4 2.725076 1_555
Dy0 S4 2.725076 1_455
Dy0 S10 2.777504 1_555
Dy0 S10 2.777504 1_455
Dy0 S1 2.779537 1_555
Dy0 S0 2.796433 1_555
Dy0 S6 2.807556 1_545
Dy1 S5 2.725076 1_456
Dy1 S5 2.725076 1_556
Dy1 S11 2.777504 1_455
Dy1 S11 2.777504 1_555
Dy1 S0 2.779537 1_555
Dy1 S1 2.796433 1_556
Dy1 S7 2.807556 1_555
Dy2 S6 2.725076 1_555
Dy2 S6 2.725076 1_655
Dy2 S8 2.777504 1_555
Dy2 S8 2.777504 1_655
Dy2 S3 2.779537 1_555
Dy2 S2 2.796433 1_555
Dy2 S4 2.807556 1_565
Dy3 S7 2.725076 1_654
Dy3 S7 2.725076 1_554
Dy3 S9 2.777504 1_555
Dy3 S9 2.777504 1_655
Dy3 S2 2.779537 1_555
Dy3 S3 2.796433 1_554
Dy3 S5 2.807556 1_555
S0 Yb0 2.734293 1_455
S0 Yb0 2.734293 1_555
S1 Yb1 2.734293 1_555
S1 Yb1 2.734293 1_455
S2 Yb2 2.734293 1_655
S2 Yb2 2.734293 1_555
S3 Yb3 2.734293 1_555
S3 Yb3 2.734293 1_655
S4 Yb3 2.830469 1_645
S4 Yb3 2.830469 1_545
S5 Yb2 2.830469 1_655
S5 Yb2 2.830469 1_555
S6 Yb1 2.830469 1_465
S6 Yb1 2.830469 1_565
S7 Yb0 2.830469 1_455
S7 Yb0 2.830469 1_555
S8 Yb0 2.780348 1_455
S8 Yb0 2.780348 1_555
S8 Yb2 2.787637 1_555
S9 Yb1 2.780348 1_465
S9 Yb1 2.780348 1_565
S9 Yb3 2.787637 1_554
S10 Yb2 2.780348 1_555
S10 Yb2 2.780348 1_655
S10 Yb0 2.787637 1_555
S11 Yb3 2.780348 1_545
S11 Yb3 2.780348 1_645
S11 Yb1 2.787637 1_556
