# generated using pymatgen
data_Cs2MoS3O
_symmetry_space_group_name_H-M   'P 1'
_cell_length_a   7.60288500
_cell_length_b   10.05450000
_cell_length_c   12.40041200
_cell_angle_alpha   90.00000000
_cell_angle_beta   90.00000000
_cell_angle_gamma   90.00000000
_symmetry_Int_Tables_number   1
_chemical_formula_structural   Cs2MoS3O
_chemical_formula_sum   'Cs8 Mo4 S12 O4'
_cell_volume   947.92726428
_cell_formula_units_Z   4
loop_
 _symmetry_equiv_pos_site_id
 _symmetry_equiv_pos_as_xyz
  1  'x, y, z'
loop_
 _atom_site_type_symbol
 _atom_site_label
 _atom_site_symmetry_multiplicity
 _atom_site_fract_x
 _atom_site_fract_y
 _atom_site_fract_z
 _atom_site_occupancy
  Cs  Cs0  1  0.25000000  0.16713600  0.62378200  1
  Cs  Cs1  1  0.25000000  0.66713600  0.87621800  1
  Cs  Cs2  1  0.75000000  0.83286400  0.37621800  1
  Cs  Cs3  1  0.75000000  0.33286400  0.12378200  1
  Cs  Cs4  1  0.25000000  0.95781900  0.18758700  1
  Cs  Cs5  1  0.25000000  0.45781900  0.31241300  1
  Cs  Cs6  1  0.75000000  0.04218100  0.81241300  1
  Cs  Cs7  1  0.75000000  0.54218100  0.68758700  1
  Mo  Mo0  1  0.25000000  0.24292300  0.95087000  1
  Mo  Mo1  1  0.25000000  0.74292300  0.54913000  1
  Mo  Mo2  1  0.75000000  0.75707700  0.04913000  1
  Mo  Mo3  1  0.75000000  0.25707700  0.45087000  1
  S  S0  1  0.01120400  0.34003600  0.88335100  1
  S  S1  1  0.48879600  0.84003600  0.61664900  1
  S  S2  1  0.51120400  0.65996400  0.11664900  1
  S  S3  1  0.98879600  0.15996400  0.38335100  1
  S  S4  1  0.98879600  0.65996400  0.11664900  1
  S  S5  1  0.51120400  0.15996400  0.38335100  1
  S  S6  1  0.48879600  0.34003600  0.88335100  1
  S  S7  1  0.01120400  0.84003600  0.61664900  1
  S  S8  1  0.25000000  0.02950600  0.90354000  1
  S  S9  1  0.25000000  0.52950600  0.59646000  1
  S  S10  1  0.75000000  0.97049400  0.09646000  1
  S  S11  1  0.75000000  0.47049400  0.40354000  1
  O  O0  1  0.25000000  0.25567100  0.09330900  1
  O  O1  1  0.25000000  0.75567100  0.40669100  1
  O  O2  1  0.75000000  0.74432900  0.90669100  1
  O  O3  1  0.75000000  0.24432900  0.59330900  1
loop_
_geom_bond_atom_site_label_1
_geom_bond_atom_site_label_2
_geom_bond_distance
_geom_bond_site_symmetry_2
Cs0 S5 3.583018 1_555
Cs0 S3 3.583018 1_455
Cs0 S9 3.659168 1_555
Cs0 S8 3.734924 1_555
Cs0 S1 3.757710 1_545
Cs0 S7 3.757710 1_545
Cs1 S2 3.583018 1_556
Cs1 S4 3.583018 1_456
Cs1 S8 3.659168 1_565
Cs1 S9 3.734924 1_555
Cs1 S0 3.757710 1_555
Cs1 S6 3.757710 1_555
Cs2 S1 3.583018 1_555
Cs2 S7 3.583018 1_655
Cs2 S11 3.659168 1_555
Cs2 S10 3.734924 1_555
Cs2 S3 3.757710 1_565
Cs2 S5 3.757710 1_565
Cs3 S0 3.583018 1_654
Cs3 S6 3.583018 1_554
Cs3 S10 3.659168 1_545
Cs3 S11 3.734924 1_555
Cs3 S4 3.757710 1_555
Cs3 S2 3.757710 1_555
Cs4 O0 3.214857 1_565
Cs4 O1 3.393085 1_555
Cs4 S8 3.595291 1_564
Cs4 S4 3.699506 1_455
Cs4 S2 3.699506 1_555
Cs4 S5 3.737346 1_565
Cs4 S3 3.737346 1_465
Cs4 S10 3.967888 1_455
Cs4 S10 3.967888 1_555
Cs5 O1 3.214857 1_555
Cs5 O0 3.393085 1_555
Cs5 S9 3.595291 1_555
Cs5 S5 3.699506 1_555
Cs5 S3 3.699506 1_455
Cs5 S4 3.737346 1_455
Cs5 S2 3.737346 1_555
Cs5 S11 3.967888 1_555
Cs5 S11 3.967888 1_455
Cs6 O2 3.214857 1_545
Cs6 O3 3.393085 1_555
Cs6 S10 3.595291 1_546
Cs6 S6 3.699506 1_555
Cs6 S0 3.699506 1_655
Cs6 S1 3.737346 1_545
Cs6 S7 3.737346 1_645
Cs6 S8 3.967888 1_655
Cs6 S8 3.967888 1_555
Cs7 O3 3.214857 1_555
Cs7 O2 3.393085 1_555
Cs7 S11 3.595291 1_555
Cs7 S1 3.699506 1_555
Cs7 S7 3.699506 1_655
Cs7 S0 3.737346 1_655
Cs7 S6 3.737346 1_555
Cs7 S9 3.967888 1_655
Cs7 S9 3.967888 1_555
Mo0 O0 1.770947 1_556
Mo0 S8 2.224619 1_555
Mo0 S0 2.224992 1_555
Mo0 S6 2.224992 1_555
Mo1 O1 1.770947 1_555
Mo1 S9 2.224619 1_555
Mo1 S7 2.224992 1_555
Mo1 S1 2.224992 1_555
Mo2 O2 1.770947 1_554
Mo2 S10 2.224619 1_555
Mo2 S2 2.224992 1_555
Mo2 S4 2.224992 1_555
Mo3 O3 1.770947 1_555
Mo3 S11 2.224619 1_555
Mo3 S3 2.224992 1_555
Mo3 S5 2.224992 1_555
