# generated using pymatgen
data_Mn8Si6O25
_symmetry_space_group_name_H-M   'P 1'
_cell_length_a   12.79650040
_cell_length_b   12.79650040
_cell_length_c   7.71746511
_cell_angle_alpha   89.64628337
_cell_angle_beta   89.64628337
_cell_angle_gamma   60.51218204
_symmetry_Int_Tables_number   1
_chemical_formula_structural   Mn8Si6O25
_chemical_formula_sum   'Mn16 Si12 O50'
_cell_volume   1100.00590524
_cell_formula_units_Z   2
loop_
 _symmetry_equiv_pos_site_id
 _symmetry_equiv_pos_as_xyz
  1  'x, y, z'
loop_
 _atom_site_type_symbol
 _atom_site_label
 _atom_site_symmetry_multiplicity
 _atom_site_fract_x
 _atom_site_fract_y
 _atom_site_fract_z
 _atom_site_occupancy
  Mn  Mn0  1  0.00000000  0.00000000  0.00000000  1
  Mn  Mn1  1  0.99885300  0.24000500  0.99813600  1
  Mn  Mn2  1  0.75999500  0.00114700  0.00186400  1
  Mn  Mn3  1  0.24451800  0.75548200  0.00000000  1
  Mn  Mn4  1  0.24000500  0.99885300  0.99813600  1
  Mn  Mn5  1  0.75548200  0.24451800  0.00000000  1
  Mn  Mn6  1  0.00114700  0.75999500  0.00186400  1
  Mn  Mn7  1  0.00000000  0.50000000  0.00000000  1
  Mn  Mn8  1  0.50000000  0.00000000  0.00000000  1
  Mn  Mn9  1  0.50000000  0.50000000  0.00000000  1
  Mn  Mn10  1  0.74643900  0.50521600  0.96486100  1
  Mn  Mn11  1  0.74807000  0.74807000  0.96135800  1
  Mn  Mn12  1  0.50521600  0.74643900  0.96486100  1
  Mn  Mn13  1  0.25356100  0.49478400  0.03513900  1
  Mn  Mn14  1  0.25193000  0.25193000  0.03864200  1
  Mn  Mn15  1  0.49478400  0.25356100  0.03513900  1
  Si  Si0  1  0.91152400  0.42152400  0.35713800  1
  Si  Si1  1  0.66878400  0.91108100  0.35810300  1
  Si  Si2  1  0.42374700  0.66656400  0.35892200  1
  Si  Si3  1  0.42152400  0.91152400  0.35713800  1
  Si  Si4  1  0.66656400  0.42374700  0.35892200  1
  Si  Si5  1  0.91108100  0.66878400  0.35810300  1
  Si  Si6  1  0.08847600  0.57847600  0.64286200  1
  Si  Si7  1  0.33121600  0.08891900  0.64189700  1
  Si  Si8  1  0.57625300  0.33343600  0.64107800  1
  Si  Si9  1  0.57847600  0.08847600  0.64286200  1
  Si  Si10  1  0.33343600  0.57625300  0.64107800  1
  Si  Si11  1  0.08891900  0.33121600  0.64189700  1
  O  O0  1  0.00015700  0.32366200  0.49865700  1
  O  O1  1  0.67633800  0.99984300  0.50134300  1
  O  O2  1  0.32459900  0.67540100  0.50000000  1
  O  O3  1  0.32366200  0.00015700  0.49865700  1
  O  O4  1  0.67540100  0.32459900  0.50000000  1
  O  O5  1  0.99984300  0.67633800  0.50134300  1
  O  O6  1  0.90187500  0.54958000  0.39409200  1
  O  O7  1  0.54958000  0.90187500  0.39409200  1
  O  O8  1  0.55092400  0.55092400  0.40257000  1
  O  O9  1  0.09812500  0.45042000  0.60590800  1
  O  O10  1  0.45042000  0.09812500  0.60590800  1
  O  O11  1  0.44907600  0.44907600  0.59743000  1
  O  O12  1  0.78084200  0.43954200  0.39403900  1
  O  O13  1  0.78072300  0.78072300  0.39467000  1
  O  O14  1  0.43954200  0.78084200  0.39403900  1
  O  O15  1  0.21915800  0.56045800  0.60596100  1
  O  O16  1  0.21927700  0.21927700  0.60533000  1
  O  O17  1  0.56045800  0.21915800  0.60596100  1
  O  O18  1  0.94435200  0.39228100  0.14989600  1
  O  O19  1  0.66587900  0.94468900  0.15140200  1
  O  O20  1  0.39796000  0.66117800  0.15194400  1
  O  O21  1  0.39228100  0.94435200  0.14989600  1
  O  O22  1  0.66117800  0.39796000  0.15194400  1
  O  O23  1  0.94468900  0.66587900  0.15140200  1
  O  O24  1  0.05564800  0.60771900  0.85010400  1
  O  O25  1  0.33412100  0.05531100  0.84859800  1
  O  O26  1  0.60204000  0.33882200  0.84805600  1
  O  O27  1  0.60771900  0.05564800  0.85010400  1
  O  O28  1  0.33882200  0.60204000  0.84805600  1
  O  O29  1  0.05531100  0.33412100  0.84859800  1
  O  O30  1  0.92641300  0.15811600  0.11565400  1
  O  O31  1  0.91961600  0.91961600  0.12218100  1
  O  O32  1  0.15811600  0.92641300  0.11565400  1
  O  O33  1  0.07358700  0.84188400  0.88434600  1
  O  O34  1  0.08038400  0.08038400  0.87781900  1
  O  O35  1  0.84188400  0.07358700  0.88434600  1
  O  O36  1  0.83308300  0.33156300  0.89844900  1
  O  O37  1  0.83606400  0.83606400  0.90171200  1
  O  O38  1  0.33156300  0.83308300  0.89844900  1
  O  O39  1  0.16691700  0.66843700  0.10155100  1
  O  O40  1  0.16393600  0.16393600  0.09828800  1
  O  O41  1  0.66843700  0.16691700  0.10155100  1
  O  O42  1  0.85060200  0.57424300  0.88756600  1
  O  O43  1  0.57424300  0.85060200  0.88756600  1
  O  O44  1  0.57492700  0.57492700  0.88351900  1
  O  O45  1  0.14939800  0.42575700  0.11243400  1
  O  O46  1  0.42575700  0.14939800  0.11243400  1
  O  O47  1  0.42507300  0.42507300  0.11648100  1
  O  O48  1  0.66561400  0.66561400  0.06954500  1
  O  O49  1  0.33438600  0.33438600  0.93045500  1
loop_
_geom_bond_atom_site_label_1
_geom_bond_atom_site_label_2
_geom_bond_distance
_geom_bond_site_symmetry_2
Mn0 O30 1.978246 1_455
Mn0 O32 1.978246 1_545
Mn0 O35 1.978246 1_454
Mn0 O33 1.978246 1_544
Mn0 O31 2.005742 1_445
Mn0 O34 2.005742 1_554
Mn1 O30 1.927198 1_556
Mn1 O40 1.998499 1_656
Mn1 O36 2.006651 1_555
Mn1 O34 2.009065 1_655
Mn1 O29 2.033079 1_655
Mn1 O18 2.082150 1_556
Mn2 O35 1.927198 1_554
Mn2 O37 1.998499 1_544
Mn2 O41 2.006651 1_555
Mn2 O31 2.009065 1_545
Mn2 O19 2.033079 1_545
Mn2 O27 2.082150 1_554
Mn3 O39 1.977259 1_555
Mn3 O38 1.977259 1_554
Mn3 O28 2.089250 1_554
Mn3 O20 2.089250 1_555
Mn3 O32 2.105833 1_555
Mn3 O33 2.105833 1_554
Mn4 O32 1.927198 1_556
Mn4 O40 1.998499 1_566
Mn4 O38 2.006651 1_555
Mn4 O34 2.009065 1_565
Mn4 O25 2.033079 1_565
Mn4 O21 2.082150 1_556
Mn5 O41 1.977259 1_555
Mn5 O36 1.977259 1_554
Mn5 O26 2.089250 1_554
Mn5 O22 2.089250 1_555
Mn5 O30 2.105833 1_555
Mn5 O35 2.105833 1_554
Mn6 O33 1.927198 1_554
Mn6 O37 1.998499 1_454
Mn6 O39 2.006651 1_555
Mn6 O31 2.009065 1_455
Mn6 O23 2.033079 1_455
Mn6 O24 2.082150 1_554
Mn7 O45 1.879520 1_555
Mn7 O42 1.879520 1_454
Mn7 O24 2.163759 1_554
Mn7 O18 2.163759 1_455
Mn7 O23 2.216592 1_455
Mn7 O29 2.216592 1_554
Mn8 O46 1.879520 1_555
Mn8 O43 1.879520 1_544
Mn8 O27 2.163759 1_554
Mn8 O21 2.163759 1_545
Mn8 O19 2.216592 1_545
Mn8 O25 2.216592 1_554
Mn9 O47 1.878948 1_555
Mn9 O44 1.878948 1_554
Mn9 O20 2.166478 1_555
Mn9 O22 2.166478 1_555
Mn9 O26 2.166478 1_554
Mn9 O28 2.166478 1_554
Mn10 O48 1.963553 1_556
Mn10 O36 2.002861 1_555
Mn10 O42 2.013832 1_555
Mn10 O44 2.022233 1_555
Mn10 O22 2.566906 1_556
Mn10 O18 2.637744 1_556
Mn11 O37 1.995781 1_555
Mn11 O48 1.999521 1_556
Mn11 O42 2.031470 1_555
Mn11 O43 2.031470 1_555
Mn11 O19 2.647461 1_556
Mn11 O23 2.647461 1_556
Mn12 O48 1.963553 1_556
Mn12 O38 2.002861 1_555
Mn12 O43 2.013832 1_555
Mn12 O44 2.022233 1_555
Mn12 O20 2.566906 1_556
Mn12 O21 2.637744 1_556
Mn13 O49 1.963553 1_554
Mn13 O39 2.002861 1_555
Mn13 O45 2.013832 1_555
Mn13 O47 2.022233 1_555
Mn13 O28 2.566906 1_554
Mn13 O24 2.637744 1_554
Mn14 O40 1.995781 1_555
Mn14 O49 1.999521 1_554
Mn14 O45 2.031470 1_555
Mn14 O46 2.031470 1_555
Mn14 O29 2.647461 1_554
Mn14 O25 2.647461 1_554
Mn15 O49 1.963553 1_554
Mn15 O41 2.002861 1_555
Mn15 O46 2.013832 1_555
Mn15 O47 2.022233 1_555
Mn15 O26 2.566906 1_554
Mn15 O27 2.637744 1_554
O0 Si11 1.626781 1_555
O0 Si0 1.627136 1_455
O1 Si1 1.626781 1_555
O1 Si9 1.627136 1_565
O2 Si10 1.628230 1_555
O2 Si2 1.628230 1_555
O3 Si7 1.626781 1_555
O3 Si3 1.627136 1_545
O4 Si8 1.628230 1_555
O4 Si4 1.628230 1_555
O5 Si5 1.626781 1_555
O5 Si6 1.627136 1_655
O6 Si0 1.608713 1_555
O6 Si5 1.609074 1_555
O7 Si3 1.608713 1_555
O7 Si1 1.609074 1_555
O8 Si2 1.606704 1_555
O8 Si4 1.606704 1_555
O9 Si6 1.608713 1_555
O9 Si11 1.609074 1_555
O10 Si9 1.608713 1_555
O10 Si7 1.609074 1_555
O11 Si8 1.606704 1_555
O11 Si10 1.606704 1_555
O12 Si0 1.595651 1_555
O12 Si4 1.596668 1_555
O13 Si1 1.600292 1_555
O13 Si5 1.600292 1_555
O14 Si3 1.595651 1_555
O14 Si2 1.596668 1_555
O15 Si6 1.595651 1_555
O15 Si10 1.596668 1_555
O16 Si11 1.600292 1_555
O16 Si7 1.600292 1_555
O17 Si9 1.595651 1_555
O17 Si8 1.596668 1_555
O18 Si0 1.648898 1_555
O19 Si1 1.645463 1_555
O20 Si2 1.641770 1_555
O21 Si3 1.648898 1_555
O22 Si4 1.641770 1_555
O23 Si5 1.645463 1_555
O24 Si6 1.648898 1_555
O25 Si7 1.645463 1_555
O26 Si8 1.641770 1_555
O27 Si9 1.648898 1_555
O28 Si10 1.641770 1_555
O29 Si11 1.645463 1_555
