# generated using pymatgen
data_PrF3
_symmetry_space_group_name_H-M   'P 1'
_cell_length_a   7.15736259
_cell_length_b   7.15736259
_cell_length_c   7.14054200
_cell_angle_alpha   90.00000000
_cell_angle_beta   90.00000000
_cell_angle_gamma   120.00000547
_symmetry_Int_Tables_number   1
_chemical_formula_structural   PrF3
_chemical_formula_sum   'Pr6 F18'
_cell_volume   316.78734494
_cell_formula_units_Z   6
loop_
 _symmetry_equiv_pos_site_id
 _symmetry_equiv_pos_as_xyz
  1  'x, y, z'
loop_
 _atom_site_type_symbol
 _atom_site_label
 _atom_site_symmetry_multiplicity
 _atom_site_fract_x
 _atom_site_fract_y
 _atom_site_fract_z
 _atom_site_occupancy
  Pr  Pr0  1  0.67032800  0.67032800  0.25000000  1
  Pr  Pr1  1  0.00000000  0.67032800  0.75000000  1
  Pr  Pr2  1  0.67032800  0.00000000  0.75000000  1
  Pr  Pr3  1  0.32967200  0.00000000  0.25000000  1
  Pr  Pr4  1  0.00000000  0.32967200  0.25000000  1
  Pr  Pr5  1  0.32967200  0.32967200  0.75000000  1
  F  F0  1  0.00000000  0.00000000  0.50000000  1
  F  F1  1  0.00000000  0.00000000  0.00000000  1
  F  F2  1  0.33333300  0.66666700  0.25000000  1
  F  F3  1  0.66666700  0.33333300  0.75000000  1
  F  F4  1  0.66666700  0.33333300  0.25000000  1
  F  F5  1  0.33333300  0.66666700  0.75000000  1
  F  F6  1  0.34390700  0.00000000  0.91581300  1
  F  F7  1  0.34390700  0.34390700  0.41581300  1
  F  F8  1  0.00000000  0.65609300  0.41581300  1
  F  F9  1  0.00000000  0.34390700  0.91581300  1
  F  F10  1  0.65609300  0.65609300  0.91581300  1
  F  F11  1  0.34390700  0.00000000  0.58418700  1
  F  F12  1  0.65609300  0.65609300  0.58418700  1
  F  F13  1  0.65609300  0.00000000  0.41581300  1
  F  F14  1  0.00000000  0.34390700  0.58418700  1
  F  F15  1  0.00000000  0.65609300  0.08418700  1
  F  F16  1  0.65609300  0.00000000  0.08418700  1
  F  F17  1  0.34390700  0.34390700  0.08418700  1
loop_
_geom_bond_atom_site_label_1
_geom_bond_atom_site_label_2
_geom_bond_distance
_geom_bond_site_symmetry_2
F0 Pr0 2.958773 1_445
F0 Pr5 2.958773 1_555
F0 Pr1 2.958773 1_545
F0 Pr2 2.958773 1_455
F0 Pr3 2.958773 1_555
F0 Pr4 2.958773 1_555
F1 Pr0 2.958773 1_445
F1 Pr5 2.958773 1_554
F1 Pr1 2.958773 1_544
F1 Pr2 2.958773 1_454
F1 Pr3 2.958773 1_555
F1 Pr4 2.958773 1_555
F2 Pr3 2.398994 1_565
F2 Pr4 2.398997 1_555
F2 Pr0 2.399001 1_555
F3 Pr2 2.398994 1_555
F3 Pr1 2.398997 1_655
F3 Pr5 2.399001 1_555
F4 Pr4 2.398994 1_655
F4 Pr3 2.398997 1_555
F4 Pr0 2.399001 1_555
F5 Pr1 2.398994 1_555
F5 Pr2 2.398997 1_565
F5 Pr5 2.399001 1_555
F6 Pr3 2.388450 1_556
F6 Pr2 2.619199 1_555
F6 Pr1 2.687054 1_545
F6 Pr5 2.687054 1_555
F7 Pr5 2.388450 1_555
F7 Pr0 2.619199 1_555
F7 Pr4 2.687054 1_555
F7 Pr3 2.687054 1_555
F8 Pr1 2.388450 1_555
F8 Pr4 2.619199 1_555
F8 Pr3 2.687054 1_565
F8 Pr0 2.687054 1_455
F9 Pr4 2.388450 1_556
F9 Pr1 2.619199 1_555
F9 Pr2 2.687054 1_455
F9 Pr5 2.687054 1_555
F10 Pr0 2.388450 1_556
F10 Pr5 2.619199 1_555
F10 Pr2 2.687054 1_565
F10 Pr1 2.687054 1_655
F11 Pr3 2.388450 1_555
F11 Pr2 2.619199 1_555
F11 Pr1 2.687054 1_545
F11 Pr5 2.687054 1_555
F12 Pr0 2.388450 1_555
F12 Pr5 2.619199 1_555
F12 Pr2 2.687054 1_565
F12 Pr1 2.687054 1_655
F13 Pr2 2.388450 1_555
F13 Pr3 2.619199 1_555
F13 Pr4 2.687054 1_655
F13 Pr0 2.687054 1_545
F14 Pr4 2.388450 1_555
F14 Pr1 2.619199 1_555
F14 Pr2 2.687054 1_455
F14 Pr5 2.687054 1_555
F15 Pr1 2.388450 1_554
F15 Pr4 2.619199 1_555
F15 Pr3 2.687054 1_565
F15 Pr0 2.687054 1_455
F16 Pr2 2.388450 1_554
F16 Pr3 2.619199 1_555
F16 Pr4 2.687054 1_655
F16 Pr0 2.687054 1_545
F17 Pr5 2.388450 1_554
F17 Pr0 2.619199 1_555
F17 Pr4 2.687054 1_555
F17 Pr3 2.687054 1_555
