# generated using pymatgen
data_BaTbNbSnO6
_symmetry_space_group_name_H-M   'P 1'
_cell_length_a   5.94985829
_cell_length_b   5.98686932
_cell_length_c   8.49878681
_cell_angle_alpha   89.66201769
_cell_angle_beta   90.09394499
_cell_angle_gamma   89.35014787
_symmetry_Int_Tables_number   1
_chemical_formula_structural   BaTbNbSnO6
_chemical_formula_sum   'Ba2 Tb2 Nb2 Sn2 O12'
_cell_volume   302.71030979
_cell_formula_units_Z   2
loop_
 _symmetry_equiv_pos_site_id
 _symmetry_equiv_pos_as_xyz
  1  'x, y, z'
loop_
 _atom_site_type_symbol
 _atom_site_label
 _atom_site_symmetry_multiplicity
 _atom_site_fract_x
 _atom_site_fract_y
 _atom_site_fract_z
 _atom_site_occupancy
  Ba  Ba0  1  0.99503699  0.02032191  0.25083741  1
  Ba  Ba1  1  0.00496301  0.97967809  0.74916259  1
  Tb  Tb0  1  0.50000000  0.00000000  -0.00000000  1
  Tb  Tb1  1  -0.00000000  0.50000000  0.50000000  1
  Nb  Nb0  1  -0.00000000  0.50000000  -0.00000000  1
  Nb  Nb1  1  0.50000000  0.00000000  0.50000000  1
  Sn  Sn0  1  0.49700744  0.51589075  0.25248257  1
  Sn  Sn1  1  0.50299256  0.48410925  0.74751743  1
  O  O0  1  0.19645645  0.22930702  0.97209198  1
  O  O1  1  0.30482083  0.72456213  0.54329776  1
  O  O2  1  0.80354355  0.77069298  0.02790802  1
  O  O3  1  0.69517917  0.27543787  0.45670224  1
  O  O4  1  0.26778845  0.69937190  0.95070681  1
  O  O5  1  0.22718197  0.19809379  0.52191796  1
  O  O6  1  0.73221155  0.30062810  0.04929319  1
  O  O7  1  0.77281803  0.80190621  0.47808204  1
  O  O8  1  0.44455078  0.97195419  0.26542423  1
  O  O9  1  0.09048629  0.50146076  0.23497044  1
  O  O10  1  0.55544922  0.02804581  0.73457577  1
  O  O11  1  0.90951371  0.49853924  0.76502956  1
loop_
_geom_bond_atom_site_label_1
_geom_bond_atom_site_label_2
_geom_bond_distance
_geom_bond_site_symmetry_2
Ba0 O2 2.680714 1_545
Ba0 O7 2.684354 1_545
Ba0 O8 2.689484 1_645
Ba0 O6 2.844879 1_555
Ba0 O5 2.898295 1_655
Ba0 O3 2.925217 1_555
Ba0 O0 2.936346 1_654
Ba0 O9 2.944631 1_655
Ba0 O9 3.155205 1_645
Ba0 O8 3.293832 1_545
Ba1 O0 2.680714 1_565
Ba1 O5 2.684354 1_565
Ba1 O10 2.689484 1_465
Ba1 O4 2.844879 1_555
Ba1 O7 2.898295 1_455
Ba1 O1 2.925217 1_555
Ba1 O2 2.936346 1_456
Ba1 O11 2.944631 1_455
Ba1 O11 3.155205 1_465
Ba1 O10 3.293832 1_565
Nb0 O0 2.002844 1_554
Nb0 O2 2.002844 1_455
Nb0 O6 2.044080 1_455
Nb0 O4 2.044080 1_554
Nb0 O11 2.067506 1_454
Nb0 O9 2.067506 1_555
Nb1 O5 2.008981 1_555
Nb1 O7 2.008981 1_545
Nb1 O10 2.028439 1_555
Nb1 O8 2.028439 1_545
Nb1 O3 2.059348 1_555
Nb1 O1 2.059348 1_545
O0 Tb0 2.267426 1_556
O1 Tb1 2.300247 1_555
O1 Sn1 2.529877 1_555
O2 Tb0 2.267426 1_565
O3 Tb1 2.300247 1_655
O3 Sn0 2.529877 1_555
O4 Tb0 2.321024 1_566
O4 Sn1 2.567997 1_555
O5 Tb1 2.251341 1_555
O6 Tb0 2.321024 1_555
O6 Sn0 2.567997 1_555
O7 Tb1 2.251341 1_655
O8 Tb0 2.285788 1_565
O8 Sn0 2.747522 1_555
O9 Tb1 2.316726 1_555
O9 Sn0 2.425622 1_555
O10 Tb0 2.285788 1_556
O10 Sn1 2.747522 1_555
O11 Tb1 2.316726 1_655
O11 Sn1 2.425622 1_555
