# generated using pymatgen
data_Li4TiCo3O8
_symmetry_space_group_name_H-M   'P 1'
_cell_length_a   5.85314693
_cell_length_b   8.38648100
_cell_length_c   5.93733164
_cell_angle_alpha   89.25189947
_cell_angle_beta   89.52336795
_cell_angle_gamma   90.25093843
_symmetry_Int_Tables_number   1
_chemical_formula_structural   Li4TiCo3O8
_chemical_formula_sum   'Li8 Ti2 Co6 O16'
_cell_volume   291.40974988
_cell_formula_units_Z   2
loop_
 _symmetry_equiv_pos_site_id
 _symmetry_equiv_pos_as_xyz
  1  'x, y, z'
loop_
 _atom_site_type_symbol
 _atom_site_label
 _atom_site_symmetry_multiplicity
 _atom_site_fract_x
 _atom_site_fract_y
 _atom_site_fract_z
 _atom_site_occupancy
  Li  Li0  1  0.00028600  0.49970600  0.00189700  1
  Li  Li1  1  0.49948400  0.00053500  0.49992300  1
  Li  Li2  1  0.49976500  0.50035000  0.99847400  1
  Li  Li3  1  0.00122200  0.99778400  0.50208000  1
  Li  Li4  1  0.74676800  0.24934600  0.24677300  1
  Li  Li5  1  0.25241800  0.75118700  0.75200300  1
  Li  Li6  1  0.25277000  0.24936500  0.24745900  1
  Li  Li7  1  0.74736500  0.75015100  0.75094600  1
  Ti  Ti0  1  0.50656500  0.50350800  0.49055900  1
  Ti  Ti1  1  0.99197700  0.99549500  0.00483100  1
  Co  Co0  1  0.49676600  0.00260700  0.99735800  1
  Co  Co1  1  0.00255200  0.49713600  0.50520200  1
  Co  Co2  1  0.74902700  0.74971100  0.24980600  1
  Co  Co3  1  0.25032300  0.25216100  0.74942700  1
  Co  Co4  1  0.24767100  0.74841900  0.25419100  1
  Co  Co5  1  0.75392300  0.25429700  0.74629800  1
  O  O0  1  0.48549600  0.77106200  0.02097900  1
  O  O1  1  0.99633900  0.24245100  0.52252400  1
  O  O2  1  0.50531600  0.23489100  0.97859900  1
  O  O3  1  0.01303100  0.75169400  0.47968900  1
  O  O4  1  0.49969000  0.26219100  0.50644700  1
  O  O5  1  0.00306900  0.76446500  0.99786800  1
  O  O6  1  0.49580200  0.73523700  0.50359900  1
  O  O7  1  0.00095100  0.23802300  0.99096300  1
  O  O8  1  0.26433000  0.50370300  0.26129400  1
  O  O9  1  0.74725600  0.00206700  0.77190900  1
  O  O10  1  0.74341300  0.49841100  0.26420600  1
  O  O11  1  0.25296600  0.00920200  0.77100200  1
  O  O12  1  0.73785300  0.49509200  0.74192200  1
  O  O13  1  0.24912500  0.00035000  0.22463600  1
  O  O14  1  0.26198700  0.48675400  0.74239800  1
  O  O15  1  0.74449500  0.00264500  0.22474300  1
loop_
_geom_bond_atom_site_label_1
_geom_bond_atom_site_label_2
_geom_bond_distance
_geom_bond_site_symmetry_2
Li0 O10 2.155615 1_455
Li0 O14 2.167613 1_554
Li0 O12 2.187243 1_454
Li0 O8 2.191379 1_555
Li0 O7 2.196426 1_554
Li0 O5 2.220200 1_554
Li1 O11 2.154772 1_555
Li1 O15 2.164803 1_555
Li1 O9 2.179571 1_555
Li1 O4 2.195216 1_555
Li1 O13 2.204258 1_555
Li1 O6 2.224747 1_545
Li2 O12 2.056984 1_555
Li2 O14 2.073632 1_555
Li2 O8 2.073761 1_556
Li2 O10 2.135480 1_556
Li2 O2 2.231294 1_555
Li2 O0 2.277846 1_556
Li3 O1 2.057373 1_465
Li3 O3 2.071256 1_555
Li3 O9 2.177139 1_465
Li3 O11 2.184408 1_565
Li3 O13 2.185968 1_565
Li3 O15 2.238533 1_465
Li4 O15 2.074779 1_555
Li4 O10 2.092861 1_555
Li4 O4 2.109198 1_555
Li4 O7 2.120549 1_654
Li4 O2 2.142004 1_554
Li4 O1 2.203582 1_555
Li5 O6 2.048009 1_555
Li5 O5 2.060014 1_555
Li5 O0 2.116730 1_556
Li5 O3 2.148244 1_555
Li5 O11 2.168236 1_565
Li5 O14 2.220079 1_555
Li6 O13 2.094543 1_555
Li6 O4 2.122449 1_555
Li6 O7 2.130882 1_554
Li6 O8 2.136451 1_555
Li6 O2 2.171488 1_554
Li6 O1 2.208917 1_455
Li7 O6 2.092749 1_555
Li7 O5 2.107912 1_655
Li7 O9 2.117976 1_565
Li7 O12 2.140910 1_555
Li7 O0 2.217973 1_556
Li7 O3 2.229260 1_655
Co0 O0 1.945869 1_546
Co0 O2 1.950174 1_555
Co0 O11 1.968817 1_555
Co0 O13 1.972016 1_556
Co0 O9 1.977107 1_555
Co0 O15 1.989402 1_556
Co1 O14 2.080945 1_555
Co1 O12 2.083024 1_455
Co1 O10 2.093796 1_455
Co1 O8 2.099567 1_555
Co1 O1 2.137180 1_455
Co1 O3 2.138815 1_555
Co2 O3 2.070380 1_655
Co2 O0 2.070775 1_555
Co2 O5 2.102475 1_654
Co2 O6 2.106808 1_555
Co2 O10 2.108242 1_555
Co2 O15 2.124797 1_565
Co3 O14 1.968181 1_555
Co3 O1 2.016605 1_455
Co3 O2 2.032369 1_555
Co3 O7 2.039687 1_555
Co3 O11 2.040058 1_555
Co3 O4 2.044364 1_555
Co4 O3 1.910541 1_555
Co4 O0 1.962095 1_555
Co4 O8 2.054947 1_555
Co4 O6 2.085011 1_555
Co4 O5 2.101557 1_554
Co4 O13 2.117779 1_565
Co5 O1 1.939507 1_555
Co5 O2 2.001224 1_555
Co5 O12 2.021862 1_555
Co5 O7 2.061780 1_655
Co5 O4 2.068903 1_555
Co5 O9 2.118965 1_555
O4 Ti0 2.024975 1_555
O5 Ti1 1.939869 1_456
O6 Ti0 1.947216 1_555
O7 Ti1 2.034978 1_446
O8 Ti0 1.973642 1_555
O9 Ti1 1.999735 1_546
O10 Ti0 1.923759 1_555
O11 Ti1 2.057484 1_446
O12 Ti0 2.024028 1_555
O13 Ti1 2.000940 1_445
O14 Ti0 2.064460 1_555
O15 Ti1 1.943722 1_545
