# generated using pymatgen
data_SrNi5P3
_symmetry_space_group_name_H-M   'P 1'
_cell_length_a   3.58907415
_cell_length_b   6.10707605
_cell_length_c   11.52111959
_cell_angle_alpha   90.00000000
_cell_angle_beta   90.00000000
_cell_angle_gamma   107.08832392
_symmetry_Int_Tables_number   1
_chemical_formula_structural   SrNi5P3
_chemical_formula_sum   'Sr2 Ni10 P6'
_cell_volume   241.38012792
_cell_formula_units_Z   2
loop_
 _symmetry_equiv_pos_site_id
 _symmetry_equiv_pos_as_xyz
  1  'x, y, z'
loop_
 _atom_site_type_symbol
 _atom_site_label
 _atom_site_symmetry_multiplicity
 _atom_site_fract_x
 _atom_site_fract_y
 _atom_site_fract_z
 _atom_site_occupancy
  Sr  Sr0  1  0.83809605  0.67619011  0.25000000  1
  Sr  Sr1  1  0.16190395  0.32380989  0.75000000  1
  Ni  Ni0  1  0.55018184  0.10036367  0.35511819  1
  Ni  Ni1  1  0.55018184  0.10036367  0.14488181  1
  Ni  Ni2  1  0.19771711  0.39543323  0.06776038  1
  Ni  Ni3  1  0.80228289  0.60456677  0.93223962  1
  Ni  Ni4  1  0.80228289  0.60456677  0.56776038  1
  Ni  Ni5  1  0.19771711  0.39543323  0.43223962  1
  Ni  Ni6  1  0.00000000  0.00000000  0.50000000  1
  Ni  Ni7  1  0.00000000  0.00000000  -0.00000000  1
  Ni  Ni8  1  0.44981816  0.89963633  0.85511819  1
  Ni  Ni9  1  0.44981816  0.89963633  0.64488181  1
  P  P0  1  0.11527459  0.23055018  0.25000000  1
  P  P1  1  0.88472541  0.76944982  0.75000000  1
  P  P2  1  0.61891946  0.23784093  0.96348575  1
  P  P3  1  0.38108054  0.76215907  0.03651425  1
  P  P4  1  0.38108054  0.76215907  0.46348575  1
  P  P5  1  0.61891946  0.23784093  0.53651425  1
loop_
_geom_bond_atom_site_label_1
_geom_bond_atom_site_label_2
_geom_bond_distance
_geom_bond_site_symmetry_2
Ni0 P5 2.238673 1_555
Ni0 P0 2.294473 1_655
Ni0 P0 2.294476 1_555
Ni0 P4 2.335912 1_545
Ni0 Sr0 3.289092 1_445
Ni0 Sr0 3.289096 1_545
Ni1 P2 2.238673 1_554
Ni1 P0 2.294473 1_655
Ni1 P0 2.294476 1_555
Ni1 P3 2.335912 1_545
Ni1 Sr0 3.289092 1_445
Ni1 Sr0 3.289096 1_545
Ni2 P3 2.170807 1_555
Ni2 P0 2.309706 1_555
Ni2 P2 2.347318 1_554
Ni2 P2 2.347326 1_454
Ni2 Sr0 3.211653 1_455
Ni2 Sr0 3.211655 1_555
Ni3 P2 2.170807 1_555
Ni3 P1 2.309706 1_555
Ni3 P3 2.347318 1_556
Ni3 P3 2.347326 1_656
Ni3 Sr1 3.211653 1_655
Ni3 Sr1 3.211655 1_555
Ni4 P5 2.170807 1_555
Ni4 P1 2.309706 1_555
Ni4 P4 2.347318 1_555
Ni4 P4 2.347326 1_655
Ni4 Sr1 3.211653 1_655
Ni4 Sr1 3.211655 1_555
Ni5 P4 2.170807 1_555
Ni5 P0 2.309706 1_555
Ni5 P5 2.347318 1_555
Ni5 P5 2.347326 1_455
Ni5 Sr0 3.211653 1_455
Ni5 Sr0 3.211655 1_555
Ni6 P4 2.307585 1_445
Ni6 P5 2.307585 1_555
Ni6 P4 2.307591 1_545
Ni6 P5 2.307591 1_455
Ni7 P3 2.307585 1_445
Ni7 P2 2.307585 1_554
Ni7 P3 2.307591 1_545
Ni7 P2 2.307591 1_454
Ni8 P3 2.238673 1_556
Ni8 P1 2.294473 1_455
Ni8 P1 2.294476 1_555
Ni8 P2 2.335912 1_565
Ni8 Sr1 3.289092 1_665
Ni8 Sr1 3.289096 1_565
Ni9 P4 2.238673 1_555
Ni9 P1 2.294473 1_455
Ni9 P1 2.294476 1_555
Ni9 P5 2.335912 1_565
Ni9 Sr1 3.289092 1_665
Ni9 Sr1 3.289096 1_565
P0 Sr0 3.160327 1_455
P0 Sr0 3.160333 1_555
P0 Sr0 3.236058 1_445
P1 Sr1 3.160327 1_655
P1 Sr1 3.160333 1_555
P1 Sr1 3.236058 1_665
P2 Sr1 3.085744 1_555
P2 Sr1 3.085744 1_655
P3 Sr0 3.085744 1_555
P3 Sr0 3.085744 1_455
P4 Sr0 3.085744 1_555
P4 Sr0 3.085744 1_455
P5 Sr1 3.085744 1_555
P5 Sr1 3.085744 1_655
