# generated using pymatgen
data_Yb2PbAu2
_symmetry_space_group_name_H-M   'P 1'
_cell_length_a   7.91258867
_cell_length_b   7.91258867
_cell_length_c   3.64988000
_cell_angle_alpha   90.00000000
_cell_angle_beta   90.00000000
_cell_angle_gamma   90.00000000
_symmetry_Int_Tables_number   1
_chemical_formula_structural   Yb2PbAu2
_chemical_formula_sum   'Yb4 Pb2 Au4'
_cell_volume   228.51555411
_cell_formula_units_Z   2
loop_
 _symmetry_equiv_pos_site_id
 _symmetry_equiv_pos_as_xyz
  1  'x, y, z'
loop_
 _atom_site_type_symbol
 _atom_site_label
 _atom_site_symmetry_multiplicity
 _atom_site_fract_x
 _atom_site_fract_y
 _atom_site_fract_z
 _atom_site_occupancy
  Yb  Yb0  1  0.33336497  0.83336497  0.00000000  1
  Yb  Yb1  1  0.66663503  0.16663503  0.00000000  1
  Yb  Yb2  1  0.83336497  0.66663503  0.00000000  1
  Yb  Yb3  1  0.16663503  0.33336497  0.00000000  1
  Pb  Pb0  1  0.00000000  0.00000000  0.50000000  1
  Pb  Pb1  1  0.50000000  0.50000000  0.50000000  1
  Au  Au0  1  0.37302145  0.12697855  0.50000000  1
  Au  Au1  1  0.62697855  0.87302145  0.50000000  1
  Au  Au2  1  0.87302145  0.37302145  0.50000000  1
  Au  Au3  1  0.12697855  0.62697855  0.50000000  1
loop_
_geom_bond_atom_site_label_1
_geom_bond_atom_site_label_2
_geom_bond_distance
_geom_bond_site_symmetry_2
Pb0 Yb3 3.467963 1_555
Pb0 Yb3 3.467963 1_556
Pb0 Yb0 3.467963 1_545
Pb0 Yb0 3.467963 1_546
Pb0 Yb1 3.467963 1_456
Pb0 Yb1 3.467963 1_455
Pb0 Yb2 3.467963 1_445
Pb0 Yb2 3.467963 1_446
Pb1 Yb2 3.467963 1_556
Pb1 Yb2 3.467963 1_555
Pb1 Yb0 3.467963 1_556
Pb1 Yb0 3.467963 1_555
Pb1 Yb1 3.467963 1_555
Pb1 Yb1 3.467963 1_556
Pb1 Yb3 3.467963 1_555
Pb1 Yb3 3.467963 1_556
Au0 Yb3 2.943487 1_555
Au0 Yb3 2.943487 1_556
Au0 Yb0 2.970914 1_545
Au0 Yb0 2.970914 1_546
Au0 Yb1 2.970914 1_556
Au0 Yb1 2.970914 1_555
Au0 Pb0 3.117887 1_555
Au0 Pb1 3.117887 1_555
Au1 Yb2 2.943487 1_556
Au1 Yb2 2.943487 1_555
Au1 Yb1 2.970914 1_566
Au1 Yb1 2.970914 1_565
Au1 Yb0 2.970914 1_556
Au1 Yb0 2.970914 1_555
Au1 Pb1 3.117887 1_555
Au1 Pb0 3.117887 1_665
Au2 Yb1 2.943487 1_556
Au2 Yb1 2.943487 1_555
Au2 Yb3 2.970914 1_656
Au2 Yb3 2.970914 1_655
Au2 Yb2 2.970914 1_556
Au2 Yb2 2.970914 1_555
Au2 Pb0 3.117887 1_655
Au2 Pb1 3.117887 1_555
Au3 Yb0 2.943487 1_555
Au3 Yb0 2.943487 1_556
Au3 Yb2 2.970914 1_456
Au3 Yb2 2.970914 1_455
Au3 Yb3 2.970914 1_555
Au3 Yb3 2.970914 1_556
Au3 Pb0 3.117887 1_565
Au3 Pb1 3.117887 1_555
