# generated using pymatgen
data_Li5Mn3O8
_symmetry_space_group_name_H-M   'P 1'
_cell_length_a   5.89960703
_cell_length_b   10.22602223
_cell_length_c   5.82633487
_cell_angle_alpha   89.60479494
_cell_angle_beta   59.58443813
_cell_angle_gamma   106.76758865
_symmetry_Int_Tables_number   1
_chemical_formula_structural   Li5Mn3O8
_chemical_formula_sum   'Li10 Mn6 O16'
_cell_volume   285.21436167
_cell_formula_units_Z   2
loop_
 _symmetry_equiv_pos_site_id
 _symmetry_equiv_pos_as_xyz
  1  'x, y, z'
loop_
 _atom_site_type_symbol
 _atom_site_label
 _atom_site_symmetry_multiplicity
 _atom_site_fract_x
 _atom_site_fract_y
 _atom_site_fract_z
 _atom_site_occupancy
  Li  Li0  1  0.49602100  0.25003100  0.74995700  1
  Li  Li1  1  0.50391300  0.75003700  0.25001700  1
  Li  Li2  1  0.00006000  0.99994700  0.49998900  1
  Li  Li3  1  0.99989600  0.49998500  0.00012200  1
  Li  Li4  1  0.47205400  0.24171800  0.25479400  1
  Li  Li5  1  0.52807000  0.75826700  0.74511700  1
  Li  Li6  1  0.98986800  0.24991800  0.74985200  1
  Li  Li7  1  0.01008300  0.75005500  0.25031100  1
  Li  Li8  1  0.98503500  0.25835600  0.24498500  1
  Li  Li9  1  0.01472300  0.74168100  0.75506400  1
  Mn  Mn0  1  0.50002300  0.49995600  0.99987600  1
  Mn  Mn1  1  0.50019400  0.99981400  0.99975800  1
  Mn  Mn2  1  0.49976500  0.50000600  0.49991300  1
  Mn  Mn3  1  0.00026700  0.00002000  0.00011900  1
  Mn  Mn4  1  0.99990000  0.50012900  0.50019600  1
  Mn  Mn5  1  0.50020800  0.00006400  0.49982500  1
  O  O0  1  0.71165400  0.11936300  0.14073000  1
  O  O1  1  0.76701900  0.61940100  0.64073000  1
  O  O2  1  0.23287200  0.38068600  0.35923800  1
  O  O3  1  0.28854500  0.88065400  0.85922900  1
  O  O4  1  0.72161600  0.11123900  0.63581300  1
  O  O5  1  0.72170800  0.61033000  0.13324800  1
  O  O6  1  0.25244100  0.10761200  0.11004000  1
  O  O7  1  0.24510800  0.60765400  0.61009400  1
  O  O8  1  0.25532900  0.11025200  0.63324700  1
  O  O9  1  0.25379900  0.61125400  0.13586500  1
  O  O10  1  0.27814800  0.38970400  0.86678200  1
  O  O11  1  0.27854900  0.88874800  0.36411300  1
  O  O12  1  0.75468300  0.39236700  0.38998200  1
  O  O13  1  0.74766100  0.89231900  0.88994600  1
  O  O14  1  0.74606500  0.38878500  0.86419500  1
  O  O15  1  0.74472100  0.88965000  0.36685700  1
loop_
_geom_bond_atom_site_label_1
_geom_bond_atom_site_label_2
_geom_bond_distance
_geom_bond_site_symmetry_2
Li0 O12 2.069236 1_555
Li0 O6 2.070080 1_556
Li0 O8 2.083719 1_555
Li0 O10 2.083823 1_555
Li0 O14 2.105207 1_555
Li0 O4 2.105877 1_555
Li1 O13 2.069318 1_554
Li1 O7 2.069864 1_555
Li1 O5 2.083819 1_555
Li1 O15 2.083841 1_555
Li1 O11 2.104258 1_555
Li1 O9 2.105284 1_555
Li2 O13 2.045735 1_455
Li2 O6 2.045821 1_565
Li2 O15 2.087564 1_455
Li2 O8 2.087824 1_565
Li2 O11 2.095837 1_555
Li2 O4 2.096376 1_465
Li3 O12 2.045277 1_555
Li3 O7 2.046180 1_654
Li3 O10 2.087832 1_654
Li3 O5 2.088079 1_555
Li3 O9 2.095832 1_655
Li3 O14 2.096071 1_554
Li4 O0 2.021396 1_555
Li4 O6 2.089931 1_555
Li4 O8 2.101628 1_555
Li4 O2 2.163431 1_555
Li4 O14 2.208875 1_554
Li4 O12 2.374516 1_555
Li5 O3 2.021345 1_555
Li5 O13 2.089899 1_555
Li5 O15 2.100458 1_555
Li5 O1 2.161601 1_555
Li5 O9 2.209210 1_556
Li5 O7 2.375028 1_555
Li6 O2 2.138046 1_655
Li6 O0 2.138170 1_556
Li6 O4 2.177132 1_555
Li6 O14 2.179570 1_555
Li6 O8 2.276124 1_655
Li6 O10 2.276818 1_655
Li7 O1 2.136715 1_455
Li7 O3 2.139218 1_554
Li7 O11 2.177136 1_555
Li7 O9 2.178630 1_555
Li7 O15 2.275119 1_455
Li7 O5 2.277490 1_455
Li8 O2 2.021762 1_655
Li8 O12 2.089635 1_555
Li8 O10 2.100186 1_654
Li8 O0 2.161398 1_555
Li8 O4 2.210029 1_555
Li8 O6 2.376378 1_655
Li9 O1 2.021323 1_455
Li9 O7 2.089885 1_555
Li9 O5 2.100066 1_456
Li9 O3 2.162778 1_555
Li9 O11 2.210234 1_555
Li9 O13 2.374078 1_455
Mn0 O10 1.942727 1_555
Mn0 O5 1.943624 1_556
Mn0 O14 1.956265 1_555
Mn0 O9 1.958117 1_556
Mn0 O1 1.966962 1_555
Mn0 O2 1.967178 1_556
Mn1 O13 1.933661 1_555
Mn1 O6 1.937244 1_566
Mn1 O4 1.950457 1_565
Mn1 O11 1.950767 1_556
Mn1 O3 1.971134 1_555
Mn1 O0 1.974050 1_566
Mn2 O5 1.957858 1_555
Mn2 O10 1.958761 1_555
Mn2 O7 1.966839 1_555
Mn2 O12 1.968021 1_555
Mn2 O2 2.202690 1_555
Mn2 O1 2.205153 1_555
Mn3 O8 1.958380 1_554
Mn3 O15 1.958468 1_445
Mn3 O6 1.965717 1_555
Mn3 O13 1.969084 1_444
Mn3 O3 2.203248 1_544
Mn3 O0 2.204559 1_455
Mn4 O7 1.934316 1_655
Mn4 O12 1.936531 1_555
Mn4 O14 1.950350 1_555
Mn4 O9 1.950919 1_655
Mn4 O1 1.971610 1_555
Mn4 O2 1.973572 1_655
Mn5 O8 1.943004 1_555
Mn5 O15 1.943246 1_545
Mn5 O4 1.957031 1_555
Mn5 O11 1.957439 1_545
Mn5 O0 1.966172 1_555
Mn5 O3 1.967884 1_545
