# generated using pymatgen
data_SrNdVO4
_symmetry_space_group_name_H-M   'P 1'
_cell_length_a   6.89279380
_cell_length_b   6.89279380
_cell_length_c   6.89279380
_cell_angle_alpha   147.04227342
_cell_angle_beta   147.04227342
_cell_angle_gamma   47.30119358
_symmetry_Int_Tables_number   1
_chemical_formula_structural   SrNdVO4
_chemical_formula_sum   'Sr1 Nd1 V1 O4'
_cell_volume   96.54874778
_cell_formula_units_Z   1
loop_
 _symmetry_equiv_pos_site_id
 _symmetry_equiv_pos_as_xyz
  1  'x, y, z'
loop_
 _atom_site_type_symbol
 _atom_site_label
 _atom_site_symmetry_multiplicity
 _atom_site_fract_x
 _atom_site_fract_y
 _atom_site_fract_z
 _atom_site_occupancy
  Sr  Sr0  1  0.64614800  0.64614800  0.00000000  1
  Nd  Nd0  1  0.35794600  0.35794600  0.00000000  1
  V  V0  1  0.00278100  0.00278100  0.00000000  1
  O  O0  1  0.99152300  0.49152300  0.50000000  1
  O  O1  1  0.49152300  0.99152300  0.50000000  1
  O  O2  1  0.83434500  0.83434500  0.00000000  1
  O  O3  1  0.17573400  0.17573400  0.00000000  1
loop_
_geom_bond_atom_site_label_1
_geom_bond_atom_site_label_2
_geom_bond_distance
_geom_bond_site_symmetry_2
Nd0 O3 2.300922 1_555
Nd0 O1 2.582265 1_544
Nd0 O0 2.582265 1_454
Nd0 O0 2.582265 1_555
Nd0 O1 2.582265 1_555
Nd0 O2 2.781115 1_444
Nd0 O2 2.781115 1_545
Nd0 O2 2.781115 1_455
Nd0 O2 2.781115 1_556
O0 V0 1.960382 1_655
O0 V0 1.960382 1_666
O0 Sr0 2.763220 1_555
O0 Sr0 2.763220 1_656
O1 V0 1.960382 1_565
O1 V0 1.960382 1_666
O1 Sr0 2.763220 1_566
O1 Sr0 2.763220 1_555
O2 V0 2.126963 1_665
O2 Sr0 2.376499 1_555
O3 V0 2.184002 1_555
O3 Sr0 2.790225 1_545
O3 Sr0 2.790225 1_455
O3 Sr0 2.790225 1_556
O3 Sr0 2.790225 1_444
