# generated using pymatgen
data_Cs2Mn(TeS3)2
_symmetry_space_group_name_H-M   'P 1'
_cell_length_a   7.03081131
_cell_length_b   7.03081131
_cell_length_c   16.26701800
_cell_angle_alpha   90.00000000
_cell_angle_beta   90.00000000
_cell_angle_gamma   119.99999347
_symmetry_Int_Tables_number   1
_chemical_formula_structural   Cs2Mn(TeS3)2
_chemical_formula_sum   'Cs4 Mn2 Te4 S12'
_cell_volume   696.38513541
_cell_formula_units_Z   2
loop_
 _symmetry_equiv_pos_site_id
 _symmetry_equiv_pos_as_xyz
  1  'x, y, z'
loop_
 _atom_site_type_symbol
 _atom_site_label
 _atom_site_symmetry_multiplicity
 _atom_site_fract_x
 _atom_site_fract_y
 _atom_site_fract_z
 _atom_site_occupancy
  Cs  Cs0  1  0.66666700  0.33333300  0.79759900  1
  Cs  Cs1  1  0.66666700  0.33333300  0.29759900  1
  Cs  Cs2  1  0.33333300  0.66666700  0.20240100  1
  Cs  Cs3  1  0.33333300  0.66666700  0.70240100  1
  Mn  Mn0  1  0.00000000  0.00000000  0.00000000  1
  Mn  Mn1  1  0.00000000  0.00000000  0.50000000  1
  Te  Te0  1  0.33333300  0.66666700  0.96023700  1
  Te  Te1  1  0.33333300  0.66666700  0.46023700  1
  Te  Te2  1  0.66666700  0.33333300  0.03976300  1
  Te  Te3  1  0.66666700  0.33333300  0.53976300  1
  S  S0  1  0.11484100  0.79447900  0.89497800  1
  S  S1  1  0.67963700  0.88515900  0.89497800  1
  S  S2  1  0.20552100  0.32036300  0.89497800  1
  S  S3  1  0.11484100  0.32036300  0.39497800  1
  S  S4  1  0.20552100  0.88515900  0.39497800  1
  S  S5  1  0.67963700  0.79447900  0.39497800  1
  S  S6  1  0.88515900  0.20552100  0.10502200  1
  S  S7  1  0.32036300  0.11484100  0.10502200  1
  S  S8  1  0.79447900  0.67963700  0.10502200  1
  S  S9  1  0.88515900  0.67963700  0.60502200  1
  S  S10  1  0.79447900  0.11484100  0.60502200  1
  S  S11  1  0.32036300  0.20552100  0.60502200  1
loop_
_geom_bond_atom_site_label_1
_geom_bond_atom_site_label_2
_geom_bond_distance
_geom_bond_site_symmetry_2
Cs0 S1 3.568458 1_545
Cs0 S0 3.568465 1_655
Cs0 S2 3.568470 1_555
Cs0 S10 3.789633 1_555
Cs0 S11 3.789633 1_555
Cs0 S9 3.789633 1_555
Cs0 Te2 3.939286 1_556
Cs0 S2 4.149265 1_655
Cs0 S0 4.149273 1_545
Cs0 S1 4.149278 1_555
Cs1 S3 3.568458 1_655
Cs1 S4 3.568465 1_545
Cs1 S5 3.568470 1_555
Cs1 S6 3.789633 1_555
Cs1 S8 3.789633 1_555
Cs1 S7 3.789633 1_555
Cs1 Te3 3.939286 1_555
Cs1 S5 4.149265 1_545
Cs1 S4 4.149273 1_655
Cs1 S3 4.149278 1_555
Cs2 S7 3.568458 1_565
Cs2 S6 3.568465 1_455
Cs2 S8 3.568470 1_555
Cs2 S4 3.789633 1_555
Cs2 S5 3.789633 1_555
Cs2 S3 3.789633 1_555
Cs2 Te0 3.939286 1_554
Cs2 S8 4.149265 1_455
Cs2 S6 4.149273 1_565
Cs2 S7 4.149278 1_555
Cs3 S9 3.568458 1_455
Cs3 S10 3.568465 1_565
Cs3 S11 3.568470 1_555
Cs3 S0 3.789633 1_555
Cs3 S2 3.789633 1_555
Cs3 S1 3.789633 1_555
Cs3 Te1 3.939286 1_555
Cs3 S11 4.149265 1_565
Cs3 S10 4.149273 1_455
Cs3 S9 4.149278 1_555
Mn0 S0 2.612513 1_544
Mn0 S6 2.612513 1_455
Mn0 S2 2.612518 1_554
Mn0 S8 2.612518 1_445
Mn0 S1 2.612519 1_444
Mn0 S7 2.612519 1_555
Mn1 S10 2.612513 1_455
Mn1 S4 2.612513 1_545
Mn1 S11 2.612518 1_555
Mn1 S5 2.612518 1_445
Mn1 S9 2.612519 1_445
Mn1 S3 2.612519 1_555
S0 Te0 2.382169 1_555
S1 Te0 2.382169 1_555
S2 Te0 2.382169 1_555
S3 Te1 2.382169 1_555
S4 Te1 2.382169 1_555
S5 Te1 2.382169 1_555
S6 Te2 2.382169 1_555
S7 Te2 2.382169 1_555
S8 Te2 2.382169 1_555
S9 Te3 2.382169 1_555
S10 Te3 2.382169 1_555
S11 Te3 2.382169 1_555
