# generated using pymatgen
data_CaNd3Cr4O16
_symmetry_space_group_name_H-M   'P 1'
_cell_length_a   7.42307000
_cell_length_b   7.42307000
_cell_length_c   6.40470300
_cell_angle_alpha   90.00000000
_cell_angle_beta   90.00000000
_cell_angle_gamma   90.00000000
_symmetry_Int_Tables_number   1
_chemical_formula_structural   CaNd3Cr4O16
_chemical_formula_sum   'Ca1 Nd3 Cr4 O16'
_cell_volume   352.91174120
_cell_formula_units_Z   1
loop_
 _symmetry_equiv_pos_site_id
 _symmetry_equiv_pos_as_xyz
  1  'x, y, z'
loop_
 _atom_site_type_symbol
 _atom_site_label
 _atom_site_symmetry_multiplicity
 _atom_site_fract_x
 _atom_site_fract_y
 _atom_site_fract_z
 _atom_site_occupancy
  Ca  Ca0  1  0.50000000  0.50000000  0.50000000  1
  Nd  Nd0  1  0.00000000  0.00000000  0.00000000  1
  Nd  Nd1  1  0.00000000  0.50000000  0.74831500  1
  Nd  Nd2  1  0.50000000  0.00000000  0.25168500  1
  Cr  Cr0  1  0.50000000  0.00000000  0.74650900  1
  Cr  Cr1  1  0.00000000  0.50000000  0.25349100  1
  Cr  Cr2  1  0.00000000  0.00000000  0.50000000  1
  Cr  Cr3  1  0.50000000  0.50000000  0.00000000  1
  O  O0  1  0.32077600  0.00000000  0.92166200  1
  O  O1  1  0.81836100  0.50000000  0.41913700  1
  O  O2  1  0.00000000  0.18089000  0.66862500  1
  O  O3  1  0.50000000  0.67683400  0.15952400  1
  O  O4  1  0.00000000  0.81911000  0.66862500  1
  O  O5  1  0.50000000  0.32316600  0.15952400  1
  O  O6  1  0.67922400  0.00000000  0.92166200  1
  O  O7  1  0.18163900  0.50000000  0.41913700  1
  O  O8  1  0.18089000  0.00000000  0.33137500  1
  O  O9  1  0.67683400  0.50000000  0.84047600  1
  O  O10  1  0.50000000  0.81836100  0.58086300  1
  O  O11  1  0.00000000  0.32077600  0.07833800  1
  O  O12  1  0.50000000  0.18163900  0.58086300  1
  O  O13  1  0.00000000  0.67922400  0.07833800  1
  O  O14  1  0.81911000  0.00000000  0.33137500  1
  O  O15  1  0.32316600  0.50000000  0.84047600  1
loop_
_geom_bond_atom_site_label_1
_geom_bond_atom_site_label_2
_geom_bond_distance
_geom_bond_site_symmetry_2
Ca0 O10 2.419300 1_555
Ca0 O12 2.419300 1_555
Ca0 O7 2.419300 1_555
Ca0 O1 2.419300 1_555
Ca0 O3 2.545246 1_555
Ca0 O9 2.545246 1_555
Ca0 O15 2.545246 1_555
Ca0 O5 2.545246 1_555
Nd0 O11 2.433429 1_555
Nd0 O0 2.433429 1_554
Nd0 O13 2.433429 1_545
Nd0 O6 2.433429 1_454
Nd0 O14 2.511455 1_455
Nd0 O4 2.511455 1_544
Nd0 O2 2.511455 1_554
Nd0 O8 2.511455 1_555
Nd1 O2 2.423138 1_555
Nd1 O4 2.423138 1_555
Nd1 O15 2.470436 1_555
Nd1 O9 2.470436 1_455
Nd1 O13 2.497532 1_556
Nd1 O11 2.497532 1_556
Nd1 O1 2.502567 1_455
Nd1 O7 2.502567 1_555
Nd2 O8 2.423138 1_555
Nd2 O14 2.423138 1_555
Nd2 O5 2.470436 1_555
Nd2 O3 2.470436 1_545
Nd2 O6 2.497532 1_554
Nd2 O0 2.497532 1_554
Nd2 O10 2.502567 1_545
Nd2 O12 2.502567 1_555
Cr0 O12 1.715664 1_555
Cr0 O10 1.715664 1_545
Cr0 O6 1.740226 1_555
Cr0 O0 1.740226 1_555
Cr1 O1 1.715664 1_455
Cr1 O7 1.715664 1_555
Cr1 O13 1.740226 1_555
Cr1 O11 1.740226 1_555
Cr2 O14 1.723191 1_455
Cr2 O4 1.723191 1_545
Cr2 O8 1.723191 1_555
Cr2 O2 1.723191 1_555
Cr3 O3 1.663410 1_555
Cr3 O9 1.663410 1_554
Cr3 O5 1.663410 1_555
Cr3 O15 1.663410 1_554
