# generated using pymatgen
data_LiLuO2
_symmetry_space_group_name_H-M   'P 1'
_cell_length_a   6.09379282
_cell_length_b   5.84002280
_cell_length_c   5.85218511
_cell_angle_alpha   62.90424183
_cell_angle_beta   90.00000000
_cell_angle_gamma   90.00000000
_symmetry_Int_Tables_number   1
_chemical_formula_structural   LiLuO2
_chemical_formula_sum   'Li4 Lu4 O8'
_cell_volume   185.40889724
_cell_formula_units_Z   4
loop_
 _symmetry_equiv_pos_site_id
 _symmetry_equiv_pos_as_xyz
  1  'x, y, z'
loop_
 _atom_site_type_symbol
 _atom_site_label
 _atom_site_symmetry_multiplicity
 _atom_site_fract_x
 _atom_site_fract_y
 _atom_site_fract_z
 _atom_site_occupancy
  Li  Li0  1  0.13372724  0.74002727  0.51809750  1
  Li  Li1  1  0.63372724  0.25997273  0.98190250  1
  Li  Li2  1  0.36627276  0.74002727  0.01809750  1
  Li  Li3  1  0.86627276  0.25997273  0.48190250  1
  Lu  Lu0  1  0.87404038  0.75395160  0.99531236  1
  Lu  Lu1  1  0.62595962  0.75395160  0.49531236  1
  Lu  Lu2  1  0.37404038  0.24604840  0.50468764  1
  Lu  Lu3  1  0.12595962  0.24604840  0.00468764  1
  O  O0  1  0.14007869  0.01239064  0.79411079  1
  O  O1  1  0.35992131  0.01239064  0.29411079  1
  O  O2  1  0.88194219  0.53269866  0.76835999  1
  O  O3  1  0.38194219  0.46730134  0.73164001  1
  O  O4  1  0.61805781  0.53269866  0.26835999  1
  O  O5  1  0.11805781  0.46730134  0.23164001  1
  O  O6  1  0.64007869  0.98760936  0.70588921  1
  O  O7  1  0.85992131  0.98760936  0.20588921  1
loop_
_geom_bond_atom_site_label_1
_geom_bond_atom_site_label_2
_geom_bond_distance
_geom_bond_site_symmetry_2
Li0 O1 2.061275 1_565
Li0 O2 2.085613 1_455
Li0 O3 2.138501 1_555
Li0 O7 2.409622 1_455
Li1 O7 2.061275 1_546
Li1 O3 2.085613 1_555
Li1 O2 2.138501 1_555
Li1 O1 2.409622 1_556
Li2 O0 2.061275 1_564
Li2 O4 2.085613 1_555
Li2 O5 2.138501 1_555
Li2 O6 2.409622 1_554
Li3 O6 2.061275 1_545
Li3 O5 2.085613 1_655
Li3 O4 2.138501 1_555
Li3 O0 2.409622 1_655
Lu0 O6 2.158256 1_555
Lu0 O0 2.161879 1_665
Lu0 O4 2.185264 1_556
Lu0 O5 2.194822 1_656
Lu0 O7 2.218099 1_556
Lu0 O2 2.235905 1_555
Lu1 O7 2.158256 1_555
Lu1 O1 2.161879 1_565
Lu1 O2 2.185264 1_555
Lu1 O3 2.194822 1_555
Lu1 O6 2.218099 1_555
Lu1 O4 2.235905 1_555
Lu2 O0 2.158256 1_555
Lu2 O6 2.161879 1_545
Lu2 O5 2.185264 1_555
Lu2 O4 2.194822 1_555
Lu2 O1 2.218099 1_555
Lu2 O3 2.235905 1_555
Lu3 O1 2.158256 1_555
Lu3 O7 2.161879 1_445
Lu3 O3 2.185264 1_554
Lu3 O2 2.194822 1_454
Lu3 O0 2.218099 1_554
Lu3 O5 2.235905 1_555
