# generated using pymatgen
data_Na16Zn11Sn16
_symmetry_space_group_name_H-M   'P 1'
_cell_length_a   16.14366376
_cell_length_b   18.90480685
_cell_length_c   18.90480685
_cell_angle_alpha   60.98474935
_cell_angle_beta   64.72442231
_cell_angle_gamma   64.72442231
_symmetry_Int_Tables_number   1
_chemical_formula_structural   Na16Zn11Sn16
_chemical_formula_sum   'Na64 Zn44 Sn64'
_cell_volume   4382.53073553
_cell_formula_units_Z   4
loop_
 _symmetry_equiv_pos_site_id
 _symmetry_equiv_pos_as_xyz
  1  'x, y, z'
loop_
 _atom_site_type_symbol
 _atom_site_label
 _atom_site_symmetry_multiplicity
 _atom_site_fract_x
 _atom_site_fract_y
 _atom_site_fract_z
 _atom_site_occupancy
  Na  Na0  1  0.44022300  0.03703891  0.73738266  1
  Na  Na1  1  0.55977700  0.96296109  0.26261734  1
  Na  Na2  1  0.55977700  0.26261734  0.96296109  1
  Na  Na3  1  0.78535543  0.23738266  0.53703891  1
  Na  Na4  1  0.44022300  0.73738266  0.03703891  1
  Na  Na5  1  0.21464457  0.76261734  0.46296109  1
  Na  Na6  1  0.21464457  0.46296109  0.76261734  1
  Na  Na7  1  0.78535543  0.53703891  0.23738266  1
  Na  Na8  1  0.74329709  0.55888103  0.55888103  1
  Na  Na9  1  0.25670291  0.44111897  0.44111897  1
  Na  Na10  1  0.13894085  0.05888103  0.05888103  1
  Na  Na11  1  0.86105915  0.94111897  0.94111897  1
  Na  Na12  1  0.14575326  0.86991290  0.86991290  1
  Na  Na13  1  0.85424674  0.13008710  0.13008710  1
  Na  Na14  1  0.11442094  0.36991290  0.36991290  1
  Na  Na15  1  0.88557906  0.63008710  0.63008710  1
  Na  Na16  1  0.15771395  0.24041551  0.60159239  1
  Na  Na17  1  0.84228605  0.75958449  0.39840761  1
  Na  Na18  1  0.84228605  0.39840761  0.75958449  1
  Na  Na19  1  0.00027815  0.10159239  0.74041551  1
  Na  Na20  1  0.15771395  0.60159239  0.24041551  1
  Na  Na21  1  0.99972185  0.89840761  0.25958449  1
  Na  Na22  1  0.99972185  0.25958449  0.89840761  1
  Na  Na23  1  0.00027815  0.74041551  0.10159239  1
  Na  Na24  1  0.33674312  0.76703450  0.57630341  1
  Na  Na25  1  0.66325688  0.23296550  0.42369659  1
  Na  Na26  1  0.66325688  0.42369659  0.23296550  1
  Na  Na27  1  0.31991897  0.07630341  0.26703450  1
  Na  Na28  1  0.33674312  0.57630341  0.76703450  1
  Na  Na29  1  0.68008103  0.92369659  0.73296550  1
  Na  Na30  1  0.68008103  0.73296550  0.92369659  1
  Na  Na31  1  0.31991897  0.26703450  0.07630341  1
  Na  Na32  1  0.58537730  0.76060900  0.44630495  1
  Na  Na33  1  0.41462270  0.23939100  0.55369505  1
  Na  Na34  1  0.41462270  0.55369505  0.23939100  1
  Na  Na35  1  0.20770875  0.94630495  0.26060900  1
  Na  Na36  1  0.58537730  0.44630495  0.76060900  1
  Na  Na37  1  0.79229125  0.05369505  0.73939100  1
  Na  Na38  1  0.79229125  0.73939100  0.05369505  1
  Na  Na39  1  0.20770875  0.26060900  0.94630495  1
  Na  Na40  1  0.21441851  0.94279066  0.63812418  1
  Na  Na41  1  0.78558149  0.05720934  0.36187582  1
  Na  Na42  1  0.78558149  0.36187582  0.05720934  1
  Na  Na43  1  0.20466665  0.13812418  0.44279066  1
  Na  Na44  1  0.21441851  0.63812418  0.94279066  1
  Na  Na45  1  0.79533335  0.86187582  0.55720934  1
  Na  Na46  1  0.79533335  0.55720934  0.86187582  1
  Na  Na47  1  0.20466665  0.44279066  0.13812418  1
  Na  Na48  1  0.39455652  0.25000000  0.75000000  1
  Na  Na49  1  0.60544348  0.75000000  0.25000000  1
  Na  Na50  1  0.60544348  0.25000000  0.75000000  1
  Na  Na51  1  0.39455652  0.75000000  0.25000000  1
  Na  Na52  1  0.30192242  0.92127698  0.92127698  1
  Na  Na53  1  0.69807758  0.07872302  0.07872302  1
  Na  Na54  1  0.85552362  0.42127698  0.42127698  1
  Na  Na55  1  0.14447638  0.57872302  0.57872302  1
  Na  Na56  1  0.39343903  0.05117752  0.55714625  1
  Na  Na57  1  0.60656097  0.94882248  0.44285375  1
  Na  Na58  1  0.60656097  0.44285375  0.94882248  1
  Na  Na59  1  0.99823721  0.05714625  0.55117752  1
  Na  Na60  1  0.39343903  0.55714625  0.05117752  1
  Na  Na61  1  0.00176279  0.94285375  0.44882248  1
  Na  Na62  1  0.00176279  0.44882248  0.94285375  1
  Na  Na63  1  0.99823721  0.55117752  0.05714625  1
  Zn  Zn0  1  0.37400974  0.89591361  0.74107971  1
  Zn  Zn1  1  0.62599026  0.10408639  0.25892029  1
  Zn  Zn2  1  0.62599026  0.25892029  0.10408639  1
  Zn  Zn3  1  0.98899694  0.24107971  0.39591361  1
  Zn  Zn4  1  0.37400974  0.74107971  0.89591361  1
  Zn  Zn5  1  0.01100306  0.75892029  0.60408639  1
  Zn  Zn6  1  0.01100306  0.60408639  0.75892029  1
  Zn  Zn7  1  0.98899694  0.39591361  0.24107971  1
  Zn  Zn8  1  0.49766929  0.91755580  0.91755580  1
  Zn  Zn9  1  0.50233071  0.08244420  0.08244420  1
  Zn  Zn10  1  0.66721911  0.41755580  0.41755580  1
  Zn  Zn11  1  0.33278089  0.58244420  0.58244420  1
  Zn  Zn12  1  0.67448820  0.74193170  0.74193170  1
  Zn  Zn13  1  0.32551180  0.25806830  0.25806830  1
  Zn  Zn14  1  0.84164840  0.24193170  0.24193170  1
  Zn  Zn15  1  0.15835160  0.75806830  0.75806830  1
  Zn  Zn16  1  0.50931827  0.67087252  0.67087252  1
  Zn  Zn17  1  0.49068173  0.32912748  0.32912748  1
  Zn  Zn18  1  0.14893670  0.17087252  0.17087252  1
  Zn  Zn19  1  0.85106330  0.82912748  0.82912748  1
  Zn  Zn20  1  0.55576087  0.89273869  0.64822472  1
  Zn  Zn21  1  0.44423913  0.10726131  0.35177528  1
  Zn  Zn22  1  0.44423913  0.35177528  0.10726131  1
  Zn  Zn23  1  0.90327572  0.14822472  0.39273869  1
  Zn  Zn24  1  0.55576087  0.64822472  0.89273869  1
  Zn  Zn25  1  0.09672428  0.85177528  0.60726131  1
  Zn  Zn26  1  0.09672428  0.60726131  0.85177528  1
  Zn  Zn27  1  0.90327572  0.39273869  0.14822472  1
  Zn  Zn28  1  0.45487219  0.84842436  0.60620991  1
  Zn  Zn29  1  0.54512781  0.15157564  0.39379009  1
  Zn  Zn30  1  0.54512781  0.39379009  0.15157564  1
  Zn  Zn31  1  0.09049354  0.10620991  0.34842436  1
  Zn  Zn32  1  0.45487219  0.60620991  0.84842436  1
  Zn  Zn33  1  0.90950646  0.89379009  0.65157564  1
  Zn  Zn34  1  0.90950646  0.65157564  0.89379009  1
  Zn  Zn35  1  0.09049354  0.34842436  0.10620991  1
  Zn  Zn36  1  0.35843587  0.06369783  0.92234154  1
  Zn  Zn37  1  0.64156413  0.93630217  0.07765846  1
  Zn  Zn38  1  0.64156413  0.07765846  0.93630217  1
  Zn  Zn39  1  0.65552477  0.42234154  0.56369783  1
  Zn  Zn40  1  0.35843587  0.92234154  0.06369783  1
  Zn  Zn41  1  0.34447523  0.57765846  0.43630217  1
  Zn  Zn42  1  0.34447523  0.43630217  0.57765846  1
  Zn  Zn43  1  0.65552477  0.56369783  0.42234154  1
  Sn  Sn0  1  0.10290974  0.05595692  0.89736143  1
  Sn  Sn1  1  0.89709026  0.94404308  0.10263857  1
  Sn  Sn2  1  0.89709026  0.10263857  0.94404308  1
  Sn  Sn3  1  0.94377192  0.39736143  0.55595692  1
  Sn  Sn4  1  0.10290974  0.89736143  0.05595692  1
  Sn  Sn5  1  0.05622808  0.60263857  0.44404308  1
  Sn  Sn6  1  0.05622808  0.44404308  0.60263857  1
  Sn  Sn7  1  0.94377192  0.55595692  0.39736143  1
  Sn  Sn8  1  0.39212542  0.95472141  0.45515122  1
  Sn  Sn9  1  0.60787458  0.04527859  0.54484878  1
  Sn  Sn10  1  0.60787458  0.54484878  0.04527859  1
  Sn  Sn11  1  0.19800195  0.95515122  0.45472141  1
  Sn  Sn12  1  0.39212542  0.45515122  0.95472141  1
  Sn  Sn13  1  0.80199805  0.04484878  0.54527859  1
  Sn  Sn14  1  0.80199805  0.54527859  0.04484878  1
  Sn  Sn15  1  0.19800195  0.45472141  0.95515122  1
  Sn  Sn16  1  0.38843597  0.86156403  0.36156403  1
  Sn  Sn17  1  0.61156403  0.13843597  0.63843597  1
  Sn  Sn18  1  0.61156403  0.63843597  0.13843597  1
  Sn  Sn19  1  0.38843597  0.36156403  0.86156403  1
  Sn  Sn20  1  0.45137298  0.67365862  0.43285707  1
  Sn  Sn21  1  0.54862702  0.32634138  0.56714293  1
  Sn  Sn22  1  0.54862702  0.56714293  0.32634138  1
  Sn  Sn23  1  0.44211134  0.93285707  0.17365862  1
  Sn  Sn24  1  0.45137298  0.43285707  0.67365862  1
  Sn  Sn25  1  0.55788866  0.06714293  0.82634138  1
  Sn  Sn26  1  0.55788866  0.82634138  0.06714293  1
  Sn  Sn27  1  0.44211134  0.17365862  0.93285707  1
  Sn  Sn28  1  0.50996313  0.82949595  0.82949595  1
  Sn  Sn29  1  0.49003687  0.17050405  0.17050405  1
  Sn  Sn30  1  0.83104496  0.32949595  0.32949595  1
  Sn  Sn31  1  0.16895504  0.67050405  0.67050405  1
  Sn  Sn32  1  0.52238731  0.58275483  0.58275483  1
  Sn  Sn33  1  0.47761269  0.41724517  0.41724517  1
  Sn  Sn34  1  0.31210303  0.08275483  0.08275483  1
  Sn  Sn35  1  0.68789697  0.91724517  0.91724517  1
  Sn  Sn36  1  0.33648110  0.75589609  0.75589609  1
  Sn  Sn37  1  0.66351890  0.24410391  0.24410391  1
  Sn  Sn38  1  0.15172672  0.25589609  0.25589609  1
  Sn  Sn39  1  0.84827328  0.74410391  0.74410391  1
  Sn  Sn40  1  0.23547911  0.15747374  0.81554844  1
  Sn  Sn41  1  0.76452089  0.84252626  0.18445156  1
  Sn  Sn42  1  0.76452089  0.18445156  0.84252626  1
  Sn  Sn43  1  0.79149872  0.31554844  0.65747374  1
  Sn  Sn44  1  0.23547911  0.81554844  0.15747374  1
  Sn  Sn45  1  0.20850128  0.68445156  0.34252626  1
  Sn  Sn46  1  0.20850128  0.34252626  0.68445156  1
  Sn  Sn47  1  0.79149872  0.65747374  0.31554844  1
  Sn  Sn48  1  0.23297156  0.05003582  0.73056261  1
  Sn  Sn49  1  0.76702844  0.94996418  0.26943739  1
  Sn  Sn50  1  0.76702844  0.26943739  0.94996418  1
  Sn  Sn51  1  0.98643001  0.23056261  0.55003582  1
  Sn  Sn52  1  0.23297156  0.73056261  0.05003582  1
  Sn  Sn53  1  0.01356999  0.76943739  0.44996418  1
  Sn  Sn54  1  0.01356999  0.44996418  0.76943739  1
  Sn  Sn55  1  0.98643001  0.55003582  0.23056261  1
  Sn  Sn56  1  0.65663057  0.75216656  0.59013557  1
  Sn  Sn57  1  0.34336943  0.24783344  0.40986443  1
  Sn  Sn58  1  0.34336943  0.40986443  0.24783344  1
  Sn  Sn59  1  0.00106730  0.09013557  0.25216656  1
  Sn  Sn60  1  0.65663057  0.59013557  0.75216656  1
  Sn  Sn61  1  0.99893270  0.90986443  0.74783344  1
  Sn  Sn62  1  0.99893270  0.74783344  0.90986443  1
  Sn  Sn63  1  0.00106730  0.25216656  0.09013557  1
loop_
_geom_bond_atom_site_label_1
_geom_bond_atom_site_label_2
_geom_bond_distance
_geom_bond_site_symmetry_2
Na0 Zn0 3.233581 1_545
Na0 Sn48 3.302573 1_555
Na0 Sn40 3.310443 1_555
Na0 Sn28 3.311839 1_545
Na0 Zn8 3.317984 1_545
Na0 Zn20 3.345522 1_545
Na0 Sn25 3.367505 1_555
Na0 Zn36 3.379710 1_555
Na0 Sn17 3.384622 1_555
Na0 Sn9 3.463430 1_555
Na0 Na33 3.721864 1_555
Na1 Zn1 3.233581 1_565
Na1 Sn49 3.302573 1_555
Na1 Sn41 3.310443 1_555
Na1 Sn29 3.311839 1_565
Na1 Zn9 3.317984 1_565
Na1 Zn21 3.345522 1_565
Na1 Sn23 3.367505 1_555
Na1 Zn37 3.379710 1_555
Na1 Sn16 3.384622 1_555
Na1 Sn8 3.463430 1_555
Na1 Na32 3.721864 1_555
Na2 Zn2 3.233581 1_556
Na2 Sn50 3.302573 1_555
Na2 Sn42 3.310443 1_555
Na2 Sn29 3.311839 1_556
Na2 Zn9 3.317984 1_556
Na2 Zn22 3.345522 1_556
Na2 Sn27 3.367505 1_555
Na2 Zn38 3.379710 1_555
Na2 Sn19 3.384622 1_555
Na2 Sn12 3.463430 1_555
Na2 Na36 3.721864 1_555
Na3 Zn3 3.233581 1_555
Na3 Sn51 3.302573 1_555
Na3 Sn43 3.310443 1_555
Na3 Sn30 3.311839 1_555
Na3 Zn10 3.317984 1_555
Na3 Zn23 3.345522 1_555
Na3 Sn21 3.367505 1_555
Na3 Zn39 3.379710 1_555
Na3 Sn17 3.384622 1_555
Na3 Sn13 3.463430 1_555
Na3 Na37 3.721864 1_555
Na4 Zn4 3.233581 1_554
Na4 Sn52 3.302573 1_555
Na4 Sn44 3.310443 1_555
Na4 Sn28 3.311839 1_554
Na4 Zn8 3.317984 1_554
Na4 Zn24 3.345522 1_554
Na4 Sn26 3.367505 1_555
Na4 Zn40 3.379710 1_555
Na4 Sn18 3.384622 1_555
Na4 Sn10 3.463430 1_555
Na5 Zn5 3.233581 1_555
Na5 Sn53 3.302573 1_555
Na5 Sn45 3.310443 1_555
Na5 Sn31 3.311839 1_555
Na5 Zn11 3.317984 1_555
Na5 Zn25 3.345522 1_555
Na5 Sn20 3.367505 1_555
Na5 Zn41 3.379710 1_555
Na5 Sn16 3.384622 1_555
Na5 Sn11 3.463430 1_555
Na6 Zn6 3.233581 1_555
Na6 Sn54 3.302573 1_555
Na6 Sn46 3.310443 1_555
Na6 Sn31 3.311839 1_555
Na6 Zn11 3.317984 1_555
Na6 Zn26 3.345522 1_555
Na6 Sn24 3.367505 1_555
Na6 Zn42 3.379710 1_555
Na6 Sn19 3.384622 1_555
Na6 Sn15 3.463430 1_555
Na7 Zn7 3.233581 1_555
Na7 Sn55 3.302573 1_555
Na7 Sn47 3.310443 1_555
Na7 Sn30 3.311839 1_555
Na7 Zn10 3.317984 1_555
Na7 Zn27 3.345522 1_555
Na7 Sn22 3.367505 1_555
Na7 Zn43 3.379710 1_555
Na7 Sn18 3.384622 1_555
Na7 Sn14 3.463430 1_555
Na8 Sn32 3.251842 1_555
Na8 Sn7 3.372414 1_555
Na8 Sn3 3.372414 1_555
Na8 Zn43 3.385867 1_555
Na8 Zn39 3.385867 1_555
Na8 Sn60 3.561085 1_555
Na8 Sn56 3.561085 1_555
Na9 Sn33 3.251842 1_555
Na9 Sn5 3.372414 1_555
Na9 Sn6 3.372414 1_555
Na9 Zn42 3.385867 1_555
Na9 Zn41 3.385867 1_555
Na9 Sn57 3.561085 1_555
Na9 Sn58 3.561085 1_555
Na10 Sn34 3.251842 1_555
Na10 Sn0 3.372414 1_554
Na10 Sn4 3.372414 1_545
Na10 Zn40 3.385867 1_545
Na10 Zn36 3.385867 1_554
Na10 Sn63 3.561085 1_555
Na10 Sn59 3.561085 1_555
Na10 Na39 3.745652 1_554
Na10 Na35 3.745652 1_545
Na11 Sn35 3.251842 1_555
Na11 Sn1 3.372414 1_556
Na11 Sn2 3.372414 1_565
Na11 Zn38 3.385867 1_565
Na11 Zn37 3.385867 1_556
Na11 Sn61 3.561085 1_555
Na11 Sn62 3.561085 1_555
Na11 Na38 3.745652 1_556
Na11 Na37 3.745652 1_565
Na12 Sn36 3.456118 1_555
Na12 Zn0 3.531773 1_555
Na12 Zn4 3.531773 1_555
Na12 Sn4 3.536168 1_556
Na12 Sn0 3.536168 1_565
Na12 Zn15 3.547568 1_555
Na12 Sn48 3.569650 1_565
Na12 Sn52 3.569650 1_556
Na12 Sn61 3.600881 1_455
Na12 Sn62 3.600881 1_455
Na13 Sn37 3.456118 1_555
Na13 Zn1 3.531773 1_555
Na13 Zn2 3.531773 1_555
Na13 Sn2 3.536168 1_554
Na13 Sn1 3.536168 1_545
Na13 Zn14 3.547568 1_555
Na13 Sn49 3.569650 1_545
Na13 Sn50 3.569650 1_554
Na13 Sn63 3.600881 1_655
Na13 Sn59 3.600881 1_655
Na14 Sn38 3.456118 1_555
Na14 Zn7 3.531773 1_455
Na14 Zn3 3.531773 1_455
Na14 Sn3 3.536168 1_455
Na14 Sn7 3.536168 1_455
Na14 Zn13 3.547568 1_555
Na14 Sn55 3.569650 1_455
Na14 Sn51 3.569650 1_455
Na14 Sn57 3.600881 1_555
Na14 Sn58 3.600881 1_555
Na15 Sn39 3.456118 1_555
Na15 Zn5 3.531773 1_655
Na15 Zn6 3.531773 1_655
Na15 Sn5 3.536168 1_655
Na15 Sn6 3.536168 1_655
Na15 Zn12 3.547568 1_555
Na15 Sn54 3.569650 1_655
Na15 Sn53 3.569650 1_655
Na15 Sn60 3.600881 1_555
Na15 Sn56 3.600881 1_555
Na16 Sn48 3.264512 1_555
Na16 Sn51 3.398256 1_455
Na16 Sn6 3.487691 1_555
Na16 Sn46 3.497710 1_555
Na16 Sn57 3.567809 1_555
Na16 Sn3 3.575871 1_455
Na16 Na33 3.842274 1_555
Na17 Sn49 3.264512 1_555
Na17 Sn53 3.398256 1_655
Na17 Sn7 3.487691 1_555
Na17 Sn47 3.497710 1_555
Na17 Sn56 3.567809 1_555
Na17 Sn5 3.575871 1_655
Na17 Na32 3.842274 1_555
Na18 Sn50 3.264512 1_555
Na18 Sn54 3.398256 1_655
Na18 Sn3 3.487691 1_555
Na18 Sn43 3.497710 1_555
Na18 Sn60 3.567809 1_555
Na18 Sn6 3.575871 1_655
Na18 Na36 3.842274 1_555
Na19 Sn51 3.264512 1_455
Na19 Sn48 3.398256 1_555
Na19 Sn2 3.487691 1_455
Na19 Sn42 3.497710 1_455
Na19 Sn61 3.567809 1_445
Na19 Sn0 3.575871 1_555
Na19 Na37 3.842274 1_455
Na20 Sn52 3.264512 1_555
Na20 Sn55 3.398256 1_455
Na20 Sn5 3.487691 1_555
Na20 Sn45 3.497710 1_555
Na20 Sn58 3.567809 1_555
Na20 Sn7 3.575871 1_455
Na20 Na34 3.842274 1_555
Na21 Sn53 3.264512 1_655
Na21 Sn49 3.398256 1_555
Na21 Sn4 3.487691 1_655
Na21 Sn44 3.497710 1_655
Na21 Sn59 3.567809 1_665
Na21 Sn1 3.575871 1_555
Na21 Na35 3.842274 1_655
Na22 Sn54 3.264512 1_655
Na22 Sn50 3.398256 1_555
Na22 Sn0 3.487691 1_655
Na22 Sn40 3.497710 1_655
Na22 Sn63 3.567809 1_656
Na22 Sn2 3.575871 1_555
Na22 Na39 3.842274 1_655
Na23 Sn55 3.264512 1_455
Na23 Sn52 3.398256 1_555
Na23 Sn1 3.487691 1_455
Na23 Sn41 3.497710 1_455
Na23 Sn62 3.567809 1_454
Na23 Sn4 3.575871 1_555
Na23 Na38 3.842274 1_455
Na24 Zn28 3.254879 1_555
Na24 Sn31 3.284512 1_555
Na24 Sn36 3.296433 1_555
Na24 Zn16 3.322404 1_555
Na24 Sn20 3.385782 1_555
Na24 Zn15 3.395791 1_555
Na24 Zn25 3.405159 1_555
Na24 Sn8 3.422215 1_555
Na24 Sn16 3.422454 1_555
Na24 Zn11 3.462147 1_555
Na24 Sn32 3.481022 1_555
Na24 Sn11 3.551289 1_555
Na24 Na32 3.689876 1_555
Na25 Zn29 3.254879 1_555
Na25 Sn30 3.284512 1_555
Na25 Sn37 3.296433 1_555
Na25 Zn17 3.322404 1_555
Na25 Sn21 3.385782 1_555
Na25 Zn14 3.395791 1_555
Na25 Zn23 3.405159 1_555
Na25 Sn9 3.422215 1_555
Na25 Sn17 3.422454 1_555
Na25 Zn10 3.462147 1_555
Na25 Sn33 3.481022 1_555
Na25 Sn13 3.551289 1_555
Na25 Na33 3.689876 1_555
Na26 Zn30 3.254879 1_555
Na26 Sn30 3.284512 1_555
Na26 Sn37 3.296433 1_555
Na26 Zn17 3.322404 1_555
Na26 Sn22 3.385782 1_555
Na26 Zn14 3.395791 1_555
Na26 Zn27 3.405159 1_555
Na26 Sn10 3.422215 1_555
Na26 Sn18 3.422454 1_555
Na26 Zn10 3.462147 1_555
Na26 Sn33 3.481022 1_555
Na26 Sn14 3.551289 1_555
Na26 Na34 3.689876 1_555
Na27 Zn31 3.254879 1_555
Na27 Sn29 3.284512 1_555
Na27 Sn38 3.296433 1_555
Na27 Zn18 3.322403 1_555
Na27 Sn23 3.385782 1_545
Na27 Zn13 3.395791 1_555
Na27 Zn21 3.405159 1_555
Na27 Sn11 3.422215 1_545
Na27 Sn16 3.422454 1_545
Na27 Zn9 3.462147 1_555
Na27 Sn34 3.481022 1_555
Na27 Sn8 3.551289 1_545
Na27 Na35 3.689876 1_545
Na28 Zn32 3.254879 1_555
Na28 Sn31 3.284512 1_555
Na28 Sn36 3.296433 1_555
Na28 Zn16 3.322404 1_555
Na28 Sn24 3.385782 1_555
Na28 Zn15 3.395791 1_555
Na28 Zn26 3.405159 1_555
Na28 Sn12 3.422215 1_555
Na28 Sn19 3.422454 1_555
Na28 Zn11 3.462147 1_555
Na28 Sn32 3.481022 1_555
Na28 Sn15 3.551289 1_555
Na28 Na36 3.689876 1_555
Na29 Zn33 3.254879 1_555
Na29 Sn28 3.284512 1_555
Na29 Sn39 3.296433 1_555
Na29 Zn19 3.322403 1_555
Na29 Sn25 3.385782 1_565
Na29 Zn12 3.395791 1_555
Na29 Zn20 3.405159 1_555
Na29 Sn13 3.422215 1_565
Na29 Sn17 3.422454 1_565
Na29 Zn8 3.462147 1_555
Na29 Sn35 3.481022 1_555
Na29 Sn9 3.551289 1_565
Na29 Na37 3.689876 1_565
Na30 Zn34 3.254879 1_555
Na30 Sn28 3.284512 1_555
Na30 Sn39 3.296433 1_555
Na30 Zn19 3.322403 1_555
Na30 Sn26 3.385782 1_556
Na30 Zn12 3.395791 1_555
Na30 Zn24 3.405159 1_555
Na30 Sn14 3.422215 1_556
Na30 Sn18 3.422454 1_556
Na30 Zn8 3.462147 1_555
Na30 Sn35 3.481022 1_555
Na30 Sn10 3.551289 1_556
Na30 Na38 3.689876 1_556
Na31 Zn35 3.254879 1_555
Na31 Sn29 3.284512 1_555
Na31 Sn38 3.296433 1_555
Na31 Zn18 3.322403 1_555
Na31 Sn27 3.385782 1_554
Na31 Zn13 3.395791 1_555
Na31 Zn22 3.405159 1_555
Na31 Sn15 3.422215 1_554
Na31 Sn19 3.422454 1_554
Na31 Zn9 3.462147 1_555
Na31 Sn34 3.481022 1_555
Na31 Sn12 3.551289 1_554
Na31 Na39 3.689876 1_554
Na32 Sn56 3.291692 1_555
Na32 Sn32 3.355467 1_555
Na32 Sn20 3.370208 1_555
Na32 Sn16 3.538220 1_555
Na32 Zn16 3.570679 1_555
Na32 Zn28 3.574365 1_555
Na32 Zn43 3.597660 1_555
Na32 Sn47 3.618788 1_555
Na32 Na49 3.682043 1_555
Na32 Na57 3.684617 1_555
Na32 Sn8 3.687929 1_555
Na32 Na8 3.745652 1_555
Na33 Sn57 3.291692 1_555
Na33 Sn33 3.355467 1_555
Na33 Sn21 3.370208 1_555
Na33 Sn17 3.538220 1_555
Na33 Zn17 3.570679 1_555
Na33 Zn29 3.574365 1_555
Na33 Zn42 3.597660 1_555
Na33 Sn46 3.618788 1_555
Na33 Na48 3.682043 1_555
Na33 Na56 3.684617 1_555
Na33 Sn9 3.687929 1_555
Na33 Na9 3.745652 1_555
Na34 Sn58 3.291692 1_555
Na34 Sn33 3.355467 1_555
Na34 Sn22 3.370208 1_555
Na34 Sn18 3.538220 1_555
Na34 Zn17 3.570679 1_555
Na34 Zn30 3.574365 1_555
Na34 Zn41 3.597660 1_555
Na34 Sn45 3.618788 1_555
Na34 Na51 3.682043 1_555
Na34 Na60 3.684617 1_555
Na34 Sn10 3.687929 1_555
Na34 Na4 3.721864 1_555
Na34 Na9 3.745652 1_555
Na35 Sn59 3.291692 1_565
Na35 Sn34 3.355467 1_565
Na35 Sn23 3.370208 1_555
Na35 Sn16 3.538220 1_555
Na35 Zn18 3.570679 1_565
Na35 Zn31 3.574365 1_565
Na35 Zn40 3.597660 1_555
Na35 Sn44 3.618788 1_555
Na35 Na51 3.682043 1_555
Na35 Na61 3.684617 1_555
Na35 Sn11 3.687929 1_555
Na35 Na5 3.721864 1_555
Na36 Sn60 3.291692 1_555
Na36 Sn32 3.355467 1_555
Na36 Sn24 3.370208 1_555
Na36 Sn19 3.538220 1_555
Na36 Zn16 3.570679 1_555
Na36 Zn32 3.574365 1_555
Na36 Zn39 3.597660 1_555
Na36 Sn43 3.618788 1_555
Na36 Na50 3.682043 1_555
Na36 Na58 3.684617 1_555
Na36 Sn12 3.687929 1_555
Na36 Na8 3.745652 1_555
Na37 Sn61 3.291692 1_545
Na37 Sn35 3.355467 1_545
Na37 Sn25 3.370208 1_555
Na37 Sn17 3.538220 1_555
Na37 Zn19 3.570679 1_545
Na37 Zn33 3.574365 1_545
Na37 Zn38 3.597660 1_555
Na37 Sn42 3.618788 1_555
Na37 Na50 3.682043 1_555
Na37 Na59 3.684617 1_555
Na37 Sn13 3.687929 1_555
Na38 Sn62 3.291692 1_554
Na38 Sn35 3.355467 1_554
Na38 Sn26 3.370208 1_555
Na38 Sn18 3.538220 1_555
Na38 Zn19 3.570679 1_554
Na38 Zn34 3.574365 1_554
Na38 Zn37 3.597660 1_555
Na38 Sn41 3.618788 1_555
Na38 Na49 3.682043 1_555
Na38 Na63 3.684617 1_555
Na38 Sn14 3.687929 1_555
Na38 Na7 3.721864 1_555
Na39 Sn63 3.291692 1_556
Na39 Sn34 3.355467 1_556
Na39 Sn27 3.370208 1_555
Na39 Sn19 3.538220 1_555
Na39 Zn18 3.570679 1_556
Na39 Zn35 3.574365 1_556
Na39 Zn36 3.597660 1_555
Na39 Sn40 3.618788 1_555
Na39 Na48 3.682043 1_555
Na39 Na62 3.684617 1_555
Na39 Sn15 3.687929 1_555
Na39 Na6 3.721864 1_555
Na40 Sn61 3.350545 1_455
Na40 Zn15 3.379478 1_555
Na40 Sn36 3.390215 1_555
Na40 Sn8 3.401153 1_555
Na40 Zn25 3.409299 1_555
Na40 Sn48 3.414188 1_565
Na40 Zn28 3.427178 1_555
Na40 Zn0 3.445372 1_555
Na40 Sn11 3.477372 1_555
Na41 Sn59 3.350545 1_655
Na41 Zn14 3.379478 1_555
Na41 Sn37 3.390215 1_555
Na41 Sn9 3.401153 1_555
Na41 Zn23 3.409299 1_555
Na41 Sn49 3.414188 1_545
Na41 Zn29 3.427178 1_555
Na41 Zn1 3.445372 1_555
Na41 Sn13 3.477372 1_555
Na42 Sn63 3.350545 1_655
Na42 Zn14 3.379478 1_555
Na42 Sn37 3.390215 1_555
Na42 Sn10 3.401153 1_555
Na42 Zn27 3.409299 1_555
Na42 Sn50 3.414188 1_554
Na42 Zn30 3.427178 1_555
Na42 Zn2 3.445372 1_555
Na42 Sn14 3.477372 1_555
Na43 Sn57 3.350545 1_555
Na43 Zn13 3.379478 1_555
Na43 Sn38 3.390215 1_555
Na43 Sn11 3.401153 1_545
Na43 Zn21 3.409299 1_555
Na43 Sn51 3.414188 1_455
Na43 Zn31 3.427178 1_555
Na43 Zn3 3.445372 1_455
Na43 Sn8 3.477372 1_545
Na44 Sn62 3.350545 1_455
Na44 Zn15 3.379478 1_555
Na44 Sn36 3.390215 1_555
Na44 Sn12 3.401153 1_555
Na44 Zn26 3.409299 1_555
Na44 Sn52 3.414188 1_556
Na44 Zn32 3.427178 1_555
Na44 Zn4 3.445372 1_555
Na44 Sn15 3.477372 1_555
Na45 Sn56 3.350545 1_555
Na45 Zn12 3.379478 1_555
Na45 Sn39 3.390215 1_555
Na45 Sn13 3.401153 1_565
Na45 Zn20 3.409299 1_555
Na45 Sn53 3.414188 1_655
Na45 Zn33 3.427178 1_555
Na45 Zn5 3.445372 1_655
Na45 Sn9 3.477372 1_565
Na46 Sn60 3.350545 1_555
Na46 Zn12 3.379478 1_555
Na46 Sn39 3.390215 1_555
Na46 Sn14 3.401153 1_556
Na46 Zn24 3.409299 1_555
Na46 Sn54 3.414188 1_655
Na46 Zn34 3.427178 1_555
Na46 Zn6 3.445372 1_655
Na46 Sn10 3.477372 1_556
Na47 Sn58 3.350545 1_555
Na47 Zn13 3.379478 1_555
Na47 Sn38 3.390215 1_555
Na47 Sn15 3.401153 1_554
Na47 Zn22 3.409299 1_555
Na47 Sn55 3.414188 1_455
Na47 Zn35 3.427178 1_555
Na47 Zn7 3.445372 1_455
Na47 Sn12 3.477372 1_554
Na48 Sn40 3.194694 1_555
Na48 Sn46 3.194695 1_555
Na48 Sn21 3.332055 1_555
Na48 Sn27 3.332056 1_555
Na48 Sn25 3.407583 1_555
Na48 Sn24 3.407583 1_555
Na48 Zn36 3.515590 1_555
Na48 Zn42 3.515590 1_555
Na48 Sn19 3.586870 1_555
Na48 Sn17 3.586870 1_555
Na49 Sn41 3.194694 1_555
Na49 Sn47 3.194695 1_555
Na49 Sn20 3.332055 1_555
Na49 Sn26 3.332056 1_555
Na49 Sn23 3.407583 1_555
Na49 Sn22 3.407583 1_555
Na49 Zn37 3.515590 1_555
Na49 Zn43 3.515590 1_555
Na49 Sn16 3.586870 1_555
Na49 Sn18 3.586870 1_555
Na50 Sn42 3.194694 1_555
Na50 Sn43 3.194695 1_555
Na50 Sn24 3.332055 1_555
Na50 Sn25 3.332056 1_555
Na50 Sn27 3.407583 1_555
Na50 Sn21 3.407583 1_555
Na50 Zn38 3.515590 1_555
Na50 Zn39 3.515590 1_555
Na50 Sn19 3.586870 1_555
Na50 Sn17 3.586870 1_555
Na51 Sn44 3.194694 1_555
Na51 Sn45 3.194695 1_555
Na51 Sn22 3.332055 1_555
Na51 Sn23 3.332056 1_555
Na51 Sn26 3.407583 1_555
Na51 Sn20 3.407583 1_555
Na51 Zn40 3.515590 1_555
Na51 Zn41 3.515590 1_555
Na51 Sn16 3.586870 1_555
Na51 Sn18 3.586870 1_555
Na52 Zn8 3.101786 1_555
Na52 Sn0 3.185504 1_565
Na52 Sn4 3.185504 1_556
Na52 Zn40 3.201228 1_556
Na52 Zn36 3.201228 1_565
Na52 Sn28 3.204511 1_555
Na52 Zn0 3.303296 1_555
Na52 Zn4 3.303296 1_555
Na52 Sn48 3.572523 1_565
Na52 Sn52 3.572523 1_556
Na53 Zn9 3.101786 1_555
Na53 Sn1 3.185504 1_545
Na53 Sn2 3.185504 1_554
Na53 Zn38 3.201228 1_554
Na53 Zn37 3.201228 1_545
Na53 Sn29 3.204511 1_555
Na53 Zn1 3.303296 1_555
Na53 Zn2 3.303296 1_555
Na53 Sn49 3.572523 1_545
Na53 Sn50 3.572523 1_554
Na54 Zn10 3.101786 1_555
Na54 Sn3 3.185504 1_555
Na54 Sn7 3.185504 1_555
Na54 Zn43 3.201228 1_555
Na54 Zn39 3.201228 1_555
Na54 Sn30 3.204511 1_555
Na54 Zn3 3.303296 1_555
Na54 Zn7 3.303296 1_555
Na54 Sn51 3.572523 1_555
Na54 Sn55 3.572523 1_555
Na55 Zn11 3.101786 1_555
Na55 Sn5 3.185504 1_555
Na55 Sn6 3.185504 1_555
Na55 Zn41 3.201228 1_555
Na55 Zn42 3.201228 1_555
Na55 Sn31 3.204511 1_555
Na55 Zn5 3.303296 1_555
Na55 Zn6 3.303296 1_555
Na55 Sn53 3.572523 1_555
Na55 Sn54 3.572523 1_555
Na56 Sn48 3.191546 1_555
Na56 Sn8 3.243806 1_545
Na56 Zn28 3.259801 1_545
Na56 Zn0 3.280056 1_545
Na56 Zn21 3.301626 1_555
Na56 Zn20 3.309148 1_545
Na56 Zn29 3.310767 1_555
Na56 Sn9 3.325448 1_555
Na56 Sn57 3.397268 1_555
Na57 Sn49 3.191546 1_555
Na57 Sn9 3.243806 1_565
Na57 Zn29 3.259801 1_565
Na57 Zn1 3.280056 1_565
Na57 Zn20 3.301626 1_555
Na57 Zn21 3.309148 1_565
Na57 Zn28 3.310767 1_555
Na57 Sn8 3.325448 1_555
Na57 Sn56 3.397268 1_555
Na58 Sn50 3.191546 1_555
Na58 Sn10 3.243806 1_556
Na58 Zn30 3.259801 1_556
Na58 Zn2 3.280056 1_556
Na58 Zn24 3.301626 1_555
Na58 Zn22 3.309148 1_556
Na58 Zn32 3.310767 1_555
Na58 Sn12 3.325448 1_555
Na58 Sn60 3.397268 1_555
Na59 Sn51 3.191545 1_555
Na59 Sn11 3.243806 1_645
Na59 Zn31 3.259801 1_655
Na59 Zn3 3.280056 1_555
Na59 Zn25 3.301626 1_645
Na59 Zn23 3.309148 1_555
Na59 Zn33 3.310767 1_545
Na59 Sn13 3.325448 1_555
Na59 Sn61 3.397268 1_545
Na60 Sn52 3.191546 1_555
Na60 Sn12 3.243806 1_554
Na60 Zn32 3.259801 1_554
Na60 Zn4 3.280056 1_554
Na60 Zn22 3.301626 1_555
Na60 Zn24 3.309148 1_554
Na60 Zn30 3.310767 1_555
Na60 Sn10 3.325448 1_555
Na60 Sn58 3.397268 1_555
Na61 Sn53 3.191545 1_555
Na61 Sn13 3.243806 1_465
Na61 Zn33 3.259801 1_455
Na61 Zn5 3.280056 1_555
Na61 Zn23 3.301626 1_465
Na61 Zn25 3.309148 1_555
Na61 Zn31 3.310767 1_565
Na61 Sn11 3.325448 1_555
Na61 Sn59 3.397268 1_565
Na62 Sn54 3.191545 1_555
Na62 Sn14 3.243806 1_456
Na62 Zn34 3.259801 1_455
Na62 Zn6 3.280056 1_555
Na62 Zn27 3.301626 1_456
Na62 Zn26 3.309148 1_555
Na62 Zn35 3.310767 1_556
Na62 Sn15 3.325448 1_555
Na62 Sn63 3.397268 1_556
Na63 Sn55 3.191545 1_555
Na63 Sn15 3.243806 1_654
Na63 Zn35 3.259801 1_655
Na63 Zn7 3.280056 1_555
Na63 Zn26 3.301626 1_654
Na63 Zn27 3.309148 1_555
Na63 Zn34 3.310767 1_554
Na63 Sn14 3.325448 1_555
Na63 Sn62 3.397268 1_554
Zn0 Zn20 2.692150 1_555
Zn0 Zn28 2.718182 1_555
Zn0 Zn4 2.970565 1_555
Zn1 Zn21 2.692150 1_555
Zn1 Zn29 2.718182 1_555
Zn1 Zn2 2.970565 1_555
Zn2 Zn22 2.692150 1_555
Zn2 Zn30 2.718182 1_555
Zn3 Zn31 2.718182 1_655
Zn3 Zn7 2.970565 1_555
Zn5 Zn6 2.970565 1_555
Zn10 Zn43 2.731174 1_555
Zn10 Zn39 2.731174 1_555
Zn11 Zn42 2.731174 1_555
Zn11 Zn41 2.731174 1_555
Zn12 Zn24 2.876417 1_555
Zn12 Zn20 2.876417 1_555
Zn13 Zn22 2.876417 1_555
Zn13 Zn21 2.876417 1_555
Zn14 Zn23 2.876417 1_555
Zn14 Zn27 2.876417 1_555
Zn15 Zn26 2.876417 1_555
Zn15 Zn25 2.876417 1_555
Zn16 Zn32 2.819797 1_555
Zn16 Zn28 2.819797 1_555
Zn17 Zn29 2.819797 1_555
Zn17 Zn30 2.819797 1_555
Zn18 Zn35 2.819797 1_555
Zn18 Zn31 2.819797 1_555
Zn19 Zn33 2.819797 1_555
Zn19 Zn34 2.819797 1_555
Zn20 Zn28 2.626940 1_555
Zn21 Zn29 2.626940 1_555
Zn22 Zn30 2.626940 1_555
Zn23 Zn31 2.626940 1_655
Zn23 Zn3 2.692150 1_555
Zn24 Zn32 2.626940 1_555
Zn24 Zn4 2.692150 1_555
Zn25 Zn33 2.626940 1_455
Zn25 Zn5 2.692150 1_555
Zn26 Zn34 2.626940 1_455
Zn26 Zn6 2.692150 1_555
Zn27 Zn35 2.626940 1_655
Zn27 Zn7 2.692150 1_555
Zn32 Zn4 2.718182 1_555
Zn33 Zn5 2.718182 1_655
Zn34 Zn6 2.718182 1_655
Zn35 Zn7 2.718182 1_455
Zn36 Zn40 2.711990 1_546
Zn36 Zn8 2.731173 1_545
Zn37 Zn38 2.711990 1_564
Zn37 Zn9 2.731173 1_565
Zn38 Zn9 2.731173 1_556
Zn39 Zn43 2.711990 1_555
Zn40 Zn8 2.731173 1_554
Zn41 Zn42 2.711990 1_555
Sn0 Sn2 2.888830 1_455
Sn0 Sn40 2.908068 1_555
Sn0 Sn48 2.975279 1_555
Sn0 Sn4 3.042733 1_546
Sn1 Sn4 2.888830 1_655
Sn1 Sn41 2.908068 1_555
Sn1 Sn49 2.975279 1_555
Sn1 Sn2 3.042733 1_564
Sn2 Sn42 2.908068 1_555
Sn2 Sn50 2.975279 1_555
Sn3 Sn6 2.888829 1_655
Sn3 Sn43 2.908068 1_555
Sn3 Sn51 2.975279 1_555
Sn3 Sn7 3.042733 1_555
Sn4 Sn44 2.908068 1_555
Sn4 Sn52 2.975279 1_555
Sn5 Sn7 2.888829 1_455
Sn5 Sn53 2.975279 1_555
Sn5 Sn6 3.042733 1_555
Sn8 Zn21 2.836136 1_565
Sn8 Zn28 2.895599 1_555
Sn9 Zn20 2.836136 1_545
Sn9 Zn29 2.895599 1_555
Sn10 Zn24 2.836136 1_554
Sn10 Zn30 2.895599 1_555
Sn10 Sn18 3.072059 1_555
Sn10 Sn14 3.133875 1_555
Sn11 Zn25 2.836136 1_555
Sn11 Zn31 2.895599 1_565
Sn11 Sn16 3.072059 1_555
Sn11 Sn8 3.133875 1_555
Sn12 Zn22 2.836136 1_556
Sn12 Zn32 2.895599 1_555
Sn12 Sn19 3.072059 1_555
Sn12 Sn15 3.133875 1_555
Sn13 Zn23 2.836136 1_555
Sn13 Zn33 2.895599 1_545
Sn13 Sn17 3.072059 1_555
Sn13 Sn9 3.133875 1_555
Sn14 Zn27 2.836136 1_555
Sn14 Zn34 2.895599 1_554
Sn14 Sn18 3.072059 1_555
Sn15 Zn26 2.836136 1_555
Sn15 Zn35 2.895599 1_556
Sn15 Sn19 3.072059 1_555
Sn16 Sn23 2.985051 1_555
Sn16 Sn20 2.985051 1_555
Sn16 Sn8 3.072059 1_555
Sn17 Sn25 2.985051 1_555
Sn17 Sn21 2.985051 1_555
Sn17 Sn9 3.072059 1_555
Sn18 Sn26 2.985051 1_555
Sn18 Sn22 2.985051 1_555
Sn19 Sn27 2.985051 1_555
Sn19 Sn24 2.985051 1_555
Sn20 Zn11 2.846277 1_555
Sn20 Sn32 2.943734 1_555
Sn20 Zn41 2.956342 1_555
Sn20 Sn22 3.018054 1_555
Sn20 Zn43 3.035419 1_555
Sn21 Zn10 2.846277 1_555
Sn21 Sn33 2.943734 1_555
Sn21 Zn39 2.956342 1_555
Sn21 Sn24 3.018054 1_555
Sn21 Zn42 3.035419 1_555
Sn22 Zn10 2.846277 1_555
Sn22 Sn33 2.943734 1_555
Sn22 Zn43 2.956342 1_555
Sn22 Zn41 3.035419 1_555
Sn23 Zn9 2.846277 1_565
Sn23 Sn34 2.943734 1_565
Sn23 Zn37 2.956342 1_555
Sn23 Sn26 3.018054 1_555
Sn23 Zn40 3.035419 1_555
Sn24 Zn11 2.846277 1_555
Sn24 Sn32 2.943734 1_555
Sn24 Zn42 2.956342 1_555
Sn24 Zn39 3.035419 1_555
Sn25 Zn8 2.846277 1_545
Sn25 Sn35 2.943734 1_545
Sn25 Zn36 2.956342 1_555
Sn25 Sn27 3.018054 1_555
Sn25 Zn38 3.035419 1_555
Sn26 Zn8 2.846277 1_554
Sn26 Sn35 2.943734 1_554
Sn26 Zn40 2.956342 1_555
Sn26 Zn37 3.035419 1_555
Sn27 Zn9 2.846277 1_556
Sn27 Sn34 2.943734 1_556
Sn27 Zn38 2.956342 1_555
Sn27 Zn36 3.035419 1_555
Sn28 Zn12 2.772051 1_555
Sn28 Zn8 2.776044 1_555
Sn28 Zn0 2.816207 1_555
Sn28 Zn4 2.816207 1_555
Sn28 Zn20 2.887272 1_555
Sn28 Zn24 2.887272 1_555
Sn29 Zn13 2.772051 1_555
Sn29 Zn9 2.776044 1_555
Sn29 Zn1 2.816207 1_555
Sn29 Zn2 2.816207 1_555
Sn29 Zn21 2.887272 1_555
Sn29 Zn22 2.887272 1_555
Sn30 Zn14 2.772051 1_555
Sn30 Zn10 2.776043 1_555
Sn30 Zn7 2.816207 1_555
Sn30 Zn3 2.816207 1_555
Sn30 Zn23 2.887272 1_555
Sn30 Zn27 2.887272 1_555
Sn31 Zn15 2.772051 1_555
Sn31 Zn11 2.776043 1_555
Sn31 Zn6 2.816207 1_555
Sn31 Zn5 2.816207 1_555
Sn31 Zn26 2.887272 1_555
Sn31 Zn25 2.887272 1_555
Sn32 Zn16 2.772433 1_555
Sn32 Zn39 2.962862 1_555
Sn32 Zn43 2.962862 1_555
Sn32 Zn11 3.065970 1_555
Sn33 Zn17 2.772433 1_555
Sn33 Zn42 2.962862 1_555
Sn33 Zn41 2.962862 1_555
Sn33 Zn10 3.065970 1_555
Sn34 Zn18 2.772433 1_555
Sn34 Zn36 2.962862 1_554
Sn34 Zn40 2.962862 1_545
Sn34 Zn9 3.065970 1_555
Sn35 Zn19 2.772433 1_555
Sn35 Zn37 2.962862 1_556
Sn35 Zn38 2.962862 1_565
Sn35 Zn8 3.065970 1_555
Sn36 Zn16 2.792696 1_555
Sn36 Zn0 2.820893 1_555
Sn36 Zn4 2.820893 1_555
Sn36 Zn15 2.841260 1_555
Sn36 Zn28 2.855692 1_555
Sn36 Zn32 2.855692 1_555
Sn37 Zn17 2.792696 1_555
Sn37 Zn1 2.820893 1_555
Sn37 Zn2 2.820893 1_555
Sn37 Zn14 2.841260 1_555
Sn37 Zn30 2.855692 1_555
Sn37 Zn29 2.855692 1_555
Sn38 Zn18 2.792696 1_555
Sn38 Zn3 2.820893 1_455
Sn38 Zn7 2.820893 1_455
Sn38 Zn13 2.841260 1_555
Sn38 Zn31 2.855692 1_555
Sn38 Zn35 2.855692 1_555
Sn39 Zn19 2.792696 1_555
Sn39 Zn5 2.820893 1_655
Sn39 Zn6 2.820893 1_655
Sn39 Zn12 2.841260 1_555
Sn39 Zn34 2.855692 1_555
Sn39 Zn33 2.855692 1_555
Sn40 Zn36 2.846756 1_555
Sn40 Sn46 3.127362 1_555
Sn40 Sn48 3.162221 1_555
Sn41 Zn37 2.846756 1_555
Sn41 Sn47 3.127362 1_555
Sn41 Sn49 3.162221 1_555
Sn42 Zn38 2.846756 1_555
Sn42 Sn43 3.127362 1_555
Sn42 Sn50 3.162221 1_555
Sn43 Zn39 2.846756 1_555
Sn43 Sn51 3.162221 1_555
Sn44 Zn40 2.846756 1_555
Sn44 Sn45 3.127362 1_555
Sn44 Sn52 3.162221 1_555
Sn45 Zn41 2.846756 1_555
Sn45 Sn5 2.908068 1_555
Sn45 Sn53 3.162221 1_555
Sn46 Zn42 2.846756 1_555
Sn46 Sn6 2.908068 1_555
Sn46 Sn54 3.162221 1_555
Sn47 Zn43 2.846756 1_555
Sn47 Sn7 2.908068 1_555
Sn47 Sn55 3.162221 1_555
Sn48 Zn0 2.805809 1_545
Sn49 Zn1 2.805809 1_565
Sn50 Zn2 2.805809 1_556
Sn51 Zn3 2.805809 1_555
Sn52 Zn4 2.805809 1_554
Sn53 Zn5 2.805809 1_555
Sn54 Zn6 2.805809 1_555
Sn54 Sn6 2.975279 1_555
Sn55 Zn7 2.805809 1_555
Sn55 Sn7 2.975279 1_555
Sn56 Zn16 2.844826 1_555
Sn56 Zn12 2.911320 1_555
Sn56 Zn20 2.920356 1_555
Sn56 Zn28 2.939799 1_555
Sn56 Sn60 3.108645 1_555
Sn57 Zn17 2.844826 1_555
Sn57 Zn13 2.911320 1_555
Sn57 Zn21 2.920356 1_555
Sn57 Zn29 2.939799 1_555
Sn57 Sn58 3.108645 1_555
Sn58 Zn17 2.844826 1_555
Sn58 Zn13 2.911320 1_555
Sn58 Zn22 2.920356 1_555
Sn58 Zn30 2.939799 1_555
Sn59 Zn18 2.844826 1_555
Sn59 Zn14 2.911320 1_455
Sn59 Zn23 2.920356 1_455
Sn59 Zn31 2.939799 1_555
Sn59 Sn63 3.108645 1_555
Sn60 Zn16 2.844826 1_555
Sn60 Zn12 2.911320 1_555
Sn60 Zn24 2.920356 1_555
Sn60 Zn32 2.939799 1_555
Sn61 Zn19 2.844826 1_555
Sn61 Zn15 2.911320 1_655
Sn61 Zn25 2.920356 1_655
Sn61 Zn33 2.939799 1_555
Sn61 Sn62 3.108645 1_555
Sn62 Zn19 2.844826 1_555
Sn62 Zn15 2.911320 1_655
Sn62 Zn26 2.920356 1_655
Sn62 Zn34 2.939799 1_555
Sn63 Zn18 2.844826 1_555
Sn63 Zn14 2.911320 1_455
Sn63 Zn27 2.920356 1_455
Sn63 Zn35 2.939799 1_555
