# generated using pymatgen
data_Pa3Sb4
_symmetry_space_group_name_H-M   'P 1'
_cell_length_a   8.00743695
_cell_length_b   8.00722231
_cell_length_c   8.04951176
_cell_angle_alpha   109.57782050
_cell_angle_beta   109.57790518
_cell_angle_gamma   109.36365288
_symmetry_Int_Tables_number   1
_chemical_formula_structural   Pa3Sb4
_chemical_formula_sum   'Pa6 Sb8'
_cell_volume   396.78352594
_cell_formula_units_Z   2
loop_
 _symmetry_equiv_pos_site_id
 _symmetry_equiv_pos_as_xyz
  1  'x, y, z'
loop_
 _atom_site_type_symbol
 _atom_site_label
 _atom_site_symmetry_multiplicity
 _atom_site_fract_x
 _atom_site_fract_y
 _atom_site_fract_z
 _atom_site_occupancy
  Pa  Pa0  1  0.74864206  0.87603491  0.12530653  1
  Pa  Pa1  1  0.62397064  0.37260661  0.24927301  1
  Pa  Pa2  1  0.87259925  0.12396212  0.74928460  1
  Pa  Pa3  1  0.12740075  0.75136287  0.87668535  1
  Pa  Pa4  1  0.37602936  0.24863497  0.62530237  1
  Pa  Pa5  1  0.25135894  0.62739385  0.37666448  1
  Sb  Sb0  1  0.65845112  0.65765611  0.65746801  1
  Sb  Sb1  1  0.34154888  0.49920499  -0.00098211  1
  Sb  Sb2  1  0.50001546  0.00000535  0.34242838  1
  Sb  Sb3  1  0.00077839  0.34236040  0.49983179  1
  Sb  Sb4  1  0.49998454  -0.00001211  0.84241292  1
  Sb  Sb5  1  -0.00077839  0.84158201  0.49905340  1
  Sb  Sb6  1  0.15764425  0.15842559  0.15745875  1
  Sb  Sb7  1  0.84235575  0.50078133  -0.00018550  1
loop_
_geom_bond_atom_site_label_1
_geom_bond_atom_site_label_2
_geom_bond_distance
_geom_bond_site_symmetry_2
Pa0 Sb4 3.149853 1_564
Pa0 Sb1 3.156753 1_555
Pa0 Sb5 3.167151 1_655
Pa0 Sb6 3.167787 1_665
Pa0 Sb2 3.237766 1_565
Pa0 Sb3 3.238062 1_665
Pa0 Sb7 3.252851 1_555
Pa0 Sb0 3.269215 1_554
Pa1 Sb4 3.149858 1_554
Pa1 Sb3 3.156570 1_655
Pa1 Sb0 3.167048 1_555
Pa1 Sb1 3.167878 1_555
Pa1 Sb2 3.237766 1_555
Pa1 Sb6 3.238091 1_555
Pa1 Sb5 3.252932 1_655
Pa1 Sb7 3.269211 1_555
Pa2 Sb2 3.149828 1_555
Pa2 Sb7 3.156492 1_556
Pa2 Sb6 3.166996 1_656
Pa2 Sb5 3.167713 1_645
Pa2 Sb4 3.237805 1_555
Pa2 Sb0 3.237832 1_545
Pa2 Sb1 3.252845 1_656
Pa2 Sb3 3.269228 1_655
Pa3 Sb4 3.149822 1_565
Pa3 Sb6 3.156492 1_566
Pa3 Sb7 3.166996 1_456
Pa3 Sb3 3.167713 1_555
Pa3 Sb2 3.237804 1_566
Pa3 Sb1 3.237835 1_556
Pa3 Sb0 3.252845 1_455
Pa3 Sb5 3.269228 1_555
Pa4 Sb2 3.149846 1_555
Pa4 Sb5 3.156565 1_545
Pa4 Sb1 3.167056 1_556
Pa4 Sb0 3.167888 1_555
Pa4 Sb4 3.237773 1_555
Pa4 Sb7 3.238090 1_556
Pa4 Sb3 3.252937 1_555
Pa4 Sb6 3.269214 1_555
Pa5 Sb2 3.149857 1_565
Pa5 Sb0 3.156748 1_555
Pa5 Sb3 3.167160 1_555
Pa5 Sb7 3.167789 1_455
Pa5 Sb4 3.237759 1_565
Pa5 Sb5 3.238063 1_555
Pa5 Sb6 3.252856 1_555
Pa5 Sb1 3.269203 1_555
