# generated using pymatgen
data_Er10Mn13C18
_symmetry_space_group_name_H-M   'P 1'
_cell_length_a   8.67463526
_cell_length_b   8.67463526
_cell_length_c   8.67463526
_cell_angle_alpha   109.47122063
_cell_angle_beta   109.47122063
_cell_angle_gamma   109.47122063
_symmetry_Int_Tables_number   1
_chemical_formula_structural   Er10Mn13C18
_chemical_formula_sum   'Er10 Mn13 C18'
_cell_volume   502.49503868
_cell_formula_units_Z   1
loop_
 _symmetry_equiv_pos_site_id
 _symmetry_equiv_pos_as_xyz
  1  'x, y, z'
loop_
 _atom_site_type_symbol
 _atom_site_label
 _atom_site_symmetry_multiplicity
 _atom_site_fract_x
 _atom_site_fract_y
 _atom_site_fract_z
 _atom_site_occupancy
  Er  Er0  1  0.50000000  0.75000000  0.25000000  1
  Er  Er1  1  0.75000000  0.50000000  0.25000000  1
  Er  Er2  1  0.25000000  0.75000000  0.50000000  1
  Er  Er3  1  0.25000000  0.50000000  0.75000000  1
  Er  Er4  1  0.50000000  0.25000000  0.75000000  1
  Er  Er5  1  0.75000000  0.25000000  0.50000000  1
  Er  Er6  1  0.40969700  0.00000000  0.00000000  1
  Er  Er7  1  0.00000000  0.40969700  0.00000000  1
  Er  Er8  1  0.00000000  0.00000000  0.40969700  1
  Er  Er9  1  0.59030300  0.59030300  0.59030300  1
  Mn  Mn0  1  0.00000000  0.00000000  0.00000000  1
  Mn  Mn1  1  0.66590600  0.81909100  0.00000000  1
  Mn  Mn2  1  0.84681500  0.18090900  0.18090900  1
  Mn  Mn3  1  0.66590600  0.00000000  0.81909100  1
  Mn  Mn4  1  0.81909100  0.66590600  0.00000000  1
  Mn  Mn5  1  0.00000000  0.66590600  0.81909100  1
  Mn  Mn6  1  0.18090900  0.84681500  0.18090900  1
  Mn  Mn7  1  0.18090900  0.18090900  0.84681500  1
  Mn  Mn8  1  0.00000000  0.81909100  0.66590600  1
  Mn  Mn9  1  0.81909100  0.00000000  0.66590600  1
  Mn  Mn10  1  0.33409400  0.33409400  0.15318500  1
  Mn  Mn11  1  0.15318500  0.33409400  0.33409400  1
  Mn  Mn12  1  0.33409400  0.15318500  0.33409400  1
  C  C0  1  0.70319400  0.22027700  0.00000000  1
  C  C1  1  0.48291700  0.77972300  0.77972300  1
  C  C2  1  0.70319400  0.00000000  0.22027700  1
  C  C3  1  0.22027700  0.70319400  0.00000000  1
  C  C4  1  0.00000000  0.70319400  0.22027700  1
  C  C5  1  0.77972300  0.48291700  0.77972300  1
  C  C6  1  0.77972300  0.77972300  0.48291700  1
  C  C7  1  0.00000000  0.22027700  0.70319400  1
  C  C8  1  0.22027700  0.00000000  0.70319400  1
  C  C9  1  0.29680600  0.29680600  0.51708300  1
  C  C10  1  0.51708300  0.29680600  0.29680600  1
  C  C11  1  0.29680600  0.51708300  0.29680600  1
  C  C12  1  0.56912400  0.56912400  0.00000000  1
  C  C13  1  0.00000000  0.43087600  0.43087600  1
  C  C14  1  0.56912400  0.00000000  0.56912400  1
  C  C15  1  0.00000000  0.56912400  0.56912400  1
  C  C16  1  0.43087600  0.00000000  0.43087600  1
  C  C17  1  0.43087600  0.43087600  0.00000000  1
loop_
_geom_bond_atom_site_label_1
_geom_bond_atom_site_label_2
_geom_bond_distance
_geom_bond_site_symmetry_2
Er6 Mn0 3.553972 1_555
Er7 Mn0 3.553972 1_555
Er8 Mn0 3.553972 1_555
Er9 Mn0 3.553972 1_666
Mn0 Mn2 2.798200 1_455
Mn0 Mn11 2.798200 1_555
Mn0 Mn8 2.798200 1_544
Mn0 Mn12 2.798200 1_555
Mn0 Mn7 2.798200 1_554
Mn0 Mn6 2.798200 1_545
Mn0 Mn10 2.798200 1_555
Mn0 Mn4 2.798200 1_445
Mn0 Mn9 2.798200 1_454
Mn0 Mn1 2.798200 1_445
Mn0 Mn3 2.798200 1_454
Mn0 Mn5 2.798200 1_544
C0 Mn3 1.862538 1_554
C0 Mn2 1.862538 1_555
C0 Er1 2.450270 1_555
C0 Er4 2.450270 1_554
C0 Er7 2.551185 1_655
C0 Er6 2.624877 1_555
C1 Mn3 1.862538 1_565
C1 Mn1 1.862538 1_556
C1 Er3 2.450270 1_555
C1 Er2 2.450270 1_555
C1 Er9 2.551185 1_555
C1 Er6 2.624877 1_566
C2 Mn1 1.862538 1_545
C2 Mn2 1.862538 1_555
C2 Er0 2.450270 1_545
C2 Er5 2.450270 1_555
C2 Er8 2.551185 1_655
C2 Er6 2.624877 1_555
C3 Mn5 1.862538 1_554
C3 Mn6 1.862538 1_555
C3 Er0 2.450270 1_555
C3 Er3 2.450270 1_554
C3 Er6 2.551185 1_565
C3 Er7 2.624877 1_555
C4 Mn4 1.862538 1_455
C4 Mn6 1.862538 1_555
C4 Er1 2.450270 1_455
C4 Er2 2.450270 1_555
C4 Er8 2.551185 1_565
C4 Er7 2.624877 1_555
C5 Mn5 1.862538 1_655
C5 Mn4 1.862538 1_556
C5 Er4 2.450270 1_555
C5 Er5 2.450270 1_555
C5 Er9 2.551185 1_555
C5 Er7 2.624877 1_656
C6 Mn8 1.862538 1_655
C6 Mn9 1.862538 1_565
C6 Er1 2.450270 1_555
C6 Er0 2.450270 1_555
C6 Er9 2.551185 1_555
C6 Er8 2.624877 1_665
C7 Mn9 1.862538 1_455
C7 Mn7 1.862538 1_555
C7 Er5 2.450270 1_455
C7 Er3 2.450270 1_555
C7 Er7 2.551185 1_556
C7 Er8 2.624877 1_555
C8 Mn8 1.862538 1_545
C8 Mn7 1.862538 1_555
C8 Er4 2.450270 1_555
C8 Er2 2.450270 1_545
C8 Er6 2.551185 1_556
C8 Er8 2.624877 1_555
C9 Mn12 1.862538 1_555
C9 Mn11 1.862538 1_555
C9 Er3 2.450270 1_555
C9 Er4 2.450270 1_555
C9 Er8 2.551185 1_555
C9 Er9 2.624877 1_555
C10 Mn12 1.862538 1_555
C10 Mn10 1.862538 1_555
C10 Er5 2.450270 1_555
C10 Er1 2.450270 1_555
C10 Er6 2.551185 1_555
C10 Er9 2.624877 1_555
C11 Mn10 1.862538 1_555
C11 Mn11 1.862538 1_555
C11 Er2 2.450270 1_555
C11 Er0 2.450270 1_555
C11 Er7 2.551185 1_555
C11 Er9 2.624877 1_555
C12 C17 1.384776 1_555
C12 Mn4 2.047693 1_555
C12 Mn1 2.047693 1_555
C12 Er1 2.598110 1_555
C12 Er0 2.598110 1_555
C12 Er3 2.598110 1_554
C12 Er4 2.598110 1_554
C13 C15 1.384776 1_555
C13 Mn2 2.047693 1_455
C13 Mn11 2.047693 1_555
C13 Er1 2.598110 1_455
C13 Er2 2.598110 1_555
C13 Er3 2.598110 1_555
C13 Er5 2.598110 1_455
C14 C16 1.384776 1_555
C14 Mn3 2.047693 1_555
C14 Mn9 2.047693 1_555
C14 Er0 2.598110 1_545
C14 Er5 2.598110 1_555
C14 Er4 2.598110 1_555
C14 Er2 2.598110 1_545
C15 Mn8 2.047693 1_555
C15 Mn5 2.047693 1_555
C15 Er5 2.598110 1_455
C15 Er1 2.598110 1_455
C15 Er2 2.598110 1_555
C15 Er3 2.598110 1_555
C16 Mn12 2.047693 1_555
C16 Mn6 2.047693 1_545
C16 Er2 2.598110 1_545
C16 Er4 2.598110 1_555
C16 Er0 2.598110 1_545
C16 Er5 2.598110 1_555
C17 Mn7 2.047693 1_554
C17 Mn10 2.047693 1_555
C17 Er4 2.598110 1_554
C17 Er1 2.598110 1_555
C17 Er0 2.598110 1_555
C17 Er3 2.598110 1_554
