# generated using pymatgen
data_OsSeS3Cl4
_symmetry_space_group_name_H-M   'P 1'
_cell_length_a   9.31596500
_cell_length_b   9.56841200
_cell_length_c   11.87890779
_cell_angle_alpha   74.18387321
_cell_angle_beta   90.00000000
_cell_angle_gamma   90.00000000
_symmetry_Int_Tables_number   1
_chemical_formula_structural   OsSeS3Cl4
_chemical_formula_sum   'Os4 Se4 S12 Cl16'
_cell_volume   1018.78628967
_cell_formula_units_Z   4
loop_
 _symmetry_equiv_pos_site_id
 _symmetry_equiv_pos_as_xyz
  1  'x, y, z'
loop_
 _atom_site_type_symbol
 _atom_site_label
 _atom_site_symmetry_multiplicity
 _atom_site_fract_x
 _atom_site_fract_y
 _atom_site_fract_z
 _atom_site_occupancy
  Os  Os0  1  0.80217800  0.04768300  0.77486900  1
  Os  Os1  1  0.30217800  0.95231700  0.22513100  1
  Os  Os2  1  0.67070800  0.31066600  0.70927200  1
  Os  Os3  1  0.17070800  0.68933400  0.29072800  1
  Se  Se0  1  0.79722200  0.50410000  0.78590700  1
  Se  Se1  1  0.29722200  0.49590000  0.21409300  1
  Se  Se2  1  0.39304000  0.01308800  0.86663500  1
  Se  Se3  1  0.89304000  0.98691200  0.13336500  1
  S  S0  1  0.97883200  0.15141500  0.21919900  1
  S  S1  1  0.47883200  0.84858500  0.78080100  1
  S  S2  1  0.32093700  0.16629400  0.69548100  1
  S  S3  1  0.82093700  0.83370600  0.30451900  1
  S  S4  1  0.50561600  0.22440000  0.60443400  1
  S  S5  1  0.00561600  0.77560000  0.39556600  1
  S  S6  1  0.86247400  0.23971900  0.62007700  1
  S  S7  1  0.36247400  0.76028100  0.37992300  1
  S  S8  1  0.64137900  0.95280600  0.67593500  1
  S  S9  1  0.14137900  0.04719400  0.32406500  1
  S  S10  1  0.64023900  0.13720100  0.87687200  1
  S  S11  1  0.14023900  0.86279900  0.12312800  1
  Cl  Cl0  1  0.48350200  0.07797900  0.30645000  1
  Cl  Cl1  1  0.98350200  0.92202100  0.69355000  1
  Cl  Cl2  1  0.00199800  0.12274600  0.87799300  1
  Cl  Cl3  1  0.50199800  0.87725400  0.12200700  1
  Cl  Cl4  1  0.81045000  0.20544900  0.45905100  1
  Cl  Cl5  1  0.31045000  0.79455100  0.54094900  1
  Cl  Cl6  1  0.81250200  0.42046200  0.97844200  1
  Cl  Cl7  1  0.31250200  0.57953800  0.02155800  1
  Cl  Cl8  1  0.49755800  0.45004800  0.78571200  1
  Cl  Cl9  1  0.99755800  0.54995200  0.21428800  1
  Cl  Cl10  1  0.02631000  0.51214300  0.74118200  1
  Cl  Cl11  1  0.52631000  0.48785700  0.25881800  1
  Cl  Cl12  1  0.69577300  0.54204200  0.55752200  1
  Cl  Cl13  1  0.19577300  0.45795800  0.44247800  1
  Cl  Cl14  1  0.80228100  0.83014500  0.93442900  1
  Cl  Cl15  1  0.30228100  0.16985500  0.06557100  1
loop_
_geom_bond_atom_site_label_1
_geom_bond_atom_site_label_2
_geom_bond_distance
_geom_bond_site_symmetry_2
Os0 S8 2.242960 1_545
Os0 S10 2.245778 1_555
Os0 S6 2.287174 1_555
Os1 S9 2.242960 1_565
Os1 S11 2.245778 1_555
Os1 S7 2.287174 1_555
Os2 S10 2.235594 1_555
Os2 S4 2.271126 1_555
Os2 S6 2.273118 1_555
Os2 Se0 2.561627 1_555
Os3 S11 2.235594 1_555
Os3 S5 2.271126 1_555
Os3 S7 2.273118 1_555
Os3 Se1 2.561627 1_555
S0 S9 2.040128 1_655
S0 Se3 2.242946 1_545
S1 S8 2.040128 1_555
S1 Se2 2.242946 1_565
S2 S4 2.027574 1_555
S2 Se2 2.260335 1_555
S3 S5 2.027574 1_655
S3 Se3 2.260335 1_555
S10 Se2 2.609052 1_555
S11 Se3 2.609052 1_455
Cl0 Os1 2.421859 1_545
Cl1 Os0 2.421859 1_565
Cl2 Os0 2.441583 1_455
Cl3 Os1 2.441583 1_555
Cl4 S6 2.084028 1_555
Cl5 S7 2.084028 1_555
Cl6 Se0 2.212205 1_555
Cl7 Se1 2.212205 1_555
Cl8 Os2 2.421827 1_555
Cl8 Se0 2.839279 1_555
Cl9 Os3 2.421827 1_655
Cl9 Se1 2.839279 1_655
Cl10 Se0 2.195587 1_455
Cl11 Se1 2.195587 1_555
Cl12 Os2 2.455591 1_555
Cl12 Se0 2.801481 1_555
Cl13 Os3 2.455591 1_555
Cl13 Se1 2.801481 1_555
Cl14 Os0 2.403036 1_565
Cl15 Os1 2.403036 1_545
