# generated using pymatgen
data_Nb2FeB2
_symmetry_space_group_name_H-M   'P 1'
_cell_length_a   5.75646000
_cell_length_b   5.75646000
_cell_length_c   3.40402600
_cell_angle_alpha   90.00000000
_cell_angle_beta   90.00000000
_cell_angle_gamma   90.00000000
_symmetry_Int_Tables_number   1
_chemical_formula_structural   Nb2FeB2
_chemical_formula_sum   'Nb4 Fe2 B4'
_cell_volume   112.79863677
_cell_formula_units_Z   2
loop_
 _symmetry_equiv_pos_site_id
 _symmetry_equiv_pos_as_xyz
  1  'x, y, z'
loop_
 _atom_site_type_symbol
 _atom_site_label
 _atom_site_symmetry_multiplicity
 _atom_site_fract_x
 _atom_site_fract_y
 _atom_site_fract_z
 _atom_site_occupancy
  Nb  Nb0  1  0.67969900  0.17969900  0.50000000  1
  Nb  Nb1  1  0.32030100  0.82030100  0.50000000  1
  Nb  Nb2  1  0.17969900  0.32030100  0.50000000  1
  Nb  Nb3  1  0.82030100  0.67969900  0.50000000  1
  Fe  Fe0  1  0.50000000  0.50000000  0.00000000  1
  Fe  Fe1  1  0.00000000  0.00000000  0.00000000  1
  B  B0  1  0.11466500  0.61466500  0.00000000  1
  B  B1  1  0.88533500  0.38533500  0.00000000  1
  B  B2  1  0.61466500  0.88533500  0.00000000  1
  B  B3  1  0.38533500  0.11466500  0.00000000  1
loop_
_geom_bond_atom_site_label_1
_geom_bond_atom_site_label_2
_geom_bond_distance
_geom_bond_site_symmetry_2
Fe0 Nb2 2.714128 1_554
Fe0 Nb2 2.714128 1_555
Fe0 Nb3 2.714128 1_554
Fe0 Nb0 2.714128 1_555
Fe0 Nb0 2.714128 1_554
Fe0 Nb3 2.714128 1_555
Fe0 Nb1 2.714128 1_555
Fe0 Nb1 2.714128 1_554
Fe1 Nb0 2.714128 1_455
Fe1 Nb0 2.714128 1_454
Fe1 Nb2 2.714128 1_554
Fe1 Nb2 2.714128 1_555
Fe1 Nb1 2.714128 1_544
Fe1 Nb3 2.714128 1_444
Fe1 Nb3 2.714128 1_445
Fe1 Nb1 2.714128 1_545
B0 B1 1.866944 1_455
B0 Fe1 2.314291 1_565
B0 Fe0 2.314291 1_555
B0 Nb1 2.387322 1_555
B0 Nb1 2.387322 1_554
B0 Nb2 2.430702 1_555
B0 Nb2 2.430702 1_554
B0 Nb3 2.430702 1_455
B0 Nb3 2.430702 1_454
B1 Fe1 2.314291 1_655
B1 Fe0 2.314291 1_555
B1 Nb0 2.387322 1_555
B1 Nb0 2.387322 1_554
B1 Nb3 2.430702 1_554
B1 Nb2 2.430702 1_655
B1 Nb2 2.430702 1_654
B1 Nb3 2.430702 1_555
B2 B3 1.866944 1_565
B2 Fe1 2.314291 1_665
B2 Fe0 2.314291 1_555
B2 Nb3 2.387322 1_554
B2 Nb3 2.387322 1_555
B2 Nb1 2.430702 1_555
B2 Nb1 2.430702 1_554
B2 Nb0 2.430702 1_565
B2 Nb0 2.430702 1_564
B3 Fe1 2.314291 1_555
B3 Fe0 2.314291 1_555
B3 Nb2 2.387322 1_555
B3 Nb2 2.387322 1_554
B3 Nb1 2.430702 1_544
B3 Nb0 2.430702 1_555
B3 Nb0 2.430702 1_554
B3 Nb1 2.430702 1_545
