# generated using pymatgen
data_CoPdO2
_symmetry_space_group_name_H-M   'P 1'
_cell_length_a   2.86337963
_cell_length_b   2.86337963
_cell_length_c   6.18288130
_cell_angle_alpha   76.61124575
_cell_angle_beta   76.61124575
_cell_angle_gamma   60.00000856
_symmetry_Int_Tables_number   1
_chemical_formula_structural   CoPdO2
_chemical_formula_sum   'Co1 Pd1 O2'
_cell_volume   42.30311806
_cell_formula_units_Z   1
loop_
 _symmetry_equiv_pos_site_id
 _symmetry_equiv_pos_as_xyz
  1  'x, y, z'
loop_
 _atom_site_type_symbol
 _atom_site_label
 _atom_site_symmetry_multiplicity
 _atom_site_fract_x
 _atom_site_fract_y
 _atom_site_fract_z
 _atom_site_occupancy
  Co  Co0  1  0.50000000  0.50000000  0.50000000  1
  Pd  Pd0  1  0.00000000  0.00000000  0.00000000  1
  O  O0  1  0.88752400  0.88752400  0.33742800  1
  O  O1  1  0.11247600  0.11247600  0.66257200  1
loop_
_geom_bond_atom_site_label_1
_geom_bond_atom_site_label_2
_geom_bond_distance
_geom_bond_site_symmetry_2
Co0 O0 1.916012 1_555
Co0 O1 1.916012 1_555
Co0 O1 1.916012 1_655
Co0 O1 1.916012 1_565
Co0 O0 1.916012 1_545
Co0 O0 1.916012 1_455
O0 Pd0 2.010319 1_665
O1 Pd0 2.010319 1_556
