# generated using pymatgen
data_Ca2Eu2In3Ge4
_symmetry_space_group_name_H-M   'P 1'
_cell_length_a   8.67728983
_cell_length_b   8.67728983
_cell_length_c   7.41704916
_cell_angle_alpha   73.60068224
_cell_angle_beta   73.60068224
_cell_angle_gamma   31.46626877
_symmetry_Int_Tables_number   1
_chemical_formula_structural   Ca2Eu2In3Ge4
_chemical_formula_sum   'Ca2 Eu2 In3 Ge4'
_cell_volume   278.69647048
_cell_formula_units_Z   1
loop_
 _symmetry_equiv_pos_site_id
 _symmetry_equiv_pos_as_xyz
  1  'x, y, z'
loop_
 _atom_site_type_symbol
 _atom_site_label
 _atom_site_symmetry_multiplicity
 _atom_site_fract_x
 _atom_site_fract_y
 _atom_site_fract_z
 _atom_site_occupancy
  Ca  Ca0  1  0.57624500  0.57624500  0.63342200  1
  Ca  Ca1  1  0.42375500  0.42375500  0.36657800  1
  Eu  Eu0  1  0.35314600  0.35314600  0.92340100  1
  Eu  Eu1  1  0.64685400  0.64685400  0.07659900  1
  In  In0  1  0.00000000  0.00000000  0.00000000  1
  In  In1  1  0.21342700  0.21342700  0.37525500  1
  In  In2  1  0.78657300  0.78657300  0.62474500  1
  Ge  Ge0  1  0.05388200  0.05388200  0.34158500  1
  Ge  Ge1  1  0.94611800  0.94611800  0.65841500  1
  Ge  Ge2  1  0.19019000  0.19019000  0.77117700  1
  Ge  Ge3  1  0.80981000  0.80981000  0.22882300  1
loop_
_geom_bond_atom_site_label_1
_geom_bond_atom_site_label_2
_geom_bond_distance
_geom_bond_site_symmetry_2
Ca0 Ge1 3.171608 1_545
Ca0 Ge1 3.171608 1_455
Ca0 Ge0 3.291723 1_655
Ca0 Ge0 3.291723 1_565
Ca0 Ge2 3.368064 1_565
Ca0 Ge2 3.368064 1_655
Ca0 In1 3.446711 1_565
Ca0 In1 3.446711 1_655
Ca0 In2 3.495066 1_555
Ca0 In0 3.538277 1_566
Ca0 In0 3.538277 1_656
Ca1 Ge0 3.171608 1_565
Ca1 Ge0 3.171608 1_655
Ca1 Ge1 3.291723 1_455
Ca1 Ge1 3.291723 1_545
Ca1 Ge3 3.368064 1_545
Ca1 Ge3 3.368064 1_455
Ca1 In2 3.446711 1_455
Ca1 In2 3.446711 1_545
Ca1 In1 3.495066 1_555
Ca1 In0 3.538277 1_655
Ca1 In0 3.538277 1_565
Eu0 Ge1 3.165491 1_545
Eu0 Ge1 3.165491 1_455
Eu0 Ge3 3.198425 1_456
Eu0 Ge3 3.198425 1_546
Eu0 Ge2 3.238432 1_555
Eu0 In0 3.562906 1_656
Eu0 In0 3.562906 1_566
Eu1 Ge0 3.165491 1_655
Eu1 Ge0 3.165491 1_565
Eu1 Ge2 3.198425 1_564
Eu1 Ge2 3.198425 1_654
Eu1 Ge3 3.238432 1_555
Eu1 In0 3.562906 1_565
Eu1 In0 3.562906 1_655
Ge0 Ge1 2.506214 1_445
Ge0 In1 2.748742 1_555
Ge0 In0 2.926902 1_555
Ge1 In2 2.748742 1_555
Ge1 In0 2.926902 1_666
Ge2 In1 2.847006 1_555
Ge2 In2 2.877869 1_455
Ge2 In2 2.877869 1_545
Ge2 In0 3.132202 1_556
Ge3 In2 2.847006 1_555
Ge3 In1 2.877869 1_565
Ge3 In1 2.877869 1_655
Ge3 In0 3.132202 1_665
