# generated using pymatgen
data_Na
_symmetry_space_group_name_H-M   'P 1'
_cell_length_a   9.13722753
_cell_length_b   9.13722753
_cell_length_c   9.13722753
_cell_angle_alpha   90.00000000
_cell_angle_beta   90.00000000
_cell_angle_gamma   90.00000000
_symmetry_Int_Tables_number   1
_chemical_formula_structural   Na
_chemical_formula_sum   Na20
_cell_volume   762.85732164
_cell_formula_units_Z   20
loop_
 _symmetry_equiv_pos_site_id
 _symmetry_equiv_pos_as_xyz
  1  'x, y, z'
loop_
 _atom_site_type_symbol
 _atom_site_label
 _atom_site_symmetry_multiplicity
 _atom_site_fract_x
 _atom_site_fract_y
 _atom_site_fract_z
 _atom_site_occupancy
  Na  Na0  1  0.87500000  0.70225467  0.04774533  1
  Na  Na1  1  0.06294548  0.06294548  0.06294548  1
  Na  Na2  1  0.20225467  0.45225467  0.12500000  1
  Na  Na3  1  0.81294648  0.31294648  0.18705352  1
  Na  Na4  1  0.45225467  0.12500000  0.20225467  1
  Na  Na5  1  0.54774533  0.62500000  0.29774433  1
  Na  Na6  1  0.18705352  0.81294648  0.31294648  1
  Na  Na7  1  0.79774433  0.95225567  0.37500000  1
  Na  Na8  1  0.93705452  0.56294548  0.43705452  1
  Na  Na9  1  0.12500000  0.20225467  0.45225467  1
  Na  Na10  1  0.62500000  0.29774433  0.54774533  1
  Na  Na11  1  0.43705452  0.93705452  0.56294548  1
  Na  Na12  1  0.29774433  0.54774533  0.62500000  1
  Na  Na13  1  0.68705352  0.68705352  0.68705352  1
  Na  Na14  1  0.04774533  0.87500000  0.70225467  1
  Na  Na15  1  0.95225567  0.37500000  0.79774433  1
  Na  Na16  1  0.31294648  0.18705352  0.81294648  1
  Na  Na17  1  0.70225467  0.04774533  0.87500000  1
  Na  Na18  1  0.56294548  0.43705452  0.93705452  1
  Na  Na19  1  0.37500000  0.79774433  0.95225567  1
loop_
_geom_bond_atom_site_label_1
_geom_bond_atom_site_label_2
_geom_bond_distance
_geom_bond_site_symmetry_2
Na0 Na1 3.718890 1_665
Na0 Na13 3.718903 1_554
Na0 Na3 3.820391 1_555
Na0 Na8 3.820404 1_555
Na0 Na5 3.828525 1_555
Na0 Na2 3.828530 1_655
Na0 Na7 3.828537 1_555
Na0 Na15 3.828537 1_554
Na0 Na17 3.866307 1_564
Na0 Na14 3.866307 1_654
Na0 Na18 3.876184 1_554
Na0 Na6 3.876185 1_655
Na1 Na16 3.423752 1_554
Na1 Na3 3.423752 1_455
Na1 Na6 3.423752 1_545
Na1 Na14 3.718890 1_544
Na1 Na17 3.718890 1_454
Na1 Na9 3.820404 1_555
Na1 Na4 3.820404 1_555
Na1 Na2 3.820404 1_555
Na1 Na15 3.876187 1_454
Na1 Na7 3.876187 1_445
Na1 Na19 3.876187 1_544
Na2 Na6 3.718903 1_555
Na2 Na3 3.820391 1_455
Na2 Na4 3.828530 1_555
Na2 Na9 3.828530 1_555
Na2 Na5 3.866304 1_555
Na2 Na8 3.876184 1_455
Na3 Na8 3.423752 1_555
Na3 Na7 3.718895 1_545
Na3 Na4 3.718903 1_555
Na3 Na5 3.876183 1_555
Na3 Na9 3.876185 1_655
Na4 Na9 3.828530 1_555
Na4 Na7 3.866296 1_545
Na4 Na6 3.876185 1_545
Na5 Na6 3.718903 1_555
Na5 Na8 3.820407 1_555
Na5 Na7 3.828533 1_555
Na6 Na8 3.423752 1_455
Na6 Na9 3.820391 1_565
Na6 Na7 3.820403 1_455
Na7 Na8 3.820416 1_555
Na7 Na9 3.828532 1_665
Na8 Na9 3.718890 1_655
Na10 Na11 3.718882 1_545
Na10 Na3 3.718903 1_555
Na10 Na13 3.820400 1_555
Na10 Na18 3.820407 1_555
Na10 Na17 3.828525 1_555
Na10 Na15 3.828533 1_555
Na10 Na5 3.828543 1_555
Na10 Na12 3.828543 1_555
Na10 Na7 3.866289 1_545
Na10 Na4 3.866304 1_555
Na10 Na16 3.876183 1_555
Na10 Na8 3.876189 1_555
Na11 Na6 3.423752 1_555
Na11 Na13 3.423752 1_555
Na11 Na16 3.423752 1_565
Na11 Na7 3.718882 1_555
Na11 Na4 3.718890 1_565
Na11 Na14 3.820404 1_555
Na11 Na12 3.820407 1_555
Na11 Na19 3.820416 1_555
Na11 Na17 3.876184 1_565
Na11 Na9 3.876184 1_565
Na11 Na5 3.876189 1_555
Na12 Na8 3.718882 1_455
Na12 Na16 3.718903 1_555
Na12 Na13 3.820400 1_555
Na12 Na14 3.828525 1_555
Na12 Na19 3.828533 1_555
Na12 Na5 3.828543 1_555
Na12 Na15 3.866289 1_455
Na12 Na9 3.866304 1_555
Na12 Na6 3.876183 1_555
Na12 Na18 3.876189 1_555
Na13 Na18 3.423752 1_555
Na13 Na8 3.423752 1_555
Na13 Na17 3.718903 1_565
Na13 Na14 3.718903 1_655
Na13 Na5 3.820400 1_555
Na13 Na7 3.876188 1_555
Na13 Na19 3.876188 1_555
Na13 Na15 3.876188 1_555
Na14 Na6 3.820391 1_555
Na14 Na9 3.828530 1_565
Na14 Na7 3.828537 1_455
Na14 Na19 3.828537 1_555
Na14 Na17 3.866307 1_465
Na14 Na8 3.876184 1_455
Na14 Na16 3.876185 1_565
Na15 Na8 3.718882 1_555
Na15 Na16 3.718895 1_655
Na15 Na3 3.820403 1_556
Na15 Na18 3.820416 1_555
Na15 Na2 3.828532 1_656
Na15 Na17 3.828537 1_555
Na15 Na9 3.866296 1_655
Na16 Na18 3.423752 1_555
Na16 Na9 3.718903 1_555
Na16 Na17 3.820391 1_555
Na16 Na4 3.820391 1_556
Na16 Na19 3.820403 1_545
Na16 Na2 3.876185 1_556
Na17 Na18 3.820404 1_555
Na17 Na4 3.828530 1_556
Na17 Na19 3.828537 1_545
Na17 Na3 3.876185 1_556
Na18 Na3 3.423752 1_556
Na18 Na5 3.718882 1_556
Na18 Na19 3.718882 1_555
Na18 Na2 3.718890 1_556
Na18 Na4 3.876184 1_556
Na19 Na6 3.718895 1_556
Na19 Na4 3.828532 1_566
Na19 Na5 3.866289 1_556
Na19 Na2 3.866296 1_556
