# generated using pymatgen
data_KNa7V8O20
_symmetry_space_group_name_H-M   'P 1'
_cell_length_a   15.70141393
_cell_length_b   15.70141393
_cell_length_c   5.46383012
_cell_angle_alpha   89.57899760
_cell_angle_beta   89.57899760
_cell_angle_gamma   41.89941864
_symmetry_Int_Tables_number   1
_chemical_formula_structural   KNa7V8O20
_chemical_formula_sum   'K2 Na14 V16 O40'
_cell_volume   899.54717915
_cell_formula_units_Z   2
loop_
 _symmetry_equiv_pos_site_id
 _symmetry_equiv_pos_as_xyz
  1  'x, y, z'
loop_
 _atom_site_type_symbol
 _atom_site_label
 _atom_site_symmetry_multiplicity
 _atom_site_fract_x
 _atom_site_fract_y
 _atom_site_fract_z
 _atom_site_occupancy
  K  K0  1  0.93259200  0.20245200  0.50218300  1
  K  K1  1  0.20245200  0.93259200  0.00218300  1
  Na  Na0  1  0.93198000  0.71066800  0.00091900  1
  Na  Na1  1  0.43361500  0.70965400  0.50166800  1
  Na  Na2  1  0.43228300  0.21048000  0.00138600  1
  Na  Na3  1  0.56636300  0.28956700  0.00051100  1
  Na  Na4  1  0.56890400  0.78976800  0.49957000  1
  Na  Na5  1  0.06735700  0.78699100  0.00144200  1
  Na  Na6  1  0.06872200  0.29076800  0.50044400  1
  Na  Na7  1  0.70965400  0.43361500  0.00166800  1
  Na  Na8  1  0.71066800  0.93198000  0.50091900  1
  Na  Na9  1  0.21048000  0.43228300  0.50138600  1
  Na  Na10  1  0.78699100  0.06735700  0.50144200  1
  Na  Na11  1  0.78976800  0.56890400  0.99957000  1
  Na  Na12  1  0.28956700  0.56636300  0.50051100  1
  Na  Na13  1  0.29076800  0.06872200  0.00044400  1
  V  V0  1  0.00381900  0.25226200  0.99319700  1
  V  V1  1  0.00203700  0.74712400  0.48972400  1
  V  V2  1  0.50496000  0.74776200  0.99185000  1
  V  V3  1  0.50157900  0.24845400  0.48996500  1
  V  V4  1  0.74776200  0.50496000  0.49185000  1
  V  V5  1  0.74712400  0.00203700  0.98972400  1
  V  V6  1  0.25226200  0.00381900  0.49319700  1
  V  V7  1  0.24845400  0.50157900  0.98996500  1
  V  V8  1  0.90396100  0.09018800  0.03373600  1
  V  V9  1  0.91020200  0.59027100  0.54254000  1
  V  V10  1  0.41293200  0.58579800  0.04351200  1
  V  V11  1  0.41294600  0.08902300  0.54367400  1
  V  V12  1  0.58579800  0.41293200  0.54351200  1
  V  V13  1  0.59027100  0.91020200  0.04254000  1
  V  V14  1  0.09018800  0.90396100  0.53373600  1
  V  V15  1  0.08902300  0.41294600  0.04367400  1
  O  O0  1  0.87070200  0.88953100  0.21651300  1
  O  O1  1  0.87034000  0.39326500  0.72158300  1
  O  O2  1  0.37149600  0.38917800  0.21774400  1
  O  O3  1  0.37531300  0.88868900  0.71796700  1
  O  O4  1  0.61406400  0.62824000  0.74632400  1
  O  O5  1  0.61205200  0.12659200  0.24827000  1
  O  O6  1  0.11767400  0.13087900  0.75558200  1
  O  O7  1  0.11211100  0.62532500  0.24701800  1
  O  O8  1  0.88953100  0.87070200  0.71651300  1
  O  O9  1  0.88868900  0.37531300  0.21796700  1
  O  O10  1  0.38917800  0.37149600  0.71774400  1
  O  O11  1  0.39326500  0.87034000  0.22158300  1
  O  O12  1  0.62824000  0.61406400  0.24632400  1
  O  O13  1  0.62532500  0.11211100  0.74701800  1
  O  O14  1  0.13087900  0.11767400  0.25558200  1
  O  O15  1  0.12659200  0.61205200  0.74827000  1
  O  O16  1  0.90609000  0.20184300  0.99266400  1
  O  O17  1  0.90066700  0.70790000  0.47570000  1
  O  O18  1  0.41402700  0.69593600  0.97769000  1
  O  O19  1  0.40109700  0.20821300  0.47624100  1
  O  O20  1  0.60004200  0.29184800  0.47496400  1
  O  O21  1  0.60196200  0.79111900  0.97506100  1
  O  O22  1  0.10563400  0.78250900  0.47007600  1
  O  O23  1  0.10038100  0.29415600  0.97690600  1
  O  O24  1  0.69593600  0.41402700  0.47769000  1
  O  O25  1  0.70790000  0.90066700  0.97570000  1
  O  O26  1  0.20184300  0.90609000  0.49266400  1
  O  O27  1  0.20821300  0.40109700  0.97624100  1
  O  O28  1  0.78250900  0.10563400  0.97007600  1
  O  O29  1  0.79111900  0.60196200  0.47506100  1
  O  O30  1  0.29184800  0.60004200  0.97496400  1
  O  O31  1  0.29415600  0.10038100  0.47690600  1
  O  O32  1  0.94203800  0.04343800  0.36383900  1
  O  O33  1  0.94060500  0.56004500  0.88326900  1
  O  O34  1  0.43679900  0.56079900  0.38577800  1
  O  O35  1  0.44171100  0.05885300  0.88425500  1
  O  O36  1  0.56079900  0.43679900  0.88577800  1
  O  O37  1  0.56004500  0.94060500  0.38326900  1
  O  O38  1  0.04343800  0.94203800  0.86383900  1
  O  O39  1  0.05885300  0.44171100  0.38425500  1
loop_
_geom_bond_atom_site_label_1
_geom_bond_atom_site_label_2
_geom_bond_distance
_geom_bond_site_symmetry_2
K0 O32 2.510365 1_555
K0 O24 2.546780 1_555
K0 O6 2.607608 1_655
K0 O1 2.654205 1_555
K0 O14 2.660046 1_655
K0 O16 2.710036 1_555
K0 O9 2.724330 1_555
K0 O16 2.819011 1_554
K1 O38 2.510365 1_554
K1 O18 2.546780 1_554
K1 O14 2.607608 1_565
K1 O11 2.654205 1_555
K1 O6 2.660046 1_564
K1 O26 2.710036 1_555
K1 O3 2.724330 1_554
K1 O26 2.819011 1_554
Na0 O33 2.359881 1_554
Na0 O25 2.381973 1_554
Na0 O7 2.447564 1_655
Na0 O0 2.491982 1_555
Na0 O15 2.562494 1_654
Na0 O8 2.576364 1_554
Na0 O17 2.642820 1_555
Na0 O17 2.921167 1_554
Na1 O34 2.390283 1_555
Na1 O26 2.459746 1_555
Na1 O4 2.467296 1_555
Na1 O3 2.517765 1_555
Na1 O12 2.584179 1_555
Na1 O11 2.585891 1_555
Na1 O18 2.642785 1_555
Na1 O18 2.908256 1_554
Na2 O35 2.365557 1_554
Na2 O27 2.383363 1_554
Na2 O5 2.452971 1_555
Na2 O2 2.495319 1_555
Na2 O13 2.550469 1_554
Na2 O10 2.581121 1_554
Na2 O19 2.641690 1_555
Na2 O19 2.919252 1_554
Na3 O28 2.300929 1_554
Na3 O36 2.328876 1_554
Na3 O2 2.463085 1_555
Na3 O5 2.475068 1_555
Na3 O10 2.547160 1_554
Na3 O13 2.595542 1_554
Na3 O20 2.655335 1_555
Na3 O20 2.920753 1_554
Na4 O37 2.349685 1_555
Na4 O29 2.360090 1_555
Na4 O3 2.453904 1_555
Na4 O4 2.457554 1_555
Na4 O11 2.520413 1_555
Na4 O12 2.569931 1_555
Na4 O21 2.656408 1_555
Na4 O21 2.911439 1_554
Na5 O38 2.291091 1_554
Na5 O30 2.378663 1_554
Na5 O7 2.458873 1_555
Na5 O0 2.466020 1_455
Na5 O8 2.553001 1_454
Na5 O15 2.560716 1_554
Na5 O22 2.622882 1_555
Na6 O39 2.340224 1_555
Na6 O31 2.393563 1_555
Na6 O6 2.434844 1_555
Na6 O14 2.492922 1_555
Na6 O1 2.502642 1_455
Na6 O9 2.565712 1_455
Na6 O23 2.662246 1_555
Na6 O23 2.906674 1_554
Na7 O36 2.390283 1_554
Na7 O16 2.459746 1_554
Na7 O12 2.467296 1_555
Na7 O9 2.517765 1_555
Na7 O4 2.584179 1_554
Na7 O1 2.585891 1_554
Na7 O24 2.642785 1_555
Na7 O24 2.908256 1_554
Na8 O37 2.359881 1_555
Na8 O17 2.381973 1_555
Na8 O13 2.447564 1_565
Na8 O8 2.491982 1_555
Na8 O5 2.562494 1_565
Na8 O0 2.576364 1_555
Na8 O25 2.642820 1_555
Na8 O25 2.921167 1_554
Na9 O39 2.365557 1_555
Na9 O19 2.383363 1_555
Na9 O15 2.452971 1_555
Na9 O10 2.495319 1_555
Na9 O7 2.550469 1_555
Na9 O2 2.581121 1_555
Na9 O27 2.641690 1_555
Na9 O27 2.919252 1_554
Na10 O32 2.291091 1_555
Na10 O20 2.378663 1_555
Na10 O13 2.458873 1_555
Na10 O8 2.466020 1_545
Na10 O0 2.553001 1_545
Na10 O5 2.560716 1_555
Na10 O28 2.622882 1_555
Na11 O33 2.349685 1_555
Na11 O21 2.360090 1_555
Na11 O9 2.453904 1_556
Na11 O12 2.457554 1_556
Na11 O1 2.520413 1_555
Na11 O4 2.569931 1_555
Na11 O29 2.656408 1_556
Na11 O29 2.911439 1_555
Na12 O22 2.300929 1_555
Na12 O34 2.328876 1_555
Na12 O10 2.463085 1_555
Na12 O15 2.475068 1_555
Na12 O2 2.547160 1_555
Na12 O7 2.595542 1_555
Na12 O30 2.655335 1_555
Na12 O30 2.920753 1_554
Na13 O35 2.340224 1_554
Na13 O23 2.393563 1_554
Na13 O14 2.434844 1_555
Na13 O6 2.492922 1_554
Na13 O11 2.502642 1_545
Na13 O3 2.565712 1_544
Na13 O31 2.662246 1_555
Na13 O31 2.906674 1_554
O0 V5 1.822529 1_564
O0 V1 2.147711 1_655
O1 V4 1.825920 1_555
O1 V0 2.141617 1_655
O2 V7 1.823020 1_554
O2 V3 2.131741 1_555
O3 V6 1.819877 1_565
O3 V2 2.137804 1_555
O4 V2 1.863764 1_555
O4 V4 2.008615 1_555
O5 V3 1.864558 1_555
O5 V5 2.034795 1_554
O6 V0 1.855816 1_555
O6 V6 2.054905 1_555
O7 V1 1.867143 1_555
O7 V7 2.033386 1_554
O8 V1 1.822529 1_655
O8 V5 2.147711 1_565
O9 V0 1.819877 1_654
O9 V4 2.137804 1_555
O10 V3 1.823020 1_555
O10 V7 2.131741 1_555
O11 V2 1.825920 1_554
O11 V6 2.141617 1_565
O12 V4 1.863764 1_555
O12 V2 2.008615 1_554
O13 V5 1.867143 1_555
O13 V3 2.033386 1_555
O14 V6 1.855816 1_555
O14 V0 2.054905 1_554
O15 V7 1.864558 1_555
O15 V1 2.034795 1_555
O16 V8 1.790623 1_556
O16 V0 2.188564 1_655
O17 V9 1.773766 1_555
O17 V1 2.092906 1_655
O18 V10 1.776295 1_556
O18 V2 2.106850 1_555
O19 V11 1.773488 1_555
O19 V3 2.092943 1_555
O20 V12 1.783558 1_555
O20 V3 2.103923 1_555
O21 V13 1.778729 1_556
O21 V2 2.081375 1_555
O22 V14 1.770978 1_555
O22 V1 2.075572 1_555
O23 V15 1.776973 1_556
O23 V0 2.054547 1_555
O24 V12 1.776295 1_555
O24 V4 2.106850 1_555
O25 V13 1.773766 1_556
O25 V5 2.092906 1_565
O26 V14 1.790623 1_555
O26 V6 2.188564 1_565
O27 V15 1.773488 1_556
O27 V7 2.092943 1_555
O28 V8 1.770978 1_556
O28 V5 2.075572 1_555
O29 V9 1.778729 1_555
O29 V4 2.081375 1_555
O30 V10 1.783558 1_556
O30 V7 2.103923 1_555
O31 V11 1.776973 1_555
O31 V6 2.054547 1_555
O32 V14 1.867389 1_645
O32 V8 1.868802 1_555
O33 V15 1.876477 1_656
O33 V9 1.892567 1_555
O34 V12 1.876391 1_555
O34 V10 1.890042 1_555
O35 V13 1.879358 1_546
O35 V11 1.890014 1_555
O36 V10 1.876391 1_556
O36 V12 1.890042 1_555
O37 V11 1.876477 1_565
O37 V13 1.892567 1_555
O38 V8 1.867389 1_466
O38 V14 1.868802 1_555
O39 V9 1.879358 1_455
O39 V15 1.890014 1_555
