# generated using pymatgen
data_Y4Mn13Si2(SbO14)2
_symmetry_space_group_name_H-M   'P 1'
_cell_length_a   5.82308768
_cell_length_b   9.50378928
_cell_length_c   12.57507902
_cell_angle_alpha   87.55430435
_cell_angle_beta   76.61266984
_cell_angle_gamma   79.37944287
_symmetry_Int_Tables_number   1
_chemical_formula_structural   Y4Mn13Si2(SbO14)2
_chemical_formula_sum   'Y4 Mn13 Si2 Sb2 O28'
_cell_volume   665.41452321
_cell_formula_units_Z   1
loop_
 _symmetry_equiv_pos_site_id
 _symmetry_equiv_pos_as_xyz
  1  'x, y, z'
loop_
 _atom_site_type_symbol
 _atom_site_label
 _atom_site_symmetry_multiplicity
 _atom_site_fract_x
 _atom_site_fract_y
 _atom_site_fract_z
 _atom_site_occupancy
  Y  Y0  1  0.07047600  0.65442500  0.41548500  1
  Y  Y1  1  0.51403900  0.34557500  0.41548500  1
  Y  Y2  1  0.92952400  0.34557500  0.58451500  1
  Y  Y3  1  0.48596100  0.65442500  0.58451500  1
  Mn  Mn0  1  0.92308400  0.64755600  0.73682000  1
  Mn  Mn1  1  0.66428000  0.32811400  0.12628600  1
  Mn  Mn2  1  0.34009500  0.35244400  0.73682000  1
  Mn  Mn3  1  0.07691600  0.35244400  0.26318000  1
  Mn  Mn4  1  0.33572000  0.67188600  0.87371400  1
  Mn  Mn5  1  0.29070500  0.00000000  0.41859000  1
  Mn  Mn6  1  0.20943500  0.67188600  0.12628600  1
  Mn  Mn7  1  0.00000000  0.00000000  0.00000000  1
  Mn  Mn8  1  0.42789900  0.00000000  0.14420400  1
  Mn  Mn9  1  0.79056500  0.32811400  0.87371400  1
  Mn  Mn10  1  0.65990500  0.64755600  0.26318000  1
  Mn  Mn11  1  0.57210100  0.00000000  0.85579600  1
  Mn  Mn12  1  0.70929500  0.00000000  0.58141000  1
  Si  Si0  1  0.24569800  0.29465200  0.00000000  1
  Si  Si1  1  0.75430200  0.70534800  0.00000000  1
  Sb  Sb0  1  0.85938800  0.00000000  0.28122400  1
  Sb  Sb1  1  0.14061200  0.00000000  0.71877600  1
  O  O0  1  0.71497500  0.40433000  0.26352500  1
  O  O1  1  0.13627700  0.38875800  0.42120600  1
  O  O2  1  0.95979100  0.34091500  0.00000000  1
  O  O3  1  0.30905500  0.11668700  0.00000000  1
  O  O4  1  0.86372300  0.61124200  0.57879400  1
  O  O5  1  0.28502500  0.59567000  0.73647500  1
  O  O6  1  0.01130700  0.10832100  0.59081700  1
  O  O7  1  0.98869300  0.89167900  0.40918300  1
  O  O8  1  0.69094500  0.88331300  0.00000000  1
  O  O9  1  0.11493100  0.89391200  0.15627700  1
  O  O10  1  0.31051900  0.35735400  0.10829600  1
  O  O11  1  0.02150000  0.59567000  0.26352500  1
  O  O12  1  0.39787500  0.89167900  0.59081700  1
  O  O13  1  0.72879100  0.10608800  0.15627700  1
  O  O14  1  0.58118400  0.64264600  0.10829600  1
  O  O15  1  0.04020900  0.65908500  0.00000000  1
  O  O16  1  0.27120900  0.89391200  0.84372300  1
  O  O17  1  0.88506900  0.10608800  0.84372300  1
  O  O18  1  0.60212500  0.10832100  0.40918300  1
  O  O19  1  0.11310200  0.12017800  0.28672400  1
  O  O20  1  0.88689800  0.87982200  0.71327600  1
  O  O21  1  0.41881600  0.35735400  0.89170400  1
  O  O22  1  0.39982400  0.12017800  0.71327600  1
  O  O23  1  0.55748300  0.38875800  0.57879400  1
  O  O24  1  0.68948100  0.64264600  0.89170400  1
  O  O25  1  0.60017600  0.87982200  0.28672400  1
  O  O26  1  0.97850000  0.40433000  0.73647500  1
  O  O27  1  0.44251700  0.61124200  0.42120600  1
loop_
_geom_bond_atom_site_label_1
_geom_bond_atom_site_label_2
_geom_bond_distance
_geom_bond_site_symmetry_2
Mn0 O5 2.073180 1_655
Mn0 O24 2.105899 1_555
Mn0 O4 2.146648 1_555
Mn0 O20 2.192342 1_555
Mn0 O26 2.274369 1_555
Mn1 O0 2.002894 1_555
Mn1 O2 2.071976 1_555
Mn1 O10 2.090777 1_555
Mn1 O13 2.107446 1_555
Mn2 O26 2.073174 1_455
Mn2 O21 2.105904 1_555
Mn2 O23 2.146651 1_555
Mn2 O22 2.192342 1_555
Mn2 O5 2.274369 1_555
Mn3 O0 2.073180 1_455
Mn3 O10 2.105899 1_555
Mn3 O1 2.146648 1_555
Mn3 O19 2.192342 1_555
Mn3 O11 2.274369 1_555
Mn4 O5 2.002894 1_555
Mn4 O15 2.071976 1_556
Mn4 O24 2.090777 1_555
Mn4 O16 2.107446 1_555
Mn5 O7 2.222764 1_445
Mn5 O18 2.222769 1_555
Mn5 O19 2.306699 1_555
Mn5 O25 2.306706 1_545
Mn5 O12 2.517650 1_545
Mn5 O6 2.517653 1_555
Mn6 O11 2.002897 1_555
Mn6 O15 2.071980 1_555
Mn6 O14 2.090765 1_555
Mn6 O9 2.107446 1_555
Mn7 O8 2.281276 1_445
Mn7 O3 2.281276 1_555
Mn7 O9 2.348966 1_545
Mn7 O17 2.348966 1_454
Mn7 O16 2.348969 1_544
Mn7 O13 2.348969 1_455
Mn8 O13 2.212900 1_555
Mn8 O9 2.212916 1_545
Mn8 O8 2.263547 1_545
Mn8 O3 2.263551 1_555
Mn8 O25 2.399659 1_545
Mn8 O19 2.399660 1_555
Mn9 O26 2.002897 1_555
Mn9 O2 2.071980 1_556
Mn9 O21 2.090765 1_555
Mn9 O17 2.107446 1_555
Mn10 O11 2.073174 1_655
Mn10 O14 2.105904 1_555
Mn10 O27 2.146651 1_555
Mn10 O25 2.192342 1_555
Mn10 O0 2.274369 1_555
Mn11 O16 2.212900 1_545
Mn11 O17 2.212916 1_555
Mn11 O3 2.263547 1_556
Mn11 O8 2.263551 1_546
Mn11 O22 2.399659 1_555
Mn11 O20 2.399660 1_545
Mn12 O6 2.222764 1_655
Mn12 O12 2.222769 1_545
Mn12 O20 2.306699 1_545
Mn12 O22 2.306706 1_555
Mn12 O18 2.517650 1_555
Mn12 O7 2.517653 1_545
O0 Y1 2.108753 1_555
O1 Y1 2.146843 1_555
O1 Y2 2.191020 1_455
O1 Y0 2.483442 1_555
O2 Si0 1.641724 1_655
O3 Si0 1.663352 1_555
O4 Y3 2.146843 1_555
O4 Y0 2.191020 1_655
O4 Y2 2.483442 1_555
O5 Y3 2.108753 1_555
O6 Sb1 2.085631 1_555
O6 Y2 2.218933 1_455
O7 Sb0 2.085631 1_565
O7 Y0 2.218933 1_655
O8 Si1 1.663352 1_555
O9 Sb0 2.049162 1_465
O10 Si0 1.656009 1_555
O11 Y0 2.108753 1_555
O12 Sb1 2.085629 1_565
O12 Y3 2.218933 1_555
O13 Sb0 2.049165 1_555
O14 Si1 1.656011 1_555
O15 Si1 1.641724 1_455
O16 Sb1 2.049165 1_565
O17 Sb1 2.049162 1_655
O18 Sb0 2.085629 1_555
O18 Y1 2.218933 1_555
O19 Sb0 2.041578 1_455
O20 Sb1 2.041578 1_665
O21 Si0 1.656011 1_556
O22 Sb1 2.041568 1_555
O23 Y2 2.146843 1_555
O23 Y1 2.191020 1_555
O23 Y3 2.483442 1_555
O24 Si1 1.656009 1_556
O25 Sb0 2.041568 1_565
O26 Y2 2.108753 1_555
O27 Y0 2.146843 1_555
O27 Y3 2.191020 1_555
O27 Y1 2.483442 1_555
