# generated using pymatgen
data_Mg6SiCO8
_symmetry_space_group_name_H-M   'P 1'
_cell_length_a   8.90787571
_cell_length_b   4.15212355
_cell_length_c   4.15212355
_cell_angle_alpha   90.00000000
_cell_angle_beta   90.00000000
_cell_angle_gamma   90.00000000
_symmetry_Int_Tables_number   1
_chemical_formula_structural   Mg6SiCO8
_chemical_formula_sum   'Mg6 Si1 C1 O8'
_cell_volume   153.57293504
_cell_formula_units_Z   1
loop_
 _symmetry_equiv_pos_site_id
 _symmetry_equiv_pos_as_xyz
  1  'x, y, z'
loop_
 _atom_site_type_symbol
 _atom_site_label
 _atom_site_symmetry_multiplicity
 _atom_site_fract_x
 _atom_site_fract_y
 _atom_site_fract_z
 _atom_site_occupancy
  Mg  Mg0  1  0.00000000  0.50000000  0.50000000  1
  Mg  Mg1  1  0.50000000  0.50000000  0.50000000  1
  Mg  Mg2  1  0.27025798  0.00000000  0.50000000  1
  Mg  Mg3  1  0.72974202  -0.00000000  0.50000000  1
  Mg  Mg4  1  0.27025798  0.50000000  -0.00000000  1
  Mg  Mg5  1  0.72974202  0.50000000  0.00000000  1
  Si  Si0  1  0.00000000  0.00000000  -0.00000000  1
  C  C0  1  0.50000000  -0.00000000  -0.00000000  1
  O  O0  1  0.18924064  -0.00000000  0.00000000  1
  O  O1  1  0.81075936  0.00000000  -0.00000000  1
  O  O2  1  0.25236487  0.50000000  0.50000000  1
  O  O3  1  0.74763513  0.50000000  0.50000000  1
  O  O4  1  0.00000000  -0.00000000  0.50000000  1
  O  O5  1  0.50000000  0.00000000  0.50000000  1
  O  O6  1  -0.00000000  0.50000000  -0.00000000  1
  O  O7  1  0.50000000  0.50000000  -0.00000000  1
loop_
_geom_bond_atom_site_label_1
_geom_bond_atom_site_label_2
_geom_bond_distance
_geom_bond_site_symmetry_2
Mg0 O6 2.076062 1_556
Mg0 O6 2.076062 1_555
Mg0 O4 2.076062 1_555
Mg0 O4 2.076062 1_565
Mg0 O3 2.248035 1_455
Mg0 O2 2.248035 1_555
Mg1 O5 2.076062 1_565
Mg1 O7 2.076062 1_555
Mg1 O7 2.076062 1_556
Mg1 O5 2.076062 1_555
Mg1 O2 2.205903 1_555
Mg1 O3 2.205903 1_555
Mg2 O5 2.046513 1_555
Mg2 O2 2.082171 1_555
Mg2 O2 2.082171 1_545
Mg2 O0 2.197925 1_555
Mg2 O0 2.197925 1_556
Mg2 O4 2.407424 1_555
Mg3 O5 2.046513 1_555
Mg3 O3 2.082171 1_545
Mg3 O3 2.082171 1_555
Mg3 O1 2.197925 1_556
Mg3 O1 2.197925 1_555
Mg3 O4 2.407424 1_655
Mg4 O7 2.046513 1_555
Mg4 O2 2.082171 1_555
Mg4 O2 2.082171 1_554
Mg4 O0 2.197925 1_565
Mg4 O0 2.197925 1_555
Mg4 O6 2.407424 1_555
Mg5 O7 2.046513 1_555
Mg5 O3 2.082171 1_555
Mg5 O3 2.082171 1_554
Mg5 O1 2.197925 1_565
Mg5 O1 2.197925 1_555
Mg5 O6 2.407424 1_655
C0 O7 2.076062 1_555
C0 O5 2.076062 1_554
C0 O5 2.076062 1_555
C0 O7 2.076062 1_545
O0 Si0 1.685732 1_555
O1 Si0 1.685732 1_655
O4 Si0 2.076062 1_556
O4 Si0 2.076062 1_555
O6 Si0 2.076062 1_565
O6 Si0 2.076062 1_555
