# generated using pymatgen
data_HfNiAs
_symmetry_space_group_name_H-M   'P 1'
_cell_length_a   3.83507818
_cell_length_b   6.41397209
_cell_length_c   7.26439263
_cell_angle_alpha   90.00000000
_cell_angle_beta   90.00000000
_cell_angle_gamma   90.00000000
_symmetry_Int_Tables_number   1
_chemical_formula_structural   HfNiAs
_chemical_formula_sum   'Hf4 Ni4 As4'
_cell_volume   178.69014310
_cell_formula_units_Z   4
loop_
 _symmetry_equiv_pos_site_id
 _symmetry_equiv_pos_as_xyz
  1  'x, y, z'
loop_
 _atom_site_type_symbol
 _atom_site_label
 _atom_site_symmetry_multiplicity
 _atom_site_fract_x
 _atom_site_fract_y
 _atom_site_fract_z
 _atom_site_occupancy
  Hf  Hf0  1  0.25000000  0.48735847  0.18634733  1
  Hf  Hf1  1  0.75000000  0.51264153  0.81365267  1
  Hf  Hf2  1  0.75000000  0.01264153  0.68634733  1
  Hf  Hf3  1  0.25000000  0.98735847  0.31365267  1
  Ni  Ni0  1  0.25000000  0.83153811  0.92339165  1
  Ni  Ni1  1  0.75000000  0.16846189  0.07660835  1
  Ni  Ni2  1  0.75000000  0.66846189  0.42339165  1
  Ni  Ni3  1  0.25000000  0.33153811  0.57660835  1
  As  As0  1  0.25000000  0.71640550  0.60567898  1
  As  As1  1  0.75000000  0.28359450  0.39432102  1
  As  As2  1  0.75000000  0.78359450  0.10567898  1
  As  As3  1  0.25000000  0.21640550  0.89432102  1
loop_
_geom_bond_atom_site_label_1
_geom_bond_atom_site_label_2
_geom_bond_distance
_geom_bond_site_symmetry_2
Hf0 Ni2 2.826920 1_555
Hf0 Ni2 2.826920 1_455
Hf0 Ni1 2.914807 1_455
Hf0 Ni1 2.914807 1_555
Hf0 Ni0 2.919286 1_554
Hf0 Ni3 3.006016 1_555
Hf1 Ni3 2.826920 1_555
Hf1 Ni3 2.826920 1_655
Hf1 Ni0 2.914807 1_555
Hf1 Ni0 2.914807 1_655
Hf1 Ni1 2.919286 1_556
Hf1 Ni2 3.006016 1_555
Hf2 Ni0 2.826920 1_645
Hf2 Ni0 2.826920 1_545
Hf2 Ni3 2.914807 1_655
Hf2 Ni3 2.914807 1_555
Hf2 Ni2 2.919286 1_545
Hf2 Ni1 3.006016 1_556
Hf3 Ni1 2.826920 1_465
Hf3 Ni1 2.826920 1_565
Hf3 Ni2 2.914807 1_455
Hf3 Ni2 2.914807 1_555
Hf3 Ni3 2.919286 1_565
Hf3 Ni0 3.006016 1_554
As0 Ni2 2.350541 1_455
As0 Ni2 2.350541 1_555
As0 Ni0 2.423249 1_555
As0 Ni3 2.477545 1_555
As0 Hf3 2.742363 1_555
As0 Hf2 2.762345 1_565
As0 Hf2 2.762345 1_465
As0 Hf1 2.769037 1_455
As0 Hf1 2.769037 1_555
As1 Ni3 2.350541 1_555
As1 Ni3 2.350541 1_655
As1 Ni1 2.423249 1_555
As1 Ni2 2.477545 1_555
As1 Hf2 2.742363 1_555
As1 Hf3 2.762345 1_645
As1 Hf3 2.762345 1_545
As1 Hf0 2.769037 1_555
As1 Hf0 2.769037 1_655
As2 Ni0 2.350541 1_654
As2 Ni0 2.350541 1_554
As2 Ni2 2.423249 1_555
As2 Ni1 2.477545 1_565
As2 Hf1 2.742363 1_554
As2 Hf0 2.762345 1_555
As2 Hf0 2.762345 1_655
As2 Hf3 2.769037 1_555
As2 Hf3 2.769037 1_655
As3 Ni1 2.350541 1_456
As3 Ni1 2.350541 1_556
As3 Ni3 2.423249 1_555
As3 Ni0 2.477545 1_545
As3 Hf0 2.742363 1_556
As3 Hf1 2.762345 1_555
As3 Hf1 2.762345 1_455
As3 Hf2 2.769037 1_555
As3 Hf2 2.769037 1_455
