# generated using pymatgen
data_MgPb5
_symmetry_space_group_name_H-M   'P 1'
_cell_length_a   13.55158938
_cell_length_b   13.55158938
_cell_length_c   16.21221160
_cell_angle_alpha   71.49263819
_cell_angle_beta   71.49263819
_cell_angle_gamma   31.48654459
_symmetry_Int_Tables_number   1
_chemical_formula_structural   MgPb5
_chemical_formula_sum   'Mg8 Pb40'
_cell_volume   1468.03707480
_cell_formula_units_Z   8
loop_
 _symmetry_equiv_pos_site_id
 _symmetry_equiv_pos_as_xyz
  1  'x, y, z'
loop_
 _atom_site_type_symbol
 _atom_site_label
 _atom_site_symmetry_multiplicity
 _atom_site_fract_x
 _atom_site_fract_y
 _atom_site_fract_z
 _atom_site_occupancy
  Mg  Mg0_0  1  0.19440000  0.19440000  0.36095450  1
  Mg  Mg0_1  1  0.19440000  0.19440000  0.86095450  1
  Mg  Mg0_2  1  0.19440000  0.69440000  0.36095450  1
  Mg  Mg0_3  1  0.19440000  0.69440000  0.86095450  1
  Mg  Mg0_4  1  0.69440000  0.19440000  0.36095450  1
  Mg  Mg0_5  1  0.69440000  0.19440000  0.86095450  1
  Mg  Mg0_6  1  0.69440000  0.69440000  0.36095450  1
  Mg  Mg0_7  1  0.69440000  0.69440000  0.86095450  1
  Pb  Pb0_0  1  0.49797050  0.49797050  0.49635450  1
  Pb  Pb0_1  1  0.49797050  0.49797050  0.99635450  1
  Pb  Pb0_2  1  0.49797050  0.99797050  0.49635450  1
  Pb  Pb0_3  1  0.49797050  0.99797050  0.99635450  1
  Pb  Pb0_4  1  0.99797050  0.49797050  0.49635450  1
  Pb  Pb0_5  1  0.99797050  0.49797050  0.99635450  1
  Pb  Pb0_6  1  0.99797050  0.99797050  0.49635450  1
  Pb  Pb0_7  1  0.99797050  0.99797050  0.99635450  1
  Pb  Pb1_0  1  0.36320150  0.36320150  0.02536900  1
  Pb  Pb1_1  1  0.36320150  0.36320150  0.52536900  1
  Pb  Pb1_2  1  0.36320150  0.86320150  0.02536900  1
  Pb  Pb1_3  1  0.36320150  0.86320150  0.52536900  1
  Pb  Pb1_4  1  0.86320150  0.36320150  0.02536900  1
  Pb  Pb1_5  1  0.86320150  0.36320150  0.52536900  1
  Pb  Pb1_6  1  0.86320150  0.86320150  0.02536900  1
  Pb  Pb1_7  1  0.86320150  0.86320150  0.52536900  1
  Pb  Pb2_0  1  0.16738650  0.16738650  0.16812100  1
  Pb  Pb2_1  1  0.16738650  0.16738650  0.66812100  1
  Pb  Pb2_2  1  0.16738650  0.66738650  0.16812100  1
  Pb  Pb2_3  1  0.16738650  0.66738650  0.66812100  1
  Pb  Pb2_4  1  0.66738650  0.16738650  0.16812100  1
  Pb  Pb2_5  1  0.66738650  0.16738650  0.66812100  1
  Pb  Pb2_6  1  0.66738650  0.66738650  0.16812100  1
  Pb  Pb2_7  1  0.66738650  0.66738650  0.66812100  1
  Pb  Pb3_0  1  0.02515550  0.02515550  0.19856250  1
  Pb  Pb3_1  1  0.02515550  0.02515550  0.69856250  1
  Pb  Pb3_2  1  0.02515550  0.52515550  0.19856250  1
  Pb  Pb3_3  1  0.02515550  0.52515550  0.69856250  1
  Pb  Pb3_4  1  0.52515550  0.02515550  0.19856250  1
  Pb  Pb3_5  1  0.52515550  0.02515550  0.69856250  1
  Pb  Pb3_6  1  0.52515550  0.52515550  0.19856250  1
  Pb  Pb3_7  1  0.52515550  0.52515550  0.69856250  1
  Pb  Pb4_0  1  0.33521950  0.33521950  0.33397100  1
  Pb  Pb4_1  1  0.33521950  0.33521950  0.83397100  1
  Pb  Pb4_2  1  0.33521950  0.83521950  0.33397100  1
  Pb  Pb4_3  1  0.33521950  0.83521950  0.83397100  1
  Pb  Pb4_4  1  0.83521950  0.33521950  0.33397100  1
  Pb  Pb4_5  1  0.83521950  0.33521950  0.83397100  1
  Pb  Pb4_6  1  0.83521950  0.83521950  0.33397100  1
  Pb  Pb4_7  1  0.83521950  0.83521950  0.83397100  1
loop_
_geom_bond_atom_site_label_1
_geom_bond_atom_site_label_2
_geom_bond_distance
_geom_bond_site_symmetry_2
Mg0_0 Pb3_4 3.330292 1_555
Mg0_0 Pb3_2 3.330292 1_555
Mg0_0 Pb1_3 3.353731 1_545
Mg0_0 Pb1_5 3.353731 1_455
Mg0_0 Pb2_0 3.423913 1_555
Mg0_0 Pb0_4 3.489247 1_455
Mg0_0 Pb0_2 3.489247 1_545
Mg0_0 Pb4_2 3.536239 1_545
Mg0_0 Pb4_4 3.536239 1_455
Mg0_0 Pb4_0 3.553290 1_555
Mg0_1 Pb3_5 3.330292 1_555
Mg0_1 Pb3_3 3.330292 1_555
Mg0_1 Pb1_2 3.353731 1_546
Mg0_1 Pb1_4 3.353731 1_456
Mg0_1 Pb2_1 3.423913 1_555
Mg0_1 Pb0_5 3.489247 1_455
Mg0_1 Pb0_3 3.489247 1_545
Mg0_1 Pb4_3 3.536239 1_545
Mg0_1 Pb4_5 3.536239 1_455
Mg0_1 Pb4_1 3.553290 1_555
Mg0_2 Pb3_0 3.330292 1_565
Mg0_2 Pb3_6 3.330292 1_555
Mg0_2 Pb1_7 3.353731 1_455
Mg0_2 Pb1_1 3.353731 1_555
Mg0_2 Pb2_2 3.423913 1_555
Mg0_2 Pb0_0 3.489247 1_555
Mg0_2 Pb0_6 3.489247 1_455
Mg0_2 Pb4_6 3.536239 1_455
Mg0_2 Pb4_0 3.536239 1_555
Mg0_2 Pb4_2 3.553290 1_555
Mg0_3 Pb3_1 3.330292 1_565
Mg0_3 Pb3_7 3.330292 1_555
Mg0_3 Pb1_0 3.353731 1_556
Mg0_3 Pb1_6 3.353731 1_456
Mg0_3 Pb2_3 3.423913 1_555
Mg0_3 Pb0_1 3.489247 1_555
Mg0_3 Pb0_7 3.489247 1_455
Mg0_3 Pb4_1 3.536239 1_555
Mg0_3 Pb4_7 3.536239 1_455
Mg0_3 Pb4_3 3.553290 1_555
Mg0_4 Pb3_0 3.330292 1_655
Mg0_4 Pb3_6 3.330292 1_555
Mg0_4 Pb1_7 3.353731 1_545
Mg0_4 Pb1_1 3.353731 1_555
Mg0_4 Pb2_4 3.423913 1_555
Mg0_4 Pb0_0 3.489247 1_555
Mg0_4 Pb0_6 3.489247 1_545
Mg0_4 Pb4_0 3.536239 1_555
Mg0_4 Pb4_6 3.536239 1_545
Mg0_4 Pb4_4 3.553290 1_555
Mg0_5 Pb3_1 3.330292 1_655
Mg0_5 Pb3_7 3.330292 1_555
Mg0_5 Pb1_0 3.353731 1_556
Mg0_5 Pb1_6 3.353731 1_546
Mg0_5 Pb2_5 3.423913 1_555
Mg0_5 Pb0_7 3.489247 1_545
Mg0_5 Pb0_1 3.489247 1_555
Mg0_5 Pb4_1 3.536239 1_555
Mg0_5 Pb4_7 3.536239 1_545
Mg0_5 Pb4_5 3.553290 1_555
Mg0_6 Pb3_4 3.330292 1_565
Mg0_6 Pb3_2 3.330292 1_655
Mg0_6 Pb1_3 3.353731 1_555
Mg0_6 Pb1_5 3.353731 1_555
Mg0_6 Pb2_6 3.423913 1_555
Mg0_6 Pb0_4 3.489247 1_555
Mg0_6 Pb0_2 3.489247 1_555
Mg0_6 Pb4_2 3.536239 1_555
Mg0_6 Pb4_4 3.536239 1_555
Mg0_6 Pb4_6 3.553290 1_555
Mg0_7 Pb3_5 3.330292 1_565
Mg0_7 Pb3_3 3.330292 1_655
Mg0_7 Pb1_2 3.353731 1_556
Mg0_7 Pb1_4 3.353731 1_556
Mg0_7 Pb2_7 3.423913 1_555
Mg0_7 Pb0_5 3.489247 1_555
Mg0_7 Pb0_3 3.489247 1_555
Mg0_7 Pb4_3 3.536239 1_555
Mg0_7 Pb4_5 3.536239 1_555
Mg0_7 Pb4_7 3.553290 1_555
Pb0_0 Pb1_1 3.389726 1_555
Pb0_0 Pb4_4 3.396845 1_555
Pb0_0 Pb4_2 3.396845 1_555
Pb0_0 Pb2_3 3.419416 1_555
Pb0_0 Pb2_5 3.419416 1_555
Pb0_0 Pb3_7 3.575358 1_555
Pb0_0 Pb0_6 3.676918 1_455
Pb0_0 Pb0_6 3.676918 1_545
Pb0_0 Pb1_5 3.683707 1_555
Pb0_0 Pb1_3 3.683707 1_555
Pb0_1 Pb1_0 3.389726 1_556
Pb0_1 Pb4_3 3.396845 1_555
Pb0_1 Pb4_5 3.396845 1_555
Pb0_1 Pb2_2 3.419416 1_556
Pb0_1 Pb2_4 3.419416 1_556
Pb0_1 Pb3_6 3.575358 1_556
Pb0_1 Pb0_7 3.676918 1_545
Pb0_1 Pb0_7 3.676918 1_455
Pb0_1 Pb1_4 3.683707 1_556
Pb0_1 Pb1_2 3.683707 1_556
Pb0_2 Pb1_3 3.389726 1_555
Pb0_2 Pb4_0 3.396845 1_565
Pb0_2 Pb4_6 3.396845 1_555
Pb0_2 Pb2_7 3.419416 1_555
Pb0_2 Pb2_1 3.419416 1_565
Pb0_2 Pb3_5 3.575358 1_565
Pb0_2 Pb0_4 3.676918 1_555
Pb0_2 Pb0_4 3.676918 1_465
Pb0_2 Pb1_1 3.683707 1_565
Pb0_2 Pb1_7 3.683707 1_555
Pb0_3 Pb1_2 3.389726 1_556
Pb0_3 Pb4_1 3.396845 1_565
Pb0_3 Pb4_7 3.396845 1_555
Pb0_3 Pb2_0 3.419416 1_566
Pb0_3 Pb2_6 3.419416 1_556
Pb0_3 Pb3_4 3.575358 1_566
Pb0_3 Pb0_5 3.676918 1_555
Pb0_3 Pb0_5 3.676918 1_465
Pb0_3 Pb1_6 3.683707 1_556
Pb0_3 Pb1_0 3.683707 1_566
Pb0_4 Pb1_5 3.389726 1_555
Pb0_4 Pb4_6 3.396845 1_555
Pb0_4 Pb4_0 3.396845 1_655
Pb0_4 Pb2_7 3.419416 1_555
Pb0_4 Pb2_1 3.419416 1_655
Pb0_4 Pb3_3 3.575358 1_655
Pb0_4 Pb1_1 3.683707 1_655
Pb0_4 Pb1_7 3.683707 1_555
Pb0_5 Pb1_4 3.389726 1_556
Pb0_5 Pb4_1 3.396845 1_655
Pb0_5 Pb4_7 3.396845 1_555
Pb0_5 Pb2_0 3.419416 1_656
Pb0_5 Pb2_6 3.419416 1_556
Pb0_5 Pb3_2 3.575358 1_656
Pb0_5 Pb1_6 3.683707 1_556
Pb0_5 Pb1_0 3.683707 1_656
Pb0_6 Pb1_7 3.389726 1_555
Pb0_6 Pb4_4 3.396845 1_565
Pb0_6 Pb4_2 3.396845 1_655
Pb0_6 Pb2_5 3.419416 1_565
Pb0_6 Pb2_3 3.419416 1_655
Pb0_6 Pb3_1 3.575358 1_665
Pb0_6 Pb1_5 3.683707 1_565
Pb0_6 Pb1_3 3.683707 1_655
Pb0_7 Pb1_6 3.389726 1_556
Pb0_7 Pb4_5 3.396845 1_565
Pb0_7 Pb4_3 3.396845 1_655
Pb0_7 Pb2_2 3.419416 1_656
Pb0_7 Pb2_4 3.419416 1_566
Pb0_7 Pb3_0 3.575358 1_666
Pb0_7 Pb1_4 3.683707 1_566
Pb0_7 Pb1_2 3.683707 1_656
Pb1_0 Pb4_1 3.413993 1_554
Pb1_0 Pb3_2 3.505065 1_555
Pb1_0 Pb3_4 3.505065 1_555
Pb1_0 Pb2_4 3.590506 1_555
Pb1_0 Pb2_2 3.590506 1_555
Pb1_0 Pb1_6 3.676918 1_455
Pb1_0 Pb1_6 3.676918 1_545
Pb1_1 Pb4_0 3.413993 1_555
Pb1_1 Pb3_3 3.505065 1_555
Pb1_1 Pb3_5 3.505065 1_555
Pb1_1 Pb2_5 3.590506 1_555
Pb1_1 Pb2_3 3.590506 1_555
Pb1_1 Pb1_7 3.676918 1_455
Pb1_1 Pb1_7 3.676918 1_545
Pb1_2 Pb4_3 3.413993 1_554
Pb1_2 Pb3_6 3.505065 1_555
Pb1_2 Pb3_0 3.505065 1_565
Pb1_2 Pb2_6 3.590506 1_555
Pb1_2 Pb2_0 3.590506 1_565
Pb1_2 Pb1_4 3.676918 1_555
Pb1_2 Pb1_4 3.676918 1_465
Pb1_3 Pb4_2 3.413993 1_555
Pb1_3 Pb3_7 3.505065 1_555
Pb1_3 Pb3_1 3.505065 1_565
Pb1_3 Pb2_1 3.590506 1_565
Pb1_3 Pb2_7 3.590506 1_555
Pb1_3 Pb1_5 3.676918 1_555
Pb1_3 Pb1_5 3.676918 1_465
Pb1_4 Pb4_5 3.413993 1_554
Pb1_4 Pb3_6 3.505065 1_555
Pb1_4 Pb3_0 3.505065 1_655
Pb1_4 Pb2_6 3.590506 1_555
Pb1_4 Pb2_0 3.590506 1_655
Pb1_5 Pb4_4 3.413993 1_555
Pb1_5 Pb3_7 3.505065 1_555
Pb1_5 Pb3_1 3.505065 1_655
Pb1_5 Pb2_1 3.590506 1_655
Pb1_5 Pb2_7 3.590506 1_555
Pb1_6 Pb4_7 3.413993 1_554
Pb1_6 Pb3_2 3.505065 1_655
Pb1_6 Pb3_4 3.505065 1_565
Pb1_6 Pb2_2 3.590506 1_655
Pb1_6 Pb2_4 3.590506 1_565
Pb1_7 Pb4_6 3.413993 1_555
Pb1_7 Pb3_3 3.505065 1_655
Pb1_7 Pb3_5 3.505065 1_565
Pb1_7 Pb2_3 3.590506 1_655
Pb1_7 Pb2_5 3.590506 1_565
Pb2_0 Pb4_2 3.376754 1_545
Pb2_0 Pb4_4 3.376754 1_455
Pb2_0 Pb3_4 3.527340 1_555
Pb2_0 Pb3_2 3.527340 1_555
Pb2_0 Pb3_0 3.578004 1_555
Pb2_0 Pb2_6 3.676918 1_545
Pb2_0 Pb2_6 3.676918 1_455
Pb2_1 Pb4_3 3.376754 1_545
Pb2_1 Pb4_5 3.376754 1_455
Pb2_1 Pb3_5 3.527340 1_555
Pb2_1 Pb3_3 3.527340 1_555
Pb2_1 Pb3_1 3.578004 1_555
Pb2_1 Pb2_7 3.676918 1_455
Pb2_1 Pb2_7 3.676918 1_545
Pb2_2 Pb4_0 3.376754 1_555
Pb2_2 Pb4_6 3.376754 1_455
Pb2_2 Pb3_0 3.527340 1_565
Pb2_2 Pb3_6 3.527340 1_555
Pb2_2 Pb3_2 3.578004 1_555
Pb2_2 Pb2_4 3.676918 1_555
Pb2_2 Pb2_4 3.676918 1_465
Pb2_3 Pb4_1 3.376754 1_555
Pb2_3 Pb4_7 3.376754 1_455
Pb2_3 Pb3_1 3.527340 1_565
Pb2_3 Pb3_7 3.527340 1_555
Pb2_3 Pb3_3 3.578004 1_555
Pb2_3 Pb2_5 3.676918 1_555
Pb2_3 Pb2_5 3.676918 1_465
Pb2_4 Pb4_0 3.376754 1_555
Pb2_4 Pb4_6 3.376754 1_545
Pb2_4 Pb3_0 3.527340 1_655
Pb2_4 Pb3_6 3.527340 1_555
Pb2_4 Pb3_4 3.578004 1_555
Pb2_5 Pb4_1 3.376754 1_555
Pb2_5 Pb4_7 3.376754 1_545
Pb2_5 Pb3_1 3.527340 1_655
Pb2_5 Pb3_7 3.527340 1_555
Pb2_5 Pb3_5 3.578004 1_555
Pb2_6 Pb4_2 3.376754 1_555
Pb2_6 Pb4_4 3.376754 1_555
Pb2_6 Pb3_4 3.527340 1_565
Pb2_6 Pb3_2 3.527340 1_655
Pb2_6 Pb3_6 3.578004 1_555
Pb2_7 Pb4_3 3.376754 1_555
Pb2_7 Pb4_5 3.376754 1_555
Pb2_7 Pb3_5 3.527340 1_565
Pb2_7 Pb3_3 3.527340 1_655
Pb2_7 Pb3_7 3.578004 1_555
Pb3_0 Pb4_4 3.594856 1_455
Pb3_0 Pb4_2 3.594856 1_545
Pb3_0 Pb3_6 3.676918 1_545
Pb3_0 Pb3_6 3.676918 1_455
Pb3_1 Pb4_5 3.594856 1_455
Pb3_1 Pb4_3 3.594856 1_545
Pb3_1 Pb3_7 3.676918 1_545
Pb3_1 Pb3_7 3.676918 1_455
Pb3_2 Pb4_6 3.594856 1_455
Pb3_2 Pb4_0 3.594856 1_555
Pb3_2 Pb3_4 3.676918 1_555
Pb3_2 Pb3_4 3.676918 1_465
Pb3_3 Pb4_7 3.594856 1_455
Pb3_3 Pb4_1 3.594856 1_555
Pb3_3 Pb3_5 3.676918 1_555
Pb3_3 Pb3_5 3.676918 1_465
Pb3_4 Pb4_6 3.594856 1_545
Pb3_4 Pb4_0 3.594856 1_555
Pb3_5 Pb4_1 3.594856 1_555
Pb3_5 Pb4_7 3.594856 1_545
Pb3_6 Pb4_4 3.594856 1_555
Pb3_6 Pb4_2 3.594856 1_555
Pb3_7 Pb4_5 3.594856 1_555
Pb3_7 Pb4_3 3.594856 1_555
Pb4_0 Pb4_6 3.676918 1_545
Pb4_0 Pb4_6 3.676918 1_455
Pb4_1 Pb4_7 3.676918 1_455
Pb4_1 Pb4_7 3.676918 1_545
Pb4_2 Pb4_4 3.676918 1_465
Pb4_2 Pb4_4 3.676918 1_555
Pb4_3 Pb4_5 3.676918 1_555
Pb4_3 Pb4_5 3.676918 1_465
