# generated using pymatgen
data_Er5Co19P12
_symmetry_space_group_name_H-M   'P 1'
_cell_length_a   11.84183772
_cell_length_b   11.84140219
_cell_length_c   3.65158623
_cell_angle_alpha   89.99999277
_cell_angle_beta   89.99997265
_cell_angle_gamma   120.00084285
_symmetry_Int_Tables_number   1
_chemical_formula_structural   Er5Co19P12
_chemical_formula_sum   'Er5 Co19 P12'
_cell_volume   443.43578871
_cell_formula_units_Z   1
loop_
 _symmetry_equiv_pos_site_id
 _symmetry_equiv_pos_as_xyz
  1  'x, y, z'
loop_
 _atom_site_type_symbol
 _atom_site_label
 _atom_site_symmetry_multiplicity
 _atom_site_fract_x
 _atom_site_fract_y
 _atom_site_fract_z
 _atom_site_occupancy
  Er  Er0  1  0.33334914  0.66669717  0.00000141  1
  Er  Er1  1  0.66663274  0.33330433  0.00000092  1
  Er  Er2  1  0.00001477  0.18754111  0.50000079  1
  Er  Er3  1  0.81243586  0.81244752  0.49999699  1
  Er  Er4  1  0.18758803  0.00000821  0.49999058  1
  Co  Co0  1  0.62259996  0.82259948  0.00000099  1
  Co  Co1  1  0.17741695  0.80001804  0.00000021  1
  Co  Co2  1  0.20000470  0.37740693  0.00000158  1
  Co  Co3  1  0.37740634  0.19999699  0.00000010  1
  Co  Co4  1  0.82257319  0.62259621  0.00000104  1
  Co  Co5  1  0.79999703  0.17739426  0.00000150  1
  Co  Co6  1  -0.00001247  0.55348228  0.00000184  1
  Co  Co7  1  0.44648636  0.44649630  0.00000158  1
  Co  Co8  1  0.55352362  -0.00000040  0.00000157  1
  Co  Co9  1  0.51646426  0.64176140  0.49999582  1
  Co  Co10  1  0.35828645  0.87473075  0.50000068  1
  Co  Co11  1  0.12528444  0.48352164  0.50000145  1
  Co  Co12  1  0.48355026  0.12528558  0.50000052  1
  Co  Co13  1  0.64172690  0.51646196  0.50000107  1
  Co  Co14  1  0.87469649  0.35822642  0.50000148  1
  Co  Co15  1  -0.00001103  0.71528496  0.49999957  1
  Co  Co16  1  0.28471180  0.28471919  0.50000005  1
  Co  Co17  1  0.71528218  0.99999870  0.49999942  1
  Co  Co18  1  -0.00000994  0.00001815  0.00000033  1
  P  P0  1  -0.00001079  0.36752570  0.00000139  1
  P  P1  1  0.63242962  0.63245952  -0.00000026  1
  P  P2  1  0.36758490  0.00001869  -0.00000306  1
  P  P3  1  0.51976569  0.83318472  0.50000089  1
  P  P4  1  0.16682957  0.68658181  0.50000042  1
  P  P5  1  0.31343262  0.48025877  0.50000109  1
  P  P6  1  0.48024103  0.31342409  0.50000031  1
  P  P7  1  0.83315478  0.51973478  0.50000083  1
  P  P8  1  0.68657391  0.16680963  0.50000109  1
  P  P9  1  -0.00000192  0.82063816  -0.00000270  1
  P  P10  1  0.17937804  0.17936677  -0.00000161  1
  P  P11  1  0.82062151  -0.00000083  0.00000013  1
loop_
_geom_bond_atom_site_label_1
_geom_bond_atom_site_label_2
_geom_bond_distance
_geom_bond_site_symmetry_2
Er0 P3 2.782289 1_555
Er0 P3 2.782290 1_554
Er0 P4 2.782381 1_555
Er0 P4 2.782387 1_554
Er0 P5 2.782508 1_555
Er0 P5 2.782510 1_554
Er1 P6 2.782289 1_555
Er1 P6 2.782294 1_554
Er1 P8 2.782406 1_554
Er1 P8 2.782407 1_555
Er1 P7 2.782475 1_554
Er1 P7 2.782477 1_555
Er2 P0 2.806505 1_555
Er2 P0 2.806508 1_556
Er2 P10 2.838978 1_556
Er2 P10 2.838988 1_555
Er2 P11 2.839074 1_456
Er2 P11 2.839079 1_455
Er3 P1 2.806507 1_555
Er3 P1 2.806519 1_556
Er3 P11 2.838992 1_565
Er3 P11 2.839007 1_566
Er3 P9 2.839137 1_655
Er3 P9 2.839139 1_656
Er4 P2 2.806498 1_555
Er4 P2 2.806530 1_556
Er4 P10 2.839036 1_555
Er4 P10 2.839073 1_556
Er4 P9 2.839201 1_545
Er4 P9 2.839231 1_546
Co0 P3 2.232661 1_555
Co0 P3 2.232663 1_554
Co0 P11 2.232816 1_565
Co0 P1 2.311925 1_555
Co0 Er3 2.944775 1_555
Co0 Er3 2.944792 1_554
Co0 Er0 2.969337 1_555
Co1 P4 2.232740 1_554
Co1 P4 2.232741 1_555
Co1 P9 2.233088 1_555
Co1 P2 2.312280 1_565
Co1 Er4 2.944633 1_565
Co1 Er4 2.944676 1_564
Co1 Er0 2.969369 1_555
Co2 P5 2.232725 1_555
Co2 P5 2.232727 1_554
Co2 P10 2.232983 1_555
Co2 P0 2.312267 1_555
Co2 Er2 2.944867 1_555
Co2 Er2 2.944872 1_554
Co2 Er0 2.969649 1_555
Co3 P6 2.232667 1_554
Co3 P6 2.232669 1_555
Co3 P10 2.232915 1_555
Co3 P2 2.312065 1_555
Co3 Er4 2.944631 1_555
Co3 Er4 2.944676 1_554
Co3 Er1 2.969112 1_555
Co4 P7 2.232807 1_555
Co4 P7 2.232809 1_554
Co4 P9 2.233062 1_655
Co4 P1 2.312262 1_555
Co4 Er3 2.944781 1_555
Co4 Er3 2.944799 1_554
Co4 Er1 2.969664 1_555
Co5 P8 2.232687 1_555
Co5 P8 2.232691 1_554
Co5 P11 2.232766 1_555
Co5 P0 2.312035 1_655
Co5 Er2 2.945083 1_655
Co5 Er2 2.945085 1_654
Co5 Er1 2.969559 1_555
Co6 P0 2.201997 1_555
Co6 P7 2.570352 1_455
Co6 P7 2.570359 1_454
Co6 P4 2.570414 1_555
Co6 P4 2.570420 1_554
Co7 P1 2.201960 1_555
Co7 P5 2.570175 1_555
Co7 P5 2.570178 1_554
Co7 P6 2.570248 1_555
Co7 P6 2.570255 1_554
Co8 P2 2.201969 1_555
Co8 P8 2.570088 1_555
Co8 P8 2.570089 1_554
Co8 P3 2.570126 1_545
Co8 P3 2.570130 1_544
Co9 P5 2.199946 1_555
Co9 P3 2.247428 1_555
Co9 P1 2.320055 1_555
Co9 P1 2.320079 1_556
Co9 Er0 2.960232 1_555
Co9 Er0 2.960256 1_556
Co9 Er3 3.047131 1_555
Co10 P3 2.199850 1_555
Co10 P4 2.247803 1_555
Co10 P2 2.320185 1_566
Co10 P2 2.320206 1_565
Co10 Er0 2.960005 1_555
Co10 Er0 2.960008 1_556
Co10 Er4 3.047190 1_565
Co11 P4 2.200172 1_555
Co11 P5 2.247588 1_555
Co11 P0 2.320254 1_556
Co11 P0 2.320256 1_555
Co11 Er0 2.960500 1_555
Co11 Er0 2.960502 1_556
Co11 Er2 3.047141 1_555
Co12 P8 2.199921 1_555
Co12 P6 2.247674 1_555
Co12 P2 2.320026 1_556
Co12 P2 2.320047 1_555
Co12 Er1 2.959880 1_555
Co12 Er1 2.959883 1_556
Co12 Er4 3.047058 1_555
Co13 P6 2.199895 1_555
Co13 P7 2.247731 1_555
Co13 P1 2.320250 1_556
Co13 P1 2.320257 1_555
Co13 Er1 2.960415 1_556
Co13 Er1 2.960416 1_555
Co13 Er3 3.047191 1_555
Co14 P7 2.200098 1_555
Co14 P8 2.247404 1_555
Co14 P0 2.320262 1_655
Co14 P0 2.320262 1_656
Co14 Er1 2.960415 1_556
Co14 Er1 2.960419 1_555
Co14 Er2 3.047422 1_655
Co15 P7 2.165685 1_455
Co15 P4 2.165742 1_555
Co15 P9 2.211264 1_556
Co15 P9 2.211277 1_555
Co15 Er3 2.968477 1_455
Co15 Er4 2.968538 1_565
Co16 P5 2.165529 1_555
Co16 P6 2.165568 1_555
Co16 P10 2.211231 1_556
Co16 P10 2.211243 1_555
Co16 Er2 2.968248 1_555
Co16 Er4 2.968395 1_555
Co17 P8 2.165367 1_565
Co17 P3 2.165374 1_555
Co17 P11 2.211230 1_565
Co17 P11 2.211235 1_566
Co17 Er3 2.968330 1_555
Co17 Er2 2.968581 1_665
Co18 P11 2.123941 1_455
Co18 P10 2.123984 1_555
Co18 P9 2.124158 1_545
Co18 Er2 2.874654 1_554
Co18 Er2 2.874657 1_555
Co18 Er3 2.875131 1_445
Co18 Er3 2.875148 1_444
Co18 Er4 2.875542 1_555
Co18 Er4 2.875585 1_554
