# generated using pymatgen
data_Ca2Be2P2O9F
_symmetry_space_group_name_H-M   'P 1'
_cell_length_a   7.77280400
_cell_length_b   4.86649500
_cell_length_c   9.78981710
_cell_angle_alpha   89.67028671
_cell_angle_beta   90.00000000
_cell_angle_gamma   90.00000000
_symmetry_Int_Tables_number   1
_chemical_formula_structural   Ca2Be2P2O9F
_chemical_formula_sum   'Ca4 Be4 P4 O18 F2'
_cell_volume   370.30654246
_cell_formula_units_Z   2
loop_
 _symmetry_equiv_pos_site_id
 _symmetry_equiv_pos_as_xyz
  1  'x, y, z'
loop_
 _atom_site_type_symbol
 _atom_site_label
 _atom_site_symmetry_multiplicity
 _atom_site_fract_x
 _atom_site_fract_y
 _atom_site_fract_z
 _atom_site_occupancy
  Ca  Ca0  1  0.63707300  0.99598700  0.16869700  1
  Ca  Ca1  1  0.13409600  0.00189300  0.32965600  1
  Ca  Ca2  1  0.86590400  0.00189300  0.82965600  1
  Ca  Ca3  1  0.36292700  0.99598700  0.66869700  1
  Be  Be0  1  0.33475700  0.54124300  0.16035400  1
  Be  Be1  1  0.83613100  0.45978500  0.33851500  1
  Be  Be2  1  0.16386900  0.45978500  0.83851500  1
  Be  Be3  1  0.66524300  0.54124300  0.66035400  1
  P  P0  1  0.48062400  0.47133800  0.41703100  1
  P  P1  1  0.97923600  0.53021800  0.08142800  1
  P  P2  1  0.02076400  0.53021800  0.58142800  1
  P  P3  1  0.51937600  0.47133800  0.91703100  1
  O  O0  1  0.46889800  0.64852900  0.04254500  1
  O  O1  1  0.96761700  0.35423100  0.45606100  1
  O  O2  1  0.03238300  0.35423100  0.95606100  1
  O  O3  1  0.53110200  0.64852900  0.54254500  1
  O  O4  1  0.64508300  0.33720100  0.35541000  1
  O  O5  1  0.14207400  0.66672000  0.14524400  1
  O  O6  1  0.85792600  0.66672000  0.64524400  1
  O  O7  1  0.35491700  0.33720100  0.85541000  1
  O  O8  1  0.40492200  0.67097400  0.30615400  1
  O  O9  1  0.90416400  0.32835900  0.19212500  1
  O  O10  1  0.09583600  0.32835900  0.69212500  1
  O  O11  1  0.59507800  0.67097400  0.80615400  1
  O  O12  1  0.35345100  0.24308100  0.45615700  1
  O  O13  1  0.85165800  0.75482100  0.03977800  1
  O  O14  1  0.14834200  0.75482100  0.53977800  1
  O  O15  1  0.64654900  0.24308100  0.95615700  1
  O  O16  1  0.34564200  0.21207300  0.18326600  1
  O  O17  1  0.65435800  0.21207300  0.68326600  1
  F  F0  1  0.83935900  0.78354600  0.32757900  1
  F  F1  1  0.16064100  0.78354600  0.82757900  1
loop_
_geom_bond_atom_site_label_1
_geom_bond_atom_site_label_2
_geom_bond_distance
_geom_bond_site_symmetry_2
Ca0 O15 2.398337 1_564
Ca0 O13 2.401942 1_555
Ca0 F0 2.437600 1_555
Ca0 O0 2.473292 1_555
Ca0 O4 2.477356 1_565
Ca0 O16 2.501837 1_565
Ca0 O9 2.642556 1_565
Ca0 O8 2.746660 1_555
Ca1 O14 2.379281 1_545
Ca1 O16 2.405605 1_555
Ca1 O12 2.415599 1_555
Ca1 O5 2.440821 1_545
Ca1 O1 2.484003 1_455
Ca1 F0 2.525494 1_445
Ca1 O8 2.661201 1_545
Ca1 O9 2.739788 1_455
Ca2 O13 2.379281 1_546
Ca2 O17 2.405605 1_555
Ca2 O15 2.415599 1_555
Ca2 O6 2.440821 1_545
Ca2 O2 2.484003 1_655
Ca2 F1 2.525494 1_645
Ca2 O11 2.661201 1_545
Ca2 O10 2.739788 1_655
Ca3 O12 2.398337 1_565
Ca3 O14 2.401942 1_555
Ca3 F1 2.437600 1_555
Ca3 O3 2.473292 1_555
Ca3 O7 2.477356 1_565
Ca3 O17 2.501837 1_565
Ca3 O10 2.642556 1_565
Ca3 O11 2.746660 1_555
Be0 O16 1.618466 1_555
Be0 O5 1.623817 1_555
Be0 O0 1.637973 1_555
Be0 O8 1.656423 1_555
Be1 F0 1.578799 1_555
Be1 O4 1.608496 1_555
Be1 O1 1.620435 1_555
Be1 O9 1.659253 1_555
Be2 F1 1.578799 1_555
Be2 O7 1.608496 1_555
Be2 O2 1.620435 1_555
Be2 O10 1.659253 1_555
Be3 O17 1.618466 1_555
Be3 O6 1.623817 1_555
Be3 O3 1.637973 1_555
Be3 O11 1.656423 1_555
O0 P3 1.555489 1_554
O1 P2 1.556456 1_655
O2 P1 1.556456 1_456
O3 P0 1.555489 1_555
O4 P0 1.558410 1_555
O5 P1 1.561531 1_455
O6 P2 1.561531 1_655
O7 P3 1.558410 1_555
O8 P0 1.567226 1_555
O9 P1 1.570879 1_555
O10 P2 1.570879 1_555
O11 P3 1.567226 1_555
O12 P0 1.533896 1_555
O13 P1 1.529440 1_555
O14 P2 1.529440 1_555
O15 P3 1.533896 1_555
