# generated using pymatgen
data_Yb20(CdAu3)3
_symmetry_space_group_name_H-M   'P 1'
_cell_length_a   7.98689400
_cell_length_b   7.98689400
_cell_length_c   14.14689900
_cell_angle_alpha   90.00000000
_cell_angle_beta   90.00000000
_cell_angle_gamma   90.00000000
_symmetry_Int_Tables_number   1
_chemical_formula_structural   Yb20(CdAu3)3
_chemical_formula_sum   'Yb20 Cd3 Au9'
_cell_volume   902.43741784
_cell_formula_units_Z   1
loop_
 _symmetry_equiv_pos_site_id
 _symmetry_equiv_pos_as_xyz
  1  'x, y, z'
loop_
 _atom_site_type_symbol
 _atom_site_label
 _atom_site_symmetry_multiplicity
 _atom_site_fract_x
 _atom_site_fract_y
 _atom_site_fract_z
 _atom_site_occupancy
  Yb  Yb0  1  0.00000000  0.00000000  0.75313700  1
  Yb  Yb1  1  0.50000000  0.50000000  0.24829200  1
  Yb  Yb2  1  0.00000000  0.00000000  0.24686300  1
  Yb  Yb3  1  0.50000000  0.50000000  0.75170800  1
  Yb  Yb4  1  0.17167800  0.65779000  0.10883900  1
  Yb  Yb5  1  0.66361800  0.16419800  0.61230700  1
  Yb  Yb6  1  0.82832200  0.34221000  0.10883900  1
  Yb  Yb7  1  0.33638200  0.83580200  0.61230700  1
  Yb  Yb8  1  0.34221000  0.17167800  0.10883900  1
  Yb  Yb9  1  0.83580200  0.66361800  0.61230700  1
  Yb  Yb10  1  0.65779000  0.82832200  0.10883900  1
  Yb  Yb11  1  0.16419800  0.33638200  0.61230700  1
  Yb  Yb12  1  0.34221000  0.82832200  0.89116100  1
  Yb  Yb13  1  0.83580200  0.33638200  0.38769300  1
  Yb  Yb14  1  0.65779000  0.17167800  0.89116100  1
  Yb  Yb15  1  0.16419800  0.66361800  0.38769300  1
  Yb  Yb16  1  0.17167800  0.34221000  0.89116100  1
  Yb  Yb17  1  0.66361800  0.83580200  0.38769300  1
  Yb  Yb18  1  0.82832200  0.65779000  0.89116100  1
  Yb  Yb19  1  0.33638200  0.16419800  0.38769300  1
  Cd  Cd0  1  0.00000000  0.00000000  0.50000000  1
  Cd  Cd1  1  0.00000000  0.00000000  0.00000000  1
  Cd  Cd2  1  0.50000000  0.50000000  0.50000000  1
  Au  Au0  1  0.63464300  0.13389000  0.24893500  1
  Au  Au1  1  0.13389000  0.63464300  0.75106500  1
  Au  Au2  1  0.86611000  0.36535700  0.75106500  1
  Au  Au3  1  0.36535700  0.86611000  0.24893500  1
  Au  Au4  1  0.36535700  0.13389000  0.75106500  1
  Au  Au5  1  0.86611000  0.63464300  0.24893500  1
  Au  Au6  1  0.13389000  0.36535700  0.24893500  1
  Au  Au7  1  0.63464300  0.86611000  0.75106500  1
  Au  Au8  1  0.50000000  0.50000000  0.00000000  1
loop_
_geom_bond_atom_site_label_1
_geom_bond_atom_site_label_2
_geom_bond_distance
_geom_bond_site_symmetry_2
Cd0 Yb17 3.385587 1_445
Cd0 Yb13 3.385587 1_455
Cd0 Yb19 3.385587 1_555
Cd0 Yb9 3.385587 1_445
Cd0 Yb15 3.385587 1_545
Cd0 Yb5 3.385587 1_455
Cd0 Yb11 3.385587 1_555
Cd0 Yb7 3.385587 1_545
Cd0 Yb0 3.581104 1_555
Cd0 Yb2 3.581104 1_555
Cd1 Yb6 3.423632 1_455
Cd1 Yb4 3.423632 1_545
Cd1 Yb14 3.423632 1_454
Cd1 Yb10 3.423632 1_445
Cd1 Yb12 3.423632 1_544
Cd1 Yb18 3.423632 1_444
Cd1 Yb16 3.423632 1_554
Cd1 Yb8 3.423632 1_555
Cd1 Yb2 3.492346 1_555
Cd1 Yb0 3.492346 1_554
Cd2 Yb19 3.380119 1_555
Cd2 Yb15 3.380119 1_555
Cd2 Yb13 3.380119 1_555
Cd2 Yb17 3.380119 1_555
Cd2 Yb11 3.380119 1_555
Cd2 Yb5 3.380119 1_555
Cd2 Yb9 3.380119 1_555
Cd2 Yb7 3.380119 1_555
Cd2 Yb1 3.560888 1_555
Cd2 Yb3 3.560888 1_555
Au0 Yb13 3.008360 1_555
Au0 Yb6 3.014835 1_555
Au0 Yb8 3.078033 1_555
Au0 Yb17 3.094366 1_545
Au0 Yb19 3.096244 1_555
Au0 Yb2 3.107977 1_655
Au0 Yb1 3.115570 1_555
Au0 Yb10 3.149354 1_545
Au1 Yb7 3.008360 1_555
Au1 Yb12 3.014835 1_555
Au1 Yb16 3.078033 1_555
Au1 Yb9 3.094366 1_455
Au1 Yb11 3.096244 1_555
Au1 Yb0 3.107977 1_565
Au1 Yb3 3.115570 1_555
Au1 Yb18 3.149354 1_455
Au2 Yb5 3.008360 1_555
Au2 Yb14 3.014835 1_555
Au2 Yb18 3.078033 1_555
Au2 Yb11 3.094366 1_655
Au2 Yb9 3.096244 1_555
Au2 Yb0 3.107977 1_655
Au2 Yb3 3.115570 1_555
Au2 Yb16 3.149354 1_655
Au3 Yb15 3.008360 1_555
Au3 Yb4 3.014835 1_555
Au3 Yb10 3.078033 1_555
Au3 Yb19 3.094366 1_565
Au3 Yb17 3.096244 1_555
Au3 Yb2 3.107977 1_565
Au3 Yb1 3.115570 1_555
Au3 Yb8 3.149354 1_565
Au4 Yb11 3.008360 1_555
Au4 Yb16 3.014835 1_555
Au4 Yb14 3.078033 1_555
Au4 Yb7 3.094366 1_545
Au4 Yb5 3.096244 1_555
Au4 Yb0 3.107977 1_555
Au4 Yb3 3.115570 1_555
Au4 Yb12 3.149354 1_545
Au5 Yb17 3.008360 1_555
Au5 Yb10 3.014835 1_555
Au5 Yb6 3.078033 1_555
Au5 Yb15 3.094366 1_655
Au5 Yb13 3.096244 1_555
Au5 Yb2 3.107977 1_665
Au5 Yb1 3.115570 1_555
Au5 Yb4 3.149354 1_655
Au6 Yb19 3.008360 1_555
Au6 Yb8 3.014835 1_555
Au6 Yb4 3.078033 1_555
Au6 Yb13 3.094366 1_455
Au6 Yb15 3.096244 1_555
Au6 Yb2 3.107977 1_555
Au6 Yb1 3.115570 1_555
Au6 Yb6 3.149354 1_455
Au7 Yb9 3.008360 1_555
Au7 Yb18 3.014835 1_555
Au7 Yb12 3.078033 1_555
Au7 Yb5 3.094366 1_565
Au7 Yb7 3.096244 1_555
Au7 Yb0 3.107977 1_665
Au7 Yb3 3.115570 1_555
Au7 Yb14 3.149354 1_565
Au8 Yb18 3.291707 1_554
Au8 Yb8 3.291707 1_555
Au8 Yb16 3.291707 1_554
Au8 Yb12 3.291707 1_554
Au8 Yb6 3.291707 1_555
Au8 Yb4 3.291707 1_555
Au8 Yb14 3.291707 1_554
Au8 Yb10 3.291707 1_555
Au8 Yb3 3.512562 1_554
Au8 Yb1 3.512562 1_555
