# generated using pymatgen
data_LaSiPt3
_symmetry_space_group_name_H-M   'P 1'
_cell_length_a   4.14265914
_cell_length_b   4.14265914
_cell_length_c   5.45411186
_cell_angle_alpha   90.00000000
_cell_angle_beta   90.00000000
_cell_angle_gamma   90.00000000
_symmetry_Int_Tables_number   1
_chemical_formula_structural   LaSiPt3
_chemical_formula_sum   'La1 Si1 Pt3'
_cell_volume   93.60142109
_cell_formula_units_Z   1
loop_
 _symmetry_equiv_pos_site_id
 _symmetry_equiv_pos_as_xyz
  1  'x, y, z'
loop_
 _atom_site_type_symbol
 _atom_site_label
 _atom_site_symmetry_multiplicity
 _atom_site_fract_x
 _atom_site_fract_y
 _atom_site_fract_z
 _atom_site_occupancy
  La  La0  1  0.50000000  0.50000000  0.69521512  1
  Si  Si0  1  0.00000000  -0.00000000  0.97332340  1
  Pt  Pt0  1  0.50000000  0.00000000  0.19527771  1
  Pt  Pt1  1  0.00000000  0.50000000  0.19527771  1
  Pt  Pt2  1  -0.00000000  0.00000000  0.54910806  1
loop_
_geom_bond_atom_site_label_1
_geom_bond_atom_site_label_2
_geom_bond_distance
_geom_bond_site_symmetry_2
La0 Pt2 3.035760 1_655
La0 Pt2 3.035760 1_665
La0 Pt2 3.035760 1_555
La0 Pt2 3.035760 1_565
La0 Si0 3.298727 1_565
La0 Si0 3.298727 1_665
La0 Si0 3.298727 1_555
La0 Si0 3.298727 1_655
La0 Pt0 3.424234 1_565
La0 Pt1 3.424234 1_555
La0 Pt1 3.424234 1_655
La0 Pt0 3.424234 1_555
La0 Pt1 3.424778 1_556
La0 Pt1 3.424778 1_656
La0 Pt0 3.424778 1_556
La0 Pt0 3.424778 1_566
Pt0 Si0 2.399140 1_554
Pt0 Si0 2.399140 1_654
Pt1 Si0 2.399140 1_564
Pt1 Si0 2.399140 1_554
Pt2 Si0 2.313718 1_555
