# generated using pymatgen
data_Sr2PrSbO6
_symmetry_space_group_name_H-M   'P 1'
_cell_length_a   8.53140634
_cell_length_b   8.53140634
_cell_length_c   8.53140634
_cell_angle_alpha   90.00000000
_cell_angle_beta   90.00000000
_cell_angle_gamma   90.00000000
_symmetry_Int_Tables_number   1
_chemical_formula_structural   Sr2PrSbO6
_chemical_formula_sum   'Sr8 Pr4 Sb4 O24'
_cell_volume   620.95750731
_cell_formula_units_Z   4
loop_
 _symmetry_equiv_pos_site_id
 _symmetry_equiv_pos_as_xyz
  1  'x, y, z'
loop_
 _atom_site_type_symbol
 _atom_site_label
 _atom_site_symmetry_multiplicity
 _atom_site_fract_x
 _atom_site_fract_y
 _atom_site_fract_z
 _atom_site_occupancy
  Sr  Sr0  1  0.50000000  0.50000000  0.50000000  1
  Sr  Sr1  1  -0.00000000  -0.00000000  -0.00000000  1
  Sr  Sr2  1  -0.00000000  -0.00000000  0.50000000  1
  Sr  Sr3  1  -0.00000000  0.50000000  -0.00000000  1
  Sr  Sr4  1  0.50000000  -0.00000000  -0.00000000  1
  Sr  Sr5  1  0.50000000  0.50000000  -0.00000000  1
  Sr  Sr6  1  0.50000000  -0.00000000  0.50000000  1
  Sr  Sr7  1  -0.00000000  0.50000000  0.50000000  1
  Pr  Pr0  1  0.75000000  0.75000000  0.75000000  1
  Pr  Pr1  1  0.75000000  0.25000000  0.25000000  1
  Pr  Pr2  1  0.25000000  0.75000000  0.25000000  1
  Pr  Pr3  1  0.25000000  0.25000000  0.75000000  1
  Sb  Sb0  1  0.25000000  0.25000000  0.25000000  1
  Sb  Sb1  1  0.25000000  0.75000000  0.75000000  1
  Sb  Sb2  1  0.75000000  0.25000000  0.75000000  1
  Sb  Sb3  1  0.75000000  0.75000000  0.25000000  1
  O  O0  1  0.21517503  0.29310282  0.47998991  1
  O  O1  1  0.21517503  0.70689718  0.52001009  1
  O  O2  1  0.78482497  0.29310282  0.52001009  1
  O  O3  1  0.78482497  0.70689718  0.47998991  1
  O  O4  1  0.29310282  0.47998991  0.21517503  1
  O  O5  1  0.70689718  0.52001009  0.21517503  1
  O  O6  1  0.29310282  0.52001009  0.78482497  1
  O  O7  1  0.70689718  0.47998991  0.78482497  1
  O  O8  1  0.47998991  0.21517503  0.29310282  1
  O  O9  1  0.52001009  0.21517503  0.70689718  1
  O  O10  1  0.52001009  0.78482497  0.29310282  1
  O  O11  1  0.47998991  0.78482497  0.70689718  1
  O  O12  1  0.28482497  0.20689718  0.02001009  1
  O  O13  1  0.28482497  0.79310282  0.97998991  1
  O  O14  1  0.71517503  0.20689718  0.97998991  1
  O  O15  1  0.71517503  0.79310282  0.02001009  1
  O  O16  1  0.20689718  0.02001009  0.28482497  1
  O  O17  1  0.79310282  0.97998991  0.28482497  1
  O  O18  1  0.20689718  0.97998991  0.71517503  1
  O  O19  1  0.79310282  0.02001009  0.71517503  1
  O  O20  1  0.02001009  0.28482497  0.20689718  1
  O  O21  1  0.97998991  0.28482497  0.79310282  1
  O  O22  1  0.97998991  0.71517503  0.20689718  1
  O  O23  1  0.02001009  0.71517503  0.79310282  1
loop_
_geom_bond_atom_site_label_1
_geom_bond_atom_site_label_2
_geom_bond_distance
_geom_bond_site_symmetry_2
O0 Sb0 2.018286 1_555
O0 Pr3 2.351576 1_555
O0 Sr7 2.552404 1_555
O0 Sr0 3.008239 1_555
O0 Sr2 3.106767 1_555
O1 Sb1 2.018286 1_555
O1 Pr2 2.351576 1_555
O1 Sr7 2.552404 1_555
O1 Sr0 3.008239 1_555
O1 Sr2 3.106767 1_565
O2 Sb2 2.018286 1_555
O2 Pr1 2.351576 1_555
O2 Sr7 2.552404 1_655
O2 Sr0 3.008239 1_555
O2 Sr2 3.106767 1_655
O3 Sb3 2.018286 1_555
O3 Pr0 2.351576 1_555
O3 Sr7 2.552404 1_655
O3 Sr0 3.008239 1_555
O3 Sr2 3.106767 1_665
O4 Sb0 2.018286 1_555
O4 Pr2 2.351576 1_555
O4 Sr5 2.552404 1_555
O4 Sr0 3.008239 1_555
O4 Sr3 3.106767 1_555
O5 Sb3 2.018286 1_555
O5 Pr1 2.351576 1_555
O5 Sr5 2.552404 1_555
O5 Sr0 3.008239 1_555
O5 Sr3 3.106767 1_655
O6 Sb1 2.018286 1_555
O6 Pr3 2.351576 1_555
O6 Sr5 2.552404 1_556
O6 Sr0 3.008239 1_555
O6 Sr3 3.106767 1_556
O7 Sb2 2.018286 1_555
O7 Pr0 2.351576 1_555
O7 Sr5 2.552404 1_556
O7 Sr0 3.008239 1_555
O7 Sr3 3.106767 1_656
O8 Sb0 2.018286 1_555
O8 Pr1 2.351576 1_555
O8 Sr6 2.552404 1_555
O8 Sr0 3.008239 1_555
O8 Sr4 3.106767 1_555
O9 Sb2 2.018286 1_555
O9 Pr3 2.351576 1_555
O9 Sr6 2.552404 1_555
O9 Sr0 3.008239 1_555
O9 Sr4 3.106767 1_556
O10 Sb3 2.018286 1_555
O10 Pr2 2.351576 1_555
O10 Sr6 2.552404 1_565
O10 Sr0 3.008239 1_555
O10 Sr4 3.106767 1_565
O11 Sb1 2.018286 1_555
O11 Pr0 2.351576 1_555
O11 Sr6 2.552404 1_565
O11 Sr0 3.008239 1_555
O11 Sr4 3.106767 1_566
O12 Sb0 2.018286 1_555
O12 Pr3 2.351576 1_554
O12 Sr4 2.552404 1_555
O12 Sr1 3.008239 1_555
O12 Sr5 3.106767 1_555
O13 Sb1 2.018286 1_555
O13 Pr2 2.351576 1_556
O13 Sr4 2.552404 1_566
O13 Sr1 3.008239 1_566
O13 Sr5 3.106767 1_556
O14 Sb2 2.018286 1_555
O14 Pr1 2.351576 1_556
O14 Sr4 2.552404 1_556
O14 Sr1 3.008239 1_656
O14 Sr5 3.106767 1_556
O15 Sb3 2.018286 1_555
O15 Pr0 2.351576 1_554
O15 Sr4 2.552404 1_565
O15 Sr1 3.008239 1_665
O15 Sr5 3.106767 1_555
O16 Sb0 2.018286 1_555
O16 Pr2 2.351576 1_545
O16 Sr2 2.552404 1_555
O16 Sr1 3.008239 1_555
O16 Sr6 3.106767 1_555
O17 Sb3 2.018286 1_555
O17 Pr1 2.351576 1_565
O17 Sr2 2.552404 1_665
O17 Sr1 3.008239 1_665
O17 Sr6 3.106767 1_565
O18 Sb1 2.018286 1_555
O18 Pr3 2.351576 1_565
O18 Sr2 2.552404 1_565
O18 Sr1 3.008239 1_566
O18 Sr6 3.106767 1_565
O19 Sb2 2.018286 1_555
O19 Pr0 2.351576 1_545
O19 Sr2 2.552404 1_655
O19 Sr1 3.008239 1_656
O19 Sr6 3.106767 1_555
O20 Sb0 2.018286 1_555
O20 Pr1 2.351576 1_455
O20 Sr3 2.552404 1_555
O20 Sr1 3.008239 1_555
O20 Sr7 3.106767 1_555
O21 Sb2 2.018286 1_555
O21 Pr3 2.351576 1_655
O21 Sr3 2.552404 1_656
O21 Sr1 3.008239 1_656
O21 Sr7 3.106767 1_655
O22 Sb3 2.018286 1_555
O22 Pr2 2.351576 1_655
O22 Sr3 2.552404 1_655
O22 Sr1 3.008239 1_665
O22 Sr7 3.106767 1_655
O23 Sb1 2.018286 1_555
O23 Pr0 2.351576 1_455
O23 Sr3 2.552404 1_556
O23 Sr1 3.008239 1_566
O23 Sr7 3.106767 1_555
