# generated using pymatgen
data_Pr3Lu
_symmetry_space_group_name_H-M   'P 1'
_cell_length_a   7.46436671
_cell_length_b   7.46436671
_cell_length_c   5.85597645
_cell_angle_alpha   90.00000000
_cell_angle_beta   90.00000000
_cell_angle_gamma   120.00000259
_symmetry_Int_Tables_number   1
_chemical_formula_structural   Pr3Lu
_chemical_formula_sum   'Pr6 Lu2'
_cell_volume   282.56337989
_cell_formula_units_Z   2
loop_
 _symmetry_equiv_pos_site_id
 _symmetry_equiv_pos_as_xyz
  1  'x, y, z'
loop_
 _atom_site_type_symbol
 _atom_site_label
 _atom_site_symmetry_multiplicity
 _atom_site_fract_x
 _atom_site_fract_y
 _atom_site_fract_z
 _atom_site_occupancy
  Pr  Pr0  1  0.16939699  0.33879499  0.25000000  1
  Pr  Pr1  1  0.66120501  0.83060301  0.25000000  1
  Pr  Pr2  1  0.16939699  0.83060301  0.25000000  1
  Pr  Pr3  1  0.83060301  0.66120501  0.75000000  1
  Pr  Pr4  1  0.33879499  0.16939699  0.75000000  1
  Pr  Pr5  1  0.83060301  0.16939699  0.75000000  1
  Lu  Lu0  1  0.33333300  0.66666700  0.75000000  1
  Lu  Lu1  1  0.66666700  0.33333300  0.25000000  1
loop_
_geom_bond_atom_site_label_1
_geom_bond_atom_site_label_2
_geom_bond_distance
_geom_bond_site_symmetry_2
Pr0 Pr5 3.656440 1_455
Pr0 Pr5 3.656440 1_454
Pr0 Pr4 3.656447 1_554
Pr0 Pr4 3.656447 1_555
Pr0 Pr1 3.671035 1_555
Pr0 Pr2 3.671035 1_555
Pr0 Pr1 3.793331 1_445
Pr0 Pr2 3.793331 1_545
Pr1 Pr5 3.656440 1_564
Pr1 Pr5 3.656440 1_565
Pr1 Pr3 3.656447 1_554
Pr1 Pr3 3.656447 1_555
Pr1 Pr2 3.671035 1_555
Pr1 Pr2 3.793331 1_655
Pr2 Pr3 3.656440 1_454
Pr2 Pr3 3.656440 1_455
Pr2 Pr4 3.656440 1_564
Pr2 Pr4 3.656440 1_565
Pr3 Pr4 3.671035 1_555
Pr3 Pr5 3.671035 1_555
Pr3 Pr4 3.793331 1_665
Pr3 Pr5 3.793331 1_565
Pr4 Pr5 3.671035 1_555
Pr4 Pr5 3.793331 1_455
Lu0 Pr1 3.614593 1_556
Lu0 Pr1 3.614593 1_555
Lu0 Pr0 3.614593 1_555
Lu0 Pr0 3.614593 1_556
Lu0 Pr2 3.614593 1_555
Lu0 Pr2 3.614593 1_556
Lu0 Pr3 3.732343 1_455
Lu0 Pr4 3.732343 1_565
Lu0 Pr5 3.732350 1_455
Lu0 Pr5 3.732350 1_565
Lu0 Pr3 3.732358 1_555
Lu0 Pr4 3.732358 1_555
Lu1 Pr4 3.614593 1_555
Lu1 Pr3 3.614593 1_554
Lu1 Pr3 3.614593 1_555
Lu1 Pr4 3.614593 1_554
Lu1 Pr5 3.614593 1_555
Lu1 Pr5 3.614593 1_554
Lu1 Pr1 3.732343 1_545
Lu1 Pr0 3.732343 1_655
Lu1 Pr2 3.732350 1_545
Lu1 Pr2 3.732350 1_655
Lu1 Pr1 3.732358 1_555
Lu1 Pr0 3.732358 1_555
