# generated using pymatgen
data_Nd(In2Pd)2
_symmetry_space_group_name_H-M   'P 1'
_cell_length_a   4.61859400
_cell_length_b   10.03358300
_cell_length_c   33.48447300
_cell_angle_alpha   90.00000000
_cell_angle_beta   90.00000000
_cell_angle_gamma   90.00000000
_symmetry_Int_Tables_number   1
_chemical_formula_structural   Nd(In2Pd)2
_chemical_formula_sum   'Nd10 In40 Pd20'
_cell_volume   1551.70551169
_cell_formula_units_Z   10
loop_
 _symmetry_equiv_pos_site_id
 _symmetry_equiv_pos_as_xyz
  1  'x, y, z'
loop_
 _atom_site_type_symbol
 _atom_site_label
 _atom_site_symmetry_multiplicity
 _atom_site_fract_x
 _atom_site_fract_y
 _atom_site_fract_z
 _atom_site_occupancy
  Nd  Nd0  1  0.50000000  0.95747300  0.63889100  1
  Nd  Nd1  1  0.50000000  0.04252700  0.13889100  1
  Nd  Nd2  1  0.50000000  0.82716100  0.33767100  1
  Nd  Nd3  1  0.50000000  0.17283900  0.83767100  1
  Nd  Nd4  1  0.50000000  0.78305900  0.93837500  1
  Nd  Nd5  1  0.50000000  0.21694100  0.43837500  1
  Nd  Nd6  1  0.00000000  0.70354800  0.49982800  1
  Nd  Nd7  1  0.00000000  0.29645200  0.99982800  1
  Nd  Nd8  1  0.00000000  0.45536700  0.69912800  1
  Nd  Nd9  1  0.00000000  0.54463300  0.19912800  1
  In  In0  1  0.50000000  0.96529000  0.75018500  1
  In  In1  1  0.50000000  0.03471000  0.25018500  1
  In  In2  1  0.50000000  0.88092700  0.43920900  1
  In  In3  1  0.50000000  0.11907300  0.93920900  1
  In  In4  1  0.50000000  0.82600800  0.83376600  1
  In  In5  1  0.50000000  0.17399200  0.33376600  1
  In  In6  1  0.50000000  0.80652600  0.05203200  1
  In  In7  1  0.50000000  0.19347400  0.55203200  1
  In  In8  1  0.50000000  0.71151800  0.56760100  1
  In  In9  1  0.50000000  0.28848200  0.06760100  1
  In  In10  1  0.50000000  0.61479800  0.65132900  1
  In  In11  1  0.50000000  0.38520200  0.15132900  1
  In  In12  1  0.50000000  0.52737900  0.86197100  1
  In  In13  1  0.50000000  0.47262100  0.36197100  1
  In  In14  1  0.50000000  0.47031400  0.50857400  1
  In  In15  1  0.50000000  0.52968600  0.00857400  1
  In  In16  1  0.50000000  0.44680800  0.77136800  1
  In  In17  1  0.50000000  0.55319200  0.27136800  1
  In  In18  1  0.50000000  0.30791000  0.64044700  1
  In  In19  1  0.50000000  0.69209000  0.14044700  1
  In  In20  1  0.00000000  0.97846300  0.89046800  1
  In  In21  1  0.00000000  0.02153700  0.39046800  1
  In  In22  1  0.00000000  0.95095400  0.57027400  1
  In  In23  1  0.00000000  0.04904600  0.07027400  1
  In  In24  1  0.00000000  0.94786700  0.98617100  1
  In  In25  1  0.00000000  0.05213300  0.48617100  1
  In  In26  1  0.00000000  0.87941300  0.18391800  1
  In  In27  1  0.00000000  0.12058700  0.68391800  1
  In  In28  1  0.00000000  0.80749900  0.69541200  1
  In  In29  1  0.00000000  0.19250100  0.19541200  1
  In  In30  1  0.00000000  0.79651300  0.26961000  1
  In  In31  1  0.00000000  0.20348700  0.76961000  1
  In  In32  1  0.00000000  0.67239800  0.78113200  1
  In  In33  1  0.00000000  0.32760200  0.28113200  1
  In  In34  1  0.00000000  0.56088600  0.93663600  1
  In  In35  1  0.00000000  0.43911400  0.43663600  1
  In  In36  1  0.00000000  0.46586100  0.58300200  1
  In  In37  1  0.00000000  0.53413900  0.08300200  1
  In  In38  1  0.00000000  0.29689700  0.89511200  1
  In  In39  1  0.00000000  0.70310300  0.39511200  1
  Pd  Pd0  1  0.50000000  0.93809500  0.51970100  1
  Pd  Pd1  1  0.50000000  0.06190500  0.01970100  1
  Pd  Pd2  1  0.50000000  0.77706500  0.22051400  1
  Pd  Pd3  1  0.50000000  0.22293500  0.72051400  1
  Pd  Pd4  1  0.50000000  0.69590500  0.73076400  1
  Pd  Pd5  1  0.50000000  0.30409500  0.23076400  1
  Pd  Pd6  1  0.50000000  0.39309300  0.93455600  1
  Pd  Pd7  1  0.50000000  0.60690700  0.43455600  1
  Pd  Pd8  1  0.00000000  0.95307600  0.80603000  1
  Pd  Pd9  1  0.00000000  0.04692400  0.30603000  1
  Pd  Pd10  1  0.00000000  0.79771200  0.10459800  1
  Pd  Pd11  1  0.00000000  0.20228800  0.60459800  1
  Pd  Pd12  1  0.00000000  0.71549700  0.61563700  1
  Pd  Pd13  1  0.00000000  0.28450300  0.11563700  1
  Pd  Pd14  1  0.00000000  0.70742700  0.86551300  1
  Pd  Pd15  1  0.00000000  0.29257300  0.36551300  1
  Pd  Pd16  1  0.00000000  0.68437000  0.01280500  1
  Pd  Pd17  1  0.00000000  0.31563000  0.51280500  1
  Pd  Pd18  1  0.00000000  0.42231200  0.82039600  1
  Pd  Pd19  1  0.00000000  0.57768800  0.32039600  1
loop_
_geom_bond_atom_site_label_1
_geom_bond_atom_site_label_2
_geom_bond_distance
_geom_bond_site_symmetry_2
Nd0 Pd12 3.440026 1_555
Nd0 Pd12 3.440026 1_655
Nd0 Pd11 3.561624 1_665
Nd0 Pd11 3.561624 1_565
Nd1 Pd13 3.440026 1_655
Nd1 Pd13 3.440026 1_555
Nd1 Pd10 3.561624 1_645
Nd1 Pd10 3.561624 1_545
Nd2 Pd9 3.364138 1_565
Nd2 Pd9 3.364138 1_665
Nd2 Pd19 3.454418 1_555
Nd2 Pd19 3.454418 1_655
Nd3 Pd8 3.364138 1_645
Nd3 Pd8 3.364138 1_545
Nd3 Pd18 3.454418 1_555
Nd3 Pd18 3.454418 1_655
Nd4 Pd14 3.443992 1_555
Nd4 Pd14 3.443992 1_655
Nd4 Pd16 3.539020 1_556
Nd4 Pd16 3.539020 1_656
Nd5 Pd15 3.443992 1_555
Nd5 Pd15 3.443992 1_655
Nd5 Pd17 3.539020 1_555
Nd5 Pd17 3.539020 1_655
Nd6 Pd7 3.324143 1_455
Nd6 Pd7 3.324143 1_555
Nd6 Pd0 3.363614 1_455
Nd6 Pd0 3.363614 1_555
Nd7 Pd6 3.324143 1_455
Nd7 Pd6 3.324143 1_555
Nd7 Pd1 3.363614 1_456
Nd7 Pd1 3.363614 1_556
Nd8 Pd3 3.359235 1_455
Nd8 Pd3 3.359235 1_555
Nd8 Pd4 3.504252 1_555
Nd8 Pd4 3.504252 1_455
Nd9 Pd2 3.359235 1_455
Nd9 Pd2 3.359235 1_555
Nd9 Pd5 3.504252 1_455
Nd9 Pd5 3.504252 1_555
In0 Pd3 2.769446 1_565
In0 Pd4 2.780026 1_555
In0 Pd8 2.973979 1_555
In0 Pd8 2.973979 1_655
In0 In4 3.128183 1_555
In0 In28 3.347107 1_555
In0 In28 3.347107 1_655
In0 In31 3.386425 1_565
In0 In31 3.386425 1_665
In0 Nd3 3.594184 1_565
In0 Nd0 3.727446 1_555
In1 Pd2 2.769446 1_545
In1 Pd5 2.780026 1_555
In1 Pd9 2.973979 1_655
In1 Pd9 2.973979 1_555
In1 In5 3.128183 1_555
In1 In29 3.347107 1_555
In1 In29 3.347107 1_655
In1 In30 3.386425 1_545
In1 In30 3.386425 1_645
In1 Nd2 3.594184 1_545
In1 Nd1 3.727446 1_555
In2 Pd7 2.753813 1_555
In2 Pd0 2.755593 1_555
In2 In21 3.160208 1_665
In2 In21 3.160208 1_565
In2 In39 3.270552 1_555
In2 In39 3.270552 1_655
In2 In25 3.279706 1_665
In2 In25 3.279706 1_565
In2 Nd5 3.371540 1_565
In2 Nd2 3.442479 1_555
In2 Nd6 3.552523 1_655
In2 Nd6 3.552523 1_555
In3 Pd6 2.753813 1_555
In3 Pd1 2.755593 1_556
In3 In38 3.270552 1_555
In3 In38 3.270552 1_655
In3 Nd4 3.371540 1_545
In3 Nd3 3.442479 1_555
In3 Nd7 3.552523 1_555
In3 Nd7 3.552523 1_655
In4 Pd8 2.796583 1_555
In4 Pd8 2.796583 1_655
In4 Pd14 2.806866 1_655
In4 Pd14 2.806866 1_555
In4 Nd3 3.482413 1_565
In4 Nd4 3.529186 1_555
In5 Pd9 2.796583 1_655
In5 Pd9 2.796583 1_555
In5 Pd15 2.806866 1_555
In5 Pd15 2.806866 1_655
In5 Nd2 3.482413 1_545
In5 Nd5 3.529186 1_555
In6 Pd1 2.781675 1_565
In6 Pd10 2.904958 1_555
In6 Pd10 2.904958 1_655
In6 Pd16 2.925811 1_555
In6 Pd16 2.925811 1_655
In6 Nd1 3.750476 1_565
In6 Nd4 3.813022 1_554
In7 Pd0 2.781675 1_545
In7 Pd11 2.904958 1_655
In7 Pd11 2.904958 1_555
In7 Pd17 2.925811 1_555
In7 Pd17 2.925811 1_655
In7 Nd0 3.750476 1_545
In7 Nd5 3.813022 1_555
In8 Pd0 2.782224 1_555
In8 Pd12 2.814532 1_555
In8 Pd12 2.814532 1_655
In8 Nd6 3.238698 1_655
In8 Nd6 3.238698 1_555
In8 Nd0 3.433420 1_555
In9 Pd1 2.782224 1_555
In9 Pd13 2.814532 1_655
In9 Pd13 2.814532 1_555
In9 Nd7 3.238698 1_554
In9 Nd7 3.238698 1_654
In9 Nd1 3.433420 1_555
In10 Pd4 2.781547 1_555
In10 Pd12 2.789630 1_555
In10 Pd12 2.789630 1_655
In10 In8 2.966795 1_555
In10 In18 3.100671 1_555
In10 Nd8 3.233181 1_555
In10 Nd8 3.233181 1_655
In10 In28 3.354111 1_555
In10 In28 3.354111 1_655
In10 Nd0 3.463391 1_555
In11 Pd5 2.781547 1_555
In11 Pd13 2.789630 1_655
In11 Pd13 2.789630 1_555
In11 In9 2.966795 1_555
In11 In19 3.100671 1_555
In11 Nd9 3.233181 1_555
In11 Nd9 3.233181 1_655
In11 In29 3.354111 1_655
In11 In29 3.354111 1_555
In11 Nd1 3.463391 1_555
In12 Pd6 2.778955 1_555
In12 Pd18 2.895199 1_655
In12 Pd18 2.895199 1_555
In12 Pd14 2.934358 1_555
In12 Pd14 2.934358 1_655
In12 In16 3.139656 1_555
In12 In4 3.141636 1_555
In12 In34 3.420010 1_655
In12 In34 3.420010 1_555
In12 In38 3.451412 1_655
In12 In38 3.451412 1_555
In12 Nd4 3.623031 1_555
In12 Nd3 3.649177 1_555
In13 Pd7 2.778955 1_555
In13 Pd19 2.895199 1_655
In13 Pd19 2.895199 1_555
In13 Pd15 2.934358 1_555
In13 Pd15 2.934358 1_655
In13 In17 3.139656 1_555
In13 In5 3.141636 1_555
In13 In35 3.420010 1_555
In13 In35 3.420010 1_655
In13 In39 3.451412 1_655
In13 In39 3.451412 1_555
In13 Nd5 3.623031 1_555
In13 Nd2 3.649177 1_555
In14 Pd17 2.785989 1_555
In14 Pd17 2.785989 1_655
In14 Pd7 2.832146 1_555
In14 In8 3.124673 1_555
In14 In7 3.135780 1_555
In14 Nd6 3.300761 1_655
In14 Nd6 3.300761 1_555
In14 In35 3.351596 1_555
In14 In35 3.351596 1_655
In14 In36 3.397914 1_655
In14 In36 3.397914 1_555
In14 Nd5 3.462396 1_555
In15 Pd16 2.785989 1_555
In15 Pd16 2.785989 1_655
In15 Pd6 2.832146 1_554
In15 In9 3.124673 1_555
In15 In6 3.135780 1_555
In15 Nd7 3.300761 1_554
In15 Nd7 3.300761 1_654
In15 In34 3.351596 1_654
In15 In34 3.351596 1_554
In15 In37 3.397914 1_655
In15 In37 3.397914 1_555
In15 Nd4 3.462396 1_554
In16 Pd3 2.818728 1_555
In16 Pd18 2.844005 1_555
In16 Pd18 2.844005 1_655
In16 Pd4 2.845206 1_555
In16 In32 3.250087 1_555
In16 In32 3.250087 1_655
In16 Nd8 3.345354 1_555
In16 Nd8 3.345354 1_655
In16 In31 3.361051 1_555
In16 In31 3.361051 1_655
In16 Nd3 3.533460 1_555
In17 Pd2 2.818728 1_555
In17 Pd19 2.844005 1_555
In17 Pd19 2.844005 1_655
In17 Pd5 2.845206 1_555
In17 In33 3.250087 1_655
In17 In33 3.250087 1_555
In17 Nd9 3.345354 1_655
In17 Nd9 3.345354 1_555
In17 In30 3.361051 1_555
In17 In30 3.361051 1_655
In17 Nd2 3.533460 1_555
In18 Pd11 2.810139 1_555
In18 Pd11 2.810139 1_655
In18 Pd3 2.813308 1_555
In18 In7 3.175391 1_555
In18 In27 3.314247 1_555
In18 In27 3.314247 1_655
In18 Nd8 3.373823 1_555
In18 Nd8 3.373823 1_655
In18 In36 3.397705 1_555
In18 In36 3.397705 1_655
In18 Nd0 3.516525 1_545
In19 Pd10 2.810139 1_555
In19 Pd10 2.810139 1_655
In19 Pd2 2.813308 1_555
In19 In6 3.175391 1_555
In19 In26 3.314247 1_555
In19 In26 3.314247 1_655
In19 Nd9 3.373823 1_555
In19 Nd9 3.373823 1_655
In19 In37 3.397705 1_555
In19 In37 3.397705 1_655
In19 Nd1 3.516525 1_565
In20 Pd8 2.838813 1_555
In20 Pd14 2.844945 1_555
In20 In3 3.160208 1_465
In20 In3 3.160208 1_565
In20 In38 3.198816 1_565
In20 In24 3.219235 1_555
In20 In4 3.358208 1_455
In20 In4 3.358208 1_555
In20 Nd4 3.427839 1_555
In20 Nd4 3.427839 1_455
In20 Nd3 3.501696 1_465
In20 Nd3 3.501696 1_565
In21 Pd9 2.838813 1_555
In21 Pd15 2.844945 1_555
In21 In39 3.198816 1_545
In21 In25 3.219235 1_555
In21 In5 3.358208 1_555
In21 In5 3.358208 1_455
In21 Nd5 3.427839 1_455
In21 Nd5 3.427839 1_555
In21 Nd2 3.501696 1_545
In21 Nd2 3.501696 1_445
In22 Pd11 2.771338 1_565
In22 Pd12 2.808652 1_555
In22 Pd0 2.866555 1_555
In22 Pd0 2.866555 1_455
In22 In25 2.993539 1_565
In22 Nd0 3.258238 1_455
In22 Nd0 3.258238 1_555
In22 In8 3.333526 1_555
In22 In8 3.333526 1_455
In22 In7 3.409857 1_565
In22 In7 3.409857 1_465
In22 Nd6 3.424371 1_555
In23 Pd10 2.771338 1_545
In23 Pd13 2.808652 1_555
In23 Pd1 2.866555 1_455
In23 Pd1 2.866555 1_555
In23 In24 2.993539 1_544
In23 Nd1 3.258238 1_555
In23 Nd1 3.258238 1_455
In23 In9 3.333526 1_455
In23 In9 3.333526 1_555
In23 In6 3.409857 1_545
In23 In6 3.409857 1_445
In23 Nd7 3.424371 1_554
In24 Pd16 2.790185 1_556
In24 Pd1 2.811157 1_466
In24 Pd1 2.811157 1_566
In24 Nd4 3.260161 1_555
In24 Nd4 3.260161 1_455
In24 In3 3.279706 1_465
In24 In3 3.279706 1_565
In24 In6 3.493918 1_556
In24 In6 3.493918 1_456
In24 Nd7 3.527325 1_565
In25 Pd17 2.790185 1_555
In25 Pd0 2.811157 1_445
In25 Pd0 2.811157 1_545
In25 Nd5 3.260161 1_455
In25 Nd5 3.260161 1_555
In25 In7 3.493918 1_455
In25 In7 3.493918 1_555
In25 Nd6 3.527325 1_545
In26 Pd10 2.779617 1_555
In26 Pd2 2.808738 1_555
In26 Pd2 2.808738 1_455
In26 In30 2.987481 1_555
In26 In29 3.164883 1_565
In26 Nd1 3.206953 1_465
In26 Nd1 3.206953 1_565
In26 Nd9 3.397434 1_555
In27 Pd11 2.779617 1_555
In27 Pd3 2.808738 1_455
In27 Pd3 2.808738 1_555
In27 In31 2.987481 1_555
In27 In28 3.164883 1_545
In27 Nd0 3.206953 1_445
In27 Nd0 3.206953 1_545
In27 Nd8 3.397434 1_555
In28 Pd12 2.826229 1_555
In28 Pd4 2.826270 1_555
In28 Pd4 2.826270 1_455
In28 In32 3.174282 1_555
In28 Nd0 3.343508 1_555
In28 Nd0 3.343508 1_455
In28 Nd8 3.535336 1_555
In29 Pd13 2.826229 1_555
In29 Pd5 2.826270 1_455
In29 Pd5 2.826270 1_555
In29 In33 3.174282 1_555
In29 Nd1 3.343508 1_555
In29 Nd1 3.343508 1_455
In29 Nd9 3.535336 1_555
In30 Pd19 2.777139 1_555
In30 Pd9 2.792838 1_565
In30 Pd2 2.841393 1_555
In30 Pd2 2.841393 1_455
In30 Nd2 3.259017 1_555
In30 Nd2 3.259017 1_455
In30 Nd9 3.457873 1_555
In31 Pd18 2.777139 1_555
In31 Pd8 2.792838 1_545
In31 Pd3 2.841393 1_455
In31 Pd3 2.841393 1_555
In31 Nd3 3.259017 1_455
In31 Nd3 3.259017 1_555
In31 Nd8 3.457873 1_555
In32 Pd18 2.832826 1_555
In32 Pd14 2.847229 1_555
In32 Pd4 2.869306 1_555
In32 Pd4 2.869306 1_455
In32 Pd8 2.937017 1_555
In32 In4 3.288535 1_455
In32 In4 3.288535 1_555
In32 Nd8 3.504524 1_555
In33 Pd19 2.832826 1_555
In33 Pd15 2.847229 1_555
In33 Pd5 2.869306 1_455
In33 Pd5 2.869306 1_555
In33 Pd9 2.937017 1_555
In33 In5 3.288535 1_455
In33 In5 3.288535 1_555
In33 Nd9 3.504524 1_555
In34 Pd14 2.798838 1_555
In34 Pd16 2.835495 1_556
In34 Pd6 2.858688 1_555
In34 Pd6 2.858688 1_455
In34 In38 2.991512 1_555
In34 Nd4 3.210224 1_555
In34 Nd4 3.210224 1_455
In34 Nd7 3.393645 1_555
In35 Pd15 2.798838 1_555
In35 Pd17 2.835495 1_555
In35 Pd7 2.858688 1_455
In35 Pd7 2.858688 1_555
In35 In39 2.991512 1_555
In35 Nd5 3.210224 1_455
In35 Nd5 3.210224 1_555
In35 Nd6 3.393645 1_555
In36 Pd12 2.732742 1_555
In36 Pd11 2.741665 1_555
In36 Pd17 2.792314 1_555
In36 In8 3.416743 1_555
In36 In8 3.416743 1_455
In36 Nd6 3.666600 1_555
In37 Pd13 2.732742 1_555
In37 Pd10 2.741665 1_555
In37 Pd16 2.792314 1_555
In37 In9 3.416743 1_455
In37 In9 3.416743 1_555
In37 Nd7 3.666600 1_554
In38 Pd18 2.800466 1_555
In38 Pd6 2.829992 1_455
In38 Pd6 2.829992 1_555
In38 Nd3 3.252944 1_555
In38 Nd3 3.252944 1_455
In38 Nd7 3.506363 1_555
In39 Pd19 2.800466 1_555
In39 Pd7 2.829992 1_455
In39 Pd7 2.829992 1_555
In39 Nd2 3.252944 1_455
In39 Nd2 3.252944 1_555
In39 Nd6 3.506363 1_555
Pd14 Pd8 3.168917 1_555
Pd14 Pd18 3.235123 1_555
Pd15 Pd9 3.168917 1_555
Pd15 Pd19 3.235123 1_555
