# generated using pymatgen
data_Y4(CoB2)3
_symmetry_space_group_name_H-M   'P 1'
_cell_length_a   5.33544260
_cell_length_b   5.33544300
_cell_length_c   7.95837730
_cell_angle_alpha   70.41474241
_cell_angle_beta   70.41473944
_cell_angle_gamma   60.00000369
_symmetry_Int_Tables_number   1
_chemical_formula_structural   Y4(CoB2)3
_chemical_formula_sum   'Y4 Co3 B6'
_cell_volume   180.90537944
_cell_formula_units_Z   1
loop_
 _symmetry_equiv_pos_site_id
 _symmetry_equiv_pos_as_xyz
  1  'x, y, z'
loop_
 _atom_site_type_symbol
 _atom_site_label
 _atom_site_symmetry_multiplicity
 _atom_site_fract_x
 _atom_site_fract_y
 _atom_site_fract_z
 _atom_site_occupancy
  Y  Y0  1  0.74441800  0.74441800  0.76674700  1
  Y  Y1  1  0.25558200  0.25558200  0.23325300  1
  Y  Y2  1  0.58915500  0.58915500  0.23253400  1
  Y  Y3  1  0.41084500  0.41084500  0.76746600  1
  Co  Co0  1  0.00000000  0.00000000  0.00000000  1
  Co  Co1  1  0.88726900  0.88726900  0.33819400  1
  Co  Co2  1  0.11273100  0.11273100  0.66180600  1
  B  B0  1  0.50000000  0.16785200  0.50000000  1
  B  B1  1  0.83214800  0.50000000  0.50000000  1
  B  B2  1  0.16785200  0.83214800  0.50000000  1
  B  B3  1  0.16785200  0.50000000  0.50000000  1
  B  B4  1  0.83214800  0.16785200  0.50000000  1
  B  B5  1  0.50000000  0.83214800  0.50000000  1
loop_
_geom_bond_atom_site_label_1
_geom_bond_atom_site_label_2
_geom_bond_distance
_geom_bond_site_symmetry_2
Y0 Y3 3.080424 1_555
Y0 Y3 3.080424 1_655
Y0 Y3 3.080424 1_565
Y0 Y2 3.417962 1_556
Y1 Y2 3.080424 1_555
Y1 Y2 3.080424 1_455
Y1 Y2 3.080424 1_545
Y1 Y3 3.417962 1_554
Co0 Co2 2.481680 1_554
Co0 Co1 2.481680 1_445
Co0 Y2 3.521446 1_545
Co0 Y3 3.521446 1_454
Co0 Y2 3.521446 1_455
Co0 Y3 3.521446 1_544
Co0 Y3 3.521450 1_554
Co0 Y2 3.521450 1_445
Co0 Y1 3.524004 1_555
Co0 Y0 3.524004 1_444
Co0 Y0 3.524008 1_544
Co0 Y1 3.524008 1_455
Co0 Y0 3.524008 1_454
Co0 Y1 3.524008 1_545
Co1 Y2 3.176494 1_655
Co1 Y2 3.176494 1_565
Co1 Y2 3.176503 1_555
Co2 Y3 3.176494 1_455
Co2 Y3 3.176494 1_545
Co2 Y3 3.176503 1_555
B0 B4 1.772157 1_555
B0 B3 1.772157 1_555
B0 B5 1.791130 1_545
B0 Co1 2.141041 1_545
B0 Co2 2.141043 1_555
B0 Y2 2.644357 1_555
B0 Y3 2.644361 1_555
B0 Y0 2.646827 1_545
B0 Y1 2.646829 1_555
B1 B4 1.772157 1_555
B1 B5 1.772157 1_555
B1 B3 1.791129 1_655
B1 Co2 2.141041 1_655
B1 Co1 2.141043 1_555
B1 Y3 2.644357 1_555
B1 Y2 2.644361 1_555
B1 Y1 2.646827 1_655
B1 Y0 2.646829 1_555
B2 B5 1.772157 1_555
B2 B3 1.772157 1_555
B2 B4 1.791130 1_465
B2 Co1 2.141038 1_455
B2 Co2 2.141038 1_565
B2 Y2 2.644359 1_555
B2 Y3 2.644359 1_555
B2 Y0 2.646825 1_455
B2 Y1 2.646826 1_565
B3 Co1 2.141041 1_455
B3 Co2 2.141043 1_555
B3 Y2 2.644357 1_555
B3 Y3 2.644361 1_555
B3 Y0 2.646827 1_455
B3 Y1 2.646829 1_555
B4 Co2 2.141038 1_655
B4 Co1 2.141038 1_545
B4 Y3 2.644359 1_555
B4 Y2 2.644359 1_555
B4 Y1 2.646825 1_655
B4 Y0 2.646826 1_545
B5 Co2 2.141041 1_565
B5 Co1 2.141043 1_555
B5 Y3 2.644357 1_555
B5 Y2 2.644361 1_555
B5 Y1 2.646827 1_565
B5 Y0 2.646829 1_555
