# generated using pymatgen
data_Yb3(CuSn)4
_symmetry_space_group_name_H-M   'P 1'
_cell_length_a   4.39140702
_cell_length_b   6.87819195
_cell_length_c   8.30638837
_cell_angle_alpha   114.45826094
_cell_angle_beta   105.32768437
_cell_angle_gamma   90.00000000
_symmetry_Int_Tables_number   1
_chemical_formula_structural   Yb3(CuSn)4
_chemical_formula_sum   'Yb3 Cu4 Sn4'
_cell_volume   218.53769020
_cell_formula_units_Z   1
loop_
 _symmetry_equiv_pos_site_id
 _symmetry_equiv_pos_as_xyz
  1  'x, y, z'
loop_
 _atom_site_type_symbol
 _atom_site_label
 _atom_site_symmetry_multiplicity
 _atom_site_fract_x
 _atom_site_fract_y
 _atom_site_fract_z
 _atom_site_occupancy
  Yb  Yb0  1  0.86901037  0.36901037  0.73802074  1
  Yb  Yb1  1  0.13098963  0.63098963  0.26197926  1
  Yb  Yb2  1  0.00000000  0.00000000  0.00000000  1
  Cu  Cu0  1  0.32841938  0.63981979  0.65683876  1
  Cu  Cu1  1  0.67158062  0.36018021  0.34316124  1
  Cu  Cu2  1  0.32841938  0.01701897  0.65683876  1
  Cu  Cu3  1  0.67158062  0.98298103  0.34316124  1
  Sn  Sn0  1  0.21632730  0.21632730  0.43265461  1
  Sn  Sn1  1  0.78367270  0.78367270  0.56734539  1
  Sn  Sn2  1  0.50000000  0.70361291  0.00000000  1
  Sn  Sn3  1  0.50000000  0.29638709  0.00000000  1
loop_
_geom_bond_atom_site_label_1
_geom_bond_atom_site_label_2
_geom_bond_distance
_geom_bond_site_symmetry_2
Cu0 Sn2 2.591155 1_556
Cu0 Cu2 2.594448 1_565
Cu0 Sn1 2.631190 1_555
Cu0 Sn1 2.631190 1_455
Cu0 Sn0 2.686732 1_555
Cu0 Yb0 3.123096 1_455
Cu0 Yb0 3.123096 1_555
Cu0 Yb1 3.137597 1_555
Cu1 Sn3 2.591155 1_555
Cu1 Cu3 2.594448 1_545
Cu1 Sn0 2.631190 1_555
Cu1 Sn0 2.631190 1_655
Cu1 Sn1 2.686732 1_555
Cu1 Yb1 3.123096 1_655
Cu1 Yb1 3.123096 1_555
Cu1 Yb0 3.137597 1_555
Cu2 Sn3 2.591155 1_556
Cu2 Sn1 2.631190 1_545
Cu2 Sn1 2.631190 1_445
Cu2 Sn0 2.686732 1_555
Cu2 Yb0 3.123096 1_455
Cu2 Yb0 3.123096 1_555
Cu2 Yb1 3.137597 1_545
Cu3 Sn2 2.591155 1_555
Cu3 Sn0 2.631190 1_565
Cu3 Sn0 2.631190 1_665
Cu3 Sn1 2.686732 1_555
Cu3 Yb1 3.123096 1_655
Cu3 Yb1 3.123096 1_555
Cu3 Yb0 3.137597 1_565
Sn0 Yb0 3.114875 1_455
Sn0 Yb0 3.114875 1_555
Sn0 Yb2 3.130327 1_555
Sn1 Yb1 3.114875 1_655
Sn1 Yb1 3.114875 1_555
Sn1 Yb2 3.130327 1_666
Sn2 Sn3 2.800977 1_555
Sn2 Yb2 2.996170 1_665
Sn2 Yb2 2.996170 1_565
Sn2 Yb1 3.221065 1_555
Sn2 Yb0 3.221065 1_554
Sn2 Yb1 3.221065 1_655
Sn2 Yb0 3.221065 1_454
Sn3 Yb2 2.996170 1_555
Sn3 Yb2 2.996170 1_655
Sn3 Yb0 3.221065 1_554
Sn3 Yb1 3.221065 1_555
Sn3 Yb0 3.221065 1_454
Sn3 Yb1 3.221065 1_655
