# generated using pymatgen
data_Ba4CaTl4(Cu3O10)2
_symmetry_space_group_name_H-M   'P 1'
_cell_length_a   3.72437500
_cell_length_b   7.45841602
_cell_length_c   19.58229510
_cell_angle_alpha   95.29315034
_cell_angle_beta   94.26235701
_cell_angle_gamma   89.99629726
_symmetry_Int_Tables_number   1
_chemical_formula_structural   Ba4CaTl4(Cu3O10)2
_chemical_formula_sum   'Ba4 Ca1 Tl4 Cu6 O20'
_cell_volume   540.12550606
_cell_formula_units_Z   1
loop_
 _symmetry_equiv_pos_site_id
 _symmetry_equiv_pos_as_xyz
  1  'x, y, z'
loop_
 _atom_site_type_symbol
 _atom_site_label
 _atom_site_symmetry_multiplicity
 _atom_site_fract_x
 _atom_site_fract_y
 _atom_site_fract_z
 _atom_site_occupancy
  Ba  Ba0  1  0.83246400  0.95014300  0.71730800  1
  Ba  Ba1  1  0.83271700  0.45003800  0.72013700  1
  Ba  Ba2  1  0.17441400  0.60054200  0.28069900  1
  Ba  Ba3  1  0.17416900  0.10038300  0.28026300  1
  Ca  Ca0  1  0.93060300  0.51015500  0.91554400  1
  Tl  Tl0  1  0.27600500  0.66408000  0.56263400  1
  Tl  Tl1  1  0.27597100  0.16536900  0.56251500  1
  Tl  Tl2  1  0.73096200  0.88529400  0.43865700  1
  Tl  Tl3  1  0.73094200  0.38529300  0.43859600  1
  Cu  Cu0  1  0.62807300  0.82490700  0.16046100  1
  Cu  Cu1  1  0.62838500  0.32553800  0.16055600  1
  Cu  Cu2  1  0.38150300  0.74661200  0.83413400  1
  Cu  Cu3  1  0.38252800  0.21775000  0.83598200  1
  Cu  Cu4  1  0.47980800  0.80215100  0.00842200  1
  Cu  Cu5  1  0.47985600  0.28725400  0.01070300  1
  O  O0  1  0.13677800  0.82949700  0.18415500  1
  O  O1  1  0.13711500  0.32949500  0.18428900  1
  O  O2  1  0.69602800  0.85940800  0.33412500  1
  O  O3  1  0.69606300  0.35900400  0.33415700  1
  O  O4  1  0.63252400  0.57966100  0.17893600  1
  O  O5  1  0.63181000  0.07930500  0.17823700  1
  O  O6  1  0.23692400  0.60340900  0.45522200  1
  O  O7  1  0.23693100  0.10289700  0.45525600  1
  O  O8  1  0.46352900  0.53880100  0.98676000  1
  O  O9  1  0.46118200  0.03993100  0.98873900  1
  O  O10  1  0.36839300  0.97696600  0.80914500  1
  O  O11  1  0.37961100  0.48095600  0.82774100  1
  O  O12  1  0.31145900  0.68231900  0.66761400  1
  O  O13  1  0.31153200  0.18695000  0.66749100  1
  O  O14  1  0.87781400  0.71231400  0.82433800  1
  O  O15  1  0.87875700  0.24951300  0.82699500  1
  O  O16  1  0.76986400  0.87446900  0.54653500  1
  O  O17  1  0.76973400  0.37448200  0.54624800  1
  O  O18  1  0.97516000  0.77969000  0.99984400  1
  O  O19  1  0.97545300  0.30210300  0.00223300  1
loop_
_geom_bond_atom_site_label_1
_geom_bond_atom_site_label_2
_geom_bond_distance
_geom_bond_site_symmetry_2
Ba0 O10 2.580132 1_555
Ba0 O10 2.580369 1_655
Ba0 O13 2.798508 1_665
Ba0 O13 2.805605 1_565
Ba0 O12 2.831712 1_655
Ba0 O12 2.839637 1_555
Ba0 O14 2.863745 1_555
Ba0 O15 2.947702 1_565
Ba0 O16 3.330463 1_555
Ba1 O15 2.677485 1_555
Ba1 O14 2.689061 1_555
Ba1 O11 2.789236 1_555
Ba1 O12 2.800023 1_655
Ba1 O12 2.803503 1_555
Ba1 O11 2.813242 1_655
Ba1 O13 2.827159 1_655
Ba1 O13 2.830326 1_555
Ba1 O17 3.390405 1_555
Ba2 O1 2.631965 1_555
Ba2 O0 2.658214 1_555
Ba2 O4 2.711909 1_555
Ba2 O4 2.722758 1_455
Ba2 O2 2.810805 1_455
Ba2 O2 2.814600 1_555
Ba2 O3 2.853202 1_455
Ba2 O3 2.856735 1_555
Ba3 O0 2.627325 1_545
Ba3 O1 2.650500 1_555
Ba3 O5 2.714701 1_555
Ba3 O5 2.727403 1_455
Ba3 O3 2.812201 1_455
Ba3 O3 2.816472 1_555
Ba3 O2 2.853642 1_445
Ba3 O2 2.857428 1_545
Ca0 O8 2.306975 1_555
Ca0 O8 2.337436 1_655
Ca0 O19 2.400285 1_556
Ca0 O14 2.438559 1_555
Ca0 O18 2.478103 1_555
Ca0 O15 2.480203 1_555
Ca0 O11 2.481628 1_655
Ca0 O11 2.573193 1_555
Cu0 O4 1.896876 1_555
Cu0 O5 1.897086 1_565
Cu0 O0 1.916351 1_655
Cu0 O0 1.920354 1_555
Cu1 O4 1.896172 1_555
Cu1 O5 1.899859 1_555
Cu1 O1 1.916595 1_655
Cu1 O1 1.920528 1_555
Cu2 O10 1.828983 1_555
Cu2 O14 1.886492 1_455
Cu2 O14 1.887483 1_555
Cu2 O11 1.973744 1_555
Cu3 O10 1.823694 1_545
Cu3 O15 1.886484 1_555
Cu3 O15 1.888357 1_455
Cu3 O11 1.984467 1_555
Cu4 O9 1.849506 1_564
Cu4 O18 1.871011 1_554
Cu4 O18 1.880615 1_454
Cu4 O8 1.970802 1_554
Cu5 O9 1.855183 1_554
Cu5 O19 1.869662 1_555
Cu5 O19 1.877740 1_455
Cu5 O8 1.975217 1_554
O2 Tl2 2.032686 1_555
O3 Tl3 2.030888 1_555
O6 Tl0 2.104524 1_555
O6 Tl3 2.472886 1_455
O6 Tl3 2.475616 1_555
O7 Tl1 2.103301 1_555
O7 Tl2 2.470373 1_445
O7 Tl2 2.473120 1_545
O12 Tl0 2.042083 1_555
O13 Tl1 2.041499 1_555
O16 Tl2 2.115687 1_555
O16 Tl0 2.473393 1_655
O16 Tl0 2.474388 1_555
O17 Tl3 2.111264 1_555
O17 Tl1 2.467952 1_655
O17 Tl1 2.468778 1_555
