# generated using pymatgen
data_Y(BIr)2
_symmetry_space_group_name_H-M   'P 1'
_cell_length_a   5.47479172
_cell_length_b   5.47479231
_cell_length_c   6.17394269
_cell_angle_alpha   104.10616503
_cell_angle_beta   104.10615467
_cell_angle_gamma   116.76382807
_symmetry_Int_Tables_number   1
_chemical_formula_structural   Y(BIr)2
_chemical_formula_sum   'Y2 B4 Ir4'
_cell_volume   146.28877220
_cell_formula_units_Z   2
loop_
 _symmetry_equiv_pos_site_id
 _symmetry_equiv_pos_as_xyz
  1  'x, y, z'
loop_
 _atom_site_type_symbol
 _atom_site_label
 _atom_site_symmetry_multiplicity
 _atom_site_fract_x
 _atom_site_fract_y
 _atom_site_fract_z
 _atom_site_occupancy
  Y  Y0  1  0.12500000  0.87500000  0.75000000  1
  Y  Y1  1  0.87500000  0.12500000  0.25000000  1
  B  B0  1  0.80467517  0.19532483  0.75000000  1
  B  B1  1  0.55467517  0.44532483  0.25000000  1
  B  B2  1  0.44532483  0.55467517  0.75000000  1
  B  B3  1  0.19532483  0.80467517  0.25000000  1
  Ir  Ir0  1  0.75193192  0.50193192  0.00386384  1
  Ir  Ir1  1  0.50193192  0.75193192  0.50386384  1
  Ir  Ir2  1  0.24806808  0.49806808  0.99613616  1
  Ir  Ir3  1  0.49806808  0.24806808  0.49613616  1
loop_
_geom_bond_atom_site_label_1
_geom_bond_atom_site_label_2
_geom_bond_distance
_geom_bond_site_symmetry_2
B0 Ir2 2.073563 1_655
B0 Ir1 2.073563 1_545
B0 Ir0 2.175407 1_556
B0 Ir3 2.175407 1_555
B0 Y0 2.986787 1_645
B0 Y1 3.155847 1_555
B0 Y1 3.155847 1_556
B0 Y0 3.323359 1_545
B0 Y0 3.323359 1_655
B1 Ir0 2.073563 1_555
B1 Ir3 2.073563 1_555
B1 Ir1 2.175407 1_555
B1 Ir2 2.175407 1_554
B1 Y1 2.986787 1_555
B1 Y0 3.155846 1_544
B1 Y0 3.155846 1_655
B1 Y1 3.323359 1_455
B1 Y1 3.323359 1_565
B2 Ir2 2.073563 1_555
B2 Ir1 2.073563 1_555
B2 Ir3 2.175407 1_555
B2 Ir0 2.175407 1_556
B2 Y0 2.986787 1_555
B2 Y1 3.155846 1_566
B2 Y1 3.155846 1_455
B2 Y0 3.323359 1_655
B2 Y0 3.323359 1_545
B3 Ir0 2.073563 1_455
B3 Ir3 2.073563 1_565
B3 Ir2 2.175407 1_554
B3 Ir1 2.175407 1_555
B3 Y1 2.986787 1_465
B3 Y0 3.155847 1_555
B3 Y0 3.155847 1_554
B3 Y1 3.323359 1_565
B3 Y1 3.323359 1_455
Ir0 Y1 3.050169 1_565
Ir0 Y1 3.050170 1_555
Ir0 Y0 3.188042 1_544
Ir0 Y0 3.188042 1_654
Ir1 Y0 3.050169 1_655
Ir1 Y0 3.050169 1_555
Ir1 Y1 3.188042 1_455
Ir1 Y1 3.188042 1_565
Ir2 Y0 3.050169 1_545
Ir2 Y0 3.050170 1_555
Ir2 Y1 3.188042 1_566
Ir2 Y1 3.188042 1_456
Ir3 Y1 3.050169 1_455
Ir3 Y1 3.050169 1_555
Ir3 Y0 3.188042 1_655
Ir3 Y0 3.188042 1_545
