# generated using pymatgen
data_Mg149Al
_symmetry_space_group_name_H-M   'P 1'
_cell_length_a   15.91944317
_cell_length_b   15.91944889
_cell_length_c   15.57301448
_cell_angle_alpha   90.00000000
_cell_angle_beta   90.00000000
_cell_angle_gamma   120.00001418
_symmetry_Int_Tables_number   1
_chemical_formula_structural   Mg149Al
_chemical_formula_sum   'Mg149 Al1'
_cell_volume   3417.89848002
_cell_formula_units_Z   1
loop_
 _symmetry_equiv_pos_site_id
 _symmetry_equiv_pos_as_xyz
  1  'x, y, z'
loop_
 _atom_site_type_symbol
 _atom_site_label
 _atom_site_symmetry_multiplicity
 _atom_site_fract_x
 _atom_site_fract_y
 _atom_site_fract_z
 _atom_site_occupancy
  Mg  Mg0  1  0.19804613  0.00083230  -0.00000000  1
  Mg  Mg1  1  0.80278617  0.00083230  -0.00000000  1
  Mg  Mg2  1  0.99916770  0.19721383  -0.00000000  1
  Mg  Mg3  1  0.19804613  0.19721383  -0.00000000  1
  Mg  Mg4  1  0.80034220  0.19965780  -0.00000000  1
  Mg  Mg5  1  0.39931560  0.19965780  -0.00000000  1
  Mg  Mg6  1  0.59988592  0.19977085  -0.00000000  1
  Mg  Mg7  1  0.19932166  0.39864332  -0.00000000  1
  Mg  Mg8  1  0.00006618  0.39956284  -0.00000000  1
  Mg  Mg9  1  0.39949666  0.39956284  -0.00000000  1
  Mg  Mg10  1  0.80022915  0.40011508  -0.00000000  1
  Mg  Mg11  1  0.59988592  0.40011508  -0.00000000  1
  Mg  Mg12  1  0.40010314  0.59989586  -0.00000000  1
  Mg  Mg13  1  0.19979272  0.59989686  -0.00000000  1
  Mg  Mg14  1  0.00006618  0.60050234  -0.00000000  1
  Mg  Mg15  1  0.60043716  0.60050334  -0.00000000  1
  Mg  Mg16  1  0.80034220  0.60068440  -0.00000000  1
  Mg  Mg17  1  0.40010314  0.80020728  -0.00000000  1
  Mg  Mg18  1  0.19932166  0.80067834  -0.00000000  1
  Mg  Mg19  1  0.60135668  0.80067834  -0.00000000  1
  Mg  Mg20  1  0.99916770  0.80195387  -0.00000000  1
  Mg  Mg21  1  0.80278617  0.80195387  -0.00000000  1
  Mg  Mg22  1  0.60043716  0.99993482  -0.00000000  1
  Mg  Mg23  1  0.39949666  0.99993482  -0.00000000  1
  Mg  Mg24  1  0.06574375  0.13148750  0.16469887  1
  Mg  Mg25  1  0.86851350  0.93425725  0.16469887  1
  Mg  Mg26  1  0.06574375  0.93425725  0.16469887  1
  Mg  Mg27  1  0.26613634  0.33243373  0.16611988  1
  Mg  Mg28  1  0.06629839  0.33243373  0.16611988  1
  Mg  Mg29  1  0.66756527  0.73386366  0.16611988  1
  Mg  Mg30  1  0.06629839  0.73386366  0.16611988  1
  Mg  Mg31  1  0.66756527  0.93370161  0.16611988  1
  Mg  Mg32  1  0.26613634  0.93370161  0.16611988  1
  Mg  Mg33  1  0.66666600  0.33333300  0.16655761  1
  Mg  Mg34  1  0.46667269  0.53332731  0.16637863  1
  Mg  Mg35  1  0.06665461  0.53332731  0.16637863  1
  Mg  Mg36  1  0.46667269  0.93334639  0.16637863  1
  Mg  Mg37  1  0.46669178  0.13327455  0.16646965  1
  Mg  Mg38  1  0.66658277  0.13327455  0.16646965  1
  Mg  Mg39  1  0.46669178  0.33341823  0.16646965  1
  Mg  Mg40  1  0.86672545  0.33341823  0.16646965  1
  Mg  Mg41  1  0.86672545  0.53330822  0.16646965  1
  Mg  Mg42  1  0.66658277  0.53330822  0.16646965  1
  Mg  Mg43  1  0.26650745  0.53301490  0.16651755  1
  Mg  Mg44  1  0.46698510  0.73349255  0.16651755  1
  Mg  Mg45  1  0.26650745  0.73349255  0.16651755  1
  Mg  Mg46  1  0.86634611  0.13365389  0.16708054  1
  Mg  Mg47  1  0.26730778  0.13365389  0.16708054  1
  Mg  Mg48  1  0.86634611  0.73269222  0.16708054  1
  Mg  Mg49  1  0.00000000  0.00000000  0.33290697  1
  Mg  Mg50  1  0.19941661  0.99984071  0.33312556  1
  Mg  Mg51  1  0.80042410  0.99984071  0.33312556  1
  Mg  Mg52  1  0.00016029  0.19957590  0.33312556  1
  Mg  Mg53  1  0.19941661  0.19957690  0.33312556  1
  Mg  Mg54  1  0.00016029  0.80058339  0.33312556  1
  Mg  Mg55  1  0.80042410  0.80058339  0.33312556  1
  Mg  Mg56  1  0.19991008  0.39982016  0.33303622  1
  Mg  Mg57  1  0.19991008  0.80008992  0.33303622  1
  Mg  Mg58  1  0.60018084  0.80009092  0.33303622  1
  Mg  Mg59  1  0.60025216  0.99997119  0.33311257  1
  Mg  Mg60  1  0.39971903  0.99997119  0.33311257  1
  Mg  Mg61  1  0.00002881  0.39974784  0.33311257  1
  Mg  Mg62  1  0.39971903  0.39974784  0.33311257  1
  Mg  Mg63  1  0.00002881  0.60028097  0.33311257  1
  Mg  Mg64  1  0.60025216  0.60028197  0.33311257  1
  Mg  Mg65  1  0.60000532  0.20000965  0.33306745  1
  Mg  Mg66  1  0.79999035  0.39999468  0.33306745  1
  Mg  Mg67  1  0.60000532  0.39999568  0.33306745  1
  Mg  Mg68  1  0.39988085  0.19993992  0.33328634  1
  Mg  Mg69  1  0.80005908  0.19994092  0.33328634  1
  Mg  Mg70  1  0.80005908  0.60011915  0.33328634  1
  Mg  Mg71  1  0.39999074  0.60000826  0.33314331  1
  Mg  Mg72  1  0.20001752  0.60000926  0.33314331  1
  Mg  Mg73  1  0.39999074  0.79998248  0.33314331  1
  Mg  Mg74  1  0.06651025  0.13301949  0.50000000  1
  Mg  Mg75  1  0.26635509  0.13317804  0.50000000  1
  Mg  Mg76  1  0.86682196  0.13317804  0.50000000  1
  Mg  Mg77  1  0.46661288  0.13316714  0.50000000  1
  Mg  Mg78  1  0.66655426  0.13316714  0.50000000  1
  Mg  Mg79  1  0.26658814  0.33301490  0.50000000  1
  Mg  Mg80  1  0.06642676  0.33301490  0.50000000  1
  Mg  Mg81  1  0.66666600  0.33333300  0.50000000  1
  Mg  Mg82  1  0.46661288  0.33344574  0.50000000  1
  Mg  Mg83  1  0.86683286  0.33344574  0.50000000  1
  Mg  Mg84  1  0.26652020  0.53304140  0.50000000  1
  Mg  Mg85  1  0.06647172  0.53323536  0.50000000  1
  Mg  Mg86  1  0.46676464  0.53323636  0.50000000  1
  Mg  Mg87  1  0.86683286  0.53338712  0.50000000  1
  Mg  Mg88  1  0.66655426  0.53338712  0.50000000  1
  Mg  Mg89  1  0.26652020  0.73347980  0.50000000  1
  Mg  Mg90  1  0.46695860  0.73347980  0.50000000  1
  Mg  Mg91  1  0.66698510  0.73341186  0.50000000  1
  Mg  Mg92  1  0.06642676  0.73341186  0.50000000  1
  Mg  Mg93  1  0.86682196  0.73364491  0.50000000  1
  Mg  Mg94  1  0.46676464  0.93352828  0.50000000  1
  Mg  Mg95  1  0.86698051  0.93349075  0.50000000  1
  Mg  Mg96  1  0.06651025  0.93349075  0.50000000  1
  Mg  Mg97  1  0.26658814  0.93357324  0.50000000  1
  Mg  Mg98  1  0.66698510  0.93357424  0.50000000  1
  Mg  Mg99  1  0.39999074  0.60000826  0.66685669  1
  Mg  Mg100  1  0.20001752  0.60000926  0.66685669  1
  Mg  Mg101  1  0.39999074  0.79998248  0.66685669  1
  Mg  Mg102  1  0.39988085  0.19993992  0.66671366  1
  Mg  Mg103  1  0.80005908  0.19994092  0.66671366  1
  Mg  Mg104  1  0.80005908  0.60011915  0.66671366  1
  Mg  Mg105  1  0.60000532  0.20000965  0.66693255  1
  Mg  Mg106  1  0.79999035  0.39999468  0.66693255  1
  Mg  Mg107  1  0.60000532  0.39999568  0.66693255  1
  Mg  Mg108  1  0.60025216  0.99997119  0.66688743  1
  Mg  Mg109  1  0.39971903  0.99997119  0.66688743  1
  Mg  Mg110  1  0.00002881  0.39974784  0.66688743  1
  Mg  Mg111  1  0.39971903  0.39974784  0.66688743  1
  Mg  Mg112  1  0.00002881  0.60028097  0.66688743  1
  Mg  Mg113  1  0.60025216  0.60028197  0.66688743  1
  Mg  Mg114  1  0.19991008  0.39982016  0.66696378  1
  Mg  Mg115  1  0.19991008  0.80008992  0.66696378  1
  Mg  Mg116  1  0.60018084  0.80009092  0.66696378  1
  Mg  Mg117  1  0.19941661  0.99984071  0.66687544  1
  Mg  Mg118  1  0.80042410  0.99984071  0.66687544  1
  Mg  Mg119  1  0.00016029  0.19957590  0.66687544  1
  Mg  Mg120  1  0.19941661  0.19957690  0.66687544  1
  Mg  Mg121  1  0.00016029  0.80058339  0.66687544  1
  Mg  Mg122  1  0.80042410  0.80058339  0.66687544  1
  Mg  Mg123  1  0.00000000  0.00000000  0.66709303  1
  Mg  Mg124  1  0.86634611  0.13365389  0.83291946  1
  Mg  Mg125  1  0.26730778  0.13365389  0.83291946  1
  Mg  Mg126  1  0.86634611  0.73269222  0.83291946  1
  Mg  Mg127  1  0.26650745  0.53301490  0.83348145  1
  Mg  Mg128  1  0.46698510  0.73349255  0.83348145  1
  Mg  Mg129  1  0.26650745  0.73349255  0.83348145  1
  Mg  Mg130  1  0.46669178  0.13327455  0.83353035  1
  Mg  Mg131  1  0.66658277  0.13327455  0.83353035  1
  Mg  Mg132  1  0.46669178  0.33341823  0.83353035  1
  Mg  Mg133  1  0.86672545  0.33341823  0.83353035  1
  Mg  Mg134  1  0.86672545  0.53330822  0.83353035  1
  Mg  Mg135  1  0.66658277  0.53330822  0.83353035  1
  Mg  Mg136  1  0.46667269  0.53332731  0.83362037  1
  Mg  Mg137  1  0.06665461  0.53332731  0.83362037  1
  Mg  Mg138  1  0.46667269  0.93334639  0.83362037  1
  Mg  Mg139  1  0.66666600  0.33333300  0.83344339  1
  Mg  Mg140  1  0.26613634  0.33243373  0.83388012  1
  Mg  Mg141  1  0.06629839  0.33243373  0.83388012  1
  Mg  Mg142  1  0.66756527  0.73386366  0.83388012  1
  Mg  Mg143  1  0.06629839  0.73386366  0.83388012  1
  Mg  Mg144  1  0.66756527  0.93370161  0.83388012  1
  Mg  Mg145  1  0.26613634  0.93370161  0.83388012  1
  Mg  Mg146  1  0.06574375  0.13148750  0.83530113  1
  Mg  Mg147  1  0.86851350  0.93425725  0.83530113  1
  Mg  Mg148  1  0.06574375  0.93425725  0.83530113  1
  Al  Al0  1  0.00000000  0.00000000  -0.00000000  1
loop_
_geom_bond_atom_site_label_1
_geom_bond_atom_site_label_2
_geom_bond_distance
_geom_bond_site_symmetry_2
Mg0 Mg3 3.126286 1_555
Mg0 Mg148 3.147306 1_544
Mg0 Mg26 3.147306 1_545
Mg0 Mg20 3.166034 1_445
Mg0 Mg125 3.182036 1_554
Mg0 Mg47 3.182036 1_555
Mg0 Mg5 3.184823 1_555
Mg0 Mg145 3.188724 1_544
Mg0 Mg32 3.188724 1_545
Mg0 Mg18 3.196542 1_545
Mg0 Mg23 3.214148 1_545
Mg1 Mg2 3.126284 1_555
Mg1 Mg147 3.147307 1_544
Mg1 Mg25 3.147307 1_545
Mg1 Mg21 3.166035 1_545
Mg1 Mg124 3.182036 1_554
Mg1 Mg46 3.182036 1_555
Mg1 Mg4 3.184824 1_555
Mg1 Mg31 3.188724 1_545
Mg1 Mg144 3.188724 1_544
Mg1 Mg19 3.196541 1_545
Mg1 Mg22 3.214164 1_545
Mg2 Mg24 3.147307 1_655
Mg2 Mg3 3.166034 1_655
Mg2 Mg46 3.182036 1_555
Mg2 Mg4 3.184823 1_555
Mg2 Mg28 3.188716 1_655
Mg2 Mg7 3.196541 1_655
Mg2 Mg8 3.214157 1_655
Mg3 Mg47 3.182036 1_555
Mg3 Mg5 3.184823 1_555
Mg3 Mg7 3.196542 1_555
Mg3 Mg9 3.214156 1_555
Mg4 Mg46 3.175269 1_555
Mg4 Mg8 3.180937 1_655
Mg4 Mg40 3.181432 1_555
Mg4 Mg6 3.192053 1_555
Mg5 Mg9 3.180938 1_555
Mg5 Mg6 3.192068 1_555
Mg7 Mg9 3.179381 1_555
Mg7 Mg8 3.179381 1_555
Mg10 Mg41 3.176896 1_555
Mg10 Mg134 3.176896 1_554
Mg10 Mg40 3.176896 1_555
Mg10 Mg133 3.176896 1_554
Mg10 Mg139 3.180950 1_554
Mg10 Mg33 3.180963 1_555
Mg10 Mg14 3.185683 1_655
Mg10 Mg8 3.185699 1_655
Mg10 Mg11 3.189353 1_555
Mg10 Mg6 3.189361 1_555
Mg10 Mg16 3.192054 1_555
Mg10 Mg4 3.192070 1_555
Mg11 Mg42 3.176896 1_555
Mg11 Mg135 3.176896 1_554
Mg11 Mg132 3.176903 1_554
Mg11 Mg39 3.176903 1_555
Mg11 Mg139 3.180943 1_554
Mg11 Mg33 3.180956 1_555
Mg11 Mg15 3.185692 1_555
Mg11 Mg9 3.185699 1_555
Mg11 Mg6 3.189370 1_555
Mg11 Mg16 3.192052 1_555
Mg11 Mg5 3.192068 1_555
Mg12 Mg34 3.175300 1_555
Mg12 Mg136 3.175313 1_554
Mg12 Mg43 3.180714 1_555
Mg12 Mg44 3.180723 1_555
Mg12 Mg127 3.180727 1_554
Mg12 Mg128 3.180735 1_554
Mg12 Mg9 3.184375 1_555
Mg12 Mg15 3.184382 1_555
Mg12 Mg13 3.188838 1_555
Mg12 Mg17 3.188847 1_555
Mg12 Mg7 3.200085 1_555
Mg12 Mg19 3.200101 1_555
Mg13 Mg35 3.175300 1_555
Mg13 Mg137 3.175312 1_554
Mg13 Mg45 3.180715 1_555
Mg13 Mg43 3.180723 1_555
Mg13 Mg14 3.184366 1_555
Mg13 Mg8 3.184382 1_555
Mg13 Mg17 3.188830 1_555
Mg13 Mg18 3.200087 1_555
Mg13 Mg7 3.200103 1_555
Mg14 Mg30 3.173803 1_555
Mg14 Mg143 3.173803 1_554
Mg14 Mg41 3.178082 1_455
Mg14 Mg18 3.179389 1_555
Mg14 Mg35 3.180295 1_555
Mg14 Mg16 3.180945 1_455
Mg14 Mg8 3.198846 1_555
Mg14 Mg20 3.214173 1_455
Mg15 Mg29 3.173795 1_555
Mg15 Mg42 3.178083 1_555
Mg15 Mg19 3.179382 1_555
Mg15 Mg34 3.180303 1_555
Mg15 Mg16 3.180937 1_555
Mg15 Mg9 3.198861 1_555
Mg15 Mg21 3.214156 1_555
Mg16 Mg48 3.175269 1_555
Mg16 Mg42 3.181424 1_555
Mg16 Mg41 3.181424 1_555
Mg16 Mg20 3.184823 1_555
Mg16 Mg21 3.184824 1_555
Mg17 Mg36 3.175308 1_555
Mg17 Mg45 3.180714 1_555
Mg17 Mg44 3.180723 1_555
Mg17 Mg22 3.184389 1_555
Mg17 Mg23 3.184391 1_555
Mg17 Mg18 3.200085 1_555
Mg17 Mg19 3.200101 1_555
Mg18 Mg30 3.171100 1_555
Mg18 Mg32 3.171101 1_555
Mg18 Mg23 3.179388 1_555
Mg18 Mg45 3.186921 1_555
Mg18 Mg20 3.196541 1_455
Mg19 Mg31 3.171101 1_555
Mg19 Mg29 3.171101 1_555
Mg19 Mg22 3.179398 1_555
Mg19 Mg44 3.186920 1_555
Mg19 Mg21 3.196541 1_555
Mg20 Mg21 3.126285 1_555
Mg20 Mg26 3.147315 1_655
Mg20 Mg48 3.182036 1_555
Mg20 Mg30 3.188724 1_655
Mg21 Mg25 3.147315 1_555
Mg21 Mg48 3.182036 1_555
Mg21 Mg29 3.188724 1_555
Mg22 Mg31 3.173803 1_555
Mg22 Mg38 3.178075 1_565
Mg22 Mg36 3.180303 1_555
Mg22 Mg4 3.180929 1_565
Mg22 Mg6 3.185676 1_565
Mg22 Mg23 3.198861 1_555
Mg23 Mg32 3.173794 1_555
Mg23 Mg37 3.178075 1_565
Mg23 Mg36 3.180303 1_555
Mg23 Mg5 3.180922 1_565
Mg23 Mg6 3.185691 1_565
Mg24 Mg25 3.139796 1_445
Mg24 Mg26 3.139797 1_545
Mg24 Mg3 3.147306 1_555
Mg24 Mg49 3.185586 1_555
Mg24 Mg47 3.191898 1_555
Mg24 Mg46 3.191899 1_455
Mg24 Mg28 3.194624 1_555
Mg24 Mg27 3.194631 1_555
Mg24 Mg52 3.205666 1_555
Mg24 Mg53 3.205673 1_555
Mg25 Mg26 3.139796 1_655
Mg25 Mg49 3.185578 1_665
Mg25 Mg46 3.191892 1_565
Mg25 Mg48 3.191908 1_555
Mg25 Mg31 3.194647 1_555
Mg25 Mg29 3.194655 1_555
Mg25 Mg51 3.205674 1_555
Mg25 Mg55 3.205681 1_555
Mg26 Mg49 3.185578 1_565
Mg26 Mg47 3.191891 1_565
Mg26 Mg48 3.191906 1_455
Mg26 Mg32 3.194647 1_555
Mg26 Mg30 3.194656 1_555
Mg26 Mg50 3.205673 1_555
Mg26 Mg54 3.205682 1_555
Mg27 Mg7 3.171109 1_555
Mg27 Mg9 3.173794 1_555
Mg27 Mg47 3.173866 1_555
Mg27 Mg53 3.181042 1_555
Mg27 Mg28 3.181309 1_555
Mg27 Mg39 3.184928 1_555
Mg27 Mg56 3.185929 1_555
Mg27 Mg62 3.186657 1_555
Mg27 Mg3 3.188716 1_555
Mg27 Mg43 3.190198 1_555
Mg27 Mg34 3.195277 1_555
Mg28 Mg7 3.171100 1_555
Mg28 Mg8 3.173803 1_555
Mg28 Mg46 3.173873 1_455
Mg28 Mg52 3.181050 1_555
Mg28 Mg40 3.184960 1_455
Mg28 Mg56 3.185920 1_555
Mg28 Mg61 3.186665 1_555
Mg28 Mg43 3.190189 1_555
Mg28 Mg35 3.195286 1_555
Mg29 Mg48 3.173881 1_555
Mg29 Mg55 3.181058 1_555
Mg29 Mg31 3.181310 1_555
Mg29 Mg42 3.184945 1_555
Mg29 Mg58 3.185921 1_555
Mg29 Mg64 3.186649 1_555
Mg29 Mg44 3.190181 1_555
Mg29 Mg34 3.195269 1_555
Mg30 Mg48 3.173881 1_455
Mg30 Mg54 3.181050 1_555
Mg30 Mg32 3.181309 1_555
Mg30 Mg41 3.184944 1_455
Mg30 Mg57 3.185920 1_555
Mg30 Mg63 3.186657 1_555
Mg30 Mg45 3.190181 1_555
Mg30 Mg35 3.195270 1_555
Mg31 Mg46 3.173881 1_565
Mg31 Mg51 3.181058 1_555
Mg31 Mg38 3.184945 1_565
Mg31 Mg58 3.185913 1_555
Mg31 Mg59 3.186657 1_555
Mg31 Mg44 3.190181 1_555
Mg31 Mg36 3.195277 1_555
Mg32 Mg47 3.173882 1_565
Mg32 Mg50 3.181058 1_555
Mg32 Mg37 3.184944 1_565
Mg32 Mg57 3.185921 1_555
Mg32 Mg60 3.186657 1_555
Mg32 Mg45 3.190182 1_555
Mg32 Mg36 3.195261 1_555
Mg33 Mg65 3.178444 1_555
Mg33 Mg67 3.178444 1_555
Mg33 Mg66 3.178451 1_555
Mg33 Mg6 3.180955 1_555
Mg33 Mg37 3.184149 1_555
Mg33 Mg40 3.184157 1_555
Mg33 Mg39 3.184157 1_555
Mg33 Mg38 3.184158 1_555
Mg33 Mg42 3.184158 1_555
Mg33 Mg41 3.184165 1_555
Mg34 Mg9 3.180303 1_555
Mg34 Mg71 3.181997 1_555
Mg34 Mg39 3.182595 1_555
Mg34 Mg42 3.182609 1_555
Mg34 Mg64 3.183334 1_555
Mg34 Mg62 3.183334 1_555
Mg34 Mg43 3.184036 1_555
Mg34 Mg44 3.184037 1_555
Mg35 Mg8 3.180303 1_555
Mg35 Mg72 3.181997 1_555
Mg35 Mg40 3.182601 1_455
Mg35 Mg41 3.182609 1_455
Mg35 Mg63 3.183334 1_555
Mg35 Mg61 3.183334 1_555
Mg35 Mg45 3.184036 1_555
Mg35 Mg43 3.184036 1_555
Mg36 Mg73 3.182005 1_555
Mg36 Mg37 3.182595 1_565
Mg36 Mg38 3.182601 1_565
Mg36 Mg60 3.183326 1_555
Mg36 Mg59 3.183334 1_555
Mg36 Mg45 3.184044 1_555
Mg36 Mg44 3.184053 1_555
Mg37 Mg6 3.176903 1_555
Mg37 Mg47 3.177120 1_555
Mg37 Mg65 3.179483 1_555
Mg37 Mg60 3.179980 1_545
Mg37 Mg5 3.181424 1_555
Mg37 Mg38 3.182153 1_555
Mg37 Mg68 3.183562 1_555
Mg37 Mg39 3.186177 1_555
Mg38 Mg6 3.176896 1_555
Mg38 Mg46 3.177120 1_555
Mg38 Mg65 3.179476 1_555
Mg38 Mg59 3.179980 1_545
Mg38 Mg4 3.181424 1_555
Mg38 Mg69 3.183562 1_555
Mg38 Mg40 3.186168 1_555
Mg39 Mg47 3.177128 1_555
Mg39 Mg9 3.178075 1_555
Mg39 Mg67 3.179483 1_555
Mg39 Mg62 3.179972 1_555
Mg39 Mg5 3.181432 1_555
Mg39 Mg42 3.182145 1_555
Mg39 Mg68 3.183578 1_555
Mg40 Mg46 3.177137 1_555
Mg40 Mg8 3.178083 1_655
Mg40 Mg66 3.179468 1_555
Mg40 Mg61 3.179979 1_655
Mg40 Mg41 3.182138 1_555
Mg40 Mg69 3.183570 1_555
Mg41 Mg48 3.177121 1_555
Mg41 Mg66 3.179484 1_555
Mg41 Mg63 3.179979 1_655
Mg41 Mg70 3.183570 1_555
Mg41 Mg42 3.186160 1_555
Mg42 Mg48 3.177120 1_555
Mg42 Mg67 3.179476 1_555
Mg42 Mg64 3.179988 1_555
Mg42 Mg70 3.183562 1_555
Mg43 Mg56 3.177531 1_555
Mg43 Mg71 3.181194 1_555
Mg43 Mg72 3.181202 1_555
Mg43 Mg7 3.186921 1_555
Mg43 Mg44 3.191492 1_555
Mg43 Mg45 3.191494 1_555
Mg44 Mg58 3.177539 1_555
Mg44 Mg71 3.181202 1_555
Mg44 Mg73 3.181202 1_555
Mg44 Mg45 3.191493 1_555
Mg45 Mg57 3.177531 1_555
Mg45 Mg73 3.181194 1_555
Mg45 Mg72 3.181194 1_555
Mg46 Mg69 3.168612 1_555
Mg46 Mg51 3.176497 1_545
Mg46 Mg52 3.176505 1_655
Mg47 Mg68 3.168604 1_555
Mg47 Mg5 3.175268 1_555
Mg47 Mg50 3.176497 1_545
Mg47 Mg53 3.176505 1_555
Mg48 Mg70 3.168604 1_555
Mg48 Mg55 3.176497 1_555
Mg48 Mg54 3.176505 1_655
Mg49 Mg52 3.175865 1_555
Mg49 Mg55 3.175872 1_445
Mg49 Mg51 3.175872 1_445
Mg49 Mg50 3.175872 1_545
Mg49 Mg53 3.175880 1_555
Mg49 Mg54 3.175881 1_545
Mg49 Mg95 3.183442 1_445
Mg49 Mg74 3.183442 1_555
Mg49 Mg96 3.183443 1_545
Mg50 Mg54 3.172058 1_555
Mg50 Mg53 3.179690 1_565
Mg50 Mg96 3.179762 1_555
Mg50 Mg75 3.183192 1_565
Mg50 Mg57 3.183858 1_555
Mg50 Mg97 3.184007 1_555
Mg50 Mg60 3.187665 1_555
Mg50 Mg68 3.188378 1_565
Mg51 Mg55 3.172067 1_555
Mg51 Mg52 3.179681 1_665
Mg51 Mg95 3.179762 1_555
Mg51 Mg76 3.183192 1_565
Mg51 Mg58 3.183841 1_555
Mg51 Mg98 3.184007 1_555
Mg51 Mg59 3.187665 1_555
Mg51 Mg69 3.188395 1_565
Mg52 Mg53 3.172042 1_555
Mg52 Mg74 3.179762 1_555
Mg52 Mg76 3.183200 1_455
Mg52 Mg56 3.183849 1_555
Mg52 Mg80 3.184007 1_555
Mg52 Mg61 3.187674 1_555
Mg52 Mg69 3.188410 1_455
Mg53 Mg74 3.179762 1_555
Mg53 Mg75 3.183192 1_555
Mg53 Mg56 3.183842 1_555
Mg53 Mg79 3.183999 1_555
Mg53 Mg62 3.187657 1_555
Mg53 Mg68 3.188394 1_555
Mg54 Mg55 3.179689 1_455
Mg54 Mg96 3.179770 1_555
Mg54 Mg93 3.183200 1_455
Mg54 Mg57 3.183841 1_555
Mg54 Mg92 3.183999 1_555
Mg54 Mg63 3.187658 1_555
Mg54 Mg70 3.188394 1_455
Mg55 Mg95 3.179770 1_555
Mg55 Mg93 3.183184 1_555
Mg55 Mg58 3.183849 1_555
Mg55 Mg91 3.184006 1_555
Mg55 Mg64 3.187657 1_555
Mg55 Mg70 3.188380 1_555
Mg56 Mg61 3.181423 1_555
Mg56 Mg62 3.181423 1_555
Mg56 Mg84 3.183401 1_555
Mg56 Mg80 3.185487 1_555
Mg56 Mg79 3.185488 1_555
Mg56 Mg71 3.186029 1_555
Mg56 Mg72 3.186046 1_555
Mg57 Mg63 3.181423 1_555
Mg57 Mg60 3.181423 1_555
Mg57 Mg89 3.183393 1_555
Mg57 Mg92 3.185487 1_555
Mg57 Mg97 3.185487 1_555
Mg57 Mg73 3.186029 1_555
Mg57 Mg72 3.186030 1_555
Mg58 Mg59 3.181416 1_555
Mg58 Mg64 3.181416 1_555
Mg58 Mg90 3.183409 1_555
Mg58 Mg98 3.185487 1_555
Mg58 Mg91 3.185488 1_555
Mg58 Mg73 3.186053 1_555
Mg58 Mg71 3.186060 1_555
Mg59 Mg98 3.181705 1_555
Mg59 Mg69 3.182113 1_565
Mg59 Mg78 3.182233 1_565
Mg59 Mg94 3.184554 1_555
Mg59 Mg73 3.185882 1_555
Mg59 Mg65 3.186469 1_565
Mg59 Mg60 3.192376 1_555
Mg60 Mg97 3.181712 1_555
Mg60 Mg68 3.182106 1_565
Mg60 Mg77 3.182233 1_565
Mg60 Mg94 3.184562 1_555
Mg60 Mg73 3.185875 1_555
Mg60 Mg65 3.186475 1_565
Mg61 Mg80 3.181713 1_555
Mg61 Mg69 3.182113 1_455
Mg61 Mg83 3.182232 1_455
Mg61 Mg85 3.184554 1_555
Mg61 Mg72 3.185882 1_555
Mg61 Mg66 3.186468 1_455
Mg61 Mg63 3.192377 1_555
Mg62 Mg79 3.181712 1_555
Mg62 Mg68 3.182122 1_555
Mg62 Mg82 3.182233 1_555
Mg62 Mg86 3.184562 1_555
Mg62 Mg71 3.185875 1_555
Mg62 Mg67 3.186475 1_555
Mg62 Mg64 3.192384 1_555
Mg63 Mg92 3.181713 1_555
Mg63 Mg70 3.182121 1_455
Mg63 Mg87 3.182232 1_455
Mg63 Mg85 3.184562 1_555
Mg63 Mg72 3.185874 1_555
Mg63 Mg66 3.186475 1_455
Mg64 Mg91 3.181705 1_555
Mg64 Mg70 3.182113 1_555
Mg64 Mg88 3.182241 1_555
Mg64 Mg86 3.184554 1_555
Mg64 Mg71 3.185874 1_555
Mg64 Mg67 3.186484 1_555
Mg65 Mg66 3.183650 1_555
Mg65 Mg67 3.183667 1_555
Mg65 Mg81 3.183817 1_555
Mg65 Mg78 3.184360 1_555
Mg65 Mg77 3.184367 1_555
Mg65 Mg69 3.185294 1_555
Mg65 Mg68 3.185317 1_555
Mg66 Mg67 3.183658 1_555
Mg66 Mg81 3.183824 1_555
Mg66 Mg83 3.184360 1_555
Mg66 Mg87 3.184367 1_555
Mg66 Mg69 3.185295 1_555
Mg66 Mg70 3.185326 1_555
Mg67 Mg81 3.183817 1_555
Mg67 Mg88 3.184360 1_555
Mg67 Mg82 3.184367 1_555
Mg67 Mg70 3.185301 1_555
Mg67 Mg68 3.185325 1_555
Mg68 Mg77 3.182480 1_555
Mg68 Mg82 3.182488 1_555
Mg68 Mg75 3.182647 1_555
Mg69 Mg78 3.182480 1_555
Mg69 Mg83 3.182480 1_555
Mg69 Mg76 3.182647 1_555
Mg70 Mg88 3.182480 1_555
Mg70 Mg87 3.182488 1_555
Mg70 Mg93 3.182647 1_555
Mg71 Mg72 3.183470 1_555
Mg71 Mg73 3.183479 1_555
Mg71 Mg84 3.184026 1_555
Mg71 Mg90 3.184035 1_555
Mg71 Mg86 3.184624 1_555
Mg72 Mg73 3.183462 1_555
Mg72 Mg89 3.184027 1_555
Mg72 Mg84 3.184027 1_555
Mg72 Mg85 3.184624 1_555
Mg73 Mg89 3.184026 1_555
Mg73 Mg90 3.184027 1_555
Mg73 Mg94 3.184624 1_555
Mg74 Mg96 3.176388 1_545
Mg74 Mg95 3.176394 1_445
Mg74 Mg75 3.180157 1_555
Mg74 Mg76 3.180189 1_455
Mg74 Mg79 3.184472 1_555
Mg74 Mg80 3.184481 1_555
Mg75 Mg79 3.179439 1_555
Mg75 Mg97 3.179455 1_545
Mg75 Mg96 3.180165 1_545
Mg75 Mg82 3.188071 1_555
Mg75 Mg77 3.188079 1_555
Mg76 Mg98 3.179438 1_545
Mg76 Mg80 3.179446 1_655
Mg76 Mg95 3.180174 1_545
Mg76 Mg78 3.188064 1_555
Mg76 Mg83 3.188065 1_555
Mg77 Mg94 3.179349 1_545
Mg77 Mg97 3.180859 1_545
Mg77 Mg78 3.182955 1_555
Mg77 Mg81 3.185632 1_555
Mg77 Mg82 3.188325 1_555
Mg78 Mg94 3.179340 1_545
Mg78 Mg98 3.180844 1_545
Mg78 Mg81 3.185641 1_555
Mg78 Mg83 3.188324 1_555
Mg79 Mg82 3.180859 1_555
Mg79 Mg84 3.184853 1_555
Mg79 Mg80 3.186458 1_555
Mg79 Mg86 3.187056 1_555
Mg80 Mg83 3.180859 1_455
Mg80 Mg84 3.184843 1_555
Mg80 Mg85 3.187042 1_555
Mg81 Mg82 3.185632 1_555
Mg81 Mg88 3.185641 1_555
Mg81 Mg87 3.185648 1_555
Mg81 Mg83 3.185648 1_555
Mg82 Mg86 3.179349 1_555
Mg82 Mg88 3.182955 1_555
Mg83 Mg85 3.179340 1_655
Mg83 Mg87 3.182957 1_555
Mg84 Mg99 3.184026 1_555
Mg84 Mg85 3.186205 1_555
Mg84 Mg86 3.186229 1_555
Mg84 Mg90 3.190868 1_555
Mg84 Mg89 3.190869 1_555
Mg85 Mg87 3.179348 1_455
Mg85 Mg89 3.186221 1_555
Mg85 Mg92 3.187057 1_555
Mg86 Mg88 3.179340 1_555
Mg86 Mg99 3.184624 1_555
Mg86 Mg90 3.186222 1_555
Mg86 Mg91 3.187040 1_555
Mg87 Mg92 3.180859 1_655
Mg87 Mg93 3.188080 1_555
Mg87 Mg88 3.188324 1_555
Mg88 Mg91 3.180860 1_555
Mg88 Mg93 3.188071 1_555
Mg89 Mg92 3.184836 1_555
Mg89 Mg97 3.184837 1_555
Mg89 Mg94 3.186221 1_555
Mg89 Mg90 3.190868 1_555
Mg90 Mg99 3.184035 1_555
Mg90 Mg98 3.184851 1_555
Mg90 Mg91 3.184851 1_555
Mg90 Mg94 3.186207 1_555
Mg91 Mg93 3.179438 1_555
Mg91 Mg95 3.184480 1_555
Mg91 Mg98 3.186475 1_555
Mg92 Mg93 3.179454 1_455
Mg92 Mg96 3.184481 1_555
Mg92 Mg97 3.186458 1_555
Mg93 Mg95 3.180174 1_555
Mg93 Mg96 3.180181 1_655
Mg94 Mg98 3.187032 1_555
Mg94 Mg97 3.187056 1_555
Mg95 Mg96 3.176402 1_655
Mg95 Mg98 3.184480 1_555
Mg96 Mg97 3.184472 1_555
Mg100 Mg129 3.181182 1_555
Mg100 Mg127 3.181190 1_555
Mg100 Mg137 3.181984 1_555
Mg100 Mg101 3.183462 1_555
Mg100 Mg99 3.183470 1_555
Mg100 Mg89 3.184027 1_555
Mg100 Mg84 3.184027 1_555
Mg100 Mg85 3.184624 1_555
Mg100 Mg112 3.185874 1_555
Mg100 Mg110 3.185882 1_555
Mg100 Mg115 3.186030 1_555
Mg100 Mg114 3.186046 1_555
Mg101 Mg129 3.181181 1_555
Mg101 Mg128 3.181190 1_555
Mg101 Mg138 3.181993 1_555
Mg101 Mg99 3.183479 1_555
Mg101 Mg89 3.184026 1_555
Mg101 Mg90 3.184027 1_555
Mg101 Mg94 3.184624 1_555
Mg101 Mg109 3.185875 1_555
Mg101 Mg108 3.185882 1_555
Mg101 Mg115 3.186029 1_555
Mg101 Mg116 3.186053 1_555
Mg102 Mg125 3.168604 1_555
Mg102 Mg109 3.182106 1_545
Mg102 Mg111 3.182122 1_555
Mg102 Mg77 3.182480 1_555
Mg102 Mg82 3.182488 1_555
Mg102 Mg75 3.182647 1_555
Mg102 Mg130 3.183562 1_555
Mg102 Mg132 3.183578 1_555
Mg102 Mg105 3.185317 1_555
Mg102 Mg107 3.185325 1_555
Mg102 Mg117 3.188378 1_545
Mg102 Mg120 3.188394 1_555
Mg103 Mg124 3.168612 1_555
Mg103 Mg110 3.182113 1_655
Mg103 Mg108 3.182113 1_545
Mg103 Mg78 3.182480 1_555
Mg103 Mg83 3.182480 1_555
Mg103 Mg76 3.182647 1_555
Mg103 Mg131 3.183562 1_555
Mg103 Mg133 3.183570 1_555
Mg103 Mg105 3.185294 1_555
Mg103 Mg106 3.185295 1_555
Mg103 Mg118 3.188395 1_545
Mg103 Mg119 3.188410 1_655
Mg104 Mg126 3.168604 1_555
Mg104 Mg113 3.182113 1_555
Mg104 Mg112 3.182121 1_655
Mg104 Mg88 3.182480 1_555
Mg104 Mg87 3.182488 1_555
Mg104 Mg93 3.182647 1_555
Mg104 Mg135 3.183562 1_555
Mg104 Mg134 3.183570 1_555
Mg104 Mg107 3.185301 1_555
Mg104 Mg106 3.185326 1_555
Mg104 Mg122 3.188380 1_555
Mg104 Mg121 3.188394 1_655
Mg105 Mg139 3.178457 1_555
Mg105 Mg131 3.179476 1_555
Mg105 Mg130 3.179483 1_555
Mg105 Mg106 3.183650 1_555
Mg105 Mg107 3.183667 1_555
Mg105 Mg81 3.183817 1_555
Mg105 Mg78 3.184360 1_555
Mg105 Mg77 3.184367 1_555
Mg105 Mg108 3.186469 1_545
Mg105 Mg109 3.186475 1_545
Mg106 Mg139 3.178464 1_555
Mg106 Mg133 3.179468 1_555
Mg106 Mg134 3.179484 1_555
Mg106 Mg107 3.183658 1_555
Mg106 Mg81 3.183824 1_555
Mg106 Mg83 3.184360 1_555
Mg106 Mg87 3.184367 1_555
Mg106 Mg110 3.186468 1_655
Mg106 Mg112 3.186475 1_655
Mg107 Mg139 3.178457 1_555
Mg107 Mg135 3.179476 1_555
Mg107 Mg132 3.179483 1_555
Mg107 Mg81 3.183817 1_555
Mg107 Mg88 3.184360 1_555
Mg107 Mg82 3.184367 1_555
Mg107 Mg111 3.186475 1_555
Mg107 Mg113 3.186484 1_555
Mg108 Mg131 3.179980 1_565
Mg108 Mg116 3.181416 1_555
Mg108 Mg98 3.181705 1_555
Mg108 Mg78 3.182233 1_565
Mg108 Mg138 3.183321 1_555
Mg108 Mg94 3.184554 1_555
Mg108 Mg144 3.186657 1_555
Mg108 Mg118 3.187665 1_555
Mg108 Mg109 3.192376 1_555
Mg109 Mg130 3.179980 1_565
Mg109 Mg115 3.181423 1_555
Mg109 Mg97 3.181712 1_555
Mg109 Mg77 3.182233 1_565
Mg109 Mg138 3.183313 1_555
Mg109 Mg94 3.184562 1_555
Mg109 Mg145 3.186657 1_555
Mg109 Mg117 3.187665 1_555
Mg110 Mg133 3.179979 1_455
Mg110 Mg114 3.181423 1_555
Mg110 Mg80 3.181713 1_555
Mg110 Mg83 3.182232 1_455
Mg110 Mg137 3.183321 1_555
Mg110 Mg85 3.184554 1_555
Mg110 Mg141 3.186665 1_555
Mg110 Mg119 3.187674 1_555
Mg110 Mg112 3.192377 1_555
Mg111 Mg132 3.179972 1_555
Mg111 Mg114 3.181423 1_555
Mg111 Mg79 3.181712 1_555
Mg111 Mg82 3.182233 1_555
Mg111 Mg136 3.183321 1_555
Mg111 Mg86 3.184562 1_555
Mg111 Mg99 3.185875 1_555
Mg111 Mg140 3.186657 1_555
Mg111 Mg120 3.187657 1_555
Mg111 Mg113 3.192384 1_555
Mg112 Mg134 3.179979 1_455
Mg112 Mg115 3.181423 1_555
Mg112 Mg92 3.181713 1_555
Mg112 Mg87 3.182232 1_455
Mg112 Mg137 3.183321 1_555
Mg112 Mg85 3.184562 1_555
Mg112 Mg143 3.186657 1_555
Mg112 Mg121 3.187658 1_555
Mg113 Mg135 3.179988 1_555
Mg113 Mg116 3.181416 1_555
Mg113 Mg91 3.181705 1_555
Mg113 Mg88 3.182241 1_555
Mg113 Mg136 3.183321 1_555
Mg113 Mg86 3.184554 1_555
Mg113 Mg99 3.185874 1_555
Mg113 Mg142 3.186649 1_555
Mg113 Mg122 3.187657 1_555
Mg114 Mg127 3.177518 1_555
Mg114 Mg84 3.183401 1_555
Mg114 Mg120 3.183842 1_555
Mg114 Mg119 3.183849 1_555
Mg114 Mg80 3.185487 1_555
Mg114 Mg79 3.185488 1_555
Mg114 Mg141 3.185920 1_555
Mg114 Mg140 3.185929 1_555
Mg114 Mg99 3.186029 1_555
Mg115 Mg129 3.177518 1_555
Mg115 Mg89 3.183393 1_555
Mg115 Mg121 3.183841 1_555
Mg115 Mg117 3.183858 1_555
Mg115 Mg92 3.185487 1_555
Mg115 Mg97 3.185487 1_555
Mg115 Mg143 3.185920 1_555
Mg115 Mg145 3.185921 1_555
Mg116 Mg128 3.177526 1_555
Mg116 Mg90 3.183409 1_555
Mg116 Mg118 3.183841 1_555
Mg116 Mg122 3.183849 1_555
Mg116 Mg98 3.185487 1_555
Mg116 Mg91 3.185488 1_555
Mg116 Mg144 3.185913 1_555
Mg116 Mg142 3.185921 1_555
Mg116 Mg99 3.186060 1_555
Mg117 Mg121 3.172058 1_555
Mg117 Mg123 3.175872 1_565
Mg117 Mg125 3.176484 1_565
Mg117 Mg120 3.179690 1_565
Mg117 Mg96 3.179774 1_555
Mg117 Mg145 3.181045 1_555
Mg117 Mg75 3.183205 1_565
Mg117 Mg97 3.184020 1_555
Mg117 Mg148 3.205660 1_555
Mg118 Mg122 3.172067 1_555
Mg118 Mg123 3.175872 1_665
Mg118 Mg124 3.176484 1_565
Mg118 Mg119 3.179681 1_665
Mg118 Mg95 3.179775 1_555
Mg118 Mg144 3.181045 1_555
Mg118 Mg76 3.183205 1_565
Mg118 Mg98 3.184019 1_555
Mg118 Mg147 3.205661 1_555
Mg119 Mg120 3.172042 1_555
Mg119 Mg123 3.175865 1_555
Mg119 Mg124 3.176492 1_455
Mg119 Mg74 3.179775 1_555
Mg119 Mg141 3.181037 1_555
Mg119 Mg76 3.183212 1_455
Mg119 Mg80 3.184020 1_555
Mg119 Mg146 3.205653 1_555
Mg120 Mg123 3.175880 1_555
Mg120 Mg125 3.176492 1_555
Mg120 Mg74 3.179774 1_555
Mg120 Mg140 3.181029 1_555
Mg120 Mg75 3.183205 1_555
Mg120 Mg79 3.184012 1_555
Mg120 Mg146 3.205660 1_555
Mg121 Mg123 3.175881 1_565
Mg121 Mg126 3.176492 1_455
Mg121 Mg122 3.179689 1_455
Mg121 Mg96 3.179783 1_555
Mg121 Mg143 3.181037 1_555
Mg121 Mg93 3.183212 1_455
Mg121 Mg92 3.184012 1_555
Mg121 Mg148 3.205669 1_555
Mg122 Mg123 3.175872 1_665
Mg122 Mg126 3.176485 1_555
Mg122 Mg95 3.179783 1_555
Mg122 Mg142 3.181045 1_555
Mg122 Mg93 3.183197 1_555
Mg122 Mg91 3.184019 1_555
Mg122 Mg147 3.205669 1_555
Mg123 Mg95 3.183442 1_445
Mg123 Mg74 3.183442 1_555
Mg123 Mg96 3.183443 1_545
Mg123 Mg147 3.185578 1_445
Mg123 Mg148 3.185578 1_545
Mg123 Mg146 3.185586 1_555
Mg124 Mg141 3.173873 1_655
Mg124 Mg144 3.173881 1_545
Mg124 Mg4 3.175269 1_556
Mg124 Mg131 3.177120 1_555
Mg124 Mg133 3.177137 1_555
Mg124 Mg2 3.182036 1_556
Mg124 Mg147 3.191892 1_545
Mg124 Mg146 3.191899 1_655
Mg125 Mg140 3.173866 1_555
Mg125 Mg145 3.173882 1_545
Mg125 Mg5 3.175268 1_556
Mg125 Mg130 3.177120 1_555
Mg125 Mg132 3.177128 1_555
Mg125 Mg3 3.182036 1_556
Mg125 Mg148 3.191891 1_545
Mg125 Mg146 3.191898 1_555
Mg126 Mg143 3.173881 1_655
Mg126 Mg142 3.173881 1_555
Mg126 Mg16 3.175269 1_556
Mg126 Mg135 3.177120 1_555
Mg126 Mg134 3.177121 1_555
Mg126 Mg20 3.182036 1_556
Mg126 Mg21 3.182036 1_556
Mg126 Mg148 3.191906 1_655
Mg126 Mg147 3.191908 1_555
Mg127 Mg13 3.180736 1_556
Mg127 Mg99 3.181181 1_555
Mg127 Mg136 3.184036 1_555
Mg127 Mg137 3.184036 1_555
Mg127 Mg7 3.186933 1_556
Mg127 Mg141 3.190189 1_555
Mg127 Mg140 3.190198 1_555
Mg127 Mg128 3.191492 1_555
Mg127 Mg129 3.191494 1_555
Mg128 Mg17 3.180736 1_556
Mg128 Mg99 3.181190 1_555
Mg128 Mg136 3.184037 1_555
Mg128 Mg138 3.184053 1_555
Mg128 Mg19 3.186933 1_556
Mg128 Mg144 3.190181 1_555
Mg128 Mg142 3.190181 1_555
Mg128 Mg129 3.191493 1_555
Mg129 Mg17 3.180727 1_556
Mg129 Mg13 3.180727 1_556
Mg129 Mg137 3.184036 1_555
Mg129 Mg138 3.184044 1_555
Mg129 Mg18 3.186933 1_556
Mg129 Mg143 3.190181 1_555
Mg129 Mg145 3.190182 1_555
Mg130 Mg6 3.176903 1_556
Mg130 Mg23 3.178075 1_546
Mg130 Mg5 3.181424 1_556
Mg130 Mg131 3.182153 1_555
Mg130 Mg138 3.182594 1_545
Mg130 Mg139 3.184149 1_555
Mg130 Mg145 3.184944 1_545
Mg130 Mg132 3.186177 1_555
Mg131 Mg6 3.176896 1_556
Mg131 Mg22 3.178075 1_546
Mg131 Mg4 3.181424 1_556
Mg131 Mg138 3.182601 1_545
Mg131 Mg139 3.184158 1_555
Mg131 Mg144 3.184945 1_545
Mg131 Mg133 3.186168 1_555
Mg132 Mg9 3.178075 1_556
Mg132 Mg5 3.181432 1_556
Mg132 Mg135 3.182145 1_555
Mg132 Mg136 3.182595 1_555
Mg132 Mg139 3.184157 1_555
Mg132 Mg140 3.184928 1_555
Mg133 Mg8 3.178083 1_656
Mg133 Mg4 3.181432 1_556
Mg133 Mg134 3.182138 1_555
Mg133 Mg137 3.182601 1_655
Mg133 Mg139 3.184157 1_555
Mg133 Mg141 3.184960 1_655
Mg134 Mg14 3.178082 1_656
Mg134 Mg16 3.181424 1_556
Mg134 Mg137 3.182609 1_655
Mg134 Mg139 3.184165 1_555
Mg134 Mg143 3.184944 1_655
Mg134 Mg135 3.186160 1_555
Mg135 Mg15 3.178083 1_556
Mg135 Mg16 3.181424 1_556
Mg135 Mg136 3.182609 1_555
Mg135 Mg139 3.184158 1_555
Mg135 Mg142 3.184945 1_555
Mg136 Mg15 3.180315 1_556
Mg136 Mg9 3.180316 1_556
Mg136 Mg99 3.181985 1_555
Mg136 Mg142 3.195269 1_555
Mg136 Mg140 3.195277 1_555
Mg137 Mg14 3.180308 1_556
Mg137 Mg8 3.180316 1_556
Mg137 Mg143 3.195270 1_555
Mg137 Mg141 3.195286 1_555
Mg138 Mg17 3.175321 1_556
Mg138 Mg22 3.180315 1_556
Mg138 Mg23 3.180316 1_556
Mg138 Mg145 3.195261 1_555
Mg138 Mg144 3.195277 1_555
Mg139 Mg6 3.180943 1_556
Mg140 Mg7 3.171109 1_556
Mg140 Mg9 3.173794 1_556
Mg140 Mg141 3.181309 1_555
Mg140 Mg3 3.188716 1_556
Mg140 Mg146 3.194631 1_555
Mg141 Mg7 3.171100 1_556
Mg141 Mg8 3.173803 1_556
Mg141 Mg2 3.188716 1_456
Mg141 Mg146 3.194624 1_555
Mg142 Mg19 3.171101 1_556
Mg142 Mg15 3.173795 1_556
Mg142 Mg144 3.181310 1_555
Mg142 Mg21 3.188724 1_556
Mg142 Mg147 3.194655 1_555
Mg143 Mg18 3.171100 1_556
Mg143 Mg145 3.181309 1_555
Mg143 Mg20 3.188724 1_456
Mg143 Mg148 3.194656 1_555
Mg144 Mg19 3.171101 1_556
Mg144 Mg22 3.173803 1_556
Mg144 Mg147 3.194647 1_555
Mg145 Mg18 3.171101 1_556
Mg145 Mg23 3.173794 1_556
Mg145 Mg148 3.194647 1_555
Mg146 Mg147 3.139796 1_445
Mg146 Mg148 3.139797 1_545
Mg146 Mg3 3.147306 1_556
Mg146 Mg2 3.147307 1_456
Mg147 Mg148 3.139796 1_655
Mg147 Mg21 3.147315 1_556
Mg148 Mg20 3.147315 1_456
Al0 Mg147 3.140794 1_444
Al0 Mg25 3.140794 1_445
Al0 Mg148 3.140794 1_544
Al0 Mg26 3.140794 1_545
Al0 Mg146 3.140802 1_554
Al0 Mg24 3.140802 1_555
Al0 Mg3 3.146180 1_555
Al0 Mg21 3.146180 1_445
Al0 Mg0 3.146180 1_555
Al0 Mg1 3.146180 1_455
Al0 Mg20 3.146181 1_445
Al0 Mg2 3.146181 1_455
