# generated using pymatgen
data_YbBPt2
_symmetry_space_group_name_H-M   'P 1'
_cell_length_a   5.47073346
_cell_length_b   5.47073346
_cell_length_c   7.55231400
_cell_angle_alpha   90.00000000
_cell_angle_beta   90.00000000
_cell_angle_gamma   119.99999349
_symmetry_Int_Tables_number   1
_chemical_formula_structural   YbBPt2
_chemical_formula_sum   'Yb3 B3 Pt6'
_cell_volume   195.75001800
_cell_formula_units_Z   3
loop_
 _symmetry_equiv_pos_site_id
 _symmetry_equiv_pos_as_xyz
  1  'x, y, z'
loop_
 _atom_site_type_symbol
 _atom_site_label
 _atom_site_symmetry_multiplicity
 _atom_site_fract_x
 _atom_site_fract_y
 _atom_site_fract_z
 _atom_site_occupancy
  Yb  Yb0  1  0.50000000  0.50000000  0.16666700  1
  Yb  Yb1  1  0.00000000  0.50000000  0.50000000  1
  Yb  Yb2  1  0.50000000  0.00000000  0.83333300  1
  B  B0  1  0.50000000  0.50000000  0.66666700  1
  B  B1  1  0.00000000  0.50000000  0.00000000  1
  B  B2  1  0.50000000  0.00000000  0.33333300  1
  Pt  Pt0  1  0.14765800  0.85234200  0.16666700  1
  Pt  Pt1  1  0.70468400  0.85234200  0.50000000  1
  Pt  Pt2  1  0.14765800  0.29531600  0.83333300  1
  Pt  Pt3  1  0.85234200  0.14765800  0.16666700  1
  Pt  Pt4  1  0.29531600  0.14765800  0.50000000  1
  Pt  Pt5  1  0.85234200  0.70468400  0.83333300  1
loop_
_geom_bond_atom_site_label_1
_geom_bond_atom_site_label_2
_geom_bond_distance
_geom_bond_site_symmetry_2
B0 Pt2 2.096506 1_555
B0 Pt5 2.096506 1_555
B0 Pt4 2.096510 1_555
B0 Pt1 2.096510 1_555
B0 Yb2 3.011078 1_555
B0 Yb2 3.011078 1_565
B0 Yb1 3.011081 1_655
B0 Yb1 3.011081 1_555
B1 Pt5 2.096510 1_454
B1 Pt2 2.096510 1_554
B1 Pt0 2.096510 1_555
B1 Pt3 2.096510 1_455
B1 Yb0 3.011081 1_455
B1 Yb0 3.011081 1_555
B1 Yb2 3.011082 1_454
B1 Yb2 3.011082 1_564
B2 Pt0 2.096505 1_545
B2 Pt3 2.096505 1_555
B2 Pt4 2.096510 1_555
B2 Pt1 2.096510 1_545
B2 Yb0 3.011078 1_545
B2 Yb0 3.011078 1_555
B2 Yb1 3.011082 1_655
B2 Yb1 3.011082 1_545
Pt0 Yb1 3.024641 1_555
Pt0 Yb2 3.024648 1_564
Pt0 Yb0 3.072433 1_565
Pt0 Yb0 3.072433 1_455
Pt1 Yb2 3.024641 1_565
Pt1 Yb0 3.024641 1_555
Pt1 Yb1 3.072432 1_655
Pt1 Yb1 3.072433 1_665
Pt2 Yb1 3.024641 1_555
Pt2 Yb0 3.024648 1_556
Pt2 Yb2 3.072432 1_555
Pt2 Yb2 3.072433 1_455
Pt3 Yb1 3.024641 1_655
Pt3 Yb2 3.024648 1_554
Pt3 Yb0 3.072433 1_655
Pt3 Yb0 3.072433 1_545
Pt4 Yb2 3.024641 1_555
Pt4 Yb0 3.024641 1_555
Pt4 Yb1 3.072432 1_555
Pt4 Yb1 3.072433 1_545
Pt5 Yb1 3.024641 1_655
Pt5 Yb0 3.024648 1_556
Pt5 Yb2 3.072432 1_565
Pt5 Yb2 3.072433 1_665
