# generated using pymatgen
data_Cs2UAs2O9
_symmetry_space_group_name_H-M   'P 1'
_cell_length_a   6.48138300
_cell_length_b   13.20276900
_cell_length_c   13.45183400
_cell_angle_alpha   90.00000000
_cell_angle_beta   90.00000000
_cell_angle_gamma   90.00000000
_symmetry_Int_Tables_number   1
_chemical_formula_structural   Cs2UAs2O9
_chemical_formula_sum   'Cs8 U4 As8 O36'
_cell_volume   1151.10306371
_cell_formula_units_Z   4
loop_
 _symmetry_equiv_pos_site_id
 _symmetry_equiv_pos_as_xyz
  1  'x, y, z'
loop_
 _atom_site_type_symbol
 _atom_site_label
 _atom_site_symmetry_multiplicity
 _atom_site_fract_x
 _atom_site_fract_y
 _atom_site_fract_z
 _atom_site_occupancy
  Cs  Cs0  1  0.51053800  0.00000000  0.32409000  1
  Cs  Cs1  1  0.51053800  0.00000000  0.67591000  1
  Cs  Cs2  1  0.48946200  0.50000000  0.82409000  1
  Cs  Cs3  1  0.48946200  0.50000000  0.17591000  1
  Cs  Cs4  1  0.49124900  0.82276000  0.00000000  1
  Cs  Cs5  1  0.50875100  0.32276000  0.50000000  1
  Cs  Cs6  1  0.50875100  0.67724000  0.50000000  1
  Cs  Cs7  1  0.49124900  0.17724000  0.00000000  1
  U  U0  1  0.00000000  0.75000000  0.25000000  1
  U  U1  1  0.00000000  0.75000000  0.75000000  1
  U  U2  1  0.00000000  0.25000000  0.75000000  1
  U  U3  1  0.00000000  0.25000000  0.25000000  1
  As  As0  1  0.98488000  0.62425700  0.00000000  1
  As  As1  1  0.01512000  0.12425700  0.50000000  1
  As  As2  1  0.01512000  0.87574300  0.50000000  1
  As  As3  1  0.98488000  0.37574300  0.00000000  1
  As  As4  1  0.00881300  0.00000000  0.12126800  1
  As  As5  1  0.00881300  0.00000000  0.87873200  1
  As  As6  1  0.99118700  0.50000000  0.62126800  1
  As  As7  1  0.99118700  0.50000000  0.37873200  1
  O  O0  1  0.72834000  0.61893200  0.00000000  1
  O  O1  1  0.27166000  0.11893200  0.50000000  1
  O  O2  1  0.27166000  0.88106800  0.50000000  1
  O  O3  1  0.72834000  0.38106800  0.00000000  1
  O  O4  1  0.88979500  0.89520300  0.17213900  1
  O  O5  1  0.88979500  0.89520300  0.82786100  1
  O  O6  1  0.11020500  0.39520300  0.67213900  1
  O  O7  1  0.11020500  0.60479700  0.32786100  1
  O  O8  1  0.88979500  0.10479700  0.82786100  1
  O  O9  1  0.88979500  0.10479700  0.17213900  1
  O  O10  1  0.11020500  0.60479700  0.67213900  1
  O  O11  1  0.11020500  0.39520300  0.32786100  1
  O  O12  1  0.26563300  0.00000000  0.11654600  1
  O  O13  1  0.26563300  0.00000000  0.88345400  1
  O  O14  1  0.73436700  0.50000000  0.61654600  1
  O  O15  1  0.73436700  0.50000000  0.38345400  1
  O  O16  1  0.10519600  0.50000000  0.00000000  1
  O  O17  1  0.89480400  0.00000000  0.50000000  1
  O  O18  1  0.10267100  0.67998900  0.10128100  1
  O  O19  1  0.10267100  0.67998900  0.89871900  1
  O  O20  1  0.89732900  0.17999000  0.60128100  1
  O  O21  1  0.89732900  0.82001100  0.39871900  1
  O  O22  1  0.10267100  0.32001100  0.89871900  1
  O  O23  1  0.10267100  0.32001100  0.10128100  1
  O  O24  1  0.89732900  0.82001100  0.60128100  1
  O  O25  1  0.89732900  0.17999000  0.39871900  1
  O  O26  1  0.88828600  0.00000000  0.00000000  1
  O  O27  1  0.11171400  0.50000000  0.50000000  1
  O  O28  1  0.73962500  0.69985500  0.23586000  1
  O  O29  1  0.73962500  0.69985500  0.76414000  1
  O  O30  1  0.26037500  0.19985500  0.73586000  1
  O  O31  1  0.26037500  0.80014500  0.26414000  1
  O  O32  1  0.73962500  0.30014500  0.76414000  1
  O  O33  1  0.73962500  0.30014500  0.23586000  1
  O  O34  1  0.26037500  0.80014500  0.73586000  1
  O  O35  1  0.26037500  0.19985500  0.26414000  1
loop_
_geom_bond_atom_site_label_1
_geom_bond_atom_site_label_2
_geom_bond_distance
_geom_bond_site_symmetry_2
Cs0 O35 3.200266 1_555
Cs0 O31 3.200266 1_545
Cs0 O12 3.211543 1_555
Cs0 O1 3.234528 1_555
Cs0 O2 3.234528 1_545
Cs0 O17 3.435462 1_555
Cs0 O9 3.483489 1_555
Cs0 O4 3.483489 1_545
Cs0 O21 3.597168 1_545
Cs0 O25 3.597176 1_555
Cs1 O30 3.200266 1_555
Cs1 O34 3.200266 1_545
Cs1 O13 3.211543 1_555
Cs1 O1 3.234528 1_555
Cs1 O2 3.234528 1_545
Cs1 O17 3.435462 1_555
Cs1 O8 3.483489 1_555
Cs1 O5 3.483489 1_545
Cs1 O24 3.597168 1_545
Cs1 O20 3.597176 1_555
Cs2 O29 3.200266 1_555
Cs2 O32 3.200266 1_555
Cs2 O14 3.211543 1_555
Cs2 O0 3.234528 1_556
Cs2 O3 3.234528 1_556
Cs2 O16 3.435462 1_556
Cs2 O10 3.483489 1_555
Cs2 O6 3.483489 1_555
Cs2 O19 3.597168 1_555
Cs2 O22 3.597168 1_555
Cs3 O28 3.200266 1_555
Cs3 O33 3.200266 1_555
Cs3 O15 3.211543 1_555
Cs3 O0 3.234528 1_555
Cs3 O3 3.234528 1_555
Cs3 O16 3.435462 1_555
Cs3 O7 3.483489 1_555
Cs3 O11 3.483489 1_555
Cs3 O18 3.597168 1_555
Cs3 O23 3.597168 1_555
Cs4 O0 3.098930 1_555
Cs4 O12 3.173653 1_565
Cs4 O13 3.173653 1_564
Cs4 O18 3.428156 1_555
Cs4 O19 3.428156 1_554
Cs4 O26 3.478218 1_565
Cs4 O4 3.598512 1_555
Cs4 O5 3.598512 1_554
Cs5 O1 3.098930 1_555
Cs5 O14 3.173653 1_555
Cs5 O15 3.173653 1_555
Cs5 O20 3.428149 1_555
Cs5 O25 3.428149 1_555
Cs5 O27 3.478218 1_555
Cs5 O6 3.598512 1_555
Cs5 O11 3.598512 1_555
Cs6 O2 3.098930 1_555
Cs6 O14 3.173653 1_555
Cs6 O15 3.173653 1_555
Cs6 O24 3.428156 1_555
Cs6 O21 3.428156 1_555
Cs6 O27 3.478218 1_555
Cs6 O10 3.598512 1_555
Cs6 O7 3.598512 1_555
Cs7 O3 3.098930 1_555
Cs7 O12 3.173653 1_555
Cs7 O13 3.173653 1_554
Cs7 O23 3.428156 1_555
Cs7 O22 3.428156 1_554
Cs7 O26 3.478218 1_555
Cs7 O9 3.598512 1_555
Cs7 O8 3.598512 1_554
As0 O0 1.664220 1_555
As0 O18 1.726399 1_655
As0 O19 1.726399 1_654
As0 O16 1.816444 1_655
As1 O1 1.664220 1_555
As1 O20 1.726405 1_455
As1 O25 1.726405 1_455
As1 O17 1.816444 1_455
As2 O2 1.664220 1_555
As2 O24 1.726399 1_455
As2 O21 1.726399 1_455
As2 O17 1.816444 1_465
As3 O3 1.664220 1_555
As3 O23 1.726399 1_655
As3 O22 1.726399 1_654
As3 O16 1.816444 1_655
As4 O12 1.665760 1_555
As4 O4 1.725606 1_445
As4 O9 1.725606 1_455
As4 O26 1.808676 1_455
As5 O13 1.665760 1_555
As5 O5 1.725606 1_445
As5 O8 1.725606 1_455
As5 O26 1.808676 1_456
As6 O14 1.665760 1_555
As6 O10 1.725606 1_655
As6 O6 1.725606 1_655
As6 O27 1.808676 1_655
As7 O15 1.665760 1_555
As7 O7 1.725606 1_655
As7 O11 1.725606 1_655
As7 O27 1.808676 1_655
O4 U0 2.298345 1_655
O5 U1 2.298345 1_655
O6 U2 2.298345 1_555
O7 U0 2.298345 1_555
O8 U2 2.298345 1_655
O9 U3 2.298345 1_655
O10 U1 2.298345 1_555
O11 U3 2.298345 1_555
O18 U0 2.302043 1_555
O19 U1 2.302043 1_555
O20 U2 2.302037 1_655
O21 U0 2.302043 1_655
O22 U2 2.302043 1_555
O23 U3 2.302043 1_555
O24 U1 2.302043 1_655
O25 U3 2.302037 1_655
O28 U0 1.822760 1_655
O29 U1 1.822760 1_655
O30 U2 1.822760 1_555
O31 U0 1.822760 1_555
O32 U2 1.822760 1_655
O33 U3 1.822760 1_655
O34 U1 1.822760 1_555
O35 U3 1.822760 1_555
