# generated using pymatgen
data_KNa3Al12Si12(HO6)8
_symmetry_space_group_name_H-M   'P 1'
_cell_length_a   9.00300953
_cell_length_b   10.38825231
_cell_length_c   19.62421862
_cell_angle_alpha   94.28169515
_cell_angle_beta   90.00000457
_cell_angle_gamma   90.00001909
_symmetry_Int_Tables_number   1
_chemical_formula_structural   KNa3Al12Si12(HO6)8
_chemical_formula_sum   'K2 Na6 Al24 Si24 H16 O96'
_cell_volume   1830.24309889
_cell_formula_units_Z   2
loop_
 _symmetry_equiv_pos_site_id
 _symmetry_equiv_pos_as_xyz
  1  'x, y, z'
loop_
 _atom_site_type_symbol
 _atom_site_label
 _atom_site_symmetry_multiplicity
 _atom_site_fract_x
 _atom_site_fract_y
 _atom_site_fract_z
 _atom_site_occupancy
  K  K0  1  0.60349117  0.75000771  0.24999064  1
  K  K1  1  0.39650329  0.25000664  0.74998873  1
  Na  Na0  1  0.87863003  0.00150488  0.74935875  1
  Na  Na1  1  0.12137132  0.99851806  0.25063059  1
  Na  Na2  1  0.42337001  0.74999938  0.74998906  1
  Na  Na3  1  0.87862232  0.49851558  0.75063068  1
  Na  Na4  1  0.12137209  0.50150299  0.24936065  1
  Na  Na5  1  0.57662588  0.25000055  0.24999048  1
  Al  Al0  1  0.41566086  0.62714088  0.00096722  1
  Al  Al1  1  0.41568497  0.87285777  0.49901559  1
  Al  Al2  1  0.58488537  0.87393790  0.99922191  1
  Al  Al3  1  0.58490981  0.62606858  0.50076164  1
  Al  Al4  1  0.74130938  0.77394690  0.85919633  1
  Al  Al5  1  0.91433414  0.87580054  0.99826501  1
  Al  Al6  1  0.74132960  0.72606191  0.64078336  1
  Al  Al7  1  0.91435924  0.62422392  0.50170921  1
  Al  Al8  1  0.25944677  0.72747637  0.14051956  1
  Al  Al9  1  0.08569750  0.62491670  0.00097683  1
  Al  Al10  1  0.25946827  0.77253063  0.35945901  1
  Al  Al11  1  0.08573658  0.87510596  0.49899819  1
  Al  Al12  1  0.41508089  0.12607011  0.00076243  1
  Al  Al13  1  0.41510684  0.37393619  0.49922283  1
  Al  Al14  1  0.58430852  0.37285786  0.99901512  1
  Al  Al15  1  0.58433488  0.12714148  0.50096862  1
  Al  Al16  1  0.74052839  0.27252891  0.85945831  1
  Al  Al17  1  0.91425444  0.37510931  0.99899634  1
  Al  Al18  1  0.74054702  0.22747366  0.64052067  1
  Al  Al19  1  0.91429148  0.12491412  0.50097563  1
  Al  Al20  1  0.25866377  0.22606230  0.14078260  1
  Al  Al21  1  0.08563195  0.12422592  0.00170830  1
  Al  Al22  1  0.25868684  0.27394657  0.35919790  1
  Al  Al23  1  0.08565661  0.37579977  0.49826791  1
  Si  Si0  1  0.24360820  0.53332552  0.86078875  1
  Si  Si1  1  0.57115343  0.51599924  0.85960927  1
  Si  Si2  1  0.24362738  0.96668931  0.63918731  1
  Si  Si3  1  0.57117307  0.98400198  0.64037693  1
  Si  Si4  1  0.75703185  0.96991067  0.13860595  1
  Si  Si5  1  0.42935206  0.98676370  0.14053423  1
  Si  Si6  1  0.75705131  0.53010268  0.36137382  1
  Si  Si7  1  0.42937461  0.51324301  0.35944931  1
  Si  Si8  1  0.06982092  0.77670125  0.85895290  1
  Si  Si9  1  0.06983710  0.72331480  0.64102273  1
  Si  Si10  1  0.92950744  0.72317502  0.13956571  1
  Si  Si11  1  0.92952666  0.77683499  0.36040722  1
  Si  Si12  1  0.24294477  0.03010479  0.86137640  1
  Si  Si13  1  0.57062188  0.01324119  0.85944882  1
  Si  Si14  1  0.24295886  0.46991112  0.63860543  1
  Si  Si15  1  0.57063974  0.48676143  0.64053493  1
  Si  Si16  1  0.75636408  0.46668928  0.13918643  1
  Si  Si17  1  0.42882007  0.48400573  0.14037534  1
  Si  Si18  1  0.75638695  0.03332425  0.36078956  1
  Si  Si19  1  0.42884235  0.01600066  0.35961069  1
  Si  Si20  1  0.07046917  0.27683795  0.86040720  1
  Si  Si21  1  0.07048304  0.22317526  0.63956714  1
  Si  Si22  1  0.93015298  0.22331397  0.14102132  1
  Si  Si23  1  0.93017557  0.27669936  0.35895412  1
  H  H0  1  0.85461621  0.56388591  0.92916815  1
  H  H1  1  0.85468062  0.93615828  0.57082304  1
  H  H2  1  0.14829814  0.93226530  0.06729254  1
  H  H3  1  0.14831775  0.56775918  0.43266875  1
  H  H4  1  0.34227531  0.82197595  0.94397371  1
  H  H5  1  0.34230044  0.67802237  0.55600440  1
  H  H6  1  0.65936135  0.67814931  0.05525473  1
  H  H7  1  0.65939829  0.82185864  0.44474460  1
  H  H8  1  0.85167695  0.06775473  0.93266054  1
  H  H9  1  0.85169770  0.43226688  0.56730136  1
  H  H10  1  0.14531061  0.43616215  0.07082307  1
  H  H11  1  0.14537585  0.06388314  0.42916435  1
  H  H12  1  0.34059107  0.32186048  0.94474609  1
  H  H13  1  0.34062734  0.17814173  0.55524651  1
  H  H14  1  0.65768997  0.17802148  0.05600018  1
  H  H15  1  0.65771266  0.32197705  0.44397459  1
  O  O0  1  0.60380680  0.86889005  0.82432342  1
  O  O1  1  0.70404958  0.61052176  0.83714120  1
  O  O2  1  0.40806162  0.56064838  0.82779509  1
  O  O3  1  0.94073893  0.52460199  0.94912696  1
  O  O4  1  0.24892955  0.55802407  0.94362710  1
  O  O5  1  0.55230291  0.52018334  0.94367311  1
  O  O6  1  0.60383790  0.63110949  0.67566200  1
  O  O7  1  0.70406739  0.88948483  0.66285003  1
  O  O8  1  0.40807325  0.93936483  0.67218557  1
  O  O9  1  0.94079785  0.97543429  0.55084793  1
  O  O10  1  0.24896548  0.94198681  0.55634698  1
  O  O11  1  0.55232871  0.97981721  0.55631288  1
  O  O12  1  0.39267074  0.62769806  0.17442294  1
  O  O13  1  0.29841683  0.89083090  0.16351651  1
  O  O14  1  0.59290511  0.94503350  0.17096541  1
  O  O15  1  0.05997922  0.97365342  0.05075034  1
  O  O16  1  0.75223400  0.94548198  0.05577184  1
  O  O17  1  0.44672348  0.98059748  0.05636576  1
  O  O18  1  0.39269426  0.87231221  0.32556019  1
  O  O19  1  0.29843801  0.60917292  0.33646827  1
  O  O20  1  0.59291898  0.55497903  0.32901729  1
  O  O21  1  0.06000292  0.52637246  0.44922565  1
  O  O22  1  0.75226098  0.55453544  0.44420882  1
  O  O23  1  0.44675114  0.51941031  0.44361904  1
  O  O24  1  0.12717373  0.63239970  0.82680277  1
  O  O25  1  0.19798560  0.88036291  0.83690807  1
  O  O26  1  0.91481753  0.81276081  0.82369927  1
  O  O27  1  0.43445821  0.77578944  0.94976578  1
  O  O28  1  0.74960794  0.81239527  0.94788648  1
  O  O29  1  0.05582921  0.77158127  0.94250273  1
  O  O30  1  0.12718345  0.86761865  0.67316995  1
  O  O31  1  0.19800392  0.61965803  0.66307165  1
  O  O32  1  0.91484062  0.68724816  0.67627867  1
  O  O33  1  0.43447609  0.72421193  0.55021908  1
  O  O34  1  0.74963178  0.68761796  0.55209351  1
  O  O35  1  0.05584750  0.72843947  0.55747217  1
  O  O36  1  0.86964425  0.86674755  0.17218231  1
  O  O37  1  0.80374853  0.61688211  0.16136491  1
  O  O38  1  0.08470159  0.69011862  0.17545121  1
  O  O39  1  0.56720170  0.72490989  0.05058333  1
  O  O40  1  0.25025876  0.68961220  0.05170020  1
  O  O41  1  0.94288958  0.72878776  0.05615146  1
  O  O42  1  0.86965943  0.63326313  0.32779535  1
  O  O43  1  0.80377815  0.88313471  0.33860306  1
  O  O44  1  0.08472538  0.80987726  0.32452278  1
  O  O45  1  0.56723376  0.77509647  0.44940810  1
  O  O46  1  0.25028648  0.81039295  0.44827911  1
  O  O47  1  0.94291531  0.77123975  0.44382322  1
  O  O48  1  0.60730271  0.37231168  0.82555942  1
  O  O49  1  0.70155972  0.10916968  0.83647003  1
  O  O50  1  0.40707565  0.05498119  0.82901777  1
  O  O51  1  0.93999074  0.02636976  0.94922557  1
  O  O52  1  0.24773386  0.05453708  0.94420691  1
  O  O53  1  0.55324223  0.01940895  0.94361791  1
  O  O54  1  0.60732748  0.12769644  0.67442491  1
  O  O55  1  0.70157328  0.39082918  0.66351550  1
  O  O56  1  0.40708823  0.44503162  0.67096636  1
  O  O57  1  0.94001356  0.47365277  0.55075210  1
  O  O58  1  0.24775763  0.44548334  0.55577310  1
  O  O59  1  0.55326938  0.48059406  0.55636514  1
  O  O60  1  0.39615799  0.13111120  0.17566072  1
  O  O61  1  0.29592706  0.38948439  0.16284935  1
  O  O62  1  0.59191811  0.43936289  0.17218303  1
  O  O63  1  0.05918988  0.47543904  0.05084663  1
  O  O64  1  0.75102706  0.44198639  0.05634681  1
  O  O65  1  0.44766548  0.47981613  0.05631106  1
  O  O66  1  0.39618553  0.36889151  0.32432470  1
  O  O67  1  0.29594237  0.11052107  0.33714275  1
  O  O68  1  0.59193326  0.06064907  0.32779685  1
  O  O69  1  0.05924774  0.02459793  0.44912924  1
  O  O70  1  0.75106303  0.05802302  0.44362755  1
  O  O71  1  0.44769805  0.02018374  0.44367435  1
  O  O72  1  0.13033478  0.13326661  0.82779571  1
  O  O73  1  0.19621681  0.38313343  0.83860121  1
  O  O74  1  0.91526941  0.30987533  0.82452110  1
  O  O75  1  0.43275318  0.27509817  0.94940662  1
  O  O76  1  0.74970737  0.31039545  0.94827703  1
  O  O77  1  0.05707878  0.27123950  0.94382264  1
  O  O78  1  0.13034669  0.36674955  0.67218301  1
  O  O79  1  0.19624397  0.11688241  0.66136566  1
  O  O80  1  0.91529303  0.19011747  0.67545280  1
  O  O81  1  0.43278629  0.22490789  0.55058134  1
  O  O82  1  0.74973308  0.18960959  0.55170034  1
  O  O83  1  0.05709980  0.22878694  0.55615232  1
  O  O84  1  0.87280776  0.36761767  0.17316915  1
  O  O85  1  0.80198950  0.11965725  0.16307224  1
  O  O86  1  0.08515423  0.18724755  0.17627782  1
  O  O87  1  0.56551880  0.22421098  0.05021797  1
  O  O88  1  0.25035904  0.18762099  0.05209373  1
  O  O89  1  0.94414324  0.22844106  0.05747238  1
  O  O90  1  0.87282354  0.13239759  0.32680463  1
  O  O91  1  0.80201221  0.38036205  0.33690808  1
  O  O92  1  0.08517852  0.31276037  0.32370101  1
  O  O93  1  0.56553921  0.27579353  0.44976529  1
  O  O94  1  0.25038181  0.31239402  0.44788818  1
  O  O95  1  0.94416078  0.27158192  0.44250429  1
loop_
_geom_bond_atom_site_label_1
_geom_bond_atom_site_label_2
_geom_bond_distance
_geom_bond_site_symmetry_2
K0 O14 2.643449 1_555
K0 O20 2.643487 1_555
K0 O18 2.670925 1_555
K0 O12 2.671079 1_555
K0 O37 2.797991 1_555
K0 O43 2.798016 1_555
K1 O56 2.643406 1_555
K1 O50 2.643490 1_555
K1 O48 2.670954 1_555
K1 O54 2.671067 1_555
K1 O79 2.797965 1_555
K1 O73 2.798013 1_555
Na0 O7 2.532025 1_545
Na0 O49 2.535578 1_555
Na0 O80 2.544771 1_555
Na0 O26 2.550688 1_545
Na0 O30 2.977722 1_645
Na0 O72 3.010561 1_655
Na1 O67 2.532042 1_565
Na1 O13 2.535564 1_555
Na1 O44 2.544820 1_555
Na1 O86 2.550750 1_565
Na1 O90 2.977518 1_465
Na1 O36 3.010857 1_455
Na2 O0 2.454229 1_555
Na2 O6 2.454332 1_555
Na2 O2 2.582252 1_555
Na2 O8 2.582335 1_555
Na2 O31 2.917979 1_555
Na2 O25 2.918209 1_555
Na3 O1 2.532045 1_555
Na3 O55 2.535594 1_555
Na3 O74 2.544795 1_555
Na3 O32 2.550768 1_555
Na3 O24 2.977545 1_655
Na3 O78 3.010814 1_655
Na4 O61 2.532009 1_555
Na4 O19 2.535527 1_555
Na4 O38 2.544848 1_555
Na4 O92 2.550680 1_555
Na4 O84 2.977815 1_455
Na4 O42 3.010588 1_455
Na5 O66 2.454251 1_555
Na5 O60 2.454358 1_555
Na5 O68 2.582260 1_555
Na5 O62 2.582358 1_555
Na5 O85 2.917982 1_555
Na5 O91 2.918196 1_555
Al0 O40 1.879724 1_555
Al0 O27 1.911668 1_554
Al0 O39 1.921797 1_555
Al0 O5 1.955899 1_554
Al0 O65 1.962921 1_555
Al0 O4 1.978468 1_554
Al1 O46 1.879711 1_555
Al1 O33 1.911662 1_555
Al1 O45 1.921730 1_555
Al1 O11 1.955952 1_555
Al1 O71 1.962911 1_565
Al1 O10 1.978336 1_555
Al2 O28 1.877961 1_555
Al2 O27 1.915168 1_555
Al2 O39 1.915987 1_556
Al2 O53 1.949812 1_565
Al2 O17 1.961354 1_556
Al2 O16 1.982605 1_556
Al3 O34 1.877941 1_555
Al3 O33 1.915196 1_555
Al3 O45 1.915889 1_555
Al3 O59 1.949832 1_555
Al3 O23 1.961315 1_555
Al3 O22 1.982616 1_555
Al4 O1 1.752805 1_555
Al4 O0 1.753394 1_555
Al4 O28 1.757999 1_555
Al4 O26 1.769156 1_555
Al5 O28 1.874407 1_555
Al5 O51 1.910714 1_565
Al5 O15 1.912381 1_656
Al5 O16 1.950742 1_556
Al5 O29 1.953327 1_655
Al5 O41 1.986943 1_556
Al6 O7 1.752827 1_555
Al6 O6 1.753430 1_555
Al6 O34 1.757988 1_555
Al6 O32 1.769165 1_555
Al7 O34 1.874436 1_555
Al7 O57 1.910767 1_555
Al7 O21 1.912348 1_655
Al7 O22 1.950683 1_555
Al7 O35 1.953274 1_655
Al7 O47 1.986964 1_555
Al8 O12 1.748890 1_555
Al8 O13 1.758439 1_555
Al8 O40 1.759907 1_555
Al8 O38 1.770681 1_555
Al9 O40 1.880852 1_555
Al9 O63 1.911246 1_555
Al9 O3 1.914720 1_454
Al9 O4 1.947407 1_554
Al9 O41 1.953270 1_455
Al9 O29 1.992854 1_554
Al10 O18 1.748885 1_555
Al10 O19 1.758448 1_555
Al10 O46 1.759916 1_555
Al10 O44 1.770670 1_555
Al11 O46 1.880787 1_555
Al11 O69 1.911342 1_565
Al11 O9 1.914669 1_455
Al11 O10 1.947336 1_555
Al11 O47 1.953326 1_455
Al11 O35 1.992894 1_555
Al12 O88 1.877940 1_555
Al12 O87 1.915192 1_555
Al12 O75 1.915914 1_554
Al12 O17 1.949816 1_545
Al12 O53 1.961367 1_554
Al12 O52 1.982614 1_554
Al13 O94 1.877968 1_555
Al13 O93 1.915185 1_555
Al13 O81 1.915953 1_555
Al13 O23 1.949837 1_555
Al13 O59 1.961332 1_555
Al13 O58 1.982624 1_555
Al14 O76 1.879723 1_555
Al14 O87 1.911663 1_556
Al14 O75 1.921772 1_555
Al14 O65 1.955928 1_556
Al14 O5 1.962906 1_555
Al14 O64 1.978330 1_556
Al15 O82 1.879673 1_555
Al15 O93 1.911719 1_555
Al15 O81 1.921803 1_555
Al15 O71 1.955872 1_555
Al15 O11 1.962924 1_545
Al15 O70 1.978463 1_555
Al16 O48 1.748892 1_555
Al16 O49 1.758452 1_555
Al16 O76 1.759895 1_555
Al16 O74 1.770662 1_555
Al17 O76 1.880772 1_555
Al17 O3 1.911348 1_555
Al17 O63 1.914661 1_656
Al17 O64 1.947332 1_556
Al17 O77 1.953351 1_655
Al17 O89 1.992934 1_556
Al18 O54 1.748862 1_555
Al18 O55 1.758448 1_555
Al18 O82 1.759925 1_555
Al18 O80 1.770687 1_555
Al19 O82 1.880845 1_555
Al19 O9 1.911292 1_545
Al19 O69 1.914681 1_655
Al19 O70 1.947359 1_555
Al19 O83 1.953302 1_655
Al19 O95 1.992848 1_555
Al20 O61 1.752821 1_555
Al20 O60 1.753434 1_555
Al20 O88 1.757966 1_555
Al20 O86 1.769155 1_555
Al21 O88 1.874448 1_555
Al21 O15 1.910768 1_545
Al21 O51 1.912349 1_454
Al21 O52 1.950720 1_554
Al21 O89 1.953286 1_455
Al21 O77 1.986938 1_554
Al22 O67 1.752802 1_555
Al22 O66 1.753382 1_555
Al22 O94 1.758003 1_555
Al22 O92 1.769156 1_555
Al23 O94 1.874413 1_555
Al23 O21 1.910774 1_555
Al23 O57 1.912359 1_455
Al23 O58 1.950737 1_555
Al23 O95 1.953337 1_455
Al23 O83 1.986920 1_555
H0 O3 0.972114 1_555
H1 O9 0.972176 1_555
H2 O15 0.971248 1_555
H3 O21 0.971317 1_555
H4 O27 0.969557 1_555
H5 O33 0.969497 1_555
H6 O39 0.969248 1_555
H7 O45 0.969274 1_555
H8 O51 0.971360 1_555
H9 O57 0.971266 1_555
H10 O63 0.972217 1_555
H11 O69 0.972210 1_555
H12 O75 0.969248 1_555
H13 O81 0.969256 1_555
H14 O87 0.969453 1_555
H15 O93 0.969465 1_555
O0 Si13 1.630561 1_565
O1 Si1 1.629343 1_555
O2 Si0 1.649040 1_555
O2 Si1 1.674550 1_555
O4 Si0 1.627435 1_555
O5 Si1 1.655733 1_555
O6 Si15 1.630566 1_555
O7 Si3 1.629328 1_555
O8 Si2 1.649019 1_555
O8 Si3 1.674532 1_555
O10 Si2 1.627481 1_555
O11 Si3 1.655731 1_555
O12 Si17 1.622226 1_555
O13 Si5 1.628889 1_555
O14 Si4 1.636447 1_555
O14 Si5 1.658729 1_555
O16 Si4 1.626990 1_555
O17 Si5 1.655600 1_555
O18 Si19 1.622207 1_565
O19 Si7 1.628871 1_555
O20 Si6 1.636467 1_555
O20 Si7 1.658683 1_555
O22 Si6 1.627009 1_555
O23 Si7 1.655628 1_555
O24 Si0 1.644821 1_555
O24 Si8 1.664505 1_555
O25 Si12 1.643966 1_565
O25 Si8 1.657637 1_555
O26 Si8 1.614018 1_655
O29 Si8 1.649244 1_555
O30 Si2 1.644822 1_555
O30 Si9 1.664490 1_555
O31 Si14 1.643996 1_555
O31 Si9 1.657642 1_555
O32 Si9 1.614003 1_655
O35 Si9 1.649262 1_555
O36 Si4 1.648031 1_555
O36 Si10 1.667960 1_555
O37 Si16 1.644497 1_555
O37 Si10 1.659725 1_555
O38 Si10 1.613125 1_455
O41 Si10 1.646735 1_555
O42 Si6 1.648006 1_555
O42 Si11 1.667936 1_555
O43 Si18 1.644512 1_565
O43 Si11 1.659740 1_555
O44 Si11 1.613115 1_455
O47 Si11 1.646754 1_555
O48 Si1 1.622197 1_555
O49 Si13 1.628855 1_555
O50 Si12 1.636472 1_555
O50 Si13 1.658703 1_555
O52 Si12 1.626921 1_555
O53 Si13 1.655618 1_555
O54 Si3 1.622257 1_545
O55 Si15 1.628864 1_555
O56 Si14 1.636484 1_555
O56 Si15 1.658718 1_555
O58 Si14 1.626955 1_555
O59 Si15 1.655624 1_555
O60 Si5 1.630550 1_545
O61 Si17 1.629352 1_555
O62 Si16 1.649011 1_555
O62 Si17 1.674529 1_555
O64 Si16 1.627467 1_555
O65 Si17 1.655734 1_555
O66 Si7 1.630565 1_555
O67 Si19 1.629355 1_555
O68 Si18 1.649039 1_555
O68 Si19 1.674537 1_555
O70 Si18 1.627428 1_555
O71 Si19 1.655735 1_555
O72 Si12 1.648046 1_555
O72 Si20 1.667924 1_555
O73 Si0 1.644541 1_555
O73 Si20 1.659715 1_555
O74 Si20 1.613126 1_655
O77 Si20 1.646748 1_555
O78 Si14 1.648029 1_555
O78 Si21 1.667972 1_555
O79 Si2 1.644497 1_545
O79 Si21 1.659734 1_555
O80 Si21 1.613098 1_655
O83 Si21 1.646746 1_555
O84 Si16 1.644828 1_555
O84 Si22 1.664489 1_555
O85 Si4 1.643999 1_545
O85 Si22 1.657633 1_555
O86 Si22 1.614045 1_455
O89 Si22 1.649234 1_555
O90 Si18 1.644818 1_555
O90 Si23 1.664501 1_555
O91 Si6 1.643947 1_555
O91 Si23 1.657644 1_555
O92 Si23 1.614014 1_455
O95 Si23 1.649244 1_555
