# generated using pymatgen
data_Sm2U2Se3O4
_symmetry_space_group_name_H-M   'P 1'
_cell_length_a   3.99187900
_cell_length_b   7.05619300
_cell_length_c   14.97774500
_cell_angle_alpha   90.00000000
_cell_angle_beta   90.00000000
_cell_angle_gamma   90.00000000
_symmetry_Int_Tables_number   1
_chemical_formula_structural   Sm2U2Se3O4
_chemical_formula_sum   'Sm4 U4 Se6 O8'
_cell_volume   421.88516283
_cell_formula_units_Z   2
loop_
 _symmetry_equiv_pos_site_id
 _symmetry_equiv_pos_as_xyz
  1  'x, y, z'
loop_
 _atom_site_type_symbol
 _atom_site_label
 _atom_site_symmetry_multiplicity
 _atom_site_fract_x
 _atom_site_fract_y
 _atom_site_fract_z
 _atom_site_occupancy
  Sm  Sm0  1  0.00000000  0.70952700  0.15188500  1
  Sm  Sm1  1  0.00000000  0.29047300  0.84811500  1
  Sm  Sm2  1  0.00000000  0.20952700  0.34811500  1
  Sm  Sm3  1  0.00000000  0.79047300  0.65188500  1
  U  U0  1  0.50000000  0.79587300  0.42321200  1
  U  U1  1  0.50000000  0.20412700  0.57678800  1
  U  U2  1  0.50000000  0.29587300  0.07678800  1
  U  U3  1  0.50000000  0.70412700  0.92321200  1
  Se  Se0  1  0.50000000  0.50232900  0.27681200  1
  Se  Se1  1  0.50000000  0.49767100  0.72318800  1
  Se  Se2  1  0.50000000  0.00232900  0.22318800  1
  Se  Se3  1  0.50000000  0.99767100  0.77681200  1
  Se  Se4  1  0.00000000  0.50000000  0.50000000  1
  Se  Se5  1  0.00000000  0.00000000  0.00000000  1
  O  O0  1  0.00000000  0.88877200  0.38971500  1
  O  O1  1  0.00000000  0.11122800  0.61028500  1
  O  O2  1  0.00000000  0.38877200  0.11028500  1
  O  O3  1  0.00000000  0.61122800  0.88971500  1
  O  O4  1  0.50000000  0.63887800  0.06661500  1
  O  O5  1  0.50000000  0.36112200  0.93338500  1
  O  O6  1  0.50000000  0.13887800  0.43338500  1
  O  O7  1  0.50000000  0.86112200  0.56661500  1
loop_
_geom_bond_atom_site_label_1
_geom_bond_atom_site_label_2
_geom_bond_distance
_geom_bond_site_symmetry_2
Se0 U0 3.016358 1_555
Se0 Sm2 3.064791 1_555
Se0 Sm2 3.064791 1_655
Se0 Sm0 3.102001 1_555
Se0 Sm0 3.102001 1_655
Se0 U2 3.331323 1_555
Se1 U1 3.016358 1_555
Se1 Sm3 3.064791 1_555
Se1 Sm3 3.064791 1_655
Se1 Sm1 3.102001 1_555
Se1 Sm1 3.102001 1_655
Se1 U3 3.331323 1_555
Se2 U2 3.016358 1_555
Se2 Sm0 3.064791 1_545
Se2 Sm0 3.064791 1_645
Se2 Sm2 3.102001 1_655
Se2 Sm2 3.102001 1_555
Se2 U0 3.331323 1_545
Se3 U3 3.016358 1_555
Se3 Sm1 3.064791 1_565
Se3 Sm1 3.064791 1_665
Se3 Sm3 3.102001 1_555
Se3 Sm3 3.102001 1_655
Se3 U1 3.331323 1_565
Se4 Sm2 3.062049 1_555
Se4 Sm3 3.062049 1_555
Se4 U1 3.108887 1_455
Se4 U0 3.108887 1_555
Se4 U1 3.108887 1_555
Se4 U0 3.108887 1_455
Se5 Sm0 3.062049 1_545
Se5 Sm1 3.062049 1_554
Se5 U3 3.108887 1_544
Se5 U3 3.108887 1_444
Se5 U2 3.108887 1_555
Se5 U2 3.108887 1_455
O0 U0 2.159904 1_455
O0 U0 2.159904 1_555
O0 Sm2 2.347507 1_565
O1 U1 2.159904 1_455
O1 U1 2.159904 1_555
O1 Sm3 2.347507 1_545
O2 U2 2.159904 1_455
O2 U2 2.159904 1_555
O2 Sm0 2.347507 1_555
O3 U3 2.159904 1_455
O3 U3 2.159904 1_555
O3 Sm1 2.347507 1_555
O4 U3 2.196646 1_554
O4 Sm0 2.421447 1_555
O4 Sm0 2.421447 1_655
O4 U2 2.425101 1_555
O5 U2 2.196646 1_556
O5 Sm1 2.421447 1_655
O5 Sm1 2.421447 1_555
O5 U3 2.425101 1_555
O6 U1 2.196646 1_555
O6 Sm2 2.421447 1_555
O6 Sm2 2.421447 1_655
O6 U0 2.425101 1_545
O7 U0 2.196646 1_555
O7 Sm3 2.421447 1_655
O7 Sm3 2.421447 1_555
O7 U1 2.425101 1_565
