# generated using pymatgen
data_Ba3Cr2O8
_symmetry_space_group_name_H-M   'P 1'
_cell_length_a   5.76723129
_cell_length_b   5.76466130
_cell_length_c   14.71472447
_cell_angle_alpha   78.67917232
_cell_angle_beta   90.10992301
_cell_angle_gamma   120.00933601
_symmetry_Int_Tables_number   1
_chemical_formula_structural   Ba3Cr2O8
_chemical_formula_sum   'Ba6 Cr4 O16'
_cell_volume   412.70613708
_cell_formula_units_Z   2
loop_
 _symmetry_equiv_pos_site_id
 _symmetry_equiv_pos_as_xyz
  1  'x, y, z'
loop_
 _atom_site_type_symbol
 _atom_site_label
 _atom_site_symmetry_multiplicity
 _atom_site_fract_x
 _atom_site_fract_y
 _atom_site_fract_z
 _atom_site_occupancy
  Ba  Ba0  1  0.99312213  0.01775518  0.00002545  1
  Ba  Ba1  1  0.50174178  0.02311549  0.50004908  1
  Ba  Ba2  1  0.60267323  0.20816888  0.19087077  1
  Ba  Ba3  1  0.10274902  0.20763943  0.69083376  1
  Ba  Ba4  1  0.89711145  0.79618634  0.30918586  1
  Ba  Ba5  1  0.39677851  0.79539186  0.80906130  1
  Cr  Cr0  1  0.20333230  0.40810718  0.38927077  1
  Cr  Cr1  1  0.29656823  0.59420699  0.11079541  1
  Cr  Cr2  1  0.70465618  0.40901258  0.88912401  1
  Cr  Cr3  1  0.79531333  0.59299162  0.61081289  1
  O  O0  1  0.67091608  0.30459158  0.00629677  1
  O  O1  1  0.15697546  0.29482266  0.50636305  1
  O  O2  1  0.83546789  0.64044353  0.49374903  1
  O  O3  1  0.34873903  0.64930982  0.99369973  1
  O  O4  1  0.10433515  0.73296901  0.65103924  1
  O  O5  1  0.60328430  0.73311916  0.15289726  1
  O  O6  1  0.61536177  0.24507096  0.65468336  1
  O  O7  1  0.11614579  0.24572528  0.15347605  1
  O  O8  1  0.62368452  0.73008666  0.65034072  1
  O  O9  1  0.12296546  0.73022115  0.14969451  1
  O  O10  1  0.87561752  0.75730951  0.84872819  1
  O  O11  1  0.37603527  0.75678312  0.35022723  1
  O  O12  1  0.39443935  0.27890176  0.84971630  1
  O  O13  1  0.89552255  0.28111377  0.34792510  1
  O  O14  1  0.88329388  0.28367273  0.84523280  1
  O  O15  1  0.38316980  0.28328874  0.34590335  1
loop_
_geom_bond_atom_site_label_1
_geom_bond_atom_site_label_2
_geom_bond_distance
_geom_bond_site_symmetry_2
Ba0 O14 2.744814 1_554
Ba0 O7 2.748657 1_655
Ba0 O5 2.772619 1_545
Ba0 O12 2.782476 1_654
Ba0 O10 2.821091 1_544
Ba0 O9 2.821442 1_645
Ba1 O6 2.746377 1_555
Ba1 O15 2.747035 1_555
Ba1 O4 2.777201 1_545
Ba1 O13 2.777428 1_555
Ba1 O11 2.819990 1_545
Ba1 O8 2.820364 1_545
Ba1 O2 3.065475 1_555
Ba1 O1 3.096533 1_555
Ba1 O1 3.298051 1_655
Ba1 O2 3.352626 1_445
Ba2 O0 2.651953 1_555
Ba2 O15 2.818072 1_555
Ba2 O13 2.833060 1_555
Ba2 O11 2.862158 1_545
Ba2 O5 2.902076 1_545
Ba2 O7 2.904688 1_655
Ba2 O9 2.938806 1_545
Ba2 O9 2.947209 1_655
Ba2 O7 2.962731 1_555
Ba2 O5 2.965697 1_555
Ba3 O1 2.651224 1_555
Ba3 O14 2.812930 1_455
Ba3 O10 2.845232 1_445
Ba3 O12 2.852237 1_555
Ba3 O6 2.896970 1_555
Ba3 O4 2.912819 1_545
Ba3 O8 2.932007 1_445
Ba3 O8 2.950114 1_555
Ba3 O6 2.964194 1_455
Ba3 O4 2.964787 1_555
Ba4 O2 2.652386 1_555
Ba4 O7 2.822500 1_665
Ba4 O5 2.826590 1_555
Ba4 O9 2.864719 1_655
Ba4 O15 2.903813 1_555
Ba4 O13 2.906816 1_555
Ba4 O11 2.934726 1_655
Ba4 O11 2.952564 1_555
Ba4 O15 2.958190 1_665
Ba4 O13 2.964926 1_565
Ba5 O3 2.653061 1_555
Ba5 O6 2.810610 1_565
Ba5 O4 2.843807 1_555
Ba5 O8 2.856329 1_555
Ba5 O14 2.899368 1_455
Ba5 O12 2.912640 1_555
Ba5 O10 2.926622 1_555
Ba5 O10 2.952838 1_455
Ba5 O14 2.959971 1_565
Ba5 O12 2.969717 1_565
Cr0 O1 1.688781 1_555
Cr0 O11 1.705426 1_555
Cr0 O13 1.711200 1_455
Cr0 O15 1.711713 1_555
Cr1 O3 1.688719 1_554
Cr1 O9 1.705422 1_555
Cr1 O5 1.711061 1_555
Cr1 O7 1.711437 1_555
Cr2 O0 1.688078 1_556
Cr2 O10 1.705949 1_555
Cr2 O12 1.710020 1_555
Cr2 O14 1.712004 1_555
Cr3 O2 1.687853 1_555
Cr3 O8 1.705229 1_555
Cr3 O4 1.709591 1_655
Cr3 O6 1.711308 1_555
