# generated using pymatgen
data_K2Fe4O7
_symmetry_space_group_name_H-M   'P 1'
_cell_length_a   5.30839172
_cell_length_b   5.30839172
_cell_length_c   6.98524300
_cell_angle_alpha   90.00000000
_cell_angle_beta   90.00000000
_cell_angle_gamma   119.99999649
_symmetry_Int_Tables_number   1
_chemical_formula_structural   K2Fe4O7
_chemical_formula_sum   'K2 Fe4 O7'
_cell_volume   170.46612609
_cell_formula_units_Z   1
loop_
 _symmetry_equiv_pos_site_id
 _symmetry_equiv_pos_as_xyz
  1  'x, y, z'
loop_
 _atom_site_type_symbol
 _atom_site_label
 _atom_site_symmetry_multiplicity
 _atom_site_fract_x
 _atom_site_fract_y
 _atom_site_fract_z
 _atom_site_occupancy
  K  K0  1  0.33333300  0.66666700  0.00000000  1
  K  K1  1  0.66666700  0.33333300  0.00000000  1
  Fe  Fe0  1  0.00000000  0.00000000  0.27137200  1
  Fe  Fe1  1  0.00000000  0.00000000  0.72862800  1
  Fe  Fe2  1  0.33333300  0.66666700  0.50000000  1
  Fe  Fe3  1  0.66666700  0.33333300  0.50000000  1
  O  O0  1  0.00000000  0.64732900  0.33605500  1
  O  O1  1  0.00000000  0.35267100  0.66394500  1
  O  O2  1  0.00000000  0.00000000  0.00000000  1
  O  O3  1  0.35267100  0.35267100  0.33605500  1
  O  O4  1  0.64732900  0.64732900  0.66394500  1
  O  O5  1  0.35267100  0.00000000  0.66394500  1
  O  O6  1  0.64732900  0.00000000  0.33605500  1
loop_
_geom_bond_atom_site_label_1
_geom_bond_atom_site_label_2
_geom_bond_distance
_geom_bond_site_symmetry_2
K0 O5 2.910378 1_564
K0 O0 2.910378 1_555
K0 O1 2.910380 1_554
K0 O6 2.910380 1_565
K0 O4 2.910381 1_554
K0 O3 2.910381 1_555
K0 O2 3.064798 1_565
K0 O2 3.064803 1_665
K0 O2 3.064803 1_555
K1 O6 2.910378 1_555
K1 O1 2.910378 1_654
K1 O5 2.910380 1_554
K1 O0 2.910380 1_655
K1 O3 2.910381 1_555
K1 O4 2.910381 1_554
K1 O2 3.064798 1_655
K1 O2 3.064803 1_665
K1 O2 3.064803 1_555
Fe0 O2 1.895599 1_555
Fe0 O6 1.925867 1_455
Fe0 O0 1.925867 1_545
Fe0 O3 1.925867 1_555
Fe1 O2 1.895599 1_556
Fe1 O1 1.925867 1_555
Fe1 O5 1.925867 1_555
Fe1 O4 1.925867 1_445
Fe2 O0 2.066728 1_555
Fe2 O5 2.066728 1_565
Fe2 O6 2.066730 1_565
Fe2 O1 2.066730 1_555
Fe2 O4 2.066733 1_555
Fe2 O3 2.066733 1_555
Fe3 O1 2.066728 1_655
Fe3 O6 2.066728 1_555
Fe3 O5 2.066730 1_555
Fe3 O0 2.066730 1_655
Fe3 O4 2.066733 1_555
Fe3 O3 2.066733 1_555
