# generated using pymatgen
data_Li6Mn3CoO10
_symmetry_space_group_name_H-M   'P 1'
_cell_length_a   12.25574771
_cell_length_b   12.25574771
_cell_length_c   5.20397154
_cell_angle_alpha   87.63266609
_cell_angle_beta   87.63266609
_cell_angle_gamma   13.59934874
_symmetry_Int_Tables_number   1
_chemical_formula_structural   Li6Mn3CoO10
_chemical_formula_sum   'Li6 Mn3 Co1 O10'
_cell_volume   183.63204127
_cell_formula_units_Z   1
loop_
 _symmetry_equiv_pos_site_id
 _symmetry_equiv_pos_as_xyz
  1  'x, y, z'
loop_
 _atom_site_type_symbol
 _atom_site_label
 _atom_site_symmetry_multiplicity
 _atom_site_fract_x
 _atom_site_fract_y
 _atom_site_fract_z
 _atom_site_occupancy
  Li  Li0  1  0.50434700  0.50434700  0.50196900  1
  Li  Li1  1  0.10695400  0.10695400  0.28170500  1
  Li  Li2  1  0.69464100  0.69464100  0.10277100  1
  Li  Li3  1  0.29394200  0.29394200  0.89840900  1
  Li  Li4  1  0.89753000  0.89753000  0.70759400  1
  Li  Li5  1  0.20008900  0.20008900  0.60620200  1
  Mn  Mn0  1  0.00153900  0.00153900  0.98804600  1
  Mn  Mn1  1  0.79626700  0.79626700  0.42437500  1
  Mn  Mn2  1  0.39919900  0.39919900  0.20469200  1
  Co  Co0  1  0.60957300  0.60957300  0.76442600  1
  O  O0  1  0.45545900  0.45545900  0.85265600  1
  O  O1  1  0.04753100  0.04753100  0.68951100  1
  O  O2  1  0.64517700  0.64517700  0.45896800  1
  O  O3  1  0.25744300  0.25744300  0.26920500  1
  O  O4  1  0.85238700  0.85238700  0.08780500  1
  O  O5  1  0.54181800  0.54181800  0.13551300  1
  O  O6  1  0.14730700  0.14730700  0.94442200  1
  O  O7  1  0.75459400  0.75459400  0.71996300  1
  O  O8  1  0.34539200  0.34539200  0.55009700  1
  O  O9  1  0.94881100  0.94881100  0.31166800  1
loop_
_geom_bond_atom_site_label_1
_geom_bond_atom_site_label_2
_geom_bond_distance
_geom_bond_site_symmetry_2
Li0 O1 2.061104 1_565
Li0 O1 2.061104 1_655
Li0 O5 2.079378 1_555
Li0 O0 2.136743 1_555
Li0 O9 2.241598 1_545
Li0 O9 2.241598 1_455
Li1 O2 1.973173 1_545
Li1 O2 1.973173 1_455
Li1 O6 1.975341 1_554
Li1 O5 2.301747 1_455
Li1 O5 2.301747 1_545
Li1 O1 2.517976 1_555
Li2 O6 2.047160 1_564
Li2 O6 2.047160 1_654
Li2 O2 2.167881 1_555
Li2 O3 2.302678 1_655
Li2 O3 2.302678 1_565
Li2 O7 2.419911 1_554
Li3 O7 1.989747 1_455
Li3 O7 1.989747 1_545
Li3 O3 2.090444 1_556
Li3 O8 2.159819 1_555
Li3 O4 2.284108 1_546
Li3 O4 2.284108 1_456
Li4 O8 2.115232 1_655
Li4 O8 2.115232 1_565
Li4 O0 2.179891 1_565
Li4 O0 2.179891 1_655
Li4 O4 2.222891 1_556
Li4 O9 2.364123 1_555
Li5 O7 2.069121 1_455
Li5 O7 2.069121 1_545
Li5 O6 2.135452 1_555
Li5 O2 2.136373 1_545
Li5 O2 2.136373 1_455
Li5 O3 2.195570 1_555
Mn0 O1 1.876686 1_555
Mn0 O5 1.928260 1_456
Mn0 O5 1.928260 1_546
Mn0 O0 1.981311 1_455
Mn0 O0 1.981311 1_545
Mn0 O9 2.074472 1_446
Mn1 O7 1.806965 1_555
Mn1 O3 1.927181 1_655
Mn1 O3 1.927181 1_565
Mn1 O8 2.007063 1_655
Mn1 O8 2.007063 1_565
Mn1 O4 2.175873 1_555
Mn2 O4 1.957391 1_545
Mn2 O4 1.957391 1_455
Mn2 O9 1.982296 1_455
Mn2 O9 1.982296 1_545
Mn2 O8 2.179488 1_555
Mn2 O0 2.241092 1_554
Co0 O2 1.778524 1_555
Co0 O6 1.974341 1_565
Co0 O6 1.974341 1_655
Co0 O1 2.141677 1_655
Co0 O1 2.141677 1_565
Co0 O5 2.486727 1_556
