# generated using pymatgen
data_MoO3
_symmetry_space_group_name_H-M   'P 1'
_cell_length_a   6.09609960
_cell_length_b   6.09609960
_cell_length_c   11.20545700
_cell_angle_alpha   90.00000000
_cell_angle_beta   90.00000000
_cell_angle_gamma   119.99999564
_symmetry_Int_Tables_number   1
_chemical_formula_structural   MoO3
_chemical_formula_sum   'Mo6 O18'
_cell_volume   360.63205941
_cell_formula_units_Z   6
loop_
 _symmetry_equiv_pos_site_id
 _symmetry_equiv_pos_as_xyz
  1  'x, y, z'
loop_
 _atom_site_type_symbol
 _atom_site_label
 _atom_site_symmetry_multiplicity
 _atom_site_fract_x
 _atom_site_fract_y
 _atom_site_fract_z
 _atom_site_occupancy
  Mo  Mo0  1  0.66604800  0.00000000  0.50324100  1
  Mo  Mo1  1  0.66604800  0.66604800  0.00324100  1
  Mo  Mo2  1  0.00000000  0.33395200  0.00324100  1
  Mo  Mo3  1  0.00000000  0.66604800  0.50324100  1
  Mo  Mo4  1  0.33395200  0.33395200  0.50324100  1
  Mo  Mo5  1  0.33395200  0.00000000  0.00324100  1
  O  O0  1  0.66666700  0.33333300  0.02423700  1
  O  O1  1  0.33333300  0.66666700  0.52423700  1
  O  O2  1  0.66666700  0.33333300  0.52423700  1
  O  O3  1  0.33333300  0.66666700  0.02423700  1
  O  O4  1  0.00000000  0.00000000  0.96407000  1
  O  O5  1  0.00000000  0.00000000  0.46407000  1
  O  O6  1  0.38082500  0.00000000  0.84632800  1
  O  O7  1  0.38082500  0.38082500  0.34632800  1
  O  O8  1  0.00000000  0.61917500  0.34632800  1
  O  O9  1  0.00000000  0.38082500  0.84632800  1
  O  O10  1  0.61917500  0.61917500  0.84632800  1
  O  O11  1  0.61917500  0.00000000  0.34632800  1
  O  O12  1  0.26142200  0.00000000  0.15722700  1
  O  O13  1  0.26142200  0.26142200  0.65722700  1
  O  O14  1  0.00000000  0.73857800  0.65722700  1
  O  O15  1  0.00000000  0.26142200  0.15722700  1
  O  O16  1  0.73857800  0.73857800  0.15722700  1
  O  O17  1  0.73857800  0.00000000  0.65722700  1
loop_
_geom_bond_atom_site_label_1
_geom_bond_atom_site_label_2
_geom_bond_distance
_geom_bond_site_symmetry_2
Mo0 O17 1.781233 1_555
Mo0 O11 1.781349 1_555
Mo0 O2 2.043734 1_555
Mo0 O1 2.043737 1_545
Mo0 O5 2.082585 1_655
Mo1 O16 1.781233 1_555
Mo1 O10 1.781349 1_554
Mo1 O0 2.043740 1_555
Mo1 O3 2.043740 1_555
Mo1 O4 2.082585 1_664
Mo2 O15 1.781233 1_555
Mo2 O9 1.781349 1_554
Mo2 O0 2.043734 1_455
Mo2 O3 2.043737 1_555
Mo2 O4 2.082585 1_554
Mo3 O14 1.781233 1_555
Mo3 O8 1.781349 1_555
Mo3 O1 2.043734 1_555
Mo3 O2 2.043737 1_455
Mo3 O5 2.082585 1_565
Mo4 O13 1.781233 1_555
Mo4 O7 1.781349 1_555
Mo4 O2 2.043740 1_555
Mo4 O1 2.043740 1_555
Mo4 O5 2.082585 1_555
Mo5 O12 1.781233 1_555
Mo5 O6 1.781349 1_554
Mo5 O3 2.043734 1_545
Mo5 O0 2.043737 1_555
Mo5 O4 2.082585 1_554
