# generated using pymatgen
data_Sr2LaMn2O7
_symmetry_space_group_name_H-M   'P 1'
_cell_length_a   3.98266001
_cell_length_b   10.50398119
_cell_length_c   7.70134600
_cell_angle_alpha   79.43930980
_cell_angle_beta   89.99951634
_cell_angle_gamma   79.07764370
_symmetry_Int_Tables_number   1
_chemical_formula_structural   Sr2LaMn2O7
_chemical_formula_sum   'Sr4 La2 Mn4 O14'
_cell_volume   310.78057387
_cell_formula_units_Z   2
loop_
 _symmetry_equiv_pos_site_id
 _symmetry_equiv_pos_as_xyz
  1  'x, y, z'
loop_
 _atom_site_type_symbol
 _atom_site_label
 _atom_site_symmetry_multiplicity
 _atom_site_fract_x
 _atom_site_fract_y
 _atom_site_fract_z
 _atom_site_occupancy
  Sr  Sr0  1  0.31638800  0.36725100  0.15818300  1
  Sr  Sr1  1  0.31638600  0.36726200  0.65818100  1
  Sr  Sr2  1  0.68361700  0.63274600  0.84181200  1
  Sr  Sr3  1  0.68362200  0.63273600  0.34182600  1
  La  La0  1  0.50000600  0.99999300  0.24999700  1
  La  La1  1  0.50000600  0.99999000  0.75000900  1
  Mn  Mn0  1  0.09796300  0.80430700  0.04892100  1
  Mn  Mn1  1  0.90203300  0.19568000  0.95107500  1
  Mn  Mn2  1  0.09795300  0.80428800  0.54893700  1
  Mn  Mn3  1  0.90202600  0.19570400  0.45106800  1
  O  O0  1  0.99999600  0.00000800  0.50000000  1
  O  O1  1  0.00000100  0.99999800  0.99999900  1
  O  O2  1  0.19365300  0.61254900  0.09682500  1
  O  O3  1  0.19365000  0.61255200  0.59683100  1
  O  O4  1  0.80634600  0.38745900  0.90317200  1
  O  O5  1  0.80634400  0.38746200  0.40316800  1
  O  O6  1  0.59126500  0.81730600  0.04564000  1
  O  O7  1  0.59127700  0.81729000  0.54564900  1
  O  O8  1  0.09121700  0.81733400  0.79559500  1
  O  O9  1  0.09121300  0.81733300  0.29571900  1
  O  O10  1  0.40873400  0.18270100  0.95435600  1
  O  O11  1  0.40872300  0.18272600  0.45435100  1
  O  O12  1  0.90878800  0.18266200  0.20441400  1
  O  O13  1  0.90879300  0.18266300  0.70427200  1
loop_
_geom_bond_atom_site_label_1
_geom_bond_atom_site_label_2
_geom_bond_distance
_geom_bond_site_symmetry_2
La0 O10 2.670811 1_564
La0 O7 2.670844 1_555
La0 O6 2.670967 1_555
La0 O11 2.671337 1_565
La0 O9 2.718391 1_655
La0 O12 2.718472 1_465
La0 O9 2.718823 1_555
La0 O12 2.718866 1_565
La0 O1 2.769858 1_654
La0 O1 2.769896 1_554
La0 O0 2.769926 1_465
La0 O0 2.769935 1_565
La1 O6 2.670621 1_556
La1 O11 2.671064 1_565
La1 O7 2.671093 1_555
La1 O10 2.671113 1_565
La1 O8 2.718381 1_655
La1 O13 2.718479 1_465
La1 O8 2.718778 1_555
La1 O13 2.718914 1_565
La1 O1 2.769843 1_555
La1 O1 2.769861 1_655
La1 O0 2.769904 1_565
La1 O0 2.769933 1_465
Mn0 O9 1.930271 1_555
Mn0 O8 1.930391 1_554
Mn0 O2 1.942976 1_555
Mn0 O1 1.982827 1_554
Mn0 O6 1.994878 1_555
Mn0 O6 1.996484 1_455
Mn1 O13 1.930286 1_555
Mn1 O12 1.930502 1_556
Mn1 O4 1.943189 1_555
Mn1 O1 1.982736 1_645
Mn1 O10 1.994813 1_555
Mn1 O10 1.996522 1_655
Mn2 O8 1.929248 1_555
Mn2 O9 1.929539 1_555
Mn2 O3 1.942753 1_555
Mn2 O0 1.983121 1_465
Mn2 O7 1.994974 1_555
Mn2 O7 1.996392 1_455
Mn3 O12 1.929207 1_555
Mn3 O13 1.929436 1_555
Mn3 O5 1.942976 1_555
Mn3 O0 1.982878 1_555
Mn3 O11 1.994827 1_555
Mn3 O11 1.996508 1_655
O2 Sr0 2.485467 1_555
O2 Sr2 2.777102 1_454
O2 Sr2 2.777405 1_554
O2 Sr3 2.777514 1_455
O2 Sr3 2.777863 1_555
O3 Sr1 2.485386 1_555
O3 Sr3 2.777063 1_455
O3 Sr3 2.777374 1_555
O3 Sr2 2.777417 1_455
O3 Sr2 2.777775 1_555
O4 Sr2 2.485356 1_555
O4 Sr0 2.777086 1_656
O4 Sr0 2.777386 1_556
O4 Sr1 2.777493 1_655
O4 Sr1 2.777819 1_555
O5 Sr3 2.485224 1_555
O5 Sr1 2.777113 1_655
O5 Sr1 2.777390 1_555
O5 Sr0 2.777481 1_655
O5 Sr0 2.777825 1_555
O6 Sr2 2.683818 1_554
O6 Sr3 2.684363 1_555
O7 Sr3 2.683740 1_555
O7 Sr2 2.684088 1_555
O8 Sr2 2.731493 1_455
O8 Sr2 2.732395 1_555
O9 Sr3 2.731542 1_455
O9 Sr3 2.732471 1_555
O10 Sr0 2.683728 1_556
O10 Sr1 2.684251 1_555
O11 Sr1 2.683626 1_555
O11 Sr0 2.684008 1_555
O12 Sr0 2.731501 1_655
O12 Sr0 2.732401 1_555
O13 Sr1 2.731565 1_655
O13 Sr1 2.732476 1_555
