# generated using pymatgen
data_Cr2PbN4
_symmetry_space_group_name_H-M   'P 1'
_cell_length_a   10.59992607
_cell_length_b   10.59992607
_cell_length_c   10.59992607
_cell_angle_alpha   90.00000000
_cell_angle_beta   90.00000000
_cell_angle_gamma   90.00000000
_symmetry_Int_Tables_number   1
_chemical_formula_structural   Cr2PbN4
_chemical_formula_sum   'Cr24 Pb12 N48'
_cell_volume   1190.99107985
_cell_formula_units_Z   12
loop_
 _symmetry_equiv_pos_site_id
 _symmetry_equiv_pos_as_xyz
  1  'x, y, z'
loop_
 _atom_site_type_symbol
 _atom_site_label
 _atom_site_symmetry_multiplicity
 _atom_site_fract_x
 _atom_site_fract_y
 _atom_site_fract_z
 _atom_site_occupancy
  Cr  Cr0  1  0.36852234  0.69853494  0.36337047  1
  Cr  Cr1  1  0.63147766  0.19853494  0.13662953  1
  Cr  Cr2  1  0.13147766  0.30146506  0.86337047  1
  Cr  Cr3  1  0.86852234  0.80146506  0.63662953  1
  Cr  Cr4  1  0.36337047  0.36852234  0.69853494  1
  Cr  Cr5  1  0.13662953  0.63147766  0.19853494  1
  Cr  Cr6  1  0.86337047  0.13147766  0.30146506  1
  Cr  Cr7  1  0.63662953  0.86852234  0.80146506  1
  Cr  Cr8  1  0.69853494  0.36337047  0.36852234  1
  Cr  Cr9  1  0.19853494  0.13662953  0.63147766  1
  Cr  Cr10  1  0.30146506  0.86337047  0.13147766  1
  Cr  Cr11  1  0.80146506  0.63662953  0.86852234  1
  Cr  Cr12  1  0.63147766  0.30146506  0.63662953  1
  Cr  Cr13  1  0.36852234  0.80146506  0.86337047  1
  Cr  Cr14  1  0.86852234  0.69853494  0.13662953  1
  Cr  Cr15  1  0.13147766  0.19853494  0.36337047  1
  Cr  Cr16  1  0.63662953  0.63147766  0.30146506  1
  Cr  Cr17  1  0.86337047  0.36852234  0.80146506  1
  Cr  Cr18  1  0.13662953  0.86852234  0.69853494  1
  Cr  Cr19  1  0.36337047  0.13147766  0.19853494  1
  Cr  Cr20  1  0.30146506  0.63662953  0.63147766  1
  Cr  Cr21  1  0.80146506  0.86337047  0.36852234  1
  Cr  Cr22  1  0.69853494  0.13662953  0.86852234  1
  Cr  Cr23  1  0.19853494  0.36337047  0.13147766  1
  Pb  Pb0  1  0.50000000  0.50000000  0.00000000  1
  Pb  Pb1  1  0.50000000  -0.00000000  0.50000000  1
  Pb  Pb2  1  0.00000000  0.50000000  0.50000000  1
  Pb  Pb3  1  0.00000000  -0.00000000  0.00000000  1
  Pb  Pb4  1  0.12133336  0.87866664  0.37866664  1
  Pb  Pb5  1  0.87866664  0.37866664  0.12133336  1
  Pb  Pb6  1  0.37866664  0.12133336  0.87866664  1
  Pb  Pb7  1  0.62133336  0.62133336  0.62133336  1
  Pb  Pb8  1  0.87866664  0.12133336  0.62133336  1
  Pb  Pb9  1  0.12133336  0.62133336  0.87866664  1
  Pb  Pb10  1  0.62133336  0.87866664  0.12133336  1
  Pb  Pb11  1  0.37866664  0.37866664  0.37866664  1
  N  N0  1  0.36269923  0.84990405  0.28686430  1
  N  N1  1  0.63730077  0.34990405  0.21313570  1
  N  N2  1  0.13730077  0.15009595  0.78686430  1
  N  N3  1  0.86269923  0.65009595  0.71313570  1
  N  N4  1  0.28686430  0.36269923  0.84990405  1
  N  N5  1  0.21313570  0.63730077  0.34990405  1
  N  N6  1  0.78686430  0.13730077  0.15009595  1
  N  N7  1  0.71313570  0.86269923  0.65009595  1
  N  N8  1  0.84990405  0.28686430  0.36269923  1
  N  N9  1  0.34990405  0.21313570  0.63730077  1
  N  N10  1  0.15009595  0.78686430  0.13730077  1
  N  N11  1  0.65009595  0.71313570  0.86269923  1
  N  N12  1  0.63730077  0.15009595  0.71313570  1
  N  N13  1  0.36269923  0.65009595  0.78686430  1
  N  N14  1  0.86269923  0.84990405  0.21313570  1
  N  N15  1  0.13730077  0.34990405  0.28686430  1
  N  N16  1  0.71313570  0.63730077  0.15009595  1
  N  N17  1  0.78686430  0.36269923  0.65009595  1
  N  N18  1  0.21313570  0.86269923  0.84990405  1
  N  N19  1  0.28686430  0.13730077  0.34990405  1
  N  N20  1  0.15009595  0.71313570  0.63730077  1
  N  N21  1  0.65009595  0.78686430  0.36269923  1
  N  N22  1  0.84990405  0.21313570  0.86269923  1
  N  N23  1  0.34990405  0.28686430  0.13730077  1
  N  N24  1  0.40814107  0.71693891  0.52466710  1
  N  N25  1  0.59185893  0.21693891  0.97533290  1
  N  N26  1  0.09185893  0.28306109  0.02466710  1
  N  N27  1  0.90814107  0.78306109  0.47533290  1
  N  N28  1  0.52466710  0.40814107  0.71693891  1
  N  N29  1  0.97533290  0.59185893  0.21693891  1
  N  N30  1  0.02466710  0.09185893  0.28306109  1
  N  N31  1  0.47533290  0.90814107  0.78306109  1
  N  N32  1  0.71693891  0.52466710  0.40814107  1
  N  N33  1  0.21693891  0.97533290  0.59185893  1
  N  N34  1  0.28306109  0.02466710  0.09185893  1
  N  N35  1  0.78306109  0.47533290  0.90814107  1
  N  N36  1  0.59185893  0.28306109  0.47533290  1
  N  N37  1  0.40814107  0.78306109  0.02466710  1
  N  N38  1  0.90814107  0.71693891  0.97533290  1
  N  N39  1  0.09185893  0.21693891  0.52466710  1
  N  N40  1  0.47533290  0.59185893  0.28306109  1
  N  N41  1  0.02466710  0.40814107  0.78306109  1
  N  N42  1  0.97533290  0.90814107  0.71693891  1
  N  N43  1  0.52466710  0.09185893  0.21693891  1
  N  N44  1  0.28306109  0.47533290  0.59185893  1
  N  N45  1  0.78306109  0.02466710  0.40814107  1
  N  N46  1  0.71693891  0.97533290  0.90814107  1
  N  N47  1  0.21693891  0.52466710  0.09185893  1
loop_
_geom_bond_atom_site_label_1
_geom_bond_atom_site_label_2
_geom_bond_distance
_geom_bond_site_symmetry_2
Cr0 N24 1.771328 1_555
Cr0 N5 1.776112 1_555
Cr0 N0 1.798858 1_555
Cr0 N40 1.812490 1_555
Cr1 N25 1.771328 1_554
Cr1 N6 1.776112 1_555
Cr1 N1 1.798858 1_555
Cr1 N43 1.812490 1_555
Cr2 N26 1.771328 1_556
Cr2 N4 1.776112 1_555
Cr2 N2 1.798858 1_555
Cr2 N41 1.812490 1_555
Cr3 N27 1.771328 1_555
Cr3 N7 1.776112 1_555
Cr3 N3 1.798858 1_555
Cr3 N42 1.812490 1_555
Cr4 N28 1.771328 1_555
Cr4 N9 1.776112 1_555
Cr4 N4 1.798858 1_555
Cr4 N44 1.812490 1_555
Cr5 N29 1.771328 1_455
Cr5 N10 1.776112 1_555
Cr5 N5 1.798858 1_555
Cr5 N47 1.812490 1_555
Cr6 N30 1.771328 1_655
Cr6 N8 1.776112 1_555
Cr6 N6 1.798858 1_555
Cr6 N45 1.812490 1_555
Cr7 N31 1.771328 1_555
Cr7 N11 1.776112 1_555
Cr7 N7 1.798858 1_555
Cr7 N46 1.812490 1_555
Cr8 N32 1.771328 1_555
Cr8 N1 1.776112 1_555
Cr8 N8 1.798858 1_555
Cr8 N36 1.812490 1_555
Cr9 N33 1.771328 1_545
Cr9 N2 1.776112 1_555
Cr9 N9 1.798858 1_555
Cr9 N39 1.812490 1_555
Cr10 N34 1.771328 1_565
Cr10 N0 1.776112 1_555
Cr10 N10 1.798858 1_555
Cr10 N37 1.812490 1_555
Cr11 N35 1.771328 1_555
Cr11 N3 1.776112 1_555
Cr11 N11 1.798858 1_555
Cr11 N38 1.812490 1_555
Cr12 N36 1.771328 1_555
Cr12 N17 1.776112 1_555
Cr12 N12 1.798858 1_555
Cr12 N28 1.812490 1_555
Cr13 N37 1.771328 1_556
Cr13 N18 1.776112 1_555
Cr13 N13 1.798858 1_555
Cr13 N31 1.812490 1_555
Cr14 N38 1.771328 1_554
Cr14 N16 1.776112 1_555
Cr14 N14 1.798858 1_555
Cr14 N29 1.812490 1_555
Cr15 N39 1.771328 1_555
Cr15 N19 1.776112 1_555
Cr15 N15 1.798858 1_555
Cr15 N30 1.812490 1_555
Cr16 N40 1.771328 1_555
Cr16 N21 1.776112 1_555
Cr16 N16 1.798858 1_555
Cr16 N32 1.812490 1_555
Cr17 N41 1.771328 1_655
Cr17 N22 1.776112 1_555
Cr17 N17 1.798858 1_555
Cr17 N35 1.812490 1_555
Cr18 N42 1.771328 1_455
Cr18 N20 1.776112 1_555
Cr18 N18 1.798858 1_555
Cr18 N33 1.812490 1_555
Cr19 N43 1.771328 1_555
Cr19 N23 1.776112 1_555
Cr19 N19 1.798858 1_555
Cr19 N34 1.812490 1_555
Cr20 N44 1.771328 1_555
Cr20 N13 1.776112 1_555
Cr20 N20 1.798858 1_555
Cr20 N24 1.812490 1_555
Cr21 N45 1.771328 1_565
Cr21 N14 1.776112 1_555
Cr21 N21 1.798858 1_555
Cr21 N27 1.812490 1_555
Cr22 N46 1.771328 1_545
Cr22 N12 1.776112 1_555
Cr22 N22 1.798858 1_555
Cr22 N25 1.812490 1_555
Cr23 N47 1.771328 1_555
Cr23 N15 1.776112 1_555
Cr23 N23 1.798858 1_555
Cr23 N26 1.812490 1_555
N0 Pb4 2.754195 1_555
N1 Pb5 2.754195 1_555
N2 Pb6 2.754195 1_555
N3 Pb7 2.754195 1_555
N4 Pb6 2.754195 1_555
N5 Pb4 2.754195 1_555
N6 Pb5 2.754195 1_555
N7 Pb7 2.754195 1_555
N8 Pb5 2.754195 1_555
N9 Pb6 2.754195 1_555
N10 Pb4 2.754195 1_555
N11 Pb7 2.754195 1_555
N12 Pb8 2.754195 1_555
N13 Pb9 2.754195 1_555
N14 Pb10 2.754195 1_555
N15 Pb11 2.754195 1_555
N16 Pb10 2.754195 1_555
N17 Pb8 2.754195 1_555
N18 Pb9 2.754195 1_555
N19 Pb11 2.754195 1_555
N20 Pb9 2.754195 1_555
N21 Pb10 2.754195 1_555
N22 Pb8 2.754195 1_555
N23 Pb11 2.754195 1_555
N24 Pb7 2.680246 1_555
N25 Pb6 2.680246 1_555
N26 Pb5 2.680246 1_455
N27 Pb4 2.680246 1_655
N28 Pb7 2.680246 1_555
N29 Pb5 2.680246 1_555
N30 Pb4 2.680246 1_545
N31 Pb6 2.680246 1_565
N32 Pb7 2.680246 1_555
N33 Pb4 2.680246 1_555
N34 Pb6 2.680246 1_554
N35 Pb5 2.680246 1_556
N36 Pb11 2.680246 1_555
N37 Pb10 2.680246 1_555
N38 Pb9 2.680246 1_655
N39 Pb8 2.680246 1_455
N40 Pb11 2.680246 1_555
N41 Pb9 2.680246 1_555
N42 Pb8 2.680246 1_565
N43 Pb10 2.680246 1_545
N44 Pb11 2.680246 1_555
N45 Pb8 2.680246 1_555
N46 Pb10 2.680246 1_556
N47 Pb9 2.680246 1_554
