# generated using pymatgen
data_Al2O3
_symmetry_space_group_name_H-M   'P 1'
_cell_length_a   9.97746201
_cell_length_b   10.42601498
_cell_length_c   10.44350949
_cell_angle_alpha   91.71266400
_cell_angle_beta   89.44562018
_cell_angle_gamma   88.21826732
_symmetry_Int_Tables_number   1
_chemical_formula_structural   Al2O3
_chemical_formula_sum   'Al40 O60'
_cell_volume   1085.31636490
_cell_formula_units_Z   20
loop_
 _symmetry_equiv_pos_site_id
 _symmetry_equiv_pos_as_xyz
  1  'x, y, z'
loop_
 _atom_site_type_symbol
 _atom_site_label
 _atom_site_symmetry_multiplicity
 _atom_site_fract_x
 _atom_site_fract_y
 _atom_site_fract_z
 _atom_site_occupancy
  Al  Al0  1  0.77528700  0.41462900  0.66174000  1
  Al  Al1  1  0.67911900  0.65878800  0.62076200  1
  Al  Al2  1  0.97575700  0.65495700  0.76173400  1
  Al  Al3  1  0.70031400  0.43071800  0.00155900  1
  Al  Al4  1  0.79588800  0.78634800  0.39345300  1
  Al  Al5  1  0.10926000  0.42329500  0.67524700  1
  Al  Al6  1  0.36408100  0.42037100  0.32383400  1
  Al  Al7  1  0.90808600  0.18804800  0.00520500  1
  Al  Al8  1  0.39986100  0.62211500  0.08498700  1
  Al  Al9  1  0.68760000  0.91623800  0.78204300  1
  Al  Al10  1  0.39712000  0.71594600  0.34339100  1
  Al  Al11  1  0.43190400  0.03873000  0.78377700  1
  Al  Al12  1  0.66082100  0.22358200  0.21060200  1
  Al  Al13  1  0.96354800  0.92064100  0.61347800  1
  Al  Al14  1  0.51232700  0.67896400  0.82098000  1
  Al  Al15  1  0.30238000  0.88276600  0.97473200  1
  Al  Al16  1  0.18019100  0.10643800  0.58060300  1
  Al  Al17  1  0.20470900  0.18923100  0.98615700  1
  Al  Al18  1  0.23978700  0.83849400  0.71907000  1
  Al  Al19  1  0.54781900  0.91739900  0.50675500  1
  Al  Al20  1  0.59781000  0.23393400  0.47945600  1
  Al  Al21  1  0.12138400  0.70645700  0.17785700  1
  Al  Al22  1  0.92821400  0.53429400  0.48089500  1
  Al  Al23  1  0.09311800  0.97326600  0.32899700  1
  Al  Al24  1  0.40907000  0.98472200  0.23102200  1
  Al  Al25  1  0.95759600  0.20130900  0.75173600  1
  Al  Al26  1  0.87213600  0.95517500  0.16450300  1
  Al  Al27  1  0.74805600  0.48497300  0.31128200  1
  Al  Al28  1  0.63998800  0.25533600  0.80786600  1
  Al  Al29  1  0.37219100  0.57403700  0.58738800  1
  Al  Al30  1  0.78257700  0.05125400  0.39479400  1
  Al  Al31  1  0.60900700  0.99819400  0.05779100  1
  Al  Al32  1  0.68289800  0.71331800  0.13584700  1
  Al  Al33  1  0.33276400  0.31641400  0.75751700  1
  Al  Al34  1  0.20112100  0.19570500  0.25896100  1
  Al  Al35  1  0.97701200  0.88283700  0.90719200  1
  Al  Al36  1  0.40962300  0.33533300  0.04592600  1
  Al  Al37  1  0.04805400  0.40332600  0.21020100  1
  Al  Al38  1  0.94135200  0.54289900  0.98536700  1
  Al  Al39  1  0.12242100  0.72070300  0.49056500  1
  O  O0  1  0.23096400  0.00980300  0.21832100  1
  O  O1  1  0.29733500  0.46738100  0.69018900  1
  O  O2  1  0.84414700  0.59249200  0.66361200  1
  O  O3  1  0.66602100  0.74800700  0.77891800  1
  O  O4  1  0.94294500  0.34344900  0.65440800  1
  O  O5  1  0.80540100  0.18238800  0.83998600  1
  O  O6  1  0.92358500  0.44262700  0.32871600  1
  O  O7  1  0.01650700  0.07888300  0.64376300  1
  O  O8  1  0.46401200  0.30507000  0.39830800  1
  O  O9  1  0.19503600  0.37063400  0.30915100  1
  O  O10  1  0.31181500  0.05492600  0.92113600  1
  O  O11  1  0.09991600  0.89678200  0.47954300  1
  O  O12  1  0.60399500  0.06506900  0.46379100  1
  O  O13  1  0.04395400  0.50947000  0.82286000  1
  O  O14  1  0.05845700  0.77278700  0.66859800  1
  O  O15  1  0.67067400  0.28129900  0.62645300  1
  O  O16  1  0.43027700  0.88364500  0.37574200  1
  O  O17  1  0.32198600  0.21748700  0.12888600  1
  O  O18  1  0.70222700  0.42320700  0.82008400  1
  O  O19  1  0.09204400  0.53552800  0.54741000  1
  O  O20  1  0.54202400  0.09406500  0.19944900  1
  O  O21  1  0.05429000  0.19775800  0.89316700  1
  O  O22  1  0.95818600  0.00649900  0.02220900  1
  O  O23  1  0.86699800  0.91530900  0.77156400  1
  O  O24  1  0.46964000  0.20702900  0.75205100  1
  O  O25  1  0.74485000  0.91183400  0.28915900  1
  O  O26  1  0.64276700  0.76448500  0.49567300  1
  O  O27  1  0.74019800  0.49665500  0.49098500  1
  O  O28  1  0.21461000  0.69937800  0.32653400  1
  O  O29  1  0.44900700  0.90681900  0.07947200  1
  O  O30  1  0.72859200  0.86191200  0.06190800  1
  O  O31  1  0.66285300  0.39607000  0.19152500  1
  O  O32  1  0.73695900  0.22329800  0.36467300  1
  O  O33  1  0.95015300  0.71365600  0.92217300  1
  O  O34  1  0.94418500  0.69760400  0.44034600  1
  O  O35  1  0.06822700  0.24020400  0.13729400  1
  O  O36  1  0.01371700  0.83948500  0.20980000  1
  O  O37  1  0.40955400  0.56047200  0.41944600  1
  O  O38  1  0.28994600  0.33027300  0.92113700  1
  O  O39  1  0.75171500  0.65364500  0.28060000  1
  O  O40  1  0.38469500  0.80401100  0.82760200  1
  O  O41  1  0.75959000  0.58936300  0.03302900  1
  O  O42  1  0.49469800  0.58252600  0.95086200  1
  O  O43  1  0.76317400  0.12798000  0.10193000  1
  O  O44  1  0.29094800  0.99701700  0.66423600  1
  O  O45  1  0.25873500  0.73112900  0.06870400  1
  O  O46  1  0.50586400  0.69122600  0.20212900  1
  O  O47  1  0.82700700  0.93035800  0.51179600  1
  O  O48  1  0.38200900  0.46904100  0.15667300  1
  O  O49  1  0.87895900  0.37423100  0.02107700  1
  O  O50  1  0.15109100  0.87346500  0.87197800  1
  O  O51  1  0.28802700  0.72632400  0.58294800  1
  O  O52  1  0.57342700  0.30369600  0.98146000  1
  O  O53  1  0.55083300  0.94969700  0.67306200  1
  O  O54  1  0.19422000  0.25927200  0.66755800  1
  O  O55  1  0.05500600  0.55283400  0.12348600  1
  O  O56  1  0.59216000  0.02185900  0.89020100  1
  O  O57  1  0.52419900  0.59146900  0.66799900  1
  O  O58  1  0.17652800  0.12911900  0.41524000  1
  O  O59  1  0.93898500  0.05763800  0.30098700  1
loop_
_geom_bond_atom_site_label_1
_geom_bond_atom_site_label_2
_geom_bond_distance
_geom_bond_site_symmetry_2
Al0 O15 1.795744 1_555
Al0 O18 1.799379 1_555
Al0 O4 1.808813 1_555
Al0 O2 1.997134 1_555
Al0 O27 2.029448 1_555
Al1 O26 1.767178 1_555
Al1 O57 1.788464 1_555
Al1 O2 1.830617 1_555
Al1 O3 1.872672 1_555
Al1 O27 2.201991 1_555
Al2 O33 1.779876 1_555
Al2 O13 1.781416 1_655
Al2 O2 1.799410 1_555
Al2 O14 1.804180 1_655
Al3 O41 1.796031 1_555
Al3 O52 1.869087 1_554
Al3 O49 1.874662 1_555
Al3 O18 1.894400 1_554
Al3 O31 2.059851 1_555
Al4 O25 1.792162 1_555
Al4 O34 1.800330 1_555
Al4 O39 1.856892 1_555
Al4 O26 1.878903 1_555
Al4 O47 1.950318 1_555
Al5 O19 1.807336 1_555
Al5 O13 1.862711 1_555
Al5 O54 1.884094 1_555
Al5 O4 1.891046 1_455
Al5 O1 1.952416 1_555
Al6 O8 1.743711 1_555
Al6 O9 1.786564 1_555
Al6 O37 1.816404 1_555
Al6 O48 1.841106 1_555
Al7 O21 1.868284 1_654
Al7 O43 1.889171 1_555
Al7 O49 1.955694 1_555
Al7 O22 1.956322 1_555
Al7 O5 2.015508 1_554
Al7 O35 2.191678 1_655
Al8 O42 1.715602 1_554
Al8 O46 1.776001 1_555
Al8 O45 1.794461 1_555
Al8 O48 1.796047 1_555
Al9 O3 1.773150 1_555
Al9 O23 1.791930 1_555
Al9 O56 1.798594 1_565
Al9 O53 1.817512 1_555
Al10 O16 1.812023 1_555
Al10 O37 1.827619 1_555
Al10 O46 1.830016 1_555
Al10 O28 1.844117 1_555
Al11 O24 1.844963 1_555
Al11 O53 1.856725 1_545
Al11 O10 1.860552 1_555
Al11 O44 1.940407 1_545
Al11 O56 1.962514 1_555
Al12 O43 1.780757 1_555
Al12 O32 1.786033 1_555
Al12 O31 1.815989 1_555
Al12 O20 1.826121 1_555
Al13 O47 1.737736 1_555
Al13 O7 1.768457 1_665
Al13 O14 1.891352 1_655
Al13 O23 1.906524 1_555
Al13 O11 1.947039 1_655
Al14 O42 1.723277 1_555
Al14 O3 1.771213 1_555
Al14 O40 1.793279 1_555
Al14 O57 1.816920 1_555
Al15 O29 1.853930 1_556
Al15 O50 1.863795 1_555
Al15 O40 1.888904 1_555
Al15 O10 1.900926 1_565
Al15 O45 1.944099 1_556
Al16 O58 1.750650 1_555
Al16 O7 1.790101 1_555
Al16 O44 1.812561 1_545
Al16 O54 1.820215 1_555
Al17 O21 1.796800 1_555
Al17 O10 1.843888 1_555
Al17 O38 1.863604 1_555
Al17 O17 1.925302 1_556
Al17 O35 2.119291 1_556
Al18 O50 1.839554 1_555
Al18 O44 1.850273 1_555
Al18 O51 1.863508 1_555
Al18 O40 1.878324 1_555
Al18 O14 2.023449 1_555
Al19 O12 1.725099 1_565
Al19 O53 1.759987 1_555
Al19 O26 1.829076 1_555
Al19 O16 1.843703 1_555
Al20 O8 1.745937 1_555
Al20 O12 1.762407 1_555
Al20 O15 1.768539 1_555
Al20 O32 1.824026 1_555
Al21 O36 1.749766 1_555
Al21 O45 1.803576 1_555
Al21 O28 1.819912 1_555
Al21 O55 1.829012 1_555
Al22 O34 1.778337 1_555
Al22 O19 1.782524 1_655
Al22 O6 1.831592 1_555
Al22 O27 1.930961 1_555
Al22 O2 2.140360 1_555
Al23 O59 1.778860 1_465
Al23 O11 1.784945 1_555
Al23 O0 1.844132 1_565
Al23 O36 2.026503 1_555
Al23 O58 2.038458 1_565
Al24 O29 1.792844 1_555
Al24 O0 1.794883 1_565
Al24 O20 1.810003 1_565
Al24 O16 1.878068 1_555
Al25 O7 1.760889 1_655
Al25 O21 1.772679 1_655
Al25 O5 1.787918 1_555
Al25 O4 1.824873 1_555
Al26 O22 1.811965 1_565
Al26 O25 1.884337 1_555
Al26 O59 1.894588 1_565
Al26 O36 1.901380 1_655
Al26 O30 2.049079 1_555
Al26 O43 2.194833 1_565
Al27 O31 1.773789 1_555
Al27 O39 1.798346 1_555
Al27 O6 1.805031 1_555
Al27 O27 1.877763 1_555
Al28 O5 1.833768 1_555
Al28 O18 1.876424 1_555
Al28 O24 1.880711 1_555
Al28 O15 1.944495 1_555
Al28 O52 1.970589 1_555
Al29 O1 1.747704 1_555
Al29 O57 1.753484 1_555
Al29 O51 1.774965 1_555
Al29 O37 1.790082 1_555
Al30 O47 1.829248 1_545
Al30 O59 1.838558 1_555
Al30 O25 1.848753 1_545
Al30 O32 1.873320 1_555
Al30 O12 1.915138 1_555
Al31 O56 1.783635 1_564
Al31 O30 1.828547 1_555
Al31 O20 1.866906 1_565
Al31 O29 1.899423 1_555
Al31 O43 2.124952 1_565
Al32 O39 1.787061 1_555
Al32 O41 1.802322 1_555
Al32 O30 1.820135 1_555
Al32 O46 1.913995 1_555
Al33 O24 1.751200 1_555
Al33 O38 1.757997 1_555
Al33 O1 1.770072 1_555
Al33 O54 1.786409 1_555
Al34 O58 1.810106 1_555
Al34 O17 1.831655 1_555
Al34 O9 1.881509 1_555
Al34 O35 1.901963 1_555
Al34 O0 1.984433 1_555
Al35 O22 1.740236 1_566
Al35 O50 1.770999 1_655
Al35 O33 1.803513 1_555
Al35 O23 1.833412 1_555
Al36 O17 1.772173 1_555
Al36 O38 1.776777 1_554
Al36 O52 1.779065 1_554
Al36 O48 1.797367 1_555
Al37 O6 1.774938 1_455
Al37 O55 1.828824 1_555
Al37 O9 1.831394 1_555
Al37 O35 1.846894 1_555
Al38 O55 1.845892 1_656
Al38 O41 1.919582 1_556
Al38 O33 1.921359 1_555
Al38 O49 1.929209 1_556
Al38 O13 1.989619 1_655
Al39 O11 1.849686 1_555
Al39 O34 1.879546 1_455
Al39 O51 1.923007 1_555
Al39 O28 1.940125 1_555
Al39 O14 2.013522 1_555
Al39 O19 2.067141 1_555
