# generated using pymatgen
data_Hf(TlS)4
_symmetry_space_group_name_H-M   'P 1'
_cell_length_a   9.25197300
_cell_length_b   9.25560184
_cell_length_c   15.70928796
_cell_angle_alpha   103.91859364
_cell_angle_beta   104.51882732
_cell_angle_gamma   89.92543674
_symmetry_Int_Tables_number   1
_chemical_formula_structural   Hf(TlS)4
_chemical_formula_sum   'Hf5 Tl20 S20'
_cell_volume   1261.53644824
_cell_formula_units_Z   5
loop_
 _symmetry_equiv_pos_site_id
 _symmetry_equiv_pos_as_xyz
  1  'x, y, z'
loop_
 _atom_site_type_symbol
 _atom_site_label
 _atom_site_symmetry_multiplicity
 _atom_site_fract_x
 _atom_site_fract_y
 _atom_site_fract_z
 _atom_site_occupancy
  Hf  Hf0  1  0.98439300  0.32020300  0.40054900  1
  Hf  Hf1  1  0.01560700  0.67979700  0.59945100  1
  Hf  Hf2  1  0.82947500  0.68841900  0.80120800  1
  Hf  Hf3  1  0.17052500  0.31158100  0.19879200  1
  Hf  Hf4  1  0.00000000  0.50000000  0.00000000  1
  Tl  Tl0  1  0.95546900  0.92417700  0.20067300  1
  Tl  Tl1  1  0.04453100  0.07582300  0.79932700  1
  Tl  Tl2  1  0.78680000  0.28211800  0.59888700  1
  Tl  Tl3  1  0.21320000  0.71788200  0.40111300  1
  Tl  Tl4  1  0.78496500  0.91535300  0.40453500  1
  Tl  Tl5  1  0.21503500  0.08464700  0.59546500  1
  Tl  Tl6  1  0.77832300  0.54560100  0.20370200  1
  Tl  Tl7  1  0.22167700  0.45439900  0.79629800  1
  Tl  Tl8  1  0.62798800  0.89954300  0.61218500  1
  Tl  Tl9  1  0.37201200  0.10045700  0.38781500  1
  Tl  Tl10  1  0.61668300  0.30102300  0.80922200  1
  Tl  Tl11  1  0.38331700  0.69897700  0.19077800  1
  Tl  Tl12  1  0.58826700  0.53143100  0.40111700  1
  Tl  Tl13  1  0.41173300  0.46856900  0.59888300  1
  Tl  Tl14  1  0.42069100  0.89209300  0.79768300  1
  Tl  Tl15  1  0.57930900  0.10790700  0.20231700  1
  Tl  Tl16  1  0.39026400  0.28541300  0.00295300  1
  Tl  Tl17  1  0.60973600  0.71458700  0.99704700  1
  Tl  Tl18  1  0.22053400  0.89590000  0.99243600  1
  Tl  Tl19  1  0.77946600  0.10410000  0.00756400  1
  S  S0  1  0.93809900  0.94101000  0.59651200  1
  S  S1  1  0.06190100  0.05899000  0.40348800  1
  S  S2  1  0.93105100  0.60192300  0.42409800  1
  S  S3  1  0.06894900  0.39807700  0.57590200  1
  S  S4  1  0.92611100  0.76065200  0.97774400  1
  S  S5  1  0.07388900  0.23934800  0.02225600  1
  S  S6  1  0.91514100  0.42289900  0.82400200  1
  S  S7  1  0.08485900  0.57710100  0.17599800  1
  S  S8  1  0.76345200  0.95344900  0.80712800  1
  S  S9  1  0.23654800  0.04655100  0.19287200  1
  S  S10  1  0.75579000  0.61272100  0.62527700  1
  S  S11  1  0.24421000  0.38727900  0.37472300  1
  S  S12  1  0.56607200  0.61639400  0.80106500  1
  S  S13  1  0.43392800  0.38360600  0.19893500  1
  S  S14  1  0.28015200  0.75177100  0.60323600  1
  S  S15  1  0.71984800  0.24822900  0.39676400  1
  S  S16  1  0.26625400  0.57036400  0.99648000  1
  S  S17  1  0.73374600  0.42963600  0.00352000  1
  S  S18  1  0.09111600  0.73526200  0.77473100  1
  S  S19  1  0.90888400  0.26473800  0.22526900  1
loop_
_geom_bond_atom_site_label_1
_geom_bond_atom_site_label_2
_geom_bond_distance
_geom_bond_site_symmetry_2
Hf0 S15 2.519939 1_555
Hf0 S1 2.528665 1_655
Hf0 S3 2.585633 1_655
Hf0 S19 2.586480 1_555
Hf0 S2 2.608360 1_555
Hf0 S11 2.634848 1_655
Hf1 S14 2.519939 1_555
Hf1 S0 2.528665 1_455
Hf1 S2 2.585633 1_455
Hf1 S18 2.586480 1_555
Hf1 S3 2.608360 1_555
Hf1 S10 2.634848 1_455
Hf2 S8 2.512744 1_555
Hf2 S12 2.526683 1_555
Hf2 S10 2.592093 1_555
Hf2 S4 2.608381 1_555
Hf2 S18 2.610567 1_655
Hf2 S6 2.659309 1_555
Hf3 S9 2.512744 1_555
Hf3 S13 2.526683 1_555
Hf3 S11 2.592093 1_555
Hf3 S5 2.608381 1_555
Hf3 S19 2.610567 1_455
Hf3 S7 2.659309 1_555
Hf4 S16 2.566167 1_554
Hf4 S17 2.566167 1_455
Hf4 S4 2.586762 1_454
Hf4 S5 2.586762 1_555
Hf4 S7 2.594935 1_555
Hf4 S6 2.594935 1_454
S0 Tl5 2.893632 1_665
S0 Tl4 2.944970 1_555
S0 Tl8 2.973618 1_555
S0 Tl1 3.032370 1_665
S1 Tl4 2.893632 1_445
S1 Tl5 2.944970 1_555
S1 Tl9 2.973618 1_555
S1 Tl0 3.032370 1_445
S2 Tl3 2.960234 1_655
S2 Tl12 3.151504 1_555
S2 Tl4 3.247670 1_555
S3 Tl2 2.960234 1_455
S3 Tl13 3.151504 1_555
S3 Tl5 3.247670 1_555
S4 Tl18 2.931735 1_655
S4 Tl17 3.058119 1_555
S5 Tl19 2.931735 1_455
S5 Tl16 3.058119 1_555
S6 Tl10 2.917522 1_555
S6 Tl7 2.999954 1_655
S7 Tl11 2.917522 1_555
S7 Tl6 2.999954 1_455
S8 Tl1 2.880090 1_665
S8 Tl8 2.922367 1_555
S8 Tl19 3.087881 1_566
S8 Tl14 3.182664 1_555
S9 Tl0 2.880090 1_445
S9 Tl9 2.922367 1_555
S9 Tl18 3.087881 1_544
S9 Tl15 3.182664 1_555
S10 Tl8 2.936063 1_555
S10 Tl2 3.010718 1_555
S11 Tl9 2.936063 1_555
S11 Tl3 3.010718 1_555
S12 Tl14 2.888590 1_555
S12 Tl17 2.915312 1_555
S12 Tl10 2.983662 1_555
S12 Tl13 3.104725 1_555
S13 Tl15 2.888590 1_555
S13 Tl16 2.915312 1_555
S13 Tl11 2.983662 1_555
S13 Tl12 3.104725 1_555
S14 Tl13 2.881773 1_555
S14 Tl14 2.968596 1_555
S14 Tl3 3.016494 1_555
S14 Tl5 3.163773 1_565
S15 Tl12 2.881773 1_555
S15 Tl15 2.968596 1_555
S15 Tl2 3.016494 1_555
S15 Tl4 3.163773 1_545
S16 Tl16 2.888808 1_556
S16 Tl11 2.916220 1_556
S16 Tl7 2.989718 1_555
S16 Tl18 3.055588 1_555
S17 Tl17 2.888808 1_554
S17 Tl10 2.916220 1_554
S17 Tl6 2.989718 1_555
S17 Tl19 3.055588 1_555
S18 Tl7 2.922662 1_555
S18 Tl1 3.124870 1_565
S18 Tl14 3.277692 1_555
S19 Tl6 2.922662 1_555
S19 Tl0 3.124870 1_545
S19 Tl15 3.277692 1_555
