# generated using pymatgen
data_BaCo(SeO3)4
_symmetry_space_group_name_H-M   'P 1'
_cell_length_a   5.50085766
_cell_length_b   5.50085766
_cell_length_c   7.55891915
_cell_angle_alpha   90.00000000
_cell_angle_beta   90.00000000
_cell_angle_gamma   90.00000000
_symmetry_Int_Tables_number   1
_chemical_formula_structural   BaCo(SeO3)4
_chemical_formula_sum   'Ba1 Co1 Se4 O12'
_cell_volume   228.72862266
_cell_formula_units_Z   1
loop_
 _symmetry_equiv_pos_site_id
 _symmetry_equiv_pos_as_xyz
  1  'x, y, z'
loop_
 _atom_site_type_symbol
 _atom_site_label
 _atom_site_symmetry_multiplicity
 _atom_site_fract_x
 _atom_site_fract_y
 _atom_site_fract_z
 _atom_site_occupancy
  Ba  Ba0  1  0.50000000  0.50000000  0.50000000  1
  Co  Co0  1  0.00000000  0.00000000  0.00000000  1
  Se  Se0  1  -0.00000000  0.50000000  0.75843273  1
  Se  Se1  1  0.00000000  0.50000000  0.24156727  1
  Se  Se2  1  0.50000000  -0.00000000  0.75843273  1
  Se  Se3  1  0.50000000  -0.00000000  0.24156727  1
  O  O0  1  0.23963154  0.23963154  0.77939078  1
  O  O1  1  0.23963154  0.23963154  0.22060922  1
  O  O2  1  0.76036846  0.76036846  0.22060922  1
  O  O3  1  0.76036846  0.76036846  0.77939078  1
  O  O4  1  0.76036846  0.23963154  0.22060922  1
  O  O5  1  0.76036846  0.23963154  0.77939078  1
  O  O6  1  0.23963154  0.76036846  0.22060922  1
  O  O7  1  0.23963154  0.76036846  0.77939078  1
  O  O8  1  -0.00000000  0.50000000  0.50000000  1
  O  O9  1  -0.00000000  0.50000000  0.00000000  1
  O  O10  1  0.50000000  -0.00000000  0.50000000  1
  O  O11  1  0.50000000  0.00000000  0.00000000  1
loop_
_geom_bond_atom_site_label_1
_geom_bond_atom_site_label_2
_geom_bond_distance
_geom_bond_site_symmetry_2
Ba0 O8 2.750429 1_555
Ba0 O8 2.750429 1_655
Ba0 O10 2.750429 1_555
Ba0 O10 2.750429 1_565
Ba0 O4 2.926221 1_555
Ba0 O0 2.926221 1_555
Ba0 O5 2.926221 1_555
Ba0 O2 2.926221 1_555
Ba0 O1 2.926221 1_555
Ba0 O3 2.926221 1_555
Ba0 O6 2.926221 1_555
Ba0 O7 2.926221 1_555
Co0 O3 2.501194 1_444
Co0 O7 2.501194 1_544
Co0 O5 2.501194 1_454
Co0 O2 2.501194 1_445
Co0 O0 2.501194 1_554
Co0 O4 2.501194 1_455
Co0 O1 2.501194 1_555
Co0 O6 2.501194 1_545
O0 Se2 1.952955 1_555
O0 Se0 1.952955 1_555
O1 Se3 1.952955 1_555
O1 Se1 1.952955 1_555
O2 Se3 1.952955 1_565
O2 Se1 1.952955 1_655
O3 Se2 1.952955 1_565
O3 Se0 1.952955 1_655
O4 Se1 1.952955 1_655
O4 Se3 1.952955 1_555
O5 Se2 1.952955 1_555
O5 Se0 1.952955 1_655
O6 Se3 1.952955 1_565
O6 Se1 1.952955 1_555
O7 Se2 1.952955 1_565
O7 Se0 1.952955 1_555
O8 Se0 1.953472 1_555
O8 Se1 1.953472 1_555
O9 Se1 1.825987 1_555
O9 Se0 1.825987 1_554
O10 Se2 1.953472 1_555
O10 Se3 1.953472 1_555
O11 Se3 1.825987 1_555
O11 Se2 1.825987 1_554
