# generated using pymatgen
data_Mg(Co2Ge3)2
_symmetry_space_group_name_H-M   'P 1'
_cell_length_a   6.08968740
_cell_length_b   6.08968740
_cell_length_c   6.08968740
_cell_angle_alpha   119.89372634
_cell_angle_beta   119.89372634
_cell_angle_gamma   90.18417016
_symmetry_Int_Tables_number   1
_chemical_formula_structural   Mg(Co2Ge3)2
_chemical_formula_sum   'Mg1 Co4 Ge6'
_cell_volume   159.94277598
_cell_formula_units_Z   1
loop_
 _symmetry_equiv_pos_site_id
 _symmetry_equiv_pos_as_xyz
  1  'x, y, z'
loop_
 _atom_site_type_symbol
 _atom_site_label
 _atom_site_symmetry_multiplicity
 _atom_site_fract_x
 _atom_site_fract_y
 _atom_site_fract_z
 _atom_site_occupancy
  Mg  Mg0  1  0.00000000  0.00000000  0.00000000  1
  Co  Co0  1  0.39753452  0.39753452  0.63756704  1
  Co  Co1  1  0.75996948  0.75996948  0.36243296  1
  Co  Co2  1  0.60246548  0.24003052  -0.00000000  1
  Co  Co3  1  0.24003052  0.60246548  -0.00000000  1
  Ge  Ge0  1  0.46059190  0.46059190  0.33171514  1
  Ge  Ge1  1  0.12887576  0.12887576  0.66828486  1
  Ge  Ge2  1  0.53940810  0.87112424  -0.00000000  1
  Ge  Ge3  1  0.87112424  0.53940810  0.00000000  1
  Ge  Ge4  1  0.50000000  0.00000000  0.50000000  1
  Ge  Ge5  1  0.00000000  0.50000000  0.50000000  1
loop_
_geom_bond_atom_site_label_1
_geom_bond_atom_site_label_2
_geom_bond_distance
_geom_bond_site_symmetry_2
Co0 Ge0 2.277907 1_555
Co0 Ge5 2.336870 1_555
Co0 Ge4 2.336870 1_555
Co0 Ge2 2.381947 1_556
Co0 Ge3 2.381947 1_556
Co0 Ge1 2.445651 1_555
Co0 Mg0 2.831952 1_555
Co1 Ge1 2.277886 1_665
Co1 Ge5 2.336875 1_655
Co1 Ge4 2.336875 1_565
Co1 Ge3 2.381939 1_555
Co1 Ge2 2.381939 1_555
Co1 Ge0 2.445659 1_555
Co1 Mg0 2.831956 1_666
Co2 Ge2 2.277889 1_545
Co2 Ge4 2.336871 1_554
Co2 Ge5 2.336871 1_655
Co2 Ge0 2.381944 1_555
Co2 Ge1 2.381948 1_554
Co2 Ge3 2.445655 1_555
Co2 Mg0 2.831945 1_655
Co3 Ge3 2.277889 1_455
Co3 Ge4 2.336871 1_565
Co3 Ge5 2.336871 1_554
Co3 Ge0 2.381944 1_555
Co3 Ge1 2.381948 1_554
Co3 Ge2 2.445655 1_555
Co3 Mg0 2.831945 1_565
Ge0 Mg0 2.910160 1_555
Ge1 Mg0 2.910153 1_556
Ge2 Mg0 2.910159 1_665
Ge3 Mg0 2.910159 1_665
Ge4 Mg0 3.049733 1_656
Ge4 Mg0 3.049733 1_555
Ge5 Mg0 3.049733 1_555
Ge5 Mg0 3.049733 1_566
