# generated using pymatgen
data_ZnCu2Ni
_symmetry_space_group_name_H-M   'P 1'
_cell_length_a   16.75010798
_cell_length_b   16.75010798
_cell_length_c   16.75010715
_cell_angle_alpha   17.82078936
_cell_angle_beta   17.82078936
_cell_angle_gamma   17.82079024
_symmetry_Int_Tables_number   1
_chemical_formula_structural   ZnCu2Ni
_chemical_formula_sum   'Zn8 Cu16 Ni8'
_cell_volume   384.26295097
_cell_formula_units_Z   8
loop_
 _symmetry_equiv_pos_site_id
 _symmetry_equiv_pos_as_xyz
  1  'x, y, z'
loop_
 _atom_site_type_symbol
 _atom_site_label
 _atom_site_symmetry_multiplicity
 _atom_site_fract_x
 _atom_site_fract_y
 _atom_site_fract_z
 _atom_site_occupancy
  Zn  Zn0_0  1  0.37404050  0.37404050  0.37404050  1
  Zn  Zn0_1  1  0.37404050  0.37404050  0.87404050  1
  Zn  Zn0_2  1  0.37404050  0.87404050  0.37404050  1
  Zn  Zn0_3  1  0.37404050  0.87404050  0.87404050  1
  Zn  Zn0_4  1  0.87404050  0.37404050  0.37404050  1
  Zn  Zn0_5  1  0.87404050  0.37404050  0.87404050  1
  Zn  Zn0_6  1  0.87404050  0.87404050  0.37404050  1
  Zn  Zn0_7  1  0.87404050  0.87404050  0.87404050  1
  Cu  Cu0_0  1  0.25055950  0.25055950  0.25055950  1
  Cu  Cu0_1  1  0.25055950  0.25055950  0.75055950  1
  Cu  Cu0_2  1  0.25055950  0.75055950  0.25055950  1
  Cu  Cu0_3  1  0.25055950  0.75055950  0.75055950  1
  Cu  Cu0_4  1  0.75055950  0.25055950  0.25055950  1
  Cu  Cu0_5  1  0.75055950  0.25055950  0.75055950  1
  Cu  Cu0_6  1  0.75055950  0.75055950  0.25055950  1
  Cu  Cu0_7  1  0.75055950  0.75055950  0.75055950  1
  Cu  Cu1_0  1  0.12561450  0.12561450  0.12561450  1
  Cu  Cu1_1  1  0.12561450  0.12561450  0.62561450  1
  Cu  Cu1_2  1  0.12561450  0.62561450  0.12561450  1
  Cu  Cu1_3  1  0.12561450  0.62561450  0.62561450  1
  Cu  Cu1_4  1  0.62561450  0.12561450  0.12561450  1
  Cu  Cu1_5  1  0.62561450  0.12561450  0.62561450  1
  Cu  Cu1_6  1  0.62561450  0.62561450  0.12561450  1
  Cu  Cu1_7  1  0.62561450  0.62561450  0.62561450  1
  Ni  Ni0_0  1  0.49978550  0.49978550  0.49978550  1
  Ni  Ni0_1  1  0.49978550  0.49978550  0.99978550  1
  Ni  Ni0_2  1  0.49978550  0.99978550  0.49978550  1
  Ni  Ni0_3  1  0.49978550  0.99978550  0.99978550  1
  Ni  Ni0_4  1  0.99978550  0.49978550  0.49978550  1
  Ni  Ni0_5  1  0.99978550  0.49978550  0.99978550  1
  Ni  Ni0_6  1  0.99978550  0.99978550  0.49978550  1
  Ni  Ni0_7  1  0.99978550  0.99978550  0.99978550  1
loop_
_geom_bond_atom_site_label_1
_geom_bond_atom_site_label_2
_geom_bond_distance
_geom_bond_site_symmetry_2
Zn0_0 Zn0_5 2.594418 1_455
Zn0_0 Zn0_3 2.594418 1_545
Zn0_0 Zn0_5 2.594418 1_554
Zn0_0 Zn0_3 2.594418 1_554
Zn0_0 Zn0_6 2.594418 1_545
Zn0_0 Zn0_6 2.594418 1_455
Zn0_1 Zn0_2 2.594418 1_555
Zn0_1 Zn0_4 2.594418 1_555
Zn0_1 Zn0_4 2.594418 1_456
Zn0_1 Zn0_2 2.594418 1_546
Zn0_1 Zn0_7 2.594418 1_455
Zn0_1 Zn0_7 2.594418 1_545
Zn0_2 Zn0_7 2.594418 1_554
Zn0_2 Zn0_7 2.594418 1_455
Zn0_2 Zn0_4 2.594418 1_555
Zn0_2 Zn0_4 2.594418 1_465
Zn0_3 Zn0_6 2.594418 1_456
Zn0_3 Zn0_6 2.594418 1_555
Zn0_3 Zn0_5 2.594418 1_555
Zn0_3 Zn0_5 2.594418 1_465
Zn0_4 Zn0_7 2.594418 1_554
Zn0_4 Zn0_7 2.594418 1_545
Zn0_5 Zn0_6 2.594418 1_555
Zn0_5 Zn0_6 2.594418 1_546
Cu0_0 Cu1_1 2.549214 1_555
Cu0_0 Cu1_4 2.549215 1_555
Cu0_0 Cu1_2 2.549215 1_555
Cu0_0 Cu0_5 2.594418 1_554
Cu0_0 Cu0_3 2.594418 1_554
Cu0_0 Cu0_5 2.594418 1_455
Cu0_0 Cu0_3 2.594418 1_545
Cu0_0 Cu0_6 2.594418 1_545
Cu0_0 Cu0_6 2.594418 1_455
Cu0_0 Zn0_1 2.608128 1_554
Cu0_0 Zn0_4 2.608129 1_455
Cu0_0 Zn0_2 2.608129 1_545
Cu0_1 Cu1_0 2.549214 1_556
Cu0_1 Cu1_3 2.549215 1_555
Cu0_1 Cu1_5 2.549215 1_555
Cu0_1 Cu0_4 2.594418 1_456
Cu0_1 Cu0_2 2.594418 1_546
Cu0_1 Cu0_2 2.594418 1_555
Cu0_1 Cu0_4 2.594418 1_555
Cu0_1 Cu0_7 2.594418 1_545
Cu0_1 Cu0_7 2.594418 1_455
Cu0_1 Zn0_0 2.608128 1_555
Cu0_1 Zn0_3 2.608129 1_545
Cu0_1 Zn0_5 2.608129 1_455
Cu0_2 Cu1_3 2.549214 1_555
Cu0_2 Cu1_6 2.549215 1_555
Cu0_2 Cu1_0 2.549215 1_565
Cu0_2 Cu0_7 2.594418 1_554
Cu0_2 Cu0_7 2.594418 1_455
Cu0_2 Cu0_4 2.594418 1_465
Cu0_2 Cu0_4 2.594418 1_555
Cu0_2 Zn0_3 2.608128 1_554
Cu0_2 Zn0_6 2.608129 1_455
Cu0_2 Zn0_0 2.608129 1_555
Cu0_3 Cu1_2 2.549214 1_556
Cu0_3 Cu1_7 2.549215 1_555
Cu0_3 Cu1_1 2.549215 1_565
Cu0_3 Cu0_6 2.594418 1_456
Cu0_3 Cu0_6 2.594418 1_555
Cu0_3 Cu0_5 2.594418 1_555
Cu0_3 Cu0_5 2.594418 1_465
Cu0_3 Zn0_2 2.608128 1_555
Cu0_3 Zn0_1 2.608129 1_555
Cu0_3 Zn0_7 2.608129 1_455
Cu0_4 Cu1_5 2.549214 1_555
Cu0_4 Cu1_6 2.549215 1_555
Cu0_4 Cu1_0 2.549215 1_655
Cu0_4 Cu0_7 2.594418 1_554
Cu0_4 Cu0_7 2.594418 1_545
Cu0_4 Zn0_5 2.608128 1_554
Cu0_4 Zn0_6 2.608129 1_545
Cu0_4 Zn0_0 2.608129 1_555
Cu0_5 Cu1_4 2.549214 1_556
Cu0_5 Cu1_7 2.549215 1_555
Cu0_5 Cu1_1 2.549215 1_655
Cu0_5 Cu0_6 2.594418 1_555
Cu0_5 Cu0_6 2.594418 1_546
Cu0_5 Zn0_4 2.608128 1_555
Cu0_5 Zn0_1 2.608129 1_555
Cu0_5 Zn0_7 2.608129 1_545
Cu0_6 Cu1_7 2.549214 1_555
Cu0_6 Cu1_2 2.549215 1_655
Cu0_6 Cu1_4 2.549215 1_565
Cu0_6 Zn0_7 2.608128 1_554
Cu0_6 Zn0_4 2.608129 1_555
Cu0_6 Zn0_2 2.608129 1_555
Cu0_7 Cu1_6 2.549214 1_556
Cu0_7 Cu1_3 2.549215 1_655
Cu0_7 Cu1_5 2.549215 1_565
Cu0_7 Zn0_6 2.608128 1_555
Cu0_7 Zn0_5 2.608129 1_555
Cu0_7 Zn0_3 2.608129 1_555
Cu1_0 Ni0_6 2.513981 1_445
Cu1_0 Ni0_3 2.513981 1_544
Cu1_0 Ni0_5 2.513981 1_454
Cu1_0 Cu1_3 2.594418 1_545
Cu1_0 Cu1_5 2.594418 1_455
Cu1_0 Cu1_5 2.594418 1_554
Cu1_0 Cu1_3 2.594418 1_554
Cu1_0 Cu1_6 2.594418 1_455
Cu1_0 Cu1_6 2.594418 1_545
Cu1_1 Ni0_7 2.513981 1_445
Cu1_1 Ni0_2 2.513981 1_545
Cu1_1 Ni0_4 2.513981 1_455
Cu1_1 Cu1_2 2.594418 1_555
Cu1_1 Cu1_4 2.594418 1_555
Cu1_1 Cu1_2 2.594418 1_546
Cu1_1 Cu1_4 2.594418 1_456
Cu1_1 Cu1_7 2.594418 1_455
Cu1_1 Cu1_7 2.594418 1_545
Cu1_2 Ni0_4 2.513981 1_455
Cu1_2 Ni0_7 2.513981 1_454
Cu1_2 Ni0_1 2.513981 1_554
Cu1_2 Cu1_7 2.594418 1_455
Cu1_2 Cu1_7 2.594418 1_554
Cu1_2 Cu1_4 2.594418 1_465
Cu1_2 Cu1_4 2.594418 1_555
Cu1_3 Ni0_5 2.513981 1_455
Cu1_3 Ni0_6 2.513981 1_455
Cu1_3 Ni0_0 2.513981 1_555
Cu1_3 Cu1_6 2.594418 1_555
Cu1_3 Cu1_6 2.594418 1_456
Cu1_3 Cu1_5 2.594418 1_555
Cu1_3 Cu1_5 2.594418 1_465
Cu1_4 Ni0_2 2.513981 1_545
Cu1_4 Ni0_7 2.513981 1_544
Cu1_4 Ni0_1 2.513981 1_554
Cu1_4 Cu1_7 2.594418 1_545
Cu1_4 Cu1_7 2.594418 1_554
Cu1_5 Ni0_3 2.513981 1_545
Cu1_5 Ni0_6 2.513981 1_545
Cu1_5 Ni0_0 2.513981 1_555
Cu1_5 Cu1_6 2.594418 1_555
Cu1_5 Cu1_6 2.594418 1_546
Cu1_6 Ni0_0 2.513981 1_555
Cu1_6 Ni0_5 2.513981 1_554
Cu1_6 Ni0_3 2.513981 1_554
Cu1_7 Ni0_1 2.513981 1_555
Cu1_7 Ni0_4 2.513981 1_555
Cu1_7 Ni0_2 2.513981 1_555
Ni0_0 Zn0_1 2.517318 1_555
Ni0_0 Zn0_2 2.517318 1_555
Ni0_0 Zn0_4 2.517318 1_555
Ni0_0 Ni0_5 2.594418 1_554
Ni0_0 Ni0_3 2.594418 1_554
Ni0_0 Ni0_3 2.594418 1_545
Ni0_0 Ni0_5 2.594418 1_455
Ni0_0 Ni0_6 2.594418 1_455
Ni0_0 Ni0_6 2.594418 1_545
Ni0_1 Zn0_0 2.517318 1_556
Ni0_1 Zn0_5 2.517318 1_555
Ni0_1 Zn0_3 2.517318 1_555
Ni0_1 Ni0_4 2.594418 1_555
Ni0_1 Ni0_2 2.594418 1_555
Ni0_1 Ni0_4 2.594418 1_456
Ni0_1 Ni0_2 2.594418 1_546
Ni0_1 Ni0_7 2.594418 1_455
Ni0_1 Ni0_7 2.594418 1_545
Ni0_2 Zn0_3 2.517318 1_555
Ni0_2 Zn0_0 2.517318 1_565
Ni0_2 Zn0_6 2.517318 1_555
Ni0_2 Ni0_7 2.594418 1_455
Ni0_2 Ni0_7 2.594418 1_554
Ni0_2 Ni0_4 2.594418 1_555
Ni0_2 Ni0_4 2.594418 1_465
Ni0_3 Zn0_2 2.517318 1_556
Ni0_3 Zn0_7 2.517318 1_555
Ni0_3 Zn0_1 2.517318 1_565
Ni0_3 Ni0_6 2.594418 1_456
Ni0_3 Ni0_6 2.594418 1_555
Ni0_3 Ni0_5 2.594418 1_465
Ni0_3 Ni0_5 2.594418 1_555
Ni0_4 Zn0_5 2.517318 1_555
Ni0_4 Zn0_0 2.517318 1_655
Ni0_4 Zn0_6 2.517318 1_555
Ni0_4 Ni0_7 2.594418 1_545
Ni0_4 Ni0_7 2.594418 1_554
Ni0_5 Zn0_4 2.517318 1_556
Ni0_5 Zn0_7 2.517318 1_555
Ni0_5 Zn0_1 2.517318 1_655
Ni0_5 Ni0_6 2.594418 1_546
Ni0_5 Ni0_6 2.594418 1_555
Ni0_6 Zn0_7 2.517318 1_555
Ni0_6 Zn0_4 2.517318 1_565
Ni0_6 Zn0_2 2.517318 1_655
Ni0_7 Zn0_6 2.517318 1_556
Ni0_7 Zn0_3 2.517318 1_655
Ni0_7 Zn0_5 2.517318 1_565
