# generated using pymatgen
data_ZrBe2
_symmetry_space_group_name_H-M   'P 1'
_cell_length_a   3.82336870
_cell_length_b   3.82336801
_cell_length_c   3.24211235
_cell_angle_alpha   90.00000000
_cell_angle_beta   90.00000000
_cell_angle_gamma   120.00000601
_symmetry_Int_Tables_number   1
_chemical_formula_structural   ZrBe2
_chemical_formula_sum   'Zr1 Be2'
_cell_volume   41.04411993
_cell_formula_units_Z   1
loop_
 _symmetry_equiv_pos_site_id
 _symmetry_equiv_pos_as_xyz
  1  'x, y, z'
loop_
 _atom_site_type_symbol
 _atom_site_label
 _atom_site_symmetry_multiplicity
 _atom_site_fract_x
 _atom_site_fract_y
 _atom_site_fract_z
 _atom_site_occupancy
  Zr  Zr0  1  -0.00000000  -0.00000000  0.00000000  1
  Be  Be0  1  0.33333300  0.66666700  0.50000000  1
  Be  Be1  1  0.66666700  0.33333300  0.50000000  1
loop_
_geom_bond_atom_site_label_1
_geom_bond_atom_site_label_2
_geom_bond_distance
_geom_bond_site_symmetry_2
Be0 Be1 2.207420 1_565
Be0 Be1 2.207421 1_455
Be0 Be1 2.207427 1_555
Be0 Zr0 2.738709 1_566
Be0 Zr0 2.738709 1_565
Be0 Zr0 2.738712 1_555
Be0 Zr0 2.738712 1_556
Be0 Zr0 2.738712 1_665
Be0 Zr0 2.738712 1_666
Be1 Zr0 2.738709 1_655
Be1 Zr0 2.738709 1_656
Be1 Zr0 2.738712 1_665
Be1 Zr0 2.738712 1_666
Be1 Zr0 2.738712 1_555
Be1 Zr0 2.738712 1_556
