# generated using pymatgen
data_CaSnAsO5
_symmetry_space_group_name_H-M   'P 1'
_cell_length_a   6.22335300
_cell_length_b   7.95634900
_cell_length_c   9.51007836
_cell_angle_alpha   83.20057044
_cell_angle_beta   90.00000000
_cell_angle_gamma   90.00000000
_symmetry_Int_Tables_number   1
_chemical_formula_structural   CaSnAsO5
_chemical_formula_sum   'Ca4 Sn4 As4 O20'
_cell_volume   467.58119277
_cell_formula_units_Z   4
loop_
 _symmetry_equiv_pos_site_id
 _symmetry_equiv_pos_as_xyz
  1  'x, y, z'
loop_
 _atom_site_type_symbol
 _atom_site_label
 _atom_site_symmetry_multiplicity
 _atom_site_fract_x
 _atom_site_fract_y
 _atom_site_fract_z
 _atom_site_occupancy
  Ca  Ca0  1  0.76663800  0.06144800  0.64075700  1
  Ca  Ca1  1  0.24750200  0.40138200  0.17701900  1
  Ca  Ca2  1  0.74750200  0.59861800  0.82298100  1
  Ca  Ca3  1  0.26663800  0.93855200  0.35924300  1
  Sn  Sn0  1  0.47924500  0.01063700  0.99044700  1
  Sn  Sn1  1  0.52331800  0.49258900  0.49681000  1
  Sn  Sn2  1  0.02331800  0.50741100  0.50319000  1
  Sn  Sn3  1  0.97924500  0.98936300  0.00955300  1
  As  As0  1  0.28193000  0.38834900  0.82919800  1
  As  As1  1  0.71143000  0.16956900  0.28727500  1
  As  As2  1  0.21143000  0.83043100  0.71272500  1
  As  As3  1  0.78193000  0.61165100  0.17080200  1
  O  O0  1  0.22418200  0.19259600  0.92911100  1
  O  O1  1  0.78729000  0.33153800  0.50230700  1
  O  O2  1  0.28729000  0.66846200  0.49769300  1
  O  O3  1  0.72418200  0.80740400  0.07088900  1
  O  O4  1  0.38404700  0.51171100  0.94926200  1
  O  O5  1  0.62890400  0.01207200  0.42153800  1
  O  O6  1  0.12890400  0.98792800  0.57846200  1
  O  O7  1  0.88404700  0.48828900  0.05073800  1
  O  O8  1  0.04494200  0.44752000  0.74377200  1
  O  O9  1  0.95954000  0.07317600  0.21335300  1
  O  O10  1  0.45954000  0.92682400  0.78664700  1
  O  O11  1  0.54494200  0.55248000  0.25622800  1
  O  O12  1  0.48876000  0.37104100  0.71221200  1
  O  O13  1  0.46973500  0.13335600  0.17392800  1
  O  O14  1  0.96973500  0.86664400  0.82607200  1
  O  O15  1  0.98876000  0.62895900  0.28778800  1
  O  O16  1  0.74359300  0.13847800  0.92008900  1
  O  O17  1  0.26009500  0.35869500  0.43044500  1
  O  O18  1  0.76009500  0.64130500  0.56955500  1
  O  O19  1  0.24359300  0.86152200  0.07991100  1
loop_
_geom_bond_atom_site_label_1
_geom_bond_atom_site_label_2
_geom_bond_distance
_geom_bond_site_symmetry_2
Ca0 O5 2.330097 1_555
Ca0 O1 2.387062 1_555
Ca0 O6 2.420333 1_645
Ca0 O10 2.524471 1_545
Ca0 O14 2.541447 1_545
Ca0 O16 2.799737 1_555
Ca1 O11 2.377730 1_555
Ca1 O4 2.394567 1_554
Ca1 O17 2.395048 1_555
Ca1 O13 2.544815 1_555
Ca1 O7 2.615336 1_455
Ca1 O15 2.726316 1_455
Ca2 O8 2.377730 1_655
Ca2 O7 2.394567 1_556
Ca2 O18 2.395048 1_555
Ca2 O14 2.544815 1_555
Ca2 O4 2.615336 1_555
Ca2 O12 2.726316 1_555
Ca3 O6 2.330097 1_555
Ca3 O2 2.387062 1_555
Ca3 O5 2.420333 1_565
Ca3 O9 2.524471 1_465
Ca3 O13 2.541447 1_565
Ca3 O19 2.799737 1_555
As0 O4 1.713580 1_555
As0 O12 1.717505 1_555
As0 O8 1.722293 1_555
As0 O0 1.762760 1_555
As1 O5 1.756564 1_555
As1 O13 1.892349 1_555
As1 O9 1.895849 1_555
As2 O6 1.756564 1_555
As2 O14 1.892349 1_455
As2 O10 1.895849 1_555
As3 O7 1.713580 1_555
As3 O15 1.717505 1_555
As3 O11 1.722293 1_555
As3 O3 1.762760 1_555
O0 Sn0 2.180798 1_555
O0 Sn3 2.287045 1_446
O1 Sn2 2.029418 1_655
O1 Sn1 2.080280 1_555
O2 Sn1 2.029418 1_555
O2 Sn2 2.080280 1_555
O3 Sn3 2.180798 1_555
O3 Sn0 2.287045 1_564
O8 Sn2 2.285115 1_555
O9 Sn3 2.126546 1_545
O10 Sn0 2.126546 1_565
O11 Sn1 2.285115 1_555
O12 Sn1 2.169958 1_555
O13 Sn0 2.098813 1_554
O14 Sn3 2.098813 1_556
O15 Sn2 2.169958 1_655
O16 Sn0 2.006888 1_555
O16 Sn3 2.010768 1_546
O17 Sn2 2.060053 1_555
O17 Sn1 2.091862 1_555
O18 Sn1 2.060053 1_555
O18 Sn2 2.091862 1_655
O19 Sn3 2.006888 1_455
O19 Sn0 2.010768 1_564
