# generated using pymatgen
data_PrSnRh
_symmetry_space_group_name_H-M   'P 1'
_cell_length_a   7.47052758
_cell_length_b   7.47052860
_cell_length_c   4.20209458
_cell_angle_alpha   90.00000000
_cell_angle_beta   90.00000000
_cell_angle_gamma   120.00000460
_symmetry_Int_Tables_number   1
_chemical_formula_structural   PrSnRh
_chemical_formula_sum   'Pr3 Sn3 Rh3'
_cell_volume   203.09491075
_cell_formula_units_Z   3
loop_
 _symmetry_equiv_pos_site_id
 _symmetry_equiv_pos_as_xyz
  1  'x, y, z'
loop_
 _atom_site_type_symbol
 _atom_site_label
 _atom_site_symmetry_multiplicity
 _atom_site_fract_x
 _atom_site_fract_y
 _atom_site_fract_z
 _atom_site_occupancy
  Pr  Pr0  1  0.58537319  0.58537319  0.00000000  1
  Pr  Pr1  1  1.00000000  0.41462681  0.00000000  1
  Pr  Pr2  1  0.41462681  1.00000000  0.00000000  1
  Sn  Sn0  1  0.24787362  0.24787362  0.50000000  1
  Sn  Sn1  1  0.75212638  1.00000000  0.50000000  1
  Sn  Sn2  1  1.00000000  0.75212638  0.50000000  1
  Rh  Rh0  1  0.66666700  0.33333300  0.50000000  1
  Rh  Rh1  1  0.33333300  0.66666700  0.50000000  1
  Rh  Rh2  1  -0.00000000  0.00000000  -0.00000000  1
loop_
_geom_bond_atom_site_label_1
_geom_bond_atom_site_label_2
_geom_bond_distance
_geom_bond_site_symmetry_2
Pr0 Rh1 3.077648 1_555
Pr0 Rh1 3.077648 1_554
Pr0 Rh0 3.077648 1_554
Pr0 Rh0 3.077648 1_555
Pr0 Rh2 3.097481 1_665
Pr0 Sn0 3.281974 1_555
Pr0 Sn0 3.281974 1_554
Pr0 Sn2 3.420819 1_555
Pr0 Sn2 3.420819 1_554
Pr0 Sn1 3.420819 1_554
Pr0 Sn1 3.420819 1_555
Pr1 Rh0 3.077643 1_554
Pr1 Rh0 3.077643 1_555
Pr1 Rh1 3.077644 1_655
Pr1 Rh1 3.077644 1_654
Pr1 Rh2 3.097481 1_655
Pr1 Sn2 3.281974 1_555
Pr1 Sn2 3.281974 1_554
Pr1 Sn1 3.420819 1_544
Pr1 Sn1 3.420819 1_545
Pr1 Sn0 3.420819 1_654
Pr1 Sn0 3.420819 1_655
Pr2 Rh1 3.077643 1_555
Pr2 Rh1 3.077643 1_554
Pr2 Rh0 3.077644 1_565
Pr2 Rh0 3.077644 1_564
Pr2 Rh2 3.097481 1_565
Pr2 Sn1 3.281974 1_555
Pr2 Sn1 3.281974 1_554
Pr2 Sn2 3.420819 1_454
Pr2 Sn2 3.420819 1_455
Pr2 Sn0 3.420819 1_565
Pr2 Sn0 3.420819 1_564
Sn0 Sn1 3.207319 1_445
Sn0 Sn2 3.207320 1_445
Sn1 Sn2 3.207320 1_555
Rh0 Sn1 2.863276 1_545
Rh0 Sn2 2.863280 1_555
Rh0 Sn0 2.863282 1_555
Rh1 Sn2 2.863275 1_455
Rh1 Sn1 2.863280 1_555
Rh1 Sn0 2.863283 1_555
Rh2 Sn0 2.800601 1_555
Rh2 Sn0 2.800601 1_554
Rh2 Sn1 2.800601 1_444
Rh2 Sn1 2.800601 1_445
Rh2 Sn2 2.800601 1_444
Rh2 Sn2 2.800601 1_445
