# generated using pymatgen
data_Th2(FeNi)5
_symmetry_space_group_name_H-M   'P 1'
_cell_length_a   3.99242500
_cell_length_b   5.04286000
_cell_length_c   8.64129500
_cell_angle_alpha   90.00000000
_cell_angle_beta   90.00000000
_cell_angle_gamma   90.00000000
_symmetry_Int_Tables_number   1
_chemical_formula_structural   Th2(FeNi)5
_chemical_formula_sum   'Th2 Fe5 Ni5'
_cell_volume   173.97726904
_cell_formula_units_Z   1
loop_
 _symmetry_equiv_pos_site_id
 _symmetry_equiv_pos_as_xyz
  1  'x, y, z'
loop_
 _atom_site_type_symbol
 _atom_site_label
 _atom_site_symmetry_multiplicity
 _atom_site_fract_x
 _atom_site_fract_y
 _atom_site_fract_z
 _atom_site_occupancy
  Th  Th0  1  0.00000000  0.50000000  0.00000000  1
  Th  Th1  1  0.00000000  0.00000000  0.50000000  1
  Fe  Fe0  1  0.00000000  0.50000000  0.33804200  1
  Fe  Fe1  1  0.00000000  0.00000000  0.83257400  1
  Fe  Fe2  1  0.00000000  0.00000000  0.16742600  1
  Fe  Fe3  1  0.00000000  0.50000000  0.66195800  1
  Fe  Fe4  1  0.50000000  0.50000000  0.50000000  1
  Ni  Ni0  1  0.50000000  0.00000000  0.00000000  1
  Ni  Ni1  1  0.50000000  0.75201700  0.24980100  1
  Ni  Ni2  1  0.50000000  0.24798300  0.75019900  1
  Ni  Ni3  1  0.50000000  0.24798300  0.24980100  1
  Ni  Ni4  1  0.50000000  0.75201700  0.75019900  1
loop_
_geom_bond_atom_site_label_1
_geom_bond_atom_site_label_2
_geom_bond_distance
_geom_bond_site_symmetry_2
Fe0 Fe4 2.437938 1_455
Fe0 Fe4 2.437938 1_555
Fe0 Ni1 2.486252 1_455
Fe0 Ni1 2.486252 1_555
Fe0 Ni3 2.486252 1_555
Fe0 Ni3 2.486252 1_455
Fe0 Th1 2.883797 1_565
Fe0 Th1 2.883797 1_555
Fe0 Th0 2.921121 1_555
Fe1 Ni2 2.460776 1_455
Fe1 Ni2 2.460776 1_555
Fe1 Ni4 2.460776 1_545
Fe1 Ni4 2.460776 1_445
Fe1 Ni0 2.465366 1_556
Fe1 Ni0 2.465366 1_456
Fe1 Th1 2.873870 1_555
Fe1 Th0 2.907022 1_556
Fe1 Th0 2.907022 1_546
Fe2 Ni3 2.460776 1_555
Fe2 Ni3 2.460776 1_455
Fe2 Ni1 2.460776 1_445
Fe2 Ni1 2.460776 1_545
Fe2 Ni0 2.465366 1_555
Fe2 Ni0 2.465366 1_455
Fe2 Th1 2.873870 1_555
Fe2 Th0 2.907022 1_555
Fe2 Th0 2.907022 1_545
Fe3 Fe4 2.437938 1_455
Fe3 Fe4 2.437938 1_555
Fe3 Ni4 2.486252 1_455
Fe3 Ni4 2.486252 1_555
Fe3 Ni2 2.486252 1_455
Fe3 Ni2 2.486252 1_555
Fe3 Th1 2.883797 1_565
Fe3 Th1 2.883797 1_555
Fe3 Th0 2.921121 1_556
Fe4 Ni4 2.507904 1_555
Fe4 Ni1 2.507904 1_555
Fe4 Ni2 2.507904 1_555
Fe4 Ni3 2.507904 1_555
Fe4 Th1 3.215972 1_665
Fe4 Th1 3.215972 1_565
Fe4 Th1 3.215972 1_555
Fe4 Th1 3.215972 1_655
Ni0 Ni3 2.494681 1_555
Ni0 Ni2 2.494681 1_554
Ni0 Ni1 2.494681 1_545
Ni0 Ni4 2.494681 1_544
Ni0 Th0 3.215972 1_555
Ni0 Th0 3.215972 1_545
Ni0 Th0 3.215972 1_655
Ni0 Th0 3.215972 1_645
Ni1 Ni3 2.501087 1_565
Ni1 Ni3 2.541773 1_555
Ni1 Th1 3.197367 1_665
Ni1 Th1 3.197367 1_565
Ni1 Th0 3.203059 1_655
Ni1 Th0 3.203059 1_555
Ni2 Ni4 2.501087 1_545
Ni2 Ni4 2.541773 1_555
Ni2 Th1 3.197367 1_555
Ni2 Th1 3.197367 1_655
Ni2 Th0 3.203059 1_656
Ni2 Th0 3.203059 1_556
Ni3 Th1 3.197367 1_555
Ni3 Th1 3.197367 1_655
Ni3 Th0 3.203059 1_555
Ni3 Th0 3.203059 1_655
Ni4 Th1 3.197367 1_565
Ni4 Th1 3.197367 1_665
Ni4 Th0 3.203059 1_656
Ni4 Th0 3.203059 1_556
