# generated using pymatgen
data_ThSc(BRh)8
_symmetry_space_group_name_H-M   'P 1'
_cell_length_a   5.31393107
_cell_length_b   5.31393167
_cell_length_c   7.45140840
_cell_angle_alpha   90.00000000
_cell_angle_beta   90.00000000
_cell_angle_gamma   90.00000000
_symmetry_Int_Tables_number   1
_chemical_formula_structural   ThSc(BRh)8
_chemical_formula_sum   'Th1 Sc1 B8 Rh8'
_cell_volume   210.41187642
_cell_formula_units_Z   1
loop_
 _symmetry_equiv_pos_site_id
 _symmetry_equiv_pos_as_xyz
  1  'x, y, z'
loop_
 _atom_site_type_symbol
 _atom_site_label
 _atom_site_symmetry_multiplicity
 _atom_site_fract_x
 _atom_site_fract_y
 _atom_site_fract_z
 _atom_site_occupancy
  Th  Th0  1  -0.00000000  0.00000000  0.49999990  1
  Sc  Sc0  1  0.50000000  0.50000000  0.99999999  1
  B  B0  1  0.32953097  0.00000000  0.14761391  1
  B  B1  1  0.67046903  0.00000000  0.14761391  1
  B  B2  1  0.50000000  0.83231957  0.65128045  1
  B  B3  1  0.50000000  0.16768043  0.65128045  1
  B  B4  1  0.16768045  0.50000000  0.34871951  1
  B  B5  1  0.83231955  0.50000000  0.34871951  1
  B  B6  1  0.00000000  0.67046904  0.85238616  1
  B  B7  1  0.00000000  0.32953096  0.85238616  1
  Rh  Rh0  1  0.74917477  0.00000000  0.85895983  1
  Rh  Rh1  1  0.25082523  0.00000000  0.85895983  1
  Rh  Rh2  1  0.50000000  0.25263894  0.34655765  1
  Rh  Rh3  1  0.50000000  0.74736106  0.34655765  1
  Rh  Rh4  1  0.74736096  0.50000000  0.65344226  1
  Rh  Rh5  1  0.25263904  0.50000000  0.65344226  1
  Rh  Rh6  1  0.00000000  0.25082535  0.14104027  1
  Rh  Rh7  1  0.00000000  0.74917465  0.14104027  1
loop_
_geom_bond_atom_site_label_1
_geom_bond_atom_site_label_2
_geom_bond_distance
_geom_bond_site_symmetry_2
B0 B1 1.811721 1_555
B0 Rh1 2.191165 1_554
B0 Rh3 2.195552 1_545
B0 Rh2 2.195552 1_555
B0 Rh7 2.201206 1_545
B0 Rh6 2.201206 1_555
B0 Sc0 3.014946 1_544
B0 Sc0 3.014946 1_554
B0 Th0 3.156113 1_555
B1 Rh0 2.191165 1_554
B1 Rh3 2.195552 1_545
B1 Rh2 2.195552 1_555
B1 Rh7 2.201206 1_645
B1 Rh6 2.201206 1_655
B1 Sc0 3.014946 1_544
B1 Sc0 3.014946 1_554
B1 Th0 3.156113 1_655
B2 B3 1.782085 1_565
B2 Rh4 2.201488 1_555
B2 Rh5 2.201488 1_555
B2 Rh0 2.223052 1_565
B2 Rh1 2.223052 1_565
B2 Rh3 2.315061 1_555
B2 Th0 3.020616 1_665
B2 Th0 3.020616 1_565
B2 Sc0 3.141725 1_555
B3 Rh4 2.201488 1_555
B3 Rh5 2.201488 1_555
B3 Rh0 2.223052 1_555
B3 Rh1 2.223052 1_555
B3 Rh2 2.315061 1_555
B3 Th0 3.020616 1_555
B3 Th0 3.020616 1_655
B3 Sc0 3.141725 1_555
B4 B5 1.782085 1_455
B4 Rh2 2.201488 1_555
B4 Rh3 2.201488 1_555
B4 Rh6 2.223051 1_555
B4 Rh7 2.223051 1_555
B4 Rh5 2.315061 1_555
B4 Th0 3.020616 1_565
B4 Th0 3.020616 1_555
B4 Sc0 3.141725 1_554
B5 Rh2 2.201488 1_555
B5 Rh3 2.201488 1_555
B5 Rh7 2.223051 1_655
B5 Rh6 2.223051 1_655
B5 Rh4 2.315061 1_555
B5 Th0 3.020616 1_655
B5 Th0 3.020616 1_665
B5 Sc0 3.141725 1_554
B6 B7 1.811722 1_555
B6 Rh7 2.191165 1_556
B6 Rh4 2.195553 1_455
B6 Rh5 2.195553 1_555
B6 Rh1 2.201205 1_565
B6 Rh0 2.201205 1_465
B6 Sc0 3.014946 1_455
B6 Sc0 3.014946 1_555
B6 Th0 3.156114 1_565
B7 Rh6 2.191165 1_556
B7 Rh5 2.195553 1_555
B7 Rh4 2.195553 1_455
B7 Rh1 2.201205 1_555
B7 Rh0 2.201205 1_455
B7 Sc0 3.014946 1_455
B7 Sc0 3.014946 1_555
B7 Th0 3.156114 1_555
Rh0 Th0 2.988455 1_655
Rh0 Sc0 3.149158 1_545
Rh0 Sc0 3.149158 1_555
Rh1 Th0 2.988455 1_555
Rh1 Sc0 3.149158 1_545
Rh1 Sc0 3.149158 1_555
Rh2 Sc0 2.897637 1_554
Rh2 Th0 3.188897 1_555
Rh2 Th0 3.188897 1_655
Rh3 Sc0 2.897637 1_554
Rh3 Th0 3.188897 1_565
Rh3 Th0 3.188897 1_665
Rh4 Sc0 2.897637 1_555
Rh4 Th0 3.188897 1_655
Rh4 Th0 3.188897 1_665
Rh5 Sc0 2.897637 1_555
Rh5 Th0 3.188897 1_555
Rh5 Th0 3.188897 1_565
Rh6 Th0 2.988453 1_555
Rh6 Sc0 3.149157 1_554
Rh6 Sc0 3.149157 1_454
Rh7 Th0 2.988453 1_565
Rh7 Sc0 3.149157 1_554
Rh7 Sc0 3.149157 1_454
