# generated using pymatgen
data_Li2Si4Ni5O14
_symmetry_space_group_name_H-M   'P 1'
_cell_length_a   5.41088957
_cell_length_b   7.43575159
_cell_length_c   14.39199272
_cell_angle_alpha   85.53707383
_cell_angle_beta   100.06164346
_cell_angle_gamma   104.43542238
_symmetry_Int_Tables_number   1
_chemical_formula_structural   Li2Si4Ni5O14
_chemical_formula_sum   'Li4 Si8 Ni10 O28'
_cell_volume   551.78596243
_cell_formula_units_Z   2
loop_
 _symmetry_equiv_pos_site_id
 _symmetry_equiv_pos_as_xyz
  1  'x, y, z'
loop_
 _atom_site_type_symbol
 _atom_site_label
 _atom_site_symmetry_multiplicity
 _atom_site_fract_x
 _atom_site_fract_y
 _atom_site_fract_z
 _atom_site_occupancy
  Li  Li0  1  0.23936000  0.87426800  0.22551900  1
  Li  Li1  1  0.22976800  0.38013100  0.73050500  1
  Li  Li2  1  0.77042400  0.61975400  0.26951400  1
  Li  Li3  1  0.76060200  0.12573900  0.77448400  1
  Si  Si0  1  0.51023800  0.79400000  0.43026100  1
  Si  Si1  1  0.50892100  0.28700200  0.93271500  1
  Si  Si2  1  0.49117800  0.71291200  0.06729200  1
  Si  Si3  1  0.48984200  0.20606400  0.56975500  1
  Si  Si4  1  0.80268500  0.01376000  0.19955300  1
  Si  Si5  1  0.78854200  0.52107800  0.69435600  1
  Si  Si6  1  0.21153000  0.47901000  0.30562500  1
  Si  Si7  1  0.19719200  0.98617600  0.80050400  1
  Ni  Ni0  1  0.00013500  0.49998100  0.50004000  1
  Ni  Ni1  1  0.99935800  0.00036300  0.99996900  1
  Ni  Ni2  1  0.09784000  0.94251100  0.41854900  1
  Ni  Ni3  1  0.08111100  0.50313800  0.90370400  1
  Ni  Ni4  1  0.91894200  0.49696400  0.09623500  1
  Ni  Ni5  1  0.90235300  0.05758500  0.58139400  1
  Ni  Ni6  1  0.64473500  0.22590600  0.35116800  1
  Ni  Ni7  1  0.62594000  0.73539000  0.85183200  1
  Ni  Ni8  1  0.37393400  0.26476000  0.14811300  1
  Ni  Ni9  1  0.35486200  0.77410300  0.64880400  1
  O  O0  1  0.88778100  0.89249400  0.29333100  1
  O  O1  1  0.88605300  0.39719300  0.78533800  1
  O  O2  1  0.11402000  0.60280400  0.21463300  1
  O  O3  1  0.11224900  0.10736300  0.70669800  1
  O  O4  1  0.79869900  0.84883300  0.49043800  1
  O  O5  1  0.81538500  0.34432500  0.98071300  1
  O  O6  1  0.18486600  0.65523200  0.01926700  1
  O  O7  1  0.20136800  0.15121600  0.50958000  1
  O  O8  1  0.53091900  0.87965400  0.14262700  1
  O  O9  1  0.52227600  0.39083100  0.63157500  1
  O  O10  1  0.47775700  0.60916800  0.36847200  1
  O  O11  1  0.46909700  0.12015800  0.85742300  1
  O  O12  1  0.42618900  0.96232500  0.36039500  1
  O  O13  1  0.41229800  0.46338000  0.87305800  1
  O  O14  1  0.58798100  0.53655100  0.12693900  1
  O  O15  1  0.57379100  0.03768800  0.63962100  1
  O  O16  1  0.03977400  0.04632700  0.13717800  1
  O  O17  1  0.02911400  0.55906300  0.63254900  1
  O  O18  1  0.97096400  0.44090400  0.36740900  1
  O  O19  1  0.96009800  0.95379700  0.86286700  1
  O  O20  1  0.71382300  0.20274500  0.21556700  1
  O  O21  1  0.67771900  0.69316100  0.71876000  1
  O  O22  1  0.32232200  0.30695300  0.28119100  1
  O  O23  1  0.28583100  0.79708500  0.78448100  1
  O  O24  1  0.32536300  0.20400100  0.01219100  1
  O  O25  1  0.28763200  0.74115300  0.50115700  1
  O  O26  1  0.71245300  0.25890700  0.49885600  1
  O  O27  1  0.67468600  0.79609500  0.98779700  1
loop_
_geom_bond_atom_site_label_1
_geom_bond_atom_site_label_2
_geom_bond_distance
_geom_bond_site_symmetry_2
Li0 O2 1.971941 1_555
Li0 O16 2.091775 1_565
Li0 O12 2.097807 1_555
Li0 O8 2.128917 1_555
Li0 O0 2.321131 1_455
Li1 O3 2.006110 1_555
Li1 O1 2.178023 1_455
Li1 O13 2.180047 1_555
Li1 O17 2.197717 1_555
Li1 O9 2.290318 1_555
Li2 O0 2.005911 1_555
Li2 O2 2.177530 1_655
Li2 O14 2.180140 1_555
Li2 O18 2.196528 1_555
Li2 O10 2.291454 1_555
Li3 O1 1.971870 1_555
Li3 O19 2.091182 1_545
Li3 O15 2.097609 1_555
Li3 O11 2.128835 1_555
Li3 O3 2.321582 1_655
Ni0 O17 1.961136 1_555
Ni0 O18 1.962688 1_455
Ni0 O26 2.059350 1_455
Ni0 O25 2.059364 1_555
Ni1 O16 1.995243 1_656
Ni1 O19 1.995398 1_545
Ni1 O27 2.006847 1_545
Ni1 O24 2.009151 1_656
Ni2 O0 1.963600 1_455
Ni2 O7 2.016206 1_565
Ni2 O4 2.021495 1_455
Ni2 O12 2.061211 1_555
Ni2 O25 2.184674 1_555
Ni3 O1 1.950028 1_455
Ni3 O6 2.002568 1_556
Ni3 O13 2.013417 1_555
Ni3 O5 2.048601 1_455
Ni4 O2 1.950170 1_655
Ni4 O5 2.004358 1_554
Ni4 O14 2.012069 1_555
Ni4 O6 2.047483 1_655
Ni5 O3 1.964096 1_655
Ni5 O4 2.015736 1_545
Ni5 O7 2.020236 1_655
Ni5 O15 2.062737 1_555
Ni5 O26 2.184378 1_555
Ni6 O12 2.028826 1_545
Ni6 O18 2.057499 1_555
Ni6 O22 2.058322 1_555
Ni6 O20 2.077823 1_555
Ni6 O26 2.115784 1_555
Ni7 O27 2.000044 1_555
Ni7 O21 2.042037 1_555
Ni7 O23 2.065215 1_555
Ni7 O13 2.093335 1_555
Ni7 O19 2.099441 1_555
Ni8 O24 1.999640 1_555
Ni8 O22 2.041745 1_555
Ni8 O20 2.065598 1_555
Ni8 O14 2.092619 1_555
Ni8 O16 2.099579 1_555
Ni9 O15 2.029525 1_565
Ni9 O17 2.056006 1_555
Ni9 O21 2.059869 1_555
Ni9 O23 2.078512 1_555
Ni9 O25 2.115230 1_555
O0 Si4 1.626992 1_565
O1 Si5 1.629331 1_555
O2 Si6 1.629035 1_555
O3 Si7 1.626732 1_545
O4 Si0 1.617973 1_555
O5 Si1 1.643718 1_555
O6 Si2 1.643215 1_555
O7 Si3 1.618024 1_555
O8 Si2 1.659465 1_555
O8 Si4 1.674228 1_565
O9 Si3 1.650879 1_555
O9 Si5 1.678011 1_555
O10 Si0 1.650978 1_555
O10 Si6 1.678024 1_555
O11 Si1 1.659543 1_555
O11 Si7 1.674292 1_545
O12 Si0 1.646994 1_555
O13 Si1 1.655390 1_555
O14 Si2 1.655639 1_555
O15 Si3 1.647096 1_555
O16 Si4 1.650431 1_455
O17 Si5 1.657606 1_455
O18 Si6 1.657300 1_655
O19 Si7 1.650463 1_655
O20 Si4 1.638604 1_555
O21 Si5 1.626750 1_555
O22 Si6 1.626623 1_555
O23 Si7 1.638739 1_555
O24 Si1 1.630081 1_554
O25 Si0 1.666540 1_555
O26 Si3 1.666591 1_555
O27 Si2 1.630355 1_556
