# generated using pymatgen
data_Li4MnCo2O7
_symmetry_space_group_name_H-M   'P 1'
_cell_length_a   6.59876346
_cell_length_b   6.59876346
_cell_length_c   14.49183513
_cell_angle_alpha   69.00752353
_cell_angle_beta   69.00752353
_cell_angle_gamma   25.54404753
_symmetry_Int_Tables_number   1
_chemical_formula_structural   Li4MnCo2O7
_chemical_formula_sum   'Li8 Mn2 Co4 O14'
_cell_volume   253.07932875
_cell_formula_units_Z   2
loop_
 _symmetry_equiv_pos_site_id
 _symmetry_equiv_pos_as_xyz
  1  'x, y, z'
loop_
 _atom_site_type_symbol
 _atom_site_label
 _atom_site_symmetry_multiplicity
 _atom_site_fract_x
 _atom_site_fract_y
 _atom_site_fract_z
 _atom_site_occupancy
  Li  Li0  1  0.28604000  0.28604000  0.06598200  1
  Li  Li1  1  0.85625900  0.85625900  0.22263200  1
  Li  Li2  1  0.42694800  0.42694800  0.36167400  1
  Li  Li3  1  0.71503000  0.71503000  0.92549100  1
  Li  Li4  1  0.14952900  0.14952900  0.77892800  1
  Li  Li5  1  0.99331000  0.99331000  0.50622400  1
  Li  Li6  1  0.57384900  0.57384900  0.63908000  1
  Li  Li7  1  0.28656200  0.28656200  0.57200500  1
  Mn  Mn0  1  0.99915100  0.99915100  0.99952100  1
  Mn  Mn1  1  0.14390200  0.14390200  0.28754100  1
  Co  Co0  1  0.57193000  0.57193000  0.14302300  1
  Co  Co1  1  0.72413500  0.72413500  0.43852400  1
  Co  Co2  1  0.84925000  0.84925000  0.70631600  1
  Co  Co3  1  0.42530900  0.42530900  0.85069900  1
  O  O0  1  0.43392500  0.43392500  0.09332700  1
  O  O1  1  0.01382800  0.01382800  0.24681300  1
  O  O2  1  0.58209000  0.58209000  0.37983000  1
  O  O3  1  0.86845700  0.86845700  0.96046600  1
  O  O4  1  0.29157500  0.29157500  0.81886100  1
  O  O5  1  0.14532400  0.14532400  0.52590000  1
  O  O6  1  0.72100800  0.72100800  0.68402200  1
  O  O7  1  0.13023800  0.13023800  0.03637700  1
  O  O8  1  0.71039300  0.71039300  0.19224600  1
  O  O9  1  0.27283700  0.27283700  0.32545800  1
  O  O10  1  0.56104100  0.56104100  0.90559400  1
  O  O11  1  0.99092700  0.99092700  0.75805300  1
  O  O12  1  0.85237800  0.85237800  0.45937600  1
  O  O13  1  0.42477600  0.42477600  0.61603600  1
loop_
_geom_bond_atom_site_label_1
_geom_bond_atom_site_label_2
_geom_bond_distance
_geom_bond_site_symmetry_2
Li0 O0 2.081879 1_555
Li0 O3 2.097595 1_454
Li0 O3 2.097595 1_544
Li0 O7 2.199424 1_555
Li0 O8 2.261723 1_545
Li0 O8 2.261723 1_455
Li1 O9 2.079912 1_655
Li1 O9 2.079912 1_565
Li1 O8 2.079917 1_555
Li1 O1 2.181280 1_665
Li1 O0 2.294033 1_565
Li1 O0 2.294033 1_655
Li2 O12 2.013864 1_545
Li2 O12 2.013864 1_455
Li2 O2 2.107736 1_555
Li2 O1 2.186731 1_655
Li2 O1 2.186731 1_565
Li2 O9 2.230423 1_555
Li3 O4 2.090006 1_565
Li3 O4 2.090006 1_655
Li3 O10 2.105062 1_555
Li3 O7 2.147791 1_566
Li3 O7 2.147791 1_656
Li3 O3 2.211764 1_555
Li4 O6 1.984070 1_455
Li4 O6 1.984070 1_545
Li4 O4 2.110633 1_555
Li4 O11 2.170801 1_445
Li4 O10 2.293218 1_545
Li4 O10 2.293218 1_455
Li5 O5 2.078303 1_665
Li5 O13 2.099380 1_655
Li5 O13 2.099380 1_565
Li5 O12 2.157783 1_555
Li5 O2 2.291552 1_655
Li5 O2 2.291552 1_565
Li6 O13 2.064882 1_555
Li6 O5 2.134501 1_655
Li6 O5 2.134501 1_565
Li6 O11 2.210873 1_545
Li6 O11 2.210873 1_455
Li6 O6 2.217659 1_555
Li7 O13 2.098992 1_555
Li7 O6 2.113992 1_545
Li7 O6 2.113992 1_455
Li7 O12 2.119905 1_545
Li7 O12 2.119905 1_455
Li7 O5 2.154857 1_555
Mn0 O7 1.947829 1_666
Mn0 O10 1.954190 1_565
Mn0 O10 1.954190 1_655
Mn0 O0 1.960225 1_566
Mn0 O0 1.960225 1_656
Mn0 O3 1.962001 1_555
Mn1 O9 1.930253 1_555
Mn1 O2 1.941154 1_455
Mn1 O2 1.941154 1_545
Mn1 O1 1.969061 1_555
Mn1 O8 1.974688 1_545
Mn1 O8 1.974688 1_455
Co0 O1 2.030599 1_655
Co0 O1 2.030599 1_565
Co0 O7 2.056155 1_655
Co0 O7 2.056155 1_565
Co0 O0 2.147926 1_555
Co0 O8 2.149158 1_555
Co1 O12 1.783896 1_555
Co1 O5 1.953660 1_565
Co1 O5 1.953660 1_655
Co1 O9 2.109800 1_655
Co1 O9 2.109800 1_565
Co1 O2 2.282213 1_555
Co2 O6 1.794616 1_555
Co2 O13 1.962250 1_565
Co2 O13 1.962250 1_655
Co2 O4 2.109452 1_655
Co2 O4 2.109452 1_565
Co2 O11 2.211748 1_555
Co3 O4 1.938860 1_555
Co3 O11 1.952165 1_455
Co3 O11 1.952165 1_545
Co3 O3 2.082981 1_455
Co3 O3 2.082981 1_545
Co3 O10 2.169315 1_555
