# generated using pymatgen
data_Sm14Ag51
_symmetry_space_group_name_H-M   'P 1'
_cell_length_a   9.41079029
_cell_length_b   12.75589725
_cell_length_c   12.75589312
_cell_angle_alpha   119.99993555
_cell_angle_beta   90.00000000
_cell_angle_gamma   90.00000000
_symmetry_Int_Tables_number   1
_chemical_formula_structural   Sm14Ag51
_chemical_formula_sum   'Sm14 Ag51'
_cell_volume   1326.10799490
_cell_formula_units_Z   1
loop_
 _symmetry_equiv_pos_site_id
 _symmetry_equiv_pos_as_xyz
  1  'x, y, z'
loop_
 _atom_site_type_symbol
 _atom_site_label
 _atom_site_symmetry_multiplicity
 _atom_site_fract_x
 _atom_site_fract_y
 _atom_site_fract_z
 _atom_site_occupancy
  Sm  Sm0  1  0.50000000  0.67258252  0.53155094  1
  Sm  Sm1  1  0.50000000  0.46845005  0.14103247  1
  Sm  Sm2  1  0.50000000  0.85896853  0.32741754  1
  Sm  Sm3  1  0.50000000  0.32957230  0.47249779  1
  Sm  Sm4  1  0.50000000  0.52750362  0.85707644  1
  Sm  Sm5  1  0.50000000  0.14292512  0.67042782  1
  Sm  Sm6  1  -0.00000000  0.26670121  0.88724963  1
  Sm  Sm7  1  -0.00000000  0.11275053  0.37945333  1
  Sm  Sm8  1  -0.00000000  0.62054218  0.73329692  1
  Sm  Sm9  1  -0.00000000  0.71621446  0.11585616  1
  Sm  Sm10  1  -0.00000000  0.88414255  0.60035452  1
  Sm  Sm11  1  -0.00000000  0.39964473  0.28378789  1
  Sm  Sm12  1  0.30518912  -0.00000021  0.99999903  1
  Sm  Sm13  1  0.69481088  -0.00000021  0.99999903  1
  Ag  Ag0  1  0.15268787  0.62340108  0.50859229  1
  Ag  Ag1  1  0.15268837  0.49140687  0.11480806  1
  Ag  Ag2  1  0.15268880  0.88519002  0.37659664  1
  Ag  Ag3  1  0.15149505  0.38270625  0.49801502  1
  Ag  Ag4  1  0.15149290  0.50198388  0.88469697  1
  Ag  Ag5  1  0.15149491  0.11530533  0.61728915  1
  Ag  Ag6  1  0.84850495  0.38270625  0.49801502  1
  Ag  Ag7  1  0.84850710  0.50198388  0.88469697  1
  Ag  Ag8  1  0.84850509  0.11530533  0.61728915  1
  Ag  Ag9  1  0.84731213  0.62340108  0.50859229  1
  Ag  Ag10  1  0.84731163  0.49140687  0.11480806  1
  Ag  Ag11  1  0.84731120  0.88519002  0.37659664  1
  Ag  Ag12  1  0.50000000  0.17867469  0.94188013  1
  Ag  Ag13  1  0.50000000  0.05811926  0.23679414  1
  Ag  Ag14  1  0.50000000  0.76320275  0.82132509  1
  Ag  Ag15  1  0.50000000  0.81912524  0.05940136  1
  Ag  Ag16  1  0.50000000  0.94059712  0.75972384  1
  Ag  Ag17  1  0.50000000  0.24027605  0.18087492  1
  Ag  Ag18  1  -0.00000000  0.66666665  0.33333148  1
  Ag  Ag19  1  -0.00000000  0.33333287  0.66666935  1
  Ag  Ag20  1  0.33046719  0.33208215  0.89631560  1
  Ag  Ag21  1  0.33046622  0.10368759  0.43576708  1
  Ag  Ag22  1  0.33046614  0.56423118  0.66791938  1
  Ag  Ag23  1  0.33220285  0.66321409  0.10395476  1
  Ag  Ag24  1  0.33220239  0.89604583  0.55926010  1
  Ag  Ag25  1  0.33220245  0.44074043  0.33678581  1
  Ag  Ag26  1  0.66779715  0.66321409  0.10395476  1
  Ag  Ag27  1  0.66779761  0.89604583  0.55926010  1
  Ag  Ag28  1  0.66779755  0.44074043  0.33678581  1
  Ag  Ag29  1  0.66953281  0.33208215  0.89631560  1
  Ag  Ag30  1  0.66953378  0.10368759  0.43576708  1
  Ag  Ag31  1  0.66953386  0.56423118  0.66791938  1
  Ag  Ag32  1  0.24095724  0.07466855  0.80432424  1
  Ag  Ag33  1  0.24095498  0.19567442  0.27034171  1
  Ag  Ag34  1  0.24095462  0.72965950  0.92533338  1
  Ag  Ag35  1  0.23352206  0.92410165  0.18863876  1
  Ag  Ag36  1  0.23352059  0.81135726  0.73546296  1
  Ag  Ag37  1  0.23352437  0.26454010  0.07589927  1
  Ag  Ag38  1  0.76647794  0.92410165  0.18863876  1
  Ag  Ag39  1  0.76647941  0.81135726  0.73546296  1
  Ag  Ag40  1  0.76647563  0.26454010  0.07589927  1
  Ag  Ag41  1  0.75904276  0.07466855  0.80432424  1
  Ag  Ag42  1  0.75904502  0.19567442  0.27034171  1
  Ag  Ag43  1  0.75904538  0.72965950  0.92533338  1
  Ag  Ag44  1  0.29565238  0.66666531  0.33333196  1
  Ag  Ag45  1  0.29508320  0.33333579  0.66667095  1
  Ag  Ag46  1  0.70491680  0.33333579  0.66667095  1
  Ag  Ag47  1  0.70434762  0.66666531  0.33333196  1
  Ag  Ag48  1  -0.00000000  0.98263486  0.86641624  1
  Ag  Ag49  1  -0.00000000  0.13358506  0.11621179  1
  Ag  Ag50  1  -0.00000000  0.88378948  0.01736798  1
loop_
_geom_bond_atom_site_label_1
_geom_bond_atom_site_label_2
_geom_bond_distance
_geom_bond_site_symmetry_2
Sm12 Sm13 3.666649 1_555
Ag0 Ag36 2.786295 1_555
Ag0 Ag25 2.824795 1_555
Ag0 Ag9 2.873827 1_455
Ag0 Ag44 2.889009 1_555
Ag0 Ag18 2.932756 1_555
Ag0 Ag3 3.005111 1_555
Ag0 Ag22 3.005520 1_555
Ag0 Sm11 3.201500 1_555
Ag0 Sm8 3.222778 1_555
Ag0 Sm10 3.256368 1_555
Ag0 Sm0 3.313395 1_555
Ag1 Ag37 2.786280 1_555
Ag1 Ag23 2.824795 1_555
Ag1 Ag10 2.873836 1_455
Ag1 Ag44 2.888998 1_555
Ag1 Ag18 2.932736 1_555
Ag1 Ag4 3.005025 1_554
Ag1 Ag20 3.005484 1_554
Ag1 Sm9 3.201536 1_555
Ag1 Sm6 3.222760 1_554
Ag1 Sm11 3.256373 1_555
Ag1 Sm1 3.313390 1_555
Ag2 Ag35 2.786292 1_555
Ag2 Ag24 2.824808 1_555
Ag2 Ag44 2.889007 1_555
Ag2 Ag5 3.005084 1_565
Ag2 Ag21 3.005521 1_565
Ag2 Sm10 3.201515 1_555
Ag2 Sm7 3.222761 1_565
Ag2 Sm9 3.256357 1_555
Ag2 Sm2 3.313382 1_555
Ag3 Ag33 2.811799 1_555
Ag3 Ag6 2.851376 1_455
Ag3 Ag45 2.864566 1_555
Ag3 Sm11 3.183885 1_555
Ag3 Sm7 3.312078 1_555
Ag3 Sm3 3.331845 1_555
Ag3 Sm8 3.337489 1_555
Ag4 Ag7 2.851336 1_455
Ag4 Ag45 2.864549 1_555
Ag4 Sm9 3.183856 1_556
Ag4 Sm8 3.312096 1_555
Ag4 Sm4 3.331877 1_555
Ag4 Sm6 3.337479 1_555
Ag5 Ag8 2.851374 1_455
Ag5 Sm10 3.183873 1_545
Ag5 Sm6 3.312123 1_555
Ag5 Sm5 3.331855 1_555
Ag5 Sm7 3.337480 1_555
Ag6 Ag9 3.005111 1_555
Ag6 Sm11 3.183885 1_655
Ag6 Sm7 3.312078 1_655
Ag6 Sm3 3.331845 1_555
Ag6 Sm8 3.337489 1_655
Ag7 Sm9 3.183856 1_656
Ag7 Sm8 3.312096 1_655
Ag7 Sm4 3.331877 1_555
Ag7 Sm6 3.337479 1_655
Ag8 Sm10 3.183873 1_645
Ag8 Sm6 3.312123 1_655
Ag8 Sm5 3.331855 1_555
Ag8 Sm7 3.337480 1_655
Ag9 Sm11 3.201500 1_655
Ag9 Sm8 3.222778 1_655
Ag9 Sm10 3.256368 1_655
Ag9 Sm0 3.313395 1_555
Ag10 Ag40 2.786280 1_555
Ag10 Ag26 2.824795 1_555
Ag10 Ag47 2.888998 1_555
Ag10 Ag18 2.932736 1_655
Ag10 Ag7 3.005025 1_554
Ag10 Ag29 3.005484 1_554
Ag10 Sm9 3.201536 1_655
Ag10 Sm6 3.222760 1_654
Ag10 Sm11 3.256373 1_655
Ag10 Sm1 3.313390 1_555
Ag11 Ag38 2.786292 1_555
Ag11 Ag27 2.824808 1_555
Ag11 Ag2 2.873845 1_655
Ag11 Ag47 2.889007 1_555
Ag11 Ag18 2.932731 1_655
Ag11 Ag8 3.005084 1_565
Ag11 Ag30 3.005521 1_565
Ag11 Sm10 3.201515 1_655
Ag11 Sm7 3.222761 1_665
Ag11 Sm9 3.256357 1_655
Ag11 Sm2 3.313382 1_555
Ag12 Ag17 2.741504 1_556
Ag12 Ag16 2.750504 1_545
Ag12 Ag20 2.801758 1_555
Ag12 Ag29 2.801758 1_555
Ag12 Ag32 2.907556 1_555
Ag12 Ag41 2.907556 1_555
Ag12 Ag40 2.922076 1_556
Ag12 Ag37 2.922076 1_556
Ag12 Sm5 3.258628 1_555
Ag12 Sm1 3.275114 1_556
Ag12 Sm12 3.285563 1_555
Ag12 Sm13 3.285563 1_555
Ag13 Ag15 2.741497 1_545
Ag13 Ag17 2.750489 1_555
Ag13 Ag30 2.801761 1_555
Ag13 Ag21 2.801761 1_555
Ag13 Ag33 2.907573 1_555
Ag13 Ag42 2.907573 1_555
Ag13 Ag38 2.922083 1_545
Ag13 Ag35 2.922083 1_545
Ag13 Sm3 3.258641 1_555
Ag13 Sm2 3.275095 1_545
Ag13 Sm12 3.285575 1_554
Ag13 Sm13 3.285575 1_554
Ag14 Ag16 2.741514 1_555
Ag14 Ag15 2.750481 1_556
Ag14 Ag22 2.801757 1_555
Ag14 Ag31 2.801757 1_555
Ag14 Ag34 2.907559 1_555
Ag14 Ag43 2.907559 1_555
Ag14 Ag36 2.922089 1_555
Ag14 Ag39 2.922089 1_555
Ag14 Sm4 3.258596 1_555
Ag14 Sm0 3.275105 1_555
Ag14 Sm12 3.285586 1_565
Ag14 Sm13 3.285586 1_565
Ag15 Ag23 2.811065 1_555
Ag15 Ag26 2.811065 1_555
Ag15 Ag43 2.866763 1_554
Ag15 Ag34 2.866763 1_554
Ag15 Ag38 2.931242 1_555
Ag15 Ag35 2.931242 1_555
Ag15 Sm2 3.195129 1_555
Ag15 Sm4 3.301199 1_554
Ag15 Sm13 3.317639 1_564
Ag15 Sm12 3.317639 1_564
Ag16 Ag24 2.811067 1_555
Ag16 Ag27 2.811067 1_555
Ag16 Ag32 2.866766 1_565
Ag16 Ag41 2.866766 1_565
Ag16 Ag36 2.931270 1_555
Ag16 Ag39 2.931270 1_555
Ag16 Sm0 3.195120 1_555
Ag16 Sm5 3.301226 1_565
Ag16 Sm12 3.317621 1_565
Ag16 Sm13 3.317621 1_565
Ag17 Ag28 2.811068 1_555
Ag17 Ag25 2.811068 1_555
Ag17 Ag33 2.866763 1_555
Ag17 Ag42 2.866763 1_555
Ag17 Ag37 2.931231 1_555
Ag17 Ag40 2.931231 1_555
Ag17 Sm1 3.195137 1_555
Ag17 Sm3 3.301213 1_555
Ag17 Sm12 3.317641 1_554
Ag17 Sm13 3.317641 1_554
Ag18 Ag47 2.782323 1_455
Ag18 Ag44 2.782323 1_555
Ag18 Ag2 2.932731 1_555
Ag18 Ag9 2.932756 1_455
Ag18 Sm9 3.138207 1_555
Ag18 Sm11 3.138212 1_555
Ag18 Sm10 3.138212 1_555
Ag19 Ag45 2.776966 1_555
Ag19 Ag46 2.776966 1_455
Ag19 Ag8 2.900390 1_455
Ag19 Ag5 2.900390 1_555
Ag19 Ag4 2.900394 1_555
Ag19 Ag7 2.900394 1_455
Ag19 Ag3 2.900414 1_555
Ag19 Ag6 2.900414 1_455
Ag19 Sm8 3.321250 1_555
Ag19 Sm6 3.321264 1_555
Ag19 Sm7 3.321311 1_555
Ag20 Ag4 2.806593 1_555
Ag20 Ag45 2.956165 1_555
Ag20 Ag37 2.965761 1_556
Ag20 Ag32 3.002524 1_555
Ag20 Sm5 3.117274 1_555
Ag20 Sm1 3.144133 1_556
Ag20 Ag29 3.190875 1_555
Ag20 Sm4 3.202748 1_555
Ag20 Sm6 3.206915 1_555
Ag21 Ag5 2.806597 1_555
Ag21 Ag45 2.956226 1_555
Ag21 Ag35 2.965798 1_545
Ag21 Ag33 3.002518 1_555
Ag21 Sm3 3.117244 1_555
Ag21 Sm2 3.144159 1_545
Ag21 Ag30 3.190894 1_555
Ag21 Sm5 3.202760 1_555
Ag21 Sm7 3.206897 1_555
Ag22 Ag3 2.806614 1_555
Ag22 Ag45 2.956161 1_555
Ag22 Ag36 2.965771 1_555
Ag22 Ag34 3.002544 1_555
Ag22 Sm4 3.117255 1_555
Ag22 Sm0 3.144163 1_555
Ag22 Ag31 3.190895 1_555
Ag22 Sm3 3.202744 1_555
Ag22 Sm8 3.206895 1_555
Ag23 Ag44 2.924449 1_555
Ag23 Ag34 2.928888 1_554
Ag23 Ag4 3.031844 1_554
Ag23 Ag35 3.083683 1_555
Ag23 Sm2 3.120287 1_555
Ag23 Sm4 3.155306 1_554
Ag23 Ag26 3.158208 1_555
Ag23 Sm1 3.172454 1_555
Ag23 Sm9 3.186091 1_555
Ag24 Ag44 2.924486 1_555
Ag24 Ag32 2.928864 1_565
Ag24 Ag5 3.031843 1_565
Ag24 Ag36 3.083717 1_555
Ag24 Sm0 3.120290 1_555
Ag24 Sm5 3.155318 1_565
Ag24 Ag27 3.158216 1_555
Ag24 Sm2 3.172467 1_555
Ag24 Sm10 3.186079 1_555
Ag25 Ag44 2.924452 1_555
Ag25 Ag33 2.928884 1_555
Ag25 Ag3 3.031867 1_555
Ag25 Ag37 3.083659 1_555
Ag25 Sm1 3.120282 1_555
Ag25 Sm3 3.155323 1_555
Ag25 Ag28 3.158215 1_555
Ag25 Sm0 3.172465 1_555
Ag25 Sm11 3.186081 1_555
Ag26 Ag47 2.924449 1_555
Ag26 Ag43 2.928888 1_554
Ag26 Ag7 3.031844 1_554
Ag26 Ag38 3.083683 1_555
Ag26 Sm2 3.120287 1_555
Ag26 Sm4 3.155306 1_554
Ag26 Sm1 3.172454 1_555
Ag26 Sm9 3.186091 1_655
Ag27 Ag47 2.924486 1_555
Ag27 Ag41 2.928864 1_565
Ag27 Ag8 3.031843 1_565
Ag27 Ag39 3.083717 1_555
Ag27 Sm0 3.120290 1_555
Ag27 Sm5 3.155318 1_565
Ag27 Sm2 3.172467 1_555
Ag27 Sm10 3.186079 1_655
Ag28 Ag9 2.824795 1_555
Ag28 Ag47 2.924452 1_555
Ag28 Ag42 2.928884 1_555
Ag28 Ag6 3.031867 1_555
Ag28 Ag40 3.083659 1_555
Ag28 Sm1 3.120282 1_555
Ag28 Sm3 3.155323 1_555
Ag28 Sm0 3.172465 1_555
Ag28 Sm11 3.186081 1_655
Ag29 Ag7 2.806593 1_555
Ag29 Ag46 2.956165 1_555
Ag29 Ag40 2.965761 1_556
Ag29 Ag41 3.002524 1_555
Ag29 Sm5 3.117274 1_555
Ag29 Sm1 3.144133 1_556
Ag29 Sm4 3.202748 1_555
Ag29 Sm6 3.206915 1_655
Ag30 Ag8 2.806597 1_555
Ag30 Ag46 2.956226 1_555
Ag30 Ag38 2.965798 1_545
Ag30 Ag42 3.002518 1_555
Ag30 Sm3 3.117244 1_555
Ag30 Sm2 3.144159 1_545
Ag30 Sm5 3.202760 1_555
Ag30 Sm7 3.206897 1_655
Ag31 Ag6 2.806614 1_555
Ag31 Ag46 2.956161 1_555
Ag31 Ag39 2.965771 1_555
Ag31 Ag43 3.002544 1_555
Ag31 Ag9 3.005520 1_555
Ag31 Sm4 3.117255 1_555
Ag31 Sm0 3.144163 1_555
Ag31 Sm3 3.202744 1_555
Ag31 Sm8 3.206895 1_655
Ag32 Ag5 2.811805 1_555
Ag32 Ag48 2.842071 1_545
Ag32 Ag36 3.017866 1_545
Ag32 Ag37 3.079168 1_556
Ag32 Sm6 3.109680 1_555
Ag32 Sm12 3.143245 1_555
Ag32 Sm5 3.332441 1_555
Ag32 Sm10 3.390382 1_545
Ag33 Ag49 2.842087 1_555
Ag33 Ag37 3.017808 1_555
Ag33 Ag35 3.079142 1_545
Ag33 Sm7 3.109686 1_555
Ag33 Sm12 3.143244 1_554
Ag33 Sm3 3.332481 1_555
Ag33 Sm11 3.390362 1_555
Ag34 Ag4 2.811852 1_555
Ag34 Ag50 2.842080 1_556
Ag34 Ag35 3.017786 1_556
Ag34 Ag36 3.079098 1_555
Ag34 Sm8 3.109696 1_555
Ag34 Sm12 3.143223 1_565
Ag34 Sm4 3.332484 1_555
Ag34 Sm9 3.390340 1_556
Ag35 Ag50 2.956947 1_555
Ag35 Sm12 3.084142 1_564
Ag35 Sm9 3.203365 1_555
Ag35 Sm7 3.269175 1_565
Ag35 Sm2 3.403488 1_555
Ag36 Ag48 2.956964 1_555
Ag36 Sm12 3.084141 1_565
Ag36 Sm10 3.203407 1_555
Ag36 Sm8 3.269168 1_555
Ag36 Sm0 3.403494 1_555
Ag37 Ag49 2.956935 1_555
Ag37 Sm12 3.084163 1_554
Ag37 Sm11 3.203391 1_555
Ag37 Sm6 3.269173 1_554
Ag37 Sm1 3.403457 1_555
Ag38 Ag50 2.956947 1_655
Ag38 Ag43 3.017786 1_554
Ag38 Ag42 3.079142 1_565
Ag38 Sm13 3.084142 1_564
Ag38 Sm9 3.203365 1_655
Ag38 Sm7 3.269175 1_665
Ag38 Sm2 3.403488 1_555
Ag39 Ag9 2.786295 1_555
Ag39 Ag48 2.956964 1_655
Ag39 Ag41 3.017866 1_565
Ag39 Ag43 3.079098 1_555
Ag39 Sm13 3.084141 1_565
Ag39 Sm10 3.203407 1_655
Ag39 Sm8 3.269168 1_655
Ag39 Sm0 3.403494 1_555
Ag40 Ag49 2.956935 1_655
Ag40 Ag42 3.017808 1_555
Ag40 Ag41 3.079168 1_554
Ag40 Sm13 3.084163 1_554
Ag40 Sm11 3.203391 1_655
Ag40 Sm6 3.269173 1_654
Ag40 Sm1 3.403457 1_555
Ag41 Ag8 2.811805 1_555
Ag41 Ag48 2.842071 1_645
Ag41 Sm6 3.109680 1_655
Ag41 Sm13 3.143245 1_555
Ag41 Sm5 3.332441 1_555
Ag41 Sm10 3.390382 1_645
Ag42 Ag6 2.811799 1_555
Ag42 Ag49 2.842087 1_655
Ag42 Sm7 3.109686 1_655
Ag42 Sm13 3.143244 1_554
Ag42 Sm3 3.332481 1_555
Ag42 Sm11 3.390362 1_655
Ag43 Ag7 2.811852 1_555
Ag43 Ag50 2.842080 1_656
Ag43 Sm8 3.109696 1_655
Ag43 Sm13 3.143223 1_565
Ag43 Sm4 3.332484 1_555
Ag43 Sm9 3.390340 1_656
Ag44 Sm1 3.147378 1_555
Ag44 Sm0 3.147407 1_555
Ag44 Sm2 3.147407 1_555
Ag45 Ag5 2.864575 1_555
Ag45 Sm4 3.120376 1_555
Ag45 Sm5 3.120399 1_555
Ag45 Sm3 3.120422 1_555
Ag46 Ag7 2.864549 1_555
Ag46 Ag6 2.864566 1_555
Ag46 Ag8 2.864575 1_555
Ag46 Sm4 3.120376 1_555
Ag46 Sm5 3.120399 1_555
Ag46 Sm3 3.120422 1_555
Ag47 Ag9 2.889009 1_555
Ag47 Sm1 3.147378 1_555
Ag47 Sm0 3.147407 1_555
Ag47 Sm2 3.147407 1_555
Ag48 Ag49 2.779414 1_566
Ag48 Ag50 2.779430 1_556
Ag48 Sm10 2.972002 1_555
Ag48 Sm13 3.289973 1_465
Ag48 Sm12 3.289973 1_565
Ag48 Sm6 3.498226 1_565
Ag49 Ag50 2.779417 1_545
Ag49 Sm11 2.971996 1_555
Ag49 Sm12 3.289971 1_554
Ag49 Sm13 3.289971 1_454
Ag49 Sm7 3.498342 1_555
Ag50 Sm9 2.972026 1_555
Ag50 Sm13 3.289942 1_464
Ag50 Sm12 3.289942 1_564
Ag50 Sm8 3.498343 1_554
