# generated using pymatgen
data_Mg14ZnSb
_symmetry_space_group_name_H-M   'P 1'
_cell_length_a   6.33617204
_cell_length_b   6.33617153
_cell_length_c   10.29863261
_cell_angle_alpha   90.00000000
_cell_angle_beta   90.00000000
_cell_angle_gamma   120.00000266
_symmetry_Int_Tables_number   1
_chemical_formula_structural   Mg14ZnSb
_chemical_formula_sum   'Mg14 Zn1 Sb1'
_cell_volume   358.06681402
_cell_formula_units_Z   1
loop_
 _symmetry_equiv_pos_site_id
 _symmetry_equiv_pos_as_xyz
  1  'x, y, z'
loop_
 _atom_site_type_symbol
 _atom_site_label
 _atom_site_symmetry_multiplicity
 _atom_site_fract_x
 _atom_site_fract_y
 _atom_site_fract_z
 _atom_site_occupancy
  Mg  Mg0  1  0.16646083  0.83322991  0.12500000  1
  Mg  Mg1  1  0.16601462  0.83300681  0.62500000  1
  Mg  Mg2  1  0.66677009  0.33353917  0.12500000  1
  Mg  Mg3  1  0.66699319  0.33398538  0.62500000  1
  Mg  Mg4  1  0.66677009  0.83322991  0.12500000  1
  Mg  Mg5  1  0.66699319  0.83300681  0.62500000  1
  Mg  Mg6  1  0.33368997  0.16631003  0.36995923  1
  Mg  Mg7  1  0.33368997  0.16631003  0.88004077  1
  Mg  Mg8  1  0.33368997  0.66738094  0.36995923  1
  Mg  Mg9  1  0.33368997  0.66738094  0.88004077  1
  Mg  Mg10  1  0.83261906  0.16631003  0.36995923  1
  Mg  Mg11  1  0.83261906  0.16631003  0.88004077  1
  Mg  Mg12  1  0.83333300  0.66666700  0.37452359  1
  Mg  Mg13  1  0.83333300  0.66666700  0.87547641  1
  Zn  Zn0  1  0.16666700  0.33333300  0.12500000  1
  Sb  Sb0  1  0.16666700  0.33333300  0.62500000  1
loop_
_geom_bond_atom_site_label_1
_geom_bond_atom_site_label_2
_geom_bond_distance
_geom_bond_site_symmetry_2
Mg0 Mg9 3.115242 1_554
Mg0 Mg8 3.115242 1_555
Mg0 Mg7 3.115248 1_564
Mg0 Mg6 3.115248 1_565
Mg0 Mg12 3.153584 1_455
Mg0 Mg13 3.153584 1_454
Mg0 Mg2 3.166126 1_455
Mg0 Mg4 3.166126 1_455
Mg0 Zn0 3.168086 1_555
Mg0 Zn0 3.168086 1_565
Mg0 Mg2 3.170045 1_565
Mg0 Mg4 3.170046 1_555
Mg1 Mg13 3.160170 1_455
Mg1 Mg12 3.160170 1_455
Mg1 Sb0 3.168088 1_565
Mg1 Sb0 3.168088 1_555
Mg1 Mg9 3.200604 1_555
Mg1 Mg8 3.200604 1_555
Mg1 Mg7 3.200610 1_565
Mg1 Mg6 3.200610 1_565
Mg2 Mg7 3.115248 1_554
Mg2 Mg6 3.115248 1_555
Mg2 Mg4 3.166126 1_555
Mg2 Zn0 3.168086 1_655
Mg2 Zn0 3.168086 1_555
Mg2 Mg4 3.170045 1_545
Mg3 Sb0 3.168088 1_655
Mg3 Sb0 3.168088 1_555
Mg3 Mg6 3.200610 1_555
Mg3 Mg7 3.200610 1_555
Mg4 Mg8 3.115248 1_555
Mg4 Mg9 3.115248 1_554
Mg4 Zn0 3.168086 1_665
Mg4 Zn0 3.168086 1_555
Mg5 Sb0 3.168088 1_665
Mg5 Sb0 3.168088 1_555
Mg5 Mg8 3.200610 1_555
Mg5 Mg9 3.200610 1_555
Mg6 Zn0 3.118357 1_555
Mg6 Mg8 3.161300 1_545
Mg6 Mg8 3.174871 1_555
Mg6 Sb0 3.202934 1_555
Mg7 Zn0 3.118357 1_556
Mg7 Mg9 3.161300 1_545
Mg7 Mg9 3.174871 1_555
Mg7 Sb0 3.202934 1_555
Mg8 Zn0 3.118364 1_555
Mg8 Sb0 3.202940 1_555
Mg9 Zn0 3.118364 1_556
Mg9 Sb0 3.202940 1_555
Mg10 Mg2 3.115242 1_555
Mg10 Mg4 3.115248 1_545
Mg10 Zn0 3.118364 1_655
Mg10 Mg8 3.161300 1_545
Mg10 Mg6 3.161301 1_555
Mg10 Mg12 3.168437 1_555
Mg10 Mg12 3.168437 1_545
Mg10 Mg8 3.174871 1_655
Mg10 Mg6 3.174871 1_655
Mg10 Mg3 3.200604 1_555
Mg10 Mg5 3.200610 1_545
Mg10 Sb0 3.202940 1_655
Mg11 Mg2 3.115242 1_556
Mg11 Mg4 3.115248 1_546
Mg11 Zn0 3.118364 1_656
Mg11 Mg9 3.161300 1_545
Mg11 Mg7 3.161301 1_555
Mg11 Mg13 3.168437 1_555
Mg11 Mg13 3.168437 1_545
Mg11 Mg9 3.174871 1_655
Mg11 Mg7 3.174871 1_655
Mg11 Mg3 3.200604 1_555
Mg11 Mg5 3.200610 1_545
Mg11 Sb0 3.202940 1_655
Mg12 Mg4 3.153577 1_555
Mg12 Mg2 3.153584 1_555
Mg12 Mg5 3.160163 1_555
Mg12 Mg3 3.160170 1_555
Mg12 Mg6 3.168437 1_555
Mg12 Mg6 3.168437 1_665
Mg12 Mg8 3.168437 1_555
Mg12 Mg8 3.168437 1_655
Mg13 Mg4 3.153577 1_556
Mg13 Mg2 3.153584 1_556
Mg13 Mg5 3.160163 1_555
Mg13 Mg3 3.160170 1_555
Mg13 Mg7 3.168437 1_555
Mg13 Mg7 3.168437 1_665
Mg13 Mg9 3.168437 1_655
Mg13 Mg9 3.168437 1_555
