# generated using pymatgen
data_Li4MnCo2O7
_symmetry_space_group_name_H-M   'P 1'
_cell_length_a   9.94304077
_cell_length_b   9.94304077
_cell_length_c   9.81381580
_cell_angle_alpha   66.20709625
_cell_angle_beta   66.20709625
_cell_angle_gamma   16.73107705
_symmetry_Int_Tables_number   1
_chemical_formula_structural   Li4MnCo2O7
_chemical_formula_sum   'Li8 Mn2 Co4 O14'
_cell_volume   255.03439243
_cell_formula_units_Z   2
loop_
 _symmetry_equiv_pos_site_id
 _symmetry_equiv_pos_as_xyz
  1  'x, y, z'
loop_
 _atom_site_type_symbol
 _atom_site_label
 _atom_site_symmetry_multiplicity
 _atom_site_fract_x
 _atom_site_fract_y
 _atom_site_fract_z
 _atom_site_occupancy
  Li  Li0  1  0.50000000  0.50000000  0.00000000  1
  Li  Li1  1  0.21148500  0.21148500  0.15281800  1
  Li  Li2  1  0.92791600  0.92791600  0.29431100  1
  Li  Li3  1  0.63193400  0.63193400  0.44143700  1
  Li  Li4  1  0.36806600  0.36806600  0.55856300  1
  Li  Li5  1  0.07208400  0.07208400  0.70568900  1
  Li  Li6  1  0.78851500  0.78851500  0.84718200  1
  Li  Li7  1  0.00000000  0.00000000  0.50000000  1
  Mn  Mn0  1  0.14281000  0.14281000  0.93253200  1
  Mn  Mn1  1  0.85719000  0.85719000  0.06746800  1
  Co  Co0  1  0.56261300  0.56261300  0.23836500  1
  Co  Co1  1  0.28443700  0.28443700  0.36144100  1
  Co  Co2  1  0.71556300  0.71556300  0.63855900  1
  Co  Co3  1  0.43738700  0.43738700  0.76163500  1
  O  O0  1  0.61207000  0.61207000  0.83311400  1
  O  O1  1  0.32425600  0.32425600  0.97826200  1
  O  O2  1  0.04772800  0.04772800  0.09921000  1
  O  O3  1  0.76062800  0.76062800  0.24052400  1
  O  O4  1  0.46930500  0.46930500  0.37849800  1
  O  O5  1  0.18260300  0.18260300  0.53478600  1
  O  O6  1  0.89360500  0.89360500  0.68779200  1
  O  O7  1  0.38793000  0.38793000  0.16688600  1
  O  O8  1  0.10639500  0.10639500  0.31220800  1
  O  O9  1  0.81739700  0.81739700  0.46521400  1
  O  O10  1  0.53069500  0.53069500  0.62150200  1
  O  O11  1  0.23937200  0.23937200  0.75947600  1
  O  O12  1  0.95227200  0.95227200  0.90079000  1
  O  O13  1  0.67574400  0.67574400  0.02173800  1
loop_
_geom_bond_atom_site_label_1
_geom_bond_atom_site_label_2
_geom_bond_distance
_geom_bond_site_symmetry_2
Li0 O0 2.144516 1_554
Li0 O7 2.144516 1_555
Li0 O2 2.160548 1_655
Li0 O2 2.160548 1_565
Li0 O12 2.160548 1_454
Li0 O12 2.160548 1_544
Li1 O8 2.020923 1_555
Li1 O3 2.108795 1_455
Li1 O3 2.108795 1_545
Li1 O1 2.181183 1_554
Li1 O13 2.231509 1_455
Li1 O13 2.231509 1_545
Li2 O4 1.996749 1_565
Li2 O4 1.996749 1_655
Li2 O9 2.137018 1_555
Li2 O7 2.253369 1_565
Li2 O7 2.253369 1_655
Li2 O2 2.354094 1_665
Li3 O10 2.054155 1_555
Li3 O8 2.114996 1_565
Li3 O8 2.114996 1_655
Li3 O5 2.161127 1_655
Li3 O5 2.161127 1_565
Li3 O3 2.495430 1_555
Li4 O4 2.054155 1_555
Li4 O6 2.114996 1_545
Li4 O6 2.114996 1_455
Li4 O9 2.161127 1_455
Li4 O9 2.161127 1_545
Li4 O11 2.495430 1_555
Li5 O10 1.996749 1_545
Li5 O10 1.996749 1_455
Li5 O5 2.137018 1_555
Li5 O0 2.253369 1_455
Li5 O0 2.253369 1_545
Li5 O12 2.354094 1_445
Li6 O6 2.020923 1_555
Li6 O11 2.108795 1_565
Li6 O11 2.108795 1_655
Li6 O13 2.181183 1_556
Li6 O1 2.231509 1_655
Li6 O1 2.231509 1_565
Li7 O4 2.113391 1_545
Li7 O4 2.113391 1_455
Li7 O10 2.113391 1_545
Li7 O10 2.113391 1_455
Li7 O8 2.152222 1_555
Li7 O6 2.152222 1_445
Mn0 O2 1.918232 1_556
Mn0 O13 1.934301 1_546
Mn0 O13 1.934301 1_456
Mn0 O11 1.965266 1_555
Mn0 O0 1.972707 1_545
Mn0 O0 1.972707 1_455
Mn1 O12 1.918232 1_554
Mn1 O1 1.934301 1_654
Mn1 O1 1.934301 1_564
Mn1 O3 1.965266 1_555
Mn1 O7 1.972707 1_565
Mn1 O7 1.972707 1_655
Co0 O4 1.789538 1_555
Co0 O8 1.966945 1_655
Co0 O8 1.966945 1_565
Co0 O2 2.090343 1_655
Co0 O2 2.090343 1_565
Co0 O13 2.369539 1_555
Co1 O9 2.022101 1_545
Co1 O9 2.022101 1_455
Co1 O5 2.031867 1_555
Co1 O3 2.042926 1_455
Co1 O3 2.042926 1_545
Co1 O7 2.149635 1_555
Co2 O5 2.022101 1_655
Co2 O5 2.022101 1_565
Co2 O9 2.031867 1_555
Co2 O11 2.042926 1_655
Co2 O11 2.042926 1_565
Co2 O0 2.149635 1_555
Co3 O10 1.789538 1_555
Co3 O6 1.966945 1_455
Co3 O6 1.966945 1_545
Co3 O12 2.090343 1_545
Co3 O12 2.090343 1_455
Co3 O1 2.369539 1_555
