# generated using pymatgen
data_Nb3In2Cl9
_symmetry_space_group_name_H-M   'P 1'
_cell_length_a   9.81535590
_cell_length_b   9.81535590
_cell_length_c   9.71360288
_cell_angle_alpha   76.60962428
_cell_angle_beta   76.60962428
_cell_angle_gamma   115.52852290
_symmetry_Int_Tables_number   1
_chemical_formula_structural   Nb3In2Cl9
_chemical_formula_sum   'Nb6 In4 Cl18'
_cell_volume   760.71563066
_cell_formula_units_Z   2
loop_
 _symmetry_equiv_pos_site_id
 _symmetry_equiv_pos_as_xyz
  1  'x, y, z'
loop_
 _atom_site_type_symbol
 _atom_site_label
 _atom_site_symmetry_multiplicity
 _atom_site_fract_x
 _atom_site_fract_y
 _atom_site_fract_z
 _atom_site_occupancy
  Nb  Nb0  1  0.61545300  0.61545300  0.12981300  1
  Nb  Nb1  1  0.38454700  0.38454700  0.87018700  1
  Nb  Nb2  1  0.45495900  0.27787200  0.14176200  1
  Nb  Nb3  1  0.54504100  0.72212800  0.85823800  1
  Nb  Nb4  1  0.72212800  0.54504100  0.85823800  1
  Nb  Nb5  1  0.27787200  0.45495900  0.14176200  1
  In  In0  1  0.72756100  0.04934800  0.32884800  1
  In  In1  1  0.27243900  0.95065200  0.67115200  1
  In  In2  1  0.95065200  0.27243900  0.67115200  1
  In  In3  1  0.04934800  0.72756100  0.32884800  1
  Cl  Cl0  1  0.70925800  0.29074200  0.00000000  1
  Cl  Cl1  1  0.29074200  0.70925800  0.00000000  1
  Cl  Cl2  1  0.39509500  0.99219900  0.32424300  1
  Cl  Cl3  1  0.60490500  0.00780100  0.67575700  1
  Cl  Cl4  1  0.00780100  0.60490500  0.67575700  1
  Cl  Cl5  1  0.99219900  0.39509500  0.32424300  1
  Cl  Cl6  1  0.31208400  0.10226400  0.01462800  1
  Cl  Cl7  1  0.68791600  0.89773600  0.98537200  1
  Cl  Cl8  1  0.89773600  0.68791600  0.98537200  1
  Cl  Cl9  1  0.10226400  0.31208400  0.01462800  1
  Cl  Cl10  1  0.76183400  0.76183400  0.29015500  1
  Cl  Cl11  1  0.23816600  0.23816600  0.70984500  1
  Cl  Cl12  1  0.81522100  0.81522100  0.66509400  1
  Cl  Cl13  1  0.18477900  0.18477900  0.33490600  1
  Cl  Cl14  1  0.58412200  0.37338400  0.31763200  1
  Cl  Cl15  1  0.41587800  0.62661600  0.68236800  1
  Cl  Cl16  1  0.62661600  0.41587800  0.68236800  1
  Cl  Cl17  1  0.37338400  0.58412200  0.31763200  1
loop_
_geom_bond_atom_site_label_1
_geom_bond_atom_site_label_2
_geom_bond_distance
_geom_bond_site_symmetry_2
Cl0 Nb4 2.489586 1_554
Cl0 Nb2 2.489586 1_555
Cl1 Nb5 2.489586 1_555
Cl1 Nb3 2.489586 1_554
Cl2 Nb2 2.673008 1_565
Cl2 In0 3.076863 1_565
Cl2 In1 3.167361 1_555
Cl2 In3 3.247130 1_555
Cl3 Nb3 2.673008 1_545
Cl3 In1 3.076863 1_545
Cl3 In0 3.167361 1_555
Cl3 In2 3.247130 1_555
Cl4 Nb4 2.673008 1_455
Cl4 In2 3.076863 1_455
Cl4 In3 3.167361 1_555
Cl4 In1 3.247130 1_555
Cl5 Nb5 2.673008 1_655
Cl5 In3 3.076863 1_655
Cl5 In2 3.167361 1_555
Cl5 In0 3.247130 1_555
Cl6 Nb2 2.483398 1_555
Cl6 Nb1 2.487958 1_554
Cl7 Nb3 2.483398 1_555
Cl7 Nb0 2.487958 1_556
Cl8 Nb4 2.483398 1_555
Cl8 Nb0 2.487958 1_556
Cl9 Nb5 2.483398 1_555
Cl9 Nb1 2.487958 1_554
Cl10 Nb0 2.616893 1_555
Cl10 In3 3.077234 1_655
Cl10 In0 3.077234 1_565
Cl11 Nb1 2.616893 1_555
Cl11 In1 3.077234 1_545
Cl11 In2 3.077234 1_455
Cl12 Nb3 2.490063 1_555
Cl12 Nb4 2.490063 1_555
Cl13 Nb2 2.490063 1_555
Cl13 Nb5 2.490063 1_555
Cl14 Nb2 2.474881 1_555
Cl14 Nb0 2.484145 1_555
Cl15 Nb3 2.474881 1_555
Cl15 Nb1 2.484145 1_555
Cl16 Nb4 2.474881 1_555
Cl16 Nb1 2.484145 1_555
Cl17 Nb5 2.474881 1_555
Cl17 Nb0 2.484145 1_555
