# generated using pymatgen
data_Sr(BH)12
_symmetry_space_group_name_H-M   'P 1'
_cell_length_a   7.03755292
_cell_length_b   7.03749171
_cell_length_c   11.43608733
_cell_angle_alpha   90.00014579
_cell_angle_beta   89.99972536
_cell_angle_gamma   120.00021502
_symmetry_Int_Tables_number   1
_chemical_formula_structural   Sr(BH)12
_chemical_formula_sum   'Sr2 B24 H24'
_cell_volume   490.50870979
_cell_formula_units_Z   2
loop_
 _symmetry_equiv_pos_site_id
 _symmetry_equiv_pos_as_xyz
  1  'x, y, z'
loop_
 _atom_site_type_symbol
 _atom_site_label
 _atom_site_symmetry_multiplicity
 _atom_site_fract_x
 _atom_site_fract_y
 _atom_site_fract_z
 _atom_site_occupancy
  Sr  Sr0  1  0.66667187  0.33333422  0.25088740  1
  Sr  Sr1  1  0.33333493  0.66666470  0.75085798  1
  B  B0  1  0.92777803  0.39974359  0.59492047  1
  B  B1  1  0.47196820  0.07222284  0.59492143  1
  B  B2  1  0.60026103  0.52803582  0.59491983  1
  B  B3  1  0.52803705  0.60025387  0.09492315  1
  B  B4  1  0.39974827  0.92778208  0.09492416  1
  B  B5  1  0.07222125  0.47196237  0.09492250  1
  B  B6  1  0.50431847  0.29162913  0.50614276  1
  B  B7  1  0.78731704  0.49568576  0.50614220  1
  B  B8  1  0.70837160  0.21268463  0.50614336  1
  B  B9  1  0.21268715  0.70837376  0.00614094  1
  B  B10  1  0.29163043  0.50430917  0.00614054  1
  B  B11  1  0.49569305  0.78731846  0.00614168  1
  B  B12  1  0.82783053  0.37273908  0.73971530  1
  B  B13  1  0.54490958  0.17217256  0.73971623  1
  B  B14  1  0.62726636  0.45509608  0.73971504  1
  B  B15  1  0.45509772  0.62725731  0.23972667  1
  B  B16  1  0.37274056  0.82783786  0.23972735  1
  B  B17  1  0.17216104  0.54489820  0.23972617  1
  B  B18  1  0.40421111  0.26744092  0.65121956  1
  B  B19  1  0.86323468  0.59579610  0.65121869  1
  B  B20  1  0.73256140  0.13676784  0.65122041  1
  B  B21  1  0.13676483  0.73256319  0.15122583  1
  B  B22  1  0.26743663  0.40419629  0.15122487  1
  B  B23  1  0.59580243  0.86323767  0.15122652  1
  H  H0  1  0.11207927  0.44618381  0.57127738  1
  H  H1  1  0.33410644  0.88791873  0.57127909  1
  H  H2  1  0.55382050  0.66589825  0.57127628  1
  H  H3  1  0.66590023  0.55381695  0.07126990  1
  H  H4  1  0.44618587  0.11208380  0.07127121  1
  H  H5  1  0.88792137  0.33409854  0.07126872  1
  H  H6  1  0.38697743  0.26081713  0.42364651  1
  H  H7  1  0.87384823  0.61302655  0.42364520  1
  H  H8  1  0.73918068  0.12615112  0.42364723  1
  H  H9  1  0.12615369  0.73918983  0.92364679  1
  H  H10  1  0.26081639  0.38695872  0.92364543  1
  H  H11  1  0.61304481  0.87385618  0.92364698  1
  H  H12  1  0.93854730  0.39655041  0.82400436  1
  H  H13  1  0.45800107  0.06145566  0.82400523  1
  H  H14  1  0.60345713  0.54200451  0.82400359  1
  H  H15  1  0.54200485  0.60343780  0.32401330  1
  H  H16  1  0.39655730  0.93856489  0.32401398  1
  H  H17  1  0.06143285  0.45798782  0.32401279  1
  H  H18  1  0.21979302  0.22071722  0.67267145  1
  H  H19  1  0.00092887  0.78021544  0.67266980  1
  H  H20  1  0.77928470  0.99907280  0.67267316  1
  H  H21  1  0.99907388  0.77929204  0.17267379  1
  H  H22  1  0.22070655  0.21977508  0.17267222  1
  H  H23  1  0.78022133  0.00092924  0.17267558  1
loop_
_geom_bond_atom_site_label_1
_geom_bond_atom_site_label_2
_geom_bond_distance
_geom_bond_site_symmetry_2
B0 H0 1.199293 1_655
B1 H1 1.199297 1_545
B2 H2 1.199300 1_555
B3 H3 1.199317 1_555
B4 H4 1.199316 1_565
B5 H5 1.199316 1_455
B6 H6 1.199985 1_555
B7 H7 1.199986 1_555
B8 H8 1.199986 1_555
B9 H9 1.199997 1_554
B10 H10 1.200004 1_554
B11 H11 1.200007 1_554
B12 H12 1.197417 1_555
B13 H13 1.197413 1_555
B14 H14 1.197411 1_555
B15 H15 1.197424 1_555
B16 H16 1.197421 1_555
B17 H17 1.197426 1_555
B18 H18 1.194137 1_555
B19 H19 1.194132 1_655
B20 H20 1.194137 1_545
B21 H21 1.194129 1_455
B22 H22 1.194125 1_555
B23 H23 1.194126 1_565
H0 Sr1 2.575608 1_555
H1 Sr1 2.575591 1_555
H2 Sr1 2.575618 1_555
H3 Sr0 2.575945 1_555
H4 Sr0 2.575932 1_555
H5 Sr0 2.575949 1_555
H6 Sr0 2.652108 1_555
H7 Sr0 2.652085 1_555
H8 Sr0 2.652117 1_555
H9 Sr1 2.652404 1_555
H10 Sr1 2.652396 1_555
H11 Sr1 2.652436 1_555
H12 Sr1 2.598263 1_655
H13 Sr1 2.598284 1_545
H14 Sr1 2.598258 1_555
H15 Sr0 2.598085 1_555
H16 Sr0 2.598088 1_565
H17 Sr0 2.598058 1_455
