# generated using pymatgen
data_SmH9C5(NO4)2
_symmetry_space_group_name_H-M   'P 1'
_cell_length_a   9.96672329
_cell_length_b   9.96672329
_cell_length_c   8.75846500
_cell_angle_alpha   90.00000000
_cell_angle_beta   90.00000000
_cell_angle_gamma   139.69786473
_symmetry_Int_Tables_number   1
_chemical_formula_structural   SmH9C5(NO4)2
_chemical_formula_sum   'Sm2 H18 C10 N4 O16'
_cell_volume   562.74939100
_cell_formula_units_Z   2
loop_
 _symmetry_equiv_pos_site_id
 _symmetry_equiv_pos_as_xyz
  1  'x, y, z'
loop_
 _atom_site_type_symbol
 _atom_site_label
 _atom_site_symmetry_multiplicity
 _atom_site_fract_x
 _atom_site_fract_y
 _atom_site_fract_z
 _atom_site_occupancy
  Sm  Sm0  1  0.35767400  0.64232600  0.25000000  1
  Sm  Sm1  1  0.64232600  0.35767400  0.75000000  1
  H  H0  1  0.85795900  0.84176300  0.17104800  1
  H  H1  1  0.84176300  0.85795900  0.82895200  1
  H  H2  1  0.14204100  0.15823700  0.67104800  1
  H  H3  1  0.15823700  0.14204100  0.32895200  1
  H  H4  1  0.86275200  0.67702500  0.10463200  1
  H  H5  1  0.67702500  0.86275200  0.89536800  1
  H  H6  1  0.13724800  0.32297500  0.60463200  1
  H  H7  1  0.32297500  0.13724800  0.39536800  1
  H  H8  1  0.81695000  0.18305000  0.25000000  1
  H  H9  1  0.18305000  0.81695000  0.75000000  1
  H  H10  1  0.15399700  0.84600300  0.25000000  1
  H  H11  1  0.84600300  0.15399700  0.75000000  1
  H  H12  1  0.27206300  0.27206300  0.00000000  1
  H  H13  1  0.72793700  0.72793700  0.50000000  1
  H  H14  1  0.41811100  0.99301900  0.05214100  1
  H  H15  1  0.99301900  0.41811100  0.94785900  1
  H  H16  1  0.58188900  0.00698100  0.55214100  1
  H  H17  1  0.00698100  0.58188900  0.44785900  1
  C  C0  1  0.87632200  0.12367800  0.25000000  1
  C  C1  1  0.12367800  0.87632200  0.75000000  1
  C  C2  1  0.09525700  0.90474300  0.25000000  1
  C  C3  1  0.90474300  0.09525700  0.75000000  1
  C  C4  1  0.43335300  0.43335300  0.00000000  1
  C  C5  1  0.56664700  0.56664700  0.50000000  1
  C  C6  1  0.49291400  0.97793500  0.97245600  1
  C  C7  1  0.97793500  0.49291400  0.02754400  1
  C  C8  1  0.50708600  0.02206500  0.47245600  1
  C  C9  1  0.02206500  0.50708600  0.52754400  1
  N  N0  1  0.92870000  0.80306200  0.16788700  1
  N  N1  1  0.80306200  0.92870000  0.83211300  1
  N  N2  1  0.07130000  0.19693800  0.66788700  1
  N  N3  1  0.19693800  0.07130000  0.33211300  1
  O  O0  1  0.47226000  0.57000200  0.07202300  1
  O  O1  1  0.57000200  0.47226000  0.92797700  1
  O  O2  1  0.52774000  0.42999800  0.57202300  1
  O  O3  1  0.42999800  0.52774000  0.42797700  1
  O  O4  1  0.07051100  0.25448900  0.23554900  1
  O  O5  1  0.25448900  0.07051100  0.76445100  1
  O  O6  1  0.92948900  0.74551100  0.73554900  1
  O  O7  1  0.74551100  0.92948900  0.26445100  1
  O  O8  1  0.49854900  0.86022900  0.01228400  1
  O  O9  1  0.86022900  0.49854900  0.98771600  1
  O  O10  1  0.50145100  0.13977100  0.51228400  1
  O  O11  1  0.13977100  0.50145100  0.48771600  1
  O  O12  1  0.08060100  0.56732500  0.15128900  1
  O  O13  1  0.56732500  0.08060100  0.84871100  1
  O  O14  1  0.91939900  0.43267500  0.65128900  1
  O  O15  1  0.43267500  0.91939900  0.34871100  1
loop_
_geom_bond_atom_site_label_1
_geom_bond_atom_site_label_2
_geom_bond_distance
_geom_bond_site_symmetry_2
H0 N0 1.030273 1_555
H1 N1 1.030273 1_555
H2 N2 1.030273 1_555
H3 N3 1.030273 1_555
H4 N0 1.028376 1_555
H5 N1 1.028376 1_555
H6 N2 1.028376 1_555
H7 N3 1.028376 1_555
C0 H8 1.111044 1_555
C0 O4 1.269992 1_655
C0 O7 1.269992 1_545
C1 H9 1.111044 1_555
C1 O5 1.269992 1_565
C1 O6 1.269992 1_455
C2 H10 1.099218 1_555
C2 N3 1.316789 1_565
C2 N0 1.316789 1_455
C3 H11 1.099218 1_555
C3 N2 1.316789 1_655
C3 N1 1.316789 1_545
C4 H12 1.107579 1_555
C4 O1 1.263975 1_554
C4 O0 1.263975 1_555
C5 H13 1.107579 1_555
C5 O2 1.263975 1_555
C5 O3 1.263975 1_555
C6 H14 1.111972 1_556
C6 O8 1.265543 1_556
C6 O13 1.270514 1_565
C7 H15 1.111972 1_554
C7 O9 1.265543 1_554
C7 O12 1.270514 1_655
C8 H16 1.111972 1_555
C8 O10 1.265543 1_555
C8 O15 1.270514 1_545
C9 H17 1.111972 1_555
C9 O11 1.265543 1_555
C9 O14 1.270514 1_455
O0 Sm0 2.347212 1_555
O1 Sm1 2.347212 1_555
O2 Sm1 2.347212 1_555
O3 Sm0 2.347212 1_555
O4 Sm0 2.504927 1_555
O5 Sm1 2.504927 1_555
O6 Sm1 2.504927 1_555
O7 Sm0 2.504927 1_555
O8 Sm0 2.524237 1_555
O9 Sm1 2.524237 1_555
O10 Sm1 2.524237 1_555
O11 Sm0 2.524237 1_555
O12 Sm0 2.404905 1_555
O13 Sm1 2.404905 1_555
O14 Sm1 2.404905 1_555
O15 Sm0 2.404905 1_555
