# generated using pymatgen
data_AlMoO3
_symmetry_space_group_name_H-M   'P 1'
_cell_length_a   3.26310044
_cell_length_b   3.26310044
_cell_length_c   12.40361900
_cell_angle_alpha   90.00000000
_cell_angle_beta   90.00000000
_cell_angle_gamma   120.00000887
_symmetry_Int_Tables_number   1
_chemical_formula_structural   AlMoO3
_chemical_formula_sum   'Al2 Mo2 O6'
_cell_volume   114.37731398
_cell_formula_units_Z   2
loop_
 _symmetry_equiv_pos_site_id
 _symmetry_equiv_pos_as_xyz
  1  'x, y, z'
loop_
 _atom_site_type_symbol
 _atom_site_label
 _atom_site_symmetry_multiplicity
 _atom_site_fract_x
 _atom_site_fract_y
 _atom_site_fract_z
 _atom_site_occupancy
  Al  Al0  1  0.00000000  0.00000000  0.50000000  1
  Al  Al1  1  0.00000000  0.00000000  0.00000000  1
  Mo  Mo0  1  0.66666700  0.33333300  0.75000000  1
  Mo  Mo1  1  0.33333300  0.66666700  0.25000000  1
  O  O0  1  0.33333300  0.66666700  0.42848800  1
  O  O1  1  0.66666700  0.33333300  0.92848800  1
  O  O2  1  0.66666700  0.33333300  0.57151200  1
  O  O3  1  0.33333300  0.66666700  0.07151200  1
  O  O4  1  0.00000000  0.00000000  0.25000000  1
  O  O5  1  0.00000000  0.00000000  0.75000000  1
loop_
_geom_bond_atom_site_label_1
_geom_bond_atom_site_label_2
_geom_bond_distance
_geom_bond_site_symmetry_2
Al0 O2 2.082319 1_455
Al0 O0 2.082319 1_545
Al0 O0 2.082321 1_555
Al0 O2 2.082321 1_555
Al0 O0 2.082321 1_445
Al0 O2 2.082321 1_445
Al1 O3 2.082319 1_545
Al1 O1 2.082319 1_454
Al1 O3 2.082321 1_445
Al1 O3 2.082321 1_555
Al1 O1 2.082321 1_444
Al1 O1 2.082321 1_554
Mo0 O5 1.883950 1_655
Mo0 O5 1.883953 1_555
Mo0 O5 1.883953 1_665
Mo0 O2 2.213897 1_555
Mo0 O1 2.213897 1_555
Mo1 O4 1.883950 1_565
Mo1 O4 1.883953 1_665
Mo1 O4 1.883953 1_555
Mo1 O0 2.213897 1_555
Mo1 O3 2.213897 1_555
