# generated using pymatgen
data_AsS4N3
_symmetry_space_group_name_H-M   'P 1'
_cell_length_a   12.14740900
_cell_length_b   6.88806500
_cell_length_c   9.90950394
_cell_angle_alpha   89.91486725
_cell_angle_beta   90.00000000
_cell_angle_gamma   90.00000000
_symmetry_Int_Tables_number   1
_chemical_formula_structural   AsS4N3
_chemical_formula_sum   'As4 S16 N12'
_cell_volume   829.14851311
_cell_formula_units_Z   4
loop_
 _symmetry_equiv_pos_site_id
 _symmetry_equiv_pos_as_xyz
  1  'x, y, z'
loop_
 _atom_site_type_symbol
 _atom_site_label
 _atom_site_symmetry_multiplicity
 _atom_site_fract_x
 _atom_site_fract_y
 _atom_site_fract_z
 _atom_site_occupancy
  As  As0  1  0.25000000  0.79197600  0.05621300  1
  As  As1  1  0.25000000  0.29183600  0.43334100  1
  As  As2  1  0.75000000  0.20802400  0.94378700  1
  As  As3  1  0.75000000  0.70816400  0.56665900  1
  S  S0  1  0.25000000  0.81340700  0.63406000  1
  S  S1  1  0.25000000  0.31611600  0.85972800  1
  S  S2  1  0.75000000  0.18659300  0.36594000  1
  S  S3  1  0.75000000  0.68388400  0.14027200  1
  S  S4  1  0.25000000  0.10395000  0.14852700  1
  S  S5  1  0.25000000  0.60427700  0.34124600  1
  S  S6  1  0.75000000  0.89605000  0.85147300  1
  S  S7  1  0.75000000  0.39572300  0.65875400  1
  S  S8  1  0.97532900  0.59683300  0.08845800  1
  S  S9  1  0.52469300  0.09992300  0.41564700  1
  S  S10  1  0.47532900  0.40316700  0.91154200  1
  S  S11  1  0.02469300  0.90007700  0.58435300  1
  S  S12  1  0.02467100  0.40316700  0.91154200  1
  S  S13  1  0.47530700  0.90007700  0.58435300  1
  S  S14  1  0.52467100  0.59683300  0.08845800  1
  S  S15  1  0.97530700  0.09992300  0.41564700  1
  N  N0  1  0.25000000  0.10533700  0.31322100  1
  N  N1  1  0.25000000  0.60540400  0.17639500  1
  N  N2  1  0.75000000  0.89466300  0.68677900  1
  N  N3  1  0.75000000  0.39459600  0.82360500  1
  N  N4  1  0.14719000  0.96581800  0.62371200  1
  N  N5  1  0.35277500  0.46812800  0.87243300  1
  N  N6  1  0.64719000  0.03418200  0.37628800  1
  N  N7  1  0.85277500  0.53187200  0.12756700  1
  N  N8  1  0.85281000  0.03418200  0.37628800  1
  N  N9  1  0.64722500  0.53187200  0.12756700  1
  N  N10  1  0.35281000  0.96581800  0.62371200  1
  N  N11  1  0.14722500  0.46812800  0.87243300  1
loop_
_geom_bond_atom_site_label_1
_geom_bond_atom_site_label_2
_geom_bond_distance
_geom_bond_site_symmetry_2
As0 N1 1.750809 1_555
As0 S4 2.336757 1_565
As1 N0 1.752618 1_555
As1 S5 2.336370 1_555
As2 N3 1.750809 1_555
As2 S6 2.336757 1_545
As3 N2 1.752618 1_555
As3 S7 2.336370 1_555
N0 S4 1.632078 1_555
N1 S5 1.633599 1_555
N2 S6 1.632078 1_555
N3 S7 1.633599 1_555
N4 S11 1.603717 1_555
N4 S0 1.634625 1_555
N5 S10 1.601925 1_555
N5 S1 1.634387 1_555
N6 S9 1.603717 1_555
N6 S2 1.634625 1_555
N7 S8 1.601925 1_555
N7 S3 1.634387 1_555
N8 S15 1.603717 1_555
N8 S2 1.634625 1_555
N9 S14 1.601925 1_555
N9 S3 1.634387 1_555
N10 S13 1.603717 1_555
N10 S0 1.634625 1_555
N11 S12 1.601925 1_555
N11 S1 1.634387 1_555
