# generated using pymatgen
data_Mg14ZnCu
_symmetry_space_group_name_H-M   'P 1'
_cell_length_a   6.27054370
_cell_length_b   6.31165869
_cell_length_c   9.96417406
_cell_angle_alpha   90.00000000
_cell_angle_beta   90.00000000
_cell_angle_gamma   120.21714195
_symmetry_Int_Tables_number   1
_chemical_formula_structural   Mg14ZnCu
_chemical_formula_sum   'Mg14 Zn1 Cu1'
_cell_volume   340.77381160
_cell_formula_units_Z   1
loop_
 _symmetry_equiv_pos_site_id
 _symmetry_equiv_pos_as_xyz
  1  'x, y, z'
loop_
 _atom_site_type_symbol
 _atom_site_label
 _atom_site_symmetry_multiplicity
 _atom_site_fract_x
 _atom_site_fract_y
 _atom_site_fract_z
 _atom_site_occupancy
  Mg  Mg0  1  0.17001252  0.33500576  0.62500000  1
  Mg  Mg1  1  0.16892556  0.83446228  0.62500000  1
  Mg  Mg2  1  0.68071247  0.33985284  0.12500000  1
  Mg  Mg3  1  0.66519398  0.33329300  0.62500000  1
  Mg  Mg4  1  0.68071247  0.84085863  0.12500000  1
  Mg  Mg5  1  0.66519398  0.83189998  0.62500000  1
  Mg  Mg6  1  0.32492360  0.16043783  0.35612121  1
  Mg  Mg7  1  0.32492360  0.16043783  0.89387879  1
  Mg  Mg8  1  0.32492360  0.66448677  0.35612121  1
  Mg  Mg9  1  0.32492360  0.66448677  0.89387879  1
  Mg  Mg10  1  0.83670934  0.16835517  0.37220572  1
  Mg  Mg11  1  0.83670934  0.16835517  0.87779428  1
  Mg  Mg12  1  0.83943775  0.66971937  0.36829270  1
  Mg  Mg13  1  0.83943775  0.66971937  0.88170730  1
  Zn  Zn0  1  0.15956573  0.32978236  0.12500000  1
  Cu  Cu0  1  0.15769470  0.82884685  0.12500000  1
loop_
_geom_bond_atom_site_label_1
_geom_bond_atom_site_label_2
_geom_bond_distance
_geom_bond_site_symmetry_2
Mg0 Mg10 3.099431 1_455
Mg0 Mg11 3.099431 1_455
Mg0 Mg5 3.110511 1_555
Mg0 Mg3 3.110512 1_555
Mg0 Mg1 3.155835 1_545
Mg0 Mg1 3.155835 1_555
Mg0 Mg5 3.160060 1_445
Mg0 Mg3 3.160060 1_455
Mg0 Mg6 3.226876 1_555
Mg0 Mg7 3.226876 1_555
Mg0 Mg8 3.226882 1_555
Mg0 Mg9 3.226882 1_555
Mg1 Mg13 3.119322 1_455
Mg1 Mg12 3.119322 1_455
Mg1 Mg3 3.120043 1_565
Mg1 Mg5 3.120043 1_555
Mg1 Mg3 3.150562 1_455
Mg1 Mg5 3.150563 1_455
Mg1 Mg8 3.215899 1_555
Mg1 Mg9 3.215899 1_555
Mg1 Mg6 3.215905 1_565
Mg1 Mg7 3.215905 1_565
Mg2 Mg7 3.003365 1_554
Mg2 Mg6 3.003365 1_555
Mg2 Zn0 3.035156 1_655
Mg2 Mg4 3.149481 1_545
Mg2 Mg4 3.162178 1_555
Mg2 Zn0 3.236350 1_555
Mg3 Mg5 3.147037 1_555
Mg3 Mg5 3.164622 1_545
Mg3 Mg6 3.252328 1_555
Mg3 Mg7 3.252328 1_555
Mg4 Mg9 3.003365 1_554
Mg4 Mg8 3.003365 1_555
Mg4 Zn0 3.035156 1_665
Mg4 Zn0 3.236350 1_555
Mg5 Mg8 3.252328 1_555
Mg5 Mg9 3.252328 1_555
Mg6 Zn0 2.938807 1_555
Mg6 Mg8 3.130274 1_545
Mg6 Mg8 3.181385 1_555
Mg7 Zn0 2.938807 1_556
Mg7 Mg9 3.130274 1_545
Mg7 Mg9 3.181385 1_555
Mg8 Zn0 2.938814 1_555
Mg9 Zn0 2.938814 1_556
Mg10 Zn0 3.021222 1_655
Mg10 Mg2 3.043293 1_555
Mg10 Mg4 3.043300 1_545
Mg10 Mg8 3.090978 1_655
Mg10 Mg6 3.090978 1_655
Mg10 Mg3 3.116438 1_555
Mg10 Mg5 3.116445 1_545
Mg10 Mg12 3.156105 1_555
Mg10 Mg12 3.156105 1_545
Mg10 Mg8 3.188348 1_545
Mg10 Mg6 3.188349 1_555
Mg11 Zn0 3.021222 1_656
Mg11 Mg2 3.043293 1_556
Mg11 Mg4 3.043300 1_546
Mg11 Mg9 3.090978 1_655
Mg11 Mg7 3.090978 1_655
Mg11 Mg3 3.116438 1_555
Mg11 Mg5 3.116445 1_545
Mg11 Mg13 3.156105 1_555
Mg11 Mg13 3.156105 1_545
Mg11 Mg9 3.188348 1_545
Mg11 Mg7 3.188349 1_555
Mg12 Mg4 3.019324 1_555
Mg12 Mg2 3.019331 1_555
Mg12 Mg6 3.063416 1_665
Mg12 Mg8 3.063416 1_655
Mg12 Mg5 3.148028 1_555
Mg12 Mg3 3.148034 1_555
Mg12 Mg6 3.212079 1_555
Mg12 Mg8 3.212079 1_555
Mg13 Mg4 3.019324 1_556
Mg13 Mg2 3.019331 1_556
Mg13 Mg7 3.063416 1_665
Mg13 Mg9 3.063416 1_655
Mg13 Mg5 3.148028 1_555
Mg13 Mg3 3.148034 1_555
Mg13 Mg7 3.212079 1_555
Mg13 Mg9 3.212079 1_555
Cu0 Mg9 2.928175 1_554
Cu0 Mg8 2.928175 1_555
Cu0 Mg7 2.928182 1_564
Cu0 Mg6 2.928182 1_565
Cu0 Mg12 2.975003 1_455
Cu0 Mg13 2.975003 1_454
Cu0 Mg2 3.029802 1_455
Cu0 Mg4 3.029802 1_455
Cu0 Zn0 3.155846 1_565
Cu0 Zn0 3.155846 1_555
Cu0 Mg2 3.242112 1_565
Cu0 Mg4 3.242112 1_555
