# generated using pymatgen
data_Ta2ZnO6
_symmetry_space_group_name_H-M   'P 1'
_cell_length_a   5.29349700
_cell_length_b   5.47148100
_cell_length_c   7.68604300
_cell_angle_alpha   90.00000000
_cell_angle_beta   90.00000000
_cell_angle_gamma   90.00000000
_symmetry_Int_Tables_number   1
_chemical_formula_structural   Ta2ZnO6
_chemical_formula_sum   'Ta4 Zn2 O12'
_cell_volume   222.61292526
_cell_formula_units_Z   2
loop_
 _symmetry_equiv_pos_site_id
 _symmetry_equiv_pos_as_xyz
  1  'x, y, z'
loop_
 _atom_site_type_symbol
 _atom_site_label
 _atom_site_symmetry_multiplicity
 _atom_site_fract_x
 _atom_site_fract_y
 _atom_site_fract_z
 _atom_site_occupancy
  Ta  Ta0  1  0.50604000  0.75368000  0.74858300  1
  Ta  Ta1  1  0.00604000  0.24632000  0.75141700  1
  Ta  Ta2  1  0.00604000  0.24632000  0.24858300  1
  Ta  Ta3  1  0.50604000  0.75368000  0.25141700  1
  Zn  Zn0  1  0.50751800  0.28615000  0.50000000  1
  Zn  Zn1  1  0.00751800  0.71385000  0.00000000  1
  O  O0  1  0.67586200  0.06954700  0.31221400  1
  O  O1  1  0.17586200  0.93045300  0.18778600  1
  O  O2  1  0.79049600  0.53771600  0.70660500  1
  O  O3  1  0.29049600  0.46228400  0.79339500  1
  O  O4  1  0.29049600  0.46228400  0.20660500  1
  O  O5  1  0.79049600  0.53771600  0.29339500  1
  O  O6  1  0.17586200  0.93045300  0.81221400  1
  O  O7  1  0.67586200  0.06954700  0.68778600  1
  O  O8  1  0.13069100  0.22109100  0.50000000  1
  O  O9  1  0.63069100  0.77890900  0.00000000  1
  O  O10  1  0.42732400  0.70789600  0.50000000  1
  O  O11  1  0.92732400  0.29210400  0.00000000  1
loop_
_geom_bond_atom_site_label_1
_geom_bond_atom_site_label_2
_geom_bond_distance
_geom_bond_site_symmetry_2
O0 Ta3 2.003337 1_545
O0 Ta2 2.056569 1_655
O0 Zn0 2.069268 1_555
O1 Ta2 2.003337 1_565
O1 Ta3 2.056569 1_555
O1 Zn1 2.069268 1_555
O2 Ta0 1.941060 1_555
O2 Ta1 1.990597 1_655
O3 Ta1 1.941060 1_555
O3 Ta0 1.990597 1_555
O4 Ta2 1.941060 1_555
O4 Ta3 1.990597 1_555
O5 Ta3 1.941060 1_555
O5 Ta2 1.990597 1_655
O6 Ta1 2.003337 1_565
O6 Ta0 2.056569 1_555
O6 Zn1 2.069268 1_556
O7 Ta0 2.003337 1_545
O7 Ta1 2.056569 1_655
O7 Zn0 2.069268 1_555
O8 Zn0 2.026246 1_555
O8 Ta2 2.046612 1_555
O8 Ta1 2.046612 1_555
O9 Zn1 2.026246 1_655
O9 Ta3 2.046612 1_555
O9 Ta0 2.046612 1_554
O10 Ta3 1.971508 1_555
O10 Ta0 1.971508 1_555
O10 Zn0 2.346297 1_555
O11 Ta1 1.971508 1_654
O11 Ta2 1.971508 1_655
O11 Zn1 2.346297 1_655
