# generated using pymatgen
data_Ca(ErTe2)2
_symmetry_space_group_name_H-M   'P 1'
_cell_length_a   4.37859201
_cell_length_b   7.47738857
_cell_length_c   7.70448826
_cell_angle_alpha   72.08690723
_cell_angle_beta   90.00000000
_cell_angle_gamma   90.00000000
_symmetry_Int_Tables_number   1
_chemical_formula_structural   Ca(ErTe2)2
_chemical_formula_sum   'Ca1 Er2 Te4'
_cell_volume   240.02033670
_cell_formula_units_Z   1
loop_
 _symmetry_equiv_pos_site_id
 _symmetry_equiv_pos_as_xyz
  1  'x, y, z'
loop_
 _atom_site_type_symbol
 _atom_site_label
 _atom_site_symmetry_multiplicity
 _atom_site_fract_x
 _atom_site_fract_y
 _atom_site_fract_z
 _atom_site_occupancy
  Ca  Ca0  1  0.00000000  0.50000000  0.50000000  1
  Er  Er0  1  0.00000000  -0.00000000  0.00000000  1
  Er  Er1  1  0.50000000  0.50000000  0.00000000  1
  Te  Te0  1  0.50000000  0.76094198  0.24228423  1
  Te  Te1  1  0.00000000  0.25447975  0.23546998  1
  Te  Te2  1  0.50000000  0.23905802  0.75771577  1
  Te  Te3  1  0.00000000  0.74552025  0.76453002  1
loop_
_geom_bond_atom_site_label_1
_geom_bond_atom_site_label_2
_geom_bond_distance
_geom_bond_site_symmetry_2
Ca0 Te3 3.134597 1_555
Ca0 Te1 3.134597 1_555
Ca0 Te0 3.187374 1_555
Ca0 Te2 3.187374 1_555
Ca0 Te0 3.187374 1_455
Ca0 Te2 3.187374 1_455
Er0 Te1 3.005927 1_555
Er0 Te3 3.005927 1_544
Er0 Te0 3.069230 1_445
Er0 Te0 3.069230 1_545
Er0 Te2 3.069230 1_554
Er0 Te2 3.069230 1_454
Er1 Te3 3.066890 1_654
Er1 Te3 3.066890 1_554
Er1 Te1 3.066890 1_655
Er1 Te1 3.066890 1_555
Er1 Te0 3.087395 1_555
Er1 Te2 3.087395 1_554
