# generated using pymatgen
data_IrRh
_symmetry_space_group_name_H-M   'P 1'
_cell_length_a   5.41770034
_cell_length_b   5.41770178
_cell_length_c   9.37328102
_cell_angle_alpha   73.20209581
_cell_angle_beta   89.99999991
_cell_angle_gamma   120.00000881
_symmetry_Int_Tables_number   1
_chemical_formula_structural   IrRh
_chemical_formula_sum   'Ir8 Rh8'
_cell_volume   224.60297858
_cell_formula_units_Z   8
loop_
 _symmetry_equiv_pos_site_id
 _symmetry_equiv_pos_as_xyz
  1  'x, y, z'
loop_
 _atom_site_type_symbol
 _atom_site_label
 _atom_site_symmetry_multiplicity
 _atom_site_fract_x
 _atom_site_fract_y
 _atom_site_fract_z
 _atom_site_occupancy
  Ir  Ir0_0  1  0.00000000  0.00000000  0.00000000  1
  Ir  Ir0_1  1  0.00000000  0.00000000  0.50000000  1
  Ir  Ir0_2  1  0.00000000  0.50000000  0.00000000  1
  Ir  Ir0_3  1  0.00000000  0.50000000  0.50000000  1
  Ir  Ir0_4  1  0.50000000  0.00000000  0.00000000  1
  Ir  Ir0_5  1  0.50000000  0.00000000  0.50000000  1
  Ir  Ir0_6  1  0.50000000  0.50000000  0.00000000  1
  Ir  Ir0_7  1  0.50000000  0.50000000  0.50000000  1
  Rh  Rh0_0  1  0.25000000  0.00000000  0.25000000  1
  Rh  Rh0_1  1  0.25000000  0.00000000  0.75000000  1
  Rh  Rh0_2  1  0.25000000  0.50000000  0.25000000  1
  Rh  Rh0_3  1  0.25000000  0.50000000  0.75000000  1
  Rh  Rh0_4  1  0.75000000  0.00000000  0.25000000  1
  Rh  Rh0_5  1  0.75000000  0.00000000  0.75000000  1
  Rh  Rh0_6  1  0.75000000  0.50000000  0.25000000  1
  Rh  Rh0_7  1  0.75000000  0.50000000  0.75000000  1
loop_
_geom_bond_atom_site_label_1
_geom_bond_atom_site_label_2
_geom_bond_distance
_geom_bond_site_symmetry_2
Ir0_0 Rh0_4 2.706588 1_455
Ir0_0 Rh0_1 2.706588 1_554
Ir0_0 Rh0_5 2.706588 1_454
Ir0_0 Rh0_0 2.706588 1_555
Ir0_0 Rh0_3 2.706588 1_554
Ir0_0 Rh0_6 2.706588 1_445
Ir0_0 Ir0_4 2.708850 1_455
Ir0_0 Ir0_4 2.708850 1_555
Ir0_0 Ir0_6 2.708850 1_445
Ir0_0 Ir0_6 2.708850 1_555
Ir0_0 Ir0_2 2.708851 1_555
Ir0_0 Ir0_2 2.708851 1_545
Ir0_1 Rh0_5 2.706588 1_455
Ir0_1 Rh0_0 2.706588 1_555
Ir0_1 Rh0_4 2.706588 1_455
Ir0_1 Rh0_1 2.706588 1_555
Ir0_1 Rh0_2 2.706588 1_555
Ir0_1 Rh0_7 2.706588 1_445
Ir0_1 Ir0_5 2.708850 1_455
Ir0_1 Ir0_5 2.708850 1_555
Ir0_1 Ir0_7 2.708850 1_445
Ir0_1 Ir0_7 2.708850 1_555
Ir0_1 Ir0_3 2.708851 1_555
Ir0_1 Ir0_3 2.708851 1_545
Ir0_2 Rh0_6 2.706588 1_455
Ir0_2 Rh0_3 2.706588 1_554
Ir0_2 Rh0_2 2.706588 1_555
Ir0_2 Rh0_7 2.706588 1_454
Ir0_2 Rh0_4 2.706588 1_455
Ir0_2 Rh0_1 2.706588 1_564
Ir0_2 Ir0_6 2.708850 1_455
Ir0_2 Ir0_6 2.708850 1_555
Ir0_2 Ir0_4 2.708850 1_455
Ir0_2 Ir0_4 2.708850 1_565
Ir0_3 Rh0_7 2.706588 1_455
Ir0_3 Rh0_2 2.706588 1_555
Ir0_3 Rh0_6 2.706588 1_455
Ir0_3 Rh0_3 2.706588 1_555
Ir0_3 Rh0_5 2.706588 1_455
Ir0_3 Rh0_0 2.706588 1_565
Ir0_3 Ir0_7 2.708850 1_455
Ir0_3 Ir0_7 2.708850 1_555
Ir0_3 Ir0_5 2.708850 1_455
Ir0_3 Ir0_5 2.708850 1_565
Ir0_4 Rh0_5 2.706588 1_554
Ir0_4 Rh0_0 2.706588 1_555
Ir0_4 Rh0_4 2.706588 1_555
Ir0_4 Rh0_1 2.706588 1_554
Ir0_4 Rh0_2 2.706588 1_545
Ir0_4 Rh0_7 2.706588 1_554
Ir0_4 Ir0_6 2.708851 1_545
Ir0_4 Ir0_6 2.708851 1_555
Ir0_5 Rh0_4 2.706588 1_555
Ir0_5 Rh0_1 2.706588 1_555
Ir0_5 Rh0_0 2.706588 1_555
Ir0_5 Rh0_5 2.706588 1_555
Ir0_5 Rh0_6 2.706588 1_555
Ir0_5 Rh0_3 2.706588 1_545
Ir0_5 Ir0_7 2.708851 1_555
Ir0_5 Ir0_7 2.708851 1_545
Ir0_6 Rh0_2 2.706588 1_555
Ir0_6 Rh0_7 2.706588 1_554
Ir0_6 Rh0_6 2.706588 1_555
Ir0_6 Rh0_3 2.706588 1_554
Ir0_6 Rh0_0 2.706588 1_555
Ir0_6 Rh0_5 2.706588 1_564
Ir0_7 Rh0_6 2.706588 1_555
Ir0_7 Rh0_3 2.706588 1_555
Ir0_7 Rh0_7 2.706588 1_555
Ir0_7 Rh0_2 2.706588 1_555
Ir0_7 Rh0_4 2.706588 1_565
Ir0_7 Rh0_1 2.706588 1_555
Rh0_0 Rh0_4 2.708850 1_455
Rh0_0 Rh0_4 2.708850 1_555
Rh0_0 Rh0_6 2.708850 1_445
Rh0_0 Rh0_6 2.708850 1_555
Rh0_0 Rh0_2 2.708851 1_555
Rh0_0 Rh0_2 2.708851 1_545
Rh0_1 Rh0_5 2.708850 1_555
Rh0_1 Rh0_5 2.708850 1_455
Rh0_1 Rh0_7 2.708850 1_445
Rh0_1 Rh0_7 2.708850 1_555
Rh0_1 Rh0_3 2.708851 1_555
Rh0_1 Rh0_3 2.708851 1_545
Rh0_2 Rh0_6 2.708850 1_455
Rh0_2 Rh0_6 2.708850 1_555
Rh0_2 Rh0_4 2.708850 1_455
Rh0_2 Rh0_4 2.708850 1_565
Rh0_3 Rh0_7 2.708850 1_455
Rh0_3 Rh0_7 2.708850 1_555
Rh0_3 Rh0_5 2.708850 1_455
Rh0_3 Rh0_5 2.708850 1_565
Rh0_4 Rh0_6 2.708851 1_555
Rh0_4 Rh0_6 2.708851 1_545
Rh0_5 Rh0_7 2.708851 1_555
Rh0_5 Rh0_7 2.708851 1_545
