# generated using pymatgen
data_Co9S8
_symmetry_space_group_name_H-M   'P 1'
_cell_length_a   6.87083587
_cell_length_b   6.87083399
_cell_length_c   6.87083384
_cell_angle_alpha   60.00000562
_cell_angle_beta   60.00001469
_cell_angle_gamma   59.99999216
_symmetry_Int_Tables_number   1
_chemical_formula_structural   Co9S8
_chemical_formula_sum   'Co9 S8'
_cell_volume   229.35780232
_cell_formula_units_Z   1
loop_
 _symmetry_equiv_pos_site_id
 _symmetry_equiv_pos_as_xyz
  1  'x, y, z'
loop_
 _atom_site_type_symbol
 _atom_site_label
 _atom_site_symmetry_multiplicity
 _atom_site_fract_x
 _atom_site_fract_y
 _atom_site_fract_z
 _atom_site_occupancy
  Co  Co0  1  0.12641398  0.12641398  0.62075806  1
  Co  Co1  1  0.12641398  0.12641398  0.12641398  1
  Co  Co2  1  0.87358602  0.87358602  0.87358602  1
  Co  Co3  1  0.87358602  0.87358602  0.37924194  1
  Co  Co4  1  0.37924194  0.87358602  0.87358602  1
  Co  Co5  1  0.50000000  0.50000000  0.50000000  1
  Co  Co6  1  0.87358602  0.37924194  0.87358602  1
  Co  Co7  1  0.12641398  0.62075806  0.12641398  1
  Co  Co8  1  0.62075806  0.12641398  0.12641398  1
  S  S0  1  0.73878565  0.26121435  0.26121435  1
  S  S1  1  0.26121435  0.73878565  0.73878565  1
  S  S2  1  0.26121435  0.73878565  0.26121435  1
  S  S3  1  0.73878565  0.26121435  0.73878565  1
  S  S4  1  0.26121435  0.26121435  0.73878565  1
  S  S5  1  0.73878565  0.73878565  0.26121435  1
  S  S6  1  0.75000000  0.75000000  0.75000000  1
  S  S7  1  0.25000000  0.25000000  0.25000000  1
loop_
_geom_bond_atom_site_label_1
_geom_bond_atom_site_label_2
_geom_bond_distance
_geom_bond_site_symmetry_2
Co0 S7 2.079958 1_555
Co0 S1 2.175617 1_545
Co0 S4 2.175618 1_555
Co0 S3 2.175618 1_455
Co1 S7 2.079957 1_555
Co1 S2 2.175617 1_545
Co1 S4 2.175618 1_554
Co1 S0 2.175618 1_455
Co2 S6 2.079957 1_555
Co2 S3 2.175617 1_565
Co2 S5 2.175618 1_556
Co2 S1 2.175618 1_655
Co3 S6 2.079958 1_555
Co3 S0 2.175617 1_565
Co3 S5 2.175618 1_555
Co3 S2 2.175618 1_655
Co4 S6 2.079958 1_555
Co4 S4 2.175617 1_565
Co4 S1 2.175617 1_555
Co4 S2 2.175618 1_556
Co5 S3 2.320239 1_555
Co5 S0 2.320239 1_555
Co5 S1 2.320239 1_555
Co5 S2 2.320239 1_555
Co5 S5 2.320240 1_555
Co5 S4 2.320240 1_555
Co6 S6 2.079957 1_555
Co6 S3 2.175618 1_555
Co6 S0 2.175618 1_556
Co6 S4 2.175618 1_655
Co7 S7 2.079957 1_555
Co7 S2 2.175618 1_555
Co7 S1 2.175618 1_554
Co7 S5 2.175618 1_455
Co8 S7 2.079958 1_555
Co8 S5 2.175617 1_545
Co8 S0 2.175617 1_555
Co8 S3 2.175618 1_554
