# generated using pymatgen
data_BaCaFeF7
_symmetry_space_group_name_H-M   'P 1'
_cell_length_a   10.69977200
_cell_length_b   5.70578200
_cell_length_c   9.94739666
_cell_angle_alpha   88.47795210
_cell_angle_beta   90.00000000
_cell_angle_gamma   90.00000000
_symmetry_Int_Tables_number   1
_chemical_formula_structural   BaCaFeF7
_chemical_formula_sum   'Ba4 Ca4 Fe4 F28'
_cell_volume   607.07993438
_cell_formula_units_Z   4
loop_
 _symmetry_equiv_pos_site_id
 _symmetry_equiv_pos_as_xyz
  1  'x, y, z'
loop_
 _atom_site_type_symbol
 _atom_site_label
 _atom_site_symmetry_multiplicity
 _atom_site_fract_x
 _atom_site_fract_y
 _atom_site_fract_z
 _atom_site_occupancy
  Ba  Ba0  1  0.33511800  0.73377500  0.50768000  1
  Ba  Ba1  1  0.83511800  0.26622500  0.99232000  1
  Ba  Ba2  1  0.66488200  0.26622500  0.49232000  1
  Ba  Ba3  1  0.16488200  0.73377500  0.00768000  1
  Ca  Ca0  1  0.41432900  0.28403000  0.82776700  1
  Ca  Ca1  1  0.91432900  0.71597000  0.67223300  1
  Ca  Ca2  1  0.08567100  0.28403000  0.32776700  1
  Ca  Ca3  1  0.58567100  0.71597000  0.17223300  1
  Fe  Fe0  1  0.62646600  0.80693300  0.80534200  1
  Fe  Fe1  1  0.37353400  0.19306700  0.19465800  1
  Fe  Fe2  1  0.87353400  0.80693300  0.30534200  1
  Fe  Fe3  1  0.12646600  0.19306700  0.69465800  1
  F  F0  1  0.40976300  0.89909400  0.10137100  1
  F  F1  1  0.02561300  0.65574900  0.36854200  1
  F  F2  1  0.71208200  0.53637400  0.72880200  1
  F  F3  1  0.28791800  0.46362600  0.27119800  1
  F  F4  1  0.46150000  0.07655600  0.35333500  1
  F  F5  1  0.79560500  0.70667600  0.47761400  1
  F  F6  1  0.77542800  0.99241600  0.74175500  1
  F  F7  1  0.96150000  0.92344400  0.14666500  1
  F  F8  1  0.47438700  0.65574900  0.86854200  1
  F  F9  1  0.21208200  0.46362600  0.77119800  1
  F  F10  1  0.09023700  0.89909400  0.60137100  1
  F  F11  1  0.59023700  0.10090600  0.89862900  1
  F  F12  1  0.27542800  0.00758400  0.75824500  1
  F  F13  1  0.96138000  0.60198000  0.87750600  1
  F  F14  1  0.53850000  0.92344400  0.64666500  1
  F  F15  1  0.03850000  0.07655600  0.85333500  1
  F  F16  1  0.22457200  0.00758400  0.25824500  1
  F  F17  1  0.90976300  0.10090600  0.39862900  1
  F  F18  1  0.46138000  0.39802000  0.62249400  1
  F  F19  1  0.97438700  0.34425100  0.63145800  1
  F  F20  1  0.03862000  0.39802000  0.12249400  1
  F  F21  1  0.72457200  0.99241600  0.24175500  1
  F  F22  1  0.53862000  0.60198000  0.37750600  1
  F  F23  1  0.29560500  0.29332400  0.02238600  1
  F  F24  1  0.20439500  0.29332400  0.52238600  1
  F  F25  1  0.70439500  0.70667600  0.97761400  1
  F  F26  1  0.52561300  0.34425100  0.13145800  1
  F  F27  1  0.78791800  0.53637400  0.22880200  1
loop_
_geom_bond_atom_site_label_1
_geom_bond_atom_site_label_2
_geom_bond_distance
_geom_bond_site_symmetry_2
Ba0 F18 2.585222 1_555
Ba0 F22 2.652386 1_555
Ba0 F4 2.802072 1_565
Ba0 F14 2.810278 1_555
Ba0 F24 2.876458 1_555
Ba0 F3 2.890903 1_555
Ba0 F10 2.944546 1_555
Ba0 F12 3.044327 1_565
Ba0 F16 3.128960 1_565
Ba0 F9 3.281108 1_555
Ba1 F13 2.585222 1_555
Ba1 F20 2.652386 1_656
Ba1 F7 2.802072 1_546
Ba1 F15 2.810278 1_655
Ba1 F25 2.876458 1_555
Ba1 F27 2.890903 1_556
Ba1 F11 2.944546 1_555
Ba1 F6 3.044327 1_545
Ba1 F21 3.128960 1_546
Ba1 F2 3.281108 1_555
Ba2 F22 2.585222 1_555
Ba2 F18 2.652386 1_555
Ba2 F14 2.802072 1_545
Ba2 F4 2.810278 1_555
Ba2 F5 2.876458 1_555
Ba2 F2 2.890903 1_555
Ba2 F17 2.944546 1_555
Ba2 F21 3.044327 1_545
Ba2 F6 3.128960 1_545
Ba2 F27 3.281108 1_555
Ba3 F20 2.585222 1_555
Ba3 F13 2.652386 1_454
Ba3 F15 2.802072 1_564
Ba3 F7 2.810278 1_455
Ba3 F23 2.876458 1_555
Ba3 F9 2.890903 1_554
Ba3 F0 2.944546 1_555
Ba3 F16 3.044327 1_565
Ba3 F12 3.128960 1_564
Ba3 F3 3.281108 1_555
Ca0 F18 2.185270 1_555
Ca0 F11 2.256563 1_555
Ca0 F8 2.263090 1_555
Ca0 F12 2.287581 1_555
Ca0 F23 2.317302 1_556
Ca0 F9 2.453361 1_555
Ca1 F13 2.185270 1_555
Ca1 F10 2.256563 1_655
Ca1 F19 2.263090 1_555
Ca1 F6 2.287581 1_555
Ca1 F5 2.317302 1_555
Ca1 F2 2.453361 1_555
Ca2 F20 2.185270 1_555
Ca2 F17 2.256563 1_455
Ca2 F1 2.263090 1_555
Ca2 F16 2.287581 1_555
Ca2 F24 2.317302 1_555
Ca2 F3 2.453361 1_555
Ca3 F22 2.185270 1_555
Ca3 F0 2.256563 1_555
Ca3 F26 2.263090 1_555
Ca3 F21 2.287581 1_555
Ca3 F25 2.317302 1_554
Ca3 F27 2.453361 1_555
F0 Fe1 1.976754 1_565
F1 Fe2 1.938648 1_455
F2 Fe0 1.965829 1_555
F3 Fe1 1.965829 1_555
F4 Fe1 1.939976 1_555
F5 Fe2 1.976624 1_555
F6 Fe0 2.006232 1_555
F7 Fe2 1.939976 1_555
F8 Fe0 1.938648 1_555
F9 Fe3 1.965829 1_555
F10 Fe3 1.976754 1_565
F11 Fe0 1.976754 1_545
F12 Fe3 2.006232 1_555
F14 Fe0 1.939976 1_555
F15 Fe3 1.939976 1_555
F16 Fe1 2.006232 1_555
F17 Fe2 1.976754 1_545
F19 Fe3 1.938648 1_655
F21 Fe2 2.006232 1_555
F23 Fe1 1.976624 1_555
F24 Fe3 1.976624 1_555
F25 Fe0 1.976624 1_555
F26 Fe1 1.938648 1_555
F27 Fe2 1.965829 1_555
