# generated using pymatgen
data_K3As
_symmetry_space_group_name_H-M   'P 1'
_cell_length_a   5.78949242
_cell_length_b   5.78949199
_cell_length_c   10.24261668
_cell_angle_alpha   90.00000000
_cell_angle_beta   90.00000000
_cell_angle_gamma   120.00023666
_symmetry_Int_Tables_number   1
_chemical_formula_structural   K3As
_chemical_formula_sum   'K6 As2'
_cell_volume   297.31817812
_cell_formula_units_Z   2
loop_
 _symmetry_equiv_pos_site_id
 _symmetry_equiv_pos_as_xyz
  1  'x, y, z'
loop_
 _atom_site_type_symbol
 _atom_site_label
 _atom_site_symmetry_multiplicity
 _atom_site_fract_x
 _atom_site_fract_y
 _atom_site_fract_z
 _atom_site_occupancy
  K  K0  1  0.33333300  0.66666700  0.91929975  1
  K  K1  1  0.66666700  0.33333300  0.41929975  1
  K  K2  1  0.00000000  0.00000000  0.25000000  1
  K  K3  1  -0.00000000  -0.00000000  0.75000000  1
  K  K4  1  0.33333300  0.66666700  0.58070025  1
  K  K5  1  0.66666700  0.33333300  0.08070125  1
  As  As0  1  0.66666600  0.33333400  0.75000000  1
  As  As1  1  0.33333400  0.66666600  0.25000000  1
loop_
_geom_bond_atom_site_label_1
_geom_bond_atom_site_label_2
_geom_bond_distance
_geom_bond_site_symmetry_2
As0 K3 3.342553 1_665
As0 K3 3.342554 1_555
As0 K3 3.342576 1_655
As0 K1 3.387236 1_555
As0 K5 3.387246 1_556
As0 K0 3.765595 1_545
As0 K4 3.765595 1_545
As0 K0 3.765595 1_655
As0 K4 3.765595 1_655
As0 K0 3.765601 1_555
As0 K4 3.765601 1_555
As1 K2 3.342553 1_555
As1 K2 3.342554 1_665
As1 K2 3.342576 1_565
As1 K0 3.387236 1_554
As1 K4 3.387236 1_555
As1 K5 3.765590 1_565
As1 K5 3.765590 1_455
As1 K1 3.765595 1_565
As1 K1 3.765595 1_455
As1 K5 3.765596 1_555
As1 K1 3.765601 1_555
