# generated using pymatgen
data_Cu3Pd2
_symmetry_space_group_name_H-M   'P 1'
_cell_length_a   5.94515500
_cell_length_b   5.94515500
_cell_length_c   29.19224960
_cell_angle_alpha   90.00000000
_cell_angle_beta   90.00000000
_cell_angle_gamma   90.00000000
_symmetry_Int_Tables_number   1
_chemical_formula_structural   Cu3Pd2
_chemical_formula_sum   'Cu48 Pd32'
_cell_volume   1031.79620798
_cell_formula_units_Z   16
loop_
 _symmetry_equiv_pos_site_id
 _symmetry_equiv_pos_as_xyz
  1  'x, y, z'
loop_
 _atom_site_type_symbol
 _atom_site_label
 _atom_site_symmetry_multiplicity
 _atom_site_fract_x
 _atom_site_fract_y
 _atom_site_fract_z
 _atom_site_occupancy
  Cu  Cu0_0  1  0.25000000  0.25000000  0.04447283  1
  Cu  Cu0_1  1  0.25000000  0.25000000  0.54447283  1
  Cu  Cu0_2  1  0.25000000  0.75000000  0.04447283  1
  Cu  Cu0_3  1  0.25000000  0.75000000  0.54447283  1
  Cu  Cu0_4  1  0.75000000  0.25000000  0.04447283  1
  Cu  Cu0_5  1  0.75000000  0.25000000  0.54447283  1
  Cu  Cu0_6  1  0.75000000  0.75000000  0.04447283  1
  Cu  Cu0_7  1  0.75000000  0.75000000  0.54447283  1
  Cu  Cu1_0  1  0.25000000  0.25000000  0.14768551  1
  Cu  Cu1_1  1  0.25000000  0.25000000  0.64768551  1
  Cu  Cu1_2  1  0.25000000  0.75000000  0.14768551  1
  Cu  Cu1_3  1  0.25000000  0.75000000  0.64768551  1
  Cu  Cu1_4  1  0.75000000  0.25000000  0.14768551  1
  Cu  Cu1_5  1  0.75000000  0.25000000  0.64768551  1
  Cu  Cu1_6  1  0.75000000  0.75000000  0.14768551  1
  Cu  Cu1_7  1  0.75000000  0.75000000  0.64768551  1
  Cu  Cu2_0  1  0.25000000  0.25000000  0.25000000  1
  Cu  Cu2_1  1  0.25000000  0.25000000  0.75000000  1
  Cu  Cu2_2  1  0.25000000  0.75000000  0.25000000  1
  Cu  Cu2_3  1  0.25000000  0.75000000  0.75000000  1
  Cu  Cu2_4  1  0.75000000  0.25000000  0.25000000  1
  Cu  Cu2_5  1  0.75000000  0.25000000  0.75000000  1
  Cu  Cu2_6  1  0.75000000  0.75000000  0.25000000  1
  Cu  Cu2_7  1  0.75000000  0.75000000  0.75000000  1
  Cu  Cu3_0  1  0.25000000  0.25000000  0.35231449  1
  Cu  Cu3_1  1  0.25000000  0.25000000  0.85231449  1
  Cu  Cu3_2  1  0.25000000  0.75000000  0.35231449  1
  Cu  Cu3_3  1  0.25000000  0.75000000  0.85231449  1
  Cu  Cu3_4  1  0.75000000  0.25000000  0.35231449  1
  Cu  Cu3_5  1  0.75000000  0.25000000  0.85231449  1
  Cu  Cu3_6  1  0.75000000  0.75000000  0.35231449  1
  Cu  Cu3_7  1  0.75000000  0.75000000  0.85231449  1
  Cu  Cu4_0  1  0.25000000  0.25000000  0.45552718  1
  Cu  Cu4_1  1  0.25000000  0.25000000  0.95552718  1
  Cu  Cu4_2  1  0.25000000  0.75000000  0.45552718  1
  Cu  Cu4_3  1  0.25000000  0.75000000  0.95552718  1
  Cu  Cu4_4  1  0.75000000  0.25000000  0.45552718  1
  Cu  Cu4_5  1  0.75000000  0.25000000  0.95552718  1
  Cu  Cu4_6  1  0.75000000  0.75000000  0.45552718  1
  Cu  Cu4_7  1  0.75000000  0.75000000  0.95552718  1
  Cu  Cu5_0  1  0.00000000  0.00000000  0.00000000  1
  Cu  Cu5_1  1  0.00000000  0.00000000  0.50000000  1
  Cu  Cu5_2  1  0.00000000  0.50000000  0.00000000  1
  Cu  Cu5_3  1  0.00000000  0.50000000  0.50000000  1
  Cu  Cu5_4  1  0.50000000  0.00000000  0.00000000  1
  Cu  Cu5_5  1  0.50000000  0.00000000  0.50000000  1
  Cu  Cu5_6  1  0.50000000  0.50000000  0.00000000  1
  Cu  Cu5_7  1  0.50000000  0.50000000  0.50000000  1
  Pd  Pd0_0  1  0.00000000  0.00000000  0.09562581  1
  Pd  Pd0_1  1  0.00000000  0.00000000  0.59562581  1
  Pd  Pd0_2  1  0.00000000  0.50000000  0.09562581  1
  Pd  Pd0_3  1  0.00000000  0.50000000  0.59562581  1
  Pd  Pd0_4  1  0.50000000  0.00000000  0.09562581  1
  Pd  Pd0_5  1  0.50000000  0.00000000  0.59562581  1
  Pd  Pd0_6  1  0.50000000  0.50000000  0.09562581  1
  Pd  Pd0_7  1  0.50000000  0.50000000  0.59562581  1
  Pd  Pd1_0  1  0.00000000  0.00000000  0.19862507  1
  Pd  Pd1_1  1  0.00000000  0.00000000  0.69862506  1
  Pd  Pd1_2  1  0.00000000  0.50000000  0.19862507  1
  Pd  Pd1_3  1  0.00000000  0.50000000  0.69862506  1
  Pd  Pd1_4  1  0.50000000  0.00000000  0.19862507  1
  Pd  Pd1_5  1  0.50000000  0.00000000  0.69862506  1
  Pd  Pd1_6  1  0.50000000  0.50000000  0.19862507  1
  Pd  Pd1_7  1  0.50000000  0.50000000  0.69862506  1
  Pd  Pd2_0  1  0.00000000  0.00000000  0.30137494  1
  Pd  Pd2_1  1  0.00000000  0.00000000  0.80137494  1
  Pd  Pd2_2  1  0.00000000  0.50000000  0.30137494  1
  Pd  Pd2_3  1  0.00000000  0.50000000  0.80137494  1
  Pd  Pd2_4  1  0.50000000  0.00000000  0.30137494  1
  Pd  Pd2_5  1  0.50000000  0.00000000  0.80137494  1
  Pd  Pd2_6  1  0.50000000  0.50000000  0.30137494  1
  Pd  Pd2_7  1  0.50000000  0.50000000  0.80137494  1
  Pd  Pd3_0  1  0.00000000  0.00000000  0.40437419  1
  Pd  Pd3_1  1  0.00000000  0.00000000  0.90437419  1
  Pd  Pd3_2  1  0.00000000  0.50000000  0.40437419  1
  Pd  Pd3_3  1  0.00000000  0.50000000  0.90437419  1
  Pd  Pd3_4  1  0.50000000  0.00000000  0.40437419  1
  Pd  Pd3_5  1  0.50000000  0.00000000  0.90437419  1
  Pd  Pd3_6  1  0.50000000  0.50000000  0.40437419  1
  Pd  Pd3_7  1  0.50000000  0.50000000  0.90437419  1
loop_
_geom_bond_atom_site_label_1
_geom_bond_atom_site_label_2
_geom_bond_distance
_geom_bond_site_symmetry_2
Cu0_0 Cu5_6 2.470545 1_555
Cu0_0 Cu5_0 2.470545 1_555
Cu0_0 Cu5_4 2.470545 1_555
Cu0_0 Cu5_2 2.470545 1_555
Cu0_0 Pd0_0 2.578365 1_555
Cu0_0 Pd0_2 2.578365 1_555
Cu0_0 Pd0_4 2.578365 1_555
Cu0_0 Pd0_6 2.578365 1_555
Cu0_0 Cu4_1 2.596524 1_554
Cu0_1 Cu5_5 2.470545 1_555
Cu0_1 Cu5_3 2.470545 1_555
Cu0_1 Cu5_1 2.470545 1_555
Cu0_1 Cu5_7 2.470545 1_555
Cu0_1 Pd0_1 2.578365 1_555
Cu0_1 Pd0_7 2.578365 1_555
Cu0_1 Pd0_5 2.578365 1_555
Cu0_1 Pd0_3 2.578365 1_555
Cu0_1 Cu4_0 2.596524 1_555
Cu0_2 Cu5_0 2.470545 1_565
Cu0_2 Cu5_4 2.470545 1_565
Cu0_2 Cu5_6 2.470545 1_555
Cu0_2 Cu5_2 2.470545 1_555
Cu0_2 Pd0_0 2.578365 1_565
Cu0_2 Pd0_4 2.578365 1_565
Cu0_2 Pd0_2 2.578365 1_555
Cu0_2 Pd0_6 2.578365 1_555
Cu0_2 Cu4_3 2.596524 1_554
Cu0_3 Cu5_3 2.470545 1_555
Cu0_3 Cu5_1 2.470545 1_565
Cu0_3 Cu5_5 2.470545 1_565
Cu0_3 Cu5_7 2.470545 1_555
Cu0_3 Pd0_7 2.578365 1_555
Cu0_3 Pd0_1 2.578365 1_565
Cu0_3 Pd0_5 2.578365 1_565
Cu0_3 Pd0_3 2.578365 1_555
Cu0_3 Cu4_2 2.596524 1_555
Cu0_4 Cu5_0 2.470545 1_655
Cu0_4 Cu5_6 2.470545 1_555
Cu0_4 Cu5_2 2.470545 1_655
Cu0_4 Cu5_4 2.470545 1_555
Cu0_4 Pd0_4 2.578365 1_555
Cu0_4 Pd0_6 2.578365 1_555
Cu0_4 Pd0_0 2.578365 1_655
Cu0_4 Pd0_2 2.578365 1_655
Cu0_4 Cu4_5 2.596524 1_554
Cu0_5 Cu5_3 2.470545 1_655
Cu0_5 Cu5_5 2.470545 1_555
Cu0_5 Cu5_1 2.470545 1_655
Cu0_5 Cu5_7 2.470545 1_555
Cu0_5 Pd0_7 2.578365 1_555
Cu0_5 Pd0_3 2.578365 1_655
Cu0_5 Pd0_5 2.578365 1_555
Cu0_5 Pd0_1 2.578365 1_655
Cu0_5 Cu4_4 2.596524 1_555
Cu0_6 Cu5_0 2.470545 1_665
Cu0_6 Cu5_4 2.470545 1_565
Cu0_6 Cu5_6 2.470545 1_555
Cu0_6 Cu5_2 2.470545 1_655
Cu0_6 Pd0_0 2.578365 1_665
Cu0_6 Pd0_4 2.578365 1_565
Cu0_6 Pd0_6 2.578365 1_555
Cu0_6 Pd0_2 2.578365 1_655
Cu0_6 Cu4_7 2.596524 1_554
Cu0_7 Cu5_3 2.470545 1_655
Cu0_7 Cu5_1 2.470545 1_665
Cu0_7 Cu5_5 2.470545 1_565
Cu0_7 Cu5_7 2.470545 1_555
Cu0_7 Pd0_7 2.578365 1_555
Cu0_7 Pd0_3 2.578365 1_655
Cu0_7 Pd0_5 2.578365 1_565
Cu0_7 Pd0_1 2.578365 1_665
Cu0_7 Cu4_6 2.596524 1_555
Cu1_0 Pd1_2 2.574762 1_555
Cu1_0 Pd1_6 2.574762 1_555
Cu1_0 Pd1_0 2.574762 1_555
Cu1_0 Pd1_4 2.574762 1_555
Cu1_0 Pd0_0 2.593784 1_555
Cu1_0 Pd0_4 2.593784 1_555
Cu1_0 Pd0_2 2.593784 1_555
Cu1_0 Pd0_6 2.593784 1_555
Cu1_1 Pd1_3 2.574762 1_555
Cu1_1 Pd1_1 2.574762 1_555
Cu1_1 Pd1_7 2.574762 1_555
Cu1_1 Pd1_5 2.574762 1_555
Cu1_1 Pd0_7 2.593784 1_555
Cu1_1 Pd0_5 2.593784 1_555
Cu1_1 Pd0_3 2.593784 1_555
Cu1_1 Pd0_1 2.593784 1_555
Cu1_2 Pd1_2 2.574762 1_555
Cu1_2 Pd1_6 2.574762 1_555
Cu1_2 Pd1_0 2.574762 1_565
Cu1_2 Pd1_4 2.574762 1_565
Cu1_2 Pd0_4 2.593784 1_565
Cu1_2 Pd0_2 2.593784 1_555
Cu1_2 Pd0_6 2.593784 1_555
Cu1_2 Pd0_0 2.593784 1_565
Cu1_3 Pd1_5 2.574762 1_565
Cu1_3 Pd1_3 2.574762 1_555
Cu1_3 Pd1_7 2.574762 1_555
Cu1_3 Pd1_1 2.574762 1_565
Cu1_3 Pd0_7 2.593784 1_555
Cu1_3 Pd0_1 2.593784 1_565
Cu1_3 Pd0_5 2.593784 1_565
Cu1_3 Pd0_3 2.593784 1_555
Cu1_4 Pd1_2 2.574762 1_655
Cu1_4 Pd1_6 2.574762 1_555
Cu1_4 Pd1_4 2.574762 1_555
Cu1_4 Pd1_0 2.574762 1_655
Cu1_4 Pd0_0 2.593784 1_655
Cu1_4 Pd0_2 2.593784 1_655
Cu1_4 Pd0_4 2.593784 1_555
Cu1_4 Pd0_6 2.593784 1_555
Cu1_5 Pd1_3 2.574762 1_655
Cu1_5 Pd1_7 2.574762 1_555
Cu1_5 Pd1_1 2.574762 1_655
Cu1_5 Pd1_5 2.574762 1_555
Cu1_5 Pd0_7 2.593784 1_555
Cu1_5 Pd0_3 2.593784 1_655
Cu1_5 Pd0_5 2.593784 1_555
Cu1_5 Pd0_1 2.593784 1_655
Cu1_6 Pd1_2 2.574762 1_655
Cu1_6 Pd1_6 2.574762 1_555
Cu1_6 Pd1_0 2.574762 1_665
Cu1_6 Pd1_4 2.574762 1_565
Cu1_6 Pd0_2 2.593784 1_655
Cu1_6 Pd0_0 2.593784 1_665
Cu1_6 Pd0_4 2.593784 1_565
Cu1_6 Pd0_6 2.593784 1_555
Cu1_7 Pd1_5 2.574762 1_565
Cu1_7 Pd1_3 2.574762 1_655
Cu1_7 Pd1_7 2.574762 1_555
Cu1_7 Pd1_1 2.574762 1_665
Cu1_7 Pd0_7 2.593784 1_555
Cu1_7 Pd0_3 2.593784 1_655
Cu1_7 Pd0_5 2.593784 1_565
Cu1_7 Pd0_1 2.593784 1_665
Cu2_0 Pd1_4 2.582123 1_555
Cu2_0 Pd1_2 2.582123 1_555
Cu2_0 Pd1_6 2.582123 1_555
Cu2_0 Pd1_0 2.582123 1_555
Cu2_0 Pd2_4 2.582123 1_555
Cu2_0 Pd2_6 2.582123 1_555
Cu2_0 Pd2_2 2.582123 1_555
Cu2_0 Pd2_0 2.582123 1_555
Cu2_1 Pd1_7 2.582123 1_555
Cu2_1 Pd1_5 2.582123 1_555
Cu2_1 Pd1_3 2.582123 1_555
Cu2_1 Pd1_1 2.582123 1_555
Cu2_1 Pd2_7 2.582123 1_555
Cu2_1 Pd2_1 2.582123 1_555
Cu2_1 Pd2_5 2.582123 1_555
Cu2_1 Pd2_3 2.582123 1_555
Cu2_2 Pd1_0 2.582123 1_565
Cu2_2 Pd1_4 2.582123 1_565
Cu2_2 Pd1_2 2.582123 1_555
Cu2_2 Pd1_6 2.582123 1_555
Cu2_2 Pd2_6 2.582123 1_555
Cu2_2 Pd2_0 2.582123 1_565
Cu2_2 Pd2_4 2.582123 1_565
Cu2_2 Pd2_2 2.582123 1_555
Cu2_3 Pd1_7 2.582123 1_555
Cu2_3 Pd1_1 2.582123 1_565
Cu2_3 Pd1_5 2.582123 1_565
Cu2_3 Pd1_3 2.582123 1_555
Cu2_3 Pd2_7 2.582123 1_555
Cu2_3 Pd2_1 2.582123 1_565
Cu2_3 Pd2_5 2.582123 1_565
Cu2_3 Pd2_3 2.582123 1_555
Cu2_4 Pd1_4 2.582123 1_555
Cu2_4 Pd1_0 2.582123 1_655
Cu2_4 Pd1_2 2.582123 1_655
Cu2_4 Pd1_6 2.582123 1_555
Cu2_4 Pd2_2 2.582123 1_655
Cu2_4 Pd2_4 2.582123 1_555
Cu2_4 Pd2_6 2.582123 1_555
Cu2_4 Pd2_0 2.582123 1_655
Cu2_5 Pd1_7 2.582123 1_555
Cu2_5 Pd1_1 2.582123 1_655
Cu2_5 Pd1_5 2.582123 1_555
Cu2_5 Pd1_3 2.582123 1_655
Cu2_5 Pd2_7 2.582123 1_555
Cu2_5 Pd2_3 2.582123 1_655
Cu2_5 Pd2_1 2.582123 1_655
Cu2_5 Pd2_5 2.582123 1_555
Cu2_6 Pd1_0 2.582123 1_665
Cu2_6 Pd1_4 2.582123 1_565
Cu2_6 Pd1_2 2.582123 1_655
Cu2_6 Pd1_6 2.582123 1_555
Cu2_6 Pd2_2 2.582123 1_655
Cu2_6 Pd2_6 2.582123 1_555
Cu2_6 Pd2_0 2.582123 1_665
Cu2_6 Pd2_4 2.582123 1_565
Cu2_7 Pd1_7 2.582123 1_555
Cu2_7 Pd1_1 2.582123 1_665
Cu2_7 Pd1_5 2.582123 1_565
Cu2_7 Pd1_3 2.582123 1_655
Cu2_7 Pd2_7 2.582123 1_555
Cu2_7 Pd2_3 2.582123 1_655
Cu2_7 Pd2_1 2.582123 1_665
Cu2_7 Pd2_5 2.582123 1_565
Cu3_0 Pd2_2 2.574762 1_555
Cu3_0 Pd2_0 2.574762 1_555
Cu3_0 Pd2_4 2.574762 1_555
Cu3_0 Pd2_6 2.574762 1_555
Cu3_0 Pd3_2 2.593784 1_555
Cu3_0 Pd3_6 2.593784 1_555
Cu3_0 Pd3_0 2.593784 1_555
Cu3_0 Pd3_4 2.593784 1_555
Cu3_1 Pd2_1 2.574762 1_555
Cu3_1 Pd2_5 2.574762 1_555
Cu3_1 Pd2_3 2.574762 1_555
Cu3_1 Pd2_7 2.574762 1_555
Cu3_1 Pd3_1 2.593784 1_555
Cu3_1 Pd3_5 2.593784 1_555
Cu3_1 Pd3_3 2.593784 1_555
Cu3_1 Pd3_7 2.593784 1_555
Cu3_2 Pd2_4 2.574762 1_565
Cu3_2 Pd2_2 2.574762 1_555
Cu3_2 Pd2_6 2.574762 1_555
Cu3_2 Pd2_0 2.574762 1_565
Cu3_2 Pd3_4 2.593784 1_565
Cu3_2 Pd3_2 2.593784 1_555
Cu3_2 Pd3_6 2.593784 1_555
Cu3_2 Pd3_0 2.593784 1_565
Cu3_3 Pd2_1 2.574762 1_565
Cu3_3 Pd2_5 2.574762 1_565
Cu3_3 Pd2_3 2.574762 1_555
Cu3_3 Pd2_7 2.574762 1_555
Cu3_3 Pd3_5 2.593784 1_565
Cu3_3 Pd3_1 2.593784 1_565
Cu3_3 Pd3_3 2.593784 1_555
Cu3_3 Pd3_7 2.593784 1_555
Cu3_4 Pd2_0 2.574762 1_655
Cu3_4 Pd2_2 2.574762 1_655
Cu3_4 Pd2_4 2.574762 1_555
Cu3_4 Pd2_6 2.574762 1_555
Cu3_4 Pd3_2 2.593784 1_655
Cu3_4 Pd3_6 2.593784 1_555
Cu3_4 Pd3_0 2.593784 1_655
Cu3_4 Pd3_4 2.593784 1_555
Cu3_5 Pd2_1 2.574762 1_655
Cu3_5 Pd2_5 2.574762 1_555
Cu3_5 Pd2_7 2.574762 1_555
Cu3_5 Pd2_3 2.574762 1_655
Cu3_5 Pd3_3 2.593784 1_655
Cu3_5 Pd3_5 2.593784 1_555
Cu3_5 Pd3_1 2.593784 1_655
Cu3_5 Pd3_7 2.593784 1_555
Cu3_6 Pd2_4 2.574762 1_565
Cu3_6 Pd2_0 2.574762 1_665
Cu3_6 Pd2_2 2.574762 1_655
Cu3_6 Pd2_6 2.574762 1_555
Cu3_6 Pd3_4 2.593784 1_565
Cu3_6 Pd3_2 2.593784 1_655
Cu3_6 Pd3_6 2.593784 1_555
Cu3_6 Pd3_0 2.593784 1_665
Cu3_7 Pd2_1 2.574762 1_665
Cu3_7 Pd2_5 2.574762 1_565
Cu3_7 Pd2_7 2.574762 1_555
Cu3_7 Pd2_3 2.574762 1_655
Cu3_7 Pd3_3 2.593784 1_655
Cu3_7 Pd3_5 2.593784 1_565
Cu3_7 Pd3_1 2.593784 1_665
Cu3_7 Pd3_7 2.593784 1_555
Cu4_0 Cu5_3 2.470545 1_555
Cu4_0 Cu5_1 2.470545 1_555
Cu4_0 Cu5_7 2.470545 1_555
Cu4_0 Cu5_5 2.470545 1_555
Cu4_0 Pd3_2 2.578365 1_555
Cu4_0 Pd3_6 2.578365 1_555
Cu4_0 Pd3_0 2.578365 1_555
Cu4_0 Pd3_4 2.578365 1_555
Cu4_1 Cu5_6 2.470545 1_556
Cu4_1 Cu5_0 2.470545 1_556
Cu4_1 Cu5_4 2.470545 1_556
Cu4_1 Cu5_2 2.470545 1_556
Cu4_1 Pd3_3 2.578365 1_555
Cu4_1 Pd3_7 2.578365 1_555
Cu4_1 Pd3_1 2.578365 1_555
Cu4_1 Pd3_5 2.578365 1_555
Cu4_2 Cu5_3 2.470545 1_555
Cu4_2 Cu5_1 2.470545 1_565
Cu4_2 Cu5_5 2.470545 1_565
Cu4_2 Cu5_7 2.470545 1_555
Cu4_2 Pd3_4 2.578365 1_565
Cu4_2 Pd3_2 2.578365 1_555
Cu4_2 Pd3_6 2.578365 1_555
Cu4_2 Pd3_0 2.578365 1_565
Cu4_3 Cu5_4 2.470545 1_566
Cu4_3 Cu5_6 2.470545 1_556
Cu4_3 Cu5_0 2.470545 1_566
Cu4_3 Cu5_2 2.470545 1_556
Cu4_3 Pd3_3 2.578365 1_555
Cu4_3 Pd3_5 2.578365 1_565
Cu4_3 Pd3_7 2.578365 1_555
Cu4_3 Pd3_1 2.578365 1_565
Cu4_4 Cu5_1 2.470545 1_655
Cu4_4 Cu5_7 2.470545 1_555
Cu4_4 Cu5_3 2.470545 1_655
Cu4_4 Cu5_5 2.470545 1_555
Cu4_4 Pd3_2 2.578365 1_655
Cu4_4 Pd3_6 2.578365 1_555
Cu4_4 Pd3_4 2.578365 1_555
Cu4_4 Pd3_0 2.578365 1_655
Cu4_5 Cu5_2 2.470545 1_656
Cu4_5 Cu5_6 2.470545 1_556
Cu4_5 Cu5_0 2.470545 1_656
Cu4_5 Cu5_4 2.470545 1_556
Cu4_5 Pd3_7 2.578365 1_555
Cu4_5 Pd3_3 2.578365 1_655
Cu4_5 Pd3_5 2.578365 1_555
Cu4_5 Pd3_1 2.578365 1_655
Cu4_6 Cu5_1 2.470545 1_665
Cu4_6 Cu5_5 2.470545 1_565
Cu4_6 Cu5_7 2.470545 1_555
Cu4_6 Cu5_3 2.470545 1_655
Cu4_6 Pd3_4 2.578365 1_565
Cu4_6 Pd3_2 2.578365 1_655
Cu4_6 Pd3_6 2.578365 1_555
Cu4_6 Pd3_0 2.578365 1_665
Cu4_7 Cu5_4 2.470545 1_566
Cu4_7 Cu5_2 2.470545 1_656
Cu4_7 Cu5_6 2.470545 1_556
Cu4_7 Cu5_0 2.470545 1_666
Cu4_7 Pd3_1 2.578365 1_665
Cu4_7 Pd3_5 2.578365 1_565
Cu4_7 Pd3_7 2.578365 1_555
Cu4_7 Pd3_3 2.578365 1_655
Cu5_0 Pd0_0 2.791533 1_555
Cu5_0 Pd3_1 2.791533 1_554
Cu5_1 Pd3_0 2.791533 1_555
Cu5_1 Pd0_1 2.791533 1_555
Cu5_2 Pd0_2 2.791533 1_555
Cu5_2 Pd3_3 2.791533 1_554
Cu5_3 Pd3_2 2.791533 1_555
Cu5_3 Pd0_3 2.791533 1_555
Cu5_4 Pd0_4 2.791533 1_555
Cu5_4 Pd3_5 2.791533 1_554
Cu5_5 Pd3_4 2.791533 1_555
Cu5_5 Pd0_5 2.791533 1_555
Cu5_6 Pd0_6 2.791533 1_555
Cu5_6 Pd3_7 2.791533 1_554
Cu5_7 Pd3_6 2.791533 1_555
Cu5_7 Pd0_7 2.791533 1_555
Pd0_0 Pd0_4 2.972577 1_555
Pd0_0 Pd0_2 2.972577 1_545
Pd0_0 Pd0_2 2.972577 1_555
Pd0_0 Pd0_4 2.972577 1_455
Pd0_0 Pd1_0 3.006780 1_555
Pd0_1 Pd0_5 2.972577 1_455
Pd0_1 Pd0_5 2.972577 1_555
Pd0_1 Pd0_3 2.972577 1_545
Pd0_1 Pd0_3 2.972577 1_555
Pd0_1 Pd1_1 3.006780 1_555
Pd0_2 Pd0_6 2.972577 1_455
Pd0_2 Pd0_6 2.972577 1_555
Pd0_2 Pd1_2 3.006780 1_555
Pd0_3 Pd0_7 2.972577 1_455
Pd0_3 Pd0_7 2.972577 1_555
Pd0_3 Pd1_3 3.006780 1_555
Pd0_4 Pd0_6 2.972577 1_555
Pd0_4 Pd0_6 2.972577 1_545
Pd0_4 Pd1_4 3.006780 1_555
Pd0_5 Pd0_7 2.972577 1_555
Pd0_5 Pd0_7 2.972577 1_545
Pd0_5 Pd1_5 3.006780 1_555
Pd0_6 Pd1_6 3.006780 1_555
Pd0_7 Pd1_7 3.006780 1_555
Pd2_0 Pd3_0 3.006780 1_555
Pd2_1 Pd3_1 3.006780 1_555
Pd2_2 Pd3_2 3.006780 1_555
Pd2_3 Pd3_3 3.006780 1_555
Pd2_4 Pd3_4 3.006780 1_555
Pd2_5 Pd3_5 3.006780 1_555
Pd2_6 Pd3_6 3.006780 1_555
Pd2_7 Pd3_7 3.006780 1_555
Pd3_0 Pd3_2 2.972577 1_555
Pd3_0 Pd3_4 2.972577 1_455
Pd3_0 Pd3_4 2.972577 1_555
Pd3_0 Pd3_2 2.972577 1_545
Pd3_1 Pd3_3 2.972577 1_545
Pd3_1 Pd3_3 2.972577 1_555
Pd3_1 Pd3_5 2.972577 1_455
Pd3_1 Pd3_5 2.972577 1_555
Pd3_2 Pd3_6 2.972577 1_555
Pd3_2 Pd3_6 2.972577 1_455
Pd3_3 Pd3_7 2.972577 1_455
Pd3_3 Pd3_7 2.972577 1_555
Pd3_4 Pd3_6 2.972577 1_555
Pd3_4 Pd3_6 2.972577 1_545
Pd3_5 Pd3_7 2.972577 1_545
Pd3_5 Pd3_7 2.972577 1_555
