# generated using pymatgen
data_Er6Mn(SiS7)2
_symmetry_space_group_name_H-M   'P 1'
_cell_length_a   9.82749137
_cell_length_b   9.82749137
_cell_length_c   5.58316700
_cell_angle_alpha   90.00000000
_cell_angle_beta   90.00000000
_cell_angle_gamma   119.99999576
_symmetry_Int_Tables_number   1
_chemical_formula_structural   Er6Mn(SiS7)2
_chemical_formula_sum   'Er6 Mn1 Si2 S14'
_cell_volume   466.97820435
_cell_formula_units_Z   1
loop_
 _symmetry_equiv_pos_site_id
 _symmetry_equiv_pos_as_xyz
  1  'x, y, z'
loop_
 _atom_site_type_symbol
 _atom_site_label
 _atom_site_symmetry_multiplicity
 _atom_site_fract_x
 _atom_site_fract_y
 _atom_site_fract_z
 _atom_site_occupancy
  Er  Er0  1  0.64421700  0.76667900  0.75029300  1
  Er  Er1  1  0.12246200  0.35578300  0.75029300  1
  Er  Er2  1  0.23332100  0.87753800  0.75029300  1
  Er  Er3  1  0.35530400  0.23330400  0.25080700  1
  Er  Er4  1  0.87800100  0.64469600  0.25080700  1
  Er  Er5  1  0.76669600  0.12199900  0.25080700  1
  Mn  Mn0  1  0.00000000  0.00000000  0.51154200  1
  Si  Si0  1  0.33333300  0.66666700  0.16536100  1
  Si  Si1  1  0.66666700  0.33333300  0.66368100  1
  S  S0  1  0.33333300  0.66666700  0.54188000  1
  S  S1  1  0.66666700  0.33333300  0.04035600  1
  S  S2  1  0.75123500  0.83769200  0.27127900  1
  S  S3  1  0.08645700  0.24876500  0.27127900  1
  S  S4  1  0.16230800  0.91354300  0.27127900  1
  S  S5  1  0.24839600  0.16407100  0.75683400  1
  S  S6  1  0.91567600  0.75160400  0.75683400  1
  S  S7  1  0.83592900  0.08432400  0.75683400  1
  S  S8  1  0.48125100  0.89312800  0.01304000  1
  S  S9  1  0.41187700  0.51874900  0.01304000  1
  S  S10  1  0.10687200  0.58812300  0.01304000  1
  S  S11  1  0.51878900  0.10689200  0.51149700  1
  S  S12  1  0.58810300  0.48121100  0.51149700  1
  S  S13  1  0.89310800  0.41189700  0.51149700  1
loop_
_geom_bond_atom_site_label_1
_geom_bond_atom_site_label_2
_geom_bond_distance
_geom_bond_site_symmetry_2
Er0 S7 2.722930 1_565
Er0 S6 2.745079 1_555
Er0 S9 2.781874 1_556
Er0 S2 2.830490 1_555
Er0 S8 2.872521 1_556
Er0 S12 2.899139 1_555
Er0 S0 2.941334 1_555
Er0 S2 3.052870 1_556
Er1 S5 2.722937 1_555
Er1 S7 2.745074 1_455
Er1 S10 2.781874 1_556
Er1 S3 2.830490 1_555
Er1 S9 2.872521 1_556
Er1 S13 2.899139 1_455
Er1 S0 2.941332 1_555
Er1 S3 3.052869 1_556
Er2 S6 2.722929 1_455
Er2 S5 2.745069 1_565
Er2 S8 2.781874 1_556
Er2 S4 2.830490 1_555
Er2 S10 2.872521 1_556
Er2 S11 2.899139 1_565
Er2 S0 2.941325 1_555
Er2 S4 3.052869 1_556
Er3 S3 2.723646 1_555
Er3 S4 2.743212 1_545
Er3 S12 2.777464 1_555
Er3 S11 2.870370 1_555
Er3 S9 2.894982 1_555
Er3 S5 2.908285 1_554
Er3 S1 2.949921 1_555
Er3 S5 2.972182 1_555
Er4 S4 2.723641 1_655
Er4 S2 2.743220 1_555
Er4 S13 2.777459 1_555
Er4 S12 2.870377 1_555
Er4 S10 2.894973 1_655
Er4 S6 2.908285 1_554
Er4 S1 2.949921 1_555
Er4 S6 2.972182 1_555
Er5 S2 2.723636 1_545
Er5 S3 2.743211 1_655
Er5 S11 2.777467 1_555
Er5 S13 2.870378 1_555
Er5 S8 2.894979 1_545
Er5 S7 2.908285 1_554
Er5 S1 2.949921 1_555
Er5 S7 2.972182 1_555
Mn0 S4 2.533948 1_545
Mn0 S3 2.533949 1_555
Mn0 S2 2.533949 1_445
Mn0 S7 2.549181 1_455
Mn0 S5 2.549188 1_555
Mn0 S6 2.549189 1_445
S0 Si0 2.102168 1_555
S1 Si1 2.103039 1_554
S8 Si0 2.134064 1_555
S9 Si0 2.134070 1_555
S10 Si0 2.134062 1_555
S11 Si1 2.133558 1_555
S12 Si1 2.133565 1_555
S13 Si1 2.133556 1_555
