# generated using pymatgen
data_CsCu3GeSe4
_symmetry_space_group_name_H-M   'P 1'
_cell_length_a   6.32440158
_cell_length_b   6.32440158
_cell_length_c   6.32440158
_cell_angle_alpha   90.00000000
_cell_angle_beta   90.00000000
_cell_angle_gamma   90.00000000
_symmetry_Int_Tables_number   1
_chemical_formula_structural   CsCu3GeSe4
_chemical_formula_sum   'Cs1 Cu3 Ge1 Se4'
_cell_volume   252.96376442
_cell_formula_units_Z   1
loop_
 _symmetry_equiv_pos_site_id
 _symmetry_equiv_pos_as_xyz
  1  'x, y, z'
loop_
 _atom_site_type_symbol
 _atom_site_label
 _atom_site_symmetry_multiplicity
 _atom_site_fract_x
 _atom_site_fract_y
 _atom_site_fract_z
 _atom_site_occupancy
  Cs  Cs0  1  0.50000000  0.50000000  0.50000000  1
  Cu  Cu0  1  -0.00000000  0.50000000  0.00000000  1
  Cu  Cu1  1  -0.00000000  0.00000000  0.50000000  1
  Cu  Cu2  1  0.50000000  0.00000000  0.00000000  1
  Ge  Ge0  1  -0.00000000  0.00000000  0.00000000  1
  Se  Se0  1  0.21047324  0.21047324  0.21047324  1
  Se  Se1  1  0.78952676  0.78952676  0.21047324  1
  Se  Se2  1  0.21047324  0.78952676  0.78952676  1
  Se  Se3  1  0.78952676  0.21047324  0.78952676  1
loop_
_geom_bond_atom_site_label_1
_geom_bond_atom_site_label_2
_geom_bond_distance
_geom_bond_site_symmetry_2
Cs0 Se2 3.171530 1_555
Cs0 Se3 3.171530 1_555
Cs0 Se0 3.171530 1_555
Cs0 Se1 3.171530 1_555
Cu0 Se3 2.626140 1_454
Cu0 Se2 2.626140 1_554
Cu0 Se0 2.626140 1_555
Cu0 Se1 2.626140 1_455
Cu1 Se0 2.626140 1_555
Cu1 Se1 2.626140 1_445
Cu1 Se2 2.626140 1_545
Cu1 Se3 2.626140 1_455
Cu2 Se1 2.626140 1_545
Cu2 Se0 2.626140 1_555
Cu2 Se3 2.626140 1_554
Cu2 Se2 2.626140 1_544
Ge0 Se2 2.305563 1_544
Ge0 Se0 2.305563 1_555
Ge0 Se3 2.305563 1_454
Ge0 Se1 2.305563 1_445
