# generated using pymatgen
data_Ba3LuIrRuO9
_symmetry_space_group_name_H-M   'P 1'
_cell_length_a   5.91274219
_cell_length_b   5.91274219
_cell_length_c   14.57048900
_cell_angle_alpha   90.00000000
_cell_angle_beta   90.00000000
_cell_angle_gamma   120.00000215
_symmetry_Int_Tables_number   1
_chemical_formula_structural   Ba3LuIrRuO9
_chemical_formula_sum   'Ba6 Lu2 Ir2 Ru2 O18'
_cell_volume   441.14629508
_cell_formula_units_Z   2
loop_
 _symmetry_equiv_pos_site_id
 _symmetry_equiv_pos_as_xyz
  1  'x, y, z'
loop_
 _atom_site_type_symbol
 _atom_site_label
 _atom_site_symmetry_multiplicity
 _atom_site_fract_x
 _atom_site_fract_y
 _atom_site_fract_z
 _atom_site_occupancy
  Ba  Ba0  1  0.33333300  0.66666700  0.59162200  1
  Ba  Ba1  1  0.66666700  0.33333300  0.40670500  1
  Ba  Ba2  1  0.66666700  0.33333300  0.09162200  1
  Ba  Ba3  1  0.33333300  0.66666700  0.90670500  1
  Ba  Ba4  1  0.00000000  0.00000000  0.25014800  1
  Ba  Ba5  1  0.00000000  0.00000000  0.75014800  1
  Lu  Lu0  1  0.00000000  0.00000000  0.49894600  1
  Lu  Lu1  1  0.00000000  0.00000000  0.99894600  1
  Ir  Ir0  1  0.33333300  0.66666700  0.33667700  1
  Ir  Ir1  1  0.66666700  0.33333300  0.83667700  1
  Ru  Ru0  1  0.66666700  0.33333300  0.66197200  1
  Ru  Ru1  1  0.33333300  0.66666700  0.16197200  1
  O  O0  1  0.17405500  0.82594500  0.08686800  1
  O  O1  1  0.17405500  0.34811000  0.08686800  1
  O  O2  1  0.65189000  0.82594500  0.08686800  1
  O  O3  1  0.82624200  0.17375800  0.91523300  1
  O  O4  1  0.82624200  0.65248400  0.91523300  1
  O  O5  1  0.34751600  0.17375800  0.91523300  1
  O  O6  1  0.82594500  0.17405500  0.58686800  1
  O  O7  1  0.82594500  0.65189000  0.58686800  1
  O  O8  1  0.34811000  0.17405500  0.58686800  1
  O  O9  1  0.17375800  0.82624200  0.41523300  1
  O  O10  1  0.17375800  0.34751600  0.41523300  1
  O  O11  1  0.65248400  0.82624200  0.41523300  1
  O  O12  1  0.48977100  0.51022900  0.24921000  1
  O  O13  1  0.48977100  0.97954200  0.24921000  1
  O  O14  1  0.02045800  0.51022900  0.24921000  1
  O  O15  1  0.51022900  0.48977100  0.74921000  1
  O  O16  1  0.51022900  0.02045800  0.74921000  1
  O  O17  1  0.97954200  0.48977100  0.74921000  1
loop_
_geom_bond_atom_site_label_1
_geom_bond_atom_site_label_2
_geom_bond_distance
_geom_bond_site_symmetry_2
Ba0 O17 2.924754 1_455
Ba0 O16 2.924754 1_565
Ba0 O15 2.924758 1_555
Ba0 O7 2.958147 1_455
Ba0 O8 2.958147 1_565
Ba0 O6 2.958150 1_455
Ba0 O6 2.958150 1_565
Ba0 O8 2.958153 1_555
Ba0 O7 2.958153 1_555
Ba0 O9 3.045653 1_555
Ba0 O11 3.045656 1_555
Ba0 O10 3.045656 1_555
Ba1 O13 2.923691 1_545
Ba1 O14 2.923691 1_655
Ba1 O12 2.923694 1_555
Ba1 O11 2.959869 1_545
Ba1 O10 2.959869 1_655
Ba1 O9 2.959872 1_545
Ba1 O9 2.959872 1_655
Ba1 O10 2.959875 1_555
Ba1 O11 2.959875 1_555
Ba1 O6 3.090590 1_555
Ba1 O7 3.090593 1_555
Ba1 O8 3.090593 1_555
Ba2 O13 2.924754 1_545
Ba2 O14 2.924754 1_655
Ba2 O12 2.924758 1_555
Ba2 O2 2.958147 1_545
Ba2 O1 2.958147 1_655
Ba2 O0 2.958150 1_545
Ba2 O0 2.958150 1_655
Ba2 O1 2.958153 1_555
Ba2 O2 2.958153 1_555
Ba2 O3 3.045653 1_554
Ba2 O4 3.045656 1_554
Ba2 O5 3.045656 1_554
Ba3 O17 2.923691 1_455
Ba3 O16 2.923691 1_565
Ba3 O15 2.923694 1_555
Ba3 O4 2.959869 1_455
Ba3 O5 2.959869 1_565
Ba3 O3 2.959872 1_455
Ba3 O3 2.959872 1_565
Ba3 O5 2.959875 1_555
Ba3 O4 2.959875 1_555
Ba3 O0 3.090590 1_556
Ba3 O2 3.090593 1_556
Ba3 O1 3.090593 1_556
Ba4 O12 2.958258 1_445
Ba4 O12 2.958258 1_555
Ba4 O13 2.958258 1_445
Ba4 O14 2.958258 1_555
Ba4 O14 2.958258 1_545
Ba4 O13 2.958258 1_545
Ba4 O1 2.972772 1_555
Ba4 O2 2.972772 1_445
Ba4 O0 2.972772 1_545
Ba4 O10 2.992051 1_555
Ba4 O11 2.992051 1_445
Ba4 O9 2.992051 1_545
Ba5 O15 2.958258 1_555
Ba5 O15 2.958258 1_445
Ba5 O17 2.958258 1_445
Ba5 O16 2.958258 1_555
Ba5 O16 2.958258 1_455
Ba5 O17 2.958258 1_455
Ba5 O8 2.972772 1_555
Ba5 O7 2.972772 1_445
Ba5 O6 2.972772 1_455
Ba5 O5 2.992051 1_555
Ba5 O4 2.992051 1_445
Ba5 O3 2.992051 1_455
Lu0 O11 2.157390 1_445
Lu0 O10 2.157390 1_555
Lu0 O9 2.157390 1_545
Lu0 O8 2.195116 1_555
Lu0 O7 2.195116 1_445
Lu0 O6 2.195116 1_455
Lu1 O5 2.157390 1_555
Lu1 O4 2.157390 1_445
Lu1 O3 2.157390 1_455
Lu1 O1 2.195116 1_556
Lu1 O2 2.195116 1_446
Lu1 O0 2.195116 1_546
Ir0 O9 1.995202 1_555
Ir0 O11 1.995206 1_555
Ir0 O10 1.995206 1_555
Ir0 O13 2.047175 1_555
Ir0 O14 2.047175 1_555
Ir0 O12 2.047179 1_555
Ir1 O3 1.995202 1_555
Ir1 O4 1.995206 1_555
Ir1 O5 1.995206 1_555
Ir1 O17 2.047175 1_555
Ir1 O16 2.047175 1_555
Ir1 O15 2.047179 1_555
O0 Ru1 1.964252 1_555
O1 Ru1 1.964257 1_555
O2 Ru1 1.964257 1_555
O6 Ru0 1.964252 1_555
O7 Ru0 1.964257 1_555
O8 Ru0 1.964257 1_555
O12 Ru1 2.045103 1_555
O13 Ru1 2.045099 1_555
O14 Ru1 2.045099 1_555
O15 Ru0 2.045103 1_555
O16 Ru0 2.045099 1_555
O17 Ru0 2.045099 1_555
