# generated using pymatgen
data_ErTiFe8Co3
_symmetry_space_group_name_H-M   'P 1'
_cell_length_a   4.73087600
_cell_length_b   6.40213993
_cell_length_c   6.40213993
_cell_angle_alpha   97.92320087
_cell_angle_beta   111.68331360
_cell_angle_gamma   68.31668640
_symmetry_Int_Tables_number   1
_chemical_formula_structural   ErTiFe8Co3
_chemical_formula_sum   'Er1 Ti1 Fe8 Co3'
_cell_volume   167.43543109
_cell_formula_units_Z   1
loop_
 _symmetry_equiv_pos_site_id
 _symmetry_equiv_pos_as_xyz
  1  'x, y, z'
loop_
 _atom_site_type_symbol
 _atom_site_label
 _atom_site_symmetry_multiplicity
 _atom_site_fract_x
 _atom_site_fract_y
 _atom_site_fract_z
 _atom_site_occupancy
  Er  Er0  1  0.00537700  0.99462300  0.00537700  1
  Ti  Ti0  1  0.62591800  0.37408200  0.62591800  1
  Fe  Fe0  1  0.73008600  0.76991400  0.23008600  1
  Fe  Fe1  1  0.27917800  0.22082200  0.77917800  1
  Fe  Fe2  1  0.49957700  0.78354000  0.78269400  1
  Fe  Fe3  1  0.49957700  0.21730600  0.21646000  1
  Fe  Fe4  1  0.50147900  0.99698300  0.49935200  1
  Fe  Fe5  1  0.00089000  0.99698300  0.49935200  1
  Fe  Fe6  1  0.50147900  0.50064800  0.00301700  1
  Fe  Fe7  1  0.00089000  0.50064800  0.00301700  1
  Co  Co0  1  0.35147200  0.64852800  0.35147200  1
  Co  Co1  1  0.00203800  0.35554100  0.35961700  1
  Co  Co2  1  0.00203800  0.64038300  0.64445900  1
loop_
_geom_bond_atom_site_label_1
_geom_bond_atom_site_label_2
_geom_bond_distance
_geom_bond_site_symmetry_2
Er0 Fe2 2.986989 1_454
Er0 Fe2 2.986989 1_554
Er0 Fe3 2.986989 1_465
Er0 Fe3 2.986989 1_565
Er0 Fe0 3.029026 1_455
Er0 Fe0 3.029026 1_555
Er0 Fe1 3.036879 1_464
Er0 Fe1 3.036879 1_564
Er0 Fe5 3.168322 1_555
Er0 Fe7 3.168322 1_555
Er0 Fe4 3.168322 1_555
Er0 Fe6 3.168322 1_555
Er0 Ti0 3.194979 1_464
Er0 Fe4 3.233946 1_454
Er0 Fe6 3.233946 1_465
Er0 Fe5 3.233946 1_554
Er0 Fe7 3.233946 1_565
Fe0 Fe5 2.404112 1_655
Fe0 Fe4 2.404112 1_555
Fe0 Fe6 2.404112 1_555
Fe0 Fe7 2.404112 1_655
Fe0 Fe2 2.662951 1_554
Fe0 Fe3 2.662951 1_565
Fe1 Fe7 2.437181 1_556
Fe1 Fe5 2.437181 1_545
Fe1 Fe6 2.437181 1_556
Fe1 Fe4 2.437181 1_545
Fe1 Fe2 2.601562 1_545
Fe1 Fe3 2.601562 1_556
Fe1 Ti0 2.694529 1_555
Fe1 Ti0 2.694529 1_455
Fe2 Fe5 2.421259 1_555
Fe2 Fe4 2.421259 1_555
Fe2 Fe6 2.439817 1_556
Fe2 Fe7 2.439817 1_656
Fe2 Ti0 2.607023 1_555
Fe3 Fe7 2.421259 1_555
Fe3 Fe6 2.421259 1_555
Fe3 Fe4 2.439817 1_545
Fe3 Fe5 2.439817 1_645
Fe3 Ti0 2.607023 1_555
Fe4 Fe5 2.362652 1_655
Fe4 Fe5 2.368224 1_555
Fe4 Ti0 2.643888 1_565
Fe5 Ti0 2.643888 1_465
Fe6 Fe7 2.362652 1_655
Fe6 Fe7 2.368224 1_555
Fe6 Ti0 2.643888 1_554
Fe7 Ti0 2.643888 1_454
Co0 Ti0 2.310788 1_555
Co0 Fe5 2.543188 1_555
Co0 Fe4 2.543188 1_555
Co0 Fe7 2.543188 1_555
Co0 Fe6 2.543188 1_555
Co0 Fe0 2.576797 1_455
Co0 Fe0 2.576797 1_555
Co0 Fe3 2.687009 1_555
Co0 Fe2 2.687009 1_555
Co0 Er0 2.914060 1_555
Co1 Co2 2.394621 1_555
Co1 Fe7 2.578175 1_555
Co1 Fe6 2.578175 1_455
Co1 Fe5 2.578527 1_545
Co1 Fe4 2.578527 1_545
Co1 Fe0 2.583928 1_455
Co1 Fe1 2.622716 1_555
Co1 Fe3 2.644761 1_555
Co1 Fe3 2.644761 1_455
Co1 Ti0 2.848999 1_555
Co1 Ti0 2.848999 1_455
Co1 Er0 3.006240 1_545
Co2 Fe4 2.578175 1_455
Co2 Fe5 2.578175 1_555
Co2 Fe7 2.578527 1_556
Co2 Fe6 2.578527 1_556
Co2 Fe0 2.583928 1_455
Co2 Fe1 2.622716 1_555
Co2 Fe2 2.644761 1_455
Co2 Fe2 2.644761 1_555
Co2 Ti0 2.848999 1_555
Co2 Ti0 2.848999 1_455
Co2 Er0 3.006240 1_556
