# generated using pymatgen
data_Mg3Mo
_symmetry_space_group_name_H-M   'P 1'
_cell_length_a   5.74646200
_cell_length_b   9.80946200
_cell_length_c   10.84222400
_cell_angle_alpha   90.00000000
_cell_angle_beta   90.00000000
_cell_angle_gamma   90.00000000
_symmetry_Int_Tables_number   1
_chemical_formula_structural   Mg3Mo
_chemical_formula_sum   'Mg24 Mo8'
_cell_volume   611.17292097
_cell_formula_units_Z   8
loop_
 _symmetry_equiv_pos_site_id
 _symmetry_equiv_pos_as_xyz
  1  'x, y, z'
loop_
 _atom_site_type_symbol
 _atom_site_label
 _atom_site_symmetry_multiplicity
 _atom_site_fract_x
 _atom_site_fract_y
 _atom_site_fract_z
 _atom_site_occupancy
  Mg  Mg0_0  1  0.00000000  0.00000000  0.32748650  1
  Mg  Mg0_1  1  0.00000000  0.00000000  0.82748650  1
  Mg  Mg0_2  1  0.00000000  0.50000000  0.32748650  1
  Mg  Mg0_3  1  0.00000000  0.50000000  0.82748650  1
  Mg  Mg0_4  1  0.50000000  0.00000000  0.32748650  1
  Mg  Mg0_5  1  0.50000000  0.00000000  0.82748650  1
  Mg  Mg0_6  1  0.50000000  0.50000000  0.32748650  1
  Mg  Mg0_7  1  0.50000000  0.50000000  0.82748650  1
  Mg  Mg1_0  1  0.00000000  0.25000000  0.16244650  1
  Mg  Mg1_1  1  0.00000000  0.25000000  0.66244650  1
  Mg  Mg1_2  1  0.00000000  0.75000000  0.16244650  1
  Mg  Mg1_3  1  0.00000000  0.75000000  0.66244650  1
  Mg  Mg1_4  1  0.50000000  0.25000000  0.16244650  1
  Mg  Mg1_5  1  0.50000000  0.25000000  0.66244650  1
  Mg  Mg1_6  1  0.50000000  0.75000000  0.16244650  1
  Mg  Mg1_7  1  0.50000000  0.75000000  0.66244650  1
  Mg  Mg2_0  1  0.25000000  0.25000000  0.43290050  1
  Mg  Mg2_1  1  0.25000000  0.25000000  0.93290050  1
  Mg  Mg2_2  1  0.25000000  0.75000000  0.43290050  1
  Mg  Mg2_3  1  0.25000000  0.75000000  0.93290050  1
  Mg  Mg2_4  1  0.75000000  0.25000000  0.43290050  1
  Mg  Mg2_5  1  0.75000000  0.25000000  0.93290050  1
  Mg  Mg2_6  1  0.75000000  0.75000000  0.43290050  1
  Mg  Mg2_7  1  0.75000000  0.75000000  0.93290050  1
  Mo  Mo0_0  1  0.25000000  0.00000000  0.07716650  1
  Mo  Mo0_1  1  0.25000000  0.00000000  0.57716650  1
  Mo  Mo0_2  1  0.25000000  0.50000000  0.07716650  1
  Mo  Mo0_3  1  0.25000000  0.50000000  0.57716650  1
  Mo  Mo0_4  1  0.75000000  0.00000000  0.07716650  1
  Mo  Mo0_5  1  0.75000000  0.00000000  0.57716650  1
  Mo  Mo0_6  1  0.75000000  0.50000000  0.07716650  1
  Mo  Mo0_7  1  0.75000000  0.50000000  0.57716650  1
loop_
_geom_bond_atom_site_label_1
_geom_bond_atom_site_label_2
_geom_bond_distance
_geom_bond_site_symmetry_2
Mg0_0 Mg0_4 2.873231 1_555
Mg0_0 Mg0_4 2.873231 1_455
Mg0_0 Mg1_0 3.035795 1_555
Mg0_0 Mg1_2 3.035795 1_545
Mg0_0 Mg2_2 3.063369 1_545
Mg0_0 Mg2_0 3.063369 1_555
Mg0_0 Mg2_4 3.063369 1_455
Mg0_0 Mg2_6 3.063369 1_445
Mg0_0 Mo0_1 3.064667 1_555
Mg0_0 Mo0_5 3.064667 1_455
Mg0_0 Mo0_0 3.070798 1_555
Mg0_0 Mo0_4 3.070798 1_455
Mg0_1 Mg0_5 2.873231 1_555
Mg0_1 Mg0_5 2.873231 1_455
Mg0_1 Mg1_1 3.035795 1_555
Mg0_1 Mg1_3 3.035795 1_545
Mg0_1 Mg2_3 3.063369 1_545
Mg0_1 Mg2_1 3.063369 1_555
Mg0_1 Mg2_7 3.063369 1_445
Mg0_1 Mg2_5 3.063369 1_455
Mg0_1 Mo0_0 3.064667 1_556
Mg0_1 Mo0_4 3.064667 1_456
Mg0_1 Mo0_1 3.070798 1_555
Mg0_1 Mo0_5 3.070798 1_455
Mg0_2 Mg0_6 2.873231 1_555
Mg0_2 Mg0_6 2.873231 1_455
Mg0_2 Mg1_0 3.035795 1_555
Mg0_2 Mg1_2 3.035795 1_555
Mg0_2 Mg2_2 3.063369 1_555
Mg0_2 Mg2_0 3.063369 1_555
Mg0_2 Mg2_4 3.063369 1_455
Mg0_2 Mg2_6 3.063369 1_455
Mg0_2 Mo0_3 3.064667 1_555
Mg0_2 Mo0_7 3.064667 1_455
Mg0_2 Mo0_2 3.070798 1_555
Mg0_2 Mo0_6 3.070798 1_455
Mg0_3 Mg0_7 2.873231 1_555
Mg0_3 Mg0_7 2.873231 1_455
Mg0_3 Mg1_1 3.035795 1_555
Mg0_3 Mg1_3 3.035795 1_555
Mg0_3 Mg2_1 3.063369 1_555
Mg0_3 Mg2_3 3.063369 1_555
Mg0_3 Mg2_7 3.063369 1_455
Mg0_3 Mg2_5 3.063369 1_455
Mg0_3 Mo0_2 3.064667 1_556
Mg0_3 Mo0_6 3.064667 1_456
Mg0_3 Mo0_3 3.070798 1_555
Mg0_3 Mo0_7 3.070798 1_455
Mg0_4 Mg1_4 3.035795 1_555
Mg0_4 Mg1_6 3.035795 1_545
Mg0_4 Mg2_2 3.063369 1_545
Mg0_4 Mg2_0 3.063369 1_555
Mg0_4 Mg2_4 3.063369 1_555
Mg0_4 Mg2_6 3.063369 1_545
Mg0_4 Mo0_1 3.064667 1_555
Mg0_4 Mo0_5 3.064667 1_555
Mg0_4 Mo0_0 3.070798 1_555
Mg0_4 Mo0_4 3.070798 1_555
Mg0_5 Mg1_7 3.035795 1_545
Mg0_5 Mg1_5 3.035795 1_555
Mg0_5 Mg2_3 3.063369 1_545
Mg0_5 Mg2_7 3.063369 1_545
Mg0_5 Mg2_1 3.063369 1_555
Mg0_5 Mg2_5 3.063369 1_555
Mg0_5 Mo0_0 3.064667 1_556
Mg0_5 Mo0_4 3.064667 1_556
Mg0_5 Mo0_1 3.070798 1_555
Mg0_5 Mo0_5 3.070798 1_555
Mg0_6 Mg1_6 3.035795 1_555
Mg0_6 Mg1_4 3.035795 1_555
Mg0_6 Mg2_2 3.063369 1_555
Mg0_6 Mg2_6 3.063369 1_555
Mg0_6 Mg2_0 3.063369 1_555
Mg0_6 Mg2_4 3.063369 1_555
Mg0_6 Mo0_3 3.064667 1_555
Mg0_6 Mo0_7 3.064667 1_555
Mg0_6 Mo0_6 3.070798 1_555
Mg0_6 Mo0_2 3.070798 1_555
Mg0_7 Mg1_5 3.035795 1_555
Mg0_7 Mg1_7 3.035795 1_555
Mg0_7 Mg2_7 3.063369 1_555
Mg0_7 Mg2_1 3.063369 1_555
Mg0_7 Mg2_5 3.063369 1_555
Mg0_7 Mg2_3 3.063369 1_555
Mg0_7 Mo0_2 3.064667 1_556
Mg0_7 Mo0_6 3.064667 1_556
Mg0_7 Mo0_7 3.070798 1_555
Mg0_7 Mo0_3 3.070798 1_555
Mg1_0 Mo0_0 2.988794 1_555
Mg1_0 Mo0_2 2.988794 1_555
Mg1_0 Mo0_6 2.988794 1_455
Mg1_0 Mo0_4 2.988794 1_455
Mg1_1 Mo0_1 2.988794 1_555
Mg1_1 Mo0_3 2.988794 1_555
Mg1_1 Mo0_7 2.988794 1_455
Mg1_1 Mo0_5 2.988794 1_455
Mg1_2 Mo0_0 2.988794 1_565
Mg1_2 Mo0_2 2.988794 1_555
Mg1_2 Mo0_6 2.988794 1_455
Mg1_2 Mo0_4 2.988794 1_465
Mg1_3 Mo0_1 2.988794 1_565
Mg1_3 Mo0_3 2.988794 1_555
Mg1_3 Mo0_5 2.988794 1_465
Mg1_3 Mo0_7 2.988794 1_455
Mg1_4 Mo0_6 2.988794 1_555
Mg1_4 Mo0_0 2.988794 1_555
Mg1_4 Mo0_4 2.988794 1_555
Mg1_4 Mo0_2 2.988794 1_555
Mg1_5 Mo0_7 2.988794 1_555
Mg1_5 Mo0_1 2.988794 1_555
Mg1_5 Mo0_5 2.988794 1_555
Mg1_5 Mo0_3 2.988794 1_555
Mg1_6 Mo0_6 2.988794 1_555
Mg1_6 Mo0_0 2.988794 1_565
Mg1_6 Mo0_4 2.988794 1_565
Mg1_6 Mo0_2 2.988794 1_555
Mg1_7 Mo0_5 2.988794 1_565
Mg1_7 Mo0_7 2.988794 1_555
Mg1_7 Mo0_1 2.988794 1_565
Mg1_7 Mo0_3 2.988794 1_555
Mg2_0 Mo0_3 2.908729 1_555
Mg2_0 Mo0_1 2.908729 1_555
Mg2_1 Mo0_2 2.908729 1_556
Mg2_1 Mo0_0 2.908729 1_556
Mg2_2 Mo0_3 2.908729 1_555
Mg2_2 Mo0_1 2.908729 1_565
Mg2_3 Mo0_2 2.908729 1_556
Mg2_3 Mo0_0 2.908729 1_566
Mg2_4 Mo0_5 2.908729 1_555
Mg2_4 Mo0_7 2.908729 1_555
Mg2_5 Mo0_6 2.908729 1_556
Mg2_5 Mo0_4 2.908729 1_556
Mg2_6 Mo0_5 2.908729 1_565
Mg2_6 Mo0_7 2.908729 1_555
Mg2_7 Mo0_6 2.908729 1_556
Mg2_7 Mo0_4 2.908729 1_566
Mo0_0 Mo0_4 2.873231 1_555
Mo0_0 Mo0_4 2.873231 1_455
Mo0_1 Mo0_5 2.873231 1_555
Mo0_1 Mo0_5 2.873231 1_455
Mo0_2 Mo0_6 2.873231 1_555
Mo0_2 Mo0_6 2.873231 1_455
Mo0_3 Mo0_7 2.873231 1_555
Mo0_3 Mo0_7 2.873231 1_455
