# generated using pymatgen
data_Ho2Co3Ge5
_symmetry_space_group_name_H-M   'P 1'
_cell_length_a   5.73073822
_cell_length_b   8.06449765
_cell_length_c   8.06449765
_cell_angle_alpha   93.10107349
_cell_angle_beta   109.54166223
_cell_angle_gamma   109.54166223
_symmetry_Int_Tables_number   1
_chemical_formula_structural   Ho2Co3Ge5
_chemical_formula_sum   'Ho4 Co6 Ge10'
_cell_volume   325.17265920
_cell_formula_units_Z   2
loop_
 _symmetry_equiv_pos_site_id
 _symmetry_equiv_pos_as_xyz
  1  'x, y, z'
loop_
 _atom_site_type_symbol
 _atom_site_label
 _atom_site_symmetry_multiplicity
 _atom_site_fract_x
 _atom_site_fract_y
 _atom_site_fract_z
 _atom_site_occupancy
  Ho  Ho0  1  0.76618600  0.40727100  0.13258200  1
  Ho  Ho1  1  0.73381400  0.86741800  0.59272900  1
  Ho  Ho2  1  0.23381400  0.59272900  0.86741800  1
  Ho  Ho3  1  0.26618600  0.13258200  0.40727100  1
  Co  Co0  1  0.61696900  0.45981200  0.74224700  1
  Co  Co1  1  0.88303100  0.25775300  0.54018800  1
  Co  Co2  1  0.38303100  0.54018800  0.25775300  1
  Co  Co3  1  0.11696900  0.74224700  0.45981200  1
  Co  Co4  1  0.75000000  0.00298100  0.99701900  1
  Co  Co5  1  0.25000000  0.99701900  0.00298100  1
  Ge  Ge0  1  0.83041700  0.73772100  0.92503200  1
  Ge  Ge1  1  0.66958300  0.07496800  0.26227900  1
  Ge  Ge2  1  0.16958300  0.26227900  0.07496800  1
  Ge  Ge3  1  0.33041700  0.92503200  0.73772100  1
  Ge  Ge4  1  0.75000000  0.21600700  0.78399300  1
  Ge  Ge5  1  0.25000000  0.78399300  0.21600700  1
  Ge  Ge6  1  0.75000000  0.50654200  0.49345800  1
  Ge  Ge7  1  0.25000000  0.49345800  0.50654200  1
  Ge  Ge8  1  0.75000000  0.77376600  0.22623400  1
  Ge  Ge9  1  0.25000000  0.22623400  0.77376600  1
loop_
_geom_bond_atom_site_label_1
_geom_bond_atom_site_label_2
_geom_bond_distance
_geom_bond_site_symmetry_2
Co0 Ge0 2.300958 1_555
Co0 Ge4 2.337312 1_555
Co0 Ge6 2.379405 1_555
Co0 Ge9 2.407241 1_555
Co0 Ge7 2.423374 1_555
Co1 Ge1 2.300958 1_555
Co1 Ge4 2.337312 1_555
Co1 Ge6 2.379405 1_555
Co1 Ge9 2.407241 1_655
Co1 Ge7 2.423374 1_655
Co2 Ge2 2.300958 1_555
Co2 Ge5 2.337312 1_555
Co2 Ge7 2.379405 1_555
Co2 Ge8 2.407241 1_555
Co2 Ge6 2.423374 1_555
Co3 Ge3 2.300958 1_555
Co3 Ge5 2.337312 1_555
Co3 Ge7 2.379405 1_555
Co3 Ge8 2.407241 1_455
Co3 Ge6 2.423374 1_455
Co4 Ge1 2.414470 1_556
Co4 Ge0 2.414470 1_545
Co4 Ge3 2.456109 1_545
Co4 Ge2 2.456109 1_656
Co4 Ge4 2.494396 1_555
Co4 Ge8 2.683958 1_546
Co5 Ge2 2.414470 1_565
Co5 Ge3 2.414470 1_554
Co5 Ge1 2.456109 1_565
Co5 Ge0 2.456109 1_454
Co5 Ge5 2.494396 1_555
Co5 Ge9 2.683958 1_564
Ge0 Ge5 2.637743 1_656
Ge0 Ge8 2.638035 1_556
Ge0 Ho1 2.877542 1_555
Ge0 Ho2 3.065205 1_655
Ge0 Ho2 3.078403 1_555
Ge0 Ho0 3.205832 1_556
Ge1 Ge5 2.637743 1_545
Ge1 Ge8 2.638035 1_545
Ge1 Ho0 2.877542 1_555
Ge1 Ho3 3.065205 1_555
Ge1 Ho3 3.078403 1_655
Ge1 Ho1 3.205832 1_545
Ge2 Ge4 2.637743 1_454
Ge2 Ge9 2.638035 1_554
Ge2 Ho3 2.877542 1_555
Ge2 Ho0 3.065205 1_455
Ge2 Ho0 3.078403 1_555
Ge2 Ho2 3.205832 1_554
Ge3 Ge4 2.637743 1_565
Ge3 Ge9 2.638035 1_565
Ge3 Ho2 2.877542 1_555
Ge3 Ho1 3.065205 1_555
Ge3 Ho1 3.078403 1_455
Ge3 Ho3 3.205832 1_565
Ge4 Ge9 2.867870 1_555
Ge4 Ge9 2.867870 1_655
Ge4 Ho0 3.090512 1_556
Ge4 Ho1 3.090512 1_545
Ge4 Ho2 3.204019 1_655
Ge4 Ho3 3.204019 1_555
Ge5 Ge8 2.867870 1_455
Ge5 Ge8 2.867870 1_555
Ge5 Ho3 3.090512 1_565
Ge5 Ho2 3.090512 1_554
Ge5 Ho1 3.204019 1_555
Ge5 Ho0 3.204019 1_455
Ge6 Ho1 3.016199 1_555
Ge6 Ho0 3.016199 1_555
Ge6 Ho3 3.186803 1_555
Ge6 Ho2 3.186803 1_655
Ge7 Ho2 3.016199 1_555
Ge7 Ho3 3.016199 1_555
Ge7 Ho1 3.186803 1_555
Ge7 Ho0 3.186803 1_455
Ge8 Ho0 3.050136 1_555
Ge8 Ho1 3.050136 1_555
Ge8 Ho2 3.191030 1_554
Ge8 Ho3 3.191030 1_665
Ge9 Ho3 3.050136 1_555
Ge9 Ho2 3.050136 1_555
Ge9 Ho1 3.191030 1_445
Ge9 Ho0 3.191030 1_556
