# generated using pymatgen
data_Na4FeO4
_symmetry_space_group_name_H-M   'P 1'
_cell_length_a   5.70798693
_cell_length_b   5.70088185
_cell_length_c   8.08909169
_cell_angle_alpha   88.46489821
_cell_angle_beta   107.38838773
_cell_angle_gamma   110.36505213
_symmetry_Int_Tables_number   1
_chemical_formula_structural   Na4FeO4
_chemical_formula_sum   'Na8 Fe2 O8'
_cell_volume   234.61482912
_cell_formula_units_Z   2
loop_
 _symmetry_equiv_pos_site_id
 _symmetry_equiv_pos_as_xyz
  1  'x, y, z'
loop_
 _atom_site_type_symbol
 _atom_site_label
 _atom_site_symmetry_multiplicity
 _atom_site_fract_x
 _atom_site_fract_y
 _atom_site_fract_z
 _atom_site_occupancy
  Na  Na0  1  0.40598693  0.21014744  0.36755803  1
  Na  Na1  1  0.59401307  0.78985256  0.63244197  1
  Na  Na2  1  0.79586588  0.73972387  0.01716578  1
  Na  Na3  1  0.20413412  0.26027613  0.98283422  1
  Na  Na4  1  0.95377597  0.72255177  0.43214026  1
  Na  Na5  1  0.04622403  0.27744823  0.56785974  1
  Na  Na6  1  0.75375137  0.23133968  0.16584528  1
  Na  Na7  1  0.24624863  0.76866032  0.83415472  1
  Fe  Fe0  1  0.58942103  0.27993717  0.74819234  1
  Fe  Fe1  1  0.41057897  0.72006283  0.25180766  1
  O  O0  1  0.24284908  0.89947716  0.11005580  1
  O  O1  1  0.75715092  0.10052284  0.88994420  1
  O  O2  1  0.69027342  0.97134913  0.38318606  1
  O  O3  1  0.30972658  0.02865087  0.61681394  1
  O  O4  1  0.42993912  0.47539352  0.79838551  1
  O  O5  1  0.57006088  0.52460648  0.20161449  1
  O  O6  1  0.16787215  0.49455729  0.32944171  1
  O  O7  1  0.83212785  0.50544271  0.67055829  1
loop_
_geom_bond_atom_site_label_1
_geom_bond_atom_site_label_2
_geom_bond_distance
_geom_bond_site_symmetry_2
Na0 O5 2.312277 1_555
Na0 O3 2.364836 1_555
Na0 O6 2.414083 1_555
Na0 O2 2.430668 1_545
Na0 O0 2.496618 1_545
Na1 O4 2.312277 1_555
Na1 O2 2.364836 1_555
Na1 O7 2.414083 1_555
Na1 O3 2.430668 1_565
Na1 O1 2.496618 1_565
Na2 O0 2.275331 1_655
Na2 O5 2.311399 1_555
Na2 O1 2.325003 1_564
Na2 O4 2.346980 1_554
Na3 O1 2.275331 1_455
Na3 O4 2.311399 1_555
Na3 O0 2.325003 1_546
Na3 O5 2.346980 1_556
Na4 O3 2.294055 1_665
Na4 O5 2.345044 1_555
Na4 O2 2.351489 1_555
Na4 O6 2.375524 1_655
Na4 O7 2.409951 1_555
Na5 O2 2.294055 1_445
Na5 O4 2.345044 1_555
Na5 O3 2.351489 1_555
Na5 O7 2.375524 1_455
Na5 O6 2.409951 1_555
Na6 O2 2.299206 1_545
Na6 O6 2.314840 1_655
Na6 O5 2.324988 1_555
Na6 O1 2.379615 1_554
Na6 O0 2.776057 1_545
Na7 O3 2.299206 1_565
Na7 O7 2.314840 1_455
Na7 O4 2.324988 1_555
Na7 O0 2.379615 1_556
Na7 O1 2.776057 1_565
Fe0 O4 1.785014 1_555
Fe0 O7 1.789829 1_555
Fe0 O3 1.790557 1_555
Fe0 O1 1.800039 1_555
Fe1 O5 1.785014 1_555
Fe1 O6 1.789829 1_555
Fe1 O2 1.790557 1_555
Fe1 O0 1.800039 1_555
