# generated using pymatgen
data_Sr6Pr3Cu6O17
_symmetry_space_group_name_H-M   'P 1'
_cell_length_a   11.84613140
_cell_length_b   11.84613140
_cell_length_c   11.84613140
_cell_angle_alpha   161.56887213
_cell_angle_beta   121.52112438
_cell_angle_gamma   61.86716879
_symmetry_Int_Tables_number   1
_chemical_formula_structural   Sr6Pr3Cu6O17
_chemical_formula_sum   'Sr6 Pr3 Cu6 O17'
_cell_volume   446.18173911
_cell_formula_units_Z   1
loop_
 _symmetry_equiv_pos_site_id
 _symmetry_equiv_pos_as_xyz
  1  'x, y, z'
loop_
 _atom_site_type_symbol
 _atom_site_label
 _atom_site_symmetry_multiplicity
 _atom_site_fract_x
 _atom_site_fract_y
 _atom_site_fract_z
 _atom_site_occupancy
  Sr  Sr0  1  0.14338200  0.82404900  0.32492600  1
  Sr  Sr1  1  0.85661800  0.18154400  0.68066700  1
  Sr  Sr2  1  0.50087700  0.18154400  0.32492600  1
  Sr  Sr3  1  0.49912300  0.82404900  0.68066700  1
  Sr  Sr4  1  0.80274000  0.80175300  0.99901300  1
  Sr  Sr5  1  0.19726000  0.19627300  0.99901300  1
  Pr  Pr0  1  0.00000000  0.00282000  0.00282000  1
  Pr  Pr1  1  0.29645100  0.98343300  0.27988400  1
  Pr  Pr2  1  0.70354900  0.98343300  0.68698200  1
  Cu  Cu0  1  0.75059200  0.39619700  0.35230100  1
  Cu  Cu1  1  0.24940800  0.60170900  0.64560500  1
  Cu  Cu2  1  0.95610400  0.60170900  0.35230100  1
  Cu  Cu3  1  0.04389600  0.39619700  0.64560500  1
  Cu  Cu4  1  0.41393600  0.45767900  0.04374300  1
  Cu  Cu5  1  0.58606400  0.62980700  0.04374300  1
  O  O0  1  0.86291800  0.50180400  0.36472200  1
  O  O1  1  0.13708200  0.50180400  0.63888600  1
  O  O2  1  0.04896800  0.90622600  0.14120200  1
  O  O3  1  0.95103200  0.09223300  0.85725800  1
  O  O4  1  0.23497600  0.09223300  0.14120200  1
  O  O5  1  0.76502400  0.90622600  0.85725800  1
  O  O6  1  0.74300000  0.57662800  0.15722300  1
  O  O7  1  0.25700000  0.41422300  0.83362800  1
  O  O8  1  0.58059500  0.41422300  0.15722300  1
  O  O9  1  0.41940500  0.57662800  0.83362800  1
  O  O10  1  0.31976900  0.30797100  0.98820200  1
  O  O11  1  0.68023100  0.66843300  0.98820200  1
  O  O12  1  0.64203900  0.29818400  0.34185800  1
  O  O13  1  0.35796100  0.69981900  0.65614600  1
  O  O14  1  0.04367300  0.69981900  0.34185800  1
  O  O15  1  0.95632700  0.29818400  0.65614600  1
  O  O16  1  0.50000000  0.77816600  0.27816600  1
loop_
_geom_bond_atom_site_label_1
_geom_bond_atom_site_label_2
_geom_bond_distance
_geom_bond_site_symmetry_2
Cu0 O5 1.907197 1_544
Cu0 O5 1.909287 1_555
Cu0 O12 1.996537 1_555
Cu0 O0 2.091208 1_555
Cu0 O8 2.259663 1_555
Cu1 O4 1.907200 1_555
Cu1 O4 1.909286 1_566
Cu1 O13 1.996527 1_555
Cu1 O1 2.091208 1_555
Cu1 O9 2.259663 1_555
Cu2 O3 1.907200 1_554
Cu2 O3 1.909286 1_565
Cu2 O14 1.996527 1_655
Cu2 O0 2.091208 1_555
Cu2 O6 2.259663 1_555
Cu3 O2 1.907197 1_545
Cu3 O2 1.909287 1_556
Cu3 O15 1.996537 1_455
Cu3 O1 2.091208 1_555
Cu3 O7 2.259663 1_555
Cu4 O7 1.883985 1_554
Cu4 O8 1.883985 1_555
Cu4 O10 1.925265 1_554
Cu4 O16 1.962204 1_555
Cu5 O9 1.883985 1_554
Cu5 O6 1.883985 1_555
Cu5 O11 1.925265 1_554
Cu5 O16 1.962204 1_555
O0 Pr0 2.470075 1_655
O0 Pr0 2.475990 1_666
O0 Pr2 2.596368 1_555
O0 Pr2 2.696310 1_544
O1 Pr0 2.470075 1_555
O1 Pr0 2.475990 1_566
O1 Pr1 2.596368 1_556
O1 Pr1 2.696310 1_545
O2 Pr0 2.504392 1_565
O2 Pr1 2.602298 1_555
O2 Sr4 2.681133 1_454
O2 Sr0 2.717240 1_555
O3 Pr0 2.504380 1_656
O3 Pr2 2.602294 1_545
O3 Sr5 2.681137 1_655
O3 Sr1 2.717251 1_555
O4 Pr0 2.504388 1_555
O4 Pr1 2.602286 1_545
O4 Sr5 2.681144 1_554
O4 Sr2 2.717242 1_555
O5 Pr0 2.504392 1_666
O5 Pr2 2.602298 1_555
O5 Sr4 2.681133 1_555
O5 Sr3 2.717240 1_555
O6 Pr2 2.526916 1_555
O6 Pr2 2.594342 1_544
O6 Sr1 2.730958 1_554
O6 Sr1 2.769543 1_565
O7 Pr1 2.526916 1_556
O7 Pr1 2.594342 1_545
O7 Sr0 2.730958 1_545
O7 Sr0 2.769543 1_556
O8 Pr2 2.526916 1_555
O8 Pr2 2.594342 1_544
O8 Sr3 2.730958 1_544
O8 Sr3 2.769543 1_555
O9 Pr1 2.526916 1_556
O9 Pr1 2.594342 1_545
O9 Sr2 2.730958 1_555
O9 Sr2 2.769543 1_566
O10 Sr5 2.490010 1_555
O10 Sr0 2.762290 1_545
O10 Sr3 2.762290 1_545
O10 Sr0 2.837336 1_556
O10 Sr3 2.837336 1_556
O11 Sr4 2.490010 1_555
O11 Sr2 2.762290 1_555
O11 Sr1 2.762290 1_555
O11 Sr2 2.837336 1_566
O11 Sr1 2.837336 1_566
O12 Sr2 2.459292 1_555
O12 Sr4 2.628968 1_544
O12 Sr4 2.629031 1_555
O12 Sr3 2.718729 1_544
O12 Sr3 2.738752 1_555
O13 Sr3 2.459302 1_555
O13 Sr5 2.628973 1_554
O13 Sr5 2.629033 1_565
O13 Sr2 2.718725 1_555
O13 Sr2 2.738745 1_566
O14 Sr0 2.459302 1_555
O14 Sr5 2.628973 1_554
O14 Sr5 2.629033 1_565
O14 Sr1 2.718725 1_454
O14 Sr1 2.738745 1_465
O15 Sr1 2.459291 1_555
O15 Sr4 2.628976 1_544
O15 Sr4 2.629039 1_555
O15 Sr0 2.718721 1_645
O15 Sr0 2.738744 1_656
O16 Pr2 2.481035 1_555
O16 Pr1 2.481035 1_555
