# generated using pymatgen
data_Li9Mn2Co5O16
_symmetry_space_group_name_H-M   'P 1'
_cell_length_a   3.03600800
_cell_length_b   9.78848403
_cell_length_c   10.00967129
_cell_angle_alpha   87.52722173
_cell_angle_beta   88.13747511
_cell_angle_gamma   82.88862781
_symmetry_Int_Tables_number   1
_chemical_formula_structural   Li9Mn2Co5O16
_chemical_formula_sum   'Li9 Mn2 Co5 O16'
_cell_volume   294.79272154
_cell_formula_units_Z   1
loop_
 _symmetry_equiv_pos_site_id
 _symmetry_equiv_pos_as_xyz
  1  'x, y, z'
loop_
 _atom_site_type_symbol
 _atom_site_label
 _atom_site_symmetry_multiplicity
 _atom_site_fract_x
 _atom_site_fract_y
 _atom_site_fract_z
 _atom_site_occupancy
  Li  Li0  1  0.61863100  0.25845400  0.43704500  1
  Li  Li1  1  0.88366000  0.74481700  0.30971400  1
  Li  Li2  1  0.12781700  0.25270100  0.18694500  1
  Li  Li3  1  0.37706000  0.74898900  0.06418600  1
  Li  Li4  1  0.62294000  0.25101100  0.93581400  1
  Li  Li5  1  0.87218300  0.74729900  0.81305500  1
  Li  Li6  1  0.11634000  0.25518300  0.69028600  1
  Li  Li7  1  0.38136900  0.74154600  0.56295500  1
  Li  Li8  1  0.00000000  0.50000000  0.50000000  1
  Mn  Mn0  1  0.75715900  0.99973000  0.62657100  1
  Mn  Mn1  1  0.24284100  0.00027000  0.37342900  1
  Co  Co0  1  0.50133600  0.49865600  0.25881400  1
  Co  Co1  1  0.74692800  0.99941200  0.12311100  1
  Co  Co2  1  0.00000000  0.50000000  0.00000000  1
  Co  Co3  1  0.25307200  0.00058800  0.87688900  1
  Co  Co4  1  0.49866400  0.50134400  0.74118600  1
  O  O0  1  0.15834200  0.11817200  0.52819000  1
  O  O1  1  0.44042400  0.61462400  0.38741100  1
  O  O2  1  0.65525900  0.11556300  0.27582000  1
  O  O3  1  0.91053600  0.61282900  0.15169500  1
  O  O4  1  0.19796800  0.11651600  0.02749000  1
  O  O5  1  0.44977700  0.60985600  0.89933800  1
  O  O6  1  0.70803400  0.11451500  0.78187100  1
  O  O7  1  0.91716200  0.61420300  0.66429500  1
  O  O8  1  0.08283800  0.38579700  0.33570500  1
  O  O9  1  0.29196600  0.88548500  0.21812900  1
  O  O10  1  0.55022300  0.39014400  0.10066200  1
  O  O11  1  0.80203200  0.88348400  0.97251000  1
  O  O12  1  0.08946400  0.38717100  0.84830500  1
  O  O13  1  0.34474100  0.88443700  0.72418000  1
  O  O14  1  0.55957600  0.38537600  0.61258900  1
  O  O15  1  0.84165800  0.88182800  0.47181000  1
loop_
_geom_bond_atom_site_label_1
_geom_bond_atom_site_label_2
_geom_bond_distance
_geom_bond_site_symmetry_2
Li0 O2 2.172019 1_555
Li0 O8 2.173682 1_555
Li0 O14 2.185386 1_555
Li0 O8 2.191317 1_655
Li0 O0 2.198811 1_655
Li0 O0 2.225952 1_555
Li1 O1 2.076247 1_555
Li1 O3 2.078341 1_555
Li1 O9 2.124338 1_655
Li1 O1 2.133716 1_655
Li1 O15 2.139968 1_555
Li1 O9 2.312798 1_555
Li2 O8 2.010801 1_555
Li2 O10 2.110794 1_555
Li2 O4 2.112127 1_555
Li2 O2 2.148236 1_555
Li2 O2 2.223182 1_455
Li2 O10 2.246109 1_455
Li3 O9 2.071864 1_555
Li3 O11 2.116429 1_554
Li3 O3 2.150314 1_555
Li3 O5 2.173027 1_554
Li3 O3 2.199032 1_455
Li3 O11 2.248080 1_454
Li4 O6 2.071864 1_555
Li4 O4 2.116429 1_556
Li4 O12 2.150314 1_555
Li4 O10 2.173027 1_556
Li4 O12 2.199032 1_655
Li4 O4 2.248080 1_656
Li5 O7 2.010801 1_555
Li5 O5 2.110794 1_555
Li5 O11 2.112127 1_555
Li5 O13 2.148236 1_555
Li5 O13 2.223182 1_655
Li5 O5 2.246109 1_655
Li6 O14 2.076247 1_555
Li6 O12 2.078341 1_555
Li6 O6 2.124338 1_455
Li6 O14 2.133716 1_455
Li6 O0 2.139968 1_555
Li6 O6 2.312798 1_555
Li7 O13 2.172019 1_555
Li7 O7 2.173682 1_555
Li7 O1 2.185386 1_555
Li7 O7 2.191317 1_455
Li7 O15 2.198811 1_455
Li7 O15 2.225952 1_555
Li8 O7 2.019787 1_455
Li8 O8 2.019787 1_555
Li8 O14 2.116900 1_455
Li8 O1 2.116900 1_555
Li8 O14 2.226776 1_555
Li8 O1 2.226776 1_455
Mn0 O6 1.948149 1_565
Mn0 O15 1.962799 1_555
Mn0 O0 1.992624 1_665
Mn0 O13 1.992780 1_555
Mn0 O13 2.220406 1_655
Mn0 O0 2.261647 1_565
Mn1 O9 1.948149 1_545
Mn1 O0 1.962799 1_555
Mn1 O15 1.992624 1_445
Mn1 O2 1.992780 1_555
Mn1 O2 2.220406 1_455
Mn1 O15 2.261647 1_545
Co0 O1 1.743078 1_555
Co0 O8 1.907275 1_555
Co0 O10 1.935733 1_555
Co0 O3 2.023815 1_555
Co0 O8 2.112257 1_655
Co0 O3 2.267423 1_455
Co1 O11 1.916333 1_554
Co1 O2 1.936640 1_565
Co1 O9 2.064115 1_555
Co1 O4 2.077009 1_665
Co1 O9 2.107190 1_655
Co1 O4 2.131610 1_565
Co2 O3 1.908597 1_455
Co2 O12 1.908597 1_554
Co2 O5 2.053501 1_554
Co2 O10 2.053501 1_455
Co2 O5 2.129138 1_454
Co2 O10 2.129138 1_555
Co3 O4 1.916333 1_556
Co3 O13 1.936640 1_545
Co3 O6 2.064115 1_555
Co3 O11 2.077009 1_445
Co3 O6 2.107190 1_455
Co3 O11 2.131610 1_545
Co4 O14 1.743078 1_555
Co4 O7 1.907275 1_555
Co4 O5 1.935733 1_555
Co4 O12 2.023815 1_555
Co4 O7 2.112257 1_455
Co4 O12 2.267423 1_655
