# generated using pymatgen
data_MgBi2F12
_symmetry_space_group_name_H-M   'P 1'
_cell_length_a   6.10524900
_cell_length_b   6.10524900
_cell_length_c   7.39722200
_cell_angle_alpha   90.00000000
_cell_angle_beta   90.00000000
_cell_angle_gamma   90.00000000
_symmetry_Int_Tables_number   1
_chemical_formula_structural   MgBi2F12
_chemical_formula_sum   'Mg1 Bi2 F12'
_cell_volume   275.72453625
_cell_formula_units_Z   1
loop_
 _symmetry_equiv_pos_site_id
 _symmetry_equiv_pos_as_xyz
  1  'x, y, z'
loop_
 _atom_site_type_symbol
 _atom_site_label
 _atom_site_symmetry_multiplicity
 _atom_site_fract_x
 _atom_site_fract_y
 _atom_site_fract_z
 _atom_site_occupancy
  Mg  Mg0  1  0.00000000  0.00000000  0.00000000  1
  Bi  Bi0  1  0.00000000  0.50000000  0.22672100  1
  Bi  Bi1  1  0.50000000  0.00000000  0.77327900  1
  F  F0  1  0.23405500  0.20860400  0.80324800  1
  F  F1  1  0.76594500  0.79139600  0.80324800  1
  F  F2  1  0.20860400  0.76594500  0.19675200  1
  F  F3  1  0.79139600  0.23405500  0.19675200  1
  F  F4  1  0.00000000  0.50000000  0.49916600  1
  F  F5  1  0.50000000  0.00000000  0.50083400  1
  F  F6  1  0.00000000  0.50000000  0.95471400  1
  F  F7  1  0.50000000  0.00000000  0.04528600  1
  F  F8  1  0.20860400  0.23405500  0.19675200  1
  F  F9  1  0.79139600  0.76594500  0.19675200  1
  F  F10  1  0.23405500  0.79139600  0.80324800  1
  F  F11  1  0.76594500  0.20860400  0.80324800  1
loop_
_geom_bond_atom_site_label_1
_geom_bond_atom_site_label_2
_geom_bond_distance
_geom_bond_site_symmetry_2
Bi0 F6 2.012096 1_554
Bi0 F4 2.015336 1_555
Bi0 F2 2.075433 1_555
Bi0 F9 2.075433 1_455
Bi0 F8 2.075433 1_555
Bi0 F3 2.075433 1_455
Bi1 F7 2.012096 1_556
Bi1 F5 2.015336 1_555
Bi1 F11 2.075433 1_555
Bi1 F1 2.075433 1_545
Bi1 F0 2.075433 1_555
Bi1 F10 2.075433 1_545
F0 Mg0 2.404617 1_556
F1 Mg0 2.404617 1_666
F2 Mg0 2.404617 1_565
F3 Mg0 2.404617 1_655
F8 Mg0 2.404617 1_555
F9 Mg0 2.404617 1_665
F10 Mg0 2.404617 1_566
F11 Mg0 2.404617 1_656
