# generated using pymatgen
data_Sr3LaMn4O12
_symmetry_space_group_name_H-M   'P 1'
_cell_length_a   5.51505328
_cell_length_b   5.47914154
_cell_length_c   7.81878405
_cell_angle_alpha   90.58526004
_cell_angle_beta   90.00085081
_cell_angle_gamma   89.94291591
_symmetry_Int_Tables_number   1
_chemical_formula_structural   Sr3LaMn4O12
_chemical_formula_sum   'Sr3 La1 Mn4 O12'
_cell_volume   236.25367751
_cell_formula_units_Z   1
loop_
 _symmetry_equiv_pos_site_id
 _symmetry_equiv_pos_as_xyz
  1  'x, y, z'
loop_
 _atom_site_type_symbol
 _atom_site_label
 _atom_site_symmetry_multiplicity
 _atom_site_fract_x
 _atom_site_fract_y
 _atom_site_fract_z
 _atom_site_occupancy
  Sr  Sr0  1  0.99987600  0.50007000  0.24996400  1
  Sr  Sr1  1  0.50096700  0.00000300  0.74996400  1
  Sr  Sr2  1  0.99703300  0.50000600  0.75004300  1
  La  La0  1  0.50286500  0.99988400  0.25006000  1
  Mn  Mn0  1  0.00026100  0.00041500  0.50164900  1
  Mn  Mn1  1  0.50011500  0.49974800  0.99836600  1
  Mn  Mn2  1  0.00024100  0.99958900  0.99830100  1
  Mn  Mn3  1  0.50017700  0.50033800  0.50155800  1
  O  O0  1  0.72569800  0.22566300  0.51257100  1
  O  O1  1  0.23495700  0.73512900  0.02504500  1
  O  O2  1  0.23499600  0.26482800  0.47510500  1
  O  O3  1  0.72580300  0.77424000  0.98757300  1
  O  O4  1  0.03730000  0.99996400  0.75000700  1
  O  O5  1  0.53511000  0.49992700  0.24999300  1
  O  O6  1  0.76895900  0.73098300  0.51590900  1
  O  O7  1  0.27458900  0.22540400  0.02605400  1
  O  O8  1  0.95643500  0.00005200  0.24999500  1
  O  O9  1  0.46096900  0.50002800  0.74999700  1
  O  O10  1  0.27461600  0.77465200  0.47390100  1
  O  O11  1  0.76903600  0.26907600  0.98394600  1
loop_
_geom_bond_atom_site_label_1
_geom_bond_atom_site_label_2
_geom_bond_distance
_geom_bond_site_symmetry_2
La0 O10 2.493572 1_555
La0 O7 2.494083 1_565
La0 O8 2.501464 1_565
La0 O3 2.682815 1_554
La0 O0 2.684129 1_565
La0 O2 2.707309 1_565
La0 O1 2.708276 1_555
La0 O5 2.744919 1_555
La0 O5 2.745754 1_565
La0 O6 2.950116 1_555
La0 O11 2.954096 1_564
La0 O8 3.013590 1_465
Mn0 O4 1.952596 1_545
Mn0 O0 1.953836 1_455
Mn0 O6 1.956054 1_445
Mn0 O2 1.956472 1_555
Mn0 O10 1.964033 1_545
Mn0 O8 1.982396 1_455
Mn1 O11 1.950154 1_555
Mn1 O9 1.953920 1_555
Mn1 O3 1.955668 1_555
Mn1 O1 1.958585 1_556
Mn1 O7 1.965649 1_556
Mn1 O5 1.976848 1_556
Mn2 O4 1.952111 1_555
Mn2 O11 1.954060 1_465
Mn2 O1 1.954857 1_556
Mn2 O3 1.955499 1_455
Mn2 O7 1.966079 1_566
Mn2 O8 1.982694 1_466
Mn3 O6 1.951360 1_555
Mn3 O0 1.954033 1_555
Mn3 O9 1.954511 1_555
Mn3 O2 1.960883 1_555
Mn3 O10 1.963716 1_555
Mn3 O5 1.976326 1_555
O0 Sr1 2.561263 1_555
O0 Sr2 2.809568 1_555
O0 Sr0 2.971636 1_555
O1 Sr0 2.545963 1_455
O1 Sr2 2.819822 1_454
O1 Sr1 2.992077 1_564
O2 Sr0 2.546462 1_455
O2 Sr2 2.818512 1_455
O2 Sr1 2.989133 1_555
O3 Sr1 2.561833 1_565
O3 Sr2 2.807675 1_555
O3 Sr0 2.967943 1_556
O4 Sr1 2.557148 1_565
O4 Sr2 2.748551 1_455
O4 Sr2 2.748563 1_465
O4 Sr1 2.957905 1_465
O5 Sr0 2.563210 1_555
O5 Sr0 2.951843 1_455
O6 Sr2 2.564983 1_555
O6 Sr0 2.736692 1_555
O6 Sr1 2.765276 1_565
O7 Sr0 2.750800 1_455
O7 Sr1 2.772442 1_554
O7 Sr2 3.053823 1_454
O8 Sr0 2.749688 1_545
O8 Sr0 2.750365 1_555
O9 Sr2 2.558632 1_455
O9 Sr1 2.748352 1_555
O9 Sr1 2.748523 1_565
O9 Sr2 2.956421 1_555
O10 Sr0 2.752388 1_455
O10 Sr1 2.773170 1_565
O10 Sr2 3.056282 1_455
O11 Sr2 2.564611 1_555
O11 Sr0 2.738271 1_556
O11 Sr1 2.766822 1_555
