# generated using pymatgen
data_Ba6Br2N3Cl
_symmetry_space_group_name_H-M   'P 1'
_cell_length_a   10.15088255
_cell_length_b   10.15088255
_cell_length_c   9.24638560
_cell_angle_alpha   69.45711696
_cell_angle_beta   69.45711696
_cell_angle_gamma   23.79922164
_symmetry_Int_Tables_number   1
_chemical_formula_structural   Ba6Br2N3Cl
_chemical_formula_sum   'Ba6 Br2 N3 Cl1'
_cell_volume   358.89396181
_cell_formula_units_Z   1
loop_
 _symmetry_equiv_pos_site_id
 _symmetry_equiv_pos_as_xyz
  1  'x, y, z'
loop_
 _atom_site_type_symbol
 _atom_site_label
 _atom_site_symmetry_multiplicity
 _atom_site_fract_x
 _atom_site_fract_y
 _atom_site_fract_z
 _atom_site_occupancy
  Ba  Ba0  1  0.48617100  0.48617100  0.71765700  1
  Ba  Ba1  1  0.15268100  0.15268100  0.38171700  1
  Ba  Ba2  1  0.82016600  0.82016600  0.04816700  1
  Ba  Ba3  1  0.51382900  0.51382900  0.28234300  1
  Ba  Ba4  1  0.17983400  0.17983400  0.95183300  1
  Ba  Ba5  1  0.84731900  0.84731900  0.61828300  1
  Br  Br0  1  0.66662000  0.66662000  0.66670700  1
  Br  Br1  1  0.33338000  0.33338000  0.33329300  1
  N  N0  1  0.00000000  0.00000000  0.50000000  1
  N  N1  1  0.66673300  0.66673300  0.16658200  1
  N  N2  1  0.33326700  0.33326700  0.83341800  1
  Cl  Cl0  1  0.00000000  0.00000000  0.00000000  1
loop_
_geom_bond_atom_site_label_1
_geom_bond_atom_site_label_2
_geom_bond_distance
_geom_bond_site_symmetry_2
Ba0 N2 2.835537 1_555
Ba0 N0 2.847852 1_655
Ba0 N0 2.847852 1_565
Ba0 Cl0 3.433130 1_566
Ba0 Cl0 3.433130 1_656
Ba0 Br0 3.443956 1_555
Ba1 N0 2.831345 1_555
Ba1 N1 2.831549 1_455
Ba1 N1 2.831549 1_545
Ba1 Br0 3.453250 1_545
Ba1 Br0 3.453250 1_455
Ba1 Br1 3.454484 1_555
Ba2 N2 2.832121 1_654
Ba2 N2 2.832121 1_564
Ba2 N1 2.845285 1_555
Ba2 Cl0 3.438004 1_665
Ba2 Br1 3.449175 1_655
Ba2 Br1 3.449175 1_565
Ba3 N1 2.835537 1_555
Ba3 N0 2.847852 1_565
Ba3 N0 2.847852 1_655
Ba3 Cl0 3.433130 1_565
Ba3 Cl0 3.433130 1_655
Ba3 Br1 3.443956 1_555
Ba4 N1 2.832121 1_546
Ba4 N1 2.832121 1_456
Ba4 N2 2.845285 1_555
Ba4 Cl0 3.438004 1_556
Ba4 Br0 3.449175 1_455
Ba4 Br0 3.449175 1_545
Ba5 N0 2.831345 1_665
Ba5 N2 2.831549 1_565
Ba5 N2 2.831549 1_655
Ba5 Br1 3.453250 1_565
Ba5 Br1 3.453250 1_655
Ba5 Br0 3.454484 1_555
