# generated using pymatgen
data_NaSrP
_symmetry_space_group_name_H-M   'P 1'
_cell_length_a   7.66479957
_cell_length_b   7.66479908
_cell_length_c   4.48604454
_cell_angle_alpha   90.00000000
_cell_angle_beta   90.00000000
_cell_angle_gamma   119.99999335
_symmetry_Int_Tables_number   1
_chemical_formula_structural   NaSrP
_chemical_formula_sum   'Na3 Sr3 P3'
_cell_volume   228.24213439
_cell_formula_units_Z   3
loop_
 _symmetry_equiv_pos_site_id
 _symmetry_equiv_pos_as_xyz
  1  'x, y, z'
loop_
 _atom_site_type_symbol
 _atom_site_label
 _atom_site_symmetry_multiplicity
 _atom_site_fract_x
 _atom_site_fract_y
 _atom_site_fract_z
 _atom_site_occupancy
  Na  Na0  1  0.75833195  0.00000000  0.00000000  1
  Na  Na1  1  0.24166805  0.24166805  0.00000000  1
  Na  Na2  1  0.00000000  0.75833195  -0.00000000  1
  Sr  Sr0  1  -0.00000000  0.41479077  0.50000000  1
  Sr  Sr1  1  0.41479077  -0.00000000  0.50000000  1
  Sr  Sr2  1  0.58520923  0.58520923  0.50000000  1
  P  P0  1  0.33333300  0.66666700  0.00000000  1
  P  P1  1  0.00000000  0.00000000  0.50000000  1
  P  P2  1  0.66666700  0.33333300  -0.00000000  1
loop_
_geom_bond_atom_site_label_1
_geom_bond_atom_site_label_2
_geom_bond_distance
_geom_bond_site_symmetry_2
Na0 P1 2.909004 1_654
Na0 P1 2.909004 1_655
Na0 P2 2.969240 1_555
Na0 P0 2.969245 1_545
Na1 P1 2.909004 1_554
Na1 P1 2.909004 1_555
Na1 P0 2.969247 1_555
Na1 P2 2.969248 1_555
Na2 P1 2.909004 1_565
Na2 P1 2.909004 1_564
Na2 P0 2.969240 1_555
Na2 P2 2.969245 1_455
P0 Sr1 3.217678 1_564
P0 Sr1 3.217678 1_565
P0 Sr0 3.217680 1_554
P0 Sr0 3.217680 1_555
P0 Sr2 3.217683 1_554
P0 Sr2 3.217683 1_555
P1 Sr0 3.179288 1_555
P1 Sr1 3.179288 1_555
P1 Sr2 3.179288 1_445
P2 Sr0 3.217678 1_654
P2 Sr0 3.217678 1_655
P2 Sr1 3.217680 1_555
P2 Sr1 3.217680 1_554
P2 Sr2 3.217683 1_555
P2 Sr2 3.217683 1_554
