# generated using pymatgen
data_Mg2VNi3S8
_symmetry_space_group_name_H-M   'P 1'
_cell_length_a   7.08663941
_cell_length_b   7.03231146
_cell_length_c   7.07846508
_cell_angle_alpha   59.71063838
_cell_angle_beta   59.96651249
_cell_angle_gamma   59.77144735
_symmetry_Int_Tables_number   1
_chemical_formula_structural   Mg2VNi3S8
_chemical_formula_sum   'Mg2 V1 Ni3 S8'
_cell_volume   248.39456927
_cell_formula_units_Z   1
loop_
 _symmetry_equiv_pos_site_id
 _symmetry_equiv_pos_as_xyz
  1  'x, y, z'
loop_
 _atom_site_type_symbol
 _atom_site_label
 _atom_site_symmetry_multiplicity
 _atom_site_fract_x
 _atom_site_fract_y
 _atom_site_fract_z
 _atom_site_occupancy
  Mg  Mg0  1  0.87463800  0.87650100  0.87428600  1
  Mg  Mg1  1  0.12536300  0.12350100  0.12571500  1
  V  V0  1  0.50000100  0.99999200  0.50001200  1
  Ni  Ni0  1  0.50000100  0.50001500  0.49998100  1
  Ni  Ni1  1  0.50000200  0.49999300  0.00000000  1
  Ni  Ni2  1  0.99999700  0.49999400  0.50001000  1
  S  S0  1  0.73679900  0.73177700  0.73656300  1
  S  S1  1  0.26332500  0.26845800  0.70494200  1
  S  S2  1  0.26746600  0.69747500  0.26759400  1
  S  S3  1  0.70521700  0.26812800  0.26344200  1
  S  S4  1  0.73252100  0.30252700  0.73239500  1
  S  S5  1  0.29478400  0.73186400  0.73655700  1
  S  S6  1  0.26320000  0.26821900  0.26344600  1
  S  S7  1  0.73668900  0.73155100  0.29505700  1
loop_
_geom_bond_atom_site_label_1
_geom_bond_atom_site_label_2
_geom_bond_distance
_geom_bond_site_symmetry_2
Mg0 S7 2.427325 1_556
Mg0 S5 2.428032 1_655
Mg0 S0 2.428046 1_555
Mg0 S4 2.436775 1_565
Mg1 S1 2.427336 1_554
Mg1 S3 2.428032 1_455
Mg1 S6 2.428046 1_555
Mg1 S2 2.436775 1_545
Ni0 S2 2.335563 1_555
Ni0 S4 2.335604 1_555
Ni0 S7 2.345337 1_555
Ni0 S1 2.345359 1_555
Ni0 S5 2.346573 1_555
Ni0 S3 2.346575 1_555
Ni1 S4 2.335938 1_554
Ni1 S2 2.335952 1_555
Ni1 S6 2.346428 1_555
Ni1 S0 2.346445 1_554
Ni1 S3 2.347516 1_555
Ni1 S5 2.347535 1_554
Ni2 S4 2.334980 1_555
Ni2 S2 2.335005 1_655
Ni2 S0 2.346293 1_555
Ni2 S6 2.346312 1_655
Ni2 S7 2.346371 1_555
Ni2 S1 2.346382 1_655
S0 V0 2.370058 1_555
S1 V0 2.370731 1_545
S3 V0 2.369156 1_545
S5 V0 2.369119 1_555
S6 V0 2.370149 1_545
S7 V0 2.370716 1_555
