# generated using pymatgen
data_Fe2Pb3WO9
_symmetry_space_group_name_H-M   'P 1'
_cell_length_a   5.68675002
_cell_length_b   5.68682497
_cell_length_c   6.98360807
_cell_angle_alpha   90.00251535
_cell_angle_beta   90.00002323
_cell_angle_gamma   60.00106944
_symmetry_Int_Tables_number   1
_chemical_formula_structural   Fe2Pb3WO9
_chemical_formula_sum   'Fe2 Pb3 W1 O9'
_cell_volume   195.59113595
_cell_formula_units_Z   1
loop_
 _symmetry_equiv_pos_site_id
 _symmetry_equiv_pos_as_xyz
  1  'x, y, z'
loop_
 _atom_site_type_symbol
 _atom_site_label
 _atom_site_symmetry_multiplicity
 _atom_site_fract_x
 _atom_site_fract_y
 _atom_site_fract_z
 _atom_site_occupancy
  Fe  Fe0  1  0.66667000  0.66664800  0.16665500  1
  Fe  Fe1  1  0.99998400  0.00001300  0.49999300  1
  Pb  Pb0  1  0.33318500  0.33321400  0.33340100  1
  Pb  Pb1  1  0.66665700  0.66668300  0.62333800  1
  Pb  Pb2  1  0.00007300  0.00000000  0.04332900  1
  W  W0  1  0.33337700  0.33339600  0.83335100  1
  O  O0  1  0.33334000  0.83335000  0.33334100  1
  O  O1  1  0.83331700  0.83333800  0.33332800  1
  O  O2  1  0.83338400  0.33335800  0.33331600  1
  O  O3  1  0.65578400  0.17208100  0.67005700  1
  O  O4  1  0.01089800  0.49454100  0.99662100  1
  O  O5  1  0.17213500  0.17212600  0.67003700  1
  O  O6  1  0.49455400  0.49457300  0.99657700  1
  O  O7  1  0.17213300  0.65575800  0.67004900  1
  O  O8  1  0.49451100  0.01092000  0.99660900  1
loop_
_geom_bond_atom_site_label_1
_geom_bond_atom_site_label_2
_geom_bond_distance
_geom_bond_site_symmetry_2
Fe0 O2 2.012263 1_555
Fe0 O1 2.012397 1_555
Fe0 O0 2.012435 1_555
Fe0 O4 2.069775 1_654
Fe0 O6 2.069788 1_554
Fe0 O8 2.070092 1_564
Fe1 O1 2.012385 1_545
Fe1 O0 2.012402 1_645
Fe1 O2 2.012548 1_555
Fe1 O3 2.069782 1_555
Fe1 O5 2.069946 1_655
Fe1 O7 2.070064 1_645
O0 Pb2 2.606922 1_565
O0 Pb1 2.606995 1_555
O0 Pb0 2.842198 1_565
O0 Pb0 2.844627 1_555
O1 Pb1 2.607051 1_555
O1 Pb2 2.607310 1_665
O1 Pb0 2.843417 1_655
O1 Pb0 2.843463 1_565
O2 Pb2 2.606986 1_655
O2 Pb1 2.607073 1_555
O2 Pb0 2.841834 1_655
O2 Pb0 2.844916 1_555
O3 W0 1.954887 1_555
O3 Pb0 2.837594 1_555
O4 W0 1.955077 1_555
O4 Pb0 2.837452 1_556
O5 W0 1.955375 1_555
O5 Pb0 2.836200 1_555
O6 W0 1.954385 1_555
O6 Pb0 2.838914 1_556
O7 W0 1.954826 1_555
O7 Pb0 2.837309 1_555
O8 W0 1.955103 1_555
O8 Pb0 2.837453 1_556
