# generated using pymatgen
data_Tb2Si5Ir3
_symmetry_space_group_name_H-M   'P 1'
_cell_length_a   8.15406364
_cell_length_b   8.15406364
_cell_length_c   8.15406364
_cell_angle_alpha   137.99035181
_cell_angle_beta   104.53171630
_cell_angle_gamma   90.34675470
_symmetry_Int_Tables_number   1
_chemical_formula_structural   Tb2Si5Ir3
_chemical_formula_sum   'Tb4 Si10 Ir6'
_cell_volume   335.36970146
_cell_formula_units_Z   2
loop_
 _symmetry_equiv_pos_site_id
 _symmetry_equiv_pos_as_xyz
  1  'x, y, z'
loop_
 _atom_site_type_symbol
 _atom_site_label
 _atom_site_symmetry_multiplicity
 _atom_site_fract_x
 _atom_site_fract_y
 _atom_site_fract_z
 _atom_site_occupancy
  Tb  Tb0  1  0.40154400  0.63093300  0.77061100  1
  Tb  Tb1  1  0.59845600  0.36906700  0.22938900  1
  Tb  Tb2  1  0.13967800  0.86906700  0.27061100  1
  Tb  Tb3  1  0.86032200  0.13093300  0.72938900  1
  Si  Si0  1  0.73839500  0.89411200  0.84428400  1
  Si  Si1  1  0.26160500  0.10588800  0.15571600  1
  Si  Si2  1  0.95017200  0.60588800  0.34428400  1
  Si  Si3  1  0.04982800  0.39411200  0.65571600  1
  Si  Si4  1  0.22554400  0.97554400  0.75000000  1
  Si  Si5  1  0.77445600  0.52445600  0.75000000  1
  Si  Si6  1  0.77445600  0.02445600  0.25000000  1
  Si  Si7  1  0.22554400  0.47554400  0.25000000  1
  Si  Si8  1  0.50000000  0.75000000  0.25000000  1
  Si  Si9  1  0.50000000  0.25000000  0.75000000  1
  Ir  Ir0  1  0.00000000  0.75000000  0.75000000  1
  Ir  Ir1  1  0.00000000  0.25000000  0.25000000  1
  Ir  Ir2  1  0.47327000  0.86015200  0.61311700  1
  Ir  Ir3  1  0.52673000  0.13984800  0.38688300  1
  Ir  Ir4  1  0.75296500  0.63984800  0.11311700  1
  Ir  Ir5  1  0.24703500  0.36015200  0.88688300  1
loop_
_geom_bond_atom_site_label_1
_geom_bond_atom_site_label_2
_geom_bond_distance
_geom_bond_site_symmetry_2
Si0 Si6 2.538383 1_566
Si0 Si5 2.538387 1_555
Si0 Tb3 2.954281 1_565
Si0 Tb0 3.113732 1_555
Si0 Tb1 3.152866 1_566
Si0 Tb1 3.152872 1_555
Si1 Si4 2.538383 1_544
Si1 Si7 2.538387 1_555
Si1 Tb2 2.954281 1_545
Si1 Tb1 3.113732 1_555
Si1 Tb0 3.152866 1_544
Si1 Tb0 3.152872 1_555
Si2 Si7 2.538385 1_655
Si2 Si4 2.538385 1_655
Si2 Tb1 2.954277 1_555
Si2 Tb2 3.113738 1_655
Si2 Tb3 3.152871 1_554
Si2 Tb3 3.152871 1_565
Si3 Si5 2.538385 1_455
Si3 Si6 2.538385 1_455
Si3 Tb0 2.954277 1_555
Si3 Tb3 3.113738 1_455
Si3 Tb2 3.152871 1_556
Si3 Tb2 3.152871 1_545
Si4 Tb2 3.178014 1_555
Si4 Tb1 3.178014 1_566
Si4 Tb3 3.257816 1_465
Si4 Tb0 3.257816 1_555
Si5 Tb0 3.178014 1_555
Si5 Tb3 3.178014 1_555
Si5 Tb1 3.257816 1_555
Si5 Tb2 3.257816 1_656
Si6 Tb0 3.178014 1_544
Si6 Tb3 3.178014 1_555
Si6 Tb2 3.257816 1_645
Si6 Tb1 3.257816 1_555
Si7 Tb2 3.178014 1_555
Si7 Tb1 3.178014 1_555
Si7 Tb3 3.257816 1_454
Si7 Tb0 3.257816 1_555
Si8 Tb0 3.105328 1_554
Si8 Tb3 3.105328 1_565
Si8 Tb1 3.105328 1_555
Si8 Tb2 3.105328 1_555
Si9 Tb0 3.105328 1_555
Si9 Tb3 3.105328 1_555
Si9 Tb2 3.105328 1_545
Si9 Tb1 3.105328 1_556
Ir0 Si3 2.456209 1_555
Ir0 Si2 2.456209 1_455
Ir0 Si1 2.456213 1_566
Ir0 Si0 2.456217 1_455
Ir0 Si5 2.592998 1_455
Ir0 Si4 2.592998 1_555
Ir0 Tb2 3.419963 1_556
Ir0 Tb1 3.419963 1_455
Ir0 Tb3 3.419963 1_465
Ir0 Tb0 3.419963 1_555
Ir1 Si3 2.456209 1_555
Ir1 Si2 2.456209 1_455
Ir1 Si0 2.456213 1_444
Ir1 Si1 2.456217 1_555
Ir1 Si6 2.592998 1_455
Ir1 Si7 2.592998 1_555
Ir1 Tb2 3.419963 1_545
Ir1 Tb1 3.419963 1_455
Ir1 Tb3 3.419963 1_454
Ir1 Tb0 3.419963 1_555
Ir2 Si0 2.339963 1_555
Ir2 Si7 2.409389 1_555
Ir2 Si4 2.409393 1_555
Ir2 Si8 2.448511 1_555
Ir2 Si9 2.448514 1_565
Ir2 Tb0 3.068443 1_555
Ir2 Tb1 3.146407 1_555
Ir2 Tb1 3.146412 1_566
Ir2 Tb3 3.322323 1_565
Ir2 Tb2 3.419939 1_555
Ir3 Si1 2.339963 1_555
Ir3 Si5 2.409389 1_555
Ir3 Si6 2.409393 1_555
Ir3 Si9 2.448511 1_555
Ir3 Si8 2.448514 1_545
Ir3 Tb1 3.068443 1_555
Ir3 Tb0 3.146407 1_555
Ir3 Tb0 3.146412 1_544
Ir3 Tb2 3.322323 1_545
Ir3 Tb3 3.419939 1_555
Ir4 Si2 2.339975 1_555
Ir4 Si6 2.409385 1_565
Ir4 Si5 2.409385 1_554
Ir4 Si9 2.448514 1_554
Ir4 Si8 2.448514 1_555
Ir4 Tb2 3.068441 1_655
Ir4 Tb3 3.146411 1_565
Ir4 Tb3 3.146411 1_554
Ir4 Tb1 3.322330 1_555
Ir4 Tb0 3.419934 1_554
Ir5 Si3 2.339975 1_555
Ir5 Si7 2.409385 1_556
Ir5 Si4 2.409385 1_545
Ir5 Si8 2.448514 1_556
Ir5 Si9 2.448514 1_555
Ir5 Tb3 3.068441 1_455
Ir5 Tb2 3.146411 1_545
Ir5 Tb2 3.146411 1_556
Ir5 Tb0 3.322330 1_555
Ir5 Tb1 3.419934 1_556
