# generated using pymatgen
data_Co3(PO5)2
_symmetry_space_group_name_H-M   'P 1'
_cell_length_a   7.56132500
_cell_length_b   7.15361300
_cell_length_c   7.29709424
_cell_angle_alpha   61.49563484
_cell_angle_beta   90.00000000
_cell_angle_gamma   90.00000000
_symmetry_Int_Tables_number   1
_chemical_formula_structural   Co3(PO5)2
_chemical_formula_sum   'Co6 P4 O20'
_cell_volume   346.85969712
_cell_formula_units_Z   2
loop_
 _symmetry_equiv_pos_site_id
 _symmetry_equiv_pos_as_xyz
  1  'x, y, z'
loop_
 _atom_site_type_symbol
 _atom_site_label
 _atom_site_symmetry_multiplicity
 _atom_site_fract_x
 _atom_site_fract_y
 _atom_site_fract_z
 _atom_site_occupancy
  Co  Co0  1  0.78153700  0.76147800  0.52946200  1
  Co  Co1  1  0.71846300  0.76147800  0.02946200  1
  Co  Co2  1  0.21846300  0.23852200  0.47053800  1
  Co  Co3  1  0.28153700  0.23852200  0.97053800  1
  Co  Co4  1  0.50000000  0.50000000  0.50000000  1
  Co  Co5  1  0.00000000  0.50000000  0.00000000  1
  P  P0  1  0.61409100  0.24483400  0.25397000  1
  P  P1  1  0.88590900  0.24483400  0.75397000  1
  P  P2  1  0.38590900  0.75516600  0.74603000  1
  P  P3  1  0.11409100  0.75516600  0.24603000  1
  O  O0  1  0.49956400  0.18430400  0.11822700  1
  O  O1  1  0.00043600  0.18430400  0.61822700  1
  O  O2  1  0.50043600  0.81569600  0.88177300  1
  O  O3  1  0.99956400  0.81569600  0.38177300  1
  O  O4  1  0.98396500  0.68367300  0.12145100  1
  O  O5  1  0.51603500  0.68367300  0.62145100  1
  O  O6  1  0.01603500  0.31632700  0.87854900  1
  O  O7  1  0.48396500  0.31632700  0.37854900  1
  O  O8  1  0.72610800  0.05796500  0.40596300  1
  O  O9  1  0.77389200  0.05796500  0.90596300  1
  O  O10  1  0.27389200  0.94203500  0.59403700  1
  O  O11  1  0.22610800  0.94203500  0.09403700  1
  O  O12  1  0.23443200  0.56276100  0.37760000  1
  O  O13  1  0.26556800  0.56276100  0.87760000  1
  O  O14  1  0.76556800  0.43723900  0.62240000  1
  O  O15  1  0.73443200  0.43723900  0.12240000  1
  O  O16  1  0.13471900  0.29057300  0.21165200  1
  O  O17  1  0.36528100  0.29057300  0.71165200  1
  O  O18  1  0.86528100  0.70942700  0.78834800  1
  O  O19  1  0.63471900  0.70942700  0.28834800  1
loop_
_geom_bond_atom_site_label_1
_geom_bond_atom_site_label_2
_geom_bond_distance
_geom_bond_site_symmetry_2
Co0 O18 1.853912 1_555
Co0 O3 1.905442 1_555
Co0 O8 1.913616 1_565
Co0 O14 2.086414 1_555
Co0 O5 2.105711 1_555
Co0 O19 2.256533 1_555
Co1 O19 1.853912 1_555
Co1 O2 1.905442 1_554
Co1 O9 1.913616 1_564
Co1 O15 2.086414 1_555
Co1 O4 2.105711 1_555
Co1 O18 2.256533 1_554
Co2 O16 1.853912 1_555
Co2 O1 1.905442 1_555
Co2 O10 1.913616 1_545
Co2 O12 2.086414 1_555
Co2 O7 2.105711 1_555
Co2 O17 2.256533 1_555
Co3 O17 1.853912 1_555
Co3 O0 1.905442 1_556
Co3 O11 1.913616 1_546
Co3 O13 2.086414 1_555
Co3 O6 2.105711 1_555
Co3 O16 2.256533 1_556
Co4 O17 1.859843 1_555
Co4 O19 1.859843 1_555
Co4 O7 1.907337 1_555
Co4 O5 1.907337 1_555
Co4 O14 2.156114 1_555
Co4 O12 2.156114 1_555
Co5 O16 1.859843 1_555
Co5 O18 1.859843 1_454
Co5 O6 1.907337 1_554
Co5 O4 1.907337 1_455
Co5 O13 2.156114 1_554
Co5 O15 2.156114 1_455
O0 P0 1.525756 1_555
O1 P1 1.525756 1_455
O2 P2 1.525756 1_555
O3 P3 1.525756 1_655
O4 P3 1.581082 1_655
O5 P2 1.581082 1_555
O6 P1 1.581082 1_455
O7 P0 1.581082 1_555
O8 P0 1.522963 1_555
O9 P1 1.522963 1_555
O10 P2 1.522963 1_555
O11 P3 1.522963 1_555
O12 P3 1.543676 1_555
O13 P2 1.543676 1_555
O14 P1 1.543676 1_555
O15 P0 1.543676 1_555
