# generated using pymatgen
data_K3Na5V2(Mo3O10)2
_symmetry_space_group_name_H-M   'P 1'
_cell_length_a   11.40444608
_cell_length_b   11.70033874
_cell_length_c   17.12190290
_cell_angle_alpha   110.15017520
_cell_angle_beta   109.05116582
_cell_angle_gamma   89.93220608
_symmetry_Int_Tables_number   1
_chemical_formula_structural   K3Na5V2(Mo3O10)2
_chemical_formula_sum   'K12 Na20 V8 Mo24 O80'
_cell_volume   2011.36104922
_cell_formula_units_Z   4
loop_
 _symmetry_equiv_pos_site_id
 _symmetry_equiv_pos_as_xyz
  1  'x, y, z'
loop_
 _atom_site_type_symbol
 _atom_site_label
 _atom_site_symmetry_multiplicity
 _atom_site_fract_x
 _atom_site_fract_y
 _atom_site_fract_z
 _atom_site_occupancy
  K  K0  1  0.30358200  0.06525700  0.10853600  1
  K  K1  1  0.30366700  0.56170600  0.10872900  1
  K  K2  1  0.80237700  0.06479900  0.10918000  1
  K  K3  1  0.80188300  0.56353700  0.10823600  1
  K  K4  1  0.19940900  0.93577200  0.39676100  1
  K  K5  1  0.18724700  0.92229100  0.87531300  1
  K  K6  1  0.68773000  0.42291800  0.87494100  1
  K  K7  1  0.05398200  0.29580300  0.10849800  1
  K  K8  1  0.05157200  0.79278600  0.10692900  1
  K  K9  1  0.55303800  0.29488500  0.10885900  1
  K  K10  1  0.55434500  0.79450100  0.10831800  1
  K  K11  1  0.93697000  0.70104800  0.87513700  1
  Na  Na0  1  0.30931500  0.07211800  0.61164500  1
  Na  Na1  1  0.30959000  0.57066800  0.61047900  1
  Na  Na2  1  0.80908300  0.07010100  0.60978700  1
  Na  Na3  1  0.80814400  0.56997400  0.60803200  1
  Na  Na4  1  0.19967800  0.43707500  0.40537300  1
  Na  Na5  1  0.19847000  0.42815500  0.88687200  1
  Na  Na6  1  0.69894100  0.43672400  0.40478700  1
  Na  Na7  1  0.69912400  0.93646200  0.40471800  1
  Na  Na8  1  0.69863400  0.92916800  0.88727900  1
  Na  Na9  1  0.05847500  0.28881500  0.60912200  1
  Na  Na10  1  0.05919700  0.78866900  0.60839200  1
  Na  Na11  1  0.55890600  0.28854500  0.60826100  1
  Na  Na12  1  0.55897700  0.78871800  0.60942500  1
  Na  Na13  1  0.44930000  0.21838800  0.40547800  1
  Na  Na14  1  0.44785900  0.20833800  0.88746600  1
  Na  Na15  1  0.44833900  0.71841200  0.40480600  1
  Na  Na16  1  0.44947000  0.70879000  0.88753500  1
  Na  Na17  1  0.94937400  0.21865300  0.40549400  1
  Na  Na18  1  0.94866800  0.20852100  0.88778400  1
  Na  Na19  1  0.94885300  0.71736300  0.40497200  1
  V  V0  1  0.10081100  0.08671900  0.74470800  1
  V  V1  1  0.10526300  0.57771200  0.74283800  1
  V  V2  1  0.60174000  0.08083300  0.74611300  1
  V  V3  1  0.59965100  0.58626600  0.74432800  1
  V  V4  1  0.35219900  0.41195600  0.74788600  1
  V  V5  1  0.35431500  0.91275200  0.74468700  1
  V  V6  1  0.85361000  0.40715500  0.74107600  1
  V  V7  1  0.84942000  0.91601500  0.74595200  1
  Mo  Mo0  1  0.00075700  0.99721400  0.99234600  1
  Mo  Mo1  1  0.01121900  0.00243800  0.50609400  1
  Mo  Mo2  1  0.99985600  0.49444000  0.99017700  1
  Mo  Mo3  1  0.01268200  0.50170200  0.50450600  1
  Mo  Mo4  1  0.49959900  0.99448700  0.98918600  1
  Mo  Mo5  1  0.51297400  0.00245200  0.50583700  1
  Mo  Mo6  1  0.49970900  0.49466700  0.99061000  1
  Mo  Mo7  1  0.51210200  0.50198900  0.50454500  1
  Mo  Mo8  1  0.25035900  0.24542900  0.98992200  1
  Mo  Mo9  1  0.26311200  0.25528900  0.50711500  1
  Mo  Mo10  1  0.25082300  0.74343700  0.99028300  1
  Mo  Mo11  1  0.26302800  0.75187100  0.50560800  1
  Mo  Mo12  1  0.75063400  0.24396600  0.99063700  1
  Mo  Mo13  1  0.76188800  0.25169500  0.50340000  1
  Mo  Mo14  1  0.74986000  0.74654200  0.99157100  1
  Mo  Mo15  1  0.76215600  0.75316600  0.50488500  1
  Mo  Mo16  1  0.09664200  0.10414400  0.25753100  1
  Mo  Mo17  1  0.09618700  0.59210400  0.25662900  1
  Mo  Mo18  1  0.59904700  0.10125100  0.25806500  1
  Mo  Mo19  1  0.59769000  0.59892800  0.25882100  1
  Mo  Mo20  1  0.34875200  0.40950700  0.25916800  1
  Mo  Mo21  1  0.35242900  0.90951100  0.25411200  1
  Mo  Mo22  1  0.84711700  0.40913600  0.25886400  1
  Mo  Mo23  1  0.84578900  0.91097000  0.25956300  1
  O  O0  1  0.12749400  0.12689300  0.49424100  1
  O  O1  1  0.11876200  0.11798900  0.98023700  1
  O  O2  1  0.12806500  0.61944500  0.48826000  1
  O  O3  1  0.12125200  0.61133600  0.97876200  1
  O  O4  1  0.62709000  0.11973600  0.48694400  1
  O  O5  1  0.61848200  0.11102400  0.97508600  1
  O  O6  1  0.62777000  0.62051000  0.48753500  1
  O  O7  1  0.61730800  0.61693000  0.97987100  1
  O  O8  1  0.12819700  0.37372900  0.99754700  1
  O  O9  1  0.14706100  0.38859600  0.52343300  1
  O  O10  1  0.13052000  0.87526300  0.00327300  1
  O  O11  1  0.14527700  0.88541400  0.52456000  1
  O  O12  1  0.62821200  0.37254900  0.00132600  1
  O  O13  1  0.64601900  0.38648700  0.52186800  1
  O  O14  1  0.62806000  0.87428800  0.99806500  1
  O  O15  1  0.64595600  0.88684300  0.52213100  1
  O  O16  1  0.38185400  0.12321500  0.49311400  1
  O  O17  1  0.37087100  0.11583800  0.97775200  1
  O  O18  1  0.37844800  0.61714300  0.48906000  1
  O  O19  1  0.36786900  0.61164300  0.97437900  1
  O  O20  1  0.87555900  0.11589100  0.48525500  1
  O  O21  1  0.86895100  0.11392700  0.97720200  1
  O  O22  1  0.87786100  0.61803100  0.48812000  1
  O  O23  1  0.86985500  0.61575100  0.98269100  1
  O  O24  1  0.37812200  0.37560200  0.99869500  1
  O  O25  1  0.39639000  0.38752700  0.52347400  1
  O  O26  1  0.38041600  0.87357500  0.99977100  1
  O  O27  1  0.39778900  0.88612800  0.52461900  1
  O  O28  1  0.88085500  0.37359400  0.00046600  1
  O  O29  1  0.89620000  0.38521500  0.52187100  1
  O  O30  1  0.87746300  0.87900700  0.00152400  1
  O  O31  1  0.89558300  0.88701000  0.52340700  1
  O  O32  1  0.07284800  0.08998100  0.13724500  1
  O  O33  1  0.07704200  0.11131900  0.64409200  1
  O  O34  1  0.07552800  0.58495600  0.13907000  1
  O  O35  1  0.08697300  0.60694200  0.64407500  1
  O  O36  1  0.57618300  0.08552800  0.13785400  1
  O  O37  1  0.58416800  0.10607400  0.64580500  1
  O  O38  1  0.57421900  0.58558000  0.13899900  1
  O  O39  1  0.57786800  0.61061700  0.64379600  1
  O  O40  1  0.45921300  0.38894200  0.36432100  1
  O  O41  1  0.43168100  0.39403100  0.85040600  1
  O  O42  1  0.45267600  0.89232300  0.36422500  1
  O  O43  1  0.42912600  0.89649000  0.84848600  1
  O  O44  1  0.95861300  0.38867300  0.36372600  1
  O  O45  1  0.92872100  0.40017700  0.84826500  1
  O  O46  1  0.95146900  0.88946600  0.36549900  1
  O  O47  1  0.93085500  0.90711700  0.85068100  1
  O  O48  1  0.32634000  0.30512900  0.13861000  1
  O  O49  1  0.33421800  0.29008000  0.64617400  1
  O  O50  1  0.33159300  0.79738000  0.13716800  1
  O  O51  1  0.33610100  0.78731800  0.64467500  1
  O  O52  1  0.82555400  0.30290500  0.13914600  1
  O  O53  1  0.83187100  0.28027600  0.64157200  1
  O  O54  1  0.82437600  0.80493100  0.13976000  1
  O  O55  1  0.83171300  0.79001600  0.64525500  1
  O  O56  1  0.20736900  0.22400600  0.36600000  1
  O  O57  1  0.18309600  0.20200800  0.84966400  1
  O  O58  1  0.21193800  0.70903600  0.36456400  1
  O  O59  1  0.18050100  0.69114400  0.84908300  1
  O  O60  1  0.71002300  0.22586500  0.36366100  1
  O  O61  1  0.68590500  0.19377500  0.85037500  1
  O  O62  1  0.70834500  0.72461000  0.36463100  1
  O  O63  1  0.67996200  0.70160400  0.85018200  1
  O  O64  1  0.43989800  0.07044600  0.27011900  1
  O  O65  1  0.43849400  0.05246000  0.74660400  1
  O  O66  1  0.43771200  0.56740400  0.27013100  1
  O  O67  1  0.43897700  0.54929600  0.74756600  1
  O  O68  1  0.93973700  0.06658300  0.27022200  1
  O  O69  1  0.93817700  0.05218500  0.74610000  1
  O  O70  1  0.93569700  0.56643300  0.26877700  1
  O  O71  1  0.94014300  0.53574200  0.73268500  1
  O  O72  1  0.18741200  0.44719300  0.26975200  1
  O  O73  1  0.18766100  0.43930100  0.74493300  1
  O  O74  1  0.18950400  0.95644600  0.25351500  1
  O  O75  1  0.18926800  0.94957100  0.73504100  1
  O  O76  1  0.68690100  0.45223100  0.27011000  1
  O  O77  1  0.69135000  0.45101700  0.73454700  1
  O  O78  1  0.68513900  0.95312000  0.26929400  1
  O  O79  1  0.68461500  0.94144300  0.74479600  1
loop_
_geom_bond_atom_site_label_1
_geom_bond_atom_site_label_2
_geom_bond_distance
_geom_bond_site_symmetry_2
K0 O10 2.648251 1_545
K0 O48 2.669873 1_555
K0 O64 2.674195 1_555
K0 O26 2.729260 1_544
K0 O1 2.748992 1_554
K0 O17 2.826553 1_554
K0 O32 2.827398 1_555
K0 O36 2.978959 1_555
K1 O50 2.630194 1_555
K1 O66 2.663412 1_555
K1 O8 2.665458 1_554
K1 O24 2.688018 1_554
K1 O3 2.735355 1_554
K1 O34 2.810083 1_555
K1 O19 2.862783 1_554
K1 O38 2.953854 1_555
K1 O48 3.211048 1_555
K2 O52 2.650072 1_555
K2 O30 2.668679 1_545
K2 O14 2.675802 1_544
K2 O68 2.682901 1_555
K2 O5 2.769772 1_554
K2 O36 2.774446 1_555
K2 O21 2.833573 1_554
K2 O32 2.961297 1_655
K2 O54 3.254421 1_545
K3 O70 2.661436 1_555
K3 O12 2.663191 1_555
K3 O54 2.682414 1_555
K3 O28 2.722114 1_555
K3 O7 2.752156 1_554
K3 O23 2.754718 1_554
K3 O38 2.807625 1_555
K3 O34 2.985942 1_655
K3 O52 3.266346 1_555
K4 O74 2.512877 1_555
K4 O58 2.530824 1_555
K4 O0 2.603217 1_565
K4 O16 2.671694 1_565
K4 O11 2.699505 1_555
K4 O46 2.718682 1_455
K4 O27 2.808563 1_555
K4 O42 3.124627 1_555
K5 O75 2.536730 1_555
K5 O59 2.581287 1_555
K5 O1 2.675445 1_565
K5 O10 2.697804 1_556
K5 O17 2.732555 1_565
K5 O26 2.736461 1_555
K5 O47 2.811370 1_455
K5 O43 2.939571 1_555
K6 O77 2.549002 1_555
K6 O61 2.565709 1_555
K6 O7 2.674613 1_555
K6 O12 2.707248 1_556
K6 O23 2.729455 1_555
K6 O28 2.750357 1_556
K6 O41 2.814493 1_555
K6 O45 2.926940 1_555
K7 O32 2.614231 1_555
K7 O28 2.630528 1_455
K7 O72 2.640133 1_555
K7 O8 2.720534 1_554
K7 O1 2.757654 1_554
K7 O21 2.766375 1_454
K7 O52 2.816144 1_455
K7 O48 2.973571 1_555
K7 O34 3.237010 1_555
K8 O74 2.561058 1_555
K8 O34 2.666984 1_555
K8 O10 2.667765 1_555
K8 O30 2.669768 1_455
K8 O23 2.684557 1_454
K8 O3 2.806959 1_554
K8 O54 2.818622 1_455
K8 O50 3.061231 1_555
K9 O36 2.658416 1_555
K9 O76 2.663782 1_555
K9 O12 2.671257 1_555
K9 O24 2.682448 1_554
K9 O17 2.733069 1_554
K9 O48 2.788353 1_555
K9 O5 2.854554 1_554
K9 O52 2.975190 1_555
K9 O38 3.256426 1_555
K10 O26 2.649212 1_554
K10 O78 2.657901 1_555
K10 O38 2.666142 1_555
K10 O14 2.719157 1_554
K10 O50 2.739729 1_555
K10 O7 2.747413 1_554
K10 O19 2.793891 1_554
K10 O54 2.943075 1_555
K10 O36 3.262815 1_565
K11 O71 2.549206 1_555
K11 O47 2.582559 1_555
K11 O23 2.676058 1_555
K11 O30 2.707380 1_556
K11 O3 2.740483 1_655
K11 O10 2.758391 1_656
K11 O63 2.820969 1_555
K11 O59 2.949316 1_655
Na0 O65 2.388693 1_555
Na0 O49 2.405660 1_555
Na0 O11 2.537640 1_545
Na0 O27 2.591568 1_545
Na0 O0 2.629554 1_555
Na0 O16 2.663404 1_555
Na0 O33 2.884131 1_555
Na0 O37 2.995215 1_555
Na1 O51 2.392392 1_555
Na1 O67 2.427272 1_555
Na1 O9 2.492704 1_555
Na1 O25 2.559130 1_555
Na1 O2 2.642416 1_555
Na1 O18 2.660812 1_555
Na1 O35 2.781956 1_555
Na1 O39 2.930034 1_555
Na2 O53 2.323385 1_555
Na2 O69 2.398305 1_555
Na2 O15 2.506104 1_545
Na2 O31 2.552313 1_545
Na2 O4 2.656653 1_555
Na2 O20 2.692853 1_555
Na2 O37 2.826329 1_555
Na2 O33 2.924515 1_655
Na3 O71 2.339199 1_555
Na3 O55 2.422013 1_555
Na3 O13 2.500128 1_555
Na3 O29 2.573477 1_555
Na3 O6 2.627676 1_555
Na3 O22 2.650608 1_555
Na3 O39 2.888620 1_555
Na4 O72 2.324432 1_555
Na4 O56 2.357393 1_555
Na4 O2 2.429062 1_555
Na4 O9 2.520031 1_555
Na4 O18 2.582973 1_555
Na4 O44 2.614007 1_455
Na4 O25 2.702026 1_555
Na5 O73 2.441545 1_555
Na5 O57 2.490923 1_555
Na5 O3 2.534031 1_555
Na5 O8 2.542188 1_555
Na5 O24 2.547320 1_555
Na5 O19 2.547589 1_555
Na5 O41 2.921088 1_555
Na5 O45 2.921254 1_455
Na6 O76 2.334643 1_555
Na6 O60 2.336442 1_555
Na6 O6 2.436750 1_555
Na6 O13 2.516126 1_555
Na6 O22 2.593027 1_555
Na6 O40 2.601405 1_555
Na6 O29 2.707014 1_555
Na7 O62 2.345349 1_555
Na7 O78 2.347283 1_555
Na7 O4 2.434374 1_565
Na7 O15 2.519298 1_555
Na7 O20 2.561592 1_565
Na7 O42 2.670490 1_555
Na7 O31 2.705377 1_555
Na8 O79 2.446315 1_555
Na8 O63 2.507184 1_555
Na8 O5 2.512342 1_565
Na8 O14 2.548582 1_555
Na8 O30 2.552227 1_556
Na8 O21 2.565342 1_565
Na8 O47 2.905749 1_555
Na8 O43 2.920510 1_555
Na9 O33 2.342901 1_555
Na9 O73 2.372086 1_555
Na9 O29 2.505984 1_455
Na9 O0 2.552966 1_555
Na9 O9 2.585871 1_555
Na9 O20 2.666198 1_455
Na9 O53 2.823732 1_455
Na10 O75 2.353930 1_555
Na10 O35 2.400354 1_555
Na10 O31 2.509758 1_455
Na10 O11 2.519369 1_555
Na10 O22 2.626884 1_455
Na10 O2 2.648214 1_555
Na10 O55 2.862023 1_455
Na11 O77 2.369239 1_555
Na11 O37 2.424359 1_555
Na11 O25 2.506110 1_555
Na11 O16 2.547328 1_555
Na11 O13 2.572587 1_555
Na11 O4 2.654178 1_555
Na11 O49 2.839996 1_555
Na11 O53 2.983912 1_555
Na12 O39 2.344400 1_555
Na12 O79 2.367035 1_555
Na12 O27 2.485819 1_555
Na12 O15 2.586283 1_555
Na12 O18 2.627829 1_555
Na12 O6 2.660793 1_555
Na12 O51 2.798851 1_555
Na12 O55 2.966343 1_555
Na13 O64 2.335238 1_555
Na13 O40 2.347962 1_555
Na13 O16 2.447408 1_555
Na13 O25 2.529936 1_555
Na13 O4 2.578076 1_555
Na13 O56 2.624208 1_555
Na13 O13 2.695223 1_555
Na14 O65 2.440567 1_555
Na14 O41 2.455532 1_555
Na14 O17 2.524466 1_555
Na14 O24 2.550834 1_555
Na14 O12 2.556098 1_556
Na14 O5 2.568918 1_555
Na14 O57 2.869374 1_555
Na14 O61 2.975275 1_555
Na15 O66 2.337668 1_555
Na15 O42 2.371174 1_555
Na15 O18 2.459847 1_555
Na15 O27 2.527320 1_555
Na15 O58 2.547793 1_555
Na15 O6 2.593458 1_555
Na15 O15 2.706614 1_555
Na16 O67 2.443817 1_555
Na16 O43 2.496616 1_555
Na16 O19 2.537576 1_555
Na16 O14 2.539210 1_555
Na16 O26 2.542073 1_555
Na16 O7 2.551218 1_555
Na16 O63 2.895815 1_555
Na16 O59 2.911141 1_555
Na17 O44 2.347265 1_555
Na17 O68 2.353155 1_555
Na17 O20 2.429716 1_555
Na17 O29 2.499353 1_555
Na17 O0 2.586845 1_655
Na17 O60 2.595371 1_555
Na17 O9 2.717801 1_655
Na18 O69 2.449293 1_555
Na18 O28 2.540471 1_556
Na18 O8 2.540656 1_655
Na18 O21 2.544394 1_555
Na18 O45 2.545942 1_555
Na18 O1 2.556658 1_655
Na18 O61 2.844659 1_555
Na18 O57 2.946852 1_655
Na19 O46 2.337403 1_555
Na19 O70 2.348176 1_555
Na19 O22 2.434681 1_555
Na19 O31 2.539558 1_555
Na19 O2 2.596291 1_655
Na19 O62 2.609705 1_555
Na19 O11 2.705373 1_655
Mo0 O21 2.043582 1_465
Mo0 O30 2.052623 1_456
Mo0 O1 2.059003 1_565
Mo0 O10 2.063774 1_556
Mo0 O47 2.146671 1_455
Mo0 O32 2.196453 1_566
Mo1 O31 2.046028 1_445
Mo1 O20 2.060119 1_455
Mo1 O11 2.071202 1_545
Mo1 O0 2.074579 1_555
Mo1 O33 2.130669 1_555
Mo1 O46 2.178399 1_445
Mo2 O8 2.037229 1_655
Mo2 O3 2.047163 1_655
Mo2 O28 2.050445 1_556
Mo2 O23 2.055589 1_555
Mo2 O45 2.155793 1_555
Mo2 O34 2.251942 1_656
Mo3 O9 2.042404 1_555
Mo3 O2 2.052813 1_555
Mo3 O29 2.062037 1_455
Mo3 O22 2.066855 1_455
Mo3 O35 2.144311 1_555
Mo3 O44 2.185107 1_455
Mo4 O14 2.035760 1_555
Mo4 O5 2.049513 1_565
Mo4 O17 2.051458 1_565
Mo4 O26 2.055173 1_555
Mo4 O43 2.144597 1_555
Mo4 O36 2.249375 1_566
Mo5 O15 2.046093 1_545
Mo5 O27 2.064698 1_545
Mo5 O4 2.065517 1_555
Mo5 O16 2.067466 1_555
Mo5 O37 2.145391 1_555
Mo5 O42 2.184793 1_545
Mo6 O24 2.036023 1_555
Mo6 O19 2.048306 1_555
Mo6 O12 2.055001 1_556
Mo6 O7 2.055633 1_555
Mo6 O41 2.142416 1_555
Mo6 O38 2.244875 1_556
Mo7 O18 2.046067 1_555
Mo7 O13 2.054832 1_555
Mo7 O25 2.054867 1_555
Mo7 O6 2.069144 1_555
Mo7 O39 2.146999 1_555
Mo7 O40 2.178587 1_555
Mo8 O24 2.042080 1_555
Mo8 O1 2.043452 1_555
Mo8 O8 2.047010 1_555
Mo8 O17 2.048343 1_555
Mo8 O57 2.138084 1_555
Mo8 O48 2.248579 1_556
Mo9 O9 2.049088 1_555
Mo9 O25 2.052245 1_555
Mo9 O16 2.056945 1_555
Mo9 O0 2.062119 1_555
Mo9 O49 2.136544 1_555
Mo9 O56 2.182761 1_555
Mo10 O19 2.043760 1_555
Mo10 O26 2.051180 1_555
Mo10 O3 2.053407 1_555
Mo10 O10 2.066083 1_556
Mo10 O59 2.139783 1_555
Mo10 O50 2.228733 1_556
Mo11 O18 2.056379 1_555
Mo11 O2 2.061099 1_555
Mo11 O27 2.064549 1_555
Mo11 O11 2.068871 1_555
Mo11 O51 2.135681 1_555
Mo11 O58 2.161217 1_555
Mo12 O21 2.035985 1_555
Mo12 O28 2.049514 1_556
Mo12 O12 2.053849 1_556
Mo12 O5 2.054268 1_555
Mo12 O61 2.128211 1_555
Mo12 O52 2.246371 1_556
Mo13 O20 2.054207 1_555
Mo13 O29 2.058123 1_555
Mo13 O4 2.061463 1_555
Mo13 O13 2.063417 1_555
Mo13 O53 2.137431 1_555
Mo13 O60 2.178092 1_555
Mo14 O14 2.038949 1_555
Mo14 O23 2.051398 1_555
Mo14 O30 2.051922 1_556
Mo14 O7 2.055122 1_555
Mo14 O63 2.153286 1_555
Mo14 O54 2.241915 1_556
Mo15 O31 2.053506 1_555
Mo15 O15 2.054751 1_555
Mo15 O6 2.058379 1_555
Mo15 O22 2.062332 1_555
Mo15 O55 2.152614 1_555
Mo15 O62 2.177305 1_555
Mo16 O56 1.920753 1_555
Mo16 O32 1.934649 1_555
Mo16 O68 1.940065 1_455
Mo16 O74 2.018420 1_545
Mo17 O34 1.920541 1_555
Mo17 O58 1.923383 1_555
Mo17 O70 1.943282 1_455
Mo17 O72 2.028126 1_555
Mo18 O60 1.921163 1_555
Mo18 O36 1.930562 1_555
Mo18 O64 1.940128 1_555
Mo18 O78 2.026623 1_545
Mo19 O62 1.927050 1_555
Mo19 O38 1.930252 1_555
Mo19 O66 1.945160 1_555
Mo19 O76 2.028441 1_555
Mo20 O40 1.924439 1_555
Mo20 O48 1.933171 1_555
Mo20 O72 1.942562 1_555
Mo20 O66 2.029479 1_555
Mo21 O50 1.914993 1_555
Mo21 O74 1.934723 1_555
Mo21 O42 1.937928 1_555
Mo21 O64 2.021452 1_565
Mo22 O44 1.924269 1_555
Mo22 O52 1.929605 1_555
Mo22 O76 1.946920 1_555
Mo22 O70 2.028238 1_555
Mo23 O46 1.921566 1_555
Mo23 O54 1.930520 1_555
Mo23 O78 1.941181 1_555
Mo23 O68 2.035762 1_565
O33 V0 1.777844 1_555
O35 V1 1.785497 1_555
O37 V2 1.789326 1_555
O39 V3 1.778855 1_555
O41 V4 1.778007 1_555
O43 V5 1.779157 1_555
O45 V6 1.784781 1_555
O47 V7 1.769179 1_555
O49 V4 1.779027 1_555
O51 V5 1.779438 1_555
O53 V6 1.774960 1_555
O55 V7 1.791361 1_555
O57 V0 1.778082 1_555
O59 V1 1.768390 1_555
O61 V2 1.764509 1_555
O63 V3 1.782979 1_555
O65 V5 1.881728 1_545
O65 V2 1.894708 1_555
O67 V4 1.890773 1_555
O67 V3 1.905934 1_555
O69 V7 1.887422 1_545
O69 V0 1.908193 1_655
O71 V6 1.871653 1_555
O71 V1 1.883376 1_655
O73 V1 1.876534 1_555
O73 V4 1.890457 1_555
O75 V0 1.882088 1_565
O75 V5 1.897355 1_555
O77 V3 1.885127 1_555
O77 V6 1.897999 1_555
O79 V2 1.881117 1_565
O79 V7 1.897344 1_555
