# generated using pymatgen
data_Li4NbCo3O8
_symmetry_space_group_name_H-M   'P 1'
_cell_length_a   6.03580560
_cell_length_b   6.01100956
_cell_length_c   10.40999336
_cell_angle_alpha   106.78572384
_cell_angle_beta   106.68568100
_cell_angle_gamma   60.14110320
_symmetry_Int_Tables_number   1
_chemical_formula_structural   Li4NbCo3O8
_chemical_formula_sum   'Li8 Nb2 Co6 O16'
_cell_volume   308.88647360
_cell_formula_units_Z   2
loop_
 _symmetry_equiv_pos_site_id
 _symmetry_equiv_pos_as_xyz
  1  'x, y, z'
loop_
 _atom_site_type_symbol
 _atom_site_label
 _atom_site_symmetry_multiplicity
 _atom_site_fract_x
 _atom_site_fract_y
 _atom_site_fract_z
 _atom_site_occupancy
  Li  Li0  1  0.75018400  0.75124700  0.25016000  1
  Li  Li1  1  0.24983400  0.24873600  0.74984400  1
  Li  Li2  1  0.75176500  0.75025200  0.74748000  1
  Li  Li3  1  0.24825300  0.24971800  0.25252000  1
  Li  Li4  1  0.74833500  0.25386300  0.75210100  1
  Li  Li5  1  0.25166600  0.74614200  0.24788900  1
  Li  Li6  1  0.74873500  0.25210900  0.24955500  1
  Li  Li7  1  0.25128600  0.74787500  0.75045500  1
  Nb  Nb0  1  0.99998100  0.00001600  0.99999000  1
  Nb  Nb1  1  0.49997800  0.50001800  0.50000400  1
  Co  Co0  1  0.49999600  0.50001000  0.00000400  1
  Co  Co1  1  0.99999500  0.00000400  0.50000000  1
  Co  Co2  1  0.50000300  0.99999900  0.49999800  1
  Co  Co3  1  0.50000500  0.99999600  0.00000300  1
  Co  Co4  1  0.99999100  0.50000200  0.50000100  1
  Co  Co5  1  0.99999900  0.50000200  0.00000200  1
  O  O0  1  0.62029600  0.62020500  0.89803800  1
  O  O1  1  0.12064300  0.15715100  0.39822400  1
  O  O2  1  0.87936300  0.84284600  0.60177600  1
  O  O3  1  0.37970700  0.37978800  0.10196000  1
  O  O4  1  0.62086700  0.61551600  0.37954600  1
  O  O5  1  0.12048700  0.11998800  0.88051900  1
  O  O6  1  0.62016300  0.14024400  0.38029400  1
  O  O7  1  0.12039800  0.64326000  0.87936600  1
  O  O8  1  0.64547400  0.11852200  0.87842000  1
  O  O9  1  0.14552900  0.61467300  0.37839800  1
  O  O10  1  0.87951400  0.88001300  0.11947600  1
  O  O11  1  0.37913500  0.38448900  0.62046000  1
  O  O12  1  0.87960200  0.35673800  0.12063300  1
  O  O13  1  0.37983300  0.85977600  0.61971400  1
  O  O14  1  0.85446000  0.38533400  0.62160000  1
  O  O15  1  0.35452100  0.88147000  0.12157100  1
loop_
_geom_bond_atom_site_label_1
_geom_bond_atom_site_label_2
_geom_bond_distance
_geom_bond_site_symmetry_2
Li0 O6 2.207325 1_565
Li0 O10 2.208807 1_555
Li0 O4 2.227459 1_555
Li0 O12 2.228299 1_555
Li0 O9 2.236800 1_655
Li0 O15 2.239627 1_555
Li1 O13 2.207150 1_545
Li1 O5 2.208726 1_555
Li1 O11 2.227469 1_555
Li1 O7 2.228342 1_555
Li1 O14 2.236951 1_455
Li1 O8 2.239474 1_555
Li2 O14 2.089330 1_555
Li2 O8 2.124891 1_565
Li2 O13 2.135789 1_555
Li2 O7 2.140125 1_655
Li2 O2 2.188328 1_555
Li2 O0 2.395140 1_555
Li3 O9 2.089473 1_555
Li3 O15 2.124842 1_545
Li3 O6 2.135739 1_555
Li3 O12 2.140200 1_455
Li3 O1 2.188275 1_555
Li3 O3 2.395190 1_555
Li4 O8 2.089521 1_555
Li4 O14 2.122321 1_555
Li4 O5 2.139484 1_655
Li4 O11 2.141480 1_555
Li4 O0 2.191299 1_555
Li4 O2 2.389630 1_545
Li5 O15 2.089432 1_555
Li5 O9 2.122430 1_555
Li5 O10 2.139461 1_455
Li5 O4 2.141558 1_555
Li5 O3 2.191303 1_555
Li5 O1 2.389644 1_565
Li6 O12 2.100374 1_555
Li6 O4 2.100540 1_555
Li6 O6 2.135735 1_555
Li6 O10 2.136793 1_545
Li6 O3 2.219159 1_555
Li6 O1 2.235935 1_655
Li7 O7 2.100312 1_555
Li7 O11 2.100470 1_555
Li7 O13 2.135793 1_555
Li7 O5 2.136798 1_565
Li7 O0 2.219025 1_555
Li7 O2 2.236042 1_455
Nb0 O12 2.029850 1_556
Nb0 O7 2.029913 1_645
Nb0 O8 2.033585 1_555
Nb0 O15 2.033774 1_646
Nb0 O5 2.038543 1_655
Nb0 O10 2.038635 1_546
Nb1 O11 2.029572 1_555
Nb1 O4 2.029655 1_555
Nb1 O9 2.033484 1_555
Nb1 O14 2.033580 1_555
Nb1 O13 2.038677 1_555
Nb1 O6 2.038746 1_555
Co0 O3 1.893095 1_555
Co0 O0 1.893105 1_554
Co0 O7 2.139140 1_554
Co0 O12 2.139142 1_555
Co0 O15 2.141841 1_555
Co0 O8 2.142030 1_554
Co1 O2 2.061807 1_545
Co1 O1 2.061826 1_655
Co1 O6 2.135717 1_555
Co1 O13 2.135773 1_645
Co1 O14 2.158243 1_555
Co1 O9 2.158255 1_645
Co2 O1 2.070987 1_565
Co2 O2 2.071001 1_555
Co2 O6 2.126973 1_565
Co2 O13 2.127018 1_555
Co2 O4 2.149061 1_555
Co2 O11 2.149130 1_565
Co3 O3 2.063489 1_565
Co3 O0 2.063511 1_554
Co3 O10 2.133342 1_555
Co3 O5 2.133423 1_564
Co3 O15 2.159188 1_555
Co3 O8 2.159245 1_564
Co4 O2 1.894056 1_555
Co4 O1 1.894095 1_655
Co4 O4 2.136333 1_555
Co4 O11 2.136439 1_655
Co4 O14 2.143447 1_555
Co4 O9 2.143524 1_655
Co5 O0 2.073241 1_554
Co5 O3 2.073243 1_655
Co5 O10 2.125536 1_555
Co5 O5 2.125584 1_654
Co5 O12 2.149047 1_555
Co5 O7 2.149071 1_654
