# generated using pymatgen
data_Er2Al3Ge4
_symmetry_space_group_name_H-M   'P 1'
_cell_length_a   7.94741254
_cell_length_b   7.94741254
_cell_length_c   7.86761400
_cell_angle_alpha   90.00000000
_cell_angle_beta   90.00000000
_cell_angle_gamma   135.66302697
_symmetry_Int_Tables_number   1
_chemical_formula_structural   Er2Al3Ge4
_chemical_formula_sum   'Er4 Al6 Ge8'
_cell_volume   347.29241117
_cell_formula_units_Z   2
loop_
 _symmetry_equiv_pos_site_id
 _symmetry_equiv_pos_as_xyz
  1  'x, y, z'
loop_
 _atom_site_type_symbol
 _atom_site_label
 _atom_site_symmetry_multiplicity
 _atom_site_fract_x
 _atom_site_fract_y
 _atom_site_fract_z
 _atom_site_occupancy
  Er  Er0  1  0.11376600  0.88623400  0.41789200  1
  Er  Er1  1  0.88623400  0.11376600  0.58210800  1
  Er  Er2  1  0.38623400  0.61376600  0.91789200  1
  Er  Er3  1  0.61376600  0.38623400  0.08210800  1
  Al  Al0  1  0.00000000  0.00000000  0.00000000  1
  Al  Al1  1  0.50000000  0.50000000  0.50000000  1
  Al  Al2  1  0.03266700  0.46733300  0.25000000  1
  Al  Al3  1  0.46733300  0.03266700  0.75000000  1
  Al  Al4  1  0.96733300  0.53266700  0.75000000  1
  Al  Al5  1  0.53266700  0.96733300  0.25000000  1
  Ge  Ge0  1  0.20436100  0.29563900  0.25000000  1
  Ge  Ge1  1  0.29563900  0.20436100  0.75000000  1
  Ge  Ge2  1  0.79563900  0.70436100  0.75000000  1
  Ge  Ge3  1  0.70436100  0.79563900  0.25000000  1
  Ge  Ge4  1  0.18449700  0.81550300  0.05155500  1
  Ge  Ge5  1  0.81550300  0.18449700  0.94844500  1
  Ge  Ge6  1  0.31550300  0.68449700  0.55155500  1
  Ge  Ge7  1  0.68449700  0.31550300  0.44844500  1
loop_
_geom_bond_atom_site_label_1
_geom_bond_atom_site_label_2
_geom_bond_distance
_geom_bond_site_symmetry_2
Er0 Ge4 3.064483 1_555
Er0 Ge3 3.081995 1_455
Er0 Ge0 3.081995 1_565
Er0 Ge6 3.150245 1_555
Er0 Ge2 3.175074 1_455
Er0 Ge1 3.175074 1_565
Er0 Ge7 3.183493 1_455
Er0 Ge7 3.183493 1_565
Er1 Ge5 3.064483 1_555
Er1 Ge2 3.081995 1_545
Er1 Ge1 3.081995 1_655
Er1 Ge7 3.150245 1_555
Er1 Ge3 3.175074 1_545
Er1 Ge0 3.175074 1_655
Er1 Ge6 3.183493 1_545
Er1 Ge6 3.183493 1_655
Er2 Ge6 3.064483 1_555
Er2 Ge1 3.081995 1_555
Er2 Ge2 3.081995 1_555
Er2 Ge4 3.150245 1_556
Er2 Ge0 3.175074 1_556
Er2 Ge3 3.175074 1_556
Er2 Ge5 3.183493 1_455
Er2 Ge5 3.183493 1_565
Er3 Ge7 3.064483 1_555
Er3 Ge0 3.081995 1_555
Er3 Ge3 3.081995 1_555
Er3 Ge5 3.150245 1_554
Er3 Ge1 3.175074 1_554
Er3 Ge2 3.175074 1_554
Er3 Ge4 3.183493 1_545
Er3 Ge4 3.183493 1_655
Al0 Ge1 2.562857 1_554
Al0 Ge3 2.562857 1_445
Al0 Ge2 2.562857 1_444
Al0 Ge0 2.562857 1_555
Al0 Ge4 2.745892 1_545
Al0 Ge5 2.745892 1_454
Al1 Ge1 2.562857 1_555
Al1 Ge3 2.562857 1_555
Al1 Ge2 2.562857 1_555
Al1 Ge0 2.562857 1_555
Al1 Ge6 2.745892 1_555
Al1 Ge7 2.745892 1_555
Al2 Ge0 2.527310 1_555
Al2 Ge4 2.602691 1_555
Al2 Ge7 2.602691 1_455
Al2 Ge5 2.847925 1_454
Al2 Ge6 2.847925 1_555
Al3 Ge1 2.527310 1_555
Al3 Ge6 2.602691 1_545
Al3 Ge5 2.602691 1_555
Al3 Ge4 2.847925 1_546
Al3 Ge7 2.847925 1_555
Al4 Ge2 2.527310 1_555
Al4 Ge5 2.602691 1_555
Al4 Ge6 2.602691 1_655
Al4 Ge4 2.847925 1_656
Al4 Ge7 2.847925 1_555
Al5 Ge3 2.527310 1_555
Al5 Ge4 2.602691 1_555
Al5 Ge7 2.602691 1_565
Al5 Ge6 2.847925 1_555
Al5 Ge5 2.847925 1_564
