# generated using pymatgen
data_Pr2Zn5Sn
_symmetry_space_group_name_H-M   'P 1'
_cell_length_a   8.58678100
_cell_length_b   8.58678100
_cell_length_c   9.05296460
_cell_angle_alpha   90.00000000
_cell_angle_beta   90.00000000
_cell_angle_gamma   149.86612015
_symmetry_Int_Tables_number   1
_chemical_formula_structural   Pr2Zn5Sn
_chemical_formula_sum   'Pr4 Zn10 Sn2'
_cell_volume   335.10008741
_cell_formula_units_Z   2
loop_
 _symmetry_equiv_pos_site_id
 _symmetry_equiv_pos_as_xyz
  1  'x, y, z'
loop_
 _atom_site_type_symbol
 _atom_site_label
 _atom_site_symmetry_multiplicity
 _atom_site_fract_x
 _atom_site_fract_y
 _atom_site_fract_z
 _atom_site_occupancy
  Pr  Pr0  1  0.20590196  0.79409804  0.25000000  1
  Pr  Pr1  1  0.79409804  0.20590196  0.75000000  1
  Pr  Pr2  1  -0.00000000  0.00000000  0.50000000  1
  Pr  Pr3  1  -0.00000000  0.00000000  0.00000000  1
  Zn  Zn0  1  0.81452812  0.18547188  0.39085910  1
  Zn  Zn1  1  0.18547188  0.81452812  0.60914090  1
  Zn  Zn2  1  0.81452812  0.18547188  0.10914090  1
  Zn  Zn3  1  0.18547188  0.81452812  0.89085910  1
  Zn  Zn4  1  0.65654851  0.34345149  0.48494321  1
  Zn  Zn5  1  0.34345149  0.65654851  0.51505679  1
  Zn  Zn6  1  0.65654851  0.34345149  0.01505679  1
  Zn  Zn7  1  0.34345149  0.65654851  0.98494321  1
  Zn  Zn8  1  0.39488181  0.60511819  0.25000000  1
  Zn  Zn9  1  0.60511819  0.39488181  0.75000000  1
  Sn  Sn0  1  0.55526927  0.44473073  0.25000000  1
  Sn  Sn1  1  0.44473073  0.55526927  0.75000000  1
loop_
_geom_bond_atom_site_label_1
_geom_bond_atom_site_label_2
_geom_bond_distance
_geom_bond_site_symmetry_2
Pr0 Zn8 3.133887 1_555
Pr0 Zn0 3.139006 1_455
Pr0 Zn0 3.139006 1_565
Pr0 Zn2 3.139006 1_455
Pr0 Zn2 3.139006 1_565
Pr0 Zn6 3.189985 1_455
Pr0 Zn4 3.189985 1_455
Pr0 Zn6 3.189985 1_565
Pr0 Zn4 3.189985 1_565
Pr0 Zn1 3.268894 1_555
Pr0 Zn3 3.268894 1_554
Pr0 Zn7 3.310716 1_554
Pr0 Zn5 3.310716 1_555
Pr0 Sn0 3.349951 1_455
Pr0 Sn0 3.349951 1_565
Pr1 Zn9 3.133887 1_555
Pr1 Zn1 3.139006 1_545
Pr1 Zn3 3.139006 1_545
Pr1 Zn1 3.139006 1_655
Pr1 Zn3 3.139006 1_655
Pr1 Zn5 3.189985 1_545
Pr1 Zn5 3.189985 1_655
Pr1 Zn7 3.189985 1_545
Pr1 Zn7 3.189985 1_655
Pr1 Zn2 3.268894 1_556
Pr1 Zn0 3.268894 1_555
Pr1 Zn4 3.310716 1_555
Pr1 Zn6 3.310716 1_556
Pr1 Sn1 3.349951 1_545
Pr1 Sn1 3.349951 1_655
Pr2 Zn1 3.230520 1_545
Pr2 Zn0 3.230520 1_455
Pr2 Sn0 3.308267 1_445
Pr2 Sn1 3.308267 1_445
Pr2 Sn0 3.308267 1_555
Pr2 Sn1 3.308267 1_555
Pr2 Zn5 3.426440 1_445
Pr2 Zn4 3.426440 1_445
Pr2 Zn4 3.426440 1_555
Pr2 Zn5 3.426440 1_555
Pr2 Zn9 3.625370 1_555
Pr2 Zn8 3.625370 1_555
Pr2 Zn9 3.625370 1_445
Pr2 Zn8 3.625370 1_445
Pr3 Zn2 3.230520 1_455
Pr3 Zn3 3.230520 1_544
Pr3 Sn0 3.308267 1_445
Pr3 Sn1 3.308267 1_444
Pr3 Sn1 3.308267 1_554
Pr3 Sn0 3.308267 1_555
Pr3 Zn7 3.426440 1_444
Pr3 Zn6 3.426440 1_445
Pr3 Zn6 3.426440 1_555
Pr3 Zn7 3.426440 1_554
Pr3 Zn9 3.625370 1_444
Pr3 Zn9 3.625370 1_554
Pr3 Zn8 3.625370 1_555
Pr3 Zn8 3.625370 1_445
Zn0 Zn5 2.544908 1_545
Zn0 Zn5 2.544908 1_655
Zn0 Zn2 2.550385 1_555
Zn0 Zn4 2.754785 1_555
Zn0 Zn8 2.895522 1_545
Zn0 Zn8 2.895522 1_655
Zn1 Zn4 2.544908 1_455
Zn1 Zn4 2.544908 1_565
Zn1 Zn3 2.550385 1_555
Zn1 Zn5 2.754785 1_555
Zn1 Zn9 2.895522 1_455
Zn1 Zn9 2.895522 1_565
Zn2 Zn7 2.544908 1_544
Zn2 Zn7 2.544908 1_654
Zn2 Zn6 2.754785 1_555
Zn2 Zn8 2.895522 1_545
Zn2 Zn8 2.895522 1_655
Zn3 Zn6 2.544908 1_566
Zn3 Zn6 2.544908 1_456
Zn3 Zn7 2.754785 1_555
Zn3 Zn9 2.895522 1_455
Zn3 Zn9 2.895522 1_565
Zn4 Zn9 2.546614 1_555
Zn5 Zn8 2.546614 1_555
Zn6 Zn9 2.546614 1_554
Zn7 Zn8 2.546614 1_556
Sn0 Zn8 2.659735 1_555
Sn0 Zn6 2.710105 1_555
Sn0 Zn4 2.710105 1_555
Sn1 Zn9 2.659735 1_555
Sn1 Zn5 2.710105 1_555
Sn1 Zn7 2.710105 1_555
