# generated using pymatgen
data_Cu3Sn
_symmetry_space_group_name_H-M   'P 1'
_cell_length_a   5.50679448
_cell_length_b   5.50679344
_cell_length_c   4.27268838
_cell_angle_alpha   90.00000000
_cell_angle_beta   90.00000000
_cell_angle_gamma   120.00000000
_symmetry_Int_Tables_number   1
_chemical_formula_structural   Cu3Sn
_chemical_formula_sum   'Cu6 Sn2'
_cell_volume   112.20946877
_cell_formula_units_Z   2
loop_
 _symmetry_equiv_pos_site_id
 _symmetry_equiv_pos_as_xyz
  1  'x, y, z'
loop_
 _atom_site_type_symbol
 _atom_site_label
 _atom_site_symmetry_multiplicity
 _atom_site_fract_x
 _atom_site_fract_y
 _atom_site_fract_z
 _atom_site_occupancy
  Cu  Cu0  1  0.15577286  0.84422714  0.75000000  1
  Cu  Cu1  1  0.31154472  0.15577286  0.25000000  1
  Cu  Cu2  1  0.84422714  0.68845528  0.25000000  1
  Cu  Cu3  1  0.15577286  0.31154472  0.75000000  1
  Cu  Cu4  1  0.68845528  0.84422714  0.75000000  1
  Cu  Cu5  1  0.84422714  0.15577286  0.25000000  1
  Sn  Sn0  1  0.33333300  0.66666700  0.25000000  1
  Sn  Sn1  1  0.66666700  0.33333300  0.75000000  1
loop_
_geom_bond_atom_site_label_1
_geom_bond_atom_site_label_2
_geom_bond_distance
_geom_bond_site_symmetry_2
Cu0 Cu3 2.573421 1_565
Cu0 Cu4 2.573422 1_455
Cu0 Cu1 2.602206 1_565
Cu0 Cu1 2.602206 1_566
Cu0 Cu2 2.602206 1_456
Cu0 Cu2 2.602206 1_455
Cu0 Sn0 2.726201 1_555
Cu0 Sn0 2.726201 1_556
Cu0 Sn1 2.755357 1_455
Cu0 Sn1 2.755357 1_565
Cu0 Cu3 2.933372 1_555
Cu0 Cu4 2.933373 1_555
Cu1 Cu2 2.573422 1_445
Cu1 Cu5 2.573422 1_455
Cu1 Cu3 2.602200 1_555
Cu1 Cu3 2.602200 1_554
Cu1 Sn1 2.726207 1_555
Cu1 Sn1 2.726207 1_554
Cu1 Sn0 2.755357 1_555
Cu1 Sn0 2.755357 1_545
Cu1 Cu2 2.933372 1_555
Cu1 Cu5 2.933373 1_555
Cu2 Cu5 2.573421 1_565
Cu2 Cu4 2.602200 1_555
Cu2 Cu4 2.602200 1_554
Cu2 Sn1 2.726206 1_555
Cu2 Sn1 2.726206 1_554
Cu2 Sn0 2.755357 1_655
Cu2 Sn0 2.755357 1_555
Cu2 Cu5 2.933372 1_555
Cu3 Cu4 2.573422 1_445
Cu3 Cu5 2.602206 1_455
Cu3 Cu5 2.602206 1_456
Cu3 Sn0 2.726206 1_555
Cu3 Sn0 2.726206 1_556
Cu3 Sn1 2.755357 1_455
Cu3 Sn1 2.755357 1_555
Cu3 Cu4 2.933372 1_555
Cu4 Cu5 2.602206 1_565
Cu4 Cu5 2.602206 1_566
Cu4 Sn0 2.726207 1_555
Cu4 Sn0 2.726207 1_556
Cu4 Sn1 2.755357 1_555
Cu4 Sn1 2.755357 1_565
Cu5 Sn1 2.726201 1_555
Cu5 Sn1 2.726201 1_554
Cu5 Sn0 2.755357 1_655
Cu5 Sn0 2.755357 1_545
