# generated using pymatgen
data_KLaMg30O32
_symmetry_space_group_name_H-M   'P 1'
_cell_length_a   8.69234000
_cell_length_b   8.69234000
_cell_length_c   8.68426600
_cell_angle_alpha   90.00000000
_cell_angle_beta   90.00000000
_cell_angle_gamma   90.00000000
_symmetry_Int_Tables_number   1
_chemical_formula_structural   KLaMg30O32
_chemical_formula_sum   'K1 La1 Mg30 O32'
_cell_volume   656.15512938
_cell_formula_units_Z   1
loop_
 _symmetry_equiv_pos_site_id
 _symmetry_equiv_pos_as_xyz
  1  'x, y, z'
loop_
 _atom_site_type_symbol
 _atom_site_label
 _atom_site_symmetry_multiplicity
 _atom_site_fract_x
 _atom_site_fract_y
 _atom_site_fract_z
 _atom_site_occupancy
  K  K0  1  0.00000000  0.00000000  0.00000000  1
  La  La0  1  0.50000000  0.50000000  0.00000000  1
  Mg  Mg0  1  0.50000000  0.00000000  0.00000000  1
  Mg  Mg1  1  0.00000000  0.50000000  0.00000000  1
  Mg  Mg2  1  0.00000000  0.00000000  0.50000000  1
  Mg  Mg3  1  0.50000000  0.00000000  0.50000000  1
  Mg  Mg4  1  0.00000000  0.50000000  0.50000000  1
  Mg  Mg5  1  0.50000000  0.50000000  0.50000000  1
  Mg  Mg6  1  0.24184000  0.24184000  0.00000000  1
  Mg  Mg7  1  0.75816000  0.24184000  0.00000000  1
  Mg  Mg8  1  0.24184000  0.75816000  0.00000000  1
  Mg  Mg9  1  0.75816000  0.75816000  0.00000000  1
  Mg  Mg10  1  0.24823900  0.24823900  0.50000000  1
  Mg  Mg11  1  0.75176100  0.24823900  0.50000000  1
  Mg  Mg12  1  0.24823900  0.75176100  0.50000000  1
  Mg  Mg13  1  0.75176100  0.75176100  0.50000000  1
  Mg  Mg14  1  0.25010900  0.00000000  0.25222300  1
  Mg  Mg15  1  0.74989100  0.00000000  0.25222300  1
  Mg  Mg16  1  0.24051500  0.50000000  0.25838400  1
  Mg  Mg17  1  0.75948500  0.50000000  0.25838400  1
  Mg  Mg18  1  0.25010900  0.00000000  0.74777700  1
  Mg  Mg19  1  0.74989100  0.00000000  0.74777700  1
  Mg  Mg20  1  0.24051500  0.50000000  0.74161600  1
  Mg  Mg21  1  0.75948500  0.50000000  0.74161600  1
  Mg  Mg22  1  0.00000000  0.25010900  0.25222300  1
  Mg  Mg23  1  0.50000000  0.24051500  0.25838400  1
  Mg  Mg24  1  0.00000000  0.74989100  0.25222300  1
  Mg  Mg25  1  0.50000000  0.75948500  0.25838400  1
  Mg  Mg26  1  0.00000000  0.25010900  0.74777700  1
  Mg  Mg27  1  0.50000000  0.24051500  0.74161600  1
  Mg  Mg28  1  0.00000000  0.74989100  0.74777700  1
  Mg  Mg29  1  0.50000000  0.75948500  0.74161600  1
  O  O0  1  0.00000000  0.00000000  0.27362300  1
  O  O1  1  0.50000000  0.00000000  0.25754900  1
  O  O2  1  0.00000000  0.50000000  0.25754900  1
  O  O3  1  0.50000000  0.50000000  0.26839700  1
  O  O4  1  0.00000000  0.00000000  0.72637700  1
  O  O5  1  0.50000000  0.00000000  0.74245100  1
  O  O6  1  0.00000000  0.50000000  0.74245100  1
  O  O7  1  0.50000000  0.50000000  0.73160300  1
  O  O8  1  0.25091100  0.25091100  0.24931000  1
  O  O9  1  0.74908900  0.25091100  0.24931000  1
  O  O10  1  0.25091100  0.74908900  0.24931000  1
  O  O11  1  0.74908900  0.74908900  0.24931000  1
  O  O12  1  0.25091100  0.25091100  0.75069000  1
  O  O13  1  0.74908900  0.25091100  0.75069000  1
  O  O14  1  0.25091100  0.74908900  0.75069000  1
  O  O15  1  0.74908900  0.74908900  0.75069000  1
  O  O16  1  0.27178600  0.00000000  0.00000000  1
  O  O17  1  0.72821400  0.00000000  0.00000000  1
  O  O18  1  0.23516300  0.50000000  0.00000000  1
  O  O19  1  0.76483700  0.50000000  0.00000000  1
  O  O20  1  0.25435700  0.00000000  0.50000000  1
  O  O21  1  0.74564300  0.00000000  0.50000000  1
  O  O22  1  0.24833000  0.50000000  0.50000000  1
  O  O23  1  0.75167000  0.50000000  0.50000000  1
  O  O24  1  0.00000000  0.27178600  0.00000000  1
  O  O25  1  0.50000000  0.23516300  0.00000000  1
  O  O26  1  0.00000000  0.72821400  0.00000000  1
  O  O27  1  0.50000000  0.76483700  0.00000000  1
  O  O28  1  0.00000000  0.25435700  0.50000000  1
  O  O29  1  0.50000000  0.24833000  0.50000000  1
  O  O30  1  0.00000000  0.74564300  0.50000000  1
  O  O31  1  0.50000000  0.75167000  0.50000000  1
loop_
_geom_bond_atom_site_label_1
_geom_bond_atom_site_label_2
_geom_bond_distance
_geom_bond_site_symmetry_2
K0 O24 2.362456 1_555
K0 O16 2.362456 1_555
K0 O26 2.362456 1_545
K0 O17 2.362456 1_455
K0 O0 2.376215 1_555
K0 O4 2.376215 1_554
La0 O19 2.302053 1_555
La0 O27 2.302053 1_555
La0 O25 2.302053 1_555
La0 O18 2.302053 1_555
La0 O3 2.330831 1_555
La0 O7 2.330831 1_554
Mg0 O17 1.983714 1_555
Mg0 O16 1.983714 1_555
Mg0 O25 2.044117 1_555
Mg0 O27 2.044117 1_545
Mg0 O1 2.236624 1_555
Mg0 O5 2.236624 1_554
Mg1 O26 1.983714 1_555
Mg1 O24 1.983714 1_555
Mg1 O18 2.044117 1_555
Mg1 O19 2.044117 1_455
Mg1 O2 2.236624 1_555
Mg1 O6 2.236624 1_554
Mg2 O4 1.965918 1_555
Mg2 O0 1.965918 1_555
Mg2 O20 2.210958 1_555
Mg2 O28 2.210958 1_555
Mg2 O30 2.210958 1_545
Mg2 O21 2.210958 1_455
Mg3 O5 2.105509 1_555
Mg3 O1 2.105509 1_555
Mg3 O21 2.135212 1_555
Mg3 O20 2.135212 1_555
Mg3 O31 2.158569 1_545
Mg3 O29 2.158569 1_555
Mg4 O6 2.105509 1_555
Mg4 O2 2.105509 1_555
Mg4 O30 2.135212 1_555
Mg4 O28 2.135212 1_555
Mg4 O23 2.158569 1_455
Mg4 O22 2.158569 1_555
Mg5 O3 2.011302 1_555
Mg5 O7 2.011302 1_555
Mg5 O22 2.187601 1_555
Mg5 O29 2.187601 1_555
Mg5 O31 2.187601 1_555
Mg5 O23 2.187601 1_555
Mg6 O24 2.118210 1_555
Mg6 O16 2.118210 1_555
Mg6 O12 2.167944 1_554
Mg6 O8 2.167944 1_555
Mg6 O25 2.244765 1_555
Mg6 O18 2.244765 1_555
Mg7 O24 2.118210 1_655
Mg7 O17 2.118210 1_555
Mg7 O13 2.167944 1_554
Mg7 O9 2.167944 1_555
Mg7 O19 2.244765 1_555
Mg7 O25 2.244765 1_555
Mg8 O16 2.118210 1_565
Mg8 O26 2.118210 1_555
Mg8 O14 2.167944 1_554
Mg8 O10 2.167944 1_555
Mg8 O27 2.244765 1_555
Mg8 O18 2.244765 1_555
Mg9 O17 2.118210 1_565
Mg9 O26 2.118210 1_655
Mg9 O15 2.167944 1_554
Mg9 O11 2.167944 1_555
Mg9 O19 2.244765 1_555
Mg9 O27 2.244765 1_555
Mg10 O20 2.158433 1_555
Mg10 O28 2.158433 1_555
Mg10 O8 2.177306 1_555
Mg10 O12 2.177306 1_555
Mg10 O29 2.188392 1_555
Mg10 O22 2.188392 1_555
Mg11 O28 2.158433 1_655
Mg11 O21 2.158433 1_555
Mg11 O9 2.177306 1_555
Mg11 O13 2.177306 1_555
Mg11 O29 2.188392 1_555
Mg11 O23 2.188392 1_555
Mg12 O20 2.158433 1_565
Mg12 O30 2.158433 1_555
Mg12 O10 2.177306 1_555
Mg12 O14 2.177306 1_555
Mg12 O31 2.188392 1_555
Mg12 O22 2.188392 1_555
Mg13 O21 2.158433 1_565
Mg13 O30 2.158433 1_655
Mg13 O11 2.177306 1_555
Mg13 O15 2.177306 1_555
Mg13 O31 2.188392 1_555
Mg13 O23 2.188392 1_555
Mg14 O20 2.152078 1_555
Mg14 O1 2.172630 1_555
Mg14 O8 2.181162 1_555
Mg14 O10 2.181162 1_545
Mg14 O0 2.181961 1_555
Mg14 O16 2.198461 1_555
Mg15 O21 2.152078 1_555
Mg15 O1 2.172630 1_555
Mg15 O9 2.181162 1_555
Mg15 O11 2.181162 1_545
Mg15 O0 2.181961 1_655
Mg15 O17 2.198461 1_555
Mg16 O2 2.090651 1_555
Mg16 O22 2.099357 1_555
Mg16 O8 2.168483 1_555
Mg16 O10 2.168483 1_555
Mg16 O18 2.244358 1_555
Mg16 O3 2.257207 1_555
Mg17 O2 2.090651 1_655
Mg17 O23 2.099357 1_555
Mg17 O11 2.168483 1_555
Mg17 O9 2.168483 1_555
Mg17 O19 2.244358 1_555
Mg17 O3 2.257207 1_555
Mg18 O20 2.152078 1_555
Mg18 O5 2.172630 1_555
Mg18 O14 2.181162 1_545
Mg18 O12 2.181162 1_555
Mg18 O4 2.181961 1_555
Mg18 O16 2.198461 1_556
Mg19 O21 2.152078 1_555
Mg19 O5 2.172630 1_555
Mg19 O15 2.181162 1_545
Mg19 O13 2.181162 1_555
Mg19 O4 2.181961 1_655
Mg19 O17 2.198461 1_556
Mg20 O6 2.090651 1_555
Mg20 O22 2.099357 1_555
Mg20 O12 2.168483 1_555
Mg20 O14 2.168483 1_555
Mg20 O18 2.244358 1_556
Mg20 O7 2.257207 1_555
Mg21 O6 2.090651 1_655
Mg21 O23 2.099357 1_555
Mg21 O15 2.168483 1_555
Mg21 O13 2.168483 1_555
Mg21 O19 2.244358 1_556
Mg21 O7 2.257207 1_555
Mg22 O28 2.152078 1_555
Mg22 O2 2.172630 1_555
Mg22 O8 2.181162 1_555
Mg22 O9 2.181162 1_455
Mg22 O0 2.181961 1_555
Mg22 O24 2.198461 1_555
Mg23 O1 2.090651 1_555
Mg23 O29 2.099357 1_555
Mg23 O8 2.168483 1_555
Mg23 O9 2.168483 1_555
Mg23 O25 2.244358 1_555
Mg23 O3 2.257207 1_555
Mg24 O30 2.152078 1_555
Mg24 O2 2.172630 1_555
Mg24 O10 2.181162 1_555
Mg24 O11 2.181162 1_455
Mg24 O0 2.181961 1_565
Mg24 O26 2.198461 1_555
Mg25 O1 2.090651 1_565
Mg25 O31 2.099357 1_555
Mg25 O10 2.168483 1_555
Mg25 O11 2.168483 1_555
Mg25 O27 2.244358 1_555
Mg25 O3 2.257207 1_555
Mg26 O28 2.152078 1_555
Mg26 O6 2.172630 1_555
Mg26 O13 2.181162 1_455
Mg26 O12 2.181162 1_555
Mg26 O4 2.181961 1_555
Mg26 O24 2.198461 1_556
Mg27 O5 2.090651 1_555
Mg27 O29 2.099357 1_555
Mg27 O12 2.168483 1_555
Mg27 O13 2.168483 1_555
Mg27 O25 2.244358 1_556
Mg27 O7 2.257207 1_555
Mg28 O30 2.152078 1_555
Mg28 O6 2.172630 1_555
Mg28 O14 2.181162 1_555
Mg28 O15 2.181162 1_455
Mg28 O4 2.181961 1_565
Mg28 O26 2.198461 1_556
Mg29 O5 2.090651 1_565
Mg29 O31 2.099357 1_555
Mg29 O15 2.168483 1_555
Mg29 O14 2.168483 1_555
Mg29 O27 2.244358 1_556
Mg29 O7 2.257207 1_555
