# generated using pymatgen
data_Li4MnCo2O7
_symmetry_space_group_name_H-M   'P 1'
_cell_length_a   9.84221981
_cell_length_b   9.84221981
_cell_length_c   9.75860664
_cell_angle_alpha   67.39140117
_cell_angle_beta   67.39140117
_cell_angle_gamma   16.80539878
_symmetry_Int_Tables_number   1
_chemical_formula_structural   Li4MnCo2O7
_chemical_formula_sum   'Li8 Mn2 Co4 O14'
_cell_volume   251.82874508
_cell_formula_units_Z   2
loop_
 _symmetry_equiv_pos_site_id
 _symmetry_equiv_pos_as_xyz
  1  'x, y, z'
loop_
 _atom_site_type_symbol
 _atom_site_label
 _atom_site_symmetry_multiplicity
 _atom_site_fract_x
 _atom_site_fract_y
 _atom_site_fract_z
 _atom_site_occupancy
  Li  Li0  1  0.34574500  0.34574500  0.08502400  1
  Li  Li1  1  0.08095700  0.08095700  0.20007700  1
  Li  Li2  1  0.78307000  0.78307000  0.34963400  1
  Li  Li3  1  0.50014700  0.50014700  0.49638700  1
  Li  Li4  1  0.22026300  0.22026300  0.64058500  1
  Li  Li5  1  0.92178000  0.92178000  0.79422200  1
  Li  Li6  1  0.64201800  0.64201800  0.92938200  1
  Li  Li7  1  0.71466400  0.71466400  0.14367700  1
  Mn  Mn0  1  0.99761000  0.99761000  0.99987400  1
  Mn  Mn1  1  0.14869500  0.14869500  0.41645100  1
  Co  Co0  1  0.42321500  0.42321500  0.29432500  1
  Co  Co1  1  0.85980000  0.85980000  0.57762100  1
  Co  Co2  1  0.57526400  0.57526400  0.70690600  1
  Co  Co3  1  0.27616200  0.27616200  0.87801800  1
  O  O0  1  0.46767000  0.46767000  0.89780400  1
  O  O1  1  0.18228700  0.18228700  0.01733500  1
  O  O2  1  0.89020500  0.89020500  0.19634500  1
  O  O3  1  0.60959900  0.60959900  0.33327200  1
  O  O4  1  0.32846300  0.32846300  0.48240400  1
  O  O5  1  0.04866600  0.04866600  0.60323700  1
  O  O6  1  0.76569000  0.76569000  0.74160900  1
  O  O7  1  0.24039500  0.24039500  0.26385300  1
  O  O8  1  0.95389700  0.95389700  0.40255500  1
  O  O9  1  0.67802500  0.67802500  0.51961200  1
  O  O10  1  0.39192000  0.39192000  0.66781600  1
  O  O11  1  0.10710400  0.10710400  0.80209400  1
  O  O12  1  0.81789900  0.81789900  0.95621000  1
  O  O13  1  0.52879000  0.52879000  0.10366800  1
loop_
_geom_bond_atom_site_label_1
_geom_bond_atom_site_label_2
_geom_bond_distance
_geom_bond_site_symmetry_2
Li0 O7 2.114612 1_555
Li0 O12 2.114829 1_454
Li0 O12 2.114829 1_544
Li0 O2 2.174676 1_545
Li0 O2 2.174676 1_455
Li0 O0 2.367212 1_554
Li1 O1 2.082995 1_555
Li1 O3 2.152334 1_545
Li1 O3 2.152334 1_455
Li1 O13 2.174498 1_545
Li1 O13 2.174498 1_455
Li1 O8 2.495284 1_445
Li2 O7 2.000132 1_655
Li2 O7 2.000132 1_565
Li2 O2 2.040739 1_555
Li2 O9 2.073311 1_555
Li2 O4 2.327816 1_565
Li2 O4 2.327816 1_655
Li3 O8 2.087840 1_545
Li3 O8 2.087840 1_455
Li3 O3 2.107056 1_555
Li3 O10 2.121334 1_555
Li3 O5 2.194114 1_565
Li3 O5 2.194114 1_655
Li4 O4 2.072292 1_555
Li4 O6 2.121502 1_545
Li4 O6 2.121502 1_455
Li4 O11 2.154181 1_555
Li4 O9 2.212095 1_455
Li4 O9 2.212095 1_545
Li5 O12 2.026233 1_555
Li5 O10 2.117958 1_565
Li5 O10 2.117958 1_655
Li5 O0 2.142636 1_565
Li5 O0 2.142636 1_655
Li5 O5 2.449415 1_665
Li6 O1 1.985755 1_566
Li6 O1 1.985755 1_656
Li6 O11 2.174878 1_565
Li6 O11 2.174878 1_655
Li6 O13 2.199928 1_556
Li6 O6 2.393269 1_555
Li7 O7 2.037559 1_655
Li7 O7 2.037559 1_565
Li7 O12 2.128325 1_554
Li7 O1 2.142496 1_565
Li7 O1 2.142496 1_655
Li7 O3 2.160332 1_555
Mn0 O0 1.962636 1_565
Mn0 O0 1.962636 1_655
Mn0 O13 1.985223 1_566
Mn0 O13 1.985223 1_656
Mn0 O2 2.221208 1_556
Mn0 O11 2.252320 1_665
Mn1 O7 1.827433 1_555
Mn1 O3 1.946103 1_455
Mn1 O3 1.946103 1_545
Mn1 O9 1.963436 1_545
Mn1 O9 1.963436 1_455
Mn1 O5 2.087393 1_555
Co0 O2 1.968158 1_545
Co0 O2 1.968158 1_455
Co0 O8 2.007850 1_545
Co0 O8 2.007850 1_455
Co0 O4 2.034965 1_555
Co0 O13 2.171495 1_555
Co1 O6 1.907899 1_555
Co1 O10 1.913726 1_655
Co1 O10 1.913726 1_565
Co1 O4 1.935198 1_655
Co1 O4 1.935198 1_565
Co1 O8 1.960408 1_555
Co2 O11 1.939962 1_655
Co2 O11 1.939962 1_565
Co2 O5 1.941010 1_655
Co2 O5 1.941010 1_565
Co2 O9 2.121866 1_555
Co2 O0 2.196968 1_555
Co3 O1 1.805127 1_556
Co3 O12 1.947648 1_545
Co3 O12 1.947648 1_455
Co3 O6 2.023138 1_545
Co3 O6 2.023138 1_455
Co3 O10 2.386475 1_555
