# generated using pymatgen
data_Sr7RhN6
_symmetry_space_group_name_H-M   'P 1'
_cell_length_a   11.72424600
_cell_length_b   6.71958800
_cell_length_c   13.93853700
_cell_angle_alpha   90.00000000
_cell_angle_beta   90.00000000
_cell_angle_gamma   90.00000000
_symmetry_Int_Tables_number   1
_chemical_formula_structural   Sr7RhN6
_chemical_formula_sum   'Sr28 Rh4 N24'
_cell_volume   1098.10725385
_cell_formula_units_Z   4
loop_
 _symmetry_equiv_pos_site_id
 _symmetry_equiv_pos_as_xyz
  1  'x, y, z'
loop_
 _atom_site_type_symbol
 _atom_site_label
 _atom_site_symmetry_multiplicity
 _atom_site_fract_x
 _atom_site_fract_y
 _atom_site_fract_z
 _atom_site_occupancy
  Sr  Sr0  1  0.03668600  0.73076100  0.97888200  1
  Sr  Sr1  1  0.46331400  0.76923900  0.47888200  1
  Sr  Sr2  1  0.53668600  0.76923900  0.02111800  1
  Sr  Sr3  1  0.96331400  0.73076100  0.52111800  1
  Sr  Sr4  1  0.96331400  0.26923900  0.02111800  1
  Sr  Sr5  1  0.53668600  0.23076100  0.52111800  1
  Sr  Sr6  1  0.46331400  0.23076100  0.97888200  1
  Sr  Sr7  1  0.03668600  0.26923900  0.47888200  1
  Sr  Sr8  1  0.22335000  0.86320200  0.62619900  1
  Sr  Sr9  1  0.27665000  0.63679800  0.12619900  1
  Sr  Sr10  1  0.72335000  0.63679800  0.37380100  1
  Sr  Sr11  1  0.77665000  0.86320200  0.87380100  1
  Sr  Sr12  1  0.77665000  0.13679800  0.37380100  1
  Sr  Sr13  1  0.72335000  0.36320200  0.87380100  1
  Sr  Sr14  1  0.27665000  0.36320200  0.62619900  1
  Sr  Sr15  1  0.22335000  0.13679800  0.12619900  1
  Sr  Sr16  1  0.29402500  0.60709500  0.87760800  1
  Sr  Sr17  1  0.20597500  0.89290500  0.37760800  1
  Sr  Sr18  1  0.79402500  0.89290500  0.12239200  1
  Sr  Sr19  1  0.70597500  0.60709500  0.62239200  1
  Sr  Sr20  1  0.70597500  0.39290500  0.12239200  1
  Sr  Sr21  1  0.79402500  0.10709500  0.62239200  1
  Sr  Sr22  1  0.20597500  0.10709500  0.87760800  1
  Sr  Sr23  1  0.29402500  0.39290500  0.37760800  1
  Sr  Sr24  1  0.00000000  0.43187700  0.75000000  1
  Sr  Sr25  1  0.50000000  0.06812300  0.25000000  1
  Sr  Sr26  1  0.00000000  0.56812300  0.25000000  1
  Sr  Sr27  1  0.50000000  0.93187700  0.75000000  1
  Rh  Rh0  1  0.00000000  0.92483100  0.75000000  1
  Rh  Rh1  1  0.50000000  0.57516900  0.25000000  1
  Rh  Rh2  1  0.00000000  0.07516900  0.25000000  1
  Rh  Rh3  1  0.50000000  0.42483100  0.75000000  1
  N  N0  1  0.12581900  0.74690900  0.79107000  1
  N  N1  1  0.37418100  0.75309100  0.29107000  1
  N  N2  1  0.62581900  0.75309100  0.20893000  1
  N  N3  1  0.87418100  0.74690900  0.70893000  1
  N  N4  1  0.87418100  0.25309100  0.20893000  1
  N  N5  1  0.62581900  0.24690900  0.70893000  1
  N  N6  1  0.37418100  0.24690900  0.79107000  1
  N  N7  1  0.12581900  0.25309100  0.29107000  1
  N  N8  1  0.16834200  0.59611900  0.50306300  1
  N  N9  1  0.33165800  0.90388100  0.00306300  1
  N  N10  1  0.66834200  0.90388100  0.49693700  1
  N  N11  1  0.83165800  0.59611900  0.99693700  1
  N  N12  1  0.83165800  0.40388100  0.49693700  1
  N  N13  1  0.66834200  0.09611900  0.99693700  1
  N  N14  1  0.33165800  0.09611900  0.50306300  1
  N  N15  1  0.16834200  0.40388100  0.00306300  1
  N  N16  1  0.45646300  0.60816900  0.64354800  1
  N  N17  1  0.04353700  0.89183100  0.14354800  1
  N  N18  1  0.95646300  0.89183100  0.35645200  1
  N  N19  1  0.54353700  0.60816900  0.85645200  1
  N  N20  1  0.54353700  0.39183100  0.35645200  1
  N  N21  1  0.95646300  0.10816900  0.85645200  1
  N  N22  1  0.04353700  0.10816900  0.64354800  1
  N  N23  1  0.45646300  0.39183100  0.14354800  1
loop_
_geom_bond_atom_site_label_1
_geom_bond_atom_site_label_2
_geom_bond_distance
_geom_bond_site_symmetry_2
N0 Rh0 1.983203 1_555
N0 Sr16 2.495342 1_555
N0 Sr24 2.642901 1_555
N0 Sr8 2.683146 1_555
N0 Sr0 2.820787 1_555
N0 Sr22 2.862861 1_565
N1 Rh1 1.983203 1_555
N1 Sr17 2.495342 1_555
N1 Sr25 2.642901 1_565
N1 Sr9 2.683146 1_555
N1 Sr1 2.820787 1_555
N1 Sr23 2.862861 1_555
N2 Rh1 1.983203 1_555
N2 Sr18 2.495342 1_555
N2 Sr25 2.642901 1_565
N2 Sr10 2.683146 1_555
N2 Sr2 2.820787 1_555
N2 Sr20 2.862861 1_555
N3 Rh0 1.983203 1_655
N3 Sr19 2.495342 1_555
N3 Sr24 2.642901 1_655
N3 Sr11 2.683146 1_555
N3 Sr3 2.820787 1_555
N3 Sr21 2.862861 1_565
N4 Rh2 1.983203 1_655
N4 Sr20 2.495342 1_555
N4 Sr26 2.642901 1_655
N4 Sr12 2.683146 1_555
N4 Sr4 2.820787 1_555
N4 Sr18 2.862861 1_545
N5 Rh3 1.983203 1_555
N5 Sr21 2.495342 1_555
N5 Sr27 2.642901 1_545
N5 Sr13 2.683146 1_555
N5 Sr5 2.820787 1_555
N5 Sr19 2.862861 1_555
N6 Rh3 1.983203 1_555
N6 Sr22 2.495342 1_555
N6 Sr27 2.642901 1_545
N6 Sr14 2.683146 1_555
N6 Sr6 2.820787 1_555
N6 Sr16 2.862861 1_555
N7 Rh2 1.983203 1_555
N7 Sr23 2.495342 1_555
N7 Sr26 2.642901 1_555
N7 Sr15 2.683146 1_555
N7 Sr7 2.820787 1_555
N7 Sr17 2.862861 1_545
N8 Sr8 2.565666 1_555
N8 Sr3 2.580723 1_455
N8 Sr14 2.647231 1_555
N8 Sr23 2.663410 1_555
N8 Sr17 2.688798 1_555
N8 Sr7 2.705699 1_555
N9 Sr9 2.565666 1_555
N9 Sr2 2.580723 1_555
N9 Sr15 2.647231 1_565
N9 Sr22 2.663410 1_564
N9 Sr16 2.688798 1_554
N9 Sr6 2.705699 1_564
N10 Sr10 2.565666 1_555
N10 Sr1 2.580723 1_555
N10 Sr12 2.647231 1_565
N10 Sr21 2.663410 1_565
N10 Sr19 2.688798 1_555
N10 Sr5 2.705699 1_565
N11 Sr11 2.565666 1_555
N11 Sr0 2.580723 1_655
N11 Sr13 2.647231 1_555
N11 Sr20 2.663410 1_556
N11 Sr18 2.688798 1_556
N11 Sr4 2.705699 1_556
N12 Sr12 2.565666 1_555
N12 Sr7 2.580723 1_655
N12 Sr10 2.647231 1_555
N12 Sr19 2.663410 1_555
N12 Sr21 2.688798 1_555
N12 Sr3 2.705699 1_555
N13 Sr13 2.565666 1_555
N13 Sr6 2.580723 1_555
N13 Sr11 2.647231 1_545
N13 Sr18 2.663410 1_546
N13 Sr20 2.688798 1_556
N13 Sr2 2.705699 1_546
N14 Sr14 2.565666 1_555
N14 Sr5 2.580723 1_555
N14 Sr8 2.647231 1_545
N14 Sr17 2.663410 1_545
N14 Sr23 2.688798 1_555
N14 Sr1 2.705699 1_545
N15 Sr15 2.565666 1_555
N15 Sr4 2.580723 1_455
N15 Sr9 2.647231 1_555
N15 Sr16 2.663410 1_554
N15 Sr22 2.688798 1_554
N15 Sr0 2.705699 1_554
N16 Rh3 1.994964 1_555
N16 Sr1 2.538865 1_555
N16 Sr27 2.682087 1_555
N16 Sr14 2.685598 1_555
N16 Sr19 2.940174 1_555
N16 Sr5 3.198155 1_555
N16 Sr8 3.234965 1_555
N17 Rh2 1.994964 1_565
N17 Sr0 2.538865 1_554
N17 Sr26 2.682087 1_555
N17 Sr15 2.685598 1_565
N17 Sr18 2.940174 1_455
N17 Sr4 3.198155 1_465
N17 Sr9 3.234965 1_555
N18 Rh2 1.994964 1_665
N18 Sr3 2.538865 1_555
N18 Sr26 2.682087 1_655
N18 Sr12 2.685598 1_565
N18 Sr17 2.940174 1_655
N18 Sr7 3.198155 1_665
N18 Sr10 3.234965 1_555
N19 Rh3 1.994964 1_555
N19 Sr2 2.538865 1_556
N19 Sr27 2.682087 1_555
N19 Sr13 2.685598 1_555
N19 Sr16 2.940174 1_555
N19 Sr6 3.198155 1_555
N19 Sr11 3.234965 1_555
N20 Rh1 1.994964 1_555
N20 Sr5 2.538865 1_555
N20 Sr25 2.682087 1_555
N20 Sr10 2.685598 1_555
N20 Sr23 2.940174 1_555
N20 Sr1 3.198155 1_555
N20 Sr12 3.234965 1_555
N21 Rh0 1.994964 1_645
N21 Sr4 2.538865 1_556
N21 Sr24 2.682087 1_655
N21 Sr11 2.685598 1_545
N21 Sr22 2.940174 1_655
N21 Sr0 3.198155 1_645
N21 Sr13 3.234965 1_555
N22 Rh0 1.994964 1_545
N22 Sr7 2.538865 1_555
N22 Sr24 2.682087 1_555
N22 Sr8 2.685598 1_545
N22 Sr21 2.940174 1_455
N22 Sr3 3.198155 1_445
N22 Sr14 3.234965 1_555
N23 Rh1 1.994964 1_555
N23 Sr6 2.538865 1_554
N23 Sr25 2.682087 1_555
N23 Sr9 2.685598 1_555
N23 Sr20 2.940174 1_555
N23 Sr2 3.198155 1_555
N23 Sr15 3.234965 1_555
