# generated using pymatgen
data_HfCrCuS4
_symmetry_space_group_name_H-M   'P 1'
_cell_length_a   7.17790089
_cell_length_b   7.17790089
_cell_length_c   7.17790089
_cell_angle_alpha   119.72411412
_cell_angle_beta   119.65000207
_cell_angle_gamma   90.54290319
_symmetry_Int_Tables_number   1
_chemical_formula_structural   HfCrCuS4
_chemical_formula_sum   'Hf2 Cr2 Cu2 S8'
_cell_volume   262.72745461
_cell_formula_units_Z   2
loop_
 _symmetry_equiv_pos_site_id
 _symmetry_equiv_pos_as_xyz
  1  'x, y, z'
loop_
 _atom_site_type_symbol
 _atom_site_label
 _atom_site_symmetry_multiplicity
 _atom_site_fract_x
 _atom_site_fract_y
 _atom_site_fract_z
 _atom_site_occupancy
  Hf  Hf0  1  0.00200300  0.75838100  0.25637700  1
  Hf  Hf1  1  0.99799700  0.25437400  0.75637700  1
  Cr  Cr0  1  0.00000000  0.24707500  0.24707500  1
  Cr  Cr1  1  0.50000000  0.24707500  0.74707500  1
  Cu  Cu0  1  0.62963000  0.62375100  0.49412000  1
  Cu  Cu1  1  0.37037000  0.86449000  0.99412000  1
  S  S0  1  0.25168900  0.01985400  0.26816500  1
  S  S1  1  0.76056500  0.01025300  0.25486800  1
  S  S2  1  0.25538600  0.01025300  0.74968900  1
  S  S3  1  0.24983300  0.47400600  0.72417300  1
  S  S4  1  0.75016700  0.47434000  0.22417300  1
  S  S5  1  0.74831100  0.01647600  0.76816500  1
  S  S6  1  0.74461400  0.49430300  0.75486800  1
  S  S7  1  0.23943500  0.49430300  0.24968900  1
loop_
_geom_bond_atom_site_label_1
_geom_bond_atom_site_label_2
_geom_bond_distance
_geom_bond_site_symmetry_2
Hf0 S1 2.516394 1_465
Hf0 S2 2.516404 1_565
Hf0 S0 2.523973 1_565
Hf0 S4 2.554840 1_455
Hf0 S6 2.559637 1_454
Hf0 S7 2.559642 1_555
Hf1 S6 2.516404 1_555
Hf1 S7 2.516404 1_656
Hf1 S5 2.523978 1_555
Hf1 S3 2.554835 1_655
Hf1 S1 2.559636 1_555
Hf1 S2 2.559641 1_655
Cr0 S3 2.435908 1_555
Cr0 S4 2.435908 1_455
Cr0 S5 2.444763 1_454
Cr0 S0 2.444763 1_555
Cr0 S7 2.445503 1_555
Cr0 S1 2.445508 1_455
Cr1 S4 2.435908 1_556
Cr1 S3 2.435908 1_555
Cr1 S0 2.444763 1_555
Cr1 S5 2.444763 1_555
Cr1 S6 2.445503 1_555
Cr1 S2 2.445508 1_555
Cu0 S7 2.293073 1_555
Cu0 S6 2.293079 1_555
Cu0 S4 2.295391 1_555
Cu0 S5 2.310691 1_565
Cu1 S2 2.293067 1_565
Cu1 S1 2.293072 1_566
Cu1 S3 2.295391 1_555
Cu1 S0 2.310697 1_566
