# generated using pymatgen
data_Li2MnV4CoO12
_symmetry_space_group_name_H-M   'P 1'
_cell_length_a   6.94471421
_cell_length_b   6.94471421
_cell_length_c   5.76173495
_cell_angle_alpha   74.87938220
_cell_angle_beta   74.87938220
_cell_angle_gamma   83.31031287
_symmetry_Int_Tables_number   1
_chemical_formula_structural   Li2MnV4CoO12
_chemical_formula_sum   'Li2 Mn1 V4 Co1 O12'
_cell_volume   258.62466244
_cell_formula_units_Z   1
loop_
 _symmetry_equiv_pos_site_id
 _symmetry_equiv_pos_as_xyz
  1  'x, y, z'
loop_
 _atom_site_type_symbol
 _atom_site_label
 _atom_site_symmetry_multiplicity
 _atom_site_fract_x
 _atom_site_fract_y
 _atom_site_fract_z
 _atom_site_occupancy
  Li  Li0  1  0.75513100  0.24486900  0.50000000  1
  Li  Li1  1  0.24702500  0.75297500  0.00000000  1
  Mn  Mn0  1  0.08643200  0.91356800  0.50000000  1
  V  V0  1  0.81371100  0.60344500  0.01869000  1
  V  V1  1  0.60878900  0.79557100  0.52151900  1
  V  V2  1  0.39655500  0.18628900  0.98131000  1
  V  V3  1  0.20442900  0.39121100  0.47848100  1
  Co  Co0  1  0.91492300  0.08507700  0.00000000  1
  O  O0  1  0.98365500  0.80182000  0.90091500  1
  O  O1  1  0.89197800  0.35415600  0.09054300  1
  O  O2  1  0.78851900  0.97720100  0.40367000  1
  O  O3  1  0.63457100  0.64817900  0.81063200  1
  O  O4  1  0.64584400  0.10802200  0.90945700  1
  O  O5  1  0.63396700  0.64450000  0.31207900  1
  O  O6  1  0.35182100  0.36542900  0.18936800  1
  O  O7  1  0.37197400  0.90580100  0.57496900  1
  O  O8  1  0.35550000  0.36603300  0.68792100  1
  O  O9  1  0.19818000  0.01634500  0.09908500  1
  O  O10  1  0.09419900  0.62802600  0.42503100  1
  O  O11  1  0.02279900  0.21148100  0.59633000  1
loop_
_geom_bond_atom_site_label_1
_geom_bond_atom_site_label_2
_geom_bond_distance
_geom_bond_site_symmetry_2
Li0 O2 2.046446 1_545
Li0 O11 2.046446 1_655
Li0 O1 2.260349 1_555
Li0 O4 2.260349 1_555
Li1 O9 2.021267 1_565
Li1 O0 2.021267 1_454
Li1 O7 2.372036 1_554
Li1 O10 2.372036 1_555
Mn0 O7 2.128757 1_555
Mn0 O10 2.128757 1_555
Mn0 O0 2.186620 1_455
Mn0 O9 2.186620 1_565
Mn0 O2 2.245413 1_455
Mn0 O11 2.245413 1_565
Co0 O1 2.045811 1_555
Co0 O4 2.045811 1_554
Co0 O0 2.156007 1_544
Co0 O9 2.156007 1_655
Co0 O2 2.218197 1_545
Co0 O11 2.218197 1_654
O0 V0 1.795716 1_556
O1 V0 1.728660 1_555
O2 V1 1.757233 1_555
O3 V1 1.754428 1_555
O3 V0 1.890771 1_556
O4 V2 1.728660 1_555
O5 V1 1.759310 1_555
O5 V0 1.888040 1_555
O6 V3 1.754428 1_555
O6 V2 1.890771 1_554
O7 V1 1.717860 1_555
O8 V3 1.759310 1_555
O8 V2 1.888040 1_555
O9 V2 1.795716 1_554
O10 V3 1.717860 1_555
O11 V3 1.757233 1_555
