# generated using pymatgen
data_K2CuO2
_symmetry_space_group_name_H-M   'P 1'
_cell_length_a   5.76733358
_cell_length_b   5.76733358
_cell_length_c   5.76733358
_cell_angle_alpha   136.79361239
_cell_angle_beta   136.79361239
_cell_angle_gamma   62.75575526
_symmetry_Int_Tables_number   1
_chemical_formula_structural   K2CuO2
_chemical_formula_sum   'K2 Cu1 O2'
_cell_volume   88.80322453
_cell_formula_units_Z   1
loop_
 _symmetry_equiv_pos_site_id
 _symmetry_equiv_pos_as_xyz
  1  'x, y, z'
loop_
 _atom_site_type_symbol
 _atom_site_label
 _atom_site_symmetry_multiplicity
 _atom_site_fract_x
 _atom_site_fract_y
 _atom_site_fract_z
 _atom_site_occupancy
  K  K0  1  0.75000000  0.25000000  0.50000000  1
  K  K1  1  0.25000000  0.75000000  0.50000000  1
  Cu  Cu0  1  0.00000000  0.00000000  0.00000000  1
  O  O0  1  0.50000000  0.00000000  0.50000000  1
  O  O1  1  0.00000000  0.50000000  0.50000000  1
loop_
_geom_bond_atom_site_label_1
_geom_bond_atom_site_label_2
_geom_bond_distance
_geom_bond_site_symmetry_2
K0 O1 2.461936 1_655
K0 O0 2.461936 1_555
K1 O0 2.461936 1_565
K1 O1 2.461936 1_555
Cu0 O1 2.123396 1_555
Cu0 O0 2.123396 1_555
Cu0 O0 2.123396 1_454
Cu0 O1 2.123396 1_544
