# generated using pymatgen
data_CrGaRu2
_symmetry_space_group_name_H-M   'P 1'
_cell_length_a   4.21936927
_cell_length_b   4.21936927
_cell_length_c   4.21936927
_cell_angle_alpha   60.00000000
_cell_angle_beta   60.00000000
_cell_angle_gamma   60.00000000
_symmetry_Int_Tables_number   1
_chemical_formula_structural   CrGaRu2
_chemical_formula_sum   'Cr1 Ga1 Ru2'
_cell_volume   53.11627460
_cell_formula_units_Z   1
loop_
 _symmetry_equiv_pos_site_id
 _symmetry_equiv_pos_as_xyz
  1  'x, y, z'
loop_
 _atom_site_type_symbol
 _atom_site_label
 _atom_site_symmetry_multiplicity
 _atom_site_fract_x
 _atom_site_fract_y
 _atom_site_fract_z
 _atom_site_occupancy
  Cr  Cr0  1  0.50000000  0.50000000  0.50000000  1
  Ga  Ga0  1  -0.00000000  0.00000000  -0.00000000  1
  Ru  Ru0  1  0.25000000  0.25000000  0.25000000  1
  Ru  Ru1  1  0.75000000  0.75000000  0.75000000  1
loop_
_geom_bond_atom_site_label_1
_geom_bond_atom_site_label_2
_geom_bond_distance
_geom_bond_site_symmetry_2
Cr0 Ru0 2.583825 1_555
Cr0 Ru0 2.583825 1_565
Cr0 Ru1 2.583825 1_455
Cr0 Ru0 2.583825 1_655
Cr0 Ru0 2.583825 1_556
Cr0 Ru1 2.583825 1_555
Cr0 Ru1 2.583825 1_545
Cr0 Ru1 2.583825 1_554
Ga0 Ru0 2.583825 1_545
Ga0 Ru0 2.583825 1_555
Ga0 Ru1 2.583825 1_444
Ga0 Ru1 2.583825 1_454
Ga0 Ru0 2.583825 1_455
Ga0 Ru0 2.583825 1_554
Ga0 Ru1 2.583825 1_544
Ga0 Ru1 2.583825 1_445
