# generated using pymatgen
data_SrLaGa3O7
_symmetry_space_group_name_H-M   'P 1'
_cell_length_a   8.12609175
_cell_length_b   8.12609175
_cell_length_c   5.38946300
_cell_angle_alpha   90.00000000
_cell_angle_beta   90.00000000
_cell_angle_gamma   90.11862970
_symmetry_Int_Tables_number   1
_chemical_formula_structural   SrLaGa3O7
_chemical_formula_sum   'Sr2 La2 Ga6 O14'
_cell_volume   355.88362586
_cell_formula_units_Z   2
loop_
 _symmetry_equiv_pos_site_id
 _symmetry_equiv_pos_as_xyz
  1  'x, y, z'
loop_
 _atom_site_type_symbol
 _atom_site_label
 _atom_site_symmetry_multiplicity
 _atom_site_fract_x
 _atom_site_fract_y
 _atom_site_fract_z
 _atom_site_occupancy
  Sr  Sr0  1  0.16198200  0.83801800  0.49042800  1
  Sr  Sr1  1  0.83801800  0.16198200  0.49042800  1
  La  La0  1  0.66405000  0.66405000  0.50962500  1
  La  La1  1  0.33595000  0.33595000  0.50962500  1
  Ga  Ga0  1  0.50000000  0.00000000  0.99925000  1
  Ga  Ga1  1  0.00000000  0.50000000  0.99925000  1
  Ga  Ga2  1  0.35699400  0.64300600  0.03284500  1
  Ga  Ga3  1  0.85651800  0.85651800  0.96706100  1
  Ga  Ga4  1  0.64300600  0.35699400  0.03284500  1
  Ga  Ga5  1  0.14348200  0.14348200  0.96706100  1
  O  O0  1  0.36952100  0.63047900  0.69474000  1
  O  O1  1  0.85147200  0.85147200  0.30432500  1
  O  O2  1  0.63047900  0.36952100  0.69474000  1
  O  O3  1  0.14852800  0.14852800  0.30432500  1
  O  O4  1  0.41769000  0.83503200  0.20229000  1
  O  O5  1  0.90708800  0.66036400  0.79448300  1
  O  O6  1  0.58231000  0.16496800  0.20229000  1
  O  O7  1  0.09291200  0.33963600  0.79448300  1
  O  O8  1  0.33963600  0.09291200  0.79448300  1
  O  O9  1  0.83503200  0.41769000  0.20229000  1
  O  O10  1  0.66036400  0.90708800  0.79448300  1
  O  O11  1  0.16496800  0.58231000  0.20229000  1
  O  O12  1  0.00000000  0.00000000  0.81477400  1
  O  O13  1  0.50000000  0.50000000  0.20158700  1
loop_
_geom_bond_atom_site_label_1
_geom_bond_atom_site_label_2
_geom_bond_distance
_geom_bond_site_symmetry_2
La0 O1 2.419452 1_555
La0 O5 2.501700 1_555
La0 O10 2.501700 1_555
La0 O13 2.510578 1_555
La0 O2 2.606776 1_555
La0 O0 2.606776 1_555
La0 O9 2.948446 1_555
La0 O4 2.948446 1_555
La1 O3 2.419452 1_555
La1 O8 2.501700 1_555
La1 O7 2.501700 1_555
La1 O13 2.510578 1_555
La1 O2 2.606776 1_555
La1 O0 2.606776 1_555
La1 O11 2.948446 1_555
La1 O6 2.948446 1_555
Ga0 O6 1.854228 1_556
Ga0 O4 1.854228 1_546
Ga0 O10 1.868199 1_545
Ga0 O8 1.868199 1_555
Ga1 O11 1.854228 1_556
Ga1 O9 1.854228 1_456
Ga1 O5 1.868199 1_455
Ga1 O7 1.868199 1_555
Ga2 O0 1.827894 1_554
Ga2 O11 1.873222 1_555
Ga2 O4 1.873222 1_555
Ga2 O13 1.879764 1_555
Ga3 O1 1.818595 1_556
Ga3 O12 1.840343 1_665
Ga3 O5 1.891401 1_555
Ga3 O10 1.891401 1_555
Ga4 O2 1.827894 1_554
Ga4 O6 1.873222 1_555
Ga4 O9 1.873222 1_555
Ga4 O13 1.879764 1_555
Ga5 O3 1.818595 1_556
Ga5 O12 1.840343 1_555
Ga5 O7 1.891401 1_555
Ga5 O8 1.891401 1_555
O0 Sr0 2.629202 1_555
O1 Sr0 2.717682 1_655
O1 Sr1 2.717682 1_565
O2 Sr1 2.629202 1_555
O3 Sr0 2.717682 1_545
O3 Sr1 2.717682 1_455
O4 Sr0 2.594228 1_555
O5 Sr0 3.007866 1_655
O6 Sr1 2.594228 1_555
O7 Sr1 3.007866 1_455
O8 Sr0 3.007866 1_545
O9 Sr1 2.594228 1_555
O10 Sr1 3.007866 1_565
O11 Sr0 2.594228 1_555
O12 Sr0 2.555004 1_545
O12 Sr1 2.555004 1_455
