# generated using pymatgen
data_TiNi5(BO5)2
_symmetry_space_group_name_H-M   'P 1'
_cell_length_a   3.02328000
_cell_length_b   9.30698400
_cell_length_c   12.35572400
_cell_angle_alpha   90.00000000
_cell_angle_beta   90.00000000
_cell_angle_gamma   90.00000000
_symmetry_Int_Tables_number   1
_chemical_formula_structural   TiNi5(BO5)2
_chemical_formula_sum   'Ti2 Ni10 B4 O20'
_cell_volume   347.66064928
_cell_formula_units_Z   2
loop_
 _symmetry_equiv_pos_site_id
 _symmetry_equiv_pos_as_xyz
  1  'x, y, z'
loop_
 _atom_site_type_symbol
 _atom_site_label
 _atom_site_symmetry_multiplicity
 _atom_site_fract_x
 _atom_site_fract_y
 _atom_site_fract_z
 _atom_site_occupancy
  Ti  Ti0  1  0.00000000  0.01037100  0.61358900  1
  Ti  Ti1  1  0.00000000  0.98962900  0.11358900  1
  Ni  Ni0  1  0.50000000  0.25952800  0.21988000  1
  Ni  Ni1  1  0.50000000  0.25924600  0.78478200  1
  Ni  Ni2  1  0.50000000  0.74075400  0.28478200  1
  Ni  Ni3  1  0.50000000  0.74047200  0.71988000  1
  Ni  Ni4  1  0.50000000  0.25987300  0.49655000  1
  Ni  Ni5  1  0.50000000  0.74012700  0.99655000  1
  Ni  Ni6  1  0.00000000  0.73997600  0.49701100  1
  Ni  Ni7  1  0.00000000  0.26002400  0.99701100  1
  Ni  Ni8  1  0.00000000  0.48790900  0.38521600  1
  Ni  Ni9  1  0.00000000  0.51209100  0.88521600  1
  B  B0  1  0.00000000  0.52584300  0.13998400  1
  B  B1  1  0.00000000  0.97993300  0.85998600  1
  B  B2  1  0.00000000  0.02006700  0.35998600  1
  B  B3  1  0.00000000  0.47415700  0.63998400  1
  O  O0  1  0.00000000  0.39778800  0.54375800  1
  O  O1  1  0.00000000  0.09515500  0.45887300  1
  O  O2  1  0.00000000  0.90484500  0.95887300  1
  O  O3  1  0.00000000  0.60221200  0.04375800  1
  O  O4  1  0.50000000  0.63880700  0.42451700  1
  O  O5  1  0.50000000  0.87624300  0.57728000  1
  O  O6  1  0.50000000  0.12375700  0.07728000  1
  O  O7  1  0.50000000  0.36119300  0.92451700  1
  O  O8  1  0.00000000  0.60023400  0.23659500  1
  O  O9  1  0.00000000  0.90580100  0.76111700  1
  O  O10  1  0.00000000  0.09419900  0.26111700  1
  O  O11  1  0.00000000  0.39976600  0.73659500  1
  O  O12  1  0.50000000  0.35392900  0.35659000  1
  O  O13  1  0.50000000  0.13591300  0.64524400  1
  O  O14  1  0.50000000  0.86408700  0.14524400  1
  O  O15  1  0.50000000  0.64607100  0.85659000  1
  O  O16  1  0.00000000  0.37512600  0.14046600  1
  O  O17  1  0.00000000  0.12630600  0.85856200  1
  O  O18  1  0.00000000  0.87369400  0.35856200  1
  O  O19  1  0.00000000  0.62487400  0.64046600  1
loop_
_geom_bond_atom_site_label_1
_geom_bond_atom_site_label_2
_geom_bond_distance
_geom_bond_site_symmetry_2
Ni0 O12 1.903982 1_555
Ni0 O16 2.098889 1_555
Ni0 O16 2.098889 1_655
Ni0 O6 2.168206 1_555
Ni0 O10 2.216371 1_655
Ni0 O10 2.216371 1_555
Ni1 O7 1.970064 1_555
Ni1 O13 2.071250 1_555
Ni1 O11 2.085647 1_655
Ni1 O11 2.085647 1_555
Ni1 O17 2.155671 1_555
Ni1 O17 2.155671 1_655
Ni2 O4 1.970064 1_555
Ni2 O14 2.071250 1_555
Ni2 O8 2.085647 1_555
Ni2 O8 2.085647 1_655
Ni2 O18 2.155671 1_555
Ni2 O18 2.155671 1_655
Ni3 O15 1.903982 1_555
Ni3 O19 2.098889 1_555
Ni3 O19 2.098889 1_655
Ni3 O5 2.168206 1_555
Ni3 O9 2.216371 1_555
Ni3 O9 2.216371 1_655
Ni4 O12 1.938244 1_555
Ni4 O0 2.067085 1_555
Ni4 O0 2.067085 1_655
Ni4 O13 2.169423 1_555
Ni4 O1 2.202713 1_555
Ni4 O1 2.202713 1_655
Ni5 O15 1.938244 1_555
Ni5 O3 2.067085 1_556
Ni5 O3 2.067085 1_656
Ni5 O14 2.169423 1_556
Ni5 O2 2.202713 1_655
Ni5 O2 2.202713 1_555
Ni6 O4 1.993472 1_455
Ni6 O4 1.993472 1_555
Ni6 O19 2.071064 1_555
Ni6 O18 2.115441 1_555
Ni6 O5 2.208417 1_555
Ni6 O5 2.208417 1_455
Ni7 O7 1.993472 1_555
Ni7 O7 1.993472 1_455
Ni7 O16 2.071064 1_556
Ni7 O17 2.115441 1_555
Ni7 O6 2.208417 1_456
Ni7 O6 2.208417 1_556
Ni8 O12 1.991241 1_455
Ni8 O12 1.991241 1_555
Ni8 O8 2.113042 1_555
Ni8 O4 2.119719 1_455
Ni8 O4 2.119719 1_555
Ni8 O0 2.130916 1_555
Ni9 O15 1.991241 1_455
Ni9 O15 1.991241 1_555
Ni9 O11 2.113042 1_555
Ni9 O7 2.119719 1_455
Ni9 O7 2.119719 1_555
Ni9 O3 2.130916 1_556
B0 O8 1.379954 1_555
B0 O3 1.385197 1_555
B0 O16 1.402733 1_555
B1 O17 1.362405 1_565
B1 O9 1.402971 1_555
B1 O2 1.407561 1_555
B2 O18 1.362405 1_545
B2 O10 1.402971 1_555
B2 O1 1.407561 1_555
B3 O11 1.379954 1_555
B3 O0 1.385197 1_555
B3 O19 1.402733 1_555
O1 Ti0 2.068085 1_555
O2 Ti1 2.068085 1_556
O5 Ti0 2.011129 1_665
O5 Ti0 2.011129 1_565
O6 Ti1 2.011129 1_645
O6 Ti1 2.011129 1_545
O9 Ti0 2.066358 1_565
O10 Ti1 2.066358 1_545
O13 Ti0 1.950187 1_555
O13 Ti0 1.950187 1_655
O14 Ti1 1.950187 1_655
O14 Ti1 1.950187 1_555
