# generated using pymatgen
data_HXe2F15
_symmetry_space_group_name_H-M   'P 1'
_cell_length_a   6.55485400
_cell_length_b   11.01713700
_cell_length_c   15.77500300
_cell_angle_alpha   90.00000000
_cell_angle_beta   90.00000000
_cell_angle_gamma   90.00000000
_symmetry_Int_Tables_number   1
_chemical_formula_structural   HXe2F15
_chemical_formula_sum   'H4 Xe8 F60'
_cell_volume   1139.20327116
_cell_formula_units_Z   4
loop_
 _symmetry_equiv_pos_site_id
 _symmetry_equiv_pos_as_xyz
  1  'x, y, z'
loop_
 _atom_site_type_symbol
 _atom_site_label
 _atom_site_symmetry_multiplicity
 _atom_site_fract_x
 _atom_site_fract_y
 _atom_site_fract_z
 _atom_site_occupancy
  H  H0  1  0.30423400  0.31132400  0.86061200  1
  H  H1  1  0.80423400  0.68867600  0.13938800  1
  H  H2  1  0.80423400  0.18867600  0.36061200  1
  H  H3  1  0.30423400  0.81132400  0.63938800  1
  Xe  Xe0  1  0.74973800  0.28428300  0.03725800  1
  Xe  Xe1  1  0.24973800  0.71571700  0.96274200  1
  Xe  Xe2  1  0.24973800  0.21571700  0.53725800  1
  Xe  Xe3  1  0.74973800  0.78428300  0.46274200  1
  Xe  Xe4  1  0.71002800  0.09066900  0.81223900  1
  Xe  Xe5  1  0.21002800  0.90933100  0.18776100  1
  Xe  Xe6  1  0.21002800  0.40933100  0.31223900  1
  Xe  Xe7  1  0.71002800  0.59066900  0.68776100  1
  F  F0  1  0.71251100  0.44670900  0.98292100  1
  F  F1  1  0.21251100  0.55329100  0.01707900  1
  F  F2  1  0.21251100  0.05329100  0.48292100  1
  F  F3  1  0.71251100  0.94670900  0.51707900  1
  F  F4  1  0.77137800  0.38633500  0.14008100  1
  F  F5  1  0.27137800  0.61366500  0.85991900  1
  F  F6  1  0.27137800  0.11366500  0.64008100  1
  F  F7  1  0.77137800  0.88633500  0.35991900  1
  F  F8  1  0.05079400  0.30939000  0.03947100  1
  F  F9  1  0.55079400  0.69061000  0.96052900  1
  F  F10  1  0.55079400  0.19061000  0.53947100  1
  F  F11  1  0.05079400  0.80939000  0.46052900  1
  F  F12  1  0.78966800  0.15319400  0.12205900  1
  F  F13  1  0.28966800  0.84680600  0.87794100  1
  F  F14  1  0.28966800  0.34680600  0.62205900  1
  F  F15  1  0.78966800  0.65319400  0.37794100  1
  F  F16  1  0.45751700  0.28785000  0.06984000  1
  F  F17  1  0.95751700  0.71215000  0.93016000  1
  F  F18  1  0.95751700  0.21215000  0.56984000  1
  F  F19  1  0.45751700  0.78785000  0.43016000  1
  F  F20  1  0.75832900  0.92790000  0.86212800  1
  F  F21  1  0.25832900  0.07210000  0.13787200  1
  F  F22  1  0.25832900  0.57210000  0.36212800  1
  F  F23  1  0.75832900  0.42790000  0.63787200  1
  F  F24  1  0.68326300  0.99426800  0.70722100  1
  F  F25  1  0.18326300  0.00573200  0.29277900  1
  F  F26  1  0.18326300  0.50573200  0.20722100  1
  F  F27  1  0.68326300  0.49426800  0.79277900  1
  F  F28  1  0.66564100  0.22587700  0.73057700  1
  F  F29  1  0.16564100  0.77412300  0.26942300  1
  F  F30  1  0.16564100  0.27412300  0.23057700  1
  F  F31  1  0.66564100  0.72587700  0.76942300  1
  F  F32  1  0.99929500  0.08783300  0.77556400  1
  F  F33  1  0.49929500  0.91216700  0.22443600  1
  F  F34  1  0.49929500  0.41216700  0.27556400  1
  F  F35  1  0.99929500  0.58783300  0.72443600  1
  F  F36  1  0.41159400  0.05897900  0.81396200  1
  F  F37  1  0.91159400  0.94102100  0.18603800  1
  F  F38  1  0.91159400  0.44102100  0.31396200  1
  F  F39  1  0.41159400  0.55897900  0.68603800  1
  F  F40  1  0.88616000  0.24892600  0.89070000  1
  F  F41  1  0.38616000  0.75107400  0.10930000  1
  F  F42  1  0.38616000  0.25107400  0.39070000  1
  F  F43  1  0.88616000  0.74892600  0.60930000  1
  F  F44  1  0.62775900  0.11268300  0.96519400  1
  F  F45  1  0.12775900  0.88731700  0.03480600  1
  F  F46  1  0.12775900  0.38731700  0.46519400  1
  F  F47  1  0.62775900  0.61268300  0.53480600  1
  F  F48  1  0.55774500  0.93304400  0.03515600  1
  F  F49  1  0.05774500  0.06695600  0.96484400  1
  F  F50  1  0.05774500  0.56695600  0.53515600  1
  F  F51  1  0.55774500  0.43304400  0.46484400  1
  F  F52  1  0.09686000  0.34496700  0.82885700  1
  F  F53  1  0.59686000  0.65503300  0.17114300  1
  F  F54  1  0.59686000  0.15503300  0.32885700  1
  F  F55  1  0.09686000  0.84496700  0.67114300  1
  F  F56  1  0.44992500  0.30014500  0.87509900  1
  F  F57  1  0.94992500  0.69985500  0.12490100  1
  F  F58  1  0.94992500  0.19985500  0.37509900  1
  F  F59  1  0.44992500  0.80014500  0.62490100  1
loop_
_geom_bond_atom_site_label_1
_geom_bond_atom_site_label_2
_geom_bond_distance
_geom_bond_site_symmetry_2
F0 Xe0 1.999120 1_556
F1 Xe1 1.999120 1_554
F2 Xe2 1.999120 1_555
F3 Xe3 1.999120 1_555
F4 Xe0 1.978689 1_555
F5 Xe1 1.978689 1_555
F6 Xe2 1.978689 1_555
F7 Xe3 1.978689 1_555
F8 Xe0 1.992976 1_455
F9 Xe1 1.992976 1_555
F10 Xe2 1.992976 1_555
F11 Xe3 1.992976 1_455
F12 Xe0 1.985908 1_555
F13 Xe1 1.985908 1_555
F14 Xe2 1.985908 1_555
F15 Xe3 1.985908 1_555
F16 Xe0 1.983616 1_555
F17 Xe1 1.983616 1_655
F18 Xe2 1.983616 1_655
F19 Xe3 1.983616 1_555
F20 Xe4 1.983771 1_565
F21 Xe5 1.983771 1_545
F22 Xe6 1.983771 1_555
F23 Xe7 1.983771 1_555
F24 Xe4 1.975671 1_565
F25 Xe5 1.975671 1_545
F26 Xe6 1.975671 1_555
F27 Xe7 1.975671 1_555
F28 Xe4 1.990749 1_555
F29 Xe5 1.990749 1_555
F30 Xe6 1.990749 1_555
F31 Xe7 1.990749 1_555
F32 Xe4 1.982650 1_555
F33 Xe5 1.982650 1_555
F34 Xe6 1.982650 1_555
F35 Xe7 1.982650 1_555
F36 Xe4 1.987289 1_555
F37 Xe5 1.987289 1_655
F38 Xe6 1.987289 1_655
F39 Xe7 1.987289 1_555
F40 Xe4 2.429980 1_555
F40 Xe0 2.509283 1_556
F41 Xe5 2.429980 1_555
F41 Xe1 2.509283 1_554
F42 Xe6 2.429980 1_555
F42 Xe2 2.509283 1_555
F43 Xe7 2.429980 1_555
F43 Xe3 2.509283 1_555
F44 Xe0 2.346437 1_556
F44 Xe4 2.484259 1_555
F45 Xe1 2.346437 1_554
F45 Xe5 2.484259 1_555
F46 Xe2 2.346437 1_555
F46 Xe6 2.484259 1_555
F47 Xe3 2.346437 1_555
F47 Xe7 2.484259 1_555
F52 H0 1.495336 1_555
F53 H1 1.495336 1_555
F54 H2 1.495336 1_555
F55 H3 1.495336 1_555
F56 H0 0.989641 1_555
F57 H1 0.989641 1_555
F58 H2 0.989641 1_555
F59 H3 0.989641 1_555
