# generated using pymatgen
data_LiErTlO2
_symmetry_space_group_name_H-M   'P 1'
_cell_length_a   3.41273506
_cell_length_b   8.67571827
_cell_length_c   3.41273550
_cell_angle_alpha   78.83290171
_cell_angle_beta   60.12204356
_cell_angle_gamma   78.83290563
_symmetry_Int_Tables_number   1
_chemical_formula_structural   LiErTlO2
_chemical_formula_sum   'Li1 Er1 Tl1 O2'
_cell_volume   85.39239594
_cell_formula_units_Z   1
loop_
 _symmetry_equiv_pos_site_id
 _symmetry_equiv_pos_as_xyz
  1  'x, y, z'
loop_
 _atom_site_type_symbol
 _atom_site_label
 _atom_site_symmetry_multiplicity
 _atom_site_fract_x
 _atom_site_fract_y
 _atom_site_fract_z
 _atom_site_occupancy
  Li  Li0  1  0.27334100  0.24263000  0.27334100  1
  Er  Er0  1  0.52218900  0.51755200  0.52218900  1
  Tl  Tl0  1  0.03818800  0.94082900  0.03818800  1
  O  O0  1  0.15195400  0.62756600  0.15195400  1
  O  O1  1  0.90718500  0.35660800  0.90718500  1
loop_
_geom_bond_atom_site_label_1
_geom_bond_atom_site_label_2
_geom_bond_distance
_geom_bond_site_symmetry_2
Li0 O1 2.167777 1_454
Li0 O1 2.208010 1_554
Li0 O1 2.208011 1_455
Er0 O0 2.179104 1_655
Er0 O0 2.179104 1_556
Er0 O0 2.181799 1_555
Er0 O1 2.387673 1_555
Er0 O1 2.399624 1_455
Er0 O1 2.399625 1_554
O0 Tl0 2.649635 1_555
