# generated using pymatgen
data_LaMg14Mo
_symmetry_space_group_name_H-M   'P 1'
_cell_length_a   6.50553727
_cell_length_b   6.07963198
_cell_length_c   10.44354944
_cell_angle_alpha   90.00000000
_cell_angle_beta   90.00000000
_cell_angle_gamma   117.85697407
_symmetry_Int_Tables_number   1
_chemical_formula_structural   LaMg14Mo
_chemical_formula_sum   'La1 Mg14 Mo1'
_cell_volume   365.18944429
_cell_formula_units_Z   1
loop_
 _symmetry_equiv_pos_site_id
 _symmetry_equiv_pos_as_xyz
  1  'x, y, z'
loop_
 _atom_site_type_symbol
 _atom_site_label
 _atom_site_symmetry_multiplicity
 _atom_site_fract_x
 _atom_site_fract_y
 _atom_site_fract_z
 _atom_site_occupancy
  La  La0  1  0.15223007  0.32611454  0.12500000  1
  Mg  Mg0  1  0.16583790  0.33291845  0.62500000  1
  Mg  Mg1  1  0.15987450  0.82993675  0.62500000  1
  Mg  Mg2  1  0.65199387  0.32088372  0.12500000  1
  Mg  Mg3  1  0.66096780  0.33310565  0.62500000  1
  Mg  Mg4  1  0.65199387  0.83110916  0.12500000  1
  Mg  Mg5  1  0.66096780  0.82786114  0.62500000  1
  Mg  Mg6  1  0.33808869  0.16111682  0.37629932  1
  Mg  Mg7  1  0.33808869  0.16111682  0.87370068  1
  Mg  Mg8  1  0.33808869  0.67697287  0.37629932  1
  Mg  Mg9  1  0.33808869  0.67697287  0.87370068  1
  Mg  Mg10  1  0.83319846  0.16659973  0.38836743  1
  Mg  Mg11  1  0.83319846  0.16659973  0.86163257  1
  Mg  Mg12  1  0.85451843  0.67725972  0.35794327  1
  Mg  Mg13  1  0.85451843  0.67725972  0.89205673  1
  Mo  Mo0  1  0.16834562  0.83417231  0.12500000  1
loop_
_geom_bond_atom_site_label_1
_geom_bond_atom_site_label_2
_geom_bond_distance
_geom_bond_site_symmetry_2
La0 Mo0 3.041229 1_555
La0 Mo0 3.041229 1_545
La0 Mg7 3.238744 1_554
La0 Mg6 3.238744 1_555
La0 Mg8 3.238750 1_555
La0 Mg9 3.238750 1_554
La0 Mg4 3.239567 1_445
La0 Mg2 3.239568 1_455
La0 Mg4 3.266213 1_555
La0 Mg2 3.266213 1_555
La0 Mg11 3.306399 1_454
La0 Mg10 3.306399 1_455
Mg0 Mg1 3.040009 1_545
Mg0 Mg1 3.040009 1_555
Mg0 Mg10 3.125329 1_455
Mg0 Mg11 3.125329 1_455
Mg0 Mg6 3.191636 1_555
Mg0 Mg7 3.191636 1_555
Mg0 Mg8 3.191642 1_555
Mg0 Mg9 3.191642 1_555
Mg0 Mg5 3.220554 1_555
Mg0 Mg3 3.220554 1_555
Mg0 Mg5 3.284983 1_445
Mg0 Mg3 3.284983 1_455
Mg1 Mg9 3.156366 1_555
Mg1 Mg8 3.156366 1_555
Mg1 Mg7 3.156372 1_565
Mg1 Mg6 3.156372 1_565
Mg1 Mg3 3.239779 1_455
Mg1 Mg5 3.239779 1_455
Mg1 Mg3 3.265796 1_565
Mg1 Mg5 3.265797 1_555
Mg1 Mg13 3.295942 1_455
Mg1 Mg12 3.295942 1_455
Mg2 Mg4 2.977649 1_545
Mg2 Mg4 3.101983 1_555
Mg2 Mo0 3.155136 1_545
Mg2 Mg7 3.185562 1_554
Mg2 Mg6 3.185562 1_555
Mg2 Mo0 3.350484 1_655
Mg3 Mg5 3.007931 1_555
Mg3 Mg5 3.071701 1_545
Mg3 Mg6 3.193580 1_555
Mg3 Mg7 3.193580 1_555
Mg4 Mo0 3.155136 1_555
Mg4 Mg9 3.185562 1_554
Mg4 Mg8 3.185562 1_555
Mg4 Mo0 3.350484 1_655
Mg5 Mg9 3.193580 1_555
Mg5 Mg8 3.193580 1_555
Mg6 Mg8 2.943417 1_545
Mg6 Mg8 3.136215 1_555
Mg6 Mo0 3.163366 1_545
Mg7 Mg9 2.943417 1_545
Mg7 Mg9 3.136215 1_555
Mg7 Mo0 3.163366 1_546
Mg8 Mo0 3.163361 1_555
Mg9 Mo0 3.163361 1_556
Mg10 Mg12 3.058835 1_545
Mg10 Mg12 3.058835 1_555
Mg10 Mg3 3.073658 1_555
Mg10 Mg5 3.073664 1_545
Mg10 Mg8 3.207991 1_545
Mg10 Mg6 3.207991 1_555
Mg10 Mg2 3.296667 1_555
Mg10 Mg4 3.296673 1_545
Mg10 Mg8 3.302695 1_655
Mg10 Mg6 3.302695 1_655
Mg11 Mg13 3.058835 1_545
Mg11 Mg13 3.058835 1_555
Mg11 Mg3 3.073658 1_555
Mg11 Mg5 3.073664 1_545
Mg11 Mg9 3.207991 1_545
Mg11 Mg7 3.207991 1_555
Mg11 Mg2 3.296667 1_556
Mg11 Mg4 3.296673 1_546
Mg11 Mg9 3.302695 1_655
Mg11 Mg7 3.302695 1_655
Mg12 Mo0 3.029259 1_655
Mg12 Mg4 3.111387 1_555
Mg12 Mg2 3.111393 1_555
Mg12 Mg6 3.152533 1_665
Mg12 Mg8 3.152534 1_655
Mg12 Mg5 3.358545 1_555
Mg12 Mg3 3.358550 1_555
Mg12 Mg6 3.364304 1_555
Mg12 Mg8 3.364305 1_555
Mg13 Mo0 3.029259 1_656
Mg13 Mg4 3.111387 1_556
Mg13 Mg2 3.111393 1_556
Mg13 Mg7 3.152533 1_665
Mg13 Mg9 3.152534 1_655
Mg13 Mg5 3.358545 1_555
Mg13 Mg3 3.358550 1_555
Mg13 Mg7 3.364304 1_555
Mg13 Mg9 3.364305 1_555
