# generated using pymatgen
data_Lu4Zr3O12
_symmetry_space_group_name_H-M   'P 1'
_cell_length_a   6.25040387
_cell_length_b   6.25891440
_cell_length_c   6.36667678
_cell_angle_alpha   99.63921208
_cell_angle_beta   99.06577333
_cell_angle_gamma   99.46775642
_symmetry_Int_Tables_number   1
_chemical_formula_structural   Lu4Zr3O12
_chemical_formula_sum   'Lu4 Zr3 O12'
_cell_volume   237.77914334
_cell_formula_units_Z   1
loop_
 _symmetry_equiv_pos_site_id
 _symmetry_equiv_pos_as_xyz
  1  'x, y, z'
loop_
 _atom_site_type_symbol
 _atom_site_label
 _atom_site_symmetry_multiplicity
 _atom_site_fract_x
 _atom_site_fract_y
 _atom_site_fract_z
 _atom_site_occupancy
  Lu  Lu0  1  0.39149176  0.69786909  0.86449626  1
  Lu  Lu1  1  0.69049538  0.86337281  0.39033512  1
  Lu  Lu2  1  0.60850824  0.30213091  0.13550374  1
  Lu  Lu3  1  0.30950462  0.13662719  0.60966488  1
  Zr  Zr0  1  -0.00000000  -0.00000000  0.00000000  1
  Zr  Zr1  1  0.85225641  0.39400190  0.67754119  1
  Zr  Zr2  1  0.14774359  0.60599810  0.32245881  1
  O  O0  1  0.03964298  0.67641924  0.89782243  1
  O  O1  1  0.68282450  0.92632974  0.06028548  1
  O  O2  1  0.91691106  0.07541958  0.68626950  1
  O  O3  1  0.96035702  0.32358076  0.10217757  1
  O  O4  1  0.31717550  0.07367026  0.93971452  1
  O  O5  1  0.08308894  0.92458042  0.31373050  1
  O  O6  1  0.58404428  0.18528738  0.43110611  1
  O  O7  1  0.17452058  0.42683145  0.57359724  1
  O  O8  1  0.41616429  0.57857923  0.17815223  1
  O  O9  1  0.41595572  0.81471262  0.56889389  1
  O  O10  1  0.82547942  0.57316855  0.42640276  1
  O  O11  1  0.58383571  0.42142077  0.82184777  1
loop_
_geom_bond_atom_site_label_1
_geom_bond_atom_site_label_2
_geom_bond_distance
_geom_bond_site_symmetry_2
Lu0 O9 2.148246 1_555
Lu0 O1 2.178416 1_556
Lu0 O0 2.226874 1_555
Lu0 O8 2.238116 1_556
Lu0 O11 2.267771 1_555
Lu0 O7 2.355106 1_555
Lu0 O4 2.455572 1_565
Lu1 O10 2.155581 1_555
Lu1 O1 2.196558 1_555
Lu1 O9 2.210996 1_555
Lu1 O6 2.211327 1_565
Lu1 O2 2.240199 1_565
Lu1 O8 2.323892 1_555
Lu1 O5 2.556669 1_655
Lu2 O6 2.148246 1_555
Lu2 O4 2.178416 1_554
Lu2 O3 2.226874 1_555
Lu2 O11 2.238116 1_554
Lu2 O8 2.267771 1_555
Lu2 O10 2.355106 1_555
Lu2 O1 2.455572 1_545
Lu3 O7 2.155581 1_555
Lu3 O4 2.196558 1_555
Lu3 O6 2.210996 1_555
Lu3 O9 2.211327 1_545
Lu3 O5 2.240199 1_545
Lu3 O11 2.323892 1_555
Lu3 O2 2.556669 1_455
O0 Zr0 2.088292 1_566
O0 Zr1 2.105767 1_455
O1 Zr0 2.070860 1_665
O2 Zr1 2.106533 1_555
O2 Zr0 2.133479 1_656
O3 Zr0 2.088292 1_655
O3 Zr2 2.105767 1_655
O4 Zr0 2.070860 1_556
O5 Zr2 2.106533 1_555
O5 Zr0 2.133479 1_565
O6 Zr1 2.177808 1_555
O7 Zr2 2.102363 1_555
O7 Zr1 2.206117 1_455
O8 Zr2 2.053300 1_555
O9 Zr2 2.177808 1_555
O10 Zr1 2.102363 1_555
O10 Zr2 2.206117 1_655
O11 Zr1 2.053300 1_555
