# generated using pymatgen
data_Eu5Bi3
_symmetry_space_group_name_H-M   'P 1'
_cell_length_a   9.57829498
_cell_length_b   9.57820860
_cell_length_c   7.19584522
_cell_angle_alpha   90.00000000
_cell_angle_beta   90.00000000
_cell_angle_gamma   119.99971065
_symmetry_Int_Tables_number   1
_chemical_formula_structural   Eu5Bi3
_chemical_formula_sum   'Eu10 Bi6'
_cell_volume   571.72371890
_cell_formula_units_Z   2
loop_
 _symmetry_equiv_pos_site_id
 _symmetry_equiv_pos_as_xyz
  1  'x, y, z'
loop_
 _atom_site_type_symbol
 _atom_site_label
 _atom_site_symmetry_multiplicity
 _atom_site_fract_x
 _atom_site_fract_y
 _atom_site_fract_z
 _atom_site_occupancy
  Eu  Eu0  1  0.66666144  0.33333072  0.50000000  1
  Eu  Eu1  1  0.33333856  0.66666928  0.50000000  1
  Eu  Eu2  1  0.33333856  0.66666928  0.00000000  1
  Eu  Eu3  1  0.66666144  0.33333072  0.00000000  1
  Eu  Eu4  1  0.74792866  0.74792657  0.25000100  1
  Eu  Eu5  1  0.25207134  -0.00000109  0.25000100  1
  Eu  Eu6  1  0.00000000  0.25206817  0.25000200  1
  Eu  Eu7  1  0.25207134  0.25207343  0.74999900  1
  Eu  Eu8  1  0.74792866  0.00000109  0.74999900  1
  Eu  Eu9  1  -0.00000000  0.74793183  0.74999800  1
  Bi  Bi0  1  0.38871040  0.38871287  0.25000000  1
  Bi  Bi1  1  0.61129060  0.00000248  0.25000000  1
  Bi  Bi2  1  -0.00000000  0.61128485  0.25000000  1
  Bi  Bi3  1  0.61128960  0.61128713  0.75000000  1
  Bi  Bi4  1  0.38870940  0.99999752  0.75000000  1
  Bi  Bi5  1  0.00000000  0.38871515  0.75000000  1
loop_
_geom_bond_atom_site_label_1
_geom_bond_atom_site_label_2
_geom_bond_distance
_geom_bond_site_symmetry_2
Eu0 Eu3 3.597923 1_555
Eu0 Eu3 3.597923 1_556
Eu0 Eu4 4.064553 1_555
Eu0 Eu8 4.064562 1_555
Eu0 Eu5 4.064563 1_555
Eu0 Eu7 4.064567 1_555
Eu0 Eu9 4.064629 1_655
Eu0 Eu6 4.064629 1_655
Eu1 Eu2 3.597923 1_556
Eu1 Eu2 3.597923 1_555
Eu1 Eu7 4.064553 1_555
Eu1 Eu5 4.064562 1_565
Eu1 Eu8 4.064563 1_565
Eu1 Eu4 4.064567 1_555
Eu1 Eu6 4.064629 1_555
Eu1 Eu9 4.064629 1_555
Eu2 Eu7 4.064560 1_554
Eu2 Eu5 4.064568 1_565
Eu2 Eu8 4.064570 1_564
Eu2 Eu4 4.064573 1_555
Eu2 Eu6 4.064641 1_555
Eu2 Eu9 4.064642 1_554
Eu3 Eu4 4.064560 1_555
Eu3 Eu8 4.064568 1_554
Eu3 Eu5 4.064570 1_555
Eu3 Eu7 4.064573 1_554
Eu3 Eu9 4.064641 1_654
Eu3 Eu6 4.064642 1_655
Eu4 Eu6 4.181853 1_665
Eu4 Eu5 4.181899 1_665
Eu4 Eu9 4.332916 1_655
Eu4 Eu8 4.332941 1_565
Eu4 Eu9 4.332952 1_654
Eu4 Eu8 4.332965 1_564
Eu5 Eu6 4.181845 1_555
Eu5 Eu9 4.332919 1_545
Eu5 Eu7 4.332941 1_555
Eu5 Eu9 4.332955 1_544
Eu5 Eu7 4.332965 1_554
Eu6 Eu7 4.332916 1_555
Eu6 Eu8 4.332919 1_455
Eu6 Eu7 4.332952 1_554
Eu6 Eu8 4.332955 1_454
Eu7 Eu9 4.181853 1_545
Eu7 Eu8 4.181899 1_455
Eu8 Eu9 4.181845 1_645
Bi0 Eu6 3.271418 1_555
Bi0 Eu5 3.271426 1_555
Bi0 Eu4 3.440676 1_555
Bi0 Eu1 3.466630 1_555
Bi0 Eu2 3.466630 1_555
Bi0 Eu3 3.466657 1_555
Bi0 Eu0 3.466657 1_555
Bi0 Eu7 3.828561 1_555
Bi0 Eu7 3.828574 1_554
Bi1 Eu6 3.271411 1_655
Bi1 Eu4 3.271428 1_545
Bi1 Eu5 3.440691 1_555
Bi1 Eu0 3.466633 1_555
Bi1 Eu3 3.466633 1_555
Bi1 Eu2 3.466660 1_545
Bi1 Eu1 3.466660 1_545
Bi1 Eu8 3.828559 1_555
Bi1 Eu8 3.828573 1_554
Bi2 Eu4 3.271425 1_455
Bi2 Eu5 3.271432 1_565
Bi2 Eu6 3.440652 1_555
Bi2 Eu3 3.466702 1_455
Bi2 Eu0 3.466702 1_455
Bi2 Eu2 3.466702 1_555
Bi2 Eu1 3.466702 1_555
Bi2 Eu9 3.828575 1_555
Bi2 Eu9 3.828602 1_554
Bi3 Eu9 3.271418 1_655
Bi3 Eu8 3.271426 1_565
Bi3 Eu7 3.440676 1_555
Bi3 Eu0 3.466630 1_555
Bi3 Eu3 3.466630 1_556
Bi3 Eu1 3.466657 1_555
Bi3 Eu2 3.466657 1_556
Bi3 Eu4 3.828561 1_555
Bi3 Eu4 3.828574 1_556
Bi4 Eu9 3.271411 1_555
Bi4 Eu7 3.271428 1_565
Bi4 Eu8 3.440691 1_565
Bi4 Eu1 3.466633 1_555
Bi4 Eu2 3.466633 1_556
Bi4 Eu0 3.466660 1_565
Bi4 Eu3 3.466660 1_566
Bi4 Eu5 3.828559 1_565
Bi4 Eu5 3.828573 1_566
Bi5 Eu7 3.271425 1_555
Bi5 Eu8 3.271432 1_455
Bi5 Eu9 3.440652 1_555
Bi5 Eu2 3.466702 1_556
Bi5 Eu1 3.466702 1_555
Bi5 Eu3 3.466702 1_456
Bi5 Eu0 3.466702 1_455
Bi5 Eu6 3.828575 1_555
Bi5 Eu6 3.828602 1_556
