# generated using pymatgen
data_Ce4P5SO28
_symmetry_space_group_name_H-M   'P 1'
_cell_length_a   9.45354076
_cell_length_b   9.45354076
_cell_length_c   10.25336662
_cell_angle_alpha   61.39854504
_cell_angle_beta   61.39854504
_cell_angle_gamma   62.97258584
_symmetry_Int_Tables_number   1
_chemical_formula_structural   Ce4P5SO28
_chemical_formula_sum   'Ce4 P5 S1 O28'
_cell_volume   675.51283362
_cell_formula_units_Z   1
loop_
 _symmetry_equiv_pos_site_id
 _symmetry_equiv_pos_as_xyz
  1  'x, y, z'
loop_
 _atom_site_type_symbol
 _atom_site_label
 _atom_site_symmetry_multiplicity
 _atom_site_fract_x
 _atom_site_fract_y
 _atom_site_fract_z
 _atom_site_occupancy
  Ce  Ce0  1  0.74484700  0.02339500  0.83917300  1
  Ce  Ce1  1  0.97660500  0.25515300  0.16082700  1
  Ce  Ce2  1  0.25096900  0.97718900  0.67390100  1
  Ce  Ce3  1  0.02281100  0.74903100  0.32609900  1
  P  P0  1  0.94411900  0.34403300  0.50037100  1
  P  P1  1  0.65596700  0.05588100  0.49962900  1
  P  P2  1  0.05874500  0.65513300  0.99469100  1
  P  P3  1  0.34486700  0.94125500  0.00530900  1
  P  P4  1  0.87073600  0.12926400  0.00000000  1
  S  S0  1  0.12972700  0.87027300  0.50000000  1
  O  O0  1  0.92003700  0.52513700  0.47943800  1
  O  O1  1  0.47486300  0.07996300  0.52056200  1
  O  O2  1  0.08447900  0.47163300  0.02012300  1
  O  O3  1  0.52836700  0.91552100  0.97987700  1
  O  O4  1  0.11661400  0.22769100  0.52080200  1
  O  O5  1  0.77230900  0.88338600  0.47919800  1
  O  O6  1  0.88536200  0.76743100  0.97276500  1
  O  O7  1  0.23256900  0.11463800  0.02723500  1
  O  O8  1  0.71496800  0.49689900  0.18435300  1
  O  O9  1  0.50310100  0.28503200  0.81564700  1
  O  O10  1  0.28732400  0.51345600  0.29941000  1
  O  O11  1  0.48654400  0.71267600  0.70059000  1
  O  O12  1  0.99126700  0.06960400  0.85473800  1
  O  O13  1  0.93039600  0.00873300  0.14526200  1
  O  O14  1  0.01229000  0.92779200  0.63919900  1
  O  O15  1  0.07220800  0.98771000  0.36080100  1
  O  O16  1  0.80014700  0.27595600  0.64539100  1
  O  O17  1  0.72404400  0.19985300  0.35460900  1
  O  O18  1  0.19908700  0.72323200  0.84564600  1
  O  O19  1  0.27676800  0.80091300  0.15435400  1
  O  O20  1  0.69784000  0.12549100  0.02442300  1
  O  O21  1  0.87450900  0.30216000  0.97557700  1
  O  O22  1  0.29775400  0.87258800  0.47210700  1
  O  O23  1  0.12741200  0.70224600  0.52789300  1
  O  O24  1  0.93442400  0.34110900  0.35453000  1
  O  O25  1  0.65889100  0.06557600  0.64547000  1
  O  O26  1  0.05990200  0.66286900  0.14184600  1
  O  O27  1  0.33713100  0.94009800  0.85815400  1
loop_
_geom_bond_atom_site_label_1
_geom_bond_atom_site_label_2
_geom_bond_distance
_geom_bond_site_symmetry_2
Ce0 O3 2.229541 1_545
Ce0 O6 2.267922 1_545
Ce0 O25 2.292676 1_555
Ce0 O20 2.300906 1_556
Ce0 O16 2.349394 1_555
Ce0 O14 2.479400 1_645
Ce0 O9 2.493599 1_555
Ce0 O12 2.643979 1_555
Ce1 O2 2.229541 1_655
Ce1 O7 2.267922 1_655
Ce1 O24 2.292676 1_555
Ce1 O21 2.300906 1_554
Ce1 O17 2.349394 1_555
Ce1 O15 2.479400 1_645
Ce1 O8 2.493599 1_555
Ce1 O13 2.643979 1_555
Ce2 O27 2.221500 1_555
Ce2 O1 2.261896 1_565
Ce2 O18 2.302361 1_555
Ce2 O4 2.302525 1_565
Ce2 O12 2.339225 1_465
Ce2 O22 2.477850 1_555
Ce2 O11 2.480844 1_555
Ce2 O14 2.705770 1_555
Ce3 O26 2.221500 1_555
Ce3 O0 2.261896 1_455
Ce3 O19 2.302361 1_555
Ce3 O5 2.302525 1_455
Ce3 O13 2.339225 1_465
Ce3 O23 2.477850 1_555
Ce3 O10 2.480844 1_555
Ce3 O15 2.705770 1_555
O0 P0 1.539421 1_555
O1 P1 1.539421 1_555
O2 P2 1.542902 1_554
O3 P3 1.542902 1_556
O4 P0 1.545691 1_455
O5 P1 1.545691 1_565
O6 P2 1.551457 1_655
O7 P3 1.551457 1_545
O12 P4 1.558897 1_556
O13 P4 1.558897 1_555
O14 S0 1.497530 1_555
O15 S0 1.497530 1_555
O16 P0 1.555585 1_555
O17 P1 1.555585 1_555
O18 P2 1.550222 1_555
O19 P3 1.550222 1_555
O20 P4 1.545334 1_555
O21 P4 1.545334 1_556
O22 S0 1.481923 1_555
O23 S0 1.481923 1_555
O24 P0 1.555110 1_555
O25 P1 1.555110 1_555
O26 P2 1.550556 1_554
O27 P3 1.550556 1_556
