# generated using pymatgen
data_Er3C4
_symmetry_space_group_name_H-M   'P 1'
_cell_length_a   7.94628896
_cell_length_b   7.94628896
_cell_length_c   15.70715406
_cell_angle_alpha   90.00000000
_cell_angle_beta   90.00000000
_cell_angle_gamma   90.00000000
_symmetry_Int_Tables_number   1
_chemical_formula_structural   Er3C4
_chemical_formula_sum   'Er30 C40'
_cell_volume   991.80481175
_cell_formula_units_Z   10
loop_
 _symmetry_equiv_pos_site_id
 _symmetry_equiv_pos_as_xyz
  1  'x, y, z'
loop_
 _atom_site_type_symbol
 _atom_site_label
 _atom_site_symmetry_multiplicity
 _atom_site_fract_x
 _atom_site_fract_y
 _atom_site_fract_z
 _atom_site_occupancy
  Er  Er0  1  0.50000000  0.50000000  0.50000000  1
  Er  Er1  1  0.00000000  -0.00000000  0.00000000  1
  Er  Er2  1  0.50000000  0.50000000  0.18725472  1
  Er  Er3  1  0.00000000  -0.00000000  0.68725472  1
  Er  Er4  1  0.50000000  0.50000000  0.81274528  1
  Er  Er5  1  0.00000000  -0.00000000  0.31274528  1
  Er  Er6  1  0.70278635  0.90455077  0.50000000  1
  Er  Er7  1  0.29721265  0.09544923  0.50000000  1
  Er  Er8  1  0.79721365  0.40455077  0.00000000  1
  Er  Er9  1  0.20278635  0.59544923  0.00000000  1
  Er  Er10  1  0.90455077  0.29721265  0.50000000  1
  Er  Er11  1  0.09544923  0.70278635  0.50000000  1
  Er  Er12  1  0.40455077  0.20278635  0.00000000  1
  Er  Er13  1  0.59544923  0.79721365  0.00000000  1
  Er  Er14  1  0.78815081  0.60008937  0.35429231  1
  Er  Er15  1  0.21184919  0.39991063  0.35429231  1
  Er  Er16  1  0.71184919  0.10008937  0.85429231  1
  Er  Er17  1  0.28815081  0.89991063  0.85429231  1
  Er  Er18  1  0.60008937  0.21184919  0.35429231  1
  Er  Er19  1  0.39991063  0.78815081  0.35429231  1
  Er  Er20  1  0.10008937  0.28815081  0.85429231  1
  Er  Er21  1  0.89991063  0.71184919  0.85429231  1
  Er  Er22  1  0.21184919  0.39991063  0.64570769  1
  Er  Er23  1  0.78815081  0.60008937  0.64570769  1
  Er  Er24  1  0.28815081  0.89991063  0.14570769  1
  Er  Er25  1  0.71184919  0.10008937  0.14570769  1
  Er  Er26  1  0.39991063  0.78815081  0.64570769  1
  Er  Er27  1  0.60008937  0.21184919  0.64570769  1
  Er  Er28  1  0.89991063  0.71184919  0.14570769  1
  Er  Er29  1  0.10008937  0.28815081  0.14570769  1
  C  C0  1  0.50000000  0.50000000  0.95862300  1
  C  C1  1  0.00000000  -0.00000000  0.45862300  1
  C  C2  1  0.50000000  0.50000000  0.04137700  1
  C  C3  1  0.00000000  -0.00000000  0.54137700  1
  C  C4  1  0.50000000  0.50000000  0.34308238  1
  C  C5  1  0.00000000  -0.00000000  0.84308238  1
  C  C6  1  0.50000000  0.50000000  0.65691762  1
  C  C7  1  0.00000000  -0.00000000  0.15691762  1
  C  C8  1  0.60605116  0.19601293  0.50000000  1
  C  C9  1  0.39394884  0.80398707  0.50000000  1
  C  C10  1  0.89394884  0.69601293  0.00000000  1
  C  C11  1  0.10605116  0.30398707  0.00000000  1
  C  C12  1  0.19601293  0.39394884  0.50000000  1
  C  C13  1  0.80398707  0.60605116  0.50000000  1
  C  C14  1  0.69601293  0.10605116  0.00000000  1
  C  C15  1  0.30398707  0.89394884  0.00000000  1
  C  C16  1  0.69359636  0.90163248  0.32805377  1
  C  C17  1  0.30640364  0.09836752  0.32805377  1
  C  C18  1  0.80640364  0.40163248  0.82805377  1
  C  C19  1  0.19359636  0.59836752  0.82805377  1
  C  C20  1  0.90163248  0.30640364  0.32805377  1
  C  C21  1  0.09836752  0.69359636  0.32805377  1
  C  C22  1  0.40163248  0.19359636  0.82805377  1
  C  C23  1  0.59836752  0.80640364  0.82805377  1
  C  C24  1  0.30640364  0.09836752  0.67194623  1
  C  C25  1  0.69359636  0.90163248  0.67194623  1
  C  C26  1  0.19359636  0.59836752  0.17194623  1
  C  C27  1  0.80640364  0.40163248  0.17194623  1
  C  C28  1  0.09836752  0.69359636  0.67194623  1
  C  C29  1  0.90163248  0.30640364  0.67194623  1
  C  C30  1  0.59836752  0.80640364  0.17194623  1
  C  C31  1  0.40163248  0.19359636  0.17194623  1
  C  C32  1  0.64992141  0.85007859  0.25000000  1
  C  C33  1  0.35007859  0.14992141  0.25000000  1
  C  C34  1  0.85007859  0.35007859  0.75000000  1
  C  C35  1  0.14992141  0.64992141  0.75000000  1
  C  C36  1  0.85007859  0.35007859  0.25000000  1
  C  C37  1  0.14992141  0.64992141  0.25000000  1
  C  C38  1  0.35007859  0.14992141  0.75000000  1
  C  C39  1  0.64992141  0.85007859  0.75000000  1
loop_
_geom_bond_atom_site_label_1
_geom_bond_atom_site_label_2
_geom_bond_distance
_geom_bond_site_symmetry_2
C0 C2 1.299830 1_556
C0 Er4 2.291324 1_555
C0 Er8 2.564275 1_556
C0 Er12 2.564275 1_556
C0 Er13 2.564275 1_556
C0 Er9 2.564275 1_556
C1 C3 1.299830 1_555
C1 Er5 2.291324 1_555
C1 Er7 2.564267 1_555
C1 Er10 2.564267 1_455
C1 Er6 2.564275 1_445
C1 Er11 2.564275 1_545
C2 Er2 2.291324 1_555
C2 Er8 2.564275 1_555
C2 Er12 2.564275 1_555
C2 Er9 2.564275 1_555
C2 Er13 2.564275 1_555
C3 Er3 2.291324 1_555
C3 Er7 2.564267 1_555
C3 Er10 2.564267 1_455
C3 Er6 2.564275 1_445
C3 Er11 2.564275 1_545
C4 Er19 2.430315 1_555
C4 Er14 2.430315 1_555
C4 Er18 2.430315 1_555
C4 Er15 2.430315 1_555
C4 Er2 2.447609 1_555
C4 Er0 2.464729 1_555
C5 Er17 2.430315 1_545
C5 Er16 2.430315 1_455
C5 Er20 2.430315 1_555
C5 Er21 2.430315 1_445
C5 Er3 2.447609 1_555
C5 Er1 2.464729 1_556
C6 Er22 2.430315 1_555
C6 Er26 2.430315 1_555
C6 Er23 2.430315 1_555
C6 Er27 2.430315 1_555
C6 Er4 2.447609 1_555
C6 Er0 2.464729 1_555
C7 Er28 2.430315 1_445
C7 Er29 2.430315 1_555
C7 Er24 2.430315 1_545
C7 Er25 2.430315 1_455
C7 Er5 2.447609 1_555
C7 Er1 2.464729 1_555
C8 Er18 2.292600 1_555
C8 Er27 2.292600 1_555
C8 Er6 2.440273 1_545
C8 Er10 2.504574 1_555
C8 Er0 2.558347 1_555
C8 Er7 2.580945 1_555
C9 Er19 2.292600 1_555
C9 Er26 2.292600 1_555
C9 Er7 2.440275 1_565
C9 Er11 2.504577 1_555
C9 Er0 2.558347 1_555
C9 Er6 2.580938 1_555
C10 Er21 2.292600 1_554
C10 Er28 2.292600 1_555
C10 Er8 2.440273 1_555
C10 Er13 2.504577 1_555
C10 Er1 2.558347 1_665
C10 Er9 2.580938 1_655
C11 Er20 2.292600 1_554
C11 Er29 2.292600 1_555
C11 Er9 2.440273 1_555
C11 Er12 2.504577 1_555
C11 Er1 2.558347 1_555
C11 Er8 2.580938 1_455
C12 Er15 2.292600 1_555
C12 Er22 2.292600 1_555
C12 Er10 2.440275 1_455
C12 Er7 2.504574 1_555
C12 Er0 2.558347 1_555
C12 Er11 2.580938 1_555
C13 Er14 2.292600 1_555
C13 Er23 2.292600 1_555
C13 Er11 2.440273 1_655
C13 Er6 2.504577 1_555
C13 Er0 2.558347 1_555
C13 Er10 2.580945 1_555
C14 Er16 2.292600 1_554
C14 Er25 2.292600 1_555
C14 Er12 2.440273 1_555
C14 Er8 2.504577 1_555
C14 Er1 2.558347 1_655
C14 Er13 2.580938 1_545
C15 Er17 2.292600 1_554
C15 Er24 2.292600 1_555
C15 Er13 2.440273 1_555
C15 Er9 2.504577 1_555
C15 Er1 2.558347 1_565
C15 Er12 2.580938 1_565
C16 C32 1.338414 1_555
C16 Er19 2.535593 1_555
C16 Er14 2.544783 1_555
C16 Er5 2.568447 1_665
C16 Er18 2.607399 1_565
C16 Er6 2.701873 1_555
C17 C33 1.338414 1_555
C17 Er18 2.535593 1_555
C17 Er15 2.544783 1_555
C17 Er5 2.568447 1_555
C17 Er19 2.607399 1_545
C17 Er7 2.701873 1_555
C18 C34 1.338414 1_555
C18 Er20 2.535593 1_655
C18 Er16 2.544783 1_555
C18 Er4 2.568447 1_555
C18 Er21 2.607399 1_555
C18 Er8 2.701873 1_556
C19 C35 1.338414 1_555
C19 Er21 2.535593 1_455
C19 Er17 2.544783 1_555
C19 Er4 2.568447 1_555
C19 Er20 2.607399 1_555
C19 Er9 2.701873 1_556
C20 C36 1.338414 1_555
C20 Er14 2.535593 1_555
C20 Er18 2.544783 1_555
C20 Er5 2.568447 1_655
C20 Er15 2.607399 1_655
C20 Er10 2.701873 1_555
C21 C37 1.338414 1_555
C21 Er15 2.535593 1_555
C21 Er19 2.544783 1_555
C21 Er5 2.568447 1_565
C21 Er14 2.607399 1_455
C21 Er11 2.701873 1_555
C22 C38 1.338414 1_555
C22 Er17 2.535593 1_545
C22 Er20 2.544783 1_555
C22 Er4 2.568447 1_555
C22 Er16 2.607399 1_555
C22 Er12 2.701873 1_556
C23 C39 1.338414 1_555
C23 Er16 2.535593 1_565
C23 Er21 2.544783 1_555
C23 Er4 2.568447 1_555
C23 Er17 2.607399 1_555
C23 Er13 2.701873 1_556
C24 C38 1.338414 1_555
C24 Er27 2.535593 1_555
C24 Er22 2.544783 1_555
C24 Er3 2.568447 1_555
C24 Er26 2.607399 1_545
C24 Er7 2.701873 1_555
C25 C39 1.338414 1_555
C25 Er26 2.535593 1_555
C25 Er23 2.544783 1_555
C25 Er3 2.568447 1_665
C25 Er27 2.607399 1_565
C25 Er6 2.701873 1_555
C26 C37 1.338414 1_555
C26 Er28 2.535593 1_455
C26 Er24 2.544783 1_555
C26 Er2 2.568447 1_555
C26 Er29 2.607399 1_555
C26 Er9 2.701873 1_555
C27 C36 1.338414 1_555
C27 Er29 2.535593 1_655
C27 Er25 2.544783 1_555
C27 Er2 2.568447 1_555
C27 Er28 2.607399 1_555
C27 Er8 2.701873 1_555
C28 C35 1.338414 1_555
C28 Er22 2.535593 1_555
C28 Er26 2.544783 1_555
C28 Er3 2.568447 1_565
C28 Er23 2.607399 1_455
C28 Er11 2.701873 1_555
C29 C34 1.338414 1_555
C29 Er23 2.535593 1_555
C29 Er27 2.544783 1_555
C29 Er3 2.568447 1_655
C29 Er22 2.607399 1_655
C29 Er10 2.701873 1_555
C30 C32 1.338414 1_555
C30 Er25 2.535593 1_565
C30 Er28 2.544783 1_555
C30 Er2 2.568447 1_555
C30 Er24 2.607399 1_555
C30 Er13 2.701873 1_555
C31 C33 1.338414 1_555
C31 Er24 2.535593 1_545
C31 Er29 2.544783 1_555
C31 Er2 2.568447 1_555
C31 Er25 2.607399 1_555
C31 Er12 2.701873 1_555
C32 Er19 2.621537 1_555
C32 Er25 2.621537 1_565
C32 Er14 2.799308 1_555
C32 Er28 2.799308 1_555
C33 Er24 2.621537 1_545
C33 Er18 2.621537 1_555
C33 Er15 2.799308 1_555
C33 Er29 2.799308 1_555
C34 Er23 2.621537 1_555
C34 Er20 2.621537 1_655
C34 Er27 2.799308 1_555
C34 Er16 2.799308 1_555
C35 Er22 2.621537 1_555
C35 Er21 2.621537 1_455
C35 Er26 2.799308 1_555
C35 Er17 2.799308 1_555
C36 Er14 2.621537 1_555
C36 Er29 2.621537 1_655
C36 Er18 2.799308 1_555
C36 Er25 2.799308 1_555
C37 Er15 2.621537 1_555
C37 Er28 2.621537 1_455
C37 Er24 2.799308 1_555
C37 Er19 2.799308 1_555
C38 Er27 2.621537 1_555
C38 Er17 2.621537 1_545
C38 Er22 2.799308 1_555
C38 Er20 2.799308 1_555
C39 Er26 2.621537 1_555
C39 Er16 2.621537 1_565
C39 Er23 2.799308 1_555
C39 Er21 2.799308 1_555
