# generated using pymatgen
data_ErMnFe
_symmetry_space_group_name_H-M   'P 1'
_cell_length_a   5.10661247
_cell_length_b   5.10661247
_cell_length_c   5.10661247
_cell_angle_alpha   120.30829277
_cell_angle_beta   119.71285638
_cell_angle_gamma   89.98245902
_symmetry_Int_Tables_number   1
_chemical_formula_structural   ErMnFe
_chemical_formula_sum   'Er2 Mn2 Fe2'
_cell_volume   94.14550719
_cell_formula_units_Z   2
loop_
 _symmetry_equiv_pos_site_id
 _symmetry_equiv_pos_as_xyz
  1  'x, y, z'
loop_
 _atom_site_type_symbol
 _atom_site_label
 _atom_site_symmetry_multiplicity
 _atom_site_fract_x
 _atom_site_fract_y
 _atom_site_fract_z
 _atom_site_occupancy
  Er  Er0  1  0.12582600  0.87582600  0.25000000  1
  Er  Er1  1  0.87417400  0.12417400  0.75000000  1
  Mn  Mn0  1  0.50000000  0.50000000  0.00000000  1
  Mn  Mn1  1  0.00000000  0.50000000  0.50000000  1
  Fe  Fe0  1  0.50000000  0.50000000  0.50000000  1
  Fe  Fe1  1  0.50000000  0.00000000  0.00000000  1
loop_
_geom_bond_atom_site_label_1
_geom_bond_atom_site_label_2
_geom_bond_distance
_geom_bond_site_symmetry_2
Er0 Mn1 2.984485 1_565
Er0 Mn0 2.984485 1_555
Er0 Mn0 2.984485 1_566
Er0 Mn1 2.984485 1_554
Er0 Fe0 2.986458 1_565
Er0 Fe1 2.986458 1_565
Er0 Mn1 3.002150 1_555
Er0 Mn0 3.002150 1_455
Er0 Fe0 3.002782 1_454
Er0 Fe0 3.002782 1_555
Er0 Fe1 3.002782 1_566
Er0 Fe1 3.002782 1_465
Er0 Er1 3.124521 1_465
Er0 Er1 3.124521 1_454
Er0 Er1 3.129501 1_464
Er0 Er1 3.129501 1_565
Er1 Mn1 2.984485 1_645
Er1 Mn0 2.984485 1_545
Er1 Mn1 2.984485 1_656
Er1 Mn0 2.984485 1_556
Er1 Fe0 2.986458 1_545
Er1 Fe1 2.986458 1_556
Er1 Mn0 3.002150 1_656
Er1 Mn1 3.002150 1_655
Er1 Fe1 3.002782 1_656
Er1 Fe0 3.002782 1_656
Er1 Fe1 3.002782 1_555
Er1 Fe0 3.002782 1_555
Mn0 Mn1 2.564380 1_655
Mn0 Mn1 2.564380 1_554
Fe0 Fe1 2.541399 1_555
Fe0 Fe1 2.541399 1_566
Fe0 Mn1 2.553306 1_655
Fe0 Mn0 2.553306 1_555
Fe0 Mn0 2.553306 1_556
Fe0 Mn1 2.553306 1_555
Fe1 Mn1 2.553306 1_655
Fe1 Mn0 2.553306 1_555
Fe1 Mn0 2.553306 1_545
Fe1 Mn1 2.553306 1_544
