# generated using pymatgen
data_UMo
_symmetry_space_group_name_H-M   'P 1'
_cell_length_a   10.63043651
_cell_length_b   5.70416800
_cell_length_c   19.43144696
_cell_angle_alpha   90.00000000
_cell_angle_beta   88.75319371
_cell_angle_gamma   90.00000000
_symmetry_Int_Tables_number   1
_chemical_formula_structural   UMo
_chemical_formula_sum   'U32 Mo32'
_cell_volume   1178.00114415
_cell_formula_units_Z   32
loop_
 _symmetry_equiv_pos_site_id
 _symmetry_equiv_pos_as_xyz
  1  'x, y, z'
loop_
 _atom_site_type_symbol
 _atom_site_label
 _atom_site_symmetry_multiplicity
 _atom_site_fract_x
 _atom_site_fract_y
 _atom_site_fract_z
 _atom_site_occupancy
  U  U0_0  1  0.05630050  0.23564900  0.18969800  1
  U  U0_1  1  0.05630050  0.23564900  0.68969800  1
  U  U0_2  1  0.05630050  0.73564900  0.18969800  1
  U  U0_3  1  0.05630050  0.73564900  0.68969800  1
  U  U0_4  1  0.55630050  0.23564900  0.18969800  1
  U  U0_5  1  0.55630050  0.23564900  0.68969800  1
  U  U0_6  1  0.55630050  0.73564900  0.18969800  1
  U  U0_7  1  0.55630050  0.73564900  0.68969800  1
  U  U1_0  1  0.44369950  0.48564900  0.06030200  1
  U  U1_1  1  0.44369950  0.48564900  0.56030200  1
  U  U1_2  1  0.44369950  0.98564900  0.06030200  1
  U  U1_3  1  0.44369950  0.98564900  0.56030200  1
  U  U1_4  1  0.94369950  0.48564900  0.06030200  1
  U  U1_5  1  0.94369950  0.48564900  0.56030200  1
  U  U1_6  1  0.94369950  0.98564900  0.06030200  1
  U  U1_7  1  0.94369950  0.98564900  0.56030200  1
  U  U2_0  1  0.44369950  0.26435100  0.31030200  1
  U  U2_1  1  0.44369950  0.26435100  0.81030200  1
  U  U2_2  1  0.44369950  0.76435100  0.31030200  1
  U  U2_3  1  0.44369950  0.76435100  0.81030200  1
  U  U2_4  1  0.94369950  0.26435100  0.31030200  1
  U  U2_5  1  0.94369950  0.26435100  0.81030200  1
  U  U2_6  1  0.94369950  0.76435100  0.31030200  1
  U  U2_7  1  0.94369950  0.76435100  0.81030200  1
  U  U3_0  1  0.05630050  0.01435100  0.43969800  1
  U  U3_1  1  0.05630050  0.01435100  0.93969800  1
  U  U3_2  1  0.05630050  0.51435100  0.43969800  1
  U  U3_3  1  0.05630050  0.51435100  0.93969800  1
  U  U3_4  1  0.55630050  0.01435100  0.43969800  1
  U  U3_5  1  0.55630050  0.01435100  0.93969800  1
  U  U3_6  1  0.55630050  0.51435100  0.43969800  1
  U  U3_7  1  0.55630050  0.51435100  0.93969800  1
  Mo  Mo0_0  1  0.28903000  0.12712850  0.43666050  1
  Mo  Mo0_1  1  0.28903000  0.12712850  0.93666050  1
  Mo  Mo0_2  1  0.28903000  0.62712850  0.43666050  1
  Mo  Mo0_3  1  0.28903000  0.62712850  0.93666050  1
  Mo  Mo0_4  1  0.78903000  0.12712850  0.43666050  1
  Mo  Mo0_5  1  0.78903000  0.12712850  0.93666050  1
  Mo  Mo0_6  1  0.78903000  0.62712850  0.43666050  1
  Mo  Mo0_7  1  0.78903000  0.62712850  0.93666050  1
  Mo  Mo1_0  1  0.21097000  0.37712850  0.31333950  1
  Mo  Mo1_1  1  0.21097000  0.37712850  0.81333950  1
  Mo  Mo1_2  1  0.21097000  0.87712850  0.31333950  1
  Mo  Mo1_3  1  0.21097000  0.87712850  0.81333950  1
  Mo  Mo1_4  1  0.71097000  0.37712850  0.31333950  1
  Mo  Mo1_5  1  0.71097000  0.37712850  0.81333950  1
  Mo  Mo1_6  1  0.71097000  0.87712850  0.31333950  1
  Mo  Mo1_7  1  0.71097000  0.87712850  0.81333950  1
  Mo  Mo2_0  1  0.21097000  0.37287150  0.06333950  1
  Mo  Mo2_1  1  0.21097000  0.37287150  0.56333950  1
  Mo  Mo2_2  1  0.21097000  0.87287150  0.06333950  1
  Mo  Mo2_3  1  0.21097000  0.87287150  0.56333950  1
  Mo  Mo2_4  1  0.71097000  0.37287150  0.06333950  1
  Mo  Mo2_5  1  0.71097000  0.37287150  0.56333950  1
  Mo  Mo2_6  1  0.71097000  0.87287150  0.06333950  1
  Mo  Mo2_7  1  0.71097000  0.87287150  0.56333950  1
  Mo  Mo3_0  1  0.28903000  0.12287150  0.18666050  1
  Mo  Mo3_1  1  0.28903000  0.12287150  0.68666050  1
  Mo  Mo3_2  1  0.28903000  0.62287150  0.18666050  1
  Mo  Mo3_3  1  0.28903000  0.62287150  0.68666050  1
  Mo  Mo3_4  1  0.78903000  0.12287150  0.18666050  1
  Mo  Mo3_5  1  0.78903000  0.12287150  0.68666050  1
  Mo  Mo3_6  1  0.78903000  0.62287150  0.18666050  1
  Mo  Mo3_7  1  0.78903000  0.62287150  0.68666050  1
loop_
_geom_bond_atom_site_label_1
_geom_bond_atom_site_label_2
_geom_bond_distance
_geom_bond_site_symmetry_2
U0_0 U2_4 2.613345 1_455
U0_0 U0_2 2.852084 1_555
U0_0 U0_2 2.852084 1_545
U0_0 U1_4 3.149498 1_455
U0_0 U1_6 3.149498 1_445
U0_1 U2_5 2.613345 1_455
U0_1 U0_3 2.852084 1_555
U0_1 U0_3 2.852084 1_545
U0_1 U1_5 3.149498 1_455
U0_1 U1_7 3.149498 1_445
U0_2 U2_6 2.613345 1_455
U0_2 U1_6 3.149498 1_455
U0_2 U1_4 3.149498 1_455
U0_3 U2_7 2.613345 1_455
U0_3 U1_7 3.149498 1_455
U0_3 U1_5 3.149498 1_455
U0_4 U2_0 2.613345 1_555
U0_4 U0_6 2.852084 1_555
U0_4 U0_6 2.852084 1_545
U0_4 U1_0 3.149498 1_555
U0_4 U1_2 3.149498 1_545
U0_5 U2_1 2.613345 1_555
U0_5 U0_7 2.852084 1_555
U0_5 U0_7 2.852084 1_545
U0_5 U1_1 3.149498 1_555
U0_5 U1_3 3.149498 1_545
U0_6 U2_2 2.613345 1_555
U0_6 U1_0 3.149498 1_555
U0_6 U1_2 3.149498 1_555
U0_7 U2_3 2.613345 1_555
U0_7 U1_1 3.149498 1_555
U0_7 U1_3 3.149498 1_555
U1_0 U3_7 2.613345 1_554
U1_0 U1_2 2.852084 1_555
U1_0 U1_2 2.852084 1_545
U1_1 U3_6 2.613345 1_555
U1_1 U1_3 2.852084 1_555
U1_1 U1_3 2.852084 1_545
U1_2 U3_5 2.613345 1_564
U1_3 U3_4 2.613345 1_565
U1_4 U3_3 2.613345 1_654
U1_4 U1_6 2.852084 1_555
U1_4 U1_6 2.852084 1_545
U1_5 U3_2 2.613345 1_655
U1_5 U1_7 2.852084 1_555
U1_5 U1_7 2.852084 1_545
U1_6 U3_1 2.613345 1_664
U1_7 U3_0 2.613345 1_665
U2_0 U2_2 2.852084 1_555
U2_0 U2_2 2.852084 1_545
U2_0 U3_6 3.149498 1_555
U2_0 U3_4 3.149498 1_555
U2_1 U2_3 2.852084 1_555
U2_1 U2_3 2.852084 1_545
U2_1 U3_7 3.149498 1_555
U2_1 U3_5 3.149498 1_555
U2_2 U3_6 3.149498 1_555
U2_2 U3_4 3.149498 1_565
U2_3 U3_7 3.149498 1_555
U2_3 U3_5 3.149498 1_565
U2_4 U2_6 2.852084 1_555
U2_4 U2_6 2.852084 1_545
U2_4 U3_0 3.149498 1_655
U2_4 U3_2 3.149498 1_655
U2_5 U2_7 2.852084 1_555
U2_5 U2_7 2.852084 1_545
U2_5 U3_3 3.149498 1_655
U2_5 U3_1 3.149498 1_655
U2_6 U3_2 3.149498 1_655
U2_6 U3_0 3.149498 1_665
U2_7 U3_3 3.149498 1_655
U2_7 U3_1 3.149498 1_665
U3_0 U3_2 2.852084 1_555
U3_0 U3_2 2.852084 1_545
U3_1 U3_3 2.852084 1_555
U3_1 U3_3 2.852084 1_545
U3_4 U3_6 2.852084 1_555
U3_4 U3_6 2.852084 1_545
U3_5 U3_7 2.852084 1_555
U3_5 U3_7 2.852084 1_545
Mo0_0 U3_0 2.555723 1_555
Mo0_0 Mo0_2 2.852084 1_545
Mo0_0 Mo0_2 2.852084 1_555
Mo0_0 U3_4 2.914970 1_555
Mo0_0 Mo1_0 2.924209 1_555
Mo0_0 Mo1_2 2.924209 1_545
Mo0_0 Mo2_1 2.936645 1_555
Mo0_0 Mo2_3 2.960135 1_545
Mo0_0 U2_0 3.028043 1_555
Mo0_0 U1_3 3.049388 1_545
Mo0_1 U3_1 2.555723 1_555
Mo0_1 Mo0_3 2.852084 1_545
Mo0_1 Mo0_3 2.852084 1_555
Mo0_1 U3_5 2.914970 1_555
Mo0_1 Mo1_3 2.924209 1_545
Mo0_1 Mo1_1 2.924209 1_555
Mo0_1 Mo2_0 2.936645 1_556
Mo0_1 Mo2_2 2.960135 1_546
Mo0_1 U2_1 3.028043 1_555
Mo0_1 U1_2 3.049388 1_546
Mo0_2 U3_2 2.555723 1_555
Mo0_2 U3_6 2.914970 1_555
Mo0_2 Mo1_0 2.924209 1_555
Mo0_2 Mo1_2 2.924209 1_555
Mo0_2 Mo2_3 2.936645 1_555
Mo0_2 Mo2_1 2.960135 1_555
Mo0_2 U2_2 3.028043 1_555
Mo0_2 U1_1 3.049388 1_555
Mo0_3 U3_3 2.555723 1_555
Mo0_3 U3_7 2.914970 1_555
Mo0_3 Mo1_3 2.924209 1_555
Mo0_3 Mo1_1 2.924209 1_555
Mo0_3 Mo2_2 2.936645 1_556
Mo0_3 Mo2_0 2.960135 1_556
Mo0_3 U2_3 3.028043 1_555
Mo0_3 U1_0 3.049388 1_556
Mo0_4 U3_4 2.555723 1_555
Mo0_4 Mo0_6 2.852084 1_545
Mo0_4 Mo0_6 2.852084 1_555
Mo0_4 U3_0 2.914970 1_655
Mo0_4 Mo1_4 2.924209 1_555
Mo0_4 Mo1_6 2.924209 1_545
Mo0_4 Mo2_5 2.936645 1_555
Mo0_4 Mo2_7 2.960135 1_545
Mo0_4 U2_4 3.028043 1_555
Mo0_4 U1_7 3.049388 1_545
Mo0_5 U3_5 2.555723 1_555
Mo0_5 Mo0_7 2.852084 1_545
Mo0_5 Mo0_7 2.852084 1_555
Mo0_5 U3_1 2.914970 1_655
Mo0_5 Mo1_7 2.924209 1_545
Mo0_5 Mo1_5 2.924209 1_555
Mo0_5 Mo2_4 2.936645 1_556
Mo0_5 Mo2_6 2.960135 1_546
Mo0_5 U2_5 3.028043 1_555
Mo0_5 U1_6 3.049388 1_546
Mo0_6 U3_6 2.555723 1_555
Mo0_6 U3_2 2.914970 1_655
Mo0_6 Mo1_6 2.924209 1_555
Mo0_6 Mo1_4 2.924209 1_555
Mo0_6 Mo2_7 2.936645 1_555
Mo0_6 Mo2_5 2.960135 1_555
Mo0_6 U2_6 3.028043 1_555
Mo0_6 U1_5 3.049388 1_555
Mo0_7 U3_7 2.555723 1_555
Mo0_7 U3_3 2.914970 1_655
Mo0_7 Mo1_7 2.924209 1_555
Mo0_7 Mo1_5 2.924209 1_555
Mo0_7 Mo2_6 2.936645 1_556
Mo0_7 Mo2_4 2.960135 1_556
Mo0_7 U2_7 3.028043 1_555
Mo0_7 U1_4 3.049388 1_556
Mo1_0 U2_0 2.555723 1_555
Mo1_0 Mo1_2 2.852084 1_545
Mo1_0 Mo1_2 2.852084 1_555
Mo1_0 U2_4 2.914970 1_455
Mo1_0 Mo3_2 2.936645 1_555
Mo1_0 Mo3_0 2.960135 1_555
Mo1_0 U3_2 3.028043 1_555
Mo1_0 U0_0 3.049388 1_555
Mo1_1 U2_1 2.555723 1_555
Mo1_1 Mo1_3 2.852084 1_555
Mo1_1 Mo1_3 2.852084 1_545
Mo1_1 U2_5 2.914970 1_455
Mo1_1 Mo3_3 2.936645 1_555
Mo1_1 Mo3_1 2.960135 1_555
Mo1_1 U3_3 3.028043 1_555
Mo1_1 U0_1 3.049388 1_555
Mo1_2 U2_2 2.555723 1_555
Mo1_2 U2_6 2.914970 1_455
Mo1_2 Mo3_0 2.936645 1_565
Mo1_2 Mo3_2 2.960135 1_555
Mo1_2 U3_0 3.028043 1_565
Mo1_2 U0_2 3.049388 1_555
Mo1_3 U2_3 2.555723 1_555
Mo1_3 U2_7 2.914970 1_455
Mo1_3 Mo3_1 2.936645 1_565
Mo1_3 Mo3_3 2.960135 1_555
Mo1_3 U3_1 3.028043 1_565
Mo1_3 U0_3 3.049388 1_555
Mo1_4 U2_4 2.555723 1_555
Mo1_4 Mo1_6 2.852084 1_555
Mo1_4 Mo1_6 2.852084 1_545
Mo1_4 U2_0 2.914970 1_555
Mo1_4 Mo3_6 2.936645 1_555
Mo1_4 Mo3_4 2.960135 1_555
Mo1_4 U3_6 3.028043 1_555
Mo1_4 U0_4 3.049388 1_555
Mo1_5 U2_5 2.555723 1_555
Mo1_5 Mo1_7 2.852084 1_545
Mo1_5 Mo1_7 2.852084 1_555
Mo1_5 U2_1 2.914970 1_555
Mo1_5 Mo3_7 2.936645 1_555
Mo1_5 Mo3_5 2.960135 1_555
Mo1_5 U3_7 3.028043 1_555
Mo1_5 U0_5 3.049388 1_555
Mo1_6 U2_6 2.555723 1_555
Mo1_6 U2_2 2.914970 1_555
Mo1_6 Mo3_4 2.936645 1_565
Mo1_6 Mo3_6 2.960135 1_555
Mo1_6 U3_4 3.028043 1_565
Mo1_6 U0_6 3.049388 1_555
Mo1_7 U2_7 2.555723 1_555
Mo1_7 U2_3 2.914970 1_555
Mo1_7 Mo3_5 2.936645 1_565
Mo1_7 Mo3_7 2.960135 1_555
Mo1_7 U3_5 3.028043 1_565
Mo1_7 U0_7 3.049388 1_555
Mo2_0 U1_0 2.555723 1_555
Mo2_0 Mo2_2 2.852084 1_555
Mo2_0 Mo2_2 2.852084 1_545
Mo2_0 U1_4 2.914970 1_455
Mo2_0 Mo3_0 2.924209 1_555
Mo2_0 Mo3_2 2.924209 1_555
Mo2_0 U0_0 3.028043 1_555
Mo2_0 U3_3 3.049388 1_554
Mo2_1 U1_1 2.555723 1_555
Mo2_1 Mo2_3 2.852084 1_555
Mo2_1 Mo2_3 2.852084 1_545
Mo2_1 U1_5 2.914970 1_455
Mo2_1 Mo3_1 2.924209 1_555
Mo2_1 Mo3_3 2.924209 1_555
Mo2_1 U0_1 3.028043 1_555
Mo2_1 U3_2 3.049388 1_555
Mo2_2 U1_2 2.555723 1_555
Mo2_2 U1_6 2.914970 1_455
Mo2_2 Mo3_2 2.924209 1_555
Mo2_2 Mo3_0 2.924209 1_565
Mo2_2 U0_2 3.028043 1_555
Mo2_2 U3_1 3.049388 1_564
Mo2_3 U1_3 2.555723 1_555
Mo2_3 U1_7 2.914970 1_455
Mo2_3 Mo3_3 2.924209 1_555
Mo2_3 Mo3_1 2.924209 1_565
Mo2_3 U0_3 3.028043 1_555
Mo2_3 U3_0 3.049388 1_565
Mo2_4 U1_4 2.555723 1_555
Mo2_4 Mo2_6 2.852084 1_555
Mo2_4 Mo2_6 2.852084 1_545
Mo2_4 U1_0 2.914970 1_555
Mo2_4 Mo3_4 2.924209 1_555
Mo2_4 Mo3_6 2.924209 1_555
Mo2_4 U0_4 3.028043 1_555
Mo2_4 U3_7 3.049388 1_554
Mo2_5 U1_5 2.555723 1_555
Mo2_5 Mo2_7 2.852084 1_555
Mo2_5 Mo2_7 2.852084 1_545
Mo2_5 U1_1 2.914970 1_555
Mo2_5 Mo3_5 2.924209 1_555
Mo2_5 Mo3_7 2.924209 1_555
Mo2_5 U0_5 3.028043 1_555
Mo2_5 U3_6 3.049388 1_555
Mo2_6 U1_6 2.555723 1_555
Mo2_6 U1_2 2.914970 1_555
Mo2_6 Mo3_6 2.924209 1_555
Mo2_6 Mo3_4 2.924209 1_565
Mo2_6 U0_6 3.028043 1_555
Mo2_6 U3_5 3.049388 1_564
Mo2_7 U1_7 2.555723 1_555
Mo2_7 U1_3 2.914970 1_555
Mo2_7 Mo3_7 2.924209 1_555
Mo2_7 Mo3_5 2.924209 1_565
Mo2_7 U0_7 3.028043 1_555
Mo2_7 U3_4 3.049388 1_565
Mo3_0 U0_0 2.555723 1_555
Mo3_0 Mo3_2 2.852084 1_555
Mo3_0 Mo3_2 2.852084 1_545
Mo3_0 U0_4 2.914970 1_555
Mo3_0 U1_2 3.028043 1_545
Mo3_0 U2_0 3.049388 1_555
Mo3_1 U0_1 2.555723 1_555
Mo3_1 Mo3_3 2.852084 1_555
Mo3_1 Mo3_3 2.852084 1_545
Mo3_1 U0_5 2.914970 1_555
Mo3_1 U1_3 3.028043 1_545
Mo3_1 U2_1 3.049388 1_555
Mo3_2 U0_2 2.555723 1_555
Mo3_2 U0_6 2.914970 1_555
Mo3_2 U1_0 3.028043 1_555
Mo3_2 U2_2 3.049388 1_555
Mo3_3 U0_3 2.555723 1_555
Mo3_3 U0_7 2.914970 1_555
Mo3_3 U1_1 3.028043 1_555
Mo3_3 U2_3 3.049388 1_555
Mo3_4 U0_4 2.555723 1_555
Mo3_4 Mo3_6 2.852084 1_555
Mo3_4 Mo3_6 2.852084 1_545
Mo3_4 U0_0 2.914970 1_655
Mo3_4 U1_6 3.028043 1_545
Mo3_4 U2_4 3.049388 1_555
Mo3_5 U0_5 2.555723 1_555
Mo3_5 Mo3_7 2.852084 1_555
Mo3_5 Mo3_7 2.852084 1_545
Mo3_5 U0_1 2.914970 1_655
Mo3_5 U1_7 3.028043 1_545
Mo3_5 U2_5 3.049388 1_555
Mo3_6 U0_6 2.555723 1_555
Mo3_6 U0_2 2.914970 1_655
Mo3_6 U1_4 3.028043 1_555
Mo3_6 U2_6 3.049388 1_555
Mo3_7 U0_7 2.555723 1_555
Mo3_7 U0_3 2.914970 1_655
Mo3_7 U1_5 3.028043 1_555
Mo3_7 U2_7 3.049388 1_555
