# generated using pymatgen
data_Co2O3F
_symmetry_space_group_name_H-M   'P 1'
_cell_length_a   6.02687303
_cell_length_b   6.47015574
_cell_length_c   6.78716488
_cell_angle_alpha   90.00088154
_cell_angle_beta   63.62946284
_cell_angle_gamma   90.00207803
_symmetry_Int_Tables_number   1
_chemical_formula_structural   Co2O3F
_chemical_formula_sum   'Co8 O12 F4'
_cell_volume   237.12330523
_cell_formula_units_Z   4
loop_
 _symmetry_equiv_pos_site_id
 _symmetry_equiv_pos_as_xyz
  1  'x, y, z'
loop_
 _atom_site_type_symbol
 _atom_site_label
 _atom_site_symmetry_multiplicity
 _atom_site_fract_x
 _atom_site_fract_y
 _atom_site_fract_z
 _atom_site_occupancy
  Co  Co0  1  0.99994000  0.00006500  0.50012300  1
  Co  Co1  1  0.75033500  0.49997200  0.99931100  1
  Co  Co2  1  0.25033300  0.50001800  0.99932800  1
  Co  Co3  1  0.49993100  0.99993600  0.50012300  1
  Co  Co4  1  0.75031200  0.46477300  0.49933200  1
  Co  Co5  1  0.25032600  0.53522600  0.49930800  1
  Co  Co6  1  0.99991600  0.97438200  0.00019400  1
  Co  Co7  1  0.49992700  0.02560600  0.00019500  1
  O  O0  1  0.15341400  0.99997100  0.19311300  1
  O  O1  1  0.65339000  0.00002700  0.19312500  1
  O  O2  1  0.10518000  0.49997200  0.28978500  1
  O  O3  1  0.60518400  0.50002900  0.28979800  1
  O  O4  1  0.50019700  0.30558400  0.99962200  1
  O  O5  1  0.74756500  0.18720400  0.50477300  1
  O  O6  1  0.00020100  0.69439100  0.99963800  1
  O  O7  1  0.24758400  0.81279800  0.50480000  1
  O  O8  1  0.34647800  0.00005400  0.80715700  1
  O  O9  1  0.84647200  0.99994900  0.80717700  1
  O  O10  1  0.39508400  0.50006600  0.70965300  1
  O  O11  1  0.89508100  0.49993600  0.70964900  1
  F  F0  1  0.99966900  0.27813700  0.00066300  1
  F  F1  1  0.25187800  0.21294700  0.49624400  1
  F  F2  1  0.49966300  0.72189700  0.00066500  1
  F  F3  1  0.75193900  0.78706000  0.49622700  1
loop_
_geom_bond_atom_site_label_1
_geom_bond_atom_site_label_2
_geom_bond_distance
_geom_bond_site_symmetry_2
Co0 O0 1.866896 1_645
Co0 O9 1.867163 1_545
Co0 O5 1.933418 1_555
Co0 O7 1.933631 1_645
Co0 F1 2.041504 1_655
Co0 F3 2.041829 1_545
Co1 O11 1.761404 1_555
Co1 O3 1.766421 1_556
Co1 O4 1.962551 1_555
Co1 O6 1.962898 1_655
Co1 F0 2.081038 1_556
Co1 F2 2.081371 1_556
Co2 O10 1.761483 1_555
Co2 O2 1.766239 1_556
Co2 O6 1.962534 1_555
Co2 O4 1.962945 1_555
Co2 F0 2.081106 1_456
Co2 F2 2.081108 1_556
Co3 O1 1.866823 1_565
Co3 O8 1.867042 1_565
Co3 O7 1.933153 1_555
Co3 O5 1.933454 1_565
Co3 F3 2.041826 1_555
Co3 F1 2.042121 1_565
Co4 O5 1.796219 1_555
Co4 O3 1.986104 1_555
Co4 O2 1.986615 1_655
Co4 O11 1.989230 1_555
Co4 O10 1.989596 1_555
Co4 F3 2.085333 1_555
Co5 O7 1.796245 1_555
Co5 O2 1.986105 1_555
Co5 O3 1.986521 1_555
Co5 O10 1.989363 1_555
Co5 O11 1.989691 1_455
Co5 F1 2.085279 1_555
Co6 O6 1.811589 1_654
Co6 O0 1.916705 1_655
Co6 O1 1.916900 1_565
Co6 O9 1.917043 1_554
Co6 O8 1.917219 1_664
Co6 F0 1.965344 1_565
Co7 O4 1.811505 1_554
Co7 O1 1.916610 1_555
Co7 O0 1.916805 1_545
Co7 O9 1.917114 1_544
Co7 O8 1.917177 1_554
Co7 F2 1.965047 1_545
