# generated using pymatgen
data_VReO4
_symmetry_space_group_name_H-M   'P 1'
_cell_length_a   5.63951445
_cell_length_b   7.30784712
_cell_length_c   6.58362481
_cell_angle_alpha   90.00011765
_cell_angle_beta   89.99998006
_cell_angle_gamma   112.67448829
_symmetry_Int_Tables_number   1
_chemical_formula_structural   VReO4
_chemical_formula_sum   'V4 Re4 O16'
_cell_volume   250.35794948
_cell_formula_units_Z   4
loop_
 _symmetry_equiv_pos_site_id
 _symmetry_equiv_pos_as_xyz
  1  'x, y, z'
loop_
 _atom_site_type_symbol
 _atom_site_label
 _atom_site_symmetry_multiplicity
 _atom_site_fract_x
 _atom_site_fract_y
 _atom_site_fract_z
 _atom_site_occupancy
  V  V0  1  0.24140366  0.98255028  0.49999831  1
  V  V1  1  0.50859997  0.51744335  0.00000177  1
  V  V2  1  0.75535685  0.01208838  0.49999836  1
  V  V3  1  0.99463765  0.48791102  0.00000115  1
  Re  Re0  1  0.47383955  0.00157642  0.99999837  1
  Re  Re1  1  0.72091233  0.49870068  0.50000224  1
  Re  Re2  1  0.02909261  0.00130557  0.99999812  1
  Re  Re3  1  0.27616816  0.49843003  0.50000148  1
  O  O0  1  0.38585248  0.27254502  0.49999818  1
  O  O1  1  0.65421979  0.81025052  0.99999703  1
  O  O2  1  0.90499510  0.30792178  0.49999944  1
  O  O3  1  0.13803469  0.77339934  0.99999776  1
  O  O4  1  0.09576242  0.68970338  0.50000320  1
  O  O5  1  0.36415863  0.22748159  0.00000119  1
  O  O6  1  0.61195260  0.72658723  0.50000169  1
  O  O7  1  0.84501163  0.19209797  0.00000047  1
  O  O8  1  0.49031417  0.99914799  0.29513779  1
  O  O9  1  0.74407708  0.50154457  0.79756188  1
  O  O10  1  0.00588329  0.99845680  0.29753107  1
  O  O11  1  0.25972484  0.50084694  0.79517226  1
  O  O12  1  0.49031632  0.99915158  0.70485900  1
  O  O13  1  0.74407745  0.50154922  0.20244249  1
  O  O14  1  0.00588218  0.99846315  0.70246534  1
  O  O15  1  0.25972556  0.50085020  0.20483039  1
loop_
_geom_bond_atom_site_label_1
_geom_bond_atom_site_label_2
_geom_bond_distance
_geom_bond_site_symmetry_2
O0 V0 1.955442 1_545
O0 Re1 1.973374 1_555
O0 Re3 1.973523 1_555
O1 V1 1.974409 1_556
O1 Re0 2.021462 1_565
O1 Re2 2.035451 1_665
O2 V2 1.994839 1_555
O2 Re3 2.018178 1_655
O2 Re1 2.034053 1_555
O3 V3 1.925059 1_456
O3 Re0 1.982984 1_565
O3 Re2 1.985015 1_565
O4 V0 1.974677 1_555
O4 Re3 2.021232 1_555
O4 Re1 2.035242 1_455
O5 V1 1.955220 1_555
O5 Re2 1.973466 1_554
O5 Re0 1.973652 1_554
O6 V2 1.925146 1_565
O6 Re3 1.982842 1_555
O6 Re1 1.984940 1_555
O7 V3 1.994701 1_555
O7 Re0 2.018201 1_554
O7 Re2 2.034132 1_654
O8 V0 1.916499 1_555
O8 Re0 1.945715 1_564
O8 V2 1.988263 1_565
O9 V1 1.916325 1_556
O9 Re1 1.962949 1_555
O9 V3 1.972680 1_556
O10 V0 1.916644 1_555
O10 Re2 1.962789 1_564
O10 V2 1.972658 1_465
O11 V1 1.916216 1_556
O11 Re3 1.945910 1_555
O11 V3 1.988313 1_456
O12 V0 1.916503 1_555
O12 Re0 1.945714 1_565
O12 V2 1.988260 1_565
O13 V1 1.916320 1_555
O13 Re1 1.962949 1_555
O13 V3 1.972698 1_555
O14 V0 1.916662 1_555
O14 Re2 1.962789 1_565
O14 V2 1.972637 1_465
O15 V1 1.916214 1_555
O15 Re3 1.945912 1_555
O15 V3 1.988312 1_455
