# generated using pymatgen
data_ZrH24C8(NF3)2
_symmetry_space_group_name_H-M   'P 1'
_cell_length_a   8.64108723
_cell_length_b   8.64108723
_cell_length_c   8.64108689
_cell_angle_alpha   58.71156414
_cell_angle_beta   58.71156414
_cell_angle_gamma   58.71156430
_symmetry_Int_Tables_number   1
_chemical_formula_structural   ZrH24C8(NF3)2
_chemical_formula_sum   'Zr1 H24 C8 N2 F6'
_cell_volume   442.80557136
_cell_formula_units_Z   1
loop_
 _symmetry_equiv_pos_site_id
 _symmetry_equiv_pos_as_xyz
  1  'x, y, z'
loop_
 _atom_site_type_symbol
 _atom_site_label
 _atom_site_symmetry_multiplicity
 _atom_site_fract_x
 _atom_site_fract_y
 _atom_site_fract_z
 _atom_site_occupancy
  Zr  Zr0  1  0.00000000  0.00000000  0.00000000  1
  H  H0  1  0.29588100  0.23388900  0.98629000  1
  H  H1  1  0.98629000  0.29588100  0.23388900  1
  H  H2  1  0.23388900  0.98629000  0.29588100  1
  H  H3  1  0.70411900  0.76611100  0.01371000  1
  H  H4  1  0.01371000  0.70411900  0.76611100  1
  H  H5  1  0.76611100  0.01371000  0.70411900  1
  H  H6  1  0.50482000  0.20660300  0.01029700  1
  H  H7  1  0.01029700  0.50482000  0.20660300  1
  H  H8  1  0.20660300  0.01029700  0.50482000  1
  H  H9  1  0.49518000  0.79339700  0.98970300  1
  H  H10  1  0.98970300  0.49518000  0.79339700  1
  H  H11  1  0.79339700  0.98970300  0.49518000  1
  H  H12  1  0.32083300  0.44048600  0.96298500  1
  H  H13  1  0.96298500  0.32083300  0.44048600  1
  H  H14  1  0.44048600  0.96298500  0.32083300  1
  H  H15  1  0.67916700  0.55951400  0.03701500  1
  H  H16  1  0.03701500  0.67916700  0.55951400  1
  H  H17  1  0.55951400  0.03701500  0.67916700  1
  H  H18  1  0.47341200  0.24651500  0.27806700  1
  H  H19  1  0.27806700  0.47341200  0.24651500  1
  H  H20  1  0.24651500  0.27806700  0.47341200  1
  H  H21  1  0.52658800  0.75348500  0.72193300  1
  H  H22  1  0.72193300  0.52658800  0.75348500  1
  H  H23  1  0.75348500  0.72193300  0.52658800  1
  C  C0  1  0.35035800  0.28498900  0.03468100  1
  C  C1  1  0.03468100  0.35035800  0.28498900  1
  C  C2  1  0.28498900  0.03468100  0.35035800  1
  C  C3  1  0.64964200  0.71501100  0.96531900  1
  C  C4  1  0.96531900  0.64964200  0.71501100  1
  C  C5  1  0.71501100  0.96531900  0.64964200  1
  C  C6  1  0.31669300  0.31669300  0.31669300  1
  C  C7  1  0.68330700  0.68330700  0.68330700  1
  N  N0  1  0.24659600  0.24659600  0.24659600  1
  N  N1  1  0.75340400  0.75340400  0.75340400  1
  F  F0  1  0.87826700  0.16645600  0.78852900  1
  F  F1  1  0.78852900  0.87826700  0.16645600  1
  F  F2  1  0.16645600  0.78852900  0.87826700  1
  F  F3  1  0.12173300  0.83354400  0.21147100  1
  F  F4  1  0.21147100  0.12173300  0.83354400  1
  F  F5  1  0.83354400  0.21147100  0.12173300  1
loop_
_geom_bond_atom_site_label_1
_geom_bond_atom_site_label_2
_geom_bond_distance
_geom_bond_site_symmetry_2
C0 H12 1.094438 1_554
C0 H6 1.096244 1_555
C0 H0 1.097071 1_554
C0 N0 1.496581 1_555
C1 H13 1.094438 1_455
C1 H7 1.096244 1_555
C1 H1 1.097071 1_455
C1 N0 1.496581 1_555
C2 H14 1.094438 1_545
C2 H8 1.096244 1_555
C2 H2 1.097071 1_545
C2 N0 1.496581 1_555
C3 H15 1.094438 1_556
C3 H9 1.096244 1_555
C3 H3 1.097071 1_556
C3 N1 1.496581 1_555
C4 H16 1.094438 1_655
C4 H10 1.096244 1_555
C4 H4 1.097071 1_655
C4 N1 1.496581 1_555
C5 H17 1.094438 1_565
C5 H11 1.096244 1_555
C5 H5 1.097071 1_565
C5 N1 1.496581 1_555
C6 H20 1.095815 1_555
C6 H19 1.095815 1_555
C6 H18 1.095815 1_555
C6 N0 1.497974 1_555
C7 H23 1.095815 1_555
C7 H22 1.095815 1_555
C7 H21 1.095815 1_555
C7 N1 1.497974 1_555
F0 Zr0 2.051702 1_656
F1 Zr0 2.051702 1_665
F2 Zr0 2.051702 1_566
F3 Zr0 2.051702 1_565
F4 Zr0 2.051702 1_556
F5 Zr0 2.051702 1_655
