# generated using pymatgen
data_Te2Mo(WSe2)2
_symmetry_space_group_name_H-M   'P 1'
_cell_length_a   3.40230563
_cell_length_b   3.40230563
_cell_length_c   31.43433000
_cell_angle_alpha   90.00000000
_cell_angle_beta   90.00000000
_cell_angle_gamma   119.99999280
_symmetry_Int_Tables_number   1
_chemical_formula_structural   Te2Mo(WSe2)2
_chemical_formula_sum   'Te2 Mo1 W2 Se4'
_cell_volume   315.12402785
_cell_formula_units_Z   1
loop_
 _symmetry_equiv_pos_site_id
 _symmetry_equiv_pos_as_xyz
  1  'x, y, z'
loop_
 _atom_site_type_symbol
 _atom_site_label
 _atom_site_symmetry_multiplicity
 _atom_site_fract_x
 _atom_site_fract_y
 _atom_site_fract_z
 _atom_site_occupancy
  Te  Te0  1  0.66666700  0.33333300  0.51846500  1
  Te  Te1  1  0.66666700  0.33333300  0.63818000  1
  Mo  Mo0  1  0.66666700  0.33333300  0.34699100  1
  W  W0  1  0.33333300  0.66666700  0.11565900  1
  W  W1  1  0.33333300  0.66666700  0.57833400  1
  Se  Se0  1  0.33333300  0.66666700  0.39940800  1
  Se  Se1  1  0.66666700  0.33333300  0.06303300  1
  Se  Se2  1  0.66666700  0.33333300  0.16825400  1
  Se  Se3  1  0.33333300  0.66666700  0.29451700  1
loop_
_geom_bond_atom_site_label_1
_geom_bond_atom_site_label_2
_geom_bond_distance
_geom_bond_site_symmetry_2
Te0 W1 2.720342 1_545
Te0 W1 2.720342 1_655
Te0 W1 2.720346 1_555
Te1 W1 2.719842 1_545
Te1 W1 2.719842 1_655
Te1 W1 2.719846 1_555
Mo0 Se0 2.563873 1_545
Mo0 Se0 2.563873 1_655
Mo0 Se0 2.563878 1_555
Mo0 Se3 2.565025 1_545
Mo0 Se3 2.565025 1_655
Mo0 Se3 2.565030 1_555
Se1 W0 2.568101 1_545
Se1 W0 2.568101 1_655
Se1 W0 2.568105 1_555
Se2 W0 2.567473 1_545
Se2 W0 2.567473 1_655
Se2 W0 2.567477 1_555
