# generated using pymatgen
data_Na2CaSi10(H3O10)2
_symmetry_space_group_name_H-M   'P 1'
_cell_length_a   6.54479618
_cell_length_b   13.09996037
_cell_length_c   13.06737026
_cell_angle_alpha   90.00000000
_cell_angle_beta   90.00000000
_cell_angle_gamma   90.00000000
_symmetry_Int_Tables_number   1
_chemical_formula_structural   Na2CaSi10(H3O10)2
_chemical_formula_sum   'Na4 Ca2 Si20 H12 O40'
_cell_volume   1120.35151269
_cell_formula_units_Z   2
loop_
 _symmetry_equiv_pos_site_id
 _symmetry_equiv_pos_as_xyz
  1  'x, y, z'
loop_
 _atom_site_type_symbol
 _atom_site_label
 _atom_site_symmetry_multiplicity
 _atom_site_fract_x
 _atom_site_fract_y
 _atom_site_fract_z
 _atom_site_occupancy
  Na  Na0  1  0.74600532  -0.00000000  0.55128438  1
  Na  Na1  1  0.25399468  -0.00000000  0.44871562  1
  Na  Na2  1  0.25399468  0.50000000  0.05128438  1
  Na  Na3  1  0.74600532  0.50000000  0.94871562  1
  Ca  Ca0  1  -0.00000000  -0.00000000  -0.00000000  1
  Ca  Ca1  1  -0.00000000  0.50000000  0.50000000  1
  Si  Si0  1  0.37507751  0.75000000  0.75000000  1
  Si  Si1  1  0.62492249  0.25000000  0.25000000  1
  Si  Si2  1  0.62492249  0.75000000  0.25000000  1
  Si  Si3  1  0.37507751  0.25000000  0.75000000  1
  Si  Si4  1  0.75139035  0.88213328  0.79934248  1
  Si  Si5  1  0.24860965  0.11786672  0.20065752  1
  Si  Si6  1  0.24860965  0.61786672  0.29934248  1
  Si  Si7  1  0.75139035  0.61786672  0.70065752  1
  Si  Si8  1  0.75139035  0.38213328  0.70065752  1
  Si  Si9  1  0.24860965  0.38213328  0.29934248  1
  Si  Si10  1  0.24860965  0.88213328  0.20065752  1
  Si  Si11  1  0.75139035  0.11786672  0.79934248  1
  Si  Si12  1  0.99759530  0.70438780  0.88355015  1
  Si  Si13  1  0.00240470  0.29561220  0.11644985  1
  Si  Si14  1  0.00240470  0.79561220  0.38355015  1
  Si  Si15  1  0.99759530  0.79561220  0.61644985  1
  Si  Si16  1  0.99759530  0.20438780  0.61644985  1
  Si  Si17  1  0.00240470  0.20438780  0.38355015  1
  Si  Si18  1  0.00240470  0.70438780  0.11644985  1
  Si  Si19  1  0.99759530  0.29561220  0.88355015  1
  H  H0  1  0.50000000  0.58274979  0.00000000  1
  H  H1  1  0.50000000  0.41725021  0.00000000  1
  H  H2  1  0.50000000  0.91725021  0.50000000  1
  H  H3  1  0.50000000  0.08274979  0.50000000  1
  H  H4  1  0.43717555  -0.00000000  0.57609292  1
  H  H5  1  0.56282445  -0.00000000  0.42390708  1
  H  H6  1  0.56282445  0.50000000  0.07609292  1
  H  H7  1  0.43717555  0.50000000  0.92390708  1
  H  H8  1  0.23350661  -0.00000000  0.88863194  1
  H  H9  1  0.76649339  -0.00000000  0.11136806  1
  H  H10  1  0.76649339  0.50000000  0.38863194  1
  H  H11  1  0.23350661  0.50000000  0.61136806  1
  O  O0  1  0.76069585  -0.00000000  0.83978244  1
  O  O1  1  0.23930415  -0.00000000  0.16021756  1
  O  O2  1  0.23930415  0.50000000  0.33978244  1
  O  O3  1  0.76069585  0.50000000  0.66021756  1
  O  O4  1  0.77213816  0.79199170  0.34097128  1
  O  O5  1  0.22786184  0.20800830  0.65902872  1
  O  O6  1  0.22786184  0.70800830  0.84097128  1
  O  O7  1  0.77213816  0.70800830  0.15902872  1
  O  O8  1  0.77213816  0.29199170  0.15902872  1
  O  O9  1  0.22786184  0.29199170  0.84097128  1
  O  O10  1  0.22786184  0.79199170  0.65902872  1
  O  O11  1  0.77213816  0.20800830  0.34097128  1
  O  O12  1  0.52147293  0.83865715  0.79723762  1
  O  O13  1  0.47852707  0.16134285  0.20276238  1
  O  O14  1  0.47852707  0.66134285  0.29723762  1
  O  O15  1  0.52147293  0.66134285  0.70276238  1
  O  O16  1  0.52147293  0.33865715  0.70276238  1
  O  O17  1  0.47852707  0.33865715  0.29723762  1
  O  O18  1  0.47852707  0.83865715  0.20276238  1
  O  O19  1  0.52147293  0.16134285  0.79723762  1
  O  O20  1  0.88991973  0.81829361  0.88373282  1
  O  O21  1  0.11008027  0.18170639  0.11626718  1
  O  O22  1  0.11008027  0.68170639  0.38373282  1
  O  O23  1  0.88991973  0.68170639  0.61626718  1
  O  O24  1  0.88991973  0.31829361  0.61626718  1
  O  O25  1  0.11008027  0.31829361  0.38373282  1
  O  O26  1  0.11008027  0.81829361  0.11626718  1
  O  O27  1  0.88991973  0.18170639  0.88373282  1
  O  O28  1  -0.00000000  0.65785349  -0.00000000  1
  O  O29  1  -0.00000000  0.34214651  -0.00000000  1
  O  O30  1  -0.00000000  0.84214651  0.50000000  1
  O  O31  1  -0.00000000  0.15785349  0.50000000  1
  O  O32  1  0.85698233  0.87421629  0.68499124  1
  O  O33  1  0.14301767  0.12578371  0.31500876  1
  O  O34  1  0.14301767  0.62578371  0.18499124  1
  O  O35  1  0.85698233  0.62578371  0.81500876  1
  O  O36  1  0.85698233  0.37421629  0.81500876  1
  O  O37  1  0.14301767  0.37421629  0.18499124  1
  O  O38  1  0.14301767  0.87421629  0.31500876  1
  O  O39  1  0.85698233  0.12578371  0.68499124  1
loop_
_geom_bond_atom_site_label_1
_geom_bond_atom_site_label_2
_geom_bond_distance
_geom_bond_site_symmetry_2
Na0 O32 2.509055 1_545
Na0 O39 2.509055 1_555
Na0 O30 2.736530 1_645
Na0 O31 2.736530 1_655
Na1 O38 2.509055 1_545
Na1 O33 2.509055 1_555
Na1 O30 2.736530 1_545
Na1 O31 2.736530 1_555
Na2 O37 2.509055 1_555
Na2 O34 2.509055 1_555
Na2 O29 2.736530 1_555
Na2 O28 2.736530 1_555
Na3 O36 2.509055 1_555
Na3 O35 2.509055 1_555
Na3 O29 2.736530 1_656
Na3 O28 2.736530 1_656
Ca0 H8 2.110313 1_554
Ca0 H9 2.110313 1_455
Ca0 O0 2.614618 1_454
Ca0 O1 2.614618 1_555
Ca0 O21 2.914343 1_555
Ca0 O26 2.914343 1_545
Ca0 O20 2.914343 1_444
Ca0 O27 2.914343 1_454
Ca1 H10 2.110313 1_455
Ca1 H11 2.110313 1_555
Ca1 O3 2.614618 1_455
Ca1 O2 2.614618 1_555
Ca1 O25 2.914343 1_555
Ca1 O22 2.914343 1_555
Ca1 O23 2.914343 1_455
Ca1 O24 2.914343 1_455
H0 Na2 2.053406 1_555
H0 Na3 2.053406 1_554
H1 Na2 2.053406 1_555
H1 Na3 2.053406 1_554
H2 Na0 2.053406 1_565
H2 Na1 2.053406 1_565
H3 Na0 2.053406 1_555
H3 Na1 2.053406 1_555
H4 Na0 2.047060 1_555
H4 Na1 2.051300 1_555
H5 Na1 2.047060 1_555
H5 Na0 2.051300 1_555
H6 Na2 2.047060 1_555
H6 Na3 2.051300 1_554
H7 Na3 2.047060 1_555
H7 Na2 2.051300 1_556
O0 Si4 1.633111 1_545
O0 Si11 1.633111 1_555
O1 Si10 1.633111 1_545
O1 Si5 1.633111 1_555
O2 Si6 1.633111 1_555
O2 Si9 1.633111 1_555
O3 Si8 1.633111 1_555
O3 Si7 1.633111 1_555
O4 Si14 1.607176 1_655
O4 Si2 1.626058 1_555
O5 Si16 1.607176 1_455
O5 Si3 1.626058 1_555
O6 Si12 1.607176 1_455
O6 Si0 1.626058 1_555
O7 Si18 1.607176 1_655
O7 Si2 1.626058 1_555
O8 Si13 1.607176 1_655
O8 Si1 1.626058 1_555
O9 Si19 1.607176 1_455
O9 Si3 1.626058 1_555
O10 Si15 1.607176 1_455
O10 Si0 1.626058 1_555
O11 Si17 1.607176 1_655
O11 Si1 1.626058 1_555
O12 Si4 1.609173 1_555
O12 Si0 1.627236 1_555
O13 Si5 1.609173 1_555
O13 Si1 1.627236 1_555
O14 Si6 1.609173 1_555
O14 Si2 1.627236 1_555
O15 Si7 1.609173 1_555
O15 Si0 1.627236 1_555
O16 Si8 1.609173 1_555
O16 Si3 1.627236 1_555
O17 Si9 1.609173 1_555
O17 Si1 1.627236 1_555
O18 Si10 1.609173 1_555
O18 Si2 1.627236 1_555
O19 Si11 1.609173 1_555
O19 Si3 1.627236 1_555
O20 Si12 1.650204 1_555
O20 Si4 1.654533 1_555
O21 Si13 1.650204 1_555
O21 Si5 1.654533 1_555
O22 Si14 1.650204 1_555
O22 Si6 1.654533 1_555
O23 Si15 1.650204 1_555
O23 Si7 1.654533 1_555
O24 Si16 1.650204 1_555
O24 Si8 1.654533 1_555
O25 Si17 1.650204 1_555
O25 Si9 1.654533 1_555
O26 Si18 1.650204 1_555
O26 Si10 1.654533 1_555
O27 Si19 1.650204 1_555
O27 Si11 1.654533 1_555
O28 Si12 1.639331 1_454
O28 Si18 1.639331 1_555
O29 Si19 1.639331 1_454
O29 Si13 1.639331 1_555
O30 Si14 1.639331 1_555
O30 Si15 1.639331 1_455
O31 Si16 1.639331 1_455
O31 Si17 1.639331 1_555
O32 Si15 1.646033 1_555
O32 Si4 1.649602 1_555
O33 Si17 1.646033 1_555
O33 Si5 1.649602 1_555
O34 Si18 1.646033 1_555
O34 Si6 1.649602 1_555
O35 Si12 1.646033 1_555
O35 Si7 1.649602 1_555
O36 Si19 1.646033 1_555
O36 Si8 1.649602 1_555
O37 Si13 1.646033 1_555
O37 Si9 1.649602 1_555
O38 Si14 1.646033 1_555
O38 Si10 1.649602 1_555
O39 Si16 1.646033 1_555
O39 Si11 1.649602 1_555
