# generated using pymatgen
data_LaInNi
_symmetry_space_group_name_H-M   'P 1'
_cell_length_a   7.52794336
_cell_length_b   7.52794336
_cell_length_c   4.09803751
_cell_angle_alpha   90.00000000
_cell_angle_beta   90.00000000
_cell_angle_gamma   119.99999667
_symmetry_Int_Tables_number   1
_chemical_formula_structural   LaInNi
_chemical_formula_sum   'La3 In3 Ni3'
_cell_volume   201.12185284
_cell_formula_units_Z   3
loop_
 _symmetry_equiv_pos_site_id
 _symmetry_equiv_pos_as_xyz
  1  'x, y, z'
loop_
 _atom_site_type_symbol
 _atom_site_label
 _atom_site_symmetry_multiplicity
 _atom_site_fract_x
 _atom_site_fract_y
 _atom_site_fract_z
 _atom_site_occupancy
  La  La0  1  1.00000000  0.41724887  0.50000000  1
  La  La1  1  0.58275113  0.58275113  0.50000000  1
  La  La2  1  0.41724887  1.00000000  0.50000000  1
  In  In0  1  0.00000000  0.75974695  0.00000000  1
  In  In1  1  0.24025305  0.24025305  -0.00000000  1
  In  In2  1  0.75974695  0.00000000  0.00000000  1
  Ni  Ni0  1  0.33333300  0.66666700  0.00000000  1
  Ni  Ni1  1  0.66666700  0.33333300  -0.00000000  1
  Ni  Ni2  1  0.00000000  0.00000000  0.50000000  1
loop_
_geom_bond_atom_site_label_1
_geom_bond_atom_site_label_2
_geom_bond_distance
_geom_bond_site_symmetry_2
La0 Ni1 3.051069 1_556
La0 Ni1 3.051069 1_555
La0 Ni0 3.051070 1_655
La0 Ni0 3.051070 1_656
La0 Ni2 3.141026 1_655
La1 Ni0 3.051074 1_556
La1 Ni0 3.051074 1_555
La1 Ni1 3.051074 1_556
La1 Ni1 3.051074 1_555
La1 Ni2 3.141026 1_665
La2 Ni0 3.051069 1_556
La2 Ni0 3.051069 1_555
La2 Ni1 3.051070 1_565
La2 Ni1 3.051070 1_566
La2 Ni2 3.141026 1_565
In0 Ni2 2.733048 1_565
In0 Ni2 2.733048 1_564
In0 Ni0 2.923338 1_555
In0 Ni1 2.923343 1_455
In0 In2 3.132607 1_465
In0 In1 3.132607 1_565
In0 La0 3.293348 1_455
In0 La0 3.293348 1_454
In0 La1 3.413898 1_455
In0 La1 3.413898 1_454
In0 La2 3.413898 1_554
In0 La2 3.413898 1_555
In1 Ni2 2.733048 1_555
In1 Ni2 2.733048 1_554
In1 Ni0 2.923345 1_555
In1 Ni1 2.923345 1_555
In1 In2 3.132607 1_455
In1 La1 3.293348 1_555
In1 La1 3.293348 1_554
In1 La2 3.413898 1_545
In1 La0 3.413898 1_455
In1 La0 3.413898 1_454
In1 La2 3.413898 1_544
In2 Ni2 2.733048 1_654
In2 Ni2 2.733048 1_655
In2 Ni1 2.923338 1_555
In2 Ni0 2.923343 1_545
In2 La2 3.293348 1_545
In2 La2 3.293348 1_544
In2 La1 3.413898 1_545
In2 La1 3.413898 1_544
In2 La0 3.413898 1_555
In2 La0 3.413898 1_554
