# generated using pymatgen
data_Ba2MgCuAg2F14
_symmetry_space_group_name_H-M   'P 1'
_cell_length_a   5.37239100
_cell_length_b   7.65719586
_cell_length_c   15.28227511
_cell_angle_alpha   91.52451620
_cell_angle_beta   89.62208137
_cell_angle_gamma   110.46093713
_symmetry_Int_Tables_number   1
_chemical_formula_structural   Ba2MgCuAg2F14
_chemical_formula_sum   'Ba4 Mg2 Cu2 Ag4 F28'
_cell_volume   588.80031489
_cell_formula_units_Z   2
loop_
 _symmetry_equiv_pos_site_id
 _symmetry_equiv_pos_as_xyz
  1  'x, y, z'
loop_
 _atom_site_type_symbol
 _atom_site_label
 _atom_site_symmetry_multiplicity
 _atom_site_fract_x
 _atom_site_fract_y
 _atom_site_fract_z
 _atom_site_occupancy
  Ba  Ba0  1  0.72565700  0.63013700  0.37429300  1
  Ba  Ba1  1  0.90235100  0.62962400  0.87463300  1
  Ba  Ba2  1  0.27434300  0.36986300  0.62570700  1
  Ba  Ba3  1  0.09764900  0.37037600  0.12536700  1
  Mg  Mg0  1  0.42907000  0.00215300  0.24819000  1
  Mg  Mg1  1  0.57093000  0.99784700  0.75181000  1
  Cu  Cu0  1  0.50000000  0.00000000  0.00000000  1
  Cu  Cu1  1  0.50000000  0.00000000  0.50000000  1
  Ag  Ag0  1  0.85471400  0.76573500  0.12775500  1
  Ag  Ag1  1  0.14528600  0.23426500  0.87224500  1
  Ag  Ag2  1  0.90761300  0.76686500  0.62776500  1
  Ag  Ag3  1  0.09238700  0.23313500  0.37223500  1
  F  F0  1  0.87848700  0.02800600  0.66658800  1
  F  F1  1  0.57957200  0.71669100  0.54118100  1
  F  F2  1  0.42042800  0.28330900  0.45881900  1
  F  F3  1  0.13394200  0.51070400  0.40287800  1
  F  F4  1  0.53255600  0.91439900  0.38572400  1
  F  F5  1  0.61661400  0.08394900  0.11356400  1
  F  F6  1  0.13503700  0.71628500  0.04076500  1
  F  F7  1  0.86054400  0.97174200  0.83384800  1
  F  F8  1  0.02667500  0.65446100  0.22843400  1
  F  F9  1  0.86605800  0.48929600  0.59712200  1
  F  F10  1  0.56735500  0.79171700  0.22300700  1
  F  F11  1  0.62673300  0.48848900  0.09616600  1
  F  F12  1  0.21769200  0.78927300  0.72269100  1
  F  F13  1  0.43264500  0.20828300  0.77699300  1
  F  F14  1  0.38338600  0.91605100  0.88643600  1
  F  F15  1  0.97332500  0.34553900  0.77156600  1
  F  F16  1  0.29319700  0.15013400  0.99037100  1
  F  F17  1  0.12151300  0.97199400  0.33341200  1
  F  F18  1  0.70680300  0.84986600  0.00962900  1
  F  F19  1  0.85317200  0.15127500  0.49066500  1
  F  F20  1  0.86496300  0.28371500  0.95923500  1
  F  F21  1  0.78230800  0.21072700  0.27730900  1
  F  F22  1  0.62286200  0.65813100  0.73000800  1
  F  F23  1  0.14682800  0.84872500  0.50933500  1
  F  F24  1  0.46744400  0.08560100  0.61427600  1
  F  F25  1  0.13945600  0.02825800  0.16615200  1
  F  F26  1  0.37713800  0.34186900  0.26999200  1
  F  F27  1  0.37326700  0.51151100  0.90383400  1
loop_
_geom_bond_atom_site_label_1
_geom_bond_atom_site_label_2
_geom_bond_distance
_geom_bond_site_symmetry_2
Ba0 F3 2.697189 1_655
Ba0 F8 2.717100 1_655
Ba0 F4 2.720412 1_555
Ba0 F1 2.794137 1_555
Ba0 F26 2.807391 1_555
Ba0 F17 2.818285 1_655
Ba0 F10 2.917736 1_555
Ba0 F2 2.918976 1_555
Ba0 F3 3.017143 1_555
Ba0 F23 3.067632 1_655
Ba1 F27 2.702600 1_555
Ba1 F22 2.736019 1_555
Ba1 F14 2.746605 1_655
Ba1 F15 2.783503 1_555
Ba1 F7 2.793146 1_555
Ba1 F6 2.796640 1_656
Ba1 F12 2.899570 1_655
Ba1 F20 2.921365 1_555
Ba1 F27 3.008955 1_655
Ba1 F18 3.037902 1_556
Ba2 F9 2.697189 1_455
Ba2 F15 2.717100 1_455
Ba2 F24 2.720412 1_555
Ba2 F2 2.794137 1_555
Ba2 F22 2.807391 1_555
Ba2 F0 2.818285 1_455
Ba2 F13 2.917736 1_555
Ba2 F1 2.918976 1_555
Ba2 F9 3.017143 1_555
Ba2 F19 3.067632 1_455
Ba3 F11 2.702600 1_555
Ba3 F26 2.736019 1_555
Ba3 F5 2.746605 1_455
Ba3 F8 2.783503 1_555
Ba3 F25 2.793146 1_555
Ba3 F20 2.796640 1_454
Ba3 F21 2.899570 1_455
Ba3 F6 2.921365 1_555
Ba3 F11 3.008955 1_455
Ba3 F16 3.037902 1_554
Cu0 F18 1.865945 1_545
Cu0 F16 1.865945 1_554
Cu0 F5 1.868462 1_555
Cu0 F14 1.868462 1_544
Cu0 F6 2.455604 1_545
Cu0 F20 2.455604 1_554
Cu1 F19 1.852242 1_555
Cu1 F23 1.852242 1_545
Cu1 F4 1.877589 1_545
Cu1 F24 1.877589 1_555
Cu1 F2 2.451422 1_555
Cu1 F1 2.451422 1_545
Ag0 F11 2.091747 1_555
Ag0 F6 2.127023 1_655
Ag0 F25 2.127084 1_665
Ag0 F8 2.141403 1_655
Ag0 F10 2.170613 1_555
Ag0 F18 2.178077 1_555
Ag1 F27 2.091747 1_555
Ag1 F20 2.127023 1_455
Ag1 F7 2.127084 1_445
Ag1 F15 2.141403 1_455
Ag1 F13 2.170613 1_555
Ag1 F16 2.178077 1_555
Ag2 F9 2.098368 1_555
Ag2 F0 2.128222 1_565
Ag2 F1 2.129490 1_555
Ag2 F22 2.149909 1_555
Ag2 F12 2.174359 1_655
Ag2 F23 2.187848 1_655
Ag3 F3 2.098368 1_555
Ag3 F17 2.128222 1_545
Ag3 F2 2.129490 1_555
Ag3 F26 2.149909 1_555
Ag3 F21 2.174359 1_455
Ag3 F19 2.187848 1_455
F0 Mg1 2.049520 1_545
F4 Mg0 2.351609 1_565
F5 Mg0 2.289180 1_555
F7 Mg1 2.071035 1_555
F10 Mg0 2.024022 1_565
F12 Mg1 2.050478 1_555
F13 Mg1 2.024022 1_545
F14 Mg1 2.289180 1_555
F17 Mg0 2.049520 1_565
F21 Mg0 2.050478 1_555
F24 Mg1 2.351609 1_545
F25 Mg0 2.071035 1_555
