# generated using pymatgen
data_Li3Cr2(PO4)3
_symmetry_space_group_name_H-M   'P 1'
_cell_length_a   9.10359858
_cell_length_b   9.10359858
_cell_length_c   16.36362691
_cell_angle_alpha   65.18496721
_cell_angle_beta   65.18496721
_cell_angle_gamma   58.08610828
_symmetry_Int_Tables_number   1
_chemical_formula_structural   Li3Cr2(PO4)3
_chemical_formula_sum   'Li12 Cr8 P12 O48'
_cell_volume   1009.83668477
_cell_formula_units_Z   4
loop_
 _symmetry_equiv_pos_site_id
 _symmetry_equiv_pos_as_xyz
  1  'x, y, z'
loop_
 _atom_site_type_symbol
 _atom_site_label
 _atom_site_symmetry_multiplicity
 _atom_site_fract_x
 _atom_site_fract_y
 _atom_site_fract_z
 _atom_site_occupancy
  Li  Li0  1  0.17773300  0.40290200  0.34887700  1
  Li  Li1  1  0.96728700  0.30736300  0.94351000  1
  Li  Li2  1  0.09898400  0.90101600  0.25000000  1
  Li  Li3  1  0.69263700  0.03271300  0.55649000  1
  Li  Li4  1  0.59709800  0.82226700  0.15112300  1
  Li  Li5  1  0.50000000  0.50000000  0.50000000  1
  Li  Li6  1  0.40290200  0.17773300  0.84887700  1
  Li  Li7  1  0.30736300  0.96728700  0.44351000  1
  Li  Li8  1  0.90101600  0.09898400  0.75000000  1
  Li  Li9  1  0.03271300  0.69263700  0.05649000  1
  Li  Li10  1  0.82226700  0.59709800  0.65112300  1
  Li  Li11  1  0.50000000  0.50000000  0.00000000  1
  Cr  Cr0  1  0.26004500  0.25257300  0.53094000  1
  Cr  Cr1  1  0.32962000  0.85504600  0.83544100  1
  Cr  Cr2  1  0.14495400  0.67038000  0.66455900  1
  Cr  Cr3  1  0.74742700  0.73995500  0.96906000  1
  Cr  Cr4  1  0.25257300  0.26004500  0.03094000  1
  Cr  Cr5  1  0.85504600  0.32962000  0.33544100  1
  Cr  Cr6  1  0.67038000  0.14495400  0.16455900  1
  Cr  Cr7  1  0.73995500  0.74742700  0.46906000  1
  P  P0  1  0.60381100  0.16559700  0.37296400  1
  P  P1  1  0.28276200  0.24553600  0.69035700  1
  P  P2  1  0.31237400  0.87626800  0.02966000  1
  P  P3  1  0.12373200  0.68762600  0.47034000  1
  P  P4  1  0.75446400  0.71723800  0.80964300  1
  P  P5  1  0.83440300  0.39618900  0.12703600  1
  P  P6  1  0.16559700  0.60381100  0.87296400  1
  P  P7  1  0.24553600  0.28276200  0.19035700  1
  P  P8  1  0.87626800  0.31237400  0.52966000  1
  P  P9  1  0.68762600  0.12373200  0.97034000  1
  P  P10  1  0.71723800  0.75446400  0.30964300  1
  P  P11  1  0.39618900  0.83440300  0.62703600  1
  O  O0  1  0.11151500  0.30494200  0.28788600  1
  O  O1  1  0.17444800  0.44104300  0.10692800  1
  O  O2  1  0.32294200  0.62424300  0.87358600  1
  O  O3  1  0.30419000  0.99954000  0.55306300  1
  O  O4  1  0.06054300  0.32514000  0.48033100  1
  O  O5  1  0.29941600  0.89462400  0.71763500  1
  O  O6  1  0.39968500  0.22137800  0.39883600  1
  O  O7  1  0.11617300  0.28981900  0.66325900  1
  O  O8  1  0.23082300  0.85110700  0.97061600  1
  O  O9  1  0.58780400  0.72055000  0.80363100  1
  O  O10  1  0.20249400  0.86071300  0.12952300  1
  O  O11  1  0.30494200  0.11151500  0.78788600  1
  O  O12  1  0.27252400  0.49081700  0.48376300  1
  O  O13  1  0.44104300  0.17444800  0.60692800  1
  O  O14  1  0.50918300  0.72747600  0.01623700  1
  O  O15  1  0.62424300  0.32294200  0.37358600  1
  O  O16  1  0.13928700  0.79750600  0.37047700  1
  O  O17  1  0.99954000  0.30419000  0.05306300  1
  O  O18  1  0.27945000  0.41219600  0.69636900  1
  O  O19  1  0.32514000  0.06054300  0.98033100  1
  O  O20  1  0.89462400  0.29941600  0.21763500  1
  O  O21  1  0.14889300  0.76917700  0.52938400  1
  O  O22  1  0.77862200  0.60031500  0.10116400  1
  O  O23  1  0.71018100  0.88382700  0.83674100  1
  O  O24  1  0.28981900  0.11617300  0.16325900  1
  O  O25  1  0.22137800  0.39968500  0.89883600  1
  O  O26  1  0.85110700  0.23082300  0.47061600  1
  O  O27  1  0.10537600  0.70058400  0.78236500  1
  O  O28  1  0.67486000  0.93945700  0.01966900  1
  O  O29  1  0.72055000  0.58780400  0.30363100  1
  O  O30  1  0.00046000  0.69581000  0.94693700  1
  O  O31  1  0.86071300  0.20249400  0.62952300  1
  O  O32  1  0.37575700  0.67705800  0.62641400  1
  O  O33  1  0.49081700  0.27252400  0.98376300  1
  O  O34  1  0.55895700  0.82555200  0.39307200  1
  O  O35  1  0.72747600  0.50918300  0.51623700  1
  O  O36  1  0.69505800  0.88848500  0.21211400  1
  O  O37  1  0.79750600  0.13928700  0.87047700  1
  O  O38  1  0.41219600  0.27945000  0.19636900  1
  O  O39  1  0.76917700  0.14889300  0.02938400  1
  O  O40  1  0.88382700  0.71018100  0.33674100  1
  O  O41  1  0.60031500  0.77862200  0.60116400  1
  O  O42  1  0.70058400  0.10537600  0.28236500  1
  O  O43  1  0.93945700  0.67486000  0.51966900  1
  O  O44  1  0.69581000  0.00046000  0.44693700  1
  O  O45  1  0.67705800  0.37575700  0.12641400  1
  O  O46  1  0.82555200  0.55895700  0.89307200  1
  O  O47  1  0.88848500  0.69505800  0.71211400  1
loop_
_geom_bond_atom_site_label_1
_geom_bond_atom_site_label_2
_geom_bond_distance
_geom_bond_site_symmetry_2
Li0 O4 1.964802 1_555
Li0 O0 1.993796 1_555
Li0 O6 2.050381 1_555
Li1 O17 1.920977 1_556
Li1 O46 1.942826 1_555
Li1 O39 2.496103 1_556
Li1 O25 2.590715 1_655
Li2 O16 1.895105 1_555
Li2 O10 1.895105 1_555
Li3 O44 1.920977 1_555
Li3 O13 1.942826 1_555
Li3 O26 2.496103 1_555
Li3 O41 2.590715 1_545
Li4 O28 1.964802 1_555
Li4 O36 1.993796 1_555
Li4 O22 2.050381 1_555
Li5 O35 2.242661 1_555
Li5 O12 2.242661 1_555
Li6 O19 1.964802 1_555
Li6 O11 1.993796 1_555
Li6 O25 2.050381 1_555
Li7 O3 1.920977 1_555
Li7 O34 1.942826 1_555
Li7 O21 2.496103 1_555
Li7 O6 2.590715 1_565
Li8 O37 1.895105 1_555
Li8 O31 1.895105 1_555
Li9 O30 1.920977 1_554
Li9 O1 1.942826 1_555
Li9 O8 2.496103 1_554
Li9 O22 2.590715 1_455
Li10 O43 1.964802 1_555
Li10 O47 1.993796 1_555
Li10 O41 2.050381 1_555
Li11 O33 2.242661 1_554
Li11 O14 2.242661 1_555
Cr0 O4 1.988844 1_555
Cr0 O3 2.010501 1_545
Cr0 O12 2.023458 1_555
Cr0 O6 2.048557 1_555
Cr0 O7 2.069999 1_555
Cr0 O13 2.122598 1_555
Cr1 O5 1.918007 1_555
Cr1 O9 1.939027 1_555
Cr1 O2 1.952034 1_555
Cr1 O8 2.000144 1_555
Cr1 O11 2.043132 1_565
Cr2 O27 1.918007 1_555
Cr2 O18 1.939027 1_555
Cr2 O32 1.952034 1_555
Cr2 O21 2.000144 1_555
Cr2 O47 2.043132 1_455
Cr3 O28 1.988844 1_556
Cr3 O30 2.010501 1_655
Cr3 O14 2.023458 1_556
Cr3 O22 2.048557 1_556
Cr3 O23 2.069999 1_555
Cr3 O46 2.122598 1_555
Cr4 O19 1.988844 1_554
Cr4 O17 2.010501 1_455
Cr4 O33 2.023458 1_554
Cr4 O25 2.048557 1_554
Cr4 O24 2.069999 1_555
Cr4 O1 2.122598 1_555
Cr5 O20 1.918007 1_555
Cr5 O29 1.939027 1_555
Cr5 O15 1.952034 1_555
Cr5 O26 2.000144 1_555
Cr5 O0 2.043132 1_655
Cr6 O42 1.918007 1_555
Cr6 O38 1.939027 1_555
Cr6 O45 1.952034 1_555
Cr6 O39 2.000144 1_555
Cr6 O36 2.043132 1_545
Cr7 O43 1.988844 1_555
Cr7 O44 2.010501 1_565
Cr7 O35 2.023458 1_555
Cr7 O41 2.048557 1_555
Cr7 O40 2.069999 1_555
Cr7 O34 2.122598 1_555
O0 P7 1.565873 1_555
O1 P7 1.569500 1_555
O2 P6 1.543377 1_555
O3 P11 1.555312 1_555
O4 P8 1.571643 1_455
O5 P11 1.532920 1_555
O6 P0 1.553286 1_555
O7 P1 1.557917 1_555
O8 P2 1.582646 1_556
O9 P4 1.544969 1_555
O10 P2 1.508136 1_555
O11 P1 1.565873 1_555
O12 P3 1.564159 1_555
O13 P1 1.569500 1_555
O14 P2 1.564159 1_555
O15 P0 1.543377 1_555
O16 P3 1.508136 1_555
O17 P5 1.555312 1_555
O18 P1 1.544969 1_555
O19 P2 1.571643 1_546
O20 P5 1.532920 1_555
O21 P3 1.582646 1_555
O22 P5 1.553286 1_555
O23 P4 1.557917 1_555
O24 P7 1.557917 1_555
O25 P6 1.553286 1_555
O26 P8 1.582646 1_555
O27 P6 1.532920 1_555
O28 P9 1.571643 1_564
O29 P10 1.544969 1_555
O30 P6 1.555312 1_555
O31 P8 1.508136 1_555
O32 P11 1.543377 1_555
O33 P9 1.564159 1_555
O34 P10 1.569500 1_555
O35 P8 1.564159 1_555
O36 P10 1.565873 1_555
O37 P9 1.508136 1_555
O38 P7 1.544969 1_555
O39 P9 1.582646 1_554
O40 P10 1.557917 1_555
O41 P11 1.553286 1_555
O42 P0 1.532920 1_555
O43 P3 1.571643 1_655
O44 P0 1.555312 1_555
O45 P5 1.543377 1_555
O46 P4 1.569500 1_555
O47 P4 1.565873 1_555
