# generated using pymatgen
data_K4UC2Se2O15
_symmetry_space_group_name_H-M   'P 1'
_cell_length_a   7.44781300
_cell_length_b   15.23596200
_cell_length_c   17.76730299
_cell_angle_alpha   55.57856389
_cell_angle_beta   90.00000000
_cell_angle_gamma   90.00000000
_symmetry_Int_Tables_number   1
_chemical_formula_structural   K4UC2Se2O15
_chemical_formula_sum   'K16 U4 C8 Se8 O60'
_cell_volume   1663.11601705
_cell_formula_units_Z   4
loop_
 _symmetry_equiv_pos_site_id
 _symmetry_equiv_pos_as_xyz
  1  'x, y, z'
loop_
 _atom_site_type_symbol
 _atom_site_label
 _atom_site_symmetry_multiplicity
 _atom_site_fract_x
 _atom_site_fract_y
 _atom_site_fract_z
 _atom_site_occupancy
  K  K0  1  0.86221000  0.37244400  0.00902800  1
  K  K1  1  0.63779000  0.37244400  0.50902800  1
  K  K2  1  0.13779000  0.62755600  0.99097200  1
  K  K3  1  0.36221000  0.62755600  0.49097200  1
  K  K4  1  0.47996100  0.85516100  0.92499800  1
  K  K5  1  0.02003900  0.85516100  0.42499800  1
  K  K6  1  0.52003900  0.14483900  0.07500200  1
  K  K7  1  0.97996100  0.14483900  0.57500200  1
  K  K8  1  0.49369000  0.00018800  0.35400600  1
  K  K9  1  0.00631000  0.00018800  0.85400600  1
  K  K10  1  0.50631000  0.99981200  0.64599400  1
  K  K11  1  0.99369000  0.99981200  0.14599400  1
  K  K12  1  0.41547600  0.62330900  0.20577200  1
  K  K13  1  0.08452400  0.62330900  0.70577200  1
  K  K14  1  0.58452400  0.37669100  0.79422800  1
  K  K15  1  0.91547600  0.37669100  0.29422800  1
  U  U0  1  0.33402700  0.32961900  0.19542500  1
  U  U1  1  0.16597300  0.32961900  0.69542500  1
  U  U2  1  0.66597300  0.67038100  0.80457500  1
  U  U3  1  0.83402700  0.67038100  0.30457500  1
  C  C0  1  0.35204800  0.21331300  0.41868200  1
  C  C1  1  0.14795200  0.21331300  0.91868200  1
  C  C2  1  0.64795200  0.78668700  0.58131800  1
  C  C3  1  0.85204800  0.78668700  0.08131800  1
  C  C4  1  0.54123500  0.26398000  0.38449700  1
  C  C5  1  0.95876500  0.26398000  0.88449700  1
  C  C6  1  0.45876500  0.73602000  0.61550300  1
  C  C7  1  0.04123500  0.73602000  0.11550300  1
  Se  Se0  1  0.94547000  0.14425400  0.24647400  1
  Se  Se1  1  0.55453000  0.14425400  0.74647400  1
  Se  Se2  1  0.05453000  0.85574600  0.75352600  1
  Se  Se3  1  0.44547000  0.85574600  0.25352600  1
  Se  Se4  1  0.66561700  0.55514700  0.05856900  1
  Se  Se5  1  0.83438300  0.55514700  0.55856900  1
  Se  Se6  1  0.33438300  0.44485300  0.94143100  1
  Se  Se7  1  0.16561700  0.44485300  0.44143100  1
  O  O0  1  0.42804100  0.21408000  0.20375300  1
  O  O1  1  0.07195900  0.21408000  0.70375300  1
  O  O2  1  0.57195900  0.78592000  0.79624700  1
  O  O3  1  0.92804100  0.78592000  0.29624700  1
  O  O4  1  0.23770500  0.44680000  0.18445000  1
  O  O5  1  0.26229500  0.44680000  0.68445000  1
  O  O6  1  0.76229500  0.55320000  0.81555000  1
  O  O7  1  0.73770500  0.55320000  0.31555000  1
  O  O8  1  0.81180300  0.10732300  0.33470400  1
  O  O9  1  0.68819700  0.10732300  0.83470400  1
  O  O10  1  0.18819700  0.89267700  0.66529600  1
  O  O11  1  0.31180300  0.89267700  0.16529600  1
  O  O12  1  0.82986500  0.16418500  0.15765000  1
  O  O13  1  0.67013500  0.16418500  0.65765000  1
  O  O14  1  0.17013500  0.83581500  0.84235000  1
  O  O15  1  0.32986500  0.83581500  0.34235000  1
  O  O16  1  0.04037200  0.26603900  0.20864000  1
  O  O17  1  0.45962800  0.26603900  0.70864000  1
  O  O18  1  0.95962800  0.73396100  0.79136000  1
  O  O19  1  0.54037200  0.73396100  0.29136000  1
  O  O20  1  0.10543900  0.05400100  0.27375400  1
  O  O21  1  0.39456100  0.05400100  0.77375400  1
  O  O22  1  0.89456100  0.94599900  0.72624600  1
  O  O23  1  0.60543900  0.94599900  0.22624600  1
  O  O24  1  0.50008800  0.63728900  0.04079500  1
  O  O25  1  0.99991200  0.63728900  0.54079500  1
  O  O26  1  0.49991200  0.36271100  0.95920500  1
  O  O27  1  0.00008800  0.36271100  0.45920500  1
  O  O28  1  0.82553200  0.55146100  0.12470100  1
  O  O29  1  0.67446800  0.55146100  0.62470100  1
  O  O30  1  0.17446800  0.44853900  0.87529900  1
  O  O31  1  0.32553200  0.44853900  0.37529900  1
  O  O32  1  0.76821900  0.58937600  0.95979200  1
  O  O33  1  0.73178100  0.58937600  0.45979200  1
  O  O34  1  0.23178100  0.41062400  0.04020800  1
  O  O35  1  0.26821900  0.41062400  0.54020800  1
  O  O36  1  0.58599800  0.43031900  0.10326100  1
  O  O37  1  0.91400200  0.43031900  0.60326100  1
  O  O38  1  0.41400200  0.56968100  0.89673900  1
  O  O39  1  0.08599800  0.56968100  0.39673900  1
  O  O40  1  0.24883500  0.22933800  0.35347200  1
  O  O41  1  0.25116500  0.22933800  0.85347200  1
  O  O42  1  0.75116500  0.77066200  0.64652800  1
  O  O43  1  0.74883500  0.77066200  0.14652800  1
  O  O44  1  0.55691300  0.31965000  0.29678000  1
  O  O45  1  0.94308700  0.31965000  0.79678000  1
  O  O46  1  0.44308700  0.68035000  0.70322000  1
  O  O47  1  0.05691300  0.68035000  0.20322000  1
  O  O48  1  0.31264000  0.16398100  0.50083800  1
  O  O49  1  0.18736000  0.16398100  0.00083800  1
  O  O50  1  0.68736000  0.83601900  0.49916200  1
  O  O51  1  0.81264000  0.83601900  0.99916200  1
  O  O52  1  0.66203600  0.25082900  0.43876400  1
  O  O53  1  0.83796400  0.25082900  0.93876400  1
  O  O54  1  0.33796400  0.74917100  0.56123600  1
  O  O55  1  0.16203600  0.74917100  0.06123600  1
  O  O56  1  0.29501500  0.97302400  0.98308400  1
  O  O57  1  0.20498500  0.97302400  0.48308400  1
  O  O58  1  0.70498500  0.02697600  0.01691600  1
  O  O59  1  0.79501500  0.02697600  0.51691600  1
loop_
_geom_bond_atom_site_label_1
_geom_bond_atom_site_label_2
_geom_bond_distance
_geom_bond_site_symmetry_2
K0 O12 2.761589 1_555
K0 O53 2.763985 1_554
K0 O26 2.869667 1_554
K0 O34 2.930161 1_655
K0 O32 2.985068 1_554
K0 O6 3.041741 1_554
K0 O30 3.046938 1_654
K0 O36 3.079245 1_555
K0 O16 3.235247 1_655
K1 O13 2.761589 1_555
K1 O52 2.763985 1_555
K1 O27 2.869667 1_655
K1 O35 2.930161 1_555
K1 O33 2.985068 1_555
K1 O7 3.041741 1_555
K1 O31 3.046938 1_555
K1 O37 3.079245 1_555
K1 O17 3.235247 1_555
K2 O14 2.761589 1_555
K2 O55 2.763985 1_556
K2 O24 2.869667 1_556
K2 O32 2.930161 1_455
K2 O34 2.985068 1_556
K2 O4 3.041741 1_556
K2 O28 3.046938 1_456
K2 O38 3.079245 1_555
K2 O18 3.235247 1_455
K3 O15 2.761589 1_555
K3 O54 2.763985 1_555
K3 O25 2.869667 1_455
K3 O33 2.930161 1_555
K3 O35 2.985068 1_555
K3 O5 3.041741 1_555
K3 O29 3.046938 1_555
K3 O39 3.079245 1_555
K3 O19 3.235247 1_555
K4 O51 2.743366 1_555
K4 O24 2.748319 1_556
K4 O21 2.756781 1_565
K4 O14 2.838518 1_555
K4 O56 2.877917 1_555
K4 O2 3.089279 1_555
K4 O55 3.107164 1_556
K5 O50 2.743366 1_455
K5 O25 2.748319 1_455
K5 O20 2.756781 1_565
K5 O15 2.838518 1_555
K5 O57 2.877917 1_555
K5 O3 3.089279 1_455
K5 O54 3.107164 1_555
K6 O49 2.743366 1_555
K6 O26 2.748319 1_554
K6 O23 2.756781 1_545
K6 O12 2.838518 1_555
K6 O58 2.877917 1_555
K6 O0 3.089279 1_555
K6 O53 3.107164 1_554
K7 O48 2.743366 1_655
K7 O27 2.748319 1_655
K7 O22 2.756781 1_545
K7 O13 2.838518 1_555
K7 O59 2.877917 1_555
K7 O1 3.089279 1_655
K7 O52 3.107164 1_555
K8 O50 2.774042 1_545
K8 O8 2.786124 1_555
K8 O0 2.854876 1_555
K8 O15 2.896533 1_545
K8 O23 2.940377 1_545
K8 O57 2.996866 1_545
K8 O20 3.121715 1_555
K9 O51 2.774042 1_445
K9 O9 2.786124 1_455
K9 O1 2.854876 1_555
K9 O14 2.896533 1_545
K9 O22 2.940377 1_445
K9 O56 2.996866 1_545
K9 O21 3.121715 1_555
K10 O48 2.774042 1_565
K10 O10 2.786124 1_555
K10 O2 2.854876 1_555
K10 O13 2.896533 1_565
K10 O21 2.940377 1_565
K10 O59 2.996866 1_565
K10 O22 3.121715 1_555
K11 O49 2.774042 1_665
K11 O11 2.786124 1_655
K11 O3 2.854876 1_555
K11 O12 2.896533 1_565
K11 O20 2.940377 1_665
K11 O58 2.996866 1_565
K11 O23 3.121715 1_555
K12 O31 2.746646 1_555
K12 O47 2.800789 1_555
K12 O55 2.875332 1_555
K12 O24 2.885923 1_555
K12 O7 2.889531 1_555
K12 O19 2.986352 1_555
K12 O43 3.104977 1_555
K12 O4 3.206330 1_555
K13 O30 2.746646 1_555
K13 O46 2.800789 1_555
K13 O54 2.875332 1_555
K13 O25 2.885923 1_455
K13 O6 2.889531 1_455
K13 O18 2.986352 1_455
K13 O42 3.104977 1_455
K13 O5 3.206330 1_555
K14 O29 2.746646 1_555
K14 O45 2.800789 1_555
K14 O53 2.875332 1_555
K14 O26 2.885923 1_555
K14 O5 2.889531 1_555
K14 O17 2.986352 1_555
K14 O41 3.104977 1_555
K14 O6 3.206330 1_555
K15 O28 2.746646 1_555
K15 O44 2.800789 1_555
K15 O52 2.875332 1_555
K15 O27 2.885923 1_655
K15 O4 2.889531 1_655
K15 O16 2.986352 1_655
K15 O40 3.104977 1_655
K15 O7 3.206330 1_555
C0 O48 1.241535 1_555
C0 O40 1.293478 1_555
C1 O49 1.241535 1_556
C1 O41 1.293478 1_555
C2 O50 1.241535 1_555
C2 O42 1.293478 1_555
C3 O51 1.241535 1_554
C3 O43 1.293478 1_555
C4 O52 1.249336 1_555
C4 O44 1.291314 1_555
C5 O53 1.249336 1_555
C5 O45 1.291314 1_555
C6 O54 1.249336 1_555
C6 O46 1.291314 1_555
C7 O55 1.249336 1_555
C7 O47 1.291314 1_555
O0 U0 1.821131 1_555
O1 U1 1.821131 1_555
O2 U2 1.821131 1_555
O3 U3 1.821131 1_555
O4 U0 1.829374 1_555
O5 U1 1.829374 1_555
O6 U2 1.829374 1_555
O7 U3 1.829374 1_555
O8 Se0 1.663690 1_555
O9 Se1 1.663690 1_555
O10 Se2 1.663690 1_555
O11 Se3 1.663690 1_555
O12 Se0 1.668034 1_555
O13 Se1 1.668034 1_555
O14 Se2 1.668034 1_555
O15 Se3 1.668034 1_555
O16 Se0 1.727497 1_455
O16 U0 2.349410 1_555
O17 Se1 1.727497 1_555
O17 U1 2.349410 1_555
O18 Se2 1.727497 1_655
O18 U2 2.349410 1_555
O19 Se3 1.727497 1_555
O19 U3 2.349410 1_555
O20 Se0 1.670860 1_455
O21 Se1 1.670860 1_555
O22 Se2 1.670860 1_655
O23 Se3 1.670860 1_555
O24 Se4 1.655010 1_555
O25 Se5 1.655010 1_555
O26 Se6 1.655010 1_555
O27 Se7 1.655010 1_555
O28 Se4 1.651566 1_555
O29 Se5 1.651566 1_555
O30 Se6 1.651566 1_555
O31 Se7 1.651566 1_555
O32 Se4 1.703292 1_556
O32 U2 2.420853 1_555
O33 Se5 1.703292 1_555
O33 U3 2.420853 1_555
O34 Se6 1.703292 1_554
O34 U0 2.420853 1_555
O35 Se7 1.703292 1_555
O35 U1 2.420853 1_555
O36 Se4 1.700568 1_555
O36 U0 2.390979 1_555
O37 Se5 1.700568 1_555
O37 U1 2.390979 1_655
O38 Se6 1.700568 1_555
O38 U2 2.390979 1_555
O39 Se7 1.700568 1_555
O39 U3 2.390979 1_455
O40 U0 2.402445 1_555
O41 U1 2.402445 1_555
O42 U2 2.402445 1_555
O43 U3 2.402445 1_555
O44 U0 2.390060 1_555
O45 U1 2.390060 1_655
O46 U2 2.390060 1_555
O47 U3 2.390060 1_455
