# generated using pymatgen
data_BaGe4(RhS3)2
_symmetry_space_group_name_H-M   'P 1'
_cell_length_a   5.98264600
_cell_length_b   6.04408700
_cell_length_c   29.52946400
_cell_angle_alpha   90.00000000
_cell_angle_beta   90.00000000
_cell_angle_gamma   90.00000000
_symmetry_Int_Tables_number   1
_chemical_formula_structural   BaGe4(RhS3)2
_chemical_formula_sum   'Ba4 Ge16 Rh8 S24'
_cell_volume   1067.77457839
_cell_formula_units_Z   4
loop_
 _symmetry_equiv_pos_site_id
 _symmetry_equiv_pos_as_xyz
  1  'x, y, z'
loop_
 _atom_site_type_symbol
 _atom_site_label
 _atom_site_symmetry_multiplicity
 _atom_site_fract_x
 _atom_site_fract_y
 _atom_site_fract_z
 _atom_site_occupancy
  Ba  Ba0  1  0.00000000  0.50000000  0.50000000  1
  Ba  Ba1  1  0.50000000  0.00000000  0.50000000  1
  Ba  Ba2  1  0.50000000  0.50000000  0.00000000  1
  Ba  Ba3  1  0.00000000  0.00000000  0.00000000  1
  Ge  Ge0  1  0.61247400  0.12048400  0.31576700  1
  Ge  Ge1  1  0.88752600  0.62048400  0.68423300  1
  Ge  Ge2  1  0.11247400  0.87951600  0.18423300  1
  Ge  Ge3  1  0.38752600  0.37951600  0.81576700  1
  Ge  Ge4  1  0.38752600  0.87951600  0.68423300  1
  Ge  Ge5  1  0.11247400  0.37951600  0.31576700  1
  Ge  Ge6  1  0.88752600  0.12048400  0.81576700  1
  Ge  Ge7  1  0.61247400  0.62048400  0.18423300  1
  Ge  Ge8  1  0.08300200  0.41837100  0.12335600  1
  Ge  Ge9  1  0.41699800  0.91837100  0.87664400  1
  Ge  Ge10  1  0.58300200  0.58162900  0.37664400  1
  Ge  Ge11  1  0.91699800  0.08162900  0.62335600  1
  Ge  Ge12  1  0.91699800  0.58162900  0.87664400  1
  Ge  Ge13  1  0.58300200  0.08162900  0.12335600  1
  Ge  Ge14  1  0.41699800  0.41837100  0.62335600  1
  Ge  Ge15  1  0.08300200  0.91837100  0.37664400  1
  Rh  Rh0  1  0.49030800  0.49707400  0.29898600  1
  Rh  Rh1  1  0.00969200  0.99707400  0.70101400  1
  Rh  Rh2  1  0.99030800  0.50292600  0.20101400  1
  Rh  Rh3  1  0.50969200  0.00292600  0.79898600  1
  Rh  Rh4  1  0.50969200  0.50292600  0.70101400  1
  Rh  Rh5  1  0.99030800  0.00292600  0.29898600  1
  Rh  Rh6  1  0.00969200  0.49707400  0.79898600  1
  Rh  Rh7  1  0.49030800  0.99707400  0.20101400  1
  S  S0  1  0.37560400  0.38028100  0.22336100  1
  S  S1  1  0.12439600  0.88028100  0.77663900  1
  S  S2  1  0.87560400  0.61971900  0.27663900  1
  S  S3  1  0.62439600  0.11971900  0.72336100  1
  S  S4  1  0.62439600  0.61971900  0.77663900  1
  S  S5  1  0.87560400  0.11971900  0.22336100  1
  S  S6  1  0.12439600  0.38028100  0.72336100  1
  S  S7  1  0.37560400  0.88028100  0.27663900  1
  S  S8  1  0.49017400  0.46298800  0.11333800  1
  S  S9  1  0.00982600  0.96298800  0.88666200  1
  S  S10  1  0.99017400  0.53701200  0.38666200  1
  S  S11  1  0.50982600  0.03701200  0.61333800  1
  S  S12  1  0.50982600  0.53701200  0.88666200  1
  S  S13  1  0.99017400  0.03701200  0.11333800  1
  S  S14  1  0.00982600  0.46298800  0.61333800  1
  S  S15  1  0.49017400  0.96298800  0.38666200  1
  S  S16  1  0.50491000  0.49587200  0.44880400  1
  S  S17  1  0.99509000  0.99587200  0.55119600  1
  S  S18  1  0.00491000  0.50412800  0.05119600  1
  S  S19  1  0.49509000  0.00412800  0.94880400  1
  S  S20  1  0.49509000  0.50412800  0.55119600  1
  S  S21  1  0.00491000  0.00412800  0.44880400  1
  S  S22  1  0.99509000  0.49587200  0.94880400  1
  S  S23  1  0.50491000  0.99587200  0.05119600  1
loop_
_geom_bond_atom_site_label_1
_geom_bond_atom_site_label_2
_geom_bond_distance
_geom_bond_site_symmetry_2
Ba0 S16 3.325548 1_455
Ba0 S20 3.325548 1_555
Ba0 S14 3.354793 1_555
Ba0 S10 3.354793 1_455
Ba0 S17 3.356925 1_455
Ba0 S21 3.356925 1_555
Ba0 S20 3.377980 1_455
Ba0 S16 3.377980 1_555
Ba0 S21 3.401550 1_565
Ba0 S17 3.401550 1_445
Ba1 S17 3.325548 1_545
Ba1 S21 3.325548 1_555
Ba1 S11 3.354793 1_555
Ba1 S15 3.354793 1_545
Ba1 S16 3.356925 1_555
Ba1 S20 3.356925 1_545
Ba1 S17 3.377980 1_445
Ba1 S21 3.377980 1_655
Ba1 S20 3.401550 1_555
Ba1 S16 3.401550 1_545
Ba2 S18 3.325548 1_555
Ba2 S22 3.325548 1_554
Ba2 S8 3.354793 1_555
Ba2 S12 3.354793 1_554
Ba2 S23 3.356925 1_555
Ba2 S19 3.356925 1_554
Ba2 S18 3.377980 1_655
Ba2 S22 3.377980 1_454
Ba2 S19 3.401550 1_564
Ba2 S23 3.401550 1_545
Ba3 S23 3.325548 1_445
Ba3 S19 3.325548 1_554
Ba3 S13 3.354793 1_455
Ba3 S9 3.354793 1_544
Ba3 S18 3.356925 1_545
Ba3 S22 3.356925 1_454
Ba3 S19 3.377980 1_454
Ba3 S23 3.377980 1_545
Ba3 S18 3.401550 1_555
Ba3 S22 3.401550 1_444
Ge0 S7 2.334729 1_545
Ge0 S15 2.413340 1_545
Ge0 Rh5 2.420750 1_555
Ge0 Rh0 2.441426 1_555
Ge1 S6 2.334729 1_655
Ge1 S14 2.413340 1_655
Ge1 Rh4 2.420750 1_555
Ge1 Rh1 2.441426 1_655
Ge2 S5 2.334729 1_465
Ge2 S13 2.413340 1_465
Ge2 Rh7 2.420750 1_555
Ge2 Rh2 2.441426 1_455
Ge3 S4 2.334729 1_555
Ge3 S12 2.413340 1_555
Ge3 Rh6 2.420750 1_555
Ge3 Rh3 2.441426 1_555
Ge4 S3 2.334729 1_565
Ge4 S11 2.413340 1_565
Ge4 Rh1 2.420750 1_555
Ge4 Rh4 2.441426 1_555
Ge5 S2 2.334729 1_455
Ge5 S10 2.413340 1_455
Ge5 Rh0 2.420750 1_555
Ge5 Rh5 2.441426 1_455
Ge6 S1 2.334729 1_645
Ge6 S9 2.413340 1_645
Ge6 Rh3 2.420750 1_555
Ge6 Rh6 2.441426 1_655
Ge7 S0 2.334729 1_555
Ge7 S8 2.413340 1_555
Ge7 Rh2 2.420750 1_555
Ge7 Rh7 2.441426 1_555
Ge8 S18 2.242195 1_555
Ge8 S13 2.389311 1_455
Ge8 Rh2 2.414016 1_455
Ge8 S8 2.468636 1_555
Ge9 S19 2.242195 1_565
Ge9 S12 2.389311 1_555
Ge9 Rh3 2.414016 1_565
Ge9 S9 2.468636 1_555
Ge10 S16 2.242195 1_555
Ge10 S15 2.389311 1_555
Ge10 Rh0 2.414016 1_555
Ge10 S10 2.468636 1_555
Ge11 S17 2.242195 1_545
Ge11 S14 2.389311 1_655
Ge11 Rh1 2.414016 1_645
Ge11 S11 2.468636 1_555
Ge12 S22 2.242195 1_555
Ge12 S9 2.389311 1_655
Ge12 Rh6 2.414016 1_655
Ge12 S12 2.468636 1_555
Ge13 S23 2.242195 1_545
Ge13 S8 2.389311 1_555
Ge13 Rh7 2.414016 1_545
Ge13 S13 2.468636 1_555
Ge14 S20 2.242195 1_555
Ge14 S11 2.389311 1_555
Ge14 Rh4 2.414016 1_555
Ge14 S14 2.468636 1_555
Ge15 S21 2.242195 1_565
Ge15 S10 2.389311 1_455
Ge15 Rh5 2.414016 1_465
Ge15 S15 2.468636 1_555
Rh0 S0 2.440543 1_555
Rh0 S7 2.504170 1_555
Rh0 S2 2.509660 1_555
Rh1 S1 2.440543 1_555
Rh1 S6 2.504170 1_565
Rh1 S3 2.509660 1_465
Rh2 S2 2.440543 1_555
Rh2 S5 2.504170 1_555
Rh2 S0 2.509660 1_655
Rh3 S3 2.440543 1_555
Rh3 S4 2.504170 1_545
Rh3 S1 2.509660 1_545
Rh4 S4 2.440543 1_555
Rh4 S3 2.504170 1_555
Rh4 S6 2.509660 1_555
Rh5 S5 2.440543 1_555
Rh5 S2 2.504170 1_545
Rh5 S7 2.509660 1_645
Rh6 S6 2.440543 1_555
Rh6 S1 2.504170 1_555
Rh6 S4 2.509660 1_455
Rh7 S7 2.440543 1_555
Rh7 S0 2.504170 1_565
Rh7 S5 2.509660 1_565
