# generated using pymatgen
data_Nd2V2H2Se4O17
_symmetry_space_group_name_H-M   'P 1'
_cell_length_a   7.05956200
_cell_length_b   8.35516858
_cell_length_c   13.30928745
_cell_angle_alpha   91.14469210
_cell_angle_beta   105.37954246
_cell_angle_gamma   90.00000000
_symmetry_Int_Tables_number   1
_chemical_formula_structural   Nd2V2H2Se4O17
_chemical_formula_sum   'Nd4 V4 H4 Se8 O34'
_cell_volume   756.75837332
_cell_formula_units_Z   2
loop_
 _symmetry_equiv_pos_site_id
 _symmetry_equiv_pos_as_xyz
  1  'x, y, z'
loop_
 _atom_site_type_symbol
 _atom_site_label
 _atom_site_symmetry_multiplicity
 _atom_site_fract_x
 _atom_site_fract_y
 _atom_site_fract_z
 _atom_site_occupancy
  Nd  Nd0  1  0.20538000  0.20352200  0.56189700  1
  Nd  Nd1  1  0.64348300  0.29647800  0.43810300  1
  Nd  Nd2  1  0.79462000  0.79647800  0.43810300  1
  Nd  Nd3  1  0.35651700  0.70352200  0.56189700  1
  V  V0  1  0.72581600  0.80093100  0.89873400  1
  V  V1  1  0.82708200  0.69906900  0.10126600  1
  V  V2  1  0.27418400  0.19906900  0.10126600  1
  V  V3  1  0.17291800  0.30093100  0.89873400  1
  H  H0  1  0.34135200  0.84102000  0.01510300  1
  H  H1  1  0.32624900  0.65898000  0.98489700  1
  H  H2  1  0.65864800  0.15898000  0.98489700  1
  H  H3  1  0.67375100  0.34102000  0.01510300  1
  Se  Se0  1  0.10708800  0.44666100  0.35377300  1
  Se  Se1  1  0.75331600  0.05333900  0.64622700  1
  Se  Se2  1  0.89291200  0.55333900  0.64622700  1
  Se  Se3  1  0.24668400  0.94666100  0.35377300  1
  Se  Se4  1  0.31088300  0.97510400  0.79234000  1
  Se  Se5  1  0.51854200  0.52489600  0.20766000  1
  Se  Se6  1  0.68911700  0.02489600  0.20766000  1
  Se  Se7  1  0.48145800  0.47510400  0.79234000  1
  O  O0  1  0.32374200  0.43034600  0.45635000  1
  O  O1  1  0.86739100  0.06965400  0.54365000  1
  O  O2  1  0.67625800  0.56965400  0.54365000  1
  O  O3  1  0.13260900  0.93034600  0.45635000  1
  O  O4  1  0.96792700  0.31110600  0.40105600  1
  O  O5  1  0.56687100  0.18889400  0.59894400  1
  O  O6  1  0.03207300  0.68889400  0.59894400  1
  O  O7  1  0.43312900  0.81110600  0.40105600  1
  O  O8  1  0.04813000  0.63183100  0.39348500  1
  O  O9  1  0.65464500  0.86816900  0.60651500  1
  O  O10  1  0.95187000  0.36816900  0.60651500  1
  O  O11  1  0.34535500  0.13183100  0.39348500  1
  O  O12  1  0.56612700  0.98626300  0.84441700  1
  O  O13  1  0.72171000  0.51373700  0.15558300  1
  O  O14  1  0.43387300  0.01373700  0.15558300  1
  O  O15  1  0.27829000  0.48626300  0.84441700  1
  O  O16  1  0.25705400  0.18107900  0.78301100  1
  O  O17  1  0.47404300  0.31892100  0.21698900  1
  O  O18  1  0.74294600  0.81892100  0.21698900  1
  O  O19  1  0.52595700  0.68107900  0.78301100  1
  O  O20  1  0.29531100  0.95248400  0.66232300  1
  O  O21  1  0.63298800  0.54751600  0.33767700  1
  O  O22  1  0.70468900  0.04751600  0.33767700  1
  O  O23  1  0.36701200  0.45248400  0.66232300  1
  O  O24  1  0.91243800  0.82313900  0.85020700  1
  O  O25  1  0.06223200  0.67686100  0.14979300  1
  O  O26  1  0.08756200  0.17686100  0.14979300  1
  O  O27  1  0.93776800  0.32313900  0.85020700  1
  O  O28  1  0.79774100  0.89085500  0.03103300  1
  O  O29  1  0.76670800  0.60914500  0.96896700  1
  O  O30  1  0.20225900  0.10914500  0.96896700  1
  O  O31  1  0.23329200  0.39085500  0.03103300  1
  O  O32  1  0.41658000  0.75000000  0.00000000  1
  O  O33  1  0.58342000  0.25000000  0.00000000  1
loop_
_geom_bond_atom_site_label_1
_geom_bond_atom_site_label_2
_geom_bond_distance
_geom_bond_site_symmetry_2
Nd0 O10 2.445211 1_455
Nd0 O5 2.470946 1_555
Nd0 O20 2.500166 1_545
Nd0 O4 2.524680 1_455
Nd0 O23 2.548596 1_555
Nd0 O1 2.585544 1_455
Nd0 O3 2.633602 1_545
Nd0 O0 2.644261 1_555
Nd0 O11 2.735054 1_555
Nd0 O16 2.877731 1_555
Nd1 O11 2.445211 1_555
Nd1 O4 2.470946 1_555
Nd1 O21 2.500166 1_555
Nd1 O5 2.524680 1_555
Nd1 O22 2.548596 1_555
Nd1 O0 2.585538 1_555
Nd1 O2 2.633602 1_555
Nd1 O1 2.644258 1_555
Nd1 O10 2.735054 1_555
Nd1 O17 2.877731 1_555
Nd2 O8 2.445211 1_655
Nd2 O7 2.470946 1_555
Nd2 O22 2.500166 1_565
Nd2 O6 2.524680 1_655
Nd2 O21 2.548596 1_555
Nd2 O3 2.585544 1_655
Nd2 O1 2.633602 1_565
Nd2 O2 2.644261 1_555
Nd2 O9 2.735054 1_555
Nd2 O18 2.877731 1_555
Nd3 O9 2.445211 1_555
Nd3 O6 2.470946 1_555
Nd3 O23 2.500166 1_555
Nd3 O7 2.524680 1_555
Nd3 O20 2.548596 1_555
Nd3 O2 2.585538 1_555
Nd3 O0 2.633602 1_555
Nd3 O3 2.644258 1_555
Nd3 O8 2.735054 1_555
Nd3 O19 2.877731 1_555
H0 O32 0.975349 1_555
H1 O32 0.975349 1_556
H2 O33 0.975349 1_556
H3 O33 0.975349 1_555
O0 Se0 1.766806 1_555
O1 Se1 1.766797 1_555
O2 Se2 1.766806 1_555
O3 Se3 1.766797 1_555
O4 Se0 1.732142 1_655
O5 Se1 1.732147 1_555
O6 Se2 1.732142 1_455
O7 Se3 1.732147 1_555
O8 Se0 1.711784 1_555
O9 Se1 1.711787 1_565
O10 Se2 1.711784 1_555
O11 Se3 1.711787 1_545
O12 Se4 1.752409 1_555
O12 V0 1.950316 1_555
O13 Se5 1.752415 1_555
O13 V1 1.950316 1_555
O14 Se6 1.752409 1_555
O14 V2 1.950316 1_555
O15 Se7 1.752415 1_555
O15 V3 1.950316 1_555
O16 Se4 1.762107 1_545
O16 V3 2.037490 1_555
O17 Se5 1.762106 1_555
O17 V2 2.037490 1_555
O18 Se6 1.762107 1_565
O18 V1 2.037490 1_555
O19 Se7 1.762106 1_555
O19 V0 2.037490 1_555
O20 Se4 1.711209 1_555
O21 Se5 1.711210 1_555
O22 Se6 1.711209 1_555
O23 Se7 1.711210 1_555
O24 V0 1.625859 1_555
O25 V1 1.625865 1_455
O26 V2 1.625859 1_555
O27 V3 1.625865 1_655
O28 V0 1.842732 1_554
O28 V1 1.855131 1_555
O29 V1 1.842732 1_556
O29 V0 1.855131 1_555
O30 V2 1.842732 1_556
O30 V3 1.855131 1_555
O31 V3 1.842732 1_554
O31 V2 1.855131 1_555
