# generated using pymatgen
data_Sc6Te2Os
_symmetry_space_group_name_H-M   'P 1'
_cell_length_a   7.71385336
_cell_length_b   7.71385361
_cell_length_c   3.90311596
_cell_angle_alpha   90.00000000
_cell_angle_beta   90.00000000
_cell_angle_gamma   119.99999449
_symmetry_Int_Tables_number   1
_chemical_formula_structural   Sc6Te2Os
_chemical_formula_sum   'Sc6 Te2 Os1'
_cell_volume   201.13371778
_cell_formula_units_Z   1
loop_
 _symmetry_equiv_pos_site_id
 _symmetry_equiv_pos_as_xyz
  1  'x, y, z'
loop_
 _atom_site_type_symbol
 _atom_site_label
 _atom_site_symmetry_multiplicity
 _atom_site_fract_x
 _atom_site_fract_y
 _atom_site_fract_z
 _atom_site_occupancy
  Sc  Sc0  1  0.23776420  0.00000000  0.00000000  1
  Sc  Sc1  1  0.76223580  0.76223580  -0.00000000  1
  Sc  Sc2  1  0.00000000  0.23776420  0.00000000  1
  Sc  Sc3  1  0.61722837  -0.00000000  0.50000000  1
  Sc  Sc4  1  0.38277163  0.38277163  0.50000000  1
  Sc  Sc5  1  -0.00000000  0.61722837  0.50000000  1
  Te  Te0  1  0.33333300  0.66666700  0.00000000  1
  Te  Te1  1  0.66666700  0.33333300  0.00000000  1
  Os  Os0  1  -0.00000000  0.00000000  0.50000000  1
loop_
_geom_bond_atom_site_label_1
_geom_bond_atom_site_label_2
_geom_bond_distance
_geom_bond_site_symmetry_2
Sc0 Te0 3.008408 1_545
Sc0 Te1 3.008413 1_555
Sc1 Te0 3.008416 1_555
Sc1 Te1 3.008416 1_555
Sc2 Te1 3.008408 1_455
Sc2 Te0 3.008413 1_555
Sc3 Te1 3.095952 1_555
Sc3 Te1 3.095952 1_556
Sc3 Te0 3.095954 1_545
Sc3 Te0 3.095954 1_546
Sc4 Te1 3.095958 1_555
Sc4 Te1 3.095958 1_556
Sc4 Te0 3.095958 1_556
Sc4 Te0 3.095958 1_555
Sc5 Te0 3.095952 1_555
Sc5 Te0 3.095952 1_556
Sc5 Te1 3.095954 1_455
Sc5 Te1 3.095954 1_456
Os0 Sc0 2.678138 1_555
Os0 Sc0 2.678138 1_556
Os0 Sc2 2.678138 1_556
Os0 Sc2 2.678138 1_555
Os0 Sc1 2.678138 1_445
Os0 Sc1 2.678138 1_446
Os0 Sc3 2.952644 1_455
Os0 Sc5 2.952644 1_545
Os0 Sc4 2.952645 1_555
