# generated using pymatgen
data_GdGa3Ru
_symmetry_space_group_name_H-M   'P 1'
_cell_length_a   6.42124033
_cell_length_b   6.42108281
_cell_length_c   6.41009931
_cell_angle_alpha   90.00000000
_cell_angle_beta   90.00000000
_cell_angle_gamma   90.00001820
_symmetry_Int_Tables_number   1
_chemical_formula_structural   GdGa3Ru
_chemical_formula_sum   'Gd3 Ga9 Ru3'
_cell_volume   264.29682961
_cell_formula_units_Z   3
loop_
 _symmetry_equiv_pos_site_id
 _symmetry_equiv_pos_as_xyz
  1  'x, y, z'
loop_
 _atom_site_type_symbol
 _atom_site_label
 _atom_site_symmetry_multiplicity
 _atom_site_fract_x
 _atom_site_fract_y
 _atom_site_fract_z
 _atom_site_occupancy
  Gd  Gd0  1  0.50000000  0.50000000  -0.00000000  1
  Gd  Gd1  1  0.50000000  -0.00000000  0.50000000  1
  Gd  Gd2  1  0.00000000  0.50000000  0.50000000  1
  Ga  Ga0  1  0.50000000  0.50000000  0.50000000  1
  Ga  Ga1  1  0.20732768  0.20732156  0.79261266  1
  Ga  Ga2  1  0.20732768  0.79267844  0.20738634  1
  Ga  Ga3  1  0.79267232  0.20732156  0.20738634  1
  Ga  Ga4  1  0.79267232  0.79267844  0.79261366  1
  Ga  Ga5  1  0.79267232  0.79267844  0.20738734  1
  Ga  Ga6  1  0.79267232  0.20732156  0.79261366  1
  Ga  Ga7  1  0.20732768  0.79267844  0.79261366  1
  Ga  Ga8  1  0.20732768  0.20732156  0.20738634  1
  Ru  Ru0  1  0.00000000  -0.00000000  0.50000000  1
  Ru  Ru1  1  0.00000000  0.50000000  -0.00000000  1
  Ru  Ru2  1  0.50000000  -0.00000000  -0.00000000  1
loop_
_geom_bond_atom_site_label_1
_geom_bond_atom_site_label_2
_geom_bond_distance
_geom_bond_site_symmetry_2
Gd0 Ru2 3.210541 1_555
Gd0 Ru2 3.210541 1_565
Gd0 Ru1 3.210620 1_655
Gd0 Ru1 3.210620 1_555
Gd1 Ru2 3.205050 1_555
Gd1 Ru2 3.205050 1_556
Gd1 Ru0 3.210620 1_555
Gd1 Ru0 3.210620 1_655
Gd2 Ru1 3.205050 1_556
Gd2 Ru1 3.205050 1_555
Gd2 Ru0 3.210541 1_565
Gd2 Ru0 3.210541 1_555
Ga0 Gd0 3.205050 1_555
Ga0 Gd0 3.205050 1_556
Ga0 Gd1 3.210541 1_565
Ga0 Gd1 3.210541 1_555
Ga0 Gd2 3.210620 1_655
Ga0 Gd2 3.210620 1_555
Ga1 Ru0 2.657573 1_555
Ga1 Ga8 2.658740 1_556
Ga1 Ru2 2.659182 1_556
Ga1 Ru1 2.659213 1_556
Ga1 Ga7 2.662458 1_545
Ga1 Ga6 2.662602 1_455
Ga1 Gd1 2.970215 1_555
Ga1 Gd2 2.970242 1_555
Ga1 Gd0 2.971681 1_556
Ga2 Ru0 2.657578 1_565
Ga2 Ga7 2.658734 1_554
Ga2 Ru2 2.659178 1_565
Ga2 Ru1 2.659209 1_555
Ga2 Ga8 2.662458 1_565
Ga2 Ga5 2.662602 1_455
Ga2 Gd1 2.970218 1_565
Ga2 Gd2 2.970246 1_555
Ga2 Gd0 2.971679 1_555
Ga3 Ru0 2.657578 1_655
Ga3 Ga6 2.658734 1_554
Ga3 Ru2 2.659178 1_555
Ga3 Ru1 2.659209 1_655
Ga3 Ga5 2.662458 1_545
Ga3 Ga8 2.662602 1_655
Ga3 Gd1 2.970218 1_555
Ga3 Gd2 2.970246 1_655
Ga3 Gd0 2.971679 1_555
Ga4 Ru0 2.657577 1_665
Ga4 Ga5 2.658740 1_556
Ga4 Ru2 2.659178 1_566
Ga4 Ru1 2.659210 1_656
Ga4 Ga6 2.662458 1_565
Ga4 Ga7 2.662602 1_655
Ga4 Gd1 2.970219 1_565
Ga4 Gd2 2.970247 1_655
Ga4 Gd0 2.971678 1_556
Ga5 Ru0 2.657573 1_665
Ga5 Ru2 2.659182 1_565
Ga5 Ru1 2.659213 1_655
Ga5 Gd1 2.970215 1_565
Ga5 Gd2 2.970242 1_655
Ga5 Gd0 2.971681 1_555
Ga6 Ru0 2.657578 1_655
Ga6 Ru2 2.659178 1_556
Ga6 Ru1 2.659209 1_656
Ga6 Gd1 2.970218 1_555
Ga6 Gd2 2.970246 1_655
Ga6 Gd0 2.971679 1_556
Ga7 Ru0 2.657578 1_565
Ga7 Ru2 2.659178 1_566
Ga7 Ru1 2.659209 1_556
Ga7 Gd1 2.970218 1_565
Ga7 Gd2 2.970246 1_555
Ga7 Gd0 2.971679 1_556
Ga8 Ru0 2.657577 1_555
Ga8 Ru2 2.659178 1_555
Ga8 Ru1 2.659210 1_555
Ga8 Gd1 2.970219 1_555
Ga8 Gd2 2.970247 1_555
Ga8 Gd0 2.971678 1_555
