# generated using pymatgen
data_Sr2CaSn5
_symmetry_space_group_name_H-M   'P 1'
_cell_length_a   6.82100223
_cell_length_b   6.82100223
_cell_length_c   10.75811912
_cell_angle_alpha   90.00012682
_cell_angle_beta   90.00012682
_cell_angle_gamma   102.22283741
_symmetry_Int_Tables_number   1
_chemical_formula_structural   Sr2CaSn5
_chemical_formula_sum   'Sr4 Ca2 Sn10'
_cell_volume   489.18672849
_cell_formula_units_Z   2
loop_
 _symmetry_equiv_pos_site_id
 _symmetry_equiv_pos_as_xyz
  1  'x, y, z'
loop_
 _atom_site_type_symbol
 _atom_site_label
 _atom_site_symmetry_multiplicity
 _atom_site_fract_x
 _atom_site_fract_y
 _atom_site_fract_z
 _atom_site_occupancy
  Sr  Sr0  1  0.29725921  0.70274079  0.99999800  1
  Sr  Sr1  1  0.29725753  0.70274247  0.50000200  1
  Sr  Sr2  1  0.70274079  0.29725921  0.99999800  1
  Sr  Sr3  1  0.70274247  0.29725753  0.50000200  1
  Ca  Ca0  1  0.84998184  0.84998184  0.25000300  1
  Ca  Ca1  1  0.15001816  0.15001816  0.74999700  1
  Sn  Sn0  1  0.18344718  0.18344718  0.04992572  1
  Sn  Sn1  1  0.81655282  0.81655282  0.95007228  1
  Sn  Sn2  1  0.18345505  0.18345505  0.45008310  1
  Sn  Sn3  1  0.81654495  0.81654495  0.54991890  1
  Sn  Sn4  1  0.41117907  0.01296712  0.25000551  1
  Sn  Sn5  1  0.98703188  0.58882093  0.74999449  1
  Sn  Sn6  1  0.58882093  0.98703188  0.74999449  1
  Sn  Sn7  1  0.01296712  0.41117907  0.25000551  1
  Sn  Sn8  1  0.45986611  0.45986611  0.25000418  1
  Sn  Sn9  1  0.54013389  0.54013389  0.74999582  1
loop_
_geom_bond_atom_site_label_1
_geom_bond_atom_site_label_2
_geom_bond_distance
_geom_bond_site_symmetry_2
Ca0 Sn3 3.239216 1_555
Ca0 Sn1 3.239366 1_554
Ca0 Sn8 3.341169 1_555
Ca0 Sn7 3.406372 1_655
Ca0 Sn4 3.406372 1_565
Ca0 Sn0 3.576276 1_665
Ca0 Sn2 3.576336 1_665
Ca0 Sn7 3.753267 1_665
Ca0 Sn4 3.753267 1_665
Ca1 Sn2 3.239194 1_555
Ca1 Sn0 3.239345 1_556
Ca1 Sn9 3.341169 1_555
Ca1 Sn5 3.406376 1_455
Ca1 Sn6 3.406376 1_545
Ca1 Sn1 3.576263 1_445
Ca1 Sn3 3.576323 1_445
Ca1 Sn5 3.753268 1_445
Ca1 Sn6 3.753268 1_445
Sn0 Sn7 3.027071 1_555
Sn0 Sn4 3.027071 1_555
Sn0 Sn8 3.199640 1_555
Sn0 Sn1 3.320833 1_444
Sn0 Sr2 3.503332 1_554
Sn0 Sr0 3.503332 1_554
Sn0 Sr0 3.566533 1_544
Sn0 Sr2 3.566533 1_454
Sn1 Sn5 3.027052 1_555
Sn1 Sn6 3.027052 1_555
Sn1 Sn9 3.199625 1_555
Sn1 Sr0 3.503329 1_555
Sn1 Sr2 3.503329 1_555
Sn1 Sr2 3.566530 1_565
Sn1 Sr0 3.566530 1_655
Sn2 Sn7 3.027050 1_555
Sn2 Sn4 3.027050 1_555
Sn2 Sn8 3.199604 1_555
Sn2 Sn3 3.320907 1_445
Sn2 Sr1 3.503273 1_555
Sn2 Sr3 3.503273 1_555
Sn2 Sr3 3.566534 1_455
Sn2 Sr1 3.566534 1_545
Sn3 Sn5 3.027031 1_555
Sn3 Sn6 3.027031 1_555
Sn3 Sn9 3.199590 1_555
Sn3 Sr3 3.503270 1_555
Sn3 Sr1 3.503270 1_555
Sn3 Sr1 3.566531 1_655
Sn3 Sr3 3.566531 1_565
Sn4 Sn8 2.995625 1_555
Sn4 Sr1 3.408610 1_545
Sn4 Sr0 3.408699 1_544
Sn4 Sr3 3.649083 1_555
Sn4 Sr2 3.649183 1_554
Sn5 Sn9 2.995618 1_555
Sn5 Sr1 3.408580 1_655
Sn5 Sr0 3.408669 1_655
Sn5 Sr3 3.649048 1_555
Sn5 Sr2 3.649148 1_555
Sn6 Sn9 2.995618 1_555
Sn6 Sr3 3.408580 1_565
Sn6 Sr2 3.408669 1_565
Sn6 Sr1 3.649048 1_555
Sn6 Sr0 3.649148 1_555
Sn7 Sn8 2.995625 1_555
Sn7 Sr3 3.408610 1_455
Sn7 Sr2 3.408699 1_454
Sn7 Sr1 3.649083 1_555
Sn7 Sr0 3.649183 1_554
Sn8 Sr1 3.462113 1_555
Sn8 Sr3 3.462113 1_555
Sn8 Sr2 3.462174 1_554
Sn8 Sr0 3.462174 1_554
Sn9 Sr1 3.462080 1_555
Sn9 Sr3 3.462080 1_555
Sn9 Sr2 3.462141 1_555
Sn9 Sr0 3.462141 1_555
