# generated using pymatgen
data_Pr3HfSb5
_symmetry_space_group_name_H-M   'P 1'
_cell_length_a   9.66435504
_cell_length_b   9.66435504
_cell_length_c   6.26196217
_cell_angle_alpha   90.00000000
_cell_angle_beta   90.00000000
_cell_angle_gamma   120.00000204
_symmetry_Int_Tables_number   1
_chemical_formula_structural   Pr3HfSb5
_chemical_formula_sum   'Pr6 Hf2 Sb10'
_cell_volume   506.50858962
_cell_formula_units_Z   2
loop_
 _symmetry_equiv_pos_site_id
 _symmetry_equiv_pos_as_xyz
  1  'x, y, z'
loop_
 _atom_site_type_symbol
 _atom_site_label
 _atom_site_symmetry_multiplicity
 _atom_site_fract_x
 _atom_site_fract_y
 _atom_site_fract_z
 _atom_site_occupancy
  Pr  Pr0  1  0.61972073  -0.00000000  0.25000000  1
  Pr  Pr1  1  0.38027927  0.00000000  0.75000000  1
  Pr  Pr2  1  -0.00000000  0.61972073  0.25000000  1
  Pr  Pr3  1  0.00000000  0.38027927  0.75000000  1
  Pr  Pr4  1  0.38027927  0.38027927  0.25000000  1
  Pr  Pr5  1  0.61972073  0.61972073  0.75000000  1
  Hf  Hf0  1  -0.00000000  0.00000000  -0.00000000  1
  Hf  Hf1  1  -0.00000000  0.00000000  0.50000000  1
  Sb  Sb0  1  0.25837452  0.00000000  0.25000000  1
  Sb  Sb1  1  0.74162548  -0.00000000  0.75000000  1
  Sb  Sb2  1  0.00000000  0.25837452  0.25000000  1
  Sb  Sb3  1  -0.00000000  0.74162548  0.75000000  1
  Sb  Sb4  1  0.74162548  0.74162548  0.25000000  1
  Sb  Sb5  1  0.25837452  0.25837452  0.75000000  1
  Sb  Sb6  1  0.33333300  0.66666700  -0.00000000  1
  Sb  Sb7  1  0.66666700  0.33333300  -0.00000000  1
  Sb  Sb8  1  0.66666700  0.33333300  0.50000000  1
  Sb  Sb9  1  0.33333300  0.66666700  0.50000000  1
loop_
_geom_bond_atom_site_label_1
_geom_bond_atom_site_label_2
_geom_bond_distance
_geom_bond_site_symmetry_2
Pr0 Sb2 3.250375 1_655
Pr0 Sb4 3.250375 1_545
Pr0 Sb1 3.345300 1_555
Pr0 Sb1 3.345300 1_554
Pr0 Sb8 3.401875 1_555
Pr0 Sb7 3.401875 1_555
Pr0 Sb6 3.401878 1_545
Pr0 Sb9 3.401878 1_545
Pr0 Sb0 3.492178 1_555
Pr1 Sb3 3.250375 1_545
Pr1 Sb5 3.250375 1_555
Pr1 Sb0 3.345300 1_555
Pr1 Sb0 3.345300 1_556
Pr1 Sb9 3.401875 1_545
Pr1 Sb6 3.401875 1_546
Pr1 Sb8 3.401878 1_555
Pr1 Sb7 3.401878 1_556
Pr1 Sb1 3.492178 1_555
Pr2 Sb0 3.250375 1_565
Pr2 Sb4 3.250375 1_455
Pr2 Sb3 3.345300 1_554
Pr2 Sb3 3.345300 1_555
Pr2 Sb9 3.401875 1_555
Pr2 Sb6 3.401875 1_555
Pr2 Sb7 3.401878 1_455
Pr2 Sb8 3.401878 1_455
Pr2 Sb2 3.492178 1_555
Pr3 Sb1 3.250375 1_455
Pr3 Sb5 3.250375 1_555
Pr3 Sb2 3.345300 1_555
Pr3 Sb2 3.345300 1_556
Pr3 Sb8 3.401875 1_455
Pr3 Sb7 3.401875 1_456
Pr3 Sb6 3.401878 1_556
Pr3 Sb9 3.401878 1_555
Pr3 Sb3 3.492178 1_555
Pr4 Sb2 3.250375 1_555
Pr4 Sb0 3.250375 1_555
Pr4 Sb5 3.345300 1_555
Pr4 Sb5 3.345300 1_554
Pr4 Sb9 3.401883 1_555
Pr4 Sb6 3.401883 1_555
Pr4 Sb7 3.401883 1_555
Pr4 Sb8 3.401883 1_555
Pr4 Sb4 3.492178 1_555
Pr5 Sb1 3.250375 1_565
Pr5 Sb3 3.250375 1_655
Pr5 Sb4 3.345300 1_555
Pr5 Sb4 3.345300 1_556
Pr5 Sb7 3.401883 1_556
Pr5 Sb8 3.401883 1_555
Pr5 Sb9 3.401883 1_555
Pr5 Sb6 3.401883 1_556
Pr5 Sb5 3.492178 1_555
Hf0 Sb5 2.947182 1_554
Hf0 Sb4 2.947182 1_445
Hf0 Sb2 2.947183 1_555
Hf0 Sb0 2.947183 1_555
Hf0 Sb1 2.947183 1_454
Hf0 Sb3 2.947183 1_544
Hf1 Sb4 2.947182 1_445
Hf1 Sb5 2.947182 1_555
Hf1 Sb2 2.947183 1_555
Hf1 Sb0 2.947183 1_555
Hf1 Sb1 2.947183 1_455
Hf1 Sb3 2.947183 1_545
Sb6 Sb9 3.130981 1_555
Sb6 Sb9 3.130981 1_554
Sb7 Sb8 3.130981 1_555
Sb7 Sb8 3.130981 1_554
