# generated using pymatgen
data_Cd2Re2O7
_symmetry_space_group_name_H-M   'P 1'
_cell_length_a   7.34230549
_cell_length_b   7.34230549
_cell_length_c   7.34230549
_cell_angle_alpha   60.00000000
_cell_angle_beta   60.00000000
_cell_angle_gamma   60.00000000
_symmetry_Int_Tables_number   1
_chemical_formula_structural   Cd2Re2O7
_chemical_formula_sum   'Cd4 Re4 O14'
_cell_volume   279.88675841
_cell_formula_units_Z   2
loop_
 _symmetry_equiv_pos_site_id
 _symmetry_equiv_pos_as_xyz
  1  'x, y, z'
loop_
 _atom_site_type_symbol
 _atom_site_label
 _atom_site_symmetry_multiplicity
 _atom_site_fract_x
 _atom_site_fract_y
 _atom_site_fract_z
 _atom_site_occupancy
  Cd  Cd0  1  0.12500000  0.62500000  0.12500000  1
  Cd  Cd1  1  0.12500000  0.12500000  0.62500000  1
  Cd  Cd2  1  0.62500000  0.12500000  0.12500000  1
  Cd  Cd3  1  0.12500000  0.12500000  0.12500000  1
  Re  Re0  1  0.62500000  0.12500000  0.62500000  1
  Re  Re1  1  0.62500000  0.62500000  0.12500000  1
  Re  Re2  1  0.12500000  0.62500000  0.62500000  1
  Re  Re3  1  0.62500000  0.62500000  0.62500000  1
  O  O0  1  0.00000000  0.00000000  0.00000000  1
  O  O1  1  0.25000000  0.25000000  0.25000000  1
  O  O2  1  0.31068700  0.31068700  0.68931300  1
  O  O3  1  0.56068700  0.56068700  0.93931300  1
  O  O4  1  0.68931300  0.31068700  0.68931300  1
  O  O5  1  0.68931300  0.31068700  0.31068700  1
  O  O6  1  0.31068700  0.68931300  0.68931300  1
  O  O7  1  0.31068700  0.68931300  0.31068700  1
  O  O8  1  0.68931300  0.68931300  0.31068700  1
  O  O9  1  0.93931300  0.56068700  0.56068700  1
  O  O10  1  0.56068700  0.93931300  0.93931300  1
  O  O11  1  0.93931300  0.93931300  0.56068700  1
  O  O12  1  0.93931300  0.56068700  0.93931300  1
  O  O13  1  0.56068700  0.93931300  0.56068700  1
loop_
_geom_bond_atom_site_label_1
_geom_bond_atom_site_label_2
_geom_bond_distance
_geom_bond_site_symmetry_2
Cd0 O1 2.248113 1_555
Cd0 O0 2.248113 1_565
Cd0 O9 2.662123 1_455
Cd0 O3 2.662123 1_554
Cd0 O7 2.662123 1_555
Cd0 O6 2.662123 1_554
Cd0 O8 2.662123 1_455
Cd0 O12 2.662123 1_454
Cd1 O0 2.248113 1_556
Cd1 O1 2.248113 1_555
Cd1 O9 2.662123 1_455
Cd1 O13 2.662123 1_545
Cd1 O2 2.662123 1_555
Cd1 O4 2.662123 1_455
Cd1 O6 2.662123 1_545
Cd1 O11 2.662123 1_445
Cd2 O0 2.248113 1_655
Cd2 O1 2.248113 1_555
Cd2 O3 2.662123 1_554
Cd2 O13 2.662123 1_545
Cd2 O5 2.662123 1_555
Cd2 O8 2.662123 1_545
Cd2 O4 2.662123 1_554
Cd2 O10 2.662123 1_544
Cd3 O0 2.248113 1_555
Cd3 O1 2.248113 1_555
Cd3 O12 2.662123 1_454
Cd3 O10 2.662123 1_544
Cd3 O11 2.662123 1_445
Cd3 O7 2.662123 1_545
Cd3 O5 2.662123 1_455
Cd3 O2 2.662123 1_554
O2 Re2 1.953279 1_555
O2 Re0 1.953279 1_555
O3 Re3 1.953279 1_555
O3 Re1 1.953279 1_556
O4 Re0 1.953279 1_555
O4 Re3 1.953279 1_555
O5 Re0 1.953279 1_555
O5 Re1 1.953279 1_555
O6 Re2 1.953279 1_555
O6 Re3 1.953279 1_555
O7 Re2 1.953279 1_555
O7 Re1 1.953279 1_555
O8 Re1 1.953279 1_555
O8 Re3 1.953279 1_555
O9 Re3 1.953279 1_555
O9 Re2 1.953279 1_655
O10 Re1 1.953279 1_556
O10 Re0 1.953279 1_565
O11 Re0 1.953279 1_565
O11 Re2 1.953279 1_655
O12 Re1 1.953279 1_556
O12 Re2 1.953279 1_655
O13 Re3 1.953279 1_555
O13 Re0 1.953279 1_565
