# generated using pymatgen
data_Yb4Pt3Au
_symmetry_space_group_name_H-M   'P 1'
_cell_length_a   4.44619200
_cell_length_b   5.65302400
_cell_length_c   7.21158534
_cell_angle_alpha   89.93029882
_cell_angle_beta   90.00000000
_cell_angle_gamma   90.00000000
_symmetry_Int_Tables_number   1
_chemical_formula_structural   Yb4Pt3Au
_chemical_formula_sum   'Yb4 Pt3 Au1'
_cell_volume   181.25895331
_cell_formula_units_Z   1
loop_
 _symmetry_equiv_pos_site_id
 _symmetry_equiv_pos_as_xyz
  1  'x, y, z'
loop_
 _atom_site_type_symbol
 _atom_site_label
 _atom_site_symmetry_multiplicity
 _atom_site_fract_x
 _atom_site_fract_y
 _atom_site_fract_z
 _atom_site_occupancy
  Yb  Yb0  1  0.50000000  0.64630800  0.69122800  1
  Yb  Yb1  1  0.50000000  0.85313200  0.17950200  1
  Yb  Yb2  1  0.00000000  0.36105500  0.30524600  1
  Yb  Yb3  1  0.00000000  0.14160700  0.82571000  1
  Pt  Pt0  1  0.50000000  0.34587300  0.03809000  1
  Pt  Pt1  1  0.00000000  0.84595500  0.46328000  1
  Pt  Pt2  1  0.00000000  0.65161400  0.95961600  1
  Au  Au0  1  0.50000000  0.15445600  0.53732800  1
loop_
_geom_bond_atom_site_label_1
_geom_bond_atom_site_label_2
_geom_bond_distance
_geom_bond_site_symmetry_2
Pt0 Yb3 2.936942 1_554
Pt0 Yb3 2.936942 1_654
Pt0 Yb2 2.943091 1_555
Pt0 Yb2 2.943091 1_655
Pt0 Yb1 2.965126 1_545
Pt0 Yb0 3.021794 1_554
Pt0 Yb1 3.044658 1_555
Pt1 Yb2 2.969911 1_555
Pt1 Yb0 2.985582 1_455
Pt1 Yb0 2.985582 1_555
Pt1 Yb1 3.021873 1_455
Pt1 Yb1 3.021873 1_555
Pt1 Yb3 3.104089 1_565
Pt1 Yb2 3.125666 1_565
Pt2 Yb3 2.932337 1_565
Pt2 Yb0 2.947773 1_555
Pt2 Yb0 2.947773 1_455
Pt2 Yb1 2.959531 1_456
Pt2 Yb1 2.959531 1_556
Pt2 Yb2 2.983408 1_556
Pt2 Yb3 3.041622 1_555
Au0 Pt1 2.875933 1_545
Au0 Pt1 2.875933 1_645
Au0 Yb0 2.995031 1_555
Au0 Yb2 3.017054 1_555
Au0 Yb2 3.017054 1_655
Au0 Yb3 3.045026 1_555
Au0 Yb3 3.045026 1_655
Au0 Yb0 3.078265 1_545
Au0 Yb1 3.093733 1_545
