# generated using pymatgen
data_Sr2YGaSn2O7
_symmetry_space_group_name_H-M   'P 1'
_cell_length_a   5.88928871
_cell_length_b   6.11291829
_cell_length_c   12.79540927
_cell_angle_alpha   105.10373588
_cell_angle_beta   103.39614010
_cell_angle_gamma   91.85489666
_symmetry_Int_Tables_number   1
_chemical_formula_structural   Sr2YGaSn2O7
_chemical_formula_sum   'Sr4 Y2 Ga2 Sn4 O14'
_cell_volume   430.51682710
_cell_formula_units_Z   2
loop_
 _symmetry_equiv_pos_site_id
 _symmetry_equiv_pos_as_xyz
  1  'x, y, z'
loop_
 _atom_site_type_symbol
 _atom_site_label
 _atom_site_symmetry_multiplicity
 _atom_site_fract_x
 _atom_site_fract_y
 _atom_site_fract_z
 _atom_site_occupancy
  Sr  Sr0  1  0.11265200  0.18022900  0.34621900  1
  Sr  Sr1  1  0.84131300  0.80047700  0.68205900  1
  Sr  Sr2  1  0.61394200  0.61172300  0.35106200  1
  Sr  Sr3  1  0.35320500  0.37285100  0.67716600  1
  Y  Y0  1  0.47394900  0.52366400  0.99765000  1
  Y  Y1  1  0.98010100  0.02323600  0.99638100  1
  Ga  Ga0  1  0.23670600  0.81293100  0.52331400  1
  Ga  Ga1  1  0.74858000  0.20434900  0.51790800  1
  Sn  Sn0  1  0.42288300  0.93936400  0.84745400  1
  Sn  Sn1  1  0.06146000  0.60942700  0.17469200  1
  Sn  Sn2  1  0.91898900  0.43030900  0.85696800  1
  Sn  Sn3  1  0.55038800  0.07813100  0.11623400  1
  O  O0  1  0.77479700  0.35915700  0.07432500  1
  O  O1  1  0.91801200  0.87390100  0.50570000  1
  O  O2  1  0.25762000  0.30319100  0.10588300  1
  O  O3  1  0.80769500  0.37736900  0.68408300  1
  O  O4  1  0.74408600  0.07642600  0.83858800  1
  O  O5  1  0.27960800  0.24253500  0.83983200  1
  O  O6  1  0.40835100  0.06364800  0.50457700  1
  O  O7  1  0.11672000  0.78613300  0.86129500  1
  O  O8  1  0.59110800  0.63979300  0.86205300  1
  O  O9  1  0.32871400  0.78652700  0.67305300  1
  O  O10  1  0.31823000  0.54435800  0.44409600  1
  O  O11  1  0.68675600  0.22013200  0.27924500  1
  O  O12  1  0.84871600  0.84922800  0.10674500  1
  O  O13  1  0.33832900  0.77844500  0.12378200  1
loop_
_geom_bond_atom_site_label_1
_geom_bond_atom_site_label_2
_geom_bond_distance
_geom_bond_site_symmetry_2
Ga0 O10 1.833749 1_555
Ga0 O1 1.898799 1_455
Ga0 O6 1.905708 1_565
Ga0 O9 1.917387 1_555
Ga1 O3 2.054772 1_555
Ga1 O6 2.106491 1_555
Ga1 O1 2.266881 1_545
O0 Sn1 2.155050 1_655
O0 Y0 2.221947 1_554
O0 Sn3 2.376307 1_555
O0 Y1 2.515049 1_554
O1 Sr2 2.492033 1_555
O1 Sr1 2.546503 1_555
O2 Sn3 2.241841 1_555
O2 Y1 2.251960 1_454
O2 Sn1 2.316571 1_555
O2 Y0 2.652640 1_554
O3 Sn2 2.090268 1_555
O3 Sr1 2.594917 1_555
O3 Sr3 2.656516 1_555
O4 Sn0 2.083169 1_545
O4 Y1 2.277098 1_555
O4 Sn2 2.296601 1_555
O4 Sr1 2.453167 1_545
O5 Sn0 2.076861 1_545
O5 Y0 2.309603 1_555
O5 Sn2 2.473568 1_455
O5 Sr3 2.532651 1_555
O6 Sr3 2.598401 1_555
O6 Sr0 2.616118 1_555
O7 Sn0 2.070009 1_555
O7 Y1 2.269378 1_465
O7 Sn2 2.415299 1_455
O7 Sr1 2.507684 1_455
O8 Sn0 2.140066 1_555
O8 Y0 2.270501 1_555
O8 Sn2 2.355344 1_555
O8 Sr3 2.554746 1_555
O9 Sn0 2.113454 1_555
O9 Sr3 2.551017 1_555
O9 Sr1 2.902413 1_455
O9 Sr1 2.991820 1_555
O10 Sr0 2.378879 1_555
O10 Sr2 2.406084 1_555
O11 Sn3 1.996033 1_555
O11 Sr2 2.420977 1_555
O11 Sr0 2.497525 1_655
O12 Sn1 2.180090 1_655
O12 Y1 2.227141 1_564
O12 Sn3 2.286697 1_565
O12 Y0 2.760597 1_554
O12 Sr0 3.202770 1_665
O13 Sn1 2.210071 1_555
O13 Sn3 2.219249 1_565
O13 Y0 2.244150 1_554
