# generated using pymatgen
data_P3PbNO9
_symmetry_space_group_name_H-M   'P 1'
_cell_length_a   17.20956600
_cell_length_b   7.23553500
_cell_length_c   14.22313988
_cell_angle_alpha   74.14654374
_cell_angle_beta   90.00000000
_cell_angle_gamma   90.00000000
_symmetry_Int_Tables_number   1
_chemical_formula_structural   P3PbNO9
_chemical_formula_sum   'P24 Pb8 N8 O72'
_cell_volume   1703.70602904
_cell_formula_units_Z   8
loop_
 _symmetry_equiv_pos_site_id
 _symmetry_equiv_pos_as_xyz
  1  'x, y, z'
loop_
 _atom_site_type_symbol
 _atom_site_label
 _atom_site_symmetry_multiplicity
 _atom_site_fract_x
 _atom_site_fract_y
 _atom_site_fract_z
 _atom_site_occupancy
  P  P0  1  0.13730200  0.01335800  0.14112100  1
  P  P1  1  0.63730200  0.98664200  0.35887900  1
  P  P2  1  0.86269800  0.98664200  0.85887900  1
  P  P3  1  0.36269800  0.01335800  0.64112100  1
  P  P4  1  0.24920800  0.96216100  0.30408000  1
  P  P5  1  0.74920800  0.03783900  0.19592000  1
  P  P6  1  0.75079200  0.03783900  0.69592000  1
  P  P7  1  0.25079200  0.96216100  0.80408000  1
  P  P8  1  0.28022200  0.55648700  0.31428600  1
  P  P9  1  0.78022200  0.44351300  0.18571400  1
  P  P10  1  0.71977800  0.44351300  0.68571400  1
  P  P11  1  0.21977800  0.55648700  0.81428600  1
  P  P12  1  0.37692300  0.54231900  0.14167900  1
  P  P13  1  0.87692300  0.45768100  0.35832100  1
  P  P14  1  0.62307700  0.45768100  0.85832100  1
  P  P15  1  0.12307700  0.54231900  0.64167900  1
  P  P16  1  0.48919400  0.84316700  0.14860800  1
  P  P17  1  0.98919400  0.15683300  0.35139200  1
  P  P18  1  0.51080600  0.15683300  0.85139200  1
  P  P19  1  0.01080600  0.84316700  0.64860800  1
  P  P20  1  0.51397600  0.71989900  0.36606200  1
  P  P21  1  0.01397600  0.28010100  0.13393800  1
  P  P22  1  0.48602400  0.28010100  0.63393800  1
  P  P23  1  0.98602400  0.71989900  0.86606200  1
  Pb  Pb0  1  0.57386100  0.80203400  0.61293600  1
  Pb  Pb1  1  0.07386100  0.19796600  0.88706400  1
  Pb  Pb2  1  0.42613900  0.19796600  0.38706400  1
  Pb  Pb3  1  0.92613900  0.80203400  0.11293600  1
  Pb  Pb4  1  0.41586400  0.66364600  0.87118500  1
  Pb  Pb5  1  0.91586400  0.33635400  0.62881500  1
  Pb  Pb6  1  0.58413600  0.33635400  0.12881500  1
  Pb  Pb7  1  0.08413600  0.66364600  0.37118500  1
  N  N0  1  0.66532500  0.83831200  0.00824400  1
  N  N1  1  0.16532500  0.16168800  0.49175600  1
  N  N2  1  0.33467500  0.16168800  0.99175600  1
  N  N3  1  0.83467500  0.83831200  0.50824400  1
  N  N4  1  0.66146700  0.37830700  0.45143800  1
  N  N5  1  0.16146700  0.62169300  0.04856200  1
  N  N6  1  0.33853300  0.62169300  0.54856200  1
  N  N7  1  0.83853300  0.37830700  0.95143800  1
  O  O0  1  0.14995200  0.03026000  0.03431600  1
  O  O1  1  0.64995200  0.96974000  0.46568400  1
  O  O2  1  0.85004800  0.96974000  0.96568400  1
  O  O3  1  0.35004800  0.03026000  0.53431600  1
  O  O4  1  0.08579100  0.84994600  0.19746800  1
  O  O5  1  0.58579100  0.15005400  0.30253200  1
  O  O6  1  0.91420900  0.15005400  0.80253200  1
  O  O7  1  0.41420900  0.84994600  0.69746800  1
  O  O8  1  0.22126800  0.01098800  0.19011300  1
  O  O9  1  0.72126800  0.98901200  0.30988700  1
  O  O10  1  0.77873200  0.98901200  0.80988700  1
  O  O11  1  0.27873200  0.01098800  0.69011300  1
  O  O12  1  0.17886700  0.91356700  0.36965200  1
  O  O13  1  0.67886700  0.08643300  0.13034800  1
  O  O14  1  0.82113300  0.08643300  0.63034800  1
  O  O15  1  0.32113300  0.91356700  0.86965200  1
  O  O16  1  0.30373400  0.11603800  0.31424400  1
  O  O17  1  0.80373400  0.88396200  0.18575600  1
  O  O18  1  0.69626600  0.88396200  0.68575600  1
  O  O19  1  0.19626600  0.11603800  0.81424400  1
  O  O20  1  0.30196600  0.77517800  0.31090300  1
  O  O21  1  0.80196600  0.22482200  0.18909700  1
  O  O22  1  0.69803400  0.22482200  0.68909700  1
  O  O23  1  0.19803400  0.77517800  0.81090300  1
  O  O24  1  0.33630700  0.43854700  0.38763500  1
  O  O25  1  0.83630700  0.56145300  0.11236500  1
  O  O26  1  0.66369300  0.56145300  0.61236500  1
  O  O27  1  0.16369300  0.43854700  0.88763500  1
  O  O28  1  0.19473200  0.52108100  0.32583100  1
  O  O29  1  0.69473200  0.47891900  0.17416900  1
  O  O30  1  0.80526800  0.47891900  0.67416900  1
  O  O31  1  0.30526800  0.52108100  0.82583100  1
  O  O32  1  0.29945100  0.54794500  0.20383800  1
  O  O33  1  0.79945100  0.45205500  0.29616200  1
  O  O34  1  0.70054900  0.45205500  0.79616200  1
  O  O35  1  0.20054900  0.54794500  0.70383800  1
  O  O36  1  0.43507600  0.40362400  0.20399400  1
  O  O37  1  0.93507600  0.59637600  0.29600600  1
  O  O38  1  0.56492400  0.59637600  0.79600600  1
  O  O39  1  0.06492400  0.40362400  0.70399400  1
  O  O40  1  0.35527800  0.51749800  0.04370000  1
  O  O41  1  0.85527800  0.48250200  0.45630000  1
  O  O42  1  0.64472200  0.48250200  0.95630000  1
  O  O43  1  0.14472200  0.51749800  0.54370000  1
  O  O44  1  0.40765100  0.76338700  0.12110800  1
  O  O45  1  0.90765100  0.23661300  0.37889200  1
  O  O46  1  0.59234900  0.23661300  0.87889200  1
  O  O47  1  0.09234900  0.76338700  0.62110800  1
  O  O48  1  0.49586800  0.05343900  0.09771400  1
  O  O49  1  0.99586800  0.94656100  0.40228600  1
  O  O50  1  0.50413200  0.94656100  0.90228600  1
  O  O51  1  0.00413200  0.05343900  0.59771400  1
  O  O52  1  0.55536300  0.71493600  0.13309800  1
  O  O53  1  0.05536300  0.28506400  0.36690200  1
  O  O54  1  0.44463700  0.28506400  0.86690200  1
  O  O55  1  0.94463700  0.71493600  0.63309800  1
  O  O56  1  0.47313300  0.82315500  0.26292700  1
  O  O57  1  0.97313300  0.17684500  0.23707300  1
  O  O58  1  0.52686700  0.17684500  0.73707300  1
  O  O59  1  0.02686700  0.82315500  0.76292700  1
  O  O60  1  0.48059900  0.82013200  0.43810700  1
  O  O61  1  0.98059900  0.17986800  0.06189300  1
  O  O62  1  0.51940100  0.17986800  0.56189300  1
  O  O63  1  0.01940100  0.82013200  0.93810700  1
  O  O64  1  0.51064000  0.50646800  0.38538200  1
  O  O65  1  0.01064000  0.49353200  0.11461800  1
  O  O66  1  0.48936000  0.49353200  0.61461800  1
  O  O67  1  0.98936000  0.50646800  0.88538200  1
  O  O68  1  0.60423400  0.78441700  0.34604400  1
  O  O69  1  0.10423400  0.21558300  0.15395600  1
  O  O70  1  0.39576600  0.21558300  0.65395600  1
  O  O71  1  0.89576600  0.78441700  0.84604400  1
loop_
_geom_bond_atom_site_label_1
_geom_bond_atom_site_label_2
_geom_bond_distance
_geom_bond_site_symmetry_2
O0 P0 1.506161 1_555
O0 Pb1 2.486996 1_554
O1 P1 1.506161 1_555
O1 Pb0 2.486996 1_555
O2 P2 1.506161 1_555
O2 Pb3 2.486996 1_556
O3 P3 1.506161 1_555
O3 Pb2 2.486996 1_555
O4 P0 1.519351 1_565
O4 Pb7 2.470432 1_555
O5 P1 1.519351 1_545
O5 Pb6 2.470432 1_555
O6 P2 1.519351 1_545
O6 Pb5 2.470432 1_555
O7 P3 1.519351 1_565
O7 Pb4 2.470432 1_555
O8 P0 1.602311 1_555
O8 P4 1.634219 1_545
O9 P1 1.602311 1_555
O9 P5 1.634219 1_565
O10 P2 1.602311 1_555
O10 P6 1.634219 1_565
O11 P3 1.602311 1_555
O11 P7 1.634219 1_545
O12 P4 1.509862 1_555
O12 Pb7 2.430378 1_555
O13 P5 1.509862 1_555
O13 Pb6 2.430378 1_555
O14 P6 1.509862 1_555
O14 Pb5 2.430378 1_555
O15 P7 1.509862 1_555
O15 Pb4 2.430378 1_555
O16 P4 1.492982 1_545
O16 Pb2 2.489394 1_555
O17 P5 1.492982 1_565
O17 Pb3 2.489394 1_555
O18 P6 1.492982 1_565
O18 Pb0 2.489394 1_555
O19 P7 1.492982 1_545
O19 Pb1 2.489394 1_555
O20 P4 1.610106 1_555
O20 P8 1.613867 1_555
O21 P5 1.610106 1_555
O21 P9 1.613867 1_555
O22 P6 1.610106 1_555
O22 P10 1.613867 1_555
O23 P7 1.610106 1_555
O23 P11 1.613867 1_555
O24 P8 1.503929 1_555
O24 Pb2 2.329799 1_555
O25 P9 1.503929 1_555
O25 Pb3 2.329799 1_555
O26 P10 1.503929 1_555
O26 Pb0 2.329799 1_555
O27 P11 1.503929 1_555
O27 Pb1 2.329799 1_555
O28 P8 1.494715 1_555
O28 Pb7 2.338018 1_555
O29 P9 1.494715 1_555
O29 Pb6 2.338018 1_555
O30 P10 1.494715 1_555
O30 Pb5 2.338018 1_555
O31 P11 1.494715 1_555
O31 Pb4 2.338018 1_555
O32 P12 1.606402 1_555
O32 P8 1.623009 1_555
O33 P13 1.606402 1_555
O33 P9 1.623009 1_555
O34 P14 1.606402 1_555
O34 P10 1.623009 1_555
O35 P15 1.606402 1_555
O35 P11 1.623009 1_555
O36 P12 1.519294 1_555
O36 Pb2 2.626965 1_555
O36 Pb6 2.871441 1_555
O37 P13 1.519294 1_555
O37 Pb3 2.626965 1_555
O37 Pb7 2.871441 1_655
O38 P14 1.519294 1_555
O38 Pb0 2.626965 1_555
O38 Pb4 2.871441 1_555
O39 P15 1.519294 1_555
O39 Pb1 2.626965 1_555
O39 Pb5 2.871441 1_455
O40 P12 1.499928 1_555
O40 Pb4 2.609291 1_554
O41 P13 1.499928 1_555
O41 Pb5 2.609291 1_555
O42 P14 1.499928 1_555
O42 Pb6 2.609291 1_556
O43 P15 1.499928 1_555
O43 Pb7 2.609291 1_555
O44 P16 1.605886 1_555
O44 P12 1.633432 1_555
O45 P17 1.605886 1_555
O45 P13 1.633432 1_555
O46 P18 1.605886 1_555
O46 P14 1.633432 1_555
O47 P19 1.605886 1_555
O47 P15 1.633432 1_555
O48 P16 1.500074 1_545
O48 Pb6 2.681103 1_555
O49 P17 1.500074 1_565
O49 Pb7 2.681103 1_655
O50 P18 1.500074 1_565
O50 Pb4 2.681103 1_555
O51 P19 1.500074 1_545
O51 Pb5 2.681103 1_455
O52 P16 1.522521 1_555
O52 Pb6 2.800630 1_555
O53 P17 1.522521 1_455
O53 Pb7 2.800630 1_555
O54 P18 1.522521 1_555
O54 Pb4 2.800630 1_555
O55 P19 1.522521 1_655
O55 Pb5 2.800630 1_555
O56 P20 1.614083 1_555
O56 P16 1.616332 1_555
O57 P21 1.614083 1_655
O57 P17 1.616332 1_555
O58 P22 1.614083 1_555
O58 P18 1.616332 1_555
O59 P23 1.614083 1_455
O59 P19 1.616332 1_555
O60 P20 1.520514 1_555
O60 Pb2 2.791940 1_565
O61 P21 1.520514 1_655
O61 Pb3 2.791940 1_545
O62 P22 1.520514 1_555
O62 Pb0 2.791940 1_545
O63 P23 1.520514 1_455
O63 Pb1 2.791940 1_565
O64 P20 1.493914 1_555
O64 Pb2 2.658718 1_555
O65 P21 1.493914 1_555
O65 Pb3 2.658718 1_455
O66 P22 1.493914 1_555
O66 Pb0 2.658718 1_555
O67 P23 1.493914 1_555
O67 Pb1 2.658718 1_655
O68 P20 1.624535 1_555
O68 P1 1.626068 1_555
O69 P21 1.624535 1_555
O69 P0 1.626068 1_555
O70 P22 1.624535 1_555
O70 P3 1.626068 1_555
O71 P23 1.624535 1_555
O71 P2 1.626068 1_555
