# generated using pymatgen
data_Fe3TeO8
_symmetry_space_group_name_H-M   'P 1'
_cell_length_a   5.94064433
_cell_length_b   5.94064433
_cell_length_c   9.28226500
_cell_angle_alpha   90.00000000
_cell_angle_beta   90.00000000
_cell_angle_gamma   120.00000368
_symmetry_Int_Tables_number   1
_chemical_formula_structural   Fe3TeO8
_chemical_formula_sum   'Fe6 Te2 O16'
_cell_volume   283.69500022
_cell_formula_units_Z   2
loop_
 _symmetry_equiv_pos_site_id
 _symmetry_equiv_pos_as_xyz
  1  'x, y, z'
loop_
 _atom_site_type_symbol
 _atom_site_label
 _atom_site_symmetry_multiplicity
 _atom_site_fract_x
 _atom_site_fract_y
 _atom_site_fract_z
 _atom_site_occupancy
  Fe  Fe0  1  0.16778800  0.83221200  0.20789300  1
  Fe  Fe1  1  0.16778800  0.33557500  0.20789300  1
  Fe  Fe2  1  0.66442500  0.83221200  0.20789300  1
  Fe  Fe3  1  0.33557500  0.16778800  0.70789300  1
  Fe  Fe4  1  0.83221200  0.66442500  0.70789300  1
  Fe  Fe5  1  0.83221200  0.16778800  0.70789300  1
  Te  Te0  1  0.33333300  0.66666700  0.48654000  1
  Te  Te1  1  0.66666700  0.33333300  0.98654000  1
  O  O0  1  0.17281700  0.82718300  0.59742300  1
  O  O1  1  0.04041300  0.52020700  0.34817100  1
  O  O2  1  0.33333300  0.66666700  0.11465600  1
  O  O3  1  0.00000000  0.00000000  0.29554000  1
  O  O4  1  0.00000000  0.00000000  0.79554000  1
  O  O5  1  0.17281700  0.34563500  0.59742300  1
  O  O6  1  0.47979300  0.95958700  0.34817100  1
  O  O7  1  0.47979300  0.52020700  0.34817100  1
  O  O8  1  0.34563500  0.17281700  0.09742300  1
  O  O9  1  0.65436500  0.82718300  0.59742300  1
  O  O10  1  0.52020700  0.47979300  0.84817100  1
  O  O11  1  0.52020700  0.04041300  0.84817100  1
  O  O12  1  0.66666700  0.33333300  0.61465600  1
  O  O13  1  0.82718300  0.65436500  0.09742300  1
  O  O14  1  0.95958700  0.47979300  0.84817100  1
  O  O15  1  0.82718300  0.17281700  0.09742300  1
loop_
_geom_bond_atom_site_label_1
_geom_bond_atom_site_label_2
_geom_bond_distance
_geom_bond_site_symmetry_2
Fe0 O3 1.908541 1_565
Fe0 O2 1.910626 1_555
Fe0 O13 2.030795 1_455
Fe0 O8 2.030795 1_565
Fe0 O6 2.073887 1_555
Fe0 O1 2.073887 1_555
Fe1 O3 1.908536 1_555
Fe1 O2 1.910635 1_555
Fe1 O15 2.030795 1_455
Fe1 O8 2.030795 1_555
Fe1 O7 2.073888 1_555
Fe1 O1 2.073895 1_555
Fe2 O3 1.908536 1_665
Fe2 O2 1.910635 1_555
Fe2 O15 2.030795 1_565
Fe2 O13 2.030795 1_555
Fe2 O7 2.073888 1_555
Fe2 O6 2.073895 1_555
Fe3 O4 1.908536 1_555
Fe3 O12 1.910635 1_555
Fe3 O0 2.030795 1_545
Fe3 O5 2.030795 1_555
Fe3 O10 2.073888 1_555
Fe3 O11 2.073895 1_555
Fe4 O4 1.908536 1_665
Fe4 O12 1.910635 1_555
Fe4 O0 2.030795 1_655
Fe4 O9 2.030795 1_555
Fe4 O10 2.073888 1_555
Fe4 O14 2.073895 1_555
Fe5 O4 1.908541 1_655
Fe5 O12 1.910626 1_555
Fe5 O9 2.030795 1_545
Fe5 O5 2.030795 1_655
Fe5 O11 2.073887 1_555
Fe5 O14 2.073887 1_555
O0 Te0 1.946079 1_555
O1 Te0 1.980069 1_555
O5 Te0 1.946079 1_555
O6 Te0 1.980069 1_555
O7 Te0 1.980069 1_555
O8 Te1 1.946079 1_554
O9 Te0 1.946079 1_555
O10 Te1 1.980069 1_555
O11 Te1 1.980069 1_555
O13 Te1 1.946079 1_554
O14 Te1 1.980069 1_555
O15 Te1 1.946079 1_554
