# generated using pymatgen
data_HfMg14Cu
_symmetry_space_group_name_H-M   'P 1'
_cell_length_a   6.32572258
_cell_length_b   6.32572208
_cell_length_c   10.02858582
_cell_angle_alpha   90.00000000
_cell_angle_beta   90.00000000
_cell_angle_gamma   120.00000263
_symmetry_Int_Tables_number   1
_chemical_formula_structural   HfMg14Cu
_chemical_formula_sum   'Hf1 Mg14 Cu1'
_cell_volume   347.52861071
_cell_formula_units_Z   1
loop_
 _symmetry_equiv_pos_site_id
 _symmetry_equiv_pos_as_xyz
  1  'x, y, z'
loop_
 _atom_site_type_symbol
 _atom_site_label
 _atom_site_symmetry_multiplicity
 _atom_site_fract_x
 _atom_site_fract_y
 _atom_site_fract_z
 _atom_site_occupancy
  Hf  Hf0  1  0.16666700  0.33333300  0.62500000  1
  Mg  Mg0  1  0.16386721  0.83193311  0.12500000  1
  Mg  Mg1  1  0.17599897  0.83799899  0.62500000  1
  Mg  Mg2  1  0.66806689  0.33613279  0.12500000  1
  Mg  Mg3  1  0.66200101  0.32400103  0.62500000  1
  Mg  Mg4  1  0.66806689  0.83193311  0.12500000  1
  Mg  Mg5  1  0.66200101  0.83799899  0.62500000  1
  Mg  Mg6  1  0.32659751  0.17340249  0.36797830  1
  Mg  Mg7  1  0.32659751  0.17340249  0.88202170  1
  Mg  Mg8  1  0.32659751  0.65319602  0.36797830  1
  Mg  Mg9  1  0.32659751  0.65319602  0.88202170  1
  Mg  Mg10  1  0.84680398  0.17340249  0.36797830  1
  Mg  Mg11  1  0.84680398  0.17340249  0.88202170  1
  Mg  Mg12  1  0.83333300  0.66666700  0.37938311  1
  Mg  Mg13  1  0.83333300  0.66666700  0.87061689  1
  Cu  Cu0  1  0.16666700  0.33333300  0.12500000  1
loop_
_geom_bond_atom_site_label_1
_geom_bond_atom_site_label_2
_geom_bond_distance
_geom_bond_site_symmetry_2
Hf0 Mg7 3.116778 1_555
Hf0 Mg6 3.116778 1_555
Hf0 Mg9 3.116784 1_555
Hf0 Mg8 3.116784 1_555
Hf0 Mg11 3.116784 1_455
Hf0 Mg10 3.116784 1_455
Hf0 Mg1 3.163274 1_545
Hf0 Mg5 3.163274 1_555
Hf0 Mg5 3.163274 1_445
Hf0 Mg1 3.163274 1_555
Hf0 Mg3 3.163274 1_555
Hf0 Mg3 3.163274 1_455
Mg0 Mg8 3.072377 1_555
Mg0 Mg9 3.072377 1_554
Mg0 Mg6 3.072384 1_565
Mg0 Mg7 3.072384 1_564
Mg0 Mg12 3.128406 1_455
Mg0 Mg13 3.128406 1_454
Mg0 Mg2 3.136295 1_455
Mg0 Mg4 3.136295 1_455
Mg0 Mg2 3.189427 1_565
Mg0 Mg4 3.189427 1_555
Mg1 Mg3 3.074314 1_565
Mg1 Mg5 3.074314 1_555
Mg1 Mg12 3.096967 1_455
Mg1 Mg13 3.096967 1_455
Mg1 Mg9 3.167272 1_555
Mg1 Mg8 3.167272 1_555
Mg1 Mg7 3.167278 1_565
Mg1 Mg6 3.167278 1_565
Mg1 Mg3 3.251408 1_455
Mg1 Mg5 3.251409 1_455
Mg2 Mg6 3.072384 1_555
Mg2 Mg7 3.072384 1_554
Mg2 Mg4 3.136295 1_555
Mg2 Mg4 3.189427 1_545
Mg3 Mg5 3.074314 1_545
Mg3 Mg7 3.167279 1_555
Mg3 Mg6 3.167279 1_555
Mg3 Mg5 3.251408 1_555
Mg4 Mg8 3.072384 1_555
Mg4 Mg9 3.072384 1_554
Mg5 Mg9 3.167278 1_555
Mg5 Mg8 3.167278 1_555
Mg10 Mg2 3.072377 1_555
Mg10 Mg4 3.072383 1_545
Mg10 Mg12 3.165789 1_545
Mg10 Mg12 3.165789 1_555
Mg10 Mg3 3.167272 1_555
Mg10 Mg5 3.167278 1_545
Mg11 Mg2 3.072377 1_556
Mg11 Mg4 3.072383 1_546
Mg11 Mg13 3.165789 1_545
Mg11 Mg13 3.165789 1_555
Mg11 Mg3 3.167272 1_555
Mg11 Mg5 3.167278 1_545
Mg12 Mg5 3.096960 1_555
Mg12 Mg3 3.096967 1_555
Mg12 Mg4 3.128399 1_555
Mg12 Mg2 3.128405 1_555
Mg12 Mg6 3.165789 1_665
Mg12 Mg6 3.165789 1_555
Mg12 Mg8 3.165789 1_655
Mg12 Mg8 3.165789 1_555
Mg13 Mg5 3.096960 1_555
Mg13 Mg3 3.096967 1_555
Mg13 Mg4 3.128399 1_556
Mg13 Mg2 3.128405 1_556
Mg13 Mg7 3.165789 1_665
Mg13 Mg7 3.165789 1_555
Mg13 Mg9 3.165789 1_555
Mg13 Mg9 3.165789 1_655
Cu0 Mg6 3.001352 1_555
Cu0 Mg7 3.001352 1_554
Cu0 Mg8 3.001358 1_555
Cu0 Mg9 3.001358 1_554
Cu0 Mg10 3.001358 1_455
Cu0 Mg11 3.001358 1_454
Cu0 Mg0 3.162898 1_545
Cu0 Mg4 3.162898 1_445
Cu0 Mg4 3.162898 1_555
Cu0 Mg0 3.162898 1_555
Cu0 Mg2 3.162898 1_555
Cu0 Mg2 3.162899 1_455
