# generated using pymatgen
data_Yb5Pt4
_symmetry_space_group_name_H-M   'P 1'
_cell_length_a   7.45971800
_cell_length_b   7.55356500
_cell_length_c   14.46114200
_cell_angle_alpha   90.00000000
_cell_angle_beta   90.00000000
_cell_angle_gamma   90.00000000
_symmetry_Int_Tables_number   1
_chemical_formula_structural   Yb5Pt4
_chemical_formula_sum   'Yb20 Pt16'
_cell_volume   814.84868974
_cell_formula_units_Z   4
loop_
 _symmetry_equiv_pos_site_id
 _symmetry_equiv_pos_as_xyz
  1  'x, y, z'
loop_
 _atom_site_type_symbol
 _atom_site_label
 _atom_site_symmetry_multiplicity
 _atom_site_fract_x
 _atom_site_fract_y
 _atom_site_fract_z
 _atom_site_occupancy
  Yb  Yb0  1  0.63240200  0.16746100  0.62144600  1
  Yb  Yb1  1  0.13240200  0.33253900  0.87855400  1
  Yb  Yb2  1  0.36759800  0.83253900  0.12144600  1
  Yb  Yb3  1  0.86759800  0.66746100  0.37855400  1
  Yb  Yb4  1  0.36759800  0.83253900  0.37855400  1
  Yb  Yb5  1  0.86759800  0.66746100  0.12144600  1
  Yb  Yb6  1  0.63240200  0.16746100  0.87855400  1
  Yb  Yb7  1  0.13240200  0.33253900  0.62144600  1
  Yb  Yb8  1  0.47407600  0.67444700  0.59706100  1
  Yb  Yb9  1  0.97407600  0.82555300  0.90293900  1
  Yb  Yb10  1  0.52592400  0.32555300  0.09706100  1
  Yb  Yb11  1  0.02592400  0.17444700  0.40293900  1
  Yb  Yb12  1  0.52592400  0.32555300  0.40293900  1
  Yb  Yb13  1  0.02592400  0.17444700  0.09706100  1
  Yb  Yb14  1  0.47407600  0.67444700  0.90293900  1
  Yb  Yb15  1  0.97407600  0.82555300  0.59706100  1
  Yb  Yb16  1  0.79424100  0.50368500  0.75000000  1
  Yb  Yb17  1  0.29424100  0.99631500  0.75000000  1
  Yb  Yb18  1  0.20575900  0.49631500  0.25000000  1
  Yb  Yb19  1  0.70575900  0.00368500  0.25000000  1
  Pt  Pt0  1  0.69316000  0.97083400  0.45870200  1
  Pt  Pt1  1  0.19316000  0.52916600  0.04129800  1
  Pt  Pt2  1  0.30684000  0.02916600  0.95870200  1
  Pt  Pt3  1  0.80684000  0.47083400  0.54129800  1
  Pt  Pt4  1  0.30684000  0.02916600  0.54129800  1
  Pt  Pt5  1  0.80684000  0.47083400  0.95870200  1
  Pt  Pt6  1  0.69316000  0.97083400  0.04129800  1
  Pt  Pt7  1  0.19316000  0.52916600  0.45870200  1
  Pt  Pt8  1  0.42659300  0.38871100  0.75000000  1
  Pt  Pt9  1  0.92659300  0.11128900  0.75000000  1
  Pt  Pt10  1  0.57340700  0.61128900  0.25000000  1
  Pt  Pt11  1  0.07340700  0.88871100  0.25000000  1
  Pt  Pt12  1  0.66180900  0.85875500  0.75000000  1
  Pt  Pt13  1  0.16180900  0.64124500  0.75000000  1
  Pt  Pt14  1  0.33819100  0.14124500  0.25000000  1
  Pt  Pt15  1  0.83819100  0.35875500  0.25000000  1
loop_
_geom_bond_atom_site_label_1
_geom_bond_atom_site_label_2
_geom_bond_distance
_geom_bond_site_symmetry_2
Pt0 Yb0 2.819599 1_565
Pt0 Yb3 2.878857 1_555
Pt0 Yb4 2.886639 1_555
Pt0 Yb11 3.029467 1_665
Pt0 Yb19 3.029711 1_565
Pt0 Yb12 3.063619 1_565
Pt0 Yb15 3.098214 1_555
Pt0 Yb8 3.418538 1_555
Pt1 Yb1 2.819599 1_554
Pt1 Yb2 2.878857 1_555
Pt1 Yb5 2.886639 1_455
Pt1 Yb10 3.029467 1_555
Pt1 Yb18 3.029711 1_555
Pt1 Yb13 3.063619 1_555
Pt1 Yb14 3.098214 1_554
Pt1 Yb9 3.418538 1_454
Pt2 Yb2 2.819599 1_546
Pt2 Yb1 2.878857 1_555
Pt2 Yb6 2.886639 1_555
Pt2 Yb9 3.029467 1_445
Pt2 Yb17 3.029711 1_545
Pt2 Yb14 3.063619 1_545
Pt2 Yb13 3.098214 1_556
Pt2 Yb10 3.418538 1_556
Pt3 Yb3 2.819599 1_555
Pt3 Yb0 2.878857 1_555
Pt3 Yb7 2.886639 1_655
Pt3 Yb8 3.029467 1_555
Pt3 Yb16 3.029711 1_555
Pt3 Yb15 3.063619 1_555
Pt3 Yb12 3.098214 1_555
Pt3 Yb11 3.418538 1_655
Pt4 Yb4 2.819599 1_545
Pt4 Yb7 2.878857 1_555
Pt4 Yb0 2.886639 1_555
Pt4 Yb15 3.029467 1_445
Pt4 Yb17 3.029711 1_545
Pt4 Yb8 3.063619 1_545
Pt4 Yb11 3.098214 1_555
Pt4 Yb12 3.418538 1_555
Pt5 Yb5 2.819599 1_556
Pt5 Yb6 2.878857 1_555
Pt5 Yb1 2.886639 1_655
Pt5 Yb14 3.029467 1_555
Pt5 Yb16 3.029711 1_555
Pt5 Yb9 3.063619 1_555
Pt5 Yb10 3.098214 1_556
Pt5 Yb13 3.418538 1_656
Pt6 Yb6 2.819599 1_564
Pt6 Yb5 2.878857 1_555
Pt6 Yb2 2.886639 1_555
Pt6 Yb13 3.029467 1_665
Pt6 Yb19 3.029711 1_565
Pt6 Yb10 3.063619 1_565
Pt6 Yb9 3.098214 1_554
Pt6 Yb14 3.418538 1_554
Pt7 Yb7 2.819599 1_555
Pt7 Yb4 2.878857 1_555
Pt7 Yb3 2.886639 1_455
Pt7 Yb12 3.029467 1_555
Pt7 Yb18 3.029711 1_555
Pt7 Yb11 3.063619 1_555
Pt7 Yb8 3.098214 1_555
Pt7 Yb15 3.418538 1_455
Pt8 Yb16 2.876771 1_555
Pt8 Yb1 2.907274 1_555
Pt8 Yb7 2.907274 1_555
Pt8 Yb6 2.933614 1_555
Pt8 Yb0 2.933614 1_555
Pt8 Yb14 3.110519 1_555
Pt8 Yb8 3.110519 1_555
Pt8 Yb17 3.124101 1_545
Pt9 Yb17 2.876771 1_645
Pt9 Yb6 2.907274 1_555
Pt9 Yb0 2.907274 1_555
Pt9 Yb7 2.933614 1_655
Pt9 Yb1 2.933614 1_655
Pt9 Yb9 3.110519 1_545
Pt9 Yb15 3.110519 1_545
Pt9 Yb16 3.124101 1_555
Pt10 Pt15 2.745933 1_555
Pt10 Yb18 2.876771 1_555
Pt10 Yb5 2.907274 1_555
Pt10 Yb3 2.907274 1_555
Pt10 Yb2 2.933614 1_555
Pt10 Yb4 2.933614 1_555
Pt10 Yb12 3.110519 1_555
Pt10 Yb10 3.110519 1_555
Pt10 Yb19 3.124101 1_565
Pt11 Pt14 2.745933 1_565
Pt11 Yb19 2.876771 1_465
Pt11 Yb4 2.907274 1_555
Pt11 Yb2 2.907274 1_555
Pt11 Yb5 2.933614 1_455
Pt11 Yb3 2.933614 1_455
Pt11 Yb13 3.110519 1_565
Pt11 Yb11 3.110519 1_565
Pt11 Yb18 3.124101 1_555
Pt12 Pt9 2.745933 1_565
Pt12 Yb16 2.858202 1_555
Pt12 Yb17 2.932230 1_555
Pt12 Yb14 2.964943 1_555
Pt12 Yb8 2.964943 1_555
Pt12 Yb0 2.990247 1_565
Pt12 Yb6 2.990247 1_565
Pt12 Yb15 3.221895 1_555
Pt12 Yb9 3.221895 1_555
Pt13 Pt8 2.745933 1_555
Pt13 Yb17 2.858202 1_555
Pt13 Yb16 2.932230 1_455
Pt13 Yb15 2.964943 1_455
Pt13 Yb9 2.964943 1_455
Pt13 Yb1 2.990247 1_555
Pt13 Yb7 2.990247 1_555
Pt13 Yb14 3.221895 1_555
Pt13 Yb8 3.221895 1_555
Pt14 Yb18 2.858202 1_555
Pt14 Yb19 2.932230 1_555
Pt14 Yb10 2.964943 1_555
Pt14 Yb12 2.964943 1_555
Pt14 Yb2 2.990247 1_545
Pt14 Yb4 2.990247 1_545
Pt14 Yb13 3.221895 1_555
Pt14 Yb11 3.221895 1_555
Pt15 Yb19 2.858202 1_555
Pt15 Yb18 2.932230 1_655
Pt15 Yb13 2.964943 1_655
Pt15 Yb11 2.964943 1_655
Pt15 Yb5 2.990247 1_555
Pt15 Yb3 2.990247 1_555
Pt15 Yb12 3.221895 1_555
Pt15 Yb10 3.221895 1_555
