# generated using pymatgen
data_Sr3V3N5
_symmetry_space_group_name_H-M   'P 1'
_cell_length_a   5.81456516
_cell_length_b   7.63638217
_cell_length_c   8.60068100
_cell_angle_alpha   109.83639682
_cell_angle_beta   104.31599228
_cell_angle_gamma   99.46425675
_symmetry_Int_Tables_number   1
_chemical_formula_structural   Sr3V3N5
_chemical_formula_sum   'Sr6 V6 N10'
_cell_volume   334.90580015
_cell_formula_units_Z   2
loop_
 _symmetry_equiv_pos_site_id
 _symmetry_equiv_pos_as_xyz
  1  'x, y, z'
loop_
 _atom_site_type_symbol
 _atom_site_label
 _atom_site_symmetry_multiplicity
 _atom_site_fract_x
 _atom_site_fract_y
 _atom_site_fract_z
 _atom_site_occupancy
  Sr  Sr0  1  0.76159200  0.43073200  0.59940500  1
  Sr  Sr1  1  0.23840800  0.56926800  0.40059500  1
  Sr  Sr2  1  0.65411800  0.84737800  0.89090300  1
  Sr  Sr3  1  0.34588200  0.15262200  0.10909700  1
  Sr  Sr4  1  0.67779200  0.68813300  0.22890600  1
  Sr  Sr5  1  0.32220800  0.31186700  0.77109400  1
  V  V0  1  0.90574500  0.31728200  0.96900300  1
  V  V1  1  0.09425500  0.68271800  0.03099700  1
  V  V2  1  0.68526800  0.98938500  0.60208400  1
  V  V3  1  0.31473200  0.01061500  0.39791600  1
  V  V4  1  0.08058200  0.87450400  0.69733100  1
  V  V5  1  0.91941800  0.12549600  0.30266900  1
  N  N0  1  0.98074200  0.10082200  0.81379300  1
  N  N1  1  0.01925800  0.89917800  0.18620700  1
  N  N2  1  0.74353700  0.73666600  0.54246300  1
  N  N3  1  0.25646300  0.26333400  0.45753700  1
  N  N4  1  0.76696600  0.51589600  0.91781700  1
  N  N5  1  0.23303400  0.48410400  0.08218300  1
  N  N6  1  0.34525800  0.94015300  0.60758200  1
  N  N7  1  0.65474200  0.05984700  0.39241800  1
  N  N8  1  0.17627200  0.76537300  0.85850200  1
  N  N9  1  0.82372800  0.23462700  0.14149800  1
loop_
_geom_bond_atom_site_label_1
_geom_bond_atom_site_label_2
_geom_bond_distance
_geom_bond_site_symmetry_2
N0 V0 1.931803 1_555
N0 V4 1.941606 1_645
N0 V2 1.977842 1_545
N0 Sr5 2.526708 1_655
N0 Sr3 2.736797 1_656
N0 Sr2 2.842123 1_545
N1 V1 1.931803 1_555
N1 V5 1.941606 1_465
N1 V3 1.977842 1_565
N1 Sr4 2.526708 1_455
N1 Sr2 2.736797 1_454
N1 Sr3 2.842123 1_565
N2 V2 1.931691 1_555
N2 V4 1.949862 1_655
N2 Sr4 2.514259 1_555
N2 Sr0 2.557452 1_555
N2 Sr1 2.771981 1_555
N2 Sr2 3.026823 1_555
N3 V3 1.931691 1_555
N3 V5 1.949862 1_455
N3 Sr5 2.514259 1_555
N3 Sr1 2.557452 1_555
N3 Sr0 2.771981 1_555
N3 Sr3 3.026823 1_555
N4 V1 1.907094 1_656
N4 V0 1.955830 1_555
N4 Sr5 2.536615 1_555
N4 Sr0 2.581843 1_555
N4 Sr4 2.771198 1_556
N4 Sr2 2.785769 1_555
N5 V0 1.907094 1_454
N5 V1 1.955830 1_555
N5 Sr4 2.536615 1_555
N5 Sr1 2.581843 1_555
N5 Sr5 2.771198 1_554
N5 Sr3 2.785769 1_555
N6 V4 1.952431 1_555
N6 V2 1.966218 1_555
N6 V3 2.025943 1_565
N6 Sr1 2.651258 1_555
N6 Sr5 2.749944 1_565
N6 Sr2 3.015092 1_555
N7 V5 1.952431 1_555
N7 V3 1.966218 1_555
N7 V2 2.025943 1_545
N7 Sr0 2.651258 1_555
N7 Sr4 2.749944 1_545
N7 Sr3 3.015092 1_555
N8 V4 1.865646 1_555
N8 V1 1.926974 1_556
N8 Sr2 2.667609 1_555
N8 Sr3 2.833189 1_566
N8 Sr0 2.960003 1_455
N9 V5 1.865646 1_555
N9 V0 1.926974 1_554
N9 Sr3 2.667609 1_555
N9 Sr2 2.833189 1_544
N9 Sr1 2.960003 1_655
