# generated using pymatgen
data_Nd4Fe4As4O3F
_symmetry_space_group_name_H-M   'P 1'
_cell_length_a   9.96763858
_cell_length_b   9.96763858
_cell_length_c   9.96763858
_cell_angle_alpha   146.60281824
_cell_angle_beta   146.60281824
_cell_angle_gamma   47.95223678
_symmetry_Int_Tables_number   1
_chemical_formula_structural   Nd4Fe4As4O3F
_chemical_formula_sum   'Nd4 Fe4 As4 O3 F1'
_cell_volume   298.83437004
_cell_formula_units_Z   1
loop_
 _symmetry_equiv_pos_site_id
 _symmetry_equiv_pos_as_xyz
  1  'x, y, z'
loop_
 _atom_site_type_symbol
 _atom_site_label
 _atom_site_symmetry_multiplicity
 _atom_site_fract_x
 _atom_site_fract_y
 _atom_site_fract_z
 _atom_site_occupancy
  Nd  Nd0  1  0.69031100  0.69031100  0.52032700  1
  Nd  Nd1  1  0.16998500  0.16998500  0.47967300  1
  Nd  Nd2  1  0.30968900  0.83001500  0.00000000  1
  Nd  Nd3  1  0.83001500  0.30968900  0.00000000  1
  Fe  Fe0  1  0.24977200  0.24977200  0.00000000  1
  Fe  Fe1  1  0.75022800  0.75022800  0.00000000  1
  Fe  Fe2  1  0.75000000  0.25000000  0.50000000  1
  Fe  Fe3  1  0.25000000  0.75000000  0.50000000  1
  As  As0  1  0.40984000  0.40984000  0.50235700  1
  As  As1  1  0.90748200  0.90748200  0.49764300  1
  As  As2  1  0.59016000  0.09251800  0.00000000  1
  As  As3  1  0.09251800  0.59016000  0.00000000  1
  O  O0  1  0.00000000  0.00000000  0.00000000  1
  O  O1  1  0.00000000  0.50000000  0.50000000  1
  O  O2  1  0.50000000  0.00000000  0.50000000  1
  F  F0  1  0.50000000  0.50000000  0.00000000  1
loop_
_geom_bond_atom_site_label_1
_geom_bond_atom_site_label_2
_geom_bond_distance
_geom_bond_site_symmetry_2
Nd0 O0 2.322431 1_666
Nd0 O2 2.393150 1_565
Nd0 O1 2.393150 1_655
Nd1 O0 2.322421 1_555
Nd1 O1 2.393140 1_555
Nd1 O2 2.393140 1_555
Nd2 O0 2.322429 1_565
Nd2 O2 2.393145 1_565
Nd2 O1 2.393145 1_554
Nd3 O0 2.322429 1_655
Nd3 O1 2.393145 1_655
Nd3 O2 2.393145 1_554
As0 Fe1 2.616249 1_556
As0 Fe2 2.620991 1_555
As0 Fe3 2.620991 1_555
As0 Fe0 2.625730 1_555
As0 Nd3 3.245283 1_455
As0 Nd2 3.245283 1_545
As0 Nd3 3.334884 1_556
As0 Nd2 3.334884 1_556
As1 Fe1 2.616261 1_555
As1 Fe2 2.621002 1_565
As1 Fe3 2.621002 1_655
As1 Fe0 2.625741 1_666
As1 Nd3 3.245274 1_566
As1 Nd2 3.245274 1_656
As1 Nd3 3.334876 1_555
As1 Nd2 3.334876 1_555
As2 Fe0 2.616252 1_555
As2 Fe2 2.620996 1_555
As2 Fe3 2.620996 1_544
As2 Fe1 2.625739 1_545
As2 Nd0 3.245274 1_544
As2 Nd1 3.245283 1_655
As2 Nd0 3.334876 1_555
As2 Nd1 3.334885 1_554
As3 Fe0 2.616252 1_555
As3 Fe2 2.620996 1_454
As3 Fe3 2.620996 1_555
As3 Fe1 2.625739 1_455
As3 Nd0 3.245274 1_454
As3 Nd1 3.245283 1_565
As3 Nd0 3.334876 1_555
As3 Nd1 3.334885 1_554
F0 Nd1 2.461829 1_554
F0 Nd2 2.461830 1_555
F0 Nd3 2.461830 1_555
F0 Nd0 2.461838 1_555
