# generated using pymatgen
data_K5U2O4F9
_symmetry_space_group_name_H-M   'P 1'
_cell_length_a   6.43598100
_cell_length_b   10.95876745
_cell_length_c   13.23071184
_cell_angle_alpha   102.04571454
_cell_angle_beta   90.00000000
_cell_angle_gamma   107.07632383
_symmetry_Int_Tables_number   1
_chemical_formula_structural   K5U2O4F9
_chemical_formula_sum   'K10 U4 O8 F18'
_cell_volume   870.51090308
_cell_formula_units_Z   2
loop_
 _symmetry_equiv_pos_site_id
 _symmetry_equiv_pos_as_xyz
  1  'x, y, z'
loop_
 _atom_site_type_symbol
 _atom_site_label
 _atom_site_symmetry_multiplicity
 _atom_site_fract_x
 _atom_site_fract_y
 _atom_site_fract_z
 _atom_site_occupancy
  K  K0  1  0.19083000  0.91703300  0.43485500  1
  K  K1  1  0.50433400  0.43291500  0.62171100  1
  K  K2  1  0.07141900  0.56708500  0.87828900  1
  K  K3  1  0.72620200  0.91703300  0.93485500  1
  K  K4  1  0.92858100  0.43291500  0.12171100  1
  K  K5  1  0.49566600  0.56708500  0.37828900  1
  K  K6  1  0.80917000  0.08296700  0.56514500  1
  K  K7  1  0.00000000  0.50000000  0.50000000  1
  K  K8  1  0.27379800  0.08296700  0.06514500  1
  K  K9  1  0.50000000  0.50000000  0.00000000  1
  U  U0  1  0.43586500  0.21769000  0.80916000  1
  U  U1  1  0.21817500  0.78231000  0.69084000  1
  U  U2  1  0.78182500  0.21769000  0.30916000  1
  U  U3  1  0.56413500  0.78231000  0.19084000  1
  O  O0  1  0.75355100  0.76859800  0.08703400  1
  O  O1  1  0.64177500  0.21856800  0.71246800  1
  O  O2  1  0.24644900  0.23140200  0.91296600  1
  O  O3  1  0.98495400  0.23140200  0.41296600  1
  O  O4  1  0.35822500  0.78143200  0.28753200  1
  O  O5  1  0.42320500  0.78143200  0.78753200  1
  O  O6  1  0.57679500  0.21856800  0.21246800  1
  O  O7  1  0.01504600  0.76859800  0.58703400  1
  F  F0  1  0.54432000  0.10410900  0.40328200  1
  F  F1  1  0.63648700  0.37071400  0.41891600  1
  F  F2  1  0.23041200  0.00000000  0.75000000  1
  F  F3  1  0.45568000  0.89589100  0.59671800  1
  F  F4  1  0.55978900  0.10410900  0.90328200  1
  F  F5  1  0.00207000  0.42585500  0.30704000  1
  F  F6  1  0.57621600  0.57414500  0.19296000  1
  F  F7  1  0.76958800  0.00000000  0.25000000  1
  F  F8  1  0.01287600  0.79587100  0.82949300  1
  F  F9  1  0.73422700  0.37071400  0.91891600  1
  F  F10  1  0.36351300  0.62928600  0.58108400  1
  F  F11  1  0.26577300  0.62928600  0.08108400  1
  F  F12  1  0.98712400  0.20412900  0.17050700  1
  F  F13  1  0.99793000  0.57414500  0.69296000  1
  F  F14  1  0.44021100  0.89589100  0.09671800  1
  F  F15  1  0.78299600  0.79587100  0.32949300  1
  F  F16  1  0.21700400  0.20412900  0.67050700  1
  F  F17  1  0.42378400  0.42585500  0.80704000  1
loop_
_geom_bond_atom_site_label_1
_geom_bond_atom_site_label_2
_geom_bond_distance
_geom_bond_site_symmetry_2
K0 O4 2.626698 1_555
K0 O7 2.875085 1_555
K1 O1 3.184274 1_555
K2 O5 3.184268 1_555
K3 O5 2.626701 1_555
K3 O0 2.875085 1_556
K4 O6 3.184268 1_555
K5 O4 3.184274 1_555
K6 O1 2.626698 1_555
K6 O3 2.875085 1_555
K7 O3 2.901287 1_455
K7 O7 2.901287 1_555
K8 O6 2.626701 1_555
K8 O2 2.875085 1_554
K9 O0 2.901285 1_555
K9 O2 2.901285 1_554
O0 U3 1.848371 1_555
O1 U0 1.841359 1_555
O2 U0 1.848371 1_555
O3 U2 1.848376 1_555
O4 U3 1.841359 1_555
O5 U1 1.841350 1_555
O6 U2 1.841350 1_555
O7 U1 1.848376 1_555
F0 U2 2.228494 1_555
F0 K0 2.677988 1_545
F0 K6 2.825697 1_555
F1 U2 2.387613 1_555
F1 K7 2.459817 1_655
F1 K5 2.714708 1_555
F1 K1 2.822112 1_555
F2 U0 2.328154 1_555
F2 U1 2.328154 1_545
F3 U1 2.228494 1_555
F3 K6 2.677988 1_565
F3 K0 2.825697 1_555
F4 U0 2.228494 1_555
F4 K3 2.677984 1_545
F4 K8 2.825693 1_556
F5 U2 2.311216 1_455
F5 K7 2.513708 1_555
F5 K4 2.518499 1_455
F5 K5 3.143156 1_555
F6 U3 2.311218 1_555
F6 K9 2.513709 1_555
F6 K5 2.518500 1_555
F6 K4 3.143151 1_555
F7 U3 2.328154 1_545
F7 U2 2.328154 1_555
F8 U1 2.266001 1_555
F8 K3 2.788657 1_455
F8 K2 2.841706 1_555
F9 U0 2.387613 1_555
F9 K9 2.459818 1_556
F9 K2 2.714708 1_655
F9 K4 2.822112 1_556
F10 U1 2.387613 1_555
F10 K7 2.459817 1_555
F10 K1 2.714708 1_555
F10 K5 2.822112 1_555
F11 U3 2.387613 1_555
F11 K9 2.459818 1_555
F11 K4 2.714708 1_455
F11 K2 2.822112 1_554
F12 U2 2.266001 1_555
F12 K8 2.788657 1_655
F12 K4 2.841706 1_555
F13 U1 2.311216 1_655
F13 K7 2.513708 1_655
F13 K2 2.518499 1_655
F13 K1 3.143156 1_555
F14 U3 2.228494 1_555
F14 K8 2.677984 1_565
F14 K3 2.825693 1_554
F15 U3 2.266005 1_555
F15 K0 2.788647 1_655
F15 K5 2.841708 1_555
F16 U0 2.266005 1_555
F16 K6 2.788647 1_455
F16 K1 2.841708 1_555
F17 U0 2.311218 1_555
F17 K9 2.513709 1_556
F17 K1 2.518500 1_555
F17 K2 3.143151 1_555
