# generated using pymatgen
data_Ba3V2O7F5
_symmetry_space_group_name_H-M   'P 1'
_cell_length_a   9.39090200
_cell_length_b   10.03505800
_cell_length_c   10.82886200
_cell_angle_alpha   90.00000000
_cell_angle_beta   90.00000000
_cell_angle_gamma   90.00000000
_symmetry_Int_Tables_number   1
_chemical_formula_structural   Ba3V2O7F5
_chemical_formula_sum   'Ba12 V8 O28 F20'
_cell_volume   1020.49296368
_cell_formula_units_Z   4
loop_
 _symmetry_equiv_pos_site_id
 _symmetry_equiv_pos_as_xyz
  1  'x, y, z'
loop_
 _atom_site_type_symbol
 _atom_site_label
 _atom_site_symmetry_multiplicity
 _atom_site_fract_x
 _atom_site_fract_y
 _atom_site_fract_z
 _atom_site_occupancy
  Ba  Ba0  1  0.00000000  0.34249300  0.35268900  1
  Ba  Ba1  1  0.00000000  0.65750700  0.64731100  1
  Ba  Ba2  1  0.50000000  0.15750700  0.85268900  1
  Ba  Ba3  1  0.50000000  0.84249300  0.14731100  1
  Ba  Ba4  1  0.00000000  0.21692000  0.77073100  1
  Ba  Ba5  1  0.00000000  0.78308000  0.22926900  1
  Ba  Ba6  1  0.50000000  0.28308000  0.27073100  1
  Ba  Ba7  1  0.50000000  0.71692000  0.72926900  1
  Ba  Ba8  1  0.25517100  0.00000000  0.50000000  1
  Ba  Ba9  1  0.74482900  0.00000000  0.50000000  1
  Ba  Ba10  1  0.24482900  0.50000000  0.00000000  1
  Ba  Ba11  1  0.75517100  0.50000000  0.00000000  1
  V  V0  1  0.18592200  0.15466200  0.10673700  1
  V  V1  1  0.81407800  0.84533800  0.89326300  1
  V  V2  1  0.18592200  0.84533800  0.89326300  1
  V  V3  1  0.31407800  0.34533800  0.60673700  1
  V  V4  1  0.81407800  0.15466200  0.10673700  1
  V  V5  1  0.68592200  0.65466200  0.39326300  1
  V  V6  1  0.31407800  0.65466200  0.39326300  1
  V  V7  1  0.68592200  0.34533800  0.60673700  1
  O  O0  1  0.22457600  0.30049000  0.18217400  1
  O  O1  1  0.77542400  0.69951000  0.81782600  1
  O  O2  1  0.22457600  0.69951000  0.81782600  1
  O  O3  1  0.27542400  0.19951000  0.68217400  1
  O  O4  1  0.77542400  0.30049000  0.18217400  1
  O  O5  1  0.72457600  0.80049000  0.31782600  1
  O  O6  1  0.27542400  0.80049000  0.31782600  1
  O  O7  1  0.72457600  0.19951000  0.68217400  1
  O  O8  1  0.33647300  0.06772800  0.12286900  1
  O  O9  1  0.66352700  0.93227200  0.87713100  1
  O  O10  1  0.33647300  0.93227200  0.87713100  1
  O  O11  1  0.16352700  0.43227200  0.62286900  1
  O  O12  1  0.66352700  0.06772800  0.12286900  1
  O  O13  1  0.83647300  0.56772800  0.37713100  1
  O  O14  1  0.16352700  0.56772800  0.37713100  1
  O  O15  1  0.83647300  0.43227200  0.62286900  1
  O  O16  1  0.07755600  0.07437300  0.24359000  1
  O  O17  1  0.92244400  0.92562700  0.75641000  1
  O  O18  1  0.07755600  0.92562700  0.75641000  1
  O  O19  1  0.42244400  0.42562700  0.74359000  1
  O  O20  1  0.92244400  0.07437300  0.24359000  1
  O  O21  1  0.57755600  0.57437300  0.25641000  1
  O  O22  1  0.42244400  0.57437300  0.25641000  1
  O  O23  1  0.57755600  0.42562700  0.74359000  1
  O  O24  1  0.07801700  0.00000000  0.00000000  1
  O  O25  1  0.92198300  0.00000000  0.00000000  1
  O  O26  1  0.42198300  0.50000000  0.50000000  1
  O  O27  1  0.57801700  0.50000000  0.50000000  1
  F  F0  1  0.00000000  0.24233400  0.05737600  1
  F  F1  1  0.00000000  0.75766600  0.94262400  1
  F  F2  1  0.50000000  0.25766600  0.55737600  1
  F  F3  1  0.50000000  0.74233400  0.44262400  1
  F  F4  1  0.00000000  0.54120600  0.13639400  1
  F  F5  1  0.00000000  0.45879400  0.86360600  1
  F  F6  1  0.50000000  0.95879400  0.63639400  1
  F  F7  1  0.50000000  0.04120600  0.36360600  1
  F  F8  1  0.00000000  0.14713400  0.52930600  1
  F  F9  1  0.00000000  0.85286600  0.47069400  1
  F  F10  1  0.50000000  0.35286600  0.02930600  1
  F  F11  1  0.50000000  0.64713400  0.97069400  1
  F  F12  1  0.26782900  0.27162700  0.44352900  1
  F  F13  1  0.73217100  0.72837300  0.55647100  1
  F  F14  1  0.26782900  0.72837300  0.55647100  1
  F  F15  1  0.23217100  0.22837300  0.94352900  1
  F  F16  1  0.73217100  0.27162700  0.44352900  1
  F  F17  1  0.76782900  0.77162700  0.05647100  1
  F  F18  1  0.23217100  0.77162700  0.05647100  1
  F  F19  1  0.76782900  0.22837300  0.94352900  1
loop_
_geom_bond_atom_site_label_1
_geom_bond_atom_site_label_2
_geom_bond_distance
_geom_bond_site_symmetry_2
Ba0 F8 2.738834 1_555
Ba0 O14 2.745367 1_555
Ba0 O13 2.745367 1_455
Ba0 F12 2.792739 1_555
Ba0 F16 2.792739 1_455
Ba0 O4 2.834594 1_455
Ba0 O0 2.834594 1_555
Ba0 O16 3.027462 1_555
Ba0 O20 3.027462 1_455
Ba0 F4 3.076111 1_555
Ba1 F9 2.738834 1_555
Ba1 O11 2.745367 1_555
Ba1 O15 2.745367 1_455
Ba1 F13 2.792739 1_455
Ba1 F14 2.792739 1_555
Ba1 O1 2.834594 1_455
Ba1 O2 2.834594 1_555
Ba1 O18 3.027462 1_555
Ba1 O17 3.027462 1_455
Ba1 F5 3.076111 1_555
Ba2 F10 2.738834 1_556
Ba2 O9 2.745367 1_545
Ba2 O10 2.745367 1_545
Ba2 F15 2.792739 1_555
Ba2 F19 2.792739 1_555
Ba2 O7 2.834594 1_555
Ba2 O3 2.834594 1_555
Ba2 O23 3.027462 1_555
Ba2 O19 3.027462 1_555
Ba2 F6 3.076111 1_545
Ba3 F11 2.738834 1_554
Ba3 O12 2.745367 1_565
Ba3 O8 2.745367 1_565
Ba3 F18 2.792739 1_555
Ba3 F17 2.792739 1_555
Ba3 O5 2.834594 1_555
Ba3 O6 2.834594 1_555
Ba3 O22 3.027462 1_555
Ba3 O21 3.027462 1_555
Ba3 F7 3.076111 1_565
Ba4 F5 2.627335 1_555
Ba4 F8 2.706529 1_555
Ba4 O7 2.764060 1_455
Ba4 O3 2.764060 1_555
Ba4 F15 2.875466 1_555
Ba4 F19 2.875466 1_455
Ba5 F4 2.627335 1_555
Ba5 F9 2.706529 1_555
Ba5 O5 2.764060 1_455
Ba5 O6 2.764060 1_555
Ba5 F18 2.875466 1_555
Ba5 F17 2.875466 1_455
Ba6 F7 2.627335 1_555
Ba6 F10 2.706529 1_555
Ba6 O0 2.764060 1_555
Ba6 O4 2.764060 1_555
Ba6 F16 2.875466 1_555
Ba6 F12 2.875466 1_555
Ba7 F6 2.627335 1_555
Ba7 F11 2.706529 1_555
Ba7 O1 2.764060 1_555
Ba7 O2 2.764060 1_555
Ba7 F14 2.875466 1_555
Ba7 F13 2.875466 1_555
Ba8 F7 2.763811 1_555
Ba8 F6 2.763811 1_545
Ba8 F12 2.796074 1_555
Ba8 F14 2.796074 1_545
Ba8 O6 2.817135 1_545
Ba8 O3 2.817135 1_555
Ba8 F8 2.832480 1_555
Ba8 F9 2.832480 1_545
Ba8 O16 3.323972 1_555
Ba8 O18 3.323972 1_545
Ba9 F7 2.763811 1_555
Ba9 F6 2.763811 1_545
Ba9 F16 2.796074 1_555
Ba9 F13 2.796074 1_545
Ba9 O5 2.817135 1_545
Ba9 O7 2.817135 1_555
Ba9 F8 2.832480 1_655
Ba9 F9 2.832480 1_645
Ba9 O20 3.323972 1_555
Ba9 O17 3.323972 1_545
Ba10 F4 2.763811 1_555
Ba10 F5 2.763811 1_554
Ba10 F18 2.796074 1_555
Ba10 F15 2.796074 1_554
Ba10 O0 2.817135 1_555
Ba10 O2 2.817135 1_554
Ba10 F11 2.832480 1_554
Ba10 F10 2.832480 1_555
Ba10 O19 3.323972 1_554
Ba10 O22 3.323972 1_555
Ba11 F4 2.763811 1_655
Ba11 F5 2.763811 1_654
Ba11 F17 2.796074 1_555
Ba11 F19 2.796074 1_554
Ba11 O4 2.817135 1_555
Ba11 O1 2.817135 1_554
Ba11 F11 2.832480 1_554
Ba11 F10 2.832480 1_555
Ba11 O23 3.323972 1_554
Ba11 O21 3.323972 1_555
O0 V0 1.714819 1_555
O1 V1 1.714819 1_555
O2 V2 1.714819 1_555
O3 V3 1.714819 1_555
O4 V4 1.714819 1_555
O5 V5 1.714819 1_555
O6 V6 1.714819 1_555
O7 V7 1.714819 1_555
O8 V0 1.670460 1_555
O9 V1 1.670460 1_555
O10 V2 1.670460 1_555
O11 V3 1.670460 1_555
O12 V4 1.670460 1_555
O13 V5 1.670460 1_555
O14 V6 1.670460 1_555
O15 V7 1.670460 1_555
O16 V0 1.970024 1_555
O17 V1 1.970024 1_555
O18 V2 1.970024 1_555
O19 V3 1.970024 1_555
O20 V4 1.970024 1_555
O21 V5 1.970024 1_555
O22 V6 1.970024 1_555
O23 V7 1.970024 1_555
O24 O25 1.465300 1_455
O24 V0 2.184406 1_555
O24 V2 2.184406 1_544
O25 V4 2.184406 1_555
O25 V1 2.184406 1_544
O26 O27 1.465300 1_555
O26 V6 2.184406 1_555
O26 V3 2.184406 1_555
O27 V5 2.184406 1_555
O27 V7 2.184406 1_555
F0 V4 2.026865 1_455
F0 V0 2.026865 1_555
F1 V1 2.026865 1_455
F1 V2 2.026865 1_555
F2 V7 2.026865 1_555
F2 V3 2.026865 1_555
F3 V5 2.026865 1_555
F3 V6 2.026865 1_555
F12 V3 1.964518 1_555
F13 V5 1.964518 1_555
F14 V6 1.964518 1_555
F15 V0 1.964518 1_556
F16 V7 1.964518 1_555
F17 V1 1.964518 1_554
F18 V2 1.964518 1_554
F19 V4 1.964518 1_556
