# generated using pymatgen
data_Ag3Ge5P6
_symmetry_space_group_name_H-M   'P 1'
_cell_length_a   8.96751863
_cell_length_b   8.96751886
_cell_length_c   8.96751506
_cell_angle_alpha   109.47122650
_cell_angle_beta   109.47124834
_cell_angle_gamma   109.47124116
_symmetry_Int_Tables_number   1
_chemical_formula_structural   Ag3Ge5P6
_chemical_formula_sum   'Ag6 Ge10 P12'
_cell_volume   555.12977309
_cell_formula_units_Z   2
loop_
 _symmetry_equiv_pos_site_id
 _symmetry_equiv_pos_as_xyz
  1  'x, y, z'
loop_
 _atom_site_type_symbol
 _atom_site_label
 _atom_site_symmetry_multiplicity
 _atom_site_fract_x
 _atom_site_fract_y
 _atom_site_fract_z
 _atom_site_occupancy
  Ag  Ag0  1  0.80432516  -0.00000071  0.80432416  1
  Ag  Ag1  1  0.19567399  0.19567372  -0.00000153  1
  Ag  Ag2  1  0.80432464  0.80432429  -0.00000115  1
  Ag  Ag3  1  -0.00000112  0.19567367  0.19567345  1
  Ag  Ag4  1  -0.00000049  0.80432486  0.80432427  1
  Ag  Ag5  1  0.19567392  -0.00000130  0.19567409  1
  Ge  Ge0  1  0.50000007  0.25000023  0.75000069  1
  Ge  Ge1  1  0.75000037  0.25000035  0.50000031  1
  Ge  Ge2  1  0.25000022  0.75000062  0.50000039  1
  Ge  Ge3  1  0.75000046  0.50000040  0.25000030  1
  Ge  Ge4  1  0.42453213  0.42453195  0.42453219  1
  Ge  Ge5  1  -0.00000069  0.57546558  -0.00000082  1
  Ge  Ge6  1  0.57546608  -0.00000040  -0.00000045  1
  Ge  Ge7  1  -0.00000091  -0.00000047  0.57546590  1
  Ge  Ge8  1  0.25000025  0.50000012  0.75000042  1
  Ge  Ge9  1  0.49999999  0.75000055  0.25000029  1
  P  P0  1  0.51079453  0.51079486  0.74335106  1
  P  P1  1  0.00000191  0.23255815  0.48920670  1
  P  P2  1  0.23255808  0.00000204  0.48920708  1
  P  P3  1  0.76744313  0.25664779  0.76744312  1
  P  P4  1  0.25664800  0.76744333  0.76744352  1
  P  P5  1  0.74335108  0.51079496  0.51079468  1
  P  P6  1  0.51079455  0.74335109  0.51079450  1
  P  P7  1  0.23255802  0.48920657  0.00000182  1
  P  P8  1  0.48920668  0.23255807  0.00000186  1
  P  P9  1  0.76744346  0.76744326  0.25664791  1
  P  P10  1  0.48920684  0.00000191  0.23255832  1
  P  P11  1  0.00000162  0.48920649  0.23255792  1
loop_
_geom_bond_atom_site_label_1
_geom_bond_atom_site_label_2
_geom_bond_distance
_geom_bond_site_symmetry_2
Ag0 P6 2.541192 1_545
Ag0 P3 2.541195 1_555
Ag0 Ge7 3.113147 1_655
Ag0 Ge6 3.113164 1_556
Ag1 P8 2.541201 1_555
Ag1 P7 2.541203 1_555
Ag1 Ge7 3.113147 1_554
Ag1 Ge4 3.113155 1_555
Ag2 P0 2.541189 1_554
Ag2 P9 2.541196 1_555
Ag2 Ge5 3.113156 1_655
Ag2 Ge6 3.113160 1_565
Ag3 P11 2.541204 1_555
Ag3 P1 2.541206 1_555
Ag3 Ge6 3.113150 1_455
Ag3 Ge4 3.113153 1_555
Ag4 P5 2.541190 1_455
Ag4 P4 2.541192 1_555
Ag4 Ge7 3.113153 1_565
Ag4 Ge5 3.113161 1_556
Ag5 P2 2.541203 1_555
Ag5 P10 2.541204 1_555
Ag5 Ge5 3.113153 1_545
Ag5 Ge4 3.113153 1_555
Ge0 P2 2.329843 1_555
Ge0 P8 2.329859 1_556
Ge0 P3 2.329860 1_555
Ge0 P0 2.329861 1_555
Ge1 P10 2.329843 1_555
Ge1 P3 2.329857 1_555
Ge1 P5 2.329860 1_555
Ge1 P1 2.329864 1_655
Ge2 P11 2.329847 1_555
Ge2 P6 2.329859 1_555
Ge2 P4 2.329859 1_555
Ge2 P2 2.329862 1_565
Ge3 P8 2.329845 1_555
Ge3 P5 2.329856 1_555
Ge3 P9 2.329857 1_555
Ge3 P11 2.329862 1_655
Ge4 P0 2.454177 1_555
Ge4 P5 2.454178 1_555
Ge4 P6 2.454182 1_555
Ge5 P3 2.454171 1_454
Ge5 P7 2.454177 1_555
Ge5 P11 2.454177 1_555
Ge6 P4 2.454172 1_544
Ge6 P8 2.454177 1_555
Ge6 P10 2.454178 1_555
Ge7 P9 2.454171 1_445
Ge7 P1 2.454176 1_555
Ge7 P2 2.454178 1_555
Ge8 P1 2.329843 1_555
Ge8 P0 2.329856 1_555
Ge8 P4 2.329860 1_555
Ge8 P7 2.329862 1_556
Ge9 P7 2.329844 1_555
Ge9 P6 2.329855 1_555
Ge9 P10 2.329860 1_565
Ge9 P9 2.329863 1_555
