# generated using pymatgen
data_Na3Mn2P2(CO7)2
_symmetry_space_group_name_H-M   'P 1'
_cell_length_a   8.31963800
_cell_length_b   8.45468125
_cell_length_c   10.28692789
_cell_angle_alpha   108.40612630
_cell_angle_beta   106.45383357
_cell_angle_gamma   103.24811850
_symmetry_Int_Tables_number   1
_chemical_formula_structural   Na3Mn2P2(CO7)2
_chemical_formula_sum   'Na6 Mn4 P4 C4 O28'
_cell_volume   616.77241477
_cell_formula_units_Z   2
loop_
 _symmetry_equiv_pos_site_id
 _symmetry_equiv_pos_as_xyz
  1  'x, y, z'
loop_
 _atom_site_type_symbol
 _atom_site_label
 _atom_site_symmetry_multiplicity
 _atom_site_fract_x
 _atom_site_fract_y
 _atom_site_fract_z
 _atom_site_occupancy
  Na  Na0  1  0.76535800  0.76792400  0.76652900  1
  Na  Na1  1  0.27092200  0.23174500  0.75073800  1
  Na  Na2  1  0.99586700  0.50830200  0.76287800  1
  Na  Na3  1  0.00413300  0.49169800  0.23712200  1
  Na  Na4  1  0.72907800  0.76825500  0.24926200  1
  Na  Na5  1  0.23464200  0.23207600  0.23347100  1
  Mn  Mn0  1  0.79807700  0.06114900  0.65245500  1
  Mn  Mn1  1  0.30788800  0.56160700  0.65054900  1
  Mn  Mn2  1  0.69211200  0.43839300  0.34945100  1
  Mn  Mn3  1  0.20192300  0.93885100  0.34754500  1
  P  P0  1  0.05532600  0.80006400  0.57196900  1
  P  P1  1  0.55238100  0.31442300  0.57549600  1
  P  P2  1  0.44761900  0.68557700  0.42450400  1
  P  P3  1  0.94467400  0.19993600  0.42803100  1
  C  C0  1  0.97267700  0.21886100  0.92064600  1
  C  C1  1  0.46718200  0.72200800  0.92023900  1
  C  C2  1  0.53281800  0.27799200  0.07976100  1
  C  C3  1  0.02732300  0.78113900  0.07935400  1
  O  O0  1  0.94205800  0.70219600  0.94211800  1
  O  O1  1  0.44844800  0.20315100  0.94479500  1
  O  O2  1  0.31778100  0.57967500  0.85196900  1
  O  O3  1  0.82525900  0.07880500  0.85630600  1
  O  O4  1  0.01940700  0.26688100  0.82213400  1
  O  O5  1  0.51233900  0.76879100  0.82025400  1
  O  O6  1  0.15594600  0.70680800  0.65861100  1
  O  O7  1  0.97666500  0.90359600  0.67234200  1
  O  O8  1  0.66817900  0.24807500  0.67363400  1
  O  O9  1  0.46815700  0.42390000  0.67317300  1
  O  O10  1  0.59391200  0.83191300  0.57035700  1
  O  O11  1  0.67990200  0.44884500  0.53842300  1
  O  O12  1  0.18135200  0.92877600  0.53292500  1
  O  O13  1  0.09366200  0.34384800  0.57917900  1
  O  O14  1  0.90633800  0.65615200  0.42082100  1
  O  O15  1  0.32009800  0.55115500  0.46157700  1
  O  O16  1  0.81864800  0.07122400  0.46707500  1
  O  O17  1  0.40608800  0.16808700  0.42964300  1
  O  O18  1  0.33182100  0.75192500  0.32636600  1
  O  O19  1  0.53184300  0.57610000  0.32682700  1
  O  O20  1  0.84405400  0.29319200  0.34138900  1
  O  O21  1  0.02333500  0.09640400  0.32765800  1
  O  O22  1  0.48766100  0.23120900  0.17974600  1
  O  O23  1  0.98059300  0.73311900  0.17786600  1
  O  O24  1  0.68221900  0.42032500  0.14803100  1
  O  O25  1  0.17474100  0.92119500  0.14369400  1
  O  O26  1  0.05794200  0.29780400  0.05788200  1
  O  O27  1  0.55155200  0.79684900  0.05520500  1
loop_
_geom_bond_atom_site_label_1
_geom_bond_atom_site_label_2
_geom_bond_distance
_geom_bond_site_symmetry_2
Na0 O0 2.288373 1_555
Na0 O5 2.323828 1_555
Na0 O3 2.369758 1_565
Na0 O10 2.410833 1_555
Na0 O7 2.467298 1_555
Na0 O11 2.732683 1_555
Na1 O1 2.241218 1_555
Na1 O4 2.454383 1_555
Na1 O9 2.511391 1_555
Na1 O13 2.531862 1_555
Na1 O12 2.586865 1_545
Na1 O2 2.683201 1_555
Na1 O7 2.948985 1_445
Na2 O0 2.276539 1_555
Na2 O4 2.340399 1_655
Na2 O13 2.428249 1_655
Na2 O2 2.428259 1_655
Na2 O6 2.581157 1_655
Na2 O8 2.770078 1_555
Na2 O11 2.777974 1_555
Na3 O26 2.276539 1_555
Na3 O23 2.340399 1_455
Na3 O14 2.428249 1_455
Na3 O24 2.428259 1_455
Na3 O20 2.581157 1_455
Na3 O18 2.770078 1_555
Na3 O15 2.777974 1_555
Na4 O27 2.241218 1_555
Na4 O23 2.454383 1_555
Na4 O19 2.511391 1_555
Na4 O14 2.531862 1_555
Na4 O16 2.586865 1_565
Na4 O24 2.683201 1_555
Na4 O21 2.948985 1_665
Na5 O26 2.288373 1_555
Na5 O22 2.323828 1_555
Na5 O25 2.369758 1_545
Na5 O17 2.410833 1_555
Na5 O21 2.467298 1_555
Na5 O15 2.732683 1_555
Mn0 O16 1.988452 1_555
Mn0 O3 1.997259 1_555
Mn0 O10 1.999892 1_545
Mn0 O4 2.063216 1_655
Mn0 O8 2.100430 1_555
Mn0 O7 2.220546 1_545
Mn1 O15 1.950521 1_555
Mn1 O6 1.954039 1_555
Mn1 O9 1.973433 1_555
Mn1 O13 2.001584 1_555
Mn1 O2 2.005247 1_555
Mn1 O5 2.007576 1_555
Mn2 O11 1.950521 1_555
Mn2 O20 1.954039 1_555
Mn2 O19 1.973433 1_555
Mn2 O14 2.001584 1_555
Mn2 O24 2.005247 1_555
Mn2 O22 2.007576 1_555
Mn3 O12 1.988452 1_555
Mn3 O25 1.997259 1_555
Mn3 O17 1.999892 1_565
Mn3 O23 2.063216 1_455
Mn3 O18 2.100430 1_555
Mn3 O21 2.220546 1_565
C0 O26 1.249938 1_656
C0 O3 1.313022 1_555
C0 O4 1.324231 1_655
C1 O27 1.228935 1_556
C1 O5 1.327848 1_555
C1 O2 1.331367 1_555
C2 O1 1.228935 1_554
C2 O22 1.327848 1_555
C2 O24 1.331367 1_555
C3 O0 1.249938 1_454
C3 O25 1.313022 1_555
C3 O23 1.324231 1_455
O6 P0 1.562189 1_555
O7 P0 1.528132 1_655
O8 P1 1.521948 1_555
O9 P1 1.570393 1_555
O10 P2 1.538278 1_555
O11 P1 1.585214 1_555
O12 P0 1.560924 1_555
O13 P3 1.567385 1_455
O14 P0 1.567385 1_655
O15 P2 1.585214 1_555
O16 P3 1.560924 1_555
O17 P1 1.538278 1_555
O18 P2 1.521948 1_555
O19 P2 1.570393 1_555
O20 P3 1.562189 1_555
O21 P3 1.528132 1_455
