# generated using pymatgen
data_La8(BiSb)3
_symmetry_space_group_name_H-M   'P 1'
_cell_length_a   8.48575850
_cell_length_b   8.48576056
_cell_length_c   9.78874832
_cell_angle_alpha   54.80893086
_cell_angle_beta   54.80893579
_cell_angle_gamma   70.52434190
_symmetry_Int_Tables_number   1
_chemical_formula_structural   La8(BiSb)3
_chemical_formula_sum   'La8 Bi3 Sb3'
_cell_volume   470.76207842
_cell_formula_units_Z   1
loop_
 _symmetry_equiv_pos_site_id
 _symmetry_equiv_pos_as_xyz
  1  'x, y, z'
loop_
 _atom_site_type_symbol
 _atom_site_label
 _atom_site_symmetry_multiplicity
 _atom_site_fract_x
 _atom_site_fract_y
 _atom_site_fract_z
 _atom_site_occupancy
  La  La0  1  0.35115808  0.99654223  0.25911854  1
  La  La1  1  0.14118451  0.49812324  0.11236808  1
  La  La2  1  0.50187676  0.85881449  0.88763292  1
  La  La3  1  0.00345777  0.64884292  0.74088046  1
  La  La4  1  0.64336315  0.50356195  0.60437342  1
  La  La5  1  0.85656765  0.99413818  0.25876124  1
  La  La6  1  0.49643805  0.35663685  0.39562658  1
  La  La7  1  0.00586182  0.14343235  0.74123876  1
  Bi  Bi0  1  0.24784500  0.24993084  0.87772690  1
  Bi  Bi1  1  0.75006916  0.75215500  0.12227310  1
  Bi  Bi2  1  0.62781314  0.37218686  0.00000000  1
  Sb  Sb0  1  0.87251661  0.12748339  0.50000000  1
  Sb  Sb1  1  0.12697320  0.62512491  0.37307120  1
  Sb  Sb2  1  0.37487509  0.87302680  0.62692880  1
loop_
_geom_bond_atom_site_label_1
_geom_bond_atom_site_label_2
_geom_bond_distance
_geom_bond_site_symmetry_2
La0 Sb2 3.232171 1_555
La0 Sb0 3.501886 1_465
La0 Sb1 3.506700 1_555
La1 Sb1 3.227550 1_555
La1 Sb0 3.246931 1_455
La1 Sb2 3.543262 1_554
La2 Sb2 3.227554 1_555
La2 Sb0 3.246936 1_565
La2 Sb1 3.543257 1_556
La3 Sb1 3.232167 1_555
La3 Sb0 3.501879 1_465
La3 Sb2 3.506699 1_555
La4 Sb2 3.244065 1_555
La4 Sb0 3.512800 1_555
La4 Sb1 3.528853 1_655
La5 Sb0 3.228826 1_565
La5 Sb1 3.232995 1_655
La5 Sb2 3.507873 1_555
La6 Sb1 3.244064 1_555
La6 Sb0 3.512799 1_555
La6 Sb2 3.528854 1_545
La7 Sb0 3.228826 1_455
La7 Sb2 3.232995 1_545
La7 Sb1 3.507874 1_555
Bi0 La2 3.281887 1_545
Bi0 La5 3.293576 1_446
Bi0 La3 3.293664 1_555
Bi0 La4 3.299134 1_555
Bi0 La6 3.523421 1_555
Bi0 La1 3.526862 1_556
Bi0 La0 3.548635 1_546
Bi0 La7 3.550979 1_555
Bi1 La1 3.281882 1_655
Bi1 La7 3.293576 1_664
Bi1 La0 3.293657 1_555
Bi1 La6 3.299134 1_555
Bi1 La4 3.523421 1_555
Bi1 La2 3.526856 1_554
Bi1 La3 3.548639 1_654
Bi1 La5 3.550980 1_555
Bi2 La4 3.284940 1_554
Bi2 La6 3.284940 1_555
Bi2 La0 3.303544 1_545
Bi2 La3 3.303547 1_654
Bi2 La2 3.546955 1_554
Bi2 La1 3.546960 1_555
Bi2 La5 3.553069 1_545
Bi2 La7 3.553069 1_654
