# generated using pymatgen
data_K5Li2PrF10
_symmetry_space_group_name_H-M   'P 1'
_cell_length_a   7.01375600
_cell_length_b   7.85906600
_cell_length_c   21.00590100
_cell_angle_alpha   90.00000000
_cell_angle_beta   90.00000000
_cell_angle_gamma   90.00000000
_symmetry_Int_Tables_number   1
_chemical_formula_structural   K5Li2PrF10
_chemical_formula_sum   'K20 Li8 Pr4 F40'
_cell_volume   1157.87826994
_cell_formula_units_Z   4
loop_
 _symmetry_equiv_pos_site_id
 _symmetry_equiv_pos_as_xyz
  1  'x, y, z'
loop_
 _atom_site_type_symbol
 _atom_site_label
 _atom_site_symmetry_multiplicity
 _atom_site_fract_x
 _atom_site_fract_y
 _atom_site_fract_z
 _atom_site_occupancy
  K  K0  1  0.74796900  0.47829800  0.45667800  1
  K  K1  1  0.75203100  0.02170200  0.95667800  1
  K  K2  1  0.25203100  0.97829800  0.54332200  1
  K  K3  1  0.24796900  0.52170200  0.04332200  1
  K  K4  1  0.25203100  0.52170200  0.54332200  1
  K  K5  1  0.24796900  0.97829800  0.04332200  1
  K  K6  1  0.74796900  0.02170200  0.45667800  1
  K  K7  1  0.75203100  0.47829800  0.95667800  1
  K  K8  1  0.57315000  0.52743500  0.28297200  1
  K  K9  1  0.92685000  0.97256500  0.78297200  1
  K  K10  1  0.42685000  0.02743500  0.71702800  1
  K  K11  1  0.07315000  0.47256500  0.21702800  1
  K  K12  1  0.42685000  0.47256500  0.71702800  1
  K  K13  1  0.07315000  0.02743500  0.21702800  1
  K  K14  1  0.57315000  0.97256500  0.28297200  1
  K  K15  1  0.92685000  0.52743500  0.78297200  1
  K  K16  1  0.06115200  0.75000000  0.35950600  1
  K  K17  1  0.43884800  0.75000000  0.85950600  1
  K  K18  1  0.93884800  0.25000000  0.64049400  1
  K  K19  1  0.56115200  0.25000000  0.14049400  1
  Li  Li0  1  0.03092000  0.75000000  0.92270500  1
  Li  Li1  1  0.46908000  0.75000000  0.42270500  1
  Li  Li2  1  0.96908000  0.25000000  0.07729500  1
  Li  Li3  1  0.53092000  0.25000000  0.57729500  1
  Li  Li4  1  0.15957400  0.75000000  0.67356900  1
  Li  Li5  1  0.34042600  0.75000000  0.17356900  1
  Li  Li6  1  0.84042600  0.25000000  0.32643100  1
  Li  Li7  1  0.65957400  0.25000000  0.82643100  1
  Pr  Pr0  1  0.76062900  0.75000000  0.10725200  1
  Pr  Pr1  1  0.73937100  0.75000000  0.60725200  1
  Pr  Pr2  1  0.23937100  0.25000000  0.89274800  1
  Pr  Pr3  1  0.26062900  0.25000000  0.39274800  1
  F  F0  1  0.95325100  0.75000000  0.00871000  1
  F  F1  1  0.54674900  0.75000000  0.50871000  1
  F  F2  1  0.04674900  0.25000000  0.99129000  1
  F  F3  1  0.45325100  0.25000000  0.49129000  1
  F  F4  1  0.54268200  0.75000000  0.01953400  1
  F  F5  1  0.95731800  0.75000000  0.51953400  1
  F  F6  1  0.45731800  0.25000000  0.98046600  1
  F  F7  1  0.04268200  0.25000000  0.48046600  1
  F  F8  1  0.84143900  0.45808400  0.08998300  1
  F  F9  1  0.65856100  0.04191600  0.58998300  1
  F  F10  1  0.15856100  0.95808400  0.91001700  1
  F  F11  1  0.34143900  0.54191600  0.41001700  1
  F  F12  1  0.15856100  0.54191600  0.91001700  1
  F  F13  1  0.34143900  0.95808400  0.41001700  1
  F  F14  1  0.84143900  0.04191600  0.08998300  1
  F  F15  1  0.65856100  0.45808400  0.58998300  1
  F  F16  1  0.49625500  0.57400800  0.14760700  1
  F  F17  1  0.00374500  0.92599200  0.64760700  1
  F  F18  1  0.50374500  0.07400800  0.85239300  1
  F  F19  1  0.99625500  0.42599200  0.35239300  1
  F  F20  1  0.50374500  0.42599200  0.85239300  1
  F  F21  1  0.99625500  0.07400800  0.35239300  1
  F  F22  1  0.49625500  0.92599200  0.14760700  1
  F  F23  1  0.00374500  0.57400800  0.64760700  1
  F  F24  1  0.80745500  0.75000000  0.21898100  1
  F  F25  1  0.69254500  0.75000000  0.71898100  1
  F  F26  1  0.19254500  0.25000000  0.78101900  1
  F  F27  1  0.30745500  0.25000000  0.28101900  1
  F  F28  1  0.68685700  0.75000000  0.37373600  1
  F  F29  1  0.81314300  0.75000000  0.87373600  1
  F  F30  1  0.31314300  0.25000000  0.62626400  1
  F  F31  1  0.18685700  0.25000000  0.12626400  1
  F  F32  1  0.20889300  0.75000000  0.75969600  1
  F  F33  1  0.29110700  0.75000000  0.25969600  1
  F  F34  1  0.79110700  0.25000000  0.24030400  1
  F  F35  1  0.70889300  0.25000000  0.74030400  1
  F  F36  1  0.39420700  0.75000000  0.63127700  1
  F  F37  1  0.10579300  0.75000000  0.13127700  1
  F  F38  1  0.60579300  0.25000000  0.36872300  1
  F  F39  1  0.89420700  0.25000000  0.86872300  1
loop_
_geom_bond_atom_site_label_1
_geom_bond_atom_site_label_2
_geom_bond_distance
_geom_bond_site_symmetry_2
F0 Li0 1.886956 1_654
F0 Pr0 2.471833 1_555
F0 K1 2.783164 1_564
F0 K7 2.783164 1_554
F0 K3 2.832069 1_655
F0 K5 2.832069 1_655
F1 Li1 1.886956 1_555
F1 Pr1 2.471833 1_555
F1 K6 2.783164 1_565
F1 K0 2.783164 1_555
F1 K4 2.832069 1_555
F1 K2 2.832069 1_555
F2 Li2 1.886956 1_456
F2 Pr2 2.471833 1_555
F2 K3 2.783164 1_556
F2 K5 2.783164 1_546
F2 K1 2.832069 1_455
F2 K7 2.832069 1_455
F3 Li3 1.886956 1_555
F3 Pr3 2.471833 1_555
F3 K2 2.783164 1_545
F3 K4 2.783164 1_555
F3 K6 2.832069 1_555
F3 K0 2.832069 1_555
F4 Pr0 2.394130 1_555
F4 K5 2.782364 1_555
F4 K3 2.782364 1_555
F4 K1 2.908418 1_564
F4 K7 2.908418 1_554
F5 Pr1 2.394130 1_555
F5 K4 2.782364 1_655
F5 K2 2.782364 1_655
F5 K6 2.908418 1_565
F5 K0 2.908418 1_555
F6 Pr2 2.394130 1_555
F6 K1 2.782364 1_555
F6 K7 2.782364 1_555
F6 K3 2.908418 1_556
F6 K5 2.908418 1_546
F7 Pr3 2.394130 1_555
F7 K6 2.782364 1_455
F7 K0 2.782364 1_455
F7 K2 2.908418 1_545
F7 K4 2.908418 1_555
F8 Li2 1.883308 1_555
F8 Pr0 2.390842 1_555
F8 K19 2.768531 1_555
F8 K7 2.873943 1_554
F8 K3 3.056241 1_655
F8 K11 3.126666 1_655
F9 Li3 1.883308 1_555
F9 Pr1 2.390842 1_545
F9 K18 2.768531 1_555
F9 K6 2.873943 1_555
F9 K2 3.056241 1_545
F9 K10 3.126666 1_555
F10 Li0 1.883308 1_555
F10 Pr2 2.390842 1_565
F10 K17 2.768531 1_555
F10 K5 2.873943 1_556
F10 K1 3.056241 1_465
F10 K9 3.126666 1_455
F11 Li1 1.883308 1_555
F11 Pr3 2.390842 1_555
F11 K16 2.768531 1_555
F11 K4 2.873943 1_555
F11 K0 3.056241 1_555
F11 K8 3.126666 1_555
F12 Li0 1.883308 1_555
F12 Pr2 2.390842 1_555
F12 K17 2.768531 1_555
F12 K3 2.873943 1_556
F12 K7 3.056241 1_455
F12 K15 3.126666 1_455
F13 Li1 1.883308 1_555
F13 Pr3 2.390842 1_565
F13 K16 2.768531 1_555
F13 K2 2.873943 1_555
F13 K6 3.056241 1_565
F13 K14 3.126666 1_555
F14 Li2 1.883308 1_555
F14 Pr0 2.390842 1_545
F14 K19 2.768531 1_555
F14 K1 2.873943 1_554
F14 K5 3.056241 1_645
F14 K13 3.126666 1_655
F15 Li3 1.883308 1_555
F15 Pr1 2.390842 1_555
F15 K18 2.768531 1_555
F15 K0 2.873943 1_555
F15 K4 3.056241 1_555
F15 K12 3.126666 1_555
F16 Li5 1.845264 1_555
F16 Pr0 2.463717 1_555
F16 K19 2.591073 1_555
F16 K3 2.828471 1_555
F16 K8 2.917212 1_555
F17 Li4 1.845264 1_555
F17 Pr1 2.463717 1_455
F17 K18 2.591073 1_465
F17 K2 2.828471 1_555
F17 K9 2.917212 1_455
F18 Li7 1.845264 1_555
F18 Pr2 2.463717 1_555
F18 K17 2.591073 1_545
F18 K1 2.828471 1_555
F18 K10 2.917212 1_555
F19 Li6 1.845264 1_555
F19 Pr3 2.463717 1_655
F19 K16 2.591073 1_655
F19 K0 2.828471 1_555
F19 K11 2.917212 1_655
F20 Li7 1.845264 1_555
F20 Pr2 2.463717 1_555
F20 K17 2.591073 1_555
F20 K7 2.828471 1_555
F20 K12 2.917212 1_555
F21 Li6 1.845264 1_555
F21 Pr3 2.463717 1_655
F21 K16 2.591073 1_645
F21 K6 2.828471 1_555
F21 K13 2.917212 1_655
F22 Li5 1.845264 1_555
F22 Pr0 2.463717 1_555
F22 K19 2.591073 1_565
F22 K5 2.828471 1_555
F22 K14 2.917212 1_555
F23 Li4 1.845264 1_555
F23 Pr1 2.463717 1_455
F23 K18 2.591073 1_455
F23 K4 2.828471 1_555
F23 K15 2.917212 1_455
F24 Pr0 2.369836 1_555
F24 K14 2.750819 1_555
F24 K8 2.750819 1_555
F24 K13 2.868527 1_665
F24 K11 2.868527 1_655
F25 Pr1 2.369836 1_555
F25 K9 2.750819 1_555
F25 K15 2.750819 1_555
F25 K10 2.868527 1_565
F25 K12 2.868527 1_555
F26 Pr2 2.369836 1_555
F26 K12 2.750819 1_555
F26 K10 2.750819 1_555
F26 K15 2.868527 1_455
F26 K9 2.868527 1_445
F27 Pr3 2.369836 1_555
F27 K11 2.750819 1_555
F27 K13 2.750819 1_555
F27 K8 2.868527 1_555
F27 K14 2.868527 1_545
F28 Li1 1.841508 1_555
F28 K16 2.642177 1_655
F28 K14 2.707510 1_555
F28 K8 2.707510 1_555
F28 K6 2.789057 1_565
F28 K0 2.789057 1_555
F29 Li0 1.841508 1_655
F29 K17 2.642177 1_555
F29 K9 2.707510 1_555
F29 K15 2.707510 1_555
F29 K1 2.789057 1_565
F29 K7 2.789057 1_555
F30 Li3 1.841508 1_555
F30 K18 2.642177 1_455
F30 K12 2.707510 1_555
F30 K10 2.707510 1_555
F30 K2 2.789057 1_545
F30 K4 2.789057 1_555
F31 Li2 1.841508 1_455
F31 K19 2.642177 1_555
F31 K11 2.707510 1_555
F31 K13 2.707510 1_555
F31 K5 2.789057 1_545
F31 K3 2.789057 1_555
F32 Li4 1.841947 1_555
F32 K17 2.645186 1_555
F32 K9 2.685478 1_455
F32 K15 2.685478 1_455
F32 K10 2.809678 1_565
F32 K12 2.809678 1_555
F33 Li5 1.841947 1_555
F33 K16 2.645186 1_555
F33 K14 2.685478 1_555
F33 K8 2.685478 1_555
F33 K13 2.809678 1_565
F33 K11 2.809678 1_555
F34 Li6 1.841947 1_555
F34 K19 2.645186 1_555
F34 K11 2.685478 1_655
F34 K13 2.685478 1_655
F34 K8 2.809678 1_555
F34 K14 2.809678 1_545
F35 Li7 1.841947 1_555
F35 K18 2.645186 1_555
F35 K12 2.685478 1_555
F35 K10 2.685478 1_555
F35 K15 2.809678 1_555
F35 K9 2.809678 1_545
F36 Li4 1.870137 1_555
F36 Pr1 2.472939 1_555
F36 K2 2.761720 1_555
F36 K4 2.761720 1_555
F36 K10 2.837441 1_565
F36 K12 2.837441 1_555
F37 Li5 1.870137 1_555
F37 Pr0 2.472939 1_455
F37 K5 2.761720 1_555
F37 K3 2.761720 1_555
F37 K13 2.837441 1_565
F37 K11 2.837441 1_555
F38 Li6 1.870137 1_555
F38 Pr3 2.472939 1_555
F38 K6 2.761720 1_555
F38 K0 2.761720 1_555
F38 K8 2.837441 1_555
F38 K14 2.837441 1_545
F39 Li7 1.870137 1_555
F39 Pr2 2.472939 1_655
F39 K1 2.761720 1_555
F39 K7 2.761720 1_555
F39 K15 2.837441 1_555
F39 K9 2.837441 1_545
