# generated using pymatgen
data_CeCu4Sn
_symmetry_space_group_name_H-M   'P 1'
_cell_length_a   5.13132200
_cell_length_b   7.30336700
_cell_length_c   11.05565600
_cell_angle_alpha   90.00000000
_cell_angle_beta   90.00000000
_cell_angle_gamma   90.00000000
_symmetry_Int_Tables_number   1
_chemical_formula_structural   CeCu4Sn
_chemical_formula_sum   'Ce4 Cu16 Sn4'
_cell_volume   414.32096561
_cell_formula_units_Z   4
loop_
 _symmetry_equiv_pos_site_id
 _symmetry_equiv_pos_as_xyz
  1  'x, y, z'
loop_
 _atom_site_type_symbol
 _atom_site_label
 _atom_site_symmetry_multiplicity
 _atom_site_fract_x
 _atom_site_fract_y
 _atom_site_fract_z
 _atom_site_occupancy
  Ce  Ce0  1  0.16190500  0.67830600  0.99329900  1
  Ce  Ce1  1  0.66190500  0.32169400  0.50670100  1
  Ce  Ce2  1  0.33809500  0.17830600  0.00670100  1
  Ce  Ce3  1  0.83809500  0.82169400  0.49329900  1
  Cu  Cu0  1  0.06840300  0.95810000  0.80384500  1
  Cu  Cu1  1  0.93159700  0.54190000  0.30384500  1
  Cu  Cu2  1  0.56840300  0.04190000  0.69615500  1
  Cu  Cu3  1  0.85373800  0.63880500  0.74819000  1
  Cu  Cu4  1  0.61184500  0.85906900  0.88457200  1
  Cu  Cu5  1  0.85803500  0.02716000  0.04010200  1
  Cu  Cu6  1  0.35373800  0.36119500  0.75181000  1
  Cu  Cu7  1  0.14196500  0.47284000  0.54010200  1
  Cu  Cu8  1  0.38815500  0.64093100  0.38457200  1
  Cu  Cu9  1  0.64196500  0.52716000  0.95989800  1
  Cu  Cu10  1  0.64626200  0.13880500  0.25181000  1
  Cu  Cu11  1  0.14626200  0.86119500  0.24819000  1
  Cu  Cu12  1  0.35803400  0.97284000  0.45989800  1
  Cu  Cu13  1  0.43159700  0.45810000  0.19615500  1
  Cu  Cu14  1  0.88815500  0.35906900  0.11542800  1
  Cu  Cu15  1  0.11184500  0.14093100  0.61542800  1
  Sn  Sn0  1  0.63661100  0.78984700  0.18239500  1
  Sn  Sn1  1  0.36338900  0.71015300  0.68239500  1
  Sn  Sn2  1  0.13661100  0.21015300  0.31760500  1
  Sn  Sn3  1  0.86338900  0.28984700  0.81760500  1
loop_
_geom_bond_atom_site_label_1
_geom_bond_atom_site_label_2
_geom_bond_distance
_geom_bond_site_symmetry_2
Ce0 Cu9 2.724510 1_555
Ce0 Cu9 2.910844 1_455
Ce0 Cu4 2.918611 1_555
Ce0 Cu0 2.965287 1_555
Ce0 Cu5 3.031559 1_466
Ce0 Cu14 3.038450 1_456
Ce0 Cu13 3.087280 1_556
Ce0 Cu11 3.119552 1_556
Ce0 Cu3 3.150712 1_455
Ce0 Sn0 3.311737 1_556
Ce0 Sn0 3.507079 1_456
Ce0 Sn1 3.596898 1_555
Ce0 Cu6 3.668876 1_555
Ce0 Sn3 3.764070 1_455
Ce1 Cu7 2.724510 1_655
Ce1 Cu7 2.910844 1_555
Ce1 Cu15 2.918611 1_655
Ce1 Cu2 2.965287 1_555
Ce1 Cu12 3.031561 1_545
Ce1 Cu8 3.038450 1_555
Ce1 Cu1 3.087280 1_555
Ce1 Cu10 3.119552 1_555
Ce1 Cu6 3.150712 1_555
Ce1 Sn2 3.311737 1_655
Ce1 Sn2 3.507079 1_555
Ce1 Sn3 3.596898 1_555
Ce1 Cu3 3.668876 1_555
Ce1 Sn1 3.764070 1_555
Ce2 Cu5 2.724510 1_455
Ce2 Cu5 2.910844 1_555
Ce2 Cu14 2.918611 1_455
Ce2 Cu13 2.965287 1_555
Ce2 Cu9 3.031559 1_554
Ce2 Cu4 3.038450 1_544
Ce2 Cu0 3.087280 1_544
Ce2 Cu6 3.119552 1_554
Ce2 Cu10 3.150712 1_555
Ce2 Sn3 3.311737 1_454
Ce2 Sn3 3.507079 1_554
Ce2 Sn2 3.596898 1_555
Ce2 Cu11 3.668876 1_545
Ce2 Sn0 3.764070 1_545
Ce3 Cu12 2.724515 1_555
Ce3 Cu12 2.910840 1_655
Ce3 Cu8 2.918611 1_555
Ce3 Cu1 2.965287 1_555
Ce3 Cu7 3.031559 1_655
Ce3 Cu15 3.038450 1_665
Ce3 Cu2 3.087280 1_565
Ce3 Cu3 3.119552 1_555
Ce3 Cu11 3.150712 1_655
Ce3 Sn1 3.311737 1_555
Ce3 Sn1 3.507079 1_655
Ce3 Sn0 3.596898 1_555
Ce3 Cu10 3.668876 1_565
Ce3 Sn2 3.764070 1_665
Cu0 Cu15 2.484324 1_565
Cu0 Cu4 2.609234 1_455
Cu0 Sn3 2.645776 1_465
Cu0 Cu3 2.651382 1_455
Cu0 Sn1 2.715369 1_555
Cu0 Cu5 2.870898 1_466
Cu0 Cu2 2.893903 1_565
Cu0 Cu2 2.893903 1_465
Cu0 Cu4 3.015924 1_555
Cu1 Cu14 2.484324 1_555
Cu1 Cu8 2.609234 1_655
Cu1 Sn2 2.645776 1_655
Cu1 Cu11 2.651382 1_655
Cu1 Sn0 2.715369 1_555
Cu1 Cu7 2.870898 1_655
Cu1 Cu13 2.893903 1_555
Cu1 Cu13 2.893903 1_655
Cu1 Cu8 3.015924 1_555
Cu2 Cu4 2.484324 1_545
Cu2 Sn1 2.645776 1_545
Cu2 Cu6 2.651382 1_555
Cu2 Sn3 2.715369 1_555
Cu3 Cu4 2.530199 1_555
Cu3 Sn3 2.662067 1_555
Cu3 Sn1 2.670505 1_555
Cu3 Cu9 2.706287 1_555
Cu3 Sn1 2.764024 1_655
Cu3 Cu7 2.991508 1_655
Cu4 Cu5 2.461623 1_566
Cu4 Cu9 2.567770 1_555
Cu4 Sn1 2.793627 1_555
Cu4 Sn0 3.333637 1_556
Cu5 Sn0 2.601855 1_545
Cu5 Sn3 3.119657 1_554
Cu6 Sn1 2.662067 1_555
Cu6 Sn3 2.670505 1_455
Cu6 Cu7 2.706287 1_555
Cu6 Sn3 2.764024 1_555
Cu6 Cu9 2.991508 1_555
Cu7 Cu8 2.461623 1_555
Cu7 Sn1 2.601855 1_555
Cu7 Sn2 3.119657 1_555
Cu8 Sn0 2.793627 1_555
Cu8 Sn1 3.333637 1_555
Cu9 Sn3 2.601855 1_555
Cu9 Sn0 3.119657 1_556
Cu10 Cu14 2.530199 1_555
Cu10 Cu13 2.651382 1_555
Cu10 Sn0 2.662067 1_545
Cu10 Sn2 2.670505 1_655
Cu10 Cu5 2.706287 1_555
Cu10 Sn2 2.764024 1_555
Cu10 Cu12 2.991511 1_545
Cu11 Cu8 2.530199 1_555
Cu11 Sn2 2.662067 1_565
Cu11 Sn0 2.670505 1_555
Cu11 Cu12 2.706285 1_555
Cu11 Sn0 2.764024 1_455
Cu11 Cu5 2.991508 1_465
Cu12 Cu15 2.461620 1_565
Cu12 Cu8 2.567770 1_555
Cu12 Sn2 2.601853 1_565
Cu12 Cu2 2.870900 1_565
Cu12 Sn1 3.119657 1_555
Cu13 Cu8 2.484324 1_555
Cu13 Cu14 2.609234 1_555
Cu13 Sn0 2.645776 1_555
Cu13 Sn2 2.715369 1_555
Cu13 Cu9 2.870898 1_554
Cu13 Cu14 3.015924 1_455
Cu14 Cu9 2.461623 1_554
Cu14 Cu5 2.567770 1_555
Cu14 Sn2 2.793627 1_655
Cu14 Sn3 3.333637 1_554
Cu15 Cu6 2.530199 1_555
Cu15 Cu7 2.567770 1_555
Cu15 Cu2 2.609234 1_555
Cu15 Sn3 2.793627 1_455
Cu15 Cu2 3.015924 1_455
Cu15 Sn2 3.333637 1_555
