# generated using pymatgen
data_CdP6Pb9O26
_symmetry_space_group_name_H-M   'P 1'
_cell_length_a   7.41425900
_cell_length_b   9.90976588
_cell_length_c   9.91378764
_cell_angle_alpha   60.11695643
_cell_angle_beta   89.89453161
_cell_angle_gamma   89.82004276
_symmetry_Int_Tables_number   1
_chemical_formula_structural   CdP6Pb9O26
_chemical_formula_sum   'Cd1 P6 Pb9 O26'
_cell_volume   631.55307013
_cell_formula_units_Z   1
loop_
 _symmetry_equiv_pos_site_id
 _symmetry_equiv_pos_as_xyz
  1  'x, y, z'
loop_
 _atom_site_type_symbol
 _atom_site_label
 _atom_site_symmetry_multiplicity
 _atom_site_fract_x
 _atom_site_fract_y
 _atom_site_fract_z
 _atom_site_occupancy
  Cd  Cd0  1  0.50419200  0.33209600  0.33385900  1
  P  P0  1  0.73976600  0.62293800  0.97759100  1
  P  P1  1  0.74139200  0.40131300  0.62087400  1
  P  P2  1  0.74036200  0.97888800  0.40194300  1
  P  P3  1  0.25680500  0.37360500  0.03190200  1
  P  P4  1  0.25697000  0.59487200  0.37060700  1
  P  P5  1  0.25655700  0.03295300  0.59614400  1
  Pb  Pb0  1  0.72972800  0.99280400  0.76974200  1
  Pb  Pb1  1  0.73776000  0.23590100  0.99629900  1
  Pb  Pb2  1  0.73461700  0.76907200  0.23567800  1
  Pb  Pb3  1  0.24111300  0.00301600  0.23443600  1
  Pb  Pb4  1  0.23645700  0.75939400  0.00957800  1
  Pb  Pb5  1  0.23997300  0.22993500  0.76682300  1
  Pb  Pb6  1  0.99703500  0.66440700  0.66641100  1
  Pb  Pb7  1  0.49161800  0.66378700  0.66816500  1
  Pb  Pb8  1  0.99454500  0.33101100  0.33659000  1
  O  O0  1  0.72682300  0.51112300  0.15599200  1
  O  O1  1  0.72856000  0.33304400  0.50983400  1
  O  O2  1  0.72773500  0.15708300  0.33622300  1
  O  O3  1  0.24399000  0.49237600  0.85548400  1
  O  O4  1  0.24325900  0.65407900  0.48829800  1
  O  O5  1  0.24302300  0.85598800  0.65602800  1
  O  O6  1  0.57472400  0.73769200  0.91402000  1
  O  O7  1  0.57795900  0.35184300  0.73560700  1
  O  O8  1  0.57708400  0.91655900  0.34953900  1
  O  O9  1  0.08253800  0.27281100  0.09321500  1
  O  O10  1  0.08118100  0.63348300  0.26988600  1
  O  O11  1  0.08156000  0.09603400  0.63484700  1
  O  O12  1  0.41600700  0.25711700  0.06789600  1
  O  O13  1  0.41285500  0.68097100  0.25108700  1
  O  O14  1  0.41496900  0.06760300  0.67840800  1
  O  O15  1  0.91160900  0.72829500  0.93347500  1
  O  O16  1  0.91504400  0.34448000  0.72296300  1
  O  O17  1  0.91332900  0.93375400  0.34328300  1
  O  O18  1  0.74600500  0.53201000  0.88663000  1
  O  O19  1  0.74521600  0.58379800  0.52633100  1
  O  O20  1  0.74415400  0.88922600  0.58491800  1
  O  O21  1  0.28510300  0.46159100  0.12547400  1
  O  O22  1  0.28943200  0.41571100  0.45486200  1
  O  O23  1  0.28645900  0.12673200  0.41588500  1
  O  O24  1  0.68597100  0.99461900  0.99230400  1
  O  O25  1  0.18652000  0.98598800  0.00086800  1
loop_
_geom_bond_atom_site_label_1
_geom_bond_atom_site_label_2
_geom_bond_distance
_geom_bond_site_symmetry_2
Cd0 O22 2.374059 1_555
Cd0 O2 2.386850 1_555
Cd0 O23 2.403276 1_555
Cd0 O1 2.416209 1_555
Cd0 O0 2.423190 1_555
Cd0 O21 2.431220 1_555
O0 P0 1.553153 1_554
O0 Pb8 2.671681 1_555
O1 P1 1.556105 1_555
O1 Pb8 2.619369 1_555
O2 P2 1.550578 1_545
O2 Pb8 2.629016 1_555
O3 P3 1.549808 1_556
O3 Pb7 2.562919 1_555
O3 Pb6 2.565372 1_455
O4 P4 1.548309 1_555
O4 Pb6 2.574525 1_455
O4 Pb7 2.600733 1_555
O5 P5 1.549635 1_565
O5 Pb6 2.601466 1_455
O5 Pb7 2.605729 1_555
O6 P0 1.570885 1_555
O6 Pb0 2.483317 1_555
O6 Pb4 2.724821 1_556
O7 P1 1.563782 1_555
O7 Pb1 2.539101 1_555
O7 Pb5 2.734678 1_555
O8 P2 1.563234 1_555
O8 Pb2 2.530401 1_555
O8 Pb3 2.695179 1_565
O9 P3 1.561028 1_555
O9 Pb3 2.597496 1_555
O9 Pb1 2.820740 1_454
O9 Pb8 2.821028 1_455
O10 P4 1.569431 1_555
O10 Pb4 2.516237 1_555
O10 Pb8 2.805325 1_455
O10 Pb2 2.837302 1_455
O11 P5 1.566367 1_555
O11 Pb5 2.568564 1_555
O11 Pb8 2.778156 1_455
O12 P3 1.560669 1_555
O12 Pb1 2.525516 1_554
O12 Pb3 2.572549 1_555
O13 P4 1.568924 1_555
O13 Pb4 2.489579 1_555
O13 Pb2 2.521037 1_555
O14 P5 1.564480 1_555
O14 Pb0 2.478629 1_545
O14 Pb5 2.535213 1_555
O15 P0 1.567145 1_555
O15 Pb4 2.590010 1_656
O15 Pb0 2.658988 1_555
O16 P1 1.559303 1_555
O16 Pb5 2.603115 1_655
O16 Pb1 2.705336 1_555
O17 P2 1.560667 1_555
O17 Pb3 2.608555 1_665
O17 Pb2 2.703799 1_555
O18 P0 1.560940 1_555
O18 Pb1 2.572580 1_555
O18 Pb6 2.664199 1_555
O18 Pb7 2.671085 1_555
O19 P1 1.568696 1_555
O19 Pb2 2.531448 1_555
O19 Pb6 2.678967 1_555
O19 Pb7 2.689300 1_555
O20 P2 1.573132 1_555
O20 Pb0 2.508989 1_555
O20 Pb6 2.705066 1_555
O20 Pb7 2.713154 1_555
O21 P3 1.572466 1_555
O21 Pb4 2.602997 1_555
O21 Pb8 2.828076 1_455
O22 P4 1.558246 1_555
O22 Pb5 2.723078 1_555
O22 Pb8 2.803781 1_455
O23 P5 1.565664 1_555
O23 Pb3 2.656002 1_555
O23 Pb8 2.791648 1_455
O24 Pb0 2.238480 1_555
O24 Pb2 2.360436 1_556
O24 Pb1 2.442602 1_565
O25 Pb4 2.233487 1_555
O25 Pb5 2.407934 1_564
O25 Pb3 2.438705 1_565
