# generated using pymatgen
data_CrPtBr4N5Cl
_symmetry_space_group_name_H-M   'P 1'
_cell_length_a   8.58920200
_cell_length_b   8.79873300
_cell_length_c   17.39621600
_cell_angle_alpha   90.00000000
_cell_angle_beta   90.00000000
_cell_angle_gamma   90.00000000
_symmetry_Int_Tables_number   1
_chemical_formula_structural   CrPtBr4N5Cl
_chemical_formula_sum   'Cr4 Pt4 Br16 N20 Cl4'
_cell_volume   1314.70328203
_cell_formula_units_Z   4
loop_
 _symmetry_equiv_pos_site_id
 _symmetry_equiv_pos_as_xyz
  1  'x, y, z'
loop_
 _atom_site_type_symbol
 _atom_site_label
 _atom_site_symmetry_multiplicity
 _atom_site_fract_x
 _atom_site_fract_y
 _atom_site_fract_z
 _atom_site_occupancy
  Cr  Cr0  1  0.25000000  0.15295000  0.06183000  1
  Cr  Cr1  1  0.75000000  0.84705000  0.93817000  1
  Cr  Cr2  1  0.75000000  0.65295000  0.43817000  1
  Cr  Cr3  1  0.25000000  0.34705000  0.56183000  1
  Pt  Pt0  1  0.25000000  0.65608700  0.16311300  1
  Pt  Pt1  1  0.75000000  0.34391300  0.83688700  1
  Pt  Pt2  1  0.75000000  0.15608700  0.33688700  1
  Pt  Pt3  1  0.25000000  0.84391300  0.66311300  1
  Br  Br0  1  0.25000000  0.55642500  0.03350400  1
  Br  Br1  1  0.75000000  0.44357500  0.96649600  1
  Br  Br2  1  0.75000000  0.05642500  0.46649600  1
  Br  Br3  1  0.25000000  0.94357500  0.53350400  1
  Br  Br4  1  0.03059800  0.15630300  0.34296700  1
  Br  Br5  1  0.96940200  0.84369700  0.65703300  1
  Br  Br6  1  0.96940200  0.65630300  0.15703300  1
  Br  Br7  1  0.53059800  0.84369700  0.65703300  1
  Br  Br8  1  0.03059800  0.34369700  0.84296700  1
  Br  Br9  1  0.46940200  0.15630300  0.34296700  1
  Br  Br10  1  0.46940200  0.34369700  0.84296700  1
  Br  Br11  1  0.53059800  0.65630300  0.15703300  1
  Br  Br12  1  0.25000000  0.75615200  0.29060800  1
  Br  Br13  1  0.75000000  0.24384800  0.70939200  1
  Br  Br14  1  0.75000000  0.25615200  0.20939200  1
  Br  Br15  1  0.25000000  0.74384800  0.79060800  1
  N  N0  1  0.10964300  0.10333300  0.18371500  1
  N  N1  1  0.89035700  0.89666700  0.81628500  1
  N  N2  1  0.89035700  0.60333300  0.31628500  1
  N  N3  1  0.60964300  0.89666700  0.81628500  1
  N  N4  1  0.10964300  0.39666700  0.68371500  1
  N  N5  1  0.39035700  0.10333300  0.18371500  1
  N  N6  1  0.39035700  0.39666700  0.68371500  1
  N  N7  1  0.60964300  0.60333300  0.31628500  1
  N  N8  1  0.11462700  0.27426400  0.04185500  1
  N  N9  1  0.88537300  0.72573600  0.95814500  1
  N  N10  1  0.88537300  0.77426400  0.45814500  1
  N  N11  1  0.61462700  0.72573600  0.95814500  1
  N  N12  1  0.11462700  0.22573600  0.54185500  1
  N  N13  1  0.38537300  0.27426400  0.04185500  1
  N  N14  1  0.38537300  0.22573600  0.54185500  1
  N  N15  1  0.61462700  0.77426400  0.45814500  1
  N  N16  1  0.25000000  0.10415300  0.18511900  1
  N  N17  1  0.75000000  0.89584700  0.81488100  1
  N  N18  1  0.75000000  0.60415300  0.31488100  1
  N  N19  1  0.25000000  0.39584700  0.68511900  1
  Cl  Cl0  1  0.25000000  0.53101100  0.48045800  1
  Cl  Cl1  1  0.75000000  0.46898900  0.51954200  1
  Cl  Cl2  1  0.75000000  0.03101100  0.01954200  1
  Cl  Cl3  1  0.25000000  0.96898900  0.98045800  1
loop_
_geom_bond_atom_site_label_1
_geom_bond_atom_site_label_2
_geom_bond_distance
_geom_bond_site_symmetry_2
Cr0 N13 1.616196 1_555
Cr0 N8 1.616196 1_555
Cr0 N16 2.187315 1_555
Cr0 N5 2.477859 1_555
Cr0 N0 2.477859 1_555
Cr1 N9 1.616196 1_555
Cr1 N11 1.616196 1_555
Cr1 N17 2.187315 1_555
Cr1 N1 2.477859 1_555
Cr1 N3 2.477859 1_555
Cr2 N10 1.616196 1_555
Cr2 N15 1.616196 1_555
Cr2 N18 2.187315 1_555
Cr2 N2 2.477859 1_555
Cr2 N7 2.477859 1_555
Cr3 N14 1.616196 1_555
Cr3 N12 1.616196 1_555
Cr3 N19 2.187315 1_555
Cr3 N6 2.477859 1_555
Cr3 N4 2.477859 1_555
Br0 Pt0 2.419226 1_555
Br1 Pt1 2.419226 1_555
Br2 Pt2 2.419226 1_555
Br3 Pt3 2.419226 1_555
Br4 Pt2 2.412433 1_455
Br5 Pt3 2.412433 1_655
Br6 Pt0 2.412433 1_655
Br7 Pt3 2.412433 1_555
Br8 Pt1 2.412433 1_455
Br9 Pt2 2.412433 1_555
Br10 Pt1 2.412433 1_555
Br11 Pt0 2.412433 1_555
Br12 Pt0 2.386294 1_555
Br13 Pt1 2.386294 1_555
Br14 Pt2 2.386294 1_555
Br15 Pt3 2.386294 1_555
N0 N16 1.205824 1_555
N1 N17 1.205824 1_555
N16 N5 1.205824 1_555
N17 N3 1.205824 1_555
N18 N2 1.205824 1_555
N18 N7 1.205824 1_555
N19 N6 1.205824 1_555
N19 N4 1.205824 1_555
Cl0 Cr3 2.150295 1_555
Cl1 Cr2 2.150295 1_555
Cl2 Cr1 2.150295 1_544
Cl3 Cr0 2.150295 1_566
