# generated using pymatgen
data_MgSi2
_symmetry_space_group_name_H-M   'P 1'
_cell_length_a   6.31555100
_cell_length_b   6.49833382
_cell_length_c   11.10940697
_cell_angle_alpha   89.17862675
_cell_angle_beta   89.91441789
_cell_angle_gamma   88.95451084
_symmetry_Int_Tables_number   1
_chemical_formula_structural   MgSi2
_chemical_formula_sum   'Mg8 Si16'
_cell_volume   455.81317814
_cell_formula_units_Z   8
loop_
 _symmetry_equiv_pos_site_id
 _symmetry_equiv_pos_as_xyz
  1  'x, y, z'
loop_
 _atom_site_type_symbol
 _atom_site_label
 _atom_site_symmetry_multiplicity
 _atom_site_fract_x
 _atom_site_fract_y
 _atom_site_fract_z
 _atom_site_occupancy
  Mg  Mg0  1  0.12832500  0.87095300  0.82743800  1
  Mg  Mg1  1  0.94234400  0.03033500  0.34486200  1
  Mg  Mg2  1  0.29064400  0.51213200  0.65794000  1
  Mg  Mg3  1  0.64525800  0.34508200  0.15575800  1
  Mg  Mg4  1  0.81375200  0.64125500  0.63571000  1
  Mg  Mg5  1  0.11909100  0.43727500  0.17283100  1
  Mg  Mg6  1  0.62911600  0.98857500  0.81541400  1
  Mg  Mg7  1  0.41106200  0.15121200  0.36735600  1
  Si  Si0  1  0.95541300  0.26563900  0.88854400  1
  Si  Si1  1  0.74923700  0.43406500  0.39888100  1
  Si  Si2  1  0.11073600  0.91819500  0.57627200  1
  Si  Si3  1  0.44630500  0.73100400  0.11585100  1
  Si  Si4  1  0.97270400  0.21841100  0.67305100  1
  Si  Si5  1  0.32245500  0.07303500  0.11943200  1
  Si  Si6  1  0.80098400  0.60383800  0.89481200  1
  Si  Si7  1  0.61099800  0.77907300  0.39580900  1
  Si  Si8  1  0.48787600  0.92775700  0.58610100  1
  Si  Si9  1  0.82649000  0.72597500  0.09831600  1
  Si  Si10  1  0.32808500  0.23995500  0.92245800  1
  Si  Si11  1  0.12663200  0.43883300  0.42446100  1
  Si  Si12  1  0.42454100  0.58859000  0.91311400  1
  Si  Si13  1  0.26215400  0.73825900  0.31739100  1
  Si  Si14  1  0.62617200  0.27392000  0.58921900  1
  Si  Si15  1  0.94997600  0.06641800  0.07819800  1
loop_
_geom_bond_atom_site_label_1
_geom_bond_atom_site_label_2
_geom_bond_distance
_geom_bond_site_symmetry_2
Mg0 Si12 2.757265 1_555
Mg0 Si2 2.804908 1_555
Mg0 Si6 2.817128 1_455
Mg0 Si0 2.859559 1_465
Mg0 Si10 2.939865 1_565
Mg0 Si4 2.969650 1_465
Mg1 Si7 2.731318 1_545
Mg1 Si13 2.765852 1_645
Mg1 Si2 2.863106 1_645
Mg1 Si1 2.942250 1_555
Mg1 Si15 2.968780 1_555
Mg1 Si11 3.060456 1_655
Mg2 Si14 2.716394 1_555
Mg2 Si4 2.798732 1_455
Mg2 Si11 2.844141 1_555
Mg2 Si2 2.983638 1_555
Mg2 Si12 3.010166 1_555
Mg2 Si8 3.088889 1_555
Mg3 Si5 2.756593 1_555
Mg3 Si15 2.763653 1_555
Mg3 Si9 2.810636 1_555
Mg3 Si3 2.814151 1_555
Mg3 Si1 2.850381 1_555
Mg4 Si2 2.697797 1_655
Mg4 Si14 2.740193 1_555
Mg4 Si8 2.799973 1_555
Mg4 Si6 2.886376 1_555
Mg4 Si4 2.932243 1_555
Mg4 Si1 3.004310 1_555
Mg4 Si7 3.073230 1_555
Mg5 Si13 2.716600 1_555
Mg5 Si9 2.730076 1_455
Mg5 Si5 2.744267 1_555
Mg5 Si11 2.796103 1_555
Mg5 Si15 2.867717 1_455
Mg5 Si3 2.901723 1_555
Mg6 Si8 2.736843 1_555
Mg6 Si10 2.762744 1_565
Mg6 Si6 2.836824 1_555
Mg6 Si0 2.886293 1_565
Mg6 Si4 3.079126 1_565
Mg6 Si14 3.101382 1_565
Mg6 Si12 3.104971 1_555
Mg7 Si11 2.651551 1_555
Mg7 Si7 2.722183 1_545
Mg7 Si8 2.850624 1_545
Mg7 Si5 2.865736 1_555
Mg7 Si1 2.868204 1_555
Mg7 Si13 2.920634 1_545
Mg7 Si14 2.943200 1_555
Si0 Si10 2.386606 1_655
Si0 Si6 2.389989 1_555
Si0 Si4 2.420002 1_555
Si0 Si15 2.457559 1_556
Si1 Si7 2.390882 1_555
Si1 Si11 2.401574 1_655
Si1 Si14 2.473841 1_555
Si2 Si8 2.386494 1_555
Si2 Si4 2.391068 1_465
Si3 Si5 2.343604 1_565
Si3 Si9 2.408342 1_555
Si6 Si9 2.413367 1_556
Si7 Si8 2.456326 1_555
Si10 Si12 2.357541 1_555
Si10 Si5 2.428882 1_556
Si11 Si13 2.434097 1_555
Si12 Si6 2.389556 1_555
Si12 Si3 2.452241 1_556
Si13 Si7 2.390985 1_555
Si13 Si3 2.522132 1_555
Si14 Si4 2.398924 1_555
Si14 Si8 2.428631 1_545
Si15 Si9 2.366592 1_545
Si15 Si5 2.398541 1_655
