# generated using pymatgen
data_K3PrF6
_symmetry_space_group_name_H-M   'P 1'
_cell_length_a   6.84246302
_cell_length_b   6.84246302
_cell_length_c   6.84246302
_cell_angle_alpha   60.00000000
_cell_angle_beta   60.00000000
_cell_angle_gamma   60.00000000
_symmetry_Int_Tables_number   1
_chemical_formula_structural   K3PrF6
_chemical_formula_sum   'K3 Pr1 F6'
_cell_volume   226.52825453
_cell_formula_units_Z   1
loop_
 _symmetry_equiv_pos_site_id
 _symmetry_equiv_pos_as_xyz
  1  'x, y, z'
loop_
 _atom_site_type_symbol
 _atom_site_label
 _atom_site_symmetry_multiplicity
 _atom_site_fract_x
 _atom_site_fract_y
 _atom_site_fract_z
 _atom_site_occupancy
  K  K0  1  0.75000000  0.75000000  0.75000000  1
  K  K1  1  0.25000000  0.25000000  0.25000000  1
  K  K2  1  0.50000000  0.50000000  0.50000000  1
  Pr  Pr0  1  0.00000000  0.00000000  0.00000000  1
  F  F0  1  0.76293500  0.23706500  0.23706500  1
  F  F1  1  0.23706500  0.23706500  0.76293500  1
  F  F2  1  0.23706500  0.76293500  0.76293500  1
  F  F3  1  0.23706500  0.76293500  0.23706500  1
  F  F4  1  0.76293500  0.23706500  0.76293500  1
  F  F5  1  0.76293500  0.76293500  0.23706500  1
loop_
_geom_bond_atom_site_label_1
_geom_bond_atom_site_label_2
_geom_bond_distance
_geom_bond_site_symmetry_2
F0 Pr0 2.294008 1_655
F0 K2 2.544344 1_555
F1 Pr0 2.294008 1_556
F1 K2 2.544344 1_555
F2 Pr0 2.294008 1_566
F2 K2 2.544344 1_555
F3 Pr0 2.294008 1_565
F3 K2 2.544344 1_555
F4 Pr0 2.294008 1_656
F4 K2 2.544344 1_555
F5 Pr0 2.294008 1_665
F5 K2 2.544344 1_555
