# generated using pymatgen
data_Al5Sb3O16
_symmetry_space_group_name_H-M   'P 1'
_cell_length_a   7.52435918
_cell_length_b   7.52435918
_cell_length_c   4.52546101
_cell_angle_alpha   89.30993663
_cell_angle_beta   89.30993663
_cell_angle_gamma   101.38957270
_symmetry_Int_Tables_number   1
_chemical_formula_structural   Al5Sb3O16
_chemical_formula_sum   'Al5 Sb3 O16'
_cell_volume   251.12243725
_cell_formula_units_Z   1
loop_
 _symmetry_equiv_pos_site_id
 _symmetry_equiv_pos_as_xyz
  1  'x, y, z'
loop_
 _atom_site_type_symbol
 _atom_site_label
 _atom_site_symmetry_multiplicity
 _atom_site_fract_x
 _atom_site_fract_y
 _atom_site_fract_z
 _atom_site_occupancy
  Al  Al0  1  0.61329400  0.86438600  0.99927000  1
  Al  Al1  1  0.38670600  0.13561400  0.00073000  1
  Al  Al2  1  0.13561400  0.38670600  0.00073000  1
  Al  Al3  1  0.86438600  0.61329400  0.99927000  1
  Al  Al4  1  0.00000000  0.00000000  0.00000000  1
  Sb  Sb0  1  0.76923100  0.23076900  0.50000000  1
  Sb  Sb1  1  0.23076900  0.76923100  0.50000000  1
  Sb  Sb2  1  0.50000000  0.50000000  0.50000000  1
  O  O0  1  0.41029100  0.91815300  0.21106500  1
  O  O1  1  0.58970900  0.08184700  0.78893500  1
  O  O2  1  0.08184700  0.58970900  0.78893500  1
  O  O3  1  0.91815300  0.41029100  0.21106500  1
  O  O4  1  0.79023000  0.02528000  0.24431800  1
  O  O5  1  0.20977000  0.97472000  0.75568200  1
  O  O6  1  0.97472000  0.20977000  0.75568200  1
  O  O7  1  0.02528000  0.79023000  0.24431800  1
  O  O8  1  0.83022800  0.83022800  0.81851900  1
  O  O9  1  0.16977200  0.16977200  0.18148100  1
  O  O10  1  0.54190900  0.27768800  0.28667300  1
  O  O11  1  0.45809100  0.72231200  0.71332700  1
  O  O12  1  0.72231200  0.45809100  0.71332700  1
  O  O13  1  0.27768800  0.54190900  0.28667300  1
  O  O14  1  0.65160000  0.65160000  0.19975500  1
  O  O15  1  0.34840000  0.34840000  0.80024500  1
loop_
_geom_bond_atom_site_label_1
_geom_bond_atom_site_label_2
_geom_bond_distance
_geom_bond_site_symmetry_2
Al0 O8 1.880989 1_555
Al0 O14 1.903489 1_556
Al0 O0 1.906209 1_556
Al0 O1 1.922525 1_565
Al0 O11 1.938482 1_555
Al0 O4 1.974630 1_566
Al1 O9 1.880989 1_555
Al1 O15 1.903489 1_554
Al1 O1 1.906209 1_554
Al1 O0 1.922525 1_545
Al1 O10 1.938482 1_555
Al1 O5 1.974630 1_544
Al2 O9 1.880989 1_555
Al2 O15 1.903489 1_554
Al2 O2 1.906209 1_554
Al2 O3 1.922525 1_455
Al2 O13 1.938482 1_555
Al2 O6 1.974630 1_454
Al3 O8 1.880989 1_555
Al3 O14 1.903489 1_556
Al3 O3 1.906209 1_556
Al3 O2 1.922525 1_655
Al3 O12 1.938482 1_555
Al3 O7 1.974630 1_656
Al4 O9 1.828711 1_555
Al4 O8 1.828711 1_444
Al4 O4 1.957436 1_455
Al4 O6 1.957436 1_454
Al4 O7 1.957436 1_545
Al4 O5 1.957436 1_544
O0 Sb1 2.028378 1_555
O1 Sb0 2.028378 1_555
O2 Sb1 2.028378 1_555
O3 Sb0 2.028378 1_555
O4 Sb0 1.972214 1_555
O5 Sb1 1.972214 1_555
O6 Sb0 1.972214 1_555
O7 Sb1 1.972214 1_555
O10 Sb2 2.017288 1_555
O10 Sb0 2.062121 1_555
O11 Sb2 2.017288 1_555
O11 Sb1 2.062121 1_555
O12 Sb2 2.017288 1_555
O12 Sb0 2.062121 1_555
O13 Sb2 2.017288 1_555
O13 Sb1 2.062121 1_555
O14 Sb2 1.964682 1_555
O15 Sb2 1.964682 1_555
