# generated using pymatgen
data_Li9Mn2Co5O16
_symmetry_space_group_name_H-M   'P 1'
_cell_length_a   2.98471600
_cell_length_b   9.75531800
_cell_length_c   10.12606458
_cell_angle_alpha   77.48968363
_cell_angle_beta   89.07446850
_cell_angle_gamma   87.87858927
_symmetry_Int_Tables_number   1
_chemical_formula_structural   Li9Mn2Co5O16
_chemical_formula_sum   'Li9 Mn2 Co5 O16'
_cell_volume   287.63150670
_cell_formula_units_Z   1
loop_
 _symmetry_equiv_pos_site_id
 _symmetry_equiv_pos_as_xyz
  1  'x, y, z'
loop_
 _atom_site_type_symbol
 _atom_site_label
 _atom_site_symmetry_multiplicity
 _atom_site_fract_x
 _atom_site_fract_y
 _atom_site_fract_z
 _atom_site_occupancy
  Li  Li0  1  0.99665200  0.49771200  0.74452500  1
  Li  Li1  1  0.50590700  0.24895500  0.38099500  1
  Li  Li2  1  0.00000000  0.00000000  0.00000000  1
  Li  Li3  1  0.49409300  0.75104500  0.61900500  1
  Li  Li4  1  0.49684900  0.24880300  0.87012800  1
  Li  Li5  1  0.00000000  0.00000000  0.50000000  1
  Li  Li6  1  0.50315100  0.75119700  0.12987200  1
  Li  Li7  1  0.00334800  0.50228800  0.25547500  1
  Li  Li8  1  0.50000000  0.50000000  0.50000000  1
  Mn  Mn0  1  0.99955200  0.74781000  0.87303600  1
  Mn  Mn1  1  0.00044800  0.25219000  0.12696400  1
  Co  Co0  1  0.50467400  0.00527700  0.74608700  1
  Co  Co1  1  0.99917200  0.73770500  0.37958600  1
  Co  Co2  1  0.50000000  0.50000000  0.00000000  1
  Co  Co3  1  0.00082800  0.26229500  0.62041400  1
  Co  Co4  1  0.49532600  0.99472300  0.25391300  1
  O  O0  1  0.46730500  0.62318100  0.82149200  1
  O  O1  1  0.99658300  0.36085900  0.45367300  1
  O  O2  1  0.46328100  0.12467600  0.07165700  1
  O  O3  1  0.01188000  0.87741700  0.69759600  1
  O  O4  1  0.01632900  0.38667400  0.95206700  1
  O  O5  1  0.47039500  0.12486600  0.57282300  1
  O  O6  1  0.00427600  0.87027200  0.20252200  1
  O  O7  1  0.47821100  0.63222400  0.31634800  1
  O  O8  1  0.52178900  0.36777600  0.68365200  1
  O  O9  1  0.98812000  0.12258300  0.30240400  1
  O  O10  1  0.53671900  0.87532400  0.92834300  1
  O  O11  1  0.00341700  0.63914100  0.54632700  1
  O  O12  1  0.99572400  0.12972800  0.79747800  1
  O  O13  1  0.52960500  0.87513400  0.42717700  1
  O  O14  1  0.98367100  0.61332600  0.04793300  1
  O  O15  1  0.53269500  0.37681900  0.17850800  1
loop_
_geom_bond_atom_site_label_1
_geom_bond_atom_site_label_2
_geom_bond_distance
_geom_bond_site_symmetry_2
Li0 O8 2.120197 1_555
Li0 O8 2.145594 1_655
Li0 O4 2.146275 1_655
Li0 O0 2.157518 1_655
Li0 O11 2.175545 1_655
Li0 O0 2.198214 1_555
Li1 O1 2.057511 1_455
Li1 O5 2.057649 1_555
Li1 O1 2.092705 1_555
Li1 O9 2.116905 1_555
Li1 O15 2.158814 1_555
Li1 O9 2.268776 1_455
Li2 O2 2.111176 1_555
Li2 O10 2.111176 1_444
Li2 O6 2.163935 1_545
Li2 O12 2.163935 1_454
Li2 O2 2.184620 1_455
Li2 O10 2.184620 1_544
Li3 O11 2.057511 1_655
Li3 O13 2.057649 1_555
Li3 O11 2.092705 1_555
Li3 O3 2.116905 1_555
Li3 O0 2.158814 1_555
Li3 O3 2.268776 1_655
Li4 O8 1.992621 1_555
Li4 O12 2.077123 1_555
Li4 O2 2.138360 1_556
Li4 O12 2.159190 1_455
Li4 O4 2.203765 1_555
Li4 O4 2.362384 1_655
Li5 O3 2.096978 1_545
Li5 O9 2.096978 1_455
Li5 O5 2.132598 1_555
Li5 O13 2.132598 1_445
Li5 O5 2.176046 1_455
Li5 O13 2.176046 1_545
Li6 O7 1.992621 1_555
Li6 O6 2.077123 1_555
Li6 O10 2.138360 1_554
Li6 O6 2.159190 1_655
Li6 O14 2.203765 1_555
Li6 O14 2.362384 1_455
Li7 O7 2.120197 1_555
Li7 O7 2.145594 1_455
Li7 O14 2.146275 1_455
Li7 O15 2.157518 1_455
Li7 O1 2.175545 1_455
Li7 O15 2.198214 1_555
Li8 O8 2.021112 1_555
Li8 O7 2.021112 1_555
Li8 O11 2.088960 1_555
Li8 O1 2.088960 1_555
Li8 O11 2.183989 1_655
Li8 O1 2.183989 1_455
Mn0 O3 1.945301 1_655
Mn0 O0 1.955866 1_655
Mn0 O14 1.963472 1_556
Mn0 O10 1.979638 1_555
Mn0 O0 2.172312 1_555
Mn0 O10 2.215863 1_655
Mn1 O9 1.945301 1_455
Mn1 O15 1.955866 1_455
Mn1 O4 1.963472 1_554
Mn1 O2 1.979638 1_555
Mn1 O15 2.172312 1_555
Mn1 O2 2.215863 1_455
Co0 O5 1.886773 1_555
Co0 O10 2.001354 1_545
Co0 O12 2.040577 1_455
Co0 O3 2.047001 1_645
Co0 O12 2.079168 1_555
Co0 O3 2.093989 1_545
Co1 O11 1.752694 1_655
Co1 O7 1.913158 1_655
Co1 O6 1.970642 1_655
Co1 O13 2.028018 1_555
Co1 O7 2.079125 1_555
Co1 O13 2.235576 1_655
Co2 O0 1.943420 1_554
Co2 O15 1.943420 1_555
Co2 O14 1.978618 1_455
Co2 O4 1.978618 1_654
Co2 O14 1.978658 1_555
Co2 O4 1.978658 1_554
Co3 O1 1.752694 1_455
Co3 O8 1.913158 1_455
Co3 O12 1.970642 1_455
Co3 O5 2.028018 1_555
Co3 O8 2.079125 1_555
Co3 O5 2.235576 1_455
Co4 O13 1.886773 1_555
Co4 O2 2.001354 1_565
Co4 O6 2.040577 1_655
Co4 O9 2.047001 1_465
Co4 O6 2.079168 1_555
Co4 O9 2.093989 1_565
