# generated using pymatgen
data_Ti3V3Ge5
_symmetry_space_group_name_H-M   'P 1'
_cell_length_a   5.23115900
_cell_length_b   8.30268200
_cell_length_c   9.22629626
_cell_angle_alpha   63.25973954
_cell_angle_beta   73.53128488
_cell_angle_gamma   90.00000000
_symmetry_Int_Tables_number   1
_chemical_formula_structural   Ti3V3Ge5
_chemical_formula_sum   'Ti6 V6 Ge10'
_cell_volume   339.35788103
_cell_formula_units_Z   2
loop_
 _symmetry_equiv_pos_site_id
 _symmetry_equiv_pos_as_xyz
  1  'x, y, z'
loop_
 _atom_site_type_symbol
 _atom_site_label
 _atom_site_symmetry_multiplicity
 _atom_site_fract_x
 _atom_site_fract_y
 _atom_site_fract_z
 _atom_site_occupancy
  Ti  Ti0  1  0.34847700  0.34847700  0.30304600  1
  Ti  Ti1  1  0.65152300  0.65152300  0.69695400  1
  Ti  Ti2  1  0.50000000  0.00000000  0.50000000  1
  Ti  Ti3  1  0.00000000  0.50000000  0.50000000  1
  Ti  Ti4  1  0.50000000  0.50000000  0.50000000  1
  Ti  Ti5  1  0.00000000  0.00000000  0.50000000  1
  V  V0  1  0.08185400  0.81027400  0.83629200  1
  V  V1  1  0.08185400  0.35343400  0.83629200  1
  V  V2  1  0.91814600  0.64656600  0.16370800  1
  V  V3  1  0.91814600  0.18972600  0.16370800  1
  V  V4  1  0.76132200  0.00000000  0.00000000  1
  V  V5  1  0.23867800  0.00000000  0.00000000  1
  Ge  Ge0  1  0.19890200  0.69890200  0.60219600  1
  Ge  Ge1  1  0.80109800  0.30109800  0.39780400  1
  Ge  Ge2  1  0.74415500  0.50000000  0.00000000  1
  Ge  Ge3  1  0.25584500  0.50000000  0.00000000  1
  Ge  Ge4  1  0.16228900  0.16228900  0.67542200  1
  Ge  Ge5  1  0.83771100  0.83771100  0.32457800  1
  Ge  Ge6  1  0.39722300  0.08617000  0.20555400  1
  Ge  Ge7  1  0.39722300  0.70827600  0.20555400  1
  Ge  Ge8  1  0.60277700  0.29172400  0.79444600  1
  Ge  Ge9  1  0.60277700  0.91383000  0.79444600  1
loop_
_geom_bond_atom_site_label_1
_geom_bond_atom_site_label_2
_geom_bond_distance
_geom_bond_site_symmetry_2
Ti0 Ti2 2.896013 1_555
Ti0 Ti4 2.896013 1_555
Ti0 Ti5 2.896013 1_555
Ti0 Ti3 2.896013 1_555
Ti1 Ti4 2.896013 1_555
Ti1 Ti2 2.896013 1_565
Ti1 Ti3 2.896013 1_655
Ti1 Ti5 2.896013 1_665
Ti2 Ti5 2.615579 1_555
Ti2 Ti5 2.615579 1_655
Ti2 V0 2.940521 1_545
Ti2 V3 2.940521 1_555
Ti3 Ti4 2.615579 1_455
Ti3 Ti4 2.615579 1_555
Ti3 V1 2.940521 1_555
Ti3 V2 2.940521 1_455
Ti4 V1 2.940521 1_555
Ti4 V2 2.940521 1_555
Ti5 V0 2.940521 1_545
Ti5 V3 2.940521 1_455
V0 V5 2.877390 1_566
V0 V4 2.877390 1_466
V1 V5 2.877390 1_556
V1 V4 2.877390 1_456
V2 V4 2.877390 1_565
V2 V5 2.877390 1_665
V3 V4 2.877390 1_555
V3 V5 2.877390 1_655
V4 V5 2.497125 1_655
V4 V5 2.734034 1_555
Ge0 Ti3 2.579986 1_555
Ge0 Ti5 2.579986 1_565
Ge0 Ti2 2.579986 1_565
Ge0 Ti4 2.579986 1_555
Ge0 V0 2.634822 1_555
Ge0 V1 2.634822 1_555
Ge0 Ti1 2.718350 1_555
Ge0 Ti1 2.718350 1_455
Ge1 Ti5 2.579986 1_655
Ge1 Ti3 2.579986 1_655
Ge1 Ti2 2.579986 1_555
Ge1 Ti4 2.579986 1_555
Ge1 V2 2.634822 1_555
Ge1 V3 2.634822 1_555
Ge1 Ti0 2.718350 1_555
Ge1 Ti0 2.718350 1_655
Ge2 Ge3 2.554427 1_555
Ge2 V2 2.650298 1_555
Ge2 V3 2.650298 1_555
Ge2 V0 2.650298 1_654
Ge2 V1 2.650298 1_654
Ge2 Ge3 2.676732 1_655
Ge2 Ti1 2.690332 1_554
Ge2 Ti0 2.690332 1_555
Ge3 V0 2.650298 1_554
Ge3 V1 2.650298 1_554
Ge3 V2 2.650298 1_455
Ge3 V3 2.650298 1_455
Ge3 Ti0 2.690332 1_555
Ge3 Ti1 2.690332 1_554
Ge4 V1 2.581517 1_555
Ge4 V0 2.581517 1_545
Ge4 Ti5 2.810231 1_555
Ge4 Ti3 2.810231 1_555
Ge4 Ti2 2.810231 1_555
Ge4 Ti4 2.810231 1_555
Ge4 V5 2.826755 1_556
Ge4 V4 2.826755 1_456
Ge4 Ti0 2.909533 1_555
Ge5 V3 2.581517 1_565
Ge5 V2 2.581517 1_555
Ge5 Ti3 2.810231 1_655
Ge5 Ti5 2.810231 1_665
Ge5 Ti4 2.810231 1_555
Ge5 Ti2 2.810231 1_565
Ge5 V4 2.826755 1_565
Ge5 V5 2.826755 1_665
Ge5 Ti1 2.909533 1_555
Ge6 V5 2.628547 1_555
Ge6 V4 2.628548 1_555
Ge6 Ti0 2.692573 1_555
Ge6 Ti2 2.694471 1_555
Ge6 Ti5 2.694471 1_555
Ge6 V3 2.723758 1_455
Ge6 V3 2.723758 1_555
Ge7 V5 2.628547 1_565
Ge7 V4 2.628548 1_565
Ge7 Ti0 2.692573 1_555
Ge7 Ti4 2.694471 1_555
Ge7 Ti3 2.694471 1_555
Ge7 V2 2.723758 1_455
Ge7 V2 2.723758 1_555
Ge8 V4 2.628547 1_556
Ge8 V5 2.628548 1_556
Ge8 Ti1 2.692573 1_555
Ge8 Ti4 2.694471 1_555
Ge8 Ti3 2.694471 1_655
Ge8 V1 2.723758 1_655
Ge8 V1 2.723758 1_555
Ge9 V4 2.628547 1_566
Ge9 V5 2.628548 1_566
Ge9 Ti1 2.692573 1_555
Ge9 Ti2 2.694471 1_565
Ge9 Ti5 2.694471 1_665
Ge9 V0 2.723758 1_655
Ge9 V0 2.723758 1_555
