# generated using pymatgen
data_AgRh
_symmetry_space_group_name_H-M   'P 1'
_cell_length_a   5.55517640
_cell_length_b   5.55517640
_cell_length_c   9.61720400
_cell_angle_alpha   90.00000000
_cell_angle_beta   90.00000000
_cell_angle_gamma   120.00000476
_symmetry_Int_Tables_number   1
_chemical_formula_structural   AgRh
_chemical_formula_sum   'Ag8 Rh8'
_cell_volume   257.02486962
_cell_formula_units_Z   8
loop_
 _symmetry_equiv_pos_site_id
 _symmetry_equiv_pos_as_xyz
  1  'x, y, z'
loop_
 _atom_site_type_symbol
 _atom_site_label
 _atom_site_symmetry_multiplicity
 _atom_site_fract_x
 _atom_site_fract_y
 _atom_site_fract_z
 _atom_site_occupancy
  Ag  Ag0_0  1  0.16666650  0.33333350  0.25000000  1
  Ag  Ag0_1  1  0.16666650  0.33333350  0.75000000  1
  Ag  Ag0_2  1  0.16666650  0.83333350  0.25000000  1
  Ag  Ag0_3  1  0.16666650  0.83333350  0.75000000  1
  Ag  Ag0_4  1  0.66666650  0.33333350  0.25000000  1
  Ag  Ag0_5  1  0.66666650  0.33333350  0.75000000  1
  Ag  Ag0_6  1  0.66666650  0.83333350  0.25000000  1
  Ag  Ag0_7  1  0.66666650  0.83333350  0.75000000  1
  Rh  Rh0_0  1  0.00000000  0.00000000  0.00000000  1
  Rh  Rh0_1  1  0.00000000  0.00000000  0.50000000  1
  Rh  Rh0_2  1  0.00000000  0.50000000  0.00000000  1
  Rh  Rh0_3  1  0.00000000  0.50000000  0.50000000  1
  Rh  Rh0_4  1  0.50000000  0.00000000  0.00000000  1
  Rh  Rh0_5  1  0.50000000  0.00000000  0.50000000  1
  Rh  Rh0_6  1  0.50000000  0.50000000  0.00000000  1
  Rh  Rh0_7  1  0.50000000  0.50000000  0.50000000  1
loop_
_geom_bond_atom_site_label_1
_geom_bond_atom_site_label_2
_geom_bond_distance
_geom_bond_site_symmetry_2
Ag0_0 Ag0_6 2.777588 1_445
Ag0_0 Ag0_6 2.777588 1_555
Ag0_0 Ag0_4 2.777588 1_455
Ag0_0 Ag0_2 2.777588 1_545
Ag0_0 Ag0_4 2.777588 1_555
Ag0_0 Ag0_2 2.777588 1_555
Ag0_0 Rh0_2 2.890039 1_555
Ag0_0 Rh0_3 2.890039 1_555
Ag0_0 Rh0_7 2.890040 1_555
Ag0_0 Rh0_6 2.890040 1_555
Ag0_0 Rh0_1 2.890040 1_555
Ag0_0 Rh0_0 2.890040 1_555
Ag0_1 Ag0_7 2.777588 1_445
Ag0_1 Ag0_7 2.777588 1_555
Ag0_1 Ag0_3 2.777588 1_545
Ag0_1 Ag0_5 2.777588 1_455
Ag0_1 Ag0_3 2.777588 1_555
Ag0_1 Ag0_5 2.777588 1_555
Ag0_1 Rh0_2 2.890039 1_556
Ag0_1 Rh0_3 2.890039 1_555
Ag0_1 Rh0_7 2.890040 1_555
Ag0_1 Rh0_1 2.890040 1_555
Ag0_1 Rh0_0 2.890040 1_556
Ag0_1 Rh0_6 2.890040 1_556
Ag0_2 Ag0_4 2.777588 1_565
Ag0_2 Ag0_4 2.777588 1_455
Ag0_2 Ag0_6 2.777588 1_555
Ag0_2 Ag0_6 2.777588 1_455
Ag0_2 Rh0_1 2.890039 1_565
Ag0_2 Rh0_0 2.890039 1_565
Ag0_2 Rh0_3 2.890040 1_555
Ag0_2 Rh0_4 2.890040 1_565
Ag0_2 Rh0_2 2.890040 1_555
Ag0_2 Rh0_5 2.890040 1_565
Ag0_3 Ag0_5 2.777588 1_565
Ag0_3 Ag0_5 2.777588 1_455
Ag0_3 Ag0_7 2.777588 1_555
Ag0_3 Ag0_7 2.777588 1_455
Ag0_3 Rh0_1 2.890039 1_565
Ag0_3 Rh0_0 2.890039 1_566
Ag0_3 Rh0_3 2.890040 1_555
Ag0_3 Rh0_4 2.890040 1_566
Ag0_3 Rh0_2 2.890040 1_556
Ag0_3 Rh0_5 2.890040 1_565
Ag0_4 Ag0_6 2.777588 1_545
Ag0_4 Ag0_6 2.777588 1_555
Ag0_4 Rh0_6 2.890039 1_555
Ag0_4 Rh0_7 2.890039 1_555
Ag0_4 Rh0_2 2.890040 1_655
Ag0_4 Rh0_3 2.890040 1_655
Ag0_4 Rh0_4 2.890040 1_555
Ag0_4 Rh0_5 2.890040 1_555
Ag0_5 Ag0_7 2.777588 1_545
Ag0_5 Ag0_7 2.777588 1_555
Ag0_5 Rh0_6 2.890039 1_556
Ag0_5 Rh0_7 2.890039 1_555
Ag0_5 Rh0_2 2.890040 1_656
Ag0_5 Rh0_3 2.890040 1_655
Ag0_5 Rh0_4 2.890040 1_556
Ag0_5 Rh0_5 2.890040 1_555
Ag0_6 Rh0_5 2.890039 1_565
Ag0_6 Rh0_4 2.890039 1_565
Ag0_6 Rh0_7 2.890040 1_555
Ag0_6 Rh0_0 2.890040 1_665
Ag0_6 Rh0_6 2.890040 1_555
Ag0_6 Rh0_1 2.890040 1_665
Ag0_7 Rh0_5 2.890039 1_565
Ag0_7 Rh0_4 2.890039 1_566
Ag0_7 Rh0_7 2.890040 1_555
Ag0_7 Rh0_1 2.890040 1_665
Ag0_7 Rh0_0 2.890040 1_666
Ag0_7 Rh0_6 2.890040 1_556
Rh0_0 Rh0_6 2.777588 1_555
Rh0_0 Rh0_6 2.777588 1_445
Rh0_0 Rh0_4 2.777588 1_555
Rh0_0 Rh0_2 2.777588 1_555
Rh0_0 Rh0_4 2.777588 1_455
Rh0_0 Rh0_2 2.777588 1_545
Rh0_1 Rh0_7 2.777588 1_445
Rh0_1 Rh0_7 2.777588 1_555
Rh0_1 Rh0_5 2.777588 1_455
Rh0_1 Rh0_3 2.777588 1_555
Rh0_1 Rh0_3 2.777588 1_545
Rh0_1 Rh0_5 2.777588 1_555
Rh0_2 Rh0_4 2.777588 1_565
Rh0_2 Rh0_4 2.777588 1_455
Rh0_2 Rh0_6 2.777588 1_555
Rh0_2 Rh0_6 2.777588 1_455
Rh0_3 Rh0_5 2.777588 1_565
Rh0_3 Rh0_5 2.777588 1_455
Rh0_3 Rh0_7 2.777588 1_555
Rh0_3 Rh0_7 2.777588 1_455
Rh0_4 Rh0_6 2.777588 1_555
Rh0_4 Rh0_6 2.777588 1_545
Rh0_5 Rh0_7 2.777588 1_555
Rh0_5 Rh0_7 2.777588 1_545
