# generated using pymatgen
data_Si5O8
_symmetry_space_group_name_H-M   'P 1'
_cell_length_a   7.74063699
_cell_length_b   6.77638734
_cell_length_c   12.11106307
_cell_angle_alpha   102.22131029
_cell_angle_beta   90.46270771
_cell_angle_gamma   124.96996950
_symmetry_Int_Tables_number   1
_chemical_formula_structural   Si5O8
_chemical_formula_sum   'Si10 O16'
_cell_volume   502.08936792
_cell_formula_units_Z   2
loop_
 _symmetry_equiv_pos_site_id
 _symmetry_equiv_pos_as_xyz
  1  'x, y, z'
loop_
 _atom_site_type_symbol
 _atom_site_label
 _atom_site_symmetry_multiplicity
 _atom_site_fract_x
 _atom_site_fract_y
 _atom_site_fract_z
 _atom_site_occupancy
  Si  Si0  1  0.70696000  0.43967300  0.61046500  1
  Si  Si1  1  0.47247200  0.22500500  0.94127200  1
  Si  Si2  1  0.78899000  0.16176100  0.41360200  1
  Si  Si3  1  0.11907600  0.28547500  0.84995200  1
  Si  Si4  1  0.48067900  0.84174400  0.28241500  1
  Si  Si5  1  0.24742000  0.76971500  0.05466900  1
  Si  Si6  1  0.63150600  0.84134600  0.58931400  1
  Si  Si7  1  0.26380100  0.56396700  0.39346100  1
  Si  Si8  1  0.83490100  0.71258000  0.14351000  1
  Si  Si9  1  0.65151300  0.16299500  0.72225000  1
  O  O0  1  0.86385100  0.44472600  0.71025200  1
  O  O1  1  0.64092400  0.47880800  0.04040100  1
  O  O2  1  0.49110200  0.18897800  0.63817400  1
  O  O3  1  0.18884500  0.53148400  0.95337500  1
  O  O4  1  0.38203900  0.62930900  0.52221100  1
  O  O5  1  0.44156600  0.85141200  0.15193600  1
  O  O6  1  0.29570800  0.81366100  0.36581800  1
  O  O7  1  0.41433400  0.56187700  0.29434100  1
  O  O8  1  0.59952500  0.15295800  0.85223700  1
  O  O9  1  0.75971000  0.37745100  0.48268100  1
  O  O10  1  0.70918300  0.68692500  0.63422500  1
  O  O11  1  0.32588700  0.00139200  0.00042800  1
  O  O12  1  0.01865200  0.31345200  0.36717700  1
  O  O13  1  0.31465700  0.25645100  0.86921300  1
  O  O14  1  0.78348900  0.00016200  0.50086900  1
  O  O15  1  0.04153100  0.70670400  0.11575300  1
loop_
_geom_bond_atom_site_label_1
_geom_bond_atom_site_label_2
_geom_bond_distance
_geom_bond_site_symmetry_2
O0 Si0 1.687505 1_555
O0 Si9 1.700511 1_555
O1 Si1 1.621536 1_554
O1 Si8 1.651977 1_555
O2 Si0 1.669450 1_555
O2 Si9 1.707543 1_555
O3 Si5 1.621783 1_556
O3 Si3 1.647013 1_555
O4 Si7 1.638667 1_555
O4 Si6 1.659412 1_555
O5 Si4 1.628482 1_555
O5 Si5 1.641416 1_555
O6 Si7 1.672769 1_555
O6 Si4 1.702632 1_555
O7 Si7 1.683250 1_555
O7 Si4 1.697647 1_555
O8 Si9 1.633744 1_555
O8 Si1 1.647105 1_555
O9 Si0 1.634277 1_555
O9 Si2 1.659113 1_555
O10 Si0 1.628824 1_555
O10 Si6 1.645987 1_555
O11 Si1 1.612058 1_554
O11 Si5 1.617149 1_545
O12 Si7 1.628769 1_555
O12 Si2 1.642929 1_455
O13 Si1 1.630710 1_555
O13 Si3 1.655322 1_555
O14 Si6 1.657324 1_545
O14 Si2 1.659901 1_555
O15 Si5 1.625503 1_555
O15 Si8 1.657965 1_455
