# generated using pymatgen
data_La2Te5
_symmetry_space_group_name_H-M   'P 1'
_cell_length_a   22.80714454
_cell_length_b   22.80714454
_cell_length_c   4.47844700
_cell_angle_alpha   90.00000000
_cell_angle_beta   90.00000000
_cell_angle_gamma   168.72118220
_symmetry_Int_Tables_number   1
_chemical_formula_structural   La2Te5
_chemical_formula_sum   'La4 Te10'
_cell_volume   455.61886816
_cell_formula_units_Z   2
loop_
 _symmetry_equiv_pos_site_id
 _symmetry_equiv_pos_as_xyz
  1  'x, y, z'
loop_
 _atom_site_type_symbol
 _atom_site_label
 _atom_site_symmetry_multiplicity
 _atom_site_fract_x
 _atom_site_fract_y
 _atom_site_fract_z
 _atom_site_occupancy
  La  La0  1  0.90198200  0.09801800  0.25000000  1
  La  La1  1  0.09801800  0.90198200  0.75000000  1
  La  La2  1  0.69286900  0.30713100  0.25000000  1
  La  La3  1  0.30713100  0.69286900  0.75000000  1
  Te  Te0  1  0.04137600  0.95862400  0.25000000  1
  Te  Te1  1  0.95862400  0.04137600  0.75000000  1
  Te  Te2  1  0.45811400  0.54188600  0.25000000  1
  Te  Te3  1  0.54188600  0.45811400  0.75000000  1
  Te  Te4  1  0.24996000  0.75004000  0.25000000  1
  Te  Te5  1  0.75004000  0.24996000  0.75000000  1
  Te  Te6  1  0.82647200  0.17352800  0.25000000  1
  Te  Te7  1  0.17352800  0.82647200  0.75000000  1
  Te  Te8  1  0.61925700  0.38074300  0.25000000  1
  Te  Te9  1  0.38074300  0.61925700  0.75000000  1
loop_
_geom_bond_atom_site_label_1
_geom_bond_atom_site_label_2
_geom_bond_distance
_geom_bond_site_symmetry_2
La0 Te9 3.311587 1_654
La0 Te9 3.311587 1_544
La0 Te9 3.311587 1_545
La0 Te9 3.311587 1_655
La0 Te2 3.393438 1_545
La0 Te2 3.393438 1_655
La0 Te1 3.409558 1_554
La0 Te1 3.409558 1_555
La0 Te6 3.427665 1_555
La1 Te8 3.311587 1_566
La1 Te8 3.311587 1_565
La1 Te8 3.311587 1_455
La1 Te8 3.311587 1_456
La1 Te3 3.393438 1_455
La1 Te3 3.393438 1_565
La1 Te0 3.409558 1_556
La1 Te0 3.409558 1_555
La1 Te7 3.427665 1_555
La2 Te7 3.287537 1_544
La2 Te7 3.287537 1_545
La2 Te7 3.287537 1_654
La2 Te7 3.287537 1_655
La2 Te8 3.341508 1_555
La2 Te4 3.426246 1_655
La2 Te4 3.426246 1_545
La2 Te5 3.427703 1_554
La2 Te5 3.427703 1_555
La3 Te6 3.287537 1_456
La3 Te6 3.287537 1_455
La3 Te6 3.287537 1_566
La3 Te6 3.287537 1_565
La3 Te9 3.341508 1_555
La3 Te5 3.426246 1_565
La3 Te5 3.426246 1_455
La3 Te4 3.427703 1_556
La3 Te4 3.427703 1_555
Te0 Te3 3.168222 1_565
Te0 Te3 3.168222 1_564
Te0 Te3 3.168222 1_455
Te0 Te3 3.168222 1_454
Te1 Te2 3.168222 1_546
Te1 Te2 3.168222 1_545
Te1 Te2 3.168222 1_656
Te1 Te2 3.168222 1_655
Te4 Te5 3.168140 1_454
Te4 Te5 3.168140 1_565
Te4 Te5 3.168140 1_564
Te4 Te5 3.168140 1_455
