# generated using pymatgen
data_InFeRh2
_symmetry_space_group_name_H-M   'P 1'
_cell_length_a   4.39325784
_cell_length_b   4.39325784
_cell_length_c   4.39325784
_cell_angle_alpha   60.00000000
_cell_angle_beta   60.00000000
_cell_angle_gamma   60.00000000
_symmetry_Int_Tables_number   1
_chemical_formula_structural   InFeRh2
_chemical_formula_sum   'In1 Fe1 Rh2'
_cell_volume   59.95771594
_cell_formula_units_Z   1
loop_
 _symmetry_equiv_pos_site_id
 _symmetry_equiv_pos_as_xyz
  1  'x, y, z'
loop_
 _atom_site_type_symbol
 _atom_site_label
 _atom_site_symmetry_multiplicity
 _atom_site_fract_x
 _atom_site_fract_y
 _atom_site_fract_z
 _atom_site_occupancy
  In  In0  1  -0.00000000  0.00000000  0.00000000  1
  Fe  Fe0  1  0.50000000  0.50000000  0.50000000  1
  Rh  Rh0  1  0.25000000  0.25000000  0.25000000  1
  Rh  Rh1  1  0.75000000  0.75000000  0.75000000  1
loop_
_geom_bond_atom_site_label_1
_geom_bond_atom_site_label_2
_geom_bond_distance
_geom_bond_site_symmetry_2
In0 Rh1 2.690310 1_544
In0 Rh0 2.690310 1_455
In0 Rh1 2.690310 1_445
In0 Rh1 2.690310 1_444
In0 Rh1 2.690310 1_454
In0 Rh0 2.690310 1_545
In0 Rh0 2.690310 1_555
In0 Rh0 2.690310 1_554
Fe0 Rh1 2.690310 1_455
Fe0 Rh0 2.690310 1_655
Fe0 Rh1 2.690310 1_545
Fe0 Rh0 2.690310 1_555
Fe0 Rh0 2.690310 1_556
Fe0 Rh0 2.690310 1_565
Fe0 Rh1 2.690310 1_554
Fe0 Rh1 2.690310 1_555
