# generated using pymatgen
data_IrN
_symmetry_space_group_name_H-M   'P 1'
_cell_length_a   4.10412200
_cell_length_b   4.10412200
_cell_length_c   4.10412200
_cell_angle_alpha   90.00000000
_cell_angle_beta   90.00000000
_cell_angle_gamma   90.00000000
_symmetry_Int_Tables_number   1
_chemical_formula_structural   IrN
_chemical_formula_sum   'Ir3 N3'
_cell_volume   69.12908152
_cell_formula_units_Z   3
loop_
 _symmetry_equiv_pos_site_id
 _symmetry_equiv_pos_as_xyz
  1  'x, y, z'
loop_
 _atom_site_type_symbol
 _atom_site_label
 _atom_site_symmetry_multiplicity
 _atom_site_fract_x
 _atom_site_fract_y
 _atom_site_fract_z
 _atom_site_occupancy
  Ir  Ir0  1  0.50000000  0.50000000  0.00000000  1
  Ir  Ir1  1  0.50000000  0.00000000  0.50000000  1
  Ir  Ir2  1  0.00000000  0.50000000  0.50000000  1
  N  N0  1  0.00000000  0.00000000  0.50000000  1
  N  N1  1  0.00000000  0.50000000  0.00000000  1
  N  N2  1  0.50000000  0.00000000  0.00000000  1
loop_
_geom_bond_atom_site_label_1
_geom_bond_atom_site_label_2
_geom_bond_distance
_geom_bond_site_symmetry_2
Ir0 N2 2.052061 1_555
Ir0 N1 2.052061 1_555
Ir0 N2 2.052061 1_565
Ir0 N1 2.052061 1_655
Ir1 N0 2.052061 1_555
Ir1 N0 2.052061 1_655
Ir1 N2 2.052061 1_555
Ir1 N2 2.052061 1_556
Ir2 N1 2.052061 1_556
Ir2 N0 2.052061 1_555
Ir2 N1 2.052061 1_555
Ir2 N0 2.052061 1_565
