# generated using pymatgen
data_Ta2MnRe
_symmetry_space_group_name_H-M   'P 1'
_cell_length_a   4.42646799
_cell_length_b   4.42646799
_cell_length_c   4.42646799
_cell_angle_alpha   60.00000000
_cell_angle_beta   60.00000000
_cell_angle_gamma   60.00000000
_symmetry_Int_Tables_number   1
_chemical_formula_structural   Ta2MnRe
_chemical_formula_sum   'Ta2 Mn1 Re1'
_cell_volume   61.32774344
_cell_formula_units_Z   1
loop_
 _symmetry_equiv_pos_site_id
 _symmetry_equiv_pos_as_xyz
  1  'x, y, z'
loop_
 _atom_site_type_symbol
 _atom_site_label
 _atom_site_symmetry_multiplicity
 _atom_site_fract_x
 _atom_site_fract_y
 _atom_site_fract_z
 _atom_site_occupancy
  Ta  Ta0  1  0.25000000  0.25000000  0.25000000  1
  Ta  Ta1  1  0.75000000  0.75000000  0.75000000  1
  Mn  Mn0  1  0.50000000  0.50000000  0.50000000  1
  Re  Re0  1  -0.00000000  -0.00000000  0.00000000  1
loop_
_geom_bond_atom_site_label_1
_geom_bond_atom_site_label_2
_geom_bond_distance
_geom_bond_site_symmetry_2
Mn0 Ta0 2.710647 1_655
Mn0 Ta1 2.710647 1_555
Mn0 Ta0 2.710647 1_565
Mn0 Ta1 2.710647 1_554
Mn0 Ta0 2.710647 1_556
Mn0 Ta0 2.710647 1_555
Mn0 Ta1 2.710647 1_455
Mn0 Ta1 2.710647 1_545
Re0 Ta0 2.710647 1_455
Re0 Ta1 2.710647 1_444
Re0 Ta1 2.710647 1_445
Re0 Ta0 2.710647 1_545
Re0 Ta0 2.710647 1_555
Re0 Ta0 2.710647 1_554
Re0 Ta1 2.710647 1_544
Re0 Ta1 2.710647 1_454
