# generated using pymatgen
data_CaMg14Sn
_symmetry_space_group_name_H-M   'P 1'
_cell_length_a   6.52168259
_cell_length_b   6.37133629
_cell_length_c   10.56314532
_cell_angle_alpha   90.00000000
_cell_angle_beta   90.00000000
_cell_angle_gamma   119.24029424
_symmetry_Int_Tables_number   1
_chemical_formula_structural   CaMg14Sn
_chemical_formula_sum   'Ca1 Mg14 Sn1'
_cell_volume   382.99057030
_cell_formula_units_Z   1
loop_
 _symmetry_equiv_pos_site_id
 _symmetry_equiv_pos_as_xyz
  1  'x, y, z'
loop_
 _atom_site_type_symbol
 _atom_site_label
 _atom_site_symmetry_multiplicity
 _atom_site_fract_x
 _atom_site_fract_y
 _atom_site_fract_z
 _atom_site_occupancy
  Ca  Ca0  1  0.16339695  0.33169798  0.12500000  1
  Mg  Mg0  1  0.16635098  0.33317499  0.62500000  1
  Mg  Mg1  1  0.16489954  0.83244927  0.62500000  1
  Mg  Mg2  1  0.66475088  0.32921539  0.12500000  1
  Mg  Mg3  1  0.66650833  0.33465316  0.62500000  1
  Mg  Mg4  1  0.66475088  0.83553450  0.12500000  1
  Mg  Mg5  1  0.66650833  0.83185417  0.62500000  1
  Mg  Mg6  1  0.33632707  0.16598438  0.38226031  1
  Mg  Mg7  1  0.33632707  0.16598438  0.86773969  1
  Mg  Mg8  1  0.33632707  0.67034369  0.38226031  1
  Mg  Mg9  1  0.33632707  0.67034369  0.86773969  1
  Mg  Mg10  1  0.82925070  0.16462585  0.38247759  1
  Mg  Mg11  1  0.82925070  0.16462585  0.86752241  1
  Mg  Mg12  1  0.83246092  0.66623096  0.37414784  1
  Mg  Mg13  1  0.83246092  0.66623096  0.87585216  1
  Sn  Sn0  1  0.17410257  0.83705079  0.12500000  1
loop_
_geom_bond_atom_site_label_1
_geom_bond_atom_site_label_2
_geom_bond_distance
_geom_bond_site_symmetry_2
Ca0 Sn0 3.186251 1_555
Ca0 Sn0 3.186251 1_545
Ca0 Mg4 3.244314 1_445
Ca0 Mg2 3.244314 1_455
Ca0 Mg4 3.277426 1_555
Ca0 Mg2 3.277427 1_555
Ca0 Mg6 3.306759 1_555
Ca0 Mg7 3.306759 1_554
Ca0 Mg8 3.306765 1_555
Ca0 Mg9 3.306765 1_554
Ca0 Mg10 3.318576 1_455
Ca0 Mg11 3.318576 1_454
Mg0 Mg7 3.176751 1_555
Mg0 Mg6 3.176751 1_555
Mg0 Mg9 3.176757 1_555
Mg0 Mg8 3.176757 1_555
Mg0 Mg1 3.185679 1_545
Mg0 Mg1 3.185679 1_555
Mg0 Mg11 3.200439 1_455
Mg0 Mg10 3.200439 1_455
Mg0 Mg5 3.257277 1_555
Mg0 Mg3 3.257277 1_555
Mg0 Mg5 3.264426 1_445
Mg0 Mg3 3.264426 1_455
Mg1 Mg8 3.165330 1_555
Mg1 Mg9 3.165330 1_555
Mg1 Mg7 3.165336 1_565
Mg1 Mg6 3.165336 1_565
Mg1 Mg3 3.248499 1_455
Mg1 Mg5 3.248499 1_455
Mg1 Mg13 3.255809 1_455
Mg1 Mg12 3.255809 1_455
Mg1 Mg3 3.273187 1_565
Mg1 Mg5 3.273187 1_555
Mg2 Mg4 3.145407 1_545
Mg2 Sn0 3.204582 1_545
Mg2 Mg4 3.225929 1_555
Mg2 Mg6 3.298139 1_555
Mg2 Mg7 3.298139 1_554
Mg2 Sn0 3.317121 1_655
Mg3 Mg5 3.167835 1_555
Mg3 Mg7 3.178927 1_555
Mg3 Mg6 3.178927 1_555
Mg3 Mg5 3.203501 1_545
Mg4 Sn0 3.204583 1_555
Mg4 Mg8 3.298139 1_555
Mg4 Mg9 3.298139 1_554
Mg4 Sn0 3.317122 1_655
Mg5 Mg8 3.178927 1_555
Mg5 Mg9 3.178927 1_555
Mg6 Mg8 3.157894 1_545
Mg6 Mg8 3.213443 1_555
Mg6 Sn0 3.275671 1_545
Mg7 Mg9 3.157894 1_545
Mg7 Mg9 3.213443 1_555
Mg7 Sn0 3.275671 1_546
Mg8 Sn0 3.275665 1_555
Mg9 Sn0 3.275665 1_556
Mg10 Mg3 3.160078 1_555
Mg10 Mg5 3.160084 1_545
Mg10 Mg12 3.186935 1_555
Mg10 Mg12 3.186935 1_545
Mg10 Mg8 3.218929 1_545
Mg10 Mg6 3.218929 1_555
Mg10 Mg2 3.278240 1_555
Mg10 Mg4 3.278246 1_545
Mg10 Mg8 3.302772 1_655
Mg10 Mg6 3.302773 1_655
Mg11 Mg3 3.160078 1_555
Mg11 Mg5 3.160084 1_545
Mg11 Mg13 3.186935 1_555
Mg11 Mg13 3.186935 1_545
Mg11 Mg9 3.218929 1_545
Mg11 Mg7 3.218929 1_555
Mg11 Mg2 3.278240 1_556
Mg11 Mg4 3.278246 1_546
Mg11 Mg9 3.302772 1_655
Mg11 Mg7 3.302773 1_655
Mg12 Mg5 3.228314 1_555
Mg12 Mg3 3.228320 1_555
Mg12 Mg4 3.230909 1_555
Mg12 Mg2 3.230916 1_555
Mg12 Mg6 3.249638 1_555
Mg12 Mg8 3.249638 1_555
Mg12 Sn0 3.272018 1_655
Mg12 Mg6 3.274456 1_665
Mg12 Mg8 3.274457 1_655
Mg13 Mg5 3.228314 1_555
Mg13 Mg3 3.228320 1_555
Mg13 Mg4 3.230909 1_556
Mg13 Mg2 3.230916 1_556
Mg13 Mg7 3.249638 1_555
Mg13 Mg9 3.249638 1_555
Mg13 Sn0 3.272018 1_656
Mg13 Mg7 3.274456 1_665
Mg13 Mg9 3.274457 1_655
