# generated using pymatgen
data_Sr2NiO3F
_symmetry_space_group_name_H-M   'P 1'
_cell_length_a   7.11198528
_cell_length_b   7.11198528
_cell_length_c   7.11198528
_cell_angle_alpha   148.72243516
_cell_angle_beta   148.72243516
_cell_angle_gamma   44.82002819
_symmetry_Int_Tables_number   1
_chemical_formula_structural   Sr2NiO3F
_chemical_formula_sum   'Sr2 Ni1 O3 F1'
_cell_volume   96.66703466
_cell_formula_units_Z   1
loop_
 _symmetry_equiv_pos_site_id
 _symmetry_equiv_pos_as_xyz
  1  'x, y, z'
loop_
 _atom_site_type_symbol
 _atom_site_label
 _atom_site_symmetry_multiplicity
 _atom_site_fract_x
 _atom_site_fract_y
 _atom_site_fract_z
 _atom_site_occupancy
  Sr  Sr0  1  0.63591400  0.63591400  0.00000000  1
  Sr  Sr1  1  0.36124000  0.36124000  0.00000000  1
  Ni  Ni0  1  0.98071500  0.98071500  0.00000000  1
  O  O0  1  0.50234200  0.00234200  0.50000000  1
  O  O1  1  0.00234200  0.50234200  0.50000000  1
  O  O2  1  0.82745000  0.82745000  0.00000000  1
  F  F0  1  0.17249700  0.17249700  0.00000000  1
loop_
_geom_bond_atom_site_label_1
_geom_bond_atom_site_label_2
_geom_bond_distance
_geom_bond_site_symmetry_2
Ni0 O0 1.938168 1_564
Ni0 O1 1.938168 1_665
Ni0 O1 1.938168 1_654
Ni0 O0 1.938168 1_665
Ni0 O2 2.015399 1_555
O0 Sr0 2.600135 1_556
O0 Sr0 2.600135 1_545
O0 Sr1 2.668022 1_545
O0 Sr1 2.668022 1_556
O1 Sr0 2.600135 1_455
O1 Sr0 2.600135 1_556
O1 Sr1 2.668022 1_455
O1 Sr1 2.668022 1_556
O2 Sr0 2.518654 1_555
O2 Sr1 2.747483 1_554
O2 Sr1 2.747483 1_655
O2 Sr1 2.747483 1_565
O2 Sr1 2.747483 1_666
F0 Sr1 2.481927 1_555
F0 Ni0 2.521889 1_445
F0 Sr0 2.753662 1_455
F0 Sr0 2.753662 1_556
F0 Sr0 2.753662 1_444
F0 Sr0 2.753662 1_545
