# generated using pymatgen
data_Mn4Fe2Sb3
_symmetry_space_group_name_H-M   'P 1'
_cell_length_a   3.97373700
_cell_length_b   3.97373700
_cell_length_c   18.78231800
_cell_angle_alpha   90.00000000
_cell_angle_beta   90.00000000
_cell_angle_gamma   90.00000000
_symmetry_Int_Tables_number   1
_chemical_formula_structural   Mn4Fe2Sb3
_chemical_formula_sum   'Mn8 Fe4 Sb6'
_cell_volume   296.58380287
_cell_formula_units_Z   2
loop_
 _symmetry_equiv_pos_site_id
 _symmetry_equiv_pos_as_xyz
  1  'x, y, z'
loop_
 _atom_site_type_symbol
 _atom_site_label
 _atom_site_symmetry_multiplicity
 _atom_site_fract_x
 _atom_site_fract_y
 _atom_site_fract_z
 _atom_site_occupancy
  Mn  Mn0  1  0.00000000  0.00000000  0.33195000  1
  Mn  Mn1  1  0.00000000  0.00000000  0.66805000  1
  Mn  Mn2  1  0.00000000  0.50000000  0.08580900  1
  Mn  Mn3  1  0.00000000  0.50000000  0.42666600  1
  Mn  Mn4  1  0.00000000  0.50000000  0.76229000  1
  Mn  Mn5  1  0.50000000  0.00000000  0.23771000  1
  Mn  Mn6  1  0.50000000  0.00000000  0.57333400  1
  Mn  Mn7  1  0.50000000  0.00000000  0.91419100  1
  Fe  Fe0  1  0.50000000  0.50000000  0.00000000  1
  Fe  Fe1  1  0.50000000  0.50000000  0.33193300  1
  Fe  Fe2  1  0.50000000  0.50000000  0.66806700  1
  Fe  Fe3  1  0.00000000  0.00000000  0.00000000  1
  Sb  Sb0  1  0.00000000  0.50000000  0.23578700  1
  Sb  Sb1  1  0.00000000  0.50000000  0.57181300  1
  Sb  Sb2  1  0.00000000  0.50000000  0.90984800  1
  Sb  Sb3  1  0.50000000  0.00000000  0.09015200  1
  Sb  Sb4  1  0.50000000  0.00000000  0.42818700  1
  Sb  Sb5  1  0.50000000  0.00000000  0.76421300  1
loop_
_geom_bond_atom_site_label_1
_geom_bond_atom_site_label_2
_geom_bond_distance
_geom_bond_site_symmetry_2
Mn0 Mn5 2.660960 1_455
Mn0 Mn5 2.660960 1_555
Mn0 Mn3 2.666915 1_545
Mn0 Mn3 2.666915 1_555
Mn0 Sb0 2.685121 1_555
Mn0 Sb0 2.685121 1_545
Mn0 Sb4 2.686056 1_455
Mn0 Sb4 2.686056 1_555
Mn1 Mn4 2.660960 1_555
Mn1 Mn4 2.660960 1_545
Mn1 Mn6 2.666915 1_455
Mn1 Mn6 2.666915 1_555
Mn1 Sb5 2.685121 1_455
Mn1 Sb5 2.685121 1_555
Mn1 Sb1 2.686056 1_555
Mn1 Sb1 2.686056 1_545
Mn2 Sb3 2.811040 1_455
Mn2 Sb3 2.811040 1_465
Mn2 Sb3 2.811040 1_555
Mn2 Sb3 2.811040 1_565
Mn2 Sb0 2.816934 1_555
Mn3 Sb1 2.726197 1_555
Mn3 Sb4 2.810002 1_465
Mn3 Sb4 2.810002 1_455
Mn3 Sb4 2.810002 1_565
Mn3 Sb4 2.810002 1_555
Mn4 Sb2 2.771481 1_555
Mn4 Sb5 2.810089 1_555
Mn4 Sb5 2.810089 1_465
Mn4 Sb5 2.810089 1_565
Mn4 Sb5 2.810089 1_455
Mn5 Sb3 2.771481 1_555
Mn5 Sb0 2.810089 1_645
Mn5 Sb0 2.810089 1_555
Mn5 Sb0 2.810089 1_545
Mn5 Sb0 2.810089 1_655
Mn6 Sb4 2.726197 1_555
Mn6 Sb1 2.810002 1_545
Mn6 Sb1 2.810002 1_645
Mn6 Sb1 2.810002 1_655
Mn6 Sb1 2.810002 1_555
Mn7 Sb2 2.811040 1_545
Mn7 Sb2 2.811040 1_645
Mn7 Sb2 2.811040 1_555
Mn7 Sb2 2.811040 1_655
Mn7 Sb5 2.816934 1_555
Fe0 Mn2 2.558358 1_555
Fe0 Mn2 2.558358 1_655
Fe0 Mn7 2.558358 1_554
Fe0 Mn7 2.558358 1_564
Fe0 Sb3 2.610515 1_555
Fe0 Sb3 2.610515 1_565
Fe0 Sb2 2.610515 1_554
Fe0 Sb2 2.610515 1_654
Fe1 Mn5 2.660748 1_555
Fe1 Mn5 2.660748 1_565
Fe1 Mn3 2.667128 1_655
Fe1 Mn3 2.667128 1_555
Fe1 Sb0 2.684906 1_655
Fe1 Sb0 2.684906 1_555
Fe1 Sb4 2.686271 1_555
Fe1 Sb4 2.686271 1_565
Fe1 Mn0 2.809856 1_655
Fe1 Mn0 2.809856 1_565
Fe1 Mn0 2.809856 1_665
Fe1 Mn0 2.809856 1_555
Fe2 Mn4 2.660748 1_555
Fe2 Mn4 2.660748 1_655
Fe2 Mn6 2.667128 1_555
Fe2 Mn6 2.667128 1_565
Fe2 Sb5 2.684906 1_555
Fe2 Sb5 2.684906 1_565
Fe2 Sb1 2.686271 1_655
Fe2 Sb1 2.686271 1_555
Fe2 Mn1 2.809856 1_655
Fe2 Mn1 2.809856 1_555
Fe2 Mn1 2.809856 1_565
Fe2 Mn1 2.809856 1_665
Fe3 Mn2 2.558358 1_555
Fe3 Mn2 2.558358 1_545
Fe3 Mn7 2.558358 1_554
Fe3 Mn7 2.558358 1_454
Fe3 Sb2 2.610515 1_544
Fe3 Sb3 2.610515 1_555
Fe3 Sb2 2.610515 1_554
Fe3 Sb3 2.610515 1_455
