# generated using pymatgen
data_HfMg14B
_symmetry_space_group_name_H-M   'P 1'
_cell_length_a   6.26287325
_cell_length_b   6.26287276
_cell_length_c   9.97124929
_cell_angle_alpha   90.00000000
_cell_angle_beta   90.00000000
_cell_angle_gamma   120.00000255
_symmetry_Int_Tables_number   1
_chemical_formula_structural   HfMg14B
_chemical_formula_sum   'Hf1 Mg14 B1'
_cell_volume   338.70952155
_cell_formula_units_Z   1
loop_
 _symmetry_equiv_pos_site_id
 _symmetry_equiv_pos_as_xyz
  1  'x, y, z'
loop_
 _atom_site_type_symbol
 _atom_site_label
 _atom_site_symmetry_multiplicity
 _atom_site_fract_x
 _atom_site_fract_y
 _atom_site_fract_z
 _atom_site_occupancy
  Hf  Hf0  1  0.16666700  0.33333300  0.62500000  1
  Mg  Mg0  1  0.16117910  0.83058905  0.12500000  1
  Mg  Mg1  1  0.17586876  0.83793388  0.62500000  1
  Mg  Mg2  1  0.66941095  0.33882090  0.12500000  1
  Mg  Mg3  1  0.66206612  0.32413124  0.62500000  1
  Mg  Mg4  1  0.66941095  0.83058905  0.12500000  1
  Mg  Mg5  1  0.66206612  0.83793388  0.62500000  1
  Mg  Mg6  1  0.32507828  0.17492172  0.36543661  1
  Mg  Mg7  1  0.32507828  0.17492172  0.88456339  1
  Mg  Mg8  1  0.32507828  0.65015755  0.36543661  1
  Mg  Mg9  1  0.32507828  0.65015755  0.88456339  1
  Mg  Mg10  1  0.84984245  0.17492172  0.36543661  1
  Mg  Mg11  1  0.84984245  0.17492172  0.88456339  1
  Mg  Mg12  1  0.83333300  0.66666700  0.38350702  1
  Mg  Mg13  1  0.83333300  0.66666700  0.86649298  1
  B  B0  1  0.16666700  0.33333300  0.12500000  1
loop_
_geom_bond_atom_site_label_1
_geom_bond_atom_site_label_2
_geom_bond_distance
_geom_bond_site_symmetry_2
Hf0 Mg7 3.106682 1_555
Hf0 Mg6 3.106682 1_555
Hf0 Mg9 3.106688 1_555
Hf0 Mg8 3.106688 1_555
Hf0 Mg11 3.106688 1_455
Hf0 Mg10 3.106688 1_455
Hf0 Mg1 3.131834 1_555
Hf0 Mg5 3.131834 1_555
Hf0 Mg1 3.131834 1_545
Hf0 Mg5 3.131834 1_445
Hf0 Mg3 3.131834 1_555
Hf0 Mg3 3.131834 1_455
Mg0 Mg8 3.039462 1_555
Mg0 Mg9 3.039462 1_554
Mg0 Mg6 3.039469 1_565
Mg0 Mg7 3.039469 1_564
Mg0 Mg12 3.131473 1_455
Mg0 Mg13 3.131473 1_454
Mg1 Mg12 3.041381 1_455
Mg1 Mg13 3.041381 1_455
Mg1 Mg3 3.044992 1_565
Mg1 Mg5 3.044992 1_555
Mg1 Mg9 3.170784 1_555
Mg1 Mg8 3.170784 1_555
Mg1 Mg7 3.170791 1_565
Mg1 Mg6 3.170791 1_565
Mg1 Mg3 3.217881 1_455
Mg1 Mg5 3.217881 1_455
Mg2 Mg6 3.039469 1_555
Mg2 Mg7 3.039469 1_554
Mg3 Mg5 3.044992 1_545
Mg3 Mg7 3.170791 1_555
Mg3 Mg6 3.170791 1_555
Mg3 Mg5 3.217881 1_555
Mg4 Mg8 3.039469 1_555
Mg4 Mg9 3.039469 1_554
Mg5 Mg9 3.170790 1_555
Mg5 Mg8 3.170790 1_555
Mg6 Mg8 2.976342 1_555
Mg6 Mg8 3.286531 1_545
Mg7 Mg9 2.976342 1_555
Mg7 Mg9 3.286531 1_545
Mg10 Mg8 2.976342 1_655
Mg10 Mg6 2.976342 1_655
Mg10 Mg2 3.039462 1_555
Mg10 Mg4 3.039469 1_545
Mg10 Mg12 3.137894 1_545
Mg10 Mg12 3.137894 1_555
Mg10 Mg3 3.170784 1_555
Mg10 Mg5 3.170790 1_545
Mg10 Mg8 3.286531 1_545
Mg10 Mg6 3.286531 1_555
Mg11 Mg9 2.976342 1_655
Mg11 Mg7 2.976342 1_655
Mg11 Mg2 3.039462 1_556
Mg11 Mg4 3.039469 1_546
Mg11 Mg13 3.137894 1_545
Mg11 Mg13 3.137894 1_555
Mg11 Mg3 3.170784 1_555
Mg11 Mg5 3.170790 1_545
Mg11 Mg9 3.286531 1_545
Mg11 Mg7 3.286531 1_555
Mg12 Mg5 3.041374 1_555
Mg12 Mg3 3.041381 1_555
Mg12 Mg4 3.131466 1_555
Mg12 Mg2 3.131472 1_555
Mg12 Mg6 3.137894 1_665
Mg12 Mg6 3.137894 1_555
Mg12 Mg8 3.137894 1_555
Mg12 Mg8 3.137894 1_655
Mg13 Mg5 3.041374 1_555
Mg13 Mg3 3.041381 1_555
Mg13 Mg4 3.131466 1_556
Mg13 Mg2 3.131472 1_556
Mg13 Mg7 3.137894 1_665
Mg13 Mg7 3.137894 1_555
Mg13 Mg9 3.137894 1_555
Mg13 Mg9 3.137894 1_655
B0 Mg6 2.949683 1_555
B0 Mg7 2.949683 1_554
B0 Mg8 2.949689 1_555
B0 Mg9 2.949689 1_554
B0 Mg10 2.949689 1_455
B0 Mg11 2.949689 1_454
