# generated using pymatgen
data_Sr5Fe4MoO15
_symmetry_space_group_name_H-M   'P 1'
_cell_length_a   5.59065716
_cell_length_b   13.71127696
_cell_length_c   8.85189125
_cell_angle_alpha   104.84648423
_cell_angle_beta   71.57804413
_cell_angle_gamma   89.98420514
_symmetry_Int_Tables_number   1
_chemical_formula_structural   Sr5Fe4MoO15
_chemical_formula_sum   'Sr10 Fe8 Mo2 O30'
_cell_volume   619.83162263
_cell_formula_units_Z   2
loop_
 _symmetry_equiv_pos_site_id
 _symmetry_equiv_pos_as_xyz
  1  'x, y, z'
loop_
 _atom_site_type_symbol
 _atom_site_label
 _atom_site_symmetry_multiplicity
 _atom_site_fract_x
 _atom_site_fract_y
 _atom_site_fract_z
 _atom_site_occupancy
  Sr  Sr0  1  0.60085400  0.29960900  0.79771200  1
  Sr  Sr1  1  0.59971500  0.79903000  0.80017700  1
  Sr  Sr2  1  0.20600400  0.10239600  0.58751000  1
  Sr  Sr3  1  0.20723500  0.60142100  0.58550300  1
  Sr  Sr4  1  0.99472200  0.49836800  0.01069300  1
  Sr  Sr5  1  0.99371500  0.99811500  0.01254900  1
  Sr  Sr6  1  0.39515200  0.20413600  0.20907400  1
  Sr  Sr7  1  0.39603000  0.70381900  0.20783800  1
  Sr  Sr8  1  0.80460200  0.39736300  0.39087300  1
  Sr  Sr9  1  0.80478000  0.89710800  0.39025000  1
  Fe  Fe0  1  0.99912500  0.75544800  0.00190500  1
  Fe  Fe1  1  0.20196100  0.34560800  0.59568400  1
  Fe  Fe2  1  0.80298700  0.65169100  0.39353000  1
  Fe  Fe3  1  0.99983900  0.25403500  0.99986300  1
  Fe  Fe4  1  0.20147900  0.84557300  0.59670000  1
  Fe  Fe5  1  0.39668200  0.45057200  0.20684500  1
  Fe  Fe6  1  0.39752700  0.94869300  0.20472600  1
  Fe  Fe7  1  0.80231400  0.15241500  0.39504600  1
  Mo  Mo0  1  0.59926100  0.04968600  0.80150100  1
  Mo  Mo1  1  0.60028900  0.54935600  0.79941300  1
  O  O0  1  0.09779200  0.29838500  0.80363500  1
  O  O1  1  0.09900500  0.79640000  0.80362500  1
  O  O2  1  0.09573400  0.05164000  0.30020800  1
  O  O3  1  0.10476100  0.54943500  0.29539900  1
  O  O4  1  0.60447100  0.05158900  0.30062500  1
  O  O5  1  0.60157100  0.54953700  0.29584200  1
  O  O6  1  0.69808500  0.09563200  0.60475400  1
  O  O7  1  0.69928800  0.59781900  0.60229700  1
  O  O8  1  0.49916400  0.00415500  0.00230200  1
  O  O9  1  0.50352300  0.49909700  0.99343300  1
  O  O10  1  0.90289500  0.19997500  0.19302000  1
  O  O11  1  0.90487400  0.70113700  0.19071100  1
  O  O12  1  0.29870200  0.40048100  0.40183200  1
  O  O13  1  0.29585900  0.90736600  0.40862800  1
  O  O14  1  0.50479400  0.24638700  0.50082800  1
  O  O15  1  0.50186000  0.75028400  0.49888800  1
  O  O16  1  0.69906700  0.34988200  0.10038600  1
  O  O17  1  0.69818700  0.85050700  0.10001000  1
  O  O18  1  0.99358400  0.24646100  0.50052800  1
  O  O19  1  0.99942100  0.75006600  0.49858900  1
  O  O20  1  0.19911600  0.34973200  0.10004100  1
  O  O21  1  0.20294100  0.85051600  0.09986600  1
  O  O22  1  0.89307900  0.45153700  0.70297200  1
  O  O23  1  0.88963200  0.95204500  0.71083600  1
  O  O24  1  0.30555900  0.14887900  0.89802500  1
  O  O25  1  0.30637600  0.64686600  0.89686300  1
  O  O26  1  0.40367300  0.45169800  0.70301300  1
  O  O27  1  0.39996400  0.95216300  0.71076900  1
  O  O28  1  0.79655800  0.14897400  0.89793800  1
  O  O29  1  0.79619000  0.64691200  0.89674200  1
loop_
_geom_bond_atom_site_label_1
_geom_bond_atom_site_label_2
_geom_bond_distance
_geom_bond_site_symmetry_2
Fe0 O1 1.895637 1_654
Fe0 O11 1.925309 1_555
Fe0 O17 1.943934 1_555
Fe0 O21 1.948204 1_655
Fe0 O25 2.076396 1_654
Fe0 O29 2.080119 1_554
Fe1 O12 1.969358 1_555
Fe1 O14 1.984208 1_555
Fe1 O18 1.987194 1_455
Fe1 O0 2.019963 1_555
Fe1 O22 2.061241 1_455
Fe1 O26 2.064005 1_555
Fe2 O15 1.972751 1_555
Fe2 O19 1.973256 1_555
Fe2 O5 1.993285 1_555
Fe2 O11 1.996233 1_555
Fe2 O3 2.003750 1_655
Fe2 O7 2.078312 1_555
Fe3 O0 1.904490 1_655
Fe3 O20 1.943749 1_656
Fe3 O16 1.949410 1_556
Fe3 O10 1.957194 1_556
Fe3 O28 2.040493 1_555
Fe3 O24 2.042436 1_655
Fe4 O15 1.943434 1_555
Fe4 O19 1.945051 1_455
Fe4 O13 1.983858 1_555
Fe4 O1 2.026744 1_555
Fe4 O23 2.078700 1_455
Fe4 O27 2.083182 1_555
Fe5 O12 1.939329 1_555
Fe5 O3 1.939373 1_555
Fe5 O5 1.948681 1_555
Fe5 O16 1.994263 1_555
Fe5 O20 2.004107 1_555
Fe5 O9 2.073480 1_554
Fe6 O13 1.943653 1_555
Fe6 O21 1.963614 1_555
Fe6 O17 1.967615 1_555
Fe6 O2 2.009857 1_565
Fe6 O4 2.014321 1_565
Fe6 O8 2.041289 1_565
Fe7 O18 1.921681 1_555
Fe7 O14 1.923486 1_555
Fe7 O4 1.956052 1_555
Fe7 O2 1.959306 1_655
Fe7 O10 1.975288 1_555
Fe7 O6 2.109229 1_555
Mo0 O6 1.920816 1_555
Mo0 O27 1.921081 1_545
Mo0 O23 1.922631 1_545
Mo0 O24 1.947430 1_555
Mo0 O28 1.949123 1_555
Mo0 O8 1.949992 1_556
Mo1 O22 1.932850 1_555
Mo1 O9 1.933041 1_555
Mo1 O26 1.933258 1_555
Mo1 O29 1.933283 1_555
Mo1 O25 1.934827 1_555
Mo1 O7 1.943291 1_555
O0 Sr0 2.795348 1_455
O0 Sr0 2.796457 1_555
O0 Sr2 2.807204 1_555
O0 Sr4 2.822449 1_456
O1 Sr1 2.790147 1_555
O1 Sr1 2.801477 1_455
O1 Sr3 2.802983 1_555
O1 Sr5 2.847109 1_456
O2 Sr5 2.703360 1_445
O2 Sr2 2.723272 1_555
O2 Sr9 2.796168 1_445
O2 Sr6 2.799578 1_555
O3 Sr4 2.701092 1_455
O3 Sr3 2.724477 1_555
O3 Sr7 2.788948 1_555
O3 Sr8 2.808291 1_455
O4 Sr5 2.703606 1_545
O4 Sr2 2.722853 1_555
O4 Sr9 2.791295 1_545
O4 Sr6 2.804944 1_555
O5 Sr4 2.698082 1_555
O5 Sr3 2.726245 1_555
O5 Sr7 2.794841 1_555
O5 Sr8 2.801987 1_555
O6 Sr2 2.797979 1_655
O6 Sr2 2.805838 1_555
O6 Sr0 2.828288 1_555
O6 Sr9 2.829334 1_545
O7 Sr3 2.797461 1_655
O7 Sr3 2.802524 1_555
O7 Sr1 2.809943 1_555
O7 Sr8 2.840800 1_555
O8 Sr5 2.796747 1_545
O8 Sr5 2.800387 1_445
O8 Sr6 2.821577 1_555
O8 Sr1 2.865690 1_544
O9 Sr0 2.784613 1_555
O9 Sr4 2.798319 1_556
O9 Sr4 2.800165 1_456
O9 Sr7 2.896641 1_556
O10 Sr8 2.766941 1_555
O10 Sr5 2.773274 1_545
O10 Sr6 2.796784 1_555
O10 Sr6 2.800051 1_655
O11 Sr9 2.755956 1_555
O11 Sr4 2.782838 1_555
O11 Sr7 2.797236 1_655
O11 Sr7 2.800280 1_555
O12 Sr6 2.741067 1_555
O12 Sr3 2.770180 1_555
O12 Sr8 2.794474 1_455
O12 Sr8 2.799106 1_555
O13 Sr2 2.690190 1_565
O13 Sr9 2.799454 1_555
O13 Sr9 2.802594 1_455
O13 Sr7 2.844248 1_555
O14 Sr2 2.691655 1_555
O14 Sr6 2.759537 1_555
O14 Sr0 2.763454 1_555
O14 Sr8 2.836420 1_555
O15 Sr3 2.733619 1_555
O15 Sr7 2.741527 1_555
O15 Sr9 2.794676 1_555
O15 Sr1 2.804933 1_555
O16 Sr8 2.735880 1_555
O16 Sr4 2.740122 1_555
O16 Sr6 2.785668 1_555
O16 Sr0 2.817535 1_554
O17 Sr5 2.724271 1_555
O17 Sr9 2.736906 1_555
O17 Sr7 2.788633 1_555
O17 Sr1 2.794484 1_554
O18 Sr2 2.694631 1_655
O18 Sr6 2.757582 1_655
O18 Sr0 2.763742 1_555
O18 Sr8 2.831181 1_555
O19 Sr3 2.731814 1_655
O19 Sr7 2.738353 1_655
O19 Sr9 2.796030 1_555
O19 Sr1 2.807390 1_555
O20 Sr8 2.732701 1_455
O20 Sr4 2.735068 1_455
O20 Sr6 2.787940 1_555
O20 Sr0 2.817168 1_554
O21 Sr5 2.726349 1_455
O21 Sr9 2.740750 1_455
O21 Sr7 2.785779 1_555
O21 Sr1 2.788649 1_554
O22 Sr0 2.782622 1_555
O22 Sr4 2.870033 1_556
O22 Sr8 2.870717 1_555
O22 Sr3 2.886560 1_655
O23 Sr1 2.774211 1_555
O23 Sr5 2.826357 1_556
O23 Sr2 2.916311 1_665
O23 Sr9 2.932762 1_555
O24 Sr0 2.793025 1_555
O24 Sr6 2.865097 1_556
O24 Sr5 2.880838 1_446
O24 Sr2 2.887972 1_555
O25 Sr1 2.793692 1_555
O25 Sr4 2.853153 1_456
O25 Sr7 2.865159 1_556
O25 Sr3 2.894356 1_555
O26 Sr0 2.783005 1_555
O26 Sr4 2.867913 1_456
O26 Sr8 2.871136 1_555
O26 Sr3 2.884007 1_555
O27 Sr1 2.773241 1_555
O27 Sr5 2.827263 1_456
O27 Sr2 2.916797 1_565
O27 Sr9 2.929975 1_555
O28 Sr0 2.793089 1_555
O28 Sr6 2.866827 1_556
O28 Sr5 2.881607 1_546
O28 Sr2 2.884946 1_655
O29 Sr1 2.791641 1_555
O29 Sr4 2.856008 1_556
O29 Sr7 2.863785 1_556
O29 Sr3 2.894368 1_655
