# generated using pymatgen
data_Y2Be2Fe(SiO5)2
_symmetry_space_group_name_H-M   'P 1'
_cell_length_a   7.57055000
_cell_length_b   4.79307300
_cell_length_c   10.04142312
_cell_angle_alpha   89.45149652
_cell_angle_beta   90.00000000
_cell_angle_gamma   90.00000000
_symmetry_Int_Tables_number   1
_chemical_formula_structural   Y2Be2Fe(SiO5)2
_chemical_formula_sum   'Y4 Be4 Fe2 Si4 O20'
_cell_volume   364.34837956
_cell_formula_units_Z   2
loop_
 _symmetry_equiv_pos_site_id
 _symmetry_equiv_pos_as_xyz
  1  'x, y, z'
loop_
 _atom_site_type_symbol
 _atom_site_label
 _atom_site_symmetry_multiplicity
 _atom_site_fract_x
 _atom_site_fract_y
 _atom_site_fract_z
 _atom_site_occupancy
  Y  Y0  1  0.60625700  0.00137000  0.82879500  1
  Y  Y1  1  0.10625700  0.99863000  0.67120500  1
  Y  Y2  1  0.39374300  0.99863000  0.17120500  1
  Y  Y3  1  0.89374300  0.00137000  0.32879500  1
  Be  Be0  1  0.91302500  0.53417000  0.83451700  1
  Be  Be1  1  0.41302500  0.46583000  0.66548300  1
  Be  Be2  1  0.08697500  0.46583000  0.16548300  1
  Be  Be3  1  0.58697500  0.53417000  0.33451700  1
  Fe  Fe0  1  0.00000000  0.00000000  0.00000000  1
  Fe  Fe1  1  0.50000000  0.00000000  0.50000000  1
  Si  Si0  1  0.77953000  0.48060100  0.57769300  1
  Si  Si1  1  0.27953000  0.51939900  0.92230700  1
  Si  Si2  1  0.22047000  0.51939900  0.42230700  1
  Si  Si3  1  0.72047000  0.48060100  0.07769300  1
  O  O0  1  0.60652400  0.31363600  0.64168600  1
  O  O1  1  0.10652400  0.68636400  0.85831400  1
  O  O2  1  0.39347600  0.68636400  0.35831400  1
  O  O3  1  0.89347600  0.31363600  0.14168600  1
  O  O4  1  0.41250500  0.79828500  0.66846400  1
  O  O5  1  0.91250500  0.20171500  0.83153600  1
  O  O6  1  0.58749500  0.20171500  0.33153600  1
  O  O7  1  0.21333900  0.32411200  0.04946900  1
  O  O8  1  0.58555100  0.23790600  0.02899200  1
  O  O9  1  0.08555100  0.76209400  0.47100800  1
  O  O10  1  0.84821000  0.69059500  0.69550600  1
  O  O11  1  0.91444900  0.23790600  0.52899200  1
  O  O12  1  0.71333900  0.67588800  0.45053100  1
  O  O13  1  0.41444900  0.76209400  0.97100800  1
  O  O14  1  0.28666100  0.32411200  0.54946900  1
  O  O15  1  0.78666100  0.67588800  0.95053100  1
  O  O16  1  0.65179000  0.69059500  0.19550600  1
  O  O17  1  0.15179000  0.30940500  0.30449400  1
  O  O18  1  0.34821000  0.30940500  0.80449400  1
  O  O19  1  0.08749500  0.79828500  0.16846400  1
loop_
_geom_bond_atom_site_label_1
_geom_bond_atom_site_label_2
_geom_bond_distance
_geom_bond_site_symmetry_2
Be0 O5 1.594054 1_555
Be0 O10 1.652670 1_555
Be0 O1 1.654838 1_655
Be0 O15 1.657956 1_555
Be1 O4 1.594054 1_555
Be1 O18 1.652670 1_555
Be1 O0 1.654838 1_555
Be1 O14 1.657956 1_555
Be2 O19 1.594054 1_555
Be2 O17 1.652670 1_555
Be2 O3 1.654838 1_455
Be2 O7 1.657956 1_555
Be3 O6 1.594054 1_555
Be3 O16 1.652670 1_555
Be3 O2 1.654838 1_555
Be3 O12 1.657956 1_555
Fe0 O19 2.050313 1_545
Fe0 O5 2.050313 1_454
Fe0 O3 2.230541 1_455
Fe0 O1 2.230541 1_544
Fe0 O7 2.298563 1_555
Fe0 O15 2.298563 1_444
Fe1 O6 2.050313 1_555
Fe1 O4 2.050313 1_545
Fe1 O0 2.230541 1_555
Fe1 O2 2.230541 1_545
Fe1 O14 2.298563 1_555
Fe1 O12 2.298563 1_545
O0 Si0 1.661009 1_555
O0 Y0 2.390891 1_555
O1 Si1 1.661009 1_555
O1 Y1 2.390891 1_555
O2 Si2 1.661009 1_555
O2 Y2 2.390891 1_555
O3 Si3 1.661009 1_555
O3 Y3 2.390891 1_555
O4 Y0 2.391859 1_565
O4 Y1 2.509714 1_555
O5 Y1 2.391859 1_645
O5 Y0 2.509714 1_555
O6 Y2 2.391859 1_545
O6 Y3 2.509714 1_555
O7 Si1 1.653724 1_554
O7 Y2 2.399340 1_545
O8 Si3 1.626801 1_555
O8 Y0 2.322653 1_554
O8 Y2 2.330614 1_545
O9 Si2 1.626801 1_555
O9 Y1 2.322653 1_555
O9 Y3 2.330614 1_465
O10 Si0 1.644910 1_555
O10 Y1 2.459450 1_655
O10 Y0 2.720940 1_565
O11 Si0 1.626801 1_555
O11 Y3 2.322653 1_555
O11 Y1 2.330614 1_645
O12 Si0 1.653724 1_555
O12 Y3 2.399340 1_565
O13 Si1 1.626801 1_555
O13 Y2 2.322653 1_556
O13 Y0 2.330614 1_565
O14 Si2 1.653724 1_555
O14 Y1 2.399340 1_545
O15 Si3 1.653724 1_556
O15 Y0 2.399340 1_565
O16 Si3 1.644910 1_555
O16 Y2 2.459450 1_555
O16 Y3 2.720940 1_565
O17 Si2 1.644910 1_555
O17 Y3 2.459450 1_455
O17 Y2 2.720940 1_545
O18 Si1 1.644910 1_555
O18 Y0 2.459450 1_555
O18 Y1 2.720940 1_545
O19 Y3 2.391859 1_465
O19 Y2 2.509714 1_555
