# generated using pymatgen
data_YbTi2O5F
_symmetry_space_group_name_H-M   'P 1'
_cell_length_a   5.11141219
_cell_length_b   5.42700194
_cell_length_c   14.36561761
_cell_angle_alpha   90.00000000
_cell_angle_beta   90.00000000
_cell_angle_gamma   90.00000000
_symmetry_Int_Tables_number   1
_chemical_formula_structural   YbTi2O5F
_chemical_formula_sum   'Yb4 Ti8 O20 F4'
_cell_volume   398.49711608
_cell_formula_units_Z   4
loop_
 _symmetry_equiv_pos_site_id
 _symmetry_equiv_pos_as_xyz
  1  'x, y, z'
loop_
 _atom_site_type_symbol
 _atom_site_label
 _atom_site_symmetry_multiplicity
 _atom_site_fract_x
 _atom_site_fract_y
 _atom_site_fract_z
 _atom_site_occupancy
  Yb  Yb0  1  0.00000000  0.50126709  0.00000000  1
  Yb  Yb1  1  0.50000000  0.49873291  0.50000000  1
  Yb  Yb2  1  0.50000000  0.98566960  0.00000000  1
  Yb  Yb3  1  0.00000000  0.01433040  0.50000000  1
  Ti  Ti0  1  0.42380119  0.42633473  0.83932294  1
  Ti  Ti1  1  0.92380119  0.57366527  0.66067706  1
  Ti  Ti2  1  0.07619881  0.57366527  0.33932294  1
  Ti  Ti3  1  0.57619881  0.42633473  0.16067706  1
  Ti  Ti4  1  0.06099754  0.10817770  0.18086076  1
  Ti  Ti5  1  0.56099754  0.89182230  0.31913924  1
  Ti  Ti6  1  0.43900246  0.89182230  0.68086076  1
  Ti  Ti7  1  0.93900246  0.10817770  0.81913924  1
  O  O0  1  0.71147025  0.30776040  0.91081347  1
  O  O1  1  0.21147025  0.69223960  0.58918653  1
  O  O2  1  0.78852975  0.69223960  0.41081347  1
  O  O3  1  0.28852975  0.30776040  0.08918653  1
  O  O4  1  0.79195927  0.18293494  0.09068644  1
  O  O5  1  0.29195927  0.81706506  0.40931356  1
  O  O6  1  0.70804073  0.81706506  0.59068644  1
  O  O7  1  0.20804073  0.18293494  0.90931356  1
  O  O8  1  0.58893625  0.61727639  0.74083915  1
  O  O9  1  0.08893625  0.38272361  0.75916085  1
  O  O10  1  0.91106375  0.38272361  0.24083915  1
  O  O11  1  0.41106375  0.61727639  0.25916085  1
  O  O12  1  0.90398219  0.88097619  0.25862753  1
  O  O13  1  0.40398219  0.11902381  0.24137247  1
  O  O14  1  0.59601781  0.11902381  0.75862753  1
  O  O15  1  0.09601781  0.88097619  0.74137247  1
  O  O16  1  0.32718048  0.66256847  0.91843933  1
  O  O17  1  0.82718048  0.33743153  0.58156067  1
  O  O18  1  0.17281952  0.33743153  0.41843933  1
  O  O19  1  0.67281952  0.66256847  0.08156067  1
  F  F0  1  0.17018434  0.83618444  0.08497193  1
  F  F1  1  0.67018434  0.16381556  0.41502807  1
  F  F2  1  0.32981566  0.16381556  0.58497193  1
  F  F3  1  0.82981566  0.83618444  0.91502807  1
loop_
_geom_bond_atom_site_label_1
_geom_bond_atom_site_label_2
_geom_bond_distance
_geom_bond_site_symmetry_2
O0 Ti0 1.905492 1_555
O0 Ti7 2.064014 1_555
O0 Yb0 2.217968 1_656
O0 Yb2 2.421849 1_546
O1 Ti1 1.905492 1_455
O1 Ti6 2.064014 1_555
O1 Yb1 2.217968 1_555
O1 Yb3 2.421849 1_565
O2 Ti2 1.905492 1_655
O2 Ti5 2.064014 1_555
O2 Yb1 2.217968 1_555
O2 Yb3 2.421849 1_665
O3 Ti3 1.905492 1_555
O3 Ti4 2.064014 1_555
O3 Yb0 2.217968 1_555
O3 Yb2 2.421849 1_545
O4 Ti4 1.932295 1_655
O4 Ti3 1.993004 1_555
O4 Yb2 2.251739 1_545
O4 Yb0 2.410922 1_655
O5 Ti5 1.932295 1_555
O5 Ti2 1.993004 1_555
O5 Yb3 2.251739 1_565
O5 Yb1 2.410922 1_555
O6 Ti6 1.932295 1_555
O6 Ti1 1.993004 1_555
O6 Yb3 2.251739 1_665
O6 Yb1 2.410922 1_555
O7 Ti7 1.932295 1_455
O7 Ti0 1.993004 1_555
O7 Yb2 2.251739 1_546
O7 Yb0 2.410922 1_556
O8 Ti6 1.884068 1_555
O8 Ti0 1.946242 1_555
O8 Ti1 2.076496 1_555
O9 Ti7 1.884068 1_455
O9 Ti1 1.946242 1_455
O9 Ti0 2.076496 1_555
O10 Ti4 1.884068 1_655
O10 Ti2 1.946242 1_655
O10 Ti3 2.076496 1_555
O11 Ti5 1.884068 1_555
O11 Ti3 1.946242 1_555
O11 Ti2 2.076496 1_555
O12 Ti4 1.847303 1_665
O12 Ti5 1.957706 1_555
O12 Ti2 2.213638 1_655
O13 Ti5 1.847303 1_545
O13 Ti4 1.957706 1_555
O13 Ti3 2.213638 1_555
O14 Ti6 1.847303 1_545
O14 Ti7 1.957706 1_555
O14 Ti0 2.213638 1_555
O15 Ti7 1.847303 1_465
O15 Ti6 1.957706 1_555
O15 Ti1 2.213638 1_455
O16 Ti0 1.783057 1_555
O16 Yb0 2.221683 1_556
O16 Yb2 2.286433 1_556
O17 Ti1 1.783057 1_555
O17 Yb1 2.221683 1_555
O17 Yb3 2.286433 1_655
O18 Ti2 1.783057 1_555
O18 Yb1 2.221683 1_555
O18 Yb3 2.286433 1_555
O19 Ti3 1.783057 1_555
O19 Yb0 2.221683 1_655
O19 Yb2 2.286433 1_555
F0 Ti4 2.094727 1_565
F0 Yb2 2.233872 1_555
F0 Yb0 2.355929 1_555
F1 Ti5 2.094727 1_545
F1 Yb3 2.233872 1_655
F1 Yb1 2.355929 1_555
F2 Ti6 2.094727 1_545
F2 Yb3 2.233872 1_555
F2 Yb1 2.355929 1_555
F3 Ti7 2.094727 1_565
F3 Yb2 2.233872 1_556
F3 Yb0 2.355929 1_656
