# generated using pymatgen
data_Mg2Si
_symmetry_space_group_name_H-M   'P 1'
_cell_length_a   5.51438900
_cell_length_b   7.06890296
_cell_length_c   7.08111932
_cell_angle_alpha   102.60542676
_cell_angle_beta   110.85937281
_cell_angle_gamma   102.66311677
_symmetry_Int_Tables_number   1
_chemical_formula_structural   Mg2Si
_chemical_formula_sum   'Mg8 Si4'
_cell_volume   238.00120605
_cell_formula_units_Z   4
loop_
 _symmetry_equiv_pos_site_id
 _symmetry_equiv_pos_as_xyz
  1  'x, y, z'
loop_
 _atom_site_type_symbol
 _atom_site_label
 _atom_site_symmetry_multiplicity
 _atom_site_fract_x
 _atom_site_fract_y
 _atom_site_fract_z
 _atom_site_occupancy
  Mg  Mg0  1  0.28537700  0.76396900  0.07923300  1
  Mg  Mg1  1  0.27464200  0.19428900  0.43240000  1
  Mg  Mg2  1  0.78843100  0.33414000  0.92853300  1
  Mg  Mg3  1  0.31373800  0.92247700  0.72465100  1
  Mg  Mg4  1  0.34100000  0.32105500  0.04869800  1
  Mg  Mg5  1  0.90910900  0.48007400  0.57552800  1
  Mg  Mg6  1  0.75344900  0.99860200  0.56733400  1
  Mg  Mg7  1  0.85826300  0.72086500  0.25639500  1
  Si  Si0  1  0.70897700  0.12531000  0.21808200  1
  Si  Si1  1  0.87574900  0.94963300  0.97146600  1
  Si  Si2  1  0.37359900  0.58873100  0.40522100  1
  Si  Si3  1  0.51755600  0.60085500  0.79198600  1
loop_
_geom_bond_atom_site_label_1
_geom_bond_atom_site_label_2
_geom_bond_distance
_geom_bond_site_symmetry_2
Mg0 Si0 2.756773 1_565
Mg0 Si2 2.795035 1_555
Mg0 Si1 2.813645 1_454
Mg0 Si3 2.929879 1_554
Mg0 Mg3 3.002498 1_554
Mg1 Si2 2.784097 1_555
Mg1 Si0 2.812443 1_455
Mg1 Si3 3.037536 1_555
Mg1 Si1 3.039426 1_444
Mg1 Mg3 3.101679 1_545
Mg2 Si3 2.778959 1_555
Mg2 Si0 2.872669 1_556
Mg2 Si1 2.922713 1_545
Mg2 Mg3 3.088649 1_545
Mg3 Si3 2.805578 1_555
Mg3 Si1 2.903705 1_555
Mg3 Mg6 3.003839 1_555
Mg3 Si2 3.055350 1_555
Mg3 Mg6 3.100963 1_455
Mg3 Mg5 3.113687 1_455
Mg3 Mg7 3.125876 1_455
Mg3 Mg4 3.158009 1_566
Mg3 Si0 3.167714 1_566
Mg4 Si2 2.725588 1_555
Mg4 Si0 2.773615 1_555
Mg4 Si1 3.032409 1_444
Mg4 Si3 3.185862 1_554
Mg5 Si0 2.817854 1_555
Mg5 Si3 2.974258 1_655
Mg5 Si2 3.102771 1_555
Mg5 Si3 3.214699 1_555
Mg5 Si2 3.216595 1_655
Mg6 Si0 2.758590 1_565
Mg6 Si1 2.815016 1_555
Mg6 Si2 2.876623 1_555
Mg7 Si1 2.861730 1_554
Mg7 Si3 2.957622 1_554
Mg7 Si2 3.085336 1_655
Mg7 Si2 3.235265 1_555
Si0 Si1 2.476978 1_544
Si1 Si3 2.510933 1_555
Si2 Si3 2.541179 1_555
