# generated using pymatgen
data_CaH12(W3Cl)2
_symmetry_space_group_name_H-M   'P 1'
_cell_length_a   5.14733600
_cell_length_b   22.27474112
_cell_length_c   22.27474112
_cell_angle_alpha   120.00000334
_cell_angle_beta   90.00000000
_cell_angle_gamma   90.00000000
_symmetry_Int_Tables_number   1
_chemical_formula_structural   CaH12(W3Cl)2
_chemical_formula_sum   'Ca8 H96 W48 Cl16'
_cell_volume   2211.76237692
_cell_formula_units_Z   8
loop_
 _symmetry_equiv_pos_site_id
 _symmetry_equiv_pos_as_xyz
  1  'x, y, z'
loop_
 _atom_site_type_symbol
 _atom_site_label
 _atom_site_symmetry_multiplicity
 _atom_site_fract_x
 _atom_site_fract_y
 _atom_site_fract_z
 _atom_site_occupancy
  Ca  Ca0_0  1  0.00000000  0.00000000  0.00000000  1
  Ca  Ca0_1  1  0.00000000  0.00000000  0.50000000  1
  Ca  Ca0_2  1  0.00000000  0.50000000  0.00000000  1
  Ca  Ca0_3  1  0.00000000  0.50000000  0.50000000  1
  Ca  Ca0_4  1  0.50000000  0.00000000  0.00000000  1
  Ca  Ca0_5  1  0.50000000  0.00000000  0.50000000  1
  Ca  Ca0_6  1  0.50000000  0.50000000  0.00000000  1
  Ca  Ca0_7  1  0.50000000  0.50000000  0.50000000  1
  H  H0_0  1  0.48945450  0.29730400  0.02109700  1
  H  H0_1  1  0.48945450  0.29730400  0.52109700  1
  H  H0_2  1  0.48945450  0.79730400  0.02109700  1
  H  H0_3  1  0.48945450  0.79730400  0.52109700  1
  H  H0_4  1  0.98945450  0.29730400  0.02109700  1
  H  H0_5  1  0.98945450  0.29730400  0.52109700  1
  H  H0_6  1  0.98945450  0.79730400  0.02109700  1
  H  H0_7  1  0.98945450  0.79730400  0.52109700  1
  H  H1_0  1  0.48945450  0.22379300  0.20269600  1
  H  H1_1  1  0.48945450  0.22379300  0.70269600  1
  H  H1_2  1  0.48945450  0.72379300  0.20269600  1
  H  H1_3  1  0.48945450  0.72379300  0.70269600  1
  H  H1_4  1  0.98945450  0.22379300  0.20269600  1
  H  H1_5  1  0.98945450  0.22379300  0.70269600  1
  H  H1_6  1  0.98945450  0.72379300  0.20269600  1
  H  H1_7  1  0.98945450  0.72379300  0.70269600  1
  H  H2_0  1  0.01054550  0.27620700  0.47890300  1
  H  H2_1  1  0.01054550  0.27620700  0.97890300  1
  H  H2_2  1  0.01054550  0.77620700  0.47890300  1
  H  H2_3  1  0.01054550  0.77620700  0.97890300  1
  H  H2_4  1  0.51054550  0.27620700  0.47890300  1
  H  H2_5  1  0.51054550  0.27620700  0.97890300  1
  H  H2_6  1  0.51054550  0.77620700  0.47890300  1
  H  H2_7  1  0.51054550  0.77620700  0.97890300  1
  H  H3_0  1  0.48945450  0.47890300  0.27620700  1
  H  H3_1  1  0.48945450  0.47890300  0.77620700  1
  H  H3_2  1  0.48945450  0.97890300  0.27620700  1
  H  H3_3  1  0.48945450  0.97890300  0.77620700  1
  H  H3_4  1  0.98945450  0.47890300  0.27620700  1
  H  H3_5  1  0.98945450  0.47890300  0.77620700  1
  H  H3_6  1  0.98945450  0.97890300  0.27620700  1
  H  H3_7  1  0.98945450  0.97890300  0.77620700  1
  H  H4_0  1  0.01054550  0.02109700  0.29730400  1
  H  H4_1  1  0.01054550  0.02109700  0.79730400  1
  H  H4_2  1  0.01054550  0.52109700  0.29730400  1
  H  H4_3  1  0.01054550  0.52109700  0.79730400  1
  H  H4_4  1  0.51054550  0.02109700  0.29730400  1
  H  H4_5  1  0.51054550  0.02109700  0.79730400  1
  H  H4_6  1  0.51054550  0.52109700  0.29730400  1
  H  H4_7  1  0.51054550  0.52109700  0.79730400  1
  H  H5_0  1  0.01054550  0.20269600  0.22379300  1
  H  H5_1  1  0.01054550  0.20269600  0.72379300  1
  H  H5_2  1  0.01054550  0.70269600  0.22379300  1
  H  H5_3  1  0.01054550  0.70269600  0.72379300  1
  H  H5_4  1  0.51054550  0.20269600  0.22379300  1
  H  H5_5  1  0.51054550  0.20269600  0.72379300  1
  H  H5_6  1  0.51054550  0.70269600  0.22379300  1
  H  H5_7  1  0.51054550  0.70269600  0.72379300  1
  H  H6_0  1  0.24980400  0.32180400  0.42861600  1
  H  H6_1  1  0.24980400  0.32180400  0.92861600  1
  H  H6_2  1  0.24980400  0.82180400  0.42861600  1
  H  H6_3  1  0.24980400  0.82180400  0.92861600  1
  H  H6_4  1  0.74980400  0.32180400  0.42861600  1
  H  H6_5  1  0.74980400  0.32180400  0.92861600  1
  H  H6_6  1  0.74980400  0.82180400  0.42861600  1
  H  H6_7  1  0.74980400  0.82180400  0.92861600  1
  H  H7_0  1  0.24980400  0.10681200  0.17819600  1
  H  H7_1  1  0.24980400  0.10681200  0.67819600  1
  H  H7_2  1  0.24980400  0.60681200  0.17819600  1
  H  H7_3  1  0.24980400  0.60681200  0.67819600  1
  H  H7_4  1  0.74980400  0.10681200  0.17819600  1
  H  H7_5  1  0.74980400  0.10681200  0.67819600  1
  H  H7_6  1  0.74980400  0.60681200  0.17819600  1
  H  H7_7  1  0.74980400  0.60681200  0.67819600  1
  H  H8_0  1  0.25019600  0.39318800  0.07138400  1
  H  H8_1  1  0.25019600  0.39318800  0.57138400  1
  H  H8_2  1  0.25019600  0.89318800  0.07138400  1
  H  H8_3  1  0.25019600  0.89318800  0.57138400  1
  H  H8_4  1  0.75019600  0.39318800  0.07138400  1
  H  H8_5  1  0.75019600  0.39318800  0.57138400  1
  H  H8_6  1  0.75019600  0.89318800  0.07138400  1
  H  H8_7  1  0.75019600  0.89318800  0.57138400  1
  H  H9_0  1  0.24980400  0.07138400  0.39318800  1
  H  H9_1  1  0.24980400  0.07138400  0.89318800  1
  H  H9_2  1  0.24980400  0.57138400  0.39318800  1
  H  H9_3  1  0.24980400  0.57138400  0.89318800  1
  H  H9_4  1  0.74980400  0.07138400  0.39318800  1
  H  H9_5  1  0.74980400  0.07138400  0.89318800  1
  H  H9_6  1  0.74980400  0.57138400  0.39318800  1
  H  H9_7  1  0.74980400  0.57138400  0.89318800  1
  H  H10_0  1  0.25019600  0.42861600  0.32180400  1
  H  H10_1  1  0.25019600  0.42861600  0.82180400  1
  H  H10_2  1  0.25019600  0.92861600  0.32180400  1
  H  H10_3  1  0.25019600  0.92861600  0.82180400  1
  H  H10_4  1  0.75019600  0.42861600  0.32180400  1
  H  H10_5  1  0.75019600  0.42861600  0.82180400  1
  H  H10_6  1  0.75019600  0.92861600  0.32180400  1
  H  H10_7  1  0.75019600  0.92861600  0.82180400  1
  H  H11_0  1  0.25019600  0.17819600  0.10681200  1
  H  H11_1  1  0.25019600  0.17819600  0.60681200  1
  H  H11_2  1  0.25019600  0.67819600  0.10681200  1
  H  H11_3  1  0.25019600  0.67819600  0.60681200  1
  H  H11_4  1  0.75019600  0.17819600  0.10681200  1
  H  H11_5  1  0.75019600  0.17819600  0.60681200  1
  H  H11_6  1  0.75019600  0.67819600  0.10681200  1
  H  H11_7  1  0.75019600  0.67819600  0.60681200  1
  W  W0_0  1  0.00000000  0.12829550  0.12829550  1
  W  W0_1  1  0.00000000  0.12829550  0.62829550  1
  W  W0_2  1  0.00000000  0.62829550  0.12829550  1
  W  W0_3  1  0.00000000  0.62829550  0.62829550  1
  W  W0_4  1  0.50000000  0.12829550  0.12829550  1
  W  W0_5  1  0.50000000  0.12829550  0.62829550  1
  W  W0_6  1  0.50000000  0.62829550  0.12829550  1
  W  W0_7  1  0.50000000  0.62829550  0.62829550  1
  W  W1_0  1  0.00000000  0.00000000  0.37170450  1
  W  W1_1  1  0.00000000  0.00000000  0.87170450  1
  W  W1_2  1  0.00000000  0.50000000  0.37170450  1
  W  W1_3  1  0.00000000  0.50000000  0.87170450  1
  W  W1_4  1  0.50000000  0.00000000  0.37170450  1
  W  W1_5  1  0.50000000  0.00000000  0.87170450  1
  W  W1_6  1  0.50000000  0.50000000  0.37170450  1
  W  W1_7  1  0.50000000  0.50000000  0.87170450  1
  W  W2_0  1  0.00000000  0.37170450  0.00000000  1
  W  W2_1  1  0.00000000  0.37170450  0.50000000  1
  W  W2_2  1  0.00000000  0.87170450  0.00000000  1
  W  W2_3  1  0.00000000  0.87170450  0.50000000  1
  W  W2_4  1  0.50000000  0.37170450  0.00000000  1
  W  W2_5  1  0.50000000  0.37170450  0.50000000  1
  W  W2_6  1  0.50000000  0.87170450  0.00000000  1
  W  W2_7  1  0.50000000  0.87170450  0.50000000  1
  W  W3_0  1  0.25000000  0.38310200  0.38310200  1
  W  W3_1  1  0.25000000  0.38310200  0.88310200  1
  W  W3_2  1  0.25000000  0.88310200  0.38310200  1
  W  W3_3  1  0.25000000  0.88310200  0.88310200  1
  W  W3_4  1  0.75000000  0.38310200  0.38310200  1
  W  W3_5  1  0.75000000  0.38310200  0.88310200  1
  W  W3_6  1  0.75000000  0.88310200  0.38310200  1
  W  W3_7  1  0.75000000  0.88310200  0.88310200  1
  W  W4_0  1  0.25000000  0.00000000  0.11689800  1
  W  W4_1  1  0.25000000  0.00000000  0.61689800  1
  W  W4_2  1  0.25000000  0.50000000  0.11689800  1
  W  W4_3  1  0.25000000  0.50000000  0.61689800  1
  W  W4_4  1  0.75000000  0.00000000  0.11689800  1
  W  W4_5  1  0.75000000  0.00000000  0.61689800  1
  W  W4_6  1  0.75000000  0.50000000  0.11689800  1
  W  W4_7  1  0.75000000  0.50000000  0.61689800  1
  W  W5_0  1  0.25000000  0.11689800  0.00000000  1
  W  W5_1  1  0.25000000  0.11689800  0.50000000  1
  W  W5_2  1  0.25000000  0.61689800  0.00000000  1
  W  W5_3  1  0.25000000  0.61689800  0.50000000  1
  W  W5_4  1  0.75000000  0.11689800  0.00000000  1
  W  W5_5  1  0.75000000  0.11689800  0.50000000  1
  W  W5_6  1  0.75000000  0.61689800  0.00000000  1
  W  W5_7  1  0.75000000  0.61689800  0.50000000  1
  Cl  Cl0_0  1  0.31702650  0.33333350  0.16666650  1
  Cl  Cl0_1  1  0.31702650  0.33333350  0.66666650  1
  Cl  Cl0_2  1  0.31702650  0.83333350  0.16666650  1
  Cl  Cl0_3  1  0.31702650  0.83333350  0.66666650  1
  Cl  Cl0_4  1  0.81702650  0.33333350  0.16666650  1
  Cl  Cl0_5  1  0.81702650  0.33333350  0.66666650  1
  Cl  Cl0_6  1  0.81702650  0.83333350  0.16666650  1
  Cl  Cl0_7  1  0.81702650  0.83333350  0.66666650  1
  Cl  Cl1_0  1  0.18297350  0.16666650  0.33333350  1
  Cl  Cl1_1  1  0.18297350  0.16666650  0.83333350  1
  Cl  Cl1_2  1  0.18297350  0.66666650  0.33333350  1
  Cl  Cl1_3  1  0.18297350  0.66666650  0.83333350  1
  Cl  Cl1_4  1  0.68297350  0.16666650  0.33333350  1
  Cl  Cl1_5  1  0.68297350  0.16666650  0.83333350  1
  Cl  Cl1_6  1  0.68297350  0.66666650  0.33333350  1
  Cl  Cl1_7  1  0.68297350  0.66666650  0.83333350  1
loop_
_geom_bond_atom_site_label_1
_geom_bond_atom_site_label_2
_geom_bond_distance
_geom_bond_site_symmetry_2
Ca0_0 Ca0_4 2.573668 1_455
Ca0_0 Ca0_4 2.573668 1_555
Ca0_0 W0_0 2.857749 1_555
Ca0_0 W1_1 2.857749 1_554
Ca0_0 W2_2 2.857749 1_545
Ca0_0 W3_3 2.904495 1_544
Ca0_0 W3_7 2.904495 1_444
Ca0_0 W5_0 2.904496 1_555
Ca0_0 W5_4 2.904496 1_455
Ca0_0 W4_0 2.904496 1_555
Ca0_0 W4_4 2.904496 1_455
Ca0_1 Ca0_5 2.573668 1_455
Ca0_1 Ca0_5 2.573668 1_555
Ca0_1 W0_1 2.857749 1_555
Ca0_1 W1_0 2.857749 1_555
Ca0_1 W2_3 2.857749 1_545
Ca0_1 W3_6 2.904495 1_445
Ca0_1 W3_2 2.904495 1_545
Ca0_1 W5_1 2.904496 1_555
Ca0_1 W5_5 2.904496 1_455
Ca0_1 W4_1 2.904496 1_555
Ca0_1 W4_5 2.904496 1_455
Ca0_2 Ca0_6 2.573668 1_555
Ca0_2 Ca0_6 2.573668 1_455
Ca0_2 W0_2 2.857749 1_555
Ca0_2 W2_0 2.857749 1_555
Ca0_2 W1_3 2.857749 1_554
Ca0_2 W3_1 2.904495 1_554
Ca0_2 W3_5 2.904495 1_454
Ca0_2 W4_6 2.904496 1_455
Ca0_2 W4_2 2.904496 1_555
Ca0_2 W5_2 2.904496 1_555
Ca0_2 W5_6 2.904496 1_455
Ca0_3 Ca0_7 2.573668 1_455
Ca0_3 Ca0_7 2.573668 1_555
Ca0_3 W0_3 2.857749 1_555
Ca0_3 W2_1 2.857749 1_555
Ca0_3 W1_2 2.857749 1_555
Ca0_3 W3_4 2.904495 1_455
Ca0_3 W3_0 2.904495 1_555
Ca0_3 W5_3 2.904496 1_555
Ca0_3 W5_7 2.904496 1_455
Ca0_3 W4_3 2.904496 1_555
Ca0_3 W4_7 2.904496 1_455
Ca0_4 W0_4 2.857749 1_555
Ca0_4 W1_5 2.857749 1_554
Ca0_4 W2_6 2.857749 1_545
Ca0_4 W3_3 2.904495 1_544
Ca0_4 W3_7 2.904495 1_544
Ca0_4 W5_0 2.904496 1_555
Ca0_4 W4_0 2.904496 1_555
Ca0_4 W5_4 2.904496 1_555
Ca0_4 W4_4 2.904496 1_555
Ca0_5 W0_5 2.857749 1_555
Ca0_5 W1_4 2.857749 1_555
Ca0_5 W2_7 2.857749 1_545
Ca0_5 W3_2 2.904495 1_545
Ca0_5 W3_6 2.904495 1_545
Ca0_5 W5_1 2.904496 1_555
Ca0_5 W5_5 2.904496 1_555
Ca0_5 W4_1 2.904496 1_555
Ca0_5 W4_5 2.904496 1_555
Ca0_6 W0_6 2.857749 1_555
Ca0_6 W2_4 2.857749 1_555
Ca0_6 W1_7 2.857749 1_554
Ca0_6 W3_1 2.904495 1_554
Ca0_6 W3_5 2.904495 1_554
Ca0_6 W4_6 2.904496 1_555
Ca0_6 W4_2 2.904496 1_555
Ca0_6 W5_6 2.904496 1_555
Ca0_6 W5_2 2.904496 1_555
Ca0_7 W0_7 2.857749 1_555
Ca0_7 W2_5 2.857749 1_555
Ca0_7 W1_6 2.857749 1_555
Ca0_7 W3_4 2.904495 1_555
Ca0_7 W3_0 2.904495 1_555
Ca0_7 W5_3 2.904496 1_555
Ca0_7 W5_7 2.904496 1_555
Ca0_7 W4_3 2.904496 1_555
Ca0_7 W4_7 2.904496 1_555
H0_0 H2_5 0.821151 1_554
H0_0 W2_4 1.936248 1_555
H0_1 H2_4 0.821151 1_555
H0_1 W2_5 1.936248 1_555
H0_2 H2_7 0.821151 1_554
H0_2 W2_6 1.936248 1_555
H0_3 H2_6 0.821151 1_555
H0_3 W2_7 1.936248 1_555
H0_4 H2_1 0.821151 1_654
H0_4 W2_0 1.936248 1_655
H0_5 H2_0 0.821151 1_655
H0_5 W2_1 1.936248 1_655
H0_6 H2_3 0.821151 1_654
H0_6 W2_2 1.936248 1_655
H0_7 H2_2 0.821151 1_655
H0_7 W2_3 1.936248 1_655
H1_0 H5_4 0.821151 1_555
H1_0 W0_4 1.936248 1_555
H1_1 H5_5 0.821151 1_555
H1_1 W0_5 1.936248 1_555
H1_2 H5_6 0.821151 1_555
H1_2 W0_6 1.936248 1_555
H1_3 H5_7 0.821151 1_555
H1_3 W0_7 1.936248 1_555
H1_4 H5_0 0.821151 1_655
H1_4 W0_0 1.936248 1_655
H1_5 H5_1 0.821151 1_655
H1_5 W0_1 1.936248 1_655
H1_6 H5_2 0.821151 1_655
H1_6 W0_2 1.936248 1_655
H1_7 H5_3 0.821151 1_655
H1_7 W0_3 1.936248 1_655
H2_0 W2_1 1.936248 1_555
H2_1 W2_0 1.936248 1_556
H2_2 W2_3 1.936248 1_555
H2_3 W2_2 1.936248 1_556
H2_4 W2_5 1.936248 1_555
H2_5 W2_4 1.936248 1_556
H2_6 W2_7 1.936248 1_555
H2_7 W2_6 1.936248 1_556
H3_0 H4_6 0.821151 1_555
H3_0 W1_6 1.936248 1_555
H3_1 H4_7 0.821151 1_555
H3_1 W1_7 1.936248 1_555
H3_2 H4_4 0.821151 1_565
H3_2 W1_4 1.936248 1_565
H3_3 H4_5 0.821151 1_565
H3_3 W1_5 1.936248 1_565
H3_4 H4_2 0.821151 1_655
H3_4 W1_2 1.936248 1_655
H3_5 H4_3 0.821151 1_655
H3_5 W1_3 1.936248 1_655
H3_6 H4_0 0.821151 1_665
H3_6 W1_0 1.936248 1_665
H3_7 H4_1 0.821151 1_665
H3_7 W1_1 1.936248 1_665
H4_0 W1_0 1.936248 1_555
H4_1 W1_1 1.936248 1_555
H4_2 W1_2 1.936248 1_555
H4_3 W1_3 1.936248 1_555
H4_4 W1_4 1.936248 1_555
H4_5 W1_5 1.936248 1_555
H4_6 W1_6 1.936248 1_555
H4_7 W1_7 1.936248 1_555
H5_0 W0_0 1.936248 1_555
H5_1 W0_1 1.936248 1_555
H5_2 W0_2 1.936248 1_555
H5_3 W0_3 1.936248 1_555
H5_4 W0_4 1.936248 1_555
H5_5 W0_5 1.936248 1_555
H5_6 W0_6 1.936248 1_555
H5_7 W0_7 1.936248 1_555
H6_0 W2_1 1.910427 1_555
H6_0 W2_5 1.911786 1_555
H6_0 W3_0 2.067942 1_555
H6_1 W2_0 1.910427 1_556
H6_1 W2_4 1.911786 1_556
H6_1 W3_1 2.067942 1_555
H6_2 W2_3 1.910427 1_555
H6_2 W2_7 1.911786 1_555
H6_2 W3_2 2.067942 1_555
H6_3 W2_2 1.910427 1_556
H6_3 W2_6 1.911786 1_556
H6_3 W3_3 2.067942 1_555
H6_4 W2_5 1.910427 1_555
H6_4 W2_1 1.911786 1_655
H6_4 W3_4 2.067942 1_555
H6_5 W2_4 1.910427 1_556
H6_5 W2_0 1.911786 1_656
H6_5 W3_5 2.067942 1_555
H6_6 W2_7 1.910427 1_555
H6_6 W2_3 1.911786 1_655
H6_6 W3_6 2.067942 1_555
H6_7 W2_6 1.910427 1_556
H6_7 W2_2 1.911786 1_656
H6_7 W3_7 2.067942 1_555
H7_0 W0_0 1.910427 1_555
H7_0 W0_4 1.911786 1_555
H7_0 W4_0 2.067942 1_555
H7_1 W0_1 1.910427 1_555
H7_1 W0_5 1.911786 1_555
H7_1 W4_1 2.067942 1_555
H7_2 W0_2 1.910427 1_555
H7_2 W0_6 1.911786 1_555
H7_2 W4_2 2.067942 1_555
H7_3 W0_3 1.910427 1_555
H7_3 W0_7 1.911786 1_555
H7_3 W4_3 2.067942 1_555
H7_4 W0_4 1.910427 1_555
H7_4 W0_0 1.911786 1_655
H7_4 W4_4 2.067942 1_555
H7_5 W0_5 1.910427 1_555
H7_5 W0_1 1.911786 1_655
H7_5 W4_5 2.067942 1_555
H7_6 W0_6 1.910427 1_555
H7_6 W0_2 1.911786 1_655
H7_6 W4_6 2.067942 1_555
H7_7 W0_7 1.910427 1_555
H7_7 W0_3 1.911786 1_655
H7_7 W4_7 2.067942 1_555
H8_0 W2_4 1.910427 1_555
H8_0 W2_0 1.911786 1_555
H8_0 W4_2 2.067942 1_555
H8_1 W2_5 1.910427 1_555
H8_1 W2_1 1.911786 1_555
H8_1 W4_3 2.067942 1_555
H8_2 W2_6 1.910427 1_555
H8_2 W2_2 1.911786 1_555
H8_2 W4_0 2.067942 1_565
H8_3 W2_7 1.910427 1_555
H8_3 W2_3 1.911786 1_555
H8_3 W4_1 2.067942 1_565
H8_4 W2_0 1.910427 1_655
H8_4 W2_4 1.911786 1_555
H8_4 W4_6 2.067942 1_555
H8_5 W2_1 1.910427 1_655
H8_5 W2_5 1.911786 1_555
H8_5 W4_7 2.067942 1_555
H8_6 W2_2 1.910427 1_655
H8_6 W2_6 1.911786 1_555
H8_6 W4_4 2.067942 1_565
H8_7 W2_3 1.910427 1_655
H8_7 W2_7 1.911786 1_555
H8_7 W4_5 2.067942 1_565
H9_0 W1_0 1.910427 1_555
H9_0 W1_4 1.911786 1_555
H9_0 W5_1 2.067942 1_555
H9_1 W1_1 1.910427 1_555
H9_1 W1_5 1.911786 1_555
H9_1 W5_0 2.067942 1_556
H9_2 W1_2 1.910427 1_555
H9_2 W1_6 1.911786 1_555
H9_2 W5_3 2.067942 1_555
H9_3 W1_3 1.910427 1_555
H9_3 W1_7 1.911786 1_555
H9_3 W5_2 2.067942 1_556
H9_4 W1_4 1.910427 1_555
H9_4 W1_0 1.911786 1_655
H9_4 W5_5 2.067942 1_555
H9_5 W1_5 1.910427 1_555
H9_5 W1_1 1.911786 1_655
H9_5 W5_4 2.067942 1_556
H9_6 W1_6 1.910427 1_555
H9_6 W1_2 1.911786 1_655
H9_6 W5_7 2.067942 1_555
H9_7 W1_7 1.910427 1_555
H9_7 W1_3 1.911786 1_655
H9_7 W5_6 2.067942 1_556
H10_0 W1_6 1.910427 1_555
H10_0 W1_2 1.911786 1_555
H10_0 W3_0 2.067942 1_555
H10_1 W1_7 1.910427 1_555
H10_1 W1_3 1.911786 1_555
H10_1 W3_1 2.067942 1_555
H10_2 W1_4 1.910427 1_565
H10_2 W1_0 1.911786 1_565
H10_2 W3_2 2.067942 1_555
H10_3 W1_5 1.910427 1_565
H10_3 W1_1 1.911786 1_565
H10_3 W3_3 2.067942 1_555
H10_4 W1_2 1.910427 1_655
H10_4 W1_6 1.911786 1_555
H10_4 W3_4 2.067942 1_555
H10_5 W1_3 1.910427 1_655
H10_5 W1_7 1.911786 1_555
H10_5 W3_5 2.067942 1_555
H10_6 W1_0 1.910427 1_665
H10_6 W1_4 1.911786 1_565
H10_6 W3_6 2.067942 1_555
H10_7 W1_1 1.910427 1_665
H10_7 W1_5 1.911786 1_565
H10_7 W3_7 2.067942 1_555
H11_0 W0_4 1.910427 1_555
H11_0 W0_0 1.911786 1_555
H11_0 W5_0 2.067942 1_555
H11_1 W0_5 1.910427 1_555
H11_1 W0_1 1.911786 1_555
H11_1 W5_1 2.067942 1_555
H11_2 W0_6 1.910427 1_555
H11_2 W0_2 1.911786 1_555
H11_2 W5_2 2.067942 1_555
H11_3 W0_7 1.910427 1_555
H11_3 W0_3 1.911786 1_555
H11_3 W5_3 2.067942 1_555
H11_4 W0_0 1.910427 1_655
H11_4 W0_4 1.911786 1_555
H11_4 W5_4 2.067942 1_555
H11_5 W0_1 1.910427 1_655
H11_5 W0_5 1.911786 1_555
H11_5 W5_5 2.067942 1_555
H11_6 W0_2 1.910427 1_655
H11_6 W0_6 1.911786 1_555
H11_6 W5_6 2.067942 1_555
H11_7 W0_3 1.910427 1_655
H11_7 W0_7 1.911786 1_555
H11_7 W5_7 2.067942 1_555
W3_0 W3_4 2.573668 1_555
W3_0 W3_4 2.573668 1_455
W3_1 W3_5 2.573668 1_455
W3_1 W3_5 2.573668 1_555
W3_2 W3_6 2.573668 1_555
W3_2 W3_6 2.573668 1_455
W3_3 W3_7 2.573668 1_555
W3_3 W3_7 2.573668 1_455
W4_0 W4_4 2.573668 1_455
W4_0 W4_4 2.573668 1_555
W4_1 W4_5 2.573668 1_555
W4_1 W4_5 2.573668 1_455
W4_2 W4_6 2.573668 1_455
W4_2 W4_6 2.573668 1_555
W4_3 W4_7 2.573668 1_555
W4_3 W4_7 2.573668 1_455
W5_0 W5_4 2.573668 1_555
W5_0 W5_4 2.573668 1_455
W5_1 W5_5 2.573668 1_555
W5_1 W5_5 2.573668 1_455
W5_2 W5_6 2.573668 1_455
W5_2 W5_6 2.573668 1_555
W5_3 W5_7 2.573668 1_455
W5_3 W5_7 2.573668 1_555
Cl0_0 Cl0_4 2.573668 1_455
Cl0_0 Cl0_4 2.573668 1_555
Cl0_1 Cl0_5 2.573668 1_455
Cl0_1 Cl0_5 2.573668 1_555
Cl0_2 Cl0_6 2.573668 1_555
Cl0_2 Cl0_6 2.573668 1_455
Cl0_3 Cl0_7 2.573668 1_455
Cl0_3 Cl0_7 2.573668 1_555
Cl1_0 Cl1_4 2.573668 1_555
Cl1_0 Cl1_4 2.573668 1_455
Cl1_1 Cl1_5 2.573668 1_455
Cl1_1 Cl1_5 2.573668 1_555
Cl1_2 Cl1_6 2.573668 1_455
Cl1_2 Cl1_6 2.573668 1_555
Cl1_3 Cl1_7 2.573668 1_555
Cl1_3 Cl1_7 2.573668 1_455
