# generated using pymatgen
data_LaAgAs2
_symmetry_space_group_name_H-M   'P 1'
_cell_length_a   6.15585500
_cell_length_b   5.95518900
_cell_length_c   21.43250100
_cell_angle_alpha   90.00000000
_cell_angle_beta   90.00000000
_cell_angle_gamma   90.00000000
_symmetry_Int_Tables_number   1
_chemical_formula_structural   LaAgAs2
_chemical_formula_sum   'La8 Ag8 As16'
_cell_volume   785.70005486
_cell_formula_units_Z   8
loop_
 _symmetry_equiv_pos_site_id
 _symmetry_equiv_pos_as_xyz
  1  'x, y, z'
loop_
 _atom_site_type_symbol
 _atom_site_label
 _atom_site_symmetry_multiplicity
 _atom_site_fract_x
 _atom_site_fract_y
 _atom_site_fract_z
 _atom_site_occupancy
  La  La0  1  0.97791500  0.75000000  0.36653000  1
  La  La1  1  0.02208500  0.25000000  0.63347000  1
  La  La2  1  0.97791500  0.25000000  0.13347000  1
  La  La3  1  0.02208500  0.75000000  0.86653000  1
  La  La4  1  0.50580300  0.25000000  0.37186300  1
  La  La5  1  0.49419700  0.75000000  0.62813700  1
  La  La6  1  0.50580300  0.75000000  0.12813700  1
  La  La7  1  0.49419700  0.25000000  0.87186300  1
  Ag  Ag0  1  0.43019100  0.75000000  0.43743400  1
  Ag  Ag1  1  0.56980900  0.25000000  0.56256600  1
  Ag  Ag2  1  0.43019100  0.25000000  0.06256600  1
  Ag  Ag3  1  0.56980900  0.75000000  0.93743400  1
  Ag  Ag4  1  0.23733900  0.50000000  0.25000000  1
  Ag  Ag5  1  0.76266100  0.00000000  0.75000000  1
  Ag  Ag6  1  0.76266100  0.50000000  0.75000000  1
  Ag  Ag7  1  0.23733900  0.00000000  0.25000000  1
  As  As0  1  0.79204800  0.96200200  0.49278500  1
  As  As1  1  0.20795200  0.46200200  0.50721500  1
  As  As2  1  0.79204800  0.03799800  0.00721500  1
  As  As3  1  0.20795200  0.53799800  0.99278500  1
  As  As4  1  0.20795200  0.03799800  0.50721500  1
  As  As5  1  0.79204800  0.53799800  0.49278500  1
  As  As6  1  0.20795200  0.96200200  0.99278500  1
  As  As7  1  0.79204800  0.46200200  0.00721500  1
  As  As8  1  0.01579300  0.25000000  0.33500600  1
  As  As9  1  0.98420700  0.75000000  0.66499400  1
  As  As10  1  0.01579300  0.75000000  0.16499400  1
  As  As11  1  0.98420700  0.25000000  0.83500600  1
  As  As12  1  0.51773800  0.75000000  0.31935200  1
  As  As13  1  0.48226200  0.25000000  0.68064800  1
  As  As14  1  0.51773800  0.25000000  0.18064800  1
  As  As15  1  0.48226200  0.75000000  0.81935200  1
loop_
_geom_bond_atom_site_label_1
_geom_bond_atom_site_label_2
_geom_bond_distance
_geom_bond_site_symmetry_2
Ag0 As12 2.587538 1_555
Ag0 As1 2.655163 1_555
Ag0 As4 2.655163 1_565
Ag0 As5 2.821914 1_555
Ag0 As0 2.821914 1_555
Ag0 La0 3.171877 1_455
Ag0 La4 3.325316 1_555
Ag0 La4 3.325316 1_565
Ag1 As13 2.587538 1_555
Ag1 As5 2.655163 1_555
Ag1 As0 2.655163 1_545
Ag1 As4 2.821914 1_555
Ag1 As1 2.821914 1_555
Ag1 La1 3.171877 1_655
Ag1 La5 3.325316 1_545
Ag1 La5 3.325316 1_555
Ag2 As14 2.587538 1_555
Ag2 As6 2.655163 1_544
Ag2 As3 2.655163 1_554
Ag2 As2 2.821914 1_555
Ag2 As7 2.821914 1_555
Ag2 La2 3.171877 1_455
Ag2 La6 3.325316 1_555
Ag2 La6 3.325316 1_545
Ag3 As15 2.587538 1_555
Ag3 As7 2.655163 1_556
Ag3 As2 2.655163 1_566
Ag3 As6 2.821914 1_555
Ag3 As3 2.821914 1_555
Ag3 La3 3.171877 1_655
Ag3 La7 3.325316 1_555
Ag3 La7 3.325316 1_565
Ag4 As10 2.719516 1_555
Ag4 As8 2.719516 1_555
Ag4 As14 2.721262 1_555
Ag4 As12 2.721262 1_555
Ag4 Ag7 2.977594 1_555
Ag4 Ag7 2.977594 1_565
Ag4 La2 3.317304 1_455
Ag4 La0 3.317304 1_455
Ag4 La6 3.430647 1_555
Ag4 La4 3.430647 1_555
Ag5 As9 2.719516 1_545
Ag5 As11 2.719516 1_555
Ag5 As13 2.721262 1_555
Ag5 As15 2.721262 1_545
Ag5 Ag6 2.977594 1_555
Ag5 Ag6 2.977594 1_545
Ag5 La1 3.317304 1_655
Ag5 La3 3.317304 1_645
Ag5 La7 3.430647 1_555
Ag5 La5 3.430647 1_545
Ag6 As9 2.719516 1_555
Ag6 As11 2.719516 1_555
Ag6 As13 2.721262 1_555
Ag6 As15 2.721262 1_555
Ag6 La3 3.317304 1_655
Ag6 La1 3.317304 1_655
Ag6 La7 3.430647 1_555
Ag6 La5 3.430647 1_555
Ag7 As10 2.719516 1_545
Ag7 As8 2.719516 1_555
Ag7 As14 2.721262 1_555
Ag7 As12 2.721262 1_545
Ag7 La2 3.317304 1_455
Ag7 La0 3.317304 1_445
Ag7 La6 3.430647 1_545
Ag7 La4 3.430647 1_555
As0 As5 2.525024 1_555
As0 As4 2.618267 1_665
As0 La0 3.197700 1_555
As0 La4 3.572555 1_565
As0 La5 3.656660 1_555
As0 La1 3.746785 1_665
As1 As4 2.525024 1_555
As1 As5 2.618267 1_455
As1 La1 3.197700 1_555
As1 La5 3.572555 1_555
As1 La4 3.656660 1_555
As1 La0 3.746785 1_455
As2 As7 2.525024 1_555
As2 As6 2.618267 1_644
As2 La2 3.197700 1_555
As2 La6 3.572555 1_545
As2 La7 3.656660 1_554
As2 La3 3.746785 1_644
As3 As6 2.525024 1_555
As3 As7 2.618267 1_456
As3 La3 3.197700 1_555
As3 La7 3.572555 1_555
As3 La6 3.656660 1_556
As3 La2 3.746785 1_456
As4 La1 3.197700 1_555
As4 La5 3.572555 1_545
As4 La4 3.656660 1_555
As4 La0 3.746785 1_445
As5 La0 3.197700 1_555
As5 La4 3.572555 1_555
As5 La5 3.656660 1_555
As5 La1 3.746785 1_655
As6 La3 3.197700 1_555
As6 La7 3.572555 1_565
As6 La6 3.656660 1_556
As6 La2 3.746785 1_466
As7 La2 3.197700 1_555
As7 La6 3.572555 1_555
As7 La7 3.656660 1_554
As7 La3 3.746785 1_654
As8 La0 3.062176 1_455
As8 La0 3.062176 1_445
As8 La4 3.118149 1_555
As8 La4 3.237281 1_455
As9 La1 3.062176 1_655
As9 La1 3.062176 1_665
As9 La5 3.118149 1_555
As9 La5 3.237281 1_655
As10 La2 3.062176 1_465
As10 La2 3.062176 1_455
As10 La6 3.118149 1_555
As10 La6 3.237281 1_455
As11 La3 3.062176 1_645
As11 La3 3.062176 1_655
As11 La7 3.118149 1_555
As11 La7 3.237281 1_655
As12 La0 3.007834 1_555
As12 La4 3.184036 1_565
As12 La4 3.184036 1_555
As13 La1 3.007834 1_555
As13 La5 3.184036 1_545
As13 La5 3.184036 1_555
As14 La2 3.007834 1_555
As14 La6 3.184036 1_555
As14 La6 3.184036 1_545
As15 La3 3.007834 1_555
As15 La7 3.184036 1_565
As15 La7 3.184036 1_555
