# generated using pymatgen
data_MgCo6(OF5)2
_symmetry_space_group_name_H-M   'P 1'
_cell_length_a   4.68168832
_cell_length_b   4.71588967
_cell_length_c   11.66506239
_cell_angle_alpha   83.90061488
_cell_angle_beta   84.52510983
_cell_angle_gamma   91.80136053
_symmetry_Int_Tables_number   1
_chemical_formula_structural   MgCo6(OF5)2
_chemical_formula_sum   'Mg1 Co6 O2 F10'
_cell_volume   254.69392125
_cell_formula_units_Z   1
loop_
 _symmetry_equiv_pos_site_id
 _symmetry_equiv_pos_as_xyz
  1  'x, y, z'
loop_
 _atom_site_type_symbol
 _atom_site_label
 _atom_site_symmetry_multiplicity
 _atom_site_fract_x
 _atom_site_fract_y
 _atom_site_fract_z
 _atom_site_occupancy
  Mg  Mg0  1  0.17809900  0.18484600  0.81278800  1
  Co  Co0  1  0.96136200  0.96620300  0.06763100  1
  Co  Co1  1  0.02611600  0.02371300  0.32588200  1
  Co  Co2  1  0.96753500  0.95545500  0.59956400  1
  Co  Co3  1  0.51972000  0.52097200  0.18671000  1
  Co  Co4  1  0.61719600  0.62339900  0.88264100  1
  Co  Co5  1  0.44807300  0.44118800  0.45430100  1
  O  O0  1  0.31486900  0.31295800  0.32221400  1
  O  O1  1  0.69006100  0.69528000  0.03135800  1
  F  F0  1  0.22548500  0.83437800  0.18332000  1
  F  F1  1  0.22277600  0.77078100  0.83088900  1
  F  F2  1  0.21132800  0.77848000  0.48609400  1
  F  F3  1  0.24161200  0.24719100  0.96629900  1
  F  F4  1  0.24279300  0.24462500  0.64503500  1
  F  F5  1  0.71211600  0.72173800  0.70634700  1
  F  F6  1  0.72260600  0.71684300  0.33483200  1
  F  F7  1  0.83227800  0.22588600  0.18300800  1
  F  F8  1  0.76215600  0.23274900  0.83182500  1
  F  F9  1  0.78437700  0.19776000  0.48497900  1
loop_
_geom_bond_atom_site_label_1
_geom_bond_atom_site_label_2
_geom_bond_distance
_geom_bond_site_symmetry_2
Co0 O1 1.881513 1_555
Co0 F7 1.979375 1_565
Co0 F0 1.981208 1_655
Co0 F3 2.033838 1_664
Co1 O0 1.884301 1_555
Co1 F6 1.983573 1_445
Co1 F0 2.122673 1_545
Co1 F7 2.124983 1_455
Co1 F9 2.319511 1_455
Co1 F2 2.344150 1_545
Co2 F5 1.880819 1_555
Co2 F2 1.938461 1_655
Co2 F9 1.945086 1_565
Co2 F4 1.993827 1_665
Co3 O0 1.924226 1_555
Co3 O1 1.990523 1_555
Co3 F7 2.051432 1_555
Co3 F0 2.051716 1_555
Co3 F6 2.310433 1_555
Co4 O1 1.863172 1_556
Co4 F5 2.061953 1_555
Co4 F8 2.107081 1_555
Co4 F1 2.112228 1_555
Co4 F3 2.510046 1_555
Co5 O0 1.867166 1_555
Co5 F2 2.013427 1_555
Co5 F9 2.014628 1_555
Co5 F6 2.110017 1_555
Co5 F4 2.414721 1_555
F1 Mg0 1.961581 1_565
F3 Mg0 1.894601 1_555
F4 Mg0 1.940302 1_555
F8 Mg0 1.961679 1_655
