# generated using pymatgen
data_CsUTe3Au
_symmetry_space_group_name_H-M   'P 1'
_cell_length_a   4.41383700
_cell_length_b   9.02363226
_cell_length_c   11.33252700
_cell_angle_alpha   90.00000000
_cell_angle_beta   90.00000000
_cell_angle_gamma   104.15648413
_symmetry_Int_Tables_number   1
_chemical_formula_structural   CsUTe3Au
_chemical_formula_sum   'Cs2 U2 Te6 Au2'
_cell_volume   437.65420301
_cell_formula_units_Z   2
loop_
 _symmetry_equiv_pos_site_id
 _symmetry_equiv_pos_as_xyz
  1  'x, y, z'
loop_
 _atom_site_type_symbol
 _atom_site_label
 _atom_site_symmetry_multiplicity
 _atom_site_fract_x
 _atom_site_fract_y
 _atom_site_fract_z
 _atom_site_occupancy
  Cs  Cs0  1  0.75070300  0.50140600  0.25000000  1
  Cs  Cs1  1  0.24929700  0.49859400  0.75000000  1
  U  U0  1  0.00000000  0.00000000  0.50000000  1
  U  U1  1  0.00000000  0.00000000  0.00000000  1
  Te  Te0  1  0.06534500  0.13069000  0.25000000  1
  Te  Te1  1  0.93465500  0.86931000  0.75000000  1
  Te  Te2  1  0.37941800  0.75883700  0.45508100  1
  Te  Te3  1  0.62058200  0.24116300  0.54491900  1
  Te  Te4  1  0.37941800  0.75883700  0.04491900  1
  Te  Te5  1  0.62058200  0.24116300  0.95508100  1
  Au  Au0  1  0.46328900  0.92657800  0.25000000  1
  Au  Au1  1  0.53671100  0.07342200  0.75000000  1
loop_
_geom_bond_atom_site_label_1
_geom_bond_atom_site_label_2
_geom_bond_distance
_geom_bond_site_symmetry_2
Cs0 Te2 3.917300 1_655
Cs0 Te4 3.917300 1_655
Cs0 Te4 3.917303 1_555
Cs0 Te2 3.917303 1_555
Cs0 Te0 3.923204 1_555
Cs0 Te0 3.923204 1_655
Cs0 Te3 4.044129 1_555
Cs0 Te5 4.044129 1_554
Cs1 Te3 3.917300 1_455
Cs1 Te5 3.917300 1_455
Cs1 Te5 3.917303 1_555
Cs1 Te3 3.917303 1_555
Cs1 Te1 3.923204 1_555
Cs1 Te1 3.923204 1_455
Cs1 Te2 4.044129 1_555
Cs1 Te4 4.044129 1_556
Te0 U0 3.055191 1_555
Te0 U1 3.055191 1_555
Te1 U0 3.055191 1_665
Te1 U1 3.055191 1_666
Te2 U0 3.095487 1_565
Te2 U0 3.095490 1_665
Te3 U0 3.095487 1_655
Te3 U0 3.095490 1_555
Te4 U1 3.095487 1_565
Te4 U1 3.095490 1_665
Te5 U1 3.095487 1_656
Te5 U1 3.095490 1_556
Au0 Te4 2.748712 1_555
Au0 Te2 2.748712 1_555
Au0 Te0 2.839000 1_665
Au0 Te0 2.839000 1_565
Au1 Te3 2.748712 1_555
Au1 Te5 2.748712 1_555
Au1 Te1 2.839000 1_445
Au1 Te1 2.839000 1_545
