# generated using pymatgen
data_LaCeSbS5Br
_symmetry_space_group_name_H-M   'P 1'
_cell_length_a   5.58486400
_cell_length_b   9.02567800
_cell_length_c   17.77338900
_cell_angle_alpha   90.00000000
_cell_angle_beta   90.00000000
_cell_angle_gamma   90.00000000
_symmetry_Int_Tables_number   1
_chemical_formula_structural   LaCeSbS5Br
_chemical_formula_sum   'La4 Ce4 Sb4 S20 Br4'
_cell_volume   895.90649208
_cell_formula_units_Z   4
loop_
 _symmetry_equiv_pos_site_id
 _symmetry_equiv_pos_as_xyz
  1  'x, y, z'
loop_
 _atom_site_type_symbol
 _atom_site_label
 _atom_site_symmetry_multiplicity
 _atom_site_fract_x
 _atom_site_fract_y
 _atom_site_fract_z
 _atom_site_occupancy
  La  La0  1  0.50907200  0.40607200  0.19898000  1
  La  La1  1  0.99092800  0.59392800  0.69898000  1
  La  La2  1  0.49092800  0.90607200  0.30102000  1
  La  La3  1  0.00907200  0.09392800  0.80102000  1
  Ce  Ce0  1  0.48971900  0.47085000  0.47050800  1
  Ce  Ce1  1  0.01028100  0.52915000  0.97050800  1
  Ce  Ce2  1  0.51028100  0.97085000  0.02949200  1
  Ce  Ce3  1  0.98971900  0.02915000  0.52949200  1
  Sb  Sb0  1  0.03864400  0.23461100  0.33013200  1
  Sb  Sb1  1  0.46135600  0.76538900  0.83013200  1
  Sb  Sb2  1  0.96135600  0.73461100  0.16986800  1
  Sb  Sb3  1  0.53864400  0.26538900  0.66986800  1
  S  S0  1  0.80777800  0.90676000  0.67327000  1
  S  S1  1  0.69222200  0.09324000  0.17327000  1
  S  S2  1  0.19222200  0.40676000  0.82673000  1
  S  S3  1  0.30777800  0.59324000  0.32673000  1
  S  S4  1  0.99381800  0.96758400  0.35883400  1
  S  S5  1  0.50618200  0.03241600  0.85883400  1
  S  S6  1  0.00618200  0.46758400  0.14116600  1
  S  S7  1  0.49381800  0.53241600  0.64116600  1
  S  S8  1  0.99207600  0.32322000  0.45904400  1
  S  S9  1  0.50792400  0.67678000  0.95904400  1
  S  S10  1  0.00792400  0.82322000  0.04095600  1
  S  S11  1  0.49207600  0.17678000  0.54095600  1
  S  S12  1  0.68152300  0.59589700  0.32915700  1
  S  S13  1  0.81847700  0.40410300  0.82915700  1
  S  S14  1  0.31847700  0.09589700  0.17084300  1
  S  S15  1  0.18152300  0.90410300  0.67084300  1
  S  S16  1  0.48544100  0.23109000  0.34591500  1
  S  S17  1  0.01455900  0.76891000  0.84591500  1
  S  S18  1  0.51455900  0.73109000  0.15408500  1
  S  S19  1  0.98544100  0.26891000  0.65408500  1
  Br  Br0  1  0.50962300  0.34736900  0.02700900  1
  Br  Br1  1  0.99037700  0.65263100  0.52700900  1
  Br  Br2  1  0.49037700  0.84736900  0.47299100  1
  Br  Br3  1  0.00962300  0.15263100  0.97299100  1
loop_
_geom_bond_atom_site_label_1
_geom_bond_atom_site_label_2
_geom_bond_distance
_geom_bond_site_symmetry_2
La0 S6 3.011958 1_655
La0 S12 3.035808 1_555
La0 S14 3.036537 1_555
La0 S1 3.037653 1_555
La0 S18 3.040248 1_555
La0 S6 3.041738 1_555
La0 S3 3.045163 1_555
La0 S16 3.054801 1_555
La1 S7 3.011958 1_555
La1 S13 3.035808 1_555
La1 S15 3.036537 1_655
La1 S0 3.037653 1_555
La1 S19 3.040248 1_555
La1 S7 3.041738 1_655
La1 S2 3.045163 1_655
La1 S17 3.054801 1_655
La2 S4 3.011958 1_455
La2 S14 3.035808 1_565
La2 S12 3.036537 1_555
La2 S3 3.037653 1_555
La2 S16 3.040248 1_565
La2 S4 3.041738 1_555
La2 S1 3.045163 1_565
La2 S18 3.054801 1_555
La3 S5 3.011958 1_555
La3 S15 3.035808 1_545
La3 S13 3.036537 1_455
La3 S2 3.037653 1_555
La3 S17 3.040248 1_545
La3 S5 3.041738 1_455
La3 S0 3.045163 1_445
La3 S19 3.054801 1_455
Ce0 S11 2.934724 1_555
Ce0 S12 2.955142 1_555
Ce0 S3 2.963601 1_555
Ce0 S7 3.083736 1_555
Ce0 S8 3.088900 1_455
Ce0 S16 3.096320 1_555
Ce0 S8 3.112609 1_555
Ce1 S10 2.934724 1_556
Ce1 S13 2.955142 1_455
Ce1 S2 2.963601 1_555
Ce1 S6 3.083736 1_556
Ce1 S9 3.088900 1_555
Ce1 S17 3.096320 1_555
Ce1 S9 3.112609 1_455
Ce2 S9 2.934724 1_554
Ce2 S14 2.955142 1_565
Ce2 S1 2.963601 1_565
Ce2 S5 3.083736 1_564
Ce2 S10 3.088900 1_655
Ce2 S18 3.096320 1_555
Ce2 S10 3.112609 1_555
Ce3 S8 2.934724 1_555
Ce3 S15 2.955142 1_645
Ce3 S0 2.963601 1_545
Ce3 S4 3.083736 1_545
Ce3 S11 3.088900 1_555
Ce3 S19 3.096320 1_555
Ce3 S11 3.112609 1_655
S0 S15 2.087898 1_655
S1 S14 2.087898 1_555
S4 Sb0 2.476184 1_665
S5 Sb1 2.476184 1_545
S6 Sb2 2.476184 1_455
S7 Sb3 2.476184 1_555
S8 Sb0 2.440668 1_655
S9 Sb1 2.440668 1_555
S10 Sb2 2.440668 1_455
S11 Sb3 2.440668 1_555
S12 S3 2.087898 1_555
S13 S2 2.087898 1_655
S16 Sb0 2.511220 1_555
S16 Sb0 3.102435 1_655
S17 Sb1 2.511220 1_555
S17 Sb1 3.102435 1_455
S18 Sb2 2.511220 1_555
S18 Sb2 3.102435 1_455
S19 Sb3 2.511220 1_555
S19 Sb3 3.102435 1_655
Br0 La0 3.102092 1_555
Br0 Ce1 3.387846 1_554
Br0 Ce1 3.393898 1_654
Br0 Ce2 3.398628 1_545
Br1 La1 3.102092 1_555
Br1 Ce0 3.387846 1_655
Br1 Ce0 3.393898 1_555
Br1 Ce3 3.398628 1_565
Br2 La2 3.102092 1_555
Br2 Ce3 3.387846 1_565
Br2 Ce3 3.393898 1_465
Br2 Ce0 3.398628 1_555
Br3 La3 3.102092 1_555
Br3 Ce2 3.387846 1_446
Br3 Ce2 3.393898 1_546
Br3 Ce1 3.398628 1_555
