# generated using pymatgen
data_Hf3Mg
_symmetry_space_group_name_H-M   'P 1'
_cell_length_a   4.97331534
_cell_length_b   4.97331534
_cell_length_c   4.97331534
_cell_angle_alpha   60.00000000
_cell_angle_beta   60.00000000
_cell_angle_gamma   60.00000000
_symmetry_Int_Tables_number   1
_chemical_formula_structural   Hf3Mg
_chemical_formula_sum   'Hf3 Mg1'
_cell_volume   86.98071892
_cell_formula_units_Z   1
loop_
 _symmetry_equiv_pos_site_id
 _symmetry_equiv_pos_as_xyz
  1  'x, y, z'
loop_
 _atom_site_type_symbol
 _atom_site_label
 _atom_site_symmetry_multiplicity
 _atom_site_fract_x
 _atom_site_fract_y
 _atom_site_fract_z
 _atom_site_occupancy
  Hf  Hf0  1  0.00000000  0.00000000  0.00000000  1
  Hf  Hf1  1  0.25000000  0.25000000  0.25000000  1
  Hf  Hf2  1  0.75000000  0.75000000  0.75000000  1
  Mg  Mg0  1  0.50000000  0.50000000  0.50000000  1
loop_
_geom_bond_atom_site_label_1
_geom_bond_atom_site_label_2
_geom_bond_distance
_geom_bond_site_symmetry_2
Hf0 Hf2 3.045521 1_454
Hf0 Hf1 3.045521 1_545
Hf0 Hf1 3.045521 1_555
Hf0 Hf2 3.045521 1_445
Hf0 Hf2 3.045521 1_444
Hf0 Hf1 3.045521 1_554
Hf0 Hf1 3.045521 1_455
Hf0 Hf2 3.045521 1_544
Hf1 Mg0 3.045521 1_545
Hf1 Mg0 3.045521 1_555
Hf1 Mg0 3.045521 1_554
Hf1 Mg0 3.045521 1_455
Hf2 Mg0 3.045521 1_565
Hf2 Mg0 3.045521 1_556
Hf2 Mg0 3.045521 1_555
Hf2 Mg0 3.045521 1_655
