# generated using pymatgen
data_Yb3CrS6
_symmetry_space_group_name_H-M   'P 1'
_cell_length_a   3.69455600
_cell_length_b   13.64220300
_cell_length_c   15.69726800
_cell_angle_alpha   90.00000000
_cell_angle_beta   90.00000000
_cell_angle_gamma   90.00000000
_symmetry_Int_Tables_number   1
_chemical_formula_structural   Yb3CrS6
_chemical_formula_sum   'Yb12 Cr4 S24'
_cell_volume   791.17186432
_cell_formula_units_Z   4
loop_
 _symmetry_equiv_pos_site_id
 _symmetry_equiv_pos_as_xyz
  1  'x, y, z'
loop_
 _atom_site_type_symbol
 _atom_site_label
 _atom_site_symmetry_multiplicity
 _atom_site_fract_x
 _atom_site_fract_y
 _atom_site_fract_z
 _atom_site_occupancy
  Yb  Yb0  1  0.00000000  0.54927800  0.28442400  1
  Yb  Yb1  1  0.00000000  0.45072200  0.71557600  1
  Yb  Yb2  1  0.50000000  0.95072200  0.78442400  1
  Yb  Yb3  1  0.50000000  0.04927800  0.21557600  1
  Yb  Yb4  1  0.00000000  0.75538900  0.09944200  1
  Yb  Yb5  1  0.00000000  0.24461100  0.90055800  1
  Yb  Yb6  1  0.50000000  0.74461100  0.59944200  1
  Yb  Yb7  1  0.50000000  0.25538900  0.40055800  1
  Yb  Yb8  1  0.00000000  0.31897200  0.15326500  1
  Yb  Yb9  1  0.00000000  0.68102800  0.84673500  1
  Yb  Yb10  1  0.50000000  0.18102800  0.65326500  1
  Yb  Yb11  1  0.50000000  0.81897200  0.34673500  1
  Cr  Cr0  1  0.00000000  0.00000000  0.50000000  1
  Cr  Cr1  1  0.50000000  0.50000000  0.00000000  1
  Cr  Cr2  1  0.00000000  0.00000000  0.00000000  1
  Cr  Cr3  1  0.50000000  0.50000000  0.50000000  1
  S  S0  1  0.00000000  0.12752900  0.09165000  1
  S  S1  1  0.00000000  0.87247100  0.90835000  1
  S  S2  1  0.50000000  0.37247100  0.59165000  1
  S  S3  1  0.50000000  0.62752900  0.40835000  1
  S  S4  1  0.00000000  0.17789900  0.28867400  1
  S  S5  1  0.00000000  0.82210100  0.71132600  1
  S  S6  1  0.50000000  0.32210100  0.78867400  1
  S  S7  1  0.50000000  0.67789900  0.21132600  1
  S  S8  1  0.00000000  0.17251600  0.52062900  1
  S  S9  1  0.00000000  0.82748400  0.47937100  1
  S  S10  1  0.50000000  0.32748400  0.02062900  1
  S  S11  1  0.50000000  0.67251600  0.97937100  1
  S  S12  1  0.00000000  0.51970000  0.09473300  1
  S  S13  1  0.00000000  0.48030000  0.90526700  1
  S  S14  1  0.50000000  0.98030000  0.59473300  1
  S  S15  1  0.50000000  0.01970000  0.40526700  1
  S  S16  1  0.00000000  0.09842000  0.76005100  1
  S  S17  1  0.00000000  0.90158000  0.23994900  1
  S  S18  1  0.50000000  0.40158000  0.26005100  1
  S  S19  1  0.50000000  0.59842000  0.73994900  1
  S  S20  1  0.00000000  0.41999300  0.43080400  1
  S  S21  1  0.00000000  0.58000700  0.56919600  1
  S  S22  1  0.50000000  0.08000700  0.93080400  1
  S  S23  1  0.50000000  0.91999300  0.06919600  1
loop_
_geom_bond_atom_site_label_1
_geom_bond_atom_site_label_2
_geom_bond_distance
_geom_bond_site_symmetry_2
Cr0 S9 2.375671 1_545
Cr0 S8 2.375671 1_555
Cr0 S14 2.386625 1_545
Cr0 S14 2.386625 1_445
Cr0 S15 2.386625 1_555
Cr0 S15 2.386625 1_455
Cr1 S10 2.375671 1_555
Cr1 S11 2.375671 1_554
Cr1 S13 2.386625 1_554
Cr1 S13 2.386625 1_654
Cr1 S12 2.386625 1_555
Cr1 S12 2.386625 1_655
Cr2 S1 2.257554 1_544
Cr2 S0 2.257554 1_555
Cr2 S22 2.404902 1_554
Cr2 S23 2.404902 1_445
Cr2 S23 2.404902 1_545
Cr2 S22 2.404902 1_454
Cr3 S2 2.257554 1_555
Cr3 S3 2.257554 1_555
Cr3 S20 2.404902 1_555
Cr3 S20 2.404902 1_655
Cr3 S21 2.404902 1_655
Cr3 S21 2.404902 1_555
S0 Yb8 2.785040 1_555
S0 Yb3 2.887251 1_455
S0 Yb3 2.887251 1_555
S0 Yb5 3.398376 1_554
S1 Yb9 2.785040 1_555
S1 Yb2 2.887251 1_455
S1 Yb2 2.887251 1_555
S1 Yb4 3.398376 1_556
S2 Yb10 2.785040 1_555
S2 Yb1 2.887251 1_555
S2 Yb1 2.887251 1_655
S2 Yb7 3.398376 1_555
S3 Yb11 2.785040 1_555
S3 Yb0 2.887251 1_655
S3 Yb0 2.887251 1_555
S3 Yb6 3.398376 1_555
S4 Yb7 2.759432 1_455
S4 Yb7 2.759432 1_555
S4 Yb3 2.794268 1_555
S4 Yb3 2.794268 1_455
S4 Yb8 2.867376 1_555
S5 Yb6 2.759432 1_455
S5 Yb6 2.759432 1_555
S5 Yb2 2.794268 1_455
S5 Yb2 2.794268 1_555
S5 Yb9 2.867376 1_555
S6 Yb5 2.759432 1_555
S6 Yb5 2.759432 1_655
S6 Yb1 2.794268 1_655
S6 Yb1 2.794268 1_555
S6 Yb10 2.867376 1_555
S7 Yb4 2.759432 1_555
S7 Yb4 2.759432 1_655
S7 Yb0 2.794268 1_555
S7 Yb0 2.794268 1_655
S7 Yb11 2.867376 1_555
S8 Yb10 2.785810 1_555
S8 Yb10 2.785810 1_455
S8 Yb7 2.871071 1_555
S8 Yb7 2.871071 1_455
S9 Yb11 2.785810 1_455
S9 Yb11 2.785810 1_555
S9 Yb6 2.871071 1_455
S9 Yb6 2.871071 1_555
S10 Yb8 2.785810 1_555
S10 Yb8 2.785810 1_655
S10 Yb5 2.871071 1_554
S10 Yb5 2.871071 1_654
S11 Yb9 2.785810 1_555
S11 Yb9 2.785810 1_655
S11 Yb4 2.871071 1_556
S11 Yb4 2.871071 1_656
S12 Yb8 2.888401 1_555
S12 Yb0 3.004847 1_555
S12 Yb4 3.216167 1_555
S13 Yb9 2.888401 1_555
S13 Yb1 3.004847 1_555
S13 Yb5 3.216167 1_555
S14 Yb10 2.888401 1_565
S14 Yb2 3.004847 1_555
S14 Yb6 3.216167 1_555
S15 Yb11 2.888401 1_545
S15 Yb3 3.004847 1_555
S15 Yb7 3.216167 1_555
S16 Yb10 2.737202 1_555
S16 Yb10 2.737202 1_455
S16 Yb2 2.760206 1_445
S16 Yb2 2.760206 1_545
S16 Yb5 2.973561 1_555
S17 Yb11 2.737202 1_455
S17 Yb11 2.737202 1_555
S17 Yb3 2.760206 1_465
S17 Yb3 2.760206 1_565
S17 Yb4 2.973561 1_555
S18 Yb8 2.737202 1_555
S18 Yb8 2.737202 1_655
S18 Yb0 2.760206 1_655
S18 Yb0 2.760206 1_555
S18 Yb7 2.973561 1_555
S19 Yb9 2.737202 1_655
S19 Yb9 2.737202 1_555
S19 Yb1 2.760206 1_555
S19 Yb1 2.760206 1_655
S19 Yb6 2.973561 1_555
S20 Yb0 2.896633 1_555
S20 Yb7 2.946251 1_555
S20 Yb7 2.946251 1_455
S21 Yb1 2.896633 1_555
S21 Yb6 2.946251 1_455
S21 Yb6 2.946251 1_555
S22 Yb2 2.896633 1_545
S22 Yb5 2.946251 1_555
S22 Yb5 2.946251 1_655
S23 Yb3 2.896633 1_565
S23 Yb4 2.946251 1_555
S23 Yb4 2.946251 1_655
