# generated using pymatgen
data_AlH6C2SeCl3
_symmetry_space_group_name_H-M   'P 1'
_cell_length_a   6.60685600
_cell_length_b   11.01103800
_cell_length_c   13.42708200
_cell_angle_alpha   90.00000000
_cell_angle_beta   90.00000000
_cell_angle_gamma   90.00000000
_symmetry_Int_Tables_number   1
_chemical_formula_structural   AlH6C2SeCl3
_chemical_formula_sum   'Al4 H24 C8 Se4 Cl12'
_cell_volume   976.79795980
_cell_formula_units_Z   4
loop_
 _symmetry_equiv_pos_site_id
 _symmetry_equiv_pos_as_xyz
  1  'x, y, z'
loop_
 _atom_site_type_symbol
 _atom_site_label
 _atom_site_symmetry_multiplicity
 _atom_site_fract_x
 _atom_site_fract_y
 _atom_site_fract_z
 _atom_site_occupancy
  Al  Al0  1  0.43760600  0.75000000  0.94217500  1
  Al  Al1  1  0.56239400  0.25000000  0.05782500  1
  Al  Al2  1  0.43760600  0.25000000  0.55782500  1
  Al  Al3  1  0.56239400  0.75000000  0.44217500  1
  H  H0  1  0.04405800  0.87872300  0.07883600  1
  H  H1  1  0.95594200  0.37872300  0.92116400  1
  H  H2  1  0.04405800  0.12127700  0.42116400  1
  H  H3  1  0.95594200  0.62127700  0.57883600  1
  H  H4  1  0.95594200  0.12127700  0.92116400  1
  H  H5  1  0.04405800  0.62127700  0.07883600  1
  H  H6  1  0.95594200  0.87872300  0.57883600  1
  H  H7  1  0.04405800  0.37872300  0.42116400  1
  H  H8  1  0.24549500  0.96847300  0.13191400  1
  H  H9  1  0.75450500  0.46847300  0.86808600  1
  H  H10  1  0.24549500  0.03152700  0.36808600  1
  H  H11  1  0.75450500  0.53152700  0.63191400  1
  H  H12  1  0.75450500  0.03152700  0.86808600  1
  H  H13  1  0.24549500  0.53152700  0.13191400  1
  H  H14  1  0.75450500  0.96847300  0.63191400  1
  H  H15  1  0.24549500  0.46847300  0.36808600  1
  H  H16  1  0.08986800  0.87514000  0.21186000  1
  H  H17  1  0.91013200  0.37514000  0.78814000  1
  H  H18  1  0.08986800  0.12486000  0.28814000  1
  H  H19  1  0.91013200  0.62486000  0.71186000  1
  H  H20  1  0.91013200  0.12486000  0.78814000  1
  H  H21  1  0.08986800  0.62486000  0.21186000  1
  H  H22  1  0.91013200  0.87514000  0.71186000  1
  H  H23  1  0.08986800  0.37514000  0.28814000  1
  C  C0  1  0.15815600  0.88429400  0.13780500  1
  C  C1  1  0.84184400  0.38429400  0.86219500  1
  C  C2  1  0.15815600  0.11570600  0.36219500  1
  C  C3  1  0.84184400  0.61570600  0.63780500  1
  C  C4  1  0.84184400  0.11570600  0.86219500  1
  C  C5  1  0.15815600  0.61570600  0.13780500  1
  C  C6  1  0.84184400  0.88429400  0.63780500  1
  C  C7  1  0.15815600  0.38429400  0.36219500  1
  Se  Se0  1  0.35248700  0.75000000  0.12684600  1
  Se  Se1  1  0.64751300  0.25000000  0.87315400  1
  Se  Se2  1  0.35248700  0.25000000  0.37315400  1
  Se  Se3  1  0.64751300  0.75000000  0.62684600  1
  Cl  Cl0  1  0.76192400  0.75000000  0.93400300  1
  Cl  Cl1  1  0.23807600  0.25000000  0.06599700  1
  Cl  Cl2  1  0.76192400  0.25000000  0.56599700  1
  Cl  Cl3  1  0.23807600  0.75000000  0.43400300  1
  Cl  Cl4  1  0.31614600  0.58602600  0.88187900  1
  Cl  Cl5  1  0.68385400  0.08602600  0.11812100  1
  Cl  Cl6  1  0.31614600  0.41397400  0.61812100  1
  Cl  Cl7  1  0.68385400  0.91397400  0.38187900  1
  Cl  Cl8  1  0.68385400  0.41397400  0.11812100  1
  Cl  Cl9  1  0.31614600  0.91397400  0.88187900  1
  Cl  Cl10  1  0.68385400  0.58602600  0.38187900  1
  Cl  Cl11  1  0.31614600  0.08602600  0.61812100  1
loop_
_geom_bond_atom_site_label_1
_geom_bond_atom_site_label_2
_geom_bond_distance
_geom_bond_site_symmetry_2
Al0 Cl9 2.135257 1_555
Al0 Cl4 2.135257 1_555
Al0 Cl0 2.145530 1_555
Al0 Se0 2.542565 1_556
Al1 Cl8 2.135257 1_555
Al1 Cl5 2.135257 1_555
Al1 Cl1 2.145530 1_555
Al1 Se1 2.542565 1_554
Al2 Cl6 2.135257 1_555
Al2 Cl11 2.135257 1_555
Al2 Cl2 2.145530 1_555
Al2 Se2 2.542565 1_555
Al3 Cl7 2.135257 1_555
Al3 Cl10 2.135257 1_555
Al3 Cl3 2.145530 1_555
Al3 Se3 2.542565 1_555
C0 H8 1.094700 1_555
C0 H0 1.094961 1_555
C0 H16 1.096554 1_555
C0 Se0 1.963848 1_555
C1 H9 1.094700 1_555
C1 H1 1.094961 1_555
C1 H17 1.096554 1_555
C1 Se1 1.963848 1_555
C2 H10 1.094700 1_555
C2 H2 1.094961 1_555
C2 H18 1.096554 1_555
C2 Se2 1.963848 1_555
C3 H11 1.094700 1_555
C3 H3 1.094961 1_555
C3 H19 1.096554 1_555
C3 Se3 1.963848 1_555
C4 H12 1.094700 1_555
C4 H4 1.094961 1_555
C4 H20 1.096554 1_555
C4 Se1 1.963848 1_555
C5 H13 1.094700 1_555
C5 H5 1.094961 1_555
C5 H21 1.096554 1_555
C5 Se0 1.963848 1_555
C6 H14 1.094700 1_555
C6 H6 1.094961 1_555
C6 H22 1.096554 1_555
C6 Se3 1.963848 1_555
C7 H15 1.094700 1_555
C7 H7 1.094961 1_555
C7 H23 1.096554 1_555
C7 Se2 1.963848 1_555
