# generated using pymatgen
data_Li3Co2NiO6
_symmetry_space_group_name_H-M   'P 1'
_cell_length_a   2.92893900
_cell_length_b   5.89051203
_cell_length_c   12.61994283
_cell_angle_alpha   76.93283452
_cell_angle_beta   89.88720255
_cell_angle_gamma   89.31322089
_symmetry_Int_Tables_number   1
_chemical_formula_structural   Li3Co2NiO6
_chemical_formula_sum   'Li6 Co4 Ni2 O12'
_cell_volume   212.07795125
_cell_formula_units_Z   2
loop_
 _symmetry_equiv_pos_site_id
 _symmetry_equiv_pos_as_xyz
  1  'x, y, z'
loop_
 _atom_site_type_symbol
 _atom_site_label
 _atom_site_symmetry_multiplicity
 _atom_site_fract_x
 _atom_site_fract_y
 _atom_site_fract_z
 _atom_site_occupancy
  Li  Li0  1  0.49818300  0.65223400  0.16876200  1
  Li  Li1  1  0.00223300  0.16703100  0.66916200  1
  Li  Li2  1  0.49842700  0.99578100  0.49898700  1
  Li  Li3  1  0.99321300  0.49163100  0.00008300  1
  Li  Li4  1  0.99951600  0.84371600  0.32747800  1
  Li  Li5  1  0.49470400  0.33289100  0.83764200  1
  Co  Co0  1  0.00640000  0.00557300  0.00632600  1
  Co  Co1  1  0.99991100  0.33127200  0.33528500  1
  Co  Co2  1  0.49746800  0.49662000  0.49788000  1
  Co  Co3  1  0.49464000  0.83108500  0.83151200  1
  Ni  Ni0  1  0.99394500  0.66141600  0.66500400  1
  Ni  Ni1  1  0.50232100  0.17120000  0.16811200  1
  O  O0  1  0.99327700  0.71379400  0.49518800  1
  O  O1  1  0.49954600  0.23821000  0.99870600  1
  O  O2  1  0.50427900  0.11006900  0.33730200  1
  O  O3  1  0.95559000  0.60098200  0.83082500  1
  O  O4  1  0.99910200  0.40450800  0.17999900  1
  O  O5  1  0.48785700  0.90197300  0.67789500  1
  O  O6  1  0.00385000  0.91901000  0.15799900  1
  O  O7  1  0.49963500  0.42871700  0.64851000  1
  O  O8  1  0.49536400  0.54811700  0.34434900  1
  O  O9  1  0.03673800  0.06291900  0.83596900  1
  O  O10  1  0.00187800  0.28081000  0.49385100  1
  O  O11  1  0.50814600  0.77044800  0.98195300  1
loop_
_geom_bond_atom_site_label_1
_geom_bond_atom_site_label_2
_geom_bond_distance
_geom_bond_site_symmetry_2
Li0 O4 2.039107 1_555
Li0 O4 2.059857 1_455
Li0 O6 2.105692 1_555
Li0 O6 2.154052 1_655
Li0 O8 2.161465 1_555
Li0 O11 2.302505 1_554
Li1 O9 2.057504 1_555
Li1 O5 2.083885 1_545
Li1 O7 2.092010 1_455
Li1 O7 2.106456 1_555
Li1 O10 2.161819 1_555
Li1 O5 2.167392 1_445
Li2 O2 1.998989 1_565
Li2 O10 2.197936 1_565
Li2 O5 2.199996 1_555
Li2 O0 2.200027 1_555
Li2 O10 2.237694 1_665
Li2 O0 2.246255 1_455
Li3 O3 2.089672 1_554
Li3 O1 2.093550 1_554
Li3 O1 2.094420 1_654
Li3 O11 2.131583 1_554
Li3 O4 2.211790 1_555
Li3 O11 2.216424 1_654
Li4 O0 2.081660 1_555
Li4 O6 2.083862 1_655
Li4 O2 2.147950 1_565
Li4 O2 2.192488 1_665
Li4 O8 2.226964 1_655
Li4 O8 2.269452 1_555
Li5 O1 1.982448 1_555
Li5 O3 2.076708 1_555
Li5 O9 2.096444 1_555
Li5 O3 2.207695 1_455
Li5 O9 2.237044 1_655
Li5 O7 2.325220 1_555
Co0 O6 1.866159 1_545
Co0 O1 1.990151 1_554
Co0 O1 1.995792 1_454
Co0 O11 2.077159 1_544
Co0 O11 2.094141 1_444
Co0 O9 2.101340 1_554
Co1 O4 1.908991 1_555
Co1 O2 1.954422 1_655
Co1 O10 1.955454 1_655
Co1 O2 1.958576 1_555
Co1 O8 1.961800 1_555
Co1 O8 1.965108 1_655
Co2 O7 1.851966 1_555
Co2 O8 1.892194 1_555
Co2 O0 1.937449 1_455
Co2 O0 1.941966 1_555
Co2 O10 1.945557 1_655
Co2 O10 1.949198 1_555
Co3 O11 1.851210 1_555
Co3 O5 1.888644 1_555
Co3 O3 1.902999 1_555
Co3 O9 1.912418 1_565
Co3 O3 2.094438 1_455
Co3 O9 2.115696 1_665
Ni0 O3 2.044923 1_555
Ni0 O7 2.048191 1_655
Ni0 O7 2.048440 1_555
Ni0 O5 2.069163 1_655
Ni0 O5 2.069908 1_555
Ni0 O0 2.094982 1_555
Ni1 O4 2.031597 1_455
Ni1 O4 2.042151 1_555
Ni1 O2 2.083500 1_555
Ni1 O1 2.084434 1_554
Ni1 O6 2.100850 1_645
Ni1 O6 2.119697 1_545
