# generated using pymatgen
data_PrPbAu
_symmetry_space_group_name_H-M   'P 1'
_cell_length_a   4.90744522
_cell_length_b   4.90744522
_cell_length_c   7.79382400
_cell_angle_alpha   90.00000000
_cell_angle_beta   90.00000000
_cell_angle_gamma   119.99998945
_symmetry_Int_Tables_number   1
_chemical_formula_structural   PrPbAu
_chemical_formula_sum   'Pr2 Pb2 Au2'
_cell_volume   162.55195332
_cell_formula_units_Z   2
loop_
 _symmetry_equiv_pos_site_id
 _symmetry_equiv_pos_as_xyz
  1  'x, y, z'
loop_
 _atom_site_type_symbol
 _atom_site_label
 _atom_site_symmetry_multiplicity
 _atom_site_fract_x
 _atom_site_fract_y
 _atom_site_fract_z
 _atom_site_occupancy
  Pr  Pr0  1  0.00000000  0.00000000  0.50000000  1
  Pr  Pr1  1  0.00000000  0.00000000  0.00000000  1
  Pb  Pb0  1  0.33333300  0.66666700  0.75000000  1
  Pb  Pb1  1  0.66666700  0.33333300  0.25000000  1
  Au  Au0  1  0.33333300  0.66666700  0.25000000  1
  Au  Au1  1  0.66666700  0.33333300  0.75000000  1
loop_
_geom_bond_atom_site_label_1
_geom_bond_atom_site_label_2
_geom_bond_distance
_geom_bond_site_symmetry_2
Pr0 Pr1 3.896912 1_556
Pr0 Pr1 3.896912 1_555
Pb0 Pr0 3.438624 1_565
Pb0 Pr1 3.438624 1_566
Pb0 Pr1 3.438628 1_556
Pb0 Pr1 3.438628 1_666
Pb0 Pr0 3.438628 1_555
Pb0 Pr0 3.438628 1_665
Pb1 Pr1 3.438624 1_655
Pb1 Pr0 3.438624 1_655
Pb1 Pr1 3.438628 1_555
Pb1 Pr1 3.438628 1_665
Pb1 Pr0 3.438628 1_555
Pb1 Pr0 3.438628 1_665
Au0 Pb1 2.833312 1_455
Au0 Pb1 2.833312 1_565
Au0 Pb1 2.833320 1_555
Au0 Pr1 3.438624 1_565
Au0 Pr0 3.438624 1_565
Au0 Pr1 3.438628 1_555
Au0 Pr1 3.438628 1_665
Au0 Pr0 3.438628 1_555
Au0 Pr0 3.438628 1_665
Au1 Pb0 2.833312 1_545
Au1 Pb0 2.833312 1_655
Au1 Pb0 2.833320 1_555
Au1 Pr1 3.438624 1_656
Au1 Pr0 3.438624 1_655
Au1 Pr1 3.438628 1_556
Au1 Pr1 3.438628 1_666
Au1 Pr0 3.438628 1_555
Au1 Pr0 3.438628 1_665
