# generated using pymatgen
data_Li4MnCo2O7
_symmetry_space_group_name_H-M   'P 1'
_cell_length_a   3.03040900
_cell_length_b   5.06901587
_cell_length_c   16.74180401
_cell_angle_alpha   90.07881306
_cell_angle_beta   92.41171127
_cell_angle_gamma   91.41734314
_symmetry_Int_Tables_number   1
_chemical_formula_structural   Li4MnCo2O7
_chemical_formula_sum   'Li8 Mn2 Co4 O14'
_cell_volume   256.86689766
_cell_formula_units_Z   2
loop_
 _symmetry_equiv_pos_site_id
 _symmetry_equiv_pos_as_xyz
  1  'x, y, z'
loop_
 _atom_site_type_symbol
 _atom_site_label
 _atom_site_symmetry_multiplicity
 _atom_site_fract_x
 _atom_site_fract_y
 _atom_site_fract_z
 _atom_site_occupancy
  Li  Li0  1  0.92177900  0.35975200  0.85575600  1
  Li  Li1  1  0.34729300  0.21930400  0.71308700  1
  Li  Li2  1  0.78544200  0.07131700  0.57130100  1
  Li  Li3  1  0.22315400  0.92273500  0.42868900  1
  Li  Li4  1  0.64637900  0.78496600  0.28681500  1
  Li  Li5  1  0.07357800  0.64374700  0.14380800  1
  Li  Li6  1  0.50104700  0.50063200  0.00040900  1
  Li  Li7  1  0.28455300  0.57112200  0.57069400  1
  Mn  Mn0  1  0.01432400  0.00117600  0.00081900  1
  Mn  Mn1  1  0.42246600  0.85265200  0.85440600  1
  Co  Co0  1  0.83711400  0.71172700  0.70596800  1
  Co  Co1  1  0.71660700  0.42807600  0.43468500  1
  Co  Co2  1  0.14231200  0.28941100  0.28823300  1
  Co  Co3  1  0.58306900  0.14671500  0.14575800  1
  O  O0  1  0.43385400  0.15995000  0.92627500  1
  O  O1  1  0.86098300  0.00134100  0.78187400  1
  O  O2  1  0.28652600  0.88273300  0.64708600  1
  O  O3  1  0.74424000  0.71611700  0.49092900  1
  O  O4  1  0.13941300  0.58535000  0.35787100  1
  O  O5  1  0.61310700  0.44651700  0.21535400  1
  O  O6  1  0.06190800  0.30140700  0.07361500  1
  O  O7  1  0.41543100  0.55307800  0.78352400  1
  O  O8  1  0.82205400  0.42433900  0.64970400  1
  O  O9  1  0.27356400  0.25942900  0.49407000  1
  O  O10  1  0.66488300  0.14119700  0.35919500  1
  O  O11  1  0.10457500  0.98715800  0.21715600  1
  O  O12  1  0.58438800  0.84281800  0.07395900  1
  O  O13  1  0.99595700  0.69523400  0.92896000  1
loop_
_geom_bond_atom_site_label_1
_geom_bond_atom_site_label_2
_geom_bond_distance
_geom_bond_site_symmetry_2
Li0 O13 2.096815 1_555
Li0 O0 2.163800 1_555
Li0 O7 2.167656 1_555
Li0 O7 2.177991 1_655
Li0 O0 2.180491 1_655
Li0 O1 2.196069 1_555
Li1 O2 2.031687 1_545
Li1 O7 2.062166 1_555
Li1 O8 2.081752 1_555
Li1 O8 2.163891 1_455
Li1 O1 2.187365 1_455
Li1 O1 2.215385 1_555
Li2 O2 2.177710 1_645
Li2 O9 2.205379 1_655
Li2 O9 2.212475 1_555
Li2 O2 2.214225 1_545
Li2 O8 2.215610 1_555
Li2 O3 2.244121 1_545
Li3 O9 2.025393 1_565
Li3 O4 2.083877 1_555
Li3 O3 2.084249 1_455
Li3 O10 2.105498 1_565
Li3 O3 2.150031 1_555
Li3 O10 2.317899 1_465
Li4 O5 2.088168 1_555
Li4 O11 2.099446 1_655
Li4 O4 2.144726 1_655
Li4 O10 2.171517 1_565
Li4 O4 2.208959 1_555
Li4 O11 2.243144 1_555
Li5 O6 2.093194 1_555
Li5 O5 2.111020 1_455
Li5 O12 2.124797 1_455
Li5 O11 2.126807 1_555
Li5 O12 2.204602 1_555
Li5 O5 2.242056 1_555
Li6 O6 2.089756 1_555
Li6 O0 2.125931 1_554
Li6 O12 2.129545 1_555
Li6 O13 2.161157 1_454
Li6 O13 2.175846 1_554
Li6 O6 2.307318 1_655
Li7 O2 2.030780 1_555
Li7 O9 2.032560 1_555
Li7 O3 2.091097 1_555
Li7 O8 2.091613 1_455
Li7 O8 2.199500 1_555
Li7 O3 2.209686 1_455
Mn0 O6 1.947169 1_555
Mn0 O13 1.959705 1_444
Mn0 O0 1.976678 1_554
Mn0 O12 1.981535 1_445
Mn0 O12 2.240842 1_545
Mn0 O0 2.277629 1_454
Mn1 O7 1.925094 1_555
Mn1 O0 1.965715 1_565
Mn1 O1 1.974172 1_565
Mn1 O13 1.988138 1_455
Mn1 O1 2.197701 1_465
Mn1 O13 2.259154 1_555
Co0 O8 1.732306 1_555
Co0 O2 1.906541 1_655
Co0 O1 1.938362 1_565
Co0 O7 2.014268 1_555
Co0 O2 2.107741 1_555
Co0 O7 2.298937 1_655
Co1 O3 1.734662 1_555
Co1 O9 1.892021 1_555
Co1 O10 1.924457 1_555
Co1 O4 2.005493 1_655
Co1 O9 2.121427 1_655
Co1 O4 2.287212 1_555
Co2 O4 1.899047 1_555
Co2 O11 1.936840 1_545
Co2 O10 2.040210 1_455
Co2 O5 2.061883 1_555
Co2 O10 2.094433 1_555
Co2 O5 2.143822 1_455
Co3 O5 1.911738 1_555
Co3 O12 1.952833 1_545
Co3 O6 2.067149 1_655
Co3 O11 2.067868 1_545
Co3 O6 2.114540 1_555
Co3 O11 2.118364 1_645
