# generated using pymatgen
data_CaP4W3O14
_symmetry_space_group_name_H-M   'P 1'
_cell_length_a   7.36871000
_cell_length_b   8.06550300
_cell_length_c   10.12017607
_cell_angle_alpha   78.86779995
_cell_angle_beta   90.00000000
_cell_angle_gamma   90.00000000
_symmetry_Int_Tables_number   1
_chemical_formula_structural   CaP4W3O14
_chemical_formula_sum   'Ca2 P8 W6 O28'
_cell_volume   590.14887880
_cell_formula_units_Z   2
loop_
 _symmetry_equiv_pos_site_id
 _symmetry_equiv_pos_as_xyz
  1  'x, y, z'
loop_
 _atom_site_type_symbol
 _atom_site_label
 _atom_site_symmetry_multiplicity
 _atom_site_fract_x
 _atom_site_fract_y
 _atom_site_fract_z
 _atom_site_occupancy
  Ca  Ca0  1  0.00000000  0.50000000  0.00000000  1
  Ca  Ca1  1  0.50000000  0.50000000  0.50000000  1
  P  P0  1  0.90500200  0.42847800  0.68329800  1
  P  P1  1  0.40500200  0.57152200  0.81670200  1
  P  P2  1  0.09499800  0.57152200  0.31670200  1
  P  P3  1  0.59499800  0.42847800  0.18329800  1
  P  P4  1  0.18236200  0.15768000  0.67750900  1
  P  P5  1  0.68236200  0.84232000  0.82249100  1
  P  P6  1  0.81763800  0.84232000  0.32249100  1
  P  P7  1  0.31763800  0.15768000  0.17750900  1
  W  W0  1  0.15089800  0.81176400  0.54875100  1
  W  W1  1  0.65089800  0.18823600  0.95124900  1
  W  W2  1  0.84910200  0.18823600  0.45124900  1
  W  W3  1  0.34910200  0.81176400  0.04875100  1
  W  W4  1  0.00000000  0.00000000  0.00000000  1
  W  W5  1  0.50000000  0.00000000  0.50000000  1
  O  O0  1  0.36777500  0.18877800  0.60689100  1
  O  O1  1  0.86777500  0.81122200  0.89310900  1
  O  O2  1  0.63222500  0.81122200  0.39310900  1
  O  O3  1  0.13222500  0.18877800  0.10689100  1
  O  O4  1  0.35311700  0.64024600  0.66803900  1
  O  O5  1  0.85311700  0.35975400  0.83196100  1
  O  O6  1  0.64688300  0.35975400  0.33196100  1
  O  O7  1  0.14688300  0.64024600  0.16803900  1
  O  O8  1  0.76996200  0.36859200  0.58471900  1
  O  O9  1  0.26996200  0.63140800  0.91528100  1
  O  O10  1  0.23003800  0.63140800  0.41528100  1
  O  O11  1  0.73003800  0.36859200  0.08471900  1
  O  O12  1  0.09820900  0.34622700  0.65522900  1
  O  O13  1  0.59820900  0.65377300  0.84477100  1
  O  O14  1  0.90179100  0.65377300  0.34477100  1
  O  O15  1  0.40179100  0.34622700  0.15522900  1
  O  O16  1  0.56452300  0.61631000  0.15782500  1
  O  O17  1  0.06452300  0.38369000  0.34217500  1
  O  O18  1  0.43547700  0.38369000  0.84217500  1
  O  O19  1  0.93547700  0.61631000  0.65782500  1
  O  O20  1  0.82143100  0.91712500  0.17387700  1
  O  O21  1  0.32143100  0.08287500  0.32612300  1
  O  O22  1  0.17856900  0.08287500  0.82612300  1
  O  O23  1  0.67856900  0.91712500  0.67387700  1
  O  O24  1  0.44815600  0.05540800  0.10055100  1
  O  O25  1  0.94815600  0.94459200  0.39944900  1
  O  O26  1  0.55184400  0.94459200  0.89944900  1
  O  O27  1  0.05184400  0.05540800  0.60055100  1
loop_
_geom_bond_atom_site_label_1
_geom_bond_atom_site_label_2
_geom_bond_distance
_geom_bond_site_symmetry_2
Ca0 O9 2.337675 1_554
Ca0 O11 2.337675 1_455
Ca0 O7 2.466932 1_555
Ca0 O5 2.466932 1_454
Ca0 O3 2.715122 1_555
Ca0 O1 2.715122 1_454
Ca1 O8 2.337675 1_555
Ca1 O10 2.337675 1_555
Ca1 O4 2.466932 1_555
Ca1 O6 2.466932 1_555
Ca1 O2 2.715122 1_555
Ca1 O0 2.715122 1_555
O0 P4 1.539835 1_555
O0 W5 2.252510 1_555
O1 P5 1.539835 1_555
O1 W4 2.252510 1_666
O2 P6 1.539835 1_555
O2 W5 2.252510 1_565
O3 P7 1.539835 1_555
O3 W4 2.252510 1_555
O4 P1 1.547547 1_555
O4 W0 2.224096 1_555
O5 P0 1.547547 1_555
O5 W1 2.224096 1_555
O6 P3 1.547547 1_555
O6 W2 2.224096 1_555
O7 P2 1.547547 1_555
O7 W3 2.224096 1_555
O8 P0 1.550747 1_555
O8 W2 2.244848 1_555
O9 P1 1.550747 1_555
O9 W3 2.244848 1_556
O10 P2 1.550747 1_555
O10 W0 2.244848 1_555
O11 P3 1.550747 1_555
O11 W1 2.244848 1_554
O12 P4 1.617271 1_555
O12 P0 1.618776 1_455
O13 P5 1.617271 1_555
O13 P1 1.618776 1_555
O14 P6 1.617271 1_555
O14 P2 1.618776 1_655
O15 P7 1.617271 1_555
O15 P3 1.618776 1_555
O16 P3 1.503722 1_555
O16 W3 2.356148 1_555
O17 P2 1.503722 1_555
O17 W2 2.356148 1_455
O18 P1 1.503722 1_555
O18 W1 2.356148 1_555
O19 P0 1.503722 1_555
O19 W0 2.356148 1_655
O20 P6 1.508780 1_555
O20 W4 2.195546 1_665
O21 P7 1.508780 1_555
O21 W5 2.195546 1_555
O22 P4 1.508780 1_555
O22 W4 2.195546 1_556
O23 P5 1.508780 1_555
O23 W5 2.195546 1_565
O24 P7 1.568448 1_555
O24 W1 2.244450 1_554
O24 W3 2.251005 1_545
O25 P6 1.568448 1_555
O25 W0 2.244450 1_655
O25 W2 2.251005 1_565
O26 P5 1.568448 1_555
O26 W3 2.244450 1_556
O26 W1 2.251005 1_565
O27 P4 1.568448 1_555
O27 W2 2.244450 1_455
O27 W0 2.251005 1_545
