# generated using pymatgen
data_La14Zn45Si
_symmetry_space_group_name_H-M   'P 1'
_cell_length_a   4.52111300
_cell_length_b   15.56193600
_cell_length_c   17.42011288
_cell_angle_alpha   89.81595052
_cell_angle_beta   90.00000000
_cell_angle_gamma   90.00000000
_symmetry_Int_Tables_number   1
_chemical_formula_structural   La14Zn45Si
_chemical_formula_sum   'La14 Zn45 Si1'
_cell_volume   1225.62528173
_cell_formula_units_Z   1
loop_
 _symmetry_equiv_pos_site_id
 _symmetry_equiv_pos_as_xyz
  1  'x, y, z'
loop_
 _atom_site_type_symbol
 _atom_site_label
 _atom_site_symmetry_multiplicity
 _atom_site_fract_x
 _atom_site_fract_y
 _atom_site_fract_z
 _atom_site_occupancy
  La  La0  1  0.00000000  0.33630200  0.04574500  1
  La  La1  1  0.00000000  0.66514500  0.95554100  1
  La  La2  1  0.00000000  0.83350300  0.45579900  1
  La  La3  1  0.00000000  0.16487600  0.54356900  1
  La  La4  1  0.50000000  0.08468700  0.24436000  1
  La  La5  1  0.50000000  0.91600500  0.75551500  1
  La  La6  1  0.50000000  0.58039200  0.26012800  1
  La  La7  1  0.50000000  0.41642000  0.74499600  1
  La  La8  1  0.50000000  0.49970000  0.49136400  1
  La  La9  1  0.50000000  0.99982000  0.99948500  1
  La  La10  1  0.50000000  0.33501800  0.31911300  1
  La  La11  1  0.50000000  0.66811900  0.68187700  1
  La  La12  1  0.50000000  0.83159800  0.18200400  1
  La  La13  1  0.50000000  0.16788400  0.81830200  1
  Zn  Zn0  1  0.00000000  0.24313500  0.21771800  1
  Zn  Zn1  1  0.00000000  0.75776100  0.78282600  1
  Zn  Zn2  1  0.00000000  0.74157500  0.28298700  1
  Zn  Zn3  1  0.00000000  0.25822500  0.71673300  1
  Zn  Zn4  1  0.50000000  0.19954500  0.00620300  1
  Zn  Zn5  1  0.50000000  0.79994000  0.99501000  1
  Zn  Zn6  1  0.50000000  0.69777200  0.49479900  1
  Zn  Zn7  1  0.50000000  0.29985600  0.50537600  1
  Zn  Zn8  1  0.00000000  0.19483500  0.35759000  1
  Zn  Zn9  1  0.00000000  0.80517500  0.64229600  1
  Zn  Zn10  1  0.00000000  0.69463800  0.14277400  1
  Zn  Zn11  1  0.00000000  0.30521600  0.85801500  1
  Zn  Zn12  1  0.50000000  0.42608200  0.14146600  1
  Zn  Zn13  1  0.50000000  0.57475400  0.85943200  1
  Zn  Zn14  1  0.50000000  0.92573800  0.35898400  1
  Zn  Zn15  1  0.50000000  0.07408900  0.64057900  1
  Zn  Zn16  1  0.00000000  0.42536900  0.21688700  1
  Zn  Zn17  1  0.00000000  0.57520000  0.78416500  1
  Zn  Zn18  1  0.00000000  0.92495400  0.28430900  1
  Zn  Zn19  1  0.00000000  0.07469200  0.71492500  1
  Zn  Zn20  1  0.50000000  0.25000800  0.14635200  1
  Zn  Zn21  1  0.50000000  0.74980300  0.85386600  1
  Zn  Zn22  1  0.50000000  0.74821900  0.35388900  1
  Zn  Zn23  1  0.50000000  0.24987600  0.64593600  1
  Zn  Zn24  1  0.00000000  0.13591100  0.09969800  1
  Zn  Zn25  1  0.00000000  0.86541400  0.90096600  1
  Zn  Zn26  1  0.00000000  0.63451200  0.40045600  1
  Zn  Zn27  1  0.00000000  0.36660600  0.59860900  1
  Zn  Zn28  1  0.00000000  0.03244400  0.40071700  1
  Zn  Zn29  1  0.00000000  0.96727000  0.59875400  1
  Zn  Zn30  1  0.00000000  0.53384600  0.09995500  1
  Zn  Zn31  1  0.00000000  0.46745300  0.90059100  1
  Zn  Zn32  1  0.00000000  0.34894300  0.44745800  1
  Zn  Zn33  1  0.00000000  0.65157500  0.55201500  1
  Zn  Zn34  1  0.00000000  0.84733700  0.05208400  1
  Zn  Zn35  1  0.00000000  0.15286100  0.94838700  1
  Zn  Zn36  1  0.50000000  0.14866600  0.41834300  1
  Zn  Zn37  1  0.50000000  0.85138900  0.58142400  1
  Zn  Zn38  1  0.50000000  0.64771800  0.08273800  1
  Zn  Zn39  1  0.50000000  0.35084200  0.91854100  1
  Zn  Zn40  1  0.50000000  0.49990900  0.00000200  1
  Zn  Zn41  1  0.50000000  0.00004400  0.49987800  1
  Zn  Zn42  1  0.00000000  0.52160000  0.64273800  1
  Zn  Zn43  1  0.00000000  0.97813500  0.14218900  1
  Zn  Zn44  1  0.00000000  0.02264900  0.85681000  1
  Si  Si0  1  0.00000000  0.47895300  0.35673200  1
loop_
_geom_bond_atom_site_label_1
_geom_bond_atom_site_label_2
_geom_bond_distance
_geom_bond_site_symmetry_2
La0 Zn12 3.139677 1_555
La0 Zn12 3.139677 1_455
La0 Zn20 3.157520 1_455
La0 Zn20 3.157520 1_555
La0 Zn39 3.173065 1_554
La0 Zn39 3.173065 1_454
La0 Zn4 3.181708 1_455
La0 Zn4 3.181708 1_555
La0 Zn30 3.218841 1_555
La0 Zn31 3.244409 1_554
La0 Zn24 3.254134 1_555
La0 Zn16 3.291796 1_555
La0 Zn11 3.307401 1_554
La0 Zn0 3.323994 1_555
La0 Zn35 3.325173 1_554
La0 Zn40 3.494907 1_555
La0 Zn40 3.494907 1_455
La1 Zn13 3.147536 1_455
La1 Zn13 3.147536 1_555
La1 Zn21 3.157197 1_555
La1 Zn21 3.157197 1_455
La1 Zn5 3.161066 1_455
La1 Zn5 3.161066 1_555
La1 Zn38 3.176399 1_456
La1 Zn38 3.176399 1_556
La1 Zn31 3.224886 1_555
La1 Zn30 3.235846 1_556
La1 Zn25 3.255431 1_555
La1 Zn10 3.295214 1_556
La1 Zn34 3.301174 1_556
La1 Zn17 3.301304 1_555
La1 Zn1 3.331937 1_555
La1 Zn40 3.508454 1_556
La1 Zn40 3.508454 1_456
La2 Zn37 3.159209 1_555
La2 Zn37 3.159209 1_455
La2 Zn14 3.162149 1_455
La2 Zn14 3.162149 1_555
La2 Zn6 3.166071 1_555
La2 Zn6 3.166071 1_455
La2 Zn22 3.168328 1_555
La2 Zn22 3.168328 1_455
La2 Zn28 3.238250 1_565
La2 Zn26 3.246243 1_555
La2 Zn29 3.250881 1_555
La2 Zn9 3.277168 1_555
La2 Zn33 3.285457 1_555
La2 Zn18 3.304915 1_555
La2 Zn2 3.337178 1_555
La2 Zn41 3.525539 1_565
La2 Zn41 3.525539 1_465
La3 Zn36 3.152144 1_455
La3 Zn36 3.152144 1_555
La3 Zn15 3.153837 1_455
La3 Zn15 3.153837 1_555
La3 Zn7 3.155330 1_555
La3 Zn7 3.155330 1_455
La3 Zn23 3.170952 1_455
La3 Zn23 3.170952 1_555
La3 Zn29 3.218944 1_545
La3 Zn28 3.236182 1_555
La3 Zn8 3.271666 1_555
La3 Zn27 3.285408 1_555
La3 Zn19 3.294418 1_555
La3 Zn32 3.313210 1_555
La3 Zn3 3.352306 1_555
La3 Zn41 3.504525 1_555
La3 Zn41 3.504525 1_455
La4 Zn20 3.083107 1_555
La4 Zn14 3.173925 1_545
La4 Zn36 3.193188 1_555
La4 Zn43 3.323605 1_645
La4 Zn43 3.323605 1_545
La4 Zn0 3.376110 1_655
La4 Zn0 3.376110 1_555
La4 Zn18 3.429618 1_545
La4 Zn18 3.429618 1_645
La4 Zn8 3.458425 1_655
La4 Zn8 3.458425 1_555
La4 Zn24 3.476089 1_555
La4 Zn24 3.476089 1_655
La4 Zn28 3.629836 1_655
La4 Zn28 3.629836 1_555
La5 Zn21 3.097817 1_555
La5 Zn15 3.166893 1_565
La5 Zn37 3.198109 1_555
La5 Zn44 3.316153 1_565
La5 Zn44 3.316153 1_665
La5 Zn1 3.375389 1_555
La5 Zn1 3.375389 1_655
La5 Zn19 3.420114 1_665
La5 Zn19 3.420114 1_565
La5 Zn9 3.463608 1_655
La5 Zn9 3.463608 1_555
La5 Zn25 3.483839 1_555
La5 Zn25 3.483839 1_655
La5 Zn29 3.631778 1_555
La5 Zn29 3.631778 1_655
La6 Zn22 3.084835 1_555
La6 Zn12 3.173540 1_555
La6 Si0 3.227535 1_655
La6 Si0 3.227535 1_555
La6 Zn38 3.259751 1_555
La6 Zn16 3.392514 1_555
La6 Zn16 3.392514 1_655
La6 Zn2 3.400995 1_555
La6 Zn2 3.400995 1_655
La6 Zn26 3.436334 1_655
La6 Zn26 3.436334 1_555
La6 Zn10 3.525181 1_555
La6 Zn10 3.525181 1_655
La6 Zn30 3.665129 1_655
La6 Zn30 3.665129 1_555
La7 Zn23 3.118286 1_555
La7 Zn13 3.174392 1_555
La7 Zn39 3.187667 1_555
La7 Zn42 3.308127 1_655
La7 Zn42 3.308127 1_555
La7 Zn3 3.379477 1_555
La7 Zn3 3.379477 1_655
La7 Zn17 3.419355 1_555
La7 Zn17 3.419355 1_655
La7 Zn11 3.458210 1_555
La7 Zn11 3.458210 1_655
La7 Zn27 3.496663 1_555
La7 Zn27 3.496663 1_655
La7 Zn31 3.619581 1_555
La7 Zn31 3.619581 1_655
La8 Zn6 3.083157 1_555
La8 Zn7 3.118742 1_555
La8 Si0 3.274091 1_655
La8 Si0 3.274091 1_555
La8 Zn32 3.348236 1_555
La8 Zn32 3.348236 1_655
La8 Zn33 3.439249 1_655
La8 Zn33 3.439249 1_555
La8 Zn26 3.463810 1_555
La8 Zn26 3.463810 1_655
La8 Zn42 3.490781 1_555
La8 Zn42 3.490781 1_655
La8 Zn27 3.586833 1_555
La8 Zn27 3.586833 1_655
La9 Zn4 3.110686 1_566
La9 Zn5 3.111747 1_555
La9 Zn43 3.376152 1_556
La9 Zn43 3.376152 1_656
La9 Zn44 3.377564 1_565
La9 Zn44 3.377564 1_665
La9 Zn35 3.400135 1_665
La9 Zn35 3.400135 1_565
La9 Zn34 3.400958 1_556
La9 Zn34 3.400958 1_656
La9 Zn25 3.528941 1_555
La9 Zn25 3.528941 1_655
La9 Zn24 3.559025 1_666
La9 Zn24 3.559025 1_566
La10 Zn32 3.187306 1_555
La10 Zn32 3.187306 1_655
La10 Zn16 3.200340 1_555
La10 Zn16 3.200340 1_655
La10 Zn0 3.207920 1_555
La10 Zn0 3.207920 1_655
La10 Zn8 3.210765 1_555
La10 Zn8 3.210765 1_655
La10 Si0 3.250567 1_655
La10 Si0 3.250567 1_555
La10 Zn7 3.288804 1_555
La10 Zn20 3.291335 1_555
La10 Zn36 3.371325 1_555
La10 Zn12 3.399534 1_555
La11 Zn9 3.182006 1_555
La11 Zn9 3.182006 1_655
La11 Zn1 3.188163 1_555
La11 Zn1 3.188163 1_655
La11 Zn33 3.209009 1_555
La11 Zn33 3.209009 1_655
La11 Zn17 3.218623 1_555
La11 Zn17 3.218623 1_655
La11 Zn21 3.258334 1_555
La11 Zn42 3.283886 1_655
La11 Zn42 3.283886 1_555
La11 Zn6 3.289961 1_555
La11 Zn37 3.341288 1_555
La11 Zn13 3.413061 1_555
La12 Zn10 3.182641 1_655
La12 Zn10 3.182641 1_555
La12 Zn2 3.186134 1_555
La12 Zn2 3.186134 1_655
La12 Zn34 3.207603 1_555
La12 Zn34 3.207603 1_655
La12 Zn18 3.226994 1_555
La12 Zn18 3.226994 1_655
La12 Zn22 3.259481 1_555
La12 Zn43 3.283479 1_655
La12 Zn43 3.283479 1_555
La12 Zn5 3.296065 1_554
La12 Zn38 3.348187 1_555
La12 Zn14 3.417631 1_555
La13 Zn11 3.188358 1_555
La13 Zn11 3.188358 1_655
La13 Zn3 3.193934 1_555
La13 Zn3 3.193934 1_655
La13 Zn35 3.208825 1_655
La13 Zn35 3.208825 1_555
La13 Zn19 3.236222 1_555
La13 Zn19 3.236222 1_655
La13 Zn23 3.258721 1_555
La13 Zn44 3.264749 1_555
La13 Zn44 3.264749 1_655
La13 Zn4 3.311696 1_556
La13 Zn39 3.344773 1_555
La13 Zn15 3.427024 1_555
Zn0 Zn8 2.547577 1_555
Zn0 Zn20 2.581910 1_555
Zn0 Zn20 2.581910 1_455
Zn0 Zn24 2.652004 1_555
Zn0 Zn16 2.835904 1_555
Zn1 Zn9 2.554558 1_555
Zn1 Zn21 2.579910 1_555
Zn1 Zn21 2.579910 1_455
Zn1 Zn25 2.657848 1_555
Zn1 Zn17 2.841023 1_555
Zn2 Zn22 2.578207 1_555
Zn2 Zn22 2.578207 1_455
Zn2 Zn26 2.634663 1_555
Zn10 Zn2 2.551652 1_555
Zn10 Zn38 2.596523 1_455
Zn10 Zn38 2.596523 1_555
Zn10 Zn30 2.613342 1_555
Zn10 Zn34 2.849300 1_555
Zn11 Zn3 2.569741 1_555
Zn11 Zn39 2.594371 1_455
Zn11 Zn39 2.594371 1_555
Zn11 Zn31 2.633693 1_555
Zn11 Zn35 2.841788 1_555
Zn12 Zn16 2.614637 1_555
Zn12 Zn16 2.614637 1_655
Zn12 Zn40 2.715627 1_555
Zn12 Zn20 2.741101 1_555
Zn12 Zn30 2.904758 1_655
Zn12 Zn30 2.904758 1_555
Zn13 Zn17 2.613282 1_555
Zn13 Zn17 2.613282 1_655
Zn13 Zn40 2.708253 1_556
Zn13 Zn21 2.725515 1_555
Zn13 Zn31 2.899099 1_655
Zn13 Zn31 2.899099 1_555
Zn14 Zn18 2.608174 1_555
Zn14 Zn18 2.608174 1_655
Zn14 Zn41 2.716504 1_565
Zn14 Zn22 2.764250 1_555
Zn14 Zn28 2.898935 1_665
Zn14 Zn28 2.898935 1_565
Zn15 Zn19 2.605304 1_655
Zn15 Zn19 2.605304 1_555
Zn15 Zn41 2.711722 1_555
Zn15 Zn23 2.737477 1_555
Zn15 Zn29 2.900349 1_645
Zn15 Zn29 2.900349 1_545
Zn16 Zn30 2.641377 1_555
Zn17 Zn42 2.603584 1_555
Zn17 Zn31 2.627367 1_555
Zn18 Zn43 2.607888 1_555
Zn18 Zn28 2.632875 1_565
Zn18 Zn2 2.853899 1_555
Zn19 Zn44 2.598486 1_555
Zn19 Zn29 2.629012 1_545
Zn19 Zn3 2.856404 1_555
Zn20 Zn4 2.567003 1_555
Zn20 Zn24 2.988737 1_655
Zn20 Zn24 2.988737 1_555
Zn21 Zn5 2.581958 1_555
Zn21 Zn25 3.004941 1_555
Zn21 Zn25 3.004941 1_655
Zn22 Zn6 2.574747 1_555
Zn22 Zn26 2.981623 1_655
Zn22 Zn26 2.981623 1_555
Zn23 Zn7 2.566752 1_555
Zn23 Zn3 2.578572 1_555
Zn23 Zn3 2.578572 1_655
Zn23 Zn27 3.013309 1_555
Zn23 Zn27 3.013309 1_655
Zn24 Zn43 2.562170 1_545
Zn24 Zn35 2.648177 1_554
Zn24 Zn4 2.955170 1_555
Zn24 Zn4 2.955170 1_455
Zn25 Zn44 2.562578 1_565
Zn25 Zn34 2.646582 1_556
Zn25 Zn5 2.970091 1_455
Zn25 Zn5 2.970091 1_555
Zn26 Zn33 2.654343 1_555
Zn26 Zn6 2.964899 1_455
Zn26 Zn6 2.964899 1_555
Zn27 Zn42 2.533898 1_555
Zn27 Zn32 2.648254 1_555
Zn27 Zn3 2.656436 1_555
Zn27 Zn7 2.972839 1_555
Zn27 Zn7 2.972839 1_455
Zn28 Zn8 2.634112 1_555
Zn28 Zn41 2.888363 1_555
Zn28 Zn41 2.888363 1_455
Zn28 Zn36 2.911896 1_555
Zn28 Zn36 2.911896 1_455
Zn29 Zn9 2.631750 1_555
Zn29 Zn41 2.886411 1_565
Zn29 Zn41 2.886411 1_465
Zn29 Zn37 2.908051 1_555
Zn29 Zn37 2.908051 1_455
Zn30 Zn38 2.887366 1_455
Zn30 Zn38 2.887366 1_555
Zn30 Zn40 2.902876 1_555
Zn30 Zn40 2.902876 1_455
Zn31 Zn40 2.893061 1_456
Zn31 Zn40 2.893061 1_556
Zn31 Zn39 2.915023 1_555
Zn31 Zn39 2.915023 1_455
Zn32 Zn7 2.589719 1_555
Zn32 Zn7 2.589719 1_455
Zn32 Zn8 2.868170 1_555
Zn33 Zn42 2.562871 1_555
Zn33 Zn6 2.572116 1_455
Zn33 Zn6 2.572116 1_555
Zn33 Zn9 2.865511 1_555
Zn34 Zn43 2.574380 1_555
Zn34 Zn5 2.578249 1_554
Zn34 Zn5 2.578249 1_454
Zn35 Zn4 2.580113 1_456
Zn35 Zn4 2.580113 1_556
Zn35 Zn44 2.582981 1_555
Zn36 Zn8 2.596438 1_555
Zn36 Zn8 2.596438 1_655
Zn36 Zn41 2.710266 1_555
Zn36 Zn7 2.803081 1_555
Zn37 Zn9 2.597475 1_555
Zn37 Zn9 2.597475 1_655
Zn37 Zn41 2.710803 1_565
Zn37 Zn6 2.831108 1_555
Zn38 Zn40 2.718355 1_555
Zn38 Zn5 2.814920 1_554
Zn39 Zn40 2.723273 1_556
Zn39 Zn4 2.802219 1_556
Si0 Zn26 2.540131 1_555
Si0 Zn32 2.563332 1_555
Si0 Zn16 2.577412 1_555
