# generated using pymatgen
data_Cs3ZnI5
_symmetry_space_group_name_H-M   'P 1'
_cell_length_a   10.04898656
_cell_length_b   11.70255186
_cell_length_c   14.92525088
_cell_angle_alpha   90.00000000
_cell_angle_beta   90.00000000
_cell_angle_gamma   90.00000000
_symmetry_Int_Tables_number   1
_chemical_formula_structural   Cs3ZnI5
_chemical_formula_sum   'Cs12 Zn4 I20'
_cell_volume   1755.19138959
_cell_formula_units_Z   4
loop_
 _symmetry_equiv_pos_site_id
 _symmetry_equiv_pos_as_xyz
  1  'x, y, z'
loop_
 _atom_site_type_symbol
 _atom_site_label
 _atom_site_symmetry_multiplicity
 _atom_site_fract_x
 _atom_site_fract_y
 _atom_site_fract_z
 _atom_site_occupancy
  Cs  Cs0  1  0.08141232  0.98495002  0.17179261  1
  Cs  Cs1  1  0.58141232  0.51504998  0.32820739  1
  Cs  Cs2  1  0.91858768  0.48495002  0.82820739  1
  Cs  Cs3  1  0.41858768  0.01504998  0.67179261  1
  Cs  Cs4  1  0.91858768  0.01504998  0.82820739  1
  Cs  Cs5  1  0.41858768  0.48495002  0.67179261  1
  Cs  Cs6  1  0.08141232  0.51504998  0.17179261  1
  Cs  Cs7  1  0.58141232  0.98495002  0.32820739  1
  Cs  Cs8  1  0.08632270  0.75000000  0.45258105  1
  Cs  Cs9  1  0.58632270  0.75000000  0.04741895  1
  Cs  Cs10  1  0.91367730  0.25000000  0.54741895  1
  Cs  Cs11  1  0.41367730  0.25000000  0.95258105  1
  Zn  Zn0  1  0.18732609  0.75000000  0.89256644  1
  Zn  Zn1  1  0.68732609  0.75000000  0.60743356  1
  Zn  Zn2  1  0.81267391  0.25000000  0.10743356  1
  Zn  Zn3  1  0.31267391  0.25000000  0.39256644  1
  I  I0  1  0.13578879  0.75000000  0.72110002  1
  I  I1  1  0.63578879  0.75000000  0.77889998  1
  I  I2  1  0.86421121  0.25000000  0.27889998  1
  I  I3  1  0.36421121  0.25000000  0.22110002  1
  I  I4  1  0.46605829  0.75000000  0.51187053  1
  I  I5  1  0.96605829  0.75000000  0.98812947  1
  I  I6  1  0.53394171  0.25000000  0.48812947  1
  I  I7  1  0.03394171  0.25000000  0.01187053  1
  I  I8  1  0.33139624  0.75000000  0.23776587  1
  I  I9  1  0.83139624  0.75000000  0.26223413  1
  I  I10  1  0.66860376  0.25000000  0.76223413  1
  I  I11  1  0.16860376  0.25000000  0.73776587  1
  I  I12  1  0.31143596  0.93818074  0.93531450  1
  I  I13  1  0.81143596  0.56181926  0.56468550  1
  I  I14  1  0.68856404  0.43818074  0.06468550  1
  I  I15  1  0.18856404  0.06181926  0.43531450  1
  I  I16  1  0.68856404  0.06181926  0.06468550  1
  I  I17  1  0.18856404  0.43818074  0.43531450  1
  I  I18  1  0.31143596  0.56181926  0.93531450  1
  I  I19  1  0.81143596  0.93818074  0.56468550  1
loop_
_geom_bond_atom_site_label_1
_geom_bond_atom_site_label_2
_geom_bond_distance
_geom_bond_site_symmetry_2
Cs0 I8 3.852269 1_555
Cs0 I7 3.942799 1_565
Cs0 I9 3.961585 1_455
Cs0 I5 4.051893 1_454
Cs0 I2 4.115875 1_465
Cs0 I15 4.175902 1_565
Cs0 I12 4.254403 1_554
Cs0 I3 4.270665 1_565
Cs0 I16 4.353078 1_465
Cs1 I9 3.852269 1_555
Cs1 I6 3.942799 1_555
Cs1 I8 3.961585 1_555
Cs1 I4 4.051893 1_555
Cs1 I3 4.115875 1_555
Cs1 I14 4.175902 1_555
Cs1 I13 4.254403 1_555
Cs1 I2 4.270665 1_555
Cs1 I17 4.353078 1_555
Cs2 I10 3.852269 1_555
Cs2 I5 3.942799 1_555
Cs2 I11 3.961585 1_655
Cs2 I7 4.051893 1_656
Cs2 I0 4.115875 1_655
Cs2 I13 4.175902 1_555
Cs2 I14 4.254403 1_556
Cs2 I1 4.270665 1_555
Cs2 I18 4.353078 1_655
Cs3 I11 3.852269 1_555
Cs3 I4 3.942799 1_545
Cs3 I10 3.961585 1_555
Cs3 I6 4.051893 1_555
Cs3 I1 4.115875 1_545
Cs3 I12 4.175902 1_545
Cs3 I15 4.254403 1_555
Cs3 I0 4.270665 1_545
Cs3 I19 4.353078 1_545
Cs4 I10 3.852269 1_555
Cs4 I5 3.942799 1_545
Cs4 I11 3.961585 1_655
Cs4 I7 4.051893 1_656
Cs4 I0 4.115875 1_645
Cs4 I19 4.175902 1_545
Cs4 I16 4.254403 1_556
Cs4 I1 4.270665 1_545
Cs4 I12 4.353078 1_645
Cs5 I11 3.852269 1_555
Cs5 I4 3.942799 1_555
Cs5 I10 3.961585 1_555
Cs5 I6 4.051893 1_555
Cs5 I1 4.115875 1_555
Cs5 I18 4.175902 1_555
Cs5 I17 4.254403 1_555
Cs5 I0 4.270665 1_555
Cs5 I13 4.353078 1_555
Cs6 I8 3.852269 1_555
Cs6 I7 3.942799 1_555
Cs6 I9 3.961585 1_455
Cs6 I5 4.051893 1_454
Cs6 I2 4.115875 1_455
Cs6 I17 4.175902 1_555
Cs6 I18 4.254403 1_554
Cs6 I3 4.270665 1_555
Cs6 I14 4.353078 1_455
Cs7 I9 3.852269 1_555
Cs7 I6 3.942799 1_565
Cs7 I8 3.961585 1_555
Cs7 I4 4.051893 1_555
Cs7 I3 4.115875 1_565
Cs7 I16 4.175902 1_565
Cs7 I19 4.254403 1_555
Cs7 I2 4.270665 1_565
Cs7 I15 4.353078 1_565
Cs8 I17 3.799711 1_555
Cs8 I15 3.799711 1_565
Cs8 I9 3.825404 1_455
Cs8 I19 3.908926 1_455
Cs8 I13 3.908926 1_455
Cs8 I4 3.917218 1_555
Cs8 I0 4.038422 1_555
Cs8 I8 4.042848 1_555
Cs9 I14 3.799711 1_555
Cs9 I16 3.799711 1_565
Cs9 I8 3.825404 1_555
Cs9 I12 3.908926 1_554
Cs9 I18 3.908926 1_554
Cs9 I5 3.917218 1_554
Cs9 I1 4.038422 1_554
Cs9 I9 4.042848 1_555
Cs10 I19 3.799711 1_545
Cs10 I13 3.799711 1_555
Cs10 I11 3.825404 1_655
Cs10 I17 3.908926 1_655
Cs10 I15 3.908926 1_655
Cs10 I6 3.917218 1_555
Cs10 I2 4.038422 1_555
Cs10 I10 4.042848 1_555
Cs11 I12 3.799711 1_545
Cs11 I18 3.799711 1_555
Cs11 I10 3.825404 1_555
Cs11 I14 3.908926 1_556
Cs11 I16 3.908926 1_556
Cs11 I7 3.917218 1_556
Cs11 I3 4.038422 1_556
Cs11 I11 4.042848 1_555
I0 Zn0 2.611057 1_555
I1 Zn1 2.611057 1_555
I2 Zn2 2.611057 1_555
I3 Zn3 2.611057 1_555
I4 Zn1 2.641660 1_555
I5 Zn0 2.641660 1_655
I6 Zn3 2.641660 1_555
I7 Zn2 2.641660 1_455
I12 Zn0 2.610018 1_555
I13 Zn1 2.610018 1_555
I14 Zn2 2.610018 1_555
I15 Zn3 2.610018 1_555
I16 Zn2 2.610018 1_555
I17 Zn3 2.610018 1_555
I18 Zn0 2.610018 1_555
I19 Zn1 2.610018 1_555
