# generated using pymatgen
data_Li7Nd3Zr2O12
_symmetry_space_group_name_H-M   'P 1'
_cell_length_a   11.17787301
_cell_length_b   11.17787301
_cell_length_c   11.17787301
_cell_angle_alpha   108.56600733
_cell_angle_beta   108.56600733
_cell_angle_gamma   111.29722376
_symmetry_Int_Tables_number   1
_chemical_formula_structural   Li7Nd3Zr2O12
_chemical_formula_sum   'Li28 Nd12 Zr8 O48'
_cell_volume   1074.29482838
_cell_formula_units_Z   4
loop_
 _symmetry_equiv_pos_site_id
 _symmetry_equiv_pos_as_xyz
  1  'x, y, z'
loop_
 _atom_site_type_symbol
 _atom_site_label
 _atom_site_symmetry_multiplicity
 _atom_site_fract_x
 _atom_site_fract_y
 _atom_site_fract_z
 _atom_site_occupancy
  Li  Li0  1  0.50000000  0.50000000  0.00000000  1
  Li  Li1  1  0.00000000  0.00000000  0.00000000  1
  Li  Li2  1  0.25000000  0.75000000  0.50000000  1
  Li  Li3  1  0.75000000  0.25000000  0.50000000  1
  Li  Li4  1  0.93273100  0.93273100  0.36546100  1
  Li  Li5  1  0.06726900  0.43273100  0.00000000  1
  Li  Li6  1  0.68273100  0.18273100  0.86546100  1
  Li  Li7  1  0.81726900  0.68273100  0.50000000  1
  Li  Li8  1  0.31726900  0.81726900  0.13453900  1
  Li  Li9  1  0.18273100  0.31726900  0.50000000  1
  Li  Li10  1  0.56726900  0.56726900  0.63453900  1
  Li  Li11  1  0.43273100  0.06726900  0.00000000  1
  Li  Li12  1  0.90882400  0.14947200  0.91771700  1
  Li  Li13  1  0.73175500  0.64947200  0.24064800  1
  Li  Li14  1  0.89947200  0.15882400  0.41771700  1
  Li  Li15  1  0.24110700  0.65882400  0.25935200  1
  Li  Li16  1  0.34117600  0.60052800  0.58228300  1
  Li  Li17  1  0.51824500  0.10052800  0.25935200  1
  Li  Li18  1  0.35052800  0.59117600  0.08228300  1
  Li  Li19  1  0.00889300  0.09117600  0.24064800  1
  Li  Li20  1  0.40882400  0.49110700  0.75935200  1
  Li  Li21  1  0.23175500  0.99110700  0.08228300  1
  Li  Li22  1  0.39947200  0.98175500  0.74064800  1
  Li  Li23  1  0.74110700  0.48175500  0.58228300  1
  Li  Li24  1  0.84117600  0.25889300  0.74064800  1
  Li  Li25  1  0.01824500  0.75889300  0.41771700  1
  Li  Li26  1  0.85052800  0.76824500  0.75935200  1
  Li  Li27  1  0.50889300  0.26824500  0.91771700  1
  Nd  Nd0  1  0.75000000  0.75000000  0.00000000  1
  Nd  Nd1  1  0.25000000  0.25000000  0.00000000  1
  Nd  Nd2  1  0.50000000  0.00000000  0.50000000  1
  Nd  Nd3  1  0.00000000  0.50000000  0.50000000  1
  Nd  Nd4  1  0.37500000  0.75246800  0.87746800  1
  Nd  Nd5  1  0.37500000  0.25246800  0.37746800  1
  Nd  Nd6  1  0.50246800  0.62500000  0.37746800  1
  Nd  Nd7  1  0.74753200  0.12500000  0.12253200  1
  Nd  Nd8  1  0.87500000  0.99753200  0.62253200  1
  Nd  Nd9  1  0.87500000  0.49753200  0.12253200  1
  Nd  Nd10  1  0.00246800  0.62500000  0.87746800  1
  Nd  Nd11  1  0.24753200  0.12500000  0.62253200  1
  Zr  Zr0  1  0.62500000  0.87500000  0.75000000  1
  Zr  Zr1  1  0.62500000  0.37500000  0.25000000  1
  Zr  Zr2  1  0.62500000  0.87500000  0.25000000  1
  Zr  Zr3  1  0.12500000  0.37500000  0.25000000  1
  Zr  Zr4  1  0.12500000  0.37500000  0.75000000  1
  Zr  Zr5  1  0.12500000  0.87500000  0.25000000  1
  Zr  Zr6  1  0.12500000  0.87500000  0.75000000  1
  Zr  Zr7  1  0.62500000  0.37500000  0.75000000  1
  O  O0  1  0.52808600  0.95731400  0.12491000  1
  O  O1  1  0.33240400  0.45731400  0.42922700  1
  O  O2  1  0.70731400  0.77808600  0.62491000  1
  O  O3  1  0.65317700  0.27808600  0.07077300  1
  O  O4  1  0.72191400  0.79268600  0.37509000  1
  O  O5  1  0.91759600  0.29268600  0.07077300  1
  O  O6  1  0.54268600  0.97191400  0.87509000  1
  O  O7  1  0.59682300  0.47191400  0.42922700  1
  O  O8  1  0.02808600  0.90317700  0.57077300  1
  O  O9  1  0.83240400  0.40317700  0.87509000  1
  O  O10  1  0.20731400  0.58240400  0.92922700  1
  O  O11  1  0.15317700  0.08240400  0.37509000  1
  O  O12  1  0.22191400  0.84682300  0.92922700  1
  O  O13  1  0.41759600  0.34682300  0.62491000  1
  O  O14  1  0.04268600  0.16759600  0.57077300  1
  O  O15  1  0.09682300  0.66759600  0.12491000  1
  O  O16  1  0.81330800  0.97292400  0.22761100  1
  O  O17  1  0.24531300  0.47292400  0.15961600  1
  O  O18  1  0.72292400  0.06330800  0.72761100  1
  O  O19  1  0.83569700  0.56330800  0.34038400  1
  O  O20  1  0.43669200  0.77707600  0.27238900  1
  O  O21  1  0.00468700  0.27707600  0.34038400  1
  O  O22  1  0.52707600  0.68669200  0.77238900  1
  O  O23  1  0.41430300  0.18669200  0.15961600  1
  O  O24  1  0.31330800  0.08569700  0.84038400  1
  O  O25  1  0.74531300  0.58569700  0.77238900  1
  O  O26  1  0.22292400  0.49531300  0.65961600  1
  O  O27  1  0.33569700  0.99531300  0.27238900  1
  O  O28  1  0.93669200  0.66430300  0.65961600  1
  O  O29  1  0.50468700  0.16430300  0.72761100  1
  O  O30  1  0.02707600  0.25468700  0.84038400  1
  O  O31  1  0.91430300  0.75468700  0.22761100  1
  O  O32  1  0.53470400  0.69227300  0.04375700  1
  O  O33  1  0.14851600  0.19227300  0.15756900  1
  O  O34  1  0.44227300  0.78470400  0.54375700  1
  O  O35  1  0.74094700  0.28470400  0.34243100  1
  O  O36  1  0.71529600  0.05772700  0.45624300  1
  O  O37  1  0.10148400  0.55772700  0.34243100  1
  O  O38  1  0.80772700  0.96529600  0.95624300  1
  O  O39  1  0.50905300  0.46529600  0.15756900  1
  O  O40  1  0.03470400  0.99094700  0.84243100  1
  O  O41  1  0.64851600  0.49094700  0.95624300  1
  O  O42  1  0.94227300  0.39851600  0.65756900  1
  O  O43  1  0.24094700  0.89851600  0.45624300  1
  O  O44  1  0.21529600  0.75905300  0.65756900  1
  O  O45  1  0.60148400  0.25905300  0.54375700  1
  O  O46  1  0.30772700  0.35148400  0.84243100  1
  O  O47  1  0.00905300  0.85148400  0.04375700  1
loop_
_geom_bond_atom_site_label_1
_geom_bond_atom_site_label_2
_geom_bond_distance
_geom_bond_site_symmetry_2
Li0 O32 1.900775 1_555
Li0 O39 1.900775 1_555
Li0 O41 1.900775 1_554
Li0 O46 1.900775 1_554
Li1 O38 1.900775 1_444
Li1 O33 1.900775 1_555
Li1 O40 1.900775 1_544
Li1 O47 1.900775 1_545
Li2 O34 1.900775 1_555
Li2 O44 1.900775 1_555
Li2 O37 1.900775 1_555
Li2 O43 1.900775 1_555
Li3 O45 1.900775 1_555
Li3 O42 1.900775 1_555
Li3 O36 1.900775 1_555
Li3 O35 1.900775 1_555
Li4 O16 1.981094 1_555
Li4 O31 1.981097 1_555
Li4 O11 2.367332 1_665
Li4 O4 2.367335 1_555
Li4 O14 2.385976 1_665
Li4 O8 2.385978 1_655
Li5 O17 1.981101 1_555
Li5 O30 1.981101 1_554
Li5 O5 2.367338 1_455
Li5 O10 2.367338 1_554
Li5 O15 2.385970 1_555
Li5 O9 2.385970 1_454
Li6 O18 1.981094 1_555
Li6 O29 1.981097 1_555
Li6 O9 2.367332 1_555
Li6 O6 2.367335 1_545
Li6 O5 2.385976 1_556
Li6 O3 2.385978 1_556
Li7 O28 1.981101 1_555
Li7 O19 1.981101 1_555
Li7 O7 2.367332 1_555
Li7 O8 2.367332 1_655
Li7 O2 2.385965 1_555
Li7 O4 2.385965 1_555
Li8 O20 1.981094 1_555
Li8 O27 1.981097 1_555
Li8 O15 2.367332 1_555
Li8 O0 2.367335 1_555
Li8 O10 2.385976 1_554
Li8 O12 2.385978 1_554
Li9 O21 1.981101 1_555
Li9 O26 1.981101 1_555
Li9 O14 2.367338 1_555
Li9 O1 2.367338 1_555
Li9 O13 2.385970 1_555
Li9 O11 2.385970 1_555
Li10 O22 1.981094 1_555
Li10 O25 1.981097 1_555
Li10 O13 2.367332 1_555
Li10 O2 2.367335 1_555
Li10 O1 2.385976 1_555
Li10 O7 2.385978 1_555
Li11 O23 1.981101 1_555
Li11 O24 1.981101 1_554
Li11 O12 2.367332 1_544
Li11 O3 2.367332 1_555
Li11 O0 2.385965 1_545
Li11 O6 2.385965 1_544
Li12 O5 1.879992 1_556
Li12 O30 2.030588 1_655
Li12 O18 2.047478 1_555
Li12 O38 2.210246 1_545
Li13 O4 1.879985 1_555
Li13 O31 2.030588 1_555
Li13 O19 2.047478 1_555
Li13 O39 2.210246 1_555
Li14 O14 1.879992 1_655
Li14 O21 2.030588 1_655
Li14 O16 2.047478 1_545
Li14 O36 2.210246 1_555
Li15 O15 1.879992 1_555
Li15 O20 2.030588 1_555
Li15 O17 2.047478 1_555
Li15 O37 2.210246 1_555
Li16 O1 1.879992 1_555
Li16 O26 2.030588 1_555
Li16 O22 2.047478 1_555
Li16 O34 2.210246 1_555
Li17 O0 1.879985 1_545
Li17 O27 2.030588 1_545
Li17 O23 2.047478 1_555
Li17 O35 2.210246 1_555
Li18 O10 1.879992 1_554
Li18 O17 2.030588 1_555
Li18 O20 2.047478 1_555
Li18 O32 2.210246 1_555
Li19 O11 1.879992 1_555
Li19 O16 2.030588 1_445
Li19 O21 2.047478 1_555
Li19 O33 2.210246 1_555
Li20 O13 1.879992 1_555
Li20 O22 2.030588 1_555
Li20 O26 2.047478 1_555
Li20 O46 2.210246 1_555
Li21 O12 1.879998 1_554
Li21 O23 2.030588 1_565
Li21 O27 2.047478 1_555
Li21 O47 2.210246 1_555
Li22 O6 1.879985 1_555
Li22 O29 2.030588 1_565
Li22 O24 2.047478 1_565
Li22 O44 2.210246 1_555
Li23 O7 1.879998 1_555
Li23 O28 2.030588 1_555
Li23 O25 2.047478 1_555
Li23 O45 2.210246 1_555
Li24 O9 1.879992 1_555
Li24 O18 2.030588 1_555
Li24 O30 2.047478 1_655
Li24 O42 2.210246 1_555
Li25 O8 1.879998 1_555
Li25 O19 2.030588 1_455
Li25 O31 2.047478 1_455
Li25 O43 2.210246 1_555
Li26 O2 1.879985 1_555
Li26 O25 2.030588 1_555
Li26 O28 2.047478 1_555
Li26 O40 2.210246 1_655
Li27 O3 1.879998 1_556
Li27 O24 2.030588 1_555
Li27 O29 2.047478 1_555
Li27 O41 2.210246 1_555
Nd0 O38 2.503915 1_554
Nd0 O32 2.503915 1_555
Nd0 O47 2.503915 1_655
Nd0 O41 2.503915 1_554
Nd0 O31 2.591994 1_555
Nd0 O16 2.591994 1_555
Nd0 O22 2.591994 1_554
Nd0 O25 2.591994 1_554
Nd1 O39 2.503915 1_555
Nd1 O46 2.503915 1_554
Nd1 O33 2.503915 1_555
Nd1 O40 2.503915 1_544
Nd1 O23 2.591994 1_555
Nd1 O17 2.591994 1_555
Nd1 O30 2.591994 1_554
Nd1 O24 2.591994 1_554
Nd2 O34 2.503915 1_545
Nd2 O43 2.503915 1_545
Nd2 O36 2.503915 1_555
Nd2 O45 2.503915 1_555
Nd2 O20 2.591994 1_545
Nd2 O18 2.591994 1_555
Nd2 O29 2.591994 1_555
Nd2 O27 2.591994 1_545
Nd3 O37 2.503915 1_555
Nd3 O44 2.503915 1_555
Nd3 O42 2.503915 1_455
Nd3 O35 2.503915 1_455
Nd3 O26 2.591994 1_555
Nd3 O28 2.591994 1_455
Nd3 O19 2.591994 1_455
Nd3 O21 2.591994 1_555
Nd4 O12 2.434764 1_555
Nd4 O0 2.434775 1_556
Nd4 O10 2.502850 1_555
Nd4 O6 2.502858 1_555
Nd4 O26 2.537552 1_555
Nd4 O22 2.537552 1_555
Nd4 O44 2.578843 1_555
Nd4 O32 2.578843 1_556
Nd5 O1 2.434775 1_555
Nd5 O13 2.434775 1_555
Nd5 O11 2.502850 1_555
Nd5 O7 2.502856 1_555
Nd5 O27 2.537552 1_545
Nd5 O23 2.537552 1_555
Nd5 O45 2.578843 1_555
Nd5 O33 2.578843 1_555
Nd6 O7 2.434764 1_555
Nd6 O2 2.434775 1_555
Nd6 O1 2.502850 1_555
Nd6 O4 2.502858 1_555
Nd6 O20 2.537552 1_555
Nd6 O17 2.537552 1_555
Nd6 O39 2.578843 1_555
Nd6 O34 2.578843 1_555
Nd7 O3 2.434764 1_555
Nd7 O6 2.434775 1_544
Nd7 O5 2.502850 1_555
Nd7 O0 2.502858 1_545
Nd7 O16 2.537552 1_545
Nd7 O21 2.537552 1_655
Nd7 O38 2.578843 1_544
Nd7 O35 2.578843 1_555
Nd8 O8 2.434764 1_655
Nd8 O4 2.434775 1_555
Nd8 O14 2.502850 1_665
Nd8 O2 2.502858 1_555
Nd8 O30 2.537552 1_665
Nd8 O18 2.537552 1_565
Nd8 O40 2.578843 1_655
Nd8 O36 2.578843 1_565
Nd9 O9 2.434775 1_554
Nd9 O5 2.434775 1_555
Nd9 O15 2.502850 1_655
Nd9 O3 2.502856 1_555
Nd9 O31 2.537552 1_555
Nd9 O19 2.537552 1_555
Nd9 O41 2.578843 1_554
Nd9 O37 2.578843 1_655
Nd10 O15 2.434775 1_556
Nd10 O10 2.434775 1_555
Nd10 O9 2.502850 1_455
Nd10 O12 2.502856 1_555
Nd10 O28 2.537552 1_455
Nd10 O25 2.537552 1_455
Nd10 O47 2.578843 1_556
Nd10 O42 2.578843 1_455
Nd11 O11 2.434775 1_555
Nd11 O14 2.434775 1_555
Nd11 O13 2.502850 1_555
Nd11 O8 2.502856 1_545
Nd11 O24 2.537552 1_555
Nd11 O29 2.537552 1_555
Nd11 O46 2.578843 1_555
Nd11 O43 2.578843 1_545
O0 Zr2 2.133988 1_555
O1 Zr3 2.133982 1_555
O2 Zr0 2.133988 1_555
O3 Zr1 2.133985 1_555
O4 Zr2 2.133988 1_555
O5 Zr3 2.133982 1_655
O6 Zr0 2.133988 1_555
O7 Zr1 2.133985 1_555
O8 Zr6 2.133985 1_555
O9 Zr7 2.133982 1_555
O10 Zr4 2.133982 1_555
O11 Zr5 2.133982 1_545
O12 Zr6 2.133985 1_555
O13 Zr7 2.133982 1_555
O14 Zr4 2.133982 1_555
O15 Zr5 2.133982 1_555
O16 Zr2 2.127798 1_555
O17 Zr3 2.127798 1_555
O18 Zr0 2.127798 1_545
O19 Zr1 2.127798 1_555
O20 Zr2 2.127798 1_555
O21 Zr3 2.127798 1_555
O22 Zr0 2.127798 1_555
O23 Zr1 2.127798 1_555
O24 Zr6 2.127798 1_545
O25 Zr7 2.127798 1_555
O26 Zr4 2.127798 1_555
O27 Zr5 2.127798 1_555
O28 Zr6 2.127798 1_655
O29 Zr7 2.127798 1_555
O30 Zr4 2.127798 1_555
O31 Zr5 2.127798 1_655
O32 Zr2 2.127792 1_555
O33 Zr3 2.127792 1_555
O34 Zr0 2.127792 1_555
O35 Zr1 2.127792 1_555
O36 Zr2 2.127792 1_545
O37 Zr3 2.127792 1_555
O38 Zr0 2.127792 1_555
O39 Zr1 2.127792 1_555
O40 Zr6 2.127792 1_555
O41 Zr7 2.127792 1_555
O42 Zr4 2.127792 1_655
O43 Zr5 2.127792 1_555
O44 Zr6 2.127792 1_555
O45 Zr7 2.127792 1_555
O46 Zr4 2.127792 1_555
O47 Zr5 2.127792 1_555
