# generated using pymatgen
data_ErFe3(BO3)4
_symmetry_space_group_name_H-M   'P 1'
_cell_length_a   6.10950075
_cell_length_b   6.10950075
_cell_length_c   6.10950091
_cell_angle_alpha   103.82173634
_cell_angle_beta   103.82173634
_cell_angle_gamma   103.82173362
_symmetry_Int_Tables_number   1
_chemical_formula_structural   ErFe3(BO3)4
_chemical_formula_sum   'Er1 Fe3 B4 O12'
_cell_volume   204.16015039
_cell_formula_units_Z   1
loop_
 _symmetry_equiv_pos_site_id
 _symmetry_equiv_pos_as_xyz
  1  'x, y, z'
loop_
 _atom_site_type_symbol
 _atom_site_label
 _atom_site_symmetry_multiplicity
 _atom_site_fract_x
 _atom_site_fract_y
 _atom_site_fract_z
 _atom_site_occupancy
  Er  Er0  1  0.00000000  0.00000000  0.00000000  1
  Fe  Fe0  1  0.55006700  0.00000000  0.44993300  1
  Fe  Fe1  1  0.44993300  0.55006700  0.00000000  1
  Fe  Fe2  1  0.00000000  0.44993300  0.55006700  1
  B  B0  1  0.50000000  0.50000000  0.50000000  1
  B  B1  1  0.94851300  0.50000000  0.05148700  1
  B  B2  1  0.05148700  0.94851300  0.50000000  1
  B  B3  1  0.50000000  0.05148700  0.94851300  1
  O  O0  1  0.35618600  0.50000000  0.64381400  1
  O  O1  1  0.64381400  0.35618600  0.50000000  1
  O  O2  1  0.50000000  0.64381400  0.35618600  1
  O  O3  1  0.09221200  0.50000000  0.90778800  1
  O  O4  1  0.90778800  0.09221200  0.50000000  1
  O  O5  1  0.50000000  0.90778800  0.09221200  1
  O  O6  1  0.96960400  0.36418600  0.20288400  1
  O  O7  1  0.20288400  0.96960400  0.36418600  1
  O  O8  1  0.36418600  0.20288400  0.96960400  1
  O  O9  1  0.79711600  0.63581400  0.03039600  1
  O  O10  1  0.63581400  0.03039600  0.79711600  1
  O  O11  1  0.03039600  0.79711600  0.63581400  1
loop_
_geom_bond_atom_site_label_1
_geom_bond_atom_site_label_2
_geom_bond_distance
_geom_bond_site_symmetry_2
Er0 O6 2.347585 1_455
Er0 O10 2.347585 1_454
Er0 O11 2.347585 1_544
Er0 O7 2.347585 1_545
Er0 O9 2.347585 1_445
Er0 O8 2.347585 1_554
Fe0 O7 2.010580 1_545
Fe0 O10 2.010580 1_555
Fe0 O2 2.039565 1_545
Fe0 O1 2.039565 1_555
Fe0 O4 2.048731 1_555
Fe0 O5 2.048731 1_545
Fe1 O8 2.010580 1_554
Fe1 O9 2.010580 1_555
Fe1 O2 2.039565 1_555
Fe1 O0 2.039565 1_554
Fe1 O5 2.048731 1_555
Fe1 O3 2.048731 1_554
Fe2 O11 2.010580 1_555
Fe2 O6 2.010580 1_455
Fe2 O0 2.039565 1_555
Fe2 O1 2.039565 1_455
Fe2 O4 2.048731 1_455
Fe2 O3 2.048731 1_555
B0 O1 1.383058 1_555
B0 O2 1.383058 1_555
B0 O0 1.383058 1_555
B1 O3 1.381952 1_654
B1 O9 1.386181 1_555
B1 O6 1.386181 1_555
B2 O4 1.381952 1_465
B2 O11 1.386181 1_555
B2 O7 1.386181 1_555
B3 O5 1.381952 1_546
B3 O8 1.386181 1_555
B3 O10 1.386181 1_555
