# generated using pymatgen
data_CeMgCu
_symmetry_space_group_name_H-M   'P 1'
_cell_length_a   7.67850304
_cell_length_b   7.67850304
_cell_length_c   4.16673900
_cell_angle_alpha   90.00000000
_cell_angle_beta   90.00000000
_cell_angle_gamma   120.00000899
_symmetry_Int_Tables_number   1
_chemical_formula_structural   CeMgCu
_chemical_formula_sum   'Ce3 Mg3 Cu3'
_cell_volume   212.75511566
_cell_formula_units_Z   3
loop_
 _symmetry_equiv_pos_site_id
 _symmetry_equiv_pos_as_xyz
  1  'x, y, z'
loop_
 _atom_site_type_symbol
 _atom_site_label
 _atom_site_symmetry_multiplicity
 _atom_site_fract_x
 _atom_site_fract_y
 _atom_site_fract_z
 _atom_site_occupancy
  Ce  Ce0  1  0.57923800  0.00000000  0.00000000  1
  Ce  Ce1  1  0.00000000  0.57923800  0.00000000  1
  Ce  Ce2  1  0.42076200  0.42076200  0.00000000  1
  Mg  Mg0  1  0.23834100  0.00000000  0.50000000  1
  Mg  Mg1  1  0.00000000  0.23834100  0.50000000  1
  Mg  Mg2  1  0.76165900  0.76165900  0.50000000  1
  Cu  Cu0  1  0.33333300  0.66666700  0.50000000  1
  Cu  Cu1  1  0.66666700  0.33333300  0.50000000  1
  Cu  Cu2  1  0.00000000  0.00000000  0.00000000  1
loop_
_geom_bond_atom_site_label_1
_geom_bond_atom_site_label_2
_geom_bond_distance
_geom_bond_site_symmetry_2
Ce0 Cu1 3.102239 1_555
Ce0 Cu1 3.102239 1_554
Ce0 Cu0 3.102240 1_544
Ce0 Cu0 3.102240 1_545
Ce0 Cu2 3.230822 1_655
Ce0 Mg0 3.345467 1_555
Ce0 Mg0 3.345467 1_554
Ce0 Mg1 3.495022 1_654
Ce0 Mg1 3.495022 1_655
Ce0 Mg2 3.495022 1_545
Ce0 Mg2 3.495022 1_544
Ce1 Cu0 3.102239 1_555
Ce1 Cu0 3.102239 1_554
Ce1 Cu1 3.102240 1_455
Ce1 Cu1 3.102240 1_454
Ce1 Cu2 3.230822 1_565
Ce1 Mg1 3.345467 1_555
Ce1 Mg1 3.345467 1_554
Ce1 Mg0 3.495022 1_564
Ce1 Mg0 3.495022 1_565
Ce1 Mg2 3.495022 1_454
Ce1 Mg2 3.495022 1_455
Ce2 Cu0 3.102244 1_554
Ce2 Cu1 3.102244 1_554
Ce2 Cu1 3.102244 1_555
Ce2 Cu0 3.102244 1_555
Ce2 Cu2 3.230822 1_555
Ce2 Mg2 3.345466 1_554
Ce2 Mg2 3.345466 1_555
Ce2 Mg1 3.495022 1_554
Ce2 Mg0 3.495022 1_554
Ce2 Mg0 3.495022 1_555
Ce2 Mg1 3.495022 1_555
Cu0 Mg0 2.991645 1_565
Cu0 Mg1 2.991650 1_555
Cu0 Mg2 2.991652 1_555
Cu1 Mg1 2.991645 1_655
Cu1 Mg0 2.991650 1_555
Cu1 Mg2 2.991652 1_555
Cu2 Mg2 2.773031 1_444
Cu2 Mg2 2.773031 1_445
Cu2 Mg0 2.773031 1_554
Cu2 Mg1 2.773031 1_554
Cu2 Mg0 2.773031 1_555
Cu2 Mg1 2.773031 1_555
