# generated using pymatgen
data_Co2BP3(H3O7)2
_symmetry_space_group_name_H-M   'P 1'
_cell_length_a   7.23210400
_cell_length_b   8.89743000
_cell_length_c   16.47626200
_cell_angle_alpha   90.00000000
_cell_angle_beta   90.00000000
_cell_angle_gamma   90.00000000
_symmetry_Int_Tables_number   1
_chemical_formula_structural   Co2BP3(H3O7)2
_chemical_formula_sum   'Co8 B4 P12 H24 O56'
_cell_volume   1060.20032264
_cell_formula_units_Z   4
loop_
 _symmetry_equiv_pos_site_id
 _symmetry_equiv_pos_as_xyz
  1  'x, y, z'
loop_
 _atom_site_type_symbol
 _atom_site_label
 _atom_site_symmetry_multiplicity
 _atom_site_fract_x
 _atom_site_fract_y
 _atom_site_fract_z
 _atom_site_occupancy
  Co  Co0  1  0.17507600  0.16714700  0.69494000  1
  Co  Co1  1  0.32492400  0.83285300  0.19494000  1
  Co  Co2  1  0.82492400  0.66714700  0.80506000  1
  Co  Co3  1  0.67507600  0.33285300  0.30506000  1
  Co  Co4  1  0.31726100  0.19578500  0.20767200  1
  Co  Co5  1  0.18273900  0.80421500  0.70767200  1
  Co  Co6  1  0.68273900  0.69578500  0.29232800  1
  Co  Co7  1  0.81726100  0.30421500  0.79232800  1
  B  B0  1  0.15320100  0.41615800  0.08341000  1
  B  B1  1  0.34679900  0.58384200  0.58341000  1
  B  B2  1  0.84679900  0.91615800  0.41659000  1
  B  B3  1  0.65320100  0.08384200  0.91659000  1
  P  P0  1  0.49305300  0.00664000  0.35945300  1
  P  P1  1  0.00694700  0.99336000  0.85945300  1
  P  P2  1  0.50694700  0.50664000  0.14054700  1
  P  P3  1  0.99305300  0.49336000  0.64054700  1
  P  P4  1  0.63111700  0.03054900  0.08297200  1
  P  P5  1  0.86888300  0.96945100  0.58297200  1
  P  P6  1  0.36888300  0.53054900  0.41702800  1
  P  P7  1  0.13111700  0.46945100  0.91702800  1
  P  P8  1  0.04671000  0.49500400  0.23608100  1
  P  P9  1  0.45329000  0.50499600  0.73608100  1
  P  P10  1  0.95329000  0.99500400  0.26391900  1
  P  P11  1  0.54671000  0.00499600  0.76391900  1
  H  H0  1  0.29612300  0.12533900  0.53946400  1
  H  H1  1  0.20387700  0.87466100  0.03946400  1
  H  H2  1  0.70387700  0.62533900  0.96053600  1
  H  H3  1  0.79612300  0.37466100  0.46053600  1
  H  H4  1  0.13720800  0.18834400  0.06497700  1
  H  H5  1  0.36279200  0.81165600  0.56497700  1
  H  H6  1  0.86279200  0.68834400  0.43502300  1
  H  H7  1  0.63720800  0.31165600  0.93502300  1
  H  H8  1  0.21357700  0.34550000  0.37089500  1
  H  H9  1  0.28642300  0.65450000  0.87089500  1
  H  H10  1  0.78642300  0.84550000  0.12910500  1
  H  H11  1  0.71357700  0.15450000  0.62910500  1
  H  H12  1  0.78659700  0.47922000  0.09348200  1
  H  H13  1  0.71340300  0.52078000  0.59348200  1
  H  H14  1  0.21340300  0.97922000  0.40651800  1
  H  H15  1  0.28659700  0.02078000  0.90651800  1
  H  H16  1  0.29261800  0.29630600  0.56182400  1
  H  H17  1  0.20738200  0.70369400  0.06182400  1
  H  H18  1  0.70738200  0.79630600  0.93817600  1
  H  H19  1  0.79261800  0.20369400  0.43817600  1
  H  H20  1  0.19269000  0.65303600  0.32475400  1
  H  H21  1  0.30731000  0.34696400  0.82475400  1
  H  H22  1  0.80731000  0.15303600  0.17524600  1
  H  H23  1  0.69269000  0.84696400  0.67524600  1
  O  O0  1  0.30738500  0.19559500  0.58468600  1
  O  O1  1  0.19261500  0.80440500  0.08468600  1
  O  O2  1  0.69261500  0.69559500  0.91531400  1
  O  O3  1  0.80738500  0.30440500  0.41531400  1
  O  O4  1  0.47489300  0.15603400  0.31354500  1
  O  O5  1  0.02510700  0.84396600  0.81354500  1
  O  O6  1  0.52510700  0.65603400  0.18645500  1
  O  O7  1  0.97489300  0.34396600  0.68645500  1
  O  O8  1  0.32457100  0.50956000  0.08989900  1
  O  O9  1  0.17542900  0.49043900  0.58989900  1
  O  O10  1  0.67542900  0.00956000  0.41010100  1
  O  O11  1  0.82457100  0.99044000  0.91010100  1
  O  O12  1  0.27413200  0.37058200  0.42415500  1
  O  O13  1  0.22586800  0.62941800  0.92415500  1
  O  O14  1  0.72586800  0.87058200  0.07584500  1
  O  O15  1  0.77413200  0.12941800  0.57584500  1
  O  O16  1  0.01304900  0.47518300  0.14141200  1
  O  O17  1  0.48695100  0.52481700  0.64141200  1
  O  O18  1  0.98695100  0.97518300  0.35858800  1
  O  O19  1  0.51304900  0.02481700  0.85858800  1
  O  O20  1  0.52155400  0.36871700  0.19579900  1
  O  O21  1  0.97844600  0.63128300  0.69579900  1
  O  O22  1  0.47844600  0.86871700  0.30420100  1
  O  O23  1  0.02155400  0.13128300  0.80420100  1
  O  O24  1  0.06273800  0.43638900  0.00475000  1
  O  O25  1  0.43726200  0.56361100  0.50475000  1
  O  O26  1  0.93726200  0.93638900  0.49525000  1
  O  O27  1  0.56273800  0.06361100  0.99525000  1
  O  O28  1  0.20208200  0.26010700  0.09905400  1
  O  O29  1  0.29791800  0.73989300  0.59905400  1
  O  O30  1  0.79791800  0.76010700  0.40094600  1
  O  O31  1  0.70208200  0.23989300  0.90094600  1
  O  O32  1  0.15184600  0.64583900  0.24904900  1
  O  O33  1  0.34815400  0.35416100  0.74904900  1
  O  O34  1  0.84815400  0.14583900  0.25095100  1
  O  O35  1  0.65184600  0.85416100  0.75095100  1
  O  O36  1  0.46468600  0.02269300  0.14028500  1
  O  O37  1  0.03531400  0.97730700  0.64028500  1
  O  O38  1  0.53531400  0.52269300  0.35971500  1
  O  O39  1  0.96468600  0.47730700  0.85971500  1
  O  O40  1  0.15501000  0.36102100  0.26930100  1
  O  O41  1  0.34499000  0.63897900  0.76930100  1
  O  O42  1  0.84499000  0.86102100  0.23069900  1
  O  O43  1  0.65501000  0.13897900  0.73069900  1
  O  O44  1  0.14936600  0.00707100  0.22657200  1
  O  O45  1  0.35063400  0.99292900  0.72657200  1
  O  O46  1  0.85063400  0.50707100  0.27342800  1
  O  O47  1  0.64936600  0.49292900  0.77342800  1
  O  O48  1  0.22594500  0.65050100  0.39251500  1
  O  O49  1  0.27405500  0.34949900  0.89251500  1
  O  O50  1  0.77405500  0.15050100  0.10748500  1
  O  O51  1  0.72594500  0.84949900  0.60748500  1
  O  O52  1  0.66048100  0.49786500  0.07100300  1
  O  O53  1  0.83951900  0.50213500  0.57100300  1
  O  O54  1  0.33951900  0.99786500  0.42899700  1
  O  O55  1  0.16048100  0.00213500  0.92899700  1
loop_
_geom_bond_atom_site_label_1
_geom_bond_atom_site_label_2
_geom_bond_distance
_geom_bond_site_symmetry_2
Co0 O0 2.068722 1_555
Co0 O45 2.070370 1_545
Co0 O23 2.139001 1_555
Co0 O7 2.142563 1_455
Co0 O37 2.164625 1_545
Co0 O33 2.265018 1_555
Co1 O1 2.068722 1_555
Co1 O44 2.070370 1_565
Co1 O22 2.139001 1_555
Co1 O6 2.142563 1_555
Co1 O36 2.164625 1_565
Co1 O32 2.265018 1_555
Co2 O2 2.068722 1_555
Co2 O47 2.070370 1_555
Co2 O21 2.139001 1_555
Co2 O5 2.142563 1_655
Co2 O39 2.164625 1_555
Co2 O35 2.265018 1_555
Co3 O3 2.068722 1_555
Co3 O46 2.070370 1_555
Co3 O20 2.139001 1_555
Co3 O4 2.142563 1_555
Co3 O38 2.164625 1_555
Co3 O34 2.265018 1_555
Co4 O28 2.055269 1_555
Co4 O44 2.095378 1_555
Co4 O4 2.113674 1_555
Co4 O40 2.137613 1_555
Co4 O20 2.142108 1_555
Co4 O36 2.177459 1_555
Co5 O29 2.055269 1_555
Co5 O45 2.095378 1_555
Co5 O5 2.113674 1_555
Co5 O41 2.137613 1_555
Co5 O21 2.142108 1_455
Co5 O37 2.177459 1_555
Co6 O30 2.055269 1_555
Co6 O46 2.095378 1_555
Co6 O6 2.113674 1_555
Co6 O42 2.137613 1_555
Co6 O22 2.142108 1_555
Co6 O38 2.177459 1_555
Co7 O31 2.055269 1_555
Co7 O47 2.095378 1_555
Co7 O7 2.113674 1_555
Co7 O43 2.137613 1_555
Co7 O23 2.142108 1_655
Co7 O39 2.177459 1_555
B0 O28 1.455751 1_555
B0 O24 1.462909 1_555
B0 O16 1.488777 1_555
B0 O8 1.496022 1_555
B1 O29 1.455751 1_555
B1 O25 1.462909 1_555
B1 O17 1.488777 1_555
B1 O9 1.496027 1_555
B2 O30 1.455751 1_555
B2 O26 1.462909 1_555
B2 O18 1.488777 1_555
B2 O10 1.496022 1_565
B3 O31 1.455751 1_555
B3 O27 1.462909 1_555
B3 O19 1.488777 1_555
B3 O11 1.496022 1_545
H0 O0 0.975981 1_555
H1 O1 0.975981 1_555
H2 O2 0.975981 1_555
H3 O3 0.975981 1_555
H4 O28 0.971110 1_555
H5 O29 0.971110 1_555
H6 O30 0.971110 1_555
H7 O31 0.971110 1_555
H8 O12 1.005806 1_555
H8 O40 1.732161 1_555
H9 O13 1.005806 1_555
H9 O41 1.732161 1_555
H10 O14 1.005806 1_555
H10 O42 1.732161 1_555
H11 O15 1.005806 1_555
H11 O43 1.732161 1_555
H12 O52 0.998294 1_555
H13 O53 0.998294 1_555
H14 O54 0.998294 1_555
H15 O55 0.998294 1_555
H16 O0 0.977872 1_555
H17 O1 0.977872 1_555
H18 O2 0.977872 1_555
H19 O3 0.977872 1_555
H20 O48 1.142281 1_555
H20 O32 1.283433 1_555
H21 O49 1.142281 1_555
H21 O33 1.283433 1_555
H22 O50 1.142281 1_555
H22 O34 1.283433 1_555
H23 O51 1.142281 1_555
H23 O35 1.283433 1_555
O4 P0 1.534995 1_555
O5 P1 1.534995 1_555
O6 P2 1.534995 1_555
O7 P3 1.534995 1_555
O8 P2 1.560996 1_555
O9 P3 1.560996 1_455
O10 P0 1.560996 1_555
O11 P1 1.560996 1_655
O12 P6 1.584022 1_555
O13 P7 1.584022 1_555
O14 P4 1.584022 1_565
O15 P5 1.584022 1_545
O16 P8 1.588494 1_555
O17 P9 1.588494 1_555
O18 P10 1.588494 1_555
O19 P11 1.588494 1_555
O20 P2 1.531605 1_555
O21 P3 1.531605 1_555
O22 P0 1.531605 1_565
O23 P1 1.531605 1_545
O24 P7 1.555657 1_554
O25 P6 1.555657 1_555
O26 P5 1.555657 1_555
O27 P4 1.555657 1_556
O32 P8 1.557200 1_555
O33 P9 1.557200 1_555
O34 P10 1.557200 1_545
O35 P11 1.557200 1_565
O36 P4 1.531457 1_555
O37 P5 1.531457 1_455
O38 P6 1.531457 1_555
O39 P7 1.531457 1_655
O40 P8 1.527794 1_555
O41 P9 1.527794 1_555
O42 P10 1.527794 1_555
O43 P11 1.527794 1_555
O44 P10 1.549520 1_445
O45 P11 1.549520 1_565
O46 P8 1.549520 1_655
O47 P9 1.549520 1_555
O48 P6 1.539740 1_555
O49 P7 1.539740 1_555
O50 P4 1.539740 1_555
O51 P5 1.539740 1_555
O52 P2 1.597480 1_555
O53 P3 1.597480 1_555
O54 P0 1.597480 1_565
O55 P1 1.597480 1_545
