# generated using pymatgen
data_KNdZr4O12
_symmetry_space_group_name_H-M   'P 1'
_cell_length_a   5.84986352
_cell_length_b   5.84986352
_cell_length_c   8.36001274
_cell_angle_alpha   90.00000000
_cell_angle_beta   90.00000000
_cell_angle_gamma   90.84554077
_symmetry_Int_Tables_number   1
_chemical_formula_structural   KNdZr4O12
_chemical_formula_sum   'K1 Nd1 Zr4 O12'
_cell_volume   286.05603518
_cell_formula_units_Z   1
loop_
 _symmetry_equiv_pos_site_id
 _symmetry_equiv_pos_as_xyz
  1  'x, y, z'
loop_
 _atom_site_type_symbol
 _atom_site_label
 _atom_site_symmetry_multiplicity
 _atom_site_fract_x
 _atom_site_fract_y
 _atom_site_fract_z
 _atom_site_occupancy
  K  K0  1  0.97811825  0.02188175  -0.00000000  1
  Nd  Nd0  1  0.52503147  0.47496853  0.50000000  1
  Zr  Zr0  1  0.49044796  0.98798889  0.24406262  1
  Zr  Zr1  1  0.49044796  0.98798889  0.75593738  1
  Zr  Zr2  1  0.01201111  0.50955204  0.75593738  1
  Zr  Zr3  1  0.01201111  0.50955204  0.24406262  1
  O  O0  1  0.22905552  0.22890620  0.26943580  1
  O  O1  1  0.77109380  0.77094448  0.26943580  1
  O  O2  1  0.77109380  0.77094448  0.73056420  1
  O  O3  1  0.22905552  0.22890620  0.73056420  1
  O  O4  1  0.29769634  0.70230366  0.31167217  1
  O  O5  1  0.71822710  0.28177290  0.25246464  1
  O  O6  1  0.71822710  0.28177290  0.74753536  1
  O  O7  1  0.29769634  0.70230366  0.68832783  1
  O  O8  1  0.46977547  0.97451605  0.00000000  1
  O  O9  1  0.51574597  0.06521878  0.50000000  1
  O  O10  1  0.02548395  0.53022453  -0.00000000  1
  O  O11  1  0.93478122  0.48425403  0.50000000  1
loop_
_geom_bond_atom_site_label_1
_geom_bond_atom_site_label_2
_geom_bond_distance
_geom_bond_site_symmetry_2
K0 O10 2.893511 1_645
K0 O8 2.893511 1_645
K0 O0 2.939860 1_655
K0 O3 2.939860 1_654
K0 O1 2.939860 1_545
K0 O2 2.939860 1_544
K0 O8 2.982543 1_545
K0 O10 2.982543 1_655
K0 O5 3.024182 1_555
K0 O6 3.024182 1_554
Nd0 O11 2.396794 1_555
Nd0 O9 2.396794 1_555
Nd0 O7 2.463364 1_555
Nd0 O4 2.463364 1_555
Nd0 O5 2.621959 1_555
Nd0 O6 2.621959 1_555
Nd0 O1 2.951533 1_555
Nd0 O2 2.951533 1_555
Nd0 O3 2.951533 1_555
Nd0 O0 2.951533 1_555
O0 Zr3 2.100932 1_555
O0 Zr0 2.105468 1_545
O1 Zr0 2.100932 1_555
O1 Zr3 2.105468 1_655
O2 Zr1 2.100932 1_555
O2 Zr2 2.105468 1_655
O3 Zr2 2.100932 1_555
O3 Zr1 2.105468 1_545
O4 Zr3 2.080443 1_555
O4 Zr0 2.080443 1_555
O5 Zr0 2.160189 1_545
O5 Zr3 2.160189 1_655
O6 Zr1 2.160189 1_545
O6 Zr2 2.160189 1_655
O7 Zr2 2.080443 1_555
O7 Zr1 2.080443 1_555
O8 Zr1 2.045397 1_554
O8 Zr0 2.045397 1_555
O9 Zr1 2.191368 1_545
O9 Zr0 2.191368 1_545
O10 Zr3 2.045397 1_555
O10 Zr2 2.045397 1_554
O11 Zr2 2.191368 1_655
O11 Zr3 2.191368 1_655
