# generated using pymatgen
data_Mg2TaVO6
_symmetry_space_group_name_H-M   'P 1'
_cell_length_a   7.55511600
_cell_length_b   5.22222800
_cell_length_c   5.44498474
_cell_angle_alpha   89.69580922
_cell_angle_beta   90.00000000
_cell_angle_gamma   90.00000000
_symmetry_Int_Tables_number   1
_chemical_formula_structural   Mg2TaVO6
_chemical_formula_sum   'Mg4 Ta2 V2 O12'
_cell_volume   214.82633133
_cell_formula_units_Z   2
loop_
 _symmetry_equiv_pos_site_id
 _symmetry_equiv_pos_as_xyz
  1  'x, y, z'
loop_
 _atom_site_type_symbol
 _atom_site_label
 _atom_site_symmetry_multiplicity
 _atom_site_fract_x
 _atom_site_fract_y
 _atom_site_fract_z
 _atom_site_occupancy
  Mg  Mg0  1  0.75000000  0.99577900  0.04197500  1
  Mg  Mg1  1  0.75000000  0.51678400  0.56509200  1
  Mg  Mg2  1  0.25000000  0.48321600  0.43490800  1
  Mg  Mg3  1  0.25000000  0.00422100  0.95802500  1
  Ta  Ta0  1  0.00000000  0.00000000  0.50000000  1
  Ta  Ta1  1  0.50000000  0.00000000  0.50000000  1
  V  V0  1  0.00000000  0.50000000  0.00000000  1
  V  V1  1  0.50000000  0.50000000  0.00000000  1
  O  O0  1  0.43071300  0.17158100  0.18868400  1
  O  O1  1  0.56922200  0.68683000  0.32113100  1
  O  O2  1  0.56928700  0.82841900  0.81131600  1
  O  O3  1  0.06922200  0.31317000  0.67886900  1
  O  O4  1  0.25000000  0.86424000  0.55679300  1
  O  O5  1  0.43077800  0.31317000  0.67886900  1
  O  O6  1  0.93077800  0.68683000  0.32113100  1
  O  O7  1  0.06928700  0.17158100  0.18868400  1
  O  O8  1  0.75000000  0.38238900  0.94186800  1
  O  O9  1  0.93071300  0.82841900  0.81131600  1
  O  O10  1  0.25000000  0.61761100  0.05813200  1
  O  O11  1  0.75000000  0.13576000  0.44320700  1
loop_
_geom_bond_atom_site_label_1
_geom_bond_atom_site_label_2
_geom_bond_distance
_geom_bond_site_symmetry_2
Mg0 O2 2.053522 1_554
Mg0 O9 2.053522 1_554
Mg0 O8 2.088456 1_564
Mg0 O11 2.307436 1_565
Mg0 O6 2.598621 1_555
Mg0 O1 2.598621 1_555
Mg0 O0 2.703282 1_565
Mg0 O7 2.703282 1_665
Mg1 O1 2.099050 1_555
Mg1 O6 2.099050 1_555
Mg1 O11 2.100893 1_555
Mg1 O8 2.164742 1_555
Mg1 O2 2.516584 1_555
Mg1 O9 2.516584 1_555
Mg1 O3 2.706295 1_655
Mg1 O5 2.706295 1_555
Mg2 O5 2.099050 1_555
Mg2 O3 2.099050 1_555
Mg2 O4 2.100893 1_555
Mg2 O10 2.164742 1_555
Mg2 O7 2.516584 1_555
Mg2 O0 2.516584 1_555
Mg2 O1 2.706295 1_555
Mg2 O6 2.706295 1_455
Mg3 O7 2.053522 1_556
Mg3 O0 2.053522 1_556
Mg3 O10 2.088456 1_546
Mg3 O4 2.307436 1_545
Mg3 O3 2.598621 1_555
Mg3 O5 2.598621 1_555
Mg3 O2 2.703282 1_545
Mg3 O9 2.703282 1_445
O0 Ta1 1.983475 1_555
O0 V1 2.062116 1_555
O1 Ta1 1.978297 1_565
O1 V1 2.073883 1_555
O2 Ta1 1.983475 1_565
O2 V1 2.062116 1_556
O3 Ta0 1.978297 1_555
O3 V0 2.073883 1_556
O4 Ta0 2.040447 1_565
O4 Ta1 2.040447 1_565
O5 Ta1 1.978297 1_555
O5 V1 2.073883 1_556
O6 Ta0 1.978297 1_665
O6 V0 2.073883 1_655
O7 Ta0 1.983475 1_555
O7 V0 2.062116 1_555
O8 V1 2.011709 1_556
O8 V0 2.011709 1_656
O9 Ta0 1.983475 1_665
O9 V0 2.062116 1_656
O10 V1 2.011709 1_555
O10 V0 2.011709 1_555
O11 Ta1 2.040447 1_555
O11 Ta0 2.040447 1_655
