# generated using pymatgen
data_Ca2W2O5
_symmetry_space_group_name_H-M   'P 1'
_cell_length_a   3.97670900
_cell_length_b   5.49225300
_cell_length_c   10.98454200
_cell_angle_alpha   90.00000000
_cell_angle_beta   90.00000000
_cell_angle_gamma   90.00000000
_symmetry_Int_Tables_number   1
_chemical_formula_structural   Ca2W2O5
_chemical_formula_sum   'Ca4 W4 O10'
_cell_volume   239.91439169
_cell_formula_units_Z   2
loop_
 _symmetry_equiv_pos_site_id
 _symmetry_equiv_pos_as_xyz
  1  'x, y, z'
loop_
 _atom_site_type_symbol
 _atom_site_label
 _atom_site_symmetry_multiplicity
 _atom_site_fract_x
 _atom_site_fract_y
 _atom_site_fract_z
 _atom_site_occupancy
  Ca  Ca0  1  0.50000000  0.65302300  0.34654900  1
  Ca  Ca1  1  0.50000000  0.34697700  0.65345100  1
  Ca  Ca2  1  0.50000000  0.15302300  0.15345100  1
  Ca  Ca3  1  0.50000000  0.84697700  0.84654900  1
  W  W0  1  0.00000000  0.66914700  0.09666600  1
  W  W1  1  0.00000000  0.33085300  0.90333400  1
  W  W2  1  0.00000000  0.83085300  0.59666600  1
  W  W3  1  0.00000000  0.16914700  0.40333400  1
  O  O0  1  0.00000000  0.00000000  0.00000000  1
  O  O1  1  0.00000000  0.59919100  0.77942300  1
  O  O2  1  0.00000000  0.09919100  0.72057700  1
  O  O3  1  0.00000000  0.90080900  0.27942300  1
  O  O4  1  0.50000000  0.77800400  0.61659700  1
  O  O5  1  0.50000000  0.22199600  0.38340300  1
  O  O6  1  0.00000000  0.40080900  0.22057700  1
  O  O7  1  0.50000000  0.72199600  0.11659700  1
  O  O8  1  0.00000000  0.50000000  0.50000000  1
  O  O9  1  0.50000000  0.27800400  0.88340300  1
loop_
_geom_bond_atom_site_label_1
_geom_bond_atom_site_label_2
_geom_bond_distance
_geom_bond_site_symmetry_2
Ca0 O5 2.401674 1_555
Ca0 O3 2.519781 1_555
Ca0 O3 2.519781 1_655
Ca0 O7 2.554165 1_555
Ca0 O8 2.738815 1_655
Ca0 O8 2.738815 1_555
Ca0 O6 2.790546 1_555
Ca0 O6 2.790546 1_655
Ca0 O4 3.044739 1_555
Ca1 O4 2.401674 1_555
Ca1 O2 2.519781 1_655
Ca1 O2 2.519781 1_555
Ca1 O9 2.554165 1_555
Ca1 O8 2.738815 1_655
Ca1 O8 2.738815 1_555
Ca1 O1 2.790546 1_555
Ca1 O1 2.790546 1_655
Ca1 O5 3.044739 1_555
Ca2 O7 2.401674 1_545
Ca2 O6 2.519781 1_555
Ca2 O6 2.519781 1_655
Ca2 O5 2.554165 1_555
Ca2 O0 2.738815 1_555
Ca2 O0 2.738815 1_655
Ca2 O3 2.790546 1_545
Ca2 O3 2.790546 1_645
Ca2 O9 3.044739 1_554
Ca3 O9 2.401674 1_565
Ca3 O1 2.519781 1_555
Ca3 O1 2.519781 1_655
Ca3 O4 2.554165 1_555
Ca3 O0 2.738815 1_666
Ca3 O0 2.738815 1_566
Ca3 O2 2.790546 1_565
Ca3 O2 2.790546 1_665
Ca3 O7 3.044739 1_556
O0 W0 2.104624 1_545
O0 W1 2.104624 1_554
O1 W1 2.006150 1_555
O1 W2 2.376748 1_555
O2 W2 2.006150 1_545
O2 W1 2.376748 1_555
O3 W3 2.006150 1_565
O3 W0 2.376748 1_555
O4 W2 2.021320 1_555
O4 W2 2.021320 1_655
O5 W3 2.021320 1_655
O5 W3 2.021320 1_555
O6 W0 2.006150 1_555
O6 W3 2.376748 1_555
O7 W0 2.021320 1_555
O7 W0 2.021320 1_655
O8 W3 2.104624 1_555
O8 W2 2.104624 1_555
O9 W1 2.021320 1_555
O9 W1 2.021320 1_655
