# generated using pymatgen
data_Eu(In2Ag)4
_symmetry_space_group_name_H-M   'P 1'
_cell_length_a   8.13853028
_cell_length_b   8.13853028
_cell_length_c   8.13853028
_cell_angle_alpha   98.38959050
_cell_angle_beta   98.38959050
_cell_angle_gamma   135.08811565
_symmetry_Int_Tables_number   1
_chemical_formula_structural   Eu(In2Ag)4
_chemical_formula_sum   'Eu1 In8 Ag4'
_cell_volume   351.72848651
_cell_formula_units_Z   1
loop_
 _symmetry_equiv_pos_site_id
 _symmetry_equiv_pos_as_xyz
  1  'x, y, z'
loop_
 _atom_site_type_symbol
 _atom_site_label
 _atom_site_symmetry_multiplicity
 _atom_site_fract_x
 _atom_site_fract_y
 _atom_site_fract_z
 _atom_site_occupancy
  Eu  Eu0  1  0.00000000  0.00000000  0.00000000  1
  In  In0  1  0.00000000  0.34701300  0.34701300  1
  In  In1  1  0.00000000  0.65298700  0.65298700  1
  In  In2  1  0.65298700  0.00000000  0.65298700  1
  In  In3  1  0.34701300  0.00000000  0.34701300  1
  In  In4  1  0.50000000  0.28777300  0.78777300  1
  In  In5  1  0.50000000  0.71222700  0.21222700  1
  In  In6  1  0.71222700  0.50000000  0.21222700  1
  In  In7  1  0.28777300  0.50000000  0.78777300  1
  Ag  Ag0  1  0.00000000  0.00000000  0.50000000  1
  Ag  Ag1  1  0.50000000  0.50000000  0.50000000  1
  Ag  Ag2  1  0.50000000  0.00000000  0.00000000  1
  Ag  Ag3  1  0.00000000  0.50000000  0.00000000  1
loop_
_geom_bond_atom_site_label_1
_geom_bond_atom_site_label_2
_geom_bond_distance
_geom_bond_site_symmetry_2
Eu0 In3 3.691138 1_555
Eu0 In0 3.691138 1_555
Eu0 In1 3.691138 1_544
Eu0 In2 3.691138 1_454
Eu0 In6 3.841876 1_555
Eu0 In5 3.841876 1_555
Eu0 In5 3.841876 1_445
Eu0 In6 3.841876 1_445
Eu0 In7 3.841876 1_444
Eu0 In4 3.841876 1_444
Eu0 In7 3.841876 1_554
Eu0 In4 3.841876 1_554
In0 In1 3.254611 1_555
In0 In5 3.423377 1_555
In0 In5 3.423377 1_445
In0 In7 3.466684 1_555
In0 In6 3.466684 1_455
In1 In4 3.423377 1_455
In1 In4 3.423377 1_565
In1 In7 3.466684 1_555
In1 In6 3.466684 1_455
In2 In3 3.254611 1_555
In2 In7 3.423377 1_545
In2 In7 3.423377 1_655
In2 In4 3.466684 1_555
In2 In5 3.466684 1_545
In3 In6 3.423377 1_555
In3 In6 3.423377 1_445
In3 In4 3.466684 1_555
In3 In5 3.466684 1_545
In4 In7 3.192494 1_555
In4 In6 3.192494 1_556
In5 In6 3.192494 1_555
In5 In7 3.192494 1_554
Ag0 In6 3.106267 1_445
Ag0 In5 3.106267 1_445
Ag0 In4 3.106267 1_555
Ag0 In7 3.106267 1_555
Ag0 Ag1 3.108698 1_445
Ag0 Ag1 3.108698 1_555
Ag0 In3 3.248432 1_555
Ag0 In0 3.248432 1_555
Ag0 In1 3.248432 1_545
Ag0 In2 3.248432 1_455
Ag0 Eu0 4.069265 1_556
Ag0 Eu0 4.069265 1_555
Ag1 In5 3.106267 1_555
Ag1 In6 3.106267 1_555
Ag1 In4 3.106267 1_555
Ag1 In7 3.106267 1_555
Ag1 In3 3.248432 1_555
Ag1 In0 3.248432 1_555
Ag1 In2 3.248432 1_565
Ag1 In1 3.248432 1_655
Ag1 Eu0 4.069265 1_666
Ag1 Eu0 4.069265 1_555
Ag2 In7 3.106267 1_544
Ag2 In4 3.106267 1_554
Ag2 In6 3.106267 1_555
Ag2 In5 3.106267 1_545
Ag2 Ag3 3.108698 1_545
Ag2 Ag3 3.108698 1_655
Ag2 In0 3.248432 1_655
Ag2 In3 3.248432 1_555
Ag2 In2 3.248432 1_554
Ag2 In1 3.248432 1_544
Ag2 Eu0 4.069265 1_655
Ag2 Eu0 4.069265 1_555
Ag3 In4 3.106267 1_454
Ag3 In7 3.106267 1_554
Ag3 In5 3.106267 1_555
Ag3 In6 3.106267 1_455
Ag3 In3 3.248432 1_565
Ag3 In0 3.248432 1_555
Ag3 In1 3.248432 1_554
Ag3 In2 3.248432 1_454
Ag3 Eu0 4.069265 1_565
Ag3 Eu0 4.069265 1_555
