# generated using pymatgen
data_LiEr2Tl2(WO4)4
_symmetry_space_group_name_H-M   'P 1'
_cell_length_a   7.47018413
_cell_length_b   7.92721140
_cell_length_c   7.49156124
_cell_angle_alpha   62.62706265
_cell_angle_beta   63.00358903
_cell_angle_gamma   88.90897008
_symmetry_Int_Tables_number   1
_chemical_formula_structural   LiEr2Tl2(WO4)4
_chemical_formula_sum   'Li1 Er2 Tl2 W4 O16'
_cell_volume   340.79893103
_cell_formula_units_Z   1
loop_
 _symmetry_equiv_pos_site_id
 _symmetry_equiv_pos_as_xyz
  1  'x, y, z'
loop_
 _atom_site_type_symbol
 _atom_site_label
 _atom_site_symmetry_multiplicity
 _atom_site_fract_x
 _atom_site_fract_y
 _atom_site_fract_z
 _atom_site_occupancy
  Li  Li0  1  0.34484600  0.62816600  0.24137300  1
  Er  Er0  1  0.25694800  0.79187500  0.73694300  1
  Er  Er1  1  0.75738200  0.19918800  0.26100100  1
  Tl  Tl0  1  0.79505500  0.20291000  0.74019800  1
  Tl  Tl1  1  0.14437100  0.89463000  0.23547500  1
  W  W0  1  0.29431300  0.31217500  0.70200300  1
  W  W1  1  0.71269300  0.67781200  0.29055200  1
  W  W2  1  0.69732300  0.68792400  0.79342500  1
  W  W3  1  0.31639300  0.28869100  0.20456200  1
  O  O0  1  0.38401600  0.25964100  0.92302000  1
  O  O1  1  0.62887500  0.74262400  0.06217200  1
  O  O2  1  0.75737100  0.61316900  0.56550000  1
  O  O3  1  0.23222300  0.36491500  0.45222100  1
  O  O4  1  0.62511400  0.91482600  0.63141100  1
  O  O5  1  0.40027100  0.06883300  0.36542800  1
  O  O6  1  0.04019200  0.33143500  0.88967200  1
  O  O7  1  0.96754400  0.65606200  0.10924800  1
  O  O8  1  0.40018100  0.61989800  0.53086000  1
  O  O9  1  0.60627500  0.37823600  0.44947700  1
  O  O10  1  0.37106700  0.58672100  0.97755700  1
  O  O11  1  0.64284700  0.41286600  0.02990400  1
  O  O12  1  0.24514600  0.04941500  0.79061400  1
  O  O13  1  0.77835800  0.93613800  0.21018900  1
  O  O14  1  0.97000300  0.77163700  0.69711200  1
  O  O15  1  0.03119400  0.21021300  0.30651100  1
loop_
_geom_bond_atom_site_label_1
_geom_bond_atom_site_label_2
_geom_bond_distance
_geom_bond_site_symmetry_2
Li0 O3 1.840379 1_555
Li0 O1 1.869374 1_555
Li0 O10 2.072590 1_554
Li0 O8 2.358092 1_555
Li0 Tl1 2.561323 1_555
Er0 O12 2.247949 1_565
Er0 O10 2.295093 1_555
Er0 O14 2.312427 1_455
Er0 O7 2.337792 1_456
Er0 O5 2.340517 1_565
Er0 O8 2.401499 1_555
Er0 O4 2.560946 1_555
Er1 O15 2.230465 1_655
Er1 O13 2.276195 1_545
Er1 O11 2.278489 1_555
Er1 O6 2.316878 1_654
Er1 O4 2.366750 1_545
Er1 O9 2.370085 1_555
Er1 O5 2.502652 1_555
O0 W0 1.930443 1_555
O0 W3 2.057134 1_556
O0 Tl1 2.687212 1_546
O1 W1 1.932684 1_555
O1 W2 2.088714 1_554
O2 W2 1.921711 1_555
O2 W1 2.064877 1_555
O2 Tl1 2.851760 1_655
O3 W0 1.988141 1_555
O3 W3 2.039638 1_555
O4 W2 1.883972 1_555
O5 W3 1.896064 1_555
O6 W0 1.834921 1_555
O7 W1 1.831456 1_555
O8 W1 2.089733 1_555
O8 W0 2.120564 1_555
O9 W1 2.074076 1_555
O9 W0 2.101656 1_555
O10 W3 2.086170 1_556
O10 W2 2.119191 1_555
O11 W2 1.971198 1_554
O11 W3 2.153661 1_555
O12 W0 1.857564 1_555
O12 Tl1 2.678861 1_546
O13 W1 1.852842 1_555
O13 Tl1 2.828173 1_655
O14 W2 1.840401 1_555
O14 Tl1 2.732335 1_655
O15 W3 1.909351 1_555
O15 Tl1 2.826956 1_545
