# generated using pymatgen
data_Sr2La14Mg4(Fe4O15)3
_symmetry_space_group_name_H-M   'P 1'
_cell_length_a   5.67287624
_cell_length_b   5.60694025
_cell_length_c   31.64192695
_cell_angle_alpha   89.89824030
_cell_angle_beta   89.91274444
_cell_angle_gamma   89.98044915
_symmetry_Int_Tables_number   1
_chemical_formula_structural   Sr2La14Mg4(Fe4O15)3
_chemical_formula_sum   'Sr2 La14 Mg4 Fe12 O45'
_cell_volume   1006.44708664
_cell_formula_units_Z   1
loop_
 _symmetry_equiv_pos_site_id
 _symmetry_equiv_pos_as_xyz
  1  'x, y, z'
loop_
 _atom_site_type_symbol
 _atom_site_label
 _atom_site_symmetry_multiplicity
 _atom_site_fract_x
 _atom_site_fract_y
 _atom_site_fract_z
 _atom_site_occupancy
  Sr  Sr0  1  0.02650600  0.01614600  0.18938900  1
  Sr  Sr1  1  0.02581800  0.01716500  0.43845800  1
  La  La0  1  0.03502200  0.01123200  0.68621300  1
  La  La1  1  0.03496500  0.00963600  0.93796800  1
  La  La2  1  0.47088500  0.50982100  0.06198700  1
  La  La3  1  0.46012700  0.50975000  0.81232100  1
  La  La4  1  0.47427100  0.50780200  0.31163100  1
  La  La5  1  0.46948100  0.51396300  0.56234900  1
  La  La6  1  0.53170700  0.48890600  0.44017200  1
  La  La7  1  0.53409300  0.49198800  0.19070100  1
  La  La8  1  0.53577200  0.48787200  0.68623400  1
  La  La9  1  0.53625200  0.48930900  0.93800900  1
  La  La10  1  0.95733700  0.98332100  0.31076100  1
  La  La11  1  0.95822700  0.98001100  0.06161000  1
  La  La12  1  0.95962000  0.99114100  0.81225200  1
  La  La13  1  0.95691500  0.97818000  0.56176900  1
  Mg  Mg0  1  0.00435200  0.50549400  0.99442000  1
  Mg  Mg1  1  0.00366400  0.50765700  0.24562400  1
  Mg  Mg2  1  0.00418900  0.50746800  0.63071500  1
  Mg  Mg3  1  0.00283600  0.50644500  0.49540500  1
  Fe  Fe0  1  0.49856300  0.99768500  0.00162100  1
  Fe  Fe1  1  0.49856100  0.00280400  0.12446300  1
  Fe  Fe2  1  0.49675500  0.00086600  0.25149700  1
  Fe  Fe3  1  0.49756400  0.00002600  0.37399500  1
  Fe  Fe4  1  0.49856000  0.99907900  0.74970000  1
  Fe  Fe5  1  0.49926800  0.99858200  0.62338700  1
  Fe  Fe6  1  0.49919900  0.00228500  0.50140800  1
  Fe  Fe7  1  0.49865700  0.99966700  0.87512000  1
  Fe  Fe8  1  0.00098700  0.50679100  0.12981700  1
  Fe  Fe9  1  0.00136900  0.50776200  0.37955600  1
  Fe  Fe10  1  0.99753100  0.50232700  0.75020200  1
  Fe  Fe11  1  0.99790000  0.50206100  0.87479200  1
  O  O0  1  0.01919400  0.41607300  0.81285000  1
  O  O1  1  0.21576100  0.77250200  0.01478300  1
  O  O2  1  0.21737600  0.76419000  0.10969200  1
  O  O3  1  0.22108500  0.77274900  0.26351500  1
  O  O4  1  0.21591800  0.76481200  0.35880800  1
  O  O5  1  0.21971300  0.77149900  0.51526100  1
  O  O6  1  0.21043300  0.79336800  0.86390900  1
  O  O7  1  0.21587500  0.77525900  0.61075500  1
  O  O8  1  0.21126900  0.79005600  0.76210400  1
  O  O9  1  0.28475700  0.29141200  0.13132300  1
  O  O10  1  0.28679600  0.29270900  0.38133800  1
  O  O11  1  0.28781200  0.28939700  0.24423100  1
  O  O12  1  0.28732500  0.28487200  0.63298700  1
  O  O13  1  0.28893700  0.28986700  0.88746900  1
  O  O14  1  0.29095700  0.28963100  0.49283700  1
  O  O15  1  0.29079200  0.29019300  0.73812200  1
  O  O16  1  0.28835800  0.28487700  0.99355700  1
  O  O17  1  0.49186900  0.92202200  0.18670500  1
  O  O18  1  0.49027700  0.91632300  0.43633400  1
  O  O19  1  0.47894200  0.91321700  0.68640000  1
  O  O20  1  0.47642800  0.91345300  0.93930200  1
  O  O21  1  0.51641200  0.07670300  0.06315600  1
  O  O22  1  0.51272300  0.07588400  0.31312900  1
  O  O23  1  0.52325100  0.08782200  0.81269500  1
  O  O24  1  0.51953000  0.08537800  0.56290900  1
  O  O25  1  0.72368900  0.71657300  0.26331300  1
  O  O26  1  0.72416200  0.70891300  0.01457300  1
  O  O27  1  0.72974700  0.71207500  0.10962100  1
  O  O28  1  0.73094500  0.71278000  0.35871400  1
  O  O29  1  0.70727400  0.71161900  0.76231000  1
  O  O30  1  0.72194700  0.71362900  0.51430900  1
  O  O31  1  0.72408200  0.70890500  0.61015700  1
  O  O32  1  0.70658000  0.71014500  0.86386200  1
  O  O33  1  0.79005600  0.22316500  0.12889800  1
  O  O34  1  0.78120600  0.22433700  0.24623500  1
  O  O35  1  0.79176400  0.22339400  0.37784600  1
  O  O36  1  0.78502300  0.21857700  0.49507400  1
  O  O37  1  0.79416000  0.20920700  0.63276000  1
  O  O38  1  0.78975800  0.20867900  0.73815800  1
  O  O39  1  0.78678900  0.20831700  0.88763000  1
  O  O40  1  0.79437300  0.20770700  0.99351600  1
  O  O41  1  0.96279800  0.57739700  0.18639000  1
  O  O42  1  0.97196300  0.59252800  0.69017900  1
  O  O43  1  0.97424500  0.58984800  0.93504200  1
  O  O44  1  0.96479700  0.57919600  0.43619100  1
loop_
_geom_bond_atom_site_label_1
_geom_bond_atom_site_label_2
_geom_bond_distance
_geom_bond_site_symmetry_2
La0 O42 2.377932 1_445
La0 O38 2.421048 1_455
La0 O37 2.441145 1_455
La0 O19 2.577401 1_545
La0 O12 2.687753 1_555
La0 O15 2.695824 1_555
La0 O8 2.880949 1_545
La0 O7 2.916640 1_545
La1 O43 2.380898 1_445
La1 O39 2.399901 1_455
La1 O40 2.486784 1_455
La1 O20 2.561988 1_545
La1 O13 2.661468 1_555
La1 O16 2.749673 1_555
La1 O6 2.820423 1_545
La1 O1 2.953409 1_546
La2 O26 2.355829 1_555
La2 O27 2.393362 1_555
La2 O21 2.442295 1_555
La2 O2 2.525965 1_555
La2 O1 2.547964 1_555
La2 O16 2.714529 1_554
La2 O9 2.722523 1_555
La3 O23 2.392564 1_555
La3 O29 2.395604 1_555
La3 O32 2.427216 1_555
La3 O0 2.556108 1_555
La3 O8 2.642797 1_555
La3 O6 2.683364 1_555
La3 O15 2.822828 1_555
La3 O13 2.846141 1_555
La4 O28 2.382096 1_555
La4 O25 2.387019 1_555
La4 O22 2.431853 1_555
La4 O4 2.540176 1_555
La4 O3 2.566105 1_555
La4 O11 2.680253 1_555
La4 O10 2.726680 1_555
La5 O31 2.362784 1_555
La5 O30 2.367191 1_555
La5 O24 2.419706 1_555
La5 O5 2.511986 1_555
La5 O7 2.561644 1_555
La5 O14 2.731850 1_555
La5 O12 2.774382 1_555
La6 O18 2.410783 1_555
La6 O14 2.424485 1_555
La6 O44 2.511579 1_555
La6 O10 2.573376 1_555
La6 O36 2.716083 1_555
La6 O30 2.876526 1_555
La6 O35 2.877844 1_555
La7 O17 2.426055 1_555
La7 O11 2.469459 1_555
La7 O41 2.482351 1_555
La7 O9 2.610008 1_555
La7 O34 2.702172 1_555
La7 O25 2.835508 1_555
La7 O33 2.864416 1_555
La8 O19 2.406481 1_555
La8 O15 2.417258 1_555
La8 O12 2.477049 1_555
La8 O42 2.546576 1_555
La8 O38 2.687458 1_555
La8 O37 2.730029 1_555
La8 O29 2.886811 1_555
La8 O31 2.907625 1_555
La9 O20 2.402540 1_555
La9 O13 2.406350 1_555
La9 O16 2.523330 1_555
La9 O43 2.549565 1_555
La9 O39 2.654020 1_555
La9 O40 2.778185 1_555
La9 O32 2.820433 1_555
La9 O26 2.922491 1_556
La10 O3 2.421932 1_655
La10 O4 2.441943 1_655
La10 O28 2.497982 1_555
La10 O25 2.502639 1_555
La10 O22 2.575914 1_565
La10 O34 2.643607 1_565
La10 O35 2.683881 1_565
La11 O1 2.383675 1_655
La11 O2 2.437073 1_655
La11 O27 2.496389 1_555
La11 O26 2.510816 1_555
La11 O21 2.564558 1_565
La11 O40 2.670552 1_564
La11 O33 2.702825 1_565
La12 O0 2.406644 1_665
La12 O8 2.413583 1_655
La12 O6 2.434206 1_655
La12 O23 2.533968 1_565
La12 O29 2.649534 1_555
La12 O32 2.682337 1_555
La12 O38 2.812251 1_565
La12 O39 2.852220 1_565
La13 O5 2.393593 1_655
La13 O7 2.419644 1_655
La13 O30 2.499505 1_555
La13 O31 2.520981 1_555
La13 O24 2.553010 1_565
La13 O36 2.686364 1_565
La13 O37 2.753078 1_565
Mg0 O43 1.944390 1_455
Mg0 O1 2.025284 1_556
Mg0 O16 2.031071 1_555
Mg0 O40 2.051629 1_455
Mg0 O26 2.057237 1_456
Mg1 O41 1.928269 1_455
Mg1 O3 2.014293 1_555
Mg1 O11 2.023988 1_555
Mg1 O34 2.029202 1_455
Mg1 O25 2.050937 1_455
Mg2 O42 1.950182 1_455
Mg2 O7 2.022619 1_555
Mg2 O12 2.035045 1_555
Mg2 O37 2.054560 1_455
Mg2 O31 2.055009 1_455
Mg3 O44 1.929238 1_455
Mg3 O5 2.030752 1_555
Mg3 O36 2.033108 1_455
Mg3 O14 2.038268 1_555
Mg3 O30 2.060254 1_455
Fe0 O21 2.000346 1_565
Fe0 O16 2.019457 1_564
Fe0 O20 2.032556 1_554
Fe0 O40 2.065776 1_564
Fe0 O1 2.082987 1_555
Fe0 O26 2.103624 1_555
Fe1 O21 1.985350 1_555
Fe1 O17 2.020389 1_545
Fe1 O9 2.033693 1_555
Fe1 O33 2.069647 1_555
Fe1 O2 2.135132 1_545
Fe1 O27 2.144101 1_545
Fe2 O22 1.997927 1_555
Fe2 O11 2.018220 1_555
Fe2 O34 2.049733 1_555
Fe2 O3 2.055231 1_545
Fe2 O25 2.082290 1_545
Fe2 O17 2.098258 1_545
Fe3 O22 1.973340 1_555
Fe3 O18 2.027142 1_545
Fe3 O10 2.043483 1_555
Fe3 O35 2.090789 1_555
Fe3 O4 2.128156 1_545
Fe3 O28 2.140073 1_545
Fe4 O29 2.038808 1_555
Fe4 O8 2.044857 1_555
Fe4 O15 2.045863 1_565
Fe4 O38 2.059453 1_565
Fe4 O23 2.060291 1_565
Fe4 O19 2.063986 1_555
Fe5 O24 1.976899 1_565
Fe5 O12 2.028267 1_565
Fe5 O19 2.052751 1_555
Fe5 O37 2.070092 1_565
Fe5 O7 2.077816 1_555
Fe5 O31 2.106929 1_555
Fe6 O24 2.005308 1_555
Fe6 O14 2.015680 1_555
Fe6 O36 2.034568 1_555
Fe6 O5 2.092278 1_545
Fe6 O30 2.093006 1_545
Fe6 O18 2.116243 1_545
Fe7 O6 2.035127 1_555
Fe7 O32 2.037853 1_555
Fe7 O23 2.039882 1_565
Fe7 O39 2.049868 1_565
Fe7 O13 2.053093 1_565
Fe7 O20 2.090375 1_555
Fe8 O41 1.846434 1_455
Fe8 O33 1.990779 1_455
Fe8 O2 1.997706 1_555
Fe8 O9 2.012646 1_555
Fe8 O27 2.024849 1_455
Fe9 O44 1.848306 1_455
Fe9 O35 1.990180 1_455
Fe9 O4 1.996247 1_555
Fe9 O10 2.019305 1_555
Fe9 O28 2.027045 1_455
Fe10 O42 1.970108 1_555
Fe10 O0 2.043481 1_655
Fe10 O8 2.054157 1_655
Fe10 O29 2.057541 1_555
Fe10 O38 2.061619 1_555
Fe10 O15 2.080104 1_655
Fe11 O43 1.974146 1_555
Fe11 O0 2.022646 1_655
Fe11 O32 2.052068 1_555
Fe11 O6 2.058668 1_655
Fe11 O13 2.073949 1_655
Fe11 O39 2.075907 1_555
O2 Sr0 3.087190 1_565
O3 Sr0 2.928766 1_565
O4 Sr1 3.085475 1_565
O5 Sr1 3.001377 1_565
O9 Sr0 2.808452 1_555
O10 Sr1 2.798018 1_555
O11 Sr0 2.752242 1_555
O14 Sr1 2.752387 1_555
O17 Sr0 2.693246 1_565
O17 Sr0 3.080005 1_665
O18 Sr1 2.695377 1_565
O18 Sr1 3.091268 1_665
O33 Sr0 2.609408 1_655
O34 Sr0 2.556005 1_655
O35 Sr1 2.603287 1_655
O36 Sr1 2.519766 1_655
O41 Sr0 2.488565 1_665
O41 Sr0 3.168734 1_655
O44 Sr1 2.481240 1_665
O44 Sr1 3.170810 1_655
