# generated using pymatgen
data_BaSrNdVO6
_symmetry_space_group_name_H-M   'P 1'
_cell_length_a   8.42318644
_cell_length_b   8.39545950
_cell_length_c   8.40360929
_cell_angle_alpha   90.00000000
_cell_angle_beta   90.00000000
_cell_angle_gamma   90.00000000
_symmetry_Int_Tables_number   1
_chemical_formula_structural   BaSrNdVO6
_chemical_formula_sum   'Ba4 Sr4 Nd4 V4 O24'
_cell_volume   594.27400962
_cell_formula_units_Z   4
loop_
 _symmetry_equiv_pos_site_id
 _symmetry_equiv_pos_as_xyz
  1  'x, y, z'
loop_
 _atom_site_type_symbol
 _atom_site_label
 _atom_site_symmetry_multiplicity
 _atom_site_fract_x
 _atom_site_fract_y
 _atom_site_fract_z
 _atom_site_occupancy
  Ba  Ba0  1  0.00000000  0.00000000  0.00000000  1
  Ba  Ba1  1  0.50000000  0.50000000  0.50000000  1
  Ba  Ba2  1  0.50000000  0.00000000  0.50000000  1
  Ba  Ba3  1  0.50000000  0.00000000  0.00000000  1
  Sr  Sr0  1  -0.00000000  0.50000000  0.50000000  1
  Sr  Sr1  1  0.50000000  0.50000000  0.00000000  1
  Sr  Sr2  1  -0.00000000  0.50000000  0.00000000  1
  Sr  Sr3  1  -0.00000000  0.00000000  0.50000000  1
  Nd  Nd0  1  0.75214736  0.74686045  0.75116085  1
  Nd  Nd1  1  0.24785264  0.25313955  0.75116085  1
  Nd  Nd2  1  0.24785264  0.74686045  0.24883915  1
  Nd  Nd3  1  0.75214736  0.25313955  0.24883915  1
  V  V0  1  0.24643992  0.25154568  0.25197163  1
  V  V1  1  0.75356008  0.74845432  0.25197163  1
  V  V2  1  0.75356008  0.25154568  0.74802837  1
  V  V3  1  0.24643992  0.74845432  0.74802837  1
  O  O0  1  0.02297637  0.21924389  0.27998520  1
  O  O1  1  0.97702363  0.78075611  0.27998520  1
  O  O2  1  0.97702363  0.21924389  0.72001480  1
  O  O3  1  0.02297637  0.78075611  0.72001480  1
  O  O4  1  0.27052292  0.02697981  0.22608448  1
  O  O5  1  0.27052292  0.97302019  0.77391552  1
  O  O6  1  0.72947708  0.97302019  0.22608448  1
  O  O7  1  0.72947708  0.02697981  0.77391552  1
  O  O8  1  0.21710643  0.28131371  0.02543156  1
  O  O9  1  0.78289357  0.28131371  0.97456844  1
  O  O10  1  0.21710643  0.71868629  0.97456844  1
  O  O11  1  0.78289357  0.71868629  0.02543156  1
  O  O12  1  0.47371327  0.28244600  0.22201538  1
  O  O13  1  0.52628673  0.71755400  0.22201538  1
  O  O14  1  0.52628673  0.28244600  0.77798462  1
  O  O15  1  0.47371327  0.71755400  0.77798462  1
  O  O16  1  0.21627576  0.47594489  0.28118994  1
  O  O17  1  0.21627576  0.52405511  0.71881006  1
  O  O18  1  0.78372424  0.52405511  0.28118994  1
  O  O19  1  0.78372424  0.47594489  0.71881006  1
  O  O20  1  0.27403536  0.22974622  0.47488350  1
  O  O21  1  0.72596464  0.22974622  0.52511650  1
  O  O22  1  0.27403536  0.77025378  0.52511650  1
  O  O23  1  0.72596464  0.77025378  0.47488350  1
loop_
_geom_bond_atom_site_label_1
_geom_bond_atom_site_label_2
_geom_bond_distance
_geom_bond_site_symmetry_2
Ba0 O4 2.975456 1_555
Ba0 O6 2.975456 1_445
Ba0 O5 2.975456 1_544
Ba0 O7 2.975456 1_454
Ba0 O3 2.993582 1_544
Ba0 O1 2.993582 1_445
Ba0 O2 2.993582 1_454
Ba0 O0 2.993582 1_555
Ba0 O9 2.994632 1_454
Ba0 O8 2.994632 1_555
Ba0 O11 2.994632 1_445
Ba0 O10 2.994632 1_544
Ba1 O22 2.969039 1_555
Ba1 O20 2.969039 1_555
Ba1 O23 2.969039 1_555
Ba1 O21 2.969039 1_555
Ba1 O12 2.973591 1_555
Ba1 O13 2.973591 1_555
Ba1 O14 2.973591 1_555
Ba1 O15 2.973591 1_555
Ba1 O18 3.022150 1_555
Ba1 O16 3.022150 1_555
Ba1 O19 3.022150 1_555
Ba1 O17 3.022150 1_555
Ba2 O20 2.718019 1_555
Ba2 O22 2.718019 1_545
Ba2 O21 2.718019 1_555
Ba2 O23 2.718019 1_545
Ba2 O4 3.014327 1_555
Ba2 O7 3.014327 1_555
Ba2 O5 3.014327 1_545
Ba2 O6 3.014327 1_545
Ba2 O15 3.336040 1_545
Ba2 O14 3.336040 1_555
Ba2 O12 3.336040 1_555
Ba2 O13 3.336040 1_545
Ba3 O7 2.719786 1_554
Ba3 O5 2.719786 1_544
Ba3 O4 2.719786 1_555
Ba3 O6 2.719786 1_545
Ba3 O12 3.025371 1_555
Ba3 O15 3.025371 1_544
Ba3 O14 3.025371 1_554
Ba3 O13 3.025371 1_545
Nd0 O19 2.306041 1_555
Nd0 O3 2.313776 1_655
Nd0 O11 2.331398 1_556
Nd0 O23 2.340433 1_555
Nd0 O7 2.367207 1_565
Nd0 O15 2.368922 1_555
Nd1 O17 2.306041 1_555
Nd1 O2 2.313776 1_455
Nd1 O8 2.331398 1_556
Nd1 O20 2.340433 1_555
Nd1 O5 2.367207 1_545
Nd1 O14 2.368922 1_555
Nd2 O16 2.306041 1_555
Nd2 O1 2.313776 1_455
Nd2 O10 2.331398 1_554
Nd2 O22 2.340433 1_555
Nd2 O4 2.367207 1_565
Nd2 O13 2.368922 1_555
Nd3 O18 2.306041 1_555
Nd3 O0 2.313776 1_655
Nd3 O9 2.331398 1_554
Nd3 O21 2.340433 1_555
Nd3 O6 2.367207 1_545
Nd3 O12 2.368922 1_555
O0 V0 1.916226 1_555
O0 Sr3 2.616096 1_555
O0 Sr0 3.001960 1_555
O1 V1 1.916226 1_555
O1 Sr3 2.616096 1_665
O1 Sr0 3.001960 1_655
O2 V2 1.916226 1_555
O2 Sr3 2.616096 1_655
O2 Sr0 3.001960 1_655
O3 V3 1.916226 1_555
O3 Sr3 2.616096 1_565
O3 Sr0 3.001960 1_555
O4 V0 1.908654 1_555
O5 V3 1.908654 1_555
O6 V1 1.908654 1_555
O7 V2 1.908654 1_555
O8 V0 1.935920 1_555
O8 Sr2 2.600137 1_555
O8 Sr1 3.015711 1_555
O9 V2 1.935920 1_555
O9 Sr2 2.600137 1_656
O9 Sr1 3.015711 1_556
O10 V3 1.935920 1_555
O10 Sr2 2.600137 1_556
O10 Sr1 3.015711 1_556
O11 V1 1.935920 1_555
O11 Sr2 2.600137 1_655
O11 Sr1 3.015711 1_555
O12 V0 1.948197 1_555
O12 Sr1 2.620296 1_555
O13 V1 1.948197 1_555
O13 Sr1 2.620296 1_555
O14 V2 1.948197 1_555
O14 Sr1 2.620296 1_556
O15 V3 1.948197 1_555
O15 Sr1 2.620296 1_556
O16 V0 1.916782 1_555
O16 Sr0 2.596277 1_555
O16 Sr2 2.990536 1_555
O17 V3 1.916782 1_555
O17 Sr0 2.596277 1_555
O17 Sr2 2.990536 1_556
O18 V1 1.916782 1_555
O18 Sr0 2.596277 1_655
O18 Sr2 2.990536 1_655
O19 V2 1.916782 1_555
O19 Sr0 2.596277 1_655
O19 Sr2 2.990536 1_656
O20 V0 1.896482 1_555
O21 V2 1.896482 1_555
O22 V3 1.896482 1_555
O23 V1 1.896482 1_555
