# generated using pymatgen
data_K3H(SO4)2
_symmetry_space_group_name_H-M   'P 1'
_cell_length_a   5.68398312
_cell_length_b   5.68398312
_cell_length_c   7.80398560
_cell_angle_alpha   72.84070009
_cell_angle_beta   72.84070009
_cell_angle_gamma   61.79208678
_symmetry_Int_Tables_number   1
_chemical_formula_structural   K3H(SO4)2
_chemical_formula_sum   'K3 H1 S2 O8'
_cell_volume   208.64015443
_cell_formula_units_Z   1
loop_
 _symmetry_equiv_pos_site_id
 _symmetry_equiv_pos_as_xyz
  1  'x, y, z'
loop_
 _atom_site_type_symbol
 _atom_site_label
 _atom_site_symmetry_multiplicity
 _atom_site_fract_x
 _atom_site_fract_y
 _atom_site_fract_z
 _atom_site_occupancy
  K  K0  1  0.20281500  0.20281500  0.38806400  1
  K  K1  1  0.79718500  0.79718500  0.61193600  1
  K  K2  1  0.00000000  0.00000000  0.00000000  1
  H  H0  1  0.50000000  0.50000000  0.00000000  1
  S  S0  1  0.42025500  0.42025500  0.76744900  1
  S  S1  1  0.57974500  0.57974500  0.23255100  1
  O  O0  1  0.28280100  0.70316400  0.29975100  1
  O  O1  1  0.70316400  0.28280100  0.29975100  1
  O  O2  1  0.71769000  0.71769000  0.27140000  1
  O  O3  1  0.71719900  0.29683600  0.70024900  1
  O  O4  1  0.29683600  0.71719900  0.70024900  1
  O  O5  1  0.28231000  0.28231000  0.72860000  1
  O  O6  1  0.38126400  0.38126400  0.97880300  1
  O  O7  1  0.61873600  0.61873600  0.02119700  1
loop_
_geom_bond_atom_site_label_1
_geom_bond_atom_site_label_2
_geom_bond_distance
_geom_bond_site_symmetry_2
K0 O1 2.914921 1_455
K0 O0 2.914921 1_545
K0 O0 2.941218 1_555
K0 O1 2.941218 1_555
K0 O5 3.013460 1_555
K0 O4 3.040685 1_545
K0 O3 3.040685 1_455
K0 O2 3.045896 1_545
K0 O2 3.045896 1_455
K0 O6 3.067236 1_554
K1 O4 2.914921 1_655
K1 O3 2.914921 1_565
K1 O4 2.941218 1_555
K1 O3 2.941218 1_555
K1 O2 3.013460 1_555
K1 O0 3.040685 1_655
K1 O1 3.040685 1_565
K1 O5 3.045896 1_655
K1 O5 3.045896 1_565
K1 O7 3.067236 1_556
K2 O5 2.838849 1_554
K2 O2 2.838849 1_445
K2 O0 2.868565 1_545
K2 O1 2.868565 1_455
K2 O4 2.868565 1_544
K2 O3 2.868565 1_454
H0 O7 1.225016 1_555
H0 O6 1.225016 1_554
O0 S1 1.480328 1_555
O1 S1 1.480328 1_555
O2 S1 1.477558 1_555
O3 S0 1.480328 1_555
O4 S0 1.480328 1_555
O5 S0 1.477558 1_555
O6 S0 1.560067 1_555
O7 S1 1.560067 1_555
