# generated using pymatgen
data_Li9Mn2Co5O16
_symmetry_space_group_name_H-M   'P 1'
_cell_length_a   4.99354600
_cell_length_b   6.49653077
_cell_length_c   9.06866891
_cell_angle_alpha   97.91908583
_cell_angle_beta   97.78240884
_cell_angle_gamma   96.74360289
_symmetry_Int_Tables_number   1
_chemical_formula_structural   Li9Mn2Co5O16
_chemical_formula_sum   'Li9 Mn2 Co5 O16'
_cell_volume   285.91551539
_cell_formula_units_Z   1
loop_
 _symmetry_equiv_pos_site_id
 _symmetry_equiv_pos_as_xyz
  1  'x, y, z'
loop_
 _atom_site_type_symbol
 _atom_site_label
 _atom_site_symmetry_multiplicity
 _atom_site_fract_x
 _atom_site_fract_y
 _atom_site_fract_z
 _atom_site_occupancy
  Li  Li0  1  0.74509100  0.31859200  0.19755200  1
  Li  Li1  1  0.76346900  0.80652600  0.66747100  1
  Li  Li2  1  0.23787700  0.19940500  0.32269400  1
  Li  Li3  1  0.24533500  0.67811000  0.80509500  1
  Li  Li4  1  0.76529400  0.07279400  0.44653700  1
  Li  Li5  1  0.75127300  0.55302900  0.92738500  1
  Li  Li6  1  0.24092300  0.43876700  0.06270200  1
  Li  Li7  1  0.25188600  0.93239900  0.56419100  1
  Li  Li8  1  0.00351500  0.50080100  0.50013800  1
  Mn  Mn0  1  0.99924100  0.99762800  0.00093000  1
  Mn  Mn1  1  0.49749500  0.87180000  0.13016500  1
  Co  Co0  1  0.49141700  0.37960600  0.61537400  1
  Co  Co1  1  0.99589500  0.74890600  0.26070400  1
  Co  Co2  1  0.00807300  0.25086600  0.74274600  1
  Co  Co3  1  0.50506200  0.62544000  0.37772200  1
  Co  Co4  1  0.50145000  0.12924500  0.86726700  1
  O  O0  1  0.85848000  0.26008500  0.97421300  1
  O  O1  1  0.84290300  0.77035500  0.45656500  1
  O  O2  1  0.36684900  0.13353000  0.09201800  1
  O  O3  1  0.39504500  0.65345200  0.57145100  1
  O  O4  1  0.85661000  0.00628600  0.22444400  1
  O  O5  1  0.86653900  0.50349200  0.71756600  1
  O  O6  1  0.36518200  0.39870900  0.83178000  1
  O  O7  1  0.37053200  0.88431200  0.32700100  1
  O  O8  1  0.60530200  0.36989600  0.40474800  1
  O  O9  1  0.62900300  0.84921200  0.93472500  1
  O  O10  1  0.14779500  0.22047200  0.53507100  1
  O  O11  1  0.14028900  0.73797300  0.03442500  1
  O  O12  1  0.64733100  0.10829000  0.66913900  1
  O  O13  1  0.62260200  0.61143300  0.17531800  1
  O  O14  1  0.13871400  0.50268500  0.28165900  1
  O  O15  1  0.14352800  0.98590100  0.78120400  1
loop_
_geom_bond_atom_site_label_1
_geom_bond_atom_site_label_2
_geom_bond_distance
_geom_bond_site_symmetry_2
Li0 O8 2.089558 1_555
Li0 O13 2.092768 1_555
Li0 O2 2.142176 1_555
Li0 O14 2.160121 1_655
Li0 O0 2.171695 1_554
Li0 O4 2.202488 1_555
Li1 O1 1.993551 1_555
Li1 O3 2.007409 1_555
Li1 O12 2.107372 1_565
Li1 O15 2.154730 1_655
Li1 O5 2.183581 1_555
Li1 O9 2.588639 1_555
Li2 O8 2.018093 1_555
Li2 O10 2.026553 1_555
Li2 O14 2.155665 1_555
Li2 O4 2.159685 1_455
Li2 O7 2.228017 1_545
Li2 O2 2.270898 1_555
Li3 O6 2.012058 1_555
Li3 O5 2.082349 1_455
Li3 O15 2.152201 1_555
Li3 O9 2.194976 1_555
Li3 O11 2.207287 1_556
Li3 O3 2.331868 1_555
Li4 O10 2.038473 1_655
Li4 O1 2.058503 1_545
Li4 O4 2.122821 1_555
Li4 O12 2.168178 1_555
Li4 O8 2.233612 1_555
Li4 O7 2.246995 1_545
Li5 O5 2.055922 1_555
Li5 O6 2.080311 1_555
Li5 O9 2.081163 1_555
Li5 O0 2.118773 1_555
Li5 O11 2.186148 1_656
Li5 O13 2.413635 1_556
Li6 O11 2.104401 1_555
Li6 O0 2.108608 1_454
Li6 O14 2.114890 1_555
Li6 O13 2.142181 1_555
Li6 O2 2.188868 1_555
Li6 O6 2.253416 1_554
Li7 O3 2.030709 1_555
Li7 O10 2.042008 1_565
Li7 O15 2.104938 1_555
Li7 O12 2.184556 1_565
Li7 O1 2.214466 1_455
Li7 O7 2.297572 1_555
Li8 O3 2.061482 1_555
Li8 O1 2.073802 1_455
Li8 O10 2.083601 1_555
Li8 O8 2.088047 1_455
Li8 O5 2.171324 1_455
Li8 O14 2.179116 1_555
Mn0 O11 1.948361 1_655
Mn0 O0 1.951711 1_564
Mn0 O9 1.956890 1_554
Mn0 O2 1.959408 1_665
Mn0 O15 2.203486 1_654
Mn0 O4 2.233392 1_565
Mn1 O11 1.923474 1_555
Mn1 O4 1.929013 1_565
Mn1 O13 1.946487 1_555
Mn1 O2 1.948823 1_565
Mn1 O9 1.964762 1_554
Mn1 O7 1.968131 1_555
Co0 O10 1.892333 1_555
Co0 O3 1.974762 1_555
Co0 O5 1.996426 1_555
Co0 O8 2.060404 1_555
Co0 O12 2.099283 1_555
Co0 O6 2.133193 1_555
Co1 O14 1.848882 1_655
Co1 O4 1.936600 1_565
Co1 O7 1.948905 1_655
Co1 O13 1.974710 1_555
Co1 O1 2.020458 1_555
Co1 O11 2.260182 1_655
Co2 O5 1.891331 1_455
Co2 O12 1.913273 1_455
Co2 O6 1.936104 1_555
Co2 O15 1.979190 1_545
Co2 O10 2.087700 1_555
Co2 O0 2.316965 1_455
Co3 O8 1.827778 1_555
Co3 O1 1.832604 1_555
Co3 O3 1.902177 1_555
Co3 O14 1.943155 1_555
Co3 O7 1.971299 1_555
Co3 O13 1.995059 1_555
Co4 O15 1.924018 1_545
Co4 O0 1.946877 1_555
Co4 O6 2.001703 1_555
Co4 O12 2.021853 1_555
Co4 O9 2.136085 1_545
Co4 O2 2.228574 1_556
