# generated using pymatgen
data_LiGa(GeSe3)2
_symmetry_space_group_name_H-M   'P 1'
_cell_length_a   7.33611605
_cell_length_b   7.33611605
_cell_length_c   12.65355823
_cell_angle_alpha   82.04048088
_cell_angle_beta   82.04048088
_cell_angle_gamma   120.69687173
_symmetry_Int_Tables_number   1
_chemical_formula_structural   LiGa(GeSe3)2
_chemical_formula_sum   'Li2 Ga2 Ge4 Se12'
_cell_volume   562.16961386
_cell_formula_units_Z   2
loop_
 _symmetry_equiv_pos_site_id
 _symmetry_equiv_pos_as_xyz
  1  'x, y, z'
loop_
 _atom_site_type_symbol
 _atom_site_label
 _atom_site_symmetry_multiplicity
 _atom_site_fract_x
 _atom_site_fract_y
 _atom_site_fract_z
 _atom_site_occupancy
  Li  Li0  1  0.65178200  0.23593300  0.90878300  1
  Li  Li1  1  0.23593300  0.65178200  0.40878300  1
  Ga  Ga0  1  0.24795100  0.49787700  0.00038300  1
  Ga  Ga1  1  0.49787700  0.24795100  0.50038300  1
  Ge  Ge0  1  0.21778900  0.21171400  0.77660100  1
  Ge  Ge1  1  0.74474600  0.24307500  0.22342900  1
  Ge  Ge2  1  0.21171400  0.21778900  0.27660100  1
  Ge  Ge3  1  0.24307500  0.74474600  0.72342900  1
  Se  Se0  1  0.99194600  0.35620400  0.73836200  1
  Se  Se1  1  0.84416000  0.97932300  0.25944600  1
  Se  Se2  1  0.35620400  0.99194700  0.23836200  1
  Se  Se3  1  0.97932300  0.84416000  0.75944600  1
  Se  Se4  1  0.46497400  0.89435600  0.53906800  1
  Se  Se5  1  0.18389000  0.25449500  0.46093000  1
  Se  Se6  1  0.89435500  0.46497400  0.03906800  1
  Se  Se7  1  0.25449500  0.18389000  0.96093000  1
  Se  Se8  1  0.48054500  0.82335700  0.84649800  1
  Se  Se9  1  0.41877800  0.57220500  0.15470100  1
  Se  Se10  1  0.82335700  0.48054500  0.34649800  1
  Se  Se11  1  0.57220500  0.41877800  0.65470100  1
loop_
_geom_bond_atom_site_label_1
_geom_bond_atom_site_label_2
_geom_bond_distance
_geom_bond_site_symmetry_2
Li0 Se6 2.689724 1_556
Li0 Se7 2.708733 1_555
Li0 Se0 2.718603 1_555
Li0 Se8 2.900515 1_545
Li1 Se4 2.689727 1_555
Li1 Se5 2.708733 1_555
Li1 Se2 2.718608 1_555
Li1 Se10 2.900515 1_455
Ga0 Se9 2.440428 1_555
Ga0 Se7 2.445837 1_554
Ga0 Se6 2.450133 1_455
Ga0 Se8 2.457004 1_554
Ga1 Se11 2.440428 1_555
Ga1 Se5 2.445837 1_555
Ga1 Se4 2.450125 1_545
Ga1 Se10 2.457004 1_555
Ge0 Se7 2.377511 1_555
Ge0 Se11 2.377987 1_555
Ge0 Se3 2.414403 1_445
Ge0 Se0 2.444542 1_455
Ge1 Se6 2.389910 1_555
Ge1 Se10 2.401431 1_555
Ge1 Se1 2.402522 1_545
Ge1 Se2 2.438733 1_545
Ge2 Se5 2.377511 1_555
Ge2 Se9 2.377987 1_555
Ge2 Se1 2.414403 1_445
Ge2 Se2 2.444535 1_545
Ge3 Se4 2.389909 1_555
Ge3 Se8 2.401431 1_555
Ge3 Se3 2.402522 1_455
Ge3 Se0 2.438734 1_455
