# generated using pymatgen
data_Na2Mg2P3NO9
_symmetry_space_group_name_H-M   'P 1'
_cell_length_a   9.35243600
_cell_length_b   9.35243600
_cell_length_c   9.35243600
_cell_angle_alpha   90.00000000
_cell_angle_beta   90.00000000
_cell_angle_gamma   90.00000000
_symmetry_Int_Tables_number   1
_chemical_formula_structural   Na2Mg2P3NO9
_chemical_formula_sum   'Na8 Mg8 P12 N4 O36'
_cell_volume   818.03942510
_cell_formula_units_Z   4
loop_
 _symmetry_equiv_pos_site_id
 _symmetry_equiv_pos_as_xyz
  1  'x, y, z'
loop_
 _atom_site_type_symbol
 _atom_site_label
 _atom_site_symmetry_multiplicity
 _atom_site_fract_x
 _atom_site_fract_y
 _atom_site_fract_z
 _atom_site_occupancy
  Na  Na0  1  0.46267500  0.96267500  0.53732500  1
  Na  Na1  1  0.96267500  0.53732500  0.46267500  1
  Na  Na2  1  0.53732500  0.46267500  0.96267500  1
  Na  Na3  1  0.03732500  0.03732500  0.03732500  1
  Na  Na4  1  0.70656900  0.20656900  0.29343100  1
  Na  Na5  1  0.20656900  0.29343100  0.70656900  1
  Na  Na6  1  0.29343100  0.70656900  0.20656900  1
  Na  Na7  1  0.79343100  0.79343100  0.79343100  1
  Mg  Mg0  1  0.92280500  0.42280500  0.07719500  1
  Mg  Mg1  1  0.42280500  0.07719500  0.92280500  1
  Mg  Mg2  1  0.07719500  0.92280500  0.42280500  1
  Mg  Mg3  1  0.57719500  0.57719500  0.57719500  1
  Mg  Mg4  1  0.10194800  0.60194800  0.89805200  1
  Mg  Mg5  1  0.60194800  0.89805200  0.10194800  1
  Mg  Mg6  1  0.89805200  0.10194800  0.60194800  1
  Mg  Mg7  1  0.39805200  0.39805200  0.39805200  1
  P  P0  1  0.23960200  0.65887800  0.59149700  1
  P  P1  1  0.40850300  0.73960200  0.84112200  1
  P  P2  1  0.15887800  0.90850300  0.76039800  1
  P  P3  1  0.73960200  0.84112200  0.40850300  1
  P  P4  1  0.90850300  0.76039800  0.15887800  1
  P  P5  1  0.65887800  0.59149700  0.23960200  1
  P  P6  1  0.76039800  0.15887800  0.90850300  1
  P  P7  1  0.59149700  0.23960200  0.65887800  1
  P  P8  1  0.84112200  0.40850300  0.73960200  1
  P  P9  1  0.26039800  0.34112200  0.09149700  1
  P  P10  1  0.09149700  0.26039800  0.34112200  1
  P  P11  1  0.34112200  0.09149700  0.26039800  1
  N  N0  1  0.30060000  0.80060000  0.69940000  1
  N  N1  1  0.80060000  0.69940000  0.30060000  1
  N  N2  1  0.69940000  0.30060000  0.80060000  1
  N  N3  1  0.19940000  0.19940000  0.19940000  1
  O  O0  1  0.63087500  0.77806100  0.51333700  1
  O  O1  1  0.48666300  0.13087500  0.72193900  1
  O  O2  1  0.27806100  0.98666300  0.36912500  1
  O  O3  1  0.13087500  0.72193900  0.48666300  1
  O  O4  1  0.98666300  0.36912500  0.27806100  1
  O  O5  1  0.77806100  0.51333700  0.63087500  1
  O  O6  1  0.36912500  0.27806100  0.98666300  1
  O  O7  1  0.51333700  0.63087500  0.77806100  1
  O  O8  1  0.72193900  0.48666300  0.13087500  1
  O  O9  1  0.86912500  0.22193900  0.01333700  1
  O  O10  1  0.01333700  0.86912500  0.22193900  1
  O  O11  1  0.22193900  0.01333700  0.86912500  1
  O  O12  1  0.36715800  0.60057100  0.50588900  1
  O  O13  1  0.49411100  0.86715800  0.89942900  1
  O  O14  1  0.10057100  0.99411100  0.63284200  1
  O  O15  1  0.86715800  0.89942900  0.49411100  1
  O  O16  1  0.99411100  0.63284200  0.10057100  1
  O  O17  1  0.60057100  0.50588900  0.36715800  1
  O  O18  1  0.63284200  0.10057100  0.99411100  1
  O  O19  1  0.50588900  0.36715800  0.60057100  1
  O  O20  1  0.89942900  0.49411100  0.86715800  1
  O  O21  1  0.13284200  0.39942900  0.00588900  1
  O  O22  1  0.00588900  0.13284200  0.39942900  1
  O  O23  1  0.39942900  0.00588900  0.13284200  1
  O  O24  1  0.17358000  0.54902800  0.69380500  1
  O  O25  1  0.30619500  0.67358000  0.95097200  1
  O  O26  1  0.04902800  0.80619500  0.82642000  1
  O  O27  1  0.67358000  0.95097200  0.30619500  1
  O  O28  1  0.80619500  0.82642000  0.04902800  1
  O  O29  1  0.54902800  0.69380500  0.17358000  1
  O  O30  1  0.82642000  0.04902800  0.80619500  1
  O  O31  1  0.69380500  0.17358000  0.54902800  1
  O  O32  1  0.95097200  0.30619500  0.67358000  1
  O  O33  1  0.32642000  0.45097200  0.19380500  1
  O  O34  1  0.19380500  0.32642000  0.45097200  1
  O  O35  1  0.45097200  0.19380500  0.32642000  1
loop_
_geom_bond_atom_site_label_1
_geom_bond_atom_site_label_2
_geom_bond_distance
_geom_bond_site_symmetry_2
Na0 O0 2.346492 1_555
Na0 O1 2.346492 1_565
Na0 O2 2.346492 1_555
Na0 O27 2.928357 1_555
Na0 O35 2.928357 1_565
Na0 O31 2.928357 1_565
Na1 O5 2.346492 1_555
Na1 O4 2.346492 1_555
Na1 O3 2.346492 1_655
Na1 O32 2.928357 1_555
Na1 O24 2.928357 1_655
Na1 O34 2.928357 1_655
Na2 O7 2.346492 1_555
Na2 O8 2.346492 1_556
Na2 O6 2.346492 1_555
Na2 O25 2.928357 1_555
Na2 O33 2.928357 1_556
Na2 O29 2.928357 1_556
Na3 O10 2.346492 1_545
Na3 O9 2.346492 1_455
Na3 O11 2.346492 1_554
Na3 O28 2.928357 1_445
Na3 O30 2.928357 1_454
Na3 O26 2.928357 1_544
Na4 O27 2.413237 1_545
Na4 O35 2.413237 1_555
Na4 O31 2.413237 1_555
Na5 O24 2.413237 1_555
Na5 O32 2.413237 1_455
Na5 O34 2.413237 1_555
Na6 O29 2.413237 1_555
Na6 O25 2.413237 1_554
Na6 O33 2.413237 1_555
Na7 O30 2.413237 1_565
Na7 O28 2.413237 1_556
Na7 O26 2.413237 1_655
Mg0 O9 2.034161 1_555
Mg0 O4 2.034161 1_555
Mg0 O8 2.034161 1_555
Mg0 O21 2.085961 1_655
Mg0 O20 2.085961 1_554
Mg0 O16 2.085961 1_555
Mg1 O6 2.034161 1_555
Mg1 O1 2.034161 1_555
Mg1 O11 2.034161 1_555
Mg1 O23 2.085961 1_556
Mg1 O13 2.085961 1_545
Mg1 O18 2.085961 1_555
Mg2 O3 2.034161 1_555
Mg2 O10 2.034161 1_555
Mg2 O2 2.034161 1_555
Mg2 O22 2.085961 1_565
Mg2 O14 2.085961 1_555
Mg2 O15 2.085961 1_455
Mg3 O0 2.034161 1_555
Mg3 O7 2.034161 1_555
Mg3 O5 2.034161 1_555
Mg3 O12 2.085961 1_555
Mg3 O17 2.085961 1_555
Mg3 O19 2.085961 1_555
Mg4 O26 2.083905 1_555
Mg4 O24 2.083905 1_555
Mg4 O25 2.083905 1_555
Mg4 O20 2.165189 1_455
Mg4 O16 2.165189 1_456
Mg4 O21 2.165189 1_556
Mg5 O28 2.083905 1_555
Mg5 O29 2.083905 1_555
Mg5 O27 2.083905 1_555
Mg5 O13 2.165189 1_554
Mg5 O18 2.165189 1_564
Mg5 O23 2.165189 1_565
Mg6 O30 2.083905 1_555
Mg6 O31 2.083905 1_555
Mg6 O32 2.083905 1_555
Mg6 O15 2.165189 1_545
Mg6 O14 2.165189 1_645
Mg6 O22 2.165189 1_655
Mg7 O35 2.083905 1_555
Mg7 O33 2.083905 1_555
Mg7 O34 2.083905 1_555
Mg7 O12 2.165189 1_555
Mg7 O17 2.165189 1_555
Mg7 O19 2.165189 1_555
N0 P0 1.760866 1_555
N0 P2 1.760866 1_555
N0 P1 1.760866 1_555
N0 Na0 2.625436 1_555
N1 P5 1.760866 1_555
N1 P4 1.760866 1_555
N1 P3 1.760866 1_555
N1 Na1 2.625436 1_555
N2 P7 1.760866 1_555
N2 P6 1.760866 1_555
N2 P8 1.760866 1_555
N2 Na2 2.625436 1_555
N3 P11 1.760866 1_555
N3 P10 1.760866 1_555
N3 P9 1.760866 1_555
N3 Na3 2.625436 1_555
O0 P3 1.530729 1_555
O1 P7 1.530729 1_555
O2 P11 1.530729 1_565
O3 P0 1.530729 1_555
O4 P10 1.530729 1_655
O5 P8 1.530729 1_555
O6 P9 1.530729 1_556
O7 P1 1.530729 1_555
O8 P5 1.530729 1_555
O9 P6 1.530729 1_554
O10 P4 1.530729 1_455
O11 P2 1.530729 1_545
O12 P0 1.536733 1_555
O13 P1 1.536733 1_555
O14 P2 1.536733 1_555
O15 P3 1.536733 1_555
O16 P4 1.536733 1_555
O17 P5 1.536733 1_555
O18 P6 1.536733 1_555
O19 P7 1.536733 1_555
O20 P8 1.536733 1_555
O21 P9 1.536733 1_555
O22 P10 1.536733 1_555
O23 P11 1.536733 1_555
O24 P0 1.533710 1_555
O25 P1 1.533710 1_555
O26 P2 1.533710 1_555
O27 P3 1.533710 1_555
O28 P4 1.533710 1_555
O29 P5 1.533710 1_555
O30 P6 1.533710 1_555
O31 P7 1.533710 1_555
O32 P8 1.533710 1_555
O33 P9 1.533710 1_555
O34 P10 1.533710 1_555
O35 P11 1.533710 1_555
