# generated using pymatgen
data_Ca2CuAs2(H2O5)2
_symmetry_space_group_name_H-M   'P 1'
_cell_length_a   12.85515100
_cell_length_b   5.88120900
_cell_length_c   6.02009104
_cell_angle_alpha   68.81142093
_cell_angle_beta   90.00000000
_cell_angle_gamma   90.00000000
_symmetry_Int_Tables_number   1
_chemical_formula_structural   Ca2CuAs2(H2O5)2
_chemical_formula_sum   'Ca4 Cu2 As4 H8 O20'
_cell_volume   424.37246164
_cell_formula_units_Z   2
loop_
 _symmetry_equiv_pos_site_id
 _symmetry_equiv_pos_as_xyz
  1  'x, y, z'
loop_
 _atom_site_type_symbol
 _atom_site_label
 _atom_site_symmetry_multiplicity
 _atom_site_fract_x
 _atom_site_fract_y
 _atom_site_fract_z
 _atom_site_occupancy
  Ca  Ca0  1  0.62211000  0.28049600  0.56437500  1
  Ca  Ca1  1  0.12211000  0.21950400  0.43562500  1
  Ca  Ca2  1  0.37789000  0.71950400  0.43562500  1
  Ca  Ca3  1  0.87789000  0.78049600  0.56437500  1
  Cu  Cu0  1  0.50000000  0.50000000  0.00000000  1
  Cu  Cu1  1  0.00000000  0.00000000  0.00000000  1
  As  As0  1  0.62232300  0.95319900  0.22808800  1
  As  As1  1  0.12232300  0.54680100  0.77191200  1
  As  As2  1  0.37767700  0.04680100  0.77191200  1
  As  As3  1  0.87767700  0.45319900  0.22808800  1
  H  H0  1  0.64246600  0.70186100  0.70235300  1
  H  H1  1  0.14246600  0.79813900  0.29764700  1
  H  H2  1  0.35753400  0.29813900  0.29764700  1
  H  H3  1  0.85753400  0.20186100  0.70235300  1
  H  H4  1  0.70621600  0.50929500  0.91047200  1
  H  H5  1  0.20621600  0.99070500  0.08952800  1
  H  H6  1  0.29378400  0.49070500  0.08952800  1
  H  H7  1  0.79378400  0.00929500  0.91047200  1
  O  O0  1  0.53806300  0.18336600  0.23884000  1
  O  O1  1  0.03806300  0.31663400  0.76116000  1
  O  O2  1  0.46193700  0.81663400  0.76116000  1
  O  O3  1  0.96193700  0.68336600  0.23884000  1
  O  O4  1  0.55321900  0.68592600  0.30906800  1
  O  O5  1  0.05321900  0.81407400  0.69093200  1
  O  O6  1  0.44678100  0.31407400  0.69093200  1
  O  O7  1  0.94678100  0.18592600  0.30906800  1
  O  O8  1  0.67837000  0.01757600  0.95479200  1
  O  O9  1  0.17837000  0.48242400  0.04520800  1
  O  O10  1  0.32163000  0.98242400  0.04520800  1
  O  O11  1  0.82163000  0.51757600  0.95479200  1
  O  O12  1  0.70679000  0.94318100  0.45528700  1
  O  O13  1  0.20679000  0.55681900  0.54471300  1
  O  O14  1  0.29321000  0.05681900  0.54471300  1
  O  O15  1  0.79321000  0.44318100  0.45528700  1
  O  O16  1  0.63547200  0.53333900  0.82208600  1
  O  O17  1  0.13547200  0.96666100  0.17791400  1
  O  O18  1  0.36452800  0.46666100  0.17791400  1
  O  O19  1  0.86452800  0.03333900  0.82208600  1
loop_
_geom_bond_atom_site_label_1
_geom_bond_atom_site_label_2
_geom_bond_distance
_geom_bond_site_symmetry_2
Ca0 O15 2.393821 1_555
Ca0 O6 2.410022 1_555
Ca0 O8 2.410608 1_555
Ca0 O0 2.478616 1_555
Ca0 O4 2.486531 1_555
Ca0 O16 2.513050 1_555
Ca0 O12 2.548253 1_545
Ca1 O14 2.393821 1_555
Ca1 O7 2.410022 1_455
Ca1 O9 2.410608 1_555
Ca1 O1 2.478616 1_555
Ca1 O5 2.486531 1_545
Ca1 O17 2.513050 1_545
Ca1 O13 2.548253 1_555
Ca2 O13 2.393821 1_555
Ca2 O4 2.410022 1_555
Ca2 O10 2.410608 1_555
Ca2 O2 2.478616 1_555
Ca2 O6 2.486531 1_555
Ca2 O18 2.513050 1_555
Ca2 O14 2.548253 1_565
Ca3 O12 2.393821 1_555
Ca3 O5 2.410022 1_655
Ca3 O11 2.410608 1_555
Ca3 O3 2.478616 1_555
Ca3 O7 2.486531 1_565
Ca3 O19 2.513050 1_565
Ca3 O15 2.548253 1_555
Cu0 O0 1.959344 1_555
Cu0 O2 1.959344 1_554
Cu0 O18 2.016599 1_555
Cu0 O16 2.016599 1_554
Cu0 O6 2.568333 1_554
Cu0 O4 2.568333 1_555
Cu1 O3 1.959344 1_445
Cu1 O1 1.959344 1_554
Cu1 O17 2.016599 1_545
Cu1 O19 2.016599 1_454
Cu1 O7 2.568333 1_455
Cu1 O5 2.568333 1_544
As0 O8 1.708527 1_564
As0 O4 1.715722 1_555
As0 O12 1.730613 1_555
As0 O0 1.753052 1_565
As1 O9 1.708527 1_556
As1 O5 1.715722 1_555
As1 O13 1.730613 1_555
As1 O1 1.753052 1_555
As2 O10 1.708527 1_546
As2 O6 1.715722 1_555
As2 O14 1.730613 1_555
As2 O2 1.753052 1_545
As3 O11 1.708527 1_554
As3 O7 1.715722 1_555
As3 O15 1.730613 1_555
As3 O3 1.753052 1_555
H0 O16 0.996757 1_555
H1 O17 0.996757 1_555
H2 O18 0.996757 1_555
H3 O19 0.996757 1_555
H4 O16 1.037198 1_555
H4 O11 1.511361 1_555
H5 O17 1.037198 1_555
H5 O10 1.511361 1_555
H6 O18 1.037198 1_555
H6 O9 1.511361 1_555
H7 O19 1.037198 1_555
H7 O8 1.511361 1_555
