# generated using pymatgen
data_YbYAl4
_symmetry_space_group_name_H-M   'P 1'
_cell_length_a   5.59855754
_cell_length_b   5.59855754
_cell_length_c   5.59855754
_cell_angle_alpha   60.00000000
_cell_angle_beta   60.00000000
_cell_angle_gamma   60.00000000
_symmetry_Int_Tables_number   1
_chemical_formula_structural   YbYAl4
_chemical_formula_sum   'Yb1 Y1 Al4'
_cell_volume   124.08332999
_cell_formula_units_Z   1
loop_
 _symmetry_equiv_pos_site_id
 _symmetry_equiv_pos_as_xyz
  1  'x, y, z'
loop_
 _atom_site_type_symbol
 _atom_site_label
 _atom_site_symmetry_multiplicity
 _atom_site_fract_x
 _atom_site_fract_y
 _atom_site_fract_z
 _atom_site_occupancy
  Yb  Yb0  1  0.00000000  0.00000000  0.00000000  1
  Y  Y0  1  0.25000000  0.25000000  0.25000000  1
  Al  Al0  1  0.62496300  0.62496300  0.12511100  1
  Al  Al1  1  0.62496300  0.12511100  0.62496300  1
  Al  Al2  1  0.12511100  0.62496300  0.62496300  1
  Al  Al3  1  0.62496300  0.62496300  0.62496300  1
loop_
_geom_bond_atom_site_label_1
_geom_bond_atom_site_label_2
_geom_bond_distance
_geom_bond_site_symmetry_2
Y0 Yb0 3.428402 1_655
Y0 Yb0 3.428402 1_565
Y0 Yb0 3.428402 1_555
Y0 Yb0 3.428402 1_556
Al0 Al2 2.798450 1_555
Al0 Al3 2.798450 1_555
Al0 Al1 2.798450 1_555
Al0 Al1 2.800107 1_564
Al0 Al3 2.800107 1_554
Al0 Al2 2.800107 1_654
Al0 Y0 3.282357 1_565
Al0 Y0 3.282357 1_655
Al0 Y0 3.282357 1_555
Al0 Yb0 3.282534 1_665
Al0 Yb0 3.282534 1_655
Al0 Yb0 3.282534 1_565
Al1 Al2 2.798450 1_555
Al1 Al3 2.798450 1_555
Al1 Al3 2.800107 1_545
Al1 Al2 2.800107 1_645
Al1 Y0 3.282357 1_556
Al1 Y0 3.282357 1_655
Al1 Y0 3.282357 1_555
Al1 Yb0 3.282534 1_656
Al1 Yb0 3.282534 1_655
Al1 Yb0 3.282534 1_556
Al2 Al3 2.798450 1_555
Al2 Al3 2.800107 1_455
Al2 Y0 3.282357 1_556
Al2 Y0 3.282357 1_565
Al2 Y0 3.282357 1_555
Al2 Yb0 3.282534 1_566
Al2 Yb0 3.282534 1_556
Al2 Yb0 3.282534 1_565
Al3 Y0 3.282357 1_655
Al3 Y0 3.282357 1_556
Al3 Y0 3.282357 1_565
Al3 Yb0 3.282534 1_665
Al3 Yb0 3.282534 1_566
Al3 Yb0 3.282534 1_656
