# generated using pymatgen
data_Li7Mn2(CoO4)3
_symmetry_space_group_name_H-M   'P 1'
_cell_length_a   2.92119600
_cell_length_b   5.10357500
_cell_length_c   14.33501525
_cell_angle_alpha   89.00138519
_cell_angle_beta   90.00000000
_cell_angle_gamma   90.00000000
_symmetry_Int_Tables_number   1
_chemical_formula_structural   Li7Mn2(CoO4)3
_chemical_formula_sum   'Li7 Mn2 Co3 O12'
_cell_volume   213.68172985
_cell_formula_units_Z   1
loop_
 _symmetry_equiv_pos_site_id
 _symmetry_equiv_pos_as_xyz
  1  'x, y, z'
loop_
 _atom_site_type_symbol
 _atom_site_label
 _atom_site_symmetry_multiplicity
 _atom_site_fract_x
 _atom_site_fract_y
 _atom_site_fract_z
 _atom_site_occupancy
  Li  Li0  1  0.00000000  0.00500100  0.49255400  1
  Li  Li1  1  0.50000000  0.82299000  0.17368600  1
  Li  Li2  1  0.00000000  0.65567400  0.83199900  1
  Li  Li3  1  0.00000000  0.33760900  0.17734500  1
  Li  Li4  1  0.50000000  0.17768800  0.83469300  1
  Li  Li5  1  0.50000000  0.50144500  0.48961800  1
  Li  Li6  1  0.00000000  0.66599600  0.33229900  1
  Mn  Mn0  1  0.00000000  0.99877600  0.00143700  1
  Mn  Mn1  1  0.50000000  0.83363000  0.66529700  1
  Co  Co0  1  0.50000000  0.49921600  0.00189300  1
  Co  Co1  1  0.00000000  0.33368300  0.66543300  1
  Co  Co2  1  0.50000000  0.16641300  0.33333000  1
  O  O0  1  0.00000000  0.01844400  0.25832600  1
  O  O1  1  0.50000000  0.85467200  0.92623800  1
  O  O2  1  0.00000000  0.69405100  0.58934300  1
  O  O3  1  0.00000000  0.31142600  0.92317000  1
  O  O4  1  0.50000000  0.15051000  0.59223600  1
  O  O5  1  0.50000000  0.45589600  0.25934300  1
  O  O6  1  0.00000000  0.97011000  0.74108200  1
  O  O7  1  0.50000000  0.87821200  0.40554200  1
  O  O8  1  0.00000000  0.68937300  0.07884200  1
  O  O9  1  0.00000000  0.31938000  0.40891200  1
  O  O10  1  0.50000000  0.14247000  0.07470600  1
  O  O11  1  0.50000000  0.51733600  0.74267700  1
loop_
_geom_bond_atom_site_label_1
_geom_bond_atom_site_label_2
_geom_bond_distance
_geom_bond_site_symmetry_2
Li0 O9 1.986165 1_555
Li0 O7 2.033714 1_445
Li0 O7 2.033714 1_545
Li0 O2 2.089679 1_545
Li0 O4 2.182588 1_455
Li0 O4 2.182588 1_555
Li1 O8 2.116405 1_555
Li1 O8 2.116405 1_655
Li1 O10 2.142680 1_565
Li1 O0 2.154693 1_665
Li1 O0 2.154693 1_565
Li1 O5 2.222051 1_555
Li2 O6 2.049609 1_555
Li2 O11 2.074325 1_455
Li2 O11 2.074325 1_555
Li2 O3 2.171343 1_555
Li2 O1 2.244458 1_455
Li2 O1 2.244458 1_555
Li3 O5 1.975901 1_555
Li3 O5 1.975901 1_455
Li3 O0 1.983672 1_555
Li3 O8 2.264606 1_555
Li3 O10 2.311075 1_555
Li3 O10 2.311075 1_455
Li4 O3 2.058645 1_655
Li4 O3 2.058645 1_555
Li4 O1 2.089113 1_545
Li4 O11 2.159847 1_555
Li4 O6 2.259633 1_545
Li4 O6 2.259633 1_645
Li5 O9 2.091092 1_655
Li5 O9 2.091092 1_555
Li5 O7 2.251486 1_555
Li5 O2 2.278643 1_655
Li5 O2 2.278643 1_555
Li5 O4 2.297795 1_555
Li6 O9 2.065847 1_555
Li6 O0 2.072065 1_565
Li6 O5 2.101411 1_555
Li6 O5 2.101411 1_455
Li6 O7 2.109117 1_455
Li6 O7 2.109117 1_555
Mn0 O8 1.914048 1_555
Mn0 O3 1.934537 1_564
Mn0 O10 1.949656 1_565
Mn0 O10 1.949656 1_465
Mn0 O1 1.965680 1_554
Mn0 O1 1.965680 1_454
Mn1 O4 1.911352 1_565
Mn1 O11 1.942613 1_555
Mn1 O6 1.955787 1_655
Mn1 O6 1.955787 1_555
Mn1 O2 1.962987 1_555
Mn1 O2 1.962987 1_655
Co0 O8 2.080684 1_555
Co0 O8 2.080684 1_655
Co0 O10 2.082811 1_555
Co0 O3 2.088798 1_654
Co0 O3 2.088798 1_554
Co0 O1 2.097270 1_554
Co1 O4 2.035300 1_455
Co1 O4 2.035300 1_555
Co1 O11 2.067397 1_555
Co1 O11 2.067397 1_455
Co1 O2 2.121872 1_555
Co1 O6 2.132794 1_545
Co2 O7 1.783788 1_545
Co2 O5 1.803599 1_555
Co2 O0 1.971789 1_555
Co2 O0 1.971789 1_655
Co2 O9 1.986503 1_555
Co2 O9 1.986503 1_655
