# generated using pymatgen
data_Fe4CoB2P
_symmetry_space_group_name_H-M   'P 1'
_cell_length_a   5.35166900
_cell_length_b   5.35166900
_cell_length_c   6.45714418
_cell_angle_alpha   114.48148321
_cell_angle_beta   114.48148321
_cell_angle_gamma   90.00000000
_symmetry_Int_Tables_number   1
_chemical_formula_structural   Fe4CoB2P
_chemical_formula_sum   'Fe8 Co2 B4 P2'
_cell_volume   149.84828810
_cell_formula_units_Z   2
loop_
 _symmetry_equiv_pos_site_id
 _symmetry_equiv_pos_as_xyz
  1  'x, y, z'
loop_
 _atom_site_type_symbol
 _atom_site_label
 _atom_site_symmetry_multiplicity
 _atom_site_fract_x
 _atom_site_fract_y
 _atom_site_fract_z
 _atom_site_occupancy
  Fe  Fe0  1  0.02851200  0.52851200  0.71933500  1
  Fe  Fe1  1  0.69082400  0.19082400  0.71933500  1
  Fe  Fe2  1  0.19082400  0.02851200  0.71933500  1
  Fe  Fe3  1  0.52851200  0.69082400  0.71933500  1
  Fe  Fe4  1  0.97148800  0.47148800  0.28066500  1
  Fe  Fe5  1  0.30917600  0.80917600  0.28066500  1
  Fe  Fe6  1  0.80917600  0.97148800  0.28066500  1
  Fe  Fe7  1  0.47148800  0.30917600  0.28066500  1
  Co  Co0  1  0.50000000  0.50000000  0.00000000  1
  Co  Co1  1  0.00000000  0.00000000  0.00000000  1
  B  B0  1  0.37873800  0.87873800  0.00000000  1
  B  B1  1  0.62126200  0.12126200  0.00000000  1
  B  B2  1  0.12126200  0.37873800  0.00000000  1
  B  B3  1  0.87873800  0.62126200  0.00000000  1
  P  P0  1  0.25000000  0.25000000  0.50000000  1
  P  P1  1  0.75000000  0.75000000  0.50000000  1
loop_
_geom_bond_atom_site_label_1
_geom_bond_atom_site_label_2
_geom_bond_distance
_geom_bond_site_symmetry_2
Fe0 P1 2.296571 1_455
Fe0 P0 2.296571 1_555
Fe1 P0 2.296573 1_555
Fe1 P1 2.296573 1_545
Fe2 P0 2.296569 1_555
Fe2 P1 2.296575 1_445
Fe3 P1 2.296569 1_555
Fe3 P0 2.296575 1_555
Fe4 P1 2.296571 1_555
Fe4 P0 2.296571 1_655
Fe5 P0 2.296573 1_565
Fe5 P1 2.296573 1_555
Fe6 P1 2.296569 1_555
Fe6 P0 2.296575 1_665
Fe7 P0 2.296569 1_555
Fe7 P1 2.296575 1_555
Co0 Fe2 2.472583 1_554
Co0 Fe6 2.472583 1_555
Co0 Fe0 2.472585 1_554
Co0 Fe4 2.472585 1_555
Co0 Fe1 2.472587 1_554
Co0 Fe5 2.472587 1_555
Co0 Fe7 2.472589 1_555
Co0 Fe3 2.472589 1_554
Co0 P0 2.616034 1_554
Co0 P1 2.616034 1_555
Co1 Fe3 2.472583 1_444
Co1 Fe7 2.472583 1_555
Co1 Fe4 2.472585 1_455
Co1 Fe0 2.472585 1_544
Co1 Fe1 2.472587 1_454
Co1 Fe5 2.472587 1_545
Co1 Fe6 2.472589 1_445
Co1 Fe2 2.472589 1_554
Co1 P0 2.616034 1_555
Co1 P1 2.616034 1_444
B0 B1 1.835519 1_565
B0 Co1 2.128235 1_565
B0 Co0 2.128235 1_555
B0 Fe7 2.152120 1_565
B0 Fe6 2.152120 1_555
B0 Fe3 2.152123 1_554
B0 Fe2 2.152123 1_564
B0 Fe0 2.163305 1_554
B0 Fe5 2.163310 1_555
B1 Co1 2.128235 1_655
B1 Co0 2.128235 1_555
B1 Fe2 2.152120 1_554
B1 Fe3 2.152120 1_544
B1 Fe7 2.152123 1_555
B1 Fe6 2.152123 1_545
B1 Fe4 2.163305 1_555
B1 Fe1 2.163310 1_554
B2 B3 1.835519 1_455
B2 Co1 2.128235 1_555
B2 Co0 2.128235 1_555
B2 Fe5 2.152119 1_555
B2 Fe1 2.152119 1_454
B2 Fe0 2.152124 1_554
B2 Fe4 2.152124 1_455
B2 Fe7 2.163308 1_555
B2 Fe2 2.163308 1_554
B3 Co1 2.128235 1_665
B3 Co0 2.128235 1_555
B3 Fe5 2.152119 1_655
B3 Fe1 2.152119 1_554
B3 Fe4 2.152124 1_555
B3 Fe0 2.152124 1_654
B3 Fe6 2.163308 1_555
B3 Fe3 2.163308 1_554
