# generated using pymatgen
data_SrMg6Sb
_symmetry_space_group_name_H-M   'P 1'
_cell_length_a   5.19019000
_cell_length_b   6.95460100
_cell_length_c   11.65767600
_cell_angle_alpha   90.00000000
_cell_angle_beta   90.00000000
_cell_angle_gamma   90.00000000
_symmetry_Int_Tables_number   1
_chemical_formula_structural   SrMg6Sb
_chemical_formula_sum   'Sr2 Mg12 Sb2'
_cell_volume   420.79198217
_cell_formula_units_Z   2
loop_
 _symmetry_equiv_pos_site_id
 _symmetry_equiv_pos_as_xyz
  1  'x, y, z'
loop_
 _atom_site_type_symbol
 _atom_site_label
 _atom_site_symmetry_multiplicity
 _atom_site_fract_x
 _atom_site_fract_y
 _atom_site_fract_z
 _atom_site_occupancy
  Sr  Sr0  1  0.00000000  0.50000000  0.32841500  1
  Sr  Sr1  1  0.00000000  0.00000000  0.82841500  1
  Mg  Mg0  1  0.00000000  0.24681300  0.07833200  1
  Mg  Mg1  1  0.00000000  0.75318700  0.07833200  1
  Mg  Mg2  1  0.00000000  0.50000000  0.83939400  1
  Mg  Mg3  1  0.50000000  0.27667100  0.92577100  1
  Mg  Mg4  1  0.50000000  0.72332900  0.92577100  1
  Mg  Mg5  1  0.50000000  0.50000000  0.66819300  1
  Mg  Mg6  1  0.00000000  0.74681300  0.57833200  1
  Mg  Mg7  1  0.00000000  0.25318700  0.57833200  1
  Mg  Mg8  1  0.00000000  0.00000000  0.33939400  1
  Mg  Mg9  1  0.50000000  0.77667100  0.42577100  1
  Mg  Mg10  1  0.50000000  0.22332900  0.42577100  1
  Mg  Mg11  1  0.50000000  0.00000000  0.16819300  1
  Sb  Sb0  1  0.50000000  0.50000000  0.15579300  1
  Sb  Sb1  1  0.50000000  0.00000000  0.65579300  1
loop_
_geom_bond_atom_site_label_1
_geom_bond_atom_site_label_2
_geom_bond_distance
_geom_bond_site_symmetry_2
Mg0 Sb0 3.263499 1_455
Mg0 Sb0 3.263499 1_555
Mg0 Mg11 3.283024 1_555
Mg0 Mg11 3.283024 1_455
Mg0 Mg2 3.295340 1_554
Mg0 Sr1 3.381497 1_554
Mg0 Sr0 3.405869 1_555
Mg0 Mg8 3.494061 1_555
Mg1 Sb0 3.263499 1_555
Mg1 Sb0 3.263499 1_455
Mg1 Mg11 3.283024 1_465
Mg1 Mg11 3.283024 1_565
Mg1 Mg2 3.295340 1_554
Mg1 Sr1 3.381497 1_564
Mg1 Sr0 3.405869 1_555
Mg1 Mg8 3.494061 1_565
Mg2 Mg4 3.187600 1_455
Mg2 Mg4 3.187600 1_555
Mg2 Mg3 3.187600 1_555
Mg2 Mg3 3.187600 1_455
Mg2 Mg5 3.273799 1_455
Mg2 Mg5 3.273799 1_555
Mg2 Sr1 3.479655 1_565
Mg2 Sr1 3.479655 1_555
Mg2 Mg6 3.494061 1_555
Mg2 Mg7 3.494061 1_555
Mg3 Sb0 3.098851 1_556
Mg3 Mg5 3.380664 1_555
Mg3 Sr1 3.424167 1_655
Mg3 Sr1 3.424167 1_555
Mg4 Sb0 3.098851 1_556
Mg4 Mg5 3.380664 1_555
Mg4 Sr1 3.424167 1_565
Mg4 Sr1 3.424167 1_665
Mg5 Mg6 3.283024 1_555
Mg5 Mg6 3.283024 1_655
Mg5 Mg7 3.283024 1_555
Mg5 Mg7 3.283024 1_655
Mg5 Mg9 3.418920 1_555
Mg5 Sb1 3.480304 1_555
Mg5 Sb1 3.480304 1_565
Mg6 Sb1 3.263499 1_465
Mg6 Sb1 3.263499 1_565
Mg6 Mg8 3.295340 1_565
Mg6 Sr0 3.381497 1_555
Mg6 Sr1 3.405869 1_565
Mg7 Sb1 3.263499 1_455
Mg7 Sb1 3.263499 1_555
Mg7 Mg8 3.295340 1_555
Mg7 Sr0 3.381497 1_555
Mg7 Sr1 3.405869 1_555
Mg8 Mg9 3.187600 1_445
Mg8 Mg9 3.187600 1_545
Mg8 Sr0 3.479655 1_555
Mg8 Sr0 3.479655 1_545
Mg9 Sb1 3.098851 1_565
Mg9 Sr0 3.424167 1_655
Mg9 Sr0 3.424167 1_555
Mg10 Sb1 3.098851 1_555
Mg10 Mg8 3.187600 1_555
Mg10 Mg8 3.187600 1_655
Mg10 Mg11 3.380664 1_555
Mg10 Mg5 3.418920 1_555
Mg10 Sr0 3.424167 1_655
Mg10 Sr0 3.424167 1_555
Mg11 Mg8 3.273799 1_555
Mg11 Mg8 3.273799 1_655
Mg11 Mg9 3.380664 1_545
Mg11 Mg4 3.418920 1_544
Mg11 Mg3 3.418920 1_554
Mg11 Sb0 3.480304 1_555
Mg11 Sb0 3.480304 1_545
Sb0 Sr0 3.283924 1_555
Sb0 Sr0 3.283924 1_655
Sb1 Sr1 3.283924 1_555
Sb1 Sr1 3.283924 1_655
