# generated using pymatgen
data_Cs4Co3F10
_symmetry_space_group_name_H-M   'P 1'
_cell_length_a   7.85111345
_cell_length_b   7.85111345
_cell_length_c   13.80303679
_cell_angle_alpha   90.00000000
_cell_angle_beta   90.00000000
_cell_angle_gamma   133.55594445
_symmetry_Int_Tables_number   1
_chemical_formula_structural   Cs4Co3F10
_chemical_formula_sum   'Cs8 Co6 F20'
_cell_volume   616.59011073
_cell_formula_units_Z   2
loop_
 _symmetry_equiv_pos_site_id
 _symmetry_equiv_pos_as_xyz
  1  'x, y, z'
loop_
 _atom_site_type_symbol
 _atom_site_label
 _atom_site_symmetry_multiplicity
 _atom_site_fract_x
 _atom_site_fract_y
 _atom_site_fract_z
 _atom_site_occupancy
  Cs  Cs0  1  0.04366990  0.95633010  0.63900284  1
  Cs  Cs1  1  0.95633010  0.04366990  0.36099716  1
  Cs  Cs2  1  0.45633010  0.54366990  0.13900284  1
  Cs  Cs3  1  0.54366990  0.45633010  0.86099716  1
  Cs  Cs4  1  0.74413446  0.25586554  0.61150400  1
  Cs  Cs5  1  0.25586554  0.74413446  0.38849600  1
  Cs  Cs6  1  0.75586554  0.24413446  0.11150400  1
  Cs  Cs7  1  0.24413446  0.75586554  0.88849600  1
  Co  Co0  1  0.50000000  0.50000000  0.50000000  1
  Co  Co1  1  -0.00000000  -0.00000000  0.00000000  1
  Co  Co2  1  0.38115906  0.61884094  0.65204705  1
  Co  Co3  1  0.61884094  0.38115906  0.34795295  1
  Co  Co4  1  0.11884094  0.88115906  0.15204705  1
  Co  Co5  1  0.88115906  0.11884094  0.84795295  1
  F  F0  1  0.63609112  0.86390888  0.75000000  1
  F  F1  1  0.86390888  0.63609112  0.25000000  1
  F  F2  1  0.36390888  0.13609112  0.25000000  1
  F  F3  1  0.13609112  0.36390888  0.75000000  1
  F  F4  1  0.24722753  0.75277247  0.64678519  1
  F  F5  1  0.75277247  0.24722753  0.35321481  1
  F  F6  1  0.25277247  0.74722753  0.14678519  1
  F  F7  1  0.74722753  0.25277247  0.85321481  1
  F  F8  1  0.52635015  0.47364985  0.64595343  1
  F  F9  1  0.47364985  0.52635015  0.35404657  1
  F  F10  1  0.97364985  0.02635015  0.14595343  1
  F  F11  1  0.02635015  0.97364985  0.85404657  1
  F  F12  1  0.61535901  0.81651150  0.53650856  1
  F  F13  1  0.81651150  0.61535901  0.46349144  1
  F  F14  1  0.31651150  0.11535901  0.03650856  1
  F  F15  1  0.11535901  0.31651150  0.96349144  1
  F  F16  1  0.38464099  0.18348850  0.46349144  1
  F  F17  1  0.18348850  0.38464099  0.53650856  1
  F  F18  1  0.68348850  0.88464099  0.96349144  1
  F  F19  1  0.88464099  0.68348850  0.03650856  1
loop_
_geom_bond_atom_site_label_1
_geom_bond_atom_site_label_2
_geom_bond_distance
_geom_bond_site_symmetry_2
Cs0 F4 2.939319 1_555
Cs0 F11 2.978760 1_555
Cs0 F12 3.070373 1_455
Cs0 F17 3.070373 1_565
Cs0 F13 3.104255 1_455
Cs0 F16 3.104255 1_565
Cs0 F8 3.107211 1_455
Cs0 F8 3.107211 1_565
Cs0 F3 3.148589 1_565
Cs0 F0 3.148589 1_455
Cs1 F5 2.939319 1_555
Cs1 F10 2.978760 1_555
Cs1 F13 3.070373 1_545
Cs1 F16 3.070373 1_655
Cs1 F17 3.104255 1_655
Cs1 F12 3.104255 1_545
Cs1 F9 3.107211 1_655
Cs1 F9 3.107211 1_545
Cs1 F2 3.148589 1_655
Cs1 F1 3.148589 1_545
Cs2 F6 2.939319 1_555
Cs2 F9 2.978760 1_555
Cs2 F14 3.070373 1_555
Cs2 F19 3.070373 1_555
Cs2 F15 3.104255 1_554
Cs2 F18 3.104255 1_554
Cs2 F10 3.107211 1_455
Cs2 F10 3.107211 1_565
Cs2 F2 3.148589 1_555
Cs2 F1 3.148589 1_555
Cs3 F7 2.939319 1_555
Cs3 F8 2.978760 1_555
Cs3 F15 3.070373 1_555
Cs3 F18 3.070373 1_555
Cs3 F14 3.104255 1_556
Cs3 F19 3.104255 1_556
Cs3 F11 3.107211 1_545
Cs3 F11 3.107211 1_655
Cs3 F3 3.148589 1_555
Cs3 F0 3.148589 1_555
Cs4 F17 3.030853 1_655
Cs4 F12 3.030853 1_545
Cs4 F4 3.134045 1_655
Cs4 F4 3.134045 1_545
Cs4 F8 3.178418 1_555
Cs4 F0 3.200996 1_545
Cs4 F3 3.200996 1_655
Cs4 F13 3.201977 1_555
Cs4 F16 3.201977 1_555
Cs4 F7 3.336642 1_555
Cs4 F5 3.567354 1_555
Cs5 F16 3.030853 1_565
Cs5 F13 3.030853 1_455
Cs5 F5 3.134045 1_565
Cs5 F5 3.134045 1_455
Cs5 F9 3.178418 1_555
Cs5 F2 3.200996 1_565
Cs5 F1 3.200996 1_455
Cs5 F17 3.201977 1_555
Cs5 F12 3.201977 1_555
Cs5 F6 3.336642 1_555
Cs5 F4 3.567354 1_555
Cs6 F19 3.030853 1_555
Cs6 F14 3.030853 1_555
Cs6 F6 3.134045 1_655
Cs6 F6 3.134045 1_545
Cs6 F10 3.178418 1_555
Cs6 F1 3.200996 1_555
Cs6 F2 3.200996 1_555
Cs6 F18 3.201977 1_544
Cs6 F15 3.201977 1_654
Cs6 F5 3.336642 1_555
Cs6 F7 3.567354 1_554
Cs7 F18 3.030853 1_555
Cs7 F15 3.030853 1_555
Cs7 F7 3.134045 1_455
Cs7 F7 3.134045 1_565
Cs7 F11 3.178418 1_555
Cs7 F0 3.200996 1_555
Cs7 F3 3.200996 1_555
Cs7 F19 3.201977 1_456
Cs7 F14 3.201977 1_566
Cs7 F4 3.336642 1_555
Cs7 F6 3.567354 1_556
Co0 F13 2.036578 1_555
Co0 F12 2.036578 1_555
Co0 F16 2.036578 1_555
Co0 F17 2.036578 1_555
Co0 F9 2.050169 1_555
Co0 F8 2.050169 1_555
Co1 F14 2.036578 1_555
Co1 F15 2.036578 1_554
Co1 F19 2.036578 1_445
Co1 F18 2.036578 1_444
Co1 F11 2.050169 1_544
Co1 F10 2.050169 1_455
Co2 F4 1.934009 1_555
Co2 F0 2.056422 1_555
Co2 F3 2.056422 1_555
Co2 F8 2.096809 1_555
Co2 F17 2.097655 1_555
Co2 F12 2.097655 1_555
Co3 F5 1.934009 1_555
Co3 F2 2.056422 1_555
Co3 F1 2.056422 1_555
Co3 F9 2.096809 1_555
Co3 F16 2.097655 1_555
Co3 F13 2.097655 1_555
Co4 F6 1.934009 1_555
Co4 F1 2.056422 1_455
Co4 F2 2.056422 1_565
Co4 F10 2.096809 1_465
Co4 F14 2.097655 1_565
Co4 F19 2.097655 1_455
Co5 F7 1.934009 1_555
Co5 F0 2.056422 1_545
Co5 F3 2.056422 1_655
Co5 F11 2.096809 1_645
Co5 F15 2.097655 1_655
Co5 F18 2.097655 1_545
