# generated using pymatgen
data_H6PbCI3N
_symmetry_space_group_name_H-M   'P 1'
_cell_length_a   8.65008300
_cell_length_b   8.99139100
_cell_length_c   13.12265400
_cell_angle_alpha   90.00000000
_cell_angle_beta   90.00000000
_cell_angle_gamma   90.00000000
_symmetry_Int_Tables_number   1
_chemical_formula_structural   H6PbCI3N
_chemical_formula_sum   'H24 Pb4 C4 I12 N4'
_cell_volume   1020.63119132
_cell_formula_units_Z   4
loop_
 _symmetry_equiv_pos_site_id
 _symmetry_equiv_pos_as_xyz
  1  'x, y, z'
loop_
 _atom_site_type_symbol
 _atom_site_label
 _atom_site_symmetry_multiplicity
 _atom_site_fract_x
 _atom_site_fract_y
 _atom_site_fract_z
 _atom_site_occupancy
  H  H0  1  0.30379300  0.44129800  0.25000000  1
  H  H1  1  0.19620700  0.94129800  0.25000000  1
  H  H2  1  0.69620700  0.55870200  0.75000000  1
  H  H3  1  0.80379300  0.05870200  0.75000000  1
  H  H4  1  0.45318300  0.34456900  0.18125300  1
  H  H5  1  0.04681700  0.84456900  0.31874700  1
  H  H6  1  0.54681700  0.65543100  0.68125300  1
  H  H7  1  0.95318300  0.15543100  0.81874700  1
  H  H8  1  0.54681700  0.65543100  0.81874700  1
  H  H9  1  0.95318300  0.15543100  0.68125300  1
  H  H10  1  0.45318300  0.34456900  0.31874700  1
  H  H11  1  0.04681700  0.84456900  0.18125300  1
  H  H12  1  0.49614900  0.60951400  0.18580000  1
  H  H13  1  0.00385100  0.10951400  0.31420000  1
  H  H14  1  0.50385100  0.39048600  0.68580000  1
  H  H15  1  0.99614900  0.89048600  0.81420000  1
  H  H16  1  0.50385100  0.39048600  0.81420000  1
  H  H17  1  0.99614900  0.89048600  0.68580000  1
  H  H18  1  0.49614900  0.60951400  0.31420000  1
  H  H19  1  0.00385100  0.10951400  0.18580000  1
  H  H20  1  0.36049200  0.47824100  0.75000000  1
  H  H21  1  0.13950800  0.97824100  0.75000000  1
  H  H22  1  0.63950800  0.52175900  0.25000000  1
  H  H23  1  0.86049200  0.02175900  0.25000000  1
  Pb  Pb0  1  0.50000000  0.00000000  0.00000000  1
  Pb  Pb1  1  0.00000000  0.50000000  0.50000000  1
  Pb  Pb2  1  0.50000000  0.00000000  0.50000000  1
  Pb  Pb3  1  0.00000000  0.50000000  0.00000000  1
  C  C0  1  0.42599700  0.40849000  0.25000000  1
  C  C1  1  0.07400300  0.90849000  0.25000000  1
  C  C2  1  0.57400300  0.59151000  0.75000000  1
  C  C3  1  0.92599700  0.09151000  0.75000000  1
  I  I0  1  0.56927600  0.97307200  0.25000000  1
  I  I1  1  0.93072400  0.47307200  0.25000000  1
  I  I2  1  0.43072400  0.02692800  0.75000000  1
  I  I3  1  0.06927600  0.52692800  0.75000000  1
  I  I4  1  0.32637000  0.67944700  0.01757400  1
  I  I5  1  0.17363000  0.17944700  0.48242600  1
  I  I6  1  0.67363000  0.32055300  0.51757400  1
  I  I7  1  0.82637000  0.82055300  0.98242600  1
  I  I8  1  0.67363000  0.32055300  0.98242600  1
  I  I9  1  0.82637000  0.82055300  0.51757400  1
  I  I10  1  0.32637000  0.67944700  0.48242600  1
  I  I11  1  0.17363000  0.17944700  0.01757400  1
  N  N0  1  0.47882800  0.45399800  0.75000000  1
  N  N1  1  0.02117200  0.95399800  0.75000000  1
  N  N2  1  0.52117200  0.54600200  0.25000000  1
  N  N3  1  0.97882800  0.04600200  0.25000000  1
loop_
_geom_bond_atom_site_label_1
_geom_bond_atom_site_label_2
_geom_bond_distance
_geom_bond_site_symmetry_2
H12 N2 1.040541 1_555
H13 N3 1.040541 1_455
H14 N0 1.040541 1_555
H15 N1 1.040541 1_655
H16 N0 1.040541 1_555
H17 N1 1.040541 1_655
H18 N2 1.040541 1_555
H19 N3 1.040541 1_455
H20 N0 1.046568 1_555
H21 N1 1.046568 1_555
H22 N2 1.046568 1_555
H23 N3 1.046568 1_555
C0 H4 1.095211 1_555
C0 H10 1.095211 1_555
C0 H0 1.097463 1_555
C0 N2 1.485436 1_555
C1 H11 1.095211 1_555
C1 H5 1.095211 1_555
C1 H1 1.097463 1_555
C1 N3 1.485436 1_465
C2 H6 1.095211 1_555
C2 H8 1.095211 1_555
C2 H2 1.097463 1_555
C2 N0 1.485436 1_555
C3 H9 1.095211 1_555
C3 H7 1.095211 1_555
C3 H3 1.097463 1_555
C3 N1 1.485436 1_645
I0 Pb2 3.343721 1_565
I0 Pb0 3.343721 1_565
I1 Pb1 3.343721 1_655
I1 Pb3 3.343721 1_655
I2 Pb0 3.343721 1_556
I2 Pb2 3.343721 1_555
I3 Pb1 3.343721 1_555
I3 Pb3 3.343721 1_556
I4 Pb0 3.258237 1_565
I4 Pb3 3.259838 1_555
I5 Pb1 3.258237 1_555
I5 Pb2 3.259838 1_555
I6 Pb2 3.258237 1_555
I6 Pb1 3.259838 1_655
I7 Pb3 3.258237 1_656
I7 Pb0 3.259838 1_566
I8 Pb0 3.258237 1_556
I8 Pb3 3.259838 1_656
I9 Pb1 3.258237 1_655
I9 Pb2 3.259838 1_565
I10 Pb2 3.258237 1_565
I10 Pb1 3.259838 1_555
I11 Pb3 3.258237 1_555
I11 Pb0 3.259838 1_555
