# generated using pymatgen
data_Li4Mn3O7
_symmetry_space_group_name_H-M   'P 1'
_cell_length_a   6.00249700
_cell_length_b   6.54957740
_cell_length_c   7.77515998
_cell_angle_alpha   65.97121768
_cell_angle_beta   70.87096805
_cell_angle_gamma   75.27654119
_symmetry_Int_Tables_number   1
_chemical_formula_structural   Li4Mn3O7
_chemical_formula_sum   'Li8 Mn6 O14'
_cell_volume   261.17265489
_cell_formula_units_Z   2
loop_
 _symmetry_equiv_pos_site_id
 _symmetry_equiv_pos_as_xyz
  1  'x, y, z'
loop_
 _atom_site_type_symbol
 _atom_site_label
 _atom_site_symmetry_multiplicity
 _atom_site_fract_x
 _atom_site_fract_y
 _atom_site_fract_z
 _atom_site_occupancy
  Li  Li0  1  0.50000000  0.50000000  0.00000000  1
  Li  Li1  1  0.80349700  0.08442200  0.12515300  1
  Li  Li2  1  0.06820800  0.63881000  0.27345400  1
  Li  Li3  1  0.35742600  0.21159800  0.42890400  1
  Li  Li4  1  0.64257400  0.78840200  0.57109600  1
  Li  Li5  1  0.93179200  0.36119000  0.72654600  1
  Li  Li6  1  0.19650300  0.91557800  0.87484700  1
  Li  Li7  1  0.00000000  0.50000000  0.00000000  1
  Mn  Mn0  1  0.72445600  0.93064800  0.85706200  1
  Mn  Mn1  1  0.27554400  0.06935200  0.14293800  1
  Mn  Mn2  1  0.57943600  0.64022900  0.27931300  1
  Mn  Mn3  1  0.86276400  0.21761600  0.42280000  1
  Mn  Mn4  1  0.13723600  0.78238400  0.57720000  1
  Mn  Mn5  1  0.42056400  0.35977100  0.72068700  1
  O  O0  1  0.84945200  0.67291600  0.76761500  1
  O  O1  1  0.12191400  0.20276800  0.93731400  1
  O  O2  1  0.39497100  0.78172000  0.08383400  1
  O  O3  1  0.67482600  0.35190100  0.23372100  1
  O  O4  1  0.95598400  0.93261800  0.37760700  1
  O  O5  1  0.24072000  0.50603600  0.52272500  1
  O  O6  1  0.57273300  0.09609000  0.63215300  1
  O  O7  1  0.15054800  0.32708400  0.23238500  1
  O  O8  1  0.42726700  0.90391000  0.36784700  1
  O  O9  1  0.75928000  0.49396400  0.47727500  1
  O  O10  1  0.04401600  0.06738200  0.62239300  1
  O  O11  1  0.32517400  0.64809900  0.76627900  1
  O  O12  1  0.60502900  0.21828000  0.91616600  1
  O  O13  1  0.87808600  0.79723200  0.06268600  1
loop_
_geom_bond_atom_site_label_1
_geom_bond_atom_site_label_2
_geom_bond_distance
_geom_bond_site_symmetry_2
Li0 O12 2.084647 1_554
Li0 O2 2.084647 1_555
Li0 O11 2.154364 1_554
Li0 O3 2.154364 1_555
Li0 O0 2.450354 1_554
Li0 O7 2.450354 1_555
Li1 O13 2.036621 1_545
Li1 O1 2.094877 1_654
Li1 O12 2.098995 1_554
Li1 O3 2.113627 1_555
Li1 O4 2.191970 1_545
Li1 O8 2.608812 1_545
Li2 O13 2.074490 1_455
Li2 O7 2.104578 1_555
Li2 O9 2.143324 1_455
Li2 O2 2.193382 1_555
Li2 O4 2.250604 1_455
Li2 O5 2.251627 1_555
Li3 O7 2.067298 1_555
Li3 O10 2.141406 1_555
Li3 O6 2.146584 1_555
Li3 O3 2.153256 1_555
Li3 O8 2.163678 1_545
Li3 O5 2.205858 1_555
Li4 O0 2.067298 1_555
Li4 O4 2.141406 1_555
Li4 O8 2.146584 1_555
Li4 O11 2.153256 1_555
Li4 O6 2.163678 1_565
Li4 O9 2.205858 1_555
Li5 O1 2.074490 1_655
Li5 O0 2.104578 1_555
Li5 O5 2.143324 1_655
Li5 O12 2.193382 1_555
Li5 O10 2.250604 1_655
Li5 O9 2.251627 1_555
Li6 O1 2.036621 1_565
Li6 O13 2.094877 1_456
Li6 O2 2.098995 1_556
Li6 O11 2.113627 1_555
Li6 O10 2.191970 1_565
Li6 O6 2.608812 1_565
Li7 O0 2.060892 1_454
Li7 O7 2.060892 1_555
Li7 O1 2.092296 1_554
Li7 O13 2.092296 1_455
Li7 O11 2.292402 1_554
Li7 O3 2.292402 1_455
Mn0 O13 1.894443 1_556
Mn0 O0 1.966310 1_555
Mn0 O6 2.015069 1_565
Mn0 O12 2.019084 1_565
Mn0 O10 2.249253 1_665
Mn0 O2 2.294825 1_556
Mn1 O1 1.894443 1_554
Mn1 O7 1.966310 1_555
Mn1 O8 2.015069 1_545
Mn1 O2 2.019084 1_545
Mn1 O4 2.249253 1_445
Mn1 O12 2.294825 1_554
Mn2 O9 1.953114 1_555
Mn2 O2 1.956822 1_555
Mn2 O3 1.970326 1_555
Mn2 O8 2.011198 1_555
Mn2 O13 2.157662 1_555
Mn2 O5 2.349417 1_555
Mn3 O9 1.929149 1_555
Mn3 O3 1.933131 1_555
Mn3 O7 1.943933 1_655
Mn3 O4 1.948130 1_545
Mn3 O10 1.969514 1_655
Mn3 O6 2.026292 1_555
Mn4 O5 1.929149 1_555
Mn4 O11 1.933131 1_555
Mn4 O0 1.943933 1_455
Mn4 O10 1.948130 1_565
Mn4 O4 1.969514 1_455
Mn4 O8 2.026292 1_555
Mn5 O5 1.953114 1_555
Mn5 O12 1.956822 1_555
Mn5 O11 1.970326 1_555
Mn5 O6 2.011198 1_555
Mn5 O1 2.157662 1_555
Mn5 O9 2.349417 1_555
