# generated using pymatgen
data_NpAsS
_symmetry_space_group_name_H-M   'P 1'
_cell_length_a   3.88815802
_cell_length_b   3.88815802
_cell_length_c   8.49372409
_cell_angle_alpha   90.00000000
_cell_angle_beta   90.00000000
_cell_angle_gamma   90.00000000
_symmetry_Int_Tables_number   1
_chemical_formula_structural   NpAsS
_chemical_formula_sum   'Np2 As2 S2'
_cell_volume   128.40619092
_cell_formula_units_Z   2
loop_
 _symmetry_equiv_pos_site_id
 _symmetry_equiv_pos_as_xyz
  1  'x, y, z'
loop_
 _atom_site_type_symbol
 _atom_site_label
 _atom_site_symmetry_multiplicity
 _atom_site_fract_x
 _atom_site_fract_y
 _atom_site_fract_z
 _atom_site_occupancy
  Np  Np0  1  -0.00000000  0.50000000  0.71371251  1
  Np  Np1  1  0.50000000  0.00000000  0.28628749  1
  As  As0  1  0.50000000  0.50000000  0.00000000  1
  As  As1  1  0.00000000  0.00000000  0.00000000  1
  S  S0  1  -0.00000000  0.50000000  0.36925179  1
  S  S1  1  0.50000000  0.00000000  0.63074821  1
loop_
_geom_bond_atom_site_label_1
_geom_bond_atom_site_label_2
_geom_bond_distance
_geom_bond_site_symmetry_2
Np0 S1 2.838213 1_565
Np0 S1 2.838213 1_455
Np0 S1 2.838213 1_465
Np0 S1 2.838213 1_555
Np0 S0 2.925754 1_555
Np1 S0 2.838213 1_545
Np1 S0 2.838213 1_655
Np1 S0 2.838213 1_645
Np1 S0 2.838213 1_555
Np1 S1 2.925754 1_555
As0 As1 2.749343 1_655
As0 As1 2.749343 1_565
As0 As1 2.749343 1_665
As0 As1 2.749343 1_555
As0 Np0 3.113254 1_554
As0 Np0 3.113254 1_654
As0 Np1 3.113254 1_555
As0 Np1 3.113254 1_565
As1 Np0 3.113254 1_554
As1 Np0 3.113254 1_544
As1 Np1 3.113254 1_455
As1 Np1 3.113254 1_555
