# generated using pymatgen
data_CaAl2H4Pb2(O2F3)2
_symmetry_space_group_name_H-M   'P 1'
_cell_length_a   6.25261557
_cell_length_b   7.66852535
_cell_length_c   6.15063746
_cell_angle_alpha   85.23422212
_cell_angle_beta   107.15675544
_cell_angle_gamma   114.64581847
_symmetry_Int_Tables_number   1
_chemical_formula_structural   CaAl2H4Pb2(O2F3)2
_chemical_formula_sum   'Ca1 Al2 H4 Pb2 O4 F6'
_cell_volume   255.84855920
_cell_formula_units_Z   1
loop_
 _symmetry_equiv_pos_site_id
 _symmetry_equiv_pos_as_xyz
  1  'x, y, z'
loop_
 _atom_site_type_symbol
 _atom_site_label
 _atom_site_symmetry_multiplicity
 _atom_site_fract_x
 _atom_site_fract_y
 _atom_site_fract_z
 _atom_site_occupancy
  Ca  Ca0  1  0.04333500  0.59140200  0.54697900  1
  Al  Al0  1  0.22856500  0.66795300  0.12332200  1
  Al  Al1  1  0.77194500  0.32997700  0.88408900  1
  H  H0  1  0.22228500  0.38306400  0.93451500  1
  H  H1  1  0.77776200  0.60320400  0.06628500  1
  H  H2  1  0.29025000  0.95141800  0.88815800  1
  H  H3  1  0.70868100  0.02728800  0.08589500  1
  Pb  Pb0  1  0.78968200  0.90979600  0.65040900  1
  Pb  Pb1  1  0.19918600  0.15024900  0.36981700  1
  O  O0  1  0.13281000  0.46489100  0.90936200  1
  O  O1  1  0.87615500  0.52850200  0.11887700  1
  O  O2  1  0.16671400  0.81861500  0.87832600  1
  O  O3  1  0.84495900  0.13954600  0.05483300  1
  F  F0  1  0.25293800  0.83470700  0.34292300  1
  F  F1  1  0.74615100  0.21804300  0.61463100  1
  F  F2  1  0.25910500  0.50624500  0.37249600  1
  F  F3  1  0.72403700  0.51729800  0.68075700  1
  F  F4  1  0.55529800  0.76625600  0.17860300  1
  F  F5  1  0.45180900  0.22117400  0.86222400  1
loop_
_geom_bond_atom_site_label_1
_geom_bond_atom_site_label_2
_geom_bond_distance
_geom_bond_site_symmetry_2
Ca0 F3 2.220591 1_455
Ca0 F2 2.259146 1_555
Ca0 F0 2.305627 1_555
Ca0 O0 2.362161 1_555
Ca0 O2 2.515138 1_555
Ca0 O1 2.534804 1_455
Ca0 F1 2.764865 1_455
Al0 F4 1.790483 1_555
Al0 F0 1.867038 1_555
Al0 O2 1.869397 1_554
Al0 O0 1.900848 1_554
Al0 F2 1.905795 1_555
Al0 O1 2.000935 1_455
Al1 F5 1.785472 1_555
Al1 O3 1.860695 1_556
Al1 F1 1.863548 1_555
Al1 F3 1.885892 1_555
Al1 O1 1.952054 1_556
Al1 O0 2.014579 1_655
H0 O0 0.977884 1_555
H1 O1 0.978272 1_555
H2 O2 0.981859 1_555
H3 O3 0.980089 1_555
O2 Pb0 2.696989 1_455
O3 Pb1 2.451302 1_655
F0 Pb1 2.602507 1_565
F1 Pb0 2.474850 1_545
F2 Pb1 2.596951 1_555
