# generated using pymatgen
data_Fe2O3
_symmetry_space_group_name_H-M   'P 1'
_cell_length_a   8.52521600
_cell_length_b   8.52521600
_cell_length_c   25.59301600
_cell_angle_alpha   90.00000000
_cell_angle_beta   90.00000000
_cell_angle_gamma   90.00000000
_symmetry_Int_Tables_number   1
_chemical_formula_structural   Fe2O3
_chemical_formula_sum   'Fe64 O96'
_cell_volume   1860.08268859
_cell_formula_units_Z   32
loop_
 _symmetry_equiv_pos_site_id
 _symmetry_equiv_pos_as_xyz
  1  'x, y, z'
loop_
 _atom_site_type_symbol
 _atom_site_label
 _atom_site_symmetry_multiplicity
 _atom_site_fract_x
 _atom_site_fract_y
 _atom_site_fract_z
 _atom_site_occupancy
  Fe  Fe0  1  0.24738500  0.51341500  0.71079900  1
  Fe  Fe1  1  0.75261500  0.48658500  0.21079900  1
  Fe  Fe2  1  0.01341500  0.25261500  0.46079900  1
  Fe  Fe3  1  0.98658500  0.74738500  0.96079900  1
  Fe  Fe4  1  0.48658500  0.75261500  0.78920100  1
  Fe  Fe5  1  0.51341500  0.24738500  0.28920100  1
  Fe  Fe6  1  0.25261500  0.01341500  0.53920100  1
  Fe  Fe7  1  0.74738500  0.98658500  0.03920100  1
  Fe  Fe8  1  0.75737100  0.49872000  0.54396500  1
  Fe  Fe9  1  0.24262900  0.50128000  0.04396500  1
  Fe  Fe10  1  0.99872000  0.74262900  0.29396500  1
  Fe  Fe11  1  0.00128000  0.25737100  0.79396500  1
  Fe  Fe12  1  0.50128000  0.24262900  0.95603500  1
  Fe  Fe13  1  0.49872000  0.75737100  0.45603500  1
  Fe  Fe14  1  0.74262900  0.99872000  0.70603500  1
  Fe  Fe15  1  0.25737100  0.00128000  0.20603500  1
  Fe  Fe16  1  0.99351400  0.74132800  0.62619900  1
  Fe  Fe17  1  0.00648600  0.25867200  0.12619900  1
  Fe  Fe18  1  0.24132800  0.50648600  0.37619900  1
  Fe  Fe19  1  0.75867200  0.49351400  0.87619900  1
  Fe  Fe20  1  0.25867200  0.00648600  0.87380100  1
  Fe  Fe21  1  0.74132800  0.99351400  0.37380100  1
  Fe  Fe22  1  0.50648600  0.24132800  0.62380100  1
  Fe  Fe23  1  0.49351400  0.75867200  0.12380100  1
  Fe  Fe24  1  0.11040300  0.88959700  0.75000000  1
  Fe  Fe25  1  0.88959700  0.11040300  0.25000000  1
  Fe  Fe26  1  0.38959700  0.38959700  0.50000000  1
  Fe  Fe27  1  0.61040300  0.61040300  0.00000000  1
  Fe  Fe28  1  0.88454200  0.12129900  0.58594100  1
  Fe  Fe29  1  0.11545800  0.87870100  0.08594100  1
  Fe  Fe30  1  0.62129900  0.61545800  0.33594100  1
  Fe  Fe31  1  0.37870100  0.38454200  0.83594100  1
  Fe  Fe32  1  0.87870100  0.11545800  0.91405900  1
  Fe  Fe33  1  0.12129900  0.88454200  0.41405900  1
  Fe  Fe34  1  0.61545800  0.62129900  0.66405900  1
  Fe  Fe35  1  0.38454200  0.37870100  0.16405900  1
  Fe  Fe36  1  0.88550600  0.36889500  0.66867800  1
  Fe  Fe37  1  0.11449400  0.63110500  0.16867800  1
  Fe  Fe38  1  0.86889500  0.61449400  0.41867800  1
  Fe  Fe39  1  0.13110500  0.38550600  0.91867800  1
  Fe  Fe40  1  0.63110500  0.11449400  0.83132200  1
  Fe  Fe41  1  0.36889500  0.88550600  0.33132200  1
  Fe  Fe42  1  0.61449400  0.86889500  0.58132200  1
  Fe  Fe43  1  0.38550600  0.13110500  0.08132200  1
  Fe  Fe44  1  0.35670700  0.87602600  0.66197500  1
  Fe  Fe45  1  0.64329300  0.12397400  0.16197500  1
  Fe  Fe46  1  0.37602600  0.14329300  0.41197500  1
  Fe  Fe47  1  0.62397400  0.85670700  0.91197500  1
  Fe  Fe48  1  0.12397400  0.64329300  0.83802500  1
  Fe  Fe49  1  0.87602600  0.35670700  0.33802500  1
  Fe  Fe50  1  0.14329300  0.37602600  0.58802500  1
  Fe  Fe51  1  0.85670700  0.62397400  0.08802500  1
  Fe  Fe52  1  0.36337300  0.13051400  0.74637700  1
  Fe  Fe53  1  0.63662700  0.86948600  0.24637700  1
  Fe  Fe54  1  0.63051400  0.13662700  0.49637700  1
  Fe  Fe55  1  0.36948600  0.86337300  0.99637700  1
  Fe  Fe56  1  0.86948600  0.63662700  0.75362300  1
  Fe  Fe57  1  0.13051400  0.36337300  0.25362300  1
  Fe  Fe58  1  0.13662700  0.63051400  0.50362300  1
  Fe  Fe59  1  0.86337300  0.36948600  0.00362300  1
  Fe  Fe60  1  0.62443700  0.37556300  0.75000000  1
  Fe  Fe61  1  0.37556300  0.62443700  0.25000000  1
  Fe  Fe62  1  0.87556300  0.87556300  0.50000000  1
  Fe  Fe63  1  0.12443700  0.12443700  0.00000000  1
  O  O0  1  0.10899800  0.64048200  0.75519600  1
  O  O1  1  0.89100200  0.35951800  0.25519600  1
  O  O2  1  0.14048200  0.39100200  0.50519600  1
  O  O3  1  0.85951800  0.60899800  0.00519600  1
  O  O4  1  0.35951800  0.89100200  0.74480400  1
  O  O5  1  0.64048200  0.10899800  0.24480400  1
  O  O6  1  0.39100200  0.14048200  0.49480400  1
  O  O7  1  0.60899800  0.85951800  0.99480400  1
  O  O8  1  0.85946300  0.61150400  0.67161100  1
  O  O9  1  0.14053700  0.38849600  0.17161100  1
  O  O10  1  0.11150400  0.64053700  0.42161100  1
  O  O11  1  0.88849600  0.35946300  0.92161100  1
  O  O12  1  0.38849600  0.14053700  0.82838900  1
  O  O13  1  0.61150400  0.85946300  0.32838900  1
  O  O14  1  0.64053700  0.11150400  0.57838900  1
  O  O15  1  0.35946300  0.88849600  0.07838900  1
  O  O16  1  0.88620400  0.36232400  0.58800200  1
  O  O17  1  0.11379600  0.63767600  0.08800200  1
  O  O18  1  0.86232400  0.61379600  0.33800200  1
  O  O19  1  0.13767600  0.38620400  0.83800200  1
  O  O20  1  0.63767600  0.11379600  0.91199800  1
  O  O21  1  0.36232400  0.88620400  0.41199800  1
  O  O22  1  0.61379600  0.86232400  0.66199800  1
  O  O23  1  0.38620400  0.13767600  0.16199800  1
  O  O24  1  0.61728400  0.13527700  0.75235400  1
  O  O25  1  0.38271600  0.86472300  0.25235400  1
  O  O26  1  0.63527700  0.88271600  0.50235400  1
  O  O27  1  0.36472300  0.11728400  0.00235400  1
  O  O28  1  0.86472300  0.38271600  0.74764600  1
  O  O29  1  0.13527700  0.61728400  0.24764600  1
  O  O30  1  0.88271600  0.63527700  0.49764600  1
  O  O31  1  0.11728400  0.36472300  0.99764600  1
  O  O32  1  0.39255000  0.11183800  0.67009400  1
  O  O33  1  0.60745000  0.88816200  0.17009400  1
  O  O34  1  0.61183800  0.10745000  0.42009400  1
  O  O35  1  0.38816200  0.89255000  0.92009400  1
  O  O36  1  0.88816200  0.60745000  0.82990600  1
  O  O37  1  0.11183800  0.39255000  0.32990600  1
  O  O38  1  0.10745000  0.61183800  0.57990600  1
  O  O39  1  0.89255000  0.38816200  0.07990600  1
  O  O40  1  0.38320800  0.89386200  0.58432600  1
  O  O41  1  0.61679200  0.10613800  0.08432600  1
  O  O42  1  0.39386200  0.11679200  0.33432600  1
  O  O43  1  0.60613800  0.88320800  0.83432600  1
  O  O44  1  0.10613800  0.61679200  0.91567400  1
  O  O45  1  0.89386200  0.38320800  0.41567400  1
  O  O46  1  0.11679200  0.39386200  0.66567400  1
  O  O47  1  0.88320800  0.60613800  0.16567400  1
  O  O48  1  0.87857300  0.86842500  0.74534000  1
  O  O49  1  0.12142700  0.13157500  0.24534000  1
  O  O50  1  0.36842500  0.62142700  0.49534000  1
  O  O51  1  0.63157500  0.37857300  0.99534000  1
  O  O52  1  0.13157500  0.12142700  0.75466000  1
  O  O53  1  0.86842500  0.87857300  0.25466000  1
  O  O54  1  0.62142700  0.36842500  0.50466000  1
  O  O55  1  0.37857300  0.63157500  0.00466000  1
  O  O56  1  0.63197100  0.38302600  0.66980000  1
  O  O57  1  0.36802900  0.61697400  0.16980000  1
  O  O58  1  0.88302600  0.86802900  0.41980000  1
  O  O59  1  0.11697400  0.13197100  0.91980000  1
  O  O60  1  0.61697400  0.36802900  0.83020000  1
  O  O61  1  0.38302600  0.63197100  0.33020000  1
  O  O62  1  0.86802900  0.88302600  0.58020000  1
  O  O63  1  0.13197100  0.11697400  0.08020000  1
  O  O64  1  0.11321300  0.14043100  0.57753200  1
  O  O65  1  0.88678700  0.85956900  0.07753200  1
  O  O66  1  0.64043100  0.38678700  0.32753200  1
  O  O67  1  0.35956900  0.61321300  0.82753200  1
  O  O68  1  0.85956900  0.88678700  0.92246800  1
  O  O69  1  0.14043100  0.11321300  0.42246800  1
  O  O70  1  0.38678700  0.64043100  0.67246800  1
  O  O71  1  0.61321300  0.35956900  0.17246800  1
  O  O72  1  0.85829500  0.13671200  0.66309300  1
  O  O73  1  0.14170500  0.86328800  0.16309300  1
  O  O74  1  0.63671200  0.64170500  0.41309300  1
  O  O75  1  0.36328800  0.35829500  0.91309300  1
  O  O76  1  0.86328800  0.14170500  0.83690700  1
  O  O77  1  0.13671200  0.85829500  0.33690700  1
  O  O78  1  0.64170500  0.63671200  0.58690700  1
  O  O79  1  0.35829500  0.36328800  0.08690700  1
  O  O80  1  0.12880600  0.85862900  0.66983300  1
  O  O81  1  0.87119400  0.14137100  0.16983300  1
  O  O82  1  0.35862900  0.37119400  0.41983300  1
  O  O83  1  0.64137100  0.62880600  0.91983300  1
  O  O84  1  0.14137100  0.87119400  0.83016700  1
  O  O85  1  0.85862900  0.12880600  0.33016700  1
  O  O86  1  0.37119400  0.35862900  0.58016700  1
  O  O87  1  0.62880600  0.64137100  0.08016700  1
  O  O88  1  0.63132400  0.61657400  0.74808500  1
  O  O89  1  0.36867600  0.38342600  0.24808500  1
  O  O90  1  0.11657400  0.86867600  0.49808500  1
  O  O91  1  0.88342600  0.13132400  0.99808500  1
  O  O92  1  0.38342600  0.36867600  0.75191500  1
  O  O93  1  0.61657400  0.63132400  0.25191500  1
  O  O94  1  0.86867600  0.11657400  0.50191500  1
  O  O95  1  0.13132400  0.88342600  0.00191500  1
loop_
_geom_bond_atom_site_label_1
_geom_bond_atom_site_label_2
_geom_bond_distance
_geom_bond_site_symmetry_2
Fe0 O70 1.883423 1_555
Fe0 O46 1.900545 1_555
Fe0 O0 1.963780 1_555
Fe0 O92 1.993733 1_555
Fe1 O71 1.883423 1_555
Fe1 O47 1.900545 1_555
Fe1 O1 1.963780 1_555
Fe1 O93 1.993733 1_555
Fe2 O69 1.883423 1_555
Fe2 O45 1.900545 1_455
Fe2 O2 1.963780 1_555
Fe2 O94 1.993733 1_455
Fe3 O68 1.883423 1_555
Fe3 O44 1.900545 1_655
Fe3 O3 1.963780 1_556
Fe3 O95 1.993733 1_656
Fe4 O67 1.883423 1_555
Fe4 O43 1.900545 1_555
Fe4 O4 1.963780 1_555
Fe4 O88 1.993733 1_555
Fe5 O66 1.883423 1_555
Fe5 O42 1.900545 1_555
Fe5 O5 1.963780 1_555
Fe5 O89 1.993733 1_555
Fe6 O64 1.883423 1_555
Fe6 O40 1.900545 1_545
Fe6 O6 1.963780 1_555
Fe6 O90 1.993733 1_545
Fe7 O65 1.883423 1_555
Fe7 O41 1.900545 1_565
Fe7 O7 1.963780 1_554
Fe7 O91 1.993733 1_564
Fe8 O78 1.887890 1_555
Fe8 O54 1.894448 1_555
Fe8 O16 1.956697 1_555
Fe8 O30 1.975469 1_555
Fe9 O79 1.887890 1_555
Fe9 O55 1.894448 1_555
Fe9 O17 1.956697 1_555
Fe9 O31 1.975469 1_554
Fe10 O77 1.887890 1_655
Fe10 O53 1.894448 1_555
Fe10 O18 1.956697 1_555
Fe10 O29 1.975469 1_655
Fe11 O76 1.887890 1_455
Fe11 O52 1.894448 1_555
Fe11 O19 1.956697 1_555
Fe11 O28 1.975469 1_455
Fe12 O75 1.887890 1_555
Fe12 O51 1.894448 1_555
Fe12 O20 1.956697 1_555
Fe12 O27 1.975469 1_556
Fe13 O74 1.887890 1_555
Fe13 O50 1.894448 1_555
Fe13 O21 1.956697 1_555
Fe13 O26 1.975469 1_555
Fe14 O72 1.887890 1_565
Fe14 O48 1.894448 1_555
Fe14 O22 1.956697 1_555
Fe14 O24 1.975469 1_565
Fe15 O73 1.887890 1_545
Fe15 O49 1.894448 1_555
Fe15 O23 1.956697 1_555
Fe15 O25 1.975469 1_545
Fe16 O38 1.888343 1_655
Fe16 O80 1.891408 1_655
Fe16 O8 1.970218 1_555
Fe16 O62 1.997410 1_555
Fe17 O39 1.888343 1_455
Fe17 O81 1.891408 1_455
Fe17 O9 1.970218 1_555
Fe17 O63 1.997410 1_555
Fe18 O37 1.888343 1_555
Fe18 O82 1.891408 1_555
Fe18 O10 1.970218 1_555
Fe18 O61 1.997410 1_555
Fe19 O36 1.888343 1_555
Fe19 O83 1.891408 1_555
Fe19 O11 1.970218 1_555
Fe19 O60 1.997410 1_555
Fe20 O35 1.888343 1_545
Fe20 O84 1.891408 1_545
Fe20 O12 1.970218 1_555
Fe20 O59 1.997410 1_555
Fe21 O34 1.888343 1_565
Fe21 O85 1.891408 1_565
Fe21 O13 1.970218 1_555
Fe21 O58 1.997410 1_555
Fe22 O32 1.888343 1_555
Fe22 O86 1.891408 1_555
Fe22 O14 1.970218 1_555
Fe22 O56 1.997410 1_555
Fe23 O33 1.888343 1_555
Fe23 O87 1.891408 1_555
Fe23 O15 1.970218 1_555
Fe23 O57 1.997410 1_555
Fe24 O52 1.988206 1_565
Fe24 O48 1.988206 1_455
Fe24 O80 2.074572 1_555
Fe24 O84 2.074572 1_555
Fe24 O0 2.127952 1_555
Fe24 O4 2.127952 1_555
Fe25 O49 1.988206 1_655
Fe25 O53 1.988206 1_545
Fe25 O85 2.074572 1_555
Fe25 O81 2.074572 1_555
Fe25 O5 2.127952 1_555
Fe25 O1 2.127952 1_555
Fe26 O54 1.988206 1_555
Fe26 O50 1.988206 1_555
Fe26 O86 2.074572 1_555
Fe26 O82 2.074572 1_555
Fe26 O2 2.127952 1_555
Fe26 O6 2.127952 1_555
Fe27 O51 1.988206 1_554
Fe27 O55 1.988206 1_555
Fe27 O83 2.074572 1_554
Fe27 O87 2.074572 1_555
Fe27 O3 2.127952 1_555
Fe27 O7 2.127952 1_554
Fe28 O64 1.968083 1_655
Fe28 O72 1.991530 1_555
Fe28 O62 2.041495 1_545
Fe28 O16 2.055516 1_555
Fe28 O14 2.090823 1_555
Fe28 O94 2.155105 1_555
Fe29 O65 1.968083 1_455
Fe29 O73 1.991530 1_555
Fe29 O63 2.041495 1_565
Fe29 O17 2.055516 1_555
Fe29 O15 2.090823 1_555
Fe29 O95 2.155105 1_555
Fe30 O66 1.968083 1_555
Fe30 O74 1.991530 1_555
Fe30 O61 2.041495 1_555
Fe30 O18 2.055516 1_555
Fe30 O13 2.090823 1_555
Fe30 O93 2.155105 1_555
Fe31 O67 1.968083 1_555
Fe31 O75 1.991530 1_555
Fe31 O60 2.041495 1_555
Fe31 O19 2.055516 1_555
Fe31 O12 2.090823 1_555
Fe31 O92 2.155105 1_555
Fe32 O68 1.968083 1_545
Fe32 O76 1.991530 1_555
Fe32 O59 2.041495 1_655
Fe32 O20 2.055516 1_555
Fe32 O11 2.090823 1_555
Fe32 O91 2.155105 1_555
Fe33 O69 1.968083 1_565
Fe33 O77 1.991530 1_555
Fe33 O58 2.041495 1_455
Fe33 O21 2.055516 1_555
Fe33 O10 2.090823 1_555
Fe33 O90 2.155105 1_555
Fe34 O70 1.968083 1_555
Fe34 O78 1.991530 1_555
Fe34 O56 2.041495 1_555
Fe34 O22 2.055516 1_555
Fe34 O8 2.090823 1_555
Fe34 O88 2.155105 1_555
Fe35 O71 1.968083 1_555
Fe35 O79 1.991530 1_555
Fe35 O57 2.041495 1_555
Fe35 O23 2.055516 1_555
Fe35 O9 2.090823 1_555
Fe35 O89 2.155105 1_555
Fe36 O46 1.984708 1_655
Fe36 O72 1.998077 1_555
Fe36 O28 2.032200 1_555
Fe36 O16 2.065511 1_555
Fe36 O8 2.081530 1_555
Fe36 O56 2.164986 1_555
Fe37 O47 1.984708 1_455
Fe37 O73 1.998077 1_555
Fe37 O29 2.032200 1_555
Fe37 O17 2.065511 1_555
Fe37 O9 2.081530 1_555
Fe37 O57 2.164986 1_555
Fe38 O45 1.984708 1_555
Fe38 O74 1.998077 1_555
Fe38 O30 2.032200 1_555
Fe38 O18 2.065511 1_555
Fe38 O10 2.081530 1_655
Fe38 O58 2.164986 1_555
Fe39 O44 1.984708 1_555
Fe39 O75 1.998077 1_555
Fe39 O31 2.032200 1_555
Fe39 O19 2.065511 1_555
Fe39 O11 2.081530 1_455
Fe39 O59 2.164986 1_555
Fe40 O43 1.984708 1_545
Fe40 O76 1.998077 1_555
Fe40 O24 2.032200 1_555
Fe40 O20 2.065511 1_555
Fe40 O12 2.081530 1_555
Fe40 O60 2.164986 1_555
Fe41 O42 1.984708 1_565
Fe41 O77 1.998077 1_555
Fe41 O25 2.032200 1_555
Fe41 O21 2.065511 1_555
Fe41 O13 2.081530 1_555
Fe41 O61 2.164986 1_555
Fe42 O40 1.984708 1_555
Fe42 O78 1.998077 1_555
Fe42 O26 2.032200 1_555
Fe42 O22 2.065511 1_555
Fe42 O14 2.081530 1_565
Fe42 O62 2.164986 1_555
Fe43 O41 1.984708 1_555
Fe43 O79 1.998077 1_555
Fe43 O27 2.032200 1_555
Fe43 O23 2.065511 1_555
Fe43 O15 2.081530 1_545
Fe43 O63 2.164986 1_555
Fe44 O80 1.958909 1_555
Fe44 O40 2.005845 1_555
Fe44 O70 2.042534 1_555
Fe44 O32 2.044028 1_565
Fe44 O4 2.123820 1_555
Fe44 O22 2.194850 1_555
Fe45 O81 1.958909 1_555
Fe45 O41 2.005845 1_555
Fe45 O71 2.042534 1_555
Fe45 O33 2.044028 1_545
Fe45 O5 2.123820 1_555
Fe45 O23 2.194850 1_555
Fe46 O82 1.958909 1_555
Fe46 O42 2.005845 1_555
Fe46 O69 2.042534 1_555
Fe46 O34 2.044028 1_555
Fe46 O6 2.123820 1_555
Fe46 O21 2.194850 1_545
Fe47 O83 1.958909 1_555
Fe47 O43 2.005845 1_555
Fe47 O68 2.042534 1_555
Fe47 O35 2.044028 1_555
Fe47 O7 2.123820 1_555
Fe47 O20 2.194850 1_565
Fe48 O84 1.958909 1_555
Fe48 O44 2.005845 1_555
Fe48 O67 2.042534 1_555
Fe48 O36 2.044028 1_455
Fe48 O0 2.123820 1_555
Fe48 O19 2.194850 1_555
Fe49 O85 1.958909 1_555
Fe49 O45 2.005845 1_555
Fe49 O66 2.042534 1_555
Fe49 O37 2.044028 1_655
Fe49 O1 2.123820 1_555
Fe49 O18 2.194850 1_555
Fe50 O86 1.958909 1_555
Fe50 O46 2.005845 1_555
Fe50 O64 2.042534 1_555
Fe50 O38 2.044028 1_555
Fe50 O2 2.123820 1_555
Fe50 O16 2.194850 1_455
Fe51 O87 1.958909 1_555
Fe51 O47 2.005845 1_555
Fe51 O65 2.042534 1_555
Fe51 O39 2.044028 1_555
Fe51 O3 2.123820 1_555
Fe51 O17 2.194850 1_655
Fe52 O32 1.974524 1_555
Fe52 O52 1.988975 1_555
Fe52 O92 2.042491 1_555
Fe52 O4 2.042553 1_545
Fe52 O12 2.111563 1_555
Fe52 O24 2.170424 1_555
Fe53 O33 1.974524 1_555
Fe53 O53 1.988975 1_555
Fe53 O93 2.042491 1_555
Fe53 O5 2.042553 1_565
Fe53 O13 2.111563 1_555
Fe53 O25 2.170424 1_555
Fe54 O34 1.974524 1_555
Fe54 O54 1.988975 1_555
Fe54 O94 2.042491 1_555
Fe54 O6 2.042553 1_555
Fe54 O14 2.111563 1_555
Fe54 O26 2.170424 1_545
Fe55 O35 1.974524 1_555
Fe55 O55 1.988975 1_556
Fe55 O95 2.042491 1_556
Fe55 O7 2.042553 1_555
Fe55 O15 2.111563 1_556
Fe55 O27 2.170424 1_566
Fe56 O36 1.974524 1_555
Fe56 O48 1.988975 1_555
Fe56 O88 2.042491 1_555
Fe56 O0 2.042553 1_655
Fe56 O8 2.111563 1_555
Fe56 O28 2.170424 1_555
Fe57 O37 1.974524 1_555
Fe57 O49 1.988975 1_555
Fe57 O89 2.042491 1_555
Fe57 O1 2.042553 1_455
Fe57 O9 2.111563 1_555
Fe57 O29 2.170424 1_555
Fe58 O38 1.974524 1_555
Fe58 O50 1.988975 1_555
Fe58 O90 2.042491 1_555
Fe58 O2 2.042553 1_555
Fe58 O10 2.111563 1_555
Fe58 O30 2.170424 1_455
Fe59 O39 1.974524 1_555
Fe59 O51 1.988975 1_554
Fe59 O91 2.042491 1_554
Fe59 O3 2.042553 1_555
Fe59 O11 2.111563 1_554
Fe59 O31 2.170424 1_654
Fe60 O28 2.050283 1_555
Fe60 O24 2.050283 1_555
Fe60 O56 2.054550 1_555
Fe60 O60 2.054550 1_555
Fe60 O88 2.056094 1_555
Fe60 O92 2.056094 1_555
Fe61 O25 2.050283 1_555
Fe61 O29 2.050283 1_555
Fe61 O57 2.054550 1_555
Fe61 O61 2.054550 1_555
Fe61 O93 2.056094 1_555
Fe61 O89 2.056094 1_555
Fe62 O26 2.050283 1_555
Fe62 O30 2.050283 1_555
Fe62 O58 2.054550 1_555
Fe62 O62 2.054550 1_555
Fe62 O94 2.056094 1_565
Fe62 O90 2.056094 1_655
Fe63 O27 2.050283 1_555
Fe63 O31 2.050283 1_554
Fe63 O59 2.054550 1_554
Fe63 O63 2.054550 1_555
Fe63 O95 2.056094 1_545
Fe63 O91 2.056094 1_454
