# generated using pymatgen
data_Ti4Si4Ni
_symmetry_space_group_name_H-M   'P 1'
_cell_length_a   5.09878900
_cell_length_b   12.74771200
_cell_length_c   15.67259200
_cell_angle_alpha   90.00000000
_cell_angle_beta   90.00000000
_cell_angle_gamma   90.00000000
_symmetry_Int_Tables_number   1
_chemical_formula_structural   Ti4Si4Ni
_chemical_formula_sum   'Ti32 Si32 Ni8'
_cell_volume   1018.68546914
_cell_formula_units_Z   8
loop_
 _symmetry_equiv_pos_site_id
 _symmetry_equiv_pos_as_xyz
  1  'x, y, z'
loop_
 _atom_site_type_symbol
 _atom_site_label
 _atom_site_symmetry_multiplicity
 _atom_site_fract_x
 _atom_site_fract_y
 _atom_site_fract_z
 _atom_site_occupancy
  Ti  Ti0  1  0.25000000  0.96948300  0.44632700  1
  Ti  Ti1  1  0.25000000  0.53051700  0.94632700  1
  Ti  Ti2  1  0.75000000  0.03051700  0.55367300  1
  Ti  Ti3  1  0.75000000  0.46948300  0.05367300  1
  Ti  Ti4  1  0.75000000  0.84950000  0.03695200  1
  Ti  Ti5  1  0.75000000  0.65050000  0.53695200  1
  Ti  Ti6  1  0.25000000  0.15050000  0.96304800  1
  Ti  Ti7  1  0.25000000  0.34950000  0.46304800  1
  Ti  Ti8  1  0.75000000  0.82075500  0.70977000  1
  Ti  Ti9  1  0.75000000  0.67924500  0.20977000  1
  Ti  Ti10  1  0.25000000  0.17924500  0.29023000  1
  Ti  Ti11  1  0.25000000  0.32075500  0.79023000  1
  Ti  Ti12  1  0.75000000  0.18169700  0.85153800  1
  Ti  Ti13  1  0.75000000  0.31830300  0.35153800  1
  Ti  Ti14  1  0.25000000  0.81830300  0.14846200  1
  Ti  Ti15  1  0.25000000  0.68169700  0.64846200  1
  Ti  Ti16  1  0.75000000  0.23620100  0.05380400  1
  Ti  Ti17  1  0.75000000  0.26379900  0.55380400  1
  Ti  Ti18  1  0.25000000  0.76379900  0.94619600  1
  Ti  Ti19  1  0.25000000  0.73620100  0.44619600  1
  Ti  Ti20  1  0.25000000  0.95666200  0.67824900  1
  Ti  Ti21  1  0.25000000  0.54333800  0.17824900  1
  Ti  Ti22  1  0.75000000  0.04333800  0.32175100  1
  Ti  Ti23  1  0.75000000  0.45666200  0.82175100  1
  Ti  Ti24  1  0.49720000  0.54249400  0.36598600  1
  Ti  Ti25  1  0.00280000  0.95750600  0.86598600  1
  Ti  Ti26  1  0.99720000  0.45750600  0.63401400  1
  Ti  Ti27  1  0.50280000  0.04249400  0.13401400  1
  Ti  Ti28  1  0.50280000  0.45750600  0.63401400  1
  Ti  Ti29  1  0.99720000  0.04249400  0.13401400  1
  Ti  Ti30  1  0.00280000  0.54249400  0.36598600  1
  Ti  Ti31  1  0.49720000  0.95750600  0.86598600  1
  Si  Si0  1  0.75000000  0.88911300  0.43218200  1
  Si  Si1  1  0.75000000  0.61088700  0.93218200  1
  Si  Si2  1  0.25000000  0.11088700  0.56781800  1
  Si  Si3  1  0.25000000  0.38911300  0.06781800  1
  Si  Si4  1  0.25000000  0.51820000  0.77012600  1
  Si  Si5  1  0.25000000  0.98180000  0.27012600  1
  Si  Si6  1  0.75000000  0.48180000  0.22987400  1
  Si  Si7  1  0.75000000  0.01820000  0.72987400  1
  Si  Si8  1  0.25000000  0.28941200  0.62079100  1
  Si  Si9  1  0.25000000  0.21058800  0.12079100  1
  Si  Si10  1  0.75000000  0.71058800  0.37920900  1
  Si  Si11  1  0.75000000  0.78941200  0.87920900  1
  Si  Si12  1  0.25000000  0.38445900  0.30272200  1
  Si  Si13  1  0.25000000  0.11554100  0.80272200  1
  Si  Si14  1  0.75000000  0.61554100  0.69727800  1
  Si  Si15  1  0.75000000  0.88445900  0.19727800  1
  Si  Si16  1  0.75000000  0.05537700  0.98616500  1
  Si  Si17  1  0.75000000  0.44462300  0.48616500  1
  Si  Si18  1  0.25000000  0.94462300  0.01383500  1
  Si  Si19  1  0.25000000  0.55537700  0.51383500  1
  Si  Si20  1  0.25000000  0.69239600  0.28309200  1
  Si  Si21  1  0.25000000  0.80760400  0.78309200  1
  Si  Si22  1  0.75000000  0.30760400  0.71690800  1
  Si  Si23  1  0.75000000  0.19239600  0.21690800  1
  Si  Si24  1  0.49542300  0.66024200  0.06434600  1
  Si  Si25  1  0.00457700  0.83975800  0.56434600  1
  Si  Si26  1  0.99542300  0.33975800  0.93565400  1
  Si  Si27  1  0.50457700  0.16024200  0.43565400  1
  Si  Si28  1  0.50457700  0.33975800  0.93565400  1
  Si  Si29  1  0.99542300  0.16024200  0.43565400  1
  Si  Si30  1  0.00457700  0.66024200  0.06434600  1
  Si  Si31  1  0.49542300  0.83975800  0.56434600  1
  Ni  Ni0  1  0.99690800  0.34155700  0.18511100  1
  Ni  Ni1  1  0.50309200  0.15844300  0.68511100  1
  Ni  Ni2  1  0.49690800  0.65844300  0.81488900  1
  Ni  Ni3  1  0.00309200  0.84155700  0.31488900  1
  Ni  Ni4  1  0.00309200  0.65844300  0.81488900  1
  Ni  Ni5  1  0.49690800  0.84155700  0.31488900  1
  Ni  Ni6  1  0.50309200  0.34155700  0.18511100  1
  Ni  Ni7  1  0.99690800  0.15844300  0.68511100  1
loop_
_geom_bond_atom_site_label_1
_geom_bond_atom_site_label_2
_geom_bond_distance
_geom_bond_site_symmetry_2
Si0 Si10 2.422493 1_555
Si0 Si31 2.524132 1_555
Si0 Si25 2.524132 1_655
Si0 Ti22 2.619290 1_565
Si0 Ti2 2.621984 1_565
Si0 Ti0 2.756488 1_655
Si0 Ti0 2.756488 1_555
Si1 Si11 2.422493 1_555
Si1 Si30 2.524132 1_656
Si1 Si24 2.524132 1_556
Si1 Ti23 2.619290 1_555
Si1 Ti3 2.621984 1_556
Si1 Ti1 2.756488 1_555
Si1 Ti1 2.756488 1_655
Si2 Si8 2.422493 1_555
Si2 Si29 2.524132 1_455
Si2 Si27 2.524132 1_555
Si2 Ti20 2.619290 1_545
Si2 Ti0 2.621984 1_545
Si2 Ti2 2.756488 1_555
Si2 Ti2 2.756488 1_455
Si3 Si9 2.422493 1_555
Si3 Ti21 2.619290 1_555
Si3 Ti1 2.621984 1_554
Si3 Ti3 2.756488 1_555
Si3 Ti3 2.756488 1_455
Si4 Ti11 2.536617 1_555
Si4 Ti26 2.609740 1_455
Si4 Ti28 2.609740 1_555
Si4 Ti1 2.765986 1_555
Si4 Ti23 2.787372 1_555
Si4 Ti23 2.787372 1_455
Si4 Ti15 2.824852 1_555
Si5 Ti10 2.536617 1_565
Si5 Ti29 2.609740 1_465
Si5 Ti27 2.609740 1_565
Si5 Ti0 2.765986 1_555
Si5 Ti22 2.787372 1_565
Si5 Ti22 2.787372 1_465
Si5 Ti14 2.824852 1_555
Si6 Ti9 2.536617 1_555
Si6 Ti30 2.609740 1_655
Si6 Ti24 2.609740 1_555
Si6 Ti3 2.765986 1_555
Si6 Ti21 2.787372 1_655
Si6 Ti21 2.787372 1_555
Si6 Ti13 2.824852 1_555
Si7 Ti8 2.536617 1_545
Si7 Ti31 2.609740 1_545
Si7 Ti25 2.609740 1_645
Si7 Ti2 2.765986 1_555
Si7 Ti20 2.787372 1_645
Si7 Ti20 2.787372 1_545
Si7 Ti12 2.824852 1_555
Si8 Ti28 2.509194 1_555
Si8 Ti26 2.509194 1_455
Si8 Ti7 2.588187 1_555
Si8 Ti11 2.685438 1_555
Si8 Ti17 2.776369 1_455
Si8 Ti17 2.776369 1_555
Si9 Ti29 2.509194 1_455
Si9 Ti27 2.509194 1_555
Si9 Ti6 2.588187 1_554
Si9 Ti10 2.685438 1_555
Si9 Ti16 2.776369 1_455
Si9 Ti16 2.776369 1_555
Si10 Ti24 2.509194 1_555
Si10 Ti30 2.509194 1_655
Si10 Ti5 2.588187 1_555
Si10 Ti9 2.685438 1_555
Si10 Ti19 2.776369 1_655
Si10 Ti19 2.776369 1_555
Si11 Ti25 2.509194 1_655
Si11 Ti31 2.509194 1_555
Si11 Ti4 2.588187 1_556
Si11 Ti8 2.685438 1_555
Si11 Ti18 2.776369 1_655
Si11 Ti18 2.776369 1_555
Si12 Ti7 2.551937 1_555
Si12 Ti24 2.574938 1_555
Si12 Ti30 2.574938 1_555
Si12 Ti10 2.623325 1_555
Si12 Ti13 2.792126 1_455
Si12 Ti13 2.792126 1_555
Si12 Ti21 2.812062 1_555
Si13 Ti6 2.551937 1_555
Si13 Ti25 2.574938 1_545
Si13 Ti31 2.574938 1_545
Si13 Ti11 2.623325 1_555
Si13 Ti12 2.792126 1_555
Si13 Ti12 2.792126 1_455
Si13 Ti20 2.812062 1_545
Si14 Ti5 2.551937 1_555
Si14 Ti26 2.574938 1_555
Si14 Ti28 2.574938 1_555
Si14 Ti8 2.623325 1_555
Si14 Ti15 2.792126 1_555
Si14 Ti15 2.792126 1_655
Si14 Ti23 2.812062 1_555
Si15 Ti4 2.551937 1_555
Si15 Ti27 2.574938 1_565
Si15 Ti29 2.574938 1_565
Si15 Ti9 2.623325 1_555
Si15 Ti14 2.792126 1_555
Si15 Ti14 2.792126 1_655
Si15 Ti22 2.812062 1_565
Si16 Ti16 2.537167 1_556
Si16 Ti25 2.601090 1_645
Si16 Ti31 2.601090 1_545
Si16 Ti27 2.642904 1_556
Si16 Ti29 2.642904 1_556
Si16 Ti12 2.654231 1_555
Si16 Ti4 2.742508 1_546
Si16 Ti6 2.846239 1_555
Si16 Ti6 2.846239 1_655
Si17 Ti17 2.537167 1_555
Si17 Ti30 2.601090 1_655
Si17 Ti24 2.601090 1_555
Si17 Ti28 2.642904 1_555
Si17 Ti26 2.642904 1_555
Si17 Ti13 2.654231 1_555
Si17 Ti5 2.742508 1_555
Si17 Ti7 2.846239 1_655
Si17 Ti7 2.846239 1_555
Si18 Ti18 2.537167 1_554
Si18 Ti29 2.601090 1_465
Si18 Ti27 2.601090 1_565
Si18 Ti25 2.642904 1_554
Si18 Ti31 2.642904 1_554
Si18 Ti14 2.654231 1_555
Si18 Ti6 2.742508 1_564
Si18 Ti4 2.846239 1_455
Si18 Ti4 2.846239 1_555
Si19 Ti19 2.537167 1_555
Si19 Ti26 2.601090 1_455
Si19 Ti28 2.601090 1_555
Si19 Ti30 2.642904 1_555
Si19 Ti24 2.642904 1_555
Si19 Ti15 2.654231 1_555
Si19 Ti7 2.742508 1_555
Si19 Ti5 2.846239 1_555
Si19 Ti5 2.846239 1_455
Si20 Ti21 2.512080 1_555
Si20 Ti19 2.616544 1_555
Si20 Ti30 2.632120 1_555
Si20 Ti24 2.632120 1_555
Si20 Ti14 2.651078 1_555
Si20 Ti9 2.801438 1_555
Si20 Ti9 2.801438 1_455
Si21 Ti20 2.512080 1_555
Si21 Ti18 2.616544 1_555
Si21 Ti31 2.632120 1_555
Si21 Ti25 2.632120 1_555
Si21 Ti15 2.651078 1_555
Si21 Ti8 2.801438 1_455
Si21 Ti8 2.801438 1_555
Si22 Ti23 2.512080 1_555
Si22 Ti17 2.616544 1_555
Si22 Ti28 2.632120 1_555
Si22 Ti26 2.632120 1_555
Si22 Ti12 2.651078 1_555
Si22 Ti11 2.801438 1_655
Si22 Ti11 2.801438 1_555
Si23 Ti22 2.512080 1_555
Si23 Ti16 2.616544 1_555
Si23 Ti29 2.632120 1_555
Si23 Ti27 2.632120 1_555
Si23 Ti13 2.651078 1_555
Si23 Ti10 2.801438 1_555
Si23 Ti10 2.801438 1_655
Si24 Si30 2.502720 1_555
Si24 Ti18 2.595662 1_554
Si24 Si30 2.596069 1_655
Si24 Ti9 2.634046 1_555
Si24 Ti21 2.640748 1_555
Si24 Ti14 2.713622 1_555
Si24 Ti3 2.761564 1_555
Si24 Ti4 2.773065 1_555
Si24 Ti1 2.778826 1_554
Si25 Si31 2.502720 1_555
Si25 Ti19 2.595662 1_555
Si25 Si31 2.596069 1_455
Si25 Ti8 2.634046 1_455
Si25 Ti20 2.640748 1_555
Si25 Ti15 2.713622 1_555
Si25 Ti2 2.761564 1_465
Si25 Ti5 2.773065 1_455
Si25 Ti0 2.778826 1_555
Si26 Si28 2.502720 1_555
Si26 Si3 2.524132 1_656
Si26 Ti16 2.595662 1_556
Si26 Si28 2.596069 1_655
Si26 Ti11 2.634046 1_655
Si26 Ti23 2.640748 1_555
Si26 Ti12 2.713622 1_555
Si26 Ti1 2.761564 1_655
Si26 Ti6 2.773065 1_655
Si26 Ti3 2.778826 1_556
Si27 Si29 2.502720 1_555
Si27 Ti17 2.595662 1_555
Si27 Si29 2.596069 1_455
Si27 Ti10 2.634046 1_555
Si27 Ti22 2.640748 1_555
Si27 Ti13 2.713622 1_555
Si27 Ti0 2.761564 1_545
Si27 Ti7 2.773065 1_555
Si27 Ti2 2.778826 1_555
Si28 Si3 2.524132 1_556
Si28 Ti16 2.595662 1_556
Si28 Ti11 2.634046 1_555
Si28 Ti23 2.640748 1_555
Si28 Ti12 2.713622 1_555
Si28 Ti1 2.761564 1_555
Si28 Ti6 2.773065 1_555
Si28 Ti3 2.778826 1_556
Si29 Ti17 2.595662 1_555
Si29 Ti10 2.634046 1_655
Si29 Ti22 2.640748 1_555
Si29 Ti13 2.713622 1_555
Si29 Ti0 2.761564 1_645
Si29 Ti7 2.773065 1_655
Si29 Ti2 2.778826 1_555
Si30 Ti18 2.595662 1_554
Si30 Ti9 2.634046 1_455
Si30 Ti21 2.640748 1_555
Si30 Ti14 2.713622 1_555
Si30 Ti3 2.761564 1_455
Si30 Ti4 2.773065 1_455
Si30 Ti1 2.778826 1_554
Si31 Ti19 2.595662 1_555
Si31 Ti8 2.634046 1_555
Si31 Ti20 2.640748 1_555
Si31 Ti15 2.713622 1_555
Si31 Ti2 2.761564 1_565
Si31 Ti5 2.773065 1_555
Si31 Ti0 2.778826 1_555
Ni0 Si6 2.296352 1_555
Ni0 Si12 2.315607 1_655
Ni0 Si3 2.326392 1_655
Ni0 Si23 2.334268 1_555
Ni0 Si9 2.338567 1_655
Ni0 Ni6 2.517864 1_555
Ni0 Ni6 2.580925 1_655
Ni0 Ti16 2.761110 1_555
Ni0 Ti21 2.879811 1_655
Ni0 Ti13 2.911397 1_555
Ni0 Ti3 2.913382 1_555
Ni0 Ti10 2.942908 1_655
Ni1 Si7 2.296352 1_555
Ni1 Si13 2.315607 1_555
Ni1 Si2 2.326392 1_555
Ni1 Si22 2.334268 1_555
Ni1 Si8 2.338567 1_555
Ni1 Ni7 2.517864 1_555
Ni1 Ni7 2.580925 1_455
Ni1 Ti17 2.761110 1_555
Ni1 Ti20 2.879811 1_545
Ni1 Ti12 2.911397 1_555
Ni1 Ti2 2.913382 1_555
Ni1 Ti11 2.942908 1_555
Ni2 Si4 2.296352 1_555
Ni2 Si14 2.315607 1_555
Ni2 Si1 2.326392 1_555
Ni2 Si21 2.334268 1_555
Ni2 Si11 2.338567 1_555
Ni2 Ni4 2.517864 1_555
Ni2 Ni4 2.580925 1_655
Ni2 Ti18 2.761110 1_555
Ni2 Ti23 2.879811 1_555
Ni2 Ti15 2.911397 1_555
Ni2 Ti1 2.913382 1_555
Ni2 Ti8 2.942908 1_555
Ni3 Si5 2.296352 1_555
Ni3 Si15 2.315607 1_455
Ni3 Si0 2.326392 1_455
Ni3 Si20 2.334268 1_555
Ni3 Si10 2.338567 1_455
Ni3 Ni5 2.517864 1_555
Ni3 Ni5 2.580925 1_455
Ni3 Ti19 2.761110 1_555
Ni3 Ti22 2.879811 1_465
Ni3 Ti14 2.911397 1_555
Ni3 Ti0 2.913382 1_555
Ni3 Ti9 2.942908 1_455
Ni4 Si4 2.296352 1_555
Ni4 Si14 2.315607 1_455
Ni4 Si1 2.326392 1_455
Ni4 Si21 2.334268 1_555
Ni4 Si11 2.338567 1_455
Ni4 Ti18 2.761110 1_555
Ni4 Ti23 2.879811 1_455
Ni4 Ti15 2.911397 1_555
Ni4 Ti1 2.913382 1_555
Ni4 Ti8 2.942908 1_455
Ni5 Si5 2.296352 1_555
Ni5 Si15 2.315607 1_555
Ni5 Si0 2.326392 1_555
Ni5 Si20 2.334268 1_555
Ni5 Si10 2.338567 1_555
Ni5 Ti19 2.761110 1_555
Ni5 Ti22 2.879811 1_565
Ni5 Ti14 2.911397 1_555
Ni5 Ti0 2.913382 1_555
Ni5 Ti9 2.942908 1_555
Ni6 Si6 2.296352 1_555
Ni6 Si12 2.315607 1_555
Ni6 Si3 2.326392 1_555
Ni6 Si23 2.334268 1_555
Ni6 Si9 2.338567 1_555
Ni6 Ti16 2.761110 1_555
Ni6 Ti21 2.879811 1_555
Ni6 Ti13 2.911397 1_555
Ni6 Ti3 2.913382 1_555
Ni6 Ti10 2.942908 1_555
Ni7 Si7 2.296352 1_555
Ni7 Si13 2.315607 1_655
Ni7 Si2 2.326392 1_655
Ni7 Si22 2.334268 1_555
Ni7 Si8 2.338567 1_655
Ni7 Ti17 2.761110 1_555
Ni7 Ti20 2.879811 1_645
Ni7 Ti12 2.911397 1_555
Ni7 Ti2 2.913382 1_555
Ni7 Ti11 2.942908 1_655
