# generated using pymatgen
data_Dy(Co5Mo)2
_symmetry_space_group_name_H-M   'P 1'
_cell_length_a   4.68077300
_cell_length_b   6.41976553
_cell_length_c   6.41976553
_cell_angle_alpha   97.55527122
_cell_angle_beta   111.38048079
_cell_angle_gamma   68.61951921
_symmetry_Int_Tables_number   1
_chemical_formula_structural   Dy(Co5Mo)2
_chemical_formula_sum   'Dy1 Co10 Mo2'
_cell_volume   167.27177689
_cell_formula_units_Z   1
loop_
 _symmetry_equiv_pos_site_id
 _symmetry_equiv_pos_as_xyz
  1  'x, y, z'
loop_
 _atom_site_type_symbol
 _atom_site_label
 _atom_site_symmetry_multiplicity
 _atom_site_fract_x
 _atom_site_fract_y
 _atom_site_fract_z
 _atom_site_occupancy
  Dy  Dy0  1  0.00000000  0.00000000  0.00000000  1
  Co  Co0  1  0.71002400  0.78997600  0.21002400  1
  Co  Co1  1  0.28997600  0.21002400  0.78997600  1
  Co  Co2  1  0.50000000  0.77838000  0.77838000  1
  Co  Co3  1  0.50000000  0.22162000  0.22162000  1
  Co  Co4  1  0.50000000  0.00000000  0.50000000  1
  Co  Co5  1  0.00000000  0.00000000  0.50000000  1
  Co  Co6  1  0.50000000  0.50000000  0.00000000  1
  Co  Co7  1  0.00000000  0.50000000  0.00000000  1
  Co  Co8  1  0.64086200  0.35913800  0.64086200  1
  Co  Co9  1  0.35913800  0.64086200  0.35913800  1
  Mo  Mo0  1  0.00000000  0.35853900  0.35853900  1
  Mo  Mo1  1  0.00000000  0.64146100  0.64146100  1
loop_
_geom_bond_atom_site_label_1
_geom_bond_atom_site_label_2
_geom_bond_distance
_geom_bond_site_symmetry_2
Dy0 Mo0 3.033611 1_555
Dy0 Mo1 3.033611 1_544
Co0 Co7 2.440840 1_655
Co0 Co5 2.440840 1_665
Co0 Co6 2.440840 1_555
Co0 Co4 2.440840 1_565
Co0 Co3 2.581394 1_565
Co0 Co2 2.581394 1_554
Co0 Co9 2.657815 1_655
Co0 Co9 2.657815 1_555
Co0 Mo1 2.726267 1_655
Co0 Mo0 2.726267 1_655
Co0 Dy0 2.936814 1_565
Co0 Dy0 2.936814 1_665
Co1 Co7 2.440840 1_556
Co1 Co5 2.440840 1_555
Co1 Co6 2.440840 1_556
Co1 Co4 2.440840 1_555
Co1 Co3 2.581394 1_556
Co1 Co2 2.581394 1_545
Co1 Co8 2.657815 1_455
Co1 Co8 2.657815 1_555
Co1 Mo1 2.726267 1_555
Co1 Mo0 2.726267 1_555
Co1 Dy0 2.936814 1_656
Co1 Dy0 2.936814 1_556
Co2 Co7 2.426250 1_656
Co2 Co5 2.426250 1_565
Co2 Co4 2.426250 1_565
Co2 Co6 2.426250 1_556
Co2 Mo1 2.611413 1_555
Co2 Mo1 2.611413 1_655
Co2 Co8 2.638874 1_555
Co2 Co9 2.638874 1_555
Co2 Dy0 2.998923 1_666
Co2 Dy0 2.998923 1_566
Co3 Co5 2.426250 1_655
Co3 Co7 2.426250 1_555
Co3 Co6 2.426250 1_555
Co3 Co4 2.426250 1_555
Co3 Mo0 2.611413 1_555
Co3 Mo0 2.611413 1_655
Co3 Co8 2.638874 1_555
Co3 Co9 2.638874 1_555
Co3 Dy0 2.998923 1_655
Co3 Dy0 2.998923 1_555
Co4 Co5 2.340387 1_655
Co4 Co5 2.340387 1_555
Co4 Mo0 2.583099 1_555
Co4 Mo1 2.583099 1_645
Co4 Co9 2.587196 1_545
Co4 Co8 2.587196 1_555
Co4 Dy0 3.209883 1_656
Co4 Dy0 3.209883 1_555
Co5 Mo1 2.583099 1_545
Co5 Mo0 2.583099 1_555
Co5 Co9 2.587196 1_545
Co5 Co8 2.587196 1_455
Co5 Dy0 3.209883 1_555
Co5 Dy0 3.209883 1_556
Co6 Co7 2.340387 1_555
Co6 Co7 2.340387 1_655
Co6 Mo1 2.583099 1_554
Co6 Mo0 2.583099 1_655
Co6 Co9 2.587196 1_555
Co6 Co8 2.587196 1_554
Co6 Dy0 3.209883 1_655
Co6 Dy0 3.209883 1_565
Co7 Mo1 2.583099 1_554
Co7 Mo0 2.583099 1_555
Co7 Co8 2.587196 1_454
Co7 Co9 2.587196 1_555
Co7 Dy0 3.209883 1_565
Co7 Dy0 3.209883 1_555
Co8 Co9 2.379773 1_555
Co8 Mo1 2.885450 1_555
Co8 Mo0 2.885450 1_555
Co8 Mo0 2.885450 1_655
Co8 Mo1 2.885450 1_655
Co8 Dy0 3.033703 1_656
Co9 Mo0 2.885450 1_655
Co9 Mo1 2.885450 1_655
Co9 Mo1 2.885450 1_555
Co9 Mo0 2.885450 1_555
Co9 Dy0 3.033703 1_565
Mo0 Mo1 2.393813 1_555
