# generated using pymatgen
data_Y6Si7Ni16
_symmetry_space_group_name_H-M   'P 1'
_cell_length_a   8.30552210
_cell_length_b   8.30552210
_cell_length_c   8.30552210
_cell_angle_alpha   60.00000000
_cell_angle_beta   60.00000000
_cell_angle_gamma   60.00000000
_symmetry_Int_Tables_number   1
_chemical_formula_structural   Y6Si7Ni16
_chemical_formula_sum   'Y6 Si7 Ni16'
_cell_volume   405.12198980
_cell_formula_units_Z   1
loop_
 _symmetry_equiv_pos_site_id
 _symmetry_equiv_pos_as_xyz
  1  'x, y, z'
loop_
 _atom_site_type_symbol
 _atom_site_label
 _atom_site_symmetry_multiplicity
 _atom_site_fract_x
 _atom_site_fract_y
 _atom_site_fract_z
 _atom_site_occupancy
  Y  Y0  1  0.71017900  0.28982100  0.28982100  1
  Y  Y1  1  0.28982100  0.71017900  0.71017900  1
  Y  Y2  1  0.28982100  0.71017900  0.28982100  1
  Y  Y3  1  0.71017900  0.28982100  0.71017900  1
  Y  Y4  1  0.28982100  0.28982100  0.71017900  1
  Y  Y5  1  0.71017900  0.71017900  0.28982100  1
  Si  Si0  1  0.50000000  0.00000000  0.00000000  1
  Si  Si1  1  0.00000000  0.50000000  0.50000000  1
  Si  Si2  1  0.00000000  0.50000000  0.00000000  1
  Si  Si3  1  0.50000000  0.00000000  0.50000000  1
  Si  Si4  1  0.00000000  0.00000000  0.50000000  1
  Si  Si5  1  0.50000000  0.50000000  0.00000000  1
  Si  Si6  1  0.00000000  0.00000000  0.00000000  1
  Ni  Ni0  1  0.32773800  0.32773800  0.32773800  1
  Ni  Ni1  1  0.67226200  0.67226200  0.67226200  1
  Ni  Ni2  1  0.32773800  0.32773800  0.01678700  1
  Ni  Ni3  1  0.32773800  0.01678700  0.32773800  1
  Ni  Ni4  1  0.67226200  0.67226200  0.98321300  1
  Ni  Ni5  1  0.67226200  0.98321300  0.67226200  1
  Ni  Ni6  1  0.01678700  0.32773800  0.32773800  1
  Ni  Ni7  1  0.98321300  0.67226200  0.67226200  1
  Ni  Ni8  1  0.12065700  0.12065700  0.12065700  1
  Ni  Ni9  1  0.87934300  0.87934300  0.87934300  1
  Ni  Ni10  1  0.12065700  0.12065700  0.63803000  1
  Ni  Ni11  1  0.12065700  0.63803000  0.12065700  1
  Ni  Ni12  1  0.87934300  0.87934300  0.36197000  1
  Ni  Ni13  1  0.87934300  0.36197000  0.87934300  1
  Ni  Ni14  1  0.63803000  0.12065700  0.12065700  1
  Ni  Ni15  1  0.36197000  0.87934300  0.87934300  1
loop_
_geom_bond_atom_site_label_1
_geom_bond_atom_site_label_2
_geom_bond_distance
_geom_bond_site_symmetry_2
Si0 Y5 2.973463 1_545
Si0 Y2 2.973463 1_545
Si0 Y4 2.973463 1_554
Si0 Y3 2.973463 1_554
Si1 Y5 2.973463 1_455
Si1 Y4 2.973463 1_555
Si1 Y3 2.973463 1_455
Si1 Y2 2.973463 1_555
Si2 Y0 2.973463 1_455
Si2 Y1 2.973463 1_554
Si2 Y4 2.973463 1_554
Si2 Y5 2.973463 1_455
Si3 Y5 2.973463 1_545
Si3 Y0 2.973463 1_555
Si3 Y4 2.973463 1_555
Si3 Y1 2.973463 1_545
Si4 Y2 2.973463 1_545
Si4 Y0 2.973463 1_455
Si4 Y1 2.973463 1_545
Si4 Y3 2.973463 1_455
Si5 Y0 2.973463 1_555
Si5 Y1 2.973463 1_554
Si5 Y2 2.973463 1_555
Si5 Y3 2.973463 1_554
Ni0 Si3 2.400298 1_555
Ni0 Si1 2.400298 1_555
Ni0 Si5 2.400298 1_555
Ni0 Ni11 2.578963 1_555
Ni0 Ni14 2.578963 1_555
Ni0 Ni10 2.578963 1_555
Ni0 Ni2 2.582610 1_555
Ni0 Ni6 2.582610 1_555
Ni0 Ni3 2.582610 1_555
Ni0 Y2 2.895903 1_555
Ni0 Y0 2.895903 1_555
Ni0 Y4 2.895903 1_555
Ni1 Si5 2.400298 1_556
Ni1 Si1 2.400298 1_655
Ni1 Si3 2.400298 1_565
Ni1 Ni15 2.578963 1_555
Ni1 Ni12 2.578963 1_555
Ni1 Ni13 2.578963 1_555
Ni1 Ni4 2.582610 1_555
Ni1 Ni5 2.582610 1_555
Ni1 Ni7 2.582610 1_555
Ni1 Y1 2.895903 1_555
Ni1 Y5 2.895903 1_555
Ni1 Y3 2.895903 1_555
Ni2 Si5 2.400294 1_555
Ni2 Si0 2.400301 1_555
Ni2 Si2 2.400301 1_555
Ni2 Ni8 2.578963 1_555
Ni2 Ni6 2.582610 1_555
Ni2 Ni3 2.582610 1_555
Ni2 Y3 2.895906 1_554
Ni2 Y1 2.895906 1_554
Ni2 Y4 2.895911 1_554
Ni3 Si3 2.400294 1_555
Ni3 Si0 2.400301 1_555
Ni3 Si4 2.400301 1_555
Ni3 Ni8 2.578963 1_555
Ni3 Ni6 2.582610 1_555
Ni3 Y5 2.895906 1_545
Ni3 Y1 2.895906 1_545
Ni3 Y2 2.895911 1_545
Ni4 Si5 2.400294 1_556
Ni4 Si0 2.400301 1_566
Ni4 Si2 2.400301 1_656
Ni4 Ni9 2.578963 1_555
Ni4 Ni5 2.582610 1_555
Ni4 Ni7 2.582610 1_555
Ni4 Y2 2.895906 1_556
Ni4 Y0 2.895906 1_556
Ni4 Y5 2.895911 1_556
Ni5 Si3 2.400294 1_565
Ni5 Si0 2.400301 1_566
Ni5 Si4 2.400301 1_665
Ni5 Ni9 2.578963 1_555
Ni5 Ni7 2.582610 1_555
Ni5 Y0 2.895906 1_565
Ni5 Y4 2.895906 1_565
Ni5 Y3 2.895911 1_565
Ni6 Si1 2.400294 1_555
Ni6 Si2 2.400301 1_555
Ni6 Si4 2.400301 1_555
Ni6 Ni8 2.578963 1_555
Ni6 Y5 2.895906 1_455
Ni6 Y3 2.895906 1_455
Ni6 Y0 2.895911 1_455
Ni7 Si1 2.400294 1_655
Ni7 Si2 2.400301 1_656
Ni7 Si4 2.400301 1_665
Ni7 Ni9 2.578963 1_555
Ni7 Y4 2.895906 1_655
Ni7 Y2 2.895906 1_655
Ni7 Y1 2.895911 1_655
Ni8 Si6 2.454681 1_555
Ni8 Si0 2.573837 1_555
Ni8 Si4 2.573837 1_555
Ni8 Si2 2.573837 1_555
Ni8 Y2 2.822233 1_545
Ni8 Y0 2.822233 1_455
Ni8 Y4 2.822233 1_554
Ni9 Si6 2.454681 1_666
Ni9 Si0 2.573837 1_566
Ni9 Si4 2.573837 1_665
Ni9 Si2 2.573837 1_656
Ni9 Y5 2.822233 1_556
Ni9 Y1 2.822233 1_655
Ni9 Y3 2.822233 1_565
Ni10 Si6 2.454674 1_556
Ni10 Si3 2.573837 1_555
Ni10 Si1 2.573837 1_555
Ni10 Si4 2.573843 1_555
Ni10 Ni3 2.578963 1_555
Ni10 Ni6 2.578963 1_555
Ni10 Y4 2.822227 1_555
Ni10 Y1 2.822234 1_545
Ni10 Y3 2.822234 1_455
Ni10 Ni13 2.834410 1_455
Ni10 Ni15 2.834410 1_545
Ni10 Ni9 2.834422 1_445
Ni11 Si6 2.454674 1_565
Ni11 Si5 2.573837 1_555
Ni11 Si1 2.573837 1_555
Ni11 Si2 2.573843 1_555
Ni11 Ni2 2.578963 1_555
Ni11 Ni6 2.578963 1_555
Ni11 Y2 2.822227 1_555
Ni11 Y5 2.822234 1_455
Ni11 Y1 2.822234 1_554
Ni11 Ni12 2.834410 1_455
Ni11 Ni15 2.834410 1_554
Ni11 Ni9 2.834422 1_454
Ni12 Si6 2.454674 1_665
Ni12 Si1 2.573837 1_655
Ni12 Si3 2.573837 1_565
Ni12 Si4 2.573843 1_665
Ni12 Ni7 2.578963 1_555
Ni12 Ni5 2.578963 1_555
Ni12 Y5 2.822227 1_555
Ni12 Y2 2.822234 1_655
Ni12 Y0 2.822234 1_565
Ni12 Ni14 2.834410 1_565
Ni12 Ni8 2.834422 1_665
Ni13 Si6 2.454674 1_656
Ni13 Si5 2.573837 1_556
Ni13 Si1 2.573837 1_655
Ni13 Si2 2.573843 1_656
Ni13 Ni4 2.578963 1_555
Ni13 Ni7 2.578963 1_555
Ni13 Y3 2.822227 1_555
Ni13 Y4 2.822234 1_655
Ni13 Y0 2.822234 1_556
Ni13 Ni14 2.834410 1_556
Ni13 Ni8 2.834422 1_656
Ni14 Si6 2.454674 1_655
Ni14 Si5 2.573837 1_555
Ni14 Si3 2.573837 1_555
Ni14 Si0 2.573843 1_555
Ni14 Ni2 2.578963 1_555
Ni14 Ni3 2.578963 1_555
Ni14 Y0 2.822227 1_555
Ni14 Y3 2.822234 1_554
Ni14 Y5 2.822234 1_545
Ni14 Ni9 2.834422 1_544
Ni15 Si6 2.454674 1_566
Ni15 Si3 2.573837 1_565
Ni15 Si5 2.573837 1_556
Ni15 Si0 2.573843 1_566
Ni15 Ni4 2.578963 1_555
Ni15 Ni5 2.578963 1_555
Ni15 Y1 2.822227 1_555
Ni15 Y4 2.822234 1_565
Ni15 Y2 2.822234 1_556
Ni15 Ni8 2.834422 1_566
