# generated using pymatgen
data_Na4Sr2TiP4
_symmetry_space_group_name_H-M   'P 1'
_cell_length_a   9.39513816
_cell_length_b   9.39513816
_cell_length_c   7.43955524
_cell_angle_alpha   89.73174555
_cell_angle_beta   89.73174555
_cell_angle_gamma   120.31017944
_symmetry_Int_Tables_number   1
_chemical_formula_structural   Na4Sr2TiP4
_chemical_formula_sum   'Na8 Sr4 Ti2 P8'
_cell_volume   566.89000997
_cell_formula_units_Z   2
loop_
 _symmetry_equiv_pos_site_id
 _symmetry_equiv_pos_as_xyz
  1  'x, y, z'
loop_
 _atom_site_type_symbol
 _atom_site_label
 _atom_site_symmetry_multiplicity
 _atom_site_fract_x
 _atom_site_fract_y
 _atom_site_fract_z
 _atom_site_occupancy
  Na  Na0  1  0.47005600  0.93701900  0.38762700  1
  Na  Na1  1  0.93701900  0.47005600  0.88762700  1
  Na  Na2  1  0.86946700  0.73225100  0.20752800  1
  Na  Na3  1  0.27613500  0.12828500  0.23150000  1
  Na  Na4  1  0.85432000  0.13200700  0.22332000  1
  Na  Na5  1  0.12828500  0.27613500  0.73150000  1
  Na  Na6  1  0.73225100  0.86946700  0.70752800  1
  Na  Na7  1  0.13200700  0.85432000  0.72332000  1
  Sr  Sr0  1  0.05677800  0.53421000  0.39147400  1
  Sr  Sr1  1  0.47809800  0.53674900  0.38965300  1
  Sr  Sr2  1  0.53421000  0.05677800  0.89147400  1
  Sr  Sr3  1  0.53674900  0.47809800  0.88965300  1
  Ti  Ti0  1  0.66246200  0.32651400  0.49805200  1
  Ti  Ti1  1  0.32651400  0.66246200  0.99805200  1
  P  P0  1  0.66514600  0.33722800  0.17507200  1
  P  P1  1  0.33722800  0.66514600  0.67507200  1
  P  P2  1  0.19518200  0.38504700  0.11163700  1
  P  P3  1  0.61438500  0.80582400  0.09393300  1
  P  P4  1  0.19442500  0.80742500  0.09973900  1
  P  P5  1  0.80582400  0.61438500  0.59393300  1
  P  P6  1  0.38504700  0.19518200  0.61163700  1
  P  P7  1  0.80742500  0.19442500  0.59973900  1
loop_
_geom_bond_atom_site_label_1
_geom_bond_atom_site_label_2
_geom_bond_distance
_geom_bond_site_symmetry_2
Na0 P1 3.059604 1_555
Na0 P4 3.109569 1_555
Na0 P3 3.133134 1_555
Na0 Ti0 3.270883 1_565
Na0 P7 3.275769 1_565
Na0 P6 3.358398 1_565
Na1 P0 3.059604 1_556
Na1 P7 3.109569 1_555
Na1 P5 3.133134 1_555
Na1 Ti1 3.270883 1_655
Na1 P4 3.275769 1_656
Na1 P2 3.358398 1_656
Na2 P4 2.873700 1_655
Na2 P3 2.936136 1_555
Na2 P5 3.022143 1_555
Na2 P0 3.215387 1_555
Na3 P4 2.887288 1_545
Na3 P6 2.972292 1_555
Na3 P2 3.005163 1_555
Na3 P0 3.181763 1_555
Na4 P3 2.911113 1_545
Na4 P7 2.940205 1_555
Na4 P2 2.978216 1_655
Na4 P0 3.234743 1_555
Na5 P7 2.887288 1_455
Na5 P2 2.972292 1_556
Na5 P6 3.005163 1_555
Na5 P1 3.181763 1_555
Na6 P7 2.873700 1_565
Na6 P5 2.936136 1_555
Na6 P3 3.022143 1_556
Na6 P1 3.215387 1_555
Na7 P5 2.911113 1_455
Na7 P4 2.940205 1_556
Na7 P6 2.978216 1_565
Na7 P1 3.234743 1_555
P0 Ti0 2.403946 1_555
P0 Sr3 3.053646 1_554
P0 Sr2 3.116401 1_554
P1 Ti1 2.403946 1_555
P1 Sr1 3.053646 1_555
P1 Sr0 3.116401 1_555
P2 Ti1 2.398577 1_554
P2 Sr1 3.103171 1_555
P2 Sr0 3.135324 1_555
P2 Sr3 3.300737 1_554
P3 Ti1 2.447018 1_554
P3 Sr1 3.086211 1_555
P3 Sr3 3.179533 1_554
P3 Sr2 3.188260 1_564
P4 Ti1 2.382041 1_554
P4 Sr0 3.089145 1_555
P4 Sr2 3.232779 1_564
P5 Ti0 2.447018 1_555
P5 Sr3 3.086211 1_555
P5 Sr1 3.179533 1_555
P5 Sr0 3.188260 1_655
P6 Ti0 2.398577 1_555
P6 Sr3 3.103171 1_555
P6 Sr2 3.135324 1_555
P6 Sr1 3.300737 1_555
P7 Ti0 2.382041 1_555
P7 Sr2 3.089145 1_555
P7 Sr0 3.232779 1_655
