# generated using pymatgen
data_Li4MnCo2O7
_symmetry_space_group_name_H-M   'P 1'
_cell_length_a   6.70235558
_cell_length_b   6.70235558
_cell_length_c   14.52424445
_cell_angle_alpha   68.08427564
_cell_angle_beta   68.08427564
_cell_angle_gamma   24.92207160
_symmetry_Int_Tables_number   1
_chemical_formula_structural   Li4MnCo2O7
_chemical_formula_sum   'Li8 Mn2 Co4 O14'
_cell_volume   254.05515428
_cell_formula_units_Z   2
loop_
 _symmetry_equiv_pos_site_id
 _symmetry_equiv_pos_as_xyz
  1  'x, y, z'
loop_
 _atom_site_type_symbol
 _atom_site_label
 _atom_site_symmetry_multiplicity
 _atom_site_fract_x
 _atom_site_fract_y
 _atom_site_fract_z
 _atom_site_occupancy
  Li  Li0  1  0.28151800  0.28151800  0.07099500  1
  Li  Li1  1  0.85442800  0.85442800  0.22102100  1
  Li  Li2  1  0.42472700  0.42472700  0.36415300  1
  Li  Li3  1  0.72086900  0.72086900  0.92124500  1
  Li  Li4  1  0.14493000  0.14493000  0.77945800  1
  Li  Li5  1  0.00295500  0.00295500  0.50122600  1
  Li  Li6  1  0.57235700  0.57235700  0.63911300  1
  Li  Li7  1  0.71347400  0.71347400  0.43005300  1
  Mn  Mn0  1  0.00041300  0.00041300  0.99717500  1
  Mn  Mn1  1  0.57381900  0.57381900  0.14645900  1
  Co  Co0  1  0.15251300  0.15251300  0.29732300  1
  Co  Co1  1  0.27440700  0.27440700  0.56486300  1
  Co  Co2  1  0.86059500  0.86059500  0.70817500  1
  Co  Co3  1  0.42304400  0.42304400  0.85549800  1
  O  O0  1  0.44667800  0.44667800  0.09843100  1
  O  O1  1  0.00630200  0.00630200  0.23750900  1
  O  O2  1  0.57316400  0.57316400  0.38501000  1
  O  O3  1  0.85708900  0.85708900  0.95998800  1
  O  O4  1  0.29122900  0.29122900  0.81398000  1
  O  O5  1  0.15055500  0.15055500  0.53947500  1
  O  O6  1  0.72659400  0.72659400  0.66756800  1
  O  O7  1  0.13761800  0.13761800  0.05115900  1
  O  O8  1  0.69753400  0.69753400  0.18406800  1
  O  O9  1  0.28055000  0.28055000  0.31554300  1
  O  O10  1  0.56351100  0.56351100  0.90140800  1
  O  O11  1  0.99387200  0.99387200  0.75685200  1
  O  O12  1  0.85135200  0.85135200  0.47662200  1
  O  O13  1  0.42390000  0.42390000  0.61562900  1
loop_
_geom_bond_atom_site_label_1
_geom_bond_atom_site_label_2
_geom_bond_distance
_geom_bond_site_symmetry_2
Li0 O7 2.011321 1_555
Li0 O3 2.109549 1_454
Li0 O3 2.109549 1_544
Li0 O8 2.148692 1_455
Li0 O8 2.148692 1_545
Li0 O0 2.343203 1_555
Li1 O9 1.973936 1_655
Li1 O9 1.973936 1_565
Li1 O1 2.091150 1_665
Li1 O0 2.253030 1_565
Li1 O0 2.253030 1_655
Li1 O8 2.312541 1_555
Li2 O2 2.077622 1_555
Li2 O12 2.117291 1_545
Li2 O12 2.117291 1_455
Li2 O9 2.253504 1_555
Li2 O1 2.261309 1_655
Li2 O1 2.261309 1_565
Li3 O3 2.064622 1_555
Li3 O4 2.066386 1_655
Li3 O4 2.066386 1_565
Li3 O10 2.186054 1_555
Li3 O7 2.295084 1_656
Li3 O7 2.295084 1_566
Li4 O11 2.124470 1_445
Li4 O6 2.132385 1_455
Li4 O6 2.132385 1_545
Li4 O4 2.156911 1_555
Li4 O10 2.218427 1_545
Li4 O10 2.218427 1_455
Li5 O2 2.144602 1_545
Li5 O2 2.144602 1_455
Li5 O12 2.146472 1_445
Li5 O13 2.146799 1_545
Li5 O13 2.146799 1_455
Li5 O5 2.204873 1_555
Li6 O5 2.025100 1_565
Li6 O5 2.025100 1_655
Li6 O13 2.097342 1_555
Li6 O11 2.174432 1_545
Li6 O11 2.174432 1_455
Li6 O6 2.210023 1_555
Li7 O5 2.072419 1_655
Li7 O5 2.072419 1_565
Li7 O9 2.124181 1_565
Li7 O9 2.124181 1_655
Li7 O12 2.155811 1_555
Li7 O2 2.172390 1_555
Mn0 O10 1.957064 1_545
Mn0 O10 1.957064 1_455
Mn0 O0 1.989542 1_546
Mn0 O0 1.989542 1_456
Mn0 O3 2.141390 1_445
Mn0 O7 2.217295 1_556
Mn1 O8 1.896503 1_555
Mn1 O1 1.930769 1_655
Mn1 O1 1.930769 1_565
Mn1 O7 1.954761 1_565
Mn1 O7 1.954761 1_655
Mn1 O0 2.035543 1_555
Co0 O9 1.793769 1_555
Co0 O2 1.944475 1_455
Co0 O2 1.944475 1_545
Co0 O8 2.098464 1_545
Co0 O8 2.098464 1_455
Co0 O1 2.384992 1_555
Co1 O5 1.794685 1_555
Co1 O12 1.939489 1_455
Co1 O12 1.939489 1_545
Co1 O6 1.998669 1_455
Co1 O6 1.998669 1_545
Co1 O13 2.339943 1_555
Co2 O13 1.932196 1_565
Co2 O13 1.932196 1_655
Co2 O4 2.052010 1_565
Co2 O4 2.052010 1_655
Co2 O6 2.053033 1_555
Co2 O11 2.117978 1_555
Co3 O11 1.997075 1_455
Co3 O11 1.997075 1_545
Co3 O4 2.033649 1_555
Co3 O3 2.034303 1_455
Co3 O3 2.034303 1_545
Co3 O10 2.182245 1_555
