# generated using pymatgen
data_Mg(MoO2)2
_symmetry_space_group_name_H-M   'P 1'
_cell_length_a   6.39939127
_cell_length_b   6.39939127
_cell_length_c   15.46587512
_cell_angle_alpha   89.08715270
_cell_angle_beta   89.08715270
_cell_angle_gamma   59.30806108
_symmetry_Int_Tables_number   1
_chemical_formula_structural   Mg(MoO2)2
_chemical_formula_sum   'Mg6 Mo12 O24'
_cell_volume   544.55149354
_cell_formula_units_Z   6
loop_
 _symmetry_equiv_pos_site_id
 _symmetry_equiv_pos_as_xyz
  1  'x, y, z'
loop_
 _atom_site_type_symbol
 _atom_site_label
 _atom_site_symmetry_multiplicity
 _atom_site_fract_x
 _atom_site_fract_y
 _atom_site_fract_z
 _atom_site_occupancy
  Mg  Mg0  1  0.33470900  0.33470900  0.04561700  1
  Mg  Mg1  1  0.00001300  0.00001300  0.37470300  1
  Mg  Mg2  1  0.99996900  0.99996900  0.00417400  1
  Mg  Mg3  1  0.66364400  0.66364400  0.70805100  1
  Mg  Mg4  1  0.33393300  0.33393300  0.28952100  1
  Mg  Mg5  1  0.99879800  0.99879800  0.62472700  1
  Mo  Mo0  1  0.83807300  0.83807300  0.16589200  1
  Mo  Mo1  1  0.33368000  0.83570600  0.16442800  1
  Mo  Mo2  1  0.49915900  0.49915900  0.49966100  1
  Mo  Mo3  1  0.83570600  0.33368000  0.16442800  1
  Mo  Mo4  1  0.66666200  0.66666200  0.33169300  1
  Mo  Mo5  1  0.99941700  0.49907900  0.49960300  1
  Mo  Mo6  1  0.16300900  0.16300900  0.83483100  1
  Mo  Mo7  1  0.49907900  0.99941700  0.49960300  1
  Mo  Mo8  1  0.16296000  0.66335100  0.83432100  1
  Mo  Mo9  1  0.33083500  0.33083500  0.66710600  1
  Mo  Mo10  1  0.66335100  0.16296000  0.83432100  1
  Mo  Mo11  1  0.66791700  0.66791700  0.95589700  1
  O  O0  1  0.68889600  0.16197300  0.08505200  1
  O  O1  1  0.00119100  0.00119100  0.24220000  1
  O  O2  1  0.16197300  0.68889600  0.08505200  1
  O  O3  1  0.15647400  0.15647400  0.08122500  1
  O  O4  1  0.51134600  0.51134600  0.24753900  1
  O  O5  1  0.35110100  0.82699600  0.41934900  1
  O  O6  1  0.50835500  0.98177400  0.24593600  1
  O  O7  1  0.67732800  0.67732800  0.09115800  1
  O  O8  1  0.82699600  0.35110100  0.41934900  1
  O  O9  1  0.66340100  0.66340100  0.57630600  1
  O  O10  1  0.98177400  0.50835500  0.24593600  1
  O  O11  1  0.82320500  0.82320500  0.41735100  1
  O  O12  1  0.17537100  0.17537100  0.58271200  1
  O  O13  1  0.01509500  0.48929300  0.75395400  1
  O  O14  1  0.17227400  0.64635400  0.58093100  1
  O  O15  1  0.33509500  0.33509500  0.42324500  1
  O  O16  1  0.32783900  0.32783900  0.91070700  1
  O  O17  1  0.48929300  0.01509500  0.75395400  1
  O  O18  1  0.64635400  0.17227400  0.58093100  1
  O  O19  1  0.48666500  0.48666500  0.75208700  1
  O  O20  1  0.85177000  0.85177000  0.92197700  1
  O  O21  1  0.99952700  0.99952700  0.75798600  1
  O  O22  1  0.83047000  0.31095000  0.91160200  1
  O  O23  1  0.31095000  0.83047000  0.91160200  1
loop_
_geom_bond_atom_site_label_1
_geom_bond_atom_site_label_2
_geom_bond_distance
_geom_bond_site_symmetry_2
Mg0 O3 2.047741 1_555
Mg0 O0 2.048447 1_555
Mg0 O2 2.048447 1_555
Mg0 O16 2.089299 1_554
Mg1 O1 2.049077 1_555
Mg1 O8 2.058196 1_455
Mg1 O5 2.058196 1_545
Mg1 O11 2.062720 1_445
Mg2 O20 2.099987 1_554
Mg2 O2 2.111255 1_655
Mg2 O0 2.111255 1_565
Mg2 O3 2.127498 1_665
Mg2 O22 2.223031 1_564
Mg2 O23 2.223031 1_654
Mg3 O9 2.037603 1_555
Mg3 O17 2.066677 1_565
Mg3 O13 2.066677 1_655
Mg3 O19 2.071106 1_555
Mg4 O6 2.058043 1_545
Mg4 O10 2.058043 1_455
Mg4 O4 2.066017 1_555
Mg4 O15 2.068436 1_555
Mg5 O12 2.057301 1_665
Mg5 O14 2.060787 1_655
Mg5 O18 2.060787 1_565
Mg5 O21 2.061132 1_555
Mo0 O7 2.146683 1_555
Mo0 O2 2.169402 1_655
Mo0 O0 2.169402 1_565
Mo0 O1 2.182413 1_665
Mo0 O10 2.191464 1_555
Mo0 O6 2.191464 1_555
Mo1 O2 2.175015 1_555
Mo1 O3 2.177502 1_565
Mo1 O1 2.180429 1_565
Mo1 O4 2.192217 1_555
Mo1 O7 2.197590 1_555
Mo1 O6 2.204869 1_555
Mo2 O8 2.183393 1_555
Mo2 O5 2.183393 1_555
Mo2 O14 2.187564 1_555
Mo2 O18 2.187564 1_555
Mo2 O15 2.192197 1_555
Mo2 O9 2.195829 1_555
Mo3 O0 2.175015 1_555
Mo3 O3 2.177502 1_655
Mo3 O1 2.180429 1_655
Mo3 O4 2.192217 1_555
Mo3 O7 2.197590 1_555
Mo3 O10 2.204869 1_555
Mo4 O6 2.173455 1_555
Mo4 O10 2.173455 1_555
Mo4 O4 2.181891 1_555
Mo4 O8 2.193287 1_555
Mo4 O5 2.193287 1_555
Mo4 O11 2.207082 1_555
Mo5 O11 2.183134 1_555
Mo5 O15 2.183522 1_655
Mo5 O9 2.187919 1_555
Mo5 O12 2.188920 1_655
Mo5 O8 2.191469 1_555
Mo5 O14 2.200078 1_655
Mo6 O22 2.175607 1_455
Mo6 O23 2.175607 1_545
Mo6 O17 2.181114 1_555
Mo6 O13 2.181114 1_555
Mo6 O21 2.190441 1_445
Mo6 O16 2.194774 1_555
Mo7 O11 2.183134 1_555
Mo7 O15 2.183522 1_565
Mo7 O9 2.187919 1_555
Mo7 O12 2.188920 1_565
Mo7 O5 2.191469 1_555
Mo7 O18 2.200078 1_565
Mo8 O23 2.140075 1_555
Mo8 O19 2.181278 1_555
Mo8 O16 2.182912 1_555
Mo8 O20 2.184566 1_455
Mo8 O21 2.185711 1_455
Mo8 O13 2.199668 1_555
Mo9 O14 2.179131 1_555
Mo9 O18 2.179131 1_555
Mo9 O12 2.185481 1_555
Mo9 O13 2.186392 1_555
Mo9 O17 2.186392 1_555
Mo9 O19 2.194305 1_555
Mo10 O22 2.140075 1_555
Mo10 O19 2.181278 1_555
Mo10 O16 2.182912 1_555
Mo10 O20 2.184566 1_545
Mo10 O21 2.185711 1_545
Mo10 O17 2.199668 1_555
Mo11 O22 2.090716 1_555
Mo11 O23 2.090716 1_555
Mo11 O7 2.096463 1_556
Mo11 O20 2.101789 1_555
