# generated using pymatgen
data_Na2ZnB6O11
_symmetry_space_group_name_H-M   'P 1'
_cell_length_a   6.60915451
_cell_length_b   6.60915451
_cell_length_c   11.62636618
_cell_angle_alpha   71.89816748
_cell_angle_beta   71.89816748
_cell_angle_gamma   68.96305354
_symmetry_Int_Tables_number   1
_chemical_formula_structural   Na2ZnB6O11
_chemical_formula_sum   'Na4 Zn2 B12 O22'
_cell_volume   439.04017540
_cell_formula_units_Z   2
loop_
 _symmetry_equiv_pos_site_id
 _symmetry_equiv_pos_as_xyz
  1  'x, y, z'
loop_
 _atom_site_type_symbol
 _atom_site_label
 _atom_site_symmetry_multiplicity
 _atom_site_fract_x
 _atom_site_fract_y
 _atom_site_fract_z
 _atom_site_occupancy
  Na  Na0  1  0.26528600  0.44268800  0.53442200  1
  Na  Na1  1  0.44268800  0.26528600  0.03442200  1
  Na  Na2  1  0.73471400  0.55731200  0.46557800  1
  Na  Na3  1  0.55731200  0.73471400  0.96557800  1
  Zn  Zn0  1  0.13181900  0.86818100  0.75000000  1
  Zn  Zn1  1  0.86818100  0.13181900  0.25000000  1
  B  B0  1  0.78753600  0.74015900  0.65411300  1
  B  B1  1  0.74015900  0.78753600  0.15411300  1
  B  B2  1  0.89283100  0.29402400  0.98784500  1
  B  B3  1  0.29402400  0.89283100  0.48784500  1
  B  B4  1  0.90798900  0.32470500  0.76573400  1
  B  B5  1  0.32470500  0.90798900  0.26573400  1
  B  B6  1  0.67529500  0.09201100  0.73426600  1
  B  B7  1  0.09201100  0.67529500  0.23426600  1
  B  B8  1  0.10716900  0.70597600  0.01215500  1
  B  B9  1  0.70597600  0.10716900  0.51215500  1
  B  B10  1  0.25984100  0.21246400  0.84588700  1
  B  B11  1  0.21246400  0.25984100  0.34588700  1
  O  O0  1  0.74607300  0.83831300  0.75021100  1
  O  O1  1  0.83831300  0.74607300  0.25021100  1
  O  O2  1  0.79047500  0.37282500  0.88867200  1
  O  O3  1  0.37282500  0.79047500  0.38867200  1
  O  O4  1  0.85212000  0.51619000  0.66248900  1
  O  O5  1  0.51619000  0.85212000  0.16248900  1
  O  O6  1  0.12652300  0.22994700  0.96562000  1
  O  O7  1  0.22994700  0.12652300  0.46562000  1
  O  O8  1  0.77005300  0.87347700  0.53438000  1
  O  O9  1  0.87347700  0.77005300  0.03438000  1
  O  O10  1  0.86864100  0.13135900  0.75000000  1
  O  O11  1  0.13135900  0.86864100  0.25000000  1
  O  O12  1  0.28616300  0.76151000  0.60322400  1
  O  O13  1  0.76151000  0.28616300  0.10322400  1
  O  O14  1  0.16168700  0.25392700  0.74978900  1
  O  O15  1  0.25392700  0.16168700  0.24978900  1
  O  O16  1  0.48381000  0.14788000  0.83751100  1
  O  O17  1  0.14788000  0.48381000  0.33751100  1
  O  O18  1  0.23849000  0.71383700  0.89677600  1
  O  O19  1  0.71383700  0.23849000  0.39677600  1
  O  O20  1  0.62717500  0.20952500  0.61132800  1
  O  O21  1  0.20952500  0.62717500  0.11132800  1
loop_
_geom_bond_atom_site_label_1
_geom_bond_atom_site_label_2
_geom_bond_distance
_geom_bond_site_symmetry_2
Na0 O14 2.429323 1_555
Na0 O12 2.534502 1_555
Na0 O17 2.546171 1_555
Na0 O7 2.562411 1_555
Na0 O3 2.581499 1_555
Na0 O20 2.592560 1_555
Na0 O4 2.622996 1_455
Na1 O15 2.429323 1_555
Na1 O13 2.534502 1_555
Na1 O16 2.546171 1_554
Na1 O6 2.562411 1_554
Na1 O2 2.581499 1_554
Na1 O21 2.592560 1_555
Na1 O5 2.622996 1_545
Na2 O1 2.429323 1_555
Na2 O19 2.534502 1_555
Na2 O4 2.546171 1_555
Na2 O8 2.562411 1_555
Na2 O20 2.581499 1_555
Na2 O3 2.592560 1_555
Na2 O17 2.622996 1_655
Na3 O0 2.429323 1_555
Na3 O18 2.534502 1_555
Na3 O5 2.546171 1_556
Na3 O9 2.562411 1_556
Na3 O21 2.581499 1_556
Na3 O2 2.592560 1_555
Na3 O16 2.622996 1_565
B0 O4 1.365812 1_555
B0 O0 1.369937 1_555
B0 O8 1.411455 1_555
B1 O5 1.365812 1_555
B1 O1 1.369937 1_555
B1 O9 1.411455 1_555
B2 O13 1.349452 1_556
B2 O2 1.384534 1_555
B2 O6 1.407841 1_655
B3 O12 1.349452 1_555
B3 O3 1.384534 1_555
B3 O7 1.407841 1_565
B4 O10 1.465403 1_555
B4 O2 1.470586 1_555
B4 O4 1.474711 1_555
B4 O14 1.536954 1_655
B5 O11 1.465403 1_555
B5 O3 1.470586 1_555
B5 O5 1.474711 1_555
B5 O15 1.536954 1_565
B6 O10 1.465403 1_555
B6 O20 1.470586 1_555
B6 O16 1.474711 1_555
B6 O0 1.536954 1_545
B7 O11 1.465403 1_555
B7 O21 1.470586 1_555
B7 O17 1.474711 1_555
B7 O1 1.536954 1_455
B8 O18 1.349452 1_554
B8 O21 1.384534 1_555
B8 O9 1.407841 1_455
B9 O19 1.349452 1_555
B9 O20 1.384534 1_555
B9 O8 1.407841 1_545
B10 O16 1.365812 1_555
B10 O14 1.369937 1_555
B10 O6 1.411455 1_555
B11 O17 1.365812 1_555
B11 O15 1.369937 1_555
B11 O7 1.411455 1_555
O10 Zn0 1.969472 1_645
O11 Zn1 1.969472 1_465
O12 Zn0 1.897159 1_555
O13 Zn1 1.897159 1_555
O18 Zn0 1.897159 1_555
O19 Zn1 1.897159 1_555
