# generated using pymatgen
data_K9CuS8(NO9)2
_symmetry_space_group_name_H-M   'P 1'
_cell_length_a   12.22574550
_cell_length_b   12.22574550
_cell_length_c   12.22574550
_cell_angle_alpha   114.30144123
_cell_angle_beta   114.30144123
_cell_angle_gamma   100.19072585
_symmetry_Int_Tables_number   1
_chemical_formula_structural   K9CuS8(NO9)2
_chemical_formula_sum   'K18 Cu2 S16 N4 O36'
_cell_volume   1379.68389316
_cell_formula_units_Z   2
loop_
 _symmetry_equiv_pos_site_id
 _symmetry_equiv_pos_as_xyz
  1  'x, y, z'
loop_
 _atom_site_type_symbol
 _atom_site_label
 _atom_site_symmetry_multiplicity
 _atom_site_fract_x
 _atom_site_fract_y
 _atom_site_fract_z
 _atom_site_occupancy
  K  K0  1  0.25000000  0.75000000  0.50000000  1
  K  K1  1  0.50000000  0.50000000  0.00000000  1
  K  K2  1  0.00699900  0.50699900  0.50000000  1
  K  K3  1  0.74300100  0.74300100  0.00000000  1
  K  K4  1  0.49300100  0.99300100  0.50000000  1
  K  K5  1  0.25699900  0.25699900  0.00000000  1
  K  K6  1  0.91264800  0.62500000  0.78764800  1
  K  K7  1  0.83735200  0.12500000  0.21235200  1
  K  K8  1  0.87500000  0.08735200  0.71235200  1
  K  K9  1  0.37500000  0.16264800  0.28764800  1
  K  K10  1  0.00351700  0.94628300  0.45045400  1
  K  K11  1  0.25417100  0.30371700  0.55723400  1
  K  K12  1  0.49582900  0.55306300  0.54954600  1
  K  K13  1  0.74648300  0.69693700  0.44276600  1
  K  K14  1  0.44693700  0.99648300  0.94276600  1
  K  K15  1  0.69628300  0.25351700  0.95045400  1
  K  K16  1  0.05371700  0.50417100  0.05723400  1
  K  K17  1  0.30306300  0.74582900  0.04954600  1
  Cu  Cu0  1  0.75000000  0.25000000  0.50000000  1
  Cu  Cu1  1  0.00000000  0.00000000  0.00000000  1
  S  S0  1  0.96050800  0.25480000  0.55544000  1
  S  S1  1  0.05064000  0.99520000  0.20570800  1
  S  S2  1  0.69936000  0.40506800  0.44456000  1
  S  S3  1  0.78949200  0.84493200  0.79429200  1
  S  S4  1  0.59493200  0.03949200  0.29429200  1
  S  S5  1  0.00480000  0.21050800  0.05544000  1
  S  S6  1  0.74520000  0.30064000  0.70570800  1
  S  S7  1  0.15506800  0.94936000  0.94456000  1
  S  S8  1  0.10093100  0.38721500  0.76960500  1
  S  S9  1  0.13239000  0.86278500  0.21371600  1
  S  S10  1  0.61761000  0.33132600  0.23039500  1
  S  S11  1  0.64906900  0.91867400  0.78628400  1
  S  S12  1  0.66867400  0.89906900  0.28628400  1
  S  S13  1  0.13721500  0.35093100  0.26960500  1
  S  S14  1  0.61278500  0.38239000  0.71371600  1
  S  S15  1  0.08132600  0.86761000  0.73039500  1
  N  N0  1  0.36135600  0.12500000  0.73635600  1
  N  N1  1  0.38864400  0.62500000  0.26364400  1
  N  N2  1  0.37500000  0.63864400  0.76364400  1
  N  N3  1  0.87500000  0.61135600  0.23635600  1
  O  O0  1  0.40474400  0.20132700  0.86786300  1
  O  O1  1  0.41653600  0.04867300  0.70341700  1
  O  O2  1  0.33346400  0.53688000  0.13213700  1
  O  O3  1  0.34525600  0.71312000  0.29658300  1
  O  O4  1  0.46312000  0.59525600  0.79658300  1
  O  O5  1  0.95132700  0.65474400  0.36786300  1
  O  O6  1  0.79867300  0.66653600  0.20341700  1
  O  O7  1  0.28688000  0.58346400  0.63213700  1
  O  O8  1  0.26682100  0.12500000  0.64182100  1
  O  O9  1  0.48317900  0.62500000  0.35817900  1
  O  O10  1  0.37500000  0.73317900  0.85817900  1
  O  O11  1  0.87500000  0.51682100  0.14182100  1
  O  O12  1  0.08183100  0.51142800  0.81531000  1
  O  O13  1  0.05388200  0.73857200  0.07040300  1
  O  O14  1  0.69611800  0.26652100  0.18469000  1
  O  O15  1  0.66816900  0.98347900  0.92959700  1
  O  O16  1  0.73347900  0.91816900  0.42959700  1
  O  O17  1  0.26142800  0.33183100  0.31531000  1
  O  O18  1  0.48857200  0.30388200  0.57040300  1
  O  O19  1  0.01652100  0.94611800  0.68469000  1
  O  O20  1  0.23327500  0.41131000  0.79095700  1
  O  O21  1  0.12964700  0.83869000  0.32196500  1
  O  O22  1  0.62035300  0.44231700  0.20904300  1
  O  O23  1  0.51672500  0.80768300  0.67803500  1
  O  O24  1  0.55768300  0.76672500  0.17803500  1
  O  O25  1  0.16131000  0.48327500  0.29095700  1
  O  O26  1  0.58869000  0.37964700  0.82196500  1
  O  O27  1  0.19231700  0.87035300  0.70904300  1
  O  O28  1  0.07916400  0.32505100  0.84520700  1
  O  O29  1  0.27015600  0.92494900  0.25411300  1
  O  O30  1  0.47984400  0.23395800  0.15479300  1
  O  O31  1  0.67083600  0.01604200  0.74588700  1
  O  O32  1  0.76604200  0.92083600  0.24588700  1
  O  O33  1  0.07505100  0.32916400  0.34520700  1
  O  O34  1  0.67494900  0.52015600  0.75411300  1
  O  O35  1  0.98395800  0.72984400  0.65479300  1
loop_
_geom_bond_atom_site_label_1
_geom_bond_atom_site_label_2
_geom_bond_distance
_geom_bond_site_symmetry_2
K0 O23 2.819469 1_555
K0 O21 2.819472 1_555
K0 O25 2.819472 1_555
K0 O27 2.819481 1_555
K0 O7 3.064472 1_555
K0 O1 3.064473 1_565
K0 O5 3.064473 1_455
K0 O3 3.064474 1_555
K1 O24 2.819469 1_555
K1 O26 2.819472 1_554
K1 O20 2.819472 1_554
K1 O22 2.819481 1_555
K1 O2 3.064472 1_555
K1 O6 3.064473 1_555
K1 O0 3.064473 1_554
K1 O4 3.064474 1_554
K2 O35 2.747728 1_455
K2 O33 2.747735 1_555
K2 O7 2.875311 1_555
K2 O5 2.875322 1_455
K3 O34 2.747735 1_554
K3 O32 2.747741 1_555
K3 O4 2.875314 1_554
K3 O6 2.875322 1_555
K4 O29 2.747735 1_555
K4 O31 2.747741 1_565
K4 O3 2.875314 1_555
K4 O1 2.875322 1_565
K5 O30 2.747728 1_555
K5 O28 2.747735 1_554
K5 O2 2.875311 1_555
K5 O0 2.875322 1_554
K6 O13 2.673488 1_656
K6 O12 2.673488 1_655
K6 O34 2.743160 1_555
K6 O35 2.743166 1_555
K7 O15 2.673488 1_544
K7 O14 2.673488 1_555
K7 O33 2.743160 1_655
K7 O32 2.743163 1_545
K8 O16 2.673488 1_545
K8 O19 2.673488 1_645
K8 O28 2.743160 1_655
K8 O31 2.743163 1_555
K9 O17 2.673488 1_555
K9 O18 2.673488 1_555
K9 O29 2.743160 1_545
K9 O30 2.743166 1_555
K10 O21 2.754373 1_555
K10 O8 2.777601 1_565
K10 O32 2.800791 1_455
K10 O19 2.802900 1_555
K10 O6 3.054912 1_455
K10 O5 3.135847 1_455
K10 O16 3.148959 1_455
K10 S1 3.523160 1_555
K10 S0 3.663788 1_465
K11 O20 2.754373 1_555
K11 O8 2.777601 1_555
K11 O33 2.800783 1_555
K11 O18 2.802900 1_555
K11 O7 3.054914 1_555
K11 O4 3.135850 1_555
K11 O17 3.148959 1_555
K11 S0 3.523160 1_455
K11 S1 3.663788 1_545
K12 O23 2.754384 1_555
K12 O9 2.777601 1_555
K12 O34 2.800783 1_555
K12 O17 2.802900 1_555
K12 O4 3.054905 1_555
K12 O7 3.135859 1_555
K12 O18 3.148959 1_555
K12 S3 3.523160 1_555
K12 S2 3.663788 1_555
K13 O22 2.754380 1_555
K13 O9 2.777601 1_555
K13 O35 2.800791 1_555
K13 O16 2.802900 1_555
K13 O5 3.054912 1_555
K13 O6 3.135847 1_555
K13 O19 3.148959 1_655
K13 S2 3.523160 1_555
K13 S3 3.663788 1_555
K14 O27 2.754380 1_555
K14 O10 2.777601 1_555
K14 O30 2.800791 1_566
K14 O15 2.802900 1_555
K14 O0 3.054912 1_565
K14 O1 3.135847 1_565
K14 O14 3.148959 1_566
K14 S7 3.523160 1_555
K14 S4 3.663788 1_566
K15 O26 2.754373 1_555
K15 O11 2.777601 1_556
K15 O31 2.800791 1_555
K15 O14 2.802900 1_556
K15 O1 3.054912 1_555
K15 O0 3.135847 1_555
K15 O15 3.148959 1_545
K15 S6 3.523160 1_555
K15 S5 3.663788 1_656
K16 O25 2.754373 1_555
K16 O11 2.777601 1_455
K16 O28 2.800783 1_554
K16 O13 2.802900 1_555
K16 O2 3.054914 1_555
K16 O3 3.135850 1_555
K16 O12 3.148959 1_554
K16 S5 3.523160 1_555
K16 S6 3.663788 1_454
K17 O24 2.754384 1_555
K17 O10 2.777601 1_554
K17 O29 2.800783 1_555
K17 O12 2.802900 1_554
K17 O3 3.054905 1_555
K17 O2 3.135859 1_555
K17 O13 3.148959 1_555
K17 S4 3.523160 1_565
K17 S7 3.663788 1_554
Cu0 S0 2.358902 1_555
Cu0 S6 2.358902 1_555
Cu0 S2 2.358902 1_555
Cu0 S4 2.358902 1_555
Cu1 S7 2.358902 1_544
Cu1 S1 2.358902 1_545
Cu1 S5 2.358902 1_555
Cu1 S3 2.358902 1_444
N0 O8 1.253841 1_555
N0 O0 1.274801 1_555
N0 O1 1.274801 1_555
N1 O9 1.253841 1_555
N1 O2 1.274804 1_555
N1 O3 1.274811 1_555
N2 O10 1.253841 1_555
N2 O7 1.274804 1_555
N2 O4 1.274811 1_555
N3 O11 1.253841 1_555
N3 O6 1.274801 1_555
N3 O5 1.274801 1_555
O12 S8 1.485713 1_555
O13 S9 1.485713 1_555
O14 S10 1.485713 1_555
O15 S11 1.485713 1_555
O16 S12 1.485713 1_555
O17 S13 1.485713 1_555
O18 S14 1.485713 1_555
O19 S15 1.485713 1_555
O20 S8 1.480968 1_555
O21 S9 1.480968 1_555
O22 S10 1.480956 1_555
O23 S11 1.480964 1_555
O24 S12 1.480964 1_555
O25 S13 1.480968 1_555
O26 S14 1.480968 1_555
O27 S15 1.480956 1_555
O28 S8 1.487212 1_555
O29 S9 1.487212 1_555
O30 S10 1.487207 1_555
O31 S11 1.487201 1_545
O32 S12 1.487201 1_555
O33 S13 1.487212 1_555
O34 S14 1.487212 1_555
O35 S15 1.487207 1_655
