# generated using pymatgen
data_Cd6P7NO24
_symmetry_space_group_name_H-M   'P 1'
_cell_length_a   27.78551900
_cell_length_b   5.55688700
_cell_length_c   6.89827195
_cell_angle_alpha   72.73495729
_cell_angle_beta   90.00000000
_cell_angle_gamma   90.00000000
_symmetry_Int_Tables_number   1
_chemical_formula_structural   Cd6P7NO24
_chemical_formula_sum   'Cd12 P14 N2 O48'
_cell_volume   1017.10879709
_cell_formula_units_Z   2
loop_
 _symmetry_equiv_pos_site_id
 _symmetry_equiv_pos_as_xyz
  1  'x, y, z'
loop_
 _atom_site_type_symbol
 _atom_site_label
 _atom_site_symmetry_multiplicity
 _atom_site_fract_x
 _atom_site_fract_y
 _atom_site_fract_z
 _atom_site_occupancy
  Cd  Cd0  1  0.15056200  0.00288600  0.00300900  1
  Cd  Cd1  1  0.84943800  0.00288600  0.00300900  1
  Cd  Cd2  1  0.29384200  0.03337000  0.60939800  1
  Cd  Cd3  1  0.70615800  0.03337000  0.60939800  1
  Cd  Cd4  1  0.06494800  0.32160000  0.62396700  1
  Cd  Cd5  1  0.93505200  0.32160000  0.62396700  1
  Cd  Cd6  1  0.20728000  0.39396400  0.23782200  1
  Cd  Cd7  1  0.79272000  0.39396400  0.23782200  1
  Cd  Cd8  1  0.34966300  0.42521400  0.84472400  1
  Cd  Cd9  1  0.65033700  0.42521400  0.84472400  1
  Cd  Cd10  1  0.43516400  0.10613400  0.22309300  1
  Cd  Cd11  1  0.56483600  0.10613400  0.22309300  1
  P  P0  1  0.14254300  0.88297000  0.53388400  1
  P  P1  1  0.85745700  0.88297000  0.53388400  1
  P  P2  1  0.42055500  0.96757200  0.75292000  1
  P  P3  1  0.57944500  0.96757200  0.75292000  1
  P  P4  1  0.22574100  0.50785800  0.71550000  1
  P  P5  1  0.77425900  0.50785800  0.71550000  1
  P  P6  1  0.50000000  0.68550900  0.02996900  1
  P  P7  1  0.35728800  0.54553400  0.31337500  1
  P  P8  1  0.64271200  0.54553400  0.31337500  1
  P  P9  1  0.00000000  0.74049900  0.81498900  1
  P  P10  1  0.07954800  0.46063300  0.09339500  1
  P  P11  1  0.92045200  0.46063300  0.09339500  1
  P  P12  1  0.27444600  0.91937700  0.13207300  1
  P  P13  1  0.72555400  0.91937700  0.13207300  1
  N  N0  1  0.00000000  0.93891000  0.27255300  1
  N  N1  1  0.50000000  0.46899700  0.57103800  1
  O  O0  1  0.20203600  0.35301000  0.91427700  1
  O  O1  1  0.79796400  0.35301000  0.91427700  1
  O  O2  1  0.29884100  0.07209800  0.93468100  1
  O  O3  1  0.70115900  0.07209800  0.93468100  1
  O  O4  1  0.50000000  0.40660200  0.14223900  1
  O  O5  1  0.34563600  0.36673100  0.52570800  1
  O  O6  1  0.65436400  0.36673100  0.52570800  1
  O  O7  1  0.15502300  0.06173900  0.32210200  1
  O  O8  1  0.84497700  0.06173900  0.32210200  1
  O  O9  1  0.37307500  0.83518100  0.73164700  1
  O  O10  1  0.62692500  0.83518100  0.73164700  1
  O  O11  1  0.00000000  0.01939900  0.70075500  1
  O  O12  1  0.04603300  0.69477000  0.95969400  1
  O  O13  1  0.95396700  0.69477000  0.95969400  1
  O  O14  1  0.00000000  0.55187200  0.69374900  1
  O  O15  1  0.45418100  0.73154400  0.88426500  1
  O  O16  1  0.54581900  0.73154400  0.88426500  1
  O  O17  1  0.37169500  0.39126200  0.16919700  1
  O  O18  1  0.62830500  0.39126200  0.16919700  1
  O  O19  1  0.05425800  0.34633100  0.29456400  1
  O  O20  1  0.94574200  0.34633100  0.29456400  1
  O  O21  1  0.41578000  0.15090800  0.88098100  1
  O  O22  1  0.58422000  0.15090800  0.88098100  1
  O  O23  1  0.50000000  0.87140000  0.15241400  1
  O  O24  1  0.12692900  0.59248300  0.11532600  1
  O  O25  1  0.87307100  0.59248300  0.11532600  1
  O  O26  1  0.44563000  0.08532500  0.55161100  1
  O  O27  1  0.55437000  0.08532500  0.55161100  1
  O  O28  1  0.27100200  0.07169800  0.28491300  1
  O  O29  1  0.72899800  0.07169800  0.28491300  1
  O  O30  1  0.27438700  0.62260100  0.75005500  1
  O  O31  1  0.72561300  0.62260100  0.75005500  1
  O  O32  1  0.22563500  0.80645800  0.09653400  1
  O  O33  1  0.77436500  0.80645800  0.09653400  1
  O  O34  1  0.12852200  0.03885700  0.67774900  1
  O  O35  1  0.87147800  0.03885700  0.67774900  1
  O  O36  1  0.08452100  0.27635300  0.96752400  1
  O  O37  1  0.91547900  0.27635300  0.96752400  1
  O  O38  1  0.19405400  0.75794700  0.62089200  1
  O  O39  1  0.80594600  0.75794700  0.62089200  1
  O  O40  1  0.30519700  0.66569400  0.22878600  1
  O  O41  1  0.69480300  0.66569400  0.22878600  1
  O  O42  1  0.22935400  0.35503000  0.56309200  1
  O  O43  1  0.77064600  0.35503000  0.56309200  1
  O  O44  1  0.39204500  0.75073900  0.31906500  1
  O  O45  1  0.60795500  0.75073900  0.31906500  1
  O  O46  1  0.10695400  0.68353100  0.52582500  1
  O  O47  1  0.89304600  0.68353100  0.52582500  1
loop_
_geom_bond_atom_site_label_1
_geom_bond_atom_site_label_2
_geom_bond_distance
_geom_bond_site_symmetry_2
Cd0 O34 2.276641 1_554
Cd0 O24 2.276758 1_545
Cd0 O7 2.322685 1_555
Cd0 O0 2.344928 1_554
Cd0 O36 2.348519 1_554
Cd0 O32 2.353893 1_545
Cd1 O35 2.276641 1_554
Cd1 O25 2.276758 1_545
Cd1 O8 2.322685 1_555
Cd1 O1 2.344928 1_554
Cd1 O37 2.348519 1_554
Cd1 O33 2.353893 1_545
Cd2 O30 2.264788 1_545
Cd2 O28 2.274971 1_555
Cd2 O5 2.280599 1_555
Cd2 O2 2.321055 1_555
Cd2 O42 2.483684 1_555
Cd2 O9 2.493893 1_545
Cd3 O31 2.264788 1_545
Cd3 O29 2.274971 1_555
Cd3 O6 2.280599 1_555
Cd3 O3 2.321055 1_555
Cd3 O43 2.483684 1_555
Cd3 O10 2.493893 1_545
Cd4 O46 2.248852 1_555
Cd4 O19 2.255027 1_555
Cd4 O34 2.319593 1_555
Cd4 O14 2.343362 1_555
Cd4 O36 2.371063 1_555
Cd4 O11 2.414383 1_555
Cd5 O47 2.248852 1_555
Cd5 O20 2.255027 1_555
Cd5 O35 2.319593 1_555
Cd5 O14 2.343362 1_655
Cd5 O37 2.371063 1_555
Cd5 O11 2.414383 1_655
Cd6 O32 2.266722 1_555
Cd6 O42 2.273649 1_555
Cd6 O7 2.284162 1_555
Cd6 O0 2.314283 1_554
Cd6 O28 2.470225 1_555
Cd6 O24 2.522327 1_555
Cd7 O33 2.266722 1_555
Cd7 O43 2.273649 1_555
Cd7 O8 2.284162 1_555
Cd7 O1 2.314283 1_554
Cd7 O29 2.470225 1_555
Cd7 O25 2.522327 1_555
Cd8 O9 2.273044 1_555
Cd8 O17 2.273693 1_556
Cd8 O5 2.320679 1_555
Cd8 O2 2.346636 1_555
Cd8 O21 2.352579 1_555
Cd8 O30 2.362013 1_555
Cd9 O10 2.273044 1_555
Cd9 O18 2.273693 1_556
Cd9 O6 2.320679 1_555
Cd9 O3 2.346636 1_555
Cd9 O22 2.352579 1_555
Cd9 O31 2.362013 1_555
Cd10 O44 2.235577 1_545
Cd10 O26 2.253460 1_555
Cd10 O17 2.325718 1_555
Cd10 O23 2.358403 1_545
Cd10 O21 2.360713 1_554
Cd10 O4 2.406554 1_555
Cd11 O45 2.235577 1_545
Cd11 O27 2.253460 1_555
Cd11 O18 2.325718 1_555
Cd11 O23 2.358403 1_545
Cd11 O22 2.360713 1_554
Cd11 O4 2.406554 1_555
O0 P4 1.534311 1_555
O1 P5 1.534311 1_555
O2 P12 1.532272 1_546
O3 P13 1.532272 1_546
O4 P6 1.513064 1_555
O5 P7 1.540651 1_555
O6 P8 1.540651 1_555
O7 P0 1.542706 1_545
O8 P1 1.542706 1_545
O9 P2 1.538598 1_555
O10 P3 1.538598 1_555
O11 P9 1.515904 1_545
O12 P9 1.595747 1_555
O12 P10 1.642662 1_556
O13 P9 1.595747 1_655
O13 P11 1.642662 1_556
O14 P9 1.522667 1_555
O15 P6 1.594946 1_556
O15 P2 1.645822 1_555
O16 P6 1.594946 1_556
O16 P3 1.645822 1_555
O17 P7 1.546109 1_555
O18 P8 1.546109 1_555
O19 P10 1.516501 1_555
O20 P11 1.516501 1_555
O21 P2 1.539521 1_545
O22 P3 1.539521 1_545
O23 P6 1.516046 1_555
O24 P10 1.535800 1_555
O25 P11 1.535800 1_555
O26 P2 1.517449 1_545
O27 P3 1.517449 1_545
O28 P12 1.538487 1_545
O29 P13 1.538487 1_545
O30 P4 1.542906 1_555
O31 P5 1.542906 1_555
O32 P12 1.544191 1_555
O33 P13 1.544191 1_555
O34 P0 1.548337 1_545
O35 P1 1.548337 1_545
O36 P10 1.532787 1_556
O37 P11 1.532787 1_556
O38 P4 1.610605 1_555
O38 P0 1.626006 1_555
O39 P5 1.610605 1_555
O39 P1 1.626006 1_555
O40 P12 1.613727 1_555
O40 P7 1.627869 1_555
O41 P13 1.613727 1_555
O41 P8 1.627869 1_555
O42 P4 1.538385 1_555
O43 P5 1.538385 1_555
O44 P7 1.503679 1_555
O45 P8 1.503679 1_555
O46 P0 1.498581 1_555
O47 P1 1.498581 1_555
