# generated using pymatgen
data_Fe5Si2B
_symmetry_space_group_name_H-M   'P 1'
_cell_length_a   4.41683800
_cell_length_b   6.53391295
_cell_length_c   6.53391295
_cell_angle_alpha   83.44023796
_cell_angle_beta   70.24533601
_cell_angle_gamma   70.24533601
_symmetry_Int_Tables_number   1
_chemical_formula_structural   Fe5Si2B
_chemical_formula_sum   'Fe10 Si4 B2'
_cell_volume   167.02230489
_cell_formula_units_Z   2
loop_
 _symmetry_equiv_pos_site_id
 _symmetry_equiv_pos_as_xyz
  1  'x, y, z'
loop_
 _atom_site_type_symbol
 _atom_site_label
 _atom_site_symmetry_multiplicity
 _atom_site_fract_x
 _atom_site_fract_y
 _atom_site_fract_z
 _atom_site_occupancy
  Fe  Fe0  1  0.70800600  0.86389500  0.72009300  1
  Fe  Fe1  1  0.29199400  0.13610500  0.27990700  1
  Fe  Fe2  1  0.79199400  0.27990700  0.13610500  1
  Fe  Fe3  1  0.20800600  0.72009300  0.86389500  1
  Fe  Fe4  1  0.57190100  0.72009300  0.13610500  1
  Fe  Fe5  1  0.42809900  0.27990700  0.86389500  1
  Fe  Fe6  1  0.07190100  0.13610500  0.72009300  1
  Fe  Fe7  1  0.92809900  0.86389500  0.27990700  1
  Fe  Fe8  1  0.75000000  0.50000000  0.50000000  1
  Fe  Fe9  1  0.25000000  0.50000000  0.50000000  1
  Si  Si0  1  0.16704500  0.50000000  0.16591000  1
  Si  Si1  1  0.83295500  0.50000000  0.83409000  1
  Si  Si2  1  0.33295500  0.83409000  0.50000000  1
  Si  Si3  1  0.66704500  0.16591000  0.50000000  1
  B  B0  1  0.25000000  0.00000000  0.00000000  1
  B  B1  1  0.75000000  0.00000000  0.00000000  1
loop_
_geom_bond_atom_site_label_1
_geom_bond_atom_site_label_2
_geom_bond_distance
_geom_bond_site_symmetry_2
Fe0 Si3 2.298043 1_565
Fe0 Si1 2.344963 1_555
Fe0 Si2 2.596632 1_555
Fe0 Si2 2.596632 1_655
Fe1 Si2 2.298043 1_545
Fe1 Si0 2.344963 1_555
Fe1 Si3 2.596632 1_455
Fe1 Si3 2.596632 1_555
Fe2 Si1 2.298043 1_554
Fe2 Si3 2.344963 1_555
Fe2 Si0 2.596632 1_655
Fe2 Si0 2.596632 1_555
Fe3 Si0 2.298043 1_556
Fe3 Si2 2.344963 1_555
Fe3 Si1 2.596632 1_455
Fe3 Si1 2.596632 1_555
Fe4 Si1 2.298043 1_554
Fe4 Si2 2.344963 1_555
Fe4 Si0 2.596632 1_655
Fe4 Si0 2.596632 1_555
Fe5 Si0 2.298043 1_556
Fe5 Si3 2.344963 1_555
Fe5 Si1 2.596632 1_555
Fe5 Si1 2.596632 1_455
Fe6 Si2 2.298043 1_545
Fe6 Si1 2.344963 1_455
Fe6 Si3 2.596632 1_455
Fe6 Si3 2.596632 1_555
Fe7 Si3 2.298043 1_565
Fe7 Si0 2.344963 1_655
Fe7 Si2 2.596632 1_655
Fe7 Si2 2.596632 1_555
Fe8 Fe9 2.208419 1_655
Fe8 Fe9 2.208419 1_555
Fe8 Si0 2.332388 1_655
Fe8 Si2 2.332388 1_555
Fe8 Si1 2.332388 1_555
Fe8 Si3 2.332388 1_555
Fe9 Si2 2.332388 1_555
Fe9 Si1 2.332388 1_455
Fe9 Si0 2.332388 1_555
Fe9 Si3 2.332388 1_555
B0 B1 2.208419 1_455
B0 B1 2.208419 1_555
B0 Fe4 2.209639 1_545
B0 Fe7 2.209639 1_445
B0 Fe3 2.209639 1_544
B0 Fe0 2.209639 1_544
B0 Fe5 2.209639 1_554
B0 Fe2 2.209639 1_455
B0 Fe1 2.209639 1_555
B0 Fe6 2.209639 1_554
B1 Fe7 2.209639 1_545
B1 Fe3 2.209639 1_644
B1 Fe0 2.209639 1_544
B1 Fe5 2.209639 1_554
B1 Fe6 2.209639 1_654
B1 Fe1 2.209639 1_555
B1 Fe2 2.209639 1_555
B1 Fe4 2.209639 1_545
