# generated using pymatgen
data_SbH2C(O2F3)2
_symmetry_space_group_name_H-M   'P 1'
_cell_length_a   8.36836499
_cell_length_b   8.36836499
_cell_length_c   13.31058665
_cell_angle_alpha   74.67897676
_cell_angle_beta   105.32102324
_cell_angle_gamma   114.86945023
_symmetry_Int_Tables_number   1
_chemical_formula_structural   SbH2C(O2F3)2
_chemical_formula_sum   'Sb4 H8 C4 O16 F24'
_cell_volume   803.05756318
_cell_formula_units_Z   4
loop_
 _symmetry_equiv_pos_site_id
 _symmetry_equiv_pos_as_xyz
  1  'x, y, z'
loop_
 _atom_site_type_symbol
 _atom_site_label
 _atom_site_symmetry_multiplicity
 _atom_site_fract_x
 _atom_site_fract_y
 _atom_site_fract_z
 _atom_site_occupancy
  Sb  Sb0  1  0.75498500  0.19498600  0.63922900  1
  Sb  Sb1  1  0.19498600  0.75498500  0.86077100  1
  Sb  Sb2  1  0.24501500  0.80501400  0.36077100  1
  Sb  Sb3  1  0.80501400  0.24501500  0.13922900  1
  H  H0  1  0.26955500  0.22918100  0.09631300  1
  H  H1  1  0.22918100  0.26955500  0.40368700  1
  H  H2  1  0.73044500  0.77081900  0.90368700  1
  H  H3  1  0.77081900  0.73044500  0.59631300  1
  H  H4  1  0.05170700  0.17702000  0.84055700  1
  H  H5  1  0.17702000  0.05170700  0.65944300  1
  H  H6  1  0.94829300  0.82298000  0.15944300  1
  H  H7  1  0.82298000  0.94829300  0.34055700  1
  C  C0  1  0.08231700  0.08732000  0.99952500  1
  C  C1  1  0.08732000  0.08231700  0.50047500  1
  C  C2  1  0.91768300  0.91268000  0.00047400  1
  C  C3  1  0.91268000  0.91768300  0.49952600  1
  O  O0  1  0.16918400  0.11157400  0.09299200  1
  O  O1  1  0.11157400  0.16918400  0.40700800  1
  O  O2  1  0.83081600  0.88842600  0.90700800  1
  O  O3  1  0.88842600  0.83081600  0.59299200  1
  O  O4  1  0.12917000  0.19488400  0.91710700  1
  O  O5  1  0.19488400  0.12917000  0.58289300  1
  O  O6  1  0.87083000  0.80511600  0.08289300  1
  O  O7  1  0.80511600  0.87083000  0.41710700  1
  O  O8  1  0.46720700  0.61267200  0.13557600  1
  O  O9  1  0.61267200  0.46720700  0.36442400  1
  O  O10  1  0.53279300  0.38732800  0.86442400  1
  O  O11  1  0.38732800  0.53279300  0.63557600  1
  O  O12  1  0.45214200  0.46174100  0.13154400  1
  O  O13  1  0.46174100  0.45214200  0.36845600  1
  O  O14  1  0.54785800  0.53825900  0.86845600  1
  O  O15  1  0.53825900  0.54785800  0.63154400  1
  F  F0  1  0.84581300  0.17086800  0.52672900  1
  F  F1  1  0.17086800  0.84581300  0.97327100  1
  F  F2  1  0.15418700  0.82913200  0.47327100  1
  F  F3  1  0.82913200  0.15418700  0.02672900  1
  F  F4  1  0.68844100  0.22030400  0.75831200  1
  F  F5  1  0.22030400  0.68844100  0.74168800  1
  F  F6  1  0.31155900  0.77969600  0.24168800  1
  F  F7  1  0.77969600  0.31155900  0.25831200  1
  F  F8  1  0.98586000  0.19516300  0.73201500  1
  F  F9  1  0.19516300  0.98586000  0.76798500  1
  F  F10  1  0.01414000  0.80483700  0.26798500  1
  F  F11  1  0.80483700  0.01414000  0.23201500  1
  F  F12  1  0.66530900  0.94001500  0.67846200  1
  F  F13  1  0.94001500  0.66530900  0.82153800  1
  F  F14  1  0.33469100  0.05998500  0.32153800  1
  F  F15  1  0.05998500  0.33469100  0.17846200  1
  F  F16  1  0.53497600  0.18909200  0.54909800  1
  F  F17  1  0.18909200  0.53497600  0.95090200  1
  F  F18  1  0.46502400  0.81090800  0.45090200  1
  F  F19  1  0.81090800  0.46502400  0.04909800  1
  F  F20  1  0.86344100  0.44792400  0.59894200  1
  F  F21  1  0.44792400  0.86344100  0.90105800  1
  F  F22  1  0.13655900  0.55207600  0.40105800  1
  F  F23  1  0.55207600  0.13655900  0.09894200  1
loop_
_geom_bond_atom_site_label_1
_geom_bond_atom_site_label_2
_geom_bond_distance
_geom_bond_site_symmetry_2
H0 O0 0.992034 1_555
H1 O1 0.992034 1_555
H2 O2 0.992034 1_555
H3 O3 0.992034 1_555
H4 O4 1.063348 1_555
H5 O5 1.063348 1_555
H6 O6 1.063348 1_555
H7 O7 1.063348 1_555
C0 O4 1.255416 1_555
C0 O0 1.284069 1_556
C1 O5 1.255416 1_555
C1 O1 1.284069 1_555
C2 O6 1.255426 1_555
C2 O2 1.284058 1_554
C3 O7 1.255426 1_555
C3 O3 1.284058 1_555
O10 O14 1.229786 1_555
O11 O15 1.229786 1_555
O12 O8 1.229786 1_555
O13 O9 1.229786 1_555
F0 Sb0 1.936751 1_555
F1 Sb1 1.936751 1_555
F2 Sb2 1.936751 1_555
F3 Sb3 1.936751 1_555
F4 Sb0 1.900150 1_555
F5 Sb1 1.900150 1_555
F6 Sb2 1.900150 1_555
F7 Sb3 1.900150 1_555
F8 H4 1.395620 1_655
F8 Sb0 1.998927 1_555
F9 H5 1.395620 1_565
F9 Sb1 1.998927 1_555
F10 H6 1.395620 1_455
F10 Sb2 1.998927 1_555
F11 H7 1.395620 1_545
F11 Sb3 1.998927 1_555
F12 Sb0 1.913110 1_565
F13 Sb1 1.913110 1_655
F14 Sb2 1.913110 1_545
F15 Sb3 1.913110 1_455
F16 Sb0 1.902383 1_555
F17 Sb1 1.902383 1_555
F18 Sb2 1.902383 1_555
F19 Sb3 1.902383 1_555
F20 Sb0 1.906082 1_555
F21 Sb1 1.906082 1_555
F22 Sb2 1.906082 1_555
F23 Sb3 1.906082 1_555
