# generated using pymatgen
data_Fe3Ni3B2
_symmetry_space_group_name_H-M   'P 1'
_cell_length_a   5.29250900
_cell_length_b   4.40939600
_cell_length_c   6.62096734
_cell_angle_alpha   89.98159361
_cell_angle_beta   90.00000000
_cell_angle_gamma   90.00000000
_symmetry_Int_Tables_number   1
_chemical_formula_structural   Fe3Ni3B2
_chemical_formula_sum   'Fe6 Ni6 B4'
_cell_volume   154.51197091
_cell_formula_units_Z   2
loop_
 _symmetry_equiv_pos_site_id
 _symmetry_equiv_pos_as_xyz
  1  'x, y, z'
loop_
 _atom_site_type_symbol
 _atom_site_label
 _atom_site_symmetry_multiplicity
 _atom_site_fract_x
 _atom_site_fract_y
 _atom_site_fract_z
 _atom_site_occupancy
  Fe  Fe0  1  0.67744900  0.89664700  0.69359600  1
  Fe  Fe1  1  0.17744900  0.10335300  0.30640400  1
  Fe  Fe2  1  0.32112200  0.60304600  0.18876900  1
  Fe  Fe3  1  0.82112200  0.39695400  0.81123100  1
  Fe  Fe4  1  0.31908800  0.59965700  0.81000800  1
  Fe  Fe5  1  0.81908800  0.40034300  0.18999200  1
  Ni  Ni0  1  0.68301800  0.90198500  0.31566900  1
  Ni  Ni1  1  0.18301800  0.09801500  0.68433100  1
  Ni  Ni2  1  0.52682900  0.37955500  0.49795000  1
  Ni  Ni3  1  0.02682900  0.62044500  0.50205000  1
  Ni  Ni4  1  0.47151500  0.11912400  0.00104700  1
  Ni  Ni5  1  0.97151500  0.88087600  0.99895300  1
  B  B0  1  0.87886500  0.19358300  0.50441900  1
  B  B1  1  0.37886500  0.80641700  0.49558100  1
  B  B2  1  0.12211300  0.30495700  0.99919700  1
  B  B3  1  0.62211300  0.69504300  0.00080300  1
loop_
_geom_bond_atom_site_label_1
_geom_bond_atom_site_label_2
_geom_bond_distance
_geom_bond_site_symmetry_2
B0 Ni2 2.036073 1_555
B0 Ni3 2.038667 1_655
B0 Ni1 2.046321 1_655
B0 Ni0 2.071325 1_545
B0 Fe1 2.091578 1_655
B0 Fe0 2.102005 1_545
B0 Fe3 2.241711 1_555
B0 Fe5 2.294337 1_555
B1 Ni3 2.036073 1_555
B1 Ni2 2.038667 1_555
B1 Ni0 2.046321 1_555
B1 Ni1 2.071325 1_565
B1 Fe0 2.091578 1_555
B1 Fe1 2.102005 1_565
B1 Fe2 2.241711 1_555
B1 Fe4 2.294337 1_555
B2 Ni4 2.022664 1_556
B2 Ni5 2.032722 1_445
B2 Fe3 2.061721 1_455
B2 Fe4 2.084071 1_555
B2 Fe5 2.084488 1_456
B2 Fe2 2.100819 1_556
B2 Fe1 2.238757 1_556
B2 Ni1 2.298654 1_555
B3 Ni5 2.022664 1_554
B3 Ni4 2.032722 1_565
B3 Fe2 2.061721 1_555
B3 Fe5 2.084071 1_555
B3 Fe4 2.084488 1_554
B3 Fe3 2.100819 1_554
B3 Fe0 2.238757 1_554
B3 Ni0 2.298654 1_555
