# generated using pymatgen
data_CeB4ClO8
_symmetry_space_group_name_H-M   'P 1'
_cell_length_a   6.56969004
_cell_length_b   6.56969004
_cell_length_c   9.27211816
_cell_angle_alpha   82.15365134
_cell_angle_beta   82.15365134
_cell_angle_gamma   119.82123049
_symmetry_Int_Tables_number   1
_chemical_formula_structural   CeB4ClO8
_chemical_formula_sum   'Ce2 B8 Cl2 O16'
_cell_volume   334.07964291
_cell_formula_units_Z   2
loop_
 _symmetry_equiv_pos_site_id
 _symmetry_equiv_pos_as_xyz
  1  'x, y, z'
loop_
 _atom_site_type_symbol
 _atom_site_label
 _atom_site_symmetry_multiplicity
 _atom_site_fract_x
 _atom_site_fract_y
 _atom_site_fract_z
 _atom_site_occupancy
  Ce  Ce0  1  0.43554200  0.83630900  0.06828700  1
  Ce  Ce1  1  0.83630900  0.43554200  0.56828700  1
  B  B0  1  0.87531500  0.69152600  0.22715300  1
  B  B1  1  0.69152600  0.87531500  0.72715300  1
  B  B2  1  0.49603700  0.38771300  0.17356300  1
  B  B3  1  0.38771300  0.49603700  0.67356300  1
  B  B4  1  0.77565000  0.26195200  0.24744400  1
  B  B5  1  0.26195200  0.77565000  0.74744400  1
  B  B6  1  0.06630500  0.13426300  0.15332300  1
  B  B7  1  0.13426300  0.06630500  0.65332300  1
  Cl  Cl0  1  0.30672100  0.66781400  0.38824800  1
  Cl  Cl1  1  0.66781400  0.30672100  0.88824800  1
  O  O0  1  0.28104600  0.35301900  0.13939200  1
  O  O1  1  0.35301900  0.28104600  0.63939200  1
  O  O2  1  0.66011000  0.82725700  0.88828200  1
  O  O3  1  0.82725700  0.66011000  0.38828200  1
  O  O4  1  0.65657400  0.62474800  0.16977900  1
  O  O5  1  0.62474800  0.65657400  0.66977900  1
  O  O6  1  0.96027000  0.52585800  0.19336500  1
  O  O7  1  0.52585800  0.96027000  0.69336500  1
  O  O8  1  0.07905100  0.93383200  0.14983800  1
  O  O9  1  0.93383200  0.07905100  0.64983800  1
  O  O10  1  0.84860600  0.12107600  0.16871900  1
  O  O11  1  0.12107600  0.84860600  0.66871900  1
  O  O12  1  0.21491000  0.76165000  0.90619000  1
  O  O13  1  0.76165000  0.21491000  0.40619000  1
  O  O14  1  0.53951600  0.20707900  0.21424200  1
  O  O15  1  0.20707900  0.53951600  0.71424200  1
loop_
_geom_bond_atom_site_label_1
_geom_bond_atom_site_label_2
_geom_bond_distance
_geom_bond_site_symmetry_2
Ce0 O2 2.099493 1_554
Ce0 O12 2.165532 1_554
Ce0 O4 2.636159 1_555
Ce0 O6 2.699212 1_455
Ce0 O0 2.754348 1_555
Ce0 O8 2.758360 1_555
Ce0 O14 2.780100 1_565
Ce0 O10 2.801352 1_565
Ce0 Cl1 2.805654 1_564
Ce0 Cl0 2.868635 1_555
Ce1 O3 2.099493 1_555
Ce1 O13 2.165532 1_555
Ce1 O5 2.636159 1_555
Ce1 O7 2.699212 1_545
Ce1 O1 2.754348 1_555
Ce1 O9 2.758360 1_555
Ce1 O15 2.780100 1_655
Ce1 O11 2.801352 1_655
Ce1 Cl0 2.805654 1_655
Ce1 Cl1 2.868635 1_555
B0 O3 1.447946 1_555
B0 O8 1.465188 1_655
B0 O4 1.478520 1_555
B0 O6 1.497923 1_555
B1 O2 1.447946 1_555
B1 O9 1.465188 1_565
B1 O5 1.478520 1_555
B1 O7 1.497923 1_555
B2 O14 1.369848 1_555
B2 O4 1.371154 1_555
B2 O0 1.403208 1_555
B3 O15 1.369848 1_555
B3 O5 1.371154 1_555
B3 O1 1.403208 1_555
B4 O13 1.442588 1_555
B4 O10 1.466032 1_555
B4 O6 1.494524 1_555
B4 O14 1.495266 1_555
B5 O12 1.442588 1_555
B5 O11 1.466032 1_555
B5 O7 1.494524 1_555
B5 O15 1.495266 1_555
B6 O8 1.364728 1_545
B6 O10 1.375151 1_455
B6 O0 1.398365 1_555
B7 O9 1.364728 1_455
B7 O11 1.375151 1_545
B7 O1 1.398365 1_555
