# generated using pymatgen
data_Sr2MgZn2Sn2(PO4)4
_symmetry_space_group_name_H-M   'P 1'
_cell_length_a   5.42475610
_cell_length_b   7.59749494
_cell_length_c   10.03890137
_cell_angle_alpha   106.03348182
_cell_angle_beta   86.62198375
_cell_angle_gamma   92.37750945
_symmetry_Int_Tables_number   1
_chemical_formula_structural   Sr2MgZn2Sn2(PO4)4
_chemical_formula_sum   'Sr2 Mg1 Zn2 Sn2 P4 O16'
_cell_volume   396.82626182
_cell_formula_units_Z   1
loop_
 _symmetry_equiv_pos_site_id
 _symmetry_equiv_pos_as_xyz
  1  'x, y, z'
loop_
 _atom_site_type_symbol
 _atom_site_label
 _atom_site_symmetry_multiplicity
 _atom_site_fract_x
 _atom_site_fract_y
 _atom_site_fract_z
 _atom_site_occupancy
  Sr  Sr0  1  0.16891140  0.74990053  0.02585995  1
  Sr  Sr1  1  0.78752570  0.21114128  0.97288617  1
  Mg  Mg0  1  0.21686871  0.82254709  0.39718152  1
  Zn  Zn0  1  0.16448987  0.38326625  0.65488170  1
  Zn  Zn1  1  0.78922552  0.55615396  0.31900703  1
  Sn  Sn0  1  0.73582741  0.89659313  0.61400279  1
  Sn  Sn1  1  0.51898592  0.36139979  0.45815419  1
  P  P0  1  0.30024692  0.40624405  0.20073940  1
  P  P1  1  0.68365799  0.58608543  0.79146172  1
  P  P2  1  0.72136944  0.95648329  0.26505601  1
  P  P3  1  0.26354854  0.02961560  0.74670899  1
  O  O0  1  0.81821283  0.55852613  0.91332636  1
  O  O1  1  0.56309827  0.46889460  0.15540548  1
  O  O2  1  0.71361813  0.79337655  0.78953217  1
  O  O3  1  0.05968637  0.16137079  0.73085205  1
  O  O4  1  0.40047863  0.54408222  0.80319993  1
  O  O5  1  0.28410576  0.87279781  0.60254520  1
  O  O6  1  0.73527147  0.11895409  0.40051012  1
  O  O7  1  0.19570365  0.96540576  0.87438780  1
  O  O8  1  0.32498608  0.23249400  0.24945519  1
  O  O9  1  0.80747744  0.99925681  0.12991383  1
  O  O10  1  0.13018964  0.39398386  0.08214866  1
  O  O11  1  0.18616046  0.55469647  0.33246143  1
  O  O12  1  0.80803223  0.46362483  0.65230800  1
  O  O13  1  0.45851788  0.86794608  0.25945317  1
  O  O14  1  0.90974044  0.81174366  0.28783764  1
  O  O15  1  0.52787328  0.12230394  0.75322350  1
loop_
_geom_bond_atom_site_label_1
_geom_bond_atom_site_label_2
_geom_bond_distance
_geom_bond_site_symmetry_2
Mg0 O13 1.939438 1_555
Mg0 O11 1.960956 1_555
Mg0 O14 2.035178 1_455
Mg0 O5 2.042394 1_555
Sn1 Zn1 2.647677 1_555
Sn1 Zn0 2.650241 1_555
O0 P1 1.527326 1_555
O0 Sr0 2.475083 1_656
O0 Sr1 2.859092 1_555
O1 P0 1.566449 1_555
O1 Zn1 2.051868 1_555
O1 Sr1 2.574337 1_554
O2 P1 1.581873 1_555
O2 Sn0 2.113056 1_555
O2 Sr1 3.221340 1_565
O3 P3 1.565566 1_555
O3 Zn0 2.080044 1_555
O3 Sn0 2.674961 1_445
O3 Sr1 2.709707 1_455
O4 P1 1.560236 1_555
O4 Zn0 2.106792 1_555
O4 Sr0 2.630755 1_556
O5 P3 1.601861 1_565
O5 Sn0 2.456774 1_555
O6 P2 1.567035 1_545
O6 Sn1 2.148224 1_555
O7 P3 1.513687 1_565
O7 Sr0 2.518662 1_556
O7 Sr1 2.903705 1_465
O8 P0 1.542338 1_555
O8 Sn1 2.344580 1_555
O9 P2 1.523367 1_555
O9 Sr1 2.554308 1_564
O9 Sr0 2.738281 1_655
O10 P0 1.529085 1_555
O10 Sr1 2.402623 1_454
O10 Sr0 2.908335 1_555
O11 P0 1.594149 1_555
O11 Zn1 2.166111 1_455
O12 P1 1.579675 1_555
O12 Zn0 2.055513 1_655
O12 Sn1 2.506733 1_555
O13 P2 1.548489 1_555
O13 Sr0 2.815517 1_555
O14 P2 1.601706 1_555
O14 Zn1 2.121857 1_555
O14 Sr0 2.837362 1_655
O15 P3 1.567823 1_555
O15 Sn0 2.194856 1_545
O15 Sr1 2.601412 1_555
