# generated using pymatgen
data_Ce2Sb2Se5
_symmetry_space_group_name_H-M   'P 1'
_cell_length_a   4.22533696
_cell_length_b   11.90473609
_cell_length_c   19.48509435
_cell_angle_alpha   90.00000000
_cell_angle_beta   90.00000000
_cell_angle_gamma   90.00000000
_symmetry_Int_Tables_number   1
_chemical_formula_structural   Ce2Sb2Se5
_chemical_formula_sum   'Ce8 Sb8 Se20'
_cell_volume   980.12989043
_cell_formula_units_Z   4
loop_
 _symmetry_equiv_pos_site_id
 _symmetry_equiv_pos_as_xyz
  1  'x, y, z'
loop_
 _atom_site_type_symbol
 _atom_site_label
 _atom_site_symmetry_multiplicity
 _atom_site_fract_x
 _atom_site_fract_y
 _atom_site_fract_z
 _atom_site_occupancy
  Ce  Ce0  1  0.25000000  0.31419575  0.71748609  1
  Ce  Ce1  1  0.25000000  0.18580425  0.21748609  1
  Ce  Ce2  1  0.75000000  0.68580425  0.28251391  1
  Ce  Ce3  1  0.75000000  0.81419575  0.78251391  1
  Ce  Ce4  1  0.25000000  0.99941898  0.60308655  1
  Ce  Ce5  1  0.25000000  0.50058102  0.10308655  1
  Ce  Ce6  1  0.75000000  0.00058102  0.39691345  1
  Ce  Ce7  1  0.75000000  0.49941898  0.89691345  1
  Sb  Sb0  1  0.25000000  0.12186676  0.88116436  1
  Sb  Sb1  1  0.25000000  0.37813324  0.38116436  1
  Sb  Sb2  1  0.75000000  0.87813324  0.11883564  1
  Sb  Sb3  1  0.75000000  0.62186676  0.61883564  1
  Sb  Sb4  1  0.25000000  0.81876091  0.98511234  1
  Sb  Sb5  1  0.25000000  0.68123909  0.48511234  1
  Sb  Sb6  1  0.75000000  0.18123909  0.01488766  1
  Sb  Sb7  1  0.75000000  0.31876091  0.51488766  1
  Se  Se0  1  0.25000000  0.99874746  0.76207072  1
  Se  Se1  1  0.25000000  0.50125254  0.26207072  1
  Se  Se2  1  0.75000000  0.00125254  0.23792928  1
  Se  Se3  1  0.75000000  0.49874746  0.73792928  1
  Se  Se4  1  0.25000000  0.81914220  0.36586938  1
  Se  Se5  1  0.25000000  0.68085780  0.86586938  1
  Se  Se6  1  0.75000000  0.18085780  0.63413062  1
  Se  Se7  1  0.75000000  0.31914220  0.13413062  1
  Se  Se8  1  0.25000000  0.77744178  0.67534645  1
  Se  Se9  1  0.25000000  0.72255822  0.17534645  1
  Se  Se10  1  0.75000000  0.22255822  0.32465355  1
  Se  Se11  1  0.75000000  0.27744178  0.82465355  1
  Se  Se12  1  0.25000000  0.37640122  0.97088131  1
  Se  Se13  1  0.25000000  0.12359878  0.47088131  1
  Se  Se14  1  0.75000000  0.62359878  0.02911869  1
  Se  Se15  1  0.75000000  0.87640122  0.52911869  1
  Se  Se16  1  0.25000000  0.44610391  0.57593949  1
  Se  Se17  1  0.25000000  0.05389609  0.07593949  1
  Se  Se18  1  0.75000000  0.55389609  0.42406051  1
  Se  Se19  1  0.75000000  0.94610391  0.92406051  1
loop_
_geom_bond_atom_site_label_1
_geom_bond_atom_site_label_2
_geom_bond_distance
_geom_bond_site_symmetry_2
Ce0 Se11 3.002542 1_455
Ce0 Se11 3.002542 1_555
Ce0 Se3 3.073926 1_555
Ce0 Se3 3.073926 1_455
Ce0 Se6 3.101782 1_555
Ce0 Se6 3.101782 1_455
Ce0 Se16 3.173764 1_555
Ce1 Se10 3.002542 1_555
Ce1 Se10 3.002542 1_455
Ce1 Se2 3.073926 1_455
Ce1 Se2 3.073926 1_555
Ce1 Se7 3.101782 1_455
Ce1 Se7 3.101782 1_555
Ce1 Se17 3.173764 1_555
Ce2 Se9 3.002542 1_555
Ce2 Se9 3.002542 1_655
Ce2 Se1 3.073926 1_555
Ce2 Se1 3.073926 1_655
Ce2 Se4 3.101782 1_655
Ce2 Se4 3.101782 1_555
Ce2 Se18 3.173764 1_555
Ce3 Se8 3.002542 1_655
Ce3 Se8 3.002542 1_555
Ce3 Se0 3.073926 1_555
Ce3 Se0 3.073926 1_655
Ce3 Se5 3.101782 1_555
Ce3 Se5 3.101782 1_655
Ce3 Se19 3.173764 1_555
Ce4 Se15 2.947096 1_555
Ce4 Se15 2.947096 1_455
Ce4 Se13 2.970083 1_565
Ce4 Se8 2.994272 1_555
Ce4 Se6 3.081361 1_465
Ce4 Se6 3.081361 1_565
Ce4 Se0 3.097832 1_555
Ce5 Se14 2.947096 1_555
Ce5 Se14 2.947096 1_455
Ce5 Se12 2.970083 1_554
Ce5 Se9 2.994272 1_555
Ce5 Se7 3.081361 1_555
Ce5 Se7 3.081361 1_455
Ce5 Se1 3.097832 1_555
Ce6 Se13 2.947096 1_555
Ce6 Se13 2.947096 1_655
Ce6 Se15 2.970083 1_545
Ce6 Se10 2.994272 1_555
Ce6 Se4 3.081361 1_645
Ce6 Se4 3.081361 1_545
Ce6 Se2 3.097832 1_555
Ce7 Se12 2.947096 1_555
Ce7 Se12 2.947096 1_655
Ce7 Se14 2.970083 1_556
Ce7 Se11 2.994272 1_555
Ce7 Se5 3.081361 1_555
Ce7 Se5 3.081361 1_655
Ce7 Se3 3.097832 1_555
Sb0 Se0 2.744675 1_545
Sb0 Se11 3.017620 1_555
Sb0 Se11 3.017620 1_455
Sb0 Se19 3.088717 1_445
Sb0 Se19 3.088717 1_545
Sb1 Se1 2.744675 1_555
Sb1 Se10 3.017620 1_555
Sb1 Se10 3.017620 1_455
Sb1 Se18 3.088717 1_455
Sb1 Se18 3.088717 1_555
Sb2 Se2 2.744675 1_565
Sb2 Se9 3.017620 1_655
Sb2 Se9 3.017620 1_555
Sb2 Se17 3.088717 1_565
Sb2 Se17 3.088717 1_665
Sb3 Se3 2.744675 1_555
Sb3 Se8 3.017620 1_555
Sb3 Se8 3.017620 1_655
Sb3 Se16 3.088717 1_555
Sb3 Se16 3.088717 1_655
Sb4 Se5 2.844934 1_555
Sb4 Se19 2.859498 1_455
Sb4 Se19 2.859498 1_555
Sb5 Se4 2.844934 1_555
Sb5 Se18 2.859498 1_455
Sb5 Se18 2.859498 1_555
Sb6 Se7 2.844934 1_555
Sb6 Se17 2.859498 1_555
Sb6 Se17 2.859498 1_655
Sb7 Se6 2.844934 1_555
Sb7 Se16 2.859498 1_655
Sb7 Se16 2.859498 1_555
