# generated using pymatgen
data_NdHSe
_symmetry_space_group_name_H-M   'P 1'
_cell_length_a   4.01211819
_cell_length_b   4.01211819
_cell_length_c   7.99801969
_cell_angle_alpha   90.00000000
_cell_angle_beta   90.00000000
_cell_angle_gamma   120.00000901
_symmetry_Int_Tables_number   1
_chemical_formula_structural   NdHSe
_chemical_formula_sum   'Nd2 H2 Se2'
_cell_volume   111.49631054
_cell_formula_units_Z   2
loop_
 _symmetry_equiv_pos_site_id
 _symmetry_equiv_pos_as_xyz
  1  'x, y, z'
loop_
 _atom_site_type_symbol
 _atom_site_label
 _atom_site_symmetry_multiplicity
 _atom_site_fract_x
 _atom_site_fract_y
 _atom_site_fract_z
 _atom_site_occupancy
  Nd  Nd0  1  0.33333300  0.66666700  0.25000000  1
  Nd  Nd1  1  0.66666700  0.33333300  0.75000000  1
  H  H0  1  0.33333300  0.66666700  0.75000000  1
  H  H1  1  0.66666700  0.33333300  0.25000000  1
  Se  Se0  1  -0.00000000  0.00000000  0.00000000  1
  Se  Se1  1  -0.00000000  0.00000000  0.50000000  1
loop_
_geom_bond_atom_site_label_1
_geom_bond_atom_site_label_2
_geom_bond_distance
_geom_bond_site_symmetry_2
Nd0 Se1 3.060018 1_565
Nd0 Se0 3.060018 1_565
Nd0 Se0 3.060020 1_555
Nd0 Se1 3.060020 1_665
Nd0 Se1 3.060020 1_555
Nd0 Se0 3.060020 1_665
Nd1 Se1 3.060018 1_655
Nd1 Se0 3.060018 1_656
Nd1 Se1 3.060020 1_665
Nd1 Se0 3.060020 1_556
Nd1 Se1 3.060020 1_555
Nd1 Se0 3.060020 1_666
H0 Nd1 2.316395 1_565
H0 Nd1 2.316395 1_455
H0 Nd1 2.316402 1_555
H1 Nd0 2.316395 1_545
H1 Nd0 2.316395 1_655
H1 Nd0 2.316402 1_555
