# generated using pymatgen
data_Lu6Zn23
_symmetry_space_group_name_H-M   'P 1'
_cell_length_a   8.76197527
_cell_length_b   8.76197527
_cell_length_c   8.76197527
_cell_angle_alpha   60.00000000
_cell_angle_beta   60.00000000
_cell_angle_gamma   60.00000000
_symmetry_Int_Tables_number   1
_chemical_formula_structural   Lu6Zn23
_chemical_formula_sum   'Lu6 Zn23'
_cell_volume   475.65391033
_cell_formula_units_Z   1
loop_
 _symmetry_equiv_pos_site_id
 _symmetry_equiv_pos_as_xyz
  1  'x, y, z'
loop_
 _atom_site_type_symbol
 _atom_site_label
 _atom_site_symmetry_multiplicity
 _atom_site_fract_x
 _atom_site_fract_y
 _atom_site_fract_z
 _atom_site_occupancy
  Lu  Lu0  1  0.70369893  0.70369893  0.29630107  1
  Lu  Lu1  1  0.29630107  0.70369893  0.29630107  1
  Lu  Lu2  1  0.70369893  0.29630107  0.29630107  1
  Lu  Lu3  1  0.29630107  0.29630107  0.70369893  1
  Lu  Lu4  1  0.70369893  0.29630107  0.70369893  1
  Lu  Lu5  1  0.29630107  0.70369893  0.70369893  1
  Zn  Zn0  1  0.00000000  0.00000000  -0.00000000  1
  Zn  Zn1  1  0.00000000  0.00000000  0.50000000  1
  Zn  Zn2  1  0.50000000  0.00000000  0.50000000  1
  Zn  Zn3  1  0.00000000  0.50000000  0.50000000  1
  Zn  Zn4  1  0.50000000  0.50000000  -0.00000000  1
  Zn  Zn5  1  0.00000000  0.50000000  -0.00000000  1
  Zn  Zn6  1  0.50000000  0.00000000  -0.00000000  1
  Zn  Zn7  1  0.87760859  0.87760859  0.36717423  1
  Zn  Zn8  1  0.87760859  0.36717423  0.87760859  1
  Zn  Zn9  1  0.36717423  0.87760859  0.87760859  1
  Zn  Zn10  1  0.87760859  0.87760859  0.87760859  1
  Zn  Zn11  1  0.12239141  0.12239141  0.63282577  1
  Zn  Zn12  1  0.12239141  0.63282577  0.12239141  1
  Zn  Zn13  1  0.63282577  0.12239141  0.12239141  1
  Zn  Zn14  1  0.12239141  0.12239141  0.12239141  1
  Zn  Zn15  1  0.67064739  0.67064739  0.98805682  1
  Zn  Zn16  1  0.67064739  0.98805682  0.67064739  1
  Zn  Zn17  1  0.98805682  0.67064739  0.67064739  1
  Zn  Zn18  1  0.67064739  0.67064739  0.67064739  1
  Zn  Zn19  1  0.32935261  0.32935261  0.01194318  1
  Zn  Zn20  1  0.32935261  0.01194318  0.32935261  1
  Zn  Zn21  1  0.01194318  0.32935261  0.32935261  1
  Zn  Zn22  1  0.32935261  0.32935261  0.32935261  1
loop_
_geom_bond_atom_site_label_1
_geom_bond_atom_site_label_2
_geom_bond_distance
_geom_bond_site_symmetry_2
Lu0 Zn18 3.018331 1_555
Lu0 Zn21 3.018335 1_655
Lu0 Zn20 3.018335 1_565
Lu0 Zn15 3.018340 1_554
Lu0 Zn10 3.040390 1_554
Lu0 Zn7 3.040390 1_555
Lu0 Zn12 3.040390 1_655
Lu0 Zn13 3.040390 1_565
Lu0 Zn3 3.150507 1_655
Lu0 Zn2 3.150507 1_565
Lu0 Zn6 3.150507 1_565
Lu0 Zn5 3.150507 1_655
Lu0 Lu4 3.569610 1_555
Lu0 Lu1 3.569610 1_555
Lu0 Lu5 3.569610 1_555
Lu0 Lu2 3.569610 1_555
Lu1 Zn22 3.018331 1_555
Lu1 Zn17 3.018335 1_455
Lu1 Zn15 3.018335 1_554
Lu1 Zn20 3.018340 1_565
Lu1 Zn12 3.040390 1_555
Lu1 Zn7 3.040390 1_455
Lu1 Zn14 3.040390 1_565
Lu1 Zn9 3.040390 1_554
Lu1 Zn6 3.150507 1_565
Lu1 Zn1 3.150507 1_565
Lu1 Zn4 3.150507 1_555
Lu1 Zn3 3.150507 1_555
Lu1 Lu3 3.569610 1_555
Lu1 Lu2 3.569610 1_555
Lu1 Lu5 3.569610 1_555
Lu2 Zn22 3.018331 1_555
Lu2 Zn16 3.018335 1_545
Lu2 Zn15 3.018335 1_554
Lu2 Zn21 3.018340 1_655
Lu2 Zn14 3.040390 1_655
Lu2 Zn8 3.040390 1_554
Lu2 Zn13 3.040390 1_555
Lu2 Zn7 3.040390 1_545
Lu2 Zn5 3.150507 1_655
Lu2 Zn1 3.150507 1_655
Lu2 Zn4 3.150507 1_555
Lu2 Zn2 3.150507 1_555
Lu2 Lu3 3.569610 1_555
Lu2 Lu4 3.569610 1_555
Lu3 Zn22 3.018331 1_555
Lu3 Zn16 3.018335 1_545
Lu3 Zn17 3.018335 1_455
Lu3 Zn19 3.018340 1_556
Lu3 Zn11 3.040390 1_555
Lu3 Zn9 3.040390 1_545
Lu3 Zn8 3.040390 1_455
Lu3 Zn14 3.040390 1_556
Lu3 Zn6 3.150507 1_556
Lu3 Zn5 3.150507 1_556
Lu3 Zn2 3.150507 1_555
Lu3 Zn3 3.150507 1_555
Lu3 Lu4 3.569610 1_555
Lu3 Lu5 3.569610 1_555
Lu4 Zn18 3.018331 1_555
Lu4 Zn19 3.018335 1_556
Lu4 Zn21 3.018335 1_655
Lu4 Zn16 3.018340 1_545
Lu4 Zn10 3.040390 1_545
Lu4 Zn13 3.040390 1_556
Lu4 Zn8 3.040390 1_555
Lu4 Zn11 3.040390 1_655
Lu4 Zn3 3.150507 1_655
Lu4 Zn4 3.150507 1_556
Lu4 Zn6 3.150507 1_556
Lu4 Zn1 3.150507 1_655
Lu4 Lu5 3.569610 1_555
Lu5 Zn18 3.018331 1_555
Lu5 Zn19 3.018335 1_556
Lu5 Zn20 3.018335 1_565
Lu5 Zn17 3.018340 1_455
Lu5 Zn10 3.040390 1_455
Lu5 Zn9 3.040390 1_555
Lu5 Zn12 3.040390 1_556
Lu5 Zn11 3.040390 1_565
Lu5 Zn4 3.150507 1_556
Lu5 Zn2 3.150507 1_565
Lu5 Zn5 3.150507 1_556
Lu5 Zn1 3.150507 1_565
Zn0 Zn13 2.626810 1_455
Zn0 Zn10 2.626810 1_444
Zn0 Zn11 2.626810 1_554
Zn0 Zn12 2.626810 1_545
Zn0 Zn8 2.626810 1_454
Zn0 Zn14 2.626810 1_555
Zn0 Zn9 2.626810 1_544
Zn0 Zn7 2.626810 1_445
Zn1 Zn16 2.530810 1_445
Zn1 Zn17 2.530810 1_445
Zn1 Zn20 2.530810 1_555
Zn1 Zn21 2.530810 1_555
Zn1 Zn7 2.701974 1_445
Zn1 Zn10 2.701974 1_445
Zn1 Zn14 2.701974 1_555
Zn1 Zn11 2.701974 1_555
Zn2 Zn20 2.530802 1_555
Zn2 Zn22 2.530807 1_555
Zn2 Zn9 2.701974 1_545
Zn2 Zn7 2.701974 1_545
Zn3 Zn7 2.701974 1_455
Zn3 Zn8 2.701974 1_455
Zn4 Zn9 2.701974 1_554
Zn4 Zn8 2.701974 1_554
Zn5 Zn8 2.701974 1_454
Zn6 Zn9 2.701974 1_544
Zn10 Zn17 2.700347 1_555
Zn10 Zn16 2.700347 1_555
Zn10 Zn15 2.700347 1_555
Zn10 Zn6 2.701974 1_566
Zn10 Zn5 2.701974 1_656
Zn10 Zn13 3.033178 1_566
Zn10 Zn11 3.033178 1_665
Zn10 Zn12 3.033178 1_656
Zn11 Zn21 2.700339 1_555
Zn11 Zn20 2.700339 1_555
Zn11 Zn22 2.700344 1_555
Zn11 Zn2 2.701974 1_555
Zn11 Zn3 2.701974 1_555
Zn11 Zn9 3.033178 1_545
Zn11 Zn8 3.033178 1_455
Zn12 Zn21 2.700339 1_555
Zn12 Zn19 2.700339 1_555
Zn12 Zn22 2.700344 1_555
Zn12 Zn4 2.701974 1_555
Zn12 Zn3 2.701974 1_555
Zn12 Zn5 2.701974 1_555
Zn12 Zn7 3.033178 1_455
Zn12 Zn9 3.033178 1_554
Zn13 Zn19 2.700339 1_555
Zn13 Zn20 2.700339 1_555
Zn13 Zn22 2.700344 1_555
Zn13 Zn4 2.701974 1_555
Zn13 Zn2 2.701974 1_555
Zn13 Zn6 2.701974 1_555
Zn13 Zn7 3.033178 1_545
Zn13 Zn8 3.033178 1_554
Zn14 Zn21 2.700347 1_555
Zn14 Zn19 2.700347 1_555
Zn14 Zn20 2.700347 1_555
Zn14 Zn6 2.701974 1_555
Zn14 Zn5 2.701974 1_555
Zn14 Zn8 3.033178 1_454
Zn14 Zn9 3.033178 1_544
Zn14 Zn7 3.033178 1_445
Zn15 Zn4 2.530802 1_556
Zn15 Zn5 2.530810 1_656
Zn15 Zn6 2.530810 1_566
Zn15 Zn8 2.700339 1_555
Zn15 Zn9 2.700339 1_555
Zn15 Zn16 2.781134 1_555
Zn15 Zn17 2.781134 1_555
Zn15 Zn18 2.781134 1_555
Zn16 Zn2 2.530802 1_565
Zn16 Zn6 2.530810 1_566
Zn16 Zn7 2.700339 1_555
Zn16 Zn9 2.700339 1_555
Zn16 Zn17 2.781134 1_555
Zn16 Zn18 2.781134 1_555
Zn17 Zn3 2.530802 1_655
Zn17 Zn5 2.530810 1_656
Zn17 Zn7 2.700339 1_555
Zn17 Zn8 2.700339 1_555
Zn17 Zn18 2.781134 1_555
Zn18 Zn2 2.530807 1_565
Zn18 Zn3 2.530807 1_655
Zn18 Zn4 2.530807 1_556
Zn18 Zn8 2.700344 1_555
Zn18 Zn9 2.700344 1_555
Zn18 Zn7 2.700344 1_555
Zn19 Zn4 2.530802 1_555
Zn19 Zn6 2.530810 1_555
Zn19 Zn5 2.530810 1_555
Zn19 Zn20 2.781134 1_555
Zn19 Zn21 2.781134 1_555
Zn19 Zn22 2.781134 1_555
Zn20 Zn6 2.530810 1_555
Zn20 Zn21 2.781134 1_555
Zn20 Zn22 2.781134 1_555
Zn21 Zn3 2.530802 1_555
Zn21 Zn5 2.530810 1_555
Zn21 Zn22 2.781134 1_555
Zn22 Zn3 2.530807 1_555
Zn22 Zn4 2.530807 1_555
