# generated using pymatgen
data_Sr6Mg(W2O9)2
_symmetry_space_group_name_H-M   'P 1'
_cell_length_a   7.59335114
_cell_length_b   7.59335114
_cell_length_c   7.59335017
_cell_angle_alpha   83.66316653
_cell_angle_beta   83.66316653
_cell_angle_gamma   83.66317335
_symmetry_Int_Tables_number   1
_chemical_formula_structural   Sr6Mg(W2O9)2
_chemical_formula_sum   'Sr6 Mg1 W4 O18'
_cell_volume   430.34917504
_cell_formula_units_Z   1
loop_
 _symmetry_equiv_pos_site_id
 _symmetry_equiv_pos_as_xyz
  1  'x, y, z'
loop_
 _atom_site_type_symbol
 _atom_site_label
 _atom_site_symmetry_multiplicity
 _atom_site_fract_x
 _atom_site_fract_y
 _atom_site_fract_z
 _atom_site_occupancy
  Sr  Sr0  1  0.25000000  0.90736400  0.59263600  1
  Sr  Sr1  1  0.04185400  0.45814600  0.75000000  1
  Sr  Sr2  1  0.45814600  0.75000000  0.04185400  1
  Sr  Sr3  1  0.59263600  0.25000000  0.90736400  1
  Sr  Sr4  1  0.90736400  0.59263600  0.25000000  1
  Sr  Sr5  1  0.75000000  0.04185400  0.45814600  1
  Mg  Mg0  1  0.75000000  0.75000000  0.75000000  1
  W  W0  1  0.97085400  0.97085400  0.97085400  1
  W  W1  1  0.34400700  0.34400700  0.34400700  1
  W  W2  1  0.15599300  0.15599300  0.15599300  1
  W  W3  1  0.52914600  0.52914600  0.52914600  1
  O  O0  1  0.10931600  0.90581300  0.20681800  1
  O  O1  1  0.08564200  0.76256400  0.89689000  1
  O  O2  1  0.55785800  0.94214200  0.75000000  1
  O  O3  1  0.29318200  0.59418700  0.39068400  1
  O  O4  1  0.09637700  0.25000000  0.40362300  1
  O  O5  1  0.25000000  0.40362300  0.09637700  1
  O  O6  1  0.41435800  0.60311000  0.73743600  1
  O  O7  1  0.60311000  0.73743600  0.41435800  1
  O  O8  1  0.76256400  0.89689000  0.08564200  1
  O  O9  1  0.20681800  0.10931600  0.90581300  1
  O  O10  1  0.39068400  0.29318200  0.59418700  1
  O  O11  1  0.94214200  0.75000000  0.55785800  1
  O  O12  1  0.59418700  0.39068400  0.29318200  1
  O  O13  1  0.75000000  0.55785800  0.94214200  1
  O  O14  1  0.73743600  0.41435800  0.60311000  1
  O  O15  1  0.40362300  0.09637700  0.25000000  1
  O  O16  1  0.90581300  0.20681800  0.10931600  1
  O  O17  1  0.89689000  0.08564200  0.76256400  1
loop_
_geom_bond_atom_site_label_1
_geom_bond_atom_site_label_2
_geom_bond_distance
_geom_bond_site_symmetry_2
Mg0 O11 1.946143 1_555
Mg0 O13 1.946143 1_555
Mg0 O2 1.946143 1_555
O0 W2 1.959602 1_565
O0 W0 2.160004 1_454
O0 Sr4 2.938737 1_455
O0 Sr2 2.981262 1_555
O0 Sr0 3.228844 1_555
O1 W0 1.833137 1_455
O1 Sr0 2.685091 1_555
O1 Sr1 2.742006 1_555
O1 Sr4 3.083412 1_456
O1 Sr2 3.134654 1_556
O2 Sr2 2.602494 1_556
O2 Sr5 2.602494 1_565
O2 Sr0 2.790133 1_555
O2 Sr3 2.790133 1_565
O3 W1 1.959602 1_555
O3 W3 2.160004 1_555
O3 Sr0 2.938737 1_555
O3 Sr2 2.981261 1_555
O3 Sr4 3.228844 1_455
O4 W2 2.070561 1_555
O4 W1 2.070561 1_555
O4 Sr0 3.010834 1_545
O4 Sr4 3.010834 1_455
O4 Sr1 3.181202 1_555
O4 Sr5 3.181203 1_455
O5 W1 2.070561 1_555
O5 W2 2.070561 1_555
O5 Sr3 3.010834 1_554
O5 Sr4 3.010834 1_455
O5 Sr1 3.181202 1_554
O5 Sr2 3.181203 1_555
O6 W3 1.833137 1_555
O6 Sr0 2.685092 1_555
O6 Sr2 2.742005 1_556
O6 Sr3 3.083412 1_555
O6 Sr1 3.134654 1_555
O7 W3 1.833137 1_555
O7 Sr4 2.685092 1_555
O7 Sr5 2.742006 1_565
O7 Sr0 3.083412 1_555
O7 Sr2 3.134653 1_555
O8 W0 1.833137 1_554
O8 Sr4 2.685092 1_555
O8 Sr2 2.742006 1_555
O8 Sr3 3.083412 1_564
O8 Sr5 3.134653 1_565
O9 W2 1.959602 1_556
O9 W0 2.160004 1_445
O9 Sr0 2.938737 1_545
O9 Sr1 2.981262 1_555
O9 Sr3 3.228844 1_555
O10 W1 1.959602 1_555
O10 W3 2.160004 1_555
O10 Sr3 2.938737 1_555
O10 Sr1 2.981262 1_555
O10 Sr0 3.228844 1_545
O11 Sr1 2.602494 1_655
O11 Sr5 2.602495 1_565
O11 Sr4 2.790133 1_555
O11 Sr0 2.790133 1_655
O12 W1 1.959602 1_555
O12 W3 2.160004 1_555
O12 Sr4 2.938737 1_555
O12 Sr5 2.981262 1_555
O12 Sr3 3.228844 1_554
O13 Sr1 2.602494 1_655
O13 Sr2 2.602495 1_556
O13 Sr4 2.790133 1_556
O13 Sr3 2.790133 1_555
O14 W3 1.833137 1_555
O14 Sr3 2.685091 1_555
O14 Sr1 2.742006 1_655
O14 Sr4 3.083412 1_555
O14 Sr5 3.134654 1_555
O15 W2 2.070561 1_555
O15 W1 2.070561 1_555
O15 Sr0 3.010834 1_545
O15 Sr3 3.010834 1_554
O15 Sr2 3.181203 1_545
O15 Sr5 3.181203 1_555
O16 W2 1.959602 1_655
O16 W0 2.160004 1_544
O16 Sr3 2.938737 1_554
O16 Sr5 2.981261 1_555
O16 Sr4 3.228844 1_555
O17 W0 1.833137 1_545
O17 Sr3 2.685092 1_555
O17 Sr5 2.742005 1_555
O17 Sr0 3.083412 1_645
O17 Sr1 3.134654 1_655
