# generated using pymatgen
data_ErNiAs
_symmetry_space_group_name_H-M   'P 1'
_cell_length_a   3.98891349
_cell_length_b   3.98891349
_cell_length_c   3.85811431
_cell_angle_alpha   90.00000000
_cell_angle_beta   90.00000000
_cell_angle_gamma   119.99998654
_symmetry_Int_Tables_number   1
_chemical_formula_structural   ErNiAs
_chemical_formula_sum   'Er1 Ni1 As1'
_cell_volume   53.16367769
_cell_formula_units_Z   1
loop_
 _symmetry_equiv_pos_site_id
 _symmetry_equiv_pos_as_xyz
  1  'x, y, z'
loop_
 _atom_site_type_symbol
 _atom_site_label
 _atom_site_symmetry_multiplicity
 _atom_site_fract_x
 _atom_site_fract_y
 _atom_site_fract_z
 _atom_site_occupancy
  Er  Er0  1  0.33333300  0.66666700  0.50000000  1
  Ni  Ni0  1  0.66666700  0.33333300  -0.00000000  1
  As  As0  1  0.00000000  0.00000000  0.00000000  1
loop_
_geom_bond_atom_site_label_1
_geom_bond_atom_site_label_2
_geom_bond_distance
_geom_bond_site_symmetry_2
Er0 Ni0 3.004174 1_455
Er0 Ni0 3.004174 1_456
Er0 Ni0 3.004174 1_566
Er0 Ni0 3.004174 1_565
Er0 Ni0 3.004179 1_556
Er0 Ni0 3.004179 1_555
As0 Ni0 2.302998 1_455
As0 Ni0 2.303002 1_555
As0 Ni0 2.303002 1_445
As0 Er0 3.004174 1_544
As0 Er0 3.004174 1_545
As0 Er0 3.004177 1_445
As0 Er0 3.004177 1_555
As0 Er0 3.004177 1_554
As0 Er0 3.004177 1_444
