# generated using pymatgen
data_NaMg30AlO32
_symmetry_space_group_name_H-M   'P 1'
_cell_length_a   8.51946300
_cell_length_b   8.51946300
_cell_length_c   8.52178800
_cell_angle_alpha   90.00000000
_cell_angle_beta   90.00000000
_cell_angle_gamma   90.00000000
_symmetry_Int_Tables_number   1
_chemical_formula_structural   NaMg30AlO32
_chemical_formula_sum   'Na1 Mg30 Al1 O32'
_cell_volume   618.52202364
_cell_formula_units_Z   1
loop_
 _symmetry_equiv_pos_site_id
 _symmetry_equiv_pos_as_xyz
  1  'x, y, z'
loop_
 _atom_site_type_symbol
 _atom_site_label
 _atom_site_symmetry_multiplicity
 _atom_site_fract_x
 _atom_site_fract_y
 _atom_site_fract_z
 _atom_site_occupancy
  Na  Na0  1  0.50000000  0.50000000  0.00000000  1
  Mg  Mg0  1  0.00000000  0.50000000  0.00000000  1
  Mg  Mg1  1  0.50000000  0.00000000  0.00000000  1
  Mg  Mg2  1  0.00000000  0.00000000  0.50000000  1
  Mg  Mg3  1  0.00000000  0.50000000  0.50000000  1
  Mg  Mg4  1  0.50000000  0.00000000  0.50000000  1
  Mg  Mg5  1  0.50000000  0.50000000  0.50000000  1
  Mg  Mg6  1  0.25278500  0.25278500  0.00000000  1
  Mg  Mg7  1  0.25278500  0.74721600  0.00000000  1
  Mg  Mg8  1  0.74721600  0.25278500  0.00000000  1
  Mg  Mg9  1  0.74721600  0.74721600  0.00000000  1
  Mg  Mg10  1  0.25133700  0.25133700  0.50000000  1
  Mg  Mg11  1  0.25133700  0.74866300  0.50000000  1
  Mg  Mg12  1  0.74866300  0.25133700  0.50000000  1
  Mg  Mg13  1  0.74866300  0.74866300  0.50000000  1
  Mg  Mg14  1  0.00000000  0.25159200  0.25031400  1
  Mg  Mg15  1  0.00000000  0.74840800  0.25031400  1
  Mg  Mg16  1  0.50000000  0.25236700  0.24901800  1
  Mg  Mg17  1  0.50000000  0.74763300  0.24901800  1
  Mg  Mg18  1  0.00000000  0.25159200  0.74968600  1
  Mg  Mg19  1  0.00000000  0.74840800  0.74968600  1
  Mg  Mg20  1  0.50000000  0.25236700  0.75098200  1
  Mg  Mg21  1  0.50000000  0.74763300  0.75098200  1
  Mg  Mg22  1  0.25159200  0.00000000  0.25031400  1
  Mg  Mg23  1  0.25236700  0.50000000  0.24901800  1
  Mg  Mg24  1  0.74840800  0.00000000  0.25031400  1
  Mg  Mg25  1  0.74763300  0.50000000  0.24901800  1
  Mg  Mg26  1  0.25159200  0.00000000  0.74968600  1
  Mg  Mg27  1  0.25236700  0.50000000  0.75098200  1
  Mg  Mg28  1  0.74840800  0.00000000  0.74968600  1
  Mg  Mg29  1  0.74763300  0.50000000  0.75098200  1
  Al  Al0  1  0.00000000  0.00000000  0.00000000  1
  O  O0  1  0.00000000  0.00000000  0.23599300  1
  O  O1  1  0.00000000  0.50000000  0.25009500  1
  O  O2  1  0.50000000  0.00000000  0.25009500  1
  O  O3  1  0.50000000  0.50000000  0.26248500  1
  O  O4  1  0.00000000  0.00000000  0.76400700  1
  O  O5  1  0.00000000  0.50000000  0.74990500  1
  O  O6  1  0.50000000  0.00000000  0.74990500  1
  O  O7  1  0.50000000  0.50000000  0.73751500  1
  O  O8  1  0.24938300  0.24938300  0.24971000  1
  O  O9  1  0.24938300  0.75061700  0.24971000  1
  O  O10  1  0.75061700  0.24938300  0.24971000  1
  O  O11  1  0.75061700  0.75061700  0.24971000  1
  O  O12  1  0.24938300  0.24938300  0.75029000  1
  O  O13  1  0.24938300  0.75061700  0.75029000  1
  O  O14  1  0.75061700  0.24938300  0.75029000  1
  O  O15  1  0.75061700  0.75061700  0.75029000  1
  O  O16  1  0.00000000  0.23239000  0.00000000  1
  O  O17  1  0.00000000  0.76761000  0.00000000  1
  O  O18  1  0.50000000  0.23504300  0.00000000  1
  O  O19  1  0.50000000  0.76495700  0.00000000  1
  O  O20  1  0.00000000  0.24681800  0.50000000  1
  O  O21  1  0.00000000  0.75318200  0.50000000  1
  O  O22  1  0.50000000  0.24691000  0.50000000  1
  O  O23  1  0.50000000  0.75309000  0.50000000  1
  O  O24  1  0.23239000  0.00000000  0.00000000  1
  O  O25  1  0.23504300  0.50000000  0.00000000  1
  O  O26  1  0.76761000  0.00000000  0.00000000  1
  O  O27  1  0.76495700  0.50000000  0.00000000  1
  O  O28  1  0.24681800  0.00000000  0.50000000  1
  O  O29  1  0.24691000  0.50000000  0.50000000  1
  O  O30  1  0.75318200  0.00000000  0.50000000  1
  O  O31  1  0.75309000  0.50000000  0.50000000  1
loop_
_geom_bond_atom_site_label_1
_geom_bond_atom_site_label_2
_geom_bond_distance
_geom_bond_site_symmetry_2
Na0 O7 2.236842 1_554
Na0 O3 2.236842 1_555
Na0 O27 2.257291 1_555
Na0 O25 2.257291 1_555
Na0 O18 2.257291 1_555
Na0 O19 2.257291 1_555
Mg0 O25 2.002440 1_555
Mg0 O27 2.002440 1_455
Mg0 O5 2.131257 1_554
Mg0 O1 2.131257 1_555
Mg0 O16 2.279893 1_555
Mg0 O17 2.279893 1_555
Mg1 O19 2.002440 1_545
Mg1 O18 2.002440 1_555
Mg1 O6 2.131257 1_554
Mg1 O2 2.131257 1_555
Mg1 O26 2.279893 1_555
Mg1 O24 2.279893 1_555
Mg2 O30 2.102757 1_455
Mg2 O21 2.102757 1_545
Mg2 O20 2.102757 1_555
Mg2 O28 2.102757 1_555
Mg2 O4 2.249812 1_555
Mg2 O0 2.249812 1_555
Mg3 O31 2.103541 1_455
Mg3 O29 2.103541 1_555
Mg3 O1 2.129637 1_555
Mg3 O5 2.129637 1_555
Mg3 O21 2.156975 1_555
Mg3 O20 2.156975 1_555
Mg4 O23 2.103541 1_545
Mg4 O22 2.103541 1_555
Mg4 O2 2.129637 1_555
Mg4 O6 2.129637 1_555
Mg4 O28 2.156975 1_555
Mg4 O30 2.156975 1_555
Mg5 O3 2.024052 1_555
Mg5 O7 2.024052 1_555
Mg5 O22 2.156191 1_555
Mg5 O23 2.156191 1_555
Mg5 O29 2.156191 1_555
Mg5 O31 2.156191 1_555
Mg6 O25 2.111556 1_555
Mg6 O18 2.111556 1_555
Mg6 O12 2.128370 1_554
Mg6 O8 2.128370 1_555
Mg6 O24 2.160590 1_555
Mg6 O16 2.160590 1_555
Mg7 O19 2.111555 1_555
Mg7 O25 2.111564 1_555
Mg7 O9 2.128370 1_555
Mg7 O13 2.128370 1_554
Mg7 O24 2.160582 1_565
Mg7 O17 2.160590 1_555
Mg8 O27 2.111555 1_555
Mg8 O18 2.111564 1_555
Mg8 O10 2.128370 1_555
Mg8 O14 2.128370 1_554
Mg8 O16 2.160582 1_655
Mg8 O26 2.160590 1_555
Mg9 O27 2.111564 1_555
Mg9 O19 2.111564 1_555
Mg9 O15 2.128370 1_554
Mg9 O11 2.128370 1_555
Mg9 O17 2.160581 1_655
Mg9 O26 2.160581 1_565
Mg10 O29 2.118811 1_555
Mg10 O22 2.118811 1_555
Mg10 O12 2.133048 1_555
Mg10 O8 2.133048 1_555
Mg10 O20 2.141602 1_555
Mg10 O28 2.141602 1_555
Mg11 O29 2.118811 1_555
Mg11 O23 2.118811 1_555
Mg11 O9 2.133048 1_555
Mg11 O13 2.133048 1_555
Mg11 O28 2.141602 1_565
Mg11 O21 2.141602 1_555
Mg12 O31 2.118811 1_555
Mg12 O22 2.118811 1_555
Mg12 O14 2.133048 1_555
Mg12 O10 2.133048 1_555
Mg12 O30 2.141602 1_555
Mg12 O20 2.141602 1_655
Mg13 O31 2.118811 1_555
Mg13 O23 2.118811 1_555
Mg13 O15 2.133048 1_555
Mg13 O11 2.133048 1_555
Mg13 O30 2.141602 1_565
Mg13 O21 2.141602 1_655
Mg14 O1 2.116304 1_555
Mg14 O8 2.124699 1_555
Mg14 O10 2.124699 1_455
Mg14 O20 2.128160 1_555
Mg14 O16 2.139387 1_555
Mg14 O0 2.146900 1_555
Mg15 O1 2.116304 1_555
Mg15 O9 2.124699 1_555
Mg15 O11 2.124699 1_455
Mg15 O21 2.128160 1_555
Mg15 O17 2.139387 1_555
Mg15 O0 2.146900 1_565
Mg16 O3 2.112819 1_555
Mg16 O18 2.127205 1_555
Mg16 O10 2.135282 1_555
Mg16 O8 2.135282 1_555
Mg16 O22 2.139321 1_555
Mg16 O2 2.150051 1_555
Mg17 O3 2.112819 1_555
Mg17 O19 2.127205 1_555
Mg17 O9 2.135282 1_555
Mg17 O11 2.135282 1_555
Mg17 O23 2.139321 1_555
Mg17 O2 2.150051 1_565
Mg18 O5 2.116304 1_555
Mg18 O12 2.124699 1_555
Mg18 O14 2.124699 1_455
Mg18 O20 2.128160 1_555
Mg18 O16 2.139387 1_556
Mg18 O4 2.146900 1_555
Mg19 O5 2.116304 1_555
Mg19 O13 2.124699 1_555
Mg19 O15 2.124699 1_455
Mg19 O21 2.128160 1_555
Mg19 O17 2.139387 1_556
Mg19 O4 2.146900 1_565
Mg20 O7 2.112819 1_555
Mg20 O18 2.127205 1_556
Mg20 O12 2.135282 1_555
Mg20 O14 2.135282 1_555
Mg20 O22 2.139321 1_555
Mg20 O6 2.150051 1_555
Mg21 O7 2.112819 1_555
Mg21 O19 2.127205 1_556
Mg21 O15 2.135282 1_555
Mg21 O13 2.135282 1_555
Mg21 O23 2.139321 1_555
Mg21 O6 2.150051 1_565
Mg22 O2 2.116304 1_555
Mg22 O8 2.124699 1_555
Mg22 O9 2.124699 1_545
Mg22 O28 2.128160 1_555
Mg22 O24 2.139387 1_555
Mg22 O0 2.146900 1_555
Mg23 O3 2.112819 1_555
Mg23 O25 2.127205 1_555
Mg23 O9 2.135282 1_555
Mg23 O8 2.135282 1_555
Mg23 O29 2.139321 1_555
Mg23 O1 2.150051 1_555
Mg24 O2 2.116304 1_555
Mg24 O10 2.124699 1_555
Mg24 O11 2.124699 1_545
Mg24 O30 2.128160 1_555
Mg24 O26 2.139387 1_555
Mg24 O0 2.146900 1_655
Mg25 O3 2.112819 1_555
Mg25 O27 2.127205 1_555
Mg25 O10 2.135282 1_555
Mg25 O11 2.135282 1_555
Mg25 O31 2.139321 1_555
Mg25 O1 2.150051 1_655
Mg26 O6 2.116304 1_555
Mg26 O12 2.124699 1_555
Mg26 O13 2.124699 1_545
Mg26 O28 2.128160 1_555
Mg26 O24 2.139387 1_556
Mg26 O4 2.146900 1_555
Mg27 O7 2.112819 1_555
Mg27 O25 2.127205 1_556
Mg27 O13 2.135282 1_555
Mg27 O12 2.135282 1_555
Mg27 O29 2.139321 1_555
Mg27 O5 2.150051 1_555
Mg28 O6 2.116304 1_555
Mg28 O14 2.124699 1_555
Mg28 O15 2.124699 1_545
Mg28 O30 2.128160 1_555
Mg28 O26 2.139387 1_556
Mg28 O4 2.146900 1_655
Mg29 O7 2.112819 1_555
Mg29 O27 2.127205 1_556
Mg29 O15 2.135282 1_555
Mg29 O14 2.135282 1_555
Mg29 O31 2.139321 1_555
Mg29 O5 2.150051 1_655
Al0 O26 1.979838 1_455
Al0 O17 1.979838 1_545
Al0 O24 1.979838 1_555
Al0 O16 1.979838 1_555
Al0 O0 2.011082 1_555
Al0 O4 2.011082 1_554
