# generated using pymatgen
data_FeCu6GeS8
_symmetry_space_group_name_H-M   'P 1'
_cell_length_a   7.41270504
_cell_length_b   7.41270504
_cell_length_c   7.41270504
_cell_angle_alpha   60.00000000
_cell_angle_beta   60.00000000
_cell_angle_gamma   60.00000000
_symmetry_Int_Tables_number   1
_chemical_formula_structural   FeCu6GeS8
_chemical_formula_sum   'Fe1 Cu6 Ge1 S8'
_cell_volume   288.01503547
_cell_formula_units_Z   1
loop_
 _symmetry_equiv_pos_site_id
 _symmetry_equiv_pos_as_xyz
  1  'x, y, z'
loop_
 _atom_site_type_symbol
 _atom_site_label
 _atom_site_symmetry_multiplicity
 _atom_site_fract_x
 _atom_site_fract_y
 _atom_site_fract_z
 _atom_site_occupancy
  Fe  Fe0  1  0.00000000  0.00000000  0.00000000  1
  Cu  Cu0  1  0.50489300  0.50489300  0.99510700  1
  Cu  Cu1  1  0.99510700  0.99510700  0.50489300  1
  Cu  Cu2  1  0.99510700  0.50489300  0.50489300  1
  Cu  Cu3  1  0.50489300  0.99510700  0.99510700  1
  Cu  Cu4  1  0.99510700  0.50489300  0.99510700  1
  Cu  Cu5  1  0.50489300  0.99510700  0.50489300  1
  Ge  Ge0  1  0.50000000  0.50000000  0.50000000  1
  S  S0  1  0.87865000  0.87865000  0.36405100  1
  S  S1  1  0.37515700  0.37515700  0.87452900  1
  S  S2  1  0.87865000  0.87865000  0.87865000  1
  S  S3  1  0.37515700  0.37515700  0.37515700  1
  S  S4  1  0.36405100  0.87865000  0.87865000  1
  S  S5  1  0.87452900  0.37515700  0.37515700  1
  S  S6  1  0.87865000  0.36405100  0.87865000  1
  S  S7  1  0.37515700  0.87452900  0.37515700  1
loop_
_geom_bond_atom_site_label_1
_geom_bond_atom_site_label_2
_geom_bond_distance
_geom_bond_site_symmetry_2
Fe0 S2 2.203394 1_444
Fe0 S6 2.203400 1_454
Fe0 S0 2.203400 1_445
Fe0 S4 2.203400 1_544
Cu0 S4 2.264551 1_555
Cu0 S6 2.264551 1_555
Cu0 S3 2.300567 1_556
Cu0 S1 2.300567 1_555
Cu1 S0 2.264545 1_555
Cu1 S2 2.264551 1_555
Cu1 S7 2.300567 1_655
Cu1 S5 2.300567 1_565
Cu2 S6 2.264551 1_555
Cu2 S0 2.264551 1_555
Cu2 S3 2.300567 1_655
Cu2 S5 2.300567 1_555
Cu3 S4 2.264545 1_555
Cu3 S2 2.264551 1_555
Cu3 S1 2.300567 1_565
Cu3 S7 2.300567 1_556
Cu4 S6 2.264545 1_555
Cu4 S2 2.264551 1_555
Cu4 S5 2.300567 1_556
Cu4 S1 2.300567 1_655
Cu5 S4 2.264551 1_555
Cu5 S0 2.264551 1_555
Cu5 S3 2.300567 1_565
Cu5 S7 2.300567 1_555
Ge0 S1 2.266817 1_555
Ge0 S5 2.266817 1_555
Ge0 S7 2.266817 1_555
Ge0 S3 2.266817 1_555
