# generated using pymatgen
data_Sn3Ir2S3
_symmetry_space_group_name_H-M   'P 1'
_cell_length_a   8.92106400
_cell_length_b   8.92106400
_cell_length_c   8.92106400
_cell_angle_alpha   90.00000000
_cell_angle_beta   90.00000000
_cell_angle_gamma   90.00000000
_symmetry_Int_Tables_number   1
_chemical_formula_structural   Sn3Ir2S3
_chemical_formula_sum   'Sn12 Ir8 S12'
_cell_volume   709.98629424
_cell_formula_units_Z   4
loop_
 _symmetry_equiv_pos_site_id
 _symmetry_equiv_pos_as_xyz
  1  'x, y, z'
loop_
 _atom_site_type_symbol
 _atom_site_label
 _atom_site_symmetry_multiplicity
 _atom_site_fract_x
 _atom_site_fract_y
 _atom_site_fract_z
 _atom_site_occupancy
  Sn  Sn0  1  0.67455400  0.00000000  0.16107200  1
  Sn  Sn1  1  0.32544600  0.00000000  0.83892800  1
  Sn  Sn2  1  0.32544600  0.00000000  0.16107200  1
  Sn  Sn3  1  0.67455400  0.00000000  0.83892800  1
  Sn  Sn4  1  0.16107200  0.67455400  0.00000000  1
  Sn  Sn5  1  0.83892800  0.32544600  0.00000000  1
  Sn  Sn6  1  0.16107200  0.32544600  0.00000000  1
  Sn  Sn7  1  0.83892800  0.67455400  0.00000000  1
  Sn  Sn8  1  0.00000000  0.16107200  0.67455400  1
  Sn  Sn9  1  0.00000000  0.83892800  0.32544600  1
  Sn  Sn10  1  0.00000000  0.16107200  0.32544600  1
  Sn  Sn11  1  0.00000000  0.83892800  0.67455400  1
  Ir  Ir0  1  0.72258600  0.27741400  0.27741400  1
  Ir  Ir1  1  0.27741400  0.27741400  0.72258600  1
  Ir  Ir2  1  0.27741400  0.72258600  0.27741400  1
  Ir  Ir3  1  0.72258600  0.72258600  0.72258600  1
  Ir  Ir4  1  0.27741400  0.72258600  0.72258600  1
  Ir  Ir5  1  0.72258600  0.72258600  0.27741400  1
  Ir  Ir6  1  0.72258600  0.27741400  0.72258600  1
  Ir  Ir7  1  0.27741400  0.27741400  0.27741400  1
  S  S0  1  0.18200300  0.50000000  0.62807200  1
  S  S1  1  0.81799700  0.50000000  0.37192800  1
  S  S2  1  0.81799700  0.50000000  0.62807200  1
  S  S3  1  0.18200300  0.50000000  0.37192800  1
  S  S4  1  0.62807200  0.18200300  0.50000000  1
  S  S5  1  0.37192800  0.81799700  0.50000000  1
  S  S6  1  0.62807200  0.81799700  0.50000000  1
  S  S7  1  0.37192800  0.18200300  0.50000000  1
  S  S8  1  0.50000000  0.62807200  0.18200300  1
  S  S9  1  0.50000000  0.37192800  0.81799700  1
  S  S10  1  0.50000000  0.62807200  0.81799700  1
  S  S11  1  0.50000000  0.37192800  0.18200300  1
loop_
_geom_bond_atom_site_label_1
_geom_bond_atom_site_label_2
_geom_bond_distance
_geom_bond_site_symmetry_2
Sn0 Sn3 2.873867 1_554
Sn0 Sn2 3.114415 1_555
Sn1 Sn2 2.873867 1_556
Sn1 Sn3 3.114415 1_555
Sn4 Sn7 2.873867 1_455
Sn4 Sn6 3.114415 1_555
Sn5 Sn6 2.873867 1_655
Sn5 Sn7 3.114415 1_555
Sn10 Sn9 2.873867 1_545
Sn10 Sn8 3.114415 1_555
Sn11 Sn8 2.873867 1_565
Sn11 Sn9 3.114415 1_555
Ir0 S11 2.319145 1_555
Ir0 S1 2.319145 1_555
Ir0 S4 2.319145 1_555
Ir0 Sn10 2.717648 1_655
Ir0 Sn5 2.717648 1_555
Ir0 Sn0 2.717648 1_555
Ir1 S7 2.319145 1_555
Ir1 S9 2.319145 1_555
Ir1 S0 2.319145 1_555
Ir1 Sn1 2.717648 1_555
Ir1 Sn6 2.717648 1_556
Ir1 Sn8 2.717648 1_555
Ir2 S3 2.319145 1_555
Ir2 S8 2.319145 1_555
Ir2 S5 2.319145 1_555
Ir2 Sn9 2.717648 1_555
Ir2 Sn2 2.717648 1_565
Ir2 Sn4 2.717648 1_555
Ir3 S10 2.319145 1_555
Ir3 S2 2.319145 1_555
Ir3 S6 2.319145 1_555
Ir3 Sn7 2.717648 1_556
Ir3 Sn3 2.717648 1_565
Ir3 Sn11 2.717648 1_655
Ir4 S0 2.319145 1_555
Ir4 S5 2.319145 1_555
Ir4 S10 2.319145 1_555
Ir4 Sn1 2.717648 1_565
Ir4 Sn11 2.717648 1_555
Ir4 Sn4 2.717648 1_556
Ir5 S8 2.319145 1_555
Ir5 S1 2.319145 1_555
Ir5 S6 2.319145 1_555
Ir5 Sn9 2.717648 1_655
Ir5 Sn7 2.717648 1_555
Ir5 Sn0 2.717648 1_565
Ir6 S9 2.319145 1_555
Ir6 S4 2.319145 1_555
Ir6 S2 2.319145 1_555
Ir6 Sn5 2.717648 1_556
Ir6 Sn3 2.717648 1_555
Ir6 Sn8 2.717648 1_655
Ir7 S11 2.319145 1_555
Ir7 S3 2.319145 1_555
Ir7 S7 2.319145 1_555
Ir7 Sn10 2.717648 1_555
Ir7 Sn2 2.717648 1_555
Ir7 Sn6 2.717648 1_555
S0 S3 2.285077 1_555
S1 S2 2.285077 1_555
S4 S7 2.285077 1_555
S5 S6 2.285077 1_555
S10 S9 2.285077 1_555
S11 S8 2.285077 1_555
