# generated using pymatgen
data_Tm5(ReO6)2
_symmetry_space_group_name_H-M   'P 1'
_cell_length_a   6.70059672
_cell_length_b   6.70059772
_cell_length_c   7.38698498
_cell_angle_alpha   73.72834178
_cell_angle_beta   73.72834385
_cell_angle_gamma   49.18710622
_symmetry_Int_Tables_number   1
_chemical_formula_structural   Tm5(ReO6)2
_chemical_formula_sum   'Tm5 Re2 O12'
_cell_volume   238.80215642
_cell_formula_units_Z   1
loop_
 _symmetry_equiv_pos_site_id
 _symmetry_equiv_pos_as_xyz
  1  'x, y, z'
loop_
 _atom_site_type_symbol
 _atom_site_label
 _atom_site_symmetry_multiplicity
 _atom_site_fract_x
 _atom_site_fract_y
 _atom_site_fract_z
 _atom_site_occupancy
  Tm  Tm0  1  0.80226979  0.80226090  0.35974556  1
  Tm  Tm1  1  0.19773950  0.19772973  0.64025482  1
  Tm  Tm2  1  0.18548115  0.18548585  0.17789801  1
  Tm  Tm3  1  0.81451512  0.81451791  0.82210197  1
  Tm  Tm4  1  0.49997465  0.50002539  0.49999999  1
  Re  Re0  1  0.28569378  0.71430627  -0.00000000  1
  Re  Re1  1  0.71432015  0.28567962  0.00000004  1
  O  O0  1  0.41256411  0.92229867  0.91278545  1
  O  O1  1  0.07770121  0.58743614  0.08721429  1
  O  O2  1  0.58743567  0.07765906  0.08721480  1
  O  O3  1  0.92234103  0.41256416  0.91278523  1
  O  O4  1  0.59875398  0.09422172  0.57231392  1
  O  O5  1  0.90577816  0.40124618  0.42768613  1
  O  O6  1  0.40124786  0.90576888  0.42769722  1
  O  O7  1  0.00084841  0.00081866  0.81839151  1
  O  O8  1  0.99918131  0.99915166  0.18160846  1
  O  O9  1  0.49765834  0.49773559  0.79093620  1
  O  O10  1  0.50226448  0.50234167  0.20906372  1
  O  O11  1  0.09423129  0.59875193  0.57230268  1
loop_
_geom_bond_atom_site_label_1
_geom_bond_atom_site_label_2
_geom_bond_distance
_geom_bond_site_symmetry_2
O0 Re0 1.954152 1_556
O0 Tm3 2.222993 1_555
O0 Tm1 2.366474 1_565
O0 Tm2 2.453233 1_566
O1 Re0 1.954152 1_555
O1 Tm2 2.222991 1_555
O1 Tm0 2.366478 1_455
O1 Tm3 2.453228 1_454
O2 Re1 1.954400 1_555
O2 Tm2 2.222897 1_555
O2 Tm0 2.366464 1_545
O2 Tm3 2.453070 1_544
O3 Re1 1.954402 1_556
O3 Tm3 2.222895 1_555
O3 Tm1 2.366463 1_655
O3 Tm2 2.453067 1_656
O4 Tm1 2.226278 1_555
O4 Tm3 2.241087 1_545
O4 Tm4 2.269069 1_555
O4 Tm0 2.277418 1_545
O5 Tm0 2.226279 1_555
O5 Tm2 2.241085 1_655
O5 Tm4 2.269068 1_555
O5 Tm1 2.277421 1_655
O6 Tm0 2.226323 1_555
O6 Tm2 2.241179 1_565
O6 Tm4 2.268841 1_555
O6 Tm1 2.277365 1_565
O7 Re0 2.080885 1_546
O7 Re1 2.080952 1_456
O7 Tm3 2.262066 1_445
O7 Tm1 2.354268 1_555
O8 Re0 2.080885 1_655
O8 Re1 2.080952 1_565
O8 Tm2 2.262066 1_665
O8 Tm0 2.354270 1_555
O9 Re0 1.959750 1_556
O9 Re1 1.960060 1_556
O9 Tm4 2.140660 1_555
O10 Re0 1.959750 1_555
O10 Re1 1.960060 1_555
O10 Tm4 2.140661 1_555
O11 Tm1 2.226325 1_555
O11 Tm3 2.241177 1_455
O11 Tm4 2.268840 1_555
O11 Tm0 2.277365 1_455
