# generated using pymatgen
data_Si2Bi2Rh3
_symmetry_space_group_name_H-M   'P 1'
_cell_length_a   7.07763112
_cell_length_b   7.07763112
_cell_length_c   7.29987473
_cell_angle_alpha   59.46929185
_cell_angle_beta   59.46929185
_cell_angle_gamma   71.62564071
_symmetry_Int_Tables_number   1
_chemical_formula_structural   Si2Bi2Rh3
_chemical_formula_sum   'Si4 Bi4 Rh6'
_cell_volume   270.49854514
_cell_formula_units_Z   2
loop_
 _symmetry_equiv_pos_site_id
 _symmetry_equiv_pos_as_xyz
  1  'x, y, z'
loop_
 _atom_site_type_symbol
 _atom_site_label
 _atom_site_symmetry_multiplicity
 _atom_site_fract_x
 _atom_site_fract_y
 _atom_site_fract_z
 _atom_site_occupancy
  Si  Si0  1  0.72058000  0.29283900  0.16190000  1
  Si  Si1  1  0.29283900  0.72058000  0.16190000  1
  Si  Si2  1  0.27942000  0.70716100  0.83810000  1
  Si  Si3  1  0.70716100  0.27942000  0.83810000  1
  Bi  Bi0  1  0.27579600  0.27579600  0.73634300  1
  Bi  Bi1  1  0.72420400  0.72420400  0.26365700  1
  Bi  Bi2  1  0.22594300  0.22594300  0.25746100  1
  Bi  Bi3  1  0.77405700  0.77405700  0.74253900  1
  Rh  Rh0  1  0.00000000  0.50000000  0.50000000  1
  Rh  Rh1  1  0.50000000  0.00000000  0.50000000  1
  Rh  Rh2  1  0.99532600  0.99532600  0.20965500  1
  Rh  Rh3  1  0.00467400  0.00467400  0.79034500  1
  Rh  Rh4  1  0.74868500  0.25131500  0.50000000  1
  Rh  Rh5  1  0.25131500  0.74868500  0.50000000  1
loop_
_geom_bond_atom_site_label_1
_geom_bond_atom_site_label_2
_geom_bond_distance
_geom_bond_site_symmetry_2
Bi0 Rh1 2.827032 1_555
Bi0 Rh0 2.827032 1_555
Bi0 Rh5 2.877482 1_555
Bi0 Rh4 2.877482 1_555
Bi0 Rh3 2.881683 1_555
Bi0 Rh2 2.892460 1_446
Bi1 Rh1 2.827032 1_565
Bi1 Rh0 2.827032 1_655
Bi1 Rh5 2.877482 1_555
Bi1 Rh4 2.877482 1_555
Bi1 Rh2 2.881683 1_555
Bi1 Rh3 2.892460 1_664
Bi2 Rh1 2.848035 1_555
Bi2 Rh0 2.848035 1_555
Bi2 Rh2 2.878739 1_445
Bi2 Rh4 2.905384 1_455
Bi2 Rh5 2.905384 1_545
Bi2 Rh3 3.033881 1_555
Bi2 Si3 3.187014 1_554
Bi2 Si2 3.187014 1_554
Bi3 Rh1 2.848035 1_565
Bi3 Rh0 2.848035 1_655
Bi3 Rh3 2.878739 1_665
Bi3 Rh5 2.905384 1_655
Bi3 Rh4 2.905384 1_565
Bi3 Rh2 3.033881 1_555
Bi3 Si1 3.187014 1_556
Bi3 Si0 3.187014 1_556
Rh0 Si1 2.398415 1_555
Rh0 Si3 2.398415 1_455
Rh1 Si0 2.398415 1_555
Rh1 Si2 2.398415 1_545
Rh2 Si1 2.387091 1_655
Rh2 Si0 2.387091 1_565
Rh3 Si3 2.387091 1_455
Rh3 Si2 2.387091 1_545
Rh4 Si0 2.437701 1_555
Rh4 Si3 2.437701 1_555
Rh5 Si1 2.437701 1_555
Rh5 Si2 2.437701 1_555
