# generated using pymatgen
data_Cs3SbSe4
_symmetry_space_group_name_H-M   'P 1'
_cell_length_a   10.31165988
_cell_length_b   10.61753373
_cell_length_c   12.09939640
_cell_angle_alpha   90.00000000
_cell_angle_beta   90.00000000
_cell_angle_gamma   90.00000000
_symmetry_Int_Tables_number   1
_chemical_formula_structural   Cs3SbSe4
_chemical_formula_sum   'Cs12 Sb4 Se16'
_cell_volume   1324.69511394
_cell_formula_units_Z   4
loop_
 _symmetry_equiv_pos_site_id
 _symmetry_equiv_pos_as_xyz
  1  'x, y, z'
loop_
 _atom_site_type_symbol
 _atom_site_label
 _atom_site_symmetry_multiplicity
 _atom_site_fract_x
 _atom_site_fract_y
 _atom_site_fract_z
 _atom_site_occupancy
  Cs  Cs0  1  0.05295927  0.19779048  0.95821599  1
  Cs  Cs1  1  0.64726970  0.08567276  0.25000000  1
  Cs  Cs2  1  0.35273030  0.91432724  0.75000000  1
  Cs  Cs3  1  0.85273030  0.58567276  0.75000000  1
  Cs  Cs4  1  0.14726970  0.41432724  0.25000000  1
  Cs  Cs5  1  0.55295927  0.30220952  0.54178401  1
  Cs  Cs6  1  0.44704073  0.69779048  0.04178401  1
  Cs  Cs7  1  0.94704073  0.80220952  0.45821599  1
  Cs  Cs8  1  0.94704073  0.80220952  0.04178401  1
  Cs  Cs9  1  0.44704073  0.69779048  0.45821599  1
  Cs  Cs10  1  0.55295927  0.30220952  0.95821599  1
  Cs  Cs11  1  0.05295927  0.19779048  0.54178401  1
  Sb  Sb0  1  0.77137861  0.02289580  0.75000000  1
  Sb  Sb1  1  0.72862139  0.52289580  0.25000000  1
  Sb  Sb2  1  0.27137861  0.47710420  0.75000000  1
  Sb  Sb3  1  0.22862139  0.97710420  0.25000000  1
  Se  Se0  1  0.65086135  0.96544035  0.92071470  1
  Se  Se1  1  0.15086135  0.53455965  0.57928530  1
  Se  Se2  1  0.84913865  0.46544035  0.07928530  1
  Se  Se3  1  0.34913865  0.03455965  0.42071470  1
  Se  Se4  1  0.34913865  0.03455965  0.07928530  1
  Se  Se5  1  0.84913865  0.46544035  0.42071470  1
  Se  Se6  1  0.15086135  0.53455965  0.92071470  1
  Se  Se7  1  0.65086135  0.96544035  0.57928530  1
  Se  Se8  1  0.01089833  0.08128234  0.25000000  1
  Se  Se9  1  0.80503960  0.25502265  0.75000000  1
  Se  Se10  1  0.48910167  0.58128234  0.75000000  1
  Se  Se11  1  0.98910167  0.91871766  0.75000000  1
  Se  Se12  1  0.19496040  0.74497735  0.25000000  1
  Se  Se13  1  0.69496040  0.75502265  0.25000000  1
  Se  Se14  1  0.30503960  0.24497735  0.75000000  1
  Se  Se15  1  0.51089833  0.41871766  0.25000000  1
loop_
_geom_bond_atom_site_label_1
_geom_bond_atom_site_label_2
_geom_bond_distance
_geom_bond_site_symmetry_2
Cs0 Se9 3.640271 1_455
Cs0 Se14 3.654385 1_555
Cs0 Se6 3.743043 1_555
Cs0 Se8 3.765920 1_556
Cs0 Se4 3.804869 1_556
Cs0 Se2 3.826071 1_456
Cs0 Se11 3.944637 1_445
Cs1 Se13 3.544964 1_545
Cs1 Se3 3.743242 1_555
Cs1 Se4 3.743242 1_555
Cs1 Se8 3.749905 1_655
Cs1 Se15 3.805464 1_555
Cs1 Se0 4.183836 1_544
Cs1 Se7 4.183836 1_545
Cs2 Se14 3.544964 1_565
Cs2 Se0 3.743242 1_555
Cs2 Se7 3.743242 1_555
Cs2 Se11 3.749905 1_455
Cs2 Se10 3.805464 1_555
Cs2 Se3 4.183836 1_565
Cs2 Se4 4.183836 1_566
Cs3 Se9 3.544964 1_555
Cs3 Se1 3.743242 1_655
Cs3 Se6 3.743242 1_655
Cs3 Se10 3.749905 1_555
Cs3 Se11 3.805464 1_555
Cs3 Se5 4.183836 1_555
Cs3 Se2 4.183836 1_556
Cs4 Se12 3.544964 1_555
Cs4 Se5 3.743242 1_455
Cs4 Se2 3.743242 1_455
Cs4 Se15 3.749905 1_555
Cs4 Se8 3.805464 1_555
Cs4 Se6 4.183836 1_554
Cs4 Se1 4.183836 1_555
Cs5 Se14 3.640271 1_555
Cs5 Se9 3.654385 1_555
Cs5 Se7 3.743043 1_545
Cs5 Se15 3.765920 1_555
Cs5 Se5 3.804869 1_555
Cs5 Se3 3.826071 1_555
Cs5 Se10 3.944637 1_555
Cs6 Se13 3.640271 1_555
Cs6 Se12 3.654385 1_555
Cs6 Se4 3.743043 1_565
Cs6 Se10 3.765920 1_554
Cs6 Se6 3.804869 1_554
Cs6 Se0 3.826071 1_554
Cs6 Se15 3.944637 1_555
Cs7 Se12 3.640271 1_655
Cs7 Se13 3.654385 1_555
Cs7 Se5 3.743043 1_555
Cs7 Se11 3.765920 1_555
Cs7 Se7 3.804869 1_555
Cs7 Se1 3.826071 1_655
Cs7 Se8 3.944637 1_665
Cs8 Se12 3.640271 1_655
Cs8 Se13 3.654385 1_555
Cs8 Se2 3.743043 1_555
Cs8 Se11 3.765920 1_554
Cs8 Se0 3.804869 1_554
Cs8 Se6 3.826071 1_654
Cs8 Se8 3.944637 1_665
Cs9 Se13 3.640271 1_555
Cs9 Se12 3.654385 1_555
Cs9 Se3 3.743043 1_565
Cs9 Se10 3.765920 1_555
Cs9 Se1 3.804869 1_555
Cs9 Se7 3.826071 1_555
Cs9 Se15 3.944637 1_555
Cs10 Se14 3.640271 1_555
Cs10 Se9 3.654385 1_555
Cs10 Se0 3.743043 1_545
Cs10 Se15 3.765920 1_556
Cs10 Se2 3.804869 1_556
Cs10 Se4 3.826071 1_556
Cs10 Se10 3.944637 1_555
Cs11 Se9 3.640271 1_455
Cs11 Se14 3.654385 1_555
Cs11 Se1 3.743043 1_555
Cs11 Se8 3.765920 1_555
Cs11 Se3 3.804869 1_555
Cs11 Se5 3.826071 1_455
Cs11 Se11 3.944637 1_445
Sb0 Se0 2.486565 1_545
Sb0 Se7 2.486565 1_545
Sb0 Se9 2.488936 1_555
Sb0 Se11 2.502779 1_545
Sb1 Se5 2.486565 1_555
Sb1 Se2 2.486565 1_555
Sb1 Se13 2.488936 1_555
Sb1 Se15 2.502779 1_555
Sb2 Se6 2.486565 1_555
Sb2 Se1 2.486565 1_555
Sb2 Se14 2.488936 1_555
Sb2 Se10 2.502779 1_555
Sb3 Se3 2.486565 1_565
Sb3 Se4 2.486565 1_565
Sb3 Se12 2.488936 1_555
Sb3 Se8 2.502779 1_565
