# generated using pymatgen
data_MnAg2Sn3S8
_symmetry_space_group_name_H-M   'P 1'
_cell_length_a   7.48513432
_cell_length_b   9.41524414
_cell_length_c   9.37927663
_cell_angle_alpha   47.86728707
_cell_angle_beta   52.19433441
_cell_angle_gamma   78.23383230
_symmetry_Int_Tables_number   1
_chemical_formula_structural   MnAg2Sn3S8
_chemical_formula_sum   'Mn1 Ag2 Sn3 S8'
_cell_volume   362.24743648
_cell_formula_units_Z   1
loop_
 _symmetry_equiv_pos_site_id
 _symmetry_equiv_pos_as_xyz
  1  'x, y, z'
loop_
 _atom_site_type_symbol
 _atom_site_label
 _atom_site_symmetry_multiplicity
 _atom_site_fract_x
 _atom_site_fract_y
 _atom_site_fract_z
 _atom_site_occupancy
  Mn  Mn0  1  0.50000000  0.00000000  0.50000000  1
  Ag  Ag0  1  0.00000000  0.00000000  0.50000000  1
  Ag  Ag1  1  0.00000000  0.50000000  0.00000000  1
  Sn  Sn0  1  0.56760900  0.31804800  0.75045000  1
  Sn  Sn1  1  0.43239100  0.68195200  0.24955000  1
  Sn  Sn2  1  0.00000000  0.00000000  0.00000000  1
  S  S0  1  0.45203800  0.19202500  0.21103500  1
  S  S1  1  0.82057300  0.59641200  0.24301600  1
  S  S2  1  0.54645800  0.33412400  0.26947200  1
  S  S3  1  0.18435000  0.94115400  0.21922300  1
  S  S4  1  0.54796200  0.80797500  0.78896500  1
  S  S5  1  0.17942700  0.40358800  0.75698400  1
  S  S6  1  0.45354200  0.66587600  0.73052800  1
  S  S7  1  0.81565000  0.05884600  0.78077700  1
loop_
_geom_bond_atom_site_label_1
_geom_bond_atom_site_label_2
_geom_bond_distance
_geom_bond_site_symmetry_2
Mn0 S6 2.256238 1_545
Mn0 S2 2.256238 1_555
Mn0 S4 2.257642 1_545
Mn0 S0 2.257642 1_555
Ag0 S7 2.517357 1_455
Ag0 S3 2.517357 1_545
Ag0 S0 2.596274 1_555
Ag0 S4 2.596274 1_445
Ag1 S1 2.519700 1_455
Ag1 S5 2.519700 1_554
Ag1 S6 2.588251 1_554
Ag1 S2 2.588251 1_455
S0 S2 2.105769 1_555
S0 Sn0 3.126989 1_554
S1 Sn0 2.710279 1_555
S1 Sn1 2.826377 1_555
S1 Sn2 2.854098 1_665
S2 Sn1 3.118170 1_555
S3 Sn1 2.711441 1_555
S3 Sn0 2.812181 1_564
S3 Sn2 2.841994 1_565
S4 S6 2.105769 1_555
S4 Sn1 3.126989 1_556
S5 Sn1 2.710279 1_555
S5 Sn0 2.826377 1_555
S5 Sn2 2.854098 1_556
S6 Sn0 3.118170 1_555
S7 Sn0 2.711441 1_555
S7 Sn1 2.812181 1_546
S7 Sn2 2.841994 1_656
