# generated using pymatgen
data_MgSn
_symmetry_space_group_name_H-M   'P 1'
_cell_length_a   6.67182307
_cell_length_b   6.67182307
_cell_length_c   20.98405000
_cell_angle_alpha   90.00000000
_cell_angle_beta   90.00000000
_cell_angle_gamma   119.99999078
_symmetry_Int_Tables_number   1
_chemical_formula_structural   MgSn
_chemical_formula_sum   'Mg16 Sn16'
_cell_volume   808.92643116
_cell_formula_units_Z   16
loop_
 _symmetry_equiv_pos_site_id
 _symmetry_equiv_pos_as_xyz
  1  'x, y, z'
loop_
 _atom_site_type_symbol
 _atom_site_label
 _atom_site_symmetry_multiplicity
 _atom_site_fract_x
 _atom_site_fract_y
 _atom_site_fract_z
 _atom_site_occupancy
  Mg  Mg0_0  1  0.33333350  0.16666650  0.44034300  1
  Mg  Mg0_1  1  0.33333350  0.16666650  0.94034300  1
  Mg  Mg0_2  1  0.33333350  0.66666650  0.44034300  1
  Mg  Mg0_3  1  0.33333350  0.66666650  0.94034300  1
  Mg  Mg0_4  1  0.83333350  0.16666650  0.44034300  1
  Mg  Mg0_5  1  0.83333350  0.16666650  0.94034300  1
  Mg  Mg0_6  1  0.83333350  0.66666650  0.44034300  1
  Mg  Mg0_7  1  0.83333350  0.66666650  0.94034300  1
  Mg  Mg1_0  1  0.16666650  0.33333350  0.05965700  1
  Mg  Mg1_1  1  0.16666650  0.33333350  0.55965700  1
  Mg  Mg1_2  1  0.16666650  0.83333350  0.05965700  1
  Mg  Mg1_3  1  0.16666650  0.83333350  0.55965700  1
  Mg  Mg1_4  1  0.66666650  0.33333350  0.05965700  1
  Mg  Mg1_5  1  0.66666650  0.33333350  0.55965700  1
  Mg  Mg1_6  1  0.66666650  0.83333350  0.05965700  1
  Mg  Mg1_7  1  0.66666650  0.83333350  0.55965700  1
  Sn  Sn0_0  1  0.16666650  0.33333350  0.32010700  1
  Sn  Sn0_1  1  0.16666650  0.33333350  0.82010700  1
  Sn  Sn0_2  1  0.16666650  0.83333350  0.32010700  1
  Sn  Sn0_3  1  0.16666650  0.83333350  0.82010700  1
  Sn  Sn0_4  1  0.66666650  0.33333350  0.32010700  1
  Sn  Sn0_5  1  0.66666650  0.33333350  0.82010700  1
  Sn  Sn0_6  1  0.66666650  0.83333350  0.32010700  1
  Sn  Sn0_7  1  0.66666650  0.83333350  0.82010700  1
  Sn  Sn1_0  1  0.33333350  0.16666650  0.17989300  1
  Sn  Sn1_1  1  0.33333350  0.16666650  0.67989300  1
  Sn  Sn1_2  1  0.33333350  0.66666650  0.17989300  1
  Sn  Sn1_3  1  0.33333350  0.66666650  0.67989300  1
  Sn  Sn1_4  1  0.83333350  0.16666650  0.17989300  1
  Sn  Sn1_5  1  0.83333350  0.16666650  0.67989300  1
  Sn  Sn1_6  1  0.83333350  0.66666650  0.17989300  1
  Sn  Sn1_7  1  0.83333350  0.66666650  0.67989300  1
loop_
_geom_bond_atom_site_label_1
_geom_bond_atom_site_label_2
_geom_bond_distance
_geom_bond_site_symmetry_2
Mg0_0 Mg1_5 3.158781 1_555
Mg0_0 Mg1_3 3.158781 1_545
Mg0_0 Mg1_1 3.158784 1_555
Mg0_0 Sn0_2 3.174138 1_545
Mg0_0 Sn0_4 3.174138 1_555
Mg0_0 Sn0_0 3.174141 1_555
Mg0_0 Mg0_2 3.335912 1_545
Mg0_0 Mg0_4 3.335912 1_455
Mg0_0 Mg0_4 3.335912 1_555
Mg0_0 Mg0_2 3.335912 1_555
Mg0_0 Mg0_6 3.335912 1_555
Mg0_0 Mg0_6 3.335912 1_445
Mg0_1 Mg1_4 3.158781 1_556
Mg0_1 Mg1_2 3.158781 1_546
Mg0_1 Mg1_0 3.158784 1_556
Mg0_1 Sn0_3 3.174138 1_545
Mg0_1 Sn0_5 3.174138 1_555
Mg0_1 Sn0_1 3.174141 1_555
Mg0_1 Mg0_5 3.335912 1_555
Mg0_1 Mg0_3 3.335912 1_545
Mg0_1 Mg0_3 3.335912 1_555
Mg0_1 Mg0_5 3.335912 1_455
Mg0_1 Mg0_7 3.335912 1_555
Mg0_1 Mg0_7 3.335912 1_445
Mg0_2 Mg1_1 3.158781 1_555
Mg0_2 Mg1_7 3.158781 1_555
Mg0_2 Mg1_3 3.158784 1_555
Mg0_2 Sn0_0 3.174138 1_555
Mg0_2 Sn0_6 3.174138 1_555
Mg0_2 Sn0_2 3.174141 1_555
Mg0_2 Mg0_6 3.335912 1_555
Mg0_2 Mg0_6 3.335912 1_455
Mg0_2 Mg0_4 3.335912 1_565
Mg0_2 Mg0_4 3.335912 1_455
Mg0_3 Mg1_0 3.158781 1_556
Mg0_3 Mg1_6 3.158781 1_556
Mg0_3 Mg1_2 3.158784 1_556
Mg0_3 Sn0_1 3.174138 1_555
Mg0_3 Sn0_7 3.174138 1_555
Mg0_3 Sn0_3 3.174141 1_555
Mg0_3 Mg0_7 3.335912 1_555
Mg0_3 Mg0_7 3.335912 1_455
Mg0_3 Mg0_5 3.335912 1_565
Mg0_3 Mg0_5 3.335912 1_455
Mg0_4 Mg1_7 3.158781 1_545
Mg0_4 Mg1_1 3.158781 1_655
Mg0_4 Mg1_5 3.158784 1_555
Mg0_4 Sn0_0 3.174138 1_655
Mg0_4 Sn0_6 3.174138 1_545
Mg0_4 Sn0_4 3.174141 1_555
Mg0_4 Mg0_6 3.335912 1_555
Mg0_4 Mg0_6 3.335912 1_545
Mg0_5 Mg1_6 3.158781 1_546
Mg0_5 Mg1_0 3.158781 1_656
Mg0_5 Mg1_4 3.158784 1_556
Mg0_5 Sn0_7 3.174138 1_545
Mg0_5 Sn0_1 3.174138 1_655
Mg0_5 Sn0_5 3.174141 1_555
Mg0_5 Mg0_7 3.335912 1_555
Mg0_5 Mg0_7 3.335912 1_545
Mg0_6 Mg1_5 3.158781 1_555
Mg0_6 Mg1_3 3.158781 1_655
Mg0_6 Mg1_7 3.158784 1_555
Mg0_6 Sn0_4 3.174138 1_555
Mg0_6 Sn0_2 3.174138 1_655
Mg0_6 Sn0_6 3.174141 1_555
Mg0_7 Mg1_4 3.158781 1_556
Mg0_7 Mg1_2 3.158781 1_656
Mg0_7 Mg1_6 3.158784 1_556
Mg0_7 Sn0_5 3.174138 1_555
Mg0_7 Sn0_3 3.174138 1_655
Mg0_7 Sn0_7 3.174141 1_555
Mg1_0 Sn1_2 3.174138 1_555
Mg1_0 Sn1_4 3.174138 1_455
Mg1_0 Sn1_0 3.174141 1_555
Mg1_0 Mg1_2 3.335912 1_555
Mg1_0 Mg1_4 3.335912 1_455
Mg1_0 Mg1_2 3.335912 1_545
Mg1_0 Mg1_4 3.335912 1_555
Mg1_0 Mg1_6 3.335912 1_445
Mg1_0 Mg1_6 3.335912 1_555
Mg1_1 Sn1_5 3.174138 1_455
Mg1_1 Sn1_3 3.174138 1_555
Mg1_1 Sn1_1 3.174141 1_555
Mg1_1 Mg1_3 3.335912 1_555
Mg1_1 Mg1_5 3.335912 1_455
Mg1_1 Mg1_5 3.335912 1_555
Mg1_1 Mg1_3 3.335912 1_545
Mg1_1 Mg1_7 3.335912 1_445
Mg1_1 Mg1_7 3.335912 1_555
Mg1_2 Sn1_0 3.174138 1_565
Mg1_2 Sn1_6 3.174138 1_455
Mg1_2 Sn1_2 3.174141 1_555
Mg1_2 Mg1_6 3.335912 1_555
Mg1_2 Mg1_6 3.335912 1_455
Mg1_2 Mg1_4 3.335912 1_565
Mg1_2 Mg1_4 3.335912 1_455
Mg1_3 Sn1_1 3.174138 1_565
Mg1_3 Sn1_7 3.174138 1_455
Mg1_3 Sn1_3 3.174141 1_555
Mg1_3 Mg1_7 3.335912 1_555
Mg1_3 Mg1_7 3.335912 1_455
Mg1_3 Mg1_5 3.335912 1_565
Mg1_3 Mg1_5 3.335912 1_455
Mg1_4 Sn1_6 3.174138 1_555
Mg1_4 Sn1_0 3.174138 1_555
Mg1_4 Sn1_4 3.174141 1_555
Mg1_4 Mg1_6 3.335912 1_555
Mg1_4 Mg1_6 3.335912 1_545
Mg1_5 Sn1_7 3.174138 1_555
Mg1_5 Sn1_1 3.174138 1_555
Mg1_5 Sn1_5 3.174141 1_555
Mg1_5 Mg1_7 3.335912 1_545
Mg1_5 Mg1_7 3.335912 1_555
Mg1_6 Sn1_4 3.174138 1_565
Mg1_6 Sn1_2 3.174138 1_555
Mg1_6 Sn1_6 3.174141 1_555
Mg1_7 Sn1_5 3.174138 1_565
Mg1_7 Sn1_3 3.174138 1_555
Mg1_7 Sn1_7 3.174141 1_555
Sn0_0 Sn0_2 3.335912 1_555
Sn0_0 Sn0_4 3.335912 1_455
Sn0_0 Sn0_4 3.335912 1_555
Sn0_0 Sn0_2 3.335912 1_545
Sn0_0 Sn0_6 3.335912 1_445
Sn0_0 Sn0_6 3.335912 1_555
Sn0_0 Sn1_2 3.516576 1_555
Sn0_0 Sn1_4 3.516576 1_455
Sn0_0 Sn1_0 3.516579 1_555
Sn0_1 Sn0_5 3.335912 1_455
Sn0_1 Sn0_3 3.335912 1_555
Sn0_1 Sn0_5 3.335912 1_555
Sn0_1 Sn0_3 3.335912 1_545
Sn0_1 Sn0_7 3.335912 1_445
Sn0_1 Sn0_7 3.335912 1_555
Sn0_1 Sn1_5 3.516576 1_455
Sn0_1 Sn1_3 3.516576 1_555
Sn0_1 Sn1_1 3.516579 1_555
Sn0_2 Sn0_6 3.335912 1_555
Sn0_2 Sn0_6 3.335912 1_455
Sn0_2 Sn0_4 3.335912 1_565
Sn0_2 Sn0_4 3.335912 1_455
Sn0_2 Sn1_0 3.516576 1_565
Sn0_2 Sn1_6 3.516576 1_455
Sn0_2 Sn1_2 3.516579 1_555
Sn0_3 Sn0_7 3.335912 1_455
Sn0_3 Sn0_7 3.335912 1_555
Sn0_3 Sn0_5 3.335912 1_565
Sn0_3 Sn0_5 3.335912 1_455
Sn0_3 Sn1_1 3.516576 1_565
Sn0_3 Sn1_7 3.516576 1_455
Sn0_3 Sn1_3 3.516579 1_555
Sn0_4 Sn0_6 3.335912 1_555
Sn0_4 Sn0_6 3.335912 1_545
Sn0_4 Sn1_6 3.516576 1_555
Sn0_4 Sn1_0 3.516576 1_555
Sn0_4 Sn1_4 3.516579 1_555
Sn0_5 Sn0_7 3.335912 1_555
Sn0_5 Sn0_7 3.335912 1_545
Sn0_5 Sn1_7 3.516576 1_555
Sn0_5 Sn1_1 3.516576 1_555
Sn0_5 Sn1_5 3.516579 1_555
Sn0_6 Sn1_4 3.516576 1_565
Sn0_6 Sn1_2 3.516576 1_555
Sn0_6 Sn1_6 3.516579 1_555
Sn0_7 Sn1_5 3.516576 1_565
Sn0_7 Sn1_3 3.516576 1_555
Sn0_7 Sn1_7 3.516579 1_555
Sn1_0 Sn1_4 3.335912 1_555
Sn1_0 Sn1_4 3.335912 1_455
Sn1_0 Sn1_2 3.335912 1_545
Sn1_0 Sn1_2 3.335912 1_555
Sn1_0 Sn1_6 3.335912 1_555
Sn1_0 Sn1_6 3.335912 1_445
Sn1_1 Sn1_3 3.335912 1_545
Sn1_1 Sn1_5 3.335912 1_555
Sn1_1 Sn1_5 3.335912 1_455
Sn1_1 Sn1_3 3.335912 1_555
Sn1_1 Sn1_7 3.335912 1_555
Sn1_1 Sn1_7 3.335912 1_445
Sn1_2 Sn1_6 3.335912 1_555
Sn1_2 Sn1_6 3.335912 1_455
Sn1_2 Sn1_4 3.335912 1_565
Sn1_2 Sn1_4 3.335912 1_455
Sn1_3 Sn1_7 3.335912 1_555
Sn1_3 Sn1_7 3.335912 1_455
Sn1_3 Sn1_5 3.335912 1_565
Sn1_3 Sn1_5 3.335912 1_455
Sn1_4 Sn1_6 3.335912 1_555
Sn1_4 Sn1_6 3.335912 1_545
Sn1_5 Sn1_7 3.335912 1_555
Sn1_5 Sn1_7 3.335912 1_545
