# generated using pymatgen
data_MgZnH20PtC4(NO3)4
_symmetry_space_group_name_H-M   'P 1'
_cell_length_a   6.52115776
_cell_length_b   7.48831018
_cell_length_c   9.25409774
_cell_angle_alpha   112.95434368
_cell_angle_beta   110.66576835
_cell_angle_gamma   89.95899492
_symmetry_Int_Tables_number   1
_chemical_formula_structural   MgZnH20PtC4(NO3)4
_chemical_formula_sum   'Mg1 Zn1 H20 Pt1 C4 N4 O12'
_cell_volume   384.39394081
_cell_formula_units_Z   1
loop_
 _symmetry_equiv_pos_site_id
 _symmetry_equiv_pos_as_xyz
  1  'x, y, z'
loop_
 _atom_site_type_symbol
 _atom_site_label
 _atom_site_symmetry_multiplicity
 _atom_site_fract_x
 _atom_site_fract_y
 _atom_site_fract_z
 _atom_site_occupancy
  Mg  Mg0  1  0.74839512  0.56881479  0.50048332  1
  Zn  Zn0  1  0.99802352  0.48093235  0.99530791  1
  H  H0  1  0.45814748  0.79583040  0.16886256  1
  H  H1  1  0.70307440  0.34907583  0.15118730  1
  H  H2  1  0.27594537  0.17742405  0.80116133  1
  H  H3  1  0.53289785  0.61054270  0.81935353  1
  H  H4  1  0.64707836  0.99476569  0.29191232  1
  H  H5  1  0.64342134  0.26538591  0.27739450  1
  H  H6  1  0.33913739  0.97545725  0.67518000  1
  H  H7  1  0.34203720  0.67438704  0.68314268  1
  H  H8  1  0.70931196  0.79395776  0.16809030  1
  H  H9  1  0.45012528  0.34868286  0.15416711  1
  H  H10  1  0.52563190  0.17871487  0.80260143  1
  H  H11  1  0.28449971  0.61121806  0.81860760  1
  H  H12  1  0.96007345  0.82191122  0.92033211  1
  H  H13  1  0.96449968  0.08844783  0.92489260  1
  H  H14  1  0.06592036  0.19124018  0.13165754  1
  H  H15  1  0.06216660  0.90471137  0.12308014  1
  H  H16  1  0.95170167  0.88369884  0.65703485  1
  H  H17  1  0.70790923  0.88679442  0.65840248  1
  H  H18  1  0.31103795  0.21276464  0.38467163  1
  H  H19  1  0.07316405  0.21149825  0.38395002  1
  Pt  Pt0  1  0.49063951  0.98072486  0.98111945  1
  C  C0  1  0.93479362  0.35550778  0.65405320  1
  C  C1  1  0.71676759  0.35692919  0.65506809  1
  C  C2  1  0.28524668  0.65665933  0.34677718  1
  C  C3  1  0.05919060  0.65635536  0.34615327  1
  N  N0  1  0.58641439  0.88157199  0.17272327  1
  N  N1  1  0.58117668  0.26960729  0.15988796  1
  N  N2  1  0.39779110  0.08736982  0.79506267  1
  N  N3  1  0.40325800  0.69121292  0.80734295  1
  O  O0  1  0.10793369  0.37982676  0.79368255  1
  O  O1  1  0.68520327  0.38218778  0.79552759  1
  O  O2  1  0.30695026  0.58838716  0.19996214  1
  O  O3  1  0.89164796  0.58890623  0.19881988  1
  O  O4  1  0.95855973  0.36004941  0.51761235  1
  O  O5  1  0.55579446  0.36321646  0.51984662  1
  O  O6  1  0.46329838  0.71240831  0.48656220  1
  O  O7  1  0.01952915  0.71075153  0.48525223  1
  O  O8  1  0.00963087  0.78432760  0.01557036  1
  O  O9  1  0.01056211  0.21348212  0.02524903  1
  O  O10  1  0.85848851  0.86241590  0.71559470  1
  O  O11  1  0.15440456  0.14541690  0.30808806  1
loop_
_geom_bond_atom_site_label_1
_geom_bond_atom_site_label_2
_geom_bond_distance
_geom_bond_site_symmetry_2
Mg0 O5 2.087275 1_555
Mg0 O4 2.093855 1_555
Mg0 O6 2.136684 1_555
Mg0 O7 2.138037 1_655
Mg0 O10 2.211712 1_555
H0 N0 1.036796 1_555
H1 N1 1.037171 1_555
H2 N2 1.044264 1_555
H3 N3 1.037927 1_555
H4 N0 1.027042 1_555
H5 N1 1.031253 1_555
H5 Mg0 2.288958 1_555
H6 N2 1.027207 1_565
H7 N3 1.029335 1_555
H8 N0 1.037371 1_555
H9 N1 1.037102 1_555
H10 N2 1.044174 1_555
H11 N3 1.037214 1_555
H12 O8 0.976073 1_656
H13 O9 0.977054 1_656
H14 O9 1.002324 1_555
H15 O8 0.990029 1_555
H16 O10 0.994273 1_555
H17 O10 0.992951 1_555
H18 O11 1.005452 1_555
H18 O5 1.695781 1_555
H19 O11 1.004770 1_555
H19 O4 1.704114 1_455
C0 O0 1.328384 1_655
C0 O4 1.338302 1_555
C1 O1 1.328426 1_555
C1 O5 1.337441 1_555
C2 O6 1.309628 1_555
C2 O2 1.311925 1_555
C3 O7 1.309829 1_555
C3 O3 1.311483 1_455
N0 Pt0 2.080837 1_554
N1 Pt0 2.070279 1_544
N2 Pt0 2.074819 1_545
N3 Pt0 2.060696 1_555
O0 Zn0 2.099919 1_455
O1 Zn0 2.097626 1_555
O2 Zn0 2.100811 1_454
O3 Zn0 2.101294 1_554
O8 Zn0 2.204641 1_454
O9 Zn0 2.123929 1_454
