# generated using pymatgen
data_CsMo3Cl7
_symmetry_space_group_name_H-M   'P 1'
_cell_length_a   9.90153524
_cell_length_b   9.90161805
_cell_length_c   14.58936738
_cell_angle_alpha   90.00195867
_cell_angle_beta   90.00409249
_cell_angle_gamma   119.99603885
_symmetry_Int_Tables_number   1
_chemical_formula_structural   CsMo3Cl7
_chemical_formula_sum   'Cs4 Mo12 Cl28'
_cell_volume   1238.77699168
_cell_formula_units_Z   4
loop_
 _symmetry_equiv_pos_site_id
 _symmetry_equiv_pos_as_xyz
  1  'x, y, z'
loop_
 _atom_site_type_symbol
 _atom_site_label
 _atom_site_symmetry_multiplicity
 _atom_site_fract_x
 _atom_site_fract_y
 _atom_site_fract_z
 _atom_site_occupancy
  Cs  Cs0  1  -0.00003732  -0.00003011  0.96787927  1
  Cs  Cs1  1  -0.00002462  0.00000082  0.46791273  1
  Cs  Cs2  1  0.66664911  0.33332727  0.70440371  1
  Cs  Cs3  1  0.33332498  0.66666388  0.20436134  1
  Mo  Mo0  1  0.48577833  0.66753918  0.78665999  1
  Mo  Mo1  1  0.18182440  0.51426405  0.78666379  1
  Mo  Mo2  1  0.81822191  0.33244978  0.28674252  1
  Mo  Mo3  1  0.33246568  0.81819541  0.78666917  1
  Mo  Mo4  1  0.66757449  0.48578913  0.28673631  1
  Mo  Mo5  1  0.51426718  0.18183755  0.28675394  1
  Mo  Mo6  1  0.48373908  0.81994037  0.64137690  1
  Mo  Mo7  1  0.33618520  0.51621516  0.64136722  1
  Mo  Mo8  1  0.66377156  0.18003725  0.14146939  1
  Mo  Mo9  1  0.18001531  0.66379475  0.64137831  1
  Mo  Mo10  1  0.81991864  0.48371849  0.14145925  1
  Mo  Mo11  1  0.51623280  0.33619841  0.14146708  1
  Cl  Cl0  1  0.62742123  0.67377657  0.64282522  1
  Cl  Cl1  1  0.04634345  0.37253343  0.64285772  1
  Cl  Cl2  1  0.95361415  0.32615570  0.14284936  1
  Cl  Cl3  1  0.32617196  0.95362417  0.64285286  1
  Cl  Cl4  1  0.67381601  0.62747489  0.14284167  1
  Cl  Cl5  1  0.37251444  0.04634798  0.14289498  1
  Cl  Cl6  1  0.97003791  0.31099461  0.87621355  1
  Cl  Cl7  1  0.34095447  0.02995149  0.87622985  1
  Cl  Cl8  1  0.65914579  0.68909233  0.37626339  1
  Cl  Cl9  1  0.68901965  0.65900528  0.87621306  1
  Cl  Cl10  1  0.31101003  0.97012297  0.37627556  1
  Cl  Cl11  1  0.02994948  0.34091014  0.37624962  1
  Cl  Cl12  1  0.66662172  0.33329689  0.00646395  1
  Cl  Cl13  1  0.33330275  0.66664589  0.50647225  1
  Cl  Cl14  1  0.66677077  0.33345175  0.42147634  1
  Cl  Cl15  1  0.33343451  0.66667679  0.92147530  1
  Cl  Cl16  1  0.62392049  0.95737250  0.78509898  1
  Cl  Cl17  1  0.33345374  0.37606779  0.78511399  1
  Cl  Cl18  1  0.66654798  0.04263011  0.28513030  1
  Cl  Cl19  1  0.04264789  0.66656903  0.78511871  1
  Cl  Cl20  1  0.95740037  0.62391487  0.28511256  1
  Cl  Cl21  1  0.37611755  0.33352302  0.28513224  1
  Cl  Cl22  1  0.68498796  0.03449803  0.55201813  1
  Cl  Cl23  1  0.34950418  0.31499427  0.55197257  1
  Cl  Cl24  1  0.65043641  0.96547543  0.05198753  1
  Cl  Cl25  1  0.96549295  0.65050231  0.55199824  1
  Cl  Cl26  1  0.03446173  0.68496400  0.05197993  1
  Cl  Cl27  1  0.31499370  0.34948434  0.05198022  1
loop_
_geom_bond_atom_site_label_1
_geom_bond_atom_site_label_2
_geom_bond_distance
_geom_bond_site_symmetry_2
Cl0 Mo6 2.485504 1_555
Cl0 Mo7 2.500338 1_555
Cl0 Mo0 2.507612 1_555
Cl0 Cs2 3.692013 1_555
Cl1 Mo7 2.485613 1_555
Cl1 Mo9 2.500573 1_555
Cl1 Mo1 2.507547 1_555
Cl1 Cs2 3.692212 1_455
Cl2 Mo8 2.485603 1_555
Cl2 Mo10 2.500372 1_555
Cl2 Mo2 2.508406 1_555
Cl2 Cs3 3.692296 1_655
Cl3 Mo9 2.485524 1_555
Cl3 Mo6 2.500322 1_555
Cl3 Mo3 2.507627 1_555
Cl3 Cs2 3.692276 1_565
Cl4 Mo10 2.485606 1_555
Cl4 Mo11 2.500696 1_555
Cl4 Mo4 2.508530 1_555
Cl4 Cs3 3.691995 1_555
Cl5 Mo11 2.485699 1_555
Cl5 Mo8 2.500500 1_555
Cl5 Mo5 2.508276 1_555
Cl5 Cs3 3.691900 1_545
Cl6 Mo1 2.436331 1_655
Cl6 Cs0 3.503304 1_655
Cl6 Cs2 4.002398 1_555
Cl7 Mo3 2.436023 1_545
Cl7 Cs0 3.503447 1_555
Cl7 Cs2 4.002889 1_555
Cl8 Mo4 2.435793 1_555
Cl8 Cs1 3.502148 1_665
Cl8 Cs3 4.003676 1_555
Cl9 Mo0 2.435890 1_555
Cl9 Cs0 3.503088 1_665
Cl9 Cs2 4.002020 1_555
Cl10 Mo5 2.435743 1_565
Cl10 Cs1 3.503017 1_565
Cl10 Cs3 4.003912 1_555
Cl11 Mo2 2.435422 1_455
Cl11 Cs1 3.502784 1_555
Cl11 Cs3 4.003705 1_555
Cl12 Mo10 2.477926 1_555
Cl12 Mo8 2.478013 1_555
Cl12 Mo11 2.478052 1_555
Cl13 Mo6 2.476912 1_555
Cl13 Mo7 2.476953 1_555
Cl13 Mo9 2.477061 1_555
Cl14 Mo4 2.475430 1_555
Cl14 Mo2 2.475499 1_555
Cl14 Mo5 2.475854 1_555
Cl14 Cs2 4.127732 1_555
Cl15 Mo0 2.476203 1_555
Cl15 Mo1 2.476598 1_555
Cl15 Mo3 2.476605 1_555
Cl15 Cs3 4.127129 1_556
Cl16 Mo0 2.486442 1_555
Cl16 Mo3 2.500263 1_555
Cl16 Mo6 2.507148 1_555
Cl16 Cs2 3.721303 1_565
Cl17 Mo1 2.486202 1_555
Cl17 Mo0 2.500438 1_555
Cl17 Mo7 2.507434 1_555
Cl17 Cs2 3.721095 1_555
Cl18 Mo2 2.486334 1_555
Cl18 Mo5 2.500417 1_555
Cl18 Mo8 2.506458 1_555
Cl18 Cs3 3.721690 1_545
Cl19 Mo3 2.486277 1_555
Cl19 Mo1 2.500356 1_555
Cl19 Mo9 2.507244 1_555
Cl19 Cs2 3.721680 1_455
Cl20 Mo4 2.486369 1_555
Cl20 Mo2 2.500381 1_555
Cl20 Mo10 2.506483 1_555
Cl20 Cs3 3.721209 1_655
Cl21 Mo5 2.486307 1_555
Cl21 Mo4 2.500288 1_555
Cl21 Mo11 2.506447 1_555
Cl21 Cs3 3.721133 1_555
Cl22 Mo6 2.439551 1_545
Cl22 Cs1 3.523538 1_655
Cl22 Cs2 3.777235 1_555
Cl23 Mo7 2.439393 1_555
Cl23 Cs1 3.523580 1_555
Cl23 Cs2 3.777376 1_555
Cl24 Mo8 2.440197 1_565
Cl24 Cs0 3.524000 1_664
Cl24 Cs3 3.777212 1_555
Cl25 Mo9 2.439180 1_655
Cl25 Cs1 3.523663 1_665
Cl25 Cs2 3.777876 1_555
Cl26 Mo10 2.440413 1_455
Cl26 Cs0 3.523672 1_564
Cl26 Cs3 3.777215 1_555
Cl27 Mo11 2.440057 1_555
Cl27 Cs0 3.523868 1_554
Cl27 Cs3 3.777316 1_555
