# generated using pymatgen
data_YMnB4
_symmetry_space_group_name_H-M   'P 1'
_cell_length_a   3.39318288
_cell_length_b   5.94714988
_cell_length_c   11.51087736
_cell_angle_alpha   90.00000000
_cell_angle_beta   90.00000000
_cell_angle_gamma   90.00000000
_symmetry_Int_Tables_number   1
_chemical_formula_structural   YMnB4
_chemical_formula_sum   'Y4 Mn4 B16'
_cell_volume   232.28682490
_cell_formula_units_Z   4
loop_
 _symmetry_equiv_pos_site_id
 _symmetry_equiv_pos_as_xyz
  1  'x, y, z'
loop_
 _atom_site_type_symbol
 _atom_site_label
 _atom_site_symmetry_multiplicity
 _atom_site_fract_x
 _atom_site_fract_y
 _atom_site_fract_z
 _atom_site_occupancy
  Y  Y0  1  0.00000000  0.62661916  0.34967756  1
  Y  Y1  1  -0.00000000  0.37338084  0.65032244  1
  Y  Y2  1  0.00000000  0.12661916  0.15032244  1
  Y  Y3  1  0.00000000  0.87338084  0.84967756  1
  Mn  Mn0  1  0.00000000  0.63136774  0.08627129  1
  Mn  Mn1  1  0.00000000  0.36863226  0.91372871  1
  Mn  Mn2  1  -0.00000000  0.13136774  0.41372871  1
  Mn  Mn3  1  0.00000000  0.86863226  0.58627129  1
  B  B0  1  0.50000000  0.78271742  0.18480309  1
  B  B1  1  0.50000000  0.21728258  0.81519691  1
  B  B2  1  0.50000000  0.28271742  0.31519691  1
  B  B3  1  0.50000000  0.71728258  0.68480309  1
  B  B4  1  0.50000000  0.86145547  0.03217639  1
  B  B5  1  0.50000000  0.13854453  0.96782361  1
  B  B6  1  0.50000000  0.36145547  0.46782361  1
  B  B7  1  0.50000000  0.63854453  0.53217639  1
  B  B8  1  0.50000000  0.88744467  0.45355234  1
  B  B9  1  0.50000000  0.11255533  0.54644766  1
  B  B10  1  0.50000000  0.38744467  0.04644766  1
  B  B11  1  0.50000000  0.61255533  0.95355234  1
  B  B12  1  0.50000000  0.97600194  0.30924135  1
  B  B13  1  0.50000000  0.02399806  0.69075865  1
  B  B14  1  0.50000000  0.47600194  0.19075865  1
  B  B15  1  0.50000000  0.52399806  0.80924135  1
loop_
_geom_bond_atom_site_label_1
_geom_bond_atom_site_label_2
_geom_bond_distance
_geom_bond_site_symmetry_2
B0 B4 1.818201 1_555
B0 B14 1.825371 1_555
B0 B12 1.836596 1_555
B0 Mn0 2.230467 1_555
B0 Mn0 2.230467 1_655
B0 Y2 2.686809 1_565
B0 Y2 2.686809 1_665
B0 Y0 2.709626 1_555
B0 Y0 2.709626 1_655
B1 B5 1.818201 1_555
B1 B15 1.825371 1_555
B1 B13 1.836596 1_555
B1 Mn1 2.230467 1_555
B1 Mn1 2.230467 1_655
B1 Y3 2.686809 1_645
B1 Y3 2.686809 1_545
B1 Y1 2.709626 1_655
B1 Y1 2.709626 1_555
B2 B6 1.818201 1_555
B2 Mn2 2.230467 1_655
B2 Mn2 2.230467 1_555
B2 Y0 2.686809 1_655
B2 Y0 2.686809 1_555
B2 Y2 2.709626 1_555
B2 Y2 2.709626 1_655
B3 B7 1.818201 1_555
B3 Mn3 2.230467 1_655
B3 Mn3 2.230467 1_555
B3 Y1 2.686809 1_655
B3 Y1 2.686809 1_555
B3 Y3 2.709626 1_655
B3 Y3 2.709626 1_555
B4 B5 1.806727 1_564
B4 Mn0 2.266843 1_655
B4 Mn0 2.266843 1_555
B4 Y2 2.686030 1_565
B4 Y2 2.686030 1_665
B4 Y3 2.701200 1_654
B4 Y3 2.701200 1_554
B5 Mn1 2.266843 1_555
B5 Mn1 2.266843 1_655
B5 Y3 2.686030 1_645
B5 Y3 2.686030 1_545
B5 Y2 2.701200 1_556
B5 Y2 2.701200 1_656
B6 B9 1.734996 1_555
B6 B7 1.806727 1_555
B6 Mn2 2.266843 1_655
B6 Mn2 2.266843 1_555
B6 Y0 2.686030 1_655
B6 Y0 2.686030 1_555
B6 Y1 2.701200 1_555
B6 Y1 2.701200 1_655
B7 B8 1.734996 1_555
B7 Mn3 2.266843 1_555
B7 Mn3 2.266843 1_655
B7 Y1 2.686030 1_555
B7 Y1 2.686030 1_655
B7 Y0 2.701200 1_555
B7 Y0 2.701200 1_655
B8 B9 1.713392 1_565
B8 Mn2 2.278801 1_565
B8 Mn2 2.278801 1_665
B8 Mn3 2.285791 1_555
B8 Mn3 2.285791 1_655
B8 Y0 2.591181 1_555
B8 Y0 2.591181 1_655
B9 Mn3 2.278801 1_545
B9 Mn3 2.278801 1_645
B9 Mn2 2.285791 1_655
B9 Mn2 2.285791 1_555
B9 Y1 2.591181 1_555
B9 Y1 2.591181 1_655
B10 B11 1.713392 1_554
B10 B5 1.734996 1_554
B10 B14 1.742636 1_555
B10 Mn0 2.278801 1_655
B10 Mn0 2.278801 1_555
B10 Mn1 2.285791 1_654
B10 Mn1 2.285791 1_554
B10 Y2 2.591181 1_655
B10 Y2 2.591181 1_555
B11 B4 1.734996 1_556
B11 B15 1.742636 1_555
B11 Mn1 2.278801 1_555
B11 Mn1 2.278801 1_655
B11 Mn0 2.285791 1_556
B11 Mn0 2.285791 1_656
B11 Y3 2.591181 1_555
B11 Y3 2.591181 1_655
B12 B8 1.742636 1_555
B12 B2 1.825371 1_565
B12 Mn2 2.275688 1_565
B12 Mn2 2.275688 1_665
B12 Y2 2.650868 1_565
B12 Y2 2.650868 1_665
B12 Y0 2.722583 1_555
B12 Y0 2.722583 1_655
B13 B9 1.742636 1_555
B13 B3 1.825371 1_545
B13 Mn3 2.275688 1_545
B13 Mn3 2.275688 1_645
B13 Y3 2.650868 1_645
B13 Y3 2.650868 1_545
B13 Y1 2.722583 1_555
B13 Y1 2.722583 1_655
B14 B2 1.836596 1_555
B14 Mn0 2.275688 1_655
B14 Mn0 2.275688 1_555
B14 Y0 2.650868 1_655
B14 Y0 2.650868 1_555
B14 Y2 2.722583 1_655
B14 Y2 2.722583 1_555
B15 B3 1.836596 1_555
B15 Mn1 2.275688 1_555
B15 Mn1 2.275688 1_655
B15 Y1 2.650868 1_555
B15 Y1 2.650868 1_655
B15 Y3 2.722583 1_655
B15 Y3 2.722583 1_555
