# generated using pymatgen
data_Na22S10Cl3O40
_symmetry_space_group_name_H-M   'P 1'
_cell_length_a   14.01908083
_cell_length_b   14.01908083
_cell_length_c   14.01908083
_cell_angle_alpha   109.47122063
_cell_angle_beta   109.47122063
_cell_angle_gamma   109.47122063
_symmetry_Int_Tables_number   1
_chemical_formula_structural   Na22S10Cl3O40
_chemical_formula_sum   'Na44 S20 Cl6 O80'
_cell_volume   2120.98075739
_cell_formula_units_Z   2
loop_
 _symmetry_equiv_pos_site_id
 _symmetry_equiv_pos_as_xyz
  1  'x, y, z'
loop_
 _atom_site_type_symbol
 _atom_site_label
 _atom_site_symmetry_multiplicity
 _atom_site_fract_x
 _atom_site_fract_y
 _atom_site_fract_z
 _atom_site_occupancy
  Na  Na0  1  0.79438611  0.54438611  0.75000000  1
  Na  Na1  1  0.70561389  0.95561389  0.25000000  1
  Na  Na2  1  0.54438611  0.75000000  0.79438611  1
  Na  Na3  1  0.29438611  0.25000000  0.04438611  1
  Na  Na4  1  0.95561389  0.25000000  0.70561389  1
  Na  Na5  1  0.20561389  0.75000000  0.45561389  1
  Na  Na6  1  0.75000000  0.79438611  0.54438611  1
  Na  Na7  1  0.04438611  0.29438611  0.25000000  1
  Na  Na8  1  0.25000000  0.70561389  0.95561389  1
  Na  Na9  1  0.45561389  0.20561389  0.75000000  1
  Na  Na10  1  0.25000000  0.04438611  0.29438611  1
  Na  Na11  1  0.75000000  0.45561389  0.20561389  1
  Na  Na12  1  0.74169772  0.47129415  0.46532326  1
  Na  Na13  1  0.75830228  0.72362553  0.22959643  1
  Na  Na14  1  0.49402910  0.02870585  0.27040357  1
  Na  Na15  1  0.47129415  0.46532326  0.74169772  1
  Na  Na16  1  0.24169772  0.96532326  0.97129415  1
  Na  Na17  1  0.00597090  0.77637447  0.03467674  1
  Na  Na18  1  0.72362553  0.22959643  0.75830228  1
  Na  Na19  1  0.25830228  0.72959643  0.22362553  1
  Na  Na20  1  0.02870585  0.27040357  0.49402910  1
  Na  Na21  1  0.99402910  0.77040357  0.52870585  1
  Na  Na22  1  0.77637447  0.03467674  0.00597090  1
  Na  Na23  1  0.50597090  0.53467674  0.27637447  1
  Na  Na24  1  0.46532326  0.74169772  0.47129415  1
  Na  Na25  1  0.97129415  0.24169772  0.96532326  1
  Na  Na26  1  0.27040357  0.49402910  0.02870585  1
  Na  Na27  1  0.52870585  0.99402910  0.77040357  1
  Na  Na28  1  0.03467674  0.00597090  0.77637447  1
  Na  Na29  1  0.27637447  0.50597090  0.53467674  1
  Na  Na30  1  0.22959643  0.75830228  0.72362553  1
  Na  Na31  1  0.22362553  0.25830228  0.72959643  1
  Na  Na32  1  0.96532326  0.97129415  0.24169772  1
  Na  Na33  1  0.72959643  0.22362553  0.25830228  1
  Na  Na34  1  0.53467674  0.27637447  0.50597090  1
  Na  Na35  1  0.77040357  0.52870585  0.99402910  1
  Na  Na36  1  0.84865443  0.84865443  0.84865443  1
  Na  Na37  1  0.65134557  -0.00000000  0.50000000  1
  Na  Na38  1  0.50000000  0.65134557  0.00000000  1
  Na  Na39  1  0.34865443  0.34865443  0.34865443  1
  Na  Na40  1  0.00000000  0.50000000  0.65134557  1
  Na  Na41  1  0.15134557  -0.00000000  0.50000000  1
  Na  Na42  1  -0.00000000  0.50000000  0.15134557  1
  Na  Na43  1  0.50000000  0.15134557  0.00000000  1
  S  S0  1  0.98076497  0.73076497  0.75000000  1
  S  S1  1  0.51923503  0.76923503  0.25000000  1
  S  S2  1  0.73076497  0.75000000  0.98076497  1
  S  S3  1  0.48076497  0.25000000  0.23076497  1
  S  S4  1  0.76923503  0.25000000  0.51923503  1
  S  S5  1  0.01923503  0.75000000  0.26923503  1
  S  S6  1  0.75000000  0.98076497  0.73076497  1
  S  S7  1  0.23076497  0.48076497  0.25000000  1
  S  S8  1  0.25000000  0.51923503  0.76923503  1
  S  S9  1  0.26923503  0.01923503  0.75000000  1
  S  S10  1  0.25000000  0.23076497  0.48076497  1
  S  S11  1  0.75000000  0.26923503  0.01923503  1
  S  S12  1  0.57925204  0.57925204  0.57925204  1
  S  S13  1  0.92074796  -0.00000000  0.50000000  1
  S  S14  1  0.50000000  0.92074796  0.00000000  1
  S  S15  1  0.07925204  0.07925204  0.07925204  1
  S  S16  1  -0.00000000  0.50000000  0.92074796  1
  S  S17  1  0.42074796  -0.00000000  0.50000000  1
  S  S18  1  -0.00000000  0.50000000  0.42074796  1
  S  S19  1  0.50000000  0.42074796  0.00000000  1
  Cl  Cl0  1  0.62500000  0.37500000  0.75000000  1
  Cl  Cl1  1  0.87500000  0.12500000  0.25000000  1
  Cl  Cl2  1  0.37500000  0.75000000  0.62500000  1
  Cl  Cl3  1  0.12500000  0.25000000  0.87500000  1
  Cl  Cl4  1  0.75000000  0.62500000  0.37500000  1
  Cl  Cl5  1  0.25000000  0.87500000  0.12500000  1
  O  O0  1  0.68487600  0.68487600  0.68487600  1
  O  O1  1  0.81512400  0.00000000  0.50000000  1
  O  O2  1  0.50000000  0.81512400  0.00000000  1
  O  O3  1  0.18487600  0.18487600  0.18487600  1
  O  O4  1  -0.00000000  0.50000000  0.81512400  1
  O  O5  1  0.31512400  0.00000000  0.50000000  1
  O  O6  1  -0.00000000  0.50000000  0.31512400  1
  O  O7  1  0.50000000  0.31512400  0.00000000  1
  O  O8  1  0.54362639  0.60624658  0.48260144  1
  O  O9  1  0.95637361  0.93897504  0.56262019  1
  O  O10  1  0.37635485  0.89375342  0.93737981  1
  O  O11  1  0.60624658  0.48260144  0.54362639  1
  O  O12  1  0.04362639  0.98260144  0.10624658  1
  O  O13  1  0.12364515  0.56102496  0.01739856  1
  O  O14  1  0.93897504  0.56262019  0.95637361  1
  O  O15  1  0.45637361  0.06262019  0.43897504  1
  O  O16  1  0.89375342  0.93737981  0.37635485  1
  O  O17  1  0.87635485  0.43737981  0.39375342  1
  O  O18  1  0.56102496  0.01739856  0.12364515  1
  O  O19  1  0.62364515  0.51739856  0.06102496  1
  O  O20  1  0.48260144  0.54362639  0.60624658  1
  O  O21  1  0.10624658  0.04362639  0.98260144  1
  O  O22  1  0.93737981  0.37635485  0.89375342  1
  O  O23  1  0.39375342  0.87635485  0.43737981  1
  O  O24  1  0.01739856  0.12364515  0.56102496  1
  O  O25  1  0.06102496  0.62364515  0.51739856  1
  O  O26  1  0.56262019  0.95637361  0.93897504  1
  O  O27  1  0.43897504  0.45637361  0.06262019  1
  O  O28  1  0.98260144  0.10624658  0.04362639  1
  O  O29  1  0.06262019  0.43897504  0.45637361  1
  O  O30  1  0.51739856  0.06102496  0.62364515  1
  O  O31  1  0.43737981  0.39375342  0.87635485  1
  O  O32  1  0.65804777  0.90599793  0.60447540  1
  O  O33  1  0.84195223  0.94642763  0.74795016  1
  O  O34  1  0.19847747  0.59400207  0.75204984  1
  O  O35  1  0.90599793  0.60447540  0.65804777  1
  O  O36  1  0.15804777  0.10447540  0.40599793  1
  O  O37  1  0.30152253  0.55357237  0.89552460  1
  O  O38  1  0.94642763  0.74795016  0.84195223  1
  O  O39  1  0.34195223  0.24795016  0.44642763  1
  O  O40  1  0.59400207  0.75204984  0.19847747  1
  O  O41  1  0.69847747  0.25204984  0.09400207  1
  O  O42  1  0.55357237  0.89552460  0.30152253  1
  O  O43  1  0.80152253  0.39552460  0.05357237  1
  O  O44  1  0.60447540  0.65804777  0.90599793  1
  O  O45  1  0.40599793  0.15804777  0.10447540  1
  O  O46  1  0.75204984  0.19847747  0.59400207  1
  O  O47  1  0.09400207  0.69847747  0.25204984  1
  O  O48  1  0.89552460  0.30152253  0.55357237  1
  O  O49  1  0.05357237  0.80152253  0.39552460  1
  O  O50  1  0.74795016  0.84195223  0.94642763  1
  O  O51  1  0.44642763  0.34195223  0.24795016  1
  O  O52  1  0.10447540  0.40599793  0.15804777  1
  O  O53  1  0.24795016  0.44642763  0.34195223  1
  O  O54  1  0.39552460  0.05357237  0.80152253  1
  O  O55  1  0.25204984  0.09400207  0.69847747  1
  O  O56  1  0.54002374  0.73574962  0.34215566  1
  O  O57  1  0.95997626  0.80213192  0.69572589  1
  O  O58  1  0.10640603  0.76425038  0.80427411  1
  O  O59  1  0.73574962  0.34215566  0.54002374  1
  O  O60  1  0.04002374  0.84215566  0.23574962  1
  O  O61  1  0.39359397  0.69786808  0.15784434  1
  O  O62  1  0.80213192  0.69572589  0.95997626  1
  O  O63  1  0.45997626  0.19572589  0.30213192  1
  O  O64  1  0.76425038  0.80427411  0.10640603  1
  O  O65  1  0.60640603  0.30427411  0.26425038  1
  O  O66  1  0.69786808  0.15784434  0.39359397  1
  O  O67  1  0.89359397  0.65784434  0.19786808  1
  O  O68  1  0.34215566  0.54002374  0.73574962  1
  O  O69  1  0.23574962  0.04002374  0.84215566  1
  O  O70  1  0.80427411  0.10640603  0.76425038  1
  O  O71  1  0.26425038  0.60640603  0.30427411  1
  O  O72  1  0.15784434  0.39359397  0.69786808  1
  O  O73  1  0.19786808  0.89359397  0.65784434  1
  O  O74  1  0.69572589  0.95997626  0.80213192  1
  O  O75  1  0.30213192  0.45997626  0.19572589  1
  O  O76  1  0.84215566  0.23574962  0.04002374  1
  O  O77  1  0.19572589  0.30213192  0.45997626  1
  O  O78  1  0.65784434  0.19786808  0.89359397  1
  O  O79  1  0.30427411  0.26425038  0.60640603  1
loop_
_geom_bond_atom_site_label_1
_geom_bond_atom_site_label_2
_geom_bond_distance
_geom_bond_site_symmetry_2
Na0 O35 2.451438 1_555
Na0 O38 2.451438 1_555
Na0 O14 2.792202 1_555
Na0 O11 2.792202 1_555
Na0 O59 2.940760 1_555
Na0 O62 2.940761 1_555
Na1 O42 2.451438 1_555
Na1 O40 2.451438 1_555
Na1 O18 2.792202 1_565
Na1 O16 2.792202 1_555
Na1 O66 2.940761 1_565
Na1 O64 2.940761 1_555
Na2 O44 2.451438 1_555
Na2 O50 2.451438 1_555
Na2 O26 2.792202 1_555
Na2 O20 2.792202 1_555
Na2 O68 2.940760 1_555
Na2 O74 2.940761 1_555
Na3 O51 2.451438 1_555
Na3 O45 2.451438 1_555
Na3 O27 2.792202 1_555
Na3 O21 2.792202 1_554
Na3 O69 2.940760 1_554
Na3 O75 2.940761 1_555
Na4 O48 2.451438 1_555
Na4 O46 2.451438 1_555
Na4 O24 2.792202 1_655
Na4 O22 2.792202 1_555
Na4 O72 2.940761 1_655
Na4 O70 2.940761 1_555
Na5 O49 2.451438 1_555
Na5 O47 2.451438 1_555
Na5 O25 2.792202 1_555
Na5 O23 2.792202 1_555
Na5 O73 2.940761 1_555
Na5 O71 2.940761 1_555
Na6 O32 2.451438 1_555
Na6 O33 2.451438 1_555
Na6 O9 2.792202 1_555
Na6 O8 2.792202 1_555
Na6 O56 2.940760 1_555
Na6 O57 2.940761 1_555
Na7 O53 2.451438 1_555
Na7 O52 2.451438 1_555
Na7 O29 2.792202 1_555
Na7 O28 2.792202 1_455
Na7 O76 2.940760 1_455
Na7 O77 2.940761 1_555
Na8 O37 2.451438 1_555
Na8 O34 2.451438 1_555
Na8 O13 2.792202 1_556
Na8 O10 2.792202 1_555
Na8 O61 2.940761 1_556
Na8 O58 2.940761 1_555
Na9 O54 2.451438 1_555
Na9 O55 2.451438 1_555
Na9 O30 2.792202 1_555
Na9 O31 2.792202 1_555
Na9 O78 2.940761 1_555
Na9 O79 2.940761 1_555
Na10 O39 2.451438 1_555
Na10 O36 2.451438 1_555
Na10 O15 2.792202 1_555
Na10 O12 2.792202 1_545
Na10 O60 2.940760 1_545
Na10 O63 2.940761 1_555
Na11 O43 2.451438 1_555
Na11 O41 2.451438 1_555
Na11 O19 2.792202 1_555
Na11 O17 2.792202 1_555
Na11 O67 2.940761 1_555
Na11 O65 2.940761 1_555
Na12 O59 2.367007 1_555
Na12 O35 2.390055 1_555
Na12 O65 2.469949 1_555
Na12 O11 2.512033 1_555
Na12 O17 2.517831 1_555
Na13 O64 2.367007 1_555
Na13 O40 2.390055 1_555
Na13 O67 2.469949 1_555
Na13 O16 2.512033 1_555
Na13 O19 2.517831 1_555
Na14 O66 2.367007 1_555
Na14 O42 2.390055 1_545
Na14 O63 2.469949 1_555
Na14 O18 2.512033 1_555
Na14 O15 2.517831 1_555
Na15 O68 2.367007 1_555
Na15 O44 2.390055 1_555
Na15 O79 2.469949 1_555
Na15 O20 2.512033 1_555
Na15 O31 2.517831 1_555
Na16 O69 2.367007 1_565
Na16 O45 2.390055 1_566
Na16 O58 2.469949 1_555
Na16 O21 2.512033 1_565
Na16 O10 2.517831 1_555
Na17 O62 2.367007 1_454
Na17 O38 2.390055 1_454
Na17 O60 2.469949 1_555
Na17 O14 2.512033 1_454
Na17 O12 2.517831 1_555
Na18 O70 2.367007 1_555
Na18 O46 2.390055 1_555
Na18 O78 2.469949 1_555
Na18 O22 2.512033 1_555
Na18 O30 2.517831 1_555
Na19 O71 2.367007 1_555
Na19 O47 2.390055 1_555
Na19 O61 2.469949 1_555
Na19 O23 2.512033 1_555
Na19 O13 2.517831 1_555
Na20 O72 2.367007 1_555
Na20 O48 2.390055 1_455
Na20 O77 2.469949 1_555
Na20 O24 2.512033 1_555
Na20 O29 2.517831 1_555
Na21 O73 2.367007 1_655
Na21 O49 2.390055 1_655
Na21 O57 2.469949 1_555
Na21 O25 2.512033 1_655
Na21 O9 2.517831 1_555
Na22 O74 2.367007 1_544
Na22 O50 2.390055 1_544
Na22 O76 2.469949 1_555
Na22 O26 2.512033 1_544
Na22 O28 2.517831 1_555
Na23 O75 2.367007 1_555
Na23 O51 2.390055 1_555
Na23 O56 2.469949 1_555
Na23 O27 2.512033 1_555
Na23 O8 2.517831 1_555
Na24 O56 2.367007 1_555
Na24 O32 2.390055 1_555
Na24 O71 2.469949 1_555
Na24 O8 2.512033 1_555
Na24 O23 2.517831 1_555
Na25 O76 2.367007 1_556
Na25 O52 2.390055 1_656
Na25 O70 2.469949 1_555
Na25 O28 2.512033 1_556
Na25 O22 2.517831 1_555
Na26 O61 2.367007 1_555
Na26 O37 2.390055 1_554
Na26 O75 2.469949 1_555
Na26 O13 2.512033 1_555
Na26 O27 2.517831 1_555
Na27 O78 2.367007 1_565
Na27 O54 2.390055 1_565
Na27 O74 2.469949 1_555
Na27 O30 2.512033 1_565
Na27 O26 2.517831 1_555
Na28 O57 2.367007 1_445
Na28 O33 2.390055 1_445
Na28 O69 2.469949 1_555
Na28 O9 2.512033 1_445
Na28 O21 2.517831 1_555
Na29 O77 2.367007 1_555
Na29 O53 2.390055 1_555
Na29 O68 2.469949 1_555
Na29 O29 2.512033 1_555
Na29 O20 2.517831 1_555
Na30 O58 2.367007 1_555
Na30 O34 2.390055 1_555
Na30 O73 2.469949 1_555
Na30 O10 2.512033 1_555
Na30 O25 2.517831 1_555
Na31 O79 2.367007 1_555
Na31 O55 2.390055 1_555
Na31 O72 2.469949 1_555
Na31 O31 2.512033 1_555
Na31 O24 2.517831 1_555
Na32 O60 2.367007 1_655
Na32 O36 2.390055 1_665
Na32 O64 2.469949 1_555
Na32 O12 2.512033 1_655
Na32 O16 2.517831 1_555
Na33 O65 2.367007 1_555
Na33 O41 2.390055 1_555
Na33 O66 2.469949 1_555
Na33 O17 2.512033 1_555
Na33 O18 2.517831 1_555
Na34 O63 2.367007 1_555
Na34 O39 2.390055 1_555
Na34 O59 2.469949 1_555
Na34 O15 2.512033 1_555
Na34 O11 2.517831 1_555
Na35 O67 2.367007 1_556
Na35 O43 2.390055 1_556
Na35 O62 2.469949 1_555
Na35 O19 2.512033 1_556
Na35 O14 2.517831 1_555
Na36 O38 2.273378 1_555
Na36 O50 2.273378 1_555
Na36 O33 2.273378 1_555
Na36 O0 2.296023 1_555
Na37 O46 2.273378 1_555
Na37 O42 2.273378 1_545
Na37 O32 2.273378 1_545
Na37 O1 2.296023 1_555
Na38 O37 2.273378 1_554
Na38 O40 2.273378 1_555
Na38 O44 2.273378 1_554
Na38 O2 2.296023 1_555
Na39 O39 2.273378 1_555
Na39 O51 2.273378 1_555
Na39 O53 2.273378 1_555
Na39 O3 2.296023 1_555
Na40 O34 2.273378 1_555
Na40 O48 2.273378 1_455
Na40 O35 2.273378 1_455
Na40 O4 2.296023 1_555
Na41 O36 2.273378 1_555
Na41 O55 2.273378 1_555
Na41 O49 2.273378 1_545
Na41 O5 2.296023 1_555
Na42 O52 2.273378 1_555
Na42 O47 2.273378 1_555
Na42 O43 2.273378 1_455
Na42 O6 2.296023 1_555
Na43 O45 2.273378 1_555
Na43 O41 2.273378 1_555
Na43 O54 2.273378 1_554
Na43 O7 2.296023 1_555
Cl0 Na9 2.741995 1_555
Cl0 Na0 2.741995 1_555
Cl0 Na34 2.830236 1_555
Cl0 Na18 2.830236 1_555
Cl0 Na35 2.830236 1_555
Cl0 Na15 2.830236 1_555
Cl1 Na7 2.741995 1_655
Cl1 Na1 2.741995 1_545
Cl1 Na22 2.830236 1_555
Cl1 Na20 2.830236 1_655
Cl1 Na33 2.830236 1_555
Cl1 Na32 2.830236 1_545
Cl2 Na5 2.741995 1_555
Cl2 Na2 2.741995 1_555
Cl2 Na29 2.830236 1_555
Cl2 Na27 2.830236 1_555
Cl2 Na30 2.830236 1_555
Cl2 Na24 2.830236 1_555
Cl3 Na3 2.741995 1_556
Cl3 Na4 2.741995 1_455
Cl3 Na28 2.830236 1_555
Cl3 Na26 2.830236 1_556
Cl3 Na31 2.830236 1_555
Cl3 Na25 2.830236 1_455
Cl4 Na11 2.741995 1_555
Cl4 Na6 2.741995 1_555
Cl4 Na23 2.830236 1_555
Cl4 Na13 2.830236 1_555
Cl4 Na21 2.830236 1_555
Cl4 Na12 2.830236 1_555
Cl5 Na10 2.741995 1_565
Cl5 Na8 2.741995 1_554
Cl5 Na17 2.830236 1_555
Cl5 Na14 2.830236 1_565
Cl5 Na19 2.830236 1_555
Cl5 Na16 2.830236 1_554
O0 S12 1.480751 1_555
O1 S13 1.480751 1_555
O2 S14 1.480751 1_555
O3 S15 1.480751 1_555
O4 S16 1.480751 1_555
O5 S17 1.480751 1_555
O6 S18 1.480751 1_555
O7 S19 1.480751 1_555
O8 S12 1.498418 1_555
O9 S13 1.498418 1_565
O10 S14 1.498418 1_556
O11 S12 1.498418 1_555
O12 S15 1.498418 1_565
O13 S16 1.498418 1_554
O14 S16 1.498418 1_655
O15 S17 1.498418 1_555
O16 S13 1.498418 1_565
O17 S18 1.498418 1_655
O18 S14 1.498418 1_545
O19 S19 1.498418 1_555
O20 S12 1.498418 1_555
O21 S15 1.498418 1_556
O22 S16 1.498418 1_655
O23 S17 1.498418 1_565
O24 S13 1.498418 1_455
O25 S18 1.498418 1_555
O26 S14 1.498418 1_556
O27 S19 1.498418 1_555
O28 S15 1.498418 1_655
O29 S18 1.498418 1_555
O30 S17 1.498418 1_555
O31 S19 1.498418 1_556
O32 S6 1.495150 1_555
O33 S6 1.495150 1_555
O34 S8 1.495150 1_555
O35 S0 1.495150 1_555
O36 S10 1.495150 1_555
O37 S8 1.495150 1_555
O38 S0 1.495150 1_555
O39 S10 1.495150 1_555
O40 S1 1.495150 1_555
O41 S11 1.495150 1_555
O42 S1 1.495150 1_555
O43 S11 1.495150 1_555
O44 S2 1.495150 1_555
O45 S3 1.495150 1_555
O46 S4 1.495150 1_555
O47 S5 1.495150 1_555
O48 S4 1.495150 1_555
O49 S5 1.495150 1_555
O50 S2 1.495150 1_555
O51 S3 1.495150 1_555
O52 S7 1.495150 1_555
O53 S7 1.495150 1_555
O54 S9 1.495150 1_555
O55 S9 1.495150 1_555
O56 S1 1.489605 1_555
O57 S0 1.489605 1_555
O58 S0 1.489605 1_455
O59 S4 1.489605 1_555
O60 S5 1.489605 1_555
O61 S1 1.489605 1_555
O62 S2 1.489605 1_555
O63 S3 1.489605 1_555
O64 S2 1.489605 1_554
O65 S3 1.489605 1_555
O66 S4 1.489605 1_555
O67 S5 1.489605 1_655
O68 S8 1.489605 1_555
O69 S9 1.489605 1_555
O70 S6 1.489605 1_545
O71 S7 1.489605 1_555
O72 S8 1.489605 1_555
O73 S9 1.489605 1_565
O74 S6 1.489605 1_555
O75 S7 1.489605 1_555
O76 S11 1.489605 1_555
O77 S10 1.489605 1_555
O78 S11 1.489605 1_556
O79 S10 1.489605 1_555
