# generated using pymatgen
data_Na2MnN2
_symmetry_space_group_name_H-M   'P 1'
_cell_length_a   5.99697239
_cell_length_b   4.80009989
_cell_length_c   10.47796251
_cell_angle_alpha   90.00000000
_cell_angle_beta   90.00000000
_cell_angle_gamma   90.00000000
_symmetry_Int_Tables_number   1
_chemical_formula_structural   Na2MnN2
_chemical_formula_sum   'Na8 Mn4 N8'
_cell_volume   301.61932570
_cell_formula_units_Z   4
loop_
 _symmetry_equiv_pos_site_id
 _symmetry_equiv_pos_as_xyz
  1  'x, y, z'
loop_
 _atom_site_type_symbol
 _atom_site_label
 _atom_site_symmetry_multiplicity
 _atom_site_fract_x
 _atom_site_fract_y
 _atom_site_fract_z
 _atom_site_occupancy
  Na  Na0  1  0.57666860  0.25000000  0.81947404  1
  Na  Na1  1  0.07666860  0.25000000  0.68052596  1
  Na  Na2  1  0.42333140  0.75000000  0.18052596  1
  Na  Na3  1  0.92333140  0.75000000  0.31947404  1
  Na  Na4  1  0.18003066  0.25000000  0.03632722  1
  Na  Na5  1  0.68003066  0.25000000  0.46367278  1
  Na  Na6  1  0.81996934  0.75000000  0.96367278  1
  Na  Na7  1  0.31996934  0.75000000  0.53632722  1
  Mn  Mn0  1  0.72697986  0.25000000  0.16905694  1
  Mn  Mn1  1  0.22697986  0.25000000  0.33094306  1
  Mn  Mn2  1  0.27302014  0.75000000  0.83094306  1
  Mn  Mn3  1  0.77302014  0.75000000  0.66905694  1
  N  N0  1  0.45698801  0.25000000  0.23082614  1
  N  N1  1  0.95698801  0.25000000  0.26917386  1
  N  N2  1  0.54301199  0.75000000  0.76917386  1
  N  N3  1  0.04301199  0.75000000  0.73082614  1
  N  N4  1  0.76606540  0.25000000  0.01755814  1
  N  N5  1  0.26606540  0.25000000  0.48244086  1
  N  N6  1  0.23393460  0.75000000  0.98244186  1
  N  N7  1  0.73393460  0.75000000  0.51755814  1
loop_
_geom_bond_atom_site_label_1
_geom_bond_atom_site_label_2
_geom_bond_distance
_geom_bond_site_symmetry_2
Mn0 N4 1.604611 1_555
Mn0 N1 1.732934 1_555
Mn0 N0 1.743698 1_555
Mn1 N5 1.604600 1_555
Mn1 N0 1.732934 1_555
Mn1 N1 1.743698 1_455
Mn2 N6 1.604611 1_555
Mn2 N3 1.732934 1_555
Mn2 N2 1.743698 1_555
Mn3 N7 1.604611 1_555
Mn3 N2 1.732934 1_555
Mn3 N3 1.743698 1_655
N0 Na2 2.465513 1_555
N0 Na2 2.465513 1_545
N0 Na4 2.629041 1_555
N0 Na5 2.782363 1_555
N1 Na3 2.465513 1_545
N1 Na3 2.465513 1_555
N1 Na5 2.629041 1_555
N1 Na4 2.782363 1_655
N2 Na0 2.465513 1_555
N2 Na0 2.465513 1_565
N2 Na6 2.629041 1_555
N2 Na7 2.782363 1_555
N3 Na1 2.465513 1_565
N3 Na1 2.465513 1_555
N3 Na7 2.629041 1_555
N3 Na6 2.782363 1_455
N4 Na0 2.365974 1_554
N4 Na6 2.486668 1_544
N4 Na6 2.486668 1_554
N4 Na4 2.490316 1_655
N5 Na1 2.365983 1_555
N5 Na7 2.486671 1_545
N5 Na7 2.486671 1_555
N5 Na5 2.490315 1_555
N6 Na2 2.365974 1_556
N6 Na4 2.486668 1_556
N6 Na4 2.486668 1_566
N6 Na6 2.490316 1_455
N7 Na3 2.365974 1_555
N7 Na5 2.486668 1_555
N7 Na5 2.486668 1_565
N7 Na7 2.490316 1_555
