# generated using pymatgen
data_BaSe(SO2)4
_symmetry_space_group_name_H-M   'P 1'
_cell_length_a   5.27896500
_cell_length_b   10.61940100
_cell_length_c   23.12241300
_cell_angle_alpha   90.00000000
_cell_angle_beta   90.00000000
_cell_angle_gamma   90.00000000
_symmetry_Int_Tables_number   1
_chemical_formula_structural   BaSe(SO2)4
_chemical_formula_sum   'Ba4 Se4 S16 O32'
_cell_volume   1296.22966759
_cell_formula_units_Z   4
loop_
 _symmetry_equiv_pos_site_id
 _symmetry_equiv_pos_as_xyz
  1  'x, y, z'
loop_
 _atom_site_type_symbol
 _atom_site_label
 _atom_site_symmetry_multiplicity
 _atom_site_fract_x
 _atom_site_fract_y
 _atom_site_fract_z
 _atom_site_occupancy
  Ba  Ba0  1  0.71818100  0.25000000  0.54344200  1
  Ba  Ba1  1  0.21818100  0.25000000  0.95655800  1
  Ba  Ba2  1  0.28181900  0.75000000  0.45655800  1
  Ba  Ba3  1  0.78181900  0.75000000  0.04344200  1
  Se  Se0  1  0.04024200  0.25000000  0.32684900  1
  Se  Se1  1  0.54024200  0.25000000  0.17315100  1
  Se  Se2  1  0.95975800  0.75000000  0.67315100  1
  Se  Se3  1  0.45975800  0.75000000  0.82684900  1
  S  S0  1  0.79234200  0.08447300  0.32193300  1
  S  S1  1  0.29234200  0.41552700  0.17806700  1
  S  S2  1  0.20765800  0.58447300  0.67806700  1
  S  S3  1  0.70765800  0.91552700  0.82193300  1
  S  S4  1  0.20765800  0.91552700  0.67806700  1
  S  S5  1  0.70765800  0.58447300  0.82193300  1
  S  S6  1  0.79234200  0.41552700  0.32193300  1
  S  S7  1  0.29234200  0.08447300  0.17806700  1
  S  S8  1  0.81400900  0.01049100  0.41015900  1
  S  S9  1  0.31400900  0.48950900  0.08984100  1
  S  S10  1  0.18599100  0.51049100  0.58984100  1
  S  S11  1  0.68599100  0.98950900  0.91015900  1
  S  S12  1  0.18599100  0.98950900  0.58984100  1
  S  S13  1  0.68599100  0.51049100  0.91015900  1
  S  S14  1  0.81400900  0.48950900  0.41015900  1
  S  S15  1  0.31400900  0.01049100  0.08984100  1
  O  O0  1  0.08284400  0.99499100  0.42341700  1
  O  O1  1  0.58284400  0.50500900  0.07658300  1
  O  O2  1  0.91715600  0.49499100  0.57658300  1
  O  O3  1  0.41715600  0.00500900  0.92341700  1
  O  O4  1  0.91715600  0.00500900  0.57658300  1
  O  O5  1  0.41715600  0.49499100  0.92341700  1
  O  O6  1  0.08284400  0.50500900  0.42341700  1
  O  O7  1  0.58284400  0.99499100  0.07658300  1
  O  O8  1  0.67861400  0.89079400  0.40177200  1
  O  O9  1  0.17861400  0.60920600  0.09822800  1
  O  O10  1  0.32138600  0.39079400  0.59822800  1
  O  O11  1  0.82138600  0.10920600  0.90177200  1
  O  O12  1  0.32138600  0.10920600  0.59822800  1
  O  O13  1  0.82138600  0.39079400  0.90177200  1
  O  O14  1  0.67861400  0.60920600  0.40177200  1
  O  O15  1  0.17861400  0.89079400  0.09822800  1
  O  O16  1  0.68243600  0.10099300  0.44676100  1
  O  O17  1  0.18243600  0.39900700  0.05323900  1
  O  O18  1  0.31756400  0.60099300  0.55323900  1
  O  O19  1  0.81756400  0.89900700  0.94676100  1
  O  O20  1  0.31756400  0.89900700  0.55323900  1
  O  O21  1  0.81756400  0.60099300  0.94676100  1
  O  O22  1  0.68243600  0.39900700  0.44676100  1
  O  O23  1  0.18243600  0.10099300  0.05323900  1
  O  O24  1  0.22514700  0.25000000  0.49700400  1
  O  O25  1  0.72514700  0.25000000  0.00299600  1
  O  O26  1  0.77485300  0.75000000  0.50299600  1
  O  O27  1  0.27485300  0.75000000  0.99700400  1
  O  O28  1  0.82849000  0.25000000  0.66489200  1
  O  O29  1  0.32849000  0.25000000  0.83510800  1
  O  O30  1  0.17151000  0.75000000  0.33510800  1
  O  O31  1  0.67151000  0.75000000  0.16489200  1
loop_
_geom_bond_atom_site_label_1
_geom_bond_atom_site_label_2
_geom_bond_distance
_geom_bond_site_symmetry_2
Ba0 O16 2.745348 1_555
Ba0 O22 2.745348 1_555
Ba0 O24 2.815502 1_555
Ba0 O28 2.867957 1_555
Ba0 O12 2.868421 1_555
Ba0 O10 2.868421 1_555
Ba0 O24 2.883627 1_655
Ba0 O2 2.908460 1_555
Ba0 O4 2.908460 1_555
Ba1 O23 2.745348 1_556
Ba1 O17 2.745348 1_556
Ba1 O25 2.815502 1_456
Ba1 O29 2.867957 1_555
Ba1 O13 2.868421 1_455
Ba1 O11 2.868421 1_455
Ba1 O25 2.883627 1_556
Ba1 O5 2.908460 1_555
Ba1 O3 2.908460 1_555
Ba2 O18 2.745348 1_555
Ba2 O20 2.745348 1_555
Ba2 O26 2.815502 1_555
Ba2 O30 2.867957 1_555
Ba2 O8 2.868421 1_555
Ba2 O14 2.868421 1_555
Ba2 O26 2.883627 1_455
Ba2 O0 2.908460 1_555
Ba2 O6 2.908460 1_555
Ba3 O19 2.745348 1_554
Ba3 O21 2.745348 1_554
Ba3 O27 2.815502 1_654
Ba3 O31 2.867957 1_555
Ba3 O15 2.868421 1_655
Ba3 O9 2.868421 1_655
Ba3 O27 2.883627 1_554
Ba3 O7 2.908460 1_555
Ba3 O1 2.908460 1_555
S0 S8 2.189044 1_555
S0 Se0 2.194391 1_655
S1 S9 2.189044 1_555
S1 Se1 2.194391 1_555
S2 Se2 2.194391 1_455
S3 Se3 2.194391 1_555
S4 Se2 2.194391 1_455
S5 Se3 2.194391 1_555
S6 Se0 2.194391 1_655
S7 Se1 2.194391 1_555
S10 S2 2.189044 1_555
S11 S3 2.189044 1_555
S12 S4 2.189044 1_555
S13 S5 2.189044 1_555
S14 S6 2.189044 1_555
S15 S7 2.189044 1_555
O0 S8 1.461203 1_465
O1 S9 1.461203 1_555
O2 S10 1.461203 1_655
O3 S11 1.461203 1_545
O4 S12 1.461203 1_645
O5 S13 1.461203 1_555
O6 S14 1.461203 1_455
O7 S15 1.461203 1_565
O8 S8 1.471119 1_565
O9 S9 1.471119 1_555
O10 S10 1.471119 1_555
O11 S11 1.471119 1_545
O12 S12 1.471119 1_545
O13 S13 1.471119 1_555
O14 S14 1.471119 1_555
O15 S15 1.471119 1_565
O16 S8 1.456834 1_555
O17 S9 1.456834 1_555
O18 S10 1.456834 1_555
O19 S11 1.456834 1_555
O20 S12 1.456834 1_555
O21 S13 1.456834 1_555
O22 S14 1.456834 1_555
O23 S15 1.456834 1_555
