# generated using pymatgen
data_CaBeGe
_symmetry_space_group_name_H-M   'P 1'
_cell_length_a   3.96708355
_cell_length_b   3.96708355
_cell_length_c   4.32734500
_cell_angle_alpha   90.00000000
_cell_angle_beta   90.00000000
_cell_angle_gamma   119.99999245
_symmetry_Int_Tables_number   1
_chemical_formula_structural   CaBeGe
_chemical_formula_sum   'Ca1 Be1 Ge1'
_cell_volume   58.97865705
_cell_formula_units_Z   1
loop_
 _symmetry_equiv_pos_site_id
 _symmetry_equiv_pos_as_xyz
  1  'x, y, z'
loop_
 _atom_site_type_symbol
 _atom_site_label
 _atom_site_symmetry_multiplicity
 _atom_site_fract_x
 _atom_site_fract_y
 _atom_site_fract_z
 _atom_site_occupancy
  Ca  Ca0  1  0.33333300  0.66666700  0.00000000  1
  Be  Be0  1  0.00000000  0.00000000  0.50000000  1
  Ge  Ge0  1  0.66666700  0.33333300  0.50000000  1
loop_
_geom_bond_atom_site_label_1
_geom_bond_atom_site_label_2
_geom_bond_distance
_geom_bond_site_symmetry_2
Ca0 Ge0 3.150776 1_565
Ca0 Ge0 3.150776 1_564
Ca0 Ge0 3.150776 1_455
Ca0 Ge0 3.150776 1_454
Ca0 Ge0 3.150780 1_555
Ca0 Ge0 3.150780 1_554
Be0 Ge0 2.290394 1_455
Be0 Ge0 2.290398 1_555
Be0 Ge0 2.290398 1_445
Be0 Ca0 3.150775 1_546
Be0 Ca0 3.150775 1_545
Be0 Ca0 3.150778 1_556
Be0 Ca0 3.150778 1_446
Be0 Ca0 3.150778 1_445
Be0 Ca0 3.150778 1_555
