# generated using pymatgen
data_NdTaO4
_symmetry_space_group_name_H-M   'P 1'
_cell_length_a   5.48792689
_cell_length_b   7.61628518
_cell_length_c   7.71926332
_cell_angle_alpha   80.09854592
_cell_angle_beta   90.00000000
_cell_angle_gamma   90.00000000
_symmetry_Int_Tables_number   1
_chemical_formula_structural   NdTaO4
_chemical_formula_sum   'Nd4 Ta4 O16'
_cell_volume   317.84096972
_cell_formula_units_Z   4
loop_
 _symmetry_equiv_pos_site_id
 _symmetry_equiv_pos_as_xyz
  1  'x, y, z'
loop_
 _atom_site_type_symbol
 _atom_site_label
 _atom_site_symmetry_multiplicity
 _atom_site_fract_x
 _atom_site_fract_y
 _atom_site_fract_z
 _atom_site_occupancy
  Nd  Nd0  1  0.22318009  0.34895164  0.89858361  1
  Nd  Nd1  1  0.72318009  0.65104836  0.60141639  1
  Nd  Nd2  1  0.77681991  0.65104836  0.10141639  1
  Nd  Nd3  1  0.27681991  0.34895164  0.39858361  1
  Ta  Ta0  1  0.73133804  0.16522224  0.69362612  1
  Ta  Ta1  1  0.23133804  0.83477776  0.80637388  1
  Ta  Ta2  1  0.26866196  0.83477776  0.30637388  1
  Ta  Ta3  1  0.76866196  0.16522224  0.19362612  1
  O  O0  1  0.50926038  0.33158630  0.12951555  1
  O  O1  1  0.00926038  0.66841370  0.37048445  1
  O  O2  1  0.49073962  0.66841370  0.87048445  1
  O  O3  1  0.99073962  0.33158630  0.62951555  1
  O  O4  1  0.98627640  0.38360009  0.16963768  1
  O  O5  1  0.48627640  0.61639991  0.33036232  1
  O  O6  1  0.01372360  0.61639991  0.83036232  1
  O  O7  1  0.51372360  0.38360009  0.66963768  1
  O  O8  1  0.85119239  0.16656869  0.94359626  1
  O  O9  1  0.35119239  0.83343131  0.55640374  1
  O  O10  1  0.14880761  0.83343131  0.05640374  1
  O  O11  1  0.64880761  0.16656869  0.44359626  1
  O  O12  1  0.40837037  0.05922063  0.79936093  1
  O  O13  1  0.90837037  0.94077937  0.70063907  1
  O  O14  1  0.59162963  0.94077937  0.20063907  1
  O  O15  1  0.09162963  0.05922063  0.29936093  1
loop_
_geom_bond_atom_site_label_1
_geom_bond_atom_site_label_2
_geom_bond_distance
_geom_bond_site_symmetry_2
Nd0 O6 2.319254 1_555
Nd0 O7 2.361133 1_555
Nd0 O0 2.361995 1_556
Nd0 O8 2.460034 1_455
Nd0 O3 2.460309 1_455
Nd0 O4 2.515491 1_456
Nd0 O12 2.658984 1_555
Nd0 O2 2.818091 1_555
Nd1 O7 2.319254 1_555
Nd1 O6 2.361133 1_655
Nd1 O1 2.361995 1_655
Nd1 O9 2.460034 1_555
Nd1 O2 2.460309 1_555
Nd1 O5 2.515491 1_555
Nd1 O13 2.658984 1_555
Nd1 O3 2.818091 1_555
Nd2 O4 2.319254 1_555
Nd2 O5 2.361133 1_555
Nd2 O2 2.361995 1_554
Nd2 O10 2.460034 1_655
Nd2 O1 2.460309 1_655
Nd2 O6 2.515491 1_654
Nd2 O14 2.658984 1_555
Nd2 O0 2.818091 1_555
Nd3 O5 2.319254 1_555
Nd3 O4 2.361133 1_455
Nd3 O3 2.361995 1_455
Nd3 O11 2.460034 1_555
Nd3 O0 2.460309 1_555
Nd3 O7 2.515491 1_555
Nd3 O15 2.658984 1_555
Nd3 O1 2.818091 1_555
O0 Ta3 1.913456 1_555
O1 Ta2 1.913456 1_555
O2 Ta1 1.913456 1_555
O3 Ta0 1.913456 1_555
O4 Ta3 2.030009 1_555
O5 Ta2 2.030009 1_555
O6 Ta1 2.030009 1_555
O7 Ta0 2.030009 1_555
O8 Ta3 1.980786 1_556
O8 Ta0 2.040306 1_555
O9 Ta2 1.980786 1_555
O9 Ta1 2.040306 1_555
O10 Ta1 1.980786 1_554
O10 Ta2 2.040306 1_555
O11 Ta0 1.980786 1_555
O11 Ta3 2.040306 1_555
O12 Ta1 1.958856 1_545
O12 Ta0 2.057386 1_555
O13 Ta0 1.958856 1_565
O13 Ta1 2.057386 1_655
O14 Ta3 1.958856 1_565
O14 Ta2 2.057386 1_555
O15 Ta2 1.958856 1_545
O15 Ta3 2.057386 1_455
