# generated using pymatgen
data_Li7Mn5O12
_symmetry_space_group_name_H-M   'P 1'
_cell_length_a   2.88431500
_cell_length_b   13.50491257
_cell_length_c   11.79731485
_cell_angle_alpha   78.47652113
_cell_angle_beta   97.02177157
_cell_angle_gamma   83.87253429
_symmetry_Int_Tables_number   1
_chemical_formula_structural   Li7Mn5O12
_chemical_formula_sum   'Li14 Mn10 O24'
_cell_volume   442.81075352
_cell_formula_units_Z   2
loop_
 _symmetry_equiv_pos_site_id
 _symmetry_equiv_pos_as_xyz
  1  'x, y, z'
loop_
 _atom_site_type_symbol
 _atom_site_label
 _atom_site_symmetry_multiplicity
 _atom_site_fract_x
 _atom_site_fract_y
 _atom_site_fract_z
 _atom_site_occupancy
  Li  Li0  1  0.66674500  0.33329600  0.66667400  1
  Li  Li1  1  0.66671800  0.83333500  0.16664200  1
  Li  Li2  1  0.58303600  0.53794700  0.70406300  1
  Li  Li3  1  0.58304300  0.03792100  0.20400300  1
  Li  Li4  1  0.75034000  0.62869100  0.12933200  1
  Li  Li5  1  0.75034700  0.12870600  0.62933700  1
  Li  Li6  1  0.91425800  0.21140600  0.03987800  1
  Li  Li7  1  0.91425900  0.71138600  0.53985700  1
  Li  Li8  1  0.41906900  0.45520700  0.29348200  1
  Li  Li9  1  0.41906700  0.95522000  0.79347800  1
  Li  Li10  1  0.24458700  0.37700700  0.86632000  1
  Li  Li11  1  0.24458700  0.87696400  0.36626600  1
  Li  Li12  1  0.08870600  0.78970000  0.96703700  1
  Li  Li13  1  0.08872300  0.28966700  0.46703700  1
  Mn  Mn0  1  0.16661000  0.58347700  0.91668900  1
  Mn  Mn1  1  0.00393000  0.99723800  0.00521000  1
  Mn  Mn2  1  0.32938100  0.16937900  0.82812900  1
  Mn  Mn3  1  0.50001200  0.25088100  0.25077900  1
  Mn  Mn4  1  0.83322000  0.91584400  0.58238500  1
  Mn  Mn5  1  0.16685300  0.08337900  0.41673500  1
  Mn  Mn6  1  0.00397500  0.49722800  0.50527800  1
  Mn  Mn7  1  0.32939500  0.66933500  0.32809100  1
  Mn  Mn8  1  0.49992900  0.75101300  0.75068800  1
  Mn  Mn9  1  0.83324400  0.41580100  0.08245100  1
  O  O0  1  0.45454100  0.09812000  0.00729400  1
  O  O1  1  0.45455700  0.59809000  0.50732800  1
  O  O2  1  0.87872800  0.56846300  0.32603500  1
  O  O3  1  0.87870800  0.06849100  0.82603900  1
  O  O4  1  0.63452100  0.67548200  0.94448900  1
  O  O5  1  0.63467200  0.17539600  0.44449300  1
  O  O6  1  0.69870400  0.49141100  0.88892800  1
  O  O7  1  0.69883000  0.99135100  0.38889800  1
  O  O8  1  0.79848100  0.25791400  0.85483400  1
  O  O9  1  0.79848500  0.75788100  0.35479900  1
  O  O10  1  0.53481500  0.90869100  0.97848400  1
  O  O11  1  0.53484100  0.40867100  0.47856000  1
  O  O12  1  0.10723100  0.44847100  0.66303100  1
  O  O13  1  0.10719100  0.94850000  0.16293600  1
  O  O14  1  0.22618900  0.71810500  0.17032900  1
  O  O15  1  0.22622300  0.21810200  0.67037600  1
  O  O16  1  0.30122300  0.50660300  0.10910900  1
  O  O17  1  0.30122400  0.00664000  0.60908900  1
  O  O18  1  0.03208600  0.66013400  0.72423200  1
  O  O19  1  0.03212100  0.16004000  0.22424300  1
  O  O20  1  0.96734100  0.34276800  0.27733100  1
  O  O21  1  0.96730300  0.84286700  0.77730400  1
  O  O22  1  0.36597700  0.32387000  0.05600900  1
  O  O23  1  0.36597100  0.82392000  0.55598700  1
loop_
_geom_bond_atom_site_label_1
_geom_bond_atom_site_label_2
_geom_bond_distance
_geom_bond_site_symmetry_2
Li0 O12 2.108054 1_655
Li0 O15 2.108293 1_555
Li0 O15 2.108511 1_655
Li0 O12 2.108568 1_555
Li0 O11 2.216817 1_555
Li0 O8 2.217322 1_555
Li1 O13 2.107881 1_655
Li1 O13 2.108342 1_555
Li1 O14 2.108704 1_555
Li1 O14 2.108853 1_655
Li1 O10 2.217217 1_554
Li1 O9 2.217525 1_555
Li2 O12 2.000764 1_655
Li2 O12 2.000794 1_555
Li2 O6 2.119521 1_555
Li2 O18 2.234799 1_555
Li2 O18 2.234918 1_655
Li2 O1 2.270704 1_555
Li3 O13 2.000430 1_645
Li3 O13 2.000468 1_545
Li3 O7 2.119892 1_545
Li3 O19 2.234370 1_655
Li3 O19 2.234405 1_555
Li3 O0 2.270522 1_555
Li4 O14 2.000007 1_555
Li4 O14 2.000163 1_655
Li4 O4 2.119533 1_554
Li4 O16 2.233978 1_655
Li4 O16 2.234062 1_555
Li4 O2 2.270509 1_555
Li5 O15 2.000037 1_555
Li5 O15 2.000181 1_655
Li5 O5 2.119441 1_555
Li5 O17 2.233864 1_655
Li5 O17 2.233883 1_555
Li5 O3 2.270474 1_555
Li6 O19 2.119791 1_655
Li6 O8 2.121501 1_554
Li6 O22 2.125530 1_655
Li6 O22 2.126075 1_555
Li6 O0 2.188451 1_655
Li6 O0 2.188614 1_555
Li7 O18 2.119740 1_655
Li7 O9 2.121645 1_555
Li7 O23 2.126269 1_655
Li7 O23 2.126702 1_555
Li7 O1 2.188308 1_655
Li7 O1 2.188537 1_555
Li8 O16 2.119922 1_555
Li8 O11 2.121910 1_555
Li8 O20 2.125315 1_455
Li8 O20 2.125913 1_555
Li8 O2 2.188092 1_555
Li8 O2 2.188148 1_455
Li9 O17 2.120134 1_565
Li9 O10 2.121095 1_555
Li9 O21 2.124502 1_455
Li9 O21 2.125173 1_555
Li9 O3 2.188242 1_565
Li9 O3 2.188353 1_465
Li10 O6 2.164504 1_555
Li10 O6 2.164544 1_455
Li10 O8 2.178757 1_455
Li10 O8 2.179203 1_555
Li10 O22 2.181417 1_556
Li10 O12 2.366722 1_555
Li11 O7 2.164250 1_455
Li11 O7 2.164616 1_555
Li11 O9 2.178609 1_455
Li11 O9 2.179053 1_555
Li11 O23 2.181638 1_555
Li11 O13 2.367345 1_555
Li12 O4 2.162483 1_455
Li12 O4 2.162503 1_555
Li12 O10 2.177579 1_555
Li12 O10 2.178134 1_455
Li12 O21 2.181948 1_455
Li12 O14 2.367087 1_556
Li13 O5 2.162790 1_455
Li13 O5 2.163216 1_555
Li13 O11 2.177862 1_555
Li13 O11 2.178503 1_455
Li13 O20 2.181553 1_455
Li13 O15 2.367516 1_555
Mn0 O4 1.971149 1_555
Mn0 O4 1.971178 1_455
Mn0 O6 1.971489 1_555
Mn0 O6 1.971649 1_455
Mn0 O18 2.266514 1_555
Mn0 O16 2.266827 1_556
Mn1 O13 1.821434 1_555
Mn1 O10 1.936974 1_554
Mn1 O10 1.936999 1_454
Mn1 O0 1.982312 1_565
Mn1 O0 1.982363 1_465
Mn1 O3 2.109688 1_464
Mn2 O15 1.821702 1_555
Mn2 O8 1.936799 1_555
Mn2 O8 1.936819 1_455
Mn2 O3 1.982300 1_555
Mn2 O3 1.982509 1_455
Mn2 O0 2.109645 1_556
Mn3 O19 1.956405 1_655
Mn3 O19 1.956504 1_555
Mn3 O20 1.965725 1_555
Mn3 O20 1.965826 1_455
Mn3 O5 2.276038 1_555
Mn3 O22 2.279766 1_555
Mn4 O17 1.956571 1_565
Mn4 O17 1.956698 1_665
Mn4 O23 1.965558 1_555
Mn4 O23 1.965594 1_655
Mn4 O7 2.273713 1_555
Mn4 O21 2.281315 1_555
Mn5 O5 1.970971 1_555
Mn5 O5 1.971274 1_455
Mn5 O7 1.971291 1_545
Mn5 O7 1.971705 1_445
Mn5 O17 2.265698 1_555
Mn5 O19 2.266895 1_555
Mn6 O12 1.821766 1_555
Mn6 O11 1.936973 1_555
Mn6 O11 1.937118 1_455
Mn6 O1 1.982018 1_555
Mn6 O1 1.982162 1_455
Mn6 O2 2.110387 1_455
Mn7 O14 1.821889 1_555
Mn7 O9 1.936893 1_555
Mn7 O9 1.936938 1_455
Mn7 O2 1.982083 1_555
Mn7 O2 1.982304 1_455
Mn7 O1 2.110356 1_555
Mn8 O18 1.956442 1_655
Mn8 O18 1.956588 1_555
Mn8 O21 1.965645 1_555
Mn8 O21 1.965761 1_455
Mn8 O4 2.277097 1_555
Mn8 O23 2.278797 1_555
Mn9 O16 1.956464 1_555
Mn9 O16 1.956595 1_655
Mn9 O22 1.965770 1_555
Mn9 O22 1.965808 1_655
Mn9 O6 2.274412 1_554
Mn9 O20 2.281061 1_555
