# generated using pymatgen
data_NiP8W
_symmetry_space_group_name_H-M   'P 1'
_cell_length_a   6.22585738
_cell_length_b   6.22585738
_cell_length_c   8.74726157
_cell_angle_alpha   90.00000000
_cell_angle_beta   90.00000000
_cell_angle_gamma   119.99998828
_symmetry_Int_Tables_number   1
_chemical_formula_structural   NiP8W
_chemical_formula_sum   'Ni2 P16 W2'
_cell_volume   293.63047763
_cell_formula_units_Z   2
loop_
 _symmetry_equiv_pos_site_id
 _symmetry_equiv_pos_as_xyz
  1  'x, y, z'
loop_
 _atom_site_type_symbol
 _atom_site_label
 _atom_site_symmetry_multiplicity
 _atom_site_fract_x
 _atom_site_fract_y
 _atom_site_fract_z
 _atom_site_occupancy
  Ni  Ni0  1  0.00000000  0.00000000  0.50000000  1
  Ni  Ni1  1  0.00000000  0.00000000  -0.00000000  1
  P  P0  1  0.66666700  0.33333300  0.53745595  1
  P  P1  1  0.33333300  0.66666700  0.46254405  1
  P  P2  1  0.66666700  0.33333300  0.96254405  1
  P  P3  1  0.33333300  0.66666700  0.03745595  1
  P  P4  1  0.72511456  0.04571333  0.65332356  1
  P  P5  1  0.27488544  0.95428667  0.34667644  1
  P  P6  1  0.95428667  0.67940122  0.65332356  1
  P  P7  1  0.72511456  0.67940122  0.84667644  1
  P  P8  1  0.04571333  0.32059878  0.34667644  1
  P  P9  1  0.27488544  0.32059878  0.15332356  1
  P  P10  1  0.32059878  0.27488544  0.65332356  1
  P  P11  1  0.95428667  0.27488544  0.84667644  1
  P  P12  1  0.67940122  0.72511456  0.34667644  1
  P  P13  1  0.04571333  0.72511456  0.15332356  1
  P  P14  1  0.32059878  0.04571333  0.84667644  1
  P  P15  1  0.67940122  0.95428667  0.15332356  1
  W  W0  1  0.33333300  0.66666700  0.75000000  1
  W  W1  1  0.66666700  0.33333300  0.25000000  1
loop_
_geom_bond_atom_site_label_1
_geom_bond_atom_site_label_2
_geom_bond_distance
_geom_bond_site_symmetry_2
Ni0 P5 2.301232 1_545
Ni0 P4 2.301232 1_455
Ni0 P8 2.301232 1_555
Ni0 P6 2.301232 1_445
Ni0 P12 2.301232 1_445
Ni0 P10 2.301232 1_555
Ni1 P11 2.301232 1_454
Ni1 P13 2.301232 1_545
Ni1 P15 2.301232 1_445
Ni1 P14 2.301232 1_554
Ni1 P9 2.301232 1_555
Ni1 P7 2.301232 1_444
P0 P4 2.240040 1_555
P0 P6 2.240044 1_555
P0 P10 2.240046 1_555
P0 W1 2.514452 1_555
P1 P5 2.240040 1_555
P1 P8 2.240044 1_555
P1 P12 2.240046 1_555
P1 W0 2.514452 1_555
P2 P7 2.240046 1_555
P2 W1 2.514452 1_556
P3 P9 2.240046 1_555
P3 W0 2.514452 1_554
P4 W0 2.545114 1_545
P5 W1 2.545114 1_565
P6 P7 2.212750 1_555
P6 W0 2.545110 1_655
P7 W0 2.545116 1_555
P8 P9 2.212750 1_555
P8 W1 2.545110 1_455
P9 W1 2.545116 1_555
P10 P14 2.212750 1_555
P10 W0 2.545116 1_555
P11 P4 2.212750 1_555
P11 P2 2.240040 1_555
P11 W0 2.545114 1_655
P12 P15 2.212750 1_555
P12 W1 2.545116 1_555
P13 P5 2.212750 1_555
P13 P3 2.240040 1_555
P13 W1 2.545114 1_455
P14 P2 2.240044 1_555
P14 W0 2.545110 1_545
P15 P3 2.240044 1_555
P15 W1 2.545110 1_565
