# generated using pymatgen
data_La7(IO6)3
_symmetry_space_group_name_H-M   'P 1'
_cell_length_a   16.40249444
_cell_length_b   16.40249444
_cell_length_c   4.25098300
_cell_angle_alpha   90.00000000
_cell_angle_beta   90.00000000
_cell_angle_gamma   120.00000178
_symmetry_Int_Tables_number   1
_chemical_formula_structural   La7(IO6)3
_chemical_formula_sum   'La14 I6 O36'
_cell_volume   990.46649865
_cell_formula_units_Z   2
loop_
 _symmetry_equiv_pos_site_id
 _symmetry_equiv_pos_as_xyz
  1  'x, y, z'
loop_
 _atom_site_type_symbol
 _atom_site_label
 _atom_site_symmetry_multiplicity
 _atom_site_fract_x
 _atom_site_fract_y
 _atom_site_fract_z
 _atom_site_occupancy
  La  La0  1  0.14915400  0.91404400  0.75000000  1
  La  La1  1  0.08595600  0.23511000  0.75000000  1
  La  La2  1  0.76489000  0.85084600  0.75000000  1
  La  La3  1  0.85084600  0.08595600  0.25000000  1
  La  La4  1  0.91404400  0.76489000  0.25000000  1
  La  La5  1  0.23511000  0.14915400  0.25000000  1
  La  La6  1  0.45637200  0.31539300  0.75000000  1
  La  La7  1  0.68460700  0.14097900  0.75000000  1
  La  La8  1  0.85902100  0.54362800  0.75000000  1
  La  La9  1  0.54362800  0.68460700  0.25000000  1
  La  La10  1  0.31539300  0.85902100  0.25000000  1
  La  La11  1  0.14097900  0.45637200  0.25000000  1
  La  La12  1  0.33333300  0.66666700  0.75000000  1
  La  La13  1  0.66666700  0.33333300  0.25000000  1
  I  I0  1  0.45164800  0.10606600  0.75000000  1
  I  I1  1  0.89393400  0.34558300  0.75000000  1
  I  I2  1  0.65441700  0.54835200  0.75000000  1
  I  I3  1  0.54835200  0.89393400  0.25000000  1
  I  I4  1  0.10606600  0.65441700  0.25000000  1
  I  I5  1  0.34558300  0.45164800  0.25000000  1
  O  O0  1  0.55682300  0.23754800  0.75000000  1
  O  O1  1  0.76245200  0.31927500  0.75000000  1
  O  O2  1  0.68072500  0.44317700  0.75000000  1
  O  O3  1  0.44317700  0.76245200  0.25000000  1
  O  O4  1  0.23754800  0.68072500  0.25000000  1
  O  O5  1  0.31927500  0.55682300  0.25000000  1
  O  O6  1  0.29441500  0.25977300  0.75000000  1
  O  O7  1  0.74022700  0.03464200  0.75000000  1
  O  O8  1  0.96535800  0.70558500  0.75000000  1
  O  O9  1  0.70558500  0.74022700  0.25000000  1
  O  O10  1  0.25977300  0.96535800  0.25000000  1
  O  O11  1  0.03464200  0.29441500  0.25000000  1
  O  O12  1  0.15059500  0.13186200  0.75000000  1
  O  O13  1  0.86813800  0.01873300  0.75000000  1
  O  O14  1  0.98126700  0.84940500  0.75000000  1
  O  O15  1  0.84940500  0.86813800  0.25000000  1
  O  O16  1  0.13186200  0.98126700  0.25000000  1
  O  O17  1  0.01873300  0.15059500  0.25000000  1
  O  O18  1  0.27203700  0.09204000  0.75000000  1
  O  O19  1  0.90796000  0.17999700  0.75000000  1
  O  O20  1  0.82000300  0.72796300  0.75000000  1
  O  O21  1  0.72796300  0.90796000  0.25000000  1
  O  O22  1  0.09204000  0.82000300  0.25000000  1
  O  O23  1  0.17999700  0.27203700  0.25000000  1
  O  O24  1  0.36719400  0.82789400  0.75000000  1
  O  O25  1  0.17210600  0.53929900  0.75000000  1
  O  O26  1  0.46070100  0.63280600  0.75000000  1
  O  O27  1  0.63280600  0.17210600  0.25000000  1
  O  O28  1  0.82789400  0.46070100  0.25000000  1
  O  O29  1  0.53929900  0.36719400  0.25000000  1
  O  O30  1  0.23255500  0.82560600  0.75000000  1
  O  O31  1  0.17439400  0.40694900  0.75000000  1
  O  O32  1  0.59305100  0.76744500  0.75000000  1
  O  O33  1  0.76744500  0.17439400  0.25000000  1
  O  O34  1  0.82560600  0.59305100  0.25000000  1
  O  O35  1  0.40694900  0.23255500  0.25000000  1
loop_
_geom_bond_atom_site_label_1
_geom_bond_atom_site_label_2
_geom_bond_distance
_geom_bond_site_symmetry_2
La0 O14 2.405760 1_455
La0 O30 2.441319 1_555
La0 O16 2.475214 1_555
La0 O16 2.475214 1_556
La0 O22 2.515874 1_555
La0 O22 2.515874 1_556
La0 O18 2.588796 1_565
La0 O10 2.644073 1_556
La0 O10 2.644073 1_555
La1 O12 2.405760 1_555
La1 O31 2.441319 1_555
La1 O17 2.475214 1_555
La1 O17 2.475214 1_556
La1 O23 2.515874 1_556
La1 O23 2.515874 1_555
La1 O19 2.588796 1_455
La1 O11 2.644073 1_556
La1 O11 2.644073 1_555
La2 O13 2.405760 1_565
La2 O32 2.441319 1_555
La2 O15 2.475214 1_556
La2 O15 2.475214 1_555
La2 O21 2.515874 1_555
La2 O21 2.515874 1_556
La2 O20 2.588796 1_555
La2 O9 2.644073 1_555
La2 O9 2.644073 1_556
La3 O17 2.405760 1_655
La3 O33 2.441319 1_555
La3 O13 2.475214 1_555
La3 O13 2.475214 1_554
La3 O19 2.515874 1_554
La3 O19 2.515874 1_555
La3 O21 2.588796 1_545
La3 O7 2.644073 1_554
La3 O7 2.644073 1_555
La4 O15 2.405760 1_555
La4 O34 2.441319 1_555
La4 O14 2.475214 1_554
La4 O14 2.475214 1_555
La4 O20 2.515874 1_555
La4 O20 2.515874 1_554
La4 O22 2.588796 1_655
La4 O8 2.644073 1_554
La4 O8 2.644073 1_555
La5 O16 2.405760 1_545
La5 O35 2.441319 1_555
La5 O12 2.475214 1_554
La5 O12 2.475214 1_555
La5 O18 2.515874 1_555
La5 O18 2.515874 1_554
La5 O23 2.588796 1_555
La5 O6 2.644073 1_555
La5 O6 2.644073 1_554
La6 O6 2.337894 1_555
La6 O35 2.433023 1_555
La6 O35 2.433023 1_556
La6 O29 2.435999 1_555
La6 O29 2.435999 1_556
La6 O0 2.539467 1_555
La7 O7 2.337894 1_555
La7 O33 2.433023 1_555
La7 O33 2.433023 1_556
La7 O27 2.436006 1_556
La7 O27 2.436006 1_555
La7 O1 2.539467 1_555
La8 O8 2.337894 1_555
La8 O34 2.433023 1_556
La8 O34 2.433023 1_555
La8 O28 2.435998 1_556
La8 O28 2.435998 1_555
La8 O2 2.539467 1_555
La9 O9 2.337894 1_555
La9 O32 2.433023 1_554
La9 O32 2.433023 1_555
La9 O26 2.435999 1_554
La9 O26 2.435999 1_555
La9 O3 2.539467 1_555
La10 O10 2.337894 1_555
La10 O30 2.433023 1_554
La10 O30 2.433023 1_555
La10 O24 2.436006 1_554
La10 O24 2.436006 1_555
La10 O4 2.539467 1_555
La11 O11 2.337894 1_555
La11 O31 2.433023 1_555
La11 O31 2.433023 1_554
La11 O25 2.435998 1_555
La11 O25 2.435998 1_554
La11 O5 2.539467 1_555
La12 O24 2.415203 1_555
La12 O25 2.415213 1_555
La12 O26 2.415235 1_555
La12 O4 2.720580 1_556
La12 O4 2.720580 1_555
La12 O3 2.720586 1_555
La12 O3 2.720586 1_556
La12 O5 2.720590 1_556
La12 O5 2.720590 1_555
La13 O27 2.415203 1_555
La13 O28 2.415213 1_555
La13 O29 2.415235 1_555
La13 O1 2.720580 1_555
La13 O1 2.720580 1_554
La13 O0 2.720586 1_554
La13 O0 2.720586 1_555
La13 O2 2.720590 1_555
La13 O2 2.720590 1_554
I0 O0 1.976530 1_555
I1 O1 1.976524 1_555
I2 O2 1.976540 1_555
I3 O3 1.976530 1_555
I4 O4 1.976524 1_555
I5 O5 1.976540 1_555
