# generated using pymatgen
data_Ti20Se19
_symmetry_space_group_name_H-M   'P 1'
_cell_length_a   17.15555349
_cell_length_b   9.27267583
_cell_length_c   7.34910686
_cell_angle_alpha   69.76634097
_cell_angle_beta   62.18492948
_cell_angle_gamma   42.23642367
_symmetry_Int_Tables_number   1
_chemical_formula_structural   Ti20Se19
_chemical_formula_sum   'Ti20 Se19'
_cell_volume   695.04765456
_cell_formula_units_Z   1
loop_
 _symmetry_equiv_pos_site_id
 _symmetry_equiv_pos_as_xyz
  1  'x, y, z'
loop_
 _atom_site_type_symbol
 _atom_site_label
 _atom_site_symmetry_multiplicity
 _atom_site_fract_x
 _atom_site_fract_y
 _atom_site_fract_z
 _atom_site_occupancy
  Ti  Ti0  1  0.17219500  0.19287000  0.00503000  1
  Ti  Ti1  1  0.02549000  0.30729300  0.50767100  1
  Ti  Ti2  1  0.37180800  0.19237300  0.00678200  1
  Ti  Ti3  1  0.22602100  0.30500500  0.50702300  1
  Ti  Ti4  1  0.17187400  0.69641800  0.49377800  1
  Ti  Ti5  1  0.02788700  0.80597000  0.99442900  1
  Ti  Ti6  1  0.57258500  0.18958900  0.00598900  1
  Ti  Ti7  1  0.42780600  0.30516600  0.50682700  1
  Ti  Ti8  1  0.37491700  0.69266000  0.49333600  1
  Ti  Ti9  1  0.22947300  0.80674600  0.99382100  1
  Ti  Ti10  1  0.77082300  0.19248000  0.00649900  1
  Ti  Ti11  1  0.62741700  0.30280800  0.50731300  1
  Ti  Ti12  1  0.57501100  0.69301400  0.49518200  1
  Ti  Ti13  1  0.43114100  0.80397800  0.99316200  1
  Ti  Ti14  1  0.96977800  0.20028400  0.00115800  1
  Ti  Ti15  1  0.82553400  0.31096400  0.50541300  1
  Ti  Ti16  1  0.77206200  0.69327500  0.49445700  1
  Ti  Ti17  1  0.62962200  0.80271400  0.99002600  1
  Ti  Ti18  1  0.97236200  0.69526200  0.49190200  1
  Ti  Ti19  1  0.83119800  0.80308400  0.99036900  1
  Se  Se0  1  0.05895400  0.08534500  0.28119100  1
  Se  Se1  1  0.26188600  0.07729700  0.28454500  1
  Se  Se2  1  0.02046600  0.42616700  0.78923300  1
  Se  Se3  1  0.17529100  0.57853900  0.21541700  1
  Se  Se4  1  0.22423700  0.42216900  0.78384500  1
  Se  Se5  1  0.46424100  0.07403800  0.28354800  1
  Se  Se6  1  0.37645400  0.57720600  0.21562400  1
  Se  Se7  1  0.13728800  0.92274400  0.71729600  1
  Se  Se8  1  0.66366400  0.07347200  0.28304500  1
  Se  Se9  1  0.42420500  0.42118600  0.78585400  1
  Se  Se10  1  0.57925800  0.57672200  0.21677600  1
  Se  Se11  1  0.33946500  0.92067400  0.71443200  1
  Se  Se12  1  0.62447500  0.42098100  0.78536200  1
  Se  Se13  1  0.86120400  0.08539700  0.28164800  1
  Se  Se14  1  0.53883200  0.92083400  0.71482900  1
  Se  Se15  1  0.82231000  0.42626000  0.79124500  1
  Se  Se16  1  0.97255500  0.57822400  0.21509600  1
  Se  Se17  1  0.73951400  0.91692400  0.71535500  1
  Se  Se18  1  0.93670000  0.92386700  0.71549300  1
loop_
_geom_bond_atom_site_label_1
_geom_bond_atom_site_label_2
_geom_bond_distance
_geom_bond_site_symmetry_2
Se0 Ti9 2.551343 1_544
Se0 Ti0 2.583828 1_555
Se0 Ti14 2.591991 1_455
Se0 Ti15 2.636091 1_455
Se0 Ti1 2.657742 1_555
Se0 Ti4 2.789601 1_545
Se1 Ti13 2.548389 1_544
Se1 Ti0 2.592501 1_555
Se1 Ti2 2.596579 1_555
Se1 Ti3 2.652451 1_555
Se1 Ti1 2.662691 1_555
Se1 Ti8 2.754211 1_545
Se2 Ti18 2.558178 1_455
Se2 Ti14 2.597229 1_456
Se2 Ti1 2.602829 1_555
Se2 Ti3 2.630382 1_555
Se2 Ti0 2.666797 1_556
Se2 Ti19 2.689495 1_455
Se3 Ti3 2.548621 1_555
Se3 Ti4 2.592875 1_555
Se3 Ti18 2.600027 1_455
Se3 Ti5 2.654564 1_554
Se3 Ti9 2.666489 1_554
Se3 Ti2 2.763467 1_555
Se4 Ti4 2.544194 1_555
Se4 Ti3 2.596435 1_555
Se4 Ti7 2.607729 1_555
Se4 Ti0 2.650677 1_556
Se4 Ti2 2.664994 1_556
Se4 Ti5 2.756927 1_555
Se5 Ti17 2.550524 1_544
Se5 Ti6 2.581195 1_555
Se5 Ti2 2.597197 1_555
Se5 Ti7 2.677339 1_555
Se5 Ti3 2.682285 1_555
Se5 Ti12 2.743826 1_545
Se6 Ti7 2.540471 1_555
Se6 Ti8 2.594521 1_555
Se6 Ti4 2.615576 1_555
Se6 Ti9 2.652239 1_554
Se6 Ti13 2.662073 1_554
Se6 Ti6 2.774579 1_555
Se7 Ti14 2.530025 1_466
Se7 Ti9 2.599316 1_555
Se7 Ti5 2.599917 1_555
Se7 Ti4 2.661914 1_555
Se7 Ti8 2.677334 1_555
Se7 Ti1 2.756370 1_565
Se8 Ti19 2.542375 1_544
Se8 Ti10 2.587228 1_555
Se8 Ti6 2.589972 1_555
Se8 Ti7 2.655963 1_555
Se8 Ti11 2.671174 1_555
Se8 Ti16 2.738744 1_545
Se9 Ti8 2.544513 1_555
Se9 Ti7 2.583690 1_555
Se9 Ti11 2.603215 1_555
Se9 Ti2 2.650487 1_556
Se9 Ti6 2.655990 1_556
Se9 Ti9 2.758108 1_555
Se10 Ti11 2.545697 1_555
Se10 Ti12 2.573913 1_555
Se10 Ti17 2.614711 1_554
Se10 Ti8 2.618651 1_555
Se10 Ti13 2.677843 1_554
Se10 Ti10 2.759255 1_555
Se11 Ti0 2.539762 1_566
Se11 Ti9 2.593877 1_555
Se11 Ti13 2.606496 1_555
Se11 Ti12 2.650767 1_555
Se11 Ti8 2.651460 1_555
Se11 Ti3 2.748166 1_565
Se12 Ti12 2.535579 1_555
Se12 Ti11 2.597975 1_555
Se12 Ti15 2.605693 1_555
Se12 Ti10 2.642530 1_556
Se12 Ti6 2.664588 1_556
Se12 Ti13 2.743707 1_555
Se13 Ti5 2.554372 1_644
Se13 Ti14 2.586421 1_555
Se13 Ti10 2.595462 1_555
Se13 Ti15 2.645439 1_555
Se13 Ti11 2.651982 1_555
Se13 Ti18 2.789142 1_545
Se14 Ti2 2.543590 1_566
Se14 Ti17 2.568533 1_555
Se14 Ti13 2.583772 1_555
Se14 Ti16 2.626674 1_555
Se14 Ti12 2.633581 1_555
Se14 Ti7 2.750074 1_565
Se15 Ti16 2.547456 1_555
Se15 Ti14 2.593749 1_556
Se15 Ti1 2.612874 1_655
Se15 Ti15 2.629831 1_555
Se15 Ti10 2.672297 1_556
Se15 Ti17 2.679670 1_555
Se16 Ti1 2.543017 1_655
Se16 Ti16 2.583617 1_555
Se16 Ti19 2.612373 1_554
Se16 Ti18 2.613721 1_555
Se16 Ti5 2.674627 1_654
Se16 Ti0 2.764273 1_655
Se17 Ti6 2.541891 1_566
Se17 Ti17 2.583925 1_555
Se17 Ti19 2.589518 1_555
Se17 Ti18 2.633144 1_555
Se17 Ti16 2.648781 1_555
Se17 Ti11 2.758581 1_565
Se18 Ti10 2.526872 1_566
Se18 Ti19 2.575961 1_555
Se18 Ti5 2.599005 1_655
Se18 Ti4 2.650048 1_655
Se18 Ti18 2.668076 1_555
Se18 Ti15 2.771802 1_565
