# generated using pymatgen
data_LiMg
_symmetry_space_group_name_H-M   'P 1'
_cell_length_a   10.77086551
_cell_length_b   10.77086551
_cell_length_c   10.77086509
_cell_angle_alpha   33.35979721
_cell_angle_beta   33.35979721
_cell_angle_gamma   33.35980053
_symmetry_Int_Tables_number   1
_chemical_formula_structural   LiMg
_chemical_formula_sum   'Li8 Mg8'
_cell_volume   336.44441167
_cell_formula_units_Z   8
loop_
 _symmetry_equiv_pos_site_id
 _symmetry_equiv_pos_as_xyz
  1  'x, y, z'
loop_
 _atom_site_type_symbol
 _atom_site_label
 _atom_site_symmetry_multiplicity
 _atom_site_fract_x
 _atom_site_fract_y
 _atom_site_fract_z
 _atom_site_occupancy
  Li  Li0_0  1  0.00000000  0.00000000  0.00000000  1
  Li  Li0_1  1  0.00000000  0.00000000  0.50000000  1
  Li  Li0_2  1  0.00000000  0.50000000  0.00000000  1
  Li  Li0_3  1  0.00000000  0.50000000  0.50000000  1
  Li  Li0_4  1  0.50000000  0.00000000  0.00000000  1
  Li  Li0_5  1  0.50000000  0.00000000  0.50000000  1
  Li  Li0_6  1  0.50000000  0.50000000  0.00000000  1
  Li  Li0_7  1  0.50000000  0.50000000  0.50000000  1
  Mg  Mg0_0  1  0.25000000  0.25000000  0.25000000  1
  Mg  Mg0_1  1  0.25000000  0.25000000  0.75000000  1
  Mg  Mg0_2  1  0.25000000  0.75000000  0.25000000  1
  Mg  Mg0_3  1  0.25000000  0.75000000  0.75000000  1
  Mg  Mg0_4  1  0.75000000  0.25000000  0.25000000  1
  Mg  Mg0_5  1  0.75000000  0.25000000  0.75000000  1
  Mg  Mg0_6  1  0.75000000  0.75000000  0.25000000  1
  Mg  Mg0_7  1  0.75000000  0.75000000  0.75000000  1
loop_
_geom_bond_atom_site_label_1
_geom_bond_atom_site_label_2
_geom_bond_distance
_geom_bond_site_symmetry_2
Li0_0 Li0_5 3.091502 1_455
Li0_0 Li0_5 3.091502 1_554
Li0_0 Li0_3 3.091502 1_554
Li0_0 Li0_3 3.091502 1_545
Li0_0 Li0_6 3.091502 1_455
Li0_0 Li0_6 3.091502 1_545
Li0_0 Mg0_2 3.104846 1_545
Li0_0 Mg0_4 3.104846 1_455
Li0_0 Mg0_5 3.104846 1_454
Li0_0 Mg0_3 3.104846 1_544
Li0_0 Mg0_1 3.104846 1_554
Li0_0 Mg0_6 3.104846 1_445
Li0_1 Li0_2 3.091502 1_555
Li0_1 Li0_4 3.091502 1_555
Li0_1 Li0_4 3.091502 1_456
Li0_1 Li0_2 3.091502 1_546
Li0_1 Li0_7 3.091502 1_545
Li0_1 Li0_7 3.091502 1_455
Li0_1 Mg0_3 3.104846 1_545
Li0_1 Mg0_5 3.104846 1_455
Li0_1 Mg0_4 3.104846 1_455
Li0_1 Mg0_2 3.104846 1_545
Li0_1 Mg0_0 3.104846 1_555
Li0_1 Mg0_7 3.104846 1_445
Li0_2 Li0_7 3.091502 1_554
Li0_2 Li0_7 3.091502 1_455
Li0_2 Li0_4 3.091502 1_465
Li0_2 Li0_4 3.091502 1_555
Li0_2 Mg0_1 3.104846 1_554
Li0_2 Mg0_6 3.104846 1_455
Li0_2 Mg0_0 3.104846 1_555
Li0_2 Mg0_7 3.104846 1_454
Li0_2 Mg0_3 3.104846 1_554
Li0_2 Mg0_4 3.104846 1_455
Li0_3 Li0_6 3.091502 1_456
Li0_3 Li0_6 3.091502 1_555
Li0_3 Li0_5 3.091502 1_555
Li0_3 Li0_5 3.091502 1_465
Li0_3 Mg0_7 3.104846 1_455
Li0_3 Mg0_0 3.104846 1_555
Li0_3 Mg0_1 3.104846 1_555
Li0_3 Mg0_6 3.104846 1_455
Li0_3 Mg0_2 3.104846 1_555
Li0_3 Mg0_5 3.104846 1_455
Li0_4 Li0_7 3.091502 1_545
Li0_4 Li0_7 3.091502 1_554
Li0_4 Mg0_6 3.104846 1_545
Li0_4 Mg0_1 3.104846 1_554
Li0_4 Mg0_0 3.104846 1_555
Li0_4 Mg0_7 3.104846 1_544
Li0_4 Mg0_5 3.104846 1_554
Li0_4 Mg0_2 3.104846 1_545
Li0_5 Li0_6 3.091502 1_546
Li0_5 Li0_6 3.091502 1_555
Li0_5 Mg0_7 3.104846 1_545
Li0_5 Mg0_0 3.104846 1_555
Li0_5 Mg0_1 3.104846 1_555
Li0_5 Mg0_6 3.104846 1_545
Li0_5 Mg0_4 3.104846 1_555
Li0_5 Mg0_3 3.104846 1_545
Li0_6 Mg0_4 3.104846 1_555
Li0_6 Mg0_2 3.104846 1_555
Li0_6 Mg0_3 3.104846 1_554
Li0_6 Mg0_5 3.104846 1_554
Li0_6 Mg0_7 3.104846 1_554
Li0_6 Mg0_0 3.104846 1_555
Li0_7 Mg0_5 3.104846 1_555
Li0_7 Mg0_3 3.104846 1_555
Li0_7 Mg0_4 3.104846 1_555
Li0_7 Mg0_2 3.104846 1_555
Li0_7 Mg0_6 3.104846 1_555
Li0_7 Mg0_1 3.104846 1_555
Mg0_0 Mg0_5 3.091502 1_455
Mg0_0 Mg0_3 3.091502 1_554
Mg0_0 Mg0_3 3.091502 1_545
Mg0_0 Mg0_5 3.091502 1_554
Mg0_0 Mg0_6 3.091502 1_455
Mg0_0 Mg0_6 3.091502 1_545
Mg0_1 Mg0_2 3.091502 1_555
Mg0_1 Mg0_4 3.091502 1_555
Mg0_1 Mg0_2 3.091502 1_546
Mg0_1 Mg0_4 3.091502 1_456
Mg0_1 Mg0_7 3.091502 1_455
Mg0_1 Mg0_7 3.091502 1_545
Mg0_2 Mg0_7 3.091502 1_455
Mg0_2 Mg0_7 3.091502 1_554
Mg0_2 Mg0_4 3.091502 1_555
Mg0_2 Mg0_4 3.091502 1_465
Mg0_3 Mg0_6 3.091502 1_555
Mg0_3 Mg0_6 3.091502 1_456
Mg0_3 Mg0_5 3.091502 1_465
Mg0_3 Mg0_5 3.091502 1_555
Mg0_4 Mg0_7 3.091502 1_545
Mg0_4 Mg0_7 3.091502 1_554
Mg0_5 Mg0_6 3.091502 1_555
Mg0_5 Mg0_6 3.091502 1_546
