# generated using pymatgen
data_ErRh2
_symmetry_space_group_name_H-M   'P 1'
_cell_length_a   5.27049863
_cell_length_b   5.27049855
_cell_length_c   5.27049800
_cell_angle_alpha   59.99999061
_cell_angle_beta   59.99999115
_cell_angle_gamma   59.99999733
_symmetry_Int_Tables_number   1
_chemical_formula_structural   ErRh2
_chemical_formula_sum   'Er2 Rh4'
_cell_volume   103.52374847
_cell_formula_units_Z   2
loop_
 _symmetry_equiv_pos_site_id
 _symmetry_equiv_pos_as_xyz
  1  'x, y, z'
loop_
 _atom_site_type_symbol
 _atom_site_label
 _atom_site_symmetry_multiplicity
 _atom_site_fract_x
 _atom_site_fract_y
 _atom_site_fract_z
 _atom_site_occupancy
  Er  Er0  1  0.12500000  0.12500000  0.12500000  1
  Er  Er1  1  0.87500000  0.87500000  0.87500000  1
  Rh  Rh0  1  0.50000000  -0.00000000  0.50000000  1
  Rh  Rh1  1  -0.00000000  0.50000000  0.50000000  1
  Rh  Rh2  1  0.50000000  0.50000000  0.50000000  1
  Rh  Rh3  1  0.50000000  0.50000000  -0.00000000  1
loop_
_geom_bond_atom_site_label_1
_geom_bond_atom_site_label_2
_geom_bond_distance
_geom_bond_site_symmetry_2
Er0 Rh2 3.090103 1_554
Er0 Rh1 3.090103 1_554
Er0 Rh0 3.090103 1_554
Er0 Rh1 3.090103 1_545
Er0 Rh2 3.090103 1_545
Er0 Rh0 3.090103 1_455
Er0 Rh2 3.090103 1_455
Er0 Rh1 3.090104 1_555
Er0 Rh3 3.090104 1_545
Er0 Rh0 3.090104 1_555
Er0 Rh3 3.090104 1_455
Er0 Rh3 3.090104 1_555
Er0 Er1 3.227507 1_445
Er0 Er1 3.227508 1_454
Er0 Er1 3.227508 1_544
Er0 Er1 3.227508 1_444
Er1 Rh2 3.090103 1_556
Er1 Rh1 3.090103 1_656
Er1 Rh0 3.090103 1_566
Er1 Rh1 3.090103 1_665
Er1 Rh2 3.090103 1_565
Er1 Rh0 3.090103 1_665
Er1 Rh2 3.090103 1_655
Er1 Rh1 3.090104 1_655
Er1 Rh3 3.090104 1_566
Er1 Rh0 3.090104 1_565
Er1 Rh3 3.090104 1_656
Er1 Rh3 3.090104 1_556
Rh0 Rh3 2.635249 1_546
Rh0 Rh3 2.635249 1_555
Rh0 Rh1 2.635249 1_555
Rh0 Rh1 2.635249 1_645
Rh0 Rh2 2.635249 1_545
Rh0 Rh2 2.635249 1_555
Rh1 Rh3 2.635249 1_555
Rh1 Rh3 2.635249 1_456
Rh1 Rh2 2.635249 1_555
Rh1 Rh2 2.635249 1_455
Rh2 Rh3 2.635249 1_555
Rh2 Rh3 2.635249 1_556
