# generated using pymatgen
data_Li14MgSi4
_symmetry_space_group_name_H-M   'P 1'
_cell_length_a   9.19656087
_cell_length_b   9.19654073
_cell_length_c   9.19655321
_cell_angle_alpha   109.45407489
_cell_angle_beta   109.45401566
_cell_angle_gamma   109.50630084
_symmetry_Int_Tables_number   1
_chemical_formula_structural   Li14MgSi4
_chemical_formula_sum   'Li28 Mg2 Si8'
_cell_volume   598.75498900
_cell_formula_units_Z   2
loop_
 _symmetry_equiv_pos_site_id
 _symmetry_equiv_pos_as_xyz
  1  'x, y, z'
loop_
 _atom_site_type_symbol
 _atom_site_label
 _atom_site_symmetry_multiplicity
 _atom_site_fract_x
 _atom_site_fract_y
 _atom_site_fract_z
 _atom_site_occupancy
  Li  Li0  1  0.06448149  0.53820320  0.27563680  1
  Li  Li1  1  0.26261161  0.78889139  0.72442500  1
  Li  Li2  1  0.18553249  0.96115347  0.97371300  1
  Li  Li3  1  0.98743780  0.21181847  0.02628819  1
  Li  Li4  1  0.03888975  0.01260811  0.22442411  1
  Li  Li5  1  0.78820577  0.81447942  0.77563931  1
  Li  Li6  1  0.46182651  0.73743511  0.52629303  1
  Li  Li7  1  0.21114713  0.93553463  0.47370893  1
  Li  Li8  1  0.71689189  0.34579068  0.06244286  1
  Li  Li9  1  0.96668473  0.40425705  0.87112637  1
  Li  Li10  1  0.28329864  0.65444822  0.93754346  1
  Li  Li11  1  0.53309701  0.09555293  0.12885299  1
  Li  Li12  1  0.69127830  0.85743738  0.08853957  1
  Li  Li13  1  0.48109661  0.89253214  0.33388434  1
  Li  Li14  1  0.55864185  0.14721589  0.66613942  1
  Li  Li15  1  0.76887431  0.60274098  0.91141034  1
  Li  Li16  1  0.85273728  0.51887047  0.41140761  1
  Li  Li17  1  0.39721530  0.30864334  0.16614051  1
  Li  Li18  1  0.14253241  0.23110131  0.83388337  1
  Li  Li19  1  0.10743579  0.44127874  0.58853692  1
  Li  Li20  1  0.90444686  0.03330002  0.43754361  1
  Li  Li21  1  0.34555541  0.28309861  0.62885551  1
  Li  Li22  1  0.59578912  0.46689172  0.56244181  1
  Li  Li23  1  0.65426256  0.71668499  0.37113279  1
  Li  Li24  1  0.99930468  0.87498450  0.62432650  1
  Li  Li25  1  0.25068405  0.37503513  0.37570245  1
  Li  Li26  1  0.12498228  0.74930557  0.12432165  1
  Li  Li27  1  0.62503681  0.00068496  0.87570269  1
  Mg  Mg0  1  0.49998808  0.49999045  -0.00001502  1
  Mg  Mg1  1  0.74998901  0.24998692  0.49998342  1
  Si  Si0  1  0.29119876  0.53702919  0.16328503  1
  Si  Si1  1  0.37374321  0.12792155  0.83672265  1
  Si  Si2  1  0.95881999  0.62209570  0.74582488  1
  Si  Si3  1  0.87625783  0.21297681  0.25415264  1
  Si  Si4  1  0.37792030  0.12374413  0.33672088  1
  Si  Si5  1  0.78702867  0.04119704  0.66328463  1
  Si  Si6  1  0.46297717  0.62625785  0.75415388  1
  Si  Si7  1  0.87209554  0.70881993  0.24582485  1
loop_
_geom_bond_atom_site_label_1
_geom_bond_atom_site_label_2
_geom_bond_distance
_geom_bond_site_symmetry_2
Li0 Si0 2.618709 1_555
Li0 Si7 2.735872 1_455
Li0 Li26 2.758454 1_555
Li0 Li25 2.759931 1_555
Li0 Si3 2.811094 1_455
Li1 Si1 2.618481 1_565
Li1 Si6 2.735791 1_555
Li1 Li27 2.758510 1_565
Li1 Li24 2.760273 1_455
Li1 Si2 2.811152 1_455
Li2 Si2 2.618597 1_455
Li2 Si4 2.735878 1_566
Li2 Li26 2.758804 1_556
Li2 Li24 2.759982 1_455
Li2 Si1 2.811072 1_565
Li3 Si3 2.618511 1_555
Li3 Si5 2.735838 1_554
Li3 Si0 2.811095 1_655
Li4 Si4 2.618487 1_555
Li4 Si3 2.735801 1_455
Li4 Si7 2.811123 1_445
Li5 Si5 2.618730 1_565
Li5 Si2 2.735837 1_555
Li5 Si6 2.811105 1_555
Li6 Si6 2.618473 1_555
Li6 Si0 2.735865 1_555
Li6 Si5 2.811066 1_565
Li7 Si7 2.618562 1_455
Li7 Si1 2.735917 1_565
Li7 Si4 2.811070 1_565
Li8 Si1 2.631724 1_554
Li8 Si7 2.737069 1_555
Li8 Si3 2.767141 1_555
Li8 Mg0 2.826402 1_555
Li9 Si2 2.631647 1_555
Li9 Si5 2.737299 1_555
Li9 Si0 2.767069 1_656
Li9 Mg1 2.826630 1_555
Li10 Si0 2.631827 1_556
Li10 Li26 2.710600 1_556
Li10 Si6 2.737403 1_555
Li10 Si2 2.766771 1_455
Li10 Mg0 2.826705 1_556
Li11 Si3 2.631828 1_555
Li11 Li27 2.710550 1_554
Li11 Si4 2.737232 1_555
Li11 Si1 2.766869 1_554
Li11 Mg1 2.826578 1_555
Li12 Si6 2.597765 1_554
Li12 Si3 2.673412 1_565
Li12 Li27 2.719778 1_564
Li12 Si7 2.821008 1_555
Li12 Mg0 2.822172 1_555
Li13 Si4 2.597951 1_565
Li13 Si0 2.673113 1_555
Li13 Li26 2.720109 1_555
Li13 Si5 2.820840 1_565
Li13 Mg1 2.822287 1_565
Li14 Si5 2.598113 1_555
Li14 Si1 2.672981 1_555
Li14 Li27 2.720062 1_555
Li14 Si4 2.820955 1_555
Li14 Mg1 2.822650 1_555
Li15 Si7 2.598016 1_556
Li15 Si2 2.673376 1_555
Li15 Li26 2.720078 1_656
Li15 Si6 2.820825 1_555
Li15 Mg0 2.822290 1_556
Li16 Si2 2.598029 1_555
Li16 Si7 2.673383 1_555
Li16 Li24 2.720122 1_555
Li16 Si3 2.820808 1_555
Li16 Mg1 2.822270 1_555
Li17 Si0 2.598089 1_555
Li17 Si4 2.672962 1_555
Li17 Li25 2.720051 1_555
Li17 Si1 2.820946 1_554
Li17 Mg0 2.822650 1_555
Li18 Si1 2.597960 1_555
Li18 Si5 2.673128 1_455
Li18 Li24 2.720110 1_445
Li18 Si0 2.820821 1_556
Li18 Mg0 2.822284 1_556
Li19 Si3 2.597756 1_455
Li19 Si6 2.673431 1_555
Li19 Li25 2.719768 1_555
Li19 Si2 2.821004 1_455
Li19 Mg1 2.822182 1_455
Li20 Si5 2.631821 1_555
Li20 Li24 2.710625 1_545
Li20 Si3 2.737397 1_555
Li20 Si7 2.766780 1_545
Li20 Mg1 2.826683 1_555
Li21 Si6 2.631811 1_555
Li21 Li25 2.710555 1_555
Li21 Si1 2.737227 1_555
Li21 Si4 2.766881 1_555
Li21 Mg0 2.826570 1_556
Li22 Si4 2.631713 1_555
Li22 Li25 2.710791 1_555
Li22 Si2 2.737089 1_555
Li22 Si6 2.767139 1_555
Li22 Mg1 2.826409 1_555
Li23 Si7 2.631644 1_555
Li23 Li24 2.710312 1_555
Li23 Si0 2.737338 1_555
Li23 Si5 2.767036 1_565
Li23 Mg0 2.826658 1_555
Li24 Li5 2.758419 1_555
Li24 Li7 2.758832 1_655
Li24 Si2 2.868072 1_555
Li24 Si1 2.868459 1_665
Li24 Si5 2.893094 1_565
Li24 Si7 2.893257 1_555
Li25 Li6 2.758362 1_555
Li25 Li4 2.758517 1_555
Li25 Li3 2.760157 1_455
Li25 Si3 2.868287 1_455
Li25 Si0 2.868306 1_555
Li25 Si6 2.892802 1_555
Li25 Si4 2.893437 1_555
Li26 Li9 2.710354 1_454
Li26 Li7 2.759999 1_555
Li26 Li4 2.760235 1_565
Li26 Si7 2.868089 1_455
Li26 Si4 2.868456 1_565
Li26 Si0 2.893130 1_555
Li26 Si2 2.893217 1_454
Li27 Li8 2.710793 1_556
Li27 Li3 2.758370 1_556
Li27 Li5 2.759949 1_545
Li27 Li6 2.760143 1_545
Li27 Si6 2.868288 1_545
Li27 Si5 2.868294 1_555
Li27 Si3 2.892791 1_556
Li27 Si1 2.893464 1_555
Mg0 Si1 2.841531 1_554
Mg0 Si0 2.841695 1_555
Mg0 Si6 2.841760 1_554
Mg0 Si7 2.841807 1_555
Mg1 Si4 2.841541 1_555
Mg1 Si5 2.841706 1_555
Mg1 Si3 2.841767 1_555
Mg1 Si2 2.841812 1_555
