# generated using pymatgen
data_KRbMg14O15
_symmetry_space_group_name_H-M   'P 1'
_cell_length_a   9.08699919
_cell_length_b   8.95814177
_cell_length_c   4.33151745
_cell_angle_alpha   90.00000000
_cell_angle_beta   90.00000000
_cell_angle_gamma   90.00000000
_symmetry_Int_Tables_number   1
_chemical_formula_structural   KRbMg14O15
_chemical_formula_sum   'K1 Rb1 Mg14 O15'
_cell_volume   352.59689936
_cell_formula_units_Z   1
loop_
 _symmetry_equiv_pos_site_id
 _symmetry_equiv_pos_as_xyz
  1  'x, y, z'
loop_
 _atom_site_type_symbol
 _atom_site_label
 _atom_site_symmetry_multiplicity
 _atom_site_fract_x
 _atom_site_fract_y
 _atom_site_fract_z
 _atom_site_occupancy
  K  K0  1  0.10301445  0.00000000  -0.00000000  1
  Rb  Rb0  1  0.95335379  0.50000000  -0.00000000  1
  Mg  Mg0  1  0.52139135  0.00000000  -0.00000000  1
  Mg  Mg1  1  0.48479242  0.50000000  -0.00000000  1
  Mg  Mg2  1  0.01093355  0.24931186  0.50000000  1
  Mg  Mg3  1  0.01093355  0.75068814  0.50000000  1
  Mg  Mg4  1  0.49033732  0.23631606  0.50000000  1
  Mg  Mg5  1  0.49033732  0.76368394  0.50000000  1
  Mg  Mg6  1  0.25924375  0.00000000  0.50000000  1
  Mg  Mg7  1  0.26038404  0.50000000  0.50000000  1
  Mg  Mg8  1  0.78476613  0.00000000  0.50000000  1
  Mg  Mg9  1  0.70530489  0.50000000  0.50000000  1
  Mg  Mg10  1  0.23725162  0.28446201  0.00000000  1
  Mg  Mg11  1  0.23725162  0.71553799  -0.00000000  1
  Mg  Mg12  1  0.76812196  0.23344514  0.00000000  1
  Mg  Mg13  1  0.76812196  0.76655486  -0.00000000  1
  O  O0  1  0.27202856  0.50000000  -0.00000000  1
  O  O1  1  0.73786277  0.00000000  -0.00000000  1
  O  O2  1  0.69119569  0.50000000  -0.00000000  1
  O  O3  1  0.24868903  0.22837602  0.50000000  1
  O  O4  1  0.24868903  0.77162398  0.50000000  1
  O  O5  1  0.74698161  0.25083824  0.50000000  1
  O  O6  1  0.74698161  0.74916176  0.50000000  1
  O  O7  1  0.00610425  0.00000000  0.50000000  1
  O  O8  1  0.05281444  0.50000000  0.50000000  1
  O  O9  1  0.48142358  0.00000000  0.50000000  1
  O  O10  1  0.48246751  0.50000000  0.50000000  1
  O  O11  1  0.00676391  0.23608343  -0.00000000  1
  O  O12  1  0.00676391  0.76391657  -0.00000000  1
  O  O13  1  0.46784720  0.22687614  0.00000000  1
  O  O14  1  0.46784720  0.77312386  -0.00000000  1
loop_
_geom_bond_atom_site_label_1
_geom_bond_atom_site_label_2
_geom_bond_distance
_geom_bond_site_symmetry_2
K0 O11 2.288590 1_555
K0 O12 2.288590 1_545
K0 O7 2.337949 1_555
K0 O7 2.337949 1_554
Mg0 O1 1.967076 1_555
Mg0 O14 2.089818 1_545
Mg0 O13 2.089818 1_555
Mg0 O9 2.196000 1_555
Mg0 O9 2.196000 1_554
Mg1 O2 1.875586 1_555
Mg1 O0 1.933385 1_555
Mg1 O10 2.165862 1_555
Mg1 O10 2.165862 1_554
Mg1 O14 2.451523 1_555
Mg1 O13 2.451523 1_555
Mg2 O3 2.168609 1_555
Mg2 O11 2.169329 1_556
Mg2 O11 2.169329 1_555
Mg2 O7 2.233802 1_555
Mg2 O8 2.277719 1_555
Mg2 O5 2.398570 1_455
Mg3 O4 2.168609 1_555
Mg3 O12 2.169329 1_555
Mg3 O12 2.169329 1_556
Mg3 O7 2.233802 1_565
Mg3 O8 2.277719 1_555
Mg3 O6 2.398570 1_455
Mg4 O9 2.118502 1_555
Mg4 O13 2.177023 1_555
Mg4 O13 2.177023 1_556
Mg4 O3 2.197009 1_555
Mg4 O5 2.335752 1_555
Mg4 O10 2.363200 1_555
Mg5 O9 2.118502 1_565
Mg5 O14 2.177023 1_555
Mg5 O14 2.177023 1_556
Mg5 O4 2.197009 1_555
Mg5 O6 2.335752 1_555
Mg5 O10 2.363200 1_555
Mg6 O9 2.018948 1_555
Mg6 O3 2.048072 1_555
Mg6 O4 2.048072 1_545
Mg6 O7 2.300278 1_555
Mg7 O8 1.886185 1_555
Mg7 O10 2.018072 1_555
Mg7 O0 2.168342 1_556
Mg7 O0 2.168342 1_555
Mg7 O3 2.435566 1_555
Mg7 O4 2.435566 1_555
Mg8 O7 2.011299 1_655
Mg8 O1 2.207298 1_556
Mg8 O1 2.207298 1_555
Mg8 O6 2.273125 1_545
Mg8 O5 2.273125 1_555
Mg9 O10 2.024923 1_555
Mg9 O2 2.169550 1_555
Mg9 O2 2.169550 1_556
Mg9 O6 2.263928 1_555
Mg9 O5 2.263928 1_555
Mg10 O0 1.956510 1_555
Mg10 O11 2.138809 1_555
Mg10 O13 2.157987 1_555
Mg10 O3 2.225701 1_555
Mg10 O3 2.225701 1_554
Mg11 O0 1.956510 1_555
Mg11 O12 2.138809 1_555
Mg11 O14 2.157987 1_555
Mg11 O4 2.225701 1_554
Mg11 O4 2.225701 1_555
Mg12 O1 2.109234 1_555
Mg12 O11 2.168668 1_655
Mg12 O5 2.179837 1_555
Mg12 O5 2.179837 1_554
Mg12 O2 2.488052 1_555
Mg12 O13 2.729231 1_555
Mg13 O1 2.109234 1_565
Mg13 O12 2.168668 1_655
Mg13 O6 2.179837 1_555
Mg13 O6 2.179837 1_554
Mg13 O2 2.488052 1_555
Mg13 O14 2.729231 1_555
O2 Rb0 2.382230 1_555
O8 Rb0 2.346777 1_456
O8 Rb0 2.346777 1_455
O11 Rb0 2.413505 1_455
O12 Rb0 2.413505 1_455
