# generated using pymatgen
data_NaV13O18
_symmetry_space_group_name_H-M   'P 1'
_cell_length_a   8.00532648
_cell_length_b   8.00532648
_cell_length_c   8.00532623
_cell_angle_alpha   110.66448239
_cell_angle_beta   110.66448239
_cell_angle_gamma   110.66448581
_symmetry_Int_Tables_number   1
_chemical_formula_structural   NaV13O18
_chemical_formula_sum   'Na1 V13 O18'
_cell_volume   376.46970899
_cell_formula_units_Z   1
loop_
 _symmetry_equiv_pos_site_id
 _symmetry_equiv_pos_as_xyz
  1  'x, y, z'
loop_
 _atom_site_type_symbol
 _atom_site_label
 _atom_site_symmetry_multiplicity
 _atom_site_fract_x
 _atom_site_fract_y
 _atom_site_fract_z
 _atom_site_occupancy
  Na  Na0  1  0.00000000  0.00000000  0.00000000  1
  V  V0  1  0.88233500  0.07162400  0.56687100  1
  V  V1  1  0.92837600  0.43312900  0.11766500  1
  V  V2  1  0.76778100  0.34395700  0.40048500  1
  V  V3  1  0.59951500  0.23221900  0.65604300  1
  V  V4  1  0.43312900  0.11766500  0.92837600  1
  V  V5  1  0.65604300  0.59951500  0.23221900  1
  V  V6  1  0.50000000  0.50000000  0.50000000  1
  V  V7  1  0.34395700  0.40048500  0.76778100  1
  V  V8  1  0.56687100  0.88233500  0.07162400  1
  V  V9  1  0.40048500  0.76778100  0.34395700  1
  V  V10  1  0.23221900  0.65604300  0.59951500  1
  V  V11  1  0.07162400  0.56687100  0.88233500  1
  V  V12  1  0.11766500  0.92837600  0.43312900  1
  O  O0  1  0.88008000  0.26641700  0.82460200  1
  O  O1  1  0.73358300  0.17539800  0.11992000  1
  O  O2  1  0.60038300  0.05152300  0.38400000  1
  O  O3  1  0.94847700  0.61600000  0.39961700  1
  O  O4  1  0.77109300  0.49146100  0.66478700  1
  O  O5  1  0.61600000  0.39961700  0.94847700  1
  O  O6  1  0.50853900  0.33521300  0.22890700  1
  O  O7  1  0.33521300  0.22890700  0.50853900  1
  O  O8  1  0.17539800  0.11992000  0.73358300  1
  O  O9  1  0.82460200  0.88008000  0.26641700  1
  O  O10  1  0.66478700  0.77109300  0.49146100  1
  O  O11  1  0.49146100  0.66478700  0.77109300  1
  O  O12  1  0.38400000  0.60038300  0.05152300  1
  O  O13  1  0.22890700  0.50853900  0.33521300  1
  O  O14  1  0.05152300  0.38400000  0.60038300  1
  O  O15  1  0.39961700  0.94847700  0.61600000  1
  O  O16  1  0.26641700  0.82460200  0.88008000  1
  O  O17  1  0.11992000  0.73358300  0.17539800  1
loop_
_geom_bond_atom_site_label_1
_geom_bond_atom_site_label_2
_geom_bond_distance
_geom_bond_site_symmetry_2
O0 V3 2.026470 1_555
O0 V1 2.054364 1_556
O0 V11 2.112388 1_655
O0 V0 2.112880 1_555
O1 V2 2.026470 1_555
O1 V8 2.054364 1_545
O1 V4 2.112388 1_554
O1 V1 2.112880 1_555
O2 V9 2.093229 1_545
O2 V0 2.123407 1_555
O2 V3 2.151661 1_555
O2 V2 2.176373 1_555
O2 V8 2.244849 1_545
O3 V10 2.093229 1_655
O3 V1 2.123407 1_555
O3 V2 2.151661 1_555
O3 V5 2.176373 1_555
O3 V12 2.244849 1_655
O4 V3 2.004042 1_555
O4 V2 2.011643 1_555
O4 V11 2.112165 1_655
O4 V6 2.145316 1_555
O5 V5 2.093229 1_556
O5 V4 2.123407 1_555
O5 V7 2.151661 1_555
O5 V3 2.176373 1_555
O5 V1 2.244849 1_556
O6 V2 2.004042 1_555
O6 V5 2.011643 1_555
O6 V4 2.112165 1_554
O6 V6 2.145316 1_555
O7 V7 2.004042 1_555
O7 V3 2.011643 1_555
O7 V12 2.112165 1_545
O7 V6 2.145316 1_555
O8 V7 2.026470 1_555
O8 V0 2.054364 1_455
O8 V12 2.112388 1_545
O8 V4 2.112880 1_555
O9 V5 2.026470 1_555
O9 V12 2.054364 1_655
O9 V0 2.112388 1_565
O9 V8 2.112880 1_555
O10 V5 2.004042 1_555
O10 V9 2.011643 1_555
O10 V0 2.112165 1_565
O10 V6 2.145316 1_555
O11 V10 2.004042 1_555
O11 V7 2.011643 1_555
O11 V8 2.112165 1_556
O11 V6 2.145316 1_555
O12 V7 2.093229 1_554
O12 V8 2.123407 1_555
O12 V5 2.151661 1_555
O12 V9 2.176373 1_555
O12 V11 2.244849 1_554
O13 V9 2.004042 1_555
O13 V10 2.011643 1_555
O13 V1 2.112165 1_455
O13 V6 2.145316 1_555
O14 V2 2.093229 1_455
O14 V11 2.123407 1_555
O14 V10 2.151661 1_555
O14 V7 2.176373 1_555
O14 V0 2.244849 1_455
O15 V3 2.093229 1_565
O15 V12 2.123407 1_555
O15 V9 2.151661 1_555
O15 V10 2.176373 1_555
O15 V4 2.244849 1_565
O16 V10 2.026470 1_555
O16 V4 2.054364 1_565
O16 V8 2.112388 1_556
O16 V11 2.112880 1_555
O17 V9 2.026470 1_555
O17 V11 2.054364 1_554
O17 V1 2.112388 1_455
O17 V12 2.112880 1_555
