# generated using pymatgen
data_Cs3Bi11Se18
_symmetry_space_group_name_H-M   'P 1'
_cell_length_a   12.83305593
_cell_length_b   14.06212236
_cell_length_c   23.95966775
_cell_angle_alpha   90.00000000
_cell_angle_beta   90.00000000
_cell_angle_gamma   90.00000000
_symmetry_Int_Tables_number   1
_chemical_formula_structural   Cs3Bi11Se18
_chemical_formula_sum   'Cs12 Bi44 Se72'
_cell_volume   4323.76170782
_cell_formula_units_Z   4
loop_
 _symmetry_equiv_pos_site_id
 _symmetry_equiv_pos_as_xyz
  1  'x, y, z'
loop_
 _atom_site_type_symbol
 _atom_site_label
 _atom_site_symmetry_multiplicity
 _atom_site_fract_x
 _atom_site_fract_y
 _atom_site_fract_z
 _atom_site_occupancy
  Cs  Cs0  1  0.25000000  0.54461229  0.62902709  1
  Cs  Cs1  1  0.58556535  0.53492293  0.63189101  1
  Cs  Cs2  1  0.91443465  0.53492293  0.63189101  1
  Cs  Cs3  1  0.25000000  0.95538771  0.12902709  1
  Cs  Cs4  1  0.58556535  0.96507707  0.13189101  1
  Cs  Cs5  1  0.91443465  0.96507707  0.13189101  1
  Cs  Cs6  1  0.08556535  0.46507707  0.36810899  1
  Cs  Cs7  1  0.41443465  0.46507707  0.36810899  1
  Cs  Cs8  1  0.75000000  0.45538771  0.37097291  1
  Cs  Cs9  1  0.08556535  0.03492293  0.86810899  1
  Cs  Cs10  1  0.41443465  0.03492293  0.86810899  1
  Cs  Cs11  1  0.75000000  0.04461229  0.87097291  1
  Bi  Bi0  1  0.08538627  0.66717909  0.82713650  1
  Bi  Bi1  1  0.41461373  0.66717909  0.82713650  1
  Bi  Bi2  1  0.75000000  0.66004246  0.82962073  1
  Bi  Bi3  1  0.08538627  0.83282091  0.32713650  1
  Bi  Bi4  1  0.41461373  0.83282091  0.32713650  1
  Bi  Bi5  1  0.75000000  0.83995754  0.32962073  1
  Bi  Bi6  1  0.25000000  0.33995754  0.17037927  1
  Bi  Bi7  1  0.58538627  0.33282091  0.17286350  1
  Bi  Bi8  1  0.91461373  0.33282091  0.17286350  1
  Bi  Bi9  1  0.25000000  0.16004246  0.67037927  1
  Bi  Bi10  1  0.58538627  0.16717909  0.67286350  1
  Bi  Bi11  1  0.91461373  0.16717909  0.67286350  1
  Bi  Bi12  1  0.08084736  0.27406904  0.52956737  1
  Bi  Bi13  1  0.41915264  0.27406904  0.52956737  1
  Bi  Bi14  1  0.75000000  0.26390112  0.52530269  1
  Bi  Bi15  1  0.08084736  0.22593096  0.02956737  1
  Bi  Bi16  1  0.41915264  0.22593096  0.02956737  1
  Bi  Bi17  1  0.75000000  0.23609888  0.02530269  1
  Bi  Bi18  1  0.25000000  0.73609888  0.47469731  1
  Bi  Bi19  1  0.58084736  0.72593096  0.47043263  1
  Bi  Bi20  1  0.91915264  0.72593096  0.47043263  1
  Bi  Bi21  1  0.25000000  0.76390112  0.97469731  1
  Bi  Bi22  1  0.58084736  0.77406904  0.97043263  1
  Bi  Bi23  1  0.91915264  0.77406904  0.97043263  1
  Bi  Bi24  1  0.09196813  0.95044077  0.57778559  1
  Bi  Bi25  1  0.40803187  0.95044077  0.57778559  1
  Bi  Bi26  1  0.75000000  0.96688064  0.57671392  1
  Bi  Bi27  1  0.09196813  0.54955923  0.07778559  1
  Bi  Bi28  1  0.40803187  0.54955923  0.07778559  1
  Bi  Bi29  1  0.75000000  0.53311936  0.07671392  1
  Bi  Bi30  1  0.25000000  0.03311936  0.42328608  1
  Bi  Bi31  1  0.59196813  0.04955923  0.42221441  1
  Bi  Bi32  1  0.90803187  0.04955923  0.42221441  1
  Bi  Bi33  1  0.25000000  0.46688064  0.92328608  1
  Bi  Bi34  1  0.59196813  0.45044077  0.92221441  1
  Bi  Bi35  1  0.90803187  0.45044077  0.92221441  1
  Bi  Bi36  1  0.56997604  0.84016396  0.71167087  1
  Bi  Bi37  1  0.93002396  0.84016396  0.71167087  1
  Bi  Bi38  1  0.56997604  0.65983604  0.21167087  1
  Bi  Bi39  1  0.93002396  0.65983604  0.21167087  1
  Bi  Bi40  1  0.06997604  0.15983604  0.28832913  1
  Bi  Bi41  1  0.43002396  0.15983604  0.28832913  1
  Bi  Bi42  1  0.06997604  0.34016396  0.78832913  1
  Bi  Bi43  1  0.43002396  0.34016396  0.78832913  1
  Se  Se0  1  0.25000000  0.81512288  0.59605304  1
  Se  Se1  1  0.58504221  0.82078929  0.59739885  1
  Se  Se2  1  0.91495779  0.82078929  0.59739885  1
  Se  Se3  1  0.25000000  0.68487712  0.09605304  1
  Se  Se4  1  0.58504221  0.67921071  0.09739885  1
  Se  Se5  1  0.91495779  0.67921071  0.09739885  1
  Se  Se6  1  0.08504221  0.17921071  0.40260115  1
  Se  Se7  1  0.41495779  0.17921071  0.40260115  1
  Se  Se8  1  0.75000000  0.18487712  0.40394696  1
  Se  Se9  1  0.08504221  0.32078929  0.90260115  1
  Se  Se10  1  0.41495779  0.32078929  0.90260115  1
  Se  Se11  1  0.75000000  0.31512288  0.90394696  1
  Se  Se12  1  0.08373991  0.70954096  0.71303644  1
  Se  Se13  1  0.41626009  0.70954096  0.71303644  1
  Se  Se14  1  0.75000000  0.71494587  0.71497837  1
  Se  Se15  1  0.08373991  0.79045904  0.21303644  1
  Se  Se16  1  0.41626009  0.79045904  0.21303644  1
  Se  Se17  1  0.75000000  0.78505413  0.21497837  1
  Se  Se18  1  0.25000000  0.28505413  0.28502163  1
  Se  Se19  1  0.58373991  0.29045904  0.28696356  1
  Se  Se20  1  0.91626009  0.29045904  0.28696356  1
  Se  Se21  1  0.25000000  0.21494587  0.78502163  1
  Se  Se22  1  0.58373991  0.20954096  0.78696356  1
  Se  Se23  1  0.91626009  0.20954096  0.78696356  1
  Se  Se24  1  0.25000000  0.80531798  0.85665470  1
  Se  Se25  1  0.58798631  0.80557973  0.85221112  1
  Se  Se26  1  0.91201369  0.80557973  0.85221112  1
  Se  Se27  1  0.25000000  0.69468202  0.35665470  1
  Se  Se28  1  0.58798631  0.69442027  0.35221112  1
  Se  Se29  1  0.91201369  0.69442027  0.35221112  1
  Se  Se30  1  0.08798631  0.19442027  0.14778888  1
  Se  Se31  1  0.41201369  0.19442027  0.14778888  1
  Se  Se32  1  0.75000000  0.19468202  0.14334530  1
  Se  Se33  1  0.08798631  0.30557973  0.64778888  1
  Se  Se34  1  0.41201369  0.30557973  0.64778888  1
  Se  Se35  1  0.75000000  0.30531798  0.64334530  1
  Se  Se36  1  0.25000000  0.10019821  0.54724028  1
  Se  Se37  1  0.58364144  0.10401194  0.54757409  1
  Se  Se38  1  0.91635856  0.10401194  0.54757409  1
  Se  Se39  1  0.25000000  0.39980179  0.04724028  1
  Se  Se40  1  0.58364144  0.39598806  0.04757409  1
  Se  Se41  1  0.91635856  0.39598806  0.04757409  1
  Se  Se42  1  0.08364144  0.89598806  0.45242591  1
  Se  Se43  1  0.41635856  0.89598806  0.45242591  1
  Se  Se44  1  0.75000000  0.89980179  0.45275972  1
  Se  Se45  1  0.08364144  0.60401194  0.95242591  1
  Se  Se46  1  0.41635856  0.60401194  0.95242591  1
  Se  Se47  1  0.75000000  0.60019821  0.95275972  1
  Se  Se48  1  0.08081387  0.60882481  0.49827755  1
  Se  Se49  1  0.41918613  0.60882481  0.49827755  1
  Se  Se50  1  0.75000000  0.60817131  0.49750925  1
  Se  Se51  1  0.08081387  0.89117519  0.99827755  1
  Se  Se52  1  0.41918613  0.89117519  0.99827755  1
  Se  Se53  1  0.75000000  0.89182869  0.99750925  1
  Se  Se54  1  0.25000000  0.39182869  0.50249075  1
  Se  Se55  1  0.58081387  0.39117519  0.50172245  1
  Se  Se56  1  0.91918613  0.39117519  0.50172245  1
  Se  Se57  1  0.25000000  0.10817131  0.00249075  1
  Se  Se58  1  0.58081387  0.10882481  0.00172245  1
  Se  Se59  1  0.91918613  0.10882481  0.00172245  1
  Se  Se60  1  0.07848729  0.01660748  0.69128331  1
  Se  Se61  1  0.42151271  0.01660748  0.69128331  1
  Se  Se62  1  0.75000000  0.01991373  0.69278609  1
  Se  Se63  1  0.07848729  0.48339252  0.19128331  1
  Se  Se64  1  0.42151271  0.48339252  0.19128331  1
  Se  Se65  1  0.75000000  0.48008627  0.19278609  1
  Se  Se66  1  0.25000000  0.98008627  0.30721391  1
  Se  Se67  1  0.57848729  0.98339252  0.30871669  1
  Se  Se68  1  0.92151271  0.98339252  0.30871669  1
  Se  Se69  1  0.25000000  0.51991373  0.80721391  1
  Se  Se70  1  0.57848729  0.51660748  0.80871669  1
  Se  Se71  1  0.92151271  0.51660748  0.80871669  1
loop_
_geom_bond_atom_site_label_1
_geom_bond_atom_site_label_2
_geom_bond_distance
_geom_bond_site_symmetry_2
Cs0 Se54 3.715846 1_555
Cs0 Se13 3.739355 1_555
Cs0 Se12 3.739355 1_555
Cs0 Se0 3.885130 1_555
Cs0 Se49 3.917046 1_555
Cs0 Se48 3.917046 1_555
Cs0 Se33 3.977842 1_555
Cs0 Se34 3.977842 1_555
Cs0 Se69 4.283401 1_555
Cs1 Se55 3.717076 1_555
Cs1 Se13 3.811837 1_555
Cs1 Se14 3.850263 1_555
Cs1 Se35 3.866908 1_555
Cs1 Se34 3.937825 1_555
Cs1 Se50 3.985052 1_555
Cs1 Se49 3.985899 1_555
Cs1 Se1 4.103963 1_555
Cs1 Se70 4.245478 1_555
Cs2 Se56 3.717076 1_555
Cs2 Se12 3.811837 1_655
Cs2 Se14 3.850263 1_555
Cs2 Se35 3.866908 1_555
Cs2 Se33 3.937825 1_655
Cs2 Se50 3.985052 1_555
Cs2 Se48 3.985899 1_655
Cs2 Se2 4.103963 1_555
Cs2 Se71 4.245478 1_555
Cs3 Se57 3.715846 1_565
Cs3 Se15 3.739355 1_555
Cs3 Se16 3.739355 1_555
Cs3 Se3 3.885130 1_555
Cs3 Se52 3.917046 1_554
Cs3 Se51 3.917046 1_554
Cs3 Se31 3.977842 1_565
Cs3 Se30 3.977842 1_565
Cs3 Se66 4.283401 1_555
Cs4 Se58 3.717076 1_565
Cs4 Se16 3.811837 1_555
Cs4 Se17 3.850263 1_555
Cs4 Se32 3.866908 1_565
Cs4 Se31 3.937825 1_565
Cs4 Se53 3.985052 1_554
Cs4 Se52 3.985899 1_554
Cs4 Se4 4.103963 1_555
Cs4 Se67 4.245478 1_555
Cs5 Se59 3.717076 1_565
Cs5 Se15 3.811837 1_655
Cs5 Se17 3.850263 1_555
Cs5 Se32 3.866908 1_565
Cs5 Se30 3.937825 1_665
Cs5 Se53 3.985052 1_554
Cs5 Se51 3.985899 1_654
Cs5 Se5 4.103963 1_555
Cs5 Se68 4.245478 1_555
Cs6 Se48 3.717076 1_555
Cs6 Se20 3.811837 1_455
Cs6 Se18 3.850263 1_555
Cs6 Se27 3.866908 1_555
Cs6 Se29 3.937825 1_455
Cs6 Se54 3.985052 1_555
Cs6 Se56 3.985899 1_455
Cs6 Se6 4.103963 1_555
Cs6 Se63 4.245478 1_555
Cs7 Se49 3.717076 1_555
Cs7 Se19 3.811837 1_555
Cs7 Se18 3.850263 1_555
Cs7 Se27 3.866908 1_555
Cs7 Se28 3.937825 1_555
Cs7 Se54 3.985052 1_555
Cs7 Se55 3.985899 1_555
Cs7 Se7 4.103963 1_555
Cs7 Se64 4.245478 1_555
Cs8 Se50 3.715846 1_555
Cs8 Se20 3.739355 1_555
Cs8 Se19 3.739355 1_555
Cs8 Se8 3.885130 1_555
Cs8 Se55 3.917046 1_555
Cs8 Se56 3.917046 1_555
Cs8 Se28 3.977842 1_555
Cs8 Se29 3.977842 1_555
Cs8 Se65 4.283401 1_555
Cs9 Se51 3.717076 1_545
Cs9 Se23 3.811837 1_455
Cs9 Se21 3.850263 1_555
Cs9 Se24 3.866908 1_545
Cs9 Se26 3.937825 1_445
Cs9 Se57 3.985052 1_556
Cs9 Se59 3.985899 1_456
Cs9 Se9 4.103963 1_555
Cs9 Se60 4.245478 1_555
Cs10 Se52 3.717076 1_545
Cs10 Se22 3.811837 1_555
Cs10 Se21 3.850263 1_555
Cs10 Se24 3.866908 1_545
Cs10 Se25 3.937825 1_545
Cs10 Se57 3.985052 1_556
Cs10 Se58 3.985899 1_556
Cs10 Se10 4.103963 1_555
Cs10 Se61 4.245478 1_555
Cs11 Se53 3.715846 1_545
Cs11 Se23 3.739355 1_555
Cs11 Se22 3.739355 1_555
Cs11 Se11 3.885130 1_555
Cs11 Se58 3.917046 1_556
Cs11 Se59 3.917046 1_556
Cs11 Se25 3.977842 1_545
Cs11 Se26 3.977842 1_545
Cs11 Se62 4.283401 1_555
Bi0 Se12 2.798028 1_555
Bi0 Se24 2.955715 1_555
Bi0 Se69 2.996493 1_555
Bi0 Se26 3.016428 1_455
Bi0 Se71 3.016716 1_455
Bi0 Se45 3.130635 1_555
Bi1 Se13 2.798028 1_555
Bi1 Se24 2.955715 1_555
Bi1 Se69 2.996493 1_555
Bi1 Se25 3.016428 1_555
Bi1 Se70 3.016716 1_555
Bi1 Se46 3.130635 1_555
Bi2 Se14 2.853234 1_555
Bi2 Se26 2.967181 1_555
Bi2 Se25 2.967181 1_555
Bi2 Se71 3.027158 1_555
Bi2 Se70 3.027158 1_555
Bi2 Se47 3.068039 1_555
Bi3 Se15 2.798028 1_555
Bi3 Se27 2.955715 1_555
Bi3 Se66 2.996493 1_555
Bi3 Se29 3.016428 1_455
Bi3 Se68 3.016716 1_455
Bi3 Se42 3.130635 1_555
Bi4 Se16 2.798028 1_555
Bi4 Se27 2.955715 1_555
Bi4 Se66 2.996493 1_555
Bi4 Se28 3.016428 1_555
Bi4 Se67 3.016716 1_555
Bi4 Se43 3.130635 1_555
Bi5 Se17 2.853234 1_555
Bi5 Se28 2.967181 1_555
Bi5 Se29 2.967181 1_555
Bi5 Se68 3.027158 1_555
Bi5 Se67 3.027158 1_555
Bi5 Se44 3.068039 1_555
Bi6 Se18 2.853234 1_555
Bi6 Se30 2.967181 1_555
Bi6 Se31 2.967181 1_555
Bi6 Se64 3.027158 1_555
Bi6 Se63 3.027158 1_555
Bi6 Se39 3.068039 1_555
Bi7 Se19 2.798028 1_555
Bi7 Se32 2.955715 1_555
Bi7 Se65 2.996493 1_555
Bi7 Se31 3.016428 1_555
Bi7 Se64 3.016716 1_555
Bi7 Se40 3.130635 1_555
Bi8 Se20 2.798028 1_555
Bi8 Se32 2.955715 1_555
Bi8 Se65 2.996493 1_555
Bi8 Se30 3.016428 1_655
Bi8 Se63 3.016716 1_655
Bi8 Se41 3.130635 1_555
Bi9 Se21 2.853234 1_555
Bi9 Se34 2.967181 1_555
Bi9 Se33 2.967181 1_555
Bi9 Se60 3.027158 1_555
Bi9 Se61 3.027158 1_555
Bi9 Se36 3.068039 1_555
Bi10 Se22 2.798028 1_555
Bi10 Se35 2.955715 1_555
Bi10 Se62 2.996493 1_555
Bi10 Se34 3.016428 1_555
Bi10 Se61 3.016716 1_555
Bi10 Se37 3.130635 1_555
Bi11 Se23 2.798028 1_555
Bi11 Se35 2.955715 1_555
Bi11 Se62 2.996493 1_555
Bi11 Se33 3.016428 1_655
Bi11 Se60 3.016716 1_655
Bi11 Se38 3.130635 1_555
Bi12 Se56 2.731467 1_455
Bi12 Se54 2.806275 1_555
Bi12 Se33 2.868461 1_555
Bi12 Se38 3.218793 1_455
Bi12 Se36 3.296881 1_555
Bi12 Se6 3.322107 1_555
Bi13 Se55 2.731467 1_555
Bi13 Se54 2.806275 1_555
Bi13 Se34 2.868461 1_555
Bi13 Se37 3.218793 1_555
Bi13 Se36 3.296881 1_555
Bi13 Se7 3.322107 1_555
Bi14 Se55 2.869909 1_555
Bi14 Se56 2.869909 1_555
Bi14 Se35 2.887605 1_555
Bi14 Se8 3.112757 1_555
Bi14 Se38 3.146063 1_555
Bi14 Se37 3.146063 1_555
Bi15 Se59 2.731467 1_455
Bi15 Se57 2.806275 1_555
Bi15 Se30 2.868461 1_555
Bi15 Se41 3.218793 1_455
Bi15 Se39 3.296881 1_555
Bi15 Se9 3.322107 1_554
Bi16 Se58 2.731467 1_555
Bi16 Se57 2.806275 1_555
Bi16 Se31 2.868461 1_555
Bi16 Se40 3.218793 1_555
Bi16 Se39 3.296881 1_555
Bi16 Se10 3.322107 1_554
Bi17 Se59 2.869909 1_555
Bi17 Se58 2.869909 1_555
Bi17 Se32 2.887605 1_555
Bi17 Se11 3.112757 1_554
Bi17 Se41 3.146063 1_555
Bi17 Se40 3.146063 1_555
Bi18 Se49 2.869909 1_555
Bi18 Se48 2.869909 1_555
Bi18 Se27 2.887605 1_555
Bi18 Se0 3.112757 1_555
Bi18 Se42 3.146063 1_555
Bi18 Se43 3.146063 1_555
Bi19 Se49 2.731467 1_555
Bi19 Se50 2.806275 1_555
Bi19 Se28 2.868461 1_555
Bi19 Se43 3.218793 1_555
Bi19 Se44 3.296881 1_555
Bi19 Se1 3.322107 1_555
Bi20 Se48 2.731467 1_655
Bi20 Se50 2.806275 1_555
Bi20 Se29 2.868461 1_555
Bi20 Se42 3.218793 1_655
Bi20 Se44 3.296881 1_555
Bi20 Se2 3.322107 1_555
Bi21 Se51 2.869909 1_555
Bi21 Se52 2.869909 1_555
Bi21 Se24 2.887605 1_555
Bi21 Se3 3.112757 1_556
Bi21 Se46 3.146063 1_555
Bi21 Se45 3.146063 1_555
Bi22 Se52 2.731467 1_555
Bi22 Se53 2.806275 1_555
Bi22 Se25 2.868461 1_555
Bi22 Se46 3.218793 1_555
Bi22 Se47 3.296881 1_555
Bi22 Se4 3.322107 1_556
Bi23 Se51 2.731467 1_655
Bi23 Se53 2.806275 1_555
Bi23 Se26 2.868461 1_555
Bi23 Se45 3.218793 1_655
Bi23 Se47 3.296881 1_555
Bi23 Se5 3.322107 1_556
Bi24 Se0 2.815198 1_555
Bi24 Se60 2.879343 1_565
Bi24 Se2 2.950405 1_455
Bi24 Se36 3.013863 1_565
Bi24 Se42 3.101486 1_555
Bi24 Se38 3.204109 1_465
Bi25 Se0 2.815198 1_555
Bi25 Se61 2.879343 1_565
Bi25 Se1 2.950405 1_555
Bi25 Se36 3.013863 1_565
Bi25 Se43 3.101486 1_555
Bi25 Se37 3.204109 1_565
Bi26 Se62 2.879305 1_565
Bi26 Se37 2.960366 1_565
Bi26 Se38 2.960366 1_565
Bi26 Se2 2.991206 1_555
Bi26 Se1 2.991206 1_555
Bi26 Se44 3.116099 1_555
Bi27 Se3 2.815198 1_555
Bi27 Se63 2.879343 1_555
Bi27 Se5 2.950405 1_455
Bi27 Se39 3.013863 1_555
Bi27 Se45 3.101486 1_554
Bi27 Se41 3.204109 1_455
Bi28 Se3 2.815198 1_555
Bi28 Se64 2.879343 1_555
Bi28 Se4 2.950405 1_555
Bi28 Se39 3.013863 1_555
Bi28 Se46 3.101486 1_554
Bi28 Se40 3.204109 1_555
Bi29 Se65 2.879305 1_555
Bi29 Se41 2.960366 1_555
Bi29 Se40 2.960366 1_555
Bi29 Se5 2.991206 1_555
Bi29 Se4 2.991206 1_555
Bi29 Se47 3.116099 1_554
Bi30 Se66 2.879305 1_545
Bi30 Se43 2.960366 1_545
Bi30 Se42 2.960366 1_545
Bi30 Se6 2.991206 1_555
Bi30 Se7 2.991206 1_555
Bi30 Se36 3.116099 1_555
Bi31 Se8 2.815198 1_555
Bi31 Se67 2.879343 1_545
Bi31 Se7 2.950405 1_555
Bi31 Se44 3.013863 1_545
Bi31 Se37 3.101486 1_555
Bi31 Se43 3.204109 1_545
Bi32 Se8 2.815198 1_555
Bi32 Se68 2.879343 1_545
Bi32 Se6 2.950405 1_655
Bi32 Se44 3.013863 1_545
Bi32 Se38 3.101486 1_555
Bi32 Se42 3.204109 1_645
Bi33 Se69 2.879305 1_555
Bi33 Se46 2.960366 1_555
Bi33 Se45 2.960366 1_555
Bi33 Se9 2.991206 1_555
Bi33 Se10 2.991206 1_555
Bi33 Se39 3.116099 1_556
Bi34 Se11 2.815198 1_555
Bi34 Se70 2.879343 1_555
Bi34 Se10 2.950405 1_555
Bi34 Se47 3.013863 1_555
Bi34 Se40 3.101486 1_556
Bi34 Se46 3.204109 1_555
Bi35 Se11 2.815198 1_555
Bi35 Se71 2.879343 1_555
Bi35 Se9 2.950405 1_655
Bi35 Se47 3.013863 1_555
Bi35 Se41 3.101486 1_556
Bi35 Se45 3.204109 1_655
Bi36 Se13 2.695620 1_555
Bi36 Se1 2.758227 1_555
Bi36 Se14 2.905873 1_555
Bi36 Se61 3.166189 1_565
Bi36 Se25 3.410077 1_555
Bi37 Se12 2.695620 1_655
Bi37 Se2 2.758227 1_555
Bi37 Se14 2.905873 1_555
Bi37 Se60 3.166189 1_665
Bi37 Se26 3.410077 1_555
Bi38 Se16 2.695620 1_555
Bi38 Se4 2.758227 1_555
Bi38 Se17 2.905873 1_555
Bi38 Se64 3.166189 1_555
Bi38 Se28 3.410077 1_555
Bi39 Se15 2.695620 1_655
Bi39 Se5 2.758227 1_555
Bi39 Se17 2.905873 1_555
Bi39 Se63 3.166189 1_655
Bi39 Se29 3.410077 1_555
Bi40 Se20 2.695620 1_455
Bi40 Se6 2.758227 1_555
Bi40 Se18 2.905873 1_555
Bi40 Se68 3.166189 1_445
Bi40 Se30 3.410077 1_555
Bi41 Se19 2.695620 1_555
Bi41 Se7 2.758227 1_555
Bi41 Se18 2.905873 1_555
Bi41 Se67 3.166189 1_545
Bi41 Se31 3.410077 1_555
Bi42 Se23 2.695620 1_455
Bi42 Se9 2.758227 1_555
Bi42 Se21 2.905873 1_555
Bi42 Se71 3.166189 1_455
Bi42 Se33 3.410077 1_555
Bi43 Se22 2.695620 1_555
Bi43 Se10 2.758227 1_555
Bi43 Se21 2.905873 1_555
Bi43 Se70 3.166189 1_555
Bi43 Se34 3.410077 1_555
