# generated using pymatgen
data_SrCa7Ti2Mn6O23
_symmetry_space_group_name_H-M   'P 1'
_cell_length_a   7.68242201
_cell_length_b   7.67526747
_cell_length_c   7.71603543
_cell_angle_alpha   89.90857132
_cell_angle_beta   90.00355805
_cell_angle_gamma   90.00248629
_symmetry_Int_Tables_number   1
_chemical_formula_structural   SrCa7Ti2Mn6O23
_chemical_formula_sum   'Sr1 Ca7 Ti2 Mn6 O23'
_cell_volume   454.97269969
_cell_formula_units_Z   1
loop_
 _symmetry_equiv_pos_site_id
 _symmetry_equiv_pos_as_xyz
  1  'x, y, z'
loop_
 _atom_site_type_symbol
 _atom_site_label
 _atom_site_symmetry_multiplicity
 _atom_site_fract_x
 _atom_site_fract_y
 _atom_site_fract_z
 _atom_site_occupancy
  Sr  Sr0  1  0.25534100  0.25662000  0.24984800  1
  Ca  Ca0  1  0.26375200  0.27201000  0.74079100  1
  Ca  Ca1  1  0.25777700  0.74037400  0.25058800  1
  Ca  Ca2  1  0.26294800  0.73163300  0.73938000  1
  Ca  Ca3  1  0.74493400  0.26305000  0.25066700  1
  Ca  Ca4  1  0.73984500  0.27146200  0.73904000  1
  Ca  Ca5  1  0.74588600  0.73895200  0.25128300  1
  Ca  Ca6  1  0.73815200  0.72874400  0.73882700  1
  Ti  Ti0  1  0.99937500  0.99831700  0.98408100  1
  Ti  Ti1  1  0.50383700  0.99827100  0.00582600  1
  Mn  Mn0  1  0.99892700  0.99898500  0.50225100  1
  Mn  Mn1  1  0.99915600  0.50113300  0.00435900  1
  Mn  Mn2  1  0.99953500  0.50108300  0.49615000  1
  Mn  Mn3  1  0.50166700  0.99924100  0.49781500  1
  Mn  Mn4  1  0.50087400  0.50053200  0.99897000  1
  Mn  Mn5  1  0.50068200  0.50072000  0.49765300  1
  O  O0  1  0.99435600  0.99487300  0.75656000  1
  O  O1  1  0.99528200  0.49748800  0.25050500  1
  O  O2  1  0.99736700  0.50404100  0.74965500  1
  O  O3  1  0.49556200  0.99873200  0.25538000  1
  O  O4  1  0.50504000  0.99835300  0.75102100  1
  O  O5  1  0.50303400  0.50348200  0.24966600  1
  O  O6  1  0.50174000  0.50165200  0.74938600  1
  O  O7  1  0.24280400  0.99586100  0.03401100  1
  O  O8  1  0.24808200  0.99548300  0.48355700  1
  O  O9  1  0.25014800  0.50471200  0.99022900  1
  O  O10  1  0.25029500  0.50291800  0.51097300  1
  O  O11  1  0.75656400  0.00002000  0.04436800  1
  O  O12  1  0.75190400  0.99872100  0.46981000  1
  O  O13  1  0.74943000  0.50054300  0.99363800  1
  O  O14  1  0.74948300  0.50178700  0.50801300  1
  O  O15  1  0.99702900  0.24799700  0.01961800  1
  O  O16  1  0.99496200  0.24769000  0.48135000  1
  O  O17  1  0.99794900  0.75155100  0.02760000  1
  O  O18  1  0.99901300  0.75264900  0.46866000  1
  O  O19  1  0.50083500  0.25209800  0.99393100  1
  O  O20  1  0.50299800  0.25010700  0.51079700  1
  O  O21  1  0.50163900  0.74817100  0.99620600  1
  O  O22  1  0.50179600  0.74994300  0.50753600  1
loop_
_geom_bond_atom_site_label_1
_geom_bond_atom_site_label_2
_geom_bond_distance
_geom_bond_site_symmetry_2
Ca0 O10 2.507223 1_555
Ca0 O6 2.540448 1_555
Ca0 O20 2.560703 1_555
Ca0 O9 2.629881 1_555
Ca0 O19 2.674793 1_555
Ca0 O2 2.713871 1_455
Ca0 O4 2.802459 1_545
Ca0 O16 2.882181 1_455
Ca0 O8 2.910684 1_545
Ca0 O0 2.970099 1_445
Ca0 O15 2.976681 1_456
Ca0 O7 3.101911 1_546
Ca1 O7 2.576945 1_555
Ca1 O18 2.606341 1_455
Ca1 O5 2.618466 1_555
Ca1 O17 2.636538 1_455
Ca1 O8 2.661211 1_555
Ca1 O3 2.696387 1_555
Ca1 O9 2.706010 1_554
Ca1 O10 2.711072 1_555
Ca1 O21 2.714063 1_554
Ca1 O22 2.729561 1_555
Ca1 O1 2.746205 1_455
Ca2 O10 2.491371 1_555
Ca2 O6 2.546958 1_555
Ca2 O22 2.566423 1_555
Ca2 O9 2.603605 1_555
Ca2 O2 2.686971 1_455
Ca2 O21 2.702969 1_555
Ca2 O4 2.767340 1_555
Ca2 O8 2.828042 1_555
Ca2 O0 2.891153 1_455
Ca2 O18 2.915355 1_455
Ca2 O17 3.019183 1_456
Ca2 O7 3.052847 1_556
Ca3 O11 2.574449 1_555
Ca3 O5 2.619028 1_555
Ca3 O16 2.621188 1_555
Ca3 O1 2.633713 1_555
Ca3 O15 2.635066 1_555
Ca3 O12 2.639531 1_545
Ca3 O13 2.691765 1_554
Ca3 O14 2.704324 1_555
Ca3 O19 2.729114 1_554
Ca3 O20 2.737337 1_555
Ca3 O3 2.790456 1_545
Ca4 O14 2.509637 1_555
Ca4 O20 2.537664 1_555
Ca4 O6 2.544534 1_555
Ca4 O13 2.639526 1_555
Ca4 O2 2.665988 1_555
Ca4 O19 2.694665 1_555
Ca4 O4 2.766868 1_545
Ca4 O16 2.798169 1_555
Ca4 O0 2.889189 1_545
Ca4 O15 2.936234 1_556
Ca4 O12 2.952999 1_545
Ca5 O11 2.561370 1_565
Ca5 O18 2.570227 1_555
Ca5 O17 2.595758 1_555
Ca5 O5 2.597509 1_555
Ca5 O12 2.613660 1_555
Ca5 O1 2.665713 1_555
Ca5 O14 2.688285 1_555
Ca5 O13 2.704230 1_554
Ca5 O21 2.720068 1_554
Ca5 O22 2.726546 1_555
Ca5 O3 2.770450 1_555
Ca6 O14 2.494749 1_555
Ca6 O6 2.518450 1_555
Ca6 O22 2.550926 1_555
Ca6 O13 2.632479 1_555
Ca6 O2 2.635698 1_555
Ca6 O21 2.696125 1_555
Ca6 O4 2.738449 1_555
Ca6 O0 2.839994 1_555
Ca6 O18 2.897371 1_555
Ca6 O12 2.932567 1_555
Ca6 O17 2.996598 1_556
Mn0 O18 1.908788 1_555
Mn0 O12 1.914158 1_555
Mn0 O16 1.915665 1_565
Mn0 O8 1.919743 1_655
Mn0 O0 1.962777 1_555
Mn1 O1 1.899668 1_555
Mn1 O13 1.920283 1_554
Mn1 O17 1.930680 1_555
Mn1 O9 1.931505 1_654
Mn1 O15 1.946331 1_555
Mn1 O2 1.965443 1_554
Mn2 O1 1.895930 1_555
Mn2 O14 1.923198 1_555
Mn2 O10 1.929881 1_655
Mn2 O18 1.942120 1_555
Mn2 O16 1.948706 1_555
Mn2 O2 1.956293 1_555
Mn3 O3 1.871232 1_555
Mn3 O22 1.914779 1_555
Mn3 O20 1.928254 1_565
Mn3 O12 1.934551 1_555
Mn3 O8 1.951459 1_555
Mn3 O4 1.953918 1_555
Mn4 O21 1.900790 1_555
Mn4 O19 1.907256 1_555
Mn4 O13 1.909958 1_555
Mn4 O6 1.925816 1_555
Mn4 O9 1.927626 1_555
Mn4 O5 1.934618 1_556
Mn5 O14 1.913078 1_555
Mn5 O5 1.913647 1_555
Mn5 O22 1.914513 1_555
Mn5 O20 1.926115 1_555
Mn5 O10 1.926405 1_555
Mn5 O6 1.942422 1_555
O0 Ti0 1.756222 1_555
O1 Sr0 2.722077 1_655
O3 Ti1 1.926629 1_555
O3 Sr0 2.706569 1_565
O4 Ti1 1.966106 1_556
O5 Sr0 2.685265 1_555
O7 Ti0 1.909460 1_454
O7 Ti1 2.017218 1_555
O7 Sr0 2.607496 1_565
O8 Sr0 2.694568 1_565
O9 Sr0 2.761922 1_556
O10 Sr0 2.765306 1_555
O11 Ti0 1.922581 1_544
O11 Ti1 1.964230 1_545
O15 Ti0 1.936397 1_544
O15 Sr0 2.664248 1_655
O16 Sr0 2.682702 1_655
O17 Ti0 1.923035 1_554
O19 Ti1 1.950342 1_546
O19 Sr0 2.730960 1_556
O20 Sr0 2.770517 1_555
O21 Ti1 1.921211 1_556
