# generated using pymatgen
data_U2Co15Ge2
_symmetry_space_group_name_H-M   'P 1'
_cell_length_a   8.26304200
_cell_length_b   8.18507921
_cell_length_c   8.18507921
_cell_angle_alpha   120.05827917
_cell_angle_beta   90.00000000
_cell_angle_gamma   90.00000000
_symmetry_Int_Tables_number   1
_chemical_formula_structural   U2Co15Ge2
_chemical_formula_sum   'U4 Co30 Ge4'
_cell_volume   479.13844778
_cell_formula_units_Z   2
loop_
 _symmetry_equiv_pos_site_id
 _symmetry_equiv_pos_as_xyz
  1  'x, y, z'
loop_
 _atom_site_type_symbol
 _atom_site_label
 _atom_site_symmetry_multiplicity
 _atom_site_fract_x
 _atom_site_fract_y
 _atom_site_fract_z
 _atom_site_occupancy
  U  U0  1  0.75000000  0.99997200  0.00002800  1
  U  U1  1  0.25000000  0.00002800  0.99997200  1
  U  U2  1  0.25000000  0.66675900  0.33324100  1
  U  U3  1  0.75000000  0.33324100  0.66675900  1
  Co  Co0  1  0.50000000  0.50000000  0.00000000  1
  Co  Co1  1  0.50000000  0.50000000  0.50000000  1
  Co  Co2  1  0.50000000  0.00000000  0.50000000  1
  Co  Co3  1  0.00000000  0.50000000  0.00000000  1
  Co  Co4  1  0.00000000  0.50000000  0.50000000  1
  Co  Co5  1  0.00000000  0.00000000  0.50000000  1
  Co  Co6  1  0.75000000  0.67100800  0.02441400  1
  Co  Co7  1  0.75000000  0.35321200  0.32878700  1
  Co  Co8  1  0.75000000  0.97569800  0.64676600  1
  Co  Co9  1  0.75000000  0.35323400  0.02430200  1
  Co  Co10  1  0.75000000  0.97558600  0.32899200  1
  Co  Co11  1  0.75000000  0.67121300  0.64678800  1
  Co  Co12  1  0.25000000  0.32899200  0.97558600  1
  Co  Co13  1  0.25000000  0.64678800  0.67121300  1
  Co  Co14  1  0.25000000  0.02430200  0.35323400  1
  Co  Co15  1  0.25000000  0.64676600  0.97569800  1
  Co  Co16  1  0.25000000  0.02441400  0.67100800  1
  Co  Co17  1  0.25000000  0.32878700  0.35321200  1
  Co  Co18  1  0.48195700  0.83772400  0.67544600  1
  Co  Co19  1  0.48202900  0.83769000  0.16231000  1
  Co  Co20  1  0.48195700  0.32455400  0.16227600  1
  Co  Co21  1  0.51804300  0.16227600  0.32455400  1
  Co  Co22  1  0.51797100  0.16231000  0.83769000  1
  Co  Co23  1  0.51804300  0.67544600  0.83772400  1
  Co  Co24  1  0.98195700  0.16227600  0.32455400  1
  Co  Co25  1  0.98202900  0.16231000  0.83769000  1
  Co  Co26  1  0.98195700  0.67544600  0.83772400  1
  Co  Co27  1  0.01804300  0.83772400  0.67544600  1
  Co  Co28  1  0.01797100  0.83769000  0.16231000  1
  Co  Co29  1  0.01804300  0.32455400  0.16227600  1
  Ge  Ge0  1  0.60087500  0.66671900  0.33328100  1
  Ge  Ge1  1  0.39912500  0.33328100  0.66671900  1
  Ge  Ge2  1  0.10087500  0.33328100  0.66671900  1
  Ge  Ge3  1  0.89912500  0.66671900  0.33328100  1
loop_
_geom_bond_atom_site_label_1
_geom_bond_atom_site_label_2
_geom_bond_distance
_geom_bond_site_symmetry_2
Co0 Co22 2.397561 1_554
Co0 Co19 2.397561 1_555
Co0 Co20 2.399881 1_555
Co0 Co23 2.399881 1_554
Co0 Co6 2.446692 1_555
Co0 Co12 2.446692 1_554
Co0 Co9 2.447327 1_555
Co0 Co15 2.447327 1_554
Co0 Ge0 2.503883 1_555
Co0 Ge1 2.503883 1_554
Co0 U3 3.136986 1_554
Co0 U2 3.136986 1_555
Co1 Co23 2.397738 1_555
Co1 Co18 2.397738 1_555
Co1 Co21 2.397738 1_555
Co1 Co20 2.397738 1_555
Co1 Co13 2.447060 1_555
Co1 Co11 2.447060 1_555
Co1 Co7 2.447060 1_555
Co1 Co17 2.447060 1_555
Co1 Ge0 2.506896 1_555
Co1 Ge1 2.506896 1_555
Co1 U3 3.140031 1_555
Co1 U2 3.140031 1_555
Co2 Co22 2.397561 1_555
Co2 Co21 2.399881 1_555
Co2 Co8 2.447327 1_545
Co2 Ge0 2.503883 1_545
Co2 Ge1 2.503883 1_555
Co2 U2 3.136986 1_545
Co2 U3 3.136986 1_555
Co3 Co6 2.446692 1_455
Co3 Co9 2.447327 1_455
Co3 Ge2 2.503883 1_554
Co3 Ge3 2.503883 1_455
Co3 U2 3.136986 1_555
Co3 U3 3.136986 1_454
Co4 Co7 2.447060 1_455
Co4 Ge2 2.506896 1_555
Co4 Ge3 2.506896 1_455
Co4 U3 3.140031 1_455
Co4 U2 3.140031 1_555
Co5 Co8 2.447327 1_445
Co5 Ge2 2.503883 1_555
Co5 Ge3 2.503883 1_445
Co5 U2 3.136986 1_545
Co5 U3 3.136986 1_455
Co6 Co9 2.600546 1_555
Co6 U0 2.797911 1_555
Co6 Ge3 2.828394 1_555
Co6 Ge0 2.828394 1_555
Co6 U3 2.847029 1_554
Co7 Co9 2.492324 1_555
Co7 U0 2.794046 1_545
Co7 Ge3 2.830184 1_555
Co7 Ge0 2.830184 1_555
Co7 U3 2.851715 1_555
Co8 U0 2.797251 1_556
Co8 Ge3 2.827988 1_555
Co8 Ge0 2.827988 1_555
Co8 U3 2.848076 1_565
Co9 U0 2.797251 1_545
Co9 Ge3 2.827988 1_555
Co9 Ge0 2.827988 1_555
Co9 U3 2.848076 1_554
Co10 Co2 2.446692 1_565
Co10 Co5 2.446692 1_665
Co10 Co24 2.462835 1_565
Co10 Co21 2.462835 1_565
Co10 Co6 2.490799 1_555
Co10 Co19 2.548648 1_555
Co10 Co28 2.548648 1_655
Co10 Co8 2.600546 1_555
Co10 U0 2.797911 1_555
Co10 Ge3 2.828394 1_555
Co10 Ge0 2.828394 1_555
Co10 U3 2.847029 1_565
Co11 Co4 2.447060 1_655
Co11 Co26 2.462318 1_555
Co11 Co23 2.462318 1_555
Co11 Co8 2.492324 1_555
Co11 Co27 2.549086 1_655
Co11 Co18 2.549086 1_555
Co11 Co7 2.600570 1_555
Co11 U0 2.794046 1_556
Co11 Ge3 2.830184 1_555
Co11 Ge0 2.830184 1_555
Co11 U3 2.851715 1_555
Co12 Co3 2.446692 1_556
Co12 Co20 2.462835 1_556
Co12 Co29 2.462835 1_556
Co12 Co16 2.490799 1_555
Co12 Co22 2.548648 1_555
Co12 Co25 2.548648 1_455
Co12 Co15 2.600546 1_555
Co12 U1 2.797911 1_555
Co12 Ge1 2.828394 1_555
Co12 Ge2 2.828394 1_555
Co12 U2 2.847029 1_556
Co13 Co4 2.447060 1_555
Co13 Co18 2.462318 1_555
Co13 Co27 2.462318 1_555
Co13 Co15 2.492324 1_555
Co13 Co23 2.549086 1_555
Co13 Co26 2.549086 1_455
Co13 Co17 2.600570 1_555
Co13 U1 2.794046 1_565
Co13 Ge1 2.830184 1_555
Co13 Ge2 2.830184 1_555
Co13 U2 2.851715 1_555
Co14 Co2 2.447327 1_555
Co14 Co5 2.447327 1_555
Co14 Co19 2.461689 1_545
Co14 Co28 2.461689 1_545
Co14 Co17 2.492324 1_555
Co14 Co21 2.549829 1_555
Co14 Co24 2.549829 1_455
Co14 Co16 2.600546 1_555
Co14 U1 2.797251 1_554
Co14 Ge1 2.827988 1_555
Co14 Ge2 2.827988 1_555
Co14 U2 2.848076 1_545
Co15 Co3 2.447327 1_556
Co15 Co19 2.461689 1_556
Co15 Co28 2.461689 1_556
Co15 Co23 2.549829 1_555
Co15 Co26 2.549829 1_455
Co15 U1 2.797251 1_565
Co15 Ge1 2.827988 1_555
Co15 Ge2 2.827988 1_555
Co15 U2 2.848076 1_556
Co16 Co5 2.446692 1_555
Co16 Co2 2.446692 1_555
Co16 Co18 2.462835 1_545
Co16 Co27 2.462835 1_545
Co16 Co22 2.548648 1_555
Co16 Co25 2.548648 1_455
Co16 U1 2.797911 1_555
Co16 Ge1 2.828394 1_555
Co16 Ge2 2.828394 1_555
Co16 U2 2.847029 1_545
Co17 Co4 2.447060 1_555
Co17 Co20 2.462318 1_555
Co17 Co29 2.462318 1_555
Co17 Co21 2.549086 1_555
Co17 Co24 2.549086 1_455
Co17 U1 2.794046 1_554
Co17 Ge1 2.830184 1_555
Co17 Ge2 2.830184 1_555
Co17 U2 2.851715 1_555
Co18 Co22 2.318649 1_565
Co18 Co23 2.320523 1_555
Co18 Co2 2.399881 1_565
Co18 Co8 2.549829 1_555
Co18 Ge0 2.615601 1_555
Co18 U1 2.993199 1_565
Co18 U2 3.090440 1_555
Co18 U0 3.192649 1_556
Co19 Co21 2.318649 1_565
Co19 Co23 2.318649 1_554
Co19 Co2 2.397561 1_565
Co19 Co6 2.548648 1_555
Co19 Ge0 2.615891 1_555
Co19 U1 2.995954 1_564
Co19 U2 3.090576 1_555
Co19 U0 3.193604 1_555
Co20 Co22 2.318649 1_554
Co20 Co21 2.320523 1_555
Co20 Co7 2.549086 1_555
Co20 Co9 2.549829 1_555
Co20 Ge0 2.615601 1_555
Co20 U1 2.993199 1_554
Co20 U2 3.090440 1_555
Co20 U0 3.192649 1_545
Co21 Co7 2.462318 1_555
Co21 Ge1 2.615601 1_555
Co21 U0 2.993199 1_545
Co21 U3 3.090440 1_555
Co21 U1 3.192649 1_554
Co22 Co9 2.461689 1_556
Co22 Co8 2.461689 1_545
Co22 Ge1 2.615891 1_555
Co22 U0 2.995954 1_546
Co22 U3 3.090576 1_555
Co22 U1 3.193604 1_555
Co23 Co6 2.462835 1_556
Co23 Ge1 2.615601 1_555
Co23 U0 2.993199 1_556
Co23 U3 3.090440 1_555
Co23 U1 3.192649 1_565
Co24 Co28 2.318649 1_645
Co24 Co29 2.320523 1_655
Co24 Co4 2.397738 1_655
Co24 Co5 2.399881 1_655
Co24 Co7 2.462318 1_555
Co24 Ge2 2.615601 1_655
Co24 U0 2.993199 1_545
Co24 U3 3.090440 1_555
Co24 U1 3.192649 1_654
Co25 Co29 2.318649 1_656
Co25 Co27 2.318649 1_645
Co25 Co3 2.397561 1_656
Co25 Co5 2.397561 1_655
Co25 Co9 2.461689 1_556
Co25 Co8 2.461689 1_545
Co25 Ge2 2.615891 1_655
Co25 U0 2.995954 1_546
Co25 U3 3.090576 1_555
Co25 U1 3.193604 1_655
Co26 Co28 2.318649 1_656
Co26 Co27 2.320523 1_655
Co26 Co4 2.397738 1_655
Co26 Co3 2.399881 1_656
Co26 Co6 2.462835 1_556
Co26 Ge2 2.615601 1_655
Co26 U0 2.993199 1_556
Co26 U3 3.090440 1_555
Co26 U1 3.192649 1_665
Co27 Co4 2.397738 1_555
Co27 Co5 2.399881 1_565
Co27 Co8 2.549829 1_455
Co27 Ge3 2.615601 1_455
Co27 U1 2.993199 1_565
Co27 U2 3.090440 1_555
Co27 U0 3.192649 1_456
Co28 Co3 2.397561 1_555
Co28 Co5 2.397561 1_565
Co28 Co6 2.548648 1_455
Co28 Ge3 2.615891 1_455
Co28 U1 2.995954 1_564
Co28 U2 3.090576 1_555
Co28 U0 3.193604 1_455
Co29 Co4 2.397738 1_555
Co29 Co3 2.399881 1_555
Co29 Co7 2.549086 1_455
Co29 Co9 2.549829 1_455
Co29 Ge3 2.615601 1_455
Co29 U1 2.993199 1_554
Co29 U2 3.090440 1_555
Co29 U0 3.192649 1_445
Ge0 Ge3 2.464452 1_555
Ge0 U2 2.899295 1_555
Ge1 Ge2 2.464452 1_555
Ge1 U3 2.899295 1_555
Ge2 U3 2.899295 1_455
Ge3 U2 2.899295 1_655
