# generated using pymatgen
data_HoSiNi
_symmetry_space_group_name_H-M   'P 1'
_cell_length_a   4.12711396
_cell_length_b   6.81025023
_cell_length_c   7.09971878
_cell_angle_alpha   90.00000000
_cell_angle_beta   90.00000000
_cell_angle_gamma   90.00000000
_symmetry_Int_Tables_number   1
_chemical_formula_structural   HoSiNi
_chemical_formula_sum   'Ho4 Si4 Ni4'
_cell_volume   199.54951529
_cell_formula_units_Z   4
loop_
 _symmetry_equiv_pos_site_id
 _symmetry_equiv_pos_as_xyz
  1  'x, y, z'
loop_
 _atom_site_type_symbol
 _atom_site_label
 _atom_site_symmetry_multiplicity
 _atom_site_fract_x
 _atom_site_fract_y
 _atom_site_fract_z
 _atom_site_occupancy
  Ho  Ho0  1  0.75000000  0.00917352  0.29772566  1
  Ho  Ho1  1  0.25000000  0.99082648  0.70227434  1
  Ho  Ho2  1  0.25000000  0.49082648  0.79772566  1
  Ho  Ho3  1  0.75000000  0.50917352  0.20227434  1
  Si  Si0  1  0.75000000  0.69271854  0.58905095  1
  Si  Si1  1  0.25000000  0.30728146  0.41094905  1
  Si  Si2  1  0.25000000  0.80728146  0.08905095  1
  Si  Si3  1  0.75000000  0.19271854  0.91094905  1
  Ni  Ni0  1  0.75000000  0.81543457  0.91957096  1
  Ni  Ni1  1  0.25000000  0.18456543  0.08042904  1
  Ni  Ni2  1  0.25000000  0.68456543  0.41957096  1
  Ni  Ni3  1  0.75000000  0.31543457  0.58042904  1
loop_
_geom_bond_atom_site_label_1
_geom_bond_atom_site_label_2
_geom_bond_distance
_geom_bond_site_symmetry_2
Ho0 Ni1 2.839907 1_555
Ho0 Ni1 2.839907 1_655
Ho0 Si2 2.888538 1_545
Ho0 Si2 2.888538 1_645
Ho0 Ni3 2.894601 1_555
Ho0 Si0 2.987072 1_545
Ho0 Ni0 2.991480 1_544
Ho0 Si1 3.004350 1_655
Ho0 Si1 3.004350 1_555
Ho0 Si3 3.017120 1_554
Ho0 Ni2 3.145415 1_545
Ho0 Ni2 3.145415 1_645
Ho1 Ni0 2.839907 1_555
Ho1 Ni0 2.839907 1_455
Ho1 Si3 2.888538 1_565
Ho1 Si3 2.888538 1_465
Ho1 Ni2 2.894601 1_555
Ho1 Si1 2.987072 1_565
Ho1 Ni1 2.991480 1_566
Ho1 Si0 3.004350 1_555
Ho1 Si0 3.004350 1_455
Ho1 Si2 3.017120 1_556
Ho1 Ni3 3.145415 1_565
Ho1 Ni3 3.145415 1_465
Ho2 Ni3 2.839907 1_455
Ho2 Ni3 2.839907 1_555
Ho2 Si0 2.888538 1_455
Ho2 Si0 2.888538 1_555
Ho2 Ni1 2.894601 1_556
Ho2 Si2 2.987072 1_556
Ho2 Ni2 2.991480 1_555
Ho2 Si3 3.004350 1_455
Ho2 Si3 3.004350 1_555
Ho2 Si1 3.017120 1_555
Ho2 Ni0 3.145415 1_555
Ho2 Ni0 3.145415 1_455
Ho3 Ni2 2.839907 1_555
Ho3 Ni2 2.839907 1_655
Ho3 Si1 2.888538 1_555
Ho3 Si1 2.888538 1_655
Ho3 Ni0 2.894601 1_554
Ho3 Si3 2.987072 1_554
Ho3 Ni3 2.991480 1_555
Ho3 Si2 3.004350 1_555
Ho3 Si2 3.004350 1_655
Ho3 Si0 3.017120 1_555
Ho3 Ni1 3.145415 1_655
Ho3 Ni1 3.145415 1_555
Ni0 Si2 2.389390 1_556
Ni0 Si2 2.389390 1_656
Ni0 Si0 2.490977 1_555
Ni0 Si3 2.570127 1_565
Ni1 Si3 2.389390 1_454
Ni1 Si3 2.389390 1_554
Ni1 Si1 2.490977 1_555
Ni1 Si2 2.570127 1_545
Ni2 Si0 2.389390 1_455
Ni2 Si0 2.389390 1_555
Ni2 Si2 2.490977 1_555
Ni2 Si1 2.570127 1_555
Ni3 Si1 2.389390 1_655
Ni3 Si1 2.389390 1_555
Ni3 Si3 2.490977 1_555
Ni3 Si0 2.570127 1_555
