# generated using pymatgen
data_SrZnRu5O11
_symmetry_space_group_name_H-M   'P 1'
_cell_length_a   11.87183688
_cell_length_b   11.87183688
_cell_length_c   13.54247200
_cell_angle_alpha   90.00000000
_cell_angle_beta   90.00000000
_cell_angle_gamma   119.99999374
_symmetry_Int_Tables_number   1
_chemical_formula_structural   SrZnRu5O11
_chemical_formula_sum   'Sr8 Zn8 Ru40 O88'
_cell_volume   1652.96800200
_cell_formula_units_Z   8
loop_
 _symmetry_equiv_pos_site_id
 _symmetry_equiv_pos_as_xyz
  1  'x, y, z'
loop_
 _atom_site_type_symbol
 _atom_site_label
 _atom_site_symmetry_multiplicity
 _atom_site_fract_x
 _atom_site_fract_y
 _atom_site_fract_z
 _atom_site_occupancy
  Sr  Sr0  1  0.33333300  0.66666700  0.75000000  1
  Sr  Sr1  1  0.66666700  0.33333300  0.25000000  1
  Sr  Sr2  1  0.82265900  0.67666800  0.75000000  1
  Sr  Sr3  1  0.32333200  0.14599100  0.75000000  1
  Sr  Sr4  1  0.85400900  0.17734100  0.75000000  1
  Sr  Sr5  1  0.17734100  0.32333200  0.25000000  1
  Sr  Sr6  1  0.67666800  0.85400900  0.25000000  1
  Sr  Sr7  1  0.14599100  0.82265900  0.25000000  1
  Zn  Zn0  1  0.66666700  0.33333300  0.75000000  1
  Zn  Zn1  1  0.33333300  0.66666700  0.25000000  1
  Zn  Zn2  1  0.15060200  0.82259400  0.75000000  1
  Zn  Zn3  1  0.17740600  0.32800800  0.75000000  1
  Zn  Zn4  1  0.67199200  0.84939800  0.75000000  1
  Zn  Zn5  1  0.84939800  0.17740600  0.25000000  1
  Zn  Zn6  1  0.82259400  0.67199200  0.25000000  1
  Zn  Zn7  1  0.32800800  0.15060200  0.25000000  1
  Ru  Ru0  1  0.00000000  0.00000000  0.64784800  1
  Ru  Ru1  1  0.00000000  0.00000000  0.14784800  1
  Ru  Ru2  1  0.00000000  0.00000000  0.35215200  1
  Ru  Ru3  1  0.00000000  0.00000000  0.85215200  1
  Ru  Ru4  1  0.96949900  0.72965200  0.50464200  1
  Ru  Ru5  1  0.27034800  0.23984700  0.50464200  1
  Ru  Ru6  1  0.76015300  0.03050100  0.50464200  1
  Ru  Ru7  1  0.03050100  0.27034800  0.00464200  1
  Ru  Ru8  1  0.72965200  0.76015300  0.00464200  1
  Ru  Ru9  1  0.23984700  0.96949900  0.00464200  1
  Ru  Ru10  1  0.03050100  0.27034800  0.49535800  1
  Ru  Ru11  1  0.72965200  0.76015300  0.49535800  1
  Ru  Ru12  1  0.23984700  0.96949900  0.49535800  1
  Ru  Ru13  1  0.96949900  0.72965200  0.99535800  1
  Ru  Ru14  1  0.27034800  0.23984700  0.99535800  1
  Ru  Ru15  1  0.76015300  0.03050100  0.99535800  1
  Ru  Ru16  1  0.50806000  0.50976800  0.65591100  1
  Ru  Ru17  1  0.49023200  0.99829200  0.65591100  1
  Ru  Ru18  1  0.00170800  0.49194000  0.65591100  1
  Ru  Ru19  1  0.49194000  0.49023200  0.15591100  1
  Ru  Ru20  1  0.50976800  0.00170800  0.15591100  1
  Ru  Ru21  1  0.99829200  0.50806000  0.15591100  1
  Ru  Ru22  1  0.49194000  0.49023200  0.34408900  1
  Ru  Ru23  1  0.50976800  0.00170800  0.34408900  1
  Ru  Ru24  1  0.99829200  0.50806000  0.34408900  1
  Ru  Ru25  1  0.50806000  0.50976800  0.84408900  1
  Ru  Ru26  1  0.49023200  0.99829200  0.84408900  1
  Ru  Ru27  1  0.00170800  0.49194000  0.84408900  1
  Ru  Ru28  1  0.75431600  0.51006700  0.50121500  1
  Ru  Ru29  1  0.48993300  0.24424900  0.50121500  1
  Ru  Ru30  1  0.75575100  0.24568400  0.50121500  1
  Ru  Ru31  1  0.24568400  0.48993300  0.00121500  1
  Ru  Ru32  1  0.51006700  0.75575100  0.00121500  1
  Ru  Ru33  1  0.24424900  0.75431600  0.00121500  1
  Ru  Ru34  1  0.24568400  0.48993300  0.49878500  1
  Ru  Ru35  1  0.51006700  0.75575100  0.49878500  1
  Ru  Ru36  1  0.24424900  0.75431600  0.49878500  1
  Ru  Ru37  1  0.75431600  0.51006700  0.99878500  1
  Ru  Ru38  1  0.48993300  0.24424900  0.99878500  1
  Ru  Ru39  1  0.75575100  0.24568400  0.99878500  1
  O  O0  1  0.89190100  0.82641800  0.57866600  1
  O  O1  1  0.17358200  0.06548300  0.57866600  1
  O  O2  1  0.93451700  0.10809900  0.57866600  1
  O  O3  1  0.10809900  0.17358200  0.07866600  1
  O  O4  1  0.82641800  0.93451700  0.07866600  1
  O  O5  1  0.06548300  0.89190100  0.07866600  1
  O  O6  1  0.10809900  0.17358200  0.42133400  1
  O  O7  1  0.82641800  0.93451700  0.42133400  1
  O  O8  1  0.06548300  0.89190100  0.42133400  1
  O  O9  1  0.89190100  0.82641800  0.92133400  1
  O  O10  1  0.17358200  0.06548300  0.92133400  1
  O  O11  1  0.93451700  0.10809900  0.92133400  1
  O  O12  1  0.41597600  0.83059400  0.57620300  1
  O  O13  1  0.16940600  0.58538200  0.57620300  1
  O  O14  1  0.41461800  0.58402400  0.57620300  1
  O  O15  1  0.58402400  0.16940600  0.07620300  1
  O  O16  1  0.83059400  0.41461800  0.07620300  1
  O  O17  1  0.58538200  0.41597600  0.07620300  1
  O  O18  1  0.58402400  0.16940600  0.42379700  1
  O  O19  1  0.83059400  0.41461800  0.42379700  1
  O  O20  1  0.58538200  0.41597600  0.42379700  1
  O  O21  1  0.41597600  0.83059400  0.92379700  1
  O  O22  1  0.16940600  0.58538200  0.92379700  1
  O  O23  1  0.41461800  0.58402400  0.92379700  1
  O  O24  1  0.42182500  0.32538900  0.60001600  1
  O  O25  1  0.67461100  0.09643600  0.60001600  1
  O  O26  1  0.90356400  0.57817500  0.60001600  1
  O  O27  1  0.57817500  0.67461100  0.10001600  1
  O  O28  1  0.32538900  0.90356400  0.10001600  1
  O  O29  1  0.09643600  0.42182500  0.10001600  1
  O  O30  1  0.57817500  0.67461100  0.39998400  1
  O  O31  1  0.32538900  0.90356400  0.39998400  1
  O  O32  1  0.09643600  0.42182500  0.39998400  1
  O  O33  1  0.42182500  0.32538900  0.89998400  1
  O  O34  1  0.67461100  0.09643600  0.89998400  1
  O  O35  1  0.90356400  0.57817500  0.89998400  1
  O  O36  1  0.93007400  0.33785400  0.57016000  1
  O  O37  1  0.66214600  0.59222100  0.57016000  1
  O  O38  1  0.40777900  0.06992600  0.57016000  1
  O  O39  1  0.06992600  0.66214600  0.07016000  1
  O  O40  1  0.33785400  0.40777900  0.07016000  1
  O  O41  1  0.59222100  0.93007400  0.07016000  1
  O  O42  1  0.06992600  0.66214600  0.42984000  1
  O  O43  1  0.33785400  0.40777900  0.42984000  1
  O  O44  1  0.59222100  0.93007400  0.42984000  1
  O  O45  1  0.93007400  0.33785400  0.92984000  1
  O  O46  1  0.66214600  0.59222100  0.92984000  1
  O  O47  1  0.40777900  0.06992600  0.92984000  1
  O  O48  1  0.04649300  0.90310000  0.75000000  1
  O  O49  1  0.09690000  0.14339300  0.75000000  1
  O  O50  1  0.85660700  0.95350700  0.75000000  1
  O  O51  1  0.95350700  0.09690000  0.25000000  1
  O  O52  1  0.90310000  0.85660700  0.25000000  1
  O  O53  1  0.14339300  0.04649300  0.25000000  1
  O  O54  1  0.61398100  0.46213100  0.75000000  1
  O  O55  1  0.53786900  0.15185000  0.75000000  1
  O  O56  1  0.84815000  0.38601900  0.75000000  1
  O  O57  1  0.38601900  0.53786900  0.25000000  1
  O  O58  1  0.46213100  0.84815000  0.25000000  1
  O  O59  1  0.15185000  0.61398100  0.25000000  1
  O  O60  1  0.54882400  0.90579000  0.75000000  1
  O  O61  1  0.09421000  0.64303300  0.75000000  1
  O  O62  1  0.35696700  0.45117600  0.75000000  1
  O  O63  1  0.45117600  0.09421000  0.25000000  1
  O  O64  1  0.90579000  0.35696700  0.25000000  1
  O  O65  1  0.64303300  0.54882400  0.25000000  1
  O  O66  1  0.33572500  0.91854900  0.75000000  1
  O  O67  1  0.08145100  0.41717600  0.75000000  1
  O  O68  1  0.58282400  0.66427500  0.75000000  1
  O  O69  1  0.66427500  0.08145100  0.25000000  1
  O  O70  1  0.91854900  0.58282400  0.25000000  1
  O  O71  1  0.41717600  0.33572500  0.25000000  1
  O  O72  1  0.66666700  0.33333300  0.92650000  1
  O  O73  1  0.33333300  0.66666700  0.42650000  1
  O  O74  1  0.33333300  0.66666700  0.07350000  1
  O  O75  1  0.66666700  0.33333300  0.57350000  1
  O  O76  1  0.13994200  0.81160200  0.91640600  1
  O  O77  1  0.18839800  0.32834000  0.91640600  1
  O  O78  1  0.67166000  0.86005800  0.91640600  1
  O  O79  1  0.86005800  0.18839800  0.41640600  1
  O  O80  1  0.81160200  0.67166000  0.41640600  1
  O  O81  1  0.32834000  0.13994200  0.41640600  1
  O  O82  1  0.86005800  0.18839800  0.08359400  1
  O  O83  1  0.81160200  0.67166000  0.08359400  1
  O  O84  1  0.32834000  0.13994200  0.08359400  1
  O  O85  1  0.13994200  0.81160200  0.58359400  1
  O  O86  1  0.18839800  0.32834000  0.58359400  1
  O  O87  1  0.67166000  0.86005800  0.58359400  1
loop_
_geom_bond_atom_site_label_1
_geom_bond_atom_site_label_2
_geom_bond_distance
_geom_bond_site_symmetry_2
O0 Ru11 2.021538 1_555
O0 Ru0 2.031439 1_665
O0 Ru4 2.057092 1_555
O0 Sr2 2.785435 1_555
O1 Ru12 2.021537 1_545
O1 Ru0 2.031439 1_555
O1 Ru5 2.057092 1_555
O1 Sr3 2.785435 1_555
O2 Ru10 2.021538 1_655
O2 Ru0 2.031438 1_655
O2 Ru6 2.057092 1_555
O2 Sr4 2.785435 1_555
O3 Ru14 2.021538 1_554
O3 Ru1 2.031439 1_555
O3 Ru7 2.057092 1_555
O3 Sr5 2.785435 1_555
O4 Ru15 2.021537 1_564
O4 Ru1 2.031439 1_665
O4 Ru8 2.057092 1_555
O4 Sr6 2.785435 1_555
O5 Ru13 2.021538 1_454
O5 Ru1 2.031438 1_565
O5 Ru9 2.057092 1_555
O5 Sr7 2.785435 1_555
O6 Ru5 2.021538 1_555
O6 Ru2 2.031439 1_555
O6 Ru10 2.057092 1_555
O6 Sr5 2.785435 1_555
O7 Ru6 2.021537 1_565
O7 Ru2 2.031439 1_665
O7 Ru11 2.057092 1_555
O7 Sr6 2.785435 1_555
O8 Ru4 2.021538 1_455
O8 Ru2 2.031438 1_565
O8 Ru12 2.057092 1_555
O8 Sr7 2.785435 1_555
O9 Ru8 2.021538 1_556
O9 Ru3 2.031439 1_665
O9 Ru13 2.057092 1_555
O9 Sr2 2.785435 1_555
O10 Ru9 2.021537 1_546
O10 Ru3 2.031439 1_555
O10 Ru14 2.057092 1_555
O10 Sr3 2.785435 1_555
O11 Ru7 2.021538 1_656
O11 Ru3 2.031438 1_655
O11 Ru15 2.057092 1_555
O11 Sr4 2.785435 1_555
O12 Ru35 2.031983 1_555
O12 Ru17 2.037371 1_555
O12 Ru36 2.056557 1_555
O12 Sr0 2.894860 1_555
O13 Ru36 2.031983 1_555
O13 Ru18 2.037371 1_555
O13 Ru34 2.056557 1_555
O13 Sr0 2.894860 1_555
O14 Ru34 2.031983 1_555
O14 Ru16 2.037371 1_555
O14 Ru35 2.056557 1_555
O14 Sr0 2.894866 1_555
O15 Ru38 2.031983 1_554
O15 Ru20 2.037371 1_555
O15 Ru39 2.056557 1_554
O15 Sr1 2.894860 1_555
O16 Ru39 2.031983 1_554
O16 Ru21 2.037371 1_555
O16 Ru37 2.056557 1_554
O16 Sr1 2.894860 1_555
O17 Ru37 2.031983 1_554
O17 Ru19 2.037371 1_555
O17 Ru38 2.056557 1_554
O17 Sr1 2.894866 1_555
O18 Ru29 2.031983 1_555
O18 Ru23 2.037371 1_555
O18 Ru30 2.056557 1_555
O18 Sr1 2.894860 1_555
O19 Ru30 2.031983 1_555
O19 Ru24 2.037371 1_555
O19 Ru28 2.056557 1_555
O19 Sr1 2.894860 1_555
O20 Ru28 2.031983 1_555
O20 Ru22 2.037371 1_555
O20 Ru29 2.056557 1_555
O20 Sr1 2.894866 1_555
O21 Ru32 2.031983 1_556
O21 Ru26 2.037371 1_555
O21 Ru33 2.056557 1_556
O21 Sr0 2.894860 1_555
O22 Ru33 2.031983 1_556
O22 Ru27 2.037371 1_555
O22 Ru31 2.056557 1_556
O22 Sr0 2.894860 1_555
O23 Ru31 2.031983 1_556
O23 Ru25 2.037371 1_555
O23 Ru32 2.056557 1_556
O23 Sr0 2.894866 1_555
O24 Ru5 2.026627 1_555
O24 Ru29 2.037361 1_555
O24 Ru16 2.042425 1_555
O24 Sr3 2.745628 1_555
O25 Ru6 2.026627 1_555
O25 Ru30 2.037361 1_555
O25 Ru17 2.042425 1_545
O25 Sr4 2.745628 1_555
O26 Ru4 2.026627 1_555
O26 Ru28 2.037361 1_555
O26 Ru18 2.042425 1_655
O26 Sr2 2.745628 1_555
O27 Ru8 2.026627 1_555
O27 Ru32 2.037361 1_555
O27 Ru19 2.042425 1_555
O27 Sr6 2.745628 1_555
O28 Ru9 2.026627 1_555
O28 Ru33 2.037361 1_555
O28 Ru20 2.042425 1_565
O28 Sr7 2.745628 1_555
O29 Ru7 2.026627 1_555
O29 Ru31 2.037361 1_555
O29 Ru21 2.042425 1_455
O29 Sr5 2.745628 1_555
O30 Ru11 2.026627 1_555
O30 Ru35 2.037361 1_555
O30 Ru22 2.042425 1_555
O30 Sr6 2.745628 1_555
O31 Ru12 2.026627 1_555
O31 Ru36 2.037361 1_555
O31 Ru23 2.042425 1_565
O31 Sr7 2.745628 1_555
O32 Ru10 2.026627 1_555
O32 Ru34 2.037361 1_555
O32 Ru24 2.042425 1_455
O32 Sr5 2.745628 1_555
O33 Ru14 2.026627 1_555
O33 Ru38 2.037361 1_555
O33 Ru25 2.042425 1_555
O33 Sr3 2.745628 1_555
O34 Ru15 2.026627 1_555
O34 Ru39 2.037361 1_555
O34 Ru26 2.042425 1_545
O34 Sr4 2.745628 1_555
O35 Ru13 2.026627 1_555
O35 Ru37 2.037361 1_555
O35 Ru27 2.042425 1_655
O35 Sr2 2.745628 1_555
O36 Ru18 1.965300 1_655
O36 Ru10 2.011321 1_655
O36 Ru30 2.021765 1_555
O36 Sr4 2.942358 1_555
O37 Ru16 1.965301 1_555
O37 Ru11 2.011312 1_555
O37 Ru28 2.021774 1_555
O37 Sr2 2.942357 1_555
O38 Ru17 1.965309 1_545
O38 Ru12 2.011313 1_545
O38 Ru29 2.021765 1_555
O38 Sr3 2.942352 1_555
O39 Ru21 1.965300 1_455
O39 Ru13 2.011321 1_454
O39 Ru33 2.021765 1_555
O39 Sr7 2.942358 1_555
O40 Ru19 1.965301 1_555
O40 Ru14 2.011312 1_554
O40 Ru31 2.021774 1_555
O40 Sr5 2.942357 1_555
O41 Ru20 1.965309 1_565
O41 Ru15 2.011313 1_564
O41 Ru32 2.021765 1_555
O41 Sr6 2.942352 1_555
O42 Ru24 1.965300 1_455
O42 Ru4 2.011321 1_455
O42 Ru36 2.021765 1_555
O42 Sr7 2.942358 1_555
O43 Ru22 1.965301 1_555
O43 Ru5 2.011312 1_555
O43 Ru34 2.021774 1_555
O43 Sr5 2.942357 1_555
O44 Ru23 1.965309 1_565
O44 Ru6 2.011313 1_565
O44 Ru35 2.021765 1_555
O44 Sr6 2.942352 1_555
O45 Ru27 1.965300 1_655
O45 Ru7 2.011321 1_656
O45 Ru39 2.021765 1_555
O45 Sr4 2.942358 1_555
O46 Ru25 1.965301 1_555
O46 Ru8 2.011312 1_556
O46 Ru37 2.021774 1_555
O46 Sr2 2.942357 1_555
O47 Ru26 1.965309 1_545
O47 Ru9 2.011313 1_546
O47 Ru38 2.021765 1_555
O47 Sr3 2.942352 1_555
O48 Zn2 1.903248 1_555
O48 Ru3 2.043713 1_565
O48 Ru0 2.043713 1_565
O48 Sr2 2.672876 1_455
O48 Sr3 3.104756 1_565
O49 Zn3 1.903248 1_555
O49 Ru3 2.043713 1_555
O49 Ru0 2.043713 1_555
O49 Sr3 2.672876 1_555
O49 Sr4 3.104756 1_455
O50 Zn4 1.903248 1_555
O50 Ru3 2.043713 1_665
O50 Ru0 2.043713 1_665
O50 Sr4 2.672876 1_565
O50 Sr2 3.104756 1_555
O51 Zn5 1.903248 1_555
O51 Ru2 2.043713 1_655
O51 Ru1 2.043713 1_655
O51 Sr5 2.672876 1_655
O51 Sr6 3.104756 1_545
O52 Zn6 1.903248 1_555
O52 Ru2 2.043713 1_665
O52 Ru1 2.043713 1_665
O52 Sr6 2.672876 1_555
O52 Sr7 3.104756 1_655
O53 Zn7 1.903248 1_555
O53 Ru1 2.043713 1_555
O53 Ru2 2.043713 1_555
O53 Sr7 2.672876 1_545
O53 Sr5 3.104756 1_555
O54 Zn0 1.919812 1_555
O54 Ru16 2.058109 1_555
O54 Ru25 2.058109 1_555
O54 Sr2 2.512892 1_555
O55 Zn0 1.919803 1_555
O55 Ru26 2.058109 1_545
O55 Ru17 2.058109 1_545
O55 Sr3 2.512892 1_555
O56 Zn0 1.919801 1_555
O56 Ru27 2.058109 1_655
O56 Ru18 2.058109 1_655
O56 Sr4 2.512892 1_555
O57 Zn1 1.919812 1_555
O57 Ru22 2.058109 1_555
O57 Ru19 2.058109 1_555
O57 Sr5 2.512892 1_555
O58 Zn1 1.919803 1_555
O58 Ru23 2.058109 1_565
O58 Ru20 2.058109 1_565
O58 Sr6 2.512892 1_555
O59 Zn1 1.919801 1_555
O59 Ru24 2.058109 1_455
O59 Ru21 2.058109 1_455
O59 Sr7 2.512892 1_555
O60 Zn4 1.888186 1_555
O60 Ru26 2.019229 1_555
O60 Ru17 2.019229 1_555
O60 Sr0 2.709468 1_555
O61 Zn2 1.888197 1_555
O61 Ru18 2.019222 1_555
O61 Ru27 2.019222 1_555
O61 Sr0 2.709458 1_555
O62 Zn3 1.888195 1_555
O62 Ru16 2.019221 1_555
O62 Ru25 2.019221 1_555
O62 Sr0 2.709481 1_555
O63 Zn7 1.888186 1_555
O63 Ru23 2.019229 1_555
O63 Ru20 2.019229 1_555
O63 Sr1 2.709468 1_555
O64 Zn5 1.888197 1_555
O64 Ru24 2.019222 1_555
O64 Ru21 2.019222 1_555
O64 Sr1 2.709458 1_555
O65 Zn6 1.888195 1_555
O65 Ru22 2.019221 1_555
O65 Ru19 2.019221 1_555
O65 Sr1 2.709481 1_555
O66 Zn2 1.903734 1_555
O66 Ru26 2.036638 1_555
O66 Ru17 2.036638 1_555
O66 Sr3 2.776643 1_565
O66 Sr0 2.976205 1_555
O67 Zn3 1.903734 1_555
O67 Ru27 2.036638 1_555
O67 Ru18 2.036638 1_555
O67 Sr4 2.776643 1_455
O67 Sr0 2.976211 1_555
O68 Zn4 1.903734 1_555
O68 Ru25 2.036638 1_555
O68 Ru16 2.036638 1_555
O68 Sr2 2.776643 1_555
O68 Sr0 2.976217 1_555
O69 Zn5 1.903734 1_555
O69 Ru23 2.036638 1_555
O69 Ru20 2.036638 1_555
O69 Sr6 2.776643 1_545
O69 Sr1 2.976205 1_555
O70 Zn6 1.903734 1_555
O70 Ru24 2.036638 1_555
O70 Ru21 2.036638 1_555
O70 Sr7 2.776643 1_655
O70 Sr1 2.976211 1_555
O71 Zn7 1.903734 1_555
O71 Ru22 2.036638 1_555
O71 Ru19 2.036638 1_555
O71 Sr5 2.776643 1_555
O71 Sr1 2.976217 1_555
O72 Ru39 2.063980 1_555
O72 Ru38 2.063989 1_555
O72 Ru37 2.063989 1_555
O72 Zn0 2.390246 1_555
O73 Ru36 2.063980 1_555
O73 Ru35 2.063989 1_555
O73 Ru34 2.063989 1_555
O73 Zn1 2.390246 1_555
O74 Ru33 2.063980 1_555
O74 Ru32 2.063989 1_555
O74 Ru31 2.063989 1_555
O74 Zn1 2.390246 1_555
O75 Ru30 2.063980 1_555
O75 Ru29 2.063989 1_555
O75 Ru28 2.063989 1_555
O75 Zn0 2.390246 1_555
O76 Ru9 2.031048 1_556
O76 Ru33 2.038926 1_556
O76 Ru13 2.053177 1_455
O76 Zn2 2.257213 1_555
O77 Ru7 2.031047 1_556
O77 Ru31 2.038926 1_556
O77 Ru14 2.053177 1_555
O77 Zn3 2.257213 1_555
O78 Ru8 2.031047 1_556
O78 Ru32 2.038926 1_556
O78 Ru15 2.053177 1_565
O78 Zn4 2.257213 1_555
O79 Ru6 2.031048 1_555
O79 Ru30 2.038926 1_555
O79 Ru10 2.053177 1_655
O79 Zn5 2.257213 1_555
O80 Ru4 2.031047 1_555
O80 Ru28 2.038926 1_555
O80 Ru11 2.053177 1_555
O80 Zn6 2.257213 1_555
O81 Ru5 2.031047 1_555
O81 Ru29 2.038926 1_555
O81 Ru12 2.053177 1_545
O81 Zn7 2.257213 1_555
O82 Ru15 2.031048 1_554
O82 Ru39 2.038926 1_554
O82 Ru7 2.053177 1_655
O82 Zn5 2.257213 1_555
O83 Ru13 2.031047 1_554
O83 Ru37 2.038926 1_554
O83 Ru8 2.053177 1_555
O83 Zn6 2.257213 1_555
O84 Ru14 2.031047 1_554
O84 Ru38 2.038926 1_554
O84 Ru9 2.053177 1_545
O84 Zn7 2.257213 1_555
O85 Ru12 2.031048 1_555
O85 Ru36 2.038926 1_555
O85 Ru4 2.053177 1_455
O85 Zn2 2.257213 1_555
O86 Ru10 2.031047 1_555
O86 Ru34 2.038926 1_555
O86 Ru5 2.053177 1_555
O86 Zn3 2.257213 1_555
O87 Ru11 2.031047 1_555
O87 Ru35 2.038926 1_555
O87 Ru6 2.053177 1_565
O87 Zn4 2.257213 1_555
