# generated using pymatgen
data_Na3PO4
_symmetry_space_group_name_H-M   'P 1'
_cell_length_a   6.79119010
_cell_length_b   5.39509988
_cell_length_c   5.85404953
_cell_angle_alpha   89.91869927
_cell_angle_beta   90.00000000
_cell_angle_gamma   90.00000000
_symmetry_Int_Tables_number   1
_chemical_formula_structural   Na3PO4
_chemical_formula_sum   'Na6 P2 O8'
_cell_volume   214.48717653
_cell_formula_units_Z   2
loop_
 _symmetry_equiv_pos_site_id
 _symmetry_equiv_pos_as_xyz
  1  'x, y, z'
loop_
 _atom_site_type_symbol
 _atom_site_label
 _atom_site_symmetry_multiplicity
 _atom_site_fract_x
 _atom_site_fract_y
 _atom_site_fract_z
 _atom_site_occupancy
  Na  Na0  1  0.24314344  0.49256454  0.06797644  1
  Na  Na1  1  0.50000000  0.49098979  0.59806144  1
  Na  Na2  1  0.25649700  0.99285702  0.42652667  1
  Na  Na3  1  0.74350300  0.99285702  0.42652667  1
  Na  Na4  1  0.75685656  0.49256454  0.06797644  1
  Na  Na5  1  0.00000000  0.99021261  0.89560472  1
  P  P0  1  0.50000000  0.00191136  0.92932391  1
  P  P1  1  0.00000000  0.50165839  0.56562583  1
  O  O0  1  0.00000000  0.41032414  0.81608198  1
  O  O1  1  0.50000000  0.28727072  0.93375987  1
  O  O2  1  0.81305585  0.40638360  0.44203585  1
  O  O3  1  0.18694415  0.40638360  0.44203585  1
  O  O4  1  0.50000000  0.91073984  0.67903934  1
  O  O5  1  0.31300096  0.90648869  0.05316920  1
  O  O6  1  0.68699904  0.90648869  0.05316920  1
  O  O7  1  0.00000000  0.78697344  0.56079057  1
loop_
_geom_bond_atom_site_label_1
_geom_bond_atom_site_label_2
_geom_bond_distance
_geom_bond_site_symmetry_2
Na0 O1 2.211186 1_554
Na0 O0 2.258262 1_554
Na0 O3 2.270246 1_555
Na0 O5 2.284524 1_555
Na1 O1 2.250300 1_555
Na1 O4 2.314336 1_555
Na1 O2 2.358765 1_555
Na1 O3 2.358765 1_555
Na2 O7 2.209836 1_555
Na2 O4 2.261459 1_555
Na2 O5 2.268114 1_555
Na2 O3 2.282404 1_565
Na3 O7 2.209836 1_655
Na3 O4 2.261459 1_555
Na3 O6 2.268114 1_555
Na3 O2 2.282404 1_565
Na4 O1 2.211186 1_554
Na4 O0 2.258262 1_654
Na4 O2 2.270246 1_555
Na4 O6 2.284524 1_555
Na5 O7 2.247237 1_555
Na5 O0 2.313211 1_565
Na5 O6 2.360516 1_456
Na5 O5 2.360516 1_556
O0 P1 1.546108 1_555
O1 P0 1.539798 1_555
O2 P1 1.549368 1_655
O3 P1 1.549368 1_555
O4 P0 1.546201 1_565
O5 P0 1.549954 1_564
O6 P0 1.549954 1_564
O7 P1 1.539523 1_555
