# generated using pymatgen
data_LaY(MnSi)4
_symmetry_space_group_name_H-M   'P 1'
_cell_length_a   3.93065152
_cell_length_b   3.93065152
_cell_length_c   10.76242994
_cell_angle_alpha   90.00000000
_cell_angle_beta   90.00000000
_cell_angle_gamma   90.00000000
_symmetry_Int_Tables_number   1
_chemical_formula_structural   LaY(MnSi)4
_chemical_formula_sum   'La1 Y1 Mn4 Si4'
_cell_volume   166.27977258
_cell_formula_units_Z   1
loop_
 _symmetry_equiv_pos_site_id
 _symmetry_equiv_pos_as_xyz
  1  'x, y, z'
loop_
 _atom_site_type_symbol
 _atom_site_label
 _atom_site_symmetry_multiplicity
 _atom_site_fract_x
 _atom_site_fract_y
 _atom_site_fract_z
 _atom_site_occupancy
  La  La0  1  -0.00000000  -0.00000000  -0.00000000  1
  Y  Y0  1  0.50000000  0.50000000  0.50000000  1
  Mn  Mn0  1  -0.00000000  0.50000000  0.25782832  1
  Mn  Mn1  1  0.50000000  0.00000000  0.74217168  1
  Mn  Mn2  1  0.50000000  0.00000000  0.25782832  1
  Mn  Mn3  1  0.00000000  0.50000000  0.74217168  1
  Si  Si0  1  0.50000000  0.50000000  0.13117058  1
  Si  Si1  1  -0.00000000  0.00000000  0.61444843  1
  Si  Si2  1  0.00000000  -0.00000000  0.38555157  1
  Si  Si3  1  0.50000000  0.50000000  0.86882942  1
loop_
_geom_bond_atom_site_label_1
_geom_bond_atom_site_label_2
_geom_bond_distance
_geom_bond_site_symmetry_2
La0 Si0 3.117362 1_455
La0 Si3 3.117362 1_444
La0 Si3 3.117362 1_454
La0 Si3 3.117362 1_554
La0 Si3 3.117362 1_544
La0 Si0 3.117362 1_445
La0 Si0 3.117362 1_555
La0 Si0 3.117362 1_545
Mn0 Si0 2.391792 1_455
Mn0 Si0 2.391792 1_555
Mn0 Si2 2.398346 1_555
Mn0 Si2 2.398346 1_565
Mn0 Y0 3.264291 1_555
Mn0 Y0 3.264291 1_455
Mn1 Si3 2.391792 1_545
Mn1 Si3 2.391792 1_555
Mn1 Si1 2.398346 1_655
Mn1 Si1 2.398346 1_555
Mn1 Y0 3.264291 1_555
Mn1 Y0 3.264291 1_545
Mn2 Si0 2.391792 1_555
Mn2 Si0 2.391792 1_545
Mn2 Si2 2.398346 1_555
Mn2 Si2 2.398346 1_655
Mn2 Y0 3.264291 1_555
Mn2 Y0 3.264291 1_545
Mn3 Si3 2.391792 1_555
Mn3 Si3 2.391792 1_455
Mn3 Si1 2.398346 1_565
Mn3 Si1 2.398346 1_555
Mn3 Y0 3.264291 1_555
Mn3 Y0 3.264291 1_455
Si0 Si3 2.823428 1_554
Si1 Si2 2.463486 1_555
Si1 Y0 3.040099 1_455
Si1 Y0 3.040099 1_445
Si1 Y0 3.040099 1_545
Si1 Y0 3.040099 1_555
Si2 Y0 3.040099 1_455
Si2 Y0 3.040099 1_445
Si2 Y0 3.040099 1_545
Si2 Y0 3.040099 1_555
