# generated using pymatgen
data_CaUI6
_symmetry_space_group_name_H-M   'P 1'
_cell_length_a   7.66277764
_cell_length_b   7.66277764
_cell_length_c   14.15339300
_cell_angle_alpha   90.00000000
_cell_angle_beta   90.00000000
_cell_angle_gamma   119.99999692
_symmetry_Int_Tables_number   1
_chemical_formula_structural   CaUI6
_chemical_formula_sum   'Ca2 U2 I12'
_cell_volume   719.72014393
_cell_formula_units_Z   2
loop_
 _symmetry_equiv_pos_site_id
 _symmetry_equiv_pos_as_xyz
  1  'x, y, z'
loop_
 _atom_site_type_symbol
 _atom_site_label
 _atom_site_symmetry_multiplicity
 _atom_site_fract_x
 _atom_site_fract_y
 _atom_site_fract_z
 _atom_site_occupancy
  Ca  Ca0  1  0.66666700  0.33333300  0.75000000  1
  Ca  Ca1  1  0.33333300  0.66666700  0.25000000  1
  U  U0  1  0.00000000  0.00000000  0.50000000  1
  U  U1  1  0.00000000  0.00000000  0.00000000  1
  I  I0  1  0.67729500  0.99626800  0.62384900  1
  I  I1  1  0.32270500  0.00373200  0.37615100  1
  I  I2  1  0.00373200  0.68102600  0.62384900  1
  I  I3  1  0.67729500  0.68102600  0.87615100  1
  I  I4  1  0.99626800  0.31897400  0.37615100  1
  I  I5  1  0.32270500  0.31897400  0.12384900  1
  I  I6  1  0.31897400  0.32270500  0.62384900  1
  I  I7  1  0.00373200  0.32270500  0.87615100  1
  I  I8  1  0.68102600  0.67729500  0.37615100  1
  I  I9  1  0.99626800  0.67729500  0.12384900  1
  I  I10  1  0.31897400  0.99626800  0.87615100  1
  I  I11  1  0.68102600  0.00373200  0.12384900  1
loop_
_geom_bond_atom_site_label_1
_geom_bond_atom_site_label_2
_geom_bond_distance
_geom_bond_site_symmetry_2
Ca0 I7 3.174272 1_655
Ca0 I0 3.174272 1_545
Ca0 I6 3.174272 1_555
Ca0 I3 3.174272 1_555
Ca0 I2 3.174272 1_655
Ca0 I10 3.174272 1_545
Ca1 I1 3.174272 1_565
Ca1 I9 3.174272 1_455
Ca1 I8 3.174272 1_555
Ca1 I5 3.174272 1_555
Ca1 I4 3.174272 1_455
Ca1 I11 3.174272 1_565
I0 U0 3.019524 1_665
I1 U0 3.019524 1_555
I2 U0 3.019530 1_565
I3 U1 3.019527 1_666
I4 U0 3.019530 1_655
I5 U1 3.019527 1_555
I6 U0 3.019527 1_555
I7 U1 3.019524 1_556
I8 U0 3.019527 1_665
I9 U1 3.019524 1_665
I10 U1 3.019530 1_566
I11 U1 3.019530 1_655
