# generated using pymatgen
data_Ca3Pr2Sb3O14
_symmetry_space_group_name_H-M   'P 1'
_cell_length_a   7.55257198
_cell_length_b   7.55257198
_cell_length_c   7.50545808
_cell_angle_alpha   60.68972170
_cell_angle_beta   60.68972170
_cell_angle_gamma   60.55803658
_symmetry_Int_Tables_number   1
_chemical_formula_structural   Ca3Pr2Sb3O14
_chemical_formula_sum   'Ca3 Pr2 Sb3 O14'
_cell_volume   307.14075915
_cell_formula_units_Z   1
loop_
 _symmetry_equiv_pos_site_id
 _symmetry_equiv_pos_as_xyz
  1  'x, y, z'
loop_
 _atom_site_type_symbol
 _atom_site_label
 _atom_site_symmetry_multiplicity
 _atom_site_fract_x
 _atom_site_fract_y
 _atom_site_fract_z
 _atom_site_occupancy
  Ca  Ca0  1  0.00000000  0.00000000  0.00000000  1
  Ca  Ca1  1  0.50000000  0.50000000  0.50000000  1
  Ca  Ca2  1  0.50000000  0.50000000  0.00000000  1
  Pr  Pr0  1  0.50000000  0.00000000  0.50000000  1
  Pr  Pr1  1  0.00000000  0.50000000  0.50000000  1
  Sb  Sb0  1  0.00000000  0.00000000  0.50000000  1
  Sb  Sb1  1  0.50000000  0.00000000  0.00000000  1
  Sb  Sb2  1  0.00000000  0.50000000  0.00000000  1
  O  O0  1  0.68671800  0.68671800  0.08837700  1
  O  O1  1  0.31328200  0.31328200  0.91162300  1
  O  O2  1  0.37704800  0.37704800  0.37858400  1
  O  O3  1  0.62295200  0.62295200  0.62141600  1
  O  O4  1  0.31613600  0.91146900  0.31711400  1
  O  O5  1  0.68386400  0.08853100  0.68288600  1
  O  O6  1  0.08853100  0.68386400  0.68288600  1
  O  O7  1  0.91146900  0.31613600  0.31711400  1
  O  O8  1  0.62999000  0.09392800  0.09597900  1
  O  O9  1  0.37001000  0.90607200  0.90402100  1
  O  O10  1  0.90607200  0.37001000  0.90402100  1
  O  O11  1  0.09392800  0.62999000  0.09597900  1
  O  O12  1  0.90424200  0.90424200  0.36982200  1
  O  O13  1  0.09575800  0.09575800  0.63017800  1
loop_
_geom_bond_atom_site_label_1
_geom_bond_atom_site_label_2
_geom_bond_distance
_geom_bond_site_symmetry_2
Ca0 O13 2.309514 1_554
Ca0 O12 2.309514 1_445
Ca0 O10 2.326377 1_454
Ca0 O11 2.326377 1_545
Ca0 O9 2.326377 1_544
Ca0 O8 2.326377 1_455
Ca1 O3 2.249399 1_555
Ca1 O2 2.249399 1_555
Ca1 O6 2.630083 1_555
Ca1 O5 2.630083 1_555
Ca1 O7 2.630083 1_555
Ca1 O4 2.630083 1_555
Ca1 O0 2.635483 1_555
Ca1 O1 2.635483 1_555
Ca2 O2 2.340812 1_555
Ca2 O3 2.340812 1_554
Ca2 O9 2.541248 1_554
Ca2 O10 2.541248 1_554
Ca2 O8 2.541248 1_555
Ca2 O11 2.541248 1_555
Ca2 O0 2.864262 1_555
Ca2 O1 2.864262 1_554
O0 Sb2 2.031259 1_655
O0 Sb1 2.031259 1_565
O1 Sb2 2.031259 1_556
O1 Sb1 2.031259 1_556
O2 Pr0 2.343110 1_555
O2 Pr1 2.343110 1_555
O3 Pr0 2.343110 1_565
O3 Pr1 2.343110 1_655
O4 Sb0 2.037739 1_565
O4 Sb1 2.039351 1_565
O4 Pr0 2.817302 1_565
O5 Sb0 2.037739 1_655
O5 Sb1 2.039351 1_556
O5 Pr0 2.817302 1_555
O6 Sb0 2.037739 1_565
O6 Sb2 2.039351 1_556
O6 Pr1 2.817302 1_555
O7 Sb0 2.037739 1_655
O7 Sb2 2.039351 1_655
O7 Pr1 2.817302 1_655
O8 Sb1 1.965570 1_555
O8 Pr0 2.515172 1_555
O9 Sb1 1.965570 1_566
O9 Pr0 2.515172 1_565
O10 Sb2 1.965570 1_656
O10 Pr1 2.515172 1_655
O11 Sb2 1.965570 1_555
O11 Pr1 2.515172 1_555
O12 Sb0 1.974481 1_665
O12 Pr0 2.529715 1_565
O12 Pr1 2.529715 1_655
O13 Sb0 1.974481 1_555
O13 Pr0 2.529715 1_555
O13 Pr1 2.529715 1_555
