# generated using pymatgen
data_FeNiO3
_symmetry_space_group_name_H-M   'P 1'
_cell_length_a   5.05171770
_cell_length_b   5.43156931
_cell_length_c   5.05173500
_cell_angle_alpha   62.28753419
_cell_angle_beta   59.99917527
_cell_angle_gamma   89.99929357
_symmetry_Int_Tables_number   1
_chemical_formula_structural   FeNiO3
_chemical_formula_sum   'Fe2 Ni2 O6'
_cell_volume   101.26706382
_cell_formula_units_Z   2
loop_
 _symmetry_equiv_pos_site_id
 _symmetry_equiv_pos_as_xyz
  1  'x, y, z'
loop_
 _atom_site_type_symbol
 _atom_site_label
 _atom_site_symmetry_multiplicity
 _atom_site_fract_x
 _atom_site_fract_y
 _atom_site_fract_z
 _atom_site_occupancy
  Fe  Fe0  1  0.14772500  0.44318900  0.70453900  1
  Fe  Fe1  1  0.84888000  0.54662800  0.30224700  1
  Ni  Ni0  1  0.64698400  0.94095400  0.70602800  1
  Ni  Ni1  1  0.34966100  0.04898100  0.30068700  1
  O  O0  1  0.45075600  0.25892500  0.49366800  1
  O  O1  1  0.22955700  0.74782900  0.20705900  1
  O  O2  1  0.95488800  0.74783000  0.81555400  1
  O  O3  1  0.05558100  0.25892100  0.19182600  1
  O  O4  1  0.75258600  0.25891800  0.79666300  1
  O  O5  1  0.56338400  0.74782500  0.48172800  1
loop_
_geom_bond_atom_site_label_1
_geom_bond_atom_site_label_2
_geom_bond_distance
_geom_bond_site_symmetry_2
Fe0 O0 1.959770 1_555
Fe0 O4 1.959775 1_455
Fe0 O3 1.959782 1_556
Fe0 O1 2.078017 1_555
Fe0 O2 2.078019 1_455
Fe0 O5 2.078044 1_555
Fe1 O5 1.926193 1_555
Fe1 O1 1.926205 1_655
Fe1 O2 1.926221 1_554
Fe1 O3 2.017859 1_655
Fe1 O0 2.017860 1_555
Fe1 O4 2.017879 1_555
Ni0 O1 2.036326 1_556
Ni0 O2 2.036338 1_555
Ni0 O5 2.036351 1_555
Ni0 O0 2.111051 1_565
Ni0 O3 2.111060 1_665
Ni0 O4 2.111078 1_565
Ni1 O4 2.010811 1_554
Ni1 O0 2.010827 1_555
Ni1 O3 2.010842 1_555
Ni1 O2 2.067301 1_445
Ni1 O5 2.067323 1_545
Ni1 O1 2.067370 1_545
