# generated using pymatgen
data_Li6V3P8O29
_symmetry_space_group_name_H-M   'P 1'
_cell_length_a   9.86480319
_cell_length_b   9.86480319
_cell_length_c   13.92940514
_cell_angle_alpha   89.75811288
_cell_angle_beta   89.75811288
_cell_angle_gamma   59.77934608
_symmetry_Int_Tables_number   1
_chemical_formula_structural   Li6V3P8O29
_chemical_formula_sum   'Li12 V6 P16 O58'
_cell_volume   1171.29143783
_cell_formula_units_Z   2
loop_
 _symmetry_equiv_pos_site_id
 _symmetry_equiv_pos_as_xyz
  1  'x, y, z'
loop_
 _atom_site_type_symbol
 _atom_site_label
 _atom_site_symmetry_multiplicity
 _atom_site_fract_x
 _atom_site_fract_y
 _atom_site_fract_z
 _atom_site_occupancy
  Li  Li0  1  0.91401300  0.77362100  0.93924900  1
  Li  Li1  1  0.77362100  0.91401300  0.43924900  1
  Li  Li2  1  0.90819000  0.31507400  0.44060300  1
  Li  Li3  1  0.66526600  0.66497100  0.61706200  1
  Li  Li4  1  0.66497100  0.66526600  0.11706200  1
  Li  Li5  1  0.77082600  0.31957500  0.93733800  1
  Li  Li6  1  0.31507400  0.90819000  0.94060300  1
  Li  Li7  1  0.31957500  0.77082600  0.43733800  1
  Li  Li8  1  0.67774800  0.09581900  0.06000900  1
  Li  Li9  1  0.09581900  0.67774800  0.56000900  1
  Li  Li10  1  0.22489500  0.09570700  0.55985100  1
  Li  Li11  1  0.09570700  0.22489500  0.05985100  1
  V  V0  1  0.56709300  0.42847700  0.74836500  1
  V  V1  1  0.42847700  0.56709300  0.24836500  1
  V  V2  1  0.56777400  0.00308400  0.25287100  1
  V  V3  1  0.43334800  0.00261100  0.74884500  1
  V  V4  1  0.00308400  0.56777400  0.75287100  1
  V  V5  1  0.00261100  0.43334800  0.24884500  1
  P  P0  1  0.90939700  0.77081100  0.15733300  1
  P  P1  1  0.77081100  0.90939700  0.65733300  1
  P  P2  1  0.90887300  0.32301000  0.65915400  1
  P  P3  1  0.66629100  0.66727400  0.87362300  1
  P  P4  1  0.66727400  0.66629100  0.37362300  1
  P  P5  1  0.76953000  0.31924600  0.15575300  1
  P  P6  1  0.68348500  0.23338100  0.34209700  1
  P  P7  1  0.32301000  0.90887300  0.15915400  1
  P  P8  1  0.68031500  0.08622300  0.84105500  1
  P  P9  1  0.31924600  0.76953000  0.65575300  1
  P  P10  1  0.23338100  0.68348500  0.84209700  1
  P  P11  1  0.33431500  0.33352600  0.62641100  1
  P  P12  1  0.33352600  0.33431500  0.12641100  1
  P  P13  1  0.08622300  0.68031500  0.34105500  1
  P  P14  1  0.23140900  0.08677800  0.34234800  1
  P  P15  1  0.08677800  0.23140900  0.84234800  1
  O  O0  1  0.99806700  0.75831200  0.43136500  1
  O  O1  1  0.92043900  0.74181300  0.66262500  1
  O  O2  1  0.75831200  0.99806700  0.93136500  1
  O  O3  1  0.74181300  0.92043900  0.16262500  1
  O  O4  1  0.88668000  0.62685600  0.17456700  1
  O  O5  1  0.81415700  0.67392500  0.83609000  1
  O  O6  1  0.88932700  0.48729300  0.67452900  1
  O  O7  1  0.99629600  0.24557400  0.93237900  1
  O  O8  1  0.91913900  0.33232100  0.15625200  1
  O  O9  1  0.67392500  0.81415700  0.33609000  1
  O  O10  1  0.62685600  0.88668000  0.67456700  1
  O  O11  1  0.81724100  0.51452800  0.33251800  1
  O  O12  1  0.66330000  0.67182000  0.98181500  1
  O  O13  1  0.67182000  0.66330000  0.48181500  1
  O  O14  1  0.67143700  0.51556500  0.83629800  1
  O  O15  1  0.48729300  0.88932700  0.17452900  1
  O  O16  1  0.51452800  0.81724100  0.83251800  1
  O  O17  1  0.74367500  0.34275200  0.66395100  1
  O  O18  1  0.78598900  0.20928700  0.24526400  1
  O  O19  1  0.76919200  0.23960800  0.42714700  1
  O  O20  1  0.75597500  0.24287400  0.06585800  1
  O  O21  1  0.62732400  0.48540300  0.17310700  1
  O  O22  1  0.51556500  0.67143700  0.33629800  1
  O  O23  1  0.66683300  0.24941100  0.83978300  1
  O  O24  1  0.48540300  0.62732400  0.67310700  1
  O  O25  1  0.33232100  0.91913900  0.65625200  1
  O  O26  1  0.78964000  0.99703000  0.74916800  1
  O  O27  1  0.76410600  0.98985100  0.56622600  1
  O  O28  1  0.24557400  0.99629600  0.43237900  1
  O  O29  1  0.66196700  0.08768300  0.34128200  1
  O  O30  1  0.52465600  0.38539700  0.32329400  1
  O  O31  1  0.34275200  0.74367500  0.16395100  1
  O  O32  1  0.48067600  0.32805000  0.67161000  1
  O  O33  1  0.38539700  0.52465600  0.82329400  1
  O  O34  1  0.23960800  0.76919200  0.92714700  1
  O  O35  1  0.24287400  0.75597500  0.56585800  1
  O  O36  1  0.20928700  0.78598900  0.74526400  1
  O  O37  1  0.24941100  0.66683300  0.33978300  1
  O  O38  1  0.48416600  0.18600500  0.16731900  1
  O  O39  1  0.52056900  0.09851600  0.82533700  1
  O  O40  1  0.32805000  0.48067600  0.17161000  1
  O  O41  1  0.32880500  0.32910400  0.01988100  1
  O  O42  1  0.32910400  0.32880500  0.51988100  1
  O  O43  1  0.18600500  0.48416600  0.66731900  1
  O  O44  1  0.38211500  0.09447200  0.32283700  1
  O  O45  1  0.33255700  0.18067500  0.66918400  1
  O  O46  1  0.08768300  0.66196700  0.84128200  1
  O  O47  1  0.99703000  0.78964000  0.24916800  1
  O  O48  1  0.98985100  0.76410600  0.06622600  1
  O  O49  1  0.09851600  0.52056900  0.32533700  1
  O  O50  1  0.18067500  0.33255700  0.16918400  1
  O  O51  1  0.09447200  0.38211500  0.82283700  1
  O  O52  1  0.25055700  0.08488500  0.84247600  1
  O  O53  1  0.24333900  0.99937200  0.06992800  1
  O  O54  1  0.21263800  0.99942200  0.25015700  1
  O  O55  1  0.08488500  0.25055700  0.34247600  1
  O  O56  1  0.99937200  0.24333900  0.56992800  1
  O  O57  1  0.99942200  0.21263800  0.75015700  1
loop_
_geom_bond_atom_site_label_1
_geom_bond_atom_site_label_2
_geom_bond_distance
_geom_bond_site_symmetry_2
Li0 O48 1.906813 1_556
Li0 O2 1.962004 1_555
Li0 O46 2.025798 1_655
Li0 O5 2.236406 1_555
Li1 O27 1.906813 1_555
Li1 O0 1.962004 1_555
Li1 O29 2.025798 1_565
Li1 O9 2.236406 1_555
Li2 O19 1.870948 1_555
Li2 O56 1.979172 1_555
Li2 O55 2.045013 1_655
Li2 O11 2.269879 1_555
Li3 O13 1.884604 1_555
Li3 O24 2.131843 1_555
Li3 O6 2.168309 1_555
Li3 O10 2.178682 1_555
Li4 O12 1.884604 1_554
Li4 O21 2.131843 1_555
Li4 O15 2.168309 1_555
Li4 O4 2.178682 1_555
Li5 O7 1.961999 1_555
Li5 O20 1.974018 1_556
Li5 O23 2.027943 1_555
Li5 O14 2.181885 1_555
Li6 O34 1.870948 1_555
Li6 O53 1.979172 1_556
Li6 O52 2.045013 1_565
Li6 O16 2.269879 1_555
Li7 O28 1.961999 1_555
Li7 O35 1.974018 1_555
Li7 O37 2.027943 1_555
Li7 O22 2.181885 1_555
Li8 O20 1.958328 1_555
Li8 O2 2.000904 1_544
Li8 O3 2.078896 1_545
Li8 O38 2.224734 1_555
Li9 O35 1.958328 1_555
Li9 O0 2.000904 1_455
Li9 O1 2.078896 1_455
Li9 O43 2.224734 1_555
Li10 O56 1.956434 1_455
Li10 O28 1.991576 1_545
Li10 O25 2.023409 1_545
Li10 O45 2.251774 1_555
Li11 O53 1.956434 1_545
Li11 O7 1.991576 1_454
Li11 O8 2.023409 1_455
Li11 O50 2.251774 1_555
O0 P13 1.502038 1_655
O1 P1 1.568637 1_555
O1 V4 1.942655 1_655
O2 P8 1.502038 1_565
O3 P0 1.568637 1_555
O3 V2 1.942655 1_565
O4 P0 1.562538 1_555
O4 V5 1.953978 1_655
O5 P3 1.579546 1_555
O5 V4 1.985228 1_655
O6 P2 1.548376 1_555
O6 V4 1.998752 1_655
O7 P15 1.501806 1_655
O8 P5 1.544856 1_555
O8 V5 2.044678 1_655
O9 P4 1.579546 1_555
O9 V2 1.985228 1_565
O10 P1 1.562538 1_555
O10 V3 1.953978 1_565
O11 P4 1.590062 1_555
O11 V5 1.964529 1_655
O12 P3 1.507629 1_555
O13 P4 1.507629 1_555
O14 P3 1.562852 1_555
O14 V0 2.051240 1_555
O15 P7 1.548376 1_555
O15 V2 1.998752 1_565
O16 P3 1.590062 1_555
O16 V3 1.964529 1_565
O17 P2 1.542024 1_555
O17 V0 1.907958 1_555
O18 P5 1.603303 1_555
O18 P6 1.627133 1_555
O19 P6 1.477658 1_555
O20 P5 1.504739 1_555
O21 P5 1.548810 1_555
O21 V1 1.998659 1_555
O22 P4 1.562852 1_555
O22 V1 2.051240 1_555
O23 P8 1.547180 1_555
O23 V0 1.987951 1_555
O24 P9 1.548810 1_555
O24 V0 1.998659 1_555
O25 P9 1.544856 1_555
O25 V3 2.044678 1_565
O26 P1 1.609716 1_555
O26 P8 1.618058 1_565
O27 P1 1.477892 1_555
O28 P14 1.501806 1_565
O29 P6 1.555073 1_555
O29 V2 1.968622 1_555
O30 P6 1.551522 1_555
O30 V1 1.866241 1_555
O31 P7 1.542024 1_555
O31 V1 1.907958 1_555
O32 P11 1.553321 1_555
O32 V0 1.928240 1_555
O33 P10 1.551522 1_555
O33 V0 1.866241 1_555
O34 P10 1.477658 1_555
O35 P9 1.504739 1_555
O36 P9 1.603303 1_555
O36 P10 1.627133 1_555
O37 P13 1.547180 1_555
O37 V1 1.987951 1_555
O38 P12 1.576386 1_555
O38 V2 1.961749 1_555
O39 P8 1.535024 1_555
O39 V3 1.899042 1_555
O40 P12 1.553321 1_555
O40 V1 1.928240 1_555
O41 P12 1.486744 1_555
O42 P11 1.486744 1_555
O43 P11 1.576386 1_555
O43 V4 1.961749 1_555
O44 P14 1.549148 1_555
O44 V2 1.856645 1_555
O45 P11 1.627123 1_555
O45 V3 1.881516 1_555
O46 P10 1.555073 1_555
O46 V4 1.968622 1_555
O47 P0 1.609716 1_555
O47 P13 1.618058 1_655
O48 P0 1.477892 1_555
O49 P13 1.535024 1_555
O49 V5 1.899042 1_555
O50 P12 1.627123 1_555
O50 V5 1.881516 1_555
O51 P15 1.549148 1_555
O51 V4 1.856645 1_555
O52 P15 1.532555 1_555
O52 V3 2.031518 1_555
O53 P7 1.500659 1_555
O54 P14 1.611822 1_565
O54 P7 1.615267 1_555
O55 P14 1.532555 1_555
O55 V5 2.031518 1_555
O56 P2 1.500659 1_555
O57 P15 1.611822 1_655
O57 P2 1.615267 1_555
