# generated using pymatgen
data_VPt
_symmetry_space_group_name_H-M   'P 1'
_cell_length_a   8.78538402
_cell_length_b   5.36480768
_cell_length_c   9.54439722
_cell_angle_alpha   90.00000000
_cell_angle_beta   90.00000000
_cell_angle_gamma   90.00000000
_symmetry_Int_Tables_number   1
_chemical_formula_structural   VPt
_chemical_formula_sum   'V16 Pt16'
_cell_volume   449.84553393
_cell_formula_units_Z   16
loop_
 _symmetry_equiv_pos_site_id
 _symmetry_equiv_pos_as_xyz
  1  'x, y, z'
loop_
 _atom_site_type_symbol
 _atom_site_label
 _atom_site_symmetry_multiplicity
 _atom_site_fract_x
 _atom_site_fract_y
 _atom_site_fract_z
 _atom_site_occupancy
  V  V0_0  1  0.12500000  0.00000000  0.08525828  1
  V  V0_1  1  0.12500000  0.00000000  0.58525827  1
  V  V0_2  1  0.12500000  0.50000000  0.08525828  1
  V  V0_3  1  0.12500000  0.50000000  0.58525827  1
  V  V0_4  1  0.62500000  0.00000000  0.08525828  1
  V  V0_5  1  0.62500000  0.00000000  0.58525827  1
  V  V0_6  1  0.62500000  0.50000000  0.08525828  1
  V  V0_7  1  0.62500000  0.50000000  0.58525827  1
  V  V1_0  1  0.37500000  0.00000000  0.41474173  1
  V  V1_1  1  0.37500000  0.00000000  0.91474173  1
  V  V1_2  1  0.37500000  0.50000000  0.41474173  1
  V  V1_3  1  0.37500000  0.50000000  0.91474173  1
  V  V1_4  1  0.87500000  0.00000000  0.41474173  1
  V  V1_5  1  0.87500000  0.00000000  0.91474173  1
  V  V1_6  1  0.87500000  0.50000000  0.41474173  1
  V  V1_7  1  0.87500000  0.50000000  0.91474173  1
  Pt  Pt0_0  1  0.12500000  0.25000000  0.34023438  1
  Pt  Pt0_1  1  0.12500000  0.25000000  0.84023437  1
  Pt  Pt0_2  1  0.12500000  0.75000000  0.34023438  1
  Pt  Pt0_3  1  0.12500000  0.75000000  0.84023437  1
  Pt  Pt0_4  1  0.62500000  0.25000000  0.34023438  1
  Pt  Pt0_5  1  0.62500000  0.25000000  0.84023437  1
  Pt  Pt0_6  1  0.62500000  0.75000000  0.34023438  1
  Pt  Pt0_7  1  0.62500000  0.75000000  0.84023437  1
  Pt  Pt1_0  1  0.37500000  0.25000000  0.15976562  1
  Pt  Pt1_1  1  0.37500000  0.25000000  0.65976563  1
  Pt  Pt1_2  1  0.37500000  0.75000000  0.15976562  1
  Pt  Pt1_3  1  0.37500000  0.75000000  0.65976563  1
  Pt  Pt1_4  1  0.87500000  0.25000000  0.15976562  1
  Pt  Pt1_5  1  0.87500000  0.25000000  0.65976563  1
  Pt  Pt1_6  1  0.87500000  0.75000000  0.15976562  1
  Pt  Pt1_7  1  0.87500000  0.75000000  0.65976563  1
loop_
_geom_bond_atom_site_label_1
_geom_bond_atom_site_label_2
_geom_bond_distance
_geom_bond_site_symmetry_2
V0_0 V0_2 2.682404 1_555
V0_0 V0_2 2.682404 1_545
V0_0 V1_1 2.733609 1_554
V0_0 V1_5 2.733609 1_454
V0_1 V0_3 2.682404 1_555
V0_1 V0_3 2.682404 1_545
V0_1 V1_4 2.733609 1_455
V0_1 V1_0 2.733609 1_555
V0_2 V1_3 2.733609 1_554
V0_2 V1_7 2.733609 1_454
V0_3 V1_2 2.733609 1_555
V0_3 V1_6 2.733609 1_455
V0_4 V0_6 2.682404 1_555
V0_4 V0_6 2.682404 1_545
V0_4 V1_5 2.733609 1_554
V0_4 V1_1 2.733609 1_554
V0_5 V0_7 2.682404 1_555
V0_5 V0_7 2.682404 1_545
V0_5 V1_4 2.733609 1_555
V0_5 V1_0 2.733609 1_555
V0_6 V1_7 2.733609 1_554
V0_6 V1_3 2.733609 1_554
V0_7 V1_6 2.733609 1_555
V0_7 V1_2 2.733609 1_555
V1_0 V1_2 2.682404 1_555
V1_0 V1_2 2.682404 1_545
V1_1 V1_3 2.682404 1_555
V1_1 V1_3 2.682404 1_545
V1_4 V1_6 2.682404 1_555
V1_4 V1_6 2.682404 1_545
V1_5 V1_7 2.682404 1_555
V1_5 V1_7 2.682404 1_545
Pt0_0 V1_4 2.669918 1_455
Pt0_0 V1_0 2.669918 1_555
Pt0_0 V1_6 2.669918 1_455
Pt0_0 V1_2 2.669918 1_555
Pt0_0 Pt0_2 2.682404 1_555
Pt0_0 Pt0_2 2.682404 1_545
Pt0_0 V0_1 2.695904 1_555
Pt0_0 V0_3 2.695904 1_555
Pt0_0 V0_0 2.778704 1_555
Pt0_0 V0_2 2.778704 1_555
Pt0_0 Pt1_4 2.791205 1_455
Pt0_0 Pt1_0 2.791205 1_555
Pt0_1 V1_7 2.669918 1_455
Pt0_1 V1_5 2.669918 1_455
Pt0_1 V1_3 2.669918 1_555
Pt0_1 V1_1 2.669918 1_555
Pt0_1 Pt0_3 2.682404 1_555
Pt0_1 Pt0_3 2.682404 1_545
Pt0_1 V0_0 2.695904 1_556
Pt0_1 V0_2 2.695904 1_556
Pt0_1 V0_3 2.778704 1_555
Pt0_1 V0_1 2.778704 1_555
Pt0_1 Pt1_5 2.791205 1_455
Pt0_1 Pt1_1 2.791205 1_555
Pt0_2 V1_0 2.669918 1_565
Pt0_2 V1_4 2.669918 1_465
Pt0_2 V1_2 2.669918 1_555
Pt0_2 V1_6 2.669918 1_455
Pt0_2 V0_1 2.695904 1_565
Pt0_2 V0_3 2.695904 1_555
Pt0_2 V0_0 2.778704 1_565
Pt0_2 V0_2 2.778704 1_555
Pt0_2 Pt1_6 2.791205 1_455
Pt0_2 Pt1_2 2.791205 1_555
Pt0_3 V1_7 2.669918 1_455
Pt0_3 V1_5 2.669918 1_465
Pt0_3 V1_3 2.669918 1_555
Pt0_3 V1_1 2.669918 1_565
Pt0_3 V0_0 2.695904 1_566
Pt0_3 V0_2 2.695904 1_556
Pt0_3 V0_1 2.778704 1_565
Pt0_3 V0_3 2.778704 1_555
Pt0_3 Pt1_3 2.791205 1_555
Pt0_3 Pt1_7 2.791205 1_455
Pt0_4 V1_6 2.669918 1_555
Pt0_4 V1_4 2.669918 1_555
Pt0_4 V1_0 2.669918 1_555
Pt0_4 V1_2 2.669918 1_555
Pt0_4 Pt0_6 2.682404 1_545
Pt0_4 Pt0_6 2.682404 1_555
Pt0_4 V0_5 2.695904 1_555
Pt0_4 V0_7 2.695904 1_555
Pt0_4 V0_6 2.778704 1_555
Pt0_4 V0_4 2.778704 1_555
Pt0_4 Pt1_4 2.791205 1_555
Pt0_4 Pt1_0 2.791205 1_555
Pt0_5 V1_7 2.669918 1_555
Pt0_5 V1_5 2.669918 1_555
Pt0_5 V1_1 2.669918 1_555
Pt0_5 V1_3 2.669918 1_555
Pt0_5 Pt0_7 2.682404 1_545
Pt0_5 Pt0_7 2.682404 1_555
Pt0_5 V0_4 2.695904 1_556
Pt0_5 V0_6 2.695904 1_556
Pt0_5 V0_5 2.778704 1_555
Pt0_5 V0_7 2.778704 1_555
Pt0_5 Pt1_5 2.791205 1_555
Pt0_5 Pt1_1 2.791205 1_555
Pt0_6 V1_4 2.669918 1_565
Pt0_6 V1_6 2.669918 1_555
Pt0_6 V1_2 2.669918 1_555
Pt0_6 V1_0 2.669918 1_565
Pt0_6 V0_5 2.695904 1_565
Pt0_6 V0_7 2.695904 1_555
Pt0_6 V0_6 2.778704 1_555
Pt0_6 V0_4 2.778704 1_565
Pt0_6 Pt1_6 2.791205 1_555
Pt0_6 Pt1_2 2.791205 1_555
Pt0_7 V1_5 2.669918 1_565
Pt0_7 V1_7 2.669918 1_555
Pt0_7 V1_3 2.669918 1_555
Pt0_7 V1_1 2.669918 1_565
Pt0_7 V0_4 2.695904 1_566
Pt0_7 V0_6 2.695904 1_556
Pt0_7 V0_7 2.778704 1_555
Pt0_7 V0_5 2.778704 1_565
Pt0_7 Pt1_7 2.791205 1_555
Pt0_7 Pt1_3 2.791205 1_555
Pt1_0 V0_2 2.669918 1_555
Pt1_0 V0_0 2.669918 1_555
Pt1_0 V0_6 2.669918 1_555
Pt1_0 V0_4 2.669918 1_555
Pt1_0 Pt1_2 2.682404 1_555
Pt1_0 Pt1_2 2.682404 1_545
Pt1_0 V1_3 2.695904 1_554
Pt1_0 V1_1 2.695904 1_554
Pt1_0 V1_0 2.778704 1_555
Pt1_0 V1_2 2.778704 1_555
Pt1_1 V0_1 2.669918 1_555
Pt1_1 V0_3 2.669918 1_555
Pt1_1 V0_5 2.669918 1_555
Pt1_1 V0_7 2.669918 1_555
Pt1_1 Pt1_3 2.682404 1_555
Pt1_1 Pt1_3 2.682404 1_545
Pt1_1 V1_0 2.695904 1_555
Pt1_1 V1_2 2.695904 1_555
Pt1_1 V1_3 2.778704 1_555
Pt1_1 V1_1 2.778704 1_555
Pt1_2 V0_0 2.669918 1_565
Pt1_2 V0_2 2.669918 1_555
Pt1_2 V0_6 2.669918 1_555
Pt1_2 V0_4 2.669918 1_565
Pt1_2 V1_3 2.695904 1_554
Pt1_2 V1_1 2.695904 1_564
Pt1_2 V1_2 2.778704 1_555
Pt1_2 V1_0 2.778704 1_565
Pt1_3 V0_1 2.669918 1_565
Pt1_3 V0_3 2.669918 1_555
Pt1_3 V0_5 2.669918 1_565
Pt1_3 V0_7 2.669918 1_555
Pt1_3 V1_0 2.695904 1_565
Pt1_3 V1_2 2.695904 1_555
Pt1_3 V1_1 2.778704 1_565
Pt1_3 V1_3 2.778704 1_555
Pt1_4 V0_4 2.669918 1_555
Pt1_4 V0_6 2.669918 1_555
Pt1_4 V0_2 2.669918 1_655
Pt1_4 V0_0 2.669918 1_655
Pt1_4 Pt1_6 2.682404 1_545
Pt1_4 Pt1_6 2.682404 1_555
Pt1_4 V1_7 2.695904 1_554
Pt1_4 V1_5 2.695904 1_554
Pt1_4 V1_4 2.778704 1_555
Pt1_4 V1_6 2.778704 1_555
Pt1_5 V0_7 2.669918 1_555
Pt1_5 V0_5 2.669918 1_555
Pt1_5 V0_1 2.669918 1_655
Pt1_5 V0_3 2.669918 1_655
Pt1_5 Pt1_7 2.682404 1_555
Pt1_5 Pt1_7 2.682404 1_545
Pt1_5 V1_6 2.695904 1_555
Pt1_5 V1_4 2.695904 1_555
Pt1_5 V1_5 2.778704 1_555
Pt1_5 V1_7 2.778704 1_555
Pt1_6 V0_4 2.669918 1_565
Pt1_6 V0_6 2.669918 1_555
Pt1_6 V0_0 2.669918 1_665
Pt1_6 V0_2 2.669918 1_655
Pt1_6 V1_5 2.695904 1_564
Pt1_6 V1_7 2.695904 1_554
Pt1_6 V1_4 2.778704 1_565
Pt1_6 V1_6 2.778704 1_555
Pt1_7 V0_5 2.669918 1_565
Pt1_7 V0_7 2.669918 1_555
Pt1_7 V0_1 2.669918 1_665
Pt1_7 V0_3 2.669918 1_655
Pt1_7 V1_4 2.695904 1_565
Pt1_7 V1_6 2.695904 1_555
Pt1_7 V1_5 2.778704 1_565
Pt1_7 V1_7 2.778704 1_555
