# generated using pymatgen
data_Yb(BiS2)2
_symmetry_space_group_name_H-M   'P 1'
_cell_length_a   4.01266100
_cell_length_b   11.68494200
_cell_length_c   14.55575700
_cell_angle_alpha   90.00000000
_cell_angle_beta   90.00000000
_cell_angle_gamma   90.00000000
_symmetry_Int_Tables_number   1
_chemical_formula_structural   Yb(BiS2)2
_chemical_formula_sum   'Yb4 Bi8 S16'
_cell_volume   682.48612834
_cell_formula_units_Z   4
loop_
 _symmetry_equiv_pos_site_id
 _symmetry_equiv_pos_as_xyz
  1  'x, y, z'
loop_
 _atom_site_type_symbol
 _atom_site_label
 _atom_site_symmetry_multiplicity
 _atom_site_fract_x
 _atom_site_fract_y
 _atom_site_fract_z
 _atom_site_occupancy
  Yb  Yb0  1  0.25000000  0.25654800  0.34904800  1
  Yb  Yb1  1  0.25000000  0.75654800  0.15095200  1
  Yb  Yb2  1  0.75000000  0.74345200  0.65095200  1
  Yb  Yb3  1  0.75000000  0.24345200  0.84904800  1
  Bi  Bi0  1  0.25000000  0.06707300  0.60704500  1
  Bi  Bi1  1  0.25000000  0.56707300  0.89295500  1
  Bi  Bi2  1  0.75000000  0.93292700  0.39295500  1
  Bi  Bi3  1  0.75000000  0.43292700  0.10704500  1
  Bi  Bi4  1  0.25000000  0.10437300  0.10203300  1
  Bi  Bi5  1  0.25000000  0.60437300  0.39796700  1
  Bi  Bi6  1  0.75000000  0.89562700  0.89796700  1
  Bi  Bi7  1  0.75000000  0.39562700  0.60203300  1
  S  S0  1  0.25000000  0.32798100  0.98237500  1
  S  S1  1  0.25000000  0.82798100  0.51762500  1
  S  S2  1  0.75000000  0.67201900  0.01762500  1
  S  S3  1  0.75000000  0.17201900  0.48237500  1
  S  S4  1  0.25000000  0.26153700  0.70422800  1
  S  S5  1  0.25000000  0.76153700  0.79577200  1
  S  S6  1  0.75000000  0.73846300  0.29577200  1
  S  S7  1  0.75000000  0.23846300  0.20422800  1
  S  S8  1  0.25000000  0.06380400  0.90880500  1
  S  S9  1  0.25000000  0.56380400  0.59119500  1
  S  S10  1  0.75000000  0.93619600  0.09119500  1
  S  S11  1  0.75000000  0.43619600  0.40880500  1
  S  S12  1  0.25000000  0.01965700  0.28878100  1
  S  S13  1  0.25000000  0.51965700  0.21121900  1
  S  S14  1  0.75000000  0.98034300  0.71121900  1
  S  S15  1  0.75000000  0.48034300  0.78878100  1
loop_
_geom_bond_atom_site_label_1
_geom_bond_atom_site_label_2
_geom_bond_distance
_geom_bond_site_symmetry_2
Bi0 S4 2.676633 1_555
Bi0 S14 2.711397 1_545
Bi0 S14 2.711397 1_445
Bi0 S3 2.970212 1_455
Bi0 S3 2.970212 1_555
Bi0 S1 3.082091 1_545
Bi1 S5 2.676633 1_555
Bi1 S15 2.711397 1_555
Bi1 S15 2.711397 1_455
Bi1 S2 2.970212 1_456
Bi1 S2 2.970212 1_556
Bi1 S0 3.082091 1_555
Bi2 S6 2.676633 1_555
Bi2 S12 2.711397 1_565
Bi2 S12 2.711397 1_665
Bi2 S1 2.970212 1_555
Bi2 S1 2.970212 1_655
Bi2 S3 3.082091 1_565
Bi3 S7 2.676633 1_555
Bi3 S13 2.711397 1_555
Bi3 S13 2.711397 1_655
Bi3 S0 2.970212 1_654
Bi3 S0 2.970212 1_554
Bi3 S2 3.082091 1_555
Bi4 S10 2.812831 1_445
Bi4 S10 2.812831 1_545
Bi4 S8 2.852249 1_554
Bi4 S12 2.892894 1_555
Bi4 S7 2.948400 1_555
Bi4 S7 2.948400 1_455
Bi4 S0 3.140148 1_554
Bi5 S11 2.812831 1_555
Bi5 S11 2.812831 1_455
Bi5 S9 2.852249 1_555
Bi5 S13 2.892894 1_555
Bi5 S6 2.948400 1_455
Bi5 S6 2.948400 1_555
Bi5 S1 3.140148 1_555
Bi6 S8 2.812831 1_665
Bi6 S8 2.812831 1_565
Bi6 S10 2.852249 1_556
Bi6 S14 2.892894 1_555
Bi6 S5 2.948400 1_555
Bi6 S5 2.948400 1_655
Bi6 S2 3.140148 1_556
Bi7 S9 2.812831 1_655
Bi7 S9 2.812831 1_555
Bi7 S11 2.852249 1_555
Bi7 S15 2.892894 1_555
Bi7 S4 2.948400 1_555
Bi7 S4 2.948400 1_655
Bi7 S3 3.140148 1_555
S0 Yb3 2.960940 1_455
S0 Yb3 2.960940 1_555
S1 Yb2 2.960940 1_455
S1 Yb2 2.960940 1_555
S2 Yb1 2.960940 1_655
S2 Yb1 2.960940 1_555
S3 Yb0 2.960940 1_555
S3 Yb0 2.960940 1_655
S4 Yb3 2.917796 1_555
S4 Yb3 2.917796 1_455
S5 Yb2 2.917796 1_455
S5 Yb2 2.917796 1_555
S6 Yb1 2.917796 1_655
S6 Yb1 2.917796 1_555
S7 Yb0 2.917796 1_655
S7 Yb0 2.917796 1_555
S8 Yb3 3.031249 1_455
S8 Yb3 3.031249 1_555
S9 Yb2 3.031249 1_455
S9 Yb2 3.031249 1_555
S10 Yb1 3.031249 1_655
S10 Yb1 3.031249 1_555
S11 Yb0 3.031249 1_655
S11 Yb0 3.031249 1_555
S12 Yb0 2.903735 1_555
S13 Yb1 2.903735 1_555
S14 Yb2 2.903735 1_555
S15 Yb3 2.903735 1_555
