# generated using pymatgen
data_CoMoP2
_symmetry_space_group_name_H-M   'P 1'
_cell_length_a   3.29414340
_cell_length_b   3.29414340
_cell_length_c   11.10635471
_cell_angle_alpha   90.00000000
_cell_angle_beta   90.00000000
_cell_angle_gamma   120.00001406
_symmetry_Int_Tables_number   1
_chemical_formula_structural   CoMoP2
_chemical_formula_sum   'Co2 Mo2 P4'
_cell_volume   104.37274644
_cell_formula_units_Z   2
loop_
 _symmetry_equiv_pos_site_id
 _symmetry_equiv_pos_as_xyz
  1  'x, y, z'
loop_
 _atom_site_type_symbol
 _atom_site_label
 _atom_site_symmetry_multiplicity
 _atom_site_fract_x
 _atom_site_fract_y
 _atom_site_fract_z
 _atom_site_occupancy
  Co  Co0  1  -0.00000000  0.00000000  -0.00000000  1
  Co  Co1  1  -0.00000000  0.00000000  0.50000000  1
  Mo  Mo0  1  -0.00000000  0.00000000  0.75000000  1
  Mo  Mo1  1  -0.00000000  0.00000000  0.25000000  1
  P  P0  1  0.66666700  0.33333300  0.89119286  1
  P  P1  1  0.33333300  0.66666700  0.10880714  1
  P  P2  1  0.33333300  0.66666700  0.39119286  1
  P  P3  1  0.66666700  0.33333300  0.60880714  1
loop_
_geom_bond_atom_site_label_1
_geom_bond_atom_site_label_2
_geom_bond_distance
_geom_bond_site_symmetry_2
Co0 P1 2.253325 1_545
Co0 P0 2.253325 1_454
Co0 P1 2.253327 1_445
Co0 P1 2.253327 1_555
Co0 P0 2.253327 1_554
Co0 P0 2.253327 1_444
Co0 Mo0 2.776589 1_554
Co0 Mo1 2.776589 1_555
Co1 P2 2.253325 1_545
Co1 P3 2.253325 1_455
Co1 P2 2.253327 1_445
Co1 P2 2.253327 1_555
Co1 P3 2.253327 1_555
Co1 P3 2.253327 1_445
Co1 Mo0 2.776589 1_555
Co1 Mo1 2.776589 1_555
Mo0 P3 2.464990 1_455
Mo0 P0 2.464990 1_455
Mo0 P0 2.464992 1_445
Mo0 P3 2.464992 1_555
Mo0 P0 2.464992 1_555
Mo0 P3 2.464992 1_445
Mo1 P1 2.464990 1_545
Mo1 P2 2.464990 1_545
Mo1 P2 2.464992 1_445
Mo1 P2 2.464992 1_555
Mo1 P1 2.464992 1_555
Mo1 P1 2.464992 1_445
