# generated using pymatgen
data_Mg6FeW
_symmetry_space_group_name_H-M   'P 1'
_cell_length_a   4.84844500
_cell_length_b   5.82047100
_cell_length_c   10.66231600
_cell_angle_alpha   90.00000000
_cell_angle_beta   90.00000000
_cell_angle_gamma   90.00000000
_symmetry_Int_Tables_number   1
_chemical_formula_structural   Mg6FeW
_chemical_formula_sum   'Mg12 Fe2 W2'
_cell_volume   300.89304736
_cell_formula_units_Z   2
loop_
 _symmetry_equiv_pos_site_id
 _symmetry_equiv_pos_as_xyz
  1  'x, y, z'
loop_
 _atom_site_type_symbol
 _atom_site_label
 _atom_site_symmetry_multiplicity
 _atom_site_fract_x
 _atom_site_fract_y
 _atom_site_fract_z
 _atom_site_occupancy
  Mg  Mg0  1  0.50000000  0.25048500  0.42231300  1
  Mg  Mg1  1  0.50000000  0.74951500  0.42231300  1
  Mg  Mg2  1  0.00000000  0.74589100  0.08706300  1
  Mg  Mg3  1  0.00000000  0.25410900  0.08706300  1
  Mg  Mg4  1  0.00000000  0.00000000  0.31714400  1
  Mg  Mg5  1  0.00000000  0.50000000  0.32128500  1
  Mg  Mg6  1  0.50000000  0.75048500  0.92231300  1
  Mg  Mg7  1  0.50000000  0.24951500  0.92231300  1
  Mg  Mg8  1  0.00000000  0.24589100  0.58706300  1
  Mg  Mg9  1  0.00000000  0.75410900  0.58706300  1
  Mg  Mg10  1  0.00000000  0.50000000  0.81714400  1
  Mg  Mg11  1  0.00000000  0.00000000  0.82128500  1
  Fe  Fe0  1  0.50000000  0.00000000  0.16900300  1
  Fe  Fe1  1  0.50000000  0.50000000  0.66900300  1
  W  W0  1  0.50000000  0.50000000  0.17381200  1
  W  W1  1  0.50000000  0.00000000  0.67381200  1
loop_
_geom_bond_atom_site_label_1
_geom_bond_atom_site_label_2
_geom_bond_distance
_geom_bond_site_symmetry_2
Mg0 Mg1 2.904590 1_555
Mg0 Mg1 2.915881 1_545
Mg0 Mg8 2.993872 1_655
Mg0 Mg8 2.993872 1_555
Mg0 W0 3.021510 1_555
Mg0 Mg5 3.024295 1_655
Mg0 Mg5 3.024295 1_555
Mg0 Mg4 3.043002 1_555
Mg0 Mg4 3.043002 1_655
Mg0 W1 3.052272 1_555
Mg1 Mg9 2.993872 1_555
Mg1 Mg9 2.993872 1_655
Mg1 W0 3.021510 1_555
Mg1 Mg5 3.024295 1_655
Mg1 Mg5 3.024295 1_555
Mg1 Mg4 3.043002 1_565
Mg1 Mg4 3.043002 1_665
Mg1 W1 3.052272 1_565
Mg2 Mg3 2.862403 1_555
Mg2 Mg4 2.864562 1_565
Mg2 Mg5 2.878383 1_555
Mg2 Mg3 2.958068 1_565
Mg2 W0 2.963227 1_455
Mg2 W0 2.963227 1_555
Mg2 Mg6 2.993872 1_554
Mg2 Mg6 2.993872 1_454
Mg3 Mg4 2.864562 1_555
Mg3 Mg5 2.878383 1_555
Mg3 W0 2.963227 1_455
Mg3 W0 2.963227 1_555
Mg3 Mg7 2.993872 1_454
Mg3 Mg7 2.993872 1_554
Mg4 Mg5 2.910570 1_545
Mg4 Mg5 2.910570 1_555
Mg4 Mg8 3.214187 1_555
Mg4 Mg9 3.214187 1_545
Mg5 W0 2.889517 1_455
Mg5 W0 2.889517 1_555
Mg5 Mg9 3.196563 1_555
Mg5 Mg8 3.196563 1_555
Mg6 Mg7 2.904590 1_565
Mg6 Mg7 2.915881 1_555
Mg6 W1 3.021510 1_565
Mg6 W0 3.052272 1_556
Mg7 W1 3.021510 1_555
Mg7 W0 3.052272 1_556
Mg8 Mg9 2.862403 1_545
Mg8 Mg9 2.958068 1_555
Mg8 W1 2.963227 1_555
Mg8 W1 2.963227 1_455
Mg9 W1 2.963227 1_565
Mg9 W1 2.963227 1_465
Mg10 Mg9 2.864562 1_555
Mg10 Mg8 2.864562 1_555
Mg10 Mg11 2.910570 1_565
Mg10 Mg11 2.910570 1_555
Mg10 Mg7 3.043002 1_455
Mg10 Mg6 3.043002 1_555
Mg10 Mg7 3.043002 1_555
Mg10 Mg6 3.043002 1_455
Mg10 Mg2 3.214187 1_556
Mg10 Mg3 3.214187 1_556
Mg11 Mg8 2.878383 1_555
Mg11 Mg9 2.878383 1_545
Mg11 W1 2.889517 1_555
Mg11 W1 2.889517 1_455
Mg11 Mg7 3.024295 1_455
Mg11 Mg6 3.024295 1_545
Mg11 Mg7 3.024295 1_555
Mg11 Mg6 3.024295 1_445
Mg11 Mg3 3.196563 1_556
Mg11 Mg2 3.196563 1_546
Fe0 Mg4 2.893399 1_655
Fe0 Mg4 2.893399 1_555
Fe0 W0 2.910687 1_545
Fe0 W0 2.910687 1_555
Fe0 Mg2 2.971144 1_545
Fe0 Mg3 2.971144 1_555
Fe0 Mg3 2.971144 1_655
Fe0 Mg2 2.971144 1_645
Fe0 Mg7 3.004591 1_554
Fe0 Mg6 3.004591 1_544
Fe0 Mg0 3.069250 1_555
Fe0 Mg1 3.069250 1_545
Fe1 Mg10 2.893399 1_655
Fe1 Mg10 2.893399 1_555
Fe1 W1 2.910687 1_555
Fe1 W1 2.910687 1_565
Fe1 Mg9 2.971144 1_555
Fe1 Mg9 2.971144 1_655
Fe1 Mg8 2.971144 1_655
Fe1 Mg8 2.971144 1_555
Fe1 Mg1 3.004591 1_555
Fe1 Mg0 3.004591 1_555
Fe1 Mg6 3.069250 1_555
Fe1 Mg7 3.069250 1_555
