# generated using pymatgen
data_ErCoH8C6(N3O2)2
_symmetry_space_group_name_H-M   'P 1'
_cell_length_a   7.34378753
_cell_length_b   7.34378753
_cell_length_c   13.60492700
_cell_angle_alpha   90.00000000
_cell_angle_beta   90.00000000
_cell_angle_gamma   120.33534867
_symmetry_Int_Tables_number   1
_chemical_formula_structural   ErCoH8C6(N3O2)2
_chemical_formula_sum   'Er2 Co2 H16 C12 N12 O8'
_cell_volume   633.27092368
_cell_formula_units_Z   2
loop_
 _symmetry_equiv_pos_site_id
 _symmetry_equiv_pos_as_xyz
  1  'x, y, z'
loop_
 _atom_site_type_symbol
 _atom_site_label
 _atom_site_symmetry_multiplicity
 _atom_site_fract_x
 _atom_site_fract_y
 _atom_site_fract_z
 _atom_site_occupancy
  Er  Er0  1  0.67533200  0.32466800  0.75000000  1
  Er  Er1  1  0.32466800  0.67533200  0.25000000  1
  Co  Co0  1  0.00000000  0.00000000  0.00000000  1
  Co  Co1  1  0.00000000  0.00000000  0.50000000  1
  H  H0  1  0.44832700  0.87127700  0.80856500  1
  H  H1  1  0.87127700  0.44832700  0.19143500  1
  H  H2  1  0.44832700  0.87127700  0.69143500  1
  H  H3  1  0.87127700  0.44832700  0.30856500  1
  H  H4  1  0.55167300  0.12872300  0.19143500  1
  H  H5  1  0.12872300  0.55167300  0.80856500  1
  H  H6  1  0.55167300  0.12872300  0.30856500  1
  H  H7  1  0.12872300  0.55167300  0.69143500  1
  H  H8  1  0.31301400  0.68698600  0.96305500  1
  H  H9  1  0.68698600  0.31301400  0.03694500  1
  H  H10  1  0.31301400  0.68698600  0.53694500  1
  H  H11  1  0.68698600  0.31301400  0.46305500  1
  H  H12  1  0.41598000  0.58402000  0.89865100  1
  H  H13  1  0.58402000  0.41598000  0.10134900  1
  H  H14  1  0.41598000  0.58402000  0.60134900  1
  H  H15  1  0.58402000  0.41598000  0.39865100  1
  C  C0  1  0.86822200  0.13177800  0.93914900  1
  C  C1  1  0.13177800  0.86822200  0.06085100  1
  C  C2  1  0.86822200  0.13177800  0.56085100  1
  C  C3  1  0.13177800  0.86822200  0.43914900  1
  C  C4  1  0.22863600  0.13561100  0.91313500  1
  C  C5  1  0.13561100  0.22863600  0.08686500  1
  C  C6  1  0.22863600  0.13561100  0.58686500  1
  C  C7  1  0.13561100  0.22863600  0.41313500  1
  C  C8  1  0.77136400  0.86438900  0.08686500  1
  C  C9  1  0.86438900  0.77136400  0.91313500  1
  C  C10  1  0.77136400  0.86438900  0.41313500  1
  C  C11  1  0.86438900  0.77136400  0.58686500  1
  N  N0  1  0.78662300  0.21337700  0.89900500  1
  N  N1  1  0.21337700  0.78662300  0.10099500  1
  N  N2  1  0.78662300  0.21337700  0.60099500  1
  N  N3  1  0.21337700  0.78662300  0.39900500  1
  N  N4  1  0.37443800  0.21961900  0.86055400  1
  N  N5  1  0.21961900  0.37443800  0.13944600  1
  N  N6  1  0.37443800  0.21961900  0.63944600  1
  N  N7  1  0.21961900  0.37443800  0.36055400  1
  N  N8  1  0.62556200  0.78038100  0.13944600  1
  N  N9  1  0.78038100  0.62556200  0.86055400  1
  N  N10  1  0.62556200  0.78038100  0.36055400  1
  N  N11  1  0.78038100  0.62556200  0.63944600  1
  O  O0  1  0.51009300  0.96170200  0.75000000  1
  O  O1  1  0.96170200  0.51009300  0.25000000  1
  O  O2  1  0.48990700  0.03829800  0.25000000  1
  O  O3  1  0.03829800  0.48990700  0.75000000  1
  O  O4  1  0.33926900  0.66073100  0.89534800  1
  O  O5  1  0.66073100  0.33926900  0.10465200  1
  O  O6  1  0.33926900  0.66073100  0.60465200  1
  O  O7  1  0.66073100  0.33926900  0.39534800  1
loop_
_geom_bond_atom_site_label_1
_geom_bond_atom_site_label_2
_geom_bond_distance
_geom_bond_site_symmetry_2
Er0 O0 2.304418 1_545
Er0 O3 2.304418 1_655
Er0 N4 2.453210 1_555
Er0 N9 2.453210 1_555
Er0 N6 2.453210 1_555
Er0 N11 2.453210 1_555
Er0 N0 2.473911 1_555
Er0 N2 2.473911 1_555
Er1 O1 2.304418 1_455
Er1 O2 2.304418 1_565
Er1 N7 2.453210 1_555
Er1 N5 2.453210 1_555
Er1 N10 2.453210 1_555
Er1 N8 2.453210 1_555
Er1 N3 2.473911 1_555
Er1 N1 2.473911 1_555
H0 O0 0.988590 1_555
H1 O1 0.988590 1_555
H2 O0 0.988590 1_555
H3 O1 0.988590 1_555
H4 O2 0.988590 1_555
H5 O3 0.988590 1_555
H6 O2 0.988590 1_555
H7 O3 0.988590 1_555
H8 O4 0.980010 1_555
H9 O5 0.980010 1_555
H10 O6 0.980010 1_555
H11 O7 0.980010 1_555
H12 O4 0.978427 1_555
H13 O5 0.978427 1_555
H14 O6 0.978427 1_555
H15 O7 0.978427 1_555
C0 N0 1.174396 1_555
C0 Co0 1.872023 1_656
C1 N1 1.174396 1_555
C1 Co0 1.872023 1_565
C2 N2 1.174396 1_555
C2 Co1 1.872023 1_655
C3 N3 1.174396 1_555
C3 Co1 1.872023 1_565
C4 N4 1.171141 1_555
C4 Co0 1.875787 1_556
C5 N5 1.171141 1_555
C5 Co0 1.875787 1_555
C6 N6 1.171141 1_555
C6 Co1 1.875787 1_555
C7 N7 1.171141 1_555
C7 Co1 1.875787 1_555
C8 N8 1.171141 1_555
C8 Co0 1.875787 1_665
C9 N9 1.171141 1_555
C9 Co0 1.875787 1_666
C10 N10 1.171141 1_555
C10 Co1 1.875787 1_665
C11 N11 1.171141 1_555
C11 Co1 1.875787 1_665
