# generated using pymatgen
data_Al2Fe2Bi2O9
_symmetry_space_group_name_H-M   'P 1'
_cell_length_a   5.88354600
_cell_length_b   7.99738200
_cell_length_c   8.43769700
_cell_angle_alpha   90.00000000
_cell_angle_beta   90.00000000
_cell_angle_gamma   90.00000000
_symmetry_Int_Tables_number   1
_chemical_formula_structural   Al2Fe2Bi2O9
_chemical_formula_sum   'Al4 Fe4 Bi4 O18'
_cell_volume   397.01866058
_cell_formula_units_Z   2
loop_
 _symmetry_equiv_pos_site_id
 _symmetry_equiv_pos_as_xyz
  1  'x, y, z'
loop_
 _atom_site_type_symbol
 _atom_site_label
 _atom_site_symmetry_multiplicity
 _atom_site_fract_x
 _atom_site_fract_y
 _atom_site_fract_z
 _atom_site_occupancy
  Al  Al0  1  0.25685900  0.00000000  0.50000000  1
  Al  Al1  1  0.74314100  0.50000000  0.00000000  1
  Al  Al2  1  0.74314100  0.00000000  0.50000000  1
  Al  Al3  1  0.25685900  0.50000000  0.00000000  1
  Fe  Fe0  1  0.50000000  0.84802400  0.16636700  1
  Fe  Fe1  1  0.50000000  0.15197600  0.83363300  1
  Fe  Fe2  1  0.50000000  0.34802400  0.33363300  1
  Fe  Fe3  1  0.50000000  0.65197600  0.66636700  1
  Bi  Bi0  1  0.00000000  0.67459000  0.33121300  1
  Bi  Bi1  1  0.00000000  0.32541000  0.66878700  1
  Bi  Bi2  1  0.00000000  0.17459000  0.16878700  1
  Bi  Bi3  1  0.00000000  0.82541000  0.83121300  1
  O  O0  1  0.24263400  0.87391000  0.30345600  1
  O  O1  1  0.24263400  0.12609000  0.69654400  1
  O  O2  1  0.75736600  0.37391000  0.19654400  1
  O  O3  1  0.75736600  0.62609000  0.80345600  1
  O  O4  1  0.75736600  0.12609000  0.69654400  1
  O  O5  1  0.75736600  0.87391000  0.30345600  1
  O  O6  1  0.24263400  0.62609000  0.80345600  1
  O  O7  1  0.24263400  0.37391000  0.19654400  1
  O  O8  1  0.00000000  0.64219200  0.07025700  1
  O  O9  1  0.00000000  0.35780800  0.92974300  1
  O  O10  1  0.00000000  0.14219200  0.42974300  1
  O  O11  1  0.00000000  0.85780800  0.57025700  1
  O  O12  1  0.50000000  0.62773000  0.08689400  1
  O  O13  1  0.50000000  0.37227000  0.91310600  1
  O  O14  1  0.50000000  0.12773000  0.41310600  1
  O  O15  1  0.50000000  0.87227000  0.58689400  1
  O  O16  1  0.50000000  0.50000000  0.50000000  1
  O  O17  1  0.50000000  0.00000000  0.00000000  1
loop_
_geom_bond_atom_site_label_1
_geom_bond_atom_site_label_2
_geom_bond_distance
_geom_bond_site_symmetry_2
Al0 O15 1.904588 1_545
Al0 O14 1.904588 1_555
Al0 O1 1.942698 1_555
Al0 O0 1.942698 1_545
Al0 O10 1.982023 1_555
Al0 O11 1.982023 1_545
Al1 O13 1.904588 1_554
Al1 O12 1.904588 1_555
Al1 O2 1.942698 1_555
Al1 O3 1.942698 1_554
Al1 O8 1.982023 1_655
Al1 O9 1.982023 1_654
Al2 O15 1.904588 1_545
Al2 O14 1.904588 1_555
Al2 O4 1.942698 1_555
Al2 O5 1.942698 1_545
Al2 O10 1.982023 1_655
Al2 O11 1.982023 1_645
Al3 O13 1.904588 1_554
Al3 O12 1.904588 1_555
Al3 O7 1.942698 1_555
Al3 O6 1.942698 1_554
Al3 O8 1.982023 1_555
Al3 O9 1.982023 1_554
Fe0 O17 1.856811 1_565
Fe0 O12 1.885077 1_555
Fe0 O0 1.916696 1_555
Fe0 O5 1.916696 1_555
Fe1 O17 1.856811 1_556
Fe1 O13 1.885077 1_555
Fe1 O4 1.916696 1_555
Fe1 O1 1.916696 1_555
Fe2 O16 1.856811 1_555
Fe2 O14 1.885077 1_555
Fe2 O7 1.916696 1_555
Fe2 O2 1.916696 1_555
Fe3 O16 1.856811 1_555
Fe3 O15 1.885077 1_555
Fe3 O6 1.916696 1_555
Fe3 O3 1.916696 1_555
Bi0 O0 2.152604 1_555
Bi0 O5 2.152604 1_455
Bi0 O8 2.217060 1_555
Bi0 O11 2.493033 1_555
Bi1 O1 2.152604 1_555
Bi1 O4 2.152604 1_455
Bi1 O9 2.217060 1_555
Bi1 O10 2.493033 1_555
Bi2 O7 2.152604 1_555
Bi2 O2 2.152604 1_455
Bi2 O10 2.217060 1_555
Bi2 O9 2.493033 1_554
Bi3 O6 2.152604 1_555
Bi3 O3 2.152604 1_455
Bi3 O11 2.217060 1_555
Bi3 O8 2.493033 1_556
