# generated using pymatgen
data_La2MgS4
_symmetry_space_group_name_H-M   'P 1'
_cell_length_a   4.04206300
_cell_length_b   13.24787300
_cell_length_c   14.14277200
_cell_angle_alpha   90.00000000
_cell_angle_beta   90.00000000
_cell_angle_gamma   90.00000000
_symmetry_Int_Tables_number   1
_chemical_formula_structural   La2MgS4
_chemical_formula_sum   'La8 Mg4 S16'
_cell_volume   757.32758227
_cell_formula_units_Z   4
loop_
 _symmetry_equiv_pos_site_id
 _symmetry_equiv_pos_as_xyz
  1  'x, y, z'
loop_
 _atom_site_type_symbol
 _atom_site_label
 _atom_site_symmetry_multiplicity
 _atom_site_fract_x
 _atom_site_fract_y
 _atom_site_fract_z
 _atom_site_occupancy
  La  La0  1  0.25000000  0.12428800  0.07546700  1
  La  La1  1  0.75000000  0.87571200  0.92453300  1
  La  La2  1  0.75000000  0.37571200  0.57546700  1
  La  La3  1  0.25000000  0.62428800  0.42453300  1
  La  La4  1  0.25000000  0.12821300  0.71004700  1
  La  La5  1  0.75000000  0.87178700  0.28995300  1
  La  La6  1  0.75000000  0.37178700  0.21004700  1
  La  La7  1  0.25000000  0.62821300  0.78995300  1
  Mg  Mg0  1  0.75000000  0.10461500  0.46496100  1
  Mg  Mg1  1  0.25000000  0.89538500  0.53503900  1
  Mg  Mg2  1  0.25000000  0.39538500  0.96496100  1
  Mg  Mg3  1  0.75000000  0.60461500  0.03503900  1
  S  S0  1  0.75000000  0.99901400  0.61320200  1
  S  S1  1  0.25000000  0.00098600  0.38679800  1
  S  S2  1  0.25000000  0.50098600  0.11320200  1
  S  S3  1  0.75000000  0.49901400  0.88679800  1
  S  S4  1  0.25000000  0.02250000  0.88889100  1
  S  S5  1  0.75000000  0.97750000  0.11110900  1
  S  S6  1  0.75000000  0.47750000  0.38889100  1
  S  S7  1  0.25000000  0.52250000  0.61110900  1
  S  S8  1  0.25000000  0.23442900  0.24571100  1
  S  S9  1  0.75000000  0.76557100  0.75428900  1
  S  S10  1  0.75000000  0.26557100  0.74571100  1
  S  S11  1  0.25000000  0.73442900  0.25428900  1
  S  S12  1  0.75000000  0.27316100  0.01873500  1
  S  S13  1  0.25000000  0.72683900  0.98126500  1
  S  S14  1  0.25000000  0.22683900  0.51873500  1
  S  S15  1  0.75000000  0.77316100  0.48126500  1
loop_
_geom_bond_atom_site_label_1
_geom_bond_atom_site_label_2
_geom_bond_distance
_geom_bond_site_symmetry_2
La0 S8 2.815350 1_555
La0 S5 2.849604 1_445
La0 S5 2.849604 1_545
La0 S12 2.935661 1_555
La0 S12 2.935661 1_455
La0 S4 2.963297 1_554
La1 S9 2.815350 1_555
La1 S4 2.849604 1_565
La1 S4 2.849604 1_665
La1 S13 2.935661 1_655
La1 S13 2.935661 1_555
La1 S5 2.963297 1_556
La2 S10 2.815350 1_555
La2 S7 2.849604 1_555
La2 S7 2.849604 1_655
La2 S14 2.935661 1_555
La2 S14 2.935661 1_655
La2 S6 2.963297 1_555
La3 S11 2.815350 1_555
La3 S6 2.849604 1_455
La3 S6 2.849604 1_555
La3 S15 2.935661 1_455
La3 S15 2.935661 1_555
La3 S7 2.963297 1_555
La4 S10 2.765915 1_555
La4 S10 2.765915 1_455
La4 S4 2.891182 1_555
La4 S0 2.981634 1_445
La4 S0 2.981634 1_545
La4 S14 3.004643 1_555
La5 S11 2.765915 1_555
La5 S11 2.765915 1_655
La5 S5 2.891182 1_555
La5 S1 2.981634 1_665
La5 S1 2.981634 1_565
La5 S15 3.004643 1_555
La6 S8 2.765915 1_655
La6 S8 2.765915 1_555
La6 S6 2.891182 1_555
La6 S2 2.981634 1_655
La6 S2 2.981634 1_555
La6 S12 3.004643 1_555
La7 S9 2.765915 1_555
La7 S9 2.765915 1_455
La7 S7 2.891182 1_555
La7 S3 2.981634 1_455
La7 S3 2.981634 1_555
La7 S13 3.004643 1_555
Mg0 S0 2.520445 1_545
Mg0 S1 2.681664 1_655
Mg0 S1 2.681664 1_555
Mg0 S14 2.699034 1_555
Mg0 S14 2.699034 1_655
Mg1 S1 2.520445 1_565
Mg1 S0 2.681664 1_455
Mg1 S0 2.681664 1_555
Mg1 S15 2.699034 1_455
Mg1 S15 2.699034 1_555
Mg2 S2 2.520445 1_556
Mg2 S3 2.681664 1_455
Mg2 S3 2.681664 1_555
Mg2 S12 2.699034 1_456
Mg2 S12 2.699034 1_556
Mg3 S3 2.520445 1_554
Mg3 S2 2.681664 1_555
Mg3 S2 2.681664 1_655
Mg3 S13 2.699034 1_554
Mg3 S13 2.699034 1_654
