# generated using pymatgen
data_Ca3FeRhO6
_symmetry_space_group_name_H-M   'P 1'
_cell_length_a   6.46359789
_cell_length_b   9.03479606
_cell_length_c   9.24580083
_cell_angle_alpha   89.99999462
_cell_angle_beta   90.00000334
_cell_angle_gamma   91.89261997
_symmetry_Int_Tables_number   1
_chemical_formula_structural   Ca3FeRhO6
_chemical_formula_sum   'Ca12 Fe4 Rh4 O24'
_cell_volume   539.63515776
_cell_formula_units_Z   4
loop_
 _symmetry_equiv_pos_site_id
 _symmetry_equiv_pos_as_xyz
  1  'x, y, z'
loop_
 _atom_site_type_symbol
 _atom_site_label
 _atom_site_symmetry_multiplicity
 _atom_site_fract_x
 _atom_site_fract_y
 _atom_site_fract_z
 _atom_site_occupancy
  Ca  Ca0  1  0.61738400  0.56630800  0.68369200  1
  Ca  Ca1  1  0.61738400  0.06630800  0.18369200  1
  Ca  Ca2  1  0.25000000  0.75000000  0.13261600  1
  Ca  Ca3  1  0.25000000  0.25000000  0.63261600  1
  Ca  Ca4  1  0.88261600  0.43369200  0.18369200  1
  Ca  Ca5  1  0.88261600  0.93369200  0.68369200  1
  Ca  Ca6  1  0.38261600  0.43369200  0.31630800  1
  Ca  Ca7  1  0.38261600  0.93369200  0.81630800  1
  Ca  Ca8  1  0.11738400  0.56630800  0.81630800  1
  Ca  Ca9  1  0.11738400  0.06630800  0.31630800  1
  Ca  Ca10  1  0.75000000  0.25000000  0.86738400  1
  Ca  Ca11  1  0.75000000  0.75000000  0.36738400  1
  Fe  Fe0  1  0.25000000  0.75000000  0.50000000  1
  Fe  Fe1  1  0.75000000  0.75000000  0.00000000  1
  Fe  Fe2  1  0.25000000  0.25000000  0.00000000  1
  Fe  Fe3  1  0.75000000  0.25000000  0.50000000  1
  Rh  Rh0  1  0.00000000  0.00000000  0.00000000  1
  Rh  Rh1  1  0.00000000  0.50000000  0.50000000  1
  Rh  Rh2  1  0.50000000  0.50000000  0.00000000  1
  Rh  Rh3  1  0.50000000  0.00000000  0.50000000  1
  O  O0  1  0.79968800  0.53219000  0.93105500  1
  O  O1  1  0.79968800  0.03219000  0.43105500  1
  O  O2  1  0.60113500  0.63146700  0.16822200  1
  O  O3  1  0.60113500  0.13146700  0.66822200  1
  O  O4  1  0.46324500  0.70041100  0.90072300  1
  O  O5  1  0.46324500  0.20041100  0.40072300  1
  O  O6  1  0.03675500  0.79958900  0.90072300  1
  O  O7  1  0.03675500  0.29958900  0.40072300  1
  O  O8  1  0.89886500  0.36853300  0.66822200  1
  O  O9  1  0.89886500  0.86853300  0.16822200  1
  O  O10  1  0.70031200  0.46781000  0.43105500  1
  O  O11  1  0.70031200  0.96781000  0.93105500  1
  O  O12  1  0.20031200  0.46781000  0.06894500  1
  O  O13  1  0.20031200  0.96781000  0.56894500  1
  O  O14  1  0.39886500  0.36853300  0.83177800  1
  O  O15  1  0.39886500  0.86853300  0.33177800  1
  O  O16  1  0.53675500  0.29958900  0.09927700  1
  O  O17  1  0.53675500  0.79958900  0.59927700  1
  O  O18  1  0.96324500  0.20041100  0.09927700  1
  O  O19  1  0.96324500  0.70041100  0.59927700  1
  O  O20  1  0.29968800  0.53219000  0.56894500  1
  O  O21  1  0.29968800  0.03219000  0.06894500  1
  O  O22  1  0.10113500  0.63146700  0.33177800  1
  O  O23  1  0.10113500  0.13146700  0.83177800  1
loop_
_geom_bond_atom_site_label_1
_geom_bond_atom_site_label_2
_geom_bond_distance
_geom_bond_site_symmetry_2
Ca0 O20 2.322815 1_555
Ca0 O17 2.322818 1_555
Ca0 O4 2.562584 1_555
Ca0 O10 2.562590 1_555
Ca0 O0 2.595800 1_555
Ca0 O8 2.595803 1_555
Ca0 O19 2.625966 1_555
Ca0 O14 2.625970 1_555
Ca1 O21 2.322815 1_555
Ca1 O16 2.322818 1_555
Ca1 O5 2.562584 1_555
Ca1 O11 2.562590 1_544
Ca1 O1 2.595800 1_555
Ca1 O9 2.595803 1_545
Ca1 O18 2.625966 1_555
Ca1 O15 2.625970 1_545
Ca2 O22 2.322809 1_555
Ca2 O15 2.322809 1_555
Ca2 O2 2.562588 1_555
Ca2 O9 2.562588 1_455
Ca2 O6 2.595805 1_554
Ca2 O4 2.595805 1_554
Ca2 O21 2.625969 1_565
Ca2 O12 2.625969 1_555
Ca3 O23 2.322809 1_555
Ca3 O14 2.322809 1_555
Ca3 O3 2.562588 1_555
Ca3 O8 2.562588 1_455
Ca3 O7 2.595805 1_555
Ca3 O5 2.595805 1_555
Ca3 O20 2.625969 1_555
Ca3 O13 2.625969 1_545
Ca4 O12 2.322815 1_655
Ca4 O18 2.322818 1_555
Ca4 O7 2.562584 1_655
Ca4 O0 2.562589 1_554
Ca4 O10 2.595800 1_555
Ca4 O2 2.595803 1_555
Ca4 O16 2.625966 1_555
Ca4 O22 2.625970 1_655
Ca5 O13 2.322815 1_655
Ca5 O19 2.322818 1_555
Ca5 O6 2.562584 1_655
Ca5 O1 2.562589 1_565
Ca5 O11 2.595800 1_555
Ca5 O3 2.595803 1_565
Ca5 O17 2.625966 1_555
Ca5 O23 2.625970 1_665
Ca6 O10 2.322815 1_555
Ca6 O5 2.322818 1_555
Ca6 O16 2.562584 1_555
Ca6 O20 2.562590 1_555
Ca6 O12 2.595800 1_555
Ca6 O22 2.595803 1_555
Ca6 O7 2.625966 1_555
Ca6 O2 2.625970 1_555
Ca7 O11 2.322815 1_555
Ca7 O4 2.322818 1_555
Ca7 O17 2.562584 1_555
Ca7 O21 2.562590 1_566
Ca7 O13 2.595800 1_555
Ca7 O23 2.595803 1_565
Ca7 O6 2.625966 1_555
Ca7 O3 2.625970 1_565
Ca8 O0 2.322815 1_455
Ca8 O6 2.322818 1_555
Ca8 O19 2.562584 1_455
Ca8 O12 2.562589 1_556
Ca8 O20 2.595800 1_555
Ca8 O14 2.595803 1_555
Ca8 O4 2.625966 1_555
Ca8 O8 2.625970 1_455
Ca9 O1 2.322815 1_455
Ca9 O7 2.322818 1_555
Ca9 O18 2.562584 1_455
Ca9 O13 2.562589 1_545
Ca9 O21 2.595800 1_555
Ca9 O15 2.595803 1_545
Ca9 O5 2.625966 1_555
Ca9 O9 2.625970 1_445
Ca10 O8 2.322809 1_555
Ca10 O3 2.322809 1_555
Ca10 O14 2.562588 1_555
Ca10 O23 2.562588 1_655
Ca10 O18 2.595805 1_556
Ca10 O16 2.595805 1_556
Ca10 O11 2.625969 1_545
Ca10 O0 2.625969 1_555
Ca11 O9 2.322809 1_555
Ca11 O2 2.322809 1_555
Ca11 O15 2.562588 1_555
Ca11 O22 2.562588 1_655
Ca11 O19 2.595805 1_555
Ca11 O17 2.595805 1_555
Ca11 O10 2.625969 1_555
Ca11 O1 2.625969 1_565
Fe0 O20 2.103270 1_555
Fe0 O13 2.103270 1_555
Fe0 O15 2.103271 1_555
Fe0 O22 2.103271 1_555
Fe0 O17 2.103273 1_555
Fe0 O19 2.103273 1_455
Fe1 O11 2.103270 1_554
Fe1 O0 2.103270 1_554
Fe1 O2 2.103271 1_555
Fe1 O9 2.103271 1_555
Fe1 O4 2.103273 1_554
Fe1 O6 2.103273 1_654
Fe2 O21 2.103270 1_555
Fe2 O12 2.103270 1_555
Fe2 O14 2.103271 1_554
Fe2 O23 2.103271 1_554
Fe2 O16 2.103273 1_555
Fe2 O18 2.103273 1_455
Fe3 O10 2.103270 1_555
Fe3 O1 2.103270 1_555
Fe3 O3 2.103271 1_555
Fe3 O8 2.103271 1_555
Fe3 O5 2.103273 1_555
Fe3 O7 2.103273 1_655
O0 Rh2 2.050836 1_556
O1 Rh3 2.050836 1_555
O2 Rh2 2.050842 1_555
O3 Rh3 2.050842 1_555
O4 Rh2 2.050834 1_556
O5 Rh3 2.050834 1_555
O6 Rh0 2.050834 1_566
O7 Rh1 2.050834 1_555
O8 Rh1 2.050842 1_655
O9 Rh0 2.050842 1_665
O10 Rh1 2.050836 1_655
O11 Rh0 2.050836 1_666
O12 Rh2 2.050836 1_555
O13 Rh3 2.050836 1_565
O14 Rh2 2.050842 1_556
O15 Rh3 2.050842 1_565
O16 Rh2 2.050834 1_555
O17 Rh3 2.050834 1_565
O18 Rh0 2.050834 1_655
O19 Rh1 2.050834 1_655
O20 Rh1 2.050836 1_555
O21 Rh0 2.050836 1_555
O22 Rh1 2.050842 1_555
O23 Rh0 2.050842 1_556
