# generated using pymatgen
data_DyIO9
_symmetry_space_group_name_H-M   'P 1'
_cell_length_a   7.50585782
_cell_length_b   7.97404358
_cell_length_c   12.03071000
_cell_angle_alpha   90.00000000
_cell_angle_beta   90.00000000
_cell_angle_gamma   94.57702120
_symmetry_Int_Tables_number   1
_chemical_formula_structural   DyIO9
_chemical_formula_sum   'Dy4 I4 O36'
_cell_volume   717.76619802
_cell_formula_units_Z   4
loop_
 _symmetry_equiv_pos_site_id
 _symmetry_equiv_pos_as_xyz
  1  'x, y, z'
loop_
 _atom_site_type_symbol
 _atom_site_label
 _atom_site_symmetry_multiplicity
 _atom_site_fract_x
 _atom_site_fract_y
 _atom_site_fract_z
 _atom_site_occupancy
  Dy  Dy0  1  0.00056700  0.81744500  0.42003400  1
  Dy  Dy1  1  0.99943300  0.18255500  0.57996600  1
  Dy  Dy2  1  0.49943300  0.68255500  0.92003400  1
  Dy  Dy3  1  0.50056700  0.31744500  0.07996600  1
  I  I0  1  0.74910400  0.74614100  0.19323500  1
  I  I1  1  0.25089600  0.25385900  0.80676500  1
  I  I2  1  0.75089600  0.75385900  0.69323500  1
  I  I3  1  0.24910400  0.24614100  0.30676500  1
  O  O0  1  0.64008600  0.57345000  0.06271000  1
  O  O1  1  0.35991400  0.42655000  0.93729000  1
  O  O2  1  0.85991400  0.92655000  0.56271000  1
  O  O3  1  0.14008600  0.07345000  0.43729000  1
  O  O4  1  0.64613100  0.57401100  0.78262800  1
  O  O5  1  0.35386900  0.42598900  0.21737200  1
  O  O6  1  0.85386900  0.92598900  0.28262800  1
  O  O7  1  0.14613100  0.07401100  0.71737200  1
  O  O8  1  0.29416500  0.76892600  0.28571200  1
  O  O9  1  0.70583500  0.23107400  0.71428800  1
  O  O10  1  0.20583500  0.73107400  0.78571200  1
  O  O11  1  0.79416500  0.26892600  0.21428800  1
  O  O12  1  0.87307300  0.59775400  0.27323700  1
  O  O13  1  0.12692700  0.40224600  0.72676300  1
  O  O14  1  0.62692700  0.90224600  0.77323700  1
  O  O15  1  0.37307300  0.09775400  0.22676300  1
  O  O16  1  0.15067800  0.58344000  0.48266700  1
  O  O17  1  0.84932200  0.41656000  0.51733300  1
  O  O18  1  0.34932200  0.91656000  0.98266700  1
  O  O19  1  0.65067800  0.08344000  0.01733300  1
  O  O20  1  0.39738600  0.83717300  0.57620300  1
  O  O21  1  0.60261400  0.16282700  0.42379700  1
  O  O22  1  0.10261400  0.66282700  0.07620300  1
  O  O23  1  0.89738600  0.33717300  0.92379700  1
  O  O24  1  0.05513400  0.75127000  0.82473600  1
  O  O25  1  0.94486600  0.24873000  0.17526400  1
  O  O26  1  0.44486600  0.74873000  0.32473600  1
  O  O27  1  0.55513400  0.25127000  0.67526400  1
  O  O28  1  0.86922800  0.57954000  0.53221300  1
  O  O29  1  0.13077200  0.42046000  0.46778700  1
  O  O30  1  0.63077200  0.92046000  0.03221300  1
  O  O31  1  0.36922800  0.07954000  0.96778700  1
  O  O32  1  0.00476800  0.78273500  0.06481200  1
  O  O33  1  0.99523200  0.21726500  0.93518800  1
  O  O34  1  0.49523200  0.71726500  0.56481200  1
  O  O35  1  0.50476800  0.28273500  0.43518800  1
loop_
_geom_bond_atom_site_label_1
_geom_bond_atom_site_label_2
_geom_bond_distance
_geom_bond_site_symmetry_2
Dy0 O6 2.201448 1_455
Dy0 O2 2.228094 1_455
Dy0 O3 2.228420 1_565
Dy0 O16 2.377949 1_555
Dy0 O28 2.468524 1_455
Dy0 O12 2.614595 1_455
Dy0 O8 2.784510 1_555
Dy1 O7 2.201448 1_655
Dy1 O3 2.228094 1_655
Dy1 O2 2.228420 1_545
Dy1 O17 2.377949 1_555
Dy1 O29 2.468524 1_655
Dy1 O13 2.614595 1_655
Dy1 O9 2.784510 1_555
Dy2 O4 2.201448 1_555
Dy2 O0 2.228094 1_556
Dy2 O1 2.228420 1_555
Dy2 O18 2.377949 1_555
Dy2 O30 2.468524 1_556
Dy2 O14 2.614595 1_555
Dy2 O10 2.784510 1_555
Dy3 O5 2.201448 1_555
Dy3 O1 2.228094 1_554
Dy3 O0 2.228420 1_555
Dy3 O19 2.377949 1_555
Dy3 O31 2.468524 1_554
Dy3 O15 2.614595 1_555
Dy3 O11 2.784510 1_555
I0 O12 1.835204 1_555
I0 O6 1.910935 1_555
I0 O0 2.202694 1_555
I0 O32 2.462791 1_655
I0 O30 2.582802 1_555
I0 O26 2.779481 1_555
I1 O13 1.835204 1_555
I1 O7 1.910935 1_555
I1 O1 2.202694 1_555
I1 O33 2.462791 1_455
I1 O31 2.582802 1_555
I1 O27 2.779481 1_555
I2 O14 1.835204 1_555
I2 O4 1.910935 1_555
I2 O2 2.202694 1_555
I2 O34 2.462791 1_555
I2 O28 2.582802 1_555
I2 O24 2.779481 1_655
I3 O15 1.835204 1_555
I3 O5 1.910935 1_555
I3 O3 2.202694 1_555
I3 O35 2.462791 1_555
I3 O29 2.582802 1_555
I3 O25 2.779481 1_455
O10 O24 1.246958 1_555
O11 O25 1.246958 1_555
O16 O29 1.308574 1_555
O17 O28 1.308574 1_555
O18 O31 1.308574 1_565
O19 O30 1.308574 1_545
O20 O34 1.258749 1_555
O21 O35 1.258749 1_555
O22 O32 1.258749 1_555
O23 O33 1.258749 1_555
O26 O8 1.246958 1_555
O27 O9 1.246958 1_555
