# generated using pymatgen
data_Na2FeSn(PO4)3
_symmetry_space_group_name_H-M   'P 1'
_cell_length_a   8.81563656
_cell_length_b   8.81563656
_cell_length_c   8.95572784
_cell_angle_alpha   60.48436881
_cell_angle_beta   60.48436881
_cell_angle_gamma   59.94796441
_symmetry_Int_Tables_number   1
_chemical_formula_structural   Na2FeSn(PO4)3
_chemical_formula_sum   'Na4 Fe2 Sn2 P6 O24'
_cell_volume   495.51954074
_cell_formula_units_Z   2
loop_
 _symmetry_equiv_pos_site_id
 _symmetry_equiv_pos_as_xyz
  1  'x, y, z'
loop_
 _atom_site_type_symbol
 _atom_site_label
 _atom_site_symmetry_multiplicity
 _atom_site_fract_x
 _atom_site_fract_y
 _atom_site_fract_z
 _atom_site_occupancy
  Na  Na0  1  0.38297400  0.24764000  0.50073800  1
  Na  Na1  1  0.75236000  0.61702600  0.49926200  1
  Na  Na2  1  0.48189300  0.99620000  0.25552100  1
  Na  Na3  1  0.00380000  0.51810700  0.74447900  1
  Fe  Fe0  1  0.34401800  0.84888900  0.70129800  1
  Fe  Fe1  1  0.15111100  0.65598200  0.29870200  1
  Sn  Sn0  1  0.85833800  0.35336000  0.18204700  1
  Sn  Sn1  1  0.64664000  0.14166200  0.81795300  1
  P  P0  1  0.54211800  0.45788200  0.00000000  1
  P  P1  1  0.95559000  0.74799600  0.00721800  1
  P  P2  1  0.25200400  0.04441000  0.99278200  1
  P  P3  1  0.04663300  0.24844200  0.49909900  1
  P  P4  1  0.75155800  0.95336700  0.50090100  1
  P  P5  1  0.45462400  0.54537600  0.50000000  1
  O  O0  1  0.51185600  0.61692500  0.82472300  1
  O  O1  1  0.11788100  0.79319300  0.83824100  1
  O  O2  1  0.30086200  0.01965500  0.81402900  1
  O  O3  1  0.02021200  0.27916100  0.32700500  1
  O  O4  1  0.77139500  0.12884900  0.33235600  1
  O  O5  1  0.63035400  0.51790400  0.33096800  1
  O  O6  1  0.48209600  0.36964600  0.66903200  1
  O  O7  1  0.87115100  0.22860500  0.66764400  1
  O  O8  1  0.72083900  0.97978800  0.67299500  1
  O  O9  1  0.98034500  0.69913800  0.18597100  1
  O  O10  1  0.20680700  0.88211900  0.16175900  1
  O  O11  1  0.38307500  0.48814400  0.17527700  1
  O  O12  1  0.43589100  0.71969300  0.51722200  1
  O  O13  1  0.22624500  0.08145400  0.51529700  1
  O  O14  1  0.58160800  0.93086000  0.51261400  1
  O  O15  1  0.93711800  0.58329600  0.00325000  1
  O  O16  1  0.08424900  0.22899600  0.99704000  1
  O  O17  1  0.72762400  0.43857100  0.00067200  1
  O  O18  1  0.56142900  0.27237600  0.99932800  1
  O  O19  1  0.77100400  0.91575100  0.00296000  1
  O  O20  1  0.41670400  0.06288200  0.99675000  1
  O  O21  1  0.06914000  0.41839200  0.48738600  1
  O  O22  1  0.91854700  0.77375500  0.48470300  1
  O  O23  1  0.28030700  0.56410900  0.48277800  1
loop_
_geom_bond_atom_site_label_1
_geom_bond_atom_site_label_2
_geom_bond_distance
_geom_bond_site_symmetry_2
Na0 O13 2.394573 1_555
Na0 O23 2.408466 1_555
Na0 O14 2.422679 1_545
Na0 O21 2.431458 1_555
Na0 O2 2.516999 1_555
Na0 O11 2.627006 1_555
Na0 O4 2.823539 1_555
Na0 O6 2.833433 1_555
Na1 O22 2.394581 1_555
Na1 O12 2.408466 1_555
Na1 O21 2.422679 1_655
Na1 O14 2.431458 1_555
Na1 O9 2.516999 1_555
Na1 O0 2.627006 1_555
Na1 O7 2.823539 1_555
Na1 O5 2.833433 1_555
Na2 O20 2.382884 1_564
Na2 O13 2.432423 1_565
Na2 O12 2.454327 1_555
Na2 O19 2.490958 1_555
Na2 O18 2.510784 1_564
Na2 O14 2.566353 1_555
Na3 O15 2.382884 1_456
Na3 O22 2.432420 1_455
Na3 O23 2.454327 1_555
Na3 O16 2.490958 1_555
Na3 O17 2.510784 1_456
Na3 O21 2.566353 1_555
Fe0 O1 1.922860 1_555
Fe0 O0 1.986602 1_555
Fe0 O2 1.993921 1_565
Fe0 O13 2.064748 1_565
Fe0 O12 2.069149 1_555
Fe0 O14 2.142424 1_555
Fe1 O10 1.922860 1_555
Fe1 O11 1.986602 1_555
Fe1 O9 1.993921 1_455
Fe1 O22 2.064745 1_455
Fe1 O23 2.069149 1_555
Fe1 O21 2.142424 1_555
O0 P0 1.539627 1_556
O1 P1 1.529471 1_456
O2 P2 1.538374 1_555
O3 P3 1.543455 1_555
O3 Sn0 2.050209 1_455
O4 P4 1.553131 1_545
O4 Sn0 2.048018 1_555
O5 P5 1.557219 1_555
O5 Sn0 2.065761 1_555
O6 P5 1.557219 1_555
O6 Sn1 2.065761 1_555
O7 P3 1.553131 1_655
O7 Sn1 2.048018 1_555
O8 P4 1.543455 1_555
O8 Sn1 2.050209 1_565
O9 P1 1.538374 1_555
O10 P2 1.529471 1_564
O11 P0 1.539627 1_555
O12 P5 1.538446 1_555
O13 P3 1.541620 1_555
O14 P4 1.554799 1_555
O15 P1 1.558604 1_555
O15 Sn0 2.066709 1_555
O16 P2 1.559403 1_555
O16 Sn0 2.065223 1_456
O17 P0 1.559887 1_555
O17 Sn0 2.075015 1_555
O18 P0 1.559887 1_556
O18 Sn1 2.075015 1_555
O19 P1 1.559403 1_555
O19 Sn1 2.065223 1_564
O20 P2 1.558604 1_555
O20 Sn1 2.066709 1_555
O21 P3 1.554799 1_555
O22 P4 1.541624 1_555
O23 P5 1.538446 1_555
