# generated using pymatgen
data_Li7Mn2(CoO4)3
_symmetry_space_group_name_H-M   'P 1'
_cell_length_a   2.99090521
_cell_length_b   2.99090521
_cell_length_c   29.71749953
_cell_angle_alpha   87.88437070
_cell_angle_beta   87.88437070
_cell_angle_gamma   57.14690068
_symmetry_Int_Tables_number   1
_chemical_formula_structural   Li7Mn2(CoO4)3
_chemical_formula_sum   'Li7 Mn2 Co3 O12'
_cell_volume   223.12385174
_cell_formula_units_Z   1
loop_
 _symmetry_equiv_pos_site_id
 _symmetry_equiv_pos_as_xyz
  1  'x, y, z'
loop_
 _atom_site_type_symbol
 _atom_site_label
 _atom_site_symmetry_multiplicity
 _atom_site_fract_x
 _atom_site_fract_y
 _atom_site_fract_z
 _atom_site_occupancy
  Li  Li0  1  0.33201700  0.33201700  0.91772100  1
  Li  Li1  1  0.98894100  0.98894100  0.74571000  1
  Li  Li2  1  0.67649200  0.67649200  0.58339300  1
  Li  Li3  1  0.33607800  0.33607800  0.41676500  1
  Li  Li4  1  0.99901300  0.99901300  0.25081500  1
  Li  Li5  1  0.67012100  0.67012100  0.08583900  1
  Li  Li6  1  0.33495000  0.33495000  0.66607400  1
  Mn  Mn0  1  0.00156200  0.00156200  0.00061100  1
  Mn  Mn1  1  0.66285300  0.66285300  0.83442000  1
  Co  Co0  1  0.00204500  0.00204500  0.49826000  1
  Co  Co1  1  0.66772300  0.66772300  0.33341100  1
  Co  Co2  1  0.33301200  0.33301200  0.16776700  1
  O  O0  1  0.64122400  0.64122400  0.96142200  1
  O  O1  1  0.31568600  0.31568600  0.79833400  1
  O  O2  1  0.00014500  0.00014500  0.62281100  1
  O  O3  1  0.66786900  0.66786900  0.45922500  1
  O  O4  1  0.31501100  0.31501100  0.29686200  1
  O  O5  1  0.00618900  0.00618900  0.12924300  1
  O  O6  1  0.01639700  0.01639700  0.87300400  1
  O  O7  1  0.66679400  0.66679400  0.70947900  1
  O  O8  1  0.32858100  0.32858100  0.53451900  1
  O  O9  1  0.01875900  0.01875900  0.36944000  1
  O  O10  1  0.65898200  0.65898200  0.20587900  1
  O  O11  1  0.35955600  0.35955600  0.03899600  1
loop_
_geom_bond_atom_site_label_1
_geom_bond_atom_site_label_2
_geom_bond_distance
_geom_bond_site_symmetry_2
Li0 O0 2.121891 1_555
Li0 O0 2.151294 1_545
Li0 O0 2.151294 1_455
Li0 O6 2.154582 1_565
Li0 O6 2.154582 1_655
Li0 O6 2.168000 1_555
Li1 O7 1.998492 1_565
Li1 O7 1.998492 1_655
Li1 O7 2.043626 1_555
Li1 O1 2.280504 1_655
Li1 O1 2.280504 1_565
Li1 O1 2.370148 1_665
Li2 O2 2.045851 1_565
Li2 O2 2.045851 1_655
Li2 O2 2.104856 1_665
Li2 O8 2.167171 1_655
Li2 O8 2.167171 1_565
Li2 O8 2.381813 1_555
Li3 O3 2.079804 1_545
Li3 O3 2.079804 1_455
Li3 O3 2.194320 1_555
Li3 O9 2.198124 1_565
Li3 O9 2.198124 1_655
Li3 O9 2.225702 1_555
Li4 O10 2.107476 1_655
Li4 O10 2.107476 1_565
Li4 O4 2.177613 1_565
Li4 O4 2.177613 1_655
Li4 O4 2.195258 1_665
Li4 O10 2.274765 1_555
Li5 O5 2.087658 1_565
Li5 O5 2.087658 1_655
Li5 O11 2.188716 1_555
Li5 O11 2.204093 1_655
Li5 O11 2.204093 1_565
Li5 O5 2.229798 1_665
Li6 O2 2.087722 1_655
Li6 O2 2.087722 1_565
Li6 O7 2.096353 1_455
Li6 O7 2.096353 1_545
Li6 O7 2.211745 1_555
Li6 O2 2.221820 1_555
Mn0 O11 1.957682 1_455
Mn0 O11 1.957682 1_545
Mn0 O0 1.966999 1_544
Mn0 O0 1.966999 1_454
Mn0 O11 2.240167 1_555
Mn0 O0 2.263820 1_444
Mn1 O1 1.941281 1_655
Mn1 O1 1.941281 1_565
Mn1 O6 1.969479 1_565
Mn1 O6 1.969479 1_655
Mn1 O1 2.154188 1_555
Mn1 O6 2.223326 1_665
Co0 O8 1.988777 1_455
Co0 O8 1.988777 1_545
Co0 O3 2.016404 1_545
Co0 O3 2.016404 1_455
Co0 O8 2.063729 1_555
Co0 O3 2.144453 1_445
Co1 O9 1.932527 1_565
Co1 O9 1.932527 1_655
Co1 O4 1.937544 1_655
Co1 O4 1.937544 1_565
Co1 O9 2.170947 1_665
Co1 O4 2.186799 1_555
Co2 O10 2.019373 1_545
Co2 O10 2.019373 1_455
Co2 O5 2.024121 1_655
Co2 O5 2.024121 1_565
Co2 O10 2.092402 1_555
Co2 O5 2.103234 1_555
