# generated using pymatgen
data_TaN
_symmetry_space_group_name_H-M   'P 1'
_cell_length_a   11.20511939
_cell_length_b   11.07607143
_cell_length_c   10.97716399
_cell_angle_alpha   83.20487381
_cell_angle_beta   89.76297525
_cell_angle_gamma   92.44751551
_symmetry_Int_Tables_number   1
_chemical_formula_structural   TaN
_chemical_formula_sum   'Ta50 N50'
_cell_volume   1351.49971992
_cell_formula_units_Z   50
loop_
 _symmetry_equiv_pos_site_id
 _symmetry_equiv_pos_as_xyz
  1  'x, y, z'
loop_
 _atom_site_type_symbol
 _atom_site_label
 _atom_site_symmetry_multiplicity
 _atom_site_fract_x
 _atom_site_fract_y
 _atom_site_fract_z
 _atom_site_occupancy
  Ta  Ta0  1  0.69866925  0.62835984  0.10080398  1
  Ta  Ta1  1  0.23799851  0.86856551  0.12412367  1
  Ta  Ta2  1  0.45257119  0.59582144  0.20631596  1
  Ta  Ta3  1  0.97766619  0.88193151  0.21208537  1
  Ta  Ta4  1  0.13948498  0.79391453  0.89605857  1
  Ta  Ta5  1  0.98548462  0.58602130  0.07860418  1
  Ta  Ta6  1  0.26667183  0.06483127  0.40409544  1
  Ta  Ta7  1  0.27211171  0.15803562  0.11253399  1
  Ta  Ta8  1  0.80865544  0.06861496  0.89160314  1
  Ta  Ta9  1  0.89643024  0.97108314  0.43710097  1
  Ta  Ta10  1  0.09126202  0.06968083  0.95663158  1
  Ta  Ta11  1  0.09342334  0.78934866  0.46280811  1
  Ta  Ta12  1  0.95805601  0.78379717  0.69859630  1
  Ta  Ta13  1  0.45820912  0.49638828  0.75180173  1
  Ta  Ta14  1  0.66928649  0.36309428  0.72458284  1
  Ta  Ta15  1  0.27470639  0.33825313  0.28443710  1
  Ta  Ta16  1  0.81069592  0.43015653  0.23383067  1
  Ta  Ta17  1  0.60972731  0.87038632  0.98776712  1
  Ta  Ta18  1  0.46168130  0.16515387  0.55760432  1
  Ta  Ta19  1  0.07749914  0.34452022  0.10197494  1
  Ta  Ta20  1  0.64000156  0.99508579  0.41751182  1
  Ta  Ta21  1  0.24825720  0.56463938  0.04044463  1
  Ta  Ta22  1  0.50405810  0.94324013  0.70890869  1
  Ta  Ta23  1  0.36972703  0.72005267  0.83252317  1
  Ta  Ta24  1  0.24314730  0.87577093  0.65184033  1
  Ta  Ta25  1  0.84373243  0.34090405  0.98485964  1
  Ta  Ta26  1  0.05604893  0.16637519  0.30947343  1
  Ta  Ta27  1  0.20523273  0.64349490  0.29295440  1
  Ta  Ta28  1  0.13394930  0.28367716  0.54318391  1
  Ta  Ta29  1  0.48610517  0.02061033  0.18828269  1
  Ta  Ta30  1  0.03168412  0.43591261  0.34639099  1
  Ta  Ta31  1  0.79921816  0.61320867  0.83814199  1
  Ta  Ta32  1  0.75194519  0.93908281  0.66445304  1
  Ta  Ta33  1  0.64531541  0.74882532  0.32295311  1
  Ta  Ta34  1  0.54219298  0.25221775  0.29696282  1
  Ta  Ta35  1  0.39715673  0.41920596  0.49426900  1
  Ta  Ta36  1  0.62144689  0.21176795  0.00749910  1
  Ta  Ta37  1  0.89321595  0.66904333  0.32478501  1
  Ta  Ta38  1  0.89449998  0.82903009  0.96633005  1
  Ta  Ta39  1  0.60093011  0.70594053  0.65763392  1
  Ta  Ta40  1  0.36698466  0.24816330  0.78766520  1
  Ta  Ta41  1  0.94032514  0.30612675  0.71625749  1
  Ta  Ta42  1  0.80517662  0.16616001  0.22820281  1
  Ta  Ta43  1  0.44311769  0.39608412  0.03399168  1
  Ta  Ta44  1  0.04504720  0.54125781  0.79063451  1
  Ta  Ta45  1  0.41490338  0.74940993  0.46716558  1
  Ta  Ta46  1  0.85149010  0.24433296  0.47515495  1
  Ta  Ta47  1  0.17350201  0.55275397  0.55542212  1
  Ta  Ta48  1  0.02968575  0.04330529  0.67164153  1
  Ta  Ta49  1  0.32810976  0.99323582  0.88735919  1
  N  N0  1  0.10124485  0.68763592  0.64444768  1
  N  N1  1  0.79102909  0.33420590  0.60578989  1
  N  N2  1  0.88602083  0.44675987  0.81183972  1
  N  N3  1  0.26891174  0.35406087  0.08678528  1
  N  N4  1  0.59271806  0.03356372  0.02949109  1
  N  N5  1  0.97491188  0.15342862  0.82294264  1
  N  N6  1  0.13818319  0.82037350  0.27906556  1
  N  N7  1  0.13376228  0.50419265  0.19654822  1
  N  N8  1  0.37178054  0.53833296  0.90243620  1
  N  N9  1  0.09277166  0.09718194  0.49230822  1
  N  N10  1  0.64655715  0.53676677  0.75495950  1
  N  N11  1  0.46321823  0.21048059  0.12480012  1
  N  N12  1  0.73650588  0.23991925  0.85042505  1
  N  N13  1  0.30114987  0.00554593  0.24014598  1
  N  N14  1  0.44862096  0.10466192  0.76628757  1
  N  N15  1  0.04059593  0.60525038  0.41805050  1
  N  N16  1  0.51023693  0.33086156  0.88069125  1
  N  N17  1  0.41546350  0.78306447  0.65001992  1
  N  N18  1  0.08957696  0.41260025  0.66991934  1
  N  N19  1  0.37370963  0.22485644  0.39843120  1
  N  N20  1  0.45949538  0.41927741  0.30631832  1
  N  N21  1  0.73081347  0.58758223  0.28777081  1
  N  N22  1  0.06617311  0.89291408  0.03727697  1
  N  N23  1  0.81399149  0.50630809  0.03572583  1
  N  N24  1  0.17366158  0.98414282  0.78832309  1
  N  N25  1  0.34435641  0.54139881  0.61337391  1
  N  N26  1  0.09848783  0.48721928  0.96009564  1
  N  N27  1  0.66627535  0.98129935  0.81247220  1
  N  N28  1  0.07384347  0.15296758  0.11192998  1
  N  N29  1  0.25559287  0.17009092  0.91393920  1
  N  N30  1  0.60635512  0.05323029  0.57507849  1
  N  N31  1  0.57062871  0.75248825  0.14916318  1
  N  N32  1  0.98040946  0.68833269  0.88851048  1
  N  N33  1  0.32173945  0.70906682  0.13648326  1
  N  N34  1  0.35442804  0.01398321  0.57204411  1
  N  N35  1  0.89826031  0.93194435  0.79075820  1
  N  N36  1  0.77606091  0.74930866  0.68723484  1
  N  N37  1  0.46127617  0.85390543  0.89420440  1
  N  N38  1  0.58370510  0.67771526  0.48889965  1
  N  N39  1  0.52323910  0.35040091  0.62067381  1
  N  N40  1  0.79234856  0.85470847  0.34309567  1
  N  N41  1  0.64388747  0.09397993  0.24958571  1
  N  N42  1  0.56614342  0.50906417  0.09044598  1
  N  N43  1  0.80966955  0.15588340  0.05055635  1
  N  N44  1  0.30334769  0.27149795  0.61436857  1
  N  N45  1  0.72436534  0.29675131  0.34624689  1
  N  N46  1  0.86264242  0.08391480  0.57882500  1
  N  N47  1  0.36895767  0.60950543  0.37501769  1
  N  N48  1  0.72535331  0.74042521  0.93882299  1
  N  N49  1  0.50667247  0.88303948  0.35076101  1
loop_
_geom_bond_atom_site_label_1
_geom_bond_atom_site_label_2
_geom_bond_distance
_geom_bond_site_symmetry_2
N0 Ta47 2.069956 1_555
N0 Ta12 2.085630 1_455
N0 Ta11 2.175033 1_555
N0 Ta44 2.211111 1_555
N0 Ta24 2.575869 1_555
N1 Ta14 1.945507 1_555
N1 Ta46 1.973216 1_555
N1 Ta41 2.082709 1_555
N2 Ta44 2.025961 1_655
N2 Ta41 2.088026 1_555
N2 Ta25 2.150483 1_555
N2 Ta31 2.169107 1_555
N2 Ta14 2.776877 1_555
N3 Ta43 2.052316 1_555
N3 Ta19 2.147709 1_555
N3 Ta15 2.157434 1_555
N3 Ta7 2.157951 1_555
N3 Ta21 2.349181 1_555
N4 Ta17 1.933197 1_544
N4 Ta36 1.972342 1_555
N4 Ta29 2.096417 1_555
N5 Ta41 1.993284 1_555
N5 Ta10 2.123848 1_655
N5 Ta8 2.142986 1_555
N5 Ta48 2.271073 1_655
N6 Ta1 2.036435 1_555
N6 Ta3 2.058527 1_455
N6 Ta11 2.061722 1_555
N6 Ta27 2.117031 1_555
N7 Ta30 2.049863 1_555
N7 Ta27 2.104695 1_555
N7 Ta21 2.160430 1_555
N7 Ta19 2.224320 1_555
N7 Ta5 2.264263 1_455
N7 Ta15 2.577587 1_555
N8 Ta13 2.023580 1_555
N8 Ta23 2.068623 1_555
N8 Ta21 2.101716 1_556
N8 Ta43 2.187572 1_556
N9 Ta48 2.098936 1_555
N9 Ta26 2.110576 1_555
N9 Ta28 2.232788 1_555
N9 Ta6 2.233631 1_555
N9 Ta9 2.665894 1_445
N10 Ta14 2.017238 1_555
N10 Ta39 2.127545 1_555
N10 Ta31 2.132815 1_555
N10 Ta13 2.139844 1_555
N11 Ta29 2.162129 1_555
N11 Ta34 2.180365 1_555
N11 Ta36 2.185460 1_555
N11 Ta43 2.197042 1_555
N11 Ta7 2.203562 1_555
N12 Ta14 1.996810 1_555
N12 Ta8 2.095001 1_555
N12 Ta36 2.133635 1_556
N12 Ta25 2.272192 1_555
N12 Ta41 2.737923 1_555
N13 Ta6 2.028528 1_555
N13 Ta7 2.100396 1_555
N13 Ta29 2.141312 1_555
N13 Ta1 2.190366 1_545
N14 Ta40 1.904936 1_555
N14 Ta22 2.082630 1_545
N14 Ta49 2.137185 1_545
N14 Ta18 2.311606 1_555
N15 Ta37 2.053538 1_455
N15 Ta30 2.116693 1_555
N15 Ta47 2.171372 1_555
N15 Ta11 2.210438 1_555
N15 Ta27 2.289751 1_555
N16 Ta43 2.059839 1_556
N16 Ta40 2.137204 1_555
N16 Ta36 2.225014 1_556
N16 Ta13 2.277548 1_555
N16 Ta14 2.452697 1_555
N17 Ta45 2.084440 1_555
N17 Ta23 2.096022 1_555
N17 Ta22 2.162665 1_555
N17 Ta24 2.226368 1_555
N17 Ta39 2.278524 1_555
N18 Ta41 2.031978 1_455
N18 Ta47 2.068249 1_555
N18 Ta44 2.130180 1_555
N18 Ta28 2.178697 1_555
N19 Ta15 2.032869 1_555
N19 Ta18 2.063590 1_555
N19 Ta6 2.091812 1_555
N19 Ta34 2.179543 1_555
N19 Ta35 2.509877 1_555
N20 Ta34 2.117469 1_555
N20 Ta2 2.130824 1_555
N20 Ta35 2.175365 1_555
N20 Ta15 2.246510 1_555
N21 Ta37 2.059919 1_555
N21 Ta0 2.084846 1_555
N21 Ta33 2.136075 1_555
N21 Ta16 2.136670 1_555
N22 Ta10 2.058347 1_564
N22 Ta3 2.144579 1_455
N22 Ta1 2.164979 1_555
N22 Ta4 2.179190 1_554
N22 Ta38 2.198647 1_454
N23 Ta25 2.017876 1_554
N23 Ta0 2.092297 1_555
N23 Ta5 2.157438 1_555
N23 Ta16 2.237058 1_555
N23 Ta31 2.354894 1_554
N24 Ta49 2.052708 1_555
N24 Ta48 2.140405 1_565
N24 Ta24 2.187996 1_555
N24 Ta4 2.307017 1_555
N24 Ta10 2.374520 1_565
N25 Ta13 2.018947 1_555
N25 Ta47 2.024180 1_555
N25 Ta35 2.090903 1_555
N26 Ta44 1.988347 1_555
N26 Ta19 2.088478 1_556
N26 Ta21 2.097110 1_556
N26 Ta5 2.221438 1_456
N27 Ta32 1.996353 1_555
N27 Ta8 2.076913 1_565
N27 Ta22 2.199784 1_555
N27 Ta17 2.231007 1_555
N28 Ta10 2.044498 1_554
N28 Ta19 2.110141 1_555
N28 Ta26 2.199821 1_555
N28 Ta7 2.219988 1_555
N29 Ta40 1.958796 1_555
N29 Ta10 2.131122 1_555
N29 Ta7 2.177404 1_556
N29 Ta49 2.202669 1_545
N30 Ta20 1.956391 1_545
N30 Ta18 2.078329 1_555
N30 Ta22 2.097502 1_545
N30 Ta32 2.262339 1_545
N31 Ta33 2.083073 1_555
N31 Ta17 2.105525 1_554
N31 Ta0 2.136655 1_555
N31 Ta2 2.166586 1_555
N32 Ta4 2.097074 1_655
N32 Ta38 2.126321 1_555
N32 Ta44 2.200247 1_655
N32 Ta12 2.243242 1_555
N32 Ta5 2.255789 1_556
N32 Ta31 2.256973 1_555
N33 Ta1 2.026258 1_555
N33 Ta2 2.061275 1_555
N33 Ta21 2.154559 1_555
N33 Ta27 2.187965 1_555
N34 Ta18 2.009156 1_555
N34 Ta24 2.043569 1_545
N34 Ta6 2.121217 1_555
N34 Ta22 2.353010 1_545
N35 Ta38 2.119171 1_555
N35 Ta32 2.149508 1_555
N35 Ta12 2.155470 1_555
N35 Ta48 2.201600 1_665
N35 Ta8 2.245480 1_565
N36 Ta39 2.036881 1_555
N36 Ta12 2.065665 1_555
N36 Ta32 2.116233 1_555
N36 Ta31 2.128353 1_555
N37 Ta23 1.955029 1_555
N37 Ta17 1.971717 1_555
N37 Ta49 2.187207 1_555
N37 Ta22 2.195738 1_555
N38 Ta39 1.923681 1_555
N38 Ta33 2.004714 1_555
N38 Ta45 2.086204 1_555
N39 Ta14 2.008133 1_555
N39 Ta35 2.088055 1_555
N39 Ta18 2.320395 1_555
N39 Ta13 2.420780 1_555
N39 Ta40 2.649700 1_555
N40 Ta33 2.009469 1_555
N40 Ta9 2.069481 1_555
N40 Ta37 2.416860 1_555
N40 Ta3 2.508025 1_555
N40 Ta20 2.552365 1_555
N41 Ta42 1.946570 1_555
N41 Ta20 2.029067 1_545
N41 Ta29 2.062884 1_555
N41 Ta34 2.241001 1_555
N42 Ta0 1.957889 1_555
N42 Ta43 1.973204 1_555
N42 Ta2 2.130948 1_555
N43 Ta42 1.967334 1_555
N43 Ta8 2.092195 1_554
N43 Ta25 2.108693 1_554
N43 Ta36 2.259462 1_555
N44 Ta40 2.025990 1_555
N44 Ta28 2.059341 1_555
N44 Ta35 2.202451 1_555
N44 Ta18 2.294835 1_555
N45 Ta16 2.019510 1_555
N45 Ta46 2.064313 1_555
N45 Ta34 2.165416 1_555
N45 Ta42 2.266466 1_555
N46 Ta46 2.002336 1_555
N46 Ta32 2.111634 1_545
N46 Ta9 2.149668 1_545
N46 Ta48 2.173257 1_655
N47 Ta45 1.999138 1_555
N47 Ta27 2.076348 1_555
N47 Ta2 2.096272 1_555
N47 Ta35 2.379812 1_555
N48 Ta0 2.057505 1_556
N48 Ta31 2.086259 1_555
N48 Ta17 2.091846 1_555
N48 Ta38 2.136000 1_555
N49 Ta45 2.071807 1_555
N49 Ta20 2.091625 1_555
N49 Ta29 2.224016 1_565
N49 Ta33 2.239900 1_555
