# generated using pymatgen
data_Ca(TiS2)8
_symmetry_space_group_name_H-M   'P 1'
_cell_length_a   6.84856371
_cell_length_b   6.84855809
_cell_length_c   12.78715153
_cell_angle_alpha   89.99957380
_cell_angle_beta   90.00007884
_cell_angle_gamma   120.00008790
_symmetry_Int_Tables_number   1
_chemical_formula_structural   Ca(TiS2)8
_chemical_formula_sum   'Ca1 Ti8 S16'
_cell_volume   519.40090577
_cell_formula_units_Z   1
loop_
 _symmetry_equiv_pos_site_id
 _symmetry_equiv_pos_as_xyz
  1  'x, y, z'
loop_
 _atom_site_type_symbol
 _atom_site_label
 _atom_site_symmetry_multiplicity
 _atom_site_fract_x
 _atom_site_fract_y
 _atom_site_fract_z
 _atom_site_occupancy
  Ca  Ca0  1  0.00000117  0.00000225  -0.00007973  1
  Ti  Ti0  1  0.50211785  0.49787871  0.72994470  1
  Ti  Ti1  1  0.49788105  0.50211882  0.27005782  1
  Ti  Ti2  1  0.50212194  0.00423966  0.72994576  1
  Ti  Ti3  1  0.49788386  0.99577102  0.27005864  1
  Ti  Ti4  1  0.99576323  0.49787770  0.72994624  1
  Ti  Ti5  1  0.00423497  0.50212200  0.27005742  1
  Ti  Ti6  1  0.00000139  -0.00000468  0.72505960  1
  Ti  Ti7  1  -0.00000211  0.00000551  0.27496795  1
  S  S0  1  0.83351829  0.66704113  0.15747904  1
  S  S1  1  0.83269047  0.66537817  0.61975332  1
  S  S2  1  0.83351452  0.16648576  0.15747803  1
  S  S3  1  0.83268796  0.16731363  0.61975398  1
  S  S4  1  0.33333267  0.66665946  0.15733035  1
  S  S5  1  0.33333391  0.66667105  0.62343282  1
  S  S6  1  0.33296501  0.16648234  0.15747790  1
  S  S7  1  0.33462512  0.16731467  0.61975270  1
  S  S8  1  0.66698493  0.83348763  0.84252816  1
  S  S9  1  0.66537936  0.83268625  0.38025312  1
  S  S10  1  0.66666621  0.33333103  0.84268162  1
  S  S11  1  0.66666698  0.33332788  0.37655766  1
  S  S12  1  0.16651031  0.83349201  0.84252905  1
  S  S13  1  0.16730493  0.83268416  0.38025164  1
  S  S14  1  0.16650881  0.33301365  0.84252874  1
  S  S15  1  0.16730819  0.33461921  0.38025349  1
loop_
_geom_bond_atom_site_label_1
_geom_bond_atom_site_label_2
_geom_bond_distance
_geom_bond_site_symmetry_2
Ca0 S14 2.819834 1_554
Ca0 S8 2.819875 1_444
Ca0 S12 2.819885 1_544
Ca0 S0 2.821152 1_445
Ca0 S6 2.821169 1_555
Ca0 S2 2.821201 1_455
S0 Ti5 2.456713 1_655
S0 Ti1 2.456725 1_555
S0 Ti7 2.481331 1_665
S1 Ti6 2.398334 1_665
S1 Ti0 2.414473 1_555
S1 Ti4 2.414486 1_555
S2 Ti3 2.456707 1_545
S2 Ti5 2.456735 1_655
S2 Ti7 2.481323 1_655
S3 Ti6 2.398389 1_655
S3 Ti2 2.414444 1_555
S3 Ti4 2.414449 1_555
S4 Ti1 2.426408 1_555
S4 Ti5 2.426448 1_555
S4 Ti3 2.426534 1_555
S5 Ti2 2.421485 1_565
S5 Ti4 2.421488 1_455
S5 Ti0 2.421503 1_555
S6 Ti3 2.456704 1_545
S6 Ti1 2.456741 1_555
S6 Ti7 2.481342 1_555
S7 Ti6 2.398360 1_555
S7 Ti0 2.414447 1_555
S7 Ti2 2.414480 1_555
S8 Ti0 2.456637 1_555
S8 Ti2 2.456646 1_565
S8 Ti6 2.481408 1_665
S9 Ti7 2.398179 1_665
S9 Ti1 2.414488 1_555
S9 Ti3 2.414531 1_555
S10 Ti2 2.426495 1_555
S10 Ti4 2.426507 1_555
S10 Ti0 2.426513 1_555
S11 Ti3 2.421327 1_545
S11 Ti5 2.421380 1_655
S11 Ti1 2.421419 1_555
S12 Ti2 2.456638 1_565
S12 Ti4 2.456658 1_455
S12 Ti6 2.481394 1_565
S13 Ti7 2.398215 1_565
S13 Ti5 2.414454 1_555
S13 Ti3 2.414515 1_555
S14 Ti4 2.456621 1_455
S14 Ti0 2.456631 1_555
S14 Ti6 2.481433 1_555
S15 Ti7 2.398168 1_555
S15 Ti1 2.414506 1_555
S15 Ti5 2.414523 1_555
