# generated using pymatgen
data_Mg(SbO2)2
_symmetry_space_group_name_H-M   'P 1'
_cell_length_a   6.59119665
_cell_length_b   6.59119665
_cell_length_c   6.59119665
_cell_angle_alpha   123.01583016
_cell_angle_beta   115.39173997
_cell_angle_gamma   91.50844960
_symmetry_Int_Tables_number   1
_chemical_formula_structural   Mg(SbO2)2
_chemical_formula_sum   'Mg2 Sb4 O8'
_cell_volume   203.73919051
_cell_formula_units_Z   2
loop_
 _symmetry_equiv_pos_site_id
 _symmetry_equiv_pos_as_xyz
  1  'x, y, z'
loop_
 _atom_site_type_symbol
 _atom_site_label
 _atom_site_symmetry_multiplicity
 _atom_site_fract_x
 _atom_site_fract_y
 _atom_site_fract_z
 _atom_site_occupancy
  Mg  Mg0  1  0.00000000  0.50000000  0.00000000  1
  Mg  Mg1  1  0.00000000  0.00000000  0.50000000  1
  Sb  Sb0  1  0.60457500  0.85457500  0.75000000  1
  Sb  Sb1  1  0.39542500  0.14542500  0.25000000  1
  Sb  Sb2  1  0.00000000  0.50000000  0.50000000  1
  Sb  Sb3  1  0.50000000  0.50000000  0.00000000  1
  O  O0  1  0.80463300  0.25767200  0.54696000  1
  O  O1  1  0.24538500  0.74921800  0.00383300  1
  O  O2  1  0.21071200  0.25767200  0.95304000  1
  O  O3  1  0.24538500  0.24155200  0.49616700  1
  O  O4  1  0.75461500  0.75844800  0.50383300  1
  O  O5  1  0.75461500  0.25078200  0.99616700  1
  O  O6  1  0.78928800  0.74232800  0.04696000  1
  O  O7  1  0.19536700  0.74232800  0.45304000  1
loop_
_geom_bond_atom_site_label_1
_geom_bond_atom_site_label_2
_geom_bond_distance
_geom_bond_site_symmetry_2
Mg0 O2 2.126630 1_554
Mg0 O6 2.126630 1_455
Mg0 O7 2.126630 1_555
Mg0 O0 2.126630 1_454
Mg0 O5 2.257144 1_454
Mg0 O1 2.257144 1_555
Mg1 O7 2.126625 1_545
Mg1 O0 2.126625 1_455
Mg1 O2 2.126630 1_555
Mg1 O6 2.126630 1_445
Mg1 O4 2.257144 1_445
Mg1 O3 2.257144 1_555
O0 Sb2 2.253311 1_655
O0 Sb1 2.332929 1_555
O1 Sb1 2.073859 1_565
O1 Sb2 2.377311 1_554
O1 Sb3 2.377311 1_555
O2 Sb3 2.253315 1_556
O2 Sb1 2.332924 1_556
O3 Sb1 2.073859 1_555
O3 Sb3 2.377311 1_556
O3 Sb2 2.377311 1_555
O4 Sb0 2.073859 1_555
O4 Sb3 2.377311 1_555
O4 Sb2 2.377311 1_655
O5 Sb0 2.073859 1_545
O5 Sb2 2.377311 1_656
O5 Sb3 2.377311 1_556
O6 Sb3 2.253315 1_555
O6 Sb0 2.332924 1_554
O7 Sb2 2.253311 1_555
O7 Sb0 2.332929 1_555
