# generated using pymatgen
data_Rb2Mg2(SO4)3
_symmetry_space_group_name_H-M   'P 1'
_cell_length_a   10.14991807
_cell_length_b   10.14991807
_cell_length_c   10.14991807
_cell_angle_alpha   90.00000000
_cell_angle_beta   90.00000000
_cell_angle_gamma   90.00000000
_symmetry_Int_Tables_number   1
_chemical_formula_structural   Rb2Mg2(SO4)3
_chemical_formula_sum   'Rb8 Mg8 S12 O48'
_cell_volume   1045.65305330
_cell_formula_units_Z   4
loop_
 _symmetry_equiv_pos_site_id
 _symmetry_equiv_pos_as_xyz
  1  'x, y, z'
loop_
 _atom_site_type_symbol
 _atom_site_label
 _atom_site_symmetry_multiplicity
 _atom_site_fract_x
 _atom_site_fract_y
 _atom_site_fract_z
 _atom_site_occupancy
  Rb  Rb0  1  0.04787068  0.04787068  0.04787068  1
  Rb  Rb1  1  0.45212932  0.95212932  0.54787068  1
  Rb  Rb2  1  0.95212932  0.54787068  0.45212932  1
  Rb  Rb3  1  0.54787068  0.45212932  0.95212932  1
  Rb  Rb4  1  0.81669985  0.81669985  0.81669985  1
  Rb  Rb5  1  0.68330015  0.18330015  0.31669985  1
  Rb  Rb6  1  0.18330015  0.31669985  0.68330015  1
  Rb  Rb7  1  0.31669985  0.68330015  0.18330015  1
  Mg  Mg0  1  0.33504344  0.33504344  0.33504344  1
  Mg  Mg1  1  0.16495656  0.66495656  0.83504344  1
  Mg  Mg2  1  0.66495656  0.83504344  0.16495656  1
  Mg  Mg3  1  0.83504344  0.16495656  0.66495656  1
  Mg  Mg4  1  0.59865654  0.59865654  0.59865654  1
  Mg  Mg5  1  0.90134346  0.40134346  0.09865654  1
  Mg  Mg6  1  0.40134346  0.09865654  0.90134346  1
  Mg  Mg7  1  0.09865654  0.90134346  0.40134346  1
  S  S0  1  0.01845088  0.21590252  0.37581940  1
  S  S1  1  0.48154912  0.78409748  0.87581940  1
  S  S2  1  0.98154912  0.71590252  0.12418060  1
  S  S3  1  0.37581940  0.01845088  0.21590252  1
  S  S4  1  0.51845088  0.28409748  0.62418060  1
  S  S5  1  0.87581940  0.48154912  0.78409748  1
  S  S6  1  0.12418060  0.98154912  0.71590252  1
  S  S7  1  0.62418060  0.51845088  0.28409748  1
  S  S8  1  0.21590252  0.37581940  0.01845088  1
  S  S9  1  0.71590252  0.12418060  0.98154912  1
  S  S10  1  0.28409748  0.62418060  0.51845088  1
  S  S11  1  0.78409748  0.87581940  0.48154912  1
  O  O0  1  0.01040032  0.07634167  0.33133793  1
  O  O1  1  0.48959968  0.92365833  0.83133793  1
  O  O2  1  0.98959968  0.57634167  0.16866207  1
  O  O3  1  0.33133793  0.01040032  0.07634167  1
  O  O4  1  0.51040032  0.42365833  0.66866207  1
  O  O5  1  0.83133793  0.48959968  0.92365833  1
  O  O6  1  0.16866207  0.98959968  0.57634167  1
  O  O7  1  0.66866207  0.51040032  0.42365833  1
  O  O8  1  0.07634167  0.33133793  0.01040032  1
  O  O9  1  0.57634167  0.16866207  0.98959968  1
  O  O10  1  0.42365833  0.66866207  0.51040032  1
  O  O11  1  0.92365833  0.83133793  0.48959968  1
  O  O12  1  0.26623554  0.50040801  0.44146325  1
  O  O13  1  0.23376446  0.49959199  0.94146325  1
  O  O14  1  0.73376446  0.00040801  0.05853675  1
  O  O15  1  0.44146325  0.26623554  0.50040801  1
  O  O16  1  0.76623554  0.99959199  0.55853675  1
  O  O17  1  0.94146325  0.23376446  0.49959199  1
  O  O18  1  0.05853675  0.73376446  0.00040801  1
  O  O19  1  0.55853675  0.76623554  0.99959199  1
  O  O20  1  0.50040801  0.44146325  0.26623554  1
  O  O21  1  0.00040801  0.05853675  0.73376446  1
  O  O22  1  0.99959199  0.55853675  0.76623554  1
  O  O23  1  0.49959199  0.94146325  0.23376446  1
  O  O24  1  0.04124198  0.80258509  0.22602032  1
  O  O25  1  0.45875802  0.19741491  0.72602032  1
  O  O26  1  0.95875802  0.30258509  0.27397968  1
  O  O27  1  0.22602032  0.04124198  0.80258509  1
  O  O28  1  0.54124198  0.69741491  0.77397968  1
  O  O29  1  0.72602032  0.45875802  0.19741491  1
  O  O30  1  0.27397968  0.95875802  0.30258509  1
  O  O31  1  0.77397968  0.54124198  0.69741491  1
  O  O32  1  0.80258509  0.22602032  0.04124198  1
  O  O33  1  0.30258509  0.27397968  0.95875802  1
  O  O34  1  0.69741491  0.77397968  0.54124198  1
  O  O35  1  0.19741491  0.72602032  0.45875802  1
  O  O36  1  0.15722884  0.25384652  0.40055955  1
  O  O37  1  0.34277116  0.74615348  0.90055955  1
  O  O38  1  0.84277116  0.75384652  0.09944045  1
  O  O39  1  0.40055955  0.15722884  0.25384652  1
  O  O40  1  0.65722884  0.24615348  0.59944045  1
  O  O41  1  0.90055955  0.34277116  0.74615348  1
  O  O42  1  0.09944045  0.84277116  0.75384652  1
  O  O43  1  0.59944045  0.65722884  0.24615348  1
  O  O44  1  0.25384652  0.40055955  0.15722884  1
  O  O45  1  0.75384652  0.09944045  0.84277116  1
  O  O46  1  0.24615348  0.59944045  0.65722884  1
  O  O47  1  0.74615348  0.90055955  0.34277116  1
loop_
_geom_bond_atom_site_label_1
_geom_bond_atom_site_label_2
_geom_bond_distance
_geom_bond_site_symmetry_2
Mg0 O44 2.092541 1_555
Mg0 O39 2.092541 1_555
Mg0 O36 2.092541 1_555
Mg0 O15 2.114624 1_555
Mg0 O12 2.114624 1_555
Mg0 O20 2.114624 1_555
Mg1 O42 2.092541 1_555
Mg1 O46 2.092541 1_555
Mg1 O37 2.092541 1_555
Mg1 O18 2.114624 1_556
Mg1 O22 2.114624 1_455
Mg1 O13 2.114624 1_555
Mg2 O38 2.092541 1_555
Mg2 O43 2.092541 1_555
Mg2 O47 2.092541 1_555
Mg2 O14 2.114624 1_565
Mg2 O19 2.114624 1_554
Mg2 O23 2.114624 1_555
Mg3 O45 2.092541 1_555
Mg3 O40 2.092541 1_555
Mg3 O41 2.092541 1_555
Mg3 O21 2.114624 1_655
Mg3 O16 2.114624 1_545
Mg3 O17 2.114624 1_555
Mg4 O10 2.112410 1_555
Mg4 O7 2.112410 1_555
Mg4 O4 2.112410 1_555
Mg4 O31 2.123926 1_555
Mg4 O34 2.123926 1_555
Mg4 O28 2.123926 1_555
Mg5 O8 2.112410 1_655
Mg5 O2 2.112410 1_555
Mg5 O5 2.112410 1_554
Mg5 O29 2.123926 1_555
Mg5 O32 2.123926 1_555
Mg5 O26 2.123926 1_555
Mg6 O3 2.112410 1_556
Mg6 O9 2.112410 1_555
Mg6 O1 2.112410 1_545
Mg6 O25 2.123926 1_555
Mg6 O27 2.123926 1_555
Mg6 O33 2.123926 1_555
Mg7 O0 2.112410 1_565
Mg7 O6 2.112410 1_555
Mg7 O11 2.112410 1_455
Mg7 O35 2.123926 1_555
Mg7 O30 2.123926 1_555
Mg7 O24 2.123926 1_555
O0 S0 1.488984 1_555
O0 Rb0 2.916549 1_555
O1 S1 1.488984 1_555
O1 Rb1 2.916549 1_555
O2 S2 1.488984 1_555
O2 Rb2 2.916549 1_555
O3 S3 1.488984 1_555
O3 Rb0 2.916549 1_555
O4 S4 1.488984 1_555
O4 Rb3 2.916549 1_555
O5 S5 1.488984 1_555
O5 Rb3 2.916549 1_555
O6 S6 1.488984 1_555
O6 Rb1 2.916549 1_555
O7 S7 1.488984 1_555
O7 Rb2 2.916549 1_555
O8 S8 1.488984 1_555
O8 Rb0 2.916549 1_555
O9 S9 1.488984 1_555
O9 Rb3 2.916549 1_555
O10 S10 1.488984 1_555
O10 Rb1 2.916549 1_555
O11 S11 1.488984 1_555
O11 Rb2 2.916549 1_555
O12 S10 1.490546 1_555
O12 Rb6 3.195404 1_555
O12 Rb2 3.226160 1_455
O12 Rb7 3.251847 1_555
O13 S8 1.490546 1_556
O13 Rb7 3.195404 1_556
O13 Rb3 3.226160 1_555
O13 Rb6 3.251847 1_555
O14 S9 1.490546 1_554
O14 Rb4 3.195404 1_544
O14 Rb0 3.226160 1_655
O14 Rb5 3.251847 1_555
O15 S4 1.490546 1_555
O15 Rb5 3.195404 1_555
O15 Rb1 3.226160 1_545
O15 Rb6 3.251847 1_555
O16 S11 1.490546 1_555
O16 Rb5 3.195404 1_565
O16 Rb1 3.226160 1_555
O16 Rb4 3.251847 1_555
O17 S0 1.490546 1_655
O17 Rb6 3.195404 1_655
O17 Rb2 3.226160 1_555
O17 Rb5 3.251847 1_555
O18 S2 1.490546 1_455
O18 Rb4 3.195404 1_454
O18 Rb0 3.226160 1_565
O18 Rb7 3.251847 1_555
O19 S1 1.490546 1_555
O19 Rb7 3.195404 1_556
O19 Rb3 3.226160 1_555
O19 Rb4 3.251847 1_555
O20 S7 1.490546 1_555
O20 Rb7 3.195404 1_555
O20 Rb3 3.226160 1_554
O20 Rb5 3.251847 1_555
O21 S6 1.490546 1_545
O21 Rb4 3.195404 1_445
O21 Rb0 3.226160 1_556
O21 Rb6 3.251847 1_555
O22 S5 1.490546 1_555
O22 Rb6 3.195404 1_655
O22 Rb2 3.226160 1_555
O22 Rb4 3.251847 1_555
O23 S3 1.490546 1_565
O23 Rb5 3.195404 1_565
O23 Rb1 3.226160 1_555
O23 Rb7 3.251847 1_555
O24 S2 1.486484 1_455
O24 Rb7 3.077467 1_555
O24 Rb0 3.077723 1_565
O25 S4 1.486484 1_555
O25 Rb6 3.077467 1_555
O25 Rb1 3.077723 1_545
O26 S0 1.486484 1_655
O26 Rb5 3.077467 1_555
O26 Rb2 3.077723 1_555
O27 S6 1.486484 1_545
O27 Rb6 3.077467 1_555
O27 Rb0 3.077723 1_556
O28 S1 1.486484 1_555
O28 Rb4 3.077467 1_555
O28 Rb3 3.077723 1_555
O29 S7 1.486484 1_555
O29 Rb5 3.077467 1_555
O29 Rb3 3.077723 1_554
O30 S3 1.486484 1_565
O30 Rb7 3.077467 1_555
O30 Rb1 3.077723 1_555
O31 S5 1.486484 1_555
O31 Rb4 3.077467 1_555
O31 Rb2 3.077723 1_555
O32 S9 1.486484 1_554
O32 Rb5 3.077467 1_555
O32 Rb0 3.077723 1_655
O33 S8 1.486484 1_556
O33 Rb6 3.077467 1_555
O33 Rb3 3.077723 1_555
O34 S11 1.486484 1_555
O34 Rb4 3.077467 1_555
O34 Rb1 3.077723 1_555
O35 S10 1.486484 1_555
O35 Rb7 3.077467 1_555
O35 Rb2 3.077723 1_455
O36 S0 1.481719 1_555
O36 Rb6 2.951733 1_555
O37 S1 1.481719 1_555
O37 Rb7 2.951733 1_556
O38 S2 1.481719 1_555
O38 Rb4 2.951733 1_554
O39 S3 1.481719 1_555
O39 Rb5 2.951733 1_555
O40 S4 1.481719 1_555
O40 Rb5 2.951733 1_555
O41 S5 1.481719 1_555
O41 Rb6 2.951733 1_655
O42 S6 1.481719 1_555
O42 Rb4 2.951733 1_455
O43 S7 1.481719 1_555
O43 Rb7 2.951733 1_555
O44 S8 1.481719 1_555
O44 Rb7 2.951733 1_555
O45 S9 1.481719 1_555
O45 Rb4 2.951733 1_545
O46 S10 1.481719 1_555
O46 Rb6 2.951733 1_555
O47 S11 1.481719 1_555
O47 Rb5 2.951733 1_565
