# generated using pymatgen
data_Tl2O3
_symmetry_space_group_name_H-M   'P 1'
_cell_length_a   9.19483178
_cell_length_b   9.19483259
_cell_length_c   9.19483134
_cell_angle_alpha   109.47121789
_cell_angle_beta   109.47121966
_cell_angle_gamma   109.47122298
_symmetry_Int_Tables_number   1
_chemical_formula_structural   Tl2O3
_chemical_formula_sum   'Tl16 O24'
_cell_volume   598.42468306
_cell_formula_units_Z   8
loop_
 _symmetry_equiv_pos_site_id
 _symmetry_equiv_pos_as_xyz
  1  'x, y, z'
loop_
 _atom_site_type_symbol
 _atom_site_label
 _atom_site_symmetry_multiplicity
 _atom_site_fract_x
 _atom_site_fract_y
 _atom_site_fract_z
 _atom_site_occupancy
  Tl  Tl0  1  0.50000000  0.50000000  0.50000000  1
  Tl  Tl1  1  -0.00000000  0.00000000  0.50000000  1
  Tl  Tl2  1  0.50000000  0.00000000  0.00000000  1
  Tl  Tl3  1  -0.00000000  0.50000000  0.00000000  1
  Tl  Tl4  1  0.25000000  0.21696107  0.96696107  1
  Tl  Tl5  1  0.28303893  0.53303893  0.75000000  1
  Tl  Tl6  1  0.53303893  0.75000000  0.28303893  1
  Tl  Tl7  1  0.21696107  0.96696107  0.25000000  1
  Tl  Tl8  1  0.96696107  0.25000000  0.21696107  1
  Tl  Tl9  1  0.75000000  0.28303893  0.53303893  1
  Tl  Tl10  1  0.75000000  0.78303893  0.03303893  1
  Tl  Tl11  1  0.71696107  0.46696107  0.25000000  1
  Tl  Tl12  1  0.46696107  0.25000000  0.71696107  1
  Tl  Tl13  1  0.78303893  0.03303893  0.75000000  1
  Tl  Tl14  1  0.03303893  0.75000000  0.78303893  1
  Tl  Tl15  1  0.25000000  0.71696107  0.46696107  1
  O  O0  1  0.53752294  0.77157262  0.54268330  1
  O  O1  1  0.99484064  0.95731670  0.72888932  1
  O  O2  1  0.26595032  0.77111068  0.72842738  1
  O  O3  1  0.50515936  0.23404968  0.96247706  1
  O  O4  1  0.95731670  0.72888932  0.99484064  1
  O  O5  1  0.72842738  0.26595032  0.77111068  1
  O  O6  1  0.23404968  0.96247706  0.50515936  1
  O  O7  1  0.54268330  0.53752294  0.77157262  1
  O  O8  1  0.77157262  0.54268330  0.53752294  1
  O  O9  1  0.72888932  0.99484064  0.95731670  1
  O  O10  1  0.77111068  0.72842738  0.26595032  1
  O  O11  1  0.96247706  0.50515936  0.23404968  1
  O  O12  1  0.46247706  0.22842738  0.45731670  1
  O  O13  1  0.00515936  0.04268330  0.27111068  1
  O  O14  1  0.73404968  0.22888932  0.27157262  1
  O  O15  1  0.49484064  0.76595032  0.03752294  1
  O  O16  1  0.04268330  0.27111068  0.00515936  1
  O  O17  1  0.27157262  0.73404968  0.22888932  1
  O  O18  1  0.76595032  0.03752294  0.49484064  1
  O  O19  1  0.45731670  0.46247706  0.22842738  1
  O  O20  1  0.22842738  0.45731670  0.46247706  1
  O  O21  1  0.27111068  0.00515936  0.04268330  1
  O  O22  1  0.22888932  0.27157262  0.73404968  1
  O  O23  1  0.03752294  0.49484064  0.76595032  1
loop_
_geom_bond_atom_site_label_1
_geom_bond_atom_site_label_2
_geom_bond_distance
_geom_bond_site_symmetry_2
O0 Tl13 2.228799 1_565
O0 Tl0 2.278252 1_555
O0 Tl6 2.313846 1_555
O0 Tl15 2.319691 1_555
O1 Tl14 2.228795 1_655
O1 Tl1 2.278249 1_665
O1 Tl4 2.313843 1_665
O1 Tl13 2.319700 1_565
O2 Tl15 2.228798 1_555
O2 Tl2 2.278252 1_566
O2 Tl5 2.313846 1_555
O2 Tl14 2.319691 1_555
O3 Tl12 2.228800 1_555
O3 Tl2 2.278254 1_556
O3 Tl4 2.313837 1_555
O3 Tl11 2.319692 1_556
O4 Tl10 2.228795 1_556
O4 Tl3 2.278249 1_656
O4 Tl7 2.313843 1_656
O4 Tl14 2.319699 1_655
O5 Tl12 2.228798 1_555
O5 Tl3 2.278252 1_656
O5 Tl9 2.313846 1_555
O5 Tl13 2.319691 1_555
O6 Tl15 2.228800 1_555
O6 Tl1 2.278254 1_565
O6 Tl7 2.313837 1_555
O6 Tl12 2.319692 1_565
O7 Tl10 2.228799 1_556
O7 Tl0 2.278252 1_555
O7 Tl5 2.313846 1_555
O7 Tl12 2.319691 1_555
O8 Tl14 2.228798 1_655
O8 Tl0 2.278252 1_555
O8 Tl9 2.313846 1_555
O8 Tl11 2.319691 1_555
O9 Tl13 2.228795 1_565
O9 Tl2 2.278249 1_566
O9 Tl8 2.313843 1_566
O9 Tl10 2.319700 1_556
O10 Tl11 2.228799 1_555
O10 Tl1 2.278252 1_665
O10 Tl6 2.313846 1_555
O10 Tl10 2.319691 1_555
O11 Tl11 2.228800 1_555
O11 Tl3 2.278254 1_655
O11 Tl8 2.313837 1_555
O11 Tl15 2.319692 1_655
O12 Tl7 2.228799 1_545
O12 Tl0 2.278252 1_555
O12 Tl12 2.313846 1_555
O12 Tl9 2.319691 1_555
O13 Tl8 2.228795 1_455
O13 Tl1 2.278249 1_555
O13 Tl10 2.313843 1_445
O13 Tl7 2.319700 1_545
O14 Tl9 2.228798 1_555
O14 Tl2 2.278252 1_555
O14 Tl11 2.313846 1_555
O14 Tl8 2.319691 1_555
O15 Tl6 2.228800 1_555
O15 Tl2 2.278254 1_565
O15 Tl10 2.313837 1_555
O15 Tl5 2.319692 1_554
O16 Tl4 2.228795 1_554
O16 Tl3 2.278249 1_555
O16 Tl13 2.313843 1_454
O16 Tl8 2.319699 1_455
O17 Tl6 2.228798 1_555
O17 Tl3 2.278252 1_555
O17 Tl15 2.313846 1_555
O17 Tl7 2.319691 1_555
O18 Tl9 2.228800 1_555
O18 Tl1 2.278254 1_655
O18 Tl13 2.313837 1_555
O18 Tl6 2.319692 1_545
O19 Tl4 2.228799 1_554
O19 Tl0 2.278252 1_555
O19 Tl11 2.313846 1_555
O19 Tl6 2.319691 1_555
O20 Tl8 2.228798 1_455
O20 Tl0 2.278252 1_555
O20 Tl15 2.313846 1_555
O20 Tl5 2.319691 1_555
O21 Tl7 2.228795 1_545
O21 Tl2 2.278249 1_555
O21 Tl14 2.313843 1_544
O21 Tl4 2.319700 1_554
O22 Tl5 2.228799 1_555
O22 Tl1 2.278252 1_555
O22 Tl12 2.313846 1_555
O22 Tl4 2.319691 1_555
O23 Tl5 2.228800 1_555
O23 Tl3 2.278254 1_556
O23 Tl14 2.313837 1_555
O23 Tl9 2.319692 1_455
