# generated using pymatgen
data_Ti2N2O
_symmetry_space_group_name_H-M   'P 1'
_cell_length_a   8.20165700
_cell_length_b   8.22850188
_cell_length_c   8.23174689
_cell_angle_alpha   109.57881483
_cell_angle_beta   109.35059287
_cell_angle_gamma   109.37143697
_symmetry_Int_Tables_number   1
_chemical_formula_structural   Ti2N2O
_chemical_formula_sum   'Ti16 N16 O8'
_cell_volume   428.24679073
_cell_formula_units_Z   8
loop_
 _symmetry_equiv_pos_site_id
 _symmetry_equiv_pos_as_xyz
  1  'x, y, z'
loop_
 _atom_site_type_symbol
 _atom_site_label
 _atom_site_symmetry_multiplicity
 _atom_site_fract_x
 _atom_site_fract_y
 _atom_site_fract_z
 _atom_site_occupancy
  Ti  Ti0  1  0.98595600  0.49983800  0.00048200  1
  Ti  Ti1  1  0.23962200  0.44902200  0.29890900  1
  Ti  Ti2  1  0.29323500  0.25540200  0.95672900  1
  Ti  Ti3  1  0.78275500  0.24790400  0.46423600  1
  Ti  Ti4  1  0.74184800  0.03648300  0.20444900  1
  Ti  Ti5  1  0.49527500  0.49825500  0.51478900  1
  Ti  Ti6  1  0.94382200  0.70585300  0.26103700  1
  Ti  Ti7  1  0.01415600  0.00373300  0.49772600  1
  Ti  Ti8  1  0.55315600  0.79280900  0.74717400  1
  Ti  Ti9  1  0.51151500  0.99973100  0.99639800  1
  Ti  Ti10  1  0.45591400  0.19770200  0.25829300  1
  Ti  Ti11  1  0.04779900  0.29772700  0.73639600  1
  Ti  Ti12  1  0.25293000  0.96302900  0.79104800  1
  Ti  Ti13  1  0.71869400  0.75372500  0.04172800  1
  Ti  Ti14  1  0.20450700  0.74555000  0.54130100  1
  Ti  Ti15  1  0.76136900  0.55156500  0.70151500  1
  N  N0  1  0.96076600  0.73224000  0.99266000  1
  N  N1  1  0.72677300  0.27753900  0.23356700  1
  N  N2  1  0.22672900  0.23463000  0.22349500  1
  N  N3  1  0.98859400  0.22565900  0.54831800  1
  N  N4  1  0.53892700  0.04577300  0.72740300  1
  N  N5  1  0.73629900  0.77707000  0.27573600  1
  N  N6  1  0.72636400  0.45102700  0.50668000  1
  N  N7  1  0.01239400  0.77557900  0.44830700  1
  N  N8  1  0.23849300  0.01142700  0.53948700  1
  N  N9  1  0.48511100  0.53867000  0.74033100  1
  N  N10  1  0.77316700  0.76777200  0.77333800  1
  N  N11  1  0.26645000  0.22503200  0.72636100  1
  N  N12  1  0.77304900  0.03832400  0.95030900  1
  N  N13  1  0.46244700  0.95250700  0.27048500  1
  N  N14  1  0.27492500  0.55064800  0.48679700  1
  N  N15  1  0.94801600  0.49099100  0.77953800  1
  O  O0  1  0.04185700  0.26627900  0.00758200  1
  O  O1  1  0.44759300  0.72552700  0.04262100  1
  O  O2  1  0.05556100  0.50818200  0.22169500  1
  O  O3  1  0.75880800  0.98672200  0.46187100  1
  O  O4  1  0.54662100  0.26897100  0.95607300  1
  O  O5  1  0.50900900  0.46500900  0.25826600  1
  O  O6  1  0.22498100  0.96150000  0.04964400  1
  O  O7  1  0.27451600  0.72459500  0.76722700  1
loop_
_geom_bond_atom_site_label_1
_geom_bond_atom_site_label_2
_geom_bond_distance
_geom_bond_site_symmetry_2
Ti3 Ti4 2.087149 1_555
Ti4 Ti9 1.929543 1_544
Ti12 Ti14 2.026925 1_555
Ti12 Ti9 2.074539 1_555
Ti12 Ti2 2.175271 1_565
Ti13 Ti4 2.166399 1_565
N0 Ti15 2.007568 1_555
N0 Ti0 2.009875 1_556
N0 Ti13 2.202863 1_556
N0 Ti6 2.334950 1_556
N1 Ti3 1.919009 1_555
N1 Ti4 1.967440 1_555
N1 Ti9 2.049758 1_544
N1 Ti10 2.197534 1_555
N2 Ti1 1.614766 1_555
N2 Ti10 1.946295 1_555
N2 Ti5 2.269561 1_555
N3 Ti11 1.296094 1_655
N3 Ti3 1.696528 1_555
N3 Ti7 1.831458 1_655
N3 O3 1.907677 1_545
N3 Ti4 2.385791 1_555
N4 O4 2.108959 1_555
N4 Ti8 2.179085 1_545
N4 Ti9 2.435742 1_545
N4 Ti14 2.481283 1_545
N4 Ti12 2.496823 1_545
N5 O3 1.785374 1_555
N5 Ti13 1.821440 1_555
N5 Ti6 2.001394 1_555
N5 Ti7 2.036583 1_665
N5 Ti4 2.386549 1_565
N6 Ti15 1.409663 1_555
N6 Ti3 1.832502 1_555
N6 Ti5 2.074309 1_555
N6 Ti10 2.125224 1_555
N7 Ti6 1.280826 1_455
N7 Ti14 1.647858 1_555
N7 Ti7 1.776642 1_565
N7 Ti12 2.367986 1_555
N8 Ti7 1.731047 1_555
N8 Ti12 2.209586 1_545
N9 Ti5 1.808778 1_555
N9 Ti8 1.952868 1_555
N9 Ti13 2.148450 1_556
N9 Ti15 2.364337 1_555
N10 Ti15 1.633068 1_555
N10 Ti8 1.834036 1_555
N10 Ti5 2.216201 1_555
N11 Ti2 1.754048 1_555
N11 Ti7 1.939700 1_555
N11 Ti11 2.087396 1_555
N11 Ti12 2.365087 1_545
N12 Ti8 1.857534 1_545
N12 Ti4 2.194467 1_556
N12 Ti9 2.239204 1_545
N13 Ti10 2.070619 1_565
N13 O1 2.090737 1_555
N13 Ti3 2.396346 1_565
N13 Ti4 2.459874 1_565
N13 Ti9 2.547357 1_554
N14 Ti1 1.360525 1_555
N14 Ti14 1.846835 1_555
N14 Ti5 1.952569 1_555
N14 Ti8 2.156789 1_555
N15 Ti0 1.712071 1_556
N15 Ti15 1.753139 1_555
N15 Ti11 2.000576 1_655
N15 Ti3 2.228307 1_555
O0 Ti1 2.007610 1_555
O0 Ti0 2.132871 1_455
O0 Ti2 2.259018 1_554
O0 Ti11 2.345962 1_554
O1 Ti13 2.160434 1_555
O1 Ti9 2.330951 1_554
O1 Ti4 2.373716 1_565
O2 Ti0 1.687556 1_455
O2 Ti1 1.725944 1_555
O2 Ti6 2.103064 1_455
O2 Ti14 2.252175 1_555
O3 Ti7 1.964921 1_665
O3 Ti3 2.084983 1_565
O3 Ti4 2.258597 1_565
O3 Ti11 2.413386 1_665
O4 Ti2 2.045791 1_555
O4 Ti9 2.287864 1_545
O4 Ti12 2.345610 1_545
O5 Ti5 2.082650 1_555
O5 Ti10 2.095848 1_555
O5 Ti2 2.112510 1_554
O5 Ti1 2.310264 1_555
O6 Ti10 1.865400 1_565
O6 Ti12 2.218886 1_554
O6 Ti9 2.469497 1_554
O7 Ti14 1.841491 1_555
O7 Ti12 1.978547 1_555
O7 Ti9 2.061762 1_555
O7 Ti8 2.241894 1_555
