# generated using pymatgen
data_YB4Ru
_symmetry_space_group_name_H-M   'P 1'
_cell_length_a   3.55533644
_cell_length_b   5.95086681
_cell_length_c   11.51054132
_cell_angle_alpha   90.00000000
_cell_angle_beta   90.00000000
_cell_angle_gamma   90.00000000
_symmetry_Int_Tables_number   1
_chemical_formula_structural   YB4Ru
_chemical_formula_sum   'Y4 B16 Ru4'
_cell_volume   243.53236284
_cell_formula_units_Z   4
loop_
 _symmetry_equiv_pos_site_id
 _symmetry_equiv_pos_as_xyz
  1  'x, y, z'
loop_
 _atom_site_type_symbol
 _atom_site_label
 _atom_site_symmetry_multiplicity
 _atom_site_fract_x
 _atom_site_fract_y
 _atom_site_fract_z
 _atom_site_occupancy
  Y  Y0  1  0.00000000  0.62905173  0.34998852  1
  Y  Y1  1  0.00000000  0.37094827  0.65001148  1
  Y  Y2  1  -0.00000000  0.12905173  0.15001148  1
  Y  Y3  1  0.00000000  0.87094827  0.84998852  1
  B  B0  1  0.50000000  0.78879729  0.18510381  1
  B  B1  1  0.50000000  0.21120271  0.81489619  1
  B  B2  1  0.50000000  0.28879729  0.31489619  1
  B  B3  1  0.50000000  0.71120271  0.68510381  1
  B  B4  1  0.50000000  0.86333672  0.03018309  1
  B  B5  1  0.50000000  0.13666328  0.96981691  1
  B  B6  1  0.50000000  0.36333672  0.46981691  1
  B  B7  1  0.50000000  0.63666328  0.53018309  1
  B  B8  1  0.50000000  0.88831255  0.45338712  1
  B  B9  1  0.50000000  0.11168745  0.54661288  1
  B  B10  1  0.50000000  0.38831255  0.04661288  1
  B  B11  1  0.50000000  0.61168745  0.95338712  1
  B  B12  1  0.50000000  0.97647767  0.30865738  1
  B  B13  1  0.50000000  0.02352233  0.69134262  1
  B  B14  1  0.50000000  0.47647767  0.19134262  1
  B  B15  1  0.50000000  0.52352233  0.80865738  1
  Ru  Ru0  1  0.00000000  0.64026095  0.09242028  1
  Ru  Ru1  1  -0.00000000  0.35973905  0.90757972  1
  Ru  Ru2  1  0.00000000  0.14026095  0.40757972  1
  Ru  Ru3  1  -0.00000000  0.85973905  0.59242028  1
loop_
_geom_bond_atom_site_label_1
_geom_bond_atom_site_label_2
_geom_bond_distance
_geom_bond_site_symmetry_2
B0 B12 1.808298 1_555
B0 B4 1.837563 1_555
B0 B14 1.859959 1_555
B0 Ru0 2.253788 1_555
B0 Ru0 2.253788 1_655
B0 Y2 2.724540 1_565
B0 Y2 2.724540 1_665
B0 Y0 2.768729 1_555
B0 Y0 2.768729 1_655
B1 B13 1.808298 1_555
B1 B5 1.837563 1_555
B1 B15 1.859959 1_555
B1 Ru1 2.253788 1_555
B1 Ru1 2.253788 1_655
B1 Y3 2.724540 1_545
B1 Y3 2.724540 1_645
B1 Y1 2.768729 1_655
B1 Y1 2.768729 1_555
B2 B6 1.837563 1_555
B2 Ru2 2.253788 1_555
B2 Ru2 2.253788 1_655
B2 Y0 2.724540 1_655
B2 Y0 2.724540 1_555
B2 Y2 2.768729 1_555
B2 Y2 2.768729 1_655
B3 B7 1.837563 1_555
B3 Ru3 2.253788 1_655
B3 Ru3 2.253788 1_555
B3 Y1 2.724540 1_555
B3 Y1 2.724540 1_655
B3 Y3 2.768729 1_555
B3 Y3 2.768729 1_655
B4 B5 1.768732 1_564
B4 Ru0 2.331427 1_655
B4 Ru0 2.331427 1_555
B4 Y3 2.732069 1_654
B4 Y3 2.732069 1_554
B4 Y2 2.750063 1_565
B4 Y2 2.750063 1_665
B5 Ru1 2.331427 1_555
B5 Ru1 2.331427 1_655
B5 Y2 2.732069 1_556
B5 Y2 2.732069 1_656
B5 Y3 2.750063 1_645
B5 Y3 2.750063 1_545
B6 B9 1.738963 1_555
B6 B7 1.768732 1_555
B6 Ru2 2.331427 1_555
B6 Ru2 2.331427 1_655
B6 Y1 2.732069 1_555
B6 Y1 2.732069 1_655
B6 Y0 2.750063 1_555
B6 Y0 2.750063 1_655
B7 B8 1.738963 1_555
B7 Ru3 2.331427 1_655
B7 Ru3 2.331427 1_555
B7 Y0 2.732069 1_655
B7 Y0 2.732069 1_555
B7 Y1 2.750063 1_655
B7 Y1 2.750063 1_555
B8 B9 1.708353 1_565
B8 Ru2 2.384544 1_665
B8 Ru2 2.384544 1_565
B8 Ru3 2.397942 1_555
B8 Ru3 2.397942 1_655
B8 Y0 2.637600 1_555
B8 Y0 2.637600 1_655
B9 Ru3 2.384544 1_545
B9 Ru3 2.384544 1_645
B9 Ru2 2.397942 1_555
B9 Ru2 2.397942 1_655
B9 Y1 2.637600 1_555
B9 Y1 2.637600 1_655
B10 B11 1.708353 1_554
B10 B5 1.738963 1_554
B10 B14 1.746582 1_555
B10 Ru0 2.384544 1_555
B10 Ru0 2.384544 1_655
B10 Ru1 2.397942 1_654
B10 Ru1 2.397942 1_554
B10 Y2 2.637600 1_555
B10 Y2 2.637600 1_655
B11 B4 1.738963 1_556
B11 B15 1.746582 1_555
B11 Ru1 2.384544 1_655
B11 Ru1 2.384544 1_555
B11 Ru0 2.397942 1_656
B11 Ru0 2.397942 1_556
B11 Y3 2.637600 1_555
B11 Y3 2.637600 1_655
B12 B8 1.746582 1_555
B12 B2 1.859959 1_565
B12 Ru2 2.325204 1_665
B12 Ru2 2.325204 1_565
B12 Y2 2.705386 1_565
B12 Y2 2.705386 1_665
B12 Y0 2.767839 1_655
B12 Y0 2.767839 1_555
B13 B9 1.746582 1_555
B13 B3 1.859959 1_545
B13 Ru3 2.325204 1_645
B13 Ru3 2.325204 1_545
B13 Y3 2.705386 1_645
B13 Y3 2.705386 1_545
B13 Y1 2.767839 1_555
B13 Y1 2.767839 1_655
B14 B2 1.808298 1_555
B14 Ru0 2.325204 1_555
B14 Ru0 2.325204 1_655
B14 Y0 2.705386 1_655
B14 Y0 2.705386 1_555
B14 Y2 2.767839 1_555
B14 Y2 2.767839 1_655
B15 B3 1.808298 1_555
B15 Ru1 2.325204 1_555
B15 Ru1 2.325204 1_655
B15 Y1 2.705386 1_555
B15 Y1 2.705386 1_655
B15 Y3 2.767839 1_555
B15 Y3 2.767839 1_655
Ru0 Ru1 2.704343 1_554
Ru0 Y0 2.965500 1_555
Ru0 Y2 2.983312 1_565
Ru0 Y3 3.109913 1_554
Ru0 Y2 3.113527 1_555
Ru1 Y1 2.965500 1_555
Ru1 Y3 2.983312 1_545
Ru1 Y2 3.109913 1_556
Ru1 Y3 3.113527 1_555
Ru2 Ru3 2.704343 1_545
Ru2 Y2 2.965500 1_555
Ru2 Y0 2.983312 1_555
Ru2 Y1 3.109913 1_555
Ru2 Y0 3.113527 1_545
Ru3 Y3 2.965500 1_555
Ru3 Y1 2.983312 1_555
Ru3 Y0 3.109913 1_555
Ru3 Y1 3.113527 1_565
