# generated using pymatgen
data_BaSrSm4O8
_symmetry_space_group_name_H-M   'P 1'
_cell_length_a   3.55582100
_cell_length_b   10.45936900
_cell_length_c   12.36493200
_cell_angle_alpha   90.00000000
_cell_angle_beta   90.00000000
_cell_angle_gamma   90.00000000
_symmetry_Int_Tables_number   1
_chemical_formula_structural   BaSrSm4O8
_chemical_formula_sum   'Ba2 Sr2 Sm8 O16'
_cell_volume   459.87214825
_cell_formula_units_Z   2
loop_
 _symmetry_equiv_pos_site_id
 _symmetry_equiv_pos_as_xyz
  1  'x, y, z'
loop_
 _atom_site_type_symbol
 _atom_site_label
 _atom_site_symmetry_multiplicity
 _atom_site_fract_x
 _atom_site_fract_y
 _atom_site_fract_z
 _atom_site_occupancy
  Ba  Ba0  1  0.75000000  0.74989900  0.14720800  1
  Ba  Ba1  1  0.75000000  0.24989900  0.35279200  1
  Sr  Sr0  1  0.25000000  0.25117300  0.85339500  1
  Sr  Sr1  1  0.25000000  0.75117300  0.64660500  1
  Sm  Sm0  1  0.75000000  0.08305900  0.10843100  1
  Sm  Sm1  1  0.75000000  0.58305900  0.39156900  1
  Sm  Sm2  1  0.25000000  0.91978800  0.88657400  1
  Sm  Sm3  1  0.25000000  0.41978800  0.61342600  1
  Sm  Sm4  1  0.75000000  0.07299100  0.61533800  1
  Sm  Sm5  1  0.75000000  0.57299100  0.88466200  1
  Sm  Sm6  1  0.25000000  0.92458000  0.38930300  1
  Sm  Sm7  1  0.25000000  0.42458000  0.11069700  1
  O  O0  1  0.75000000  0.98793600  0.28374900  1
  O  O1  1  0.75000000  0.48793600  0.21625100  1
  O  O2  1  0.25000000  0.00895300  0.71683400  1
  O  O3  1  0.25000000  0.50895300  0.78316600  1
  O  O4  1  0.75000000  0.37095900  0.97871700  1
  O  O5  1  0.75000000  0.87095900  0.52128300  1
  O  O6  1  0.25000000  0.62220400  0.01497600  1
  O  O7  1  0.25000000  0.12220400  0.48502400  1
  O  O8  1  0.75000000  0.28637700  0.67756900  1
  O  O9  1  0.75000000  0.78637700  0.82243100  1
  O  O10  1  0.25000000  0.71350300  0.32910200  1
  O  O11  1  0.25000000  0.21350300  0.17089800  1
  O  O12  1  0.75000000  0.07569500  0.91947400  1
  O  O13  1  0.75000000  0.57569500  0.58052600  1
  O  O14  1  0.25000000  0.93288400  0.07487600  1
  O  O15  1  0.25000000  0.43288400  0.42512400  1
loop_
_geom_bond_atom_site_label_1
_geom_bond_atom_site_label_2
_geom_bond_distance
_geom_bond_site_symmetry_2
Ba0 O6 2.760104 1_655
Ba0 O6 2.760104 1_555
Ba0 O14 2.761145 1_555
Ba0 O14 2.761145 1_655
Ba0 O1 2.869886 1_555
Ba0 O10 2.892121 1_555
Ba0 O10 2.892121 1_655
Ba0 O0 3.008175 1_555
Ba1 O7 2.760104 1_655
Ba1 O7 2.760104 1_555
Ba1 O15 2.761145 1_655
Ba1 O15 2.761145 1_555
Ba1 O0 2.869886 1_545
Ba1 O11 2.892121 1_555
Ba1 O11 2.892121 1_655
Ba1 O1 3.008175 1_555
O0 Sm6 2.302944 1_555
O0 Sm6 2.302944 1_655
O0 Sm0 2.385207 1_565
O1 Sm7 2.302944 1_555
O1 Sm7 2.302944 1_655
O1 Sm1 2.385207 1_555
O2 Sm4 2.276971 1_555
O2 Sm4 2.276971 1_455
O2 Sm2 2.296698 1_545
O2 Sr1 2.832607 1_545
O2 Sr0 3.044622 1_555
O3 Sm5 2.276971 1_455
O3 Sm5 2.276971 1_555
O3 Sm3 2.296698 1_555
O3 Sr0 2.832607 1_555
O3 Sr1 3.044622 1_555
O4 Sm5 2.412019 1_555
O4 Sm7 2.477637 1_656
O4 Sm7 2.477637 1_556
O4 Sr0 2.670570 1_555
O4 Sr0 2.670570 1_655
O5 Sm4 2.412019 1_565
O5 Sm6 2.477637 1_555
O5 Sm6 2.477637 1_655
O5 Sr1 2.670570 1_655
O5 Sr1 2.670570 1_555
O6 Sm7 2.381901 1_555
O6 Sm5 2.454034 1_454
O6 Sm5 2.454034 1_554
O7 Sm6 2.381901 1_545
O7 Sm4 2.454034 1_555
O7 Sm4 2.454034 1_455
O8 Sm4 2.360806 1_555
O8 Sm3 2.395232 1_555
O8 Sm3 2.395232 1_655
O8 Sr0 2.832517 1_555
O8 Sr0 2.832517 1_655
O9 Sm5 2.360806 1_555
O9 Sm2 2.395232 1_555
O9 Sm2 2.395232 1_655
O9 Sr1 2.832517 1_555
O9 Sr1 2.832517 1_655
O10 Sm6 2.329847 1_555
O10 Sm1 2.370454 1_555
O10 Sm1 2.370454 1_455
O11 Sm7 2.329847 1_555
O11 Sm0 2.370454 1_555
O11 Sm0 2.370454 1_455
O12 Sm0 2.337710 1_556
O12 Sm2 2.446549 1_545
O12 Sm2 2.446549 1_645
O12 Sr0 2.682762 1_555
O12 Sr0 2.682762 1_655
O13 Sm1 2.337710 1_555
O13 Sm3 2.446549 1_555
O13 Sm3 2.446549 1_655
O13 Sr1 2.682762 1_555
O13 Sr1 2.682762 1_655
O14 Sm2 2.332367 1_554
O14 Sm0 2.408386 1_465
O14 Sm0 2.408386 1_565
O15 Sm3 2.332367 1_555
O15 Sm1 2.408386 1_455
O15 Sm1 2.408386 1_555
