# generated using pymatgen
data_AuC2N3
_symmetry_space_group_name_H-M   'P 1'
_cell_length_a   3.93023600
_cell_length_b   3.93023531
_cell_length_c   24.48010800
_cell_angle_alpha   90.00000000
_cell_angle_beta   90.00000000
_cell_angle_gamma   119.99998897
_symmetry_Int_Tables_number   1
_chemical_formula_structural   AuC2N3
_chemical_formula_sum   'Au3 C6 N9'
_cell_volume   327.47729316
_cell_formula_units_Z   3
loop_
 _symmetry_equiv_pos_site_id
 _symmetry_equiv_pos_as_xyz
  1  'x, y, z'
loop_
 _atom_site_type_symbol
 _atom_site_label
 _atom_site_symmetry_multiplicity
 _atom_site_fract_x
 _atom_site_fract_y
 _atom_site_fract_z
 _atom_site_occupancy
  Au  Au0  1  0.00000000  0.25578000  0.66666700  1
  Au  Au1  1  0.25578000  0.00000000  0.33333300  1
  Au  Au2  1  0.74422000  0.74422000  0.00000000  1
  C  C0  1  0.08190500  0.68888400  0.21287200  1
  C  C1  1  0.60697900  0.91809500  0.87953800  1
  C  C2  1  0.31111600  0.39302100  0.54620500  1
  C  C3  1  0.91809500  0.60697900  0.12046200  1
  C  C4  1  0.68888400  0.08190500  0.78712800  1
  C  C5  1  0.39302100  0.31111600  0.45379500  1
  N  N0  1  0.00000000  0.51050700  0.16666700  1
  N  N1  1  0.51050700  0.00000000  0.83333300  1
  N  N2  1  0.48949300  0.48949300  0.50000000  1
  N  N3  1  0.16400100  0.81689500  0.25732800  1
  N  N4  1  0.65289500  0.83599900  0.92399400  1
  N  N5  1  0.18310500  0.34710500  0.59066100  1
  N  N6  1  0.83599900  0.65289500  0.07600600  1
  N  N7  1  0.81689500  0.16400100  0.74267200  1
  N  N8  1  0.34710500  0.18310500  0.40933900  1
loop_
_geom_bond_atom_site_label_1
_geom_bond_atom_site_label_2
_geom_bond_distance
_geom_bond_site_symmetry_2
Au0 N7 1.962216 1_455
Au0 N5 1.962239 1_555
Au1 N3 1.962216 1_545
Au1 N8 1.962239 1_555
Au2 N4 1.962238 1_554
Au2 N6 1.962238 1_555
C0 N3 1.174422 1_555
C0 N0 1.284069 1_555
C1 N4 1.174423 1_555
C1 N1 1.284069 1_565
C2 N5 1.174422 1_555
C2 N2 1.284069 1_555
C3 N6 1.174423 1_555
C3 N0 1.284069 1_655
C4 N7 1.174422 1_555
C4 N1 1.284069 1_555
C5 N8 1.174422 1_555
C5 N2 1.284069 1_555
