# generated using pymatgen
data_Pr4Mg5Ge6
_symmetry_space_group_name_H-M   'P 1'
_cell_length_a   10.32100876
_cell_length_b   10.32100876
_cell_length_c   16.07264400
_cell_angle_alpha   90.00000000
_cell_angle_beta   90.00000000
_cell_angle_gamma   154.90146255
_symmetry_Int_Tables_number   1
_chemical_formula_structural   Pr4Mg5Ge6
_chemical_formula_sum   'Pr8 Mg10 Ge12'
_cell_volume   726.23642052
_cell_formula_units_Z   2
loop_
 _symmetry_equiv_pos_site_id
 _symmetry_equiv_pos_as_xyz
  1  'x, y, z'
loop_
 _atom_site_type_symbol
 _atom_site_label
 _atom_site_symmetry_multiplicity
 _atom_site_fract_x
 _atom_site_fract_y
 _atom_site_fract_z
 _atom_site_occupancy
  Pr  Pr0  1  0.01338700  0.98661300  0.76382000  1
  Pr  Pr1  1  0.98661300  0.01338700  0.26382000  1
  Pr  Pr2  1  0.03335900  0.96664100  0.50091400  1
  Pr  Pr3  1  0.96664100  0.03335900  0.00091400  1
  Pr  Pr4  1  0.16455300  0.83544700  0.96266400  1
  Pr  Pr5  1  0.83544700  0.16455300  0.46266400  1
  Pr  Pr6  1  0.17476600  0.82523400  0.32232000  1
  Pr  Pr7  1  0.82523400  0.17476600  0.82232000  1
  Mg  Mg0  1  0.15478500  0.84521500  0.64182700  1
  Mg  Mg1  1  0.84521500  0.15478500  0.14182700  1
  Mg  Mg2  1  0.30287100  0.69712900  0.64521200  1
  Mg  Mg3  1  0.69712900  0.30287100  0.14521200  1
  Mg  Mg4  1  0.33985900  0.66014100  0.99795800  1
  Mg  Mg5  1  0.66014100  0.33985900  0.49795800  1
  Mg  Mg6  1  0.44199100  0.55800900  0.59560600  1
  Mg  Mg7  1  0.55800900  0.44199100  0.09560600  1
  Mg  Mg8  1  0.65011500  0.34988500  0.78614600  1
  Mg  Mg9  1  0.34988500  0.65011500  0.28614600  1
  Ge  Ge0  1  0.11359800  0.88640200  0.14611000  1
  Ge  Ge1  1  0.88640200  0.11359800  0.64611000  1
  Ge  Ge2  1  0.22603200  0.77396800  0.78632600  1
  Ge  Ge3  1  0.77396800  0.22603200  0.28632600  1
  Ge  Ge4  1  0.23225000  0.76775000  0.49959500  1
  Ge  Ge5  1  0.76775000  0.23225000  0.99959500  1
  Ge  Ge6  1  0.43292300  0.56707700  0.86350400  1
  Ge  Ge7  1  0.56707700  0.43292300  0.36350400  1
  Ge  Ge8  1  0.55538600  0.44461400  0.91418600  1
  Ge  Ge9  1  0.44461400  0.55538600  0.41418600  1
  Ge  Ge10  1  0.57214600  0.42785400  0.63827100  1
  Ge  Ge11  1  0.42785400  0.57214600  0.13827100  1
loop_
_geom_bond_atom_site_label_1
_geom_bond_atom_site_label_2
_geom_bond_distance
_geom_bond_site_symmetry_2
Ge0 Mg7 2.634846 1_565
Ge0 Mg7 2.634846 1_455
Ge0 Mg3 2.803902 1_565
Ge0 Mg3 2.803902 1_455
Ge0 Pr6 3.088706 1_555
Ge0 Pr4 3.122101 1_554
Ge0 Pr1 3.182104 1_465
Ge1 Mg6 2.634846 1_655
Ge1 Mg6 2.634846 1_545
Ge1 Mg2 2.803902 1_545
Ge1 Mg2 2.803902 1_655
Ge1 Pr7 3.088706 1_555
Ge1 Pr5 3.122101 1_555
Ge1 Pr0 3.182104 1_645
Ge2 Mg8 2.714552 1_565
Ge2 Mg8 2.714552 1_455
Ge2 Mg0 2.730332 1_555
Ge2 Mg2 2.746115 1_555
Ge2 Pr7 3.059232 1_455
Ge2 Pr7 3.059232 1_565
Ge2 Pr4 3.093097 1_555
Ge3 Mg9 2.714552 1_655
Ge3 Mg9 2.714552 1_545
Ge3 Mg1 2.730332 1_555
Ge3 Mg3 2.746115 1_555
Ge3 Pr6 3.059232 1_655
Ge3 Pr6 3.059232 1_545
Ge3 Pr5 3.093097 1_555
Ge4 Mg5 2.672197 1_455
Ge4 Mg5 2.672197 1_565
Ge4 Mg2 2.739059 1_555
Ge4 Mg0 2.768067 1_555
Ge4 Pr6 3.075695 1_555
Ge4 Pr5 3.115256 1_565
Ge4 Pr5 3.115256 1_455
Ge5 Mg4 2.672197 1_545
Ge5 Mg4 2.672197 1_655
Ge5 Mg3 2.739059 1_556
Ge5 Mg1 2.768067 1_556
Ge5 Pr7 3.075695 1_555
Ge5 Pr4 3.115256 1_545
Ge5 Pr4 3.115256 1_655
Ge6 Ge8 2.598476 1_555
Ge6 Mg4 2.861151 1_555
Ge6 Pr7 3.189863 1_455
Ge6 Pr7 3.189863 1_565
Ge6 Pr0 3.197571 1_545
Ge6 Pr0 3.197571 1_655
Ge6 Pr3 3.219968 1_566
Ge6 Pr3 3.219968 1_456
Ge7 Ge9 2.598476 1_555
Ge7 Mg5 2.861151 1_555
Ge7 Pr6 3.189863 1_545
Ge7 Pr6 3.189863 1_655
Ge7 Pr1 3.197571 1_455
Ge7 Pr1 3.197571 1_565
Ge7 Pr2 3.219968 1_655
Ge7 Pr2 3.219968 1_545
Ge8 Mg8 2.806811 1_555
Ge8 Mg7 2.916378 1_556
Ge8 Pr3 3.188952 1_566
Ge8 Pr3 3.188952 1_456
Ge8 Pr4 3.236401 1_655
Ge8 Pr4 3.236401 1_545
Ge8 Pr0 3.403808 1_655
Ge8 Pr0 3.403808 1_545
Ge9 Mg9 2.806811 1_555
Ge9 Mg6 2.916378 1_555
Ge9 Pr2 3.188952 1_655
Ge9 Pr2 3.188952 1_545
Ge9 Pr5 3.236401 1_565
Ge9 Pr5 3.236401 1_455
Ge9 Pr1 3.403808 1_565
Ge9 Pr1 3.403808 1_455
Ge10 Mg6 2.710649 1_555
Ge10 Mg0 2.793698 1_545
Ge10 Mg0 2.793698 1_655
Ge10 Mg8 2.849018 1_555
Ge10 Mg5 2.868703 1_555
Ge10 Pr0 3.240772 1_655
Ge10 Pr0 3.240772 1_545
Ge10 Pr2 3.242475 1_655
Ge10 Pr2 3.242475 1_545
Ge11 Mg7 2.710649 1_555
Ge11 Mg1 2.793698 1_565
Ge11 Mg1 2.793698 1_455
Ge11 Mg9 2.849018 1_555
Ge11 Mg4 2.868703 1_554
Ge11 Pr1 3.240772 1_455
Ge11 Pr1 3.240772 1_565
Ge11 Pr3 3.242475 1_565
Ge11 Pr3 3.242475 1_455
