# generated using pymatgen
data_Mo3Cl7O4
_symmetry_space_group_name_H-M   'P 1'
_cell_length_a   10.11606590
_cell_length_b   10.11606590
_cell_length_c   19.95836336
_cell_angle_alpha   83.74728448
_cell_angle_beta   83.74728448
_cell_angle_gamma   58.19903083
_symmetry_Int_Tables_number   1
_chemical_formula_structural   Mo3Cl7O4
_chemical_formula_sum   'Mo12 Cl28 O16'
_cell_volume   1722.29471026
_cell_formula_units_Z   4
loop_
 _symmetry_equiv_pos_site_id
 _symmetry_equiv_pos_as_xyz
  1  'x, y, z'
loop_
 _atom_site_type_symbol
 _atom_site_label
 _atom_site_symmetry_multiplicity
 _atom_site_fract_x
 _atom_site_fract_y
 _atom_site_fract_z
 _atom_site_occupancy
  Mo  Mo0  1  0.10008200  0.40772900  0.40002700  1
  Mo  Mo1  1  0.59227100  0.89991800  0.09997300  1
  Mo  Mo2  1  0.89991800  0.59227100  0.59997300  1
  Mo  Mo3  1  0.40772900  0.10008200  0.90002700  1
  Mo  Mo4  1  0.79563200  0.71492100  0.44888600  1
  Mo  Mo5  1  0.28507900  0.20436800  0.05111400  1
  Mo  Mo6  1  0.20436800  0.28507900  0.55111400  1
  Mo  Mo7  1  0.71492100  0.79563200  0.94888600  1
  Mo  Mo8  1  0.18125800  0.64704400  0.48522600  1
  Mo  Mo9  1  0.35295600  0.81874200  0.01477400  1
  Mo  Mo10  1  0.81874200  0.35295600  0.51477400  1
  Mo  Mo11  1  0.64704400  0.18125800  0.98522600  1
  Cl  Cl0  1  0.34718100  0.35704300  0.45204800  1
  Cl  Cl1  1  0.64295700  0.65281900  0.04795200  1
  Cl  Cl2  1  0.65281900  0.64295700  0.54795200  1
  Cl  Cl3  1  0.35704300  0.34718100  0.95204800  1
  Cl  Cl4  1  0.02668400  0.69173600  0.37403900  1
  Cl  Cl5  1  0.30826400  0.97331600  0.12596100  1
  Cl  Cl6  1  0.97331600  0.30826400  0.62596100  1
  Cl  Cl7  1  0.69173600  0.02668400  0.87403900  1
  Cl  Cl8  1  0.15700200  0.15643300  0.46326000  1
  Cl  Cl9  1  0.84356700  0.84299800  0.03674000  1
  Cl  Cl10  1  0.84299800  0.84356700  0.53674000  1
  Cl  Cl11  1  0.15643300  0.15700200  0.96326000  1
  Cl  Cl12  1  0.82326200  0.51329100  0.37613300  1
  Cl  Cl13  1  0.48670900  0.17673800  0.12386700  1
  Cl  Cl14  1  0.17673800  0.48670900  0.62386700  1
  Cl  Cl15  1  0.51329100  0.82326200  0.87613300  1
  Cl  Cl16  1  0.30642100  0.77609700  0.41191700  1
  Cl  Cl17  1  0.22390300  0.69357900  0.08808300  1
  Cl  Cl18  1  0.69357900  0.22390300  0.58808300  1
  Cl  Cl19  1  0.77609700  0.30642100  0.91191700  1
  Cl  Cl20  1  0.21671400  0.31313800  0.29483000  1
  Cl  Cl21  1  0.68686200  0.78328600  0.20517000  1
  Cl  Cl22  1  0.78328600  0.68686200  0.70517000  1
  Cl  Cl23  1  0.31313800  0.21671400  0.79483000  1
  Cl  Cl24  1  0.58014300  0.92958300  0.39826000  1
  Cl  Cl25  1  0.07041700  0.41985700  0.10174000  1
  Cl  Cl26  1  0.41985700  0.07041700  0.60174000  1
  Cl  Cl27  1  0.92958300  0.58014300  0.89826000  1
  O  O0  1  0.66963400  0.18866900  0.30874600  1
  O  O1  1  0.81133100  0.33036600  0.19125400  1
  O  O2  1  0.33036600  0.81133100  0.69125400  1
  O  O3  1  0.18866900  0.66963400  0.80874600  1
  O  O4  1  0.79821900  0.11920400  0.33290300  1
  O  O5  1  0.88079600  0.20178100  0.16709700  1
  O  O6  1  0.20178100  0.88079600  0.66709700  1
  O  O7  1  0.11920400  0.79821900  0.83290300  1
  O  O8  1  0.32271400  0.77510000  0.33291600  1
  O  O9  1  0.22490000  0.67728600  0.16708400  1
  O  O10  1  0.67728600  0.22490000  0.66708400  1
  O  O11  1  0.77510000  0.32271400  0.83291600  1
  O  O12  1  0.73778300  0.22372000  0.03978900  1
  O  O13  1  0.77628000  0.26221700  0.46021100  1
  O  O14  1  0.26221700  0.77628000  0.96021100  1
  O  O15  1  0.22372000  0.73778300  0.53978900  1
loop_
_geom_bond_atom_site_label_1
_geom_bond_atom_site_label_2
_geom_bond_distance
_geom_bond_site_symmetry_2
Mo8 O15 1.717028 1_555
Mo9 O14 1.717028 1_554
Mo10 O13 1.717028 1_555
Mo11 O12 1.717028 1_556
Cl0 Mo0 2.586072 1_555
Cl0 Mo6 2.588273 1_555
Cl0 Mo8 2.617924 1_555
Cl1 Mo1 2.586072 1_555
Cl1 Mo7 2.588273 1_554
Cl1 Mo9 2.617924 1_555
Cl2 Mo2 2.586072 1_555
Cl2 Mo4 2.588273 1_555
Cl2 Mo10 2.617924 1_555
Cl3 Mo3 2.586072 1_555
Cl3 Mo5 2.588273 1_556
Cl3 Mo11 2.617924 1_555
Cl4 Mo4 2.547087 1_455
Cl4 Mo0 2.566252 1_555
Cl4 Mo8 2.714071 1_555
Cl5 Mo5 2.547087 1_565
Cl5 Mo1 2.566252 1_555
Cl5 Mo9 2.714071 1_555
Cl6 Mo6 2.547087 1_655
Cl6 Mo2 2.566252 1_555
Cl6 Mo10 2.714071 1_555
Cl7 Mo7 2.547087 1_545
Cl7 Mo3 2.566252 1_555
Cl7 Mo11 2.714071 1_555
Cl8 Mo0 2.510656 1_555
Cl8 Mo6 2.516938 1_555
Cl8 Mo10 3.037703 1_455
Cl9 Mo1 2.510656 1_555
Cl9 Mo7 2.516938 1_554
Cl9 Mo11 3.037703 1_564
Cl10 Mo2 2.510656 1_555
Cl10 Mo4 2.516938 1_555
Cl10 Mo8 3.037703 1_655
Cl11 Mo3 2.510656 1_555
Cl11 Mo5 2.516938 1_556
Cl11 Mo9 3.037703 1_546
Cl12 Mo0 2.497576 1_655
Cl12 Mo4 2.510533 1_555
Cl12 Mo10 3.059800 1_555
Cl13 Mo1 2.497576 1_545
Cl13 Mo5 2.510533 1_555
Cl13 Mo11 3.059800 1_554
Cl14 Mo2 2.497576 1_455
Cl14 Mo6 2.510533 1_555
Cl14 Mo8 3.059800 1_555
Cl15 Mo3 2.497576 1_565
Cl15 Mo7 2.510533 1_555
Cl15 Mo9 3.059800 1_556
Cl16 O8 1.567945 1_555
Cl16 Mo8 2.524039 1_555
Cl17 O9 1.567945 1_555
Cl17 Mo9 2.524039 1_555
Cl18 O10 1.567945 1_555
Cl18 Mo10 2.524039 1_555
Cl19 O11 1.567945 1_555
Cl19 Mo11 2.524039 1_555
Cl20 Mo0 2.328946 1_555
Cl21 Mo1 2.328946 1_555
Cl22 Mo2 2.328946 1_555
Cl23 Mo3 2.328946 1_555
Cl24 Mo4 2.345471 1_555
Cl25 Mo5 2.345471 1_555
Cl26 Mo6 2.345471 1_555
Cl27 Mo7 2.345471 1_555
O0 O4 1.231952 1_555
O1 O5 1.231952 1_555
O2 O6 1.231952 1_555
O3 O7 1.231952 1_555
