# generated using pymatgen
data_VO2
_symmetry_space_group_name_H-M   'P 1'
_cell_length_a   10.23050119
_cell_length_b   11.78252244
_cell_length_c   11.37423135
_cell_angle_alpha   90.11215288
_cell_angle_beta   85.77241120
_cell_angle_gamma   93.17549185
_symmetry_Int_Tables_number   1
_chemical_formula_structural   VO2
_chemical_formula_sum   'V34 O68'
_cell_volume   1365.22935937
_cell_formula_units_Z   34
loop_
 _symmetry_equiv_pos_site_id
 _symmetry_equiv_pos_as_xyz
  1  'x, y, z'
loop_
 _atom_site_type_symbol
 _atom_site_label
 _atom_site_symmetry_multiplicity
 _atom_site_fract_x
 _atom_site_fract_y
 _atom_site_fract_z
 _atom_site_occupancy
  V  V0  1  0.99253313  0.57738140  0.84805421  1
  V  V1  1  0.69118955  0.74726504  0.10298903  1
  V  V2  1  0.59499521  0.20475001  0.86674985  1
  V  V3  1  0.63625913  0.98247215  0.27984611  1
  V  V4  1  0.81840924  0.44036361  0.09736359  1
  V  V5  1  0.96759799  0.28166404  0.92944480  1
  V  V6  1  0.26985597  0.55107756  0.19368473  1
  V  V7  1  0.41301009  0.58048798  0.47089073  1
  V  V8  1  0.82128916  0.36153237  0.68867049  1
  V  V9  1  0.78537206  0.81019519  0.80028768  1
  V  V10  1  0.09518269  0.89452817  0.61159735  1
  V  V11  1  0.31878566  0.27271376  0.22437462  1
  V  V12  1  0.80074997  0.90940817  0.53177879  1
  V  V13  1  0.96166893  0.65829255  0.23878477  1
  V  V14  1  0.74517114  0.49583470  0.41948965  1
  V  V15  1  0.59125722  0.03025185  0.65161616  1
  V  V16  1  0.07214724  0.84126485  0.90467930  1
  V  V17  1  0.42458734  0.88390099  0.49788658  1
  V  V18  1  0.15776737  0.09672020  0.01510062  1
  V  V19  1  0.04511169  0.41755153  0.30938440  1
  V  V20  1  0.95544999  0.93663086  0.30252015  1
  V  V21  1  0.50645580  0.26641753  0.48523672  1
  V  V22  1  0.29706369  0.49019960  0.69063591  1
  V  V23  1  0.53382371  0.44002735  0.90880615  1
  V  V24  1  0.79738297  0.11806226  0.11750563  1
  V  V25  1  0.06460679  0.47995350  0.56030787  1
  V  V26  1  0.31692514  0.59297890  0.92450202  1
  V  V27  1  0.31164747  0.08618782  0.72235744  1
  V  V28  1  0.62049425  0.59518400  0.65179274  1
  V  V29  1  0.90297640  0.04037781  0.74888304  1
  V  V30  1  0.54517342  0.48740105  0.16843559  1
  V  V31  1  0.62180366  0.97636483  0.95226087  1
  V  V32  1  0.94593557  0.17265977  0.45610819  1
  V  V33  1  0.24491932  0.29703894  0.52195506  1
  O  O0  1  0.78688680  0.95175945  0.36699419  1
  O  O1  1  0.37678899  0.45213127  0.81804010  1
  O  O2  1  0.14358069  0.93726247  0.00437679  1
  O  O3  1  0.12707443  0.81616170  0.73502681  1
  O  O4  1  0.84283082  0.06305000  0.57526477  1
  O  O5  1  0.95126729  0.49529533  0.18267402  1
  O  O6  1  0.89975013  0.88145317  0.66715447  1
  O  O7  1  0.03608101  0.06159576  0.33430182  1
  O  O8  1  0.39774774  0.70898510  0.88007033  1
  O  O9  1  0.62095169  0.90048328  0.54154692  1
  O  O10  1  0.60718519  0.54981443  0.80292425  1
  O  O11  1  0.69860752  0.97585712  0.78085281  1
  O  O12  1  0.68435390  0.81979436  0.96037174  1
  O  O13  1  0.12122444  0.58664394  0.29445766  1
  O  O14  1  0.94200040  0.48339214  0.44654045  1
  O  O15  1  0.40839778  0.54862368  0.29272298  1
  O  O16  1  0.84921369  0.65363550  0.35278650  1
  O  O17  1  0.97770046  0.14126899  0.00602034  1
  O  O18  1  0.23129170  0.89224731  0.51339565  1
  O  O19  1  0.95703165  0.48440346  0.70005739  1
  O  O20  1  0.47746932  0.34290811  0.18460098  1
  O  O21  1  0.49478957  0.14035929  0.76104881  1
  O  O22  1  0.35653426  0.24548368  0.37930711  1
  O  O23  1  0.73117401  0.48176600  0.60878675  1
  O  O24  1  0.96168873  0.28322161  0.32886457  1
  O  O25  1  0.88544510  0.99997094  0.15839218  1
  O  O26  1  0.20407578  0.39305143  0.20028582  1
  O  O27  1  0.24044251  0.11290446  0.85965299  1
  O  O28  1  0.67596547  0.33552760  0.79861128  1
  O  O29  1  0.23358808  0.63381985  0.07632171  1
  O  O30  1  0.39457784  0.40562505  0.54427529  1
  O  O31  1  0.21986541  0.57422833  0.56024641  1
  O  O32  1  0.44054025  0.60462794  0.64718802  1
  O  O33  1  0.56680639  0.64746363  0.12067011  1
  O  O34  1  0.83737200  0.68274444  0.11327563  1
  O  O35  1  0.41127730  0.96534209  0.65080017  1
  O  O36  1  0.63508311  0.35557314  0.43450868  1
  O  O37  1  0.63905367  0.02186781  0.11803928  1
  O  O38  1  0.16102628  0.37635832  0.65095154  1
  O  O39  1  0.48476173  0.29090580  0.95045695  1
  O  O40  1  0.58246746  0.14598700  0.53554113  1
  O  O41  1  0.11269815  0.02983079  0.67596377  1
  O  O42  1  0.73412614  0.14402150  0.25911069  1
  O  O43  1  0.92192559  0.92331993  0.87266366  1
  O  O44  1  0.05293015  0.70265642  0.95527046  1
  O  O45  1  0.32921493  0.19276919  0.60257161  1
  O  O46  1  0.87155724  0.66866003  0.81977227  1
  O  O47  1  0.69667705  0.72838402  0.66923275  1
  O  O48  1  0.60410733  0.59031835  0.47780076  1
  O  O49  1  0.84167574  0.28543671  0.07992697  1
  O  O50  1  0.71154656  0.13082848  0.95356062  1
  O  O51  1  0.41905635  0.74819649  0.45203891  1
  O  O52  1  0.86042799  0.28518846  0.56461261  1
  O  O53  1  0.65613928  0.83387429  0.22202338  1
  O  O54  1  0.46444649  0.98644168  0.94609784  1
  O  O55  1  0.96939936  0.87541252  0.46468642  1
  O  O56  1  0.17455248  0.56388890  0.81275688  1
  O  O57  1  0.70035038  0.47656775  0.24528443  1
  O  O58  1  0.16235472  0.39813294  0.43006167  1
  O  O59  1  0.25061443  0.16253902  0.13970306  1
  O  O60  1  0.09129435  0.18863791  0.51264025  1
  O  O61  1  0.92176977  0.44295910  0.94083015  1
  O  O62  1  0.12559727  0.31042771  0.92042938  1
  O  O63  1  0.41757858  0.50092357  0.03141808  1
  O  O64  1  0.66489804  0.46129728  0.02691717  1
  O  O65  1  0.02664991  0.81931220  0.23695154  1
  O  O66  1  0.91333910  0.22762884  0.79014633  1
  O  O67  1  0.48497207  0.97606954  0.36000509  1
loop_
_geom_bond_atom_site_label_1
_geom_bond_atom_site_label_2
_geom_bond_distance
_geom_bond_site_symmetry_2
O0 V20 1.841333 1_555
O0 V3 1.943342 1_555
O0 V12 1.957756 1_555
O1 V22 1.784304 1_555
O1 V23 1.984353 1_555
O1 V26 2.142634 1_555
O2 V16 1.767750 1_554
O2 V18 1.880795 1_565
O3 V10 1.742412 1_555
O3 V16 1.995789 1_555
O4 V12 1.910151 1_545
O4 V32 2.064602 1_555
O4 V29 2.132872 1_555
O5 V4 1.817262 1_555
O5 V13 2.022278 1_555
O5 V19 2.035828 1_655
O6 V12 1.942715 1_555
O6 V9 2.000529 1_555
O6 V10 2.049519 1_655
O6 V29 2.088657 1_565
O7 V20 1.698945 1_445
O7 V32 2.102544 1_455
O8 V26 1.619644 1_555
O9 V12 1.831769 1_555
O9 V15 1.996349 1_565
O9 V17 2.103262 1_555
O10 V28 1.794521 1_555
O10 V23 1.858031 1_555
O11 V15 2.024204 1_565
O11 V31 2.047710 1_555
O11 V29 2.189630 1_565
O11 V9 2.206655 1_555
O12 V1 1.842655 1_556
O12 V31 1.990336 1_555
O12 V9 2.032481 1_555
O13 V6 1.900873 1_555
O13 V13 2.021221 1_455
O13 V19 2.101074 1_555
O14 V25 1.869384 1_655
O14 V19 1.997905 1_655
O14 V14 2.072493 1_555
O15 V6 1.875835 1_555
O15 V7 2.063766 1_555
O15 V30 2.071958 1_555
O16 V13 1.667730 1_555
O16 V14 2.198352 1_555
O17 V5 1.882434 1_554
O17 V18 1.953249 1_655
O17 V24 2.164806 1_555
O18 V10 1.721049 1_555
O18 V17 1.980249 1_555
O19 V25 1.867819 1_655
O19 V8 1.960681 1_555
O19 V0 2.050505 1_555
O20 V30 1.806612 1_555
O20 V11 1.807927 1_555
O21 V2 1.778755 1_555
O21 V27 2.024737 1_555
O21 V15 2.039808 1_555
O22 V11 1.863824 1_555
O22 V21 2.023460 1_555
O22 V33 2.026142 1_555
O23 V28 1.841373 1_555
O23 V8 1.988888 1_555
O23 V14 2.153409 1_555
O24 V19 1.762500 1_655
O24 V32 1.940979 1_555
O25 V24 1.779648 1_565
O25 V20 1.998613 1_555
O26 V11 1.922480 1_555
O26 V6 1.944129 1_555
O26 V19 2.005258 1_555
O27 V27 1.710029 1_555
O27 V18 1.908111 1_556
O28 V2 1.851972 1_555
O28 V8 1.882795 1_555
O28 V23 2.263899 1_555
O29 V6 1.728675 1_555
O29 V26 1.940500 1_554
O30 V33 1.970936 1_555
O30 V21 2.131111 1_555
O30 V22 2.149046 1_555
O30 V7 2.217589 1_555
O31 V25 1.887105 1_555
O31 V22 2.017074 1_555
O31 V7 2.151955 1_555
O32 V28 1.855105 1_555
O32 V22 1.973059 1_555
O32 V7 2.062377 1_555
O33 V1 1.685198 1_555
O33 V30 1.959838 1_555
O34 V1 1.726355 1_555
O34 V13 2.011920 1_555
O35 V27 1.939764 1_565
O35 V15 1.954946 1_565
O35 V17 1.984298 1_555
O36 V21 1.704510 1_555
O36 V14 1.948170 1_555
O37 V3 1.896727 1_545
O37 V24 1.924463 1_555
O37 V31 1.977045 1_544
O38 V33 1.913291 1_555
O38 V25 1.952984 1_555
O38 V22 1.955320 1_555
O39 V2 1.781444 1_555
O39 V23 1.853108 1_555
O40 V21 1.771052 1_555
O40 V15 1.910201 1_555
O41 V10 1.758614 1_545
O41 V27 2.206648 1_555
O41 V29 2.252452 1_455
O42 V24 1.724201 1_555
O42 V3 2.106428 1_545
O43 V16 1.917741 1_655
O43 V29 1.999888 1_565
O43 V9 2.089236 1_555
O44 V16 1.728701 1_555
O44 V0 2.012641 1_455
O45 V33 1.825445 1_555
O45 V27 1.846956 1_555
O45 V21 2.301194 1_555
O46 V0 1.731892 1_555
O46 V9 1.949546 1_555
O47 V28 1.730888 1_555
O47 V9 2.017790 1_555
O48 V14 1.948308 1_555
O48 V7 1.959395 1_555
O48 V28 1.998834 1_555
O49 V4 1.862242 1_555
O49 V24 2.037871 1_555
O49 V5 2.066917 1_554
O50 V2 1.856706 1_555
O50 V31 1.993044 1_545
O50 V24 2.127962 1_556
O51 V17 1.680125 1_555
O51 V7 1.985109 1_555
O52 V8 1.706518 1_555
O52 V32 2.002309 1_555
O53 V1 1.722386 1_555
O53 V3 1.885376 1_555
O54 V31 1.627406 1_555
O55 V12 1.897614 1_555
O55 V20 1.999578 1_555
O55 V10 2.186855 1_655
O56 V0 1.891132 1_455
O56 V26 2.017526 1_555
O56 V22 2.028130 1_555
O57 V30 1.878322 1_555
O57 V4 2.055766 1_555
O57 V14 2.075717 1_555
O58 V33 1.863139 1_555
O58 V19 1.910360 1_555
O58 V25 2.001726 1_555
O59 V11 1.758665 1_555
O59 V18 1.903906 1_555
O60 V32 1.664283 1_455
O60 V33 1.978460 1_555
O61 V0 1.978147 1_555
O61 V5 1.984224 1_555
O61 V4 2.002034 1_556
O62 V5 1.628855 1_455
O63 V23 1.928775 1_554
O63 V26 2.007289 1_554
O63 V30 2.117104 1_555
O63 V6 2.392290 1_555
O64 V4 1.843518 1_555
O64 V23 1.973020 1_554
O64 V30 1.983675 1_555
O65 V20 1.739250 1_455
O65 V13 1.974890 1_455
O66 V5 1.819454 1_555
O66 V8 2.245045 1_555
O66 V29 2.253131 1_555
O67 V3 1.735442 1_555
O67 V17 1.951931 1_555
