# generated using pymatgen
data_Ta2Re2SnSe8
_symmetry_space_group_name_H-M   'P 1'
_cell_length_a   3.44039658
_cell_length_b   3.44039658
_cell_length_c   32.39550900
_cell_angle_alpha   90.00000000
_cell_angle_beta   90.00000000
_cell_angle_gamma   120.00001107
_symmetry_Int_Tables_number   1
_chemical_formula_structural   Ta2Re2SnSe8
_chemical_formula_sum   'Ta2 Re2 Sn1 Se8'
_cell_volume   332.07211232
_cell_formula_units_Z   1
loop_
 _symmetry_equiv_pos_site_id
 _symmetry_equiv_pos_as_xyz
  1  'x, y, z'
loop_
 _atom_site_type_symbol
 _atom_site_label
 _atom_site_symmetry_multiplicity
 _atom_site_fract_x
 _atom_site_fract_y
 _atom_site_fract_z
 _atom_site_occupancy
  Ta  Ta0  1  0.33333300  0.66666700  0.38587800  1
  Ta  Ta1  1  0.33333300  0.66666700  0.87498100  1
  Re  Re0  1  0.33333300  0.66666700  0.11249700  1
  Re  Re1  1  0.33333300  0.66666700  0.62518600  1
  Sn  Sn0  1  0.33333300  0.66666700  0.25257900  1
  Se  Se0  1  0.66666700  0.33333300  0.33337900  1
  Se  Se1  1  0.66666700  0.33333300  0.82293100  1
  Se  Se2  1  0.00000000  0.00000000  0.16314900  1
  Se  Se3  1  0.00000000  0.00000000  0.67318100  1
  Se  Se4  1  0.00000000  0.00000000  0.06437800  1
  Se  Se5  1  0.00000000  0.00000000  0.57709900  1
  Se  Se6  1  0.66666700  0.33333300  0.43777800  1
  Se  Se7  1  0.66666700  0.33333300  0.92698400  1
loop_
_geom_bond_atom_site_label_1
_geom_bond_atom_site_label_2
_geom_bond_distance
_geom_bond_site_symmetry_2
Re0 Se4 2.524959 1_565
Re0 Se4 2.524961 1_665
Re0 Se4 2.524961 1_555
Re0 Se2 2.576428 1_565
Re0 Se2 2.576430 1_555
Re0 Se2 2.576430 1_665
Re1 Se3 2.522481 1_565
Re1 Se3 2.522483 1_665
Re1 Se3 2.522483 1_555
Re1 Se5 2.524319 1_565
Re1 Se5 2.524321 1_665
Re1 Se5 2.524321 1_555
Se0 Ta0 2.614942 1_545
Se0 Ta0 2.614942 1_655
Se0 Ta0 2.614947 1_555
Se0 Sn0 3.285885 1_545
Se0 Sn0 3.285885 1_655
Se0 Sn0 3.285889 1_555
Se1 Ta1 2.605505 1_655
Se1 Ta1 2.605505 1_545
Se1 Ta1 2.605510 1_555
Se6 Ta0 2.602363 1_545
Se6 Ta0 2.602363 1_655
Se6 Ta0 2.602368 1_555
Se7 Ta1 2.604520 1_545
Se7 Ta1 2.604520 1_655
Se7 Ta1 2.604525 1_555
