# generated using pymatgen
data_YbSiAu
_symmetry_space_group_name_H-M   'P 1'
_cell_length_a   5.65179027
_cell_length_b   5.65179027
_cell_length_c   5.65179027
_cell_angle_alpha   133.48652729
_cell_angle_beta   103.20031002
_cell_angle_gamma   94.78746733
_symmetry_Int_Tables_number   1
_chemical_formula_structural   YbSiAu
_chemical_formula_sum   'Yb2 Si2 Au2'
_cell_volume   119.89650154
_cell_formula_units_Z   2
loop_
 _symmetry_equiv_pos_site_id
 _symmetry_equiv_pos_as_xyz
  1  'x, y, z'
loop_
 _atom_site_type_symbol
 _atom_site_label
 _atom_site_symmetry_multiplicity
 _atom_site_fract_x
 _atom_site_fract_y
 _atom_site_fract_z
 _atom_site_occupancy
  Yb  Yb0  1  0.29339800  0.29339800  0.00000000  1
  Yb  Yb1  1  0.86393800  0.36393800  0.50000000  1
  Si  Si0  1  0.47965600  0.66008100  0.81957500  1
  Si  Si1  1  0.84050600  0.66008100  0.18042500  1
  Au  Au0  1  0.26656600  0.99215100  0.27441500  1
  Au  Au1  1  0.71773600  0.99215100  0.72558500  1
loop_
_geom_bond_atom_site_label_1
_geom_bond_atom_site_label_2
_geom_bond_distance
_geom_bond_site_symmetry_2
Si0 Si1 2.533589 1_556
Si0 Yb1 3.003040 1_566
Si0 Yb1 3.003040 1_555
Si0 Yb0 3.078583 1_556
Si0 Yb1 3.189010 1_455
Si0 Yb0 3.324969 1_566
Si0 Yb0 3.324969 1_555
Si1 Yb1 3.003040 1_565
Si1 Yb1 3.003040 1_554
Si1 Yb0 3.078583 1_555
Si1 Yb1 3.189010 1_555
Si1 Yb0 3.324969 1_666
Si1 Yb0 3.324969 1_655
Au0 Si0 2.594591 1_565
Au0 Si0 2.594591 1_554
Au0 Si1 2.625305 1_455
Au0 Yb0 3.004322 1_565
Au0 Yb1 3.107232 1_454
Au0 Yb1 3.107232 1_465
Au0 Yb0 3.130783 1_566
Au0 Yb0 3.130783 1_555
Au0 Au1 3.167741 1_555
Au0 Yb1 3.256110 1_565
Au1 Si1 2.594591 1_566
Au1 Si1 2.594591 1_555
Au1 Si0 2.625305 1_555
Au1 Yb0 3.004322 1_666
Au1 Yb1 3.107232 1_555
Au1 Yb1 3.107232 1_566
Au1 Yb0 3.130783 1_555
Au1 Yb0 3.130783 1_566
Au1 Yb1 3.256110 1_565
