# generated using pymatgen
data_Nb3IrSe8
_symmetry_space_group_name_H-M   'P 1'
_cell_length_a   6.98364594
_cell_length_b   6.98364594
_cell_length_c   14.45599011
_cell_angle_alpha   68.69201345
_cell_angle_beta   68.69201345
_cell_angle_gamma   60.32575344
_symmetry_Int_Tables_number   1
_chemical_formula_structural   Nb3IrSe8
_chemical_formula_sum   'Nb6 Ir2 Se16'
_cell_volume   555.84477193
_cell_formula_units_Z   2
loop_
 _symmetry_equiv_pos_site_id
 _symmetry_equiv_pos_as_xyz
  1  'x, y, z'
loop_
 _atom_site_type_symbol
 _atom_site_label
 _atom_site_symmetry_multiplicity
 _atom_site_fract_x
 _atom_site_fract_y
 _atom_site_fract_z
 _atom_site_occupancy
  Nb  Nb0  1  0.90753733  0.62705830  0.74870774  1
  Nb  Nb1  1  0.62705830  0.90753733  0.24870774  1
  Nb  Nb2  1  0.89485909  0.10514091  0.75000000  1
  Nb  Nb3  1  0.37294170  0.09246267  0.75129226  1
  Nb  Nb4  1  0.09246267  0.37294170  0.25129226  1
  Nb  Nb5  1  0.10514091  0.89485909  0.25000000  1
  Ir  Ir0  1  0.67129144  0.32870856  0.25000000  1
  Ir  Ir1  1  0.32870856  0.67129144  0.75000000  1
  Se  Se0  1  0.10151516  0.87144249  0.61279555  1
  Se  Se1  1  0.42409995  0.62712604  0.35519326  1
  Se  Se2  1  0.11837793  0.34474851  0.62396812  1
  Se  Se3  1  0.57590005  0.37287396  0.64480674  1
  Se  Se4  1  0.83655792  0.60646278  0.12798266  1
  Se  Se5  1  0.39353722  0.16344208  0.37201734  1
  Se  Se6  1  0.60646278  0.83655792  0.62798266  1
  Se  Se7  1  0.87144249  0.10151516  0.11279555  1
  Se  Se8  1  0.16344208  0.39353722  0.87201734  1
  Se  Se9  1  0.89848484  0.12855751  0.38720445  1
  Se  Se10  1  0.88162207  0.65525149  0.37603188  1
  Se  Se11  1  0.12855751  0.89848484  0.88720445  1
  Se  Se12  1  0.34474851  0.11837793  0.12396812  1
  Se  Se13  1  0.37287396  0.57590005  0.14480674  1
  Se  Se14  1  0.65525149  0.88162207  0.87603188  1
  Se  Se15  1  0.62712604  0.42409995  0.85519326  1
loop_
_geom_bond_atom_site_label_1
_geom_bond_atom_site_label_2
_geom_bond_distance
_geom_bond_site_symmetry_2
Nb0 Se8 2.519475 1_655
Nb0 Se0 2.554611 1_655
Nb0 Se14 2.563680 1_555
Nb0 Se2 2.662047 1_655
Nb0 Se15 2.680536 1_555
Nb0 Se6 2.715226 1_555
Nb1 Se5 2.519475 1_565
Nb1 Se7 2.554611 1_565
Nb1 Se10 2.563680 1_555
Nb1 Se12 2.662047 1_565
Nb1 Se1 2.680536 1_555
Nb1 Se4 2.715226 1_555
Nb2 Se0 2.573039 1_645
Nb2 Se11 2.573039 1_645
Nb2 Se14 2.619121 1_545
Nb2 Se2 2.619121 1_655
Nb2 Se3 2.653628 1_555
Nb2 Se15 2.653628 1_555
Nb3 Se6 2.519475 1_545
Nb3 Se11 2.554611 1_545
Nb3 Se2 2.563680 1_555
Nb3 Se14 2.662047 1_545
Nb3 Se3 2.680536 1_555
Nb3 Se8 2.715226 1_555
Nb4 Se4 2.519475 1_455
Nb4 Se9 2.554611 1_455
Nb4 Se12 2.563680 1_555
Nb4 Se10 2.662047 1_455
Nb4 Se13 2.680536 1_555
Nb4 Se5 2.715226 1_555
Nb5 Se7 2.573039 1_465
Nb5 Se9 2.573039 1_465
Nb5 Se10 2.619121 1_455
Nb5 Se12 2.619121 1_565
Nb5 Se1 2.653628 1_555
Nb5 Se13 2.653628 1_555
Ir0 Se5 2.540964 1_555
Ir0 Se4 2.540964 1_555
Ir0 Se13 2.543414 1_555
Ir0 Se1 2.543414 1_555
Ir0 Se7 2.545884 1_555
Ir0 Se9 2.545884 1_555
Ir1 Se8 2.540964 1_555
Ir1 Se6 2.540964 1_555
Ir1 Se3 2.543414 1_555
Ir1 Se15 2.543414 1_555
Ir1 Se0 2.545884 1_555
Ir1 Se11 2.545884 1_555
