# generated using pymatgen
data_CeY4Zn5
_symmetry_space_group_name_H-M   'P 1'
_cell_length_a   3.60349500
_cell_length_b   3.60349500
_cell_length_c   18.08652300
_cell_angle_alpha   90.00000000
_cell_angle_beta   90.00000000
_cell_angle_gamma   90.00000000
_symmetry_Int_Tables_number   1
_chemical_formula_structural   CeY4Zn5
_chemical_formula_sum   'Ce1 Y4 Zn5'
_cell_volume   234.85668827
_cell_formula_units_Z   1
loop_
 _symmetry_equiv_pos_site_id
 _symmetry_equiv_pos_as_xyz
  1  'x, y, z'
loop_
 _atom_site_type_symbol
 _atom_site_label
 _atom_site_symmetry_multiplicity
 _atom_site_fract_x
 _atom_site_fract_y
 _atom_site_fract_z
 _atom_site_occupancy
  Ce  Ce0  1  0.00000000  0.00000000  0.00000000  1
  Y  Y0  1  0.00000000  0.00000000  0.19996100  1
  Y  Y1  1  0.00000000  0.00000000  0.40034800  1
  Y  Y2  1  0.00000000  0.00000000  0.59965200  1
  Y  Y3  1  0.00000000  0.00000000  0.80003900  1
  Zn  Zn0  1  0.50000000  0.50000000  0.10162300  1
  Zn  Zn1  1  0.50000000  0.50000000  0.30023600  1
  Zn  Zn2  1  0.50000000  0.50000000  0.50000000  1
  Zn  Zn3  1  0.50000000  0.50000000  0.69976400  1
  Zn  Zn4  1  0.50000000  0.50000000  0.89837700  1
loop_
_geom_bond_atom_site_label_1
_geom_bond_atom_site_label_2
_geom_bond_distance
_geom_bond_site_symmetry_2
Ce0 Zn0 3.141792 1_445
Ce0 Zn0 3.141792 1_545
Ce0 Zn0 3.141792 1_555
Ce0 Zn0 3.141792 1_455
Ce0 Zn4 3.141792 1_544
Ce0 Zn4 3.141792 1_554
Ce0 Zn4 3.141792 1_454
Ce0 Zn4 3.141792 1_444
Y0 Zn0 3.107407 1_445
Y0 Zn0 3.107407 1_555
Y0 Zn0 3.107407 1_455
Y0 Zn0 3.107407 1_545
Y0 Zn1 3.127591 1_455
Y0 Zn1 3.127591 1_445
Y0 Zn1 3.127591 1_545
Y0 Zn1 3.127591 1_555
Y1 Zn2 3.121071 1_445
Y1 Zn2 3.121071 1_545
Y1 Zn2 3.121071 1_555
Y1 Zn2 3.121071 1_455
Y1 Zn1 3.125883 1_545
Y1 Zn1 3.125883 1_555
Y1 Zn1 3.125883 1_445
Y1 Zn1 3.125883 1_455
Y2 Zn2 3.121071 1_555
Y2 Zn2 3.121071 1_455
Y2 Zn2 3.121071 1_445
Y2 Zn2 3.121071 1_545
Y2 Zn3 3.125883 1_545
Y2 Zn3 3.125883 1_555
Y2 Zn3 3.125883 1_455
Y2 Zn3 3.125883 1_445
Y3 Zn4 3.107407 1_455
Y3 Zn4 3.107407 1_555
Y3 Zn4 3.107407 1_445
Y3 Zn4 3.107407 1_545
Y3 Zn3 3.127591 1_455
Y3 Zn3 3.127591 1_445
Y3 Zn3 3.127591 1_545
Y3 Zn3 3.127591 1_555
