# generated using pymatgen
data_HgAsO4
_symmetry_space_group_name_H-M   'P 1'
_cell_length_a   12.65531700
_cell_length_b   5.35878000
_cell_length_c   7.46402040
_cell_angle_alpha   56.59249185
_cell_angle_beta   90.00000000
_cell_angle_gamma   90.00000000
_symmetry_Int_Tables_number   1
_chemical_formula_structural   HgAsO4
_chemical_formula_sum   'Hg4 As4 O16'
_cell_volume   422.55338227
_cell_formula_units_Z   4
loop_
 _symmetry_equiv_pos_site_id
 _symmetry_equiv_pos_as_xyz
  1  'x, y, z'
loop_
 _atom_site_type_symbol
 _atom_site_label
 _atom_site_symmetry_multiplicity
 _atom_site_fract_x
 _atom_site_fract_y
 _atom_site_fract_z
 _atom_site_occupancy
  Hg  Hg0  1  0.99039200  0.18868400  0.74016800  1
  Hg  Hg1  1  0.50960800  0.18868400  0.24016800  1
  Hg  Hg2  1  0.00960800  0.81131600  0.25983200  1
  Hg  Hg3  1  0.49039200  0.81131600  0.75983200  1
  As  As0  1  0.85308000  0.40683700  0.01954100  1
  As  As1  1  0.64692000  0.40683700  0.51954100  1
  As  As2  1  0.14692000  0.59316300  0.98045900  1
  As  As3  1  0.35308000  0.59316300  0.48045900  1
  O  O0  1  0.90654900  0.70109800  0.01388600  1
  O  O1  1  0.59345100  0.70109800  0.51388600  1
  O  O2  1  0.09345100  0.29890200  0.98611400  1
  O  O3  1  0.40654900  0.29890200  0.48611400  1
  O  O4  1  0.88063900  0.45901000  0.76652500  1
  O  O5  1  0.61936100  0.45901000  0.26652500  1
  O  O6  1  0.11936100  0.54099000  0.23347500  1
  O  O7  1  0.38063900  0.54099000  0.73347500  1
  O  O8  1  0.88655400  0.07102700  0.25654700  1
  O  O9  1  0.61344600  0.07102700  0.75654700  1
  O  O10  1  0.11344600  0.92897300  0.74345300  1
  O  O11  1  0.38655400  0.92897300  0.24345300  1
  O  O12  1  0.71654300  0.41833500  0.99573900  1
  O  O13  1  0.78345700  0.41833500  0.49573900  1
  O  O14  1  0.28345700  0.58166500  0.00426100  1
  O  O15  1  0.21654300  0.58166500  0.50426100  1
loop_
_geom_bond_atom_site_label_1
_geom_bond_atom_site_label_2
_geom_bond_distance
_geom_bond_site_symmetry_2
Hg0 O10 2.079686 1_645
Hg0 O4 2.092898 1_555
Hg0 O0 2.499723 1_546
Hg0 O2 2.571736 1_655
Hg1 O11 2.079686 1_545
Hg1 O5 2.092898 1_555
Hg1 O1 2.499723 1_545
Hg1 O3 2.571736 1_555
Hg2 O8 2.079686 1_465
Hg2 O6 2.092898 1_555
Hg2 O2 2.499723 1_564
Hg2 O0 2.571736 1_455
Hg3 O9 2.079686 1_565
Hg3 O7 2.092898 1_555
Hg3 O3 2.499723 1_565
Hg3 O1 2.571736 1_555
As0 O0 1.694968 1_555
As0 O12 1.734650 1_554
As0 O8 1.744045 1_555
As0 O4 1.784623 1_554
As1 O1 1.694968 1_555
As1 O13 1.734650 1_555
As1 O9 1.744045 1_555
As1 O5 1.784623 1_555
As2 O2 1.694968 1_555
As2 O14 1.734650 1_556
As2 O10 1.744045 1_555
As2 O6 1.784623 1_556
As3 O3 1.694968 1_555
As3 O15 1.734650 1_555
As3 O11 1.744045 1_555
As3 O7 1.784623 1_555
