# generated using pymatgen
data_LiYbBi
_symmetry_space_group_name_H-M   'P 1'
_cell_length_a   4.76532900
_cell_length_b   7.77477600
_cell_length_c   8.46200700
_cell_angle_alpha   90.00000000
_cell_angle_beta   90.00000000
_cell_angle_gamma   90.00000000
_symmetry_Int_Tables_number   1
_chemical_formula_structural   LiYbBi
_chemical_formula_sum   'Li4 Yb4 Bi4'
_cell_volume   313.51199056
_cell_formula_units_Z   4
loop_
 _symmetry_equiv_pos_site_id
 _symmetry_equiv_pos_as_xyz
  1  'x, y, z'
loop_
 _atom_site_type_symbol
 _atom_site_label
 _atom_site_symmetry_multiplicity
 _atom_site_fract_x
 _atom_site_fract_y
 _atom_site_fract_z
 _atom_site_occupancy
  Li  Li0  1  0.25000000  0.15832900  0.92753800  1
  Li  Li1  1  0.25000000  0.65832900  0.57246200  1
  Li  Li2  1  0.75000000  0.84167100  0.07246200  1
  Li  Li3  1  0.75000000  0.34167100  0.42753800  1
  Yb  Yb0  1  0.25000000  0.00954400  0.29581900  1
  Yb  Yb1  1  0.25000000  0.50954400  0.20418100  1
  Yb  Yb2  1  0.75000000  0.99045600  0.70418100  1
  Yb  Yb3  1  0.75000000  0.49045600  0.79581900  1
  Bi  Bi0  1  0.25000000  0.26936200  0.59974300  1
  Bi  Bi1  1  0.25000000  0.76936200  0.90025700  1
  Bi  Bi2  1  0.75000000  0.73063800  0.40025700  1
  Bi  Bi3  1  0.75000000  0.23063800  0.09974300  1
loop_
_geom_bond_atom_site_label_1
_geom_bond_atom_site_label_2
_geom_bond_distance
_geom_bond_site_symmetry_2
Bi0 Li3 2.848960 1_555
Bi0 Li3 2.848960 1_455
Bi0 Li0 2.905030 1_555
Bi0 Li1 3.032930 1_555
Bi0 Yb0 3.270275 1_555
Bi0 Yb2 3.340690 1_545
Bi0 Yb2 3.340690 1_445
Bi0 Yb3 3.374142 1_455
Bi0 Yb3 3.374142 1_555
Bi1 Li2 2.848960 1_456
Bi1 Li2 2.848960 1_556
Bi1 Li1 2.905030 1_555
Bi1 Li0 3.032930 1_565
Bi1 Yb1 3.270275 1_556
Bi1 Yb3 3.340690 1_455
Bi1 Yb3 3.340690 1_555
Bi1 Yb2 3.374142 1_455
Bi1 Yb2 3.374142 1_555
Bi2 Li1 2.848960 1_555
Bi2 Li1 2.848960 1_655
Bi2 Li2 2.905030 1_555
Bi2 Li3 3.032930 1_555
Bi2 Yb2 3.270275 1_555
Bi2 Yb0 3.340690 1_565
Bi2 Yb0 3.340690 1_665
Bi2 Yb1 3.374142 1_655
Bi2 Yb1 3.374142 1_555
Bi3 Li0 2.848960 1_554
Bi3 Li0 2.848960 1_654
Bi3 Li3 2.905030 1_555
Bi3 Li2 3.032930 1_545
Bi3 Yb3 3.270275 1_554
Bi3 Yb1 3.340690 1_655
Bi3 Yb1 3.340690 1_555
Bi3 Yb0 3.374142 1_555
Bi3 Yb0 3.374142 1_655
