# generated using pymatgen
data_Pr10Ti9GaO34
_symmetry_space_group_name_H-M   'P 1'
_cell_length_a   5.53459600
_cell_length_b   7.79313300
_cell_length_c   32.07559898
_cell_angle_alpha   82.94303313
_cell_angle_beta   90.00000000
_cell_angle_gamma   90.00000000
_symmetry_Int_Tables_number   1
_chemical_formula_structural   Pr10Ti9GaO34
_chemical_formula_sum   'Pr20 Ti18 Ga2 O68'
_cell_volume   1372.99912818
_cell_formula_units_Z   2
loop_
 _symmetry_equiv_pos_site_id
 _symmetry_equiv_pos_as_xyz
  1  'x, y, z'
loop_
 _atom_site_type_symbol
 _atom_site_label
 _atom_site_symmetry_multiplicity
 _atom_site_fract_x
 _atom_site_fract_y
 _atom_site_fract_z
 _atom_site_occupancy
  Pr  Pr0  1  0.98454100  0.78722700  0.91773500  1
  Pr  Pr1  1  0.01545900  0.21277300  0.08226500  1
  Pr  Pr2  1  0.48454100  0.21277300  0.58226500  1
  Pr  Pr3  1  0.51545900  0.78722700  0.41773500  1
  Pr  Pr4  1  0.00312100  0.69997000  0.09552500  1
  Pr  Pr5  1  0.99687900  0.30003000  0.90447500  1
  Pr  Pr6  1  0.50312100  0.30003000  0.40447500  1
  Pr  Pr7  1  0.49687900  0.69997000  0.59552500  1
  Pr  Pr8  1  0.94948900  0.64434900  0.70139400  1
  Pr  Pr9  1  0.05051100  0.35565100  0.29860600  1
  Pr  Pr10  1  0.44948900  0.35565100  0.79860600  1
  Pr  Pr11  1  0.55051100  0.64434900  0.20139400  1
  Pr  Pr12  1  0.99206000  0.74212600  0.50625400  1
  Pr  Pr13  1  0.00794000  0.25787400  0.49374600  1
  Pr  Pr14  1  0.49206000  0.25787400  0.99374600  1
  Pr  Pr15  1  0.50794000  0.74212600  0.00625400  1
  Pr  Pr16  1  0.38608300  0.85716700  0.77938600  1
  Pr  Pr17  1  0.61391700  0.14283300  0.22061400  1
  Pr  Pr18  1  0.88608300  0.14283300  0.72061400  1
  Pr  Pr19  1  0.11391700  0.85716700  0.27938600  1
  Ti  Ti0  1  0.48579700  0.54546100  0.90638800  1
  Ti  Ti1  1  0.51420300  0.45453900  0.09361200  1
  Ti  Ti2  1  0.98579700  0.45453900  0.59361200  1
  Ti  Ti3  1  0.01420300  0.54546100  0.40638800  1
  Ti  Ti4  1  0.45380500  0.92110500  0.67593300  1
  Ti  Ti5  1  0.54619500  0.07889500  0.32406700  1
  Ti  Ti6  1  0.95380500  0.07889500  0.82406700  1
  Ti  Ti7  1  0.04619500  0.92110500  0.17593300  1
  Ti  Ti8  1  0.44516100  0.40640500  0.67856600  1
  Ti  Ti9  1  0.55483900  0.59359500  0.32143400  1
  Ti  Ti10  1  0.94516100  0.59359500  0.82143400  1
  Ti  Ti11  1  0.05483900  0.40640500  0.17856600  1
  Ti  Ti12  1  0.98386000  0.95197200  0.59270000  1
  Ti  Ti13  1  0.01614000  0.04802800  0.40730000  1
  Ti  Ti14  1  0.48386000  0.04802800  0.90730000  1
  Ti  Ti15  1  0.51614000  0.95197200  0.09270000  1
  Ti  Ti16  1  0.50000000  0.00000000  0.50000000  1
  Ti  Ti17  1  0.00000000  0.00000000  0.00000000  1
  Ga  Ga0  1  0.50000000  0.50000000  0.50000000  1
  Ga  Ga1  1  0.00000000  0.50000000  0.00000000  1
  O  O0  1  0.39898000  0.66323800  0.67103800  1
  O  O1  1  0.60102000  0.33676200  0.32896200  1
  O  O2  1  0.89898000  0.33676200  0.82896200  1
  O  O3  1  0.10102000  0.66323800  0.17103800  1
  O  O4  1  0.18641000  0.91708900  0.71062800  1
  O  O5  1  0.81359000  0.08291100  0.28937200  1
  O  O6  1  0.68641000  0.08291100  0.78937200  1
  O  O7  1  0.31359000  0.91708900  0.21062800  1
  O  O8  1  0.67254200  0.87030600  0.72053300  1
  O  O9  1  0.32745800  0.12969400  0.27946700  1
  O  O10  1  0.17254200  0.12969400  0.77946700  1
  O  O11  1  0.82745800  0.87030600  0.22053300  1
  O  O12  1  0.78701200  0.87227900  0.63698100  1
  O  O13  1  0.21298800  0.12772100  0.36301900  1
  O  O14  1  0.28701200  0.12772100  0.86301900  1
  O  O15  1  0.71298800  0.87227900  0.13698100  1
  O  O16  1  0.21779500  0.48650500  0.94870500  1
  O  O17  1  0.78220500  0.51349500  0.05129500  1
  O  O18  1  0.71779500  0.51349500  0.55129500  1
  O  O19  1  0.28220500  0.48650500  0.44870500  1
  O  O20  1  0.15628900  0.59556200  0.77418800  1
  O  O21  1  0.84371100  0.40443800  0.22581200  1
  O  O22  1  0.65628900  0.40443800  0.72581200  1
  O  O23  1  0.34371100  0.59556200  0.27418800  1
  O  O24  1  0.21698800  0.44047300  0.53608900  1
  O  O25  1  0.78301200  0.55952700  0.46391100  1
  O  O26  1  0.71698800  0.55952700  0.96391100  1
  O  O27  1  0.28301200  0.44047300  0.03608900  1
  O  O28  1  0.30216900  0.42066000  0.61934500  1
  O  O29  1  0.69783100  0.57934000  0.38065500  1
  O  O30  1  0.80216900  0.57934000  0.88065500  1
  O  O31  1  0.19783100  0.42066000  0.11934500  1
  O  O32  1  0.42261300  0.75303600  0.49678400  1
  O  O33  1  0.57738700  0.24696400  0.50321600  1
  O  O34  1  0.92261300  0.24696400  0.00321600  1
  O  O35  1  0.07738700  0.75303600  0.99678400  1
  O  O36  1  0.42909100  0.79347500  0.91096700  1
  O  O37  1  0.57090900  0.20652500  0.08903300  1
  O  O38  1  0.92909100  0.20652500  0.58903300  1
  O  O39  1  0.07090900  0.79347500  0.41096700  1
  O  O40  1  0.04465900  0.83379800  0.83070700  1
  O  O41  1  0.95534100  0.16620200  0.16929300  1
  O  O42  1  0.54465900  0.16620200  0.66929300  1
  O  O43  1  0.45534100  0.83379800  0.33070700  1
  O  O44  1  0.71512700  0.97807000  0.96425300  1
  O  O45  1  0.28487300  0.02193000  0.03574700  1
  O  O46  1  0.21512700  0.02193000  0.53574700  1
  O  O47  1  0.78487300  0.97807000  0.46425300  1
  O  O48  1  0.29349900  0.50902600  0.86182300  1
  O  O49  1  0.70650100  0.49097400  0.13817700  1
  O  O50  1  0.79349900  0.49097400  0.63817700  1
  O  O51  1  0.20650100  0.50902600  0.36182300  1
  O  O52  1  0.71229400  0.93796400  0.55050400  1
  O  O53  1  0.28770600  0.06203600  0.44949600  1
  O  O54  1  0.21229400  0.06203600  0.94949600  1
  O  O55  1  0.78770600  0.93796400  0.05050400  1
  O  O56  1  0.16436100  0.37081600  0.70484000  1
  O  O57  1  0.83563900  0.62918400  0.29516000  1
  O  O58  1  0.66436100  0.62918400  0.79516000  1
  O  O59  1  0.33563900  0.37081600  0.20484000  1
  O  O60  1  0.29919700  0.96216500  0.61913300  1
  O  O61  1  0.70080300  0.03783500  0.38086700  1
  O  O62  1  0.79919700  0.03783500  0.88086700  1
  O  O63  1  0.20080300  0.96216500  0.11913300  1
  O  O64  1  0.06895100  0.71004300  0.58091800  1
  O  O65  1  0.93104900  0.28995700  0.41908200  1
  O  O66  1  0.56895100  0.28995700  0.91908200  1
  O  O67  1  0.43104900  0.71004300  0.08091800  1
loop_
_geom_bond_atom_site_label_1
_geom_bond_atom_site_label_2
_geom_bond_distance
_geom_bond_site_symmetry_2
Ga0 O25 1.968937 1_555
Ga0 O24 1.968937 1_555
Ga0 O32 2.008150 1_555
Ga0 O33 2.008150 1_555
Ga0 O18 2.052719 1_555
Ga0 O19 2.052719 1_555
Ga1 O27 1.968937 1_555
Ga1 O26 1.968937 1_454
Ga1 O35 2.008150 1_554
Ga1 O34 2.008150 1_455
Ga1 O16 2.052719 1_554
Ga1 O17 2.052719 1_455
O0 Ti8 2.002753 1_555
O0 Ti4 2.057356 1_555
O0 Pr7 2.464112 1_555
O0 Pr8 2.668974 1_455
O1 Ti9 2.002753 1_555
O1 Ti5 2.057356 1_555
O1 Pr6 2.464112 1_555
O1 Pr9 2.668974 1_655
O2 Ti10 2.002753 1_555
O2 Ti6 2.057356 1_555
O2 Pr5 2.464112 1_555
O2 Pr10 2.668974 1_555
O3 Ti11 2.002753 1_555
O3 Ti7 2.057356 1_555
O3 Pr4 2.464112 1_555
O3 Pr11 2.668974 1_555
O4 Ti4 1.849610 1_555
O4 Pr16 2.459737 1_555
O4 Pr18 2.469595 1_465
O4 Pr8 2.545499 1_455
O5 Ti5 1.849610 1_555
O5 Pr17 2.459737 1_555
O5 Pr19 2.469595 1_645
O5 Pr9 2.545499 1_655
O6 Ti6 1.849610 1_555
O6 Pr18 2.459737 1_555
O6 Pr16 2.469595 1_545
O6 Pr10 2.545499 1_555
O7 Ti7 1.849610 1_555
O7 Pr19 2.459737 1_555
O7 Pr17 2.469595 1_565
O7 Pr11 2.545499 1_555
O8 Ti4 1.878751 1_555
O8 Pr18 2.430814 1_565
O8 Pr16 2.457677 1_555
O8 Pr8 2.468349 1_555
O9 Ti5 1.878751 1_555
O9 Pr19 2.430814 1_545
O9 Pr17 2.457677 1_555
O9 Pr9 2.468349 1_555
O10 Ti6 1.878751 1_455
O10 Pr16 2.430814 1_545
O10 Pr18 2.457677 1_455
O10 Pr10 2.468349 1_555
O11 Ti7 1.878751 1_655
O11 Pr17 2.430814 1_565
O11 Pr19 2.457677 1_655
O11 Pr11 2.468349 1_555
O12 Ti12 1.836651 1_555
O12 Ti4 2.285513 1_555
O12 Pr7 2.566825 1_555
O12 Pr8 2.707544 1_555
O13 Ti13 1.836651 1_555
O13 Ti5 2.285513 1_555
O13 Pr6 2.566825 1_555
O13 Pr9 2.707544 1_555
O14 Ti14 1.836651 1_555
O14 Ti6 2.285513 1_455
O14 Pr5 2.566825 1_455
O14 Pr10 2.707544 1_555
O15 Ti15 1.836651 1_555
O15 Ti7 2.285513 1_655
O15 Pr4 2.566825 1_655
O15 Pr11 2.707544 1_555
O16 Ti0 2.024937 1_555
O16 Pr5 2.475099 1_455
O16 Pr14 2.633156 1_555
O16 Pr0 2.752031 1_455
O17 Ti1 2.024937 1_555
O17 Pr4 2.475099 1_655
O17 Pr15 2.633156 1_555
O17 Pr1 2.752031 1_655
O18 Ti2 2.024937 1_555
O18 Pr7 2.475099 1_555
O18 Pr12 2.633156 1_555
O18 Pr2 2.752031 1_555
O19 Ti3 2.024937 1_555
O19 Pr6 2.475099 1_555
O19 Pr13 2.633156 1_555
O19 Pr3 2.752031 1_555
O20 Ti10 1.912200 1_455
O20 Pr16 2.425949 1_555
O20 Pr10 2.526370 1_555
O20 Pr8 2.586163 1_455
O21 Ti11 1.912200 1_655
O21 Pr17 2.425949 1_555
O21 Pr11 2.526370 1_555
O21 Pr9 2.586163 1_655
O22 Ti8 1.912200 1_555
O22 Pr18 2.425949 1_555
O22 Pr8 2.526370 1_555
O22 Pr10 2.586163 1_555
O23 Ti9 1.912200 1_555
O23 Pr19 2.425949 1_555
O23 Pr9 2.526370 1_555
O23 Pr11 2.586163 1_555
O24 Ti2 2.259047 1_455
O24 Pr13 2.383937 1_555
O24 Pr2 2.624792 1_555
O24 Pr12 2.727477 1_455
O25 Ti3 2.259047 1_655
O25 Pr12 2.383937 1_555
O25 Pr3 2.624792 1_555
O25 Pr13 2.727477 1_655
O26 Ti0 2.259047 1_555
O26 Pr15 2.383937 1_556
O26 Pr0 2.624792 1_555
O26 Pr14 2.727477 1_555
O27 Ti1 2.259047 1_555
O27 Pr14 2.383937 1_554
O27 Pr1 2.624792 1_555
O27 Pr15 2.727477 1_555
O28 Ti2 1.939953 1_455
O28 Ti8 2.048193 1_555
O28 Pr2 2.351922 1_555
O28 Pr7 2.464640 1_555
O29 Ti3 1.939953 1_655
O29 Ti9 2.048193 1_555
O29 Pr3 2.351922 1_555
O29 Pr6 2.464640 1_555
O30 Ti0 1.939953 1_555
O30 Ti10 2.048193 1_555
O30 Pr0 2.351922 1_555
O30 Pr5 2.464640 1_555
O31 Ti1 1.939953 1_555
O31 Ti11 2.048193 1_555
O31 Pr1 2.351922 1_555
O31 Pr4 2.464640 1_555
O32 Ti16 1.986717 1_565
O32 Pr12 2.402403 1_455
O32 Pr3 2.568664 1_555
O33 Ti16 1.986717 1_555
O33 Pr13 2.402403 1_655
O33 Pr2 2.568664 1_555
O34 Ti17 1.986717 1_655
O34 Pr14 2.402403 1_554
O34 Pr1 2.568664 1_655
O35 Ti17 1.986717 1_566
O35 Pr15 2.402403 1_556
O35 Pr0 2.568664 1_455
O36 Ti0 1.981303 1_555
O36 Ti14 1.995924 1_565
O36 Pr0 2.469917 1_455
O37 Ti1 1.981303 1_555
O37 Ti15 1.995924 1_545
O37 Pr1 2.469917 1_655
O38 Ti2 1.981303 1_555
O38 Ti12 1.995924 1_545
O38 Pr2 2.469917 1_555
O39 Ti3 1.981303 1_555
O39 Ti13 1.995924 1_565
O39 Pr3 2.469917 1_555
O40 Ti6 1.961283 1_465
O40 Ti10 2.008149 1_455
O40 Pr16 2.498014 1_555
O40 Pr0 2.790310 1_455
O41 Ti7 1.961283 1_645
O41 Ti11 2.008149 1_655
O41 Pr17 2.498014 1_555
O41 Pr1 2.790310 1_655
O42 Ti4 1.961283 1_545
O42 Ti8 2.008149 1_555
O42 Pr18 2.498014 1_555
O42 Pr2 2.790310 1_555
O43 Ti5 1.961283 1_565
O43 Ti9 2.008149 1_555
O43 Pr19 2.498014 1_555
O43 Pr3 2.790310 1_555
O44 Ti17 1.969241 1_666
O44 Ti14 2.242329 1_565
O44 Pr15 2.429441 1_556
O44 Pr0 2.684574 1_555
O44 Pr14 2.771423 1_565
O45 Ti17 1.969241 1_555
O45 Ti15 2.242329 1_545
O45 Pr14 2.429441 1_554
O45 Pr1 2.684574 1_555
O45 Pr15 2.771423 1_545
O46 Ti16 1.969241 1_555
O46 Ti12 2.242329 1_445
O46 Pr13 2.429441 1_555
O46 Pr2 2.684574 1_555
O46 Pr12 2.771423 1_445
O47 Ti16 1.969241 1_565
O47 Ti13 2.242329 1_665
O47 Pr12 2.429441 1_555
O47 Pr3 2.684574 1_555
O47 Pr13 2.771423 1_665
O48 Ti0 1.832047 1_555
O48 Ti10 2.370596 1_455
O48 Pr5 2.583025 1_455
O48 Pr10 2.623208 1_555
O49 Ti1 1.832047 1_555
O49 Ti11 2.370596 1_655
O49 Pr4 2.583025 1_655
O49 Pr11 2.623208 1_555
O50 Ti2 1.832047 1_555
O50 Ti8 2.370596 1_555
O50 Pr7 2.583025 1_555
O50 Pr8 2.623208 1_555
O51 Ti3 1.832047 1_555
O51 Ti9 2.370596 1_555
O51 Pr6 2.583025 1_555
O51 Pr9 2.623208 1_555
O52 Ti16 2.011480 1_565
O52 Ti12 2.034481 1_555
O52 Pr7 2.507719 1_555
O52 Pr12 2.696957 1_555
O52 Pr2 2.783776 1_565
O53 Ti16 2.011480 1_555
O53 Ti13 2.034481 1_555
O53 Pr6 2.507719 1_555
O53 Pr13 2.696957 1_555
O53 Pr3 2.783776 1_545
O54 Ti17 2.011480 1_556
O54 Ti14 2.034481 1_555
O54 Pr5 2.507719 1_455
O54 Pr14 2.696957 1_555
O54 Pr0 2.783776 1_445
O55 Ti17 2.011480 1_665
O55 Ti15 2.034481 1_555
O55 Pr4 2.507719 1_655
O55 Pr15 2.696957 1_555
O55 Pr1 2.783776 1_665
O56 Ti8 1.773414 1_555
O56 Pr18 2.358785 1_455
O56 Pr8 2.431593 1_455
O57 Ti9 1.773414 1_555
O57 Pr19 2.358785 1_655
O57 Pr9 2.431593 1_655
O58 Ti10 1.773414 1_555
O58 Pr16 2.358785 1_555
O58 Pr10 2.431593 1_555
O59 Ti11 1.773414 1_555
O59 Pr17 2.358785 1_555
O59 Pr11 2.431593 1_555
O60 Ti12 1.946191 1_455
O60 Ti4 2.002662 1_555
O60 Pr2 2.386951 1_565
O60 Pr7 2.515113 1_555
O61 Ti13 1.946191 1_655
O61 Ti5 2.002662 1_555
O61 Pr3 2.386951 1_545
O61 Pr6 2.515113 1_555
O62 Ti14 1.946191 1_555
O62 Ti6 2.002662 1_555
O62 Pr0 2.386951 1_545
O62 Pr5 2.515113 1_555
O63 Ti15 1.946191 1_555
O63 Ti7 2.002662 1_555
O63 Pr1 2.386951 1_565
O63 Pr4 2.515113 1_555
O64 Ti12 2.023452 1_455
O64 Ti2 2.035477 1_455
O64 Pr7 2.413711 1_555
O64 Pr12 2.414953 1_455
O65 Ti13 2.023452 1_655
O65 Ti3 2.035477 1_655
O65 Pr6 2.413711 1_555
O65 Pr13 2.414953 1_655
O66 Ti14 2.023452 1_555
O66 Ti0 2.035477 1_555
O66 Pr5 2.413711 1_555
O66 Pr14 2.414953 1_555
O67 Ti15 2.023452 1_555
O67 Ti1 2.035477 1_555
O67 Pr4 2.413711 1_555
O67 Pr15 2.414953 1_555
