# generated using pymatgen
data_Dy(NO5)3
_symmetry_space_group_name_H-M   'P 1'
_cell_length_a   7.62399400
_cell_length_b   8.67771063
_cell_length_c   12.41129482
_cell_angle_alpha   109.77742546
_cell_angle_beta   92.30879905
_cell_angle_gamma   112.22197309
_symmetry_Int_Tables_number   1
_chemical_formula_structural   Dy(NO5)3
_chemical_formula_sum   'Dy2 N6 O30'
_cell_volume   701.82273878
_cell_formula_units_Z   2
loop_
 _symmetry_equiv_pos_site_id
 _symmetry_equiv_pos_as_xyz
  1  'x, y, z'
loop_
 _atom_site_type_symbol
 _atom_site_label
 _atom_site_symmetry_multiplicity
 _atom_site_fract_x
 _atom_site_fract_y
 _atom_site_fract_z
 _atom_site_occupancy
  Dy  Dy0  1  0.42926400  0.64667800  0.71735900  1
  Dy  Dy1  1  0.57073600  0.35332200  0.28264100  1
  N  N0  1  0.24246500  0.66605300  0.48974700  1
  N  N1  1  0.75753500  0.33394700  0.51025300  1
  N  N2  1  0.41874900  0.07694500  0.18587200  1
  N  N3  1  0.58125100  0.92305500  0.81412800  1
  N  N4  1  0.23016700  0.32144500  0.83112500  1
  N  N5  1  0.76983300  0.67855500  0.16887500  1
  O  O0  1  0.78423400  0.87636500  0.47698900  1
  O  O1  1  0.21576600  0.12363500  0.52301100  1
  O  O2  1  0.54921800  0.94312600  0.70155100  1
  O  O3  1  0.45078200  0.05687400  0.29844900  1
  O  O4  1  0.94109700  0.69675500  0.71550400  1
  O  O5  1  0.05890300  0.30324500  0.28449600  1
  O  O6  1  0.38109300  0.34881000  0.79069400  1
  O  O7  1  0.61890700  0.65119000  0.20930600  1
  O  O8  1  0.20092200  0.72426500  0.55966000  1
  O  O9  1  0.79907800  0.27573500  0.44034000  1
  O  O10  1  0.19584000  0.46503900  0.82120000  1
  O  O11  1  0.80416000  0.53496100  0.17880000  1
  O  O12  1  0.37824200  0.95879900  0.14471500  1
  O  O13  1  0.62175800  0.04120100  0.85528500  1
  O  O14  1  0.78207200  0.37345000  0.96363100  1
  O  O15  1  0.21792800  0.62655000  0.03636900  1
  O  O16  1  0.56058500  0.76223800  0.87687000  1
  O  O17  1  0.43941500  0.23776200  0.12313000  1
  O  O18  1  0.39575400  0.61592600  0.53184100  1
  O  O19  1  0.60424600  0.38407400  0.46815900  1
  O  O20  1  0.14308700  0.65845700  0.39445900  1
  O  O21  1  0.85691300  0.34154300  0.60554100  1
  O  O22  1  0.19164000  0.14130100  0.61046900  1
  O  O23  1  0.80836000  0.85869900  0.38953100  1
  O  O24  1  0.12874400  0.17926000  0.87314600  1
  O  O25  1  0.87125600  0.82074000  0.12685400  1
  O  O26  1  0.80207800  0.68122400  0.75281500  1
  O  O27  1  0.19792200  0.31877600  0.24718500  1
  O  O28  1  0.13748900  0.74002900  0.98936700  1
  O  O29  1  0.86251100  0.25997100  0.01063300  1
loop_
_geom_bond_atom_site_label_1
_geom_bond_atom_site_label_2
_geom_bond_distance
_geom_bond_site_symmetry_2
Dy0 O16 1.914350 1_555
Dy0 N3 2.091322 1_555
Dy0 O18 2.218850 1_555
Dy0 O2 2.463550 1_555
Dy0 O10 2.598136 1_555
Dy0 O26 2.743686 1_555
Dy0 O6 2.923283 1_555
Dy0 O8 2.969612 1_555
Dy1 O17 1.914350 1_555
Dy1 N2 2.091322 1_555
Dy1 O19 2.218850 1_555
Dy1 O3 2.463550 1_555
Dy1 O11 2.598136 1_555
Dy1 O27 2.743686 1_555
Dy1 O7 2.923283 1_555
Dy1 O9 2.969612 1_555
N0 O8 0.977211 1_555
N0 O20 1.346967 1_555
N0 O18 1.522194 1_555
N1 O9 0.977211 1_555
N1 O21 1.346967 1_555
N1 O19 1.522194 1_555
N2 O12 0.894878 1_545
N2 O3 1.487141 1_555
N2 O17 1.776987 1_555
N3 O13 0.894878 1_565
N3 O2 1.487141 1_555
N3 O16 1.776987 1_555
N4 O6 1.246071 1_555
N4 O10 1.408648 1_555
N4 O24 1.462392 1_555
N5 O7 1.246071 1_555
N5 O11 1.408648 1_555
N5 O25 1.462392 1_555
O0 O23 1.077208 1_555
O1 O22 1.077208 1_555
O14 O29 1.582032 1_556
O15 O28 1.582032 1_554
O26 O4 1.153120 1_555
O27 O5 1.153120 1_555
