# generated using pymatgen
data_V2PH8(NO4)2
_symmetry_space_group_name_H-M   'P 1'
_cell_length_a   5.75596023
_cell_length_b   8.73117000
_cell_length_c   8.72064709
_cell_angle_alpha   89.99582313
_cell_angle_beta   90.39959164
_cell_angle_gamma   89.70300117
_symmetry_Int_Tables_number   1
_chemical_formula_structural   V2PH8(NO4)2
_chemical_formula_sum   'V4 P2 H16 N4 O16'
_cell_volume   438.25062182
_cell_formula_units_Z   2
loop_
 _symmetry_equiv_pos_site_id
 _symmetry_equiv_pos_as_xyz
  1  'x, y, z'
loop_
 _atom_site_type_symbol
 _atom_site_label
 _atom_site_symmetry_multiplicity
 _atom_site_fract_x
 _atom_site_fract_y
 _atom_site_fract_z
 _atom_site_occupancy
  V  V0  1  0.00478100  0.00848900  0.99586800  1
  V  V1  1  0.00845400  0.49062000  0.49542100  1
  V  V2  1  0.00949600  0.87114300  0.37152300  1
  V  V3  1  0.00950900  0.62820800  0.87076100  1
  P  P0  1  0.01672100  0.13519800  0.63587600  1
  P  P1  1  0.01666600  0.36336000  0.13456100  1
  H  H0  1  0.56704300  0.56683900  0.21691800  1
  H  H1  1  0.55859600  0.42836500  0.78188100  1
  H  H2  1  0.56215300  0.78487700  0.56890300  1
  H  H3  1  0.56321100  0.21956500  0.43055700  1
  H  H4  1  0.43732300  0.73996100  0.24587800  1
  H  H5  1  0.42767700  0.25562500  0.75493000  1
  H  H6  1  0.43766100  0.75726300  0.74192700  1
  H  H7  1  0.42708700  0.24794800  0.25730600  1
  H  H8  1  0.43253800  0.65387500  0.06794900  1
  H  H9  1  0.42884900  0.34267300  0.93276300  1
  H  H10  1  0.42758100  0.93525700  0.65527000  1
  H  H11  1  0.43346000  0.07049300  0.34391100  1
  H  H12  1  0.67963500  0.72769800  0.14086200  1
  H  H13  1  0.67671500  0.26937600  0.85773400  1
  H  H14  1  0.67896100  0.86281000  0.72833600  1
  H  H15  1  0.67711300  0.14577600  0.26956900  1
  N  N0  1  0.52873700  0.67097300  0.16783700  1
  N  N1  1  0.52244100  0.32491000  0.83224300  1
  N  N2  1  0.52604300  0.83548700  0.67244400  1
  N  N3  1  0.52494800  0.17094000  0.32622000  1
  O  O0  1  0.30028400  0.86788900  0.36347900  1
  O  O1  1  0.28024300  0.12763500  0.63704700  1
  O  O2  1  0.30036500  0.63581600  0.86876200  1
  O  O3  1  0.28016100  0.36291300  0.12936900  1
  O  O4  1  0.29207200  0.49600100  0.49857100  1
  O  O5  1  0.91753500  0.00934100  0.51874300  1
  O  O6  1  0.91763600  0.48916300  0.01658300  1
  O  O7  1  0.89747200  0.69357700  0.41750300  1
  O  O8  1  0.91052500  0.28821200  0.58036600  1
  O  O9  1  0.89631300  0.57046700  0.69649300  1
  O  O10  1  0.91105700  0.40797500  0.29082900  1
  O  O11  1  0.28774100  0.00293200  0.99873700  1
  O  O12  1  0.89203200  0.92642800  0.19596800  1
  O  O13  1  0.90462600  0.09575000  0.79238200  1
  O  O14  1  0.89350200  0.80754500  0.91404600  1
  O  O15  1  0.90343300  0.21062700  0.08367500  1
loop_
_geom_bond_atom_site_label_1
_geom_bond_atom_site_label_2
_geom_bond_distance
_geom_bond_site_symmetry_2
H0 N0 1.027146 1_555
H1 N1 1.027269 1_555
H2 N2 1.027373 1_555
H3 N3 1.027071 1_555
H4 N0 1.051010 1_555
H4 O0 1.709935 1_555
H5 N1 1.056597 1_555
H6 N2 1.048938 1_555
H7 N3 1.059167 1_555
H7 O3 1.716225 1_555
H8 N0 1.040111 1_555
H9 N1 1.043279 1_555
H10 N2 1.046966 1_555
H11 N3 1.037389 1_555
H12 N0 1.030694 1_555
H13 N1 1.032388 1_555
H14 N2 1.032196 1_555
H15 N3 1.031272 1_555
O0 V2 1.675816 1_555
O1 P0 1.517880 1_555
O2 V3 1.676029 1_555
O3 P1 1.517643 1_555
O4 V1 1.633453 1_555
O5 P0 1.604811 1_655
O5 V2 1.840517 1_645
O6 P1 1.604711 1_655
O6 V3 1.840229 1_654
O7 V2 1.730332 1_655
O7 V1 1.997997 1_655
O8 P0 1.542777 1_655
O8 V1 2.001410 1_655
O9 V3 1.725679 1_655
O9 V1 1.997162 1_655
O10 P1 1.545169 1_655
O10 V1 2.002170 1_655
O11 V0 1.629195 1_555
O12 V2 1.736671 1_655
O12 V0 1.999998 1_664
O13 P0 1.553133 1_655
O13 V0 2.010660 1_655
O14 V3 1.741526 1_655
O14 V0 2.000762 1_665
O15 P1 1.550840 1_655
O15 V0 2.009299 1_654
