# generated using pymatgen
data_Mn5FeN4
_symmetry_space_group_name_H-M   'P 1'
_cell_length_a   6.62947900
_cell_length_b   6.08318500
_cell_length_c   4.69964600
_cell_angle_alpha   90.00000000
_cell_angle_beta   90.00000000
_cell_angle_gamma   90.00000000
_symmetry_Int_Tables_number   1
_chemical_formula_structural   Mn5FeN4
_chemical_formula_sum   'Mn10 Fe2 N8'
_cell_volume   189.52895565
_cell_formula_units_Z   2
loop_
 _symmetry_equiv_pos_site_id
 _symmetry_equiv_pos_as_xyz
  1  'x, y, z'
loop_
 _atom_site_type_symbol
 _atom_site_label
 _atom_site_symmetry_multiplicity
 _atom_site_fract_x
 _atom_site_fract_y
 _atom_site_fract_z
 _atom_site_occupancy
  Mn  Mn0  1  0.55657700  0.52325000  0.25003900  1
  Mn  Mn1  1  0.94342300  0.52325000  0.25003900  1
  Mn  Mn2  1  0.55657700  0.97675000  0.25003900  1
  Mn  Mn3  1  0.94342300  0.97675000  0.25003900  1
  Mn  Mn4  1  0.44342300  0.47675000  0.74996100  1
  Mn  Mn5  1  0.05657700  0.47675000  0.74996100  1
  Mn  Mn6  1  0.44342300  0.02325000  0.74996100  1
  Mn  Mn7  1  0.05657700  0.02325000  0.74996100  1
  Mn  Mn8  1  0.75000000  0.75000000  0.78290600  1
  Mn  Mn9  1  0.25000000  0.25000000  0.21709400  1
  Fe  Fe0  1  0.75000000  0.25000000  0.64872000  1
  Fe  Fe1  1  0.25000000  0.75000000  0.35128000  1
  N  N0  1  0.75000000  0.03273400  0.94960300  1
  N  N1  1  0.75000000  0.46726600  0.94960300  1
  N  N2  1  0.25000000  0.96726600  0.05039700  1
  N  N3  1  0.25000000  0.53273400  0.05039700  1
  N  N4  1  0.50233800  0.75000000  0.54131500  1
  N  N5  1  0.99766200  0.75000000  0.54131500  1
  N  N6  1  0.49766200  0.25000000  0.45868500  1
  N  N7  1  0.00233800  0.25000000  0.45868500  1
loop_
_geom_bond_atom_site_label_1
_geom_bond_atom_site_label_2
_geom_bond_distance
_geom_bond_site_symmetry_2
Mn0 N1 1.937483 1_554
Mn0 N6 1.969026 1_555
Mn0 N4 1.976311 1_555
Mn0 N3 2.239302 1_555
Mn1 N1 1.937483 1_554
Mn1 N7 1.969026 1_655
Mn1 N5 1.976311 1_555
Mn1 N3 2.239302 1_655
Mn2 N0 1.937483 1_564
Mn2 N6 1.969026 1_565
Mn2 N4 1.976311 1_555
Mn2 N2 2.239302 1_555
Mn3 N0 1.937483 1_564
Mn3 N7 1.969026 1_665
Mn3 N5 1.976311 1_555
Mn3 N2 2.239302 1_655
Mn4 N3 1.937483 1_556
Mn4 N4 1.969026 1_555
Mn4 N6 1.976311 1_555
Mn4 N1 2.239302 1_555
Mn5 N3 1.937483 1_556
Mn5 N5 1.969026 1_455
Mn5 N7 1.976311 1_555
Mn5 N1 2.239302 1_455
Mn6 N2 1.937483 1_546
Mn6 N4 1.969026 1_545
Mn6 N6 1.976311 1_555
Mn6 N0 2.239302 1_555
Mn7 N2 1.937483 1_546
Mn7 N5 1.969026 1_445
Mn7 N7 1.976311 1_555
Mn7 N0 2.239302 1_455
Mn8 N0 1.889941 1_565
Mn8 N1 1.889941 1_555
Mn8 N5 1.996210 1_555
Mn8 N4 1.996210 1_555
Mn9 N3 1.889941 1_555
Mn9 N2 1.889941 1_545
Mn9 N7 1.996210 1_555
Mn9 N6 1.996210 1_555
Fe0 N7 1.896343 1_655
Fe0 N6 1.896343 1_555
Fe0 N1 1.935544 1_555
Fe0 N0 1.935544 1_555
Fe1 N4 1.896343 1_555
Fe1 N5 1.896343 1_455
Fe1 N2 1.935544 1_555
Fe1 N3 1.935544 1_555
