# generated using pymatgen
data_Sr2YCr(CuO4)2
_symmetry_space_group_name_H-M   'P 1'
_cell_length_a   3.86657173
_cell_length_b   3.86657173
_cell_length_c   10.97215100
_cell_angle_alpha   90.00000000
_cell_angle_beta   90.00000000
_cell_angle_gamma   90.48020725
_symmetry_Int_Tables_number   1
_chemical_formula_structural   Sr2YCr(CuO4)2
_chemical_formula_sum   'Sr2 Y1 Cr1 Cu2 O8'
_cell_volume   164.03203217
_cell_formula_units_Z   1
loop_
 _symmetry_equiv_pos_site_id
 _symmetry_equiv_pos_as_xyz
  1  'x, y, z'
loop_
 _atom_site_type_symbol
 _atom_site_label
 _atom_site_symmetry_multiplicity
 _atom_site_fract_x
 _atom_site_fract_y
 _atom_site_fract_z
 _atom_site_occupancy
  Sr  Sr0  1  0.51727735  0.48272265  0.67807036  1
  Sr  Sr1  1  0.51727735  0.48272265  0.32192964  1
  Y  Y0  1  0.50151327  0.49848673  0.00000000  1
  Cr  Cr0  1  0.04515642  0.95484358  0.50000000  1
  Cu  Cu0  1  0.00301547  0.99698453  0.85531449  1
  Cu  Cu1  1  0.00301547  0.99698453  0.14468551  1
  O  O0  1  0.00233559  0.49780682  0.86963261  1
  O  O1  1  0.50219318  0.99766441  0.86963261  1
  O  O2  1  0.00233559  0.49780682  0.13036739  1
  O  O3  1  0.50219318  0.99766441  0.13036739  1
  O  O4  1  0.98250946  0.01749054  0.65842664  1
  O  O5  1  0.98250946  0.01749054  0.34157336  1
  O  O6  1  0.01567258  0.50195436  0.50000000  1
  O  O7  1  0.49804564  0.98432742  0.50000000  1
loop_
_geom_bond_atom_site_label_1
_geom_bond_atom_site_label_2
_geom_bond_distance
_geom_bond_site_symmetry_2
Cr0 O6 1.753882 1_555
Cr0 O7 1.753882 1_555
Cr0 O4 1.771992 1_465
Cr0 O5 1.771992 1_465
Cr0 O6 2.119466 1_565
Cr0 O7 2.119466 1_455
Cu0 O0 1.936469 1_555
Cu0 O1 1.936469 1_555
Cu0 O1 1.942851 1_455
Cu0 O0 1.942851 1_565
Cu0 O4 2.163216 1_465
Cu1 O2 1.936469 1_555
Cu1 O3 1.936469 1_555
Cu1 O3 1.942851 1_455
Cu1 O2 1.942851 1_565
Cu1 O5 2.163216 1_465
O0 Y0 2.402354 1_556
O0 Y0 2.407502 1_456
O0 Sr0 2.817248 1_455
O0 Sr0 2.896107 1_555
O1 Y0 2.402354 1_556
O1 Y0 2.407502 1_566
O1 Sr0 2.817248 1_565
O1 Sr0 2.896107 1_555
O2 Y0 2.402354 1_555
O2 Y0 2.407502 1_455
O2 Sr1 2.817248 1_455
O2 Sr1 2.896107 1_555
O3 Y0 2.402354 1_555
O3 Y0 2.407502 1_565
O3 Sr1 2.817248 1_565
O3 Sr1 2.896107 1_555
O4 Sr0 2.563677 1_555
O4 Sr0 2.737780 1_655
O4 Sr0 2.737780 1_545
O4 Sr0 2.944323 1_645
O5 Sr1 2.563677 1_555
O5 Sr1 2.737780 1_545
O5 Sr1 2.737780 1_655
O5 Sr1 2.944323 1_645
O6 Sr0 2.744843 1_455
O6 Sr1 2.744843 1_455
O6 Sr1 2.754444 1_555
O6 Sr0 2.754444 1_555
O7 Sr0 2.744843 1_565
O7 Sr1 2.744843 1_565
O7 Sr1 2.754444 1_555
O7 Sr0 2.754444 1_555
