# generated using pymatgen
data_K3Zr6BeCl15
_symmetry_space_group_name_H-M   'P 1'
_cell_length_a   10.13996128
_cell_length_b   10.13996128
_cell_length_c   14.33320818
_cell_angle_alpha   87.73780770
_cell_angle_beta   87.73780770
_cell_angle_gamma   69.55381324
_symmetry_Int_Tables_number   1
_chemical_formula_structural   K3Zr6BeCl15
_chemical_formula_sum   'K6 Zr12 Be2 Cl30'
_cell_volume   1379.28449685
_cell_formula_units_Z   2
loop_
 _symmetry_equiv_pos_site_id
 _symmetry_equiv_pos_as_xyz
  1  'x, y, z'
loop_
 _atom_site_type_symbol
 _atom_site_label
 _atom_site_symmetry_multiplicity
 _atom_site_fract_x
 _atom_site_fract_y
 _atom_site_fract_z
 _atom_site_occupancy
  K  K0  1  0.93807800  0.06192200  0.25000000  1
  K  K1  1  0.06192200  0.93807800  0.75000000  1
  K  K2  1  0.64105900  0.13211300  0.56798000  1
  K  K3  1  0.35894100  0.86788700  0.43202000  1
  K  K4  1  0.86788700  0.35894100  0.93202000  1
  K  K5  1  0.13211300  0.64105900  0.06798000  1
  Zr  Zr0  1  0.54711100  0.84822800  0.13407300  1
  Zr  Zr1  1  0.45288900  0.15177200  0.86592700  1
  Zr  Zr2  1  0.15177200  0.45288900  0.36592700  1
  Zr  Zr3  1  0.84822800  0.54711100  0.63407300  1
  Zr  Zr4  1  0.27009900  0.99879000  0.00130900  1
  Zr  Zr5  1  0.72990100  0.00121000  0.99869100  1
  Zr  Zr6  1  0.00121000  0.72990100  0.49869100  1
  Zr  Zr7  1  0.99879000  0.27009900  0.50130900  1
  Zr  Zr8  1  0.42500200  0.19765800  0.09717800  1
  Zr  Zr9  1  0.57499800  0.80234200  0.90282200  1
  Zr  Zr10  1  0.80234200  0.57499800  0.40282200  1
  Zr  Zr11  1  0.19765800  0.42500200  0.59717800  1
  Be  Be0  1  0.50000000  0.00000000  0.00000000  1
  Be  Be1  1  0.00000000  0.50000000  0.50000000  1
  Cl  Cl0  1  0.29074200  0.84284200  0.15047700  1
  Cl  Cl1  1  0.70925800  0.15715800  0.84952300  1
  Cl  Cl2  1  0.15715800  0.70925800  0.34952300  1
  Cl  Cl3  1  0.84284200  0.29074200  0.65047700  1
  Cl  Cl4  1  0.57826400  0.67135300  0.28924000  1
  Cl  Cl5  1  0.42173600  0.32864700  0.71076000  1
  Cl  Cl6  1  0.32864700  0.42173600  0.21076000  1
  Cl  Cl7  1  0.67135300  0.57826400  0.78924000  1
  Cl  Cl8  1  0.67519600  0.22033400  0.10199000  1
  Cl  Cl9  1  0.32480400  0.77966600  0.89801000  1
  Cl  Cl10  1  0.77966600  0.32480400  0.39801000  1
  Cl  Cl11  1  0.22033400  0.67519600  0.60199000  1
  Cl  Cl12  1  0.48173000  0.04851100  0.25141100  1
  Cl  Cl13  1  0.51827000  0.95148900  0.74858900  1
  Cl  Cl14  1  0.95148900  0.51827000  0.24858900  1
  Cl  Cl15  1  0.04851100  0.48173000  0.75141100  1
  Cl  Cl16  1  0.61877500  0.63223000  0.54040100  1
  Cl  Cl17  1  0.38122500  0.36777000  0.45959900  1
  Cl  Cl18  1  0.36777000  0.38122500  0.95959900  1
  Cl  Cl19  1  0.63223000  0.61877500  0.04040100  1
  Cl  Cl20  1  0.80638600  0.84172700  0.14572700  1
  Cl  Cl21  1  0.19361400  0.15827300  0.85427300  1
  Cl  Cl22  1  0.15827300  0.19361400  0.35427300  1
  Cl  Cl23  1  0.84172700  0.80638600  0.64572700  1
  Cl  Cl24  1  0.78084400  0.83981300  0.39923200  1
  Cl  Cl25  1  0.21915600  0.16018700  0.60076800  1
  Cl  Cl26  1  0.16018700  0.21915600  0.10076800  1
  Cl  Cl27  1  0.83981300  0.78084400  0.89923200  1
  Cl  Cl28  1  0.00000000  0.00000000  0.00000000  1
  Cl  Cl29  1  0.00000000  0.00000000  0.50000000  1
loop_
_geom_bond_atom_site_label_1
_geom_bond_atom_site_label_2
_geom_bond_distance
_geom_bond_site_symmetry_2
Be0 Zr5 2.334834 1_554
Be0 Zr4 2.334834 1_545
Be0 Zr9 2.367974 1_544
Be0 Zr8 2.367974 1_555
Be0 Zr1 2.369576 1_554
Be0 Zr0 2.369576 1_545
Be1 Zr7 2.334834 1_455
Be1 Zr6 2.334834 1_555
Be1 Zr11 2.367974 1_555
Be1 Zr10 2.367974 1_455
Be1 Zr3 2.369576 1_455
Be1 Zr2 2.369576 1_555
Cl0 Zr4 2.579302 1_555
Cl0 Zr0 2.620298 1_555
Cl0 K5 3.288209 1_555
Cl0 K0 3.748987 1_465
Cl1 Zr5 2.579302 1_555
Cl1 Zr1 2.620298 1_555
Cl1 K4 3.288209 1_555
Cl1 K1 3.748987 1_645
Cl2 Zr6 2.579302 1_555
Cl2 Zr2 2.620298 1_555
Cl2 K3 3.288209 1_555
Cl2 K0 3.748987 1_465
Cl3 Zr7 2.579302 1_555
Cl3 Zr3 2.620298 1_555
Cl3 K2 3.288209 1_555
Cl3 K1 3.748987 1_645
Cl4 Zr10 2.717178 1_555
Cl4 Zr0 2.758179 1_555
Cl4 K3 3.157800 1_555
Cl5 Zr11 2.717178 1_555
Cl5 Zr1 2.758179 1_555
Cl5 K2 3.157800 1_555
Cl6 Zr8 2.717178 1_555
Cl6 Zr2 2.758179 1_555
Cl6 K5 3.157800 1_555
Cl7 Zr9 2.717178 1_555
Cl7 Zr3 2.758179 1_555
Cl7 K4 3.157800 1_555
Cl8 Zr5 2.602028 1_554
Cl8 Zr8 2.629904 1_555
Cl8 K0 3.372269 1_555
Cl8 K4 3.605639 1_554
Cl9 Zr4 2.602028 1_556
Cl9 Zr9 2.629904 1_555
Cl9 K1 3.372269 1_555
Cl9 K5 3.605639 1_556
Cl10 Zr7 2.602028 1_555
Cl10 Zr10 2.629904 1_555
Cl10 K0 3.372269 1_555
Cl10 K2 3.605639 1_555
Cl11 Zr6 2.602028 1_555
Cl11 Zr11 2.629904 1_555
Cl11 K1 3.372269 1_555
Cl11 K3 3.605639 1_555
Cl12 Zr0 2.575545 1_545
Cl12 Zr8 2.594942 1_555
Cl12 K3 3.545495 1_545
Cl13 Zr1 2.575545 1_565
Cl13 Zr9 2.594942 1_555
Cl13 K2 3.545495 1_565
Cl14 Zr2 2.575545 1_655
Cl14 Zr10 2.594942 1_555
Cl14 K5 3.545495 1_655
Cl15 Zr3 2.575545 1_455
Cl15 Zr11 2.594942 1_555
Cl15 K4 3.545495 1_455
Cl16 Zr3 2.590943 1_555
Cl16 Zr10 2.595365 1_555
Cl16 K3 3.270525 1_555
Cl17 Zr2 2.590943 1_555
Cl17 Zr11 2.595365 1_555
Cl17 K2 3.270525 1_555
Cl18 Zr1 2.590943 1_555
Cl18 Zr8 2.595365 1_556
Cl18 K5 3.270525 1_556
Cl19 Zr0 2.590943 1_555
Cl19 Zr9 2.595365 1_554
Cl19 K4 3.270525 1_554
Cl20 Zr5 2.577197 1_564
Cl20 Zr0 2.618551 1_555
Cl20 K5 3.388813 1_655
Cl20 K0 3.392080 1_565
Cl21 Zr4 2.577197 1_546
Cl21 Zr1 2.618551 1_555
Cl21 K4 3.388813 1_455
Cl21 K1 3.392080 1_545
Cl22 Zr7 2.577197 1_455
Cl22 Zr2 2.618551 1_555
Cl22 K3 3.388813 1_545
Cl22 K0 3.392080 1_455
Cl23 Zr6 2.577197 1_655
Cl23 Zr3 2.618551 1_555
Cl23 K2 3.388813 1_565
Cl23 K1 3.392080 1_655
Cl24 Zr6 2.579439 1_655
Cl24 Zr10 2.615638 1_555
Cl24 K2 3.742208 1_565
Cl24 K0 3.748148 1_565
Cl25 Zr7 2.579439 1_455
Cl25 Zr11 2.615638 1_555
Cl25 K3 3.742208 1_545
Cl25 K1 3.748148 1_545
Cl26 Zr4 2.579439 1_545
Cl26 Zr8 2.615638 1_555
Cl26 K4 3.742208 1_454
Cl26 K0 3.748148 1_455
Cl27 Zr5 2.579439 1_565
Cl27 Zr9 2.615638 1_555
Cl27 K5 3.742208 1_656
Cl27 K1 3.748148 1_655
Cl28 Zr4 2.735334 1_545
Cl28 Zr5 2.735334 1_454
Cl28 K4 3.522447 1_454
Cl28 K5 3.522447 1_545
Cl28 K0 3.654189 1_455
Cl28 K1 3.654189 1_544
Cl29 Zr6 2.735334 1_545
Cl29 Zr7 2.735334 1_455
Cl29 K3 3.522447 1_545
Cl29 K2 3.522447 1_455
Cl29 K0 3.654189 1_455
Cl29 K1 3.654189 1_545
