# generated using pymatgen
data_NdAs2Pd3
_symmetry_space_group_name_H-M   'P 1'
_cell_length_a   4.11860538
_cell_length_b   8.59699299
_cell_length_c   10.05505879
_cell_angle_alpha   107.27507949
_cell_angle_beta   90.00053103
_cell_angle_gamma   103.86559771
_symmetry_Int_Tables_number   1
_chemical_formula_structural   NdAs2Pd3
_chemical_formula_sum   'Nd3 As6 Pd9'
_cell_volume   329.08485451
_cell_formula_units_Z   3
loop_
 _symmetry_equiv_pos_site_id
 _symmetry_equiv_pos_as_xyz
  1  'x, y, z'
loop_
 _atom_site_type_symbol
 _atom_site_label
 _atom_site_symmetry_multiplicity
 _atom_site_fract_x
 _atom_site_fract_y
 _atom_site_fract_z
 _atom_site_occupancy
  Nd  Nd0  1  0.84546722  0.69139615  0.29869868  1
  Nd  Nd1  1  0.15453775  0.30860908  0.70130022  1
  Nd  Nd2  1  0.00000217  0.00000321  0.00000251  1
  As  As0  1  0.80052346  0.60042516  0.87015734  1
  As  As1  1  0.19946987  0.39955802  0.12984926  1
  As  As2  1  0.53710363  0.07489443  0.78538033  1
  As  As3  1  0.46288373  0.92509833  0.21461793  1
  As  As4  1  0.63607620  0.27262105  0.45330774  1
  As  As5  1  0.36395649  0.72738179  0.54669331  1
  Pd  Pd0  1  0.95588643  0.91191569  0.66700510  1
  Pd  Pd1  1  0.04410515  0.08808975  0.33299203  1
  Pd  Pd2  1  0.77795332  0.55599620  0.60936680  1
  Pd  Pd3  1  0.22205819  0.44400360  0.39063608  1
  Pd  Pd4  1  0.37503293  0.74934819  0.79789257  1
  Pd  Pd5  1  0.62498359  0.25066616  0.20210625  1
  Pd  Pd6  1  0.49996284  -0.00000517  0.49999453  1
  Pd  Pd7  1  0.67728312  0.35539626  0.96603711  1
  Pd  Pd8  1  0.32271492  0.64460312  0.03396022  1
loop_
_geom_bond_atom_site_label_1
_geom_bond_atom_site_label_2
_geom_bond_distance
_geom_bond_site_symmetry_2
Nd0 Pd1 3.222291 1_665
Nd0 Pd3 3.243593 1_555
Nd0 Pd3 3.245374 1_655
Nd0 Pd8 3.291215 1_555
Nd0 Pd8 3.294618 1_655
Nd0 Pd6 3.432263 1_565
Nd0 Pd6 3.432868 1_665
Nd0 Pd5 3.505620 1_555
Nd0 Pd0 3.596191 1_555
Nd0 Pd2 3.632467 1_555
Nd0 Pd7 3.648939 1_554
Nd1 Pd0 3.222286 1_445
Nd1 Pd2 3.243565 1_555
Nd1 Pd2 3.245298 1_455
Nd1 Pd7 3.291198 1_555
Nd1 Pd7 3.294623 1_455
Nd1 Pd6 3.432196 1_555
Nd1 Pd6 3.433154 1_455
Nd1 Pd4 3.505693 1_555
Nd1 Pd1 3.596206 1_555
Nd1 Pd3 3.632403 1_555
Nd1 Pd8 3.648904 1_556
Nd2 Pd4 3.184256 1_444
Nd2 Pd5 3.184281 1_555
Nd2 Pd5 3.186469 1_455
Nd2 Pd4 3.186488 1_544
Nd2 Pd1 3.200821 1_555
Nd2 Pd0 3.200898 1_444
Nd2 Pd7 3.710464 1_554
Nd2 Pd8 3.710493 1_445
Nd2 Pd7 3.712725 1_454
Nd2 Pd8 3.712741 1_545
As0 Pd7 2.513597 1_555
As0 Pd2 2.533558 1_555
As0 Pd8 2.591606 1_556
As0 Pd8 2.592188 1_656
As0 Pd4 2.620300 1_555
As0 Pd4 2.620404 1_655
As0 Nd2 3.188035 1_666
As0 Nd1 3.244356 1_655
As0 Nd1 3.244400 1_555
As1 Pd8 2.513781 1_555
As1 Pd3 2.533497 1_555
As1 Pd7 2.591657 1_554
As1 Pd7 2.592261 1_454
As1 Pd5 2.620146 1_555
As1 Pd5 2.620201 1_455
As1 Nd2 3.187858 1_555
As1 Nd0 3.244441 1_455
As1 Nd0 3.244487 1_555
As2 Pd7 2.485818 1_555
As2 Pd0 2.551882 1_445
As2 Pd0 2.553952 1_545
As2 Pd6 2.743689 1_555
As2 Pd4 2.758252 1_545
As2 Nd1 3.124204 1_555
As2 Nd1 3.127060 1_655
As2 Nd2 3.179270 1_556
As2 Nd2 3.181169 1_656
As3 Pd8 2.485782 1_555
As3 Pd1 2.551913 1_665
As3 Pd1 2.553997 1_565
As3 Pd6 2.743601 1_565
As3 Pd5 2.758430 1_565
As3 Nd0 3.124165 1_555
As3 Nd0 3.126959 1_455
As3 Nd2 3.179293 1_665
As3 Nd2 3.181138 1_565
As4 Pd2 2.405407 1_555
As4 Pd6 2.460000 1_555
As4 Pd5 2.475950 1_555
As4 Pd1 2.632653 1_555
As4 Pd1 2.634835 1_655
As4 Pd3 2.689078 1_555
As4 Pd3 2.690678 1_655
As4 Nd1 3.175372 1_555
As4 Nd1 3.177796 1_655
As5 Pd3 2.405421 1_555
As5 Pd6 2.459950 1_565
As5 Pd4 2.475904 1_555
As5 Pd0 2.632515 1_555
As5 Pd0 2.634970 1_455
As5 Pd2 2.689039 1_555
As5 Pd2 2.690762 1_455
As5 Nd0 3.175314 1_555
As5 Nd0 3.177892 1_455
Pd0 Pd2 2.847379 1_555
Pd0 Pd6 2.890692 1_565
Pd0 Pd6 2.890815 1_665
Pd0 Pd4 2.983027 1_555
Pd0 Pd4 2.985663 1_655
Pd1 Pd3 2.847326 1_555
Pd1 Pd6 2.890526 1_555
Pd1 Pd6 2.890988 1_455
Pd1 Pd5 2.983119 1_555
Pd1 Pd5 2.985639 1_455
Pd2 Pd4 2.925927 1_555
Pd2 Pd4 2.927990 1_655
Pd2 Pd3 2.948175 1_555
Pd2 Pd3 2.948930 1_655
Pd3 Pd5 2.925897 1_555
Pd3 Pd5 2.927973 1_455
Pd4 Pd8 2.769141 1_556
Pd5 Pd7 2.769084 1_554
Pd7 Pd8 3.084227 1_556
Pd7 Pd8 3.088414 1_656
