# generated using pymatgen
data_Sr2CaPr2Fe2(RuO6)2
_symmetry_space_group_name_H-M   'P 1'
_cell_length_a   6.20319059
_cell_length_b   5.96076172
_cell_length_c   7.75137275
_cell_angle_alpha   93.09267448
_cell_angle_beta   91.27713159
_cell_angle_gamma   83.66456967
_symmetry_Int_Tables_number   1
_chemical_formula_structural   Sr2CaPr2Fe2(RuO6)2
_chemical_formula_sum   'Sr2 Ca1 Pr2 Fe2 Ru2 O12'
_cell_volume   284.40896883
_cell_formula_units_Z   1
loop_
 _symmetry_equiv_pos_site_id
 _symmetry_equiv_pos_as_xyz
  1  'x, y, z'
loop_
 _atom_site_type_symbol
 _atom_site_label
 _atom_site_symmetry_multiplicity
 _atom_site_fract_x
 _atom_site_fract_y
 _atom_site_fract_z
 _atom_site_occupancy
  Sr  Sr0  1  0.57343200  0.47395300  0.75306300  1
  Sr  Sr1  1  0.93512000  0.04787400  0.24931200  1
  Ca  Ca0  1  0.70743500  0.62353900  0.16926700  1
  Pr  Pr0  1  0.06754400  0.99875600  0.74778400  1
  Pr  Pr1  1  0.37463200  0.35799300  0.30326700  1
  Fe  Fe0  1  0.09517100  0.52887100  0.97177500  1
  Fe  Fe1  1  0.49652900  0.90648700  0.51457600  1
  Ru  Ru0  1  0.00083400  0.51790100  0.50697900  1
  Ru  Ru1  1  0.49995400  0.01155100  0.98944400  1
  O  O0  1  0.97482700  0.41276700  0.74984100  1
  O  O1  1  0.46119000  0.07931300  0.73816700  1
  O  O2  1  0.05263500  0.60443900  0.24223000  1
  O  O3  1  0.52324500  0.95659200  0.26412100  1
  O  O4  1  0.17470200  0.17921800  0.47922900  1
  O  O5  1  0.63966800  0.29190400  0.04810100  1
  O  O6  1  0.80641100  0.84066500  0.95484800  1
  O  O7  1  0.29371500  0.68480900  0.55218800  1
  O  O8  1  0.81005800  0.82890100  0.54209700  1
  O  O9  1  0.32678200  0.74661400  0.94251300  1
  O  O10  1  0.20123100  0.20007500  0.03610900  1
  O  O11  1  0.72298000  0.39825500  0.42842500  1
loop_
_geom_bond_atom_site_label_1
_geom_bond_atom_site_label_2
_geom_bond_distance
_geom_bond_site_symmetry_2
Ca0 O2 2.194841 1_655
Ca0 O5 2.220812 1_555
Ca0 O3 2.273017 1_555
Ca0 O6 2.295071 1_554
Ca0 O11 2.470191 1_555
Ca0 O9 2.962251 1_554
Fe0 O0 1.980900 1_455
Fe0 O9 2.063505 1_555
Fe0 O10 2.080599 1_556
Fe0 O2 2.136337 1_556
Fe0 O6 2.441513 1_455
Fe1 O8 1.958466 1_555
Fe1 O7 1.959241 1_555
Fe1 O1 1.971680 1_565
Fe1 O3 1.993342 1_555
Fe1 O4 2.451686 1_565
O0 Ru0 2.031196 1_655
O0 Pr0 2.470647 1_645
O0 Sr0 2.476845 1_555
O1 Ru1 2.014259 1_555
O1 Sr0 2.521956 1_555
O1 Pr0 2.543535 1_545
O2 Ru0 2.181956 1_555
O2 Pr1 2.399325 1_555
O2 Sr1 2.661175 1_465
O3 Ru1 2.170821 1_564
O3 Pr1 2.472662 1_565
O3 Sr1 2.676484 1_565
O4 Ru0 2.183585 1_555
O4 Pr1 2.248988 1_555
O4 Sr1 2.446624 1_455
O4 Pr0 2.528522 1_545
O5 Ru1 1.992629 1_554
O5 Pr1 2.586142 1_555
O5 Sr0 2.589208 1_554
O5 Sr1 2.726974 1_555
O6 Ru1 2.071043 1_565
O6 Pr0 2.589219 1_655
O6 Sr1 2.684213 1_566
O6 Sr0 3.088800 1_555
O7 Ru0 2.178599 1_555
O7 Sr0 2.573764 1_555
O7 Pr0 2.641641 1_555
O7 Pr1 2.681718 1_555
O8 Ru0 2.094489 1_655
O8 Pr0 2.487453 1_655
O8 Sr1 2.842123 1_565
O9 Ru1 2.018720 1_565
O9 Sr0 2.536287 1_555
O9 Pr0 2.593530 1_555
O10 Ru1 2.086585 1_554
O10 Pr1 2.499056 1_555
O10 Sr1 2.625462 1_455
O10 Pr0 2.640117 1_544
O11 Ru0 2.006930 1_655
O11 Pr1 2.379919 1_555
O11 Sr1 2.680163 1_555
O11 Sr0 2.699178 1_555
