# generated using pymatgen
data_Mg(AlGe)2
_symmetry_space_group_name_H-M   'P 1'
_cell_length_a   4.09355630
_cell_length_b   4.09355630
_cell_length_c   6.75411860
_cell_angle_alpha   90.00000000
_cell_angle_beta   90.00000000
_cell_angle_gamma   120.00000618
_symmetry_Int_Tables_number   1
_chemical_formula_structural   Mg(AlGe)2
_chemical_formula_sum   'Mg1 Al2 Ge2'
_cell_volume   98.01686845
_cell_formula_units_Z   1
loop_
 _symmetry_equiv_pos_site_id
 _symmetry_equiv_pos_as_xyz
  1  'x, y, z'
loop_
 _atom_site_type_symbol
 _atom_site_label
 _atom_site_symmetry_multiplicity
 _atom_site_fract_x
 _atom_site_fract_y
 _atom_site_fract_z
 _atom_site_occupancy
  Mg  Mg0  1  -0.00000000  0.00000000  -0.00000000  1
  Al  Al0  1  0.66666700  0.33333300  0.36758776  1
  Al  Al1  1  0.33333300  0.66666700  0.63241224  1
  Ge  Ge0  1  0.66666700  0.33333300  0.75695078  1
  Ge  Ge1  1  0.33333300  0.66666700  0.24304922  1
loop_
_geom_bond_atom_site_label_1
_geom_bond_atom_site_label_2
_geom_bond_distance
_geom_bond_site_symmetry_2
Al0 Ge1 2.508636 1_545
Al0 Ge1 2.508636 1_655
Al0 Ge1 2.508642 1_555
Al0 Ge0 2.629804 1_555
Al1 Ge0 2.508636 1_455
Al1 Ge0 2.508636 1_565
Al1 Ge0 2.508642 1_555
Al1 Ge1 2.629804 1_555
Ge0 Mg0 2.877589 1_656
Ge0 Mg0 2.877592 1_556
Ge0 Mg0 2.877592 1_666
Ge1 Mg0 2.877589 1_565
Ge1 Mg0 2.877592 1_665
Ge1 Mg0 2.877592 1_555
