# generated using pymatgen
data_SrAl9Ni2
_symmetry_space_group_name_H-M   'P 1'
_cell_length_a   3.95509500
_cell_length_b   7.96408754
_cell_length_c   7.96408754
_cell_angle_alpha   119.99999622
_cell_angle_beta   90.00000000
_cell_angle_gamma   90.00000000
_symmetry_Int_Tables_number   1
_chemical_formula_structural   SrAl9Ni2
_chemical_formula_sum   'Sr1 Al9 Ni2'
_cell_volume   217.24991663
_cell_formula_units_Z   1
loop_
 _symmetry_equiv_pos_site_id
 _symmetry_equiv_pos_as_xyz
  1  'x, y, z'
loop_
 _atom_site_type_symbol
 _atom_site_label
 _atom_site_symmetry_multiplicity
 _atom_site_fract_x
 _atom_site_fract_y
 _atom_site_fract_z
 _atom_site_occupancy
  Sr  Sr0  1  0.00000000  0.00000000  0.00000000  1
  Al  Al0  1  0.00000000  0.50000000  0.50000000  1
  Al  Al1  1  0.00000000  0.00000000  0.50000000  1
  Al  Al2  1  0.00000000  0.50000000  0.00000000  1
  Al  Al3  1  0.50000000  0.78717500  0.21282500  1
  Al  Al4  1  0.50000000  0.42564900  0.21282500  1
  Al  Al5  1  0.50000000  0.78717500  0.57435100  1
  Al  Al6  1  0.50000000  0.21282500  0.78717500  1
  Al  Al7  1  0.50000000  0.21282500  0.42564900  1
  Al  Al8  1  0.50000000  0.57435100  0.78717500  1
  Ni  Ni0  1  0.00000000  0.66666700  0.33333300  1
  Ni  Ni1  1  0.00000000  0.33333300  0.66666700  1
loop_
_geom_bond_atom_site_label_1
_geom_bond_atom_site_label_2
_geom_bond_distance
_geom_bond_site_symmetry_2
Al0 Ni0 2.299039 1_555
Al0 Ni1 2.299039 1_555
Al0 Al8 2.852686 1_555
Al0 Al5 2.852686 1_455
Al0 Al4 2.852686 1_455
Al0 Al4 2.852686 1_555
Al0 Al8 2.852686 1_455
Al0 Al5 2.852686 1_555
Al0 Al7 2.852686 1_555
Al0 Al7 2.852686 1_455
Al1 Ni0 2.299032 1_545
Al1 Ni1 2.299032 1_555
Al1 Al3 2.852688 1_445
Al1 Al6 2.852688 1_555
Al1 Al3 2.852688 1_545
Al1 Al6 2.852688 1_455
Al1 Al7 2.852691 1_555
Al1 Al7 2.852691 1_455
Al1 Al5 2.852691 1_445
Al1 Al5 2.852691 1_545
Al2 Ni1 2.299032 1_554
Al2 Ni0 2.299032 1_555
Al2 Al6 2.852688 1_454
Al2 Al3 2.852688 1_555
Al2 Al3 2.852688 1_455
Al2 Al6 2.852688 1_554
Al2 Al4 2.852691 1_555
Al2 Al8 2.852691 1_454
Al2 Al8 2.852691 1_554
Al2 Al4 2.852691 1_455
Al3 Ni0 2.583404 1_555
Al3 Ni0 2.583404 1_655
Al3 Al4 2.879225 1_555
Al3 Al5 2.879225 1_555
Al3 Al8 2.935752 1_554
Al3 Al7 2.935752 1_565
Al3 Sr0 3.539679 1_565
Al3 Sr0 3.539679 1_665
Al4 Ni0 2.583413 1_655
Al4 Ni0 2.583413 1_555
Al4 Al5 2.879225 1_555
Al4 Al7 2.935738 1_555
Al4 Al6 2.935752 1_554
Al4 Sr0 3.539674 1_655
Al4 Sr0 3.539674 1_555
Al5 Ni0 2.583413 1_655
Al5 Ni0 2.583413 1_555
Al5 Al8 2.935738 1_555
Al5 Al6 2.935752 1_565
Al5 Sr0 3.539674 1_566
Al5 Sr0 3.539674 1_666
Al6 Ni1 2.583404 1_555
Al6 Ni1 2.583404 1_655
Al6 Al7 2.879225 1_555
Al6 Al8 2.879225 1_555
Al6 Sr0 3.539679 1_556
Al6 Sr0 3.539679 1_656
Al7 Ni1 2.583413 1_655
Al7 Ni1 2.583413 1_555
Al7 Al8 2.879225 1_555
Al7 Sr0 3.539674 1_655
Al7 Sr0 3.539674 1_555
Al8 Ni1 2.583413 1_655
Al8 Ni1 2.583413 1_555
Al8 Sr0 3.539674 1_566
Al8 Sr0 3.539674 1_666
