# generated using pymatgen
data_Mg2Mn3O6
_symmetry_space_group_name_H-M   'P 1'
_cell_length_a   7.99620245
_cell_length_b   7.99620245
_cell_length_c   5.46622106
_cell_angle_alpha   78.69502635
_cell_angle_beta   78.69502635
_cell_angle_gamma   21.23573201
_symmetry_Int_Tables_number   1
_chemical_formula_structural   Mg2Mn3O6
_chemical_formula_sum   'Mg2 Mn3 O6'
_cell_volume   124.04977007
_cell_formula_units_Z   1
loop_
 _symmetry_equiv_pos_site_id
 _symmetry_equiv_pos_as_xyz
  1  'x, y, z'
loop_
 _atom_site_type_symbol
 _atom_site_label
 _atom_site_symmetry_multiplicity
 _atom_site_fract_x
 _atom_site_fract_y
 _atom_site_fract_z
 _atom_site_occupancy
  Mg  Mg0  1  0.17591700  0.17591700  0.41230900  1
  Mg  Mg1  1  0.82408300  0.82408300  0.58769100  1
  Mn  Mn0  1  0.00000000  0.00000000  0.50000000  1
  Mn  Mn1  1  0.64652400  0.64652400  0.91372000  1
  Mn  Mn2  1  0.35347600  0.35347600  0.08628000  1
  O  O0  1  0.40788600  0.40788600  0.41276700  1
  O  O1  1  0.59211400  0.59211400  0.58723300  1
  O  O2  1  0.89951800  0.89951800  0.86465200  1
  O  O3  1  0.10048200  0.10048200  0.13534800  1
  O  O4  1  0.76970000  0.76970000  0.26060400  1
  O  O5  1  0.23030000  0.23030000  0.73939600  1
loop_
_geom_bond_atom_site_label_1
_geom_bond_atom_site_label_2
_geom_bond_distance
_geom_bond_site_symmetry_2
Mg0 O1 2.077940 1_455
Mg0 O1 2.077940 1_545
Mg0 O3 2.100952 1_555
Mg0 O5 2.130040 1_555
Mg0 O4 2.131646 1_545
Mg0 O4 2.131646 1_455
Mg1 O0 2.077940 1_655
Mg1 O0 2.077940 1_565
Mg1 O2 2.100952 1_555
Mg1 O4 2.130040 1_555
Mg1 O5 2.131646 1_655
Mg1 O5 2.131646 1_565
Mn0 O0 2.184030 1_455
Mn0 O1 2.184030 1_455
Mn0 O0 2.184030 1_545
Mn0 O1 2.184030 1_545
Mn0 O2 2.282964 1_445
Mn0 O3 2.282964 1_555
Mn1 O3 1.952558 1_566
Mn1 O3 1.952558 1_656
Mn1 O5 2.076617 1_655
Mn1 O5 2.076617 1_565
Mn1 O1 2.127266 1_555
Mn2 O2 1.952558 1_454
Mn2 O2 1.952558 1_544
Mn2 O4 2.076617 1_455
Mn2 O4 2.076617 1_545
Mn2 O0 2.127266 1_555
