# generated using pymatgen
data_SrHg11
_symmetry_space_group_name_H-M   'P 1'
_cell_length_a   10.14268400
_cell_length_b   10.14268400
_cell_length_c   10.14268400
_cell_angle_alpha   90.00000000
_cell_angle_beta   90.00000000
_cell_angle_gamma   90.00000000
_symmetry_Int_Tables_number   1
_chemical_formula_structural   SrHg11
_chemical_formula_sum   'Sr3 Hg33'
_cell_volume   1043.41886658
_cell_formula_units_Z   3
loop_
 _symmetry_equiv_pos_site_id
 _symmetry_equiv_pos_as_xyz
  1  'x, y, z'
loop_
 _atom_site_type_symbol
 _atom_site_label
 _atom_site_symmetry_multiplicity
 _atom_site_fract_x
 _atom_site_fract_y
 _atom_site_fract_z
 _atom_site_occupancy
  Sr  Sr0  1  0.00000000  0.00000000  0.50000000  1
  Sr  Sr1  1  0.00000000  0.50000000  0.00000000  1
  Sr  Sr2  1  0.50000000  0.00000000  0.00000000  1
  Hg  Hg0  1  0.50000000  0.50000000  0.50000000  1
  Hg  Hg1  1  0.15271200  0.15271200  0.84728800  1
  Hg  Hg2  1  0.15271200  0.84728800  0.15271200  1
  Hg  Hg3  1  0.84728800  0.15271200  0.15271200  1
  Hg  Hg4  1  0.84728800  0.84728800  0.84728800  1
  Hg  Hg5  1  0.84728800  0.84728800  0.15271200  1
  Hg  Hg6  1  0.84728800  0.15271200  0.84728800  1
  Hg  Hg7  1  0.15271200  0.84728800  0.84728800  1
  Hg  Hg8  1  0.15271200  0.15271200  0.15271200  1
  Hg  Hg9  1  0.34164500  0.34164500  0.00000000  1
  Hg  Hg10  1  0.34164500  0.00000000  0.65835500  1
  Hg  Hg11  1  0.00000000  0.34164500  0.65835500  1
  Hg  Hg12  1  0.34164500  0.65835500  0.00000000  1
  Hg  Hg13  1  0.34164500  0.00000000  0.34164500  1
  Hg  Hg14  1  0.00000000  0.65835500  0.34164500  1
  Hg  Hg15  1  0.65835500  0.34164500  0.00000000  1
  Hg  Hg16  1  0.65835500  0.00000000  0.34164500  1
  Hg  Hg17  1  0.00000000  0.34164500  0.34164500  1
  Hg  Hg18  1  0.65835500  0.65835500  0.00000000  1
  Hg  Hg19  1  0.65835500  0.00000000  0.65835500  1
  Hg  Hg20  1  0.00000000  0.65835500  0.65835500  1
  Hg  Hg21  1  0.26227200  0.26227200  0.50000000  1
  Hg  Hg22  1  0.26227200  0.50000000  0.73772800  1
  Hg  Hg23  1  0.50000000  0.26227200  0.73772800  1
  Hg  Hg24  1  0.26227200  0.73772800  0.50000000  1
  Hg  Hg25  1  0.26227200  0.50000000  0.26227200  1
  Hg  Hg26  1  0.50000000  0.73772800  0.26227200  1
  Hg  Hg27  1  0.73772800  0.26227200  0.50000000  1
  Hg  Hg28  1  0.73772800  0.50000000  0.26227200  1
  Hg  Hg29  1  0.50000000  0.26227200  0.26227200  1
  Hg  Hg30  1  0.73772800  0.73772800  0.50000000  1
  Hg  Hg31  1  0.73772800  0.50000000  0.73772800  1
  Hg  Hg32  1  0.50000000  0.73772800  0.73772800  1
loop_
_geom_bond_atom_site_label_1
_geom_bond_atom_site_label_2
_geom_bond_distance
_geom_bond_site_symmetry_2
Hg0 Hg21 3.409952 1_555
Hg0 Hg25 3.409952 1_555
Hg0 Hg29 3.409952 1_555
Hg0 Hg27 3.409952 1_555
Hg0 Hg28 3.409952 1_555
Hg0 Hg22 3.409952 1_555
Hg0 Hg26 3.409952 1_555
Hg0 Hg23 3.409952 1_555
Hg0 Hg24 3.409952 1_555
Hg0 Hg30 3.409952 1_555
Hg0 Hg31 3.409952 1_555
Hg0 Hg32 3.409952 1_555
Hg1 Hg7 3.097819 1_545
Hg1 Hg8 3.097819 1_556
Hg1 Hg6 3.097819 1_455
Hg1 Hg9 3.121448 1_556
Hg1 Hg10 3.121448 1_555
Hg1 Hg11 3.121448 1_555
Hg2 Hg5 3.097819 1_455
Hg2 Hg8 3.097819 1_565
Hg2 Hg7 3.097819 1_554
Hg3 Hg8 3.097819 1_655
Hg3 Hg6 3.097819 1_554
Hg3 Hg5 3.097819 1_545
Hg4 Hg7 3.097819 1_655
Hg4 Hg5 3.097819 1_556
Hg4 Hg6 3.097819 1_565
Hg8 Hg9 3.121448 1_555
Hg9 Sr2 3.819331 1_555
Hg9 Sr1 3.819331 1_555
Hg10 Hg7 3.121448 1_545
Hg10 Hg24 3.210011 1_545
Hg10 Hg32 3.210011 1_545
Hg10 Hg23 3.210011 1_555
Hg10 Hg21 3.210011 1_555
Hg10 Hg19 3.212289 1_555
Hg10 Hg13 3.212289 1_555
Hg10 Sr0 3.819331 1_555
Hg10 Sr2 3.819331 1_556
Hg11 Hg6 3.121448 1_455
Hg11 Hg27 3.210011 1_455
Hg11 Hg31 3.210011 1_455
Hg11 Hg22 3.210011 1_555
Hg11 Hg21 3.210011 1_555
Hg11 Hg20 3.212289 1_555
Hg11 Hg17 3.212289 1_555
Hg11 Sr0 3.819331 1_555
Hg11 Sr1 3.819331 1_556
Hg12 Hg7 3.121448 1_554
Hg12 Hg2 3.121448 1_555
Hg12 Hg22 3.210011 1_554
Hg12 Hg32 3.210011 1_554
Hg12 Hg26 3.210011 1_555
Hg12 Hg25 3.210011 1_555
Hg12 Hg18 3.212289 1_555
Hg12 Hg9 3.212289 1_555
Hg12 Sr1 3.819331 1_555
Hg12 Sr2 3.819331 1_565
Hg13 Hg2 3.121448 1_545
Hg13 Hg8 3.121448 1_555
Hg13 Hg24 3.210011 1_545
Hg13 Hg26 3.210011 1_545
Hg13 Hg29 3.210011 1_555
Hg13 Hg21 3.210011 1_555
Hg13 Hg16 3.212289 1_555
Hg13 Sr2 3.819331 1_555
Hg13 Sr0 3.819331 1_555
Hg14 Hg5 3.121448 1_455
Hg14 Hg2 3.121448 1_555
Hg14 Hg28 3.210011 1_455
Hg14 Hg30 3.210011 1_455
Hg14 Hg24 3.210011 1_555
Hg14 Hg25 3.210011 1_555
Hg14 Hg20 3.212289 1_555
Hg14 Hg17 3.212289 1_555
Hg14 Sr1 3.819331 1_555
Hg14 Sr0 3.819331 1_565
Hg15 Hg6 3.121448 1_554
Hg15 Hg3 3.121448 1_555
Hg15 Hg23 3.210011 1_554
Hg15 Hg31 3.210011 1_554
Hg15 Hg29 3.210011 1_555
Hg15 Hg28 3.210011 1_555
Hg15 Hg18 3.212289 1_555
Hg15 Hg9 3.212289 1_555
Hg15 Sr2 3.819331 1_555
Hg15 Sr1 3.819331 1_655
Hg16 Hg5 3.121448 1_545
Hg16 Hg3 3.121448 1_555
Hg16 Hg26 3.210011 1_545
Hg16 Hg30 3.210011 1_545
Hg16 Hg29 3.210011 1_555
Hg16 Hg27 3.210011 1_555
Hg16 Hg19 3.212289 1_555
Hg16 Sr2 3.819331 1_555
Hg16 Sr0 3.819331 1_655
Hg17 Hg3 3.121448 1_455
Hg17 Hg8 3.121448 1_555
Hg17 Hg28 3.210011 1_455
Hg17 Hg27 3.210011 1_455
Hg17 Hg21 3.210011 1_555
Hg17 Hg25 3.210011 1_555
Hg17 Sr0 3.819331 1_555
Hg17 Sr1 3.819331 1_555
Hg18 Hg4 3.121448 1_554
Hg18 Hg5 3.121448 1_555
Hg18 Hg31 3.210011 1_554
Hg18 Hg32 3.210011 1_554
Hg18 Hg26 3.210011 1_555
Hg18 Hg28 3.210011 1_555
Hg18 Sr1 3.819331 1_655
Hg18 Sr2 3.819331 1_565
Hg19 Hg6 3.121448 1_555
Hg19 Hg4 3.121448 1_545
Hg19 Hg32 3.210011 1_545
Hg19 Hg30 3.210011 1_545
Hg19 Hg23 3.210011 1_555
Hg19 Hg27 3.210011 1_555
Hg19 Sr0 3.819331 1_655
Hg19 Sr2 3.819331 1_556
Hg20 Hg4 3.121448 1_455
Hg20 Hg7 3.121448 1_555
Hg20 Hg31 3.210011 1_455
Hg20 Hg30 3.210011 1_455
Hg20 Hg22 3.210011 1_555
Hg20 Hg24 3.210011 1_555
Hg20 Sr0 3.819331 1_565
Hg20 Sr1 3.819331 1_556
Hg21 Sr0 3.762009 1_555
Hg22 Hg9 3.210011 1_556
Hg22 Sr1 3.762009 1_556
Hg23 Hg9 3.210011 1_556
Hg23 Sr2 3.762009 1_556
Hg24 Sr0 3.762009 1_565
Hg25 Hg9 3.210011 1_555
Hg25 Sr1 3.762009 1_555
Hg26 Sr2 3.762009 1_565
Hg27 Sr0 3.762009 1_655
Hg28 Sr1 3.762009 1_655
Hg29 Hg9 3.210011 1_555
Hg29 Sr2 3.762009 1_555
Hg30 Sr0 3.762009 1_665
Hg31 Sr1 3.762009 1_656
Hg32 Sr2 3.762009 1_566
