# generated using pymatgen
data_CeCoSi
_symmetry_space_group_name_H-M   'P 1'
_cell_length_a   4.02433240
_cell_length_b   4.02433240
_cell_length_c   6.84343153
_cell_angle_alpha   90.00000000
_cell_angle_beta   90.00000000
_cell_angle_gamma   90.00000000
_symmetry_Int_Tables_number   1
_chemical_formula_structural   CeCoSi
_chemical_formula_sum   'Ce2 Co2 Si2'
_cell_volume   110.83109315
_cell_formula_units_Z   2
loop_
 _symmetry_equiv_pos_site_id
 _symmetry_equiv_pos_as_xyz
  1  'x, y, z'
loop_
 _atom_site_type_symbol
 _atom_site_label
 _atom_site_symmetry_multiplicity
 _atom_site_fract_x
 _atom_site_fract_y
 _atom_site_fract_z
 _atom_site_occupancy
  Ce  Ce0  1  0.75000000  0.75000000  0.31676804  1
  Ce  Ce1  1  0.25000000  0.25000000  0.68318333  1
  Co  Co0  1  0.75000000  0.25000000  0.00002447  1
  Co  Co1  1  0.25000000  0.75000000  0.00002447  1
  Si  Si0  1  0.75000000  0.75000000  0.83063469  1
  Si  Si1  1  0.25000000  0.25000000  0.16936599  1
loop_
_geom_bond_atom_site_label_1
_geom_bond_atom_site_label_2
_geom_bond_distance
_geom_bond_site_symmetry_2
Ce0 Co0 2.957593 1_565
Ce0 Co0 2.957593 1_555
Ce0 Co1 2.957593 1_555
Ce0 Co1 2.957593 1_655
Ce0 Si1 3.019135 1_655
Ce0 Si1 3.019135 1_565
Ce0 Si1 3.019135 1_555
Ce0 Si1 3.019135 1_665
Ce0 Si0 3.516611 1_555
Ce1 Co1 2.958083 1_556
Ce1 Co0 2.958083 1_456
Ce1 Co1 2.958083 1_546
Ce1 Co0 2.958083 1_556
Ce1 Si0 3.019247 1_455
Ce1 Si0 3.019247 1_545
Ce1 Si0 3.019247 1_555
Ce1 Si0 3.019247 1_445
Ce1 Si1 3.516274 1_555
Co0 Si1 2.322027 1_555
Co0 Si1 2.322027 1_655
Co0 Si0 2.322192 1_554
Co0 Si0 2.322192 1_544
Co1 Si1 2.322027 1_555
Co1 Si1 2.322027 1_565
Co1 Si0 2.322192 1_554
Co1 Si0 2.322192 1_454
