# generated using pymatgen
data_HfCu(O2F3)2
_symmetry_space_group_name_H-M   'P 1'
_cell_length_a   8.84297400
_cell_length_b   5.40841500
_cell_length_c   7.20528232
_cell_angle_alpha   83.90601893
_cell_angle_beta   90.00000000
_cell_angle_gamma   90.00000000
_symmetry_Int_Tables_number   1
_chemical_formula_structural   HfCu(O2F3)2
_chemical_formula_sum   'Hf2 Cu2 O8 F12'
_cell_volume   342.65592398
_cell_formula_units_Z   2
loop_
 _symmetry_equiv_pos_site_id
 _symmetry_equiv_pos_as_xyz
  1  'x, y, z'
loop_
 _atom_site_type_symbol
 _atom_site_label
 _atom_site_symmetry_multiplicity
 _atom_site_fract_x
 _atom_site_fract_y
 _atom_site_fract_z
 _atom_site_occupancy
  Hf  Hf0  1  0.50000000  0.00000000  0.50000000  1
  Hf  Hf1  1  0.00000000  0.00000000  0.00000000  1
  Cu  Cu0  1  0.50000000  0.50000000  0.00000000  1
  Cu  Cu1  1  0.00000000  0.50000000  0.50000000  1
  O  O0  1  0.88144300  0.73831000  0.57647200  1
  O  O1  1  0.11855700  0.26169000  0.42352800  1
  O  O2  1  0.38144300  0.26169000  0.92352800  1
  O  O3  1  0.61855700  0.73831000  0.07647200  1
  O  O4  1  0.16168800  0.62169200  0.60969500  1
  O  O5  1  0.83831200  0.37830800  0.39030500  1
  O  O6  1  0.66168800  0.37830800  0.89030500  1
  O  O7  1  0.33831200  0.62169200  0.10969500  1
  F  F0  1  0.34163000  0.24485500  0.57184900  1
  F  F1  1  0.65837000  0.75514500  0.42815100  1
  F  F2  1  0.84163000  0.75514500  0.92815100  1
  F  F3  1  0.15837000  0.24485500  0.07184900  1
  F  F4  1  0.15183700  0.82701900  0.85307700  1
  F  F5  1  0.84816300  0.17298100  0.14692300  1
  F  F6  1  0.65183700  0.17298100  0.64692300  1
  F  F7  1  0.34816300  0.82701900  0.35307700  1
  F  F8  1  0.45959600  0.77475800  0.73010200  1
  F  F9  1  0.54040400  0.22524200  0.26989800  1
  F  F10  1  0.95959600  0.22524200  0.76989800  1
  F  F11  1  0.04040400  0.77475800  0.23010200  1
loop_
_geom_bond_atom_site_label_1
_geom_bond_atom_site_label_2
_geom_bond_distance
_geom_bond_site_symmetry_2
Cu0 O6 1.792391 1_554
Cu0 O7 1.792391 1_555
Cu0 O3 1.792968 1_555
Cu0 O2 1.792968 1_554
Cu0 F9 2.346088 1_555
Cu0 F8 2.346088 1_554
Cu1 O4 1.792391 1_555
Cu1 O5 1.792391 1_455
Cu1 O0 1.792968 1_455
Cu1 O1 1.792968 1_555
Cu1 F11 2.346088 1_555
Cu1 F10 2.346088 1_455
F0 Hf0 2.031888 1_555
F1 Hf0 2.031888 1_565
F2 Hf1 2.031888 1_666
F3 Hf1 2.031888 1_555
F4 Hf1 2.002258 1_566
F5 Hf1 2.002258 1_655
F6 Hf0 2.002258 1_555
F7 Hf0 2.002258 1_565
F8 Hf0 1.982838 1_565
F9 Hf0 1.982838 1_555
F10 Hf1 1.982838 1_656
F11 Hf1 1.982838 1_565
