# generated using pymatgen
data_LaTiNbO6
_symmetry_space_group_name_H-M   'P 1'
_cell_length_a   5.48200600
_cell_length_b   7.64754000
_cell_length_c   11.16186100
_cell_angle_alpha   90.00000000
_cell_angle_beta   90.00000000
_cell_angle_gamma   90.00000000
_symmetry_Int_Tables_number   1
_chemical_formula_structural   LaTiNbO6
_chemical_formula_sum   'La4 Ti4 Nb4 O24'
_cell_volume   467.94829975
_cell_formula_units_Z   4
loop_
 _symmetry_equiv_pos_site_id
 _symmetry_equiv_pos_as_xyz
  1  'x, y, z'
loop_
 _atom_site_type_symbol
 _atom_site_label
 _atom_site_symmetry_multiplicity
 _atom_site_fract_x
 _atom_site_fract_y
 _atom_site_fract_z
 _atom_site_occupancy
  La  La0  1  0.95573900  0.25035500  0.54083900  1
  La  La1  1  0.54426100  0.25035500  0.04083900  1
  La  La2  1  0.04426100  0.75035500  0.45916100  1
  La  La3  1  0.45573900  0.75035500  0.95916100  1
  Ti  Ti0  1  0.46957200  0.50743900  0.64221800  1
  Ti  Ti1  1  0.53042800  0.00743900  0.35778200  1
  Ti  Ti2  1  0.96957200  0.00743900  0.85778200  1
  Ti  Ti3  1  0.03042800  0.50743900  0.14221800  1
  Nb  Nb0  1  0.03564900  0.99450000  0.14626400  1
  Nb  Nb1  1  0.96435100  0.49450000  0.85373600  1
  Nb  Nb2  1  0.53564900  0.49450000  0.35373600  1
  Nb  Nb3  1  0.46435100  0.99450000  0.64626400  1
  O  O0  1  0.13026900  0.44657400  0.70845700  1
  O  O1  1  0.37749500  0.05208600  0.21073600  1
  O  O2  1  0.86973100  0.94657400  0.29154300  1
  O  O3  1  0.62250500  0.55208600  0.78926400  1
  O  O4  1  0.87749500  0.55208600  0.28926400  1
  O  O5  1  0.63026900  0.94657400  0.79154300  1
  O  O6  1  0.12250500  0.05208600  0.71073600  1
  O  O7  1  0.36973100  0.44657400  0.20845700  1
  O  O8  1  0.26838800  0.46622600  0.47278600  1
  O  O9  1  0.23130400  0.03377200  0.97062600  1
  O  O10  1  0.73161200  0.96622600  0.52721400  1
  O  O11  1  0.76869600  0.53377200  0.02937400  1
  O  O12  1  0.73130400  0.53377200  0.52937400  1
  O  O13  1  0.76838800  0.96622600  0.02721400  1
  O  O14  1  0.26869600  0.03377200  0.47062600  1
  O  O15  1  0.23161200  0.46622600  0.97278600  1
  O  O16  1  0.53676300  0.25174900  0.64253600  1
  O  O17  1  0.96323700  0.25174900  0.14253600  1
  O  O18  1  0.46323700  0.75174900  0.35746400  1
  O  O19  1  0.03676300  0.75174900  0.85746400  1
  O  O20  1  0.35112200  0.74730000  0.62294600  1
  O  O21  1  0.14887800  0.74730000  0.12294600  1
  O  O22  1  0.64887800  0.24730000  0.37705400  1
  O  O23  1  0.85112200  0.24730000  0.87705400  1
loop_
_geom_bond_atom_site_label_1
_geom_bond_atom_site_label_2
_geom_bond_distance
_geom_bond_site_symmetry_2
La0 O22 2.484453 1_555
La0 O12 2.495587 1_555
La0 O8 2.498000 1_655
La0 O10 2.500838 1_545
La0 O14 2.510181 1_655
La0 O16 2.562041 1_555
La0 O0 2.582164 1_655
La0 O6 2.594430 1_655
La1 O23 2.484453 1_554
La1 O11 2.495587 1_555
La1 O15 2.498000 1_554
La1 O13 2.500838 1_545
La1 O9 2.510181 1_554
La1 O17 2.562041 1_555
La1 O7 2.582164 1_555
La1 O1 2.594430 1_555
La2 O20 2.484453 1_555
La2 O14 2.495587 1_565
La2 O10 2.498000 1_455
La2 O8 2.500838 1_555
La2 O12 2.510181 1_455
La2 O18 2.562041 1_555
La2 O2 2.582164 1_455
La2 O4 2.594430 1_455
La3 O21 2.484453 1_556
La3 O9 2.495587 1_565
La3 O13 2.498000 1_556
La3 O15 2.500838 1_555
La3 O11 2.510181 1_556
La3 O19 2.562041 1_555
La3 O5 2.582164 1_555
La3 O3 2.594430 1_555
Nb0 O2 1.895039 1_455
Nb0 O13 1.989751 1_455
Nb0 O21 2.006719 1_555
Nb0 O17 2.007403 1_465
Nb0 O1 2.055162 1_565
Nb0 O9 2.254769 1_564
Nb1 O0 1.895039 1_655
Nb1 O15 1.989751 1_655
Nb1 O23 2.006719 1_555
Nb1 O19 2.007403 1_655
Nb1 O3 2.055162 1_555
Nb1 O11 2.254769 1_556
Nb2 O7 1.895039 1_555
Nb2 O8 1.989751 1_555
Nb2 O22 2.006719 1_555
Nb2 O18 2.007403 1_555
Nb2 O4 2.055162 1_555
Nb2 O12 2.254769 1_555
Nb3 O5 1.895039 1_555
Nb3 O10 1.989751 1_555
Nb3 O20 2.006719 1_555
Nb3 O16 2.007403 1_565
Nb3 O6 2.055162 1_565
Nb3 O14 2.254769 1_565
O0 Ti0 2.055025 1_555
O1 Ti1 1.874393 1_555
O2 Ti1 2.055025 1_565
O3 Ti0 1.874393 1_555
O4 Ti3 1.874393 1_655
O5 Ti2 2.055025 1_565
O6 Ti2 1.874393 1_455
O7 Ti3 2.055025 1_555
O8 Ti0 2.211844 1_555
O9 Ti2 1.919822 1_455
O10 Ti1 2.211844 1_565
O11 Ti3 1.919822 1_655
O12 Ti0 1.919822 1_555
O13 Ti2 2.211844 1_564
O14 Ti1 1.919822 1_555
O15 Ti3 2.211844 1_556
O16 Ti0 1.989793 1_555
O17 Ti3 1.989793 1_655
O18 Ti1 1.989793 1_565
O19 Ti2 1.989793 1_465
O20 Ti0 1.957740 1_555
O21 Ti3 1.957740 1_555
O22 Ti1 1.957740 1_555
O23 Ti2 1.957740 1_555
