# generated using pymatgen
data_Tb6Ti4Al43
_symmetry_space_group_name_H-M   'P 1'
_cell_length_a   11.09747092
_cell_length_b   11.09747092
_cell_length_c   17.83130700
_cell_angle_alpha   90.00000000
_cell_angle_beta   90.00000000
_cell_angle_gamma   120.00000548
_symmetry_Int_Tables_number   1
_chemical_formula_structural   Tb6Ti4Al43
_chemical_formula_sum   'Tb12 Ti8 Al86'
_cell_volume   1901.78674570
_cell_formula_units_Z   2
loop_
 _symmetry_equiv_pos_site_id
 _symmetry_equiv_pos_as_xyz
  1  'x, y, z'
loop_
 _atom_site_type_symbol
 _atom_site_label
 _atom_site_symmetry_multiplicity
 _atom_site_fract_x
 _atom_site_fract_y
 _atom_site_fract_z
 _atom_site_occupancy
  Tb  Tb0  1  0.53058500  0.00000000  0.59639000  1
  Tb  Tb1  1  0.46941500  0.00000000  0.40361000  1
  Tb  Tb2  1  0.00000000  0.53058500  0.59639000  1
  Tb  Tb3  1  0.46941500  0.00000000  0.09639000  1
  Tb  Tb4  1  0.00000000  0.53058500  0.90361000  1
  Tb  Tb5  1  0.00000000  0.46941500  0.40361000  1
  Tb  Tb6  1  0.53058500  0.00000000  0.90361000  1
  Tb  Tb7  1  0.00000000  0.46941500  0.09639000  1
  Tb  Tb8  1  0.46941500  0.46941500  0.59639000  1
  Tb  Tb9  1  0.53058500  0.53058500  0.40361000  1
  Tb  Tb10  1  0.53058500  0.53058500  0.09639000  1
  Tb  Tb11  1  0.46941500  0.46941500  0.90361000  1
  Ti  Ti0  1  0.00000000  0.00000000  0.50000000  1
  Ti  Ti1  1  0.00000000  0.00000000  0.00000000  1
  Ti  Ti2  1  0.72737800  0.00000000  0.75000000  1
  Ti  Ti3  1  0.27262200  0.00000000  0.25000000  1
  Ti  Ti4  1  0.00000000  0.72737800  0.75000000  1
  Ti  Ti5  1  0.00000000  0.27262200  0.25000000  1
  Ti  Ti6  1  0.27262200  0.27262200  0.75000000  1
  Ti  Ti7  1  0.72737800  0.72737800  0.25000000  1
  Al  Al0  1  0.14988400  0.59751500  0.75000000  1
  Al  Al1  1  0.85011600  0.40248500  0.25000000  1
  Al  Al2  1  0.40248500  0.55237000  0.75000000  1
  Al  Al3  1  0.59751500  0.14988400  0.75000000  1
  Al  Al4  1  0.59751500  0.44763000  0.25000000  1
  Al  Al5  1  0.40248500  0.85011600  0.25000000  1
  Al  Al6  1  0.44763000  0.85011600  0.75000000  1
  Al  Al7  1  0.55237000  0.40248500  0.75000000  1
  Al  Al8  1  0.55237000  0.14988400  0.25000000  1
  Al  Al9  1  0.44763000  0.59751500  0.25000000  1
  Al  Al10  1  0.85011600  0.44763000  0.75000000  1
  Al  Al11  1  0.14988400  0.55237000  0.25000000  1
  Al  Al12  1  0.15692200  0.00000000  0.11586300  1
  Al  Al13  1  0.84307800  0.00000000  0.88413700  1
  Al  Al14  1  0.00000000  0.15692200  0.11586300  1
  Al  Al15  1  0.84307800  0.00000000  0.61586300  1
  Al  Al16  1  0.00000000  0.15692200  0.38413700  1
  Al  Al17  1  0.00000000  0.84307800  0.88413700  1
  Al  Al18  1  0.15692200  0.00000000  0.38413700  1
  Al  Al19  1  0.00000000  0.84307800  0.61586300  1
  Al  Al20  1  0.84307800  0.84307800  0.11586300  1
  Al  Al21  1  0.15692200  0.15692200  0.88413700  1
  Al  Al22  1  0.15692200  0.15692200  0.61586300  1
  Al  Al23  1  0.84307800  0.84307800  0.38413700  1
  Al  Al24  1  0.24728600  0.49457200  0.50000000  1
  Al  Al25  1  0.75271400  0.50542800  0.50000000  1
  Al  Al26  1  0.50542800  0.75271400  0.50000000  1
  Al  Al27  1  0.75271400  0.50542800  0.00000000  1
  Al  Al28  1  0.49457200  0.24728600  0.00000000  1
  Al  Al29  1  0.49457200  0.24728600  0.50000000  1
  Al  Al30  1  0.24728600  0.49457200  0.00000000  1
  Al  Al31  1  0.50542800  0.75271400  0.00000000  1
  Al  Al32  1  0.24728600  0.75271400  0.50000000  1
  Al  Al33  1  0.75271400  0.24728600  0.50000000  1
  Al  Al34  1  0.75271400  0.24728600  0.00000000  1
  Al  Al35  1  0.24728600  0.75271400  0.00000000  1
  Al  Al36  1  0.14644700  0.00000000  0.75000000  1
  Al  Al37  1  0.85355300  0.00000000  0.25000000  1
  Al  Al38  1  0.00000000  0.14644700  0.75000000  1
  Al  Al39  1  0.00000000  0.85355300  0.25000000  1
  Al  Al40  1  0.85355300  0.85355300  0.75000000  1
  Al  Al41  1  0.14644700  0.14644700  0.25000000  1
  Al  Al42  1  0.33333300  0.66666700  0.62614300  1
  Al  Al43  1  0.66666700  0.33333300  0.37385700  1
  Al  Al44  1  0.66666700  0.33333300  0.12614300  1
  Al  Al45  1  0.66666700  0.33333300  0.87385700  1
  Al  Al46  1  0.33333300  0.66666700  0.87385700  1
  Al  Al47  1  0.33333300  0.66666700  0.12614300  1
  Al  Al48  1  0.33333300  0.66666700  0.37385700  1
  Al  Al49  1  0.66666700  0.33333300  0.62614300  1
  Al  Al50  1  0.25355300  0.00000000  0.52909700  1
  Al  Al51  1  0.74644700  0.00000000  0.47090300  1
  Al  Al52  1  0.00000000  0.25355300  0.52909700  1
  Al  Al53  1  0.74644700  0.00000000  0.02909700  1
  Al  Al54  1  0.00000000  0.25355300  0.97090300  1
  Al  Al55  1  0.00000000  0.74644700  0.47090300  1
  Al  Al56  1  0.25355300  0.00000000  0.97090300  1
  Al  Al57  1  0.00000000  0.74644700  0.02909700  1
  Al  Al58  1  0.74644700  0.74644700  0.52909700  1
  Al  Al59  1  0.25355300  0.25355300  0.47090300  1
  Al  Al60  1  0.25355300  0.25355300  0.02909700  1
  Al  Al61  1  0.74644700  0.74644700  0.97090300  1
  Al  Al62  1  0.15798700  0.39301200  0.66477100  1
  Al  Al63  1  0.84201300  0.60698800  0.33522900  1
  Al  Al64  1  0.60698800  0.76497500  0.66477100  1
  Al  Al65  1  0.84201300  0.60698800  0.16477100  1
  Al  Al66  1  0.39301200  0.15798700  0.83522900  1
  Al  Al67  1  0.39301200  0.23502500  0.33522900  1
  Al  Al68  1  0.15798700  0.39301200  0.83522900  1
  Al  Al69  1  0.60698800  0.84201300  0.16477100  1
  Al  Al70  1  0.23502500  0.84201300  0.66477100  1
  Al  Al71  1  0.39301200  0.23502500  0.16477100  1
  Al  Al72  1  0.76497500  0.60698800  0.83522900  1
  Al  Al73  1  0.76497500  0.15798700  0.33522900  1
  Al  Al74  1  0.60698800  0.76497500  0.83522900  1
  Al  Al75  1  0.23502500  0.39301200  0.16477100  1
  Al  Al76  1  0.60698800  0.84201300  0.33522900  1
  Al  Al77  1  0.39301200  0.15798700  0.66477100  1
  Al  Al78  1  0.76497500  0.15798700  0.16477100  1
  Al  Al79  1  0.23502500  0.39301200  0.33522900  1
  Al  Al80  1  0.23502500  0.84201300  0.83522900  1
  Al  Al81  1  0.76497500  0.60698800  0.66477100  1
  Al  Al82  1  0.84201300  0.23502500  0.83522900  1
  Al  Al83  1  0.15798700  0.76497500  0.16477100  1
  Al  Al84  1  0.15798700  0.76497500  0.33522900  1
  Al  Al85  1  0.84201300  0.23502500  0.66477100  1
loop_
_geom_bond_atom_site_label_1
_geom_bond_atom_site_label_2
_geom_bond_distance
_geom_bond_site_symmetry_2
Tb0 Ti2 3.503131 1_555
Tb0 Tb1 3.503905 1_555
Tb1 Ti3 3.503131 1_555
Tb2 Ti4 3.503131 1_555
Tb2 Tb5 3.503905 1_555
Tb3 Ti3 3.503131 1_555
Tb3 Tb6 3.503905 1_554
Tb4 Ti4 3.503131 1_555
Tb4 Tb7 3.503905 1_556
Tb5 Ti5 3.503131 1_555
Tb6 Ti2 3.503131 1_555
Tb7 Ti5 3.503131 1_555
Tb8 Ti6 3.503131 1_555
Tb8 Tb9 3.503905 1_555
Tb9 Ti7 3.503131 1_555
Tb10 Ti7 3.503131 1_555
Tb10 Tb11 3.503905 1_554
Tb11 Ti6 3.503131 1_555
Al0 Ti4 2.690856 1_555
Al0 Al68 2.769885 1_555
Al0 Al62 2.769885 1_555
Al0 Al80 2.828558 1_555
Al0 Al70 2.828558 1_555
Al0 Al42 2.837038 1_555
Al0 Al46 2.837038 1_555
Al0 Al10 2.880978 1_455
Al0 Tb2 3.096030 1_555
Al0 Tb4 3.096030 1_555
Al1 Ti5 2.690856 1_655
Al1 Al65 2.769885 1_555
Al1 Al63 2.769885 1_555
Al1 Al78 2.828558 1_555
Al1 Al73 2.828558 1_555
Al1 Al43 2.837038 1_555
Al1 Al44 2.837038 1_555
Al1 Al11 2.880978 1_655
Al1 Tb7 3.096030 1_655
Al1 Tb5 3.096030 1_655
Al2 Ti6 2.690866 1_555
Al2 Al74 2.769880 1_555
Al2 Al64 2.769880 1_555
Al2 Al62 2.828560 1_555
Al2 Al68 2.828560 1_555
Al2 Al42 2.837038 1_555
Al2 Al46 2.837038 1_555
Al2 Al7 2.880997 1_555
Al2 Tb11 3.096035 1_555
Al2 Tb8 3.096035 1_555
Al3 Ti2 2.690856 1_555
Al3 Al77 2.769885 1_555
Al3 Al66 2.769885 1_555
Al3 Al85 2.828558 1_555
Al3 Al82 2.828558 1_555
Al3 Al49 2.837038 1_555
Al3 Al45 2.837038 1_555
Al3 Al6 2.880978 1_545
Al3 Tb6 3.096030 1_555
Al3 Tb0 3.096030 1_555
Al4 Ti7 2.690866 1_555
Al4 Al67 2.769880 1_555
Al4 Al71 2.769880 1_555
Al4 Al65 2.828560 1_555
Al4 Al63 2.828560 1_555
Al4 Al43 2.837038 1_555
Al4 Al44 2.837038 1_555
Al4 Al9 2.880997 1_555
Al4 Tb10 3.096035 1_555
Al4 Tb9 3.096035 1_555
Al5 Ti3 2.690856 1_565
Al5 Al76 2.769885 1_555
Al5 Al69 2.769885 1_555
Al5 Al84 2.828558 1_555
Al5 Al83 2.828558 1_555
Al5 Al8 2.880978 1_565
Al5 Tb3 3.096030 1_565
Al5 Tb1 3.096030 1_565
Al6 Ti2 2.690866 1_565
Al6 Al80 2.769876 1_555
Al6 Al70 2.769876 1_555
Al6 Al64 2.828567 1_555
Al6 Al74 2.828567 1_555
Al6 Tb6 3.096030 1_565
Al6 Tb0 3.096030 1_565
Al7 Ti6 2.690866 1_555
Al7 Al72 2.769880 1_555
Al7 Al81 2.769880 1_555
Al7 Al77 2.828560 1_555
Al7 Tb8 3.096035 1_555
Al7 Tb11 3.096035 1_555
Al8 Ti3 2.690866 1_555
Al8 Tb3 3.096030 1_555
Al8 Tb1 3.096030 1_555
Al9 Ti7 2.690866 1_555
Al9 Tb10 3.096035 1_555
Al9 Tb9 3.096035 1_555
Al10 Ti4 2.690866 1_655
Al10 Al85 2.769876 1_555
Al10 Al82 2.769876 1_555
Al10 Al81 2.828567 1_555
Al10 Al72 2.828567 1_555
Al10 Al49 2.837038 1_555
Al10 Al45 2.837038 1_555
Al10 Tb2 3.096030 1_655
Al10 Tb4 3.096030 1_655
Al11 Ti5 2.690866 1_555
Al11 Al83 2.769876 1_555
Al11 Al84 2.769876 1_555
Al11 Al75 2.828567 1_555
Al11 Al79 2.828567 1_555
Al11 Al48 2.837038 1_555
Al11 Al47 2.837038 1_555
Al11 Tb7 3.096030 1_555
Al11 Tb5 3.096030 1_555
Al12 Ti1 2.702020 1_555
Al12 Ti3 2.714680 1_555
Al12 Al71 2.755745 1_555
Al12 Al83 2.755745 1_545
Al12 Al56 2.798443 1_554
Al12 Al57 2.905802 1_545
Al12 Al60 2.905802 1_555
Al12 Al39 2.926529 1_545
Al12 Al41 2.926529 1_555
Al12 Al20 3.016258 1_445
Al12 Al14 3.016258 1_555
Al12 Tb3 3.485222 1_555
Al13 Ti1 2.702020 1_656
Al13 Ti2 2.714680 1_555
Al13 Al74 2.755745 1_545
Al13 Al82 2.755745 1_555
Al13 Al53 2.798443 1_556
Al13 Al54 2.905802 1_655
Al13 Al61 2.905802 1_545
Al13 Al38 2.926529 1_655
Al13 Al40 2.926529 1_545
Al13 Al21 3.016258 1_655
Al13 Al17 3.016258 1_645
Al13 Tb6 3.485222 1_555
Al14 Ti1 2.702020 1_555
Al14 Ti5 2.714680 1_555
Al14 Al75 2.755745 1_555
Al14 Al78 2.755745 1_455
Al14 Al54 2.798443 1_554
Al14 Al53 2.905802 1_455
Al14 Al60 2.905802 1_555
Al14 Al37 2.926529 1_455
Al14 Al41 2.926529 1_555
Al14 Al20 3.016258 1_445
Al14 Tb7 3.485222 1_555
Al15 Ti0 2.702020 1_655
Al15 Ti2 2.714680 1_555
Al15 Al64 2.755745 1_545
Al15 Al85 2.755745 1_555
Al15 Al51 2.798443 1_555
Al15 Al52 2.905802 1_655
Al15 Al58 2.905802 1_545
Al15 Al38 2.926529 1_655
Al15 Al40 2.926529 1_545
Al15 Al22 3.016258 1_655
Al15 Al19 3.016258 1_645
Al15 Tb0 3.485222 1_555
Al16 Ti0 2.702020 1_555
Al16 Ti5 2.714680 1_555
Al16 Al79 2.755745 1_555
Al16 Al73 2.755745 1_455
Al16 Al52 2.798443 1_555
Al16 Al51 2.905802 1_455
Al16 Al59 2.905802 1_555
Al16 Al37 2.926529 1_455
Al16 Al41 2.926529 1_555
Al16 Al23 3.016258 1_445
Al16 Al18 3.016258 1_555
Al16 Tb5 3.485222 1_555
Al17 Ti1 2.702020 1_566
Al17 Ti4 2.714680 1_555
Al17 Al72 2.755745 1_455
Al17 Al80 2.755745 1_555
Al17 Al57 2.798443 1_556
Al17 Al56 2.905802 1_565
Al17 Al61 2.905802 1_455
Al17 Al36 2.926529 1_565
Al17 Al40 2.926529 1_455
Al17 Al21 3.016258 1_565
Al17 Tb4 3.485222 1_555
Al18 Ti0 2.702020 1_555
Al18 Ti3 2.714680 1_555
Al18 Al67 2.755745 1_555
Al18 Al84 2.755745 1_545
Al18 Al50 2.798443 1_555
Al18 Al55 2.905802 1_545
Al18 Al59 2.905802 1_555
Al18 Al39 2.926529 1_545
Al18 Al41 2.926529 1_555
Al18 Al23 3.016258 1_445
Al18 Tb1 3.485222 1_555
Al19 Ti0 2.702020 1_565
Al19 Ti4 2.714680 1_555
Al19 Al81 2.755745 1_455
Al19 Al70 2.755745 1_555
Al19 Al55 2.798443 1_555
Al19 Al50 2.905802 1_565
Al19 Al58 2.905802 1_455
Al19 Al36 2.926529 1_565
Al19 Al40 2.926529 1_455
Al19 Al22 3.016258 1_565
Al19 Tb2 3.485222 1_555
Al20 Ti1 2.702020 1_665
Al20 Ti7 2.714680 1_555
Al20 Al65 2.755745 1_555
Al20 Al69 2.755745 1_555
Al20 Al61 2.798443 1_554
Al20 Al53 2.905802 1_565
Al20 Al57 2.905802 1_655
Al20 Al39 2.926529 1_655
Al20 Al37 2.926529 1_565
Al20 Tb10 3.485222 1_555
Al21 Ti1 2.702020 1_556
Al21 Ti6 2.714680 1_555
Al21 Al68 2.755745 1_555
Al21 Al66 2.755745 1_555
Al21 Al60 2.798443 1_556
Al21 Al56 2.905802 1_555
Al21 Al54 2.905802 1_555
Al21 Al36 2.926529 1_555
Al21 Al38 2.926529 1_555
Al21 Tb11 3.485222 1_555
Al22 Ti0 2.702020 1_555
Al22 Ti6 2.714680 1_555
Al22 Al77 2.755745 1_555
Al22 Al62 2.755745 1_555
Al22 Al59 2.798443 1_555
Al22 Al50 2.905802 1_555
Al22 Al52 2.905802 1_555
Al22 Al36 2.926529 1_555
Al22 Al38 2.926529 1_555
Al22 Tb8 3.485222 1_555
Al23 Ti0 2.702020 1_665
Al23 Ti7 2.714680 1_555
Al23 Al63 2.755745 1_555
Al23 Al76 2.755745 1_555
Al23 Al58 2.798443 1_555
Al23 Al51 2.905802 1_565
Al23 Al55 2.905802 1_655
Al23 Al39 2.926529 1_655
Al23 Al37 2.926529 1_565
Al23 Tb9 3.485222 1_555
Al24 Al52 2.759361 1_555
Al24 Al59 2.759362 1_555
Al24 Al42 2.791932 1_555
Al24 Al48 2.791932 1_555
Al24 Al26 2.864723 1_555
Al24 Al32 2.864723 1_555
Al24 Al62 3.125340 1_555
Al24 Al79 3.125340 1_555
Al24 Tb5 3.129991 1_555
Al24 Tb8 3.129991 1_555
Al24 Tb9 3.426589 1_555
Al24 Tb2 3.426589 1_555
Al25 Al55 2.759361 1_655
Al25 Al58 2.759362 1_555
Al25 Al49 2.791932 1_555
Al25 Al43 2.791932 1_555
Al25 Al29 2.864723 1_555
Al25 Al33 2.864723 1_555
Al25 Al63 3.125340 1_555
Al25 Al81 3.125340 1_555
Al25 Tb2 3.129991 1_655
Al25 Tb9 3.129991 1_555
Al25 Tb8 3.426589 1_555
Al25 Tb5 3.426589 1_655
Al26 Al51 2.759361 1_565
Al26 Al58 2.759362 1_555
Al26 Al42 2.791932 1_555
Al26 Al48 2.791932 1_555
Al26 Al32 2.864723 1_555
Al26 Al76 3.125340 1_555
Al26 Al64 3.125340 1_555
Al26 Tb0 3.129991 1_565
Al26 Tb9 3.129991 1_555
Al26 Tb8 3.426589 1_555
Al26 Tb1 3.426589 1_565
Al27 Al57 2.759361 1_655
Al27 Al61 2.759362 1_554
Al27 Al45 2.791932 1_554
Al27 Al44 2.791932 1_555
Al27 Al28 2.864723 1_555
Al27 Al34 2.864723 1_555
Al27 Al65 3.125340 1_555
Al27 Al72 3.125340 1_554
Al27 Tb4 3.129991 1_654
Al27 Tb10 3.129991 1_555
Al27 Tb11 3.426589 1_554
Al27 Tb7 3.426589 1_655
Al28 Al56 2.759361 1_554
Al28 Al60 2.759362 1_555
Al28 Al45 2.791932 1_554
Al28 Al44 2.791932 1_555
Al28 Al34 2.864723 1_555
Al28 Al66 3.125340 1_554
Al28 Al71 3.125340 1_555
Al28 Tb3 3.129991 1_555
Al28 Tb11 3.129991 1_554
Al28 Tb10 3.426589 1_555
Al28 Tb6 3.426589 1_554
Al29 Al50 2.759361 1_555
Al29 Al59 2.759362 1_555
Al29 Al43 2.791932 1_555
Al29 Al49 2.791932 1_555
Al29 Al33 2.864723 1_555
Al29 Al77 3.125340 1_555
Al29 Al67 3.125340 1_555
Al29 Tb1 3.129991 1_555
Al29 Tb8 3.129991 1_555
Al29 Tb9 3.426589 1_555
Al29 Tb0 3.426589 1_555
Al30 Al54 2.759361 1_554
Al30 Al60 2.759362 1_555
Al30 Al46 2.791932 1_554
Al30 Al47 2.791932 1_555
Al30 Al31 2.864723 1_555
Al30 Al35 2.864723 1_555
Al30 Al68 3.125340 1_554
Al30 Al75 3.125340 1_555
Al30 Tb7 3.129991 1_555
Al30 Tb11 3.129991 1_554
Al30 Tb10 3.426589 1_555
Al30 Tb4 3.426589 1_554
Al31 Al53 2.759361 1_565
Al31 Al61 2.759362 1_554
Al31 Al46 2.791932 1_554
Al31 Al47 2.791932 1_555
Al31 Al35 2.864723 1_555
Al31 Al69 3.125340 1_555
Al31 Al74 3.125340 1_554
Al31 Tb6 3.129991 1_564
Al31 Tb10 3.129991 1_555
Al31 Tb11 3.426589 1_554
Al31 Tb3 3.426589 1_565
Al32 Al55 2.759362 1_555
Al32 Al50 2.759362 1_565
Al32 Al42 2.791926 1_555
Al32 Al48 2.791926 1_555
Al32 Al84 3.125340 1_555
Al32 Al70 3.125340 1_555
Al32 Tb2 3.129991 1_555
Al32 Tb1 3.129991 1_565
Al32 Tb5 3.426588 1_555
Al32 Tb0 3.426588 1_565
Al33 Al51 2.759362 1_555
Al33 Al52 2.759362 1_655
Al33 Al49 2.791926 1_555
Al33 Al43 2.791926 1_555
Al33 Al85 3.125340 1_555
Al33 Al73 3.125340 1_555
Al33 Tb5 3.129991 1_655
Al33 Tb0 3.129991 1_555
Al33 Tb2 3.426588 1_655
Al33 Tb1 3.426588 1_555
Al34 Al53 2.759362 1_555
Al34 Al54 2.759362 1_654
Al34 Al45 2.791926 1_554
Al34 Al44 2.791926 1_555
Al34 Al78 3.125340 1_555
Al34 Al82 3.125340 1_554
Al34 Tb6 3.129991 1_554
Al34 Tb7 3.129991 1_655
Al34 Tb4 3.426588 1_654
Al34 Tb3 3.426588 1_555
Al35 Al57 2.759362 1_555
Al35 Al56 2.759362 1_564
Al35 Al46 2.791926 1_554
Al35 Al47 2.791926 1_555
Al35 Al83 3.125340 1_555
Al35 Al80 3.125340 1_554
Al35 Tb4 3.129991 1_554
Al35 Tb3 3.129991 1_565
Al35 Tb7 3.426588 1_555
Al35 Tb6 3.426588 1_564
Al36 Ti4 2.622499 1_545
Al36 Ti6 2.622499 1_555
Al36 Al40 2.814914 1_445
Al36 Al38 2.814914 1_555
Al36 Al66 2.841345 1_555
Al36 Al77 2.841345 1_555
Al36 Al70 2.841345 1_545
Al36 Al80 2.841345 1_545
Al37 Ti5 2.622499 1_655
Al37 Ti7 2.622499 1_545
Al37 Al41 2.814914 1_655
Al37 Al39 2.814914 1_645
Al37 Al69 2.841345 1_545
Al37 Al76 2.841345 1_545
Al37 Al73 2.841345 1_555
Al37 Al78 2.841345 1_555
Al38 Ti2 2.622499 1_455
Al38 Ti6 2.622499 1_555
Al38 Al40 2.814914 1_445
Al38 Al62 2.841345 1_555
Al38 Al68 2.841345 1_555
Al38 Al82 2.841345 1_455
Al38 Al85 2.841345 1_455
Al39 Ti3 2.622499 1_565
Al39 Ti7 2.622499 1_455
Al39 Al41 2.814914 1_565
Al39 Al63 2.841345 1_455
Al39 Al65 2.841345 1_455
Al39 Al84 2.841345 1_555
Al39 Al83 2.841345 1_555
Al40 Ti4 2.622500 1_655
Al40 Ti2 2.622500 1_565
Al40 Al81 2.841345 1_555
Al40 Al74 2.841345 1_555
Al40 Al72 2.841345 1_555
Al40 Al64 2.841345 1_555
Al41 Ti3 2.622500 1_555
Al41 Ti5 2.622500 1_555
Al41 Al75 2.841345 1_555
Al41 Al79 2.841345 1_555
Al41 Al67 2.841345 1_555
Al41 Al71 2.841345 1_555
Al42 Al70 2.752104 1_555
Al42 Al62 2.752112 1_555
Al42 Al64 2.752114 1_555
Al42 Al6 2.837038 1_555
Al42 Tb2 3.264884 1_555
Al42 Tb0 3.264885 1_565
Al42 Tb8 3.264894 1_555
Al43 Al73 2.752104 1_555
Al43 Al63 2.752112 1_555
Al43 Al67 2.752114 1_555
Al43 Al8 2.837038 1_555
Al43 Tb5 3.264884 1_655
Al43 Tb1 3.264885 1_555
Al43 Tb9 3.264894 1_555
Al44 Al78 2.752104 1_555
Al44 Al65 2.752112 1_555
Al44 Al71 2.752114 1_555
Al44 Al8 2.837038 1_555
Al44 Tb7 3.264884 1_655
Al44 Tb3 3.264885 1_555
Al44 Tb10 3.264894 1_555
Al45 Al82 2.752104 1_555
Al45 Al66 2.752112 1_555
Al45 Al72 2.752114 1_555
Al45 Al7 2.837038 1_555
Al45 Tb6 3.264884 1_555
Al45 Tb4 3.264885 1_655
Al45 Tb11 3.264894 1_555
Al46 Al80 2.752104 1_555
Al46 Al68 2.752112 1_555
Al46 Al74 2.752114 1_555
Al46 Al6 2.837038 1_555
Al46 Tb4 3.264884 1_555
Al46 Tb6 3.264885 1_565
Al46 Tb11 3.264894 1_555
Al47 Al83 2.752104 1_555
Al47 Al69 2.752112 1_555
Al47 Al75 2.752114 1_555
Al47 Al5 2.837038 1_555
Al47 Al9 2.837038 1_555
Al47 Tb3 3.264884 1_565
Al47 Tb7 3.264885 1_555
Al47 Tb10 3.264894 1_555
Al48 Al84 2.752104 1_555
Al48 Al76 2.752112 1_555
Al48 Al79 2.752114 1_555
Al48 Al5 2.837038 1_555
Al48 Al9 2.837038 1_555
Al48 Tb1 3.264884 1_565
Al48 Tb5 3.264885 1_555
Al48 Tb9 3.264894 1_555
Al49 Al85 2.752104 1_555
Al49 Al77 2.752112 1_555
Al49 Al81 2.752114 1_555
Al49 Al7 2.837038 1_555
Al49 Tb0 3.264884 1_555
Al49 Tb2 3.264885 1_655
Al49 Tb8 3.264894 1_555
Al50 Ti0 2.861232 1_555
Al50 Al77 2.934013 1_555
Al50 Al70 2.934014 1_545
Al50 Al55 2.999037 1_545
Al50 Al59 2.999037 1_555
Al50 Tb1 3.278013 1_555
Al50 Tb0 3.300223 1_555
Al51 Ti0 2.861232 1_655
Al51 Al76 2.934013 1_545
Al51 Al73 2.934014 1_555
Al51 Al52 2.999037 1_655
Al51 Al58 2.999037 1_545
Al51 Tb0 3.278013 1_555
Al51 Tb1 3.300223 1_555
Al52 Ti0 2.861232 1_555
Al52 Al62 2.934013 1_555
Al52 Al85 2.934014 1_455
Al52 Al59 2.999037 1_555
Al52 Tb5 3.278013 1_555
Al52 Tb2 3.300223 1_555
Al53 Ti1 2.861232 1_655
Al53 Al69 2.934013 1_545
Al53 Al78 2.934014 1_555
Al53 Al54 2.999037 1_654
Al53 Al61 2.999037 1_544
Al53 Tb6 3.278013 1_554
Al53 Tb3 3.300223 1_555
Al54 Ti1 2.861232 1_556
Al54 Al68 2.934013 1_555
Al54 Al82 2.934014 1_455
Al54 Al60 2.999037 1_556
Al54 Tb7 3.278013 1_556
Al54 Tb4 3.300223 1_555
Al55 Ti0 2.861232 1_565
Al55 Al63 2.934013 1_455
Al55 Al84 2.934014 1_555
Al55 Al58 2.999037 1_455
Al55 Tb2 3.278013 1_555
Al55 Tb5 3.300223 1_555
Al56 Ti1 2.861232 1_556
Al56 Al66 2.934013 1_555
Al56 Al80 2.934014 1_545
Al56 Al57 2.999037 1_546
Al56 Al60 2.999037 1_556
Al56 Tb3 3.278013 1_556
Al56 Tb6 3.300223 1_555
Al57 Ti1 2.861232 1_565
Al57 Al65 2.934013 1_455
Al57 Al83 2.934014 1_555
Al57 Al61 2.999037 1_454
Al57 Tb4 3.278013 1_554
Al57 Tb7 3.300223 1_555
Al58 Ti0 2.861231 1_665
Al58 Al64 2.934014 1_555
Al58 Al81 2.934014 1_555
Al58 Tb9 3.278013 1_555
Al58 Tb8 3.300222 1_555
Al59 Ti0 2.861231 1_555
Al59 Al79 2.934014 1_555
Al59 Al67 2.934014 1_555
Al59 Tb8 3.278013 1_555
Al59 Tb9 3.300222 1_555
Al60 Ti1 2.861231 1_555
Al60 Al71 2.934014 1_555
Al60 Al75 2.934014 1_555
Al60 Tb11 3.278013 1_554
Al60 Tb10 3.300222 1_555
Al61 Ti1 2.861231 1_666
Al61 Al72 2.934014 1_555
Al61 Al74 2.934014 1_555
Al61 Tb10 3.278013 1_556
Al61 Tb11 3.300222 1_555
Al62 Ti6 2.722610 1_555
Al62 Al85 3.036729 1_455
Al62 Al68 3.039489 1_555
Al62 Tb2 3.093255 1_555
Al62 Tb8 3.349581 1_555
Al63 Ti7 2.722610 1_555
Al63 Al84 3.036729 1_655
Al63 Al65 3.039489 1_555
Al63 Tb5 3.093255 1_655
Al63 Tb9 3.349581 1_555
Al64 Ti2 2.722610 1_565
Al64 Al81 3.036729 1_555
Al64 Al74 3.039489 1_555
Al64 Tb8 3.093254 1_555
Al64 Tb0 3.349581 1_565
Al65 Ti7 2.722610 1_555
Al65 Al83 3.036729 1_655
Al65 Tb7 3.093255 1_655
Al65 Tb10 3.349581 1_555
Al66 Ti6 2.722610 1_555
Al66 Al7 2.828560 1_555
Al66 Al80 3.036729 1_545
Al66 Al77 3.039489 1_555
Al66 Tb6 3.093255 1_555
Al66 Tb11 3.349581 1_555
Al67 Ti3 2.722610 1_555
Al67 Al8 2.828567 1_555
Al67 Al79 3.036729 1_555
Al67 Al71 3.039489 1_555
Al67 Tb9 3.093254 1_555
Al67 Tb1 3.349581 1_555
Al68 Ti6 2.722610 1_555
Al68 Al82 3.036729 1_455
Al68 Tb4 3.093255 1_555
Al68 Tb11 3.349581 1_555
Al69 Ti7 2.722610 1_555
Al69 Al9 2.828560 1_555
Al69 Al78 3.036729 1_565
Al69 Al76 3.039489 1_555
Al69 Tb3 3.093255 1_565
Al69 Tb10 3.349581 1_555
Al70 Ti4 2.722610 1_555
Al70 Al77 3.036729 1_565
Al70 Al80 3.039489 1_555
Al70 Tb0 3.093254 1_565
Al70 Tb2 3.349581 1_555
Al71 Ti3 2.722610 1_555
Al71 Al8 2.828567 1_555
Al71 Al75 3.036729 1_555
Al71 Tb10 3.093254 1_555
Al71 Tb3 3.349581 1_555
Al72 Ti4 2.722610 1_655
Al72 Al74 3.036729 1_555
Al72 Al81 3.039489 1_555
Al72 Tb11 3.093254 1_555
Al72 Tb4 3.349581 1_655
Al73 Ti5 2.722610 1_655
Al73 Al8 2.769876 1_555
Al73 Al76 3.036729 1_545
Al73 Al78 3.039489 1_555
Al73 Tb1 3.093254 1_555
Al73 Tb5 3.349581 1_655
Al74 Ti2 2.722610 1_565
Al74 Tb11 3.093254 1_555
Al74 Tb6 3.349581 1_565
Al75 Ti5 2.722610 1_555
Al75 Al9 2.769880 1_555
Al75 Al79 3.039489 1_555
Al75 Tb10 3.093254 1_555
Al75 Tb7 3.349581 1_555
Al76 Ti7 2.722610 1_555
Al76 Al9 2.828560 1_555
Al76 Tb1 3.093255 1_565
Al76 Tb9 3.349581 1_555
Al77 Ti6 2.722610 1_555
Al77 Tb0 3.093255 1_555
Al77 Tb8 3.349581 1_555
Al78 Ti5 2.722610 1_655
Al78 Al8 2.769876 1_555
Al78 Tb3 3.093254 1_555
Al78 Tb7 3.349581 1_655
Al79 Ti5 2.722610 1_555
Al79 Al9 2.769880 1_555
Al79 Tb9 3.093254 1_555
Al79 Tb5 3.349581 1_555
Al80 Ti4 2.722610 1_555
Al80 Tb6 3.093254 1_565
Al80 Tb4 3.349581 1_555
Al81 Ti4 2.722610 1_655
Al81 Tb8 3.093254 1_555
Al81 Tb2 3.349581 1_655
Al82 Ti2 2.722610 1_555
Al82 Al85 3.039489 1_555
Al82 Tb4 3.093254 1_655
Al82 Tb6 3.349581 1_555
Al83 Ti3 2.722610 1_565
Al83 Al84 3.039489 1_555
Al83 Tb7 3.093254 1_555
Al83 Tb3 3.349581 1_565
Al84 Ti3 2.722610 1_565
Al84 Tb5 3.093254 1_555
Al84 Tb1 3.349581 1_565
Al85 Ti2 2.722610 1_555
Al85 Tb2 3.093254 1_655
Al85 Tb0 3.349581 1_555
