# generated using pymatgen
data_SrO10
_symmetry_space_group_name_H-M   'P 1'
_cell_length_a   5.75881000
_cell_length_b   5.75881000
_cell_length_c   5.08498100
_cell_angle_alpha   90.00000000
_cell_angle_beta   90.00000000
_cell_angle_gamma   90.00000000
_symmetry_Int_Tables_number   1
_chemical_formula_structural   SrO10
_chemical_formula_sum   'Sr1 O10'
_cell_volume   168.63776384
_cell_formula_units_Z   1
loop_
 _symmetry_equiv_pos_site_id
 _symmetry_equiv_pos_as_xyz
  1  'x, y, z'
loop_
 _atom_site_type_symbol
 _atom_site_label
 _atom_site_symmetry_multiplicity
 _atom_site_fract_x
 _atom_site_fract_y
 _atom_site_fract_z
 _atom_site_occupancy
  Sr  Sr0  1  0.50000000  0.50000000  0.00000000  1
  O  O0  1  0.00000000  0.00000000  0.87654200  1
  O  O1  1  0.00000000  0.00000000  0.12345800  1
  O  O2  1  0.71247100  0.71247100  0.62584200  1
  O  O3  1  0.28752900  0.28752900  0.62584200  1
  O  O4  1  0.71247100  0.28752900  0.62584200  1
  O  O5  1  0.28752900  0.71247100  0.62584200  1
  O  O6  1  0.28752900  0.28752900  0.37415800  1
  O  O7  1  0.71247100  0.71247100  0.37415800  1
  O  O8  1  0.28752900  0.71247100  0.37415800  1
  O  O9  1  0.71247100  0.28752900  0.37415800  1
loop_
_geom_bond_atom_site_label_1
_geom_bond_atom_site_label_2
_geom_bond_distance
_geom_bond_site_symmetry_2
O0 O1 1.255563 1_556
O2 O7 1.279808 1_555
O2 Sr0 2.571795 1_556
O3 O6 1.279808 1_555
O3 Sr0 2.571795 1_556
O4 O9 1.279808 1_555
O4 Sr0 2.571795 1_556
O5 O8 1.279808 1_555
O5 Sr0 2.571795 1_556
O6 Sr0 2.571795 1_555
O7 Sr0 2.571795 1_555
O8 Sr0 2.571795 1_555
O9 Sr0 2.571795 1_555
