# generated using pymatgen
data_Li4Zn(PS4)2
_symmetry_space_group_name_H-M   'P 1'
_cell_length_a   5.74672700
_cell_length_b   9.54728971
_cell_length_c   11.52904082
_cell_angle_alpha   90.08105299
_cell_angle_beta   90.11006383
_cell_angle_gamma   90.02210265
_symmetry_Int_Tables_number   1
_chemical_formula_structural   Li4Zn(PS4)2
_chemical_formula_sum   'Li8 Zn2 P4 S16'
_cell_volume   632.54667311
_cell_formula_units_Z   2
loop_
 _symmetry_equiv_pos_site_id
 _symmetry_equiv_pos_as_xyz
  1  'x, y, z'
loop_
 _atom_site_type_symbol
 _atom_site_label
 _atom_site_symmetry_multiplicity
 _atom_site_fract_x
 _atom_site_fract_y
 _atom_site_fract_z
 _atom_site_occupancy
  Li  Li0  1  0.99780200  0.24794400  0.24379500  1
  Li  Li1  1  0.49859400  0.75016700  0.50542400  1
  Li  Li2  1  0.50018300  0.01252400  0.75255700  1
  Li  Li3  1  0.50209900  0.98997000  0.24837300  1
  Li  Li4  1  0.99628700  0.49406700  0.50169100  1
  Li  Li5  1  0.00262600  0.50765100  0.99644100  1
  Li  Li6  1  0.50482600  0.49241300  0.75302500  1
  Li  Li7  1  0.49428800  0.50637100  0.24841900  1
  Zn  Zn0  1  0.99662300  0.99266800  0.99844100  1
  Zn  Zn1  1  0.00354600  0.00627900  0.50094500  1
  P  P0  1  0.49594400  0.24815500  0.00445600  1
  P  P1  1  0.50420000  0.25157800  0.49438200  1
  P  P2  1  0.00109600  0.75148500  0.74780800  1
  P  P3  1  0.99935000  0.74873800  0.25350500  1
  S  S0  1  0.71710100  0.13266500  0.60052800  1
  S  S1  1  0.71575400  0.12201900  0.10885300  1
  S  S2  1  0.21584600  0.63562700  0.36066300  1
  S  S3  1  0.21822000  0.64039400  0.84835500  1
  S  S4  1  0.28589400  0.36475900  0.11202000  1
  S  S5  1  0.30035600  0.36496300  0.60044700  1
  S  S6  1  0.78808300  0.87108400  0.85338300  1
  S  S7  1  0.78870600  0.87204700  0.36391800  1
  S  S8  1  0.27875200  0.12865500  0.90092500  1
  S  S9  1  0.28503100  0.12651400  0.38869600  1
  S  S10  1  0.78334300  0.63558600  0.64295100  1
  S  S11  1  0.78845300  0.63509600  0.15082800  1
  S  S12  1  0.70605700  0.35861700  0.89969800  1
  S  S13  1  0.71204900  0.36507800  0.38422000  1
  S  S14  1  0.21448700  0.87715100  0.63939900  1
  S  S15  1  0.20440700  0.86973500  0.14584900  1
loop_
_geom_bond_atom_site_label_1
_geom_bond_atom_site_label_2
_geom_bond_distance
_geom_bond_site_symmetry_2
Li0 S4 2.511156 1_655
Li0 S1 2.544883 1_555
Li0 S13 2.564141 1_555
Li0 S9 2.618353 1_655
Li1 S10 2.526801 1_555
Li1 S14 2.554834 1_555
Li1 S2 2.569927 1_555
Li1 S7 2.609490 1_555
Li2 S8 2.403871 1_555
Li2 S6 2.431218 1_545
Li2 S0 2.440225 1_555
Li2 S14 2.460352 1_545
Li3 S15 2.372426 1_555
Li3 S1 2.386719 1_565
Li3 S7 2.398354 1_555
Li3 S9 2.424006 1_565
Li4 S5 2.422191 1_655
Li4 S10 2.445009 1_555
Li4 S13 2.450334 1_555
Li4 S2 2.464748 1_655
Li5 S3 2.463541 1_555
Li5 S12 2.481845 1_455
Li5 S11 2.483335 1_456
Li5 S4 2.507028 1_556
Li6 S12 2.414176 1_555
Li6 S3 2.433334 1_555
Li6 S5 2.437328 1_555
Li6 S10 2.460032 1_555
Li7 S11 2.375638 1_555
Li7 S4 2.391767 1_555
Li7 S2 2.400593 1_555
Li7 S13 2.415941 1_555
P0 S12 2.009248 1_554
P0 S4 2.058440 1_555
P0 S8 2.067258 1_554
P0 S1 2.119896 1_555
P1 S5 2.010511 1_555
P1 S13 2.054926 1_555
P1 S0 2.069458 1_555
P1 S9 2.117902 1_555
P2 S3 2.006118 1_555
P2 S10 2.059389 1_455
P2 S6 2.070434 1_455
P2 S14 2.124708 1_555
P3 S11 2.009273 1_555
P3 S2 2.058950 1_655
P3 S15 2.066941 1_655
P3 S7 2.115301 1_555
S0 Zn1 2.342798 1_655
S1 Zn0 2.399109 1_544
S6 Zn0 2.359291 1_555
S7 Zn1 2.376546 1_665
S8 Zn0 2.363844 1_445
S9 Zn1 2.370648 1_555
S14 Zn1 2.352999 1_565
S15 Zn0 2.385472 1_454
