# generated using pymatgen
data_Dy2Al3Cu
_symmetry_space_group_name_H-M   'P 1'
_cell_length_a   5.38467209
_cell_length_b   5.38467209
_cell_length_c   5.38467115
_cell_angle_alpha   61.52558561
_cell_angle_beta   61.52558561
_cell_angle_gamma   61.52559693
_symmetry_Int_Tables_number   1
_chemical_formula_structural   Dy2Al3Cu
_chemical_formula_sum   'Dy2 Al3 Cu1'
_cell_volume   114.17835958
_cell_formula_units_Z   1
loop_
 _symmetry_equiv_pos_site_id
 _symmetry_equiv_pos_as_xyz
  1  'x, y, z'
loop_
 _atom_site_type_symbol
 _atom_site_label
 _atom_site_symmetry_multiplicity
 _atom_site_fract_x
 _atom_site_fract_y
 _atom_site_fract_z
 _atom_site_occupancy
  Dy  Dy0  1  0.62348029  0.62348029  0.62348029  1
  Dy  Dy1  1  0.37651971  0.37651971  0.37651971  1
  Al  Al0  1  0.00000000  0.50000000  -0.00000000  1
  Al  Al1  1  0.50000000  0.00000000  -0.00000000  1
  Al  Al2  1  0.00000000  0.00000000  0.50000000  1
  Cu  Cu0  1  0.00000000  0.00000000  -0.00000000  1
loop_
_geom_bond_atom_site_label_1
_geom_bond_atom_site_label_2
_geom_bond_distance
_geom_bond_site_symmetry_2
Dy0 Dy1 3.219273 1_555
Dy0 Dy1 3.373676 1_556
Dy0 Dy1 3.373677 1_655
Dy0 Dy1 3.373677 1_565
Al0 Cu0 2.692336 1_565
Al0 Cu0 2.692336 1_555
Al0 Al2 2.754179 1_555
Al0 Al2 2.754179 1_564
Al0 Al1 2.754179 1_555
Al0 Al1 2.754179 1_465
Al0 Dy0 3.164137 1_454
Al0 Dy1 3.164137 1_555
Al0 Dy1 3.190051 1_554
Al0 Dy0 3.190051 1_455
Al0 Dy1 3.190052 1_455
Al0 Dy0 3.190052 1_554
Al1 Cu0 2.692336 1_655
Al1 Cu0 2.692336 1_555
Al1 Al2 2.754179 1_555
Al1 Al2 2.754179 1_654
Al1 Dy0 3.164137 1_544
Al1 Dy1 3.164137 1_555
Al1 Dy1 3.190051 1_554
Al1 Dy0 3.190051 1_545
Al1 Dy1 3.190052 1_545
Al1 Dy0 3.190052 1_554
Al2 Cu0 2.692336 1_555
Al2 Cu0 2.692336 1_556
Al2 Dy0 3.164137 1_445
Al2 Dy1 3.164137 1_555
Al2 Dy1 3.190052 1_455
Al2 Dy0 3.190052 1_455
Al2 Dy0 3.190052 1_545
Al2 Dy1 3.190052 1_545
Cu0 Dy1 3.229694 1_554
Cu0 Dy0 3.229694 1_445
Cu0 Dy0 3.229694 1_544
Cu0 Dy1 3.229694 1_455
Cu0 Dy1 3.229694 1_545
Cu0 Dy0 3.229694 1_454
