# generated using pymatgen
data_SmCd11
_symmetry_space_group_name_H-M   'P 1'
_cell_length_a   9.32185955
_cell_length_b   9.32186058
_cell_length_c   9.32186162
_cell_angle_alpha   90.00000000
_cell_angle_beta   90.00000000
_cell_angle_gamma   90.00000000
_symmetry_Int_Tables_number   1
_chemical_formula_structural   SmCd11
_chemical_formula_sum   'Sm3 Cd33'
_cell_volume   810.04250900
_cell_formula_units_Z   3
loop_
 _symmetry_equiv_pos_site_id
 _symmetry_equiv_pos_as_xyz
  1  'x, y, z'
loop_
 _atom_site_type_symbol
 _atom_site_label
 _atom_site_symmetry_multiplicity
 _atom_site_fract_x
 _atom_site_fract_y
 _atom_site_fract_z
 _atom_site_occupancy
  Sm  Sm0  1  0.50000000  0.00000000  0.00000000  1
  Sm  Sm1  1  0.00000000  0.00000000  0.50000000  1
  Sm  Sm2  1  0.00000000  0.50000000  0.00000000  1
  Cd  Cd0  1  0.50000000  0.50000000  0.50000000  1
  Cd  Cd1  1  0.15722610  0.15722810  0.84276990  1
  Cd  Cd2  1  0.15722610  0.84277190  0.15723010  1
  Cd  Cd3  1  0.84277390  0.15722810  0.15723010  1
  Cd  Cd4  1  0.84277390  0.84277190  0.84276990  1
  Cd  Cd5  1  0.84277390  0.84277190  0.15723010  1
  Cd  Cd6  1  0.84277390  0.15722810  0.84276990  1
  Cd  Cd7  1  0.15722610  0.84277190  0.84276990  1
  Cd  Cd8  1  0.15722610  0.15722810  0.15723010  1
  Cd  Cd9  1  0.00000000  0.34488222  0.65511578  1
  Cd  Cd10  1  0.34488122  0.34488322  0.00000000  1
  Cd  Cd11  1  0.34488122  0.00000000  0.65511478  1
  Cd  Cd12  1  0.00000000  0.65511778  0.34488422  1
  Cd  Cd13  1  0.34488122  0.65511678  0.00000000  1
  Cd  Cd14  1  0.34488122  0.00000000  0.34488522  1
  Cd  Cd15  1  0.00000000  0.34488222  0.34488422  1
  Cd  Cd16  1  0.65511878  0.34488322  0.00000000  1
  Cd  Cd17  1  0.65511878  0.00000000  0.34488522  1
  Cd  Cd18  1  0.00000000  0.65511778  0.65511578  1
  Cd  Cd19  1  0.65511878  0.65511678  0.00000000  1
  Cd  Cd20  1  0.65511878  0.00000000  0.65511478  1
  Cd  Cd21  1  0.50000000  0.26584683  0.73415217  1
  Cd  Cd22  1  0.26584483  0.26584583  0.50000000  1
  Cd  Cd23  1  0.26584483  0.50000000  0.73415217  1
  Cd  Cd24  1  0.50000000  0.73415317  0.26584783  1
  Cd  Cd25  1  0.26584483  0.73415417  0.50000000  1
  Cd  Cd26  1  0.26584483  0.50000000  0.26584783  1
  Cd  Cd27  1  0.50000000  0.26584683  0.26584783  1
  Cd  Cd28  1  0.73415517  0.26584583  0.50000000  1
  Cd  Cd29  1  0.73415517  0.50000000  0.26584783  1
  Cd  Cd30  1  0.50000000  0.73415317  0.73415217  1
  Cd  Cd31  1  0.73415517  0.73415417  0.50000000  1
  Cd  Cd32  1  0.73415517  0.50000000  0.73415217  1
loop_
_geom_bond_atom_site_label_1
_geom_bond_atom_site_label_2
_geom_bond_distance
_geom_bond_site_symmetry_2
Cd0 Cd30 3.086859 1_555
Cd0 Cd24 3.086859 1_555
Cd0 Cd21 3.086859 1_555
Cd0 Cd27 3.086859 1_555
Cd0 Cd32 3.086872 1_555
Cd0 Cd29 3.086872 1_555
Cd0 Cd26 3.086872 1_555
Cd0 Cd23 3.086872 1_555
Cd0 Cd28 3.086885 1_555
Cd0 Cd31 3.086885 1_555
Cd0 Cd22 3.086885 1_555
Cd0 Cd25 3.086885 1_555
Cd1 Cd9 2.875430 1_555
Cd1 Cd11 2.875451 1_555
Cd1 Cd10 2.875461 1_556
Cd1 Cd6 2.931279 1_455
Cd1 Cd7 2.931317 1_545
Cd1 Cd8 2.931354 1_556
Cd1 Cd22 3.501436 1_555
Cd1 Cd23 3.501453 1_555
Cd1 Cd21 3.501470 1_555
Cd1 Sm1 3.808661 1_555
Cd1 Sm2 3.808684 1_556
Cd1 Sm0 3.808706 1_556
Cd2 Cd5 2.931279 1_455
Cd2 Cd8 2.931317 1_565
Cd2 Cd7 2.931354 1_554
Cd2 Cd25 3.501436 1_555
Cd2 Cd26 3.501453 1_555
Cd2 Cd24 3.501470 1_555
Cd2 Sm1 3.808661 1_565
Cd2 Sm2 3.808684 1_555
Cd2 Sm0 3.808706 1_565
Cd3 Cd8 2.931279 1_655
Cd3 Cd5 2.931317 1_545
Cd3 Cd6 2.931354 1_554
Cd3 Sm1 3.808661 1_655
Cd3 Sm2 3.808684 1_655
Cd3 Sm0 3.808706 1_555
Cd4 Cd7 2.931279 1_655
Cd4 Cd6 2.931317 1_565
Cd4 Cd5 2.931354 1_556
Cd4 Sm1 3.808661 1_665
Cd4 Sm2 3.808684 1_656
Cd4 Sm0 3.808706 1_566
Cd5 Sm1 3.808661 1_665
Cd5 Sm2 3.808684 1_655
Cd5 Sm0 3.808706 1_565
Cd6 Cd9 2.875430 1_655
Cd6 Sm1 3.808661 1_655
Cd6 Sm2 3.808684 1_656
Cd6 Sm0 3.808706 1_556
Cd7 Sm1 3.808661 1_565
Cd7 Sm2 3.808684 1_556
Cd7 Sm0 3.808706 1_566
Cd8 Sm1 3.808661 1_555
Cd8 Sm2 3.808684 1_555
Cd8 Sm0 3.808706 1_555
Cd9 Sm1 3.525151 1_555
Cd9 Sm2 3.525176 1_556
Cd10 Cd8 2.875461 1_555
Cd10 Cd13 2.891954 1_555
Cd10 Cd16 2.891991 1_555
Cd10 Cd23 2.962285 1_554
Cd10 Cd26 2.962285 1_555
Cd10 Cd27 2.962294 1_555
Cd10 Cd21 2.962294 1_554
Cd10 Sm2 3.525146 1_555
Cd10 Sm0 3.525171 1_555
Cd11 Cd7 2.875451 1_545
Cd11 Cd14 2.891917 1_555
Cd11 Cd20 2.891991 1_555
Cd11 Cd25 2.962260 1_545
Cd11 Cd22 2.962260 1_555
Cd11 Cd21 2.962288 1_555
Cd11 Cd30 2.962288 1_545
Cd11 Sm1 3.525138 1_555
Cd11 Sm0 3.525188 1_556
Cd12 Cd2 2.875430 1_555
Cd12 Cd5 2.875430 1_455
Cd12 Cd18 2.891936 1_555
Cd12 Cd15 2.891973 1_555
Cd12 Cd31 2.962257 1_455
Cd12 Cd25 2.962257 1_555
Cd12 Cd26 2.962266 1_555
Cd12 Cd29 2.962266 1_455
Cd12 Sm1 3.525151 1_565
Cd12 Sm2 3.525176 1_555
Cd13 Cd7 2.875461 1_554
Cd13 Cd2 2.875461 1_555
Cd13 Cd19 2.891991 1_555
Cd13 Cd23 2.962285 1_554
Cd13 Cd26 2.962285 1_555
Cd13 Cd30 2.962294 1_554
Cd13 Cd24 2.962294 1_555
Cd13 Sm2 3.525146 1_555
Cd13 Sm0 3.525171 1_565
Cd14 Cd2 2.875451 1_545
Cd14 Cd8 2.875451 1_555
Cd14 Cd17 2.891991 1_555
Cd14 Cd25 2.962260 1_545
Cd14 Cd22 2.962260 1_555
Cd14 Cd27 2.962288 1_555
Cd14 Cd24 2.962288 1_545
Cd14 Sm1 3.525138 1_555
Cd14 Sm0 3.525188 1_555
Cd15 Cd3 2.875430 1_455
Cd15 Cd8 2.875430 1_555
Cd15 Cd9 2.891936 1_555
Cd15 Cd28 2.962257 1_455
Cd15 Cd22 2.962257 1_555
Cd15 Cd26 2.962266 1_555
Cd15 Cd29 2.962266 1_455
Cd15 Sm1 3.525151 1_555
Cd15 Sm2 3.525176 1_555
Cd16 Cd6 2.875461 1_554
Cd16 Cd3 2.875461 1_555
Cd16 Cd19 2.891954 1_555
Cd16 Cd32 2.962285 1_554
Cd16 Cd29 2.962285 1_555
Cd16 Cd27 2.962294 1_555
Cd16 Cd21 2.962294 1_554
Cd16 Sm2 3.525146 1_655
Cd16 Sm0 3.525171 1_555
Cd17 Cd5 2.875451 1_545
Cd17 Cd3 2.875451 1_555
Cd17 Cd20 2.891917 1_555
Cd17 Cd31 2.962260 1_545
Cd17 Cd28 2.962260 1_555
Cd17 Cd27 2.962288 1_555
Cd17 Cd24 2.962288 1_545
Cd17 Sm1 3.525138 1_655
Cd17 Sm0 3.525188 1_555
Cd18 Cd4 2.875430 1_455
Cd18 Cd7 2.875430 1_555
Cd18 Cd9 2.891973 1_555
Cd18 Cd25 2.962257 1_555
Cd18 Cd31 2.962257 1_455
Cd18 Cd23 2.962266 1_555
Cd18 Cd32 2.962266 1_455
Cd18 Sm1 3.525151 1_565
Cd18 Sm2 3.525176 1_556
Cd19 Cd5 2.875461 1_555
Cd19 Cd4 2.875461 1_554
Cd19 Cd32 2.962285 1_554
Cd19 Cd29 2.962285 1_555
Cd19 Cd30 2.962294 1_554
Cd19 Cd24 2.962294 1_555
Cd19 Sm2 3.525146 1_655
Cd19 Sm0 3.525171 1_565
Cd20 Cd4 2.875451 1_545
Cd20 Cd6 2.875451 1_555
Cd20 Cd31 2.962260 1_545
Cd20 Cd28 2.962260 1_555
Cd20 Cd21 2.962288 1_555
Cd20 Cd30 2.962288 1_545
Cd20 Sm1 3.525138 1_655
Cd20 Sm0 3.525188 1_556
Cd21 Cd28 3.086872 1_555
Cd21 Cd22 3.086872 1_555
Cd21 Cd32 3.086878 1_555
Cd21 Cd23 3.086878 1_555
Cd21 Cd6 3.501470 1_555
Cd21 Sm0 3.504693 1_556
Cd22 Cd9 2.962257 1_555
Cd22 Cd26 3.086865 1_555
Cd22 Cd23 3.086865 1_555
Cd22 Cd27 3.086872 1_555
Cd22 Cd8 3.501436 1_555
Cd22 Sm1 3.504666 1_555
Cd23 Cd9 2.962266 1_555
Cd23 Cd25 3.086865 1_555
Cd23 Cd30 3.086878 1_555
Cd23 Cd7 3.501453 1_555
Cd23 Sm2 3.504679 1_556
Cd24 Cd31 3.086872 1_555
Cd24 Cd25 3.086872 1_555
Cd24 Cd29 3.086878 1_555
Cd24 Cd26 3.086878 1_555
Cd24 Cd5 3.501470 1_555
Cd24 Sm0 3.504693 1_565
Cd25 Cd26 3.086865 1_555
Cd25 Cd30 3.086872 1_555
Cd25 Cd7 3.501436 1_555
Cd25 Sm1 3.504666 1_565
Cd26 Cd27 3.086878 1_555
Cd26 Cd8 3.501453 1_555
Cd26 Sm2 3.504679 1_555
Cd27 Cd28 3.086872 1_555
Cd27 Cd29 3.086878 1_555
Cd27 Cd3 3.501470 1_555
Cd27 Cd8 3.501470 1_555
Cd27 Sm0 3.504693 1_555
Cd28 Cd9 2.962257 1_655
Cd28 Cd32 3.086865 1_555
Cd28 Cd29 3.086865 1_555
Cd28 Cd6 3.501436 1_555
Cd28 Cd3 3.501436 1_555
Cd28 Sm1 3.504666 1_655
Cd29 Cd31 3.086865 1_555
Cd29 Cd5 3.501453 1_555
Cd29 Cd3 3.501453 1_555
Cd29 Sm2 3.504679 1_655
Cd30 Cd31 3.086872 1_555
Cd30 Cd32 3.086878 1_555
Cd30 Cd4 3.501470 1_555
Cd30 Cd7 3.501470 1_555
Cd30 Sm0 3.504693 1_566
Cd31 Cd32 3.086865 1_555
Cd31 Cd4 3.501436 1_555
Cd31 Cd5 3.501436 1_555
Cd31 Sm1 3.504666 1_665
Cd32 Cd9 2.962266 1_655
Cd32 Cd6 3.501453 1_555
Cd32 Cd4 3.501453 1_555
Cd32 Sm2 3.504679 1_656
