# generated using pymatgen
data_BaCdSnS4
_symmetry_space_group_name_H-M   'P 1'
_cell_length_a   15.55882892
_cell_length_b   12.91419121
_cell_length_c   12.78101784
_cell_angle_alpha   74.52976580
_cell_angle_beta   53.12541377
_cell_angle_gamma   52.34482043
_symmetry_Int_Tables_number   1
_chemical_formula_structural   BaCdSnS4
_chemical_formula_sum   'Ba8 Cd8 Sn8 S32'
_cell_volume   1606.08661758
_cell_formula_units_Z   8
loop_
 _symmetry_equiv_pos_site_id
 _symmetry_equiv_pos_as_xyz
  1  'x, y, z'
loop_
 _atom_site_type_symbol
 _atom_site_label
 _atom_site_symmetry_multiplicity
 _atom_site_fract_x
 _atom_site_fract_y
 _atom_site_fract_z
 _atom_site_occupancy
  Ba  Ba0  1  0.24964197  0.74587093  0.24788363  1
  Ba  Ba1  1  0.75660347  0.24788363  0.74587093  1
  Ba  Ba2  1  0.00211637  0.49339653  0.00035803  1
  Ba  Ba3  1  0.50412907  0.00035803  0.49339653  1
  Ba  Ba4  1  0.25482323  0.74517677  0.74517677  1
  Ba  Ba5  1  0.50482323  0.99517677  0.99517677  1
  Ba  Ba6  1  0.75099478  0.24900522  0.24900522  1
  Ba  Ba7  1  0.00099478  0.49900522  0.49900522  1
  Cd  Cd0  1  0.91892599  0.83056149  0.22936008  1
  Cd  Cd1  1  0.41943851  0.33107401  0.22884757  1
  Cd  Cd2  1  0.02063992  0.22884757  0.33107401  1
  Cd  Cd3  1  0.02115243  0.22936008  0.83056149  1
  Cd  Cd4  1  0.98702783  0.76147400  0.73666711  1
  Cd  Cd5  1  0.51483106  0.73666711  0.76147400  1
  Cd  Cd6  1  0.51333289  0.73516894  0.26297217  1
  Cd  Cd7  1  0.48852600  0.26297217  0.73516894  1
  Sn  Sn0  1  0.34754494  0.40223002  0.51577864  1
  Sn  Sn1  1  0.26325765  0.48601693  0.01247501  1
  Sn  Sn2  1  0.76398307  0.98674235  0.01174960  1
  Sn  Sn3  1  0.23752499  0.01174960  0.98674235  1
  Sn  Sn4  1  0.73444640  0.51577864  0.40223002  1
  Sn  Sn5  1  0.84776998  0.90245506  0.51555360  1
  Sn  Sn6  1  0.73422136  0.51555360  0.90245506  1
  Sn  Sn7  1  0.23825040  0.01247501  0.48601693  1
  S  S0  1  0.95400020  0.96398177  0.30301694  1
  S  S1  1  0.77900009  0.30301694  0.96398177  1
  S  S2  1  0.94698306  0.47099991  0.29599980  1
  S  S3  1  0.28601823  0.29599980  0.47099991  1
  S  S4  1  0.44347844  0.97443320  0.79572406  1
  S  S5  1  0.78636430  0.79572406  0.97443320  1
  S  S6  1  0.45427594  0.46363570  0.80652156  1
  S  S7  1  0.27556680  0.80652156  0.46363570  1
  S  S8  1  0.06994271  0.67874437  0.01951390  1
  S  S9  1  0.23180002  0.01951390  0.67874437  1
  S  S10  1  0.23048610  0.01819998  0.18005729  1
  S  S11  1  0.57125563  0.18005729  0.01819998  1
  S  S12  1  0.03223046  0.71652722  0.52558683  1
  S  S13  1  0.72565549  0.52558683  0.71652722  1
  S  S14  1  0.72441317  0.52434451  0.21776954  1
  S  S15  1  0.53347278  0.21776954  0.52434451  1
  S  S16  1  0.19887062  0.54844740  0.71752370  1
  S  S17  1  0.53515829  0.71752370  0.54844740  1
  S  S18  1  0.53247630  0.71484171  0.05112938  1
  S  S19  1  0.70155260  0.05112938  0.71484171  1
  S  S20  1  0.22104554  0.52626712  0.21480928  1
  S  S21  1  0.03787806  0.21480928  0.52626712  1
  S  S22  1  0.03519072  0.21212194  0.02895446  1
  S  S23  1  0.72373288  0.02895446  0.21212194  1
  S  S24  1  0.95577992  0.96116686  0.80408548  1
  S  S25  1  0.27896774  0.80408548  0.96116686  1
  S  S26  1  0.44591452  0.97103226  0.29422008  1
  S  S27  1  0.28883314  0.29422008  0.97103226  1
  S  S28  1  0.78383015  0.79744822  0.47342582  1
  S  S29  1  0.94529581  0.47342582  0.79744822  1
  S  S30  1  0.77657418  0.30470419  0.46616985  1
  S  S31  1  0.45255178  0.46616985  0.30470419  1
loop_
_geom_bond_atom_site_label_1
_geom_bond_atom_site_label_2
_geom_bond_distance
_geom_bond_site_symmetry_2
Ba0 S10 3.257594 1_565
Ba0 S12 3.259361 1_555
Ba0 S20 3.290375 1_555
Ba0 S0 3.305665 1_455
Ba0 S18 3.309316 1_555
Ba0 S31 3.310699 1_555
Ba0 S25 3.338401 1_554
Ba0 S7 3.354591 1_555
Ba1 S11 3.257600 1_556
Ba1 S13 3.259361 1_555
Ba1 S21 3.290375 1_655
Ba1 S1 3.305654 1_555
Ba1 S19 3.309316 1_555
Ba1 S30 3.310699 1_555
Ba1 S24 3.338401 1_545
Ba1 S6 3.354591 1_555
Ba2 S8 3.257606 1_555
Ba2 S14 3.259361 1_455
Ba2 S22 3.290375 1_555
Ba2 S2 3.305666 1_455
Ba2 S16 3.309316 1_554
Ba2 S29 3.310699 1_454
Ba2 S27 3.338401 1_554
Ba2 S5 3.354591 1_454
Ba3 S9 3.257593 1_555
Ba3 S15 3.259361 1_555
Ba3 S23 3.290375 1_555
Ba3 S3 3.305660 1_555
Ba3 S17 3.309316 1_545
Ba3 S28 3.310699 1_545
Ba3 S26 3.338401 1_545
Ba3 S4 3.354591 1_545
Ba4 S8 3.257389 1_556
Ba4 S9 3.257396 1_565
Ba4 S16 3.299706 1_555
Ba4 S17 3.299707 1_555
Ba4 S25 3.324871 1_555
Ba4 S24 3.324871 1_455
Ba4 S6 3.328356 1_555
Ba4 S7 3.328356 1_555
Ba5 S11 3.257383 1_566
Ba5 S10 3.257396 1_566
Ba5 S19 3.299706 1_565
Ba5 S18 3.299707 1_556
Ba5 S26 3.324871 1_556
Ba5 S27 3.324871 1_565
Ba5 S5 3.328356 1_555
Ba5 S4 3.328356 1_555
Ba6 S15 3.258541 1_555
Ba6 S14 3.258541 1_555
Ba6 S22 3.302305 1_655
Ba6 S23 3.302305 1_555
Ba6 S0 3.325328 1_545
Ba6 S1 3.325334 1_554
Ba6 S31 3.334702 1_555
Ba6 S30 3.334702 1_555
Ba7 S12 3.258541 1_555
Ba7 S13 3.258541 1_455
Ba7 S20 3.302305 1_555
Ba7 S21 3.302305 1_555
Ba7 S2 3.325322 1_455
Ba7 S3 3.325334 1_555
Ba7 S29 3.334702 1_455
Ba7 S28 3.334702 1_455
Cd0 S8 2.484307 1_655
Cd0 S0 2.604527 1_555
Cd0 S23 2.613616 1_565
Cd0 S28 2.617116 1_555
Cd1 S11 2.484316 1_555
Cd1 S3 2.604536 1_555
Cd1 S20 2.613616 1_555
Cd1 S31 2.617116 1_555
Cd2 S10 2.484313 1_555
Cd2 S2 2.604539 1_455
Cd2 S21 2.613616 1_555
Cd2 S30 2.617116 1_455
Cd3 S9 2.484310 1_555
Cd3 S1 2.604540 1_455
Cd3 S22 2.613616 1_556
Cd3 S29 2.617116 1_455
Cd4 S12 2.483809 1_655
Cd4 S24 2.603885 1_555
Cd4 S16 2.608514 1_655
Cd4 S5 2.611760 1_555
Cd5 S13 2.483809 1_555
Cd5 S25 2.603885 1_555
Cd5 S17 2.608514 1_555
Cd5 S4 2.611760 1_555
Cd6 S14 2.483809 1_555
Cd6 S26 2.603885 1_555
Cd6 S18 2.608514 1_555
Cd6 S7 2.611760 1_555
Cd7 S15 2.483809 1_555
Cd7 S27 2.603885 1_555
Cd7 S19 2.608514 1_555
Cd7 S6 2.611760 1_555
S0 Sn5 2.409768 1_555
S1 Sn6 2.409771 1_555
S2 Sn4 2.409774 1_555
S3 Sn0 2.409760 1_555
S4 Sn3 2.410983 1_565
S5 Sn2 2.410983 1_556
S6 Sn1 2.410983 1_556
S7 Sn7 2.410983 1_565
S8 Sn1 2.428482 1_555
S9 Sn7 2.428491 1_555
S10 Sn3 2.428478 1_554
S11 Sn2 2.428487 1_545
S12 Sn5 2.424110 1_455
S13 Sn6 2.424110 1_555
S14 Sn4 2.424110 1_555
S15 Sn0 2.424110 1_555
S16 Sn0 2.380651 1_555
S17 Sn4 2.380651 1_555
S18 Sn6 2.380651 1_554
S19 Sn5 2.380651 1_545
S20 Sn1 2.377137 1_555
S21 Sn7 2.377137 1_555
S22 Sn3 2.377137 1_554
S23 Sn2 2.377137 1_545
S24 Sn2 2.411772 1_556
S25 Sn3 2.411772 1_565
S26 Sn7 2.411772 1_565
S27 Sn1 2.411772 1_556
S28 Sn5 2.408159 1_555
S29 Sn6 2.408159 1_555
S30 Sn4 2.408159 1_555
S31 Sn0 2.408159 1_555
