# generated using pymatgen
data_Zn2PbN2
_symmetry_space_group_name_H-M   'P 1'
_cell_length_a   5.98433565
_cell_length_b   6.66625151
_cell_length_c   7.37368707
_cell_angle_alpha   89.99999952
_cell_angle_beta   51.96939573
_cell_angle_gamma   56.15312814
_symmetry_Int_Tables_number   1
_chemical_formula_structural   Zn2PbN2
_chemical_formula_sum   'Zn4 Pb2 N4'
_cell_volume   163.83929755
_cell_formula_units_Z   2
loop_
 _symmetry_equiv_pos_site_id
 _symmetry_equiv_pos_as_xyz
  1  'x, y, z'
loop_
 _atom_site_type_symbol
 _atom_site_label
 _atom_site_symmetry_multiplicity
 _atom_site_fract_x
 _atom_site_fract_y
 _atom_site_fract_z
 _atom_site_occupancy
  Zn  Zn0  1  0.72502200  0.50000000  0.63748900  1
  Zn  Zn1  1  0.27497800  0.50000000  0.36251100  1
  Zn  Zn2  1  0.27497800  0.22502200  0.86251100  1
  Zn  Zn3  1  0.72502200  0.77497800  0.13748900  1
  Pb  Pb0  1  0.00000000  0.00000000  0.25000000  1
  Pb  Pb1  1  0.00000000  0.00000000  0.75000000  1
  N  N0  1  0.67753700  0.50000000  0.16123100  1
  N  N1  1  0.32246300  0.50000000  0.83876900  1
  N  N2  1  0.32246300  0.17753700  0.33876900  1
  N  N3  1  0.67753700  0.82246300  0.66123100  1
loop_
_geom_bond_atom_site_label_1
_geom_bond_atom_site_label_2
_geom_bond_distance
_geom_bond_site_symmetry_2
Pb0 Zn1 3.174609 1_455
Pb0 Zn1 3.174610 1_545
Pb0 Zn0 3.174610 1_544
Pb0 Zn0 3.174610 1_455
Pb0 Zn3 3.174610 1_545
Pb0 Zn3 3.174610 1_445
Pb0 Zn2 3.174610 1_554
Pb0 Zn2 3.174610 1_455
Pb1 Zn0 3.174609 1_545
Pb1 Zn0 3.174610 1_455
Pb1 Zn1 3.174610 1_456
Pb1 Zn1 3.174610 1_545
Pb1 Zn2 3.174610 1_455
Pb1 Zn2 3.174610 1_555
Pb1 Zn3 3.174610 1_446
Pb1 Zn3 3.174610 1_545
N0 Zn1 1.897563 1_555
N0 Zn2 1.997626 1_654
N0 Zn3 1.997626 1_555
N1 Zn0 1.897563 1_555
N1 Zn3 1.997626 1_456
N1 Zn2 1.997626 1_555
N2 Zn3 1.897563 1_545
N2 Zn0 1.997626 1_455
N2 Zn1 1.997626 1_555
N3 Zn2 1.897563 1_565
N3 Zn1 1.997626 1_655
N3 Zn0 1.997626 1_555
