# generated using pymatgen
data_Li3MnFeCo(PO4)3
_symmetry_space_group_name_H-M   'P 1'
_cell_length_a   6.09162700
_cell_length_b   10.45943300
_cell_length_c   14.29242468
_cell_angle_alpha   89.96488673
_cell_angle_beta   90.00000000
_cell_angle_gamma   90.00000000
_symmetry_Int_Tables_number   1
_chemical_formula_structural   Li3MnFeCo(PO4)3
_chemical_formula_sum   'Li12 Mn4 Fe4 Co4 P12 O48'
_cell_volume   910.64115988
_cell_formula_units_Z   4
loop_
 _symmetry_equiv_pos_site_id
 _symmetry_equiv_pos_as_xyz
  1  'x, y, z'
loop_
 _atom_site_type_symbol
 _atom_site_label
 _atom_site_symmetry_multiplicity
 _atom_site_fract_x
 _atom_site_fract_y
 _atom_site_fract_z
 _atom_site_occupancy
  Li  Li0  1  0.75026100  0.99836600  0.66708500  1
  Li  Li1  1  0.24987100  0.99917000  0.99994000  1
  Li  Li2  1  0.75012900  0.99917000  0.99994000  1
  Li  Li3  1  0.25028900  0.99924400  0.33327400  1
  Li  Li4  1  0.74971100  0.99924400  0.33327400  1
  Li  Li5  1  0.24973900  0.99836600  0.66708500  1
  Li  Li6  1  0.24994400  0.50120300  0.50059000  1
  Li  Li7  1  0.75005600  0.50120300  0.50059000  1
  Li  Li8  1  0.25023100  0.50122700  0.16685200  1
  Li  Li9  1  0.74976900  0.50122700  0.16685200  1
  Li  Li10  1  0.24921200  0.50090600  0.83308000  1
  Li  Li11  1  0.75078800  0.50090600  0.83308000  1
  Mn  Mn0  1  0.00000000  0.21869700  0.15978200  1
  Mn  Mn1  1  0.00000000  0.21890800  0.49323200  1
  Mn  Mn2  1  0.50000000  0.28126700  0.65990800  1
  Mn  Mn3  1  0.50000000  0.28055800  0.99256000  1
  Fe  Fe0  1  0.00000000  0.21852600  0.82539800  1
  Fe  Fe1  1  0.50000000  0.28110000  0.32579000  1
  Fe  Fe2  1  0.00000000  0.71981700  0.00797500  1
  Fe  Fe3  1  0.00000000  0.71956100  0.34181800  1
  Co  Co0  1  0.00000000  0.72265000  0.67434100  1
  Co  Co1  1  0.50000000  0.77815300  0.84011200  1
  Co  Co2  1  0.50000000  0.78068700  0.50654000  1
  Co  Co3  1  0.50000000  0.78170300  0.17318500  1
  P  P0  1  0.50000000  0.09122000  0.80649000  1
  P  P1  1  0.50000000  0.09174000  0.13937200  1
  P  P2  1  0.50000000  0.09194600  0.47147900  1
  P  P3  1  0.00000000  0.40794900  0.30639000  1
  P  P4  1  0.00000000  0.40867000  0.63943500  1
  P  P5  1  0.00000000  0.40717500  0.97100300  1
  P  P6  1  0.50000000  0.59519500  0.36067900  1
  P  P7  1  0.50000000  0.59630000  0.02756200  1
  P  P8  1  0.50000000  0.59674300  0.69418100  1
  P  P9  1  0.00000000  0.90486700  0.86025600  1
  P  P10  1  0.00000000  0.90362700  0.19429600  1
  P  P11  1  0.00000000  0.90316900  0.52796100  1
  O  O0  1  0.00000000  0.04056300  0.23698600  1
  O  O1  1  0.00000000  0.04012200  0.57025500  1
  O  O2  1  0.00000000  0.04262100  0.90186900  1
  O  O3  1  0.50000000  0.09525900  0.57892900  1
  O  O4  1  0.50000000  0.09411900  0.91381600  1
  O  O5  1  0.50000000  0.09615100  0.24688000  1
  O  O6  1  0.29829700  0.16202300  0.09436200  1
  O  O7  1  0.70170300  0.16202300  0.09436200  1
  O  O8  1  0.29870000  0.16262000  0.42637300  1
  O  O9  1  0.70130000  0.16262000  0.42637300  1
  O  O10  1  0.29719100  0.16311000  0.76267800  1
  O  O11  1  0.70280900  0.16311000  0.76267800  1
  O  O12  1  0.79842900  0.33811000  0.59441100  1
  O  O13  1  0.20157100  0.33811000  0.59441100  1
  O  O14  1  0.79682200  0.33656800  0.26268600  1
  O  O15  1  0.20317800  0.33656800  0.26268600  1
  O  O16  1  0.79836200  0.33648000  0.92626300  1
  O  O17  1  0.20163800  0.33648000  0.92626300  1
  O  O18  1  0.00000000  0.40595400  0.41355600  1
  O  O19  1  0.00000000  0.40431300  0.07862400  1
  O  O20  1  0.00000000  0.40368000  0.74707500  1
  O  O21  1  0.50000000  0.45765100  0.40215800  1
  O  O22  1  0.50000000  0.45903300  0.06936700  1
  O  O23  1  0.50000000  0.45954600  0.73655800  1
  O  O24  1  0.00000000  0.54459100  0.26375600  1
  O  O25  1  0.00000000  0.54499000  0.93055900  1
  O  O26  1  0.00000000  0.54674300  0.59931300  1
  O  O27  1  0.50000000  0.59818300  0.25320400  1
  O  O28  1  0.50000000  0.59844300  0.91990500  1
  O  O29  1  0.50000000  0.59817100  0.58659000  1
  O  O30  1  0.29787200  0.66719600  0.07213200  1
  O  O31  1  0.29796900  0.66624600  0.40569200  1
  O  O32  1  0.29667700  0.66762100  0.73835800  1
  O  O33  1  0.70332300  0.66762100  0.73835800  1
  O  O34  1  0.70212800  0.66719600  0.07213200  1
  O  O35  1  0.70203100  0.66624600  0.40569200  1
  O  O36  1  0.79590200  0.83472800  0.90425600  1
  O  O37  1  0.20409800  0.83472800  0.90425600  1
  O  O38  1  0.79593400  0.83294200  0.23817400  1
  O  O39  1  0.79653200  0.83170100  0.57192900  1
  O  O40  1  0.20406600  0.83294200  0.23817400  1
  O  O41  1  0.20346800  0.83170100  0.57192900  1
  O  O42  1  0.00000000  0.90216000  0.75257900  1
  O  O43  1  0.00000000  0.90331500  0.42037200  1
  O  O44  1  0.00000000  0.90382900  0.08667100  1
  O  O45  1  0.50000000  0.95433200  0.76456200  1
  O  O46  1  0.50000000  0.95371400  0.09889800  1
  O  O47  1  0.50000000  0.95337000  0.43150900  1
loop_
_geom_bond_atom_site_label_1
_geom_bond_atom_site_label_2
_geom_bond_distance
_geom_bond_site_symmetry_2
Li0 O1 2.102305 1_665
Li0 O45 2.115747 1_555
Li0 O42 2.195117 1_655
Li0 O11 2.218619 1_565
Li0 O3 2.221960 1_565
Li0 O39 2.229530 1_555
Li1 O2 2.118325 1_565
Li1 O46 2.132428 1_556
Li1 O6 2.193728 1_566
Li1 O4 2.195810 1_565
Li1 O44 2.201447 1_556
Li1 O37 2.215657 1_555
Li2 O2 2.118325 1_665
Li2 O46 2.132428 1_556
Li2 O7 2.193728 1_566
Li2 O4 2.195810 1_565
Li2 O44 2.201447 1_656
Li2 O36 2.215657 1_555
Li3 O0 2.098702 1_565
Li3 O47 2.124746 1_555
Li3 O8 2.186400 1_565
Li3 O5 2.205539 1_565
Li3 O43 2.208947 1_555
Li3 O40 2.226035 1_555
Li4 O0 2.098702 1_665
Li4 O47 2.124746 1_555
Li4 O9 2.186400 1_565
Li4 O5 2.205539 1_565
Li4 O43 2.208947 1_655
Li4 O38 2.226035 1_555
Li5 O1 2.102305 1_565
Li5 O45 2.115747 1_555
Li5 O42 2.195117 1_555
Li5 O10 2.218619 1_565
Li5 O3 2.221960 1_565
Li5 O41 2.229530 1_555
Li6 O21 2.123147 1_555
Li6 O26 2.129979 1_555
Li6 O13 2.189082 1_555
Li6 O18 2.204449 1_555
Li6 O29 2.204831 1_555
Li6 O31 2.214111 1_555
Li7 O21 2.123147 1_555
Li7 O26 2.129979 1_655
Li7 O12 2.189082 1_555
Li7 O18 2.204449 1_655
Li7 O29 2.204831 1_555
Li7 O35 2.214111 1_555
Li8 O24 2.109082 1_555
Li8 O22 2.109919 1_555
Li8 O27 2.206378 1_555
Li8 O15 2.218435 1_555
Li8 O30 2.219809 1_555
Li8 O19 2.223222 1_555
Li9 O24 2.109082 1_655
Li9 O22 2.109919 1_555
Li9 O27 2.206378 1_555
Li9 O14 2.218435 1_555
Li9 O34 2.219809 1_555
Li9 O19 2.223222 1_655
Li10 O23 2.103539 1_555
Li10 O25 2.111653 1_555
Li10 O17 2.193769 1_555
Li10 O20 2.202568 1_555
Li10 O28 2.217238 1_555
Li10 O32 2.225791 1_555
Li11 O23 2.103539 1_555
Li11 O25 2.111653 1_655
Li11 O16 2.193769 1_555
Li11 O20 2.202568 1_655
Li11 O28 2.217238 1_555
Li11 O33 2.225791 1_555
Mn0 O6 2.127960 1_555
Mn0 O7 2.127960 1_455
Mn0 O0 2.164829 1_555
Mn0 O19 2.260950 1_555
Mn0 O15 2.284105 1_555
Mn0 O14 2.284105 1_455
Mn1 O8 2.138051 1_555
Mn1 O9 2.138051 1_455
Mn1 O1 2.169387 1_555
Mn1 O18 2.263080 1_555
Mn1 O13 2.270594 1_555
Mn1 O12 2.270594 1_455
Mn2 O12 2.129303 1_555
Mn2 O13 2.129303 1_555
Mn2 O23 2.163273 1_555
Mn2 O3 2.264381 1_555
Mn2 O10 2.282298 1_555
Mn2 O11 2.282298 1_555
Mn3 O16 2.131344 1_555
Mn3 O17 2.131344 1_555
Mn3 O22 2.166179 1_556
Mn3 O4 2.252108 1_555
Mn3 O6 2.271923 1_556
Mn3 O7 2.271923 1_556
Fe0 O11 2.101816 1_455
Fe0 O10 2.101816 1_555
Fe0 O2 2.139438 1_555
Fe0 O20 2.236269 1_555
Fe0 O17 2.260803 1_555
Fe0 O16 2.260803 1_455
Fe1 O14 2.102075 1_555
Fe1 O15 2.102075 1_555
Fe1 O21 2.145653 1_555
Fe1 O5 2.239818 1_555
Fe1 O9 2.259162 1_555
Fe1 O8 2.259162 1_555
Fe2 O30 2.106091 1_555
Fe2 O34 2.106091 1_455
Fe2 O25 2.137869 1_554
Fe2 O44 2.229810 1_555
Fe2 O36 2.277203 1_454
Fe2 O37 2.277203 1_554
Fe3 O31 2.106752 1_555
Fe3 O35 2.106752 1_455
Fe3 O24 2.143944 1_555
Fe3 O43 2.226455 1_555
Fe3 O40 2.267997 1_555
Fe3 O38 2.267997 1_455
Co0 O32 2.105688 1_555
Co0 O33 2.105688 1_455
Co0 O26 2.130141 1_555
Co0 O42 2.185920 1_555
Co0 O41 2.231065 1_555
Co0 O39 2.231065 1_455
Co1 O37 2.107224 1_555
Co1 O36 2.107224 1_555
Co1 O45 2.135223 1_555
Co1 O28 2.197977 1_555
Co1 O33 2.233317 1_555
Co1 O32 2.233317 1_555
Co2 O47 2.099964 1_555
Co2 O39 2.102778 1_555
Co2 O41 2.102778 1_555
Co2 O29 2.225004 1_555
Co2 O35 2.242105 1_555
Co2 O31 2.242105 1_555
Co3 O46 2.088504 1_555
Co3 O38 2.097711 1_555
Co3 O40 2.097711 1_555
Co3 O27 2.233790 1_555
Co3 O34 2.244684 1_555
Co3 O30 2.244684 1_555
O0 P10 1.557162 1_545
O1 P11 1.555113 1_545
O2 P9 1.559091 1_545
O3 P2 1.536133 1_555
O4 P0 1.534267 1_555
O5 P1 1.537271 1_555
O6 P1 1.569510 1_555
O7 P1 1.569510 1_555
O8 P2 1.570072 1_555
O9 P2 1.570072 1_555
O10 P0 1.575825 1_555
O11 P0 1.575825 1_555
O12 P4 1.570692 1_655
O13 P4 1.570692 1_555
O14 P3 1.574809 1_655
O15 P3 1.574809 1_555
O16 P5 1.570017 1_655
O17 P5 1.570017 1_555
O18 P3 1.531791 1_555
O19 P5 1.538438 1_554
O20 P4 1.539290 1_555
O21 P6 1.555658 1_555
O22 P7 1.554762 1_555
O23 P8 1.557242 1_555
O24 P3 1.553331 1_555
O25 P5 1.552720 1_555
O26 P4 1.553523 1_555
O27 P6 1.536377 1_555
O28 P7 1.538829 1_556
O29 P8 1.537800 1_555
O30 P7 1.572357 1_555
O31 P6 1.575237 1_555
O32 P8 1.575714 1_555
O33 P8 1.575714 1_555
O34 P7 1.572357 1_555
O35 P6 1.575237 1_555
O36 P9 1.574441 1_655
O37 P9 1.574441 1_555
O38 P10 1.576261 1_655
O39 P11 1.577764 1_655
O40 P10 1.576261 1_555
O41 P11 1.577764 1_555
O42 P9 1.539243 1_555
O43 P11 1.537708 1_555
O44 P10 1.538222 1_555
O45 P0 1.552457 1_565
O46 P1 1.555586 1_565
O47 P2 1.558268 1_565
