# generated using pymatgen
data_SrCa3Mg4(SiO3)8
_symmetry_space_group_name_H-M   'P 1'
_cell_length_a   9.09073800
_cell_length_b   5.32391000
_cell_length_c   9.87785418
_cell_angle_alpha   74.57128517
_cell_angle_beta   90.00000000
_cell_angle_gamma   90.00000000
_symmetry_Int_Tables_number   1
_chemical_formula_structural   SrCa3Mg4(SiO3)8
_chemical_formula_sum   'Sr1 Ca3 Mg4 Si8 O24'
_cell_volume   460.84243135
_cell_formula_units_Z   1
loop_
 _symmetry_equiv_pos_site_id
 _symmetry_equiv_pos_as_xyz
  1  'x, y, z'
loop_
 _atom_site_type_symbol
 _atom_site_label
 _atom_site_symmetry_multiplicity
 _atom_site_fract_x
 _atom_site_fract_y
 _atom_site_fract_z
 _atom_site_occupancy
  Sr  Sr0  1  0.80614600  0.50000000  0.50000000  1
  Ca  Ca0  1  0.29965700  0.00000000  0.00000000  1
  Ca  Ca1  1  0.20116800  0.00000000  0.50000000  1
  Ca  Ca2  1  0.70015900  0.50000000  0.00000000  1
  Mg  Mg0  1  0.40646800  0.50000000  0.50000000  1
  Mg  Mg1  1  0.90689200  0.00000000  0.00000000  1
  Mg  Mg2  1  0.59004900  0.00000000  0.50000000  1
  Mg  Mg3  1  0.09339000  0.50000000  0.00000000  1
  Si  Si0  1  0.09468000  0.69198900  0.28469600  1
  Si  Si1  1  0.59160200  0.19065500  0.78679100  1
  Si  Si2  1  0.09468000  0.30801100  0.71530400  1
  Si  Si3  1  0.59160200  0.80934500  0.21320900  1
  Si  Si4  1  0.90788500  0.81006800  0.71670200  1
  Si  Si5  1  0.40690300  0.30792300  0.21347500  1
  Si  Si6  1  0.90788500  0.18993200  0.28329800  1
  Si  Si7  1  0.40690300  0.69207700  0.78652500  1
  O  O0  1  0.24791800  0.70565100  0.36303400  1
  O  O1  1  0.74713000  0.20697400  0.86157800  1
  O  O2  1  0.24791800  0.29434900  0.63696600  1
  O  O3  1  0.74713000  0.79302600  0.13842200  1
  O  O4  1  0.75126800  0.80625000  0.64238900  1
  O  O5  1  0.25239900  0.29360700  0.13724600  1
  O  O6  1  0.75126800  0.19375000  0.35761100  1
  O  O7  1  0.25239900  0.70639300  0.86275400  1
  O  O8  1  0.08796200  0.77700700  0.11479300  1
  O  O9  1  0.58074900  0.27253600  0.61679900  1
  O  O10  1  0.08796200  0.22299300  0.88520700  1
  O  O11  1  0.58074900  0.72746400  0.38320100  1
  O  O12  1  0.91307600  0.72314900  0.88657800  1
  O  O13  1  0.41202900  0.22405500  0.38408900  1
  O  O14  1  0.91307600  0.27685100  0.11342200  1
  O  O15  1  0.41202900  0.77594500  0.61591100  1
  O  O16  1  0.01934400  0.39230600  0.34624900  1
  O  O17  1  0.51689300  0.89290900  0.85094500  1
  O  O18  1  0.01934400  0.60769400  0.65375100  1
  O  O19  1  0.51689300  0.10709100  0.14905500  1
  O  O20  1  0.98561000  0.10501300  0.65188600  1
  O  O21  1  0.48259100  0.60539300  0.14999100  1
  O  O22  1  0.98561000  0.89498700  0.34811400  1
  O  O23  1  0.48259100  0.39460700  0.85000900  1
loop_
_geom_bond_atom_site_label_1
_geom_bond_atom_site_label_2
_geom_bond_distance
_geom_bond_site_symmetry_2
Ca0 O5 2.365042 1_555
Ca0 O7 2.365042 1_544
Ca0 O8 2.383794 1_545
Ca0 O10 2.383794 1_554
Ca0 O19 2.615241 1_555
Ca0 O17 2.615241 1_544
Ca0 O21 2.778151 1_545
Ca0 O23 2.778151 1_554
Ca1 O2 2.365353 1_555
Ca1 O0 2.365353 1_545
Ca1 O15 2.383600 1_545
Ca1 O13 2.383600 1_555
Ca1 O20 2.617204 1_455
Ca1 O22 2.617204 1_445
Ca1 O16 2.777258 1_555
Ca1 O18 2.777258 1_545
Ca2 O3 2.370774 1_555
Ca2 O1 2.370774 1_554
Ca2 O12 2.388484 1_554
Ca2 O14 2.388484 1_555
Ca2 O21 2.619958 1_555
Ca2 O23 2.619958 1_554
Ca2 O17 2.771349 1_554
Ca2 O19 2.771349 1_555
Mg0 O2 2.078088 1_555
Mg0 O0 2.078088 1_555
Mg0 O15 2.089672 1_555
Mg0 O13 2.089672 1_555
Mg0 O9 2.136431 1_555
Mg0 O11 2.136431 1_555
Mg1 O14 2.075932 1_555
Mg1 O12 2.075932 1_544
Mg1 O3 2.095573 1_545
Mg1 O1 2.095573 1_554
Mg1 O8 2.165277 1_645
Mg1 O10 2.165277 1_654
Mg2 O9 2.081875 1_555
Mg2 O11 2.081875 1_545
Mg2 O4 2.101970 1_545
Mg2 O6 2.101970 1_555
Mg2 O15 2.150841 1_545
Mg2 O13 2.150841 1_555
Mg3 O5 2.083793 1_555
Mg3 O7 2.083793 1_554
Mg3 O8 2.086352 1_555
Mg3 O10 2.086352 1_554
Mg3 O12 2.155307 1_454
Mg3 O14 2.155307 1_455
O0 Si0 1.604556 1_555
O1 Si1 1.608241 1_555
O2 Si2 1.604556 1_555
O3 Si3 1.608241 1_555
O4 Si4 1.604459 1_555
O4 Sr0 2.470962 1_555
O5 Si5 1.605023 1_555
O6 Si6 1.604459 1_555
O6 Sr0 2.470962 1_555
O7 Si7 1.605023 1_555
O8 Si0 1.618960 1_555
O9 Si1 1.621683 1_555
O9 Sr0 2.500540 1_555
O10 Si2 1.618960 1_555
O11 Si3 1.621683 1_555
O11 Sr0 2.500540 1_555
O12 Si4 1.618309 1_555
O13 Si5 1.625235 1_555
O14 Si6 1.618309 1_555
O15 Si7 1.625235 1_555
O16 Si0 1.693555 1_555
O16 Si6 1.711910 1_455
O16 Sr0 2.618192 1_455
O17 Si1 1.685563 1_565
O17 Si7 1.705850 1_555
O18 Si2 1.693555 1_555
O18 Si4 1.711910 1_455
O18 Sr0 2.618192 1_455
O19 Si3 1.685563 1_545
O19 Si5 1.705850 1_555
O20 Si4 1.685217 1_545
O20 Si2 1.704047 1_655
O20 Sr0 2.766945 1_555
O21 Si5 1.687117 1_555
O21 Si3 1.706398 1_555
O22 Si6 1.685217 1_565
O22 Si0 1.704047 1_655
O22 Sr0 2.766945 1_555
O23 Si7 1.687117 1_555
O23 Si1 1.706398 1_555
