# generated using pymatgen
data_CuP4Se3I
_symmetry_space_group_name_H-M   'P 1'
_cell_length_a   12.13244352
_cell_length_b   12.13244352
_cell_length_c   11.01829200
_cell_angle_alpha   90.00000000
_cell_angle_beta   90.00000000
_cell_angle_gamma   141.54119688
_symmetry_Int_Tables_number   1
_chemical_formula_structural   CuP4Se3I
_chemical_formula_sum   'Cu4 P16 Se12 I4'
_cell_volume   1008.71281348
_cell_formula_units_Z   4
loop_
 _symmetry_equiv_pos_site_id
 _symmetry_equiv_pos_as_xyz
  1  'x, y, z'
loop_
 _atom_site_type_symbol
 _atom_site_label
 _atom_site_symmetry_multiplicity
 _atom_site_fract_x
 _atom_site_fract_y
 _atom_site_fract_z
 _atom_site_occupancy
  Cu  Cu0  1  0.70013300  0.70013300  0.00000000  1
  Cu  Cu1  1  0.20013300  0.20013300  0.50000000  1
  Cu  Cu2  1  0.29986700  0.29986700  0.00000000  1
  Cu  Cu3  1  0.79986700  0.79986700  0.50000000  1
  P  P0  1  0.21880000  0.78120000  0.97331200  1
  P  P1  1  0.78120000  0.21880000  0.02668800  1
  P  P2  1  0.28120000  0.71880000  0.47331200  1
  P  P3  1  0.71880000  0.28120000  0.52668800  1
  P  P4  1  0.11470800  0.88529200  0.20837200  1
  P  P5  1  0.88529200  0.11470800  0.79162800  1
  P  P6  1  0.38529200  0.61470800  0.70837200  1
  P  P7  1  0.61470800  0.38529200  0.29162800  1
  P  P8  1  0.93948900  0.77987400  0.04369400  1
  P  P9  1  0.77987400  0.93948900  0.95630600  1
  P  P10  1  0.27987400  0.43948900  0.54369400  1
  P  P11  1  0.43948900  0.27987400  0.45630600  1
  P  P12  1  0.06051100  0.22012600  0.95630600  1
  P  P13  1  0.22012600  0.06051100  0.04369400  1
  P  P14  1  0.72012600  0.56051100  0.45630600  1
  P  P15  1  0.56051100  0.72012600  0.54369400  1
  Se  Se0  1  0.93989600  0.62417700  0.93119400  1
  Se  Se1  1  0.62417700  0.93989600  0.06880600  1
  Se  Se2  1  0.12417700  0.43989600  0.43119400  1
  Se  Se3  1  0.43989600  0.12417700  0.56880600  1
  Se  Se4  1  0.06010400  0.37582300  0.06880600  1
  Se  Se5  1  0.37582300  0.06010400  0.93119400  1
  Se  Se6  1  0.87582300  0.56010400  0.56880600  1
  Se  Se7  1  0.56010400  0.87582300  0.43119400  1
  Se  Se8  1  0.21296200  0.78703800  0.18090800  1
  Se  Se9  1  0.78703800  0.21296200  0.81909200  1
  Se  Se10  1  0.28703800  0.71296200  0.68090800  1
  Se  Se11  1  0.71296200  0.28703800  0.31909200  1
  I  I0  1  0.46738600  0.53261400  0.17875300  1
  I  I1  1  0.53261400  0.46738600  0.82124700  1
  I  I2  1  0.03261400  0.96738600  0.67875300  1
  I  I3  1  0.96738600  0.03261400  0.32124700  1
loop_
_geom_bond_atom_site_label_1
_geom_bond_atom_site_label_2
_geom_bond_distance
_geom_bond_site_symmetry_2
Cu0 P8 2.280544 1_555
Cu0 P9 2.280544 1_554
Cu0 I0 2.644910 1_555
Cu0 I1 2.644910 1_554
Cu1 P10 2.280544 1_555
Cu1 P11 2.280544 1_555
Cu1 I2 2.644910 1_545
Cu1 I3 2.644910 1_455
Cu2 P12 2.280544 1_554
Cu2 P13 2.280544 1_555
Cu2 I0 2.644910 1_555
Cu2 I1 2.644910 1_554
Cu3 P14 2.280544 1_555
Cu3 P15 2.280544 1_555
Cu3 I3 2.644910 1_565
Cu3 I2 2.644910 1_655
P0 Se5 2.280123 1_565
P0 Se0 2.280123 1_455
P0 Se8 2.291261 1_556
P1 Se4 2.280123 1_655
P1 Se1 2.280123 1_545
P1 Se9 2.291261 1_554
P2 Se2 2.280123 1_555
P2 Se7 2.280123 1_555
P2 Se10 2.291261 1_555
P3 Se3 2.280123 1_555
P3 Se6 2.280123 1_555
P3 Se11 2.291261 1_555
P4 Se8 2.271354 1_555
P4 P8 2.277974 1_455
P5 Se9 2.271354 1_555
P5 P9 2.277974 1_545
P6 Se10 2.271354 1_555
P7 Se11 2.271354 1_555
P8 Se0 2.262609 1_554
P9 Se1 2.262609 1_556
P10 P15 2.242758 1_555
P10 Se2 2.262609 1_555
P10 P6 2.277974 1_555
P11 P14 2.242758 1_555
P11 Se3 2.262609 1_555
P11 P7 2.277974 1_555
P12 P9 2.242758 1_445
P12 Se4 2.262609 1_556
P12 P5 2.277974 1_455
P13 P8 2.242758 1_445
P13 Se5 2.262609 1_554
P13 P4 2.277974 1_545
P14 Se6 2.262609 1_555
P14 P7 2.277974 1_555
P15 Se7 2.262609 1_555
P15 P6 2.277974 1_555
