# generated using pymatgen
data_YAgSe2
_symmetry_space_group_name_H-M   'P 1'
_cell_length_a   5.71920300
_cell_length_b   5.72338010
_cell_length_c   7.29562751
_cell_angle_alpha   113.04484790
_cell_angle_beta   112.83428199
_cell_angle_gamma   89.96446155
_symmetry_Int_Tables_number   1
_chemical_formula_structural   YAgSe2
_chemical_formula_sum   'Y2 Ag2 Se4'
_cell_volume   199.28148071
_cell_formula_units_Z   2
loop_
 _symmetry_equiv_pos_site_id
 _symmetry_equiv_pos_as_xyz
  1  'x, y, z'
loop_
 _atom_site_type_symbol
 _atom_site_label
 _atom_site_symmetry_multiplicity
 _atom_site_fract_x
 _atom_site_fract_y
 _atom_site_fract_z
 _atom_site_occupancy
  Y  Y0  1  0.99767600  0.00120700  0.00129700  1
  Y  Y1  1  0.25509300  0.75041100  0.50284600  1
  Ag  Ag0  1  0.49477700  0.50378400  0.99532700  1
  Ag  Ag1  1  0.74574900  0.24882600  0.50461700  1
  Se  Se0  1  0.76540900  0.76173100  0.52752900  1
  Se  Se1  1  0.23425800  0.23732400  0.47607100  1
  Se  Se2  1  0.48608100  0.99197200  0.97687900  1
  Se  Se3  1  0.01228100  0.51481000  0.02821900  1
loop_
_geom_bond_atom_site_label_1
_geom_bond_atom_site_label_2
_geom_bond_distance
_geom_bond_site_symmetry_2
Ag0 Se2 2.848956 1_555
Ag0 Se3 2.859763 1_556
Ag0 Se3 2.873776 1_656
Ag0 Se2 2.878833 1_545
Ag0 Se1 3.161623 1_555
Ag0 Se0 3.240630 1_556
Ag1 Se1 2.849889 1_555
Ag1 Se0 2.856999 1_545
Ag1 Se0 2.873968 1_555
Ag1 Se1 2.879952 1_655
Ag1 Se3 3.188131 1_656
Ag1 Se2 3.213114 1_544
Se0 Y1 2.852725 1_555
Se0 Y1 2.874381 1_655
Se0 Y0 2.884412 1_566
Se1 Y1 2.865170 1_555
Se1 Y1 2.868145 1_545
Se1 Y0 2.890471 1_455
Se2 Y0 2.860731 1_566
Se2 Y0 2.866294 1_466
Se2 Y1 2.886163 1_555
Se3 Y0 2.865370 1_465
Se3 Y0 2.867409 1_455
Se3 Y1 2.889927 1_555
