# generated using pymatgen
data_YbEuAg2
_symmetry_space_group_name_H-M   'P 1'
_cell_length_a   5.16759411
_cell_length_b   5.16759411
_cell_length_c   5.16759411
_cell_angle_alpha   60.00000000
_cell_angle_beta   60.00000000
_cell_angle_gamma   60.00000000
_symmetry_Int_Tables_number   1
_chemical_formula_structural   YbEuAg2
_chemical_formula_sum   'Yb1 Eu1 Ag2'
_cell_volume   97.57761182
_cell_formula_units_Z   1
loop_
 _symmetry_equiv_pos_site_id
 _symmetry_equiv_pos_as_xyz
  1  'x, y, z'
loop_
 _atom_site_type_symbol
 _atom_site_label
 _atom_site_symmetry_multiplicity
 _atom_site_fract_x
 _atom_site_fract_y
 _atom_site_fract_z
 _atom_site_occupancy
  Yb  Yb0  1  0.00000000  0.00000000  0.00000000  1
  Eu  Eu0  1  0.50000000  0.50000000  0.50000000  1
  Ag  Ag0  1  0.25000000  0.25000000  0.25000000  1
  Ag  Ag1  1  0.75000000  0.75000000  0.75000000  1
loop_
_geom_bond_atom_site_label_1
_geom_bond_atom_site_label_2
_geom_bond_distance
_geom_bond_site_symmetry_2
Ag0 Eu0 3.164492 1_455
Ag0 Yb0 3.164492 1_655
Ag0 Yb0 3.164492 1_565
Ag0 Eu0 3.164492 1_554
Ag0 Yb0 3.164492 1_555
Ag0 Yb0 3.164492 1_556
Ag0 Eu0 3.164492 1_555
Ag0 Eu0 3.164492 1_545
Ag1 Yb0 3.164492 1_566
Ag1 Eu0 3.164492 1_655
Ag1 Eu0 3.164492 1_565
Ag1 Yb0 3.164492 1_656
Ag1 Yb0 3.164492 1_665
Ag1 Yb0 3.164492 1_666
Ag1 Eu0 3.164492 1_556
Ag1 Eu0 3.164492 1_555
