# generated using pymatgen
data_SrLaTiMnO6
_symmetry_space_group_name_H-M   'P 1'
_cell_length_a   5.48246317
_cell_length_b   16.40975878
_cell_length_c   5.51899913
_cell_angle_alpha   89.37172014
_cell_angle_beta   90.04473501
_cell_angle_gamma   90.62407142
_symmetry_Int_Tables_number   1
_chemical_formula_structural   SrLaTiMnO6
_chemical_formula_sum   'Sr4 La4 Ti4 Mn4 O24'
_cell_volume   496.46230283
_cell_formula_units_Z   4
loop_
 _symmetry_equiv_pos_site_id
 _symmetry_equiv_pos_as_xyz
  1  'x, y, z'
loop_
 _atom_site_type_symbol
 _atom_site_label
 _atom_site_symmetry_multiplicity
 _atom_site_fract_x
 _atom_site_fract_y
 _atom_site_fract_z
 _atom_site_occupancy
  Sr  Sr0  1  0.50161000  0.62451200  0.00429700  1
  Sr  Sr1  1  0.99294900  0.87543400  0.50225800  1
  Sr  Sr2  1  0.49760800  0.12502200  0.00442300  1
  Sr  Sr3  1  0.99700600  0.37521100  0.50675300  1
  La  La0  1  0.48813200  0.87317300  0.99676800  1
  La  La1  1  0.99654500  0.12314100  0.49292300  1
  La  La2  1  0.49473500  0.37349100  0.99770200  1
  La  La3  1  0.00375500  0.62312900  0.50275200  1
  Ti  Ti0  1  0.99493800  0.99941000  0.99722100  1
  Ti  Ti1  1  0.49624400  0.24909700  0.50209000  1
  Ti  Ti2  1  0.99700600  0.49887700  0.00562300  1
  Ti  Ti3  1  0.49714100  0.74948200  0.49959900  1
  Mn  Mn0  1  0.99964200  0.74963600  0.00128200  1
  Mn  Mn1  1  0.49851700  0.00012000  0.49978900  1
  Mn  Mn2  1  0.99857200  0.24983300  0.00137400  1
  Mn  Mn3  1  0.49969900  0.49987400  0.50322300  1
  O  O0  1  0.28385100  0.73943500  0.21263800  1
  O  O1  1  0.76323100  0.98510200  0.73178200  1
  O  O2  1  0.26560300  0.23425900  0.23155000  1
  O  O3  1  0.76879900  0.48640500  0.73080600  1
  O  O4  1  0.00564800  0.88320400  0.05022200  1
  O  O5  1  0.50347000  0.13337500  0.55445400  1
  O  O6  1  0.00441900  0.38314200  0.05452600  1
  O  O7  1  0.49280900  0.63333300  0.54871500  1
  O  O8  1  0.21787300  0.76328400  0.71837300  1
  O  O9  1  0.73519700  0.01589300  0.23563200  1
  O  O10  1  0.23209800  0.26588700  0.73531400  1
  O  O11  1  0.73101100  0.51450900  0.23482100  1
  O  O12  1  0.00544600  0.61752200  0.93149900  1
  O  O13  1  0.50817800  0.86750800  0.42782900  1
  O  O14  1  0.00338400  0.11744800  0.92196600  1
  O  O15  1  0.50374000  0.36723900  0.42538100  1
  O  O16  1  0.79367600  0.73293100  0.28850100  1
  O  O17  1  0.27515500  0.98263500  0.76946100  1
  O  O18  1  0.77868800  0.23239100  0.27496600  1
  O  O19  1  0.28080900  0.48323500  0.77781800  1
  O  O20  1  0.71336700  0.76636800  0.79069200  1
  O  O21  1  0.22900100  0.01879800  0.27358800  1
  O  O22  1  0.72534000  0.26932400  0.77955700  1
  O  O23  1  0.22511900  0.51733100  0.28182600  1
loop_
_geom_bond_atom_site_label_1
_geom_bond_atom_site_label_2
_geom_bond_distance
_geom_bond_site_symmetry_2
La0 O13 2.382319 1_556
La0 O20 2.446054 1_555
La0 O17 2.481461 1_555
La0 O4 2.668892 1_556
La0 O4 2.855481 1_656
La1 O14 2.368990 1_655
La1 O18 2.466713 1_555
La1 O21 2.473194 1_655
La1 O9 2.676447 1_555
La1 O5 2.731985 1_555
La1 O2 2.732889 1_655
La1 O5 2.803047 1_655
La1 O1 2.894668 1_545
La1 O10 2.990723 1_655
La1 O14 3.153784 1_654
La1 O17 3.158244 1_645
La1 O22 3.260715 1_555
La2 O15 2.361965 1_556
La2 O22 2.462594 1_555
La2 O19 2.467233 1_555
La2 O10 2.699200 1_555
La2 O6 2.713154 1_556
La2 O3 2.782720 1_555
La2 O6 2.814562 1_656
La2 O2 2.887769 1_556
La2 O11 2.957022 1_556
La2 O15 3.161870 1_555
La2 O18 3.181719 1_556
La2 O23 3.221183 1_556
La3 O12 2.367049 1_555
La3 O16 2.442877 1_455
La3 O23 2.463389 1_555
La3 O7 2.696557 1_555
La3 O11 2.756061 1_455
La3 O7 2.819859 1_455
La3 O8 2.843021 1_555
La3 O3 2.855673 1_455
La3 O0 2.904706 1_555
Mn0 O0 1.953234 1_655
Mn0 O16 1.962014 1_555
Mn0 O20 1.972067 1_554
Mn0 O8 1.977103 1_654
Mn0 O12 2.206630 1_654
Mn0 O4 2.211222 1_655
Mn1 O17 1.944950 1_545
Mn1 O1 1.950455 1_545
Mn1 O21 1.958158 1_555
Mn1 O9 1.965583 1_555
Mn1 O5 2.210543 1_555
Mn1 O13 2.217560 1_545
Mn2 O18 1.949609 1_555
Mn2 O2 1.954601 1_655
Mn2 O22 1.960594 1_554
Mn2 O10 1.962606 1_654
Mn2 O6 2.210219 1_655
Mn2 O14 2.221318 1_654
Mn3 O19 1.948852 1_555
Mn3 O3 1.949663 1_555
Mn3 O23 1.959611 1_555
Mn3 O11 1.961806 1_555
Mn3 O7 2.207843 1_555
Mn3 O15 2.223469 1_555
O0 Ti3 1.975204 1_555
O0 Sr0 2.530339 1_555
O0 Sr1 3.199809 1_455
O1 Ti0 1.952714 1_555
O1 Sr1 2.555638 1_555
O1 Sr2 3.131892 1_566
O2 Ti1 1.971267 1_555
O2 Sr2 2.550266 1_555
O2 Sr3 3.159115 1_455
O3 Ti2 1.976340 1_556
O3 Sr3 2.554492 1_555
O3 Sr0 3.116246 1_556
O4 Ti0 1.927565 1_454
O4 Sr1 2.497632 1_455
O4 Sr1 3.029010 1_454
O5 Ti1 1.918531 1_555
O5 Sr2 2.485871 1_556
O5 Sr2 3.040344 1_555
O6 Ti2 1.916198 1_455
O6 Sr3 2.498145 1_455
O6 Sr3 3.027606 1_454
O7 Ti3 1.922104 1_555
O7 Sr0 2.517390 1_556
O7 Sr0 3.010162 1_555
O8 Ti3 1.967175 1_555
O8 Sr1 2.515782 1_455
O8 Sr0 3.176505 1_556
O9 Ti0 1.962503 1_544
O9 Sr2 2.555382 1_555
O9 Sr1 3.077030 1_545
O10 Ti1 1.961958 1_555
O10 Sr3 2.543421 1_455
O10 Sr2 3.108490 1_556
O11 Ti2 1.952099 1_555
O11 Sr0 2.540762 1_555
O11 Sr3 3.098080 1_555
O12 Ti2 1.985108 1_456
O12 Sr0 2.750741 1_556
O12 Sr0 2.795410 1_456
O13 Ti3 1.972898 1_555
O13 Sr1 2.690941 1_555
O13 Sr1 2.859319 1_455
O14 Ti0 1.976601 1_445
O14 Sr2 2.748866 1_556
O14 Sr2 2.814645 1_456
O15 Ti1 1.979823 1_555
O15 Sr3 2.742953 1_555
O15 Sr3 2.819232 1_455
O16 Ti3 2.023279 1_555
O16 Sr1 2.838390 1_555
O16 Sr0 2.860901 1_555
O17 Ti0 2.008933 1_455
O17 Sr1 2.767150 1_455
O17 Sr2 2.937734 1_566
O18 Ti1 2.015947 1_555
O18 Sr2 2.775497 1_555
O18 Sr3 2.926425 1_555
O19 Ti2 2.021474 1_456
O19 Sr3 2.792079 1_455
O19 Sr0 2.898690 1_556
O20 Ti3 2.015611 1_555
O20 Sr1 2.822813 1_555
O20 Sr0 2.835387 1_556
O21 Ti0 2.018185 1_444
O21 Sr2 2.702693 1_555
O21 Sr1 2.945035 1_445
O22 Ti1 2.007934 1_555
O22 Sr3 2.719208 1_555
O22 Sr2 2.929131 1_556
O23 Ti2 1.994577 1_455
O23 Sr0 2.761114 1_555
O23 Sr3 2.901621 1_455
