# generated using pymatgen
data_Y2MgS4
_symmetry_space_group_name_H-M   'P 1'
_cell_length_a   13.48704158
_cell_length_b   7.88029332
_cell_length_c   6.51258164
_cell_angle_alpha   90.00000000
_cell_angle_beta   90.00000000
_cell_angle_gamma   90.00000000
_symmetry_Int_Tables_number   1
_chemical_formula_structural   Y2MgS4
_chemical_formula_sum   'Y8 Mg4 S16'
_cell_volume   692.16918375
_cell_formula_units_Z   4
loop_
 _symmetry_equiv_pos_site_id
 _symmetry_equiv_pos_as_xyz
  1  'x, y, z'
loop_
 _atom_site_type_symbol
 _atom_site_label
 _atom_site_symmetry_multiplicity
 _atom_site_fract_x
 _atom_site_fract_y
 _atom_site_fract_z
 _atom_site_occupancy
  Y  Y0  1  0.00000000  0.00000000  0.50000000  1
  Y  Y1  1  0.50000000  0.00000000  -0.00000000  1
  Y  Y2  1  0.50000000  0.50000000  -0.00000000  1
  Y  Y3  1  0.00000000  0.50000000  0.50000000  1
  Y  Y4  1  0.23171386  0.75000000  0.99452868  1
  Y  Y5  1  0.76828614  0.25000000  0.00547132  1
  Y  Y6  1  0.26828614  0.25000000  0.49452868  1
  Y  Y7  1  0.73171386  0.75000000  0.50547132  1
  Mg  Mg0  1  0.09449165  0.25000000  0.92184062  1
  Mg  Mg1  1  0.90550835  0.75000000  0.07815938  1
  Mg  Mg2  1  0.40550835  0.75000000  0.42184062  1
  Mg  Mg3  1  0.59449165  0.25000000  0.57815938  1
  S  S0  1  0.16931980  0.00972286  0.73926616  1
  S  S1  1  0.83068020  0.99027714  0.26073384  1
  S  S2  1  0.33068020  0.99027714  0.23926616  1
  S  S3  1  0.66931980  0.00972286  0.76073384  1
  S  S4  1  0.66931980  0.49027714  0.76073384  1
  S  S5  1  0.33068020  0.50972286  0.23926616  1
  S  S6  1  0.83068020  0.50972286  0.26073384  1
  S  S7  1  0.16931980  0.49027714  0.73926616  1
  S  S8  1  0.06985504  0.75000000  0.24468764  1
  S  S9  1  0.93014496  0.25000000  0.75531236  1
  S  S10  1  0.43014496  0.25000000  0.74468764  1
  S  S11  1  0.56985504  0.75000000  0.25531236  1
  S  S12  1  0.09068471  0.25000000  0.28777106  1
  S  S13  1  0.90931529  0.75000000  0.71222894  1
  S  S14  1  0.40931529  0.75000000  0.78777106  1
  S  S15  1  0.59068471  0.25000000  0.21222894  1
loop_
_geom_bond_atom_site_label_1
_geom_bond_atom_site_label_2
_geom_bond_distance
_geom_bond_site_symmetry_2
Mg0 S12 2.383705 1_556
Mg0 S0 2.453053 1_555
Mg0 S7 2.453053 1_555
Mg0 S9 2.467651 1_455
Mg1 S13 2.383705 1_554
Mg1 S6 2.453053 1_555
Mg1 S1 2.453053 1_555
Mg1 S8 2.467651 1_655
Mg2 S14 2.383705 1_555
Mg2 S2 2.453053 1_555
Mg2 S5 2.453053 1_555
Mg2 S11 2.467651 1_555
Mg3 S15 2.383705 1_555
Mg3 S3 2.453053 1_555
Mg3 S4 2.453053 1_555
Mg3 S10 2.467651 1_555
S0 Y0 2.765668 1_555
S0 Y4 2.767801 1_545
S0 Y6 2.811973 1_555
S1 Y0 2.765668 1_665
S1 Y5 2.767801 1_565
S1 Y7 2.811973 1_555
S2 Y1 2.765668 1_565
S2 Y6 2.767801 1_565
S2 Y4 2.811973 1_554
S3 Y1 2.765668 1_556
S3 Y7 2.767801 1_545
S3 Y5 2.811973 1_556
S4 Y2 2.765668 1_556
S4 Y7 2.767801 1_555
S4 Y5 2.811973 1_556
S5 Y2 2.765668 1_555
S5 Y6 2.767801 1_555
S5 Y4 2.811973 1_554
S6 Y3 2.765668 1_655
S6 Y5 2.767801 1_555
S6 Y7 2.811973 1_555
S7 Y3 2.765668 1_555
S7 Y4 2.767801 1_555
S7 Y6 2.811973 1_555
S8 Y4 2.723913 1_554
S8 Y3 2.744727 1_555
S8 Y0 2.744727 1_565
S9 Y5 2.723913 1_556
S9 Y3 2.744727 1_655
S9 Y0 2.744727 1_655
S10 Y6 2.723913 1_555
S10 Y1 2.744727 1_556
S10 Y2 2.744727 1_556
S11 Y7 2.723913 1_555
S11 Y2 2.744727 1_555
S11 Y1 2.744727 1_565
S12 Y3 2.699527 1_555
S12 Y0 2.699527 1_555
S12 Y6 2.747850 1_555
S13 Y3 2.699527 1_655
S13 Y0 2.699527 1_665
S13 Y7 2.747850 1_555
S14 Y1 2.699527 1_566
S14 Y2 2.699527 1_556
S14 Y4 2.747850 1_555
S15 Y1 2.699527 1_555
S15 Y2 2.699527 1_555
S15 Y5 2.747850 1_555
