# generated using pymatgen
data_NaAl3(SO7)2
_symmetry_space_group_name_H-M   'P 1'
_cell_length_a   7.02800862
_cell_length_b   7.02800862
_cell_length_c   7.02800897
_cell_angle_alpha   59.43248033
_cell_angle_beta   59.43248033
_cell_angle_gamma   59.43248017
_symmetry_Int_Tables_number   1
_chemical_formula_structural   NaAl3(SO7)2
_chemical_formula_sum   'Na1 Al3 S2 O14'
_cell_volume   242.29121405
_cell_formula_units_Z   1
loop_
 _symmetry_equiv_pos_site_id
 _symmetry_equiv_pos_as_xyz
  1  'x, y, z'
loop_
 _atom_site_type_symbol
 _atom_site_label
 _atom_site_symmetry_multiplicity
 _atom_site_fract_x
 _atom_site_fract_y
 _atom_site_fract_z
 _atom_site_occupancy
  Na  Na0  1  0.00000000  0.00000000  0.00000000  1
  Al  Al0  1  0.00000000  0.00000000  0.50000000  1
  Al  Al1  1  0.00000000  0.50000000  0.00000000  1
  Al  Al2  1  0.50000000  0.00000000  0.00000000  1
  S  S0  1  0.69101800  0.69101800  0.69101800  1
  S  S1  1  0.30898200  0.30898200  0.30898200  1
  O  O0  1  0.60777900  0.60777900  0.60777900  1
  O  O1  1  0.39222100  0.39222100  0.39222100  1
  O  O2  1  0.50978000  0.16044800  0.16044800  1
  O  O3  1  0.16044800  0.16044800  0.50978000  1
  O  O4  1  0.16044800  0.50978000  0.16044800  1
  O  O5  1  0.49022000  0.83955200  0.83955200  1
  O  O6  1  0.83955200  0.83955200  0.49022000  1
  O  O7  1  0.83955200  0.49022000  0.83955200  1
  O  O8  1  0.08868700  0.74738200  0.74738200  1
  O  O9  1  0.74738200  0.74738200  0.08868700  1
  O  O10  1  0.74738200  0.08868700  0.74738200  1
  O  O11  1  0.91131300  0.25261800  0.25261800  1
  O  O12  1  0.25261800  0.25261800  0.91131300  1
  O  O13  1  0.25261800  0.91131300  0.25261800  1
loop_
_geom_bond_atom_site_label_1
_geom_bond_atom_site_label_2
_geom_bond_distance
_geom_bond_site_symmetry_2
Na0 O9 2.765414 1_445
Na0 O12 2.765414 1_554
Na0 O8 2.765414 1_544
Na0 O10 2.765414 1_454
Na0 O13 2.765414 1_545
Na0 O11 2.765414 1_455
Na0 O4 2.793455 1_545
Na0 O5 2.793455 1_544
Na0 O7 2.793455 1_454
Na0 O2 2.793455 1_455
Na0 O3 2.793455 1_554
Na0 O6 2.793455 1_445
Al0 O8 1.844027 1_545
Al0 O11 1.844027 1_455
Al0 O13 1.844027 1_545
Al0 O10 1.844027 1_455
Al0 O3 1.999697 1_555
Al0 O6 1.999697 1_445
Al1 O12 1.844027 1_554
Al1 O9 1.844027 1_455
Al1 O11 1.844027 1_455
Al1 O8 1.844027 1_554
Al1 O4 1.999697 1_555
Al1 O7 1.999697 1_454
Al2 O12 1.844027 1_554
Al2 O9 1.844027 1_545
Al2 O13 1.844027 1_545
Al2 O10 1.844027 1_554
Al2 O2 1.999697 1_555
Al2 O5 1.999697 1_544
O0 S0 1.439078 1_555
O1 S1 1.439078 1_555
O2 S1 1.510829 1_555
O3 S1 1.510829 1_555
O4 S1 1.510829 1_555
O5 S0 1.510829 1_555
O6 S0 1.510829 1_555
O7 S0 1.510829 1_555
