# generated using pymatgen
data_Ba3Ru3N5
_symmetry_space_group_name_H-M   'P 1'
_cell_length_a   6.12135103
_cell_length_b   8.13324516
_cell_length_c   9.15770593
_cell_angle_alpha   104.85231606
_cell_angle_beta   104.81623073
_cell_angle_gamma   103.03843824
_symmetry_Int_Tables_number   1
_chemical_formula_structural   Ba3Ru3N5
_chemical_formula_sum   'Ba6 Ru6 N10'
_cell_volume   404.83620485
_cell_formula_units_Z   2
loop_
 _symmetry_equiv_pos_site_id
 _symmetry_equiv_pos_as_xyz
  1  'x, y, z'
loop_
 _atom_site_type_symbol
 _atom_site_label
 _atom_site_symmetry_multiplicity
 _atom_site_fract_x
 _atom_site_fract_y
 _atom_site_fract_z
 _atom_site_occupancy
  Ba  Ba0  1  0.75672900  0.42711700  0.61189700  1
  Ba  Ba1  1  0.24327100  0.57288300  0.38810300  1
  Ba  Ba2  1  0.65543800  0.86312900  0.87868900  1
  Ba  Ba3  1  0.34456200  0.13687100  0.12131100  1
  Ba  Ba4  1  0.71920000  0.71175400  0.23103100  1
  Ba  Ba5  1  0.28080000  0.28824600  0.76896900  1
  Ru  Ru0  1  0.89280300  0.33493800  0.98852100  1
  Ru  Ru1  1  0.10719700  0.66506200  0.01147900  1
  Ru  Ru2  1  0.69422800  0.98548500  0.58407900  1
  Ru  Ru3  1  0.30577200  0.01451500  0.41592100  1
  Ru  Ru4  1  0.07710800  0.84011100  0.67003600  1
  Ru  Ru5  1  0.92289200  0.15988900  0.32996400  1
  N  N0  1  0.83056800  0.16336100  0.78926800  1
  N  N1  1  0.16943200  0.83663900  0.21073200  1
  N  N2  1  0.72993400  0.73899400  0.55538900  1
  N  N3  1  0.27006600  0.26100600  0.44461100  1
  N  N4  1  0.75542800  0.52701700  0.92820400  1
  N  N5  1  0.24457200  0.47298300  0.07179600  1
  N  N6  1  0.33811400  0.93823000  0.60455100  1
  N  N7  1  0.66188600  0.06177000  0.39544900  1
  N  N8  1  0.14420700  0.77157300  0.85219700  1
  N  N9  1  0.85579300  0.22842700  0.14780300  1
loop_
_geom_bond_atom_site_label_1
_geom_bond_atom_site_label_2
_geom_bond_distance
_geom_bond_site_symmetry_2
Ba0 N2 2.747024 1_555
Ba0 N3 2.799226 1_555
Ba0 N4 2.803382 1_555
Ba0 N7 2.951125 1_555
Ba0 N0 3.048423 1_555
Ba0 N8 3.080392 1_655
Ba1 N3 2.747024 1_555
Ba1 N2 2.799226 1_555
Ba1 N5 2.803382 1_555
Ba1 N6 2.951125 1_555
Ba1 N1 3.048423 1_555
Ba1 N9 3.080392 1_455
Ba2 N0 2.841736 1_565
Ba2 N8 2.978974 1_555
Ba2 N6 3.045678 1_555
Ba2 N4 3.049878 1_555
Ba2 N2 3.059211 1_555
Ba2 N9 3.075917 1_566
Ba2 N8 3.293761 1_655
Ba3 N1 2.841736 1_545
Ba3 N9 2.978974 1_555
Ba3 N7 3.045678 1_555
Ba3 N5 3.049878 1_555
Ba3 N3 3.059211 1_555
Ba3 N8 3.075917 1_544
Ba3 N9 3.293761 1_455
Ba4 N1 2.785258 1_655
Ba4 N5 2.859107 1_555
Ba4 N4 2.885501 1_554
Ba4 N2 2.903923 1_555
Ba4 N7 3.002942 1_565
Ba5 N0 2.785258 1_455
Ba5 N4 2.859107 1_555
Ba5 N5 2.885501 1_556
Ba5 N3 2.903923 1_555
Ba5 N6 3.002942 1_545
N0 Ru0 1.876495 1_555
N0 Ru2 1.892059 1_545
N1 Ru1 1.876495 1_555
N1 Ru3 1.892059 1_565
N2 Ru4 1.980561 1_655
N2 Ru2 2.023108 1_555
N3 Ru5 1.980561 1_455
N3 Ru3 2.023108 1_555
N4 Ru1 2.027117 1_656
N4 Ru0 2.061645 1_555
N5 Ru0 2.027117 1_454
N5 Ru1 2.061645 1_555
N6 Ru4 1.925934 1_555
N6 Ru3 1.959103 1_565
N6 Ru2 2.191517 1_555
N7 Ru5 1.925934 1_555
N7 Ru2 1.959103 1_545
N7 Ru3 2.191517 1_555
N8 Ru4 1.868651 1_555
N8 Ru1 1.912512 1_556
N9 Ru5 1.868651 1_555
N9 Ru0 1.912512 1_554
