# generated using pymatgen
data_TlNiO3
_symmetry_space_group_name_H-M   'P 1'
_cell_length_a   5.32786200
_cell_length_b   5.45557900
_cell_length_c   7.74743500
_cell_angle_alpha   90.00000000
_cell_angle_beta   90.00000000
_cell_angle_gamma   90.00000000
_symmetry_Int_Tables_number   1
_chemical_formula_structural   TlNiO3
_chemical_formula_sum   'Tl4 Ni4 O12'
_cell_volume   225.19137757
_cell_formula_units_Z   4
loop_
 _symmetry_equiv_pos_site_id
 _symmetry_equiv_pos_as_xyz
  1  'x, y, z'
loop_
 _atom_site_type_symbol
 _atom_site_label
 _atom_site_symmetry_multiplicity
 _atom_site_fract_x
 _atom_site_fract_y
 _atom_site_fract_z
 _atom_site_occupancy
  Tl  Tl0  1  0.98337600  0.04992100  0.25000000  1
  Tl  Tl1  1  0.48337600  0.45007900  0.75000000  1
  Tl  Tl2  1  0.51662400  0.54992100  0.25000000  1
  Tl  Tl3  1  0.01662400  0.95007900  0.75000000  1
  Ni  Ni0  1  0.50000000  0.00000000  0.00000000  1
  Ni  Ni1  1  0.00000000  0.50000000  0.00000000  1
  Ni  Ni2  1  0.00000000  0.50000000  0.50000000  1
  Ni  Ni3  1  0.50000000  0.00000000  0.50000000  1
  O  O0  1  0.10718900  0.45453500  0.25000000  1
  O  O1  1  0.60719000  0.04546500  0.75000000  1
  O  O2  1  0.39281100  0.95453500  0.25000000  1
  O  O3  1  0.89281000  0.54546500  0.75000000  1
  O  O4  1  0.70380800  0.29411300  0.05870600  1
  O  O5  1  0.20380800  0.20588700  0.94129400  1
  O  O6  1  0.79619200  0.79411300  0.44129400  1
  O  O7  1  0.29619200  0.70588700  0.55870600  1
  O  O8  1  0.29619200  0.70588700  0.94129400  1
  O  O9  1  0.79619200  0.79411300  0.05870600  1
  O  O10  1  0.20380800  0.20588700  0.55870600  1
  O  O11  1  0.70380800  0.29411300  0.44129400  1
loop_
_geom_bond_atom_site_label_1
_geom_bond_atom_site_label_2
_geom_bond_distance
_geom_bond_site_symmetry_2
Ni0 O5 1.989678 1_554
Ni0 O9 1.989678 1_545
Ni0 O8 1.990115 1_544
Ni0 O4 1.990115 1_555
Ni0 O2 2.034474 1_545
Ni0 O1 2.034476 1_554
Ni1 O4 1.989678 1_455
Ni1 O8 1.989678 1_554
Ni1 O9 1.990115 1_455
Ni1 O5 1.990115 1_554
Ni1 O0 2.034474 1_555
Ni1 O3 2.034476 1_454
Ni2 O11 1.989678 1_455
Ni2 O7 1.989678 1_555
Ni2 O6 1.990115 1_455
Ni2 O10 1.990115 1_555
Ni2 O0 2.034474 1_555
Ni2 O3 2.034476 1_455
Ni3 O10 1.989678 1_555
Ni3 O6 1.989678 1_545
Ni3 O7 1.990115 1_545
Ni3 O11 1.990115 1_555
Ni3 O2 2.034474 1_545
Ni3 O1 2.034476 1_555
O0 Tl2 2.242625 1_555
O0 Tl0 2.303862 1_455
O1 Tl3 2.242619 1_645
O1 Tl1 2.303864 1_555
O2 Tl0 2.242625 1_465
O2 Tl2 2.303862 1_555
O3 Tl1 2.242619 1_555
O3 Tl3 2.303864 1_655
O4 Tl2 2.266864 1_555
O4 Tl0 2.487936 1_555
O5 Tl3 2.266864 1_545
O5 Tl1 2.487936 1_555
O6 Tl0 2.266864 1_565
O6 Tl2 2.487936 1_555
O7 Tl1 2.266864 1_555
O7 Tl3 2.487936 1_555
O8 Tl1 2.266864 1_555
O8 Tl3 2.487936 1_555
O9 Tl0 2.266864 1_565
O9 Tl2 2.487936 1_555
O10 Tl3 2.266864 1_545
O10 Tl1 2.487936 1_555
O11 Tl2 2.266864 1_555
O11 Tl0 2.487936 1_555
