# generated using pymatgen
data_NaNd(MoO4)2
_symmetry_space_group_name_H-M   'P 1'
_cell_length_a   6.94935242
_cell_length_b   6.94935242
_cell_length_c   6.94935242
_cell_angle_alpha   134.72310859
_cell_angle_beta   134.72310859
_cell_angle_gamma   65.96073196
_symmetry_Int_Tables_number   1
_chemical_formula_structural   NaNd(MoO4)2
_chemical_formula_sum   'Na1 Nd1 Mo2 O8'
_cell_volume   166.84378752
_cell_formula_units_Z   1
loop_
 _symmetry_equiv_pos_site_id
 _symmetry_equiv_pos_as_xyz
  1  'x, y, z'
loop_
 _atom_site_type_symbol
 _atom_site_label
 _atom_site_symmetry_multiplicity
 _atom_site_fract_x
 _atom_site_fract_y
 _atom_site_fract_z
 _atom_site_occupancy
  Na  Na0  1  0.75000000  0.25000000  0.50000000  1
  Nd  Nd0  1  0.50000000  0.50000000  0.00000000  1
  Mo  Mo0  1  0.25000000  0.75000000  0.50000000  1
  Mo  Mo1  1  0.00000000  0.00000000  0.00000000  1
  O  O0  1  0.19592400  0.59600700  0.11753800  1
  O  O1  1  0.47846900  0.07838600  0.88246200  1
  O  O2  1  0.32574500  0.92956600  0.09210700  1
  O  O3  1  0.83745900  0.23363800  0.90789300  1
  O  O4  1  0.07043400  0.16254100  0.39617900  1
  O  O5  1  0.76636200  0.67425500  0.60382100  1
  O  O6  1  0.92161400  0.80407600  0.40008300  1
  O  O7  1  0.40399300  0.52153100  0.59991700  1
loop_
_geom_bond_atom_site_label_1
_geom_bond_atom_site_label_2
_geom_bond_distance
_geom_bond_site_symmetry_2
Na0 O5 2.527828 1_555
Na0 O3 2.527828 1_555
Na0 O2 2.527828 1_545
Na0 O4 2.527828 1_655
Na0 O7 2.575589 1_555
Na0 O0 2.575589 1_656
Na0 O6 2.575589 1_545
Na0 O1 2.575589 1_554
Nd0 O7 2.468034 1_554
Nd0 O1 2.468034 1_554
Nd0 O0 2.468034 1_555
Nd0 O6 2.468034 1_555
Nd0 O3 2.498817 1_554
Nd0 O5 2.498817 1_555
Nd0 O2 2.498817 1_555
Nd0 O4 2.498817 1_554
Mo0 O6 1.808220 1_455
Mo0 O0 1.808220 1_555
Mo0 O1 1.808220 1_565
Mo0 O7 1.808220 1_555
Mo1 O5 1.809053 1_444
Mo1 O4 1.809053 1_555
Mo1 O2 1.809053 1_545
Mo1 O3 1.809053 1_454
