# generated using pymatgen
data_HfMg15
_symmetry_space_group_name_H-M   'P 1'
_cell_length_a   6.41318687
_cell_length_b   6.41318687
_cell_length_c   10.17579800
_cell_angle_alpha   90.00000000
_cell_angle_beta   90.00000000
_cell_angle_gamma   120.00000898
_symmetry_Int_Tables_number   1
_chemical_formula_structural   HfMg15
_chemical_formula_sum   'Hf1 Mg15'
_cell_volume   362.44896100
_cell_formula_units_Z   1
loop_
 _symmetry_equiv_pos_site_id
 _symmetry_equiv_pos_as_xyz
  1  'x, y, z'
loop_
 _atom_site_type_symbol
 _atom_site_label
 _atom_site_symmetry_multiplicity
 _atom_site_fract_x
 _atom_site_fract_y
 _atom_site_fract_z
 _atom_site_occupancy
  Hf  Hf0  1  0.66666700  0.33333300  0.00000000  1
  Mg  Mg0  1  0.66666700  0.33333300  0.50000000  1
  Mg  Mg1  1  0.16835700  0.33671300  0.00000000  1
  Mg  Mg2  1  0.16650900  0.33301800  0.50000000  1
  Mg  Mg3  1  0.16835700  0.83164300  0.00000000  1
  Mg  Mg4  1  0.16650900  0.83349100  0.50000000  1
  Mg  Mg5  1  0.66328700  0.83164300  0.00000000  1
  Mg  Mg6  1  0.66698200  0.83349100  0.50000000  1
  Mg  Mg7  1  0.99584500  0.49792300  0.24823300  1
  Mg  Mg8  1  0.99584500  0.49792300  0.75176700  1
  Mg  Mg9  1  0.50207700  0.49792300  0.24823300  1
  Mg  Mg10  1  0.50207700  0.49792300  0.75176700  1
  Mg  Mg11  1  0.50207700  0.00415500  0.24823300  1
  Mg  Mg12  1  0.50207700  0.00415500  0.75176700  1
  Mg  Mg13  1  0.00000000  0.00000000  0.24873800  1
  Mg  Mg14  1  0.00000000  0.00000000  0.75126200  1
loop_
_geom_bond_atom_site_label_1
_geom_bond_atom_site_label_2
_geom_bond_distance
_geom_bond_site_symmetry_2
Hf0 Mg7 3.118175 1_555
Hf0 Mg11 3.118175 1_555
Hf0 Mg8 3.118175 1_554
Hf0 Mg12 3.118175 1_554
Hf0 Mg9 3.118181 1_555
Hf0 Mg10 3.118181 1_554
Hf0 Mg3 3.206648 1_655
Hf0 Mg3 3.206648 1_545
Hf0 Mg1 3.206648 1_655
Hf0 Mg5 3.206648 1_545
Hf0 Mg5 3.206648 1_555
Hf0 Mg1 3.206648 1_555
Mg0 Mg8 3.147377 1_555
Mg0 Mg12 3.147377 1_555
Mg0 Mg7 3.147377 1_555
Mg0 Mg11 3.147377 1_555
Mg0 Mg10 3.147383 1_555
Mg0 Mg9 3.147383 1_555
Mg0 Mg6 3.206591 1_545
Mg0 Mg2 3.206591 1_655
Mg0 Mg4 3.206593 1_655
Mg0 Mg4 3.206593 1_545
Mg0 Mg2 3.206597 1_555
Mg0 Mg6 3.206597 1_555
Mg1 Mg9 3.133241 1_555
Mg1 Mg10 3.133241 1_554
Mg1 Mg7 3.133248 1_455
Mg1 Mg8 3.133248 1_454
Mg1 Mg13 3.147026 1_555
Mg1 Mg14 3.147026 1_554
Mg1 Mg5 3.174078 1_555
Mg1 Mg3 3.174079 1_555
Mg1 Mg5 3.239108 1_445
Mg1 Mg3 3.239108 1_545
Mg2 Mg9 3.168178 1_555
Mg2 Mg8 3.168181 1_455
Mg2 Mg7 3.168181 1_455
Mg2 Mg6 3.203560 1_445
Mg2 Mg4 3.203560 1_545
Mg2 Mg6 3.209626 1_555
Mg2 Mg4 3.209627 1_555
Mg3 Mg7 3.133241 1_455
Mg3 Mg8 3.133241 1_454
Mg3 Mg5 3.174079 1_555
Mg3 Mg5 3.239108 1_455
Mg4 Mg8 3.168178 1_455
Mg4 Mg7 3.168178 1_455
Mg4 Mg6 3.203560 1_455
Mg4 Mg6 3.209627 1_555
Mg5 Mg9 3.133241 1_555
Mg6 Mg9 3.168178 1_555
Mg7 Mg9 3.166626 1_555
Mg7 Mg9 3.246560 1_655
Mg10 Mg5 3.133241 1_556
Mg10 Mg12 3.166626 1_555
Mg10 Mg8 3.166626 1_555
Mg10 Mg2 3.168178 1_555
Mg10 Mg6 3.168178 1_555
Mg10 Mg14 3.206680 1_665
Mg10 Mg14 3.206680 1_555
Mg10 Mg12 3.246560 1_565
Mg10 Mg8 3.246560 1_455
Mg11 Mg3 3.133241 1_545
Mg11 Mg5 3.133248 1_545
Mg11 Mg7 3.166626 1_555
Mg11 Mg9 3.166626 1_555
Mg11 Mg4 3.168178 1_545
Mg11 Mg6 3.168181 1_545
Mg11 Mg13 3.206677 1_555
Mg11 Mg13 3.206684 1_655
Mg11 Mg7 3.246560 1_445
Mg11 Mg9 3.246560 1_545
Mg12 Mg3 3.133241 1_546
Mg12 Mg5 3.133248 1_546
Mg12 Mg8 3.166626 1_555
Mg12 Mg4 3.168178 1_545
Mg12 Mg6 3.168181 1_545
Mg12 Mg14 3.206677 1_555
Mg12 Mg14 3.206684 1_655
Mg12 Mg8 3.246560 1_445
Mg13 Mg5 3.147026 1_445
Mg13 Mg3 3.147029 1_545
Mg13 Mg2 3.155648 1_555
Mg13 Mg6 3.155648 1_445
Mg13 Mg4 3.155648 1_545
Mg13 Mg7 3.206677 1_445
Mg13 Mg9 3.206680 1_445
Mg13 Mg9 3.206680 1_555
Mg13 Mg7 3.206684 1_455
Mg14 Mg5 3.147026 1_446
Mg14 Mg3 3.147029 1_546
Mg14 Mg2 3.155648 1_555
Mg14 Mg6 3.155648 1_445
Mg14 Mg4 3.155648 1_545
Mg14 Mg8 3.206677 1_445
Mg14 Mg8 3.206684 1_455
