# generated using pymatgen
data_LiCrP2O7
_symmetry_space_group_name_H-M   'P 1'
_cell_length_a   7.46855965
_cell_length_b   9.74553707
_cell_length_c   7.46861861
_cell_angle_alpha   74.50998685
_cell_angle_beta   114.09147530
_cell_angle_gamma   105.48930544
_symmetry_Int_Tables_number   1
_chemical_formula_structural   LiCrP2O7
_chemical_formula_sum   'Li4 Cr4 P8 O28'
_cell_volume   470.44801031
_cell_formula_units_Z   4
loop_
 _symmetry_equiv_pos_site_id
 _symmetry_equiv_pos_as_xyz
  1  'x, y, z'
loop_
 _atom_site_type_symbol
 _atom_site_label
 _atom_site_symmetry_multiplicity
 _atom_site_fract_x
 _atom_site_fract_y
 _atom_site_fract_z
 _atom_site_occupancy
  Li  Li0  1  0.92465612  0.25008870  0.92450738  1
  Li  Li1  1  0.42448896  0.74987155  0.42471078  1
  Li  Li2  1  0.07560222  0.75013416  0.07545697  1
  Li  Li3  1  0.57547261  0.24988585  0.57558164  1
  Cr  Cr0  1  0.68260243  0.49998171  0.18263730  1
  Cr  Cr1  1  0.81745973  0.00001910  0.31741887  1
  Cr  Cr2  1  0.18266702  0.99998970  0.68268400  1
  Cr  Cr3  1  0.31739433  0.50001456  0.81738105  1
  P  P0  1  0.22059962  0.02671032  0.27953584  1
  P  P1  1  0.72045213  0.52669935  0.77940432  1
  P  P2  1  0.27935256  0.47330468  0.22041756  1
  P  P3  1  0.77948574  0.97328411  0.72053720  1
  P  P4  1  0.97305158  0.69472093  0.52690970  1
  P  P5  1  0.47311468  0.19471460  0.02695163  1
  P  P6  1  0.52694364  0.80528856  0.97308377  1
  P  P7  1  0.02686761  0.30527974  0.47302934  1
  O  O0  1  0.26553615  0.61956515  0.23441689  1
  O  O1  1  0.76568755  0.11953854  0.73457474  1
  O  O2  1  0.23457895  0.88045184  0.26570044  1
  O  O3  1  0.73441477  0.38044441  0.76553146  1
  O  O4  1  0.84134605  0.64720164  0.65822249  1
  O  O5  1  0.34150955  0.14719920  0.15835870  1
  O  O6  1  0.65819859  0.85278141  0.84132196  1
  O  O7  1  0.15807371  0.35281604  0.34121873  1
  O  O8  1  0.49784642  0.63811938  0.00218305  1
  O  O9  1  0.99788883  0.13811819  0.50219595  1
  O  O10  1  0.00218733  0.86188470  0.49786866  1
  O  O11  1  0.50216839  0.36188061  0.99783731  1
  O  O12  1  0.17599420  0.43568261  0.00946432  1
  O  O13  1  0.67612721  0.93570983  0.50957369  1
  O  O14  1  0.50951605  0.56435391  0.67601232  1
  O  O15  1  0.00966177  0.06433492  0.17613346  1
  O  O16  1  0.32400142  0.06440562  0.49044467  1
  O  O17  1  0.82385841  0.56436019  0.99032567  1
  O  O18  1  0.99037808  0.93555678  0.82397181  1
  O  O19  1  0.49024761  0.43560094  0.32385051  1
  O  O20  1  0.32881267  0.85220482  0.86448209  1
  O  O21  1  0.82869635  0.35214037  0.36444424  1
  O  O22  1  0.17117250  0.64784356  0.63588238  1
  O  O23  1  0.67122344  0.14782353  0.13584234  1
  O  O24  1  0.36440182  0.14778152  0.82884649  1
  O  O25  1  0.86440625  0.64779247  0.32879662  1
  O  O26  1  0.13589435  0.35220892  0.67110220  1
  O  O27  1  0.63596261  0.85221128  0.17115349  1
loop_
_geom_bond_atom_site_label_1
_geom_bond_atom_site_label_2
_geom_bond_distance
_geom_bond_site_symmetry_2
Li0 O1 1.955197 1_555
Li0 O3 1.955389 1_555
Li0 O12 2.241624 1_656
Li0 O15 2.243779 1_656
Li1 O2 1.955304 1_555
Li1 O0 1.955320 1_555
Li1 O14 2.241061 1_555
Li1 O13 2.244219 1_555
Li2 O2 1.955174 1_555
Li2 O0 1.955294 1_555
Li2 O18 2.241377 1_454
Li2 O17 2.244519 1_454
Li3 O1 1.955223 1_555
Li3 O3 1.955310 1_555
Li3 O16 2.241609 1_555
Li3 O19 2.244185 1_555
Cr0 O21 1.922319 1_555
Cr0 O25 1.922358 1_555
Cr0 O17 1.992928 1_554
Cr0 O19 1.992964 1_555
Cr0 O11 2.009318 1_554
Cr0 O8 2.009370 1_555
Cr1 O27 1.922091 1_545
Cr1 O23 1.922102 1_555
Cr1 O13 1.992365 1_545
Cr1 O15 1.992402 1_655
Cr1 O9 2.009196 1_555
Cr1 O10 2.009216 1_645
Cr2 O20 1.922095 1_555
Cr2 O24 1.922096 1_565
Cr2 O16 1.992894 1_565
Cr2 O18 1.992947 1_455
Cr2 O9 2.009461 1_465
Cr2 O10 2.009483 1_555
Cr3 O22 1.922062 1_555
Cr3 O26 1.922130 1_555
Cr3 O12 1.992279 1_556
Cr3 O14 1.992347 1_555
Cr3 O8 2.009380 1_556
Cr3 O11 2.009428 1_555
O0 P2 1.490060 1_555
O1 P3 1.490055 1_545
O2 P0 1.490038 1_565
O3 P1 1.490059 1_555
O4 P4 1.563815 1_555
O4 P1 1.595797 1_555
O5 P5 1.563779 1_555
O5 P0 1.595791 1_555
O6 P6 1.563816 1_555
O6 P3 1.595782 1_555
O7 P7 1.563800 1_555
O7 P2 1.595759 1_555
O8 P6 1.552075 1_554
O9 P7 1.552035 1_655
O10 P4 1.552036 1_455
O11 P5 1.552063 1_556
O12 P2 1.541782 1_555
O13 P3 1.541674 1_555
O14 P1 1.541776 1_555
O15 P0 1.541679 1_555
O16 P0 1.541766 1_555
O17 P1 1.541722 1_555
O18 P3 1.541763 1_555
O19 P2 1.541693 1_555
O20 P6 1.496675 1_555
O21 P7 1.496694 1_655
O22 P4 1.496611 1_455
O23 P5 1.496555 1_555
O24 P5 1.496647 1_556
O25 P4 1.496649 1_555
O26 P7 1.496562 1_555
O27 P6 1.496512 1_554
