# generated using pymatgen
data_Ba4Pr3BiO12
_symmetry_space_group_name_H-M   'P 1'
_cell_length_a   6.34114700
_cell_length_b   6.38888107
_cell_length_c   9.00899979
_cell_angle_alpha   89.90316897
_cell_angle_beta   89.89923467
_cell_angle_gamma   89.99137274
_symmetry_Int_Tables_number   1
_chemical_formula_structural   Ba4Pr3BiO12
_chemical_formula_sum   'Ba4 Pr3 Bi1 O12'
_cell_volume   364.97902393
_cell_formula_units_Z   1
loop_
 _symmetry_equiv_pos_site_id
 _symmetry_equiv_pos_as_xyz
  1  'x, y, z'
loop_
 _atom_site_type_symbol
 _atom_site_label
 _atom_site_symmetry_multiplicity
 _atom_site_fract_x
 _atom_site_fract_y
 _atom_site_fract_z
 _atom_site_occupancy
  Ba  Ba0  1  0.50941900  0.53089300  0.24262200  1
  Ba  Ba1  1  0.99451500  0.03175300  0.24215600  1
  Ba  Ba2  1  0.49058100  0.46910700  0.75737800  1
  Ba  Ba3  1  0.00548500  0.96824700  0.75784400  1
  Pr  Pr0  1  0.50000000  0.00000000  0.00000000  1
  Pr  Pr1  1  0.00000000  0.50000000  0.50000000  1
  Pr  Pr2  1  0.50000000  0.00000000  0.50000000  1
  Bi  Bi0  1  0.00000000  0.50000000  0.00000000  1
  O  O0  1  0.08050600  0.48158900  0.23394800  1
  O  O1  1  0.41940100  0.97216700  0.24767400  1
  O  O2  1  0.91949400  0.51841100  0.76605200  1
  O  O3  1  0.58059900  0.02783300  0.75232600  1
  O  O4  1  0.25907100  0.71504600  0.95646700  1
  O  O5  1  0.19855400  0.20062700  0.54438600  1
  O  O6  1  0.70043900  0.30129900  0.45320200  1
  O  O7  1  0.78750800  0.76133800  0.04021800  1
  O  O8  1  0.74092900  0.28495400  0.04353300  1
  O  O9  1  0.80144600  0.79937300  0.45561400  1
  O  O10  1  0.29956100  0.69870100  0.54679800  1
  O  O11  1  0.21249200  0.23866200  0.95978200  1
loop_
_geom_bond_atom_site_label_1
_geom_bond_atom_site_label_2
_geom_bond_distance
_geom_bond_site_symmetry_2
Ba0 O6 2.686270 1_555
Ba0 O0 2.739294 1_555
Ba0 O8 2.800105 1_555
Ba0 O1 2.876789 1_555
Ba0 O7 2.929609 1_555
Ba0 O9 3.174565 1_555
Ba0 O10 3.228981 1_555
Ba0 O4 3.248673 1_554
Ba1 O9 2.717306 1_545
Ba1 O1 2.721499 1_645
Ba1 O7 2.835007 1_545
Ba1 O8 2.898982 1_555
Ba1 O0 2.926088 1_655
Ba1 O6 3.171063 1_555
Ba1 O11 3.179039 1_654
Ba1 O5 3.205372 1_655
Ba2 O10 2.686270 1_555
Ba2 O2 2.739294 1_555
Ba2 O4 2.800105 1_555
Ba2 O3 2.876789 1_555
Ba2 O11 2.929609 1_555
Ba2 O5 3.174565 1_555
Ba2 O6 3.228981 1_555
Ba2 O8 3.248673 1_556
Ba3 O5 2.717306 1_565
Ba3 O3 2.721499 1_465
Ba3 O11 2.835007 1_565
Ba3 O4 2.898982 1_555
Ba3 O2 2.926088 1_455
Ba3 O10 3.171063 1_555
Ba3 O7 3.179039 1_456
Ba3 O9 3.205372 1_455
Bi0 O0 2.172443 1_555
Bi0 O2 2.172443 1_454
Bi0 O7 2.175842 1_455
Bi0 O11 2.175842 1_554
Bi0 O8 2.176426 1_455
Bi0 O4 2.176426 1_554
O0 Pr1 2.452759 1_555
O1 Pr0 2.294817 1_565
O1 Pr2 2.337900 1_565
O2 Pr1 2.452759 1_655
O3 Pr0 2.294817 1_556
O3 Pr2 2.337900 1_555
O4 Pr0 2.409895 1_566
O5 Pr1 2.324189 1_555
O5 Pr2 2.335606 1_555
O6 Pr1 2.324436 1_655
O6 Pr2 2.344103 1_555
O7 Pr0 2.404094 1_565
O8 Pr0 2.409895 1_555
O9 Pr1 2.324189 1_655
O9 Pr2 2.335606 1_565
O10 Pr1 2.324436 1_555
O10 Pr2 2.344103 1_565
O11 Pr0 2.404094 1_556
