# generated using pymatgen
data_TaSiH33C11N5Cl
_symmetry_space_group_name_H-M   'P 1'
_cell_length_a   10.59753968
_cell_length_b   12.98376200
_cell_length_c   16.39307354
_cell_angle_alpha   90.00000000
_cell_angle_beta   100.17075122
_cell_angle_gamma   90.00000000
_symmetry_Int_Tables_number   1
_chemical_formula_structural   TaSiH33C11N5Cl
_chemical_formula_sum   'Ta4 Si4 H132 C44 N20 Cl4'
_cell_volume   2220.17515917
_cell_formula_units_Z   4
loop_
 _symmetry_equiv_pos_site_id
 _symmetry_equiv_pos_as_xyz
  1  'x, y, z'
loop_
 _atom_site_type_symbol
 _atom_site_label
 _atom_site_symmetry_multiplicity
 _atom_site_fract_x
 _atom_site_fract_y
 _atom_site_fract_z
 _atom_site_occupancy
  Ta  Ta0  1  0.64161797  0.20823777  0.33958693  1
  Ta  Ta1  1  0.14161797  0.29176223  0.83958693  1
  Ta  Ta2  1  0.35838203  0.79176223  0.66041307  1
  Ta  Ta3  1  0.85838203  0.70823777  0.16041307  1
  Si  Si0  1  0.32672399  0.32363571  0.32665028  1
  Si  Si1  1  0.82672399  0.17636429  0.82665028  1
  Si  Si2  1  0.67327601  0.67636429  0.67334972  1
  Si  Si3  1  0.17327601  0.82363571  0.17334972  1
  H  H0  1  0.53058506  0.25271842  0.10532862  1
  H  H1  1  0.03058506  0.24728158  0.60532862  1
  H  H2  1  0.46941494  0.74728158  0.89467138  1
  H  H3  1  0.96941494  0.75271842  0.39467138  1
  H  H4  1  0.47714211  0.15354092  0.16755067  1
  H  H5  1  0.97714211  0.34645908  0.66755067  1
  H  H6  1  0.52285789  0.84645908  0.83244933  1
  H  H7  1  0.02285789  0.65354092  0.33244933  1
  H  H8  1  0.60375213  0.12893655  0.11186670  1
  H  H9  1  0.10375213  0.37106345  0.61186670  1
  H  H10  1  0.39624787  0.87106345  0.88813330  1
  H  H11  1  0.89624787  0.62893655  0.38813330  1
  H  H12  1  0.72898192  0.33202261  0.14211872  1
  H  H13  1  0.22898192  0.16797739  0.64211872  1
  H  H14  1  0.27101808  0.66797739  0.85788128  1
  H  H15  1  0.77101808  0.83202261  0.35788128  1
  H  H16  1  0.80937596  0.21132270  0.15276885  1
  H  H17  1  0.30937596  0.28867730  0.65276885  1
  H  H18  1  0.19062404  0.78867730  0.84723115  1
  H  H19  1  0.69062404  0.71132270  0.34723115  1
  H  H20  1  0.83430949  0.30181253  0.23628091  1
  H  H21  1  0.33430949  0.19818747  0.73628091  1
  H  H22  1  0.16569051  0.69818747  0.76371909  1
  H  H23  1  0.66569051  0.80181253  0.26371909  1
  H  H24  1  0.87329583  0.09341510  0.53066276  1
  H  H25  1  0.37329583  0.40658490  0.03066276  1
  H  H26  1  0.12670417  0.90658490  0.46933724  1
  H  H27  1  0.62670417  0.59341510  0.96933724  1
  H  H28  1  0.78564761  0.98762378  0.48025590  1
  H  H29  1  0.28564761  0.51237622  0.98025590  1
  H  H30  1  0.21435239  0.01237622  0.51974410  1
  H  H31  1  0.71435239  0.48762378  0.01974410  1
  H  H32  1  0.70235237  0.09267047  0.51660253  1
  H  H33  1  0.20235237  0.40732953  0.01660253  1
  H  H34  1  0.29764763  0.90732953  0.48339747  1
  H  H35  1  0.79764763  0.59267047  0.98339747  1
  H  H36  1  0.97949652  0.11055239  0.41284356  1
  H  H37  1  0.47949652  0.38944761  0.91284356  1
  H  H38  1  0.02050348  0.88944761  0.58715644  1
  H  H39  1  0.52050348  0.61055239  0.08715644  1
  H  H40  1  0.88929064  0.12734059  0.31111026  1
  H  H41  1  0.38929064  0.37265941  0.81111026  1
  H  H42  1  0.11070936  0.87265941  0.68888974  1
  H  H43  1  0.61070936  0.62734059  0.18888974  1
  H  H44  1  0.88795171  0.00636466  0.36219630  1
  H  H45  1  0.38795171  0.49363534  0.86219630  1
  H  H46  1  0.11204829  0.99363534  0.63780370  1
  H  H47  1  0.61204829  0.50636466  0.13780370  1
  H  H48  1  0.34963354  0.19131429  0.48723051  1
  H  H49  1  0.84963354  0.30868571  0.98723051  1
  H  H50  1  0.65036646  0.80868571  0.51276949  1
  H  H51  1  0.15036646  0.69131429  0.01276949  1
  H  H52  1  0.48351910  0.11324362  0.52929039  1
  H  H53  1  0.98351910  0.38675638  0.02929039  1
  H  H54  1  0.51648090  0.88675638  0.47070961  1
  H  H55  1  0.01648090  0.61324362  0.97070961  1
  H  H56  1  0.40755604  0.09478330  0.42361441  1
  H  H57  1  0.90755604  0.40521670  0.92361441  1
  H  H58  1  0.59244396  0.90521670  0.57638559  1
  H  H59  1  0.09244396  0.59478330  0.07638559  1
  H  H60  1  0.48008818  0.34059783  0.53100685  1
  H  H61  1  0.98008818  0.15940217  0.03100685  1
  H  H62  1  0.51991182  0.65940217  0.46899315  1
  H  H63  1  0.01991182  0.84059783  0.96899315  1
  H  H64  1  0.62473754  0.36138477  0.48997714  1
  H  H65  1  0.12473754  0.13861523  0.98997714  1
  H  H66  1  0.37526246  0.63861523  0.51002286  1
  H  H67  1  0.87526246  0.86138477  0.01002286  1
  H  H68  1  0.61909548  0.26374062  0.56630021  1
  H  H69  1  0.11909548  0.23625938  0.06630021  1
  H  H70  1  0.38090452  0.73625938  0.43369979  1
  H  H71  1  0.88090452  0.76374062  0.93369979  1
  H  H72  1  0.86853646  0.40741475  0.47012717  1
  H  H73  1  0.36853646  0.09258525  0.97012717  1
  H  H74  1  0.13146354  0.59258525  0.52987283  1
  H  H75  1  0.63146354  0.90741475  0.02987283  1
  H  H76  1  0.94511881  0.37957234  0.38473706  1
  H  H77  1  0.44511881  0.12042766  0.88473706  1
  H  H78  1  0.05488119  0.62042766  0.61526294  1
  H  H79  1  0.55488119  0.87957234  0.11526294  1
  H  H80  1  0.90920477  0.27740770  0.45048329  1
  H  H81  1  0.40920477  0.22259230  0.95048329  1
  H  H82  1  0.09079523  0.72259230  0.54951671  1
  H  H83  1  0.59079523  0.77740770  0.04951671  1
  H  H84  1  0.77625018  0.47409052  0.30371835  1
  H  H85  1  0.27625018  0.02590948  0.80371835  1
  H  H86  1  0.22374982  0.52590948  0.69628165  1
  H  H87  1  0.72374982  0.97409052  0.19628165  1
  H  H88  1  0.68340121  0.48810741  0.38394775  1
  H  H89  1  0.18340121  0.01189259  0.88394775  1
  H  H90  1  0.31659879  0.51189259  0.61605225  1
  H  H91  1  0.81659879  0.98810741  0.11605225  1
  H  H92  1  0.61516203  0.42835081  0.28839046  1
  H  H93  1  0.11516203  0.07164919  0.78839046  1
  H  H94  1  0.38483797  0.57164919  0.71160954  1
  H  H95  1  0.88483797  0.92835081  0.21160954  1
  H  H96  1  0.33697592  0.47270196  0.42548272  1
  H  H97  1  0.83697592  0.02729804  0.92548272  1
  H  H98  1  0.66302408  0.52729804  0.57451728  1
  H  H99  1  0.16302408  0.97270196  0.07451728  1
  H  H100  1  0.24187259  0.37164199  0.45646799  1
  H  H101  1  0.74187259  0.12835801  0.95646799  1
  H  H102  1  0.75812741  0.62835801  0.54353201  1
  H  H103  1  0.25812741  0.87164199  0.04353201  1
  H  H104  1  0.17965928  0.44989460  0.36976638  1
  H  H105  1  0.67965928  0.05010540  0.86976638  1
  H  H106  1  0.82034072  0.55010540  0.63023362  1
  H  H107  1  0.32034072  0.94989460  0.13023362  1
  H  H108  1  0.23397151  0.16606024  0.25182404  1
  H  H109  1  0.73397151  0.33393976  0.75182404  1
  H  H110  1  0.76602849  0.83393976  0.74817596  1
  H  H111  1  0.26602849  0.66606024  0.24817596  1
  H  H112  1  0.11297046  0.25750483  0.26467190  1
  H  H113  1  0.61297046  0.24249517  0.76467190  1
  H  H114  1  0.88702954  0.74249517  0.73532810  1
  H  H115  1  0.38702954  0.75750483  0.23532810  1
  H  H116  1  0.18122551  0.17651669  0.34841375  1
  H  H117  1  0.68122551  0.32348331  0.84841375  1
  H  H118  1  0.81877449  0.82348331  0.65158625  1
  H  H119  1  0.31877449  0.67651669  0.15158625  1
  H  H120  1  0.40085926  0.46898519  0.24664382  1
  H  H121  1  0.90085926  0.03101481  0.74664382  1
  H  H122  1  0.59914074  0.53101481  0.75335618  1
  H  H123  1  0.09914074  0.96898519  0.25335618  1
  H  H124  1  0.24773112  0.42231873  0.20031620  1
  H  H125  1  0.74773112  0.07768127  0.70031620  1
  H  H126  1  0.75226888  0.57768127  0.79968380  1
  H  H127  1  0.25226888  0.92231873  0.29968380  1
  H  H128  1  0.38831201  0.35289577  0.18772819  1
  H  H129  1  0.88831201  0.14710423  0.68772819  1
  H  H130  1  0.61168799  0.64710423  0.81227181  1
  H  H131  1  0.11168799  0.85289577  0.31227181  1
  C  C0  1  0.56146380  0.18770196  0.14779873  1
  C  C1  1  0.06146380  0.31229804  0.64779873  1
  C  C2  1  0.43853620  0.81229804  0.85220127  1
  C  C3  1  0.93853620  0.68770196  0.35220127  1
  C  C4  1  0.76224713  0.26956150  0.18657887  1
  C  C5  1  0.26224713  0.23043850  0.68657887  1
  C  C6  1  0.23775287  0.73043850  0.81342113  1
  C  C7  1  0.73775287  0.76956150  0.31342113  1
  C  C8  1  0.78446479  0.07239761  0.48753432  1
  C  C9  1  0.28446479  0.42760239  0.98753432  1
  C  C10  1  0.21553521  0.92760239  0.51246568  1
  C  C11  1  0.71553521  0.57239761  0.01246568  1
  C  C12  1  0.88840870  0.09074369  0.37149693  1
  C  C13  1  0.38840870  0.40925631  0.87149693  1
  C  C14  1  0.11159130  0.90925631  0.62850307  1
  C  C15  1  0.61159130  0.59074369  0.12850307  1
  C  C16  1  0.43526697  0.15184859  0.47265445  1
  C  C17  1  0.93526697  0.34815141  0.97265445  1
  C  C18  1  0.56473303  0.84815141  0.52734555  1
  C  C19  1  0.06473303  0.65184859  0.02734555  1
  C  C20  1  0.56407506  0.30337932  0.51223848  1
  C  C21  1  0.06407506  0.19662068  0.01223848  1
  C  C22  1  0.43592494  0.69662068  0.48776152  1
  C  C23  1  0.93592494  0.80337932  0.98776152  1
  C  C24  1  0.87405665  0.34997189  0.42090219  1
  C  C25  1  0.37405665  0.15002811  0.92090219  1
  C  C26  1  0.12594335  0.65002811  0.57909781  1
  C  C27  1  0.62594335  0.84997189  0.07909781  1
  C  C28  1  0.70349601  0.43613902  0.33410778  1
  C  C29  1  0.20349601  0.06386098  0.83410778  1
  C  C30  1  0.29650399  0.56386098  0.66589222  1
  C  C31  1  0.79650399  0.93613902  0.16589222  1
  C  C32  1  0.26715603  0.41216906  0.40268566  1
  C  C33  1  0.76715603  0.08783094  0.90268566  1
  C  C34  1  0.73284397  0.58783094  0.59731434  1
  C  C35  1  0.23284397  0.91216906  0.09731434  1
  C  C36  1  0.20252441  0.22073681  0.29535669  1
  C  C37  1  0.70252441  0.27926319  0.79535669  1
  C  C38  1  0.79747559  0.77926319  0.70464331  1
  C  C39  1  0.29747559  0.72073681  0.20464331  1
  C  C40  1  0.34399653  0.39864144  0.23149492  1
  C  C41  1  0.84399653  0.10135856  0.73149492  1
  C  C42  1  0.65600347  0.60135856  0.76850508  1
  C  C43  1  0.15600347  0.89864144  0.26850508  1
  N  N0  1  0.47987536  0.27299726  0.36593183  1
  N  N1  1  0.97987536  0.22700274  0.86593183  1
  N  N2  1  0.52012464  0.72700274  0.63406817  1
  N  N3  1  0.02012464  0.77299726  0.13406817  1
  N  N4  1  0.52370356  0.22720212  0.44600578  1
  N  N5  1  0.02370356  0.27279788  0.94600578  1
  N  N6  1  0.47629644  0.77279788  0.55399422  1
  N  N7  1  0.97629644  0.72720212  0.05399422  1
  N  N8  1  0.65510571  0.22336539  0.21838666  1
  N  N9  1  0.15510571  0.27663461  0.71838666  1
  N  N10  1  0.34489429  0.77663461  0.78161334  1
  N  N11  1  0.84489429  0.72336539  0.28161334  1
  N  N12  1  0.77851134  0.12228414  0.40797253  1
  N  N13  1  0.27851134  0.37771586  0.90797253  1
  N  N14  1  0.22148866  0.87771586  0.59202747  1
  N  N15  1  0.72148866  0.62228414  0.09202747  1
  N  N16  1  0.74943622  0.33632658  0.36831226  1
  N  N17  1  0.24943622  0.16367342  0.86831226  1
  N  N18  1  0.25056378  0.66367342  0.63168774  1
  N  N19  1  0.75056378  0.83632658  0.13168774  1
  Cl  Cl0  1  0.51825725  0.04009902  0.30108589  1
  Cl  Cl1  1  0.01825725  0.45990098  0.80108589  1
  Cl  Cl2  1  0.48174275  0.95990098  0.69891411  1
  Cl  Cl3  1  0.98174275  0.54009902  0.19891411  1
loop_
_geom_bond_atom_site_label_1
_geom_bond_atom_site_label_2
_geom_bond_distance
_geom_bond_site_symmetry_2
C0 H4 1.096486 1_555
C0 H8 1.105981 1_555
C0 H0 1.106320 1_555
C0 N8 1.460367 1_555
C1 H5 1.096486 1_455
C1 H9 1.105981 1_555
C1 H1 1.106320 1_555
C1 N9 1.460367 1_555
C2 H6 1.096486 1_555
C2 H10 1.105981 1_555
C2 H2 1.106320 1_555
C2 N10 1.460367 1_555
C3 H7 1.096486 1_655
C3 H11 1.105981 1_555
C3 H3 1.106320 1_555
C3 N11 1.460367 1_555
C4 H20 1.096657 1_555
C4 H12 1.105636 1_555
C4 H16 1.107331 1_555
C4 N8 1.459435 1_555
C5 H21 1.096657 1_555
C5 H13 1.105636 1_555
C5 H17 1.107331 1_555
C5 N9 1.459435 1_555
C6 H22 1.096657 1_555
C6 H14 1.105636 1_555
C6 H18 1.107331 1_555
C6 N10 1.459435 1_555
C7 H23 1.096657 1_555
C7 H15 1.105636 1_555
C7 H19 1.107331 1_555
C7 N11 1.459435 1_555
C8 H32 1.095457 1_555
C8 H24 1.107017 1_555
C8 H28 1.107441 1_545
C8 N12 1.447603 1_555
C9 H33 1.095457 1_556
C9 H25 1.107017 1_556
C9 H29 1.107441 1_555
C9 N13 1.447603 1_555
C10 H34 1.095457 1_555
C10 H26 1.107017 1_555
C10 H30 1.107441 1_565
C10 N14 1.447603 1_555
C11 H35 1.095457 1_554
C11 H27 1.107017 1_554
C11 H31 1.107441 1_555
C11 N15 1.447603 1_555
C12 H40 1.099584 1_555
C12 H44 1.106008 1_555
C12 H36 1.107387 1_555
C12 N12 1.458621 1_555
C13 H41 1.099584 1_555
C13 H45 1.106008 1_555
C13 H37 1.107387 1_555
C13 N13 1.458621 1_555
C14 H42 1.099584 1_555
C14 H46 1.106008 1_555
C14 H38 1.107387 1_555
C14 N14 1.458621 1_555
C15 H43 1.099584 1_555
C15 H47 1.106008 1_555
C15 H39 1.107387 1_555
C15 N15 1.458621 1_555
C16 H56 1.094583 1_555
C16 H52 1.098658 1_555
C16 H48 1.104449 1_555
C16 N4 1.473435 1_555
C17 H57 1.094583 1_555
C17 H53 1.098658 1_556
C17 H49 1.104449 1_555
C17 N5 1.473435 1_655
C18 H58 1.094583 1_555
C18 H54 1.098658 1_555
C18 H50 1.104449 1_555
C18 N6 1.473435 1_555
C19 H59 1.094583 1_555
C19 H55 1.098658 1_554
C19 H51 1.104449 1_555
C19 N7 1.473435 1_455
C20 H64 1.093855 1_555
C20 H68 1.098990 1_555
C20 H60 1.103217 1_555
C20 N4 1.475165 1_555
C21 H65 1.093855 1_554
C21 H69 1.098990 1_555
C21 H61 1.103217 1_455
C21 N5 1.475165 1_554
C22 H66 1.093855 1_555
C22 H70 1.098990 1_555
C22 H62 1.103217 1_555
C22 N6 1.475165 1_555
C23 H67 1.093855 1_556
C23 H71 1.098990 1_555
C23 H63 1.103217 1_655
C23 N7 1.475165 1_556
C24 H80 1.094424 1_555
C24 H76 1.106345 1_555
C24 H72 1.107932 1_555
C24 N16 1.454885 1_555
C25 H81 1.094424 1_555
C25 H77 1.106345 1_555
C25 H73 1.107932 1_555
C25 N17 1.454885 1_555
C26 H82 1.094424 1_555
C26 H78 1.106345 1_555
C26 H74 1.107932 1_555
C26 N18 1.454885 1_555
C27 H83 1.094424 1_555
C27 H79 1.106345 1_555
C27 H75 1.107932 1_555
C27 N19 1.454885 1_555
C28 H92 1.095651 1_555
C28 H84 1.105034 1_555
C28 H88 1.108881 1_555
C28 N16 1.460987 1_555
C29 H93 1.095651 1_555
C29 H85 1.105034 1_555
C29 H89 1.108881 1_555
C29 N17 1.460987 1_555
C30 H94 1.095651 1_555
C30 H86 1.105034 1_555
C30 H90 1.108881 1_555
C30 N18 1.460987 1_555
C31 H95 1.095651 1_555
C31 H87 1.105034 1_555
C31 H91 1.108881 1_555
C31 N19 1.460987 1_555
C32 H96 1.098724 1_555
C32 H100 1.099737 1_555
C32 H104 1.101915 1_555
C32 Si0 1.884511 1_555
C33 H97 1.098724 1_555
C33 H101 1.099737 1_555
C33 H105 1.101915 1_555
C33 Si1 1.884511 1_555
C34 H98 1.098724 1_555
C34 H102 1.099737 1_555
C34 H106 1.101915 1_555
C34 Si2 1.884511 1_555
C35 H99 1.098724 1_555
C35 H103 1.099737 1_555
C35 H107 1.101915 1_555
C35 Si3 1.884511 1_555
C36 H116 1.098371 1_555
C36 H108 1.099226 1_555
C36 H112 1.101375 1_555
C36 Si0 1.882033 1_555
C37 H117 1.098371 1_555
C37 H109 1.099226 1_555
C37 H113 1.101375 1_555
C37 Si1 1.882033 1_555
C38 H118 1.098371 1_555
C38 H110 1.099226 1_555
C38 H114 1.101375 1_555
C38 Si2 1.882033 1_555
C39 H119 1.098371 1_555
C39 H111 1.099226 1_555
C39 H115 1.101375 1_555
C39 Si3 1.882033 1_555
C40 H120 1.098234 1_555
C40 H128 1.098680 1_555
C40 H124 1.101070 1_555
C40 Si0 1.875099 1_555
C41 H121 1.098234 1_555
C41 H129 1.098680 1_555
C41 H125 1.101070 1_555
C41 Si1 1.875099 1_555
C42 H122 1.098234 1_555
C42 H130 1.098680 1_555
C42 H126 1.101070 1_555
C42 Si2 1.875099 1_555
C43 H123 1.098234 1_555
C43 H131 1.098680 1_555
C43 H127 1.101070 1_555
C43 Si3 1.875099 1_555
N0 N4 1.441189 1_555
N0 Si0 1.764102 1_555
N0 Ta0 2.023111 1_555
N1 N5 1.441189 1_655
N1 Si1 1.764102 1_555
N1 Ta1 2.023111 1_655
N2 N6 1.441189 1_555
N2 Si2 1.764102 1_555
N2 Ta2 2.023111 1_555
N3 N7 1.441189 1_455
N3 Si3 1.764102 1_555
N3 Ta3 2.023111 1_455
N4 Ta0 2.331398 1_555
N5 Ta1 2.331398 1_555
N6 Ta2 2.331398 1_555
N7 Ta3 2.331398 1_555
N8 Ta0 2.026539 1_555
N9 Ta1 2.026539 1_555
N10 Ta2 2.026539 1_555
N11 Ta3 2.026539 1_555
N12 Ta0 2.008101 1_555
N13 Ta1 2.008101 1_555
N14 Ta2 2.008101 1_555
N15 Ta3 2.008101 1_555
N16 Ta0 2.025610 1_555
N17 Ta1 2.025610 1_555
N18 Ta2 2.025610 1_555
N19 Ta3 2.025610 1_555
Cl0 Ta0 2.565511 1_555
Cl1 Ta1 2.565511 1_555
Cl2 Ta2 2.565511 1_555
Cl3 Ta3 2.565511 1_555
