# generated using pymatgen
data_Eu2H6Ir
_symmetry_space_group_name_H-M   'P 1'
_cell_length_a   5.32482015
_cell_length_b   5.32482015
_cell_length_c   5.32482015
_cell_angle_alpha   60.00000000
_cell_angle_beta   60.00000000
_cell_angle_gamma   60.00000000
_symmetry_Int_Tables_number   1
_chemical_formula_structural   Eu2H6Ir
_chemical_formula_sum   'Eu2 H6 Ir1'
_cell_volume   106.75785382
_cell_formula_units_Z   1
loop_
 _symmetry_equiv_pos_site_id
 _symmetry_equiv_pos_as_xyz
  1  'x, y, z'
loop_
 _atom_site_type_symbol
 _atom_site_label
 _atom_site_symmetry_multiplicity
 _atom_site_fract_x
 _atom_site_fract_y
 _atom_site_fract_z
 _atom_site_occupancy
  Eu  Eu0  1  0.25000000  0.25000000  0.25000000  1
  Eu  Eu1  1  0.75000000  0.75000000  0.75000000  1
  H  H0  1  0.77236536  0.22763464  0.22763464  1
  H  H1  1  0.22763464  0.77236536  0.77236536  1
  H  H2  1  0.22763464  0.77236536  0.22763464  1
  H  H3  1  0.77236536  0.22763464  0.77236536  1
  H  H4  1  0.22763464  0.22763464  0.77236536  1
  H  H5  1  0.77236536  0.77236536  0.22763464  1
  Ir  Ir0  1  0.00000000  0.00000000  -0.00000000  1
loop_
_geom_bond_atom_site_label_1
_geom_bond_atom_site_label_2
_geom_bond_distance
_geom_bond_site_symmetry_2
Eu0 H1 2.667732 1_554
Eu0 H0 2.667732 1_455
Eu0 H5 2.667732 1_455
Eu0 H0 2.667732 1_555
Eu0 H3 2.667732 1_554
Eu0 H1 2.667732 1_545
Eu0 H3 2.667732 1_455
Eu0 H4 2.667732 1_555
Eu0 H5 2.667732 1_545
Eu0 H2 2.667732 1_555
Eu0 H2 2.667732 1_545
Eu0 H4 2.667732 1_554
Eu1 H4 2.667732 1_565
Eu1 H3 2.667732 1_555
Eu1 H0 2.667732 1_556
Eu1 H1 2.667732 1_655
Eu1 H1 2.667732 1_555
Eu1 H2 2.667732 1_556
Eu1 H2 2.667732 1_655
Eu1 H4 2.667732 1_655
Eu1 H3 2.667732 1_565
Eu1 H5 2.667732 1_555
Eu1 H5 2.667732 1_556
Eu1 H0 2.667732 1_565
H0 Ir0 1.714187 1_655
H1 Ir0 1.714187 1_566
H2 Ir0 1.714187 1_565
H3 Ir0 1.714187 1_656
H4 Ir0 1.714187 1_556
H5 Ir0 1.714187 1_665
