# generated using pymatgen
data_SiP4N2O13
_symmetry_space_group_name_H-M   'P 1'
_cell_length_a   5.05133300
_cell_length_b   7.76049617
_cell_length_c   14.86468989
_cell_angle_alpha   91.67645154
_cell_angle_beta   91.87918429
_cell_angle_gamma   95.92640118
_symmetry_Int_Tables_number   1
_chemical_formula_structural   SiP4N2O13
_chemical_formula_sum   'Si2 P8 N4 O26'
_cell_volume   578.97005712
_cell_formula_units_Z   2
loop_
 _symmetry_equiv_pos_site_id
 _symmetry_equiv_pos_as_xyz
  1  'x, y, z'
loop_
 _atom_site_type_symbol
 _atom_site_label
 _atom_site_symmetry_multiplicity
 _atom_site_fract_x
 _atom_site_fract_y
 _atom_site_fract_z
 _atom_site_occupancy
  Si  Si0  1  0.96067500  0.93970300  0.75691800  1
  Si  Si1  1  0.03932500  0.06029700  0.24308200  1
  P  P0  1  0.43263300  0.78249000  0.84793700  1
  P  P1  1  0.56736700  0.21751000  0.15206300  1
  P  P2  1  0.15741700  0.59637600  0.69320600  1
  P  P3  1  0.84258300  0.40362400  0.30679400  1
  P  P4  1  0.83771600  0.31946900  0.78889700  1
  P  P5  1  0.16228400  0.68053100  0.21110300  1
  P  P6  1  0.48895900  0.09711800  0.66530300  1
  P  P7  1  0.51104100  0.90288300  0.33469700  1
  N  N0  1  0.30744800  0.22942100  0.52094700  1
  N  N1  1  0.69255200  0.77057900  0.47905300  1
  N  N2  1  0.62361200  0.70322600  0.00454300  1
  N  N3  1  0.37638800  0.29677400  0.99545700  1
  O  O0  1  0.40919000  0.72009600  0.95017600  1
  O  O1  1  0.59081000  0.27990400  0.04982400  1
  O  O2  1  0.22019700  0.90708700  0.83747900  1
  O  O3  1  0.77980300  0.09291300  0.16252100  1
  O  O4  1  0.71506900  0.86041400  0.83590500  1
  O  O5  1  0.28493100  0.13958600  0.16409500  1
  O  O6  1  0.35622200  0.61691500  0.78525900  1
  O  O7  1  0.64377800  0.38308500  0.21474100  1
  O  O8  1  0.30732100  0.59605000  0.61082100  1
  O  O9  1  0.69267900  0.40395000  0.38917900  1
  O  O10  1  0.95742500  0.73004100  0.71001200  1
  O  O11  1  0.04257500  0.26995900  0.28998800  1
  O  O12  1  0.00430900  0.40854100  0.70844500  1
  O  O13  1  0.99569100  0.59145900  0.29155500  1
  O  O14  1  0.80004200  0.43503100  0.86576300  1
  O  O15  1  0.19995800  0.56496900  0.13423700  1
  O  O16  1  0.95883200  0.14895100  0.80530900  1
  O  O17  1  0.04116800  0.85104900  0.19469100  1
  O  O18  1  0.55442300  0.25978700  0.73222900  1
  O  O19  1  0.44557700  0.74021300  0.26777100  1
  O  O20  1  0.51388300  0.16276300  0.56351400  1
  O  O21  1  0.48611700  0.83723700  0.43648600  1
  O  O22  1  0.70467100  0.97594300  0.67472700  1
  O  O23  1  0.29532900  0.02405700  0.32527300  1
  O  O24  1  0.20558700  0.02176700  0.67682000  1
  O  O25  1  0.79441300  0.97823300  0.32318000  1
loop_
_geom_bond_atom_site_label_1
_geom_bond_atom_site_label_2
_geom_bond_distance
_geom_bond_site_symmetry_2
N0 O20 1.357427 1_555
N1 O21 1.357427 1_555
N2 O0 1.349612 1_554
N3 O1 1.349612 1_556
O0 P0 1.612806 1_555
O1 P1 1.612806 1_555
O2 P0 1.524061 1_555
O2 Si0 1.788840 1_455
O3 P1 1.524061 1_555
O3 Si1 1.788840 1_655
O4 P0 1.509304 1_555
O4 Si0 1.810115 1_555
O5 P1 1.509304 1_555
O5 Si1 1.810115 1_555
O6 P0 1.572277 1_555
O6 P2 1.664422 1_555
O7 P1 1.572277 1_555
O7 P3 1.664422 1_555
O8 P2 1.460864 1_555
O9 P3 1.460864 1_555
O10 P2 1.541673 1_655
O10 Si0 1.749619 1_555
O11 P3 1.541673 1_455
O11 Si1 1.749619 1_555
O12 P2 1.603849 1_555
O12 P4 1.615667 1_455
O13 P3 1.603849 1_555
O13 P5 1.615667 1_655
O14 P4 1.461355 1_555
O15 P5 1.461355 1_555
O16 P4 1.536629 1_555
O16 Si0 1.757745 1_545
O17 P5 1.536629 1_555
O17 Si1 1.757745 1_565
O18 P6 1.584745 1_555
O18 P4 1.653211 1_555
O19 P7 1.584751 1_555
O19 P5 1.653211 1_555
O20 P6 1.615266 1_555
O21 P7 1.615268 1_555
O22 P6 1.516749 1_565
O22 Si0 1.798780 1_555
O23 P7 1.516744 1_545
O23 Si1 1.798780 1_555
O24 P6 1.506406 1_555
O24 Si0 1.825366 1_445
O25 P7 1.506404 1_555
O25 Si1 1.825366 1_665
