# generated using pymatgen
data_Fe10O9F11
_symmetry_space_group_name_H-M   'P 1'
_cell_length_a   4.76786200
_cell_length_b   4.77967705
_cell_length_c   15.50422209
_cell_angle_alpha   90.09877248
_cell_angle_beta   90.03018850
_cell_angle_gamma   93.32230428
_symmetry_Int_Tables_number   1
_chemical_formula_structural   Fe10O9F11
_chemical_formula_sum   'Fe10 O9 F11'
_cell_volume   352.72883290
_cell_formula_units_Z   1
loop_
 _symmetry_equiv_pos_site_id
 _symmetry_equiv_pos_as_xyz
  1  'x, y, z'
loop_
 _atom_site_type_symbol
 _atom_site_label
 _atom_site_symmetry_multiplicity
 _atom_site_fract_x
 _atom_site_fract_y
 _atom_site_fract_z
 _atom_site_occupancy
  Fe  Fe0  1  0.99961400  0.97695300  0.00334900  1
  Fe  Fe1  1  0.03874300  0.01570400  0.19410500  1
  Fe  Fe2  1  0.99116800  0.98812000  0.40145500  1
  Fe  Fe3  1  0.02132000  0.01249800  0.60520400  1
  Fe  Fe4  1  0.03503900  0.00803000  0.79263600  1
  Fe  Fe5  1  0.46102500  0.51444500  0.09409000  1
  Fe  Fe6  1  0.48972600  0.48306900  0.49517700  1
  Fe  Fe7  1  0.49421800  0.48429200  0.30453100  1
  Fe  Fe8  1  0.45241000  0.50500700  0.70004600  1
  Fe  Fe9  1  0.49671800  0.47599400  0.90592600  1
  O  O0  1  0.18673400  0.81070000  0.10162000  1
  O  O1  1  0.20230500  0.80570900  0.70503200  1
  O  O2  1  0.28910100  0.29423600  0.99963100  1
  O  O3  1  0.31571600  0.31916100  0.20198800  1
  O  O4  1  0.29512200  0.28726600  0.39789000  1
  O  O5  1  0.31791700  0.32083100  0.59602300  1
  O  O6  1  0.30994800  0.31402500  0.80417000  1
  O  O7  1  0.68854900  0.69112900  0.99928100  1
  O  O8  1  0.69838000  0.69020100  0.39839700  1
  F  F0  1  0.19485100  0.80689700  0.29872800  1
  F  F1  1  0.20191800  0.79566300  0.49434600  1
  F  F2  1  0.19130000  0.80220100  0.89896600  1
  F  F3  1  0.70539900  0.71183700  0.20377900  1
  F  F4  1  0.70100600  0.70187500  0.59768700  1
  F  F5  1  0.70419400  0.70705200  0.80282400  1
  F  F6  1  0.80168000  0.19656600  0.10277900  1
  F  F7  1  0.80308000  0.19385300  0.49641500  1
  F  F8  1  0.81162700  0.18782700  0.29747900  1
  F  F9  1  0.80841200  0.18333400  0.89919000  1
  F  F10  1  0.79277500  0.21552500  0.70725700  1
loop_
_geom_bond_atom_site_label_1
_geom_bond_atom_site_label_2
_geom_bond_distance
_geom_bond_site_symmetry_2
Fe0 O0 1.957988 1_655
Fe0 O7 1.958246 1_554
Fe0 O2 1.991470 1_664
Fe1 O0 1.894844 1_545
Fe1 O3 1.907824 1_555
Fe2 O8 1.935960 1_555
Fe2 O4 1.976827 1_665
Fe3 O5 1.987789 1_555
Fe3 O1 2.054212 1_545
Fe4 O1 1.871349 1_545
Fe4 O6 1.914607 1_555
Fe5 O2 1.953960 1_554
Fe5 O0 1.985753 1_555
Fe5 O7 1.987578 1_554
Fe5 O3 2.020242 1_555
Fe6 O5 1.910209 1_555
Fe6 O4 1.976087 1_555
Fe6 O8 2.028269 1_555
Fe7 O4 1.945664 1_555
Fe7 O3 1.947123 1_555
Fe7 O8 1.979048 1_555
Fe8 O1 1.921464 1_555
Fe8 O5 1.927647 1_555
Fe8 O6 1.958357 1_555
Fe9 O2 1.936875 1_555
Fe9 O6 1.948250 1_555
Fe9 O7 1.968073 1_555
F0 Fe1 2.066799 1_565
F0 Fe2 2.079531 1_455
F0 Fe7 2.162969 1_555
F1 Fe2 2.010030 1_455
F1 Fe6 2.086430 1_555
F1 Fe3 2.206485 1_565
F2 Fe0 2.058507 1_456
F2 Fe4 2.080851 1_565
F2 Fe9 2.196975 1_555
F3 Fe1 2.095560 1_665
F3 Fe7 2.125407 1_555
F3 Fe5 2.237151 1_555
F4 Fe3 2.070420 1_665
F4 Fe6 2.122493 1_555
F4 Fe8 2.164880 1_555
F5 Fe4 2.078641 1_665
F5 Fe9 2.152811 1_555
F5 Fe8 2.184320 1_555
F6 Fe1 2.036050 1_655
F6 Fe0 2.116528 1_545
F6 Fe5 2.291530 1_555
F7 Fe2 2.009324 1_545
F7 Fe6 2.093525 1_555
F7 Fe3 2.187863 1_655
F8 Fe2 2.083564 1_545
F8 Fe1 2.125722 1_655
F8 Fe7 2.135023 1_555
F9 Fe9 2.101605 1_555
F9 Fe0 2.126076 1_546
F9 Fe4 2.168151 1_655
F10 Fe4 2.050796 1_655
F10 Fe3 2.179833 1_655
F10 Fe8 2.195689 1_555
