# generated using pymatgen
data_Y(ReB)4
_symmetry_space_group_name_H-M   'P 1'
_cell_length_a   5.36354700
_cell_length_b   5.36354700
_cell_length_c   7.71843300
_cell_angle_alpha   90.00000000
_cell_angle_beta   90.00000000
_cell_angle_gamma   90.00000000
_symmetry_Int_Tables_number   1
_chemical_formula_structural   Y(ReB)4
_chemical_formula_sum   'Y2 Re8 B8'
_cell_volume   222.04107429
_cell_formula_units_Z   2
loop_
 _symmetry_equiv_pos_site_id
 _symmetry_equiv_pos_as_xyz
  1  'x, y, z'
loop_
 _atom_site_type_symbol
 _atom_site_label
 _atom_site_symmetry_multiplicity
 _atom_site_fract_x
 _atom_site_fract_y
 _atom_site_fract_z
 _atom_site_occupancy
  Y  Y0  1  0.00000000  0.00000000  0.00000000  1
  Y  Y1  1  0.50000000  0.50000000  0.50000000  1
  Re  Re0  1  0.25042500  0.50000000  0.86002400  1
  Re  Re1  1  0.74957500  0.50000000  0.86002400  1
  Re  Re2  1  0.00000000  0.75042500  0.36002400  1
  Re  Re3  1  0.00000000  0.24957500  0.36002400  1
  Re  Re4  1  0.24957500  0.00000000  0.63997600  1
  Re  Re5  1  0.75042500  0.00000000  0.63997600  1
  Re  Re6  1  0.50000000  0.74957500  0.13997600  1
  Re  Re7  1  0.50000000  0.25042500  0.13997600  1
  B  B0  1  0.83118300  0.50000000  0.14197500  1
  B  B1  1  0.16881700  0.50000000  0.14197500  1
  B  B2  1  0.00000000  0.33118300  0.64197500  1
  B  B3  1  0.00000000  0.66881700  0.64197500  1
  B  B4  1  0.66881700  0.00000000  0.35802500  1
  B  B5  1  0.33118300  0.00000000  0.35802500  1
  B  B6  1  0.50000000  0.16881700  0.85802500  1
  B  B7  1  0.50000000  0.83118300  0.85802500  1
loop_
_geom_bond_atom_site_label_1
_geom_bond_atom_site_label_2
_geom_bond_distance
_geom_bond_site_symmetry_2
Re0 Y1 3.084431 1_555
Re0 Y0 3.187987 1_556
Re0 Y0 3.187987 1_566
Re1 Y1 3.084431 1_555
Re1 Y0 3.187987 1_666
Re1 Y0 3.187987 1_656
Re2 Y0 3.084431 1_565
Re2 Y1 3.187987 1_555
Re2 Y1 3.187987 1_455
Re3 Y0 3.084431 1_555
Re3 Y1 3.187987 1_555
Re3 Y1 3.187987 1_455
Re4 Y0 3.084431 1_556
Re4 Y1 3.187987 1_545
Re4 Y1 3.187987 1_555
Re5 Y0 3.084431 1_656
Re5 Y1 3.187987 1_545
Re5 Y1 3.187987 1_555
Re6 Y1 3.084431 1_555
Re6 Y0 3.187987 1_665
Re6 Y0 3.187987 1_565
Re7 Y1 3.084431 1_555
Re7 Y0 3.187987 1_655
Re7 Y0 3.187987 1_555
B0 B1 1.810916 1_655
B0 Re1 2.219802 1_554
B0 Re6 2.224276 1_555
B0 Re7 2.224276 1_555
B0 Re2 2.335900 1_655
B0 Re3 2.335900 1_655
B0 Y0 3.035226 1_665
B0 Y0 3.035226 1_655
B0 Y1 3.285062 1_555
B1 Re0 2.219802 1_554
B1 Re6 2.224276 1_555
B1 Re7 2.224276 1_555
B1 Re2 2.335900 1_555
B1 Re3 2.335900 1_555
B1 Y0 3.035226 1_555
B1 Y0 3.035226 1_565
B1 Y1 3.285062 1_555
B2 B3 1.810916 1_555
B2 Re3 2.219802 1_555
B2 Re5 2.224276 1_455
B2 Re4 2.224276 1_555
B2 Re1 2.335900 1_455
B2 Re0 2.335900 1_555
B2 Y1 3.035226 1_455
B2 Y1 3.035226 1_555
B2 Y0 3.285062 1_556
B3 Re2 2.219802 1_555
B3 Re4 2.224276 1_565
B3 Re5 2.224276 1_465
B3 Re1 2.335900 1_455
B3 Re0 2.335900 1_555
B3 Y1 3.035226 1_455
B3 Y1 3.035226 1_555
B3 Y0 3.285062 1_566
B4 B5 1.810916 1_555
B4 Re5 2.219802 1_555
B4 Re2 2.224276 1_645
B4 Re3 2.224276 1_655
B4 Re6 2.335900 1_545
B4 Re7 2.335900 1_555
B4 Y1 3.035226 1_545
B4 Y1 3.035226 1_555
B4 Y0 3.285062 1_655
B5 Re4 2.219802 1_555
B5 Re3 2.224276 1_555
B5 Re2 2.224276 1_545
B5 Re6 2.335900 1_545
B5 Re7 2.335900 1_555
B5 Y1 3.035226 1_545
B5 Y1 3.035226 1_555
B5 Y0 3.285062 1_555
B6 B7 1.810916 1_545
B6 Re7 2.219802 1_556
B6 Re0 2.224276 1_555
B6 Re1 2.224276 1_555
B6 Re5 2.335900 1_555
B6 Re4 2.335900 1_555
B6 Y0 3.035226 1_656
B6 Y0 3.035226 1_556
B6 Y1 3.285062 1_555
B7 Re6 2.219802 1_556
B7 Re0 2.224276 1_555
B7 Re1 2.224276 1_555
B7 Re4 2.335900 1_565
B7 Re5 2.335900 1_565
B7 Y0 3.035226 1_566
B7 Y0 3.035226 1_666
B7 Y1 3.285062 1_555
