# generated using pymatgen
data_Li3Ti8O16
_symmetry_space_group_name_H-M   'P 1'
_cell_length_a   5.97467900
_cell_length_b   5.97467900
_cell_length_c   8.44883100
_cell_angle_alpha   90.00000000
_cell_angle_beta   90.00000000
_cell_angle_gamma   90.00000000
_symmetry_Int_Tables_number   1
_chemical_formula_structural   Li3Ti8O16
_chemical_formula_sum   'Li3 Ti8 O16'
_cell_volume   301.59613880
_cell_formula_units_Z   1
loop_
 _symmetry_equiv_pos_site_id
 _symmetry_equiv_pos_as_xyz
  1  'x, y, z'
loop_
 _atom_site_type_symbol
 _atom_site_label
 _atom_site_symmetry_multiplicity
 _atom_site_fract_x
 _atom_site_fract_y
 _atom_site_fract_z
 _atom_site_occupancy
  Li  Li0  1  0.00000000  0.00000000  0.00000000  1
  Li  Li1  1  0.50000000  0.00000000  0.74839200  1
  Li  Li2  1  0.00000000  0.50000000  0.25160800  1
  Ti  Ti0  1  0.74852000  0.50000000  0.87088100  1
  Ti  Ti1  1  0.25409900  0.00000000  0.37730700  1
  Ti  Ti2  1  0.25148000  0.50000000  0.87088100  1
  Ti  Ti3  1  0.74590100  0.00000000  0.37730700  1
  Ti  Ti4  1  0.50000000  0.25148000  0.12911900  1
  Ti  Ti5  1  0.00000000  0.74590100  0.62269300  1
  Ti  Ti6  1  0.50000000  0.74852000  0.12911900  1
  Ti  Ti7  1  0.00000000  0.25409900  0.62269300  1
  O  O0  1  0.72541400  0.00000000  0.13730400  1
  O  O1  1  0.21987200  0.50000000  0.64037800  1
  O  O2  1  0.27458600  0.00000000  0.13730400  1
  O  O3  1  0.78012800  0.50000000  0.64037800  1
  O  O4  1  0.50000000  0.78012800  0.35962200  1
  O  O5  1  0.00000000  0.27458600  0.86269600  1
  O  O6  1  0.50000000  0.21987200  0.35962200  1
  O  O7  1  0.00000000  0.72541400  0.86269600  1
  O  O8  1  0.27466900  0.50000000  0.11142700  1
  O  O9  1  0.77628600  0.00000000  0.61294600  1
  O  O10  1  0.72533100  0.50000000  0.11142700  1
  O  O11  1  0.22371400  0.00000000  0.61294600  1
  O  O12  1  0.50000000  0.72533100  0.88857300  1
  O  O13  1  0.00000000  0.22371400  0.38705400  1
  O  O14  1  0.50000000  0.27466900  0.88857300  1
  O  O15  1  0.00000000  0.77628600  0.38705400  1
loop_
_geom_bond_atom_site_label_1
_geom_bond_atom_site_label_2
_geom_bond_distance
_geom_bond_site_symmetry_2
Li0 O5 2.009274 1_554
Li0 O7 2.009274 1_544
Li0 O0 2.009274 1_455
Li0 O2 2.009274 1_555
Li1 O9 2.008591 1_555
Li1 O11 2.008591 1_555
Li1 O12 2.023808 1_545
Li1 O14 2.023808 1_555
Li2 O13 2.008591 1_555
Li2 O15 2.008591 1_555
Li2 O10 2.023808 1_455
Li2 O8 2.023808 1_555
O0 Ti4 2.018943 1_555
O0 Ti6 2.018943 1_545
O0 Ti3 2.031436 1_555
O1 Ti2 1.956616 1_555
O1 Ti7 1.976494 1_555
O1 Ti5 1.976494 1_555
O2 Ti4 2.018943 1_555
O2 Ti6 2.018943 1_545
O2 Ti1 2.031436 1_555
O3 Ti0 1.956616 1_555
O3 Ti7 1.976494 1_655
O3 Ti5 1.976494 1_655
O4 Ti6 1.956616 1_555
O4 Ti1 1.976494 1_565
O4 Ti3 1.976494 1_565
O5 Ti0 2.018943 1_455
O5 Ti2 2.018943 1_555
O5 Ti7 2.031436 1_555
O6 Ti4 1.956616 1_555
O6 Ti1 1.976494 1_555
O6 Ti3 1.976494 1_555
O7 Ti0 2.018943 1_455
O7 Ti2 2.018943 1_555
O7 Ti5 2.031436 1_555
O8 Ti6 2.009857 1_555
O8 Ti4 2.009857 1_555
O8 Ti2 2.037049 1_554
O9 Ti3 1.999134 1_555
O9 Ti5 2.024387 1_645
O9 Ti7 2.024387 1_655
O10 Ti4 2.009857 1_555
O10 Ti6 2.009857 1_555
O10 Ti0 2.037049 1_554
O11 Ti1 1.999134 1_555
O11 Ti5 2.024387 1_545
O11 Ti7 2.024387 1_555
O12 Ti0 2.009857 1_555
O12 Ti2 2.009857 1_555
O12 Ti6 2.037049 1_556
O13 Ti7 1.999134 1_555
O13 Ti3 2.024387 1_455
O13 Ti1 2.024387 1_555
O14 Ti0 2.009857 1_555
O14 Ti2 2.009857 1_555
O14 Ti4 2.037049 1_556
O15 Ti5 1.999134 1_555
O15 Ti3 2.024387 1_465
O15 Ti1 2.024387 1_565
