# generated using pymatgen
data_Gd6Zn23
_symmetry_space_group_name_H-M   'P 1'
_cell_length_a   8.93247662
_cell_length_b   8.93246703
_cell_length_c   8.94459418
_cell_angle_alpha   59.95799252
_cell_angle_beta   59.95790315
_cell_angle_gamma   60.09282297
_symmetry_Int_Tables_number   1
_chemical_formula_structural   Gd6Zn23
_chemical_formula_sum   'Gd6 Zn23'
_cell_volume   504.67984694
_cell_formula_units_Z   1
loop_
 _symmetry_equiv_pos_site_id
 _symmetry_equiv_pos_as_xyz
  1  'x, y, z'
loop_
 _atom_site_type_symbol
 _atom_site_label
 _atom_site_symmetry_multiplicity
 _atom_site_fract_x
 _atom_site_fract_y
 _atom_site_fract_z
 _atom_site_occupancy
  Gd  Gd0  1  0.70804267  0.29195656  0.29195571  1
  Gd  Gd1  1  0.70804498  0.29195669  0.70804533  1
  Gd  Gd2  1  0.71179255  0.71179208  0.28820866  1
  Gd  Gd3  1  0.29195906  0.70804213  0.70804173  1
  Gd  Gd4  1  0.29195679  0.70804216  0.29195714  1
  Gd  Gd5  1  0.28820664  0.28820746  0.71179225  1
  Zn  Zn0  1  0.00000001  0.99999645  0.00000148  1
  Zn  Zn1  1  0.50000021  0.99999841  0.00000292  1
  Zn  Zn2  1  0.49999960  0.99999667  0.49999945  1
  Zn  Zn3  1  0.49999711  0.50000421  0.99999813  1
  Zn  Zn4  1  0.99999822  0.50000429  0.49999738  1
  Zn  Zn5  1  0.99999915  0.50000521  -0.00000008  1
  Zn  Zn6  1  0.00000288  0.99999792  0.50000130  1
  Zn  Zn7  1  0.62888993  0.12570093  0.12270281  1
  Zn  Zn8  1  0.12569955  0.62889185  0.12270227  1
  Zn  Zn9  1  0.12270503  0.12270276  0.62888637  1
  Zn  Zn10  1  0.12270532  0.12270294  0.12570353  1
  Zn  Zn11  1  0.37110983  0.87429877  0.87729760  1
  Zn  Zn12  1  0.87429714  0.37111433  0.87729649  1
  Zn  Zn13  1  0.87729730  0.87729486  0.37111123  1
  Zn  Zn14  1  0.87729795  0.87729815  0.87429540  1
  Zn  Zn15  1  0.01907034  0.32774042  0.32659624  1
  Zn  Zn16  1  0.32773930  0.01906880  0.32659754  1
  Zn  Zn17  1  0.32659527  0.32659609  0.01907448  1
  Zn  Zn18  1  0.32659219  0.32659470  0.32773428  1
  Zn  Zn19  1  0.98093115  0.67225901  0.67340340  1
  Zn  Zn20  1  0.67225921  0.98092592  0.67340596  1
  Zn  Zn21  1  0.67340281  0.67340552  0.98092857  1
  Zn  Zn22  1  0.67340582  0.67340668  0.67226345  1
loop_
_geom_bond_atom_site_label_1
_geom_bond_atom_site_label_2
_geom_bond_distance
_geom_bond_site_symmetry_2
Gd0 Zn7 3.060572 1_555
Gd0 Zn12 3.060712 1_554
Gd0 Zn13 3.060740 1_545
Gd0 Zn10 3.060770 1_655
Gd0 Zn15 3.124653 1_655
Gd0 Zn18 3.124722 1_555
Gd0 Zn21 3.124795 1_554
Gd0 Zn20 3.124813 1_545
Gd0 Zn2 3.198223 1_545
Gd0 Zn5 3.198272 1_555
Gd0 Zn3 3.206686 1_554
Gd0 Zn6 3.206754 1_645
Gd0 Gd1 3.721764 1_555
Gd0 Gd4 3.721887 1_555
Gd0 Gd2 3.750238 1_555
Gd0 Gd5 3.750394 1_555
Gd1 Zn12 3.060566 1_555
Gd1 Zn7 3.060703 1_556
Gd1 Zn9 3.060725 1_655
Gd1 Zn14 3.060741 1_545
Gd1 Zn20 3.124682 1_545
Gd1 Zn22 3.124699 1_555
Gd1 Zn15 3.124786 1_655
Gd1 Zn17 3.124804 1_556
Gd1 Zn4 3.198199 1_555
Gd1 Zn1 3.198265 1_546
Gd1 Zn3 3.206657 1_555
Gd1 Zn6 3.206730 1_645
Gd1 Gd3 3.721887 1_555
Gd1 Gd5 3.750265 1_555
Gd1 Gd2 3.750395 1_555
Gd2 Zn13 3.048874 1_555
Gd2 Zn8 3.049020 1_655
Gd2 Zn7 3.049031 1_565
Gd2 Zn14 3.049085 1_554
Gd2 Zn21 3.129531 1_554
Gd2 Zn22 3.129589 1_555
Gd2 Zn15 3.129665 1_655
Gd2 Zn16 3.129670 1_565
Gd2 Zn2 3.198930 1_555
Gd2 Zn4 3.198935 1_555
Gd2 Zn5 3.198980 1_555
Gd2 Zn1 3.198996 1_555
Gd2 Gd4 3.750238 1_555
Gd2 Gd3 3.750368 1_555
Gd3 Zn11 3.060590 1_555
Gd3 Zn8 3.060731 1_556
Gd3 Zn9 3.060732 1_565
Gd3 Zn14 3.060765 1_455
Gd3 Zn19 3.124640 1_455
Gd3 Zn22 3.124699 1_555
Gd3 Zn16 3.124767 1_565
Gd3 Zn17 3.124799 1_556
Gd3 Zn2 3.198170 1_555
Gd3 Zn5 3.198235 1_456
Gd3 Zn3 3.206641 1_555
Gd3 Zn6 3.206699 1_555
Gd3 Gd4 3.721718 1_555
Gd3 Gd5 3.750226 1_555
Gd4 Zn8 3.060585 1_555
Gd4 Zn11 3.060721 1_554
Gd4 Zn13 3.060726 1_455
Gd4 Zn10 3.060758 1_565
Gd4 Zn16 3.124633 1_565
Gd4 Zn18 3.124707 1_555
Gd4 Zn19 3.124772 1_455
Gd4 Zn21 3.124782 1_554
Gd4 Zn4 3.198185 1_455
Gd4 Zn1 3.198242 1_555
Gd4 Zn3 3.206651 1_554
Gd4 Zn6 3.206708 1_555
Gd4 Gd5 3.750385 1_555
Gd5 Zn9 3.048887 1_555
Gd5 Zn11 3.049029 1_545
Gd5 Zn12 3.049032 1_455
Gd5 Zn10 3.049066 1_556
Gd5 Zn17 3.129555 1_556
Gd5 Zn18 3.129615 1_555
Gd5 Zn19 3.129657 1_455
Gd5 Zn20 3.129683 1_545
Gd5 Zn4 3.198985 1_455
Gd5 Zn2 3.198987 1_545
Gd5 Zn5 3.199032 1_456
Gd5 Zn1 3.199036 1_546
Zn0 Zn14 2.707852 1_454
Zn0 Zn10 2.707906 1_565
Zn0 Zn8 2.707999 1_555
Zn0 Zn13 2.708031 1_455
Zn0 Zn11 2.708037 1_554
Zn0 Zn7 2.708039 1_465
Zn0 Zn9 2.708070 1_564
Zn0 Zn12 2.708095 1_464
Zn1 Zn16 2.581972 1_565
Zn1 Zn21 2.581974 1_554
Zn1 Zn20 2.581996 1_554
Zn1 Zn17 2.582003 1_565
Zn1 Zn7 2.752980 1_565
Zn1 Zn11 2.753003 1_554
Zn1 Zn10 2.753162 1_565
Zn1 Zn14 2.753183 1_554
Zn2 Zn20 2.581879 1_555
Zn2 Zn22 2.582011 1_555
Zn2 Zn9 2.753161 1_565
Zn2 Zn7 2.753172 1_565
Zn3 Zn8 2.731482 1_556
Zn3 Zn7 2.731524 1_556
Zn4 Zn8 2.753161 1_655
Zn4 Zn9 2.753211 1_655
Zn5 Zn8 2.752960 1_655
Zn6 Zn9 2.731280 1_565
Zn10 Zn17 2.715286 1_555
Zn10 Zn16 2.716448 1_555
Zn10 Zn15 2.716457 1_555
Zn10 Zn6 2.731477 1_545
Zn10 Zn5 2.753215 1_455
Zn10 Zn13 3.095948 1_445
Zn10 Zn11 3.142285 1_544
Zn10 Zn12 3.142323 1_454
Zn11 Zn20 2.715305 1_555
Zn11 Zn21 2.716492 1_555
Zn11 Zn22 2.716547 1_555
Zn11 Zn3 2.731460 1_555
Zn11 Zn2 2.753183 1_555
Zn11 Zn8 3.095955 1_556
Zn11 Zn9 3.142328 1_565
Zn12 Zn19 2.715301 1_555
Zn12 Zn21 2.716479 1_555
Zn12 Zn22 2.716532 1_555
Zn12 Zn3 2.731500 1_555
Zn12 Zn5 2.753011 1_556
Zn12 Zn4 2.753190 1_555
Zn12 Zn7 3.095977 1_556
Zn12 Zn9 3.142358 1_655
Zn13 Zn22 2.715365 1_555
Zn13 Zn19 2.716499 1_555
Zn13 Zn20 2.716501 1_555
Zn13 Zn6 2.731328 1_655
Zn13 Zn4 2.753131 1_555
Zn13 Zn2 2.753184 1_555
Zn13 Zn8 3.142297 1_655
Zn13 Zn7 3.142327 1_565
Zn14 Zn21 2.715308 1_555
Zn14 Zn20 2.716468 1_555
Zn14 Zn19 2.716470 1_555
Zn14 Zn6 2.731450 1_655
Zn14 Zn5 2.753147 1_556
Zn14 Zn9 3.095921 1_665
Zn14 Zn8 3.142280 1_656
Zn14 Zn7 3.142285 1_566
Zn15 Zn4 2.581861 1_455
Zn15 Zn5 2.581990 1_455
Zn15 Zn6 2.586789 1_545
Zn15 Zn8 2.715330 1_555
Zn15 Zn9 2.716487 1_555
Zn15 Zn18 2.746944 1_555
Zn15 Zn17 2.747108 1_555
Zn15 Zn16 2.761056 1_555
Zn16 Zn2 2.581842 1_545
Zn16 Zn6 2.586753 1_545
Zn16 Zn7 2.715337 1_555
Zn16 Zn9 2.716470 1_555
Zn16 Zn18 2.746965 1_555
Zn16 Zn17 2.747126 1_555
Zn17 Zn5 2.582003 1_455
Zn17 Zn3 2.586642 1_554
Zn17 Zn7 2.716493 1_555
Zn17 Zn8 2.716494 1_555
Zn17 Zn18 2.760817 1_555
Zn18 Zn4 2.582035 1_455
Zn18 Zn2 2.582057 1_545
Zn18 Zn3 2.586810 1_554
Zn18 Zn9 2.715362 1_555
Zn18 Zn8 2.716547 1_555
Zn18 Zn7 2.716547 1_555
Zn19 Zn4 2.581852 1_555
Zn19 Zn5 2.581982 1_556
Zn19 Zn6 2.586774 1_655
Zn19 Zn22 2.746975 1_555
Zn19 Zn21 2.747138 1_555
Zn19 Zn20 2.761048 1_555
Zn20 Zn6 2.586812 1_655
Zn20 Zn22 2.746934 1_555
Zn20 Zn21 2.747094 1_555
Zn21 Zn5 2.581995 1_556
Zn21 Zn3 2.586652 1_555
Zn21 Zn22 2.760866 1_555
Zn22 Zn4 2.582015 1_555
Zn22 Zn3 2.586793 1_555
