# generated using pymatgen
data_Cr5Cu(GeO6)2
_symmetry_space_group_name_H-M   'P 1'
_cell_length_a   9.61180683
_cell_length_b   9.61180683
_cell_length_c   6.05028800
_cell_angle_alpha   90.00000000
_cell_angle_beta   90.00000000
_cell_angle_gamma   127.79372469
_symmetry_Int_Tables_number   1
_chemical_formula_structural   Cr5Cu(GeO6)2
_chemical_formula_sum   'Cr10 Cu2 Ge4 O24'
_cell_volume   441.70804273
_cell_formula_units_Z   2
loop_
 _symmetry_equiv_pos_site_id
 _symmetry_equiv_pos_as_xyz
  1  'x, y, z'
loop_
 _atom_site_type_symbol
 _atom_site_label
 _atom_site_symmetry_multiplicity
 _atom_site_fract_x
 _atom_site_fract_y
 _atom_site_fract_z
 _atom_site_occupancy
  Cr  Cr0  1  0.67224400  0.32775600  0.50000000  1
  Cr  Cr1  1  0.32775600  0.67224400  0.50000000  1
  Cr  Cr2  1  0.32775600  0.67224400  0.00000000  1
  Cr  Cr3  1  0.67224400  0.32775600  0.00000000  1
  Cr  Cr4  1  0.16138100  0.33495800  0.75000000  1
  Cr  Cr5  1  0.83861900  0.66504200  0.25000000  1
  Cr  Cr6  1  0.33495800  0.16138100  0.75000000  1
  Cr  Cr7  1  0.66504200  0.83861900  0.25000000  1
  Cr  Cr8  1  0.00000000  0.00000000  0.50000000  1
  Cr  Cr9  1  0.00000000  0.00000000  0.00000000  1
  Cu  Cu0  1  0.62279800  0.62279800  0.75000000  1
  Cu  Cu1  1  0.37720200  0.37720200  0.25000000  1
  Ge  Ge0  1  0.02396500  0.68926800  0.75000000  1
  Ge  Ge1  1  0.97603500  0.31073200  0.25000000  1
  Ge  Ge2  1  0.68926800  0.02396500  0.75000000  1
  Ge  Ge3  1  0.31073200  0.97603500  0.25000000  1
  O  O0  1  0.90467100  0.57804800  0.50763500  1
  O  O1  1  0.09532900  0.42195200  0.49236500  1
  O  O2  1  0.09532900  0.42195200  0.00763500  1
  O  O3  1  0.57804800  0.90467100  0.99236500  1
  O  O4  1  0.90467100  0.57804800  0.99236500  1
  O  O5  1  0.42195200  0.09532900  0.00763500  1
  O  O6  1  0.42195200  0.09532900  0.49236500  1
  O  O7  1  0.57804800  0.90467100  0.50763500  1
  O  O8  1  0.38326700  0.57622400  0.75000000  1
  O  O9  1  0.61673300  0.42377600  0.25000000  1
  O  O10  1  0.57622400  0.38326700  0.75000000  1
  O  O11  1  0.42377600  0.61673300  0.25000000  1
  O  O12  1  0.23276000  0.73583800  0.75000000  1
  O  O13  1  0.76724000  0.26416200  0.25000000  1
  O  O14  1  0.73583700  0.23276000  0.75000000  1
  O  O15  1  0.26416200  0.76724000  0.25000000  1
  O  O16  1  0.91430700  0.07818900  0.75000000  1
  O  O17  1  0.08569300  0.92181100  0.25000000  1
  O  O18  1  0.07818900  0.91430700  0.75000000  1
  O  O19  1  0.92181100  0.08569300  0.25000000  1
  O  O20  1  0.23183100  0.23183100  0.53131600  1
  O  O21  1  0.76816900  0.76816900  0.46868400  1
  O  O22  1  0.76816900  0.76816900  0.03131600  1
  O  O23  1  0.23183100  0.23183100  0.96868400  1
loop_
_geom_bond_atom_site_label_1
_geom_bond_atom_site_label_2
_geom_bond_distance
_geom_bond_site_symmetry_2
Cr0 O10 2.006964 1_555
Cr0 O9 2.006964 1_555
Cr0 O14 2.044325 1_555
Cr0 O13 2.044330 1_555
Cr0 O6 2.047795 1_555
Cr0 O0 2.047795 1_555
Cr1 O8 2.006964 1_555
Cr1 O11 2.006964 1_555
Cr1 O12 2.044330 1_555
Cr1 O15 2.044330 1_555
Cr1 O1 2.047795 1_555
Cr1 O7 2.047795 1_555
Cr2 O8 2.006964 1_554
Cr2 O11 2.006964 1_555
Cr2 O12 2.044330 1_554
Cr2 O15 2.044330 1_555
Cr2 O2 2.047795 1_555
Cr2 O3 2.047795 1_554
Cr3 O10 2.006964 1_554
Cr3 O9 2.006964 1_555
Cr3 O14 2.044325 1_554
Cr3 O13 2.044330 1_555
Cr3 O5 2.047795 1_555
Cr3 O4 2.047795 1_554
Cr4 O8 1.965838 1_555
Cr4 O20 2.003585 1_555
Cr4 O23 2.003585 1_555
Cr4 O2 2.045154 1_556
Cr4 O1 2.045154 1_555
Cr4 O16 2.132436 1_455
Cr5 O9 1.965838 1_555
Cr5 O21 2.003585 1_555
Cr5 O22 2.003585 1_555
Cr5 O0 2.045154 1_555
Cr5 O4 2.045154 1_554
Cr5 O17 2.132436 1_655
Cr6 O10 1.965838 1_555
Cr6 O20 2.003585 1_555
Cr6 O23 2.003585 1_555
Cr6 O5 2.045154 1_556
Cr6 O6 2.045154 1_555
Cr6 O18 2.132436 1_545
Cr7 O11 1.965838 1_555
Cr7 O21 2.003585 1_555
Cr7 O22 2.003585 1_555
Cr7 O7 2.045154 1_555
Cr7 O3 2.045154 1_554
Cr7 O19 2.132436 1_565
Cr8 O20 1.969998 1_555
Cr8 O21 1.969998 1_445
Cr8 O17 2.071182 1_545
Cr8 O18 2.071182 1_545
Cr8 O19 2.071182 1_455
Cr8 O16 2.071182 1_455
Cr9 O23 1.969998 1_554
Cr9 O22 1.969998 1_445
Cr9 O17 2.071182 1_545
Cr9 O18 2.071182 1_544
Cr9 O19 2.071182 1_455
Cr9 O16 2.071182 1_454
Cu0 O8 2.058612 1_555
Cu0 O10 2.058612 1_555
Cu0 O22 2.099714 1_556
Cu0 O21 2.099714 1_555
Cu1 O11 2.058612 1_555
Cu1 O9 2.058612 1_555
Cu1 O23 2.099714 1_554
Cu1 O20 2.099714 1_555
Ge0 O4 1.762237 1_455
Ge0 O0 1.762237 1_455
Ge0 O12 1.768324 1_555
Ge0 O18 1.889078 1_555
Ge1 O1 1.762237 1_655
Ge1 O2 1.762237 1_655
Ge1 O13 1.768324 1_555
Ge1 O19 1.889078 1_555
Ge2 O3 1.762237 1_545
Ge2 O7 1.762237 1_545
Ge2 O14 1.768328 1_555
Ge2 O16 1.889078 1_555
Ge3 O6 1.762237 1_565
Ge3 O5 1.762237 1_565
Ge3 O15 1.768324 1_555
Ge3 O17 1.889078 1_555
