# generated using pymatgen
data_Mg14NbSi
_symmetry_space_group_name_H-M   'P 1'
_cell_length_a   6.24348627
_cell_length_b   6.24348578
_cell_length_c   10.09038495
_cell_angle_alpha   90.00000000
_cell_angle_beta   90.00000000
_cell_angle_gamma   120.00000252
_symmetry_Int_Tables_number   1
_chemical_formula_structural   Mg14NbSi
_chemical_formula_sum   'Mg14 Nb1 Si1'
_cell_volume   340.63764675
_cell_formula_units_Z   1
loop_
 _symmetry_equiv_pos_site_id
 _symmetry_equiv_pos_as_xyz
  1  'x, y, z'
loop_
 _atom_site_type_symbol
 _atom_site_label
 _atom_site_symmetry_multiplicity
 _atom_site_fract_x
 _atom_site_fract_y
 _atom_site_fract_z
 _atom_site_occupancy
  Mg  Mg0  1  0.16500658  0.83250279  0.12500000  1
  Mg  Mg1  1  0.17020182  0.83510041  0.62500000  1
  Mg  Mg2  1  0.66749721  0.33499342  0.12500000  1
  Mg  Mg3  1  0.66489959  0.32979818  0.62500000  1
  Mg  Mg4  1  0.66749721  0.83250279  0.12500000  1
  Mg  Mg5  1  0.66489959  0.83510041  0.62500000  1
  Mg  Mg6  1  0.32674327  0.17325673  0.37554245  1
  Mg  Mg7  1  0.32674327  0.17325673  0.87445755  1
  Mg  Mg8  1  0.32674327  0.65348754  0.37554245  1
  Mg  Mg9  1  0.32674327  0.65348754  0.87445755  1
  Mg  Mg10  1  0.84651246  0.17325673  0.37554245  1
  Mg  Mg11  1  0.84651246  0.17325673  0.87445755  1
  Mg  Mg12  1  0.83333300  0.66666700  0.38000583  1
  Mg  Mg13  1  0.83333300  0.66666700  0.86999417  1
  Nb  Nb0  1  0.16666700  0.33333300  0.62500000  1
  Si  Si0  1  0.16666700  0.33333300  0.12500000  1
loop_
_geom_bond_atom_site_label_1
_geom_bond_atom_site_label_2
_geom_bond_distance
_geom_bond_site_symmetry_2
Mg0 Mg2 3.106193 1_455
Mg0 Mg4 3.106193 1_455
Mg0 Si0 3.121756 1_565
Mg0 Si0 3.121756 1_555
Mg0 Mg9 3.128686 1_554
Mg0 Mg8 3.128686 1_555
Mg0 Mg7 3.128692 1_564
Mg0 Mg6 3.128692 1_565
Mg0 Mg12 3.136405 1_455
Mg0 Mg13 3.136405 1_454
Mg0 Mg2 3.137293 1_565
Mg0 Mg4 3.137293 1_555
Mg1 Mg13 3.070653 1_455
Mg1 Mg12 3.070653 1_455
Mg1 Mg3 3.088638 1_565
Mg1 Mg5 3.088639 1_555
Mg1 Mg8 3.112090 1_555
Mg1 Mg9 3.112090 1_555
Mg1 Mg7 3.112096 1_565
Mg1 Mg6 3.112096 1_565
Mg1 Nb0 3.121801 1_555
Mg1 Nb0 3.121801 1_565
Mg1 Mg3 3.154847 1_455
Mg1 Mg5 3.154848 1_455
Mg2 Mg4 3.106193 1_555
Mg2 Si0 3.121756 1_655
Mg2 Si0 3.121756 1_555
Mg2 Mg7 3.128692 1_554
Mg2 Mg6 3.128692 1_555
Mg2 Mg4 3.137293 1_545
Mg3 Mg5 3.088638 1_545
Mg3 Mg7 3.112096 1_555
Mg3 Mg6 3.112096 1_555
Mg3 Nb0 3.121802 1_555
Mg3 Nb0 3.121802 1_655
Mg3 Mg5 3.154847 1_555
Mg4 Si0 3.121756 1_665
Mg4 Si0 3.121756 1_555
Mg4 Mg9 3.128692 1_554
Mg4 Mg8 3.128692 1_555
Mg5 Mg8 3.112096 1_555
Mg5 Mg9 3.112096 1_555
Mg5 Nb0 3.121801 1_555
Mg5 Nb0 3.121801 1_665
Mg6 Mg8 2.998314 1_555
Mg6 Nb0 3.054916 1_555
Mg6 Si0 3.063942 1_555
Mg6 Mg8 3.245172 1_545
Mg7 Mg9 2.998314 1_555
Mg7 Nb0 3.054916 1_555
Mg7 Si0 3.063942 1_556
Mg7 Mg9 3.245172 1_545
Mg8 Nb0 3.054922 1_555
Mg8 Si0 3.063948 1_555
Mg9 Nb0 3.054922 1_555
Mg9 Si0 3.063948 1_556
Mg10 Mg8 2.998314 1_655
Mg10 Mg6 2.998314 1_655
Mg10 Nb0 3.054922 1_655
Mg10 Si0 3.063948 1_655
Mg10 Mg3 3.112090 1_555
Mg10 Mg5 3.112096 1_545
Mg10 Mg12 3.122881 1_545
Mg10 Mg12 3.122881 1_555
Mg10 Mg2 3.128686 1_555
Mg10 Mg4 3.128692 1_545
Mg10 Mg8 3.245172 1_545
Mg10 Mg6 3.245172 1_555
Mg11 Mg9 2.998314 1_655
Mg11 Mg7 2.998314 1_655
Mg11 Nb0 3.054922 1_655
Mg11 Si0 3.063948 1_656
Mg11 Mg3 3.112090 1_555
Mg11 Mg5 3.112096 1_545
Mg11 Mg13 3.122881 1_545
Mg11 Mg13 3.122881 1_555
Mg11 Mg2 3.128686 1_556
Mg11 Mg4 3.128692 1_546
Mg11 Mg9 3.245172 1_545
Mg11 Mg7 3.245172 1_555
Mg12 Mg5 3.070646 1_555
Mg12 Mg3 3.070652 1_555
Mg12 Mg6 3.122881 1_665
Mg12 Mg6 3.122881 1_555
Mg12 Mg8 3.122881 1_655
Mg12 Mg8 3.122881 1_555
Mg12 Mg4 3.136399 1_555
Mg12 Mg2 3.136405 1_555
Mg13 Mg5 3.070646 1_555
Mg13 Mg3 3.070652 1_555
Mg13 Mg7 3.122881 1_665
Mg13 Mg7 3.122881 1_555
Mg13 Mg9 3.122881 1_655
Mg13 Mg9 3.122881 1_555
Mg13 Mg4 3.136399 1_556
Mg13 Mg2 3.136405 1_556
