# generated using pymatgen
data_Li5Mn2CoO8
_symmetry_space_group_name_H-M   'P 1'
_cell_length_a   2.87550900
_cell_length_b   5.11600097
_cell_length_c   9.81994340
_cell_angle_alpha   101.19304394
_cell_angle_beta   90.00000000
_cell_angle_gamma   90.00000000
_symmetry_Int_Tables_number   1
_chemical_formula_structural   Li5Mn2CoO8
_chemical_formula_sum   'Li5 Mn2 Co1 O8'
_cell_volume   141.71438122
_cell_formula_units_Z   1
loop_
 _symmetry_equiv_pos_site_id
 _symmetry_equiv_pos_as_xyz
  1  'x, y, z'
loop_
 _atom_site_type_symbol
 _atom_site_label
 _atom_site_symmetry_multiplicity
 _atom_site_fract_x
 _atom_site_fract_y
 _atom_site_fract_z
 _atom_site_occupancy
  Li  Li0  1  0.50000000  0.27061700  0.27071600  1
  Li  Li1  1  0.50000000  0.72938300  0.72928400  1
  Li  Li2  1  0.00000000  0.75560100  0.26328700  1
  Li  Li3  1  0.00000000  0.24439900  0.73671300  1
  Li  Li4  1  0.00000000  0.50000000  0.50000000  1
  Mn  Mn0  1  0.00000000  0.00000000  0.00000000  1
  Mn  Mn1  1  0.50000000  0.00000000  0.50000000  1
  Co  Co0  1  0.50000000  0.50000000  0.00000000  1
  O  O0  1  0.50000000  0.90274300  0.11320800  1
  O  O1  1  0.50000000  0.34542000  0.61949300  1
  O  O2  1  0.00000000  0.36121500  0.10746900  1
  O  O3  1  0.00000000  0.88634400  0.61052400  1
  O  O4  1  0.50000000  0.65458000  0.38050700  1
  O  O5  1  0.50000000  0.09725700  0.88679200  1
  O  O6  1  0.00000000  0.11365600  0.38947600  1
  O  O7  1  0.00000000  0.63878500  0.89253100  1
loop_
_geom_bond_atom_site_label_1
_geom_bond_atom_site_label_2
_geom_bond_distance
_geom_bond_site_symmetry_2
Li0 O4 2.049113 1_555
Li0 O6 2.106087 1_655
Li0 O6 2.106087 1_555
Li0 O0 2.191870 1_545
Li0 O2 2.267220 1_555
Li0 O2 2.267220 1_655
Li1 O1 2.049113 1_555
Li1 O3 2.106087 1_655
Li1 O3 2.106087 1_555
Li1 O5 2.191870 1_565
Li1 O7 2.267220 1_555
Li1 O7 2.267220 1_655
Li2 O4 1.972365 1_455
Li2 O4 1.972365 1_555
Li2 O6 2.002452 1_565
Li2 O2 2.283358 1_555
Li2 O0 2.288343 1_555
Li2 O0 2.288343 1_455
Li3 O1 1.972365 1_555
Li3 O1 1.972365 1_455
Li3 O3 2.002452 1_545
Li3 O7 2.283358 1_555
Li3 O5 2.288343 1_555
Li3 O5 2.288343 1_455
Li4 O3 2.061994 1_555
Li4 O6 2.061994 1_555
Li4 O1 2.104690 1_455
Li4 O1 2.104690 1_555
Li4 O4 2.104690 1_555
Li4 O4 2.104690 1_455
Mn0 O5 1.940445 1_454
Mn0 O5 1.940445 1_554
Mn0 O0 1.940445 1_445
Mn0 O0 1.940445 1_545
Mn0 O7 1.942064 1_544
Mn0 O2 1.942064 1_555
Mn1 O1 1.922172 1_555
Mn1 O4 1.922172 1_545
Mn1 O3 1.956580 1_545
Mn1 O3 1.956580 1_645
Mn1 O6 1.956580 1_555
Mn1 O6 1.956580 1_655
Co0 O2 1.993971 1_555
Co0 O2 1.993971 1_655
Co0 O7 1.993971 1_654
Co0 O7 1.993971 1_554
Co0 O0 2.142891 1_555
Co0 O5 2.142891 1_554
