# generated using pymatgen
data_Pr2ZrS5
_symmetry_space_group_name_H-M   'P 1'
_cell_length_a   7.41847605
_cell_length_b   8.07290621
_cell_length_c   11.68070471
_cell_angle_alpha   90.00000000
_cell_angle_beta   90.00000000
_cell_angle_gamma   90.00000000
_symmetry_Int_Tables_number   1
_chemical_formula_structural   Pr2ZrS5
_chemical_formula_sum   'Pr8 Zr4 S20'
_cell_volume   699.54176897
_cell_formula_units_Z   4
loop_
 _symmetry_equiv_pos_site_id
 _symmetry_equiv_pos_as_xyz
  1  'x, y, z'
loop_
 _atom_site_type_symbol
 _atom_site_label
 _atom_site_symmetry_multiplicity
 _atom_site_fract_x
 _atom_site_fract_y
 _atom_site_fract_z
 _atom_site_occupancy
  Pr  Pr0  1  0.53969127  0.49947328  0.32489078  1
  Pr  Pr1  1  0.96030873  0.00052672  0.82489078  1
  Pr  Pr2  1  0.46030873  0.99947328  0.67510922  1
  Pr  Pr3  1  0.03969127  0.50052672  0.17510922  1
  Pr  Pr4  1  0.46030873  0.50052672  0.67510922  1
  Pr  Pr5  1  0.03969127  0.99947328  0.17510922  1
  Pr  Pr6  1  0.53969127  0.00052672  0.32489078  1
  Pr  Pr7  1  0.96030873  0.49947328  0.82489078  1
  Zr  Zr0  1  0.07400987  0.75000000  0.49188788  1
  Zr  Zr1  1  0.42599013  0.75000000  0.99188788  1
  Zr  Zr2  1  0.92599013  0.25000000  0.50811212  1
  Zr  Zr3  1  0.57400987  0.25000000  0.00811212  1
  S  S0  1  0.83324276  0.96545399  0.58355961  1
  S  S1  1  0.66675724  0.53454601  0.08355961  1
  S  S2  1  0.16675724  0.46545399  0.41644039  1
  S  S3  1  0.33324276  0.03454601  0.91644039  1
  S  S4  1  0.16675724  0.03454601  0.41644039  1
  S  S5  1  0.33324276  0.46545399  0.91644039  1
  S  S6  1  0.83324276  0.53454601  0.58355961  1
  S  S7  1  0.66675724  0.96545399  0.08355961  1
  S  S8  1  0.84585614  0.75000000  0.31491817  1
  S  S9  1  0.65414386  0.75000000  0.81491817  1
  S  S10  1  0.15414386  0.25000000  0.68508183  1
  S  S11  1  0.34585614  0.25000000  0.18508183  1
  S  S12  1  0.44256323  0.75000000  0.49572019  1
  S  S13  1  0.05743677  0.75000000  0.99572019  1
  S  S14  1  0.55743677  0.25000000  0.50427981  1
  S  S15  1  0.94256323  0.25000000  0.00427981  1
  S  S16  1  0.17404473  0.75000000  0.70618595  1
  S  S17  1  0.32595527  0.75000000  0.20618595  1
  S  S18  1  0.82595527  0.25000000  0.29381405  1
  S  S19  1  0.67404473  0.25000000  0.79381405  1
loop_
_geom_bond_atom_site_label_1
_geom_bond_atom_site_label_2
_geom_bond_distance
_geom_bond_site_symmetry_2
Pr0 S14 2.909310 1_555
Pr0 S17 2.920115 1_555
Pr0 S12 2.931084 1_555
Pr0 S18 2.949189 1_555
Pr0 S11 2.964917 1_555
Pr0 S2 2.978767 1_555
Pr0 S1 2.985805 1_555
Pr0 S8 3.043466 1_555
Pr1 S15 2.909310 1_556
Pr1 S16 2.920115 1_645
Pr1 S13 2.931084 1_645
Pr1 S19 2.949189 1_555
Pr1 S10 2.964917 1_655
Pr1 S3 2.978767 1_655
Pr1 S0 2.985805 1_545
Pr1 S9 3.043466 1_545
Pr2 S12 2.909310 1_555
Pr2 S19 2.920115 1_565
Pr2 S14 2.931084 1_565
Pr2 S16 2.949189 1_555
Pr2 S9 2.964917 1_555
Pr2 S0 2.978767 1_555
Pr2 S3 2.985805 1_565
Pr2 S10 3.043466 1_565
Pr3 S13 2.909310 1_554
Pr3 S18 2.920115 1_455
Pr3 S15 2.931084 1_455
Pr3 S17 2.949189 1_555
Pr3 S8 2.964917 1_455
Pr3 S1 2.978767 1_455
Pr3 S2 2.985805 1_555
Pr3 S11 3.043466 1_555
Pr4 S12 2.909310 1_555
Pr4 S19 2.920115 1_555
Pr4 S14 2.931084 1_555
Pr4 S16 2.949189 1_555
Pr4 S9 2.964917 1_555
Pr4 S6 2.978767 1_555
Pr4 S5 2.985805 1_555
Pr4 S10 3.043466 1_555
Pr5 S13 2.909310 1_554
Pr5 S18 2.920115 1_465
Pr5 S15 2.931084 1_465
Pr5 S17 2.949189 1_555
Pr5 S8 2.964917 1_455
Pr5 S7 2.978767 1_455
Pr5 S4 2.985805 1_565
Pr5 S11 3.043466 1_565
Pr6 S14 2.909310 1_555
Pr6 S17 2.920115 1_545
Pr6 S12 2.931084 1_545
Pr6 S18 2.949189 1_555
Pr6 S11 2.964917 1_555
Pr6 S4 2.978767 1_555
Pr6 S7 2.985805 1_545
Pr6 S8 3.043466 1_545
Pr7 S15 2.909310 1_556
Pr7 S16 2.920115 1_655
Pr7 S13 2.931084 1_655
Pr7 S19 2.949189 1_555
Pr7 S10 2.964917 1_655
Pr7 S5 2.978767 1_655
Pr7 S6 2.985805 1_555
Pr7 S9 3.043466 1_555
S0 Zr2 2.554758 1_565
S0 Zr0 2.713326 1_655
S1 Zr3 2.554758 1_555
S1 Zr1 2.713326 1_554
S2 Zr0 2.554758 1_555
S2 Zr2 2.713326 1_455
S3 Zr1 2.554758 1_545
S3 Zr3 2.713326 1_556
S4 Zr0 2.554758 1_545
S4 Zr2 2.713326 1_455
S5 Zr1 2.554758 1_555
S5 Zr3 2.713326 1_556
S6 Zr2 2.554758 1_555
S6 Zr0 2.713326 1_655
S7 Zr3 2.554758 1_565
S7 Zr1 2.713326 1_554
S8 Zr0 2.671660 1_655
S9 Zr1 2.671660 1_555
S10 Zr2 2.671660 1_455
S11 Zr3 2.671660 1_555
S12 Zr0 2.734471 1_555
S13 Zr1 2.734471 1_555
S14 Zr2 2.734471 1_555
S15 Zr3 2.734471 1_555
S16 Zr0 2.610842 1_555
S17 Zr1 2.610842 1_554
S18 Zr2 2.610842 1_555
S19 Zr3 2.610842 1_556
