# generated using pymatgen
data_Mg14ZnSnO16
_symmetry_space_group_name_H-M   'P 1'
_cell_length_a   8.69974580
_cell_length_b   8.64046179
_cell_length_c   4.37134653
_cell_angle_alpha   90.00000000
_cell_angle_beta   90.00000000
_cell_angle_gamma   90.00000000
_symmetry_Int_Tables_number   1
_chemical_formula_structural   Mg14ZnSnO16
_chemical_formula_sum   'Mg14 Zn1 Sn1 O16'
_cell_volume   328.59333692
_cell_formula_units_Z   1
loop_
 _symmetry_equiv_pos_site_id
 _symmetry_equiv_pos_as_xyz
  1  'x, y, z'
loop_
 _atom_site_type_symbol
 _atom_site_label
 _atom_site_symmetry_multiplicity
 _atom_site_fract_x
 _atom_site_fract_y
 _atom_site_fract_z
 _atom_site_occupancy
  Mg  Mg0  1  0.50000000  0.00000000  -0.00000000  1
  Mg  Mg1  1  0.50000000  0.50000000  -0.00000000  1
  Mg  Mg2  1  0.00000000  0.24020385  0.50000000  1
  Mg  Mg3  1  0.00000000  0.75979615  0.50000000  1
  Mg  Mg4  1  0.50000000  0.24831822  0.50000000  1
  Mg  Mg5  1  0.50000000  0.75168178  0.50000000  1
  Mg  Mg6  1  0.25121186  0.00000000  0.50000000  1
  Mg  Mg7  1  0.25927764  0.50000000  0.50000000  1
  Mg  Mg8  1  0.74878814  0.00000000  0.50000000  1
  Mg  Mg9  1  0.74072236  0.50000000  0.50000000  1
  Mg  Mg10  1  0.25544260  0.24480752  0.00000000  1
  Mg  Mg11  1  0.25544260  0.75519248  -0.00000000  1
  Mg  Mg12  1  0.74455740  0.24480752  -0.00000000  1
  Mg  Mg13  1  0.74455740  0.75519248  -0.00000000  1
  Zn  Zn0  1  0.00000000  0.00000000  -0.00000000  1
  Sn  Sn0  1  0.00000000  0.50000000  -0.00000000  1
  O  O0  1  0.26030552  0.00000000  0.00000000  1
  O  O1  1  0.27127493  0.50000000  -0.00000000  1
  O  O2  1  0.73969448  0.00000000  -0.00000000  1
  O  O3  1  0.72872507  0.50000000  -0.00000000  1
  O  O4  1  0.24905774  0.25016421  0.50000000  1
  O  O5  1  0.24905774  0.74983579  0.50000000  1
  O  O6  1  0.75094226  0.25016421  0.50000000  1
  O  O7  1  0.75094226  0.74983579  0.50000000  1
  O  O8  1  0.00000000  0.00000000  0.50000000  1
  O  O9  1  0.00000000  0.50000000  0.50000000  1
  O  O10  1  0.50000000  0.00000000  0.50000000  1
  O  O11  1  0.50000000  0.50000000  0.50000000  1
  O  O12  1  0.00000000  0.22989474  0.00000000  1
  O  O13  1  0.00000000  0.77010526  -0.00000000  1
  O  O14  1  0.50000000  0.24723579  -0.00000000  1
  O  O15  1  0.50000000  0.75276421  -0.00000000  1
loop_
_geom_bond_atom_site_label_1
_geom_bond_atom_site_label_2
_geom_bond_distance
_geom_bond_site_symmetry_2
Mg0 O0 2.085281 1_555
Mg0 O2 2.085281 1_555
Mg0 O15 2.136231 1_545
Mg0 O14 2.136231 1_555
Mg0 O10 2.185673 1_555
Mg0 O10 2.185673 1_554
Mg1 O3 1.989850 1_555
Mg1 O1 1.989850 1_555
Mg1 O14 2.183999 1_555
Mg1 O15 2.183999 1_555
Mg1 O11 2.185673 1_554
Mg1 O11 2.185673 1_555
Mg2 O8 2.075472 1_555
Mg2 O4 2.168448 1_555
Mg2 O6 2.168448 1_455
Mg2 O12 2.187488 1_555
Mg2 O12 2.187488 1_556
Mg2 O9 2.244759 1_555
Mg3 O8 2.075472 1_565
Mg3 O5 2.168448 1_555
Mg3 O7 2.168448 1_455
Mg3 O13 2.187488 1_555
Mg3 O13 2.187488 1_556
Mg3 O9 2.244759 1_555
Mg4 O10 2.145584 1_555
Mg4 O11 2.174647 1_555
Mg4 O4 2.183192 1_555
Mg4 O6 2.183192 1_555
Mg4 O14 2.185693 1_556
Mg4 O14 2.185693 1_555
Mg5 O10 2.145584 1_565
Mg5 O11 2.174647 1_555
Mg5 O5 2.183192 1_555
Mg5 O7 2.183192 1_555
Mg5 O15 2.185693 1_556
Mg5 O15 2.185693 1_555
Mg6 O4 2.161616 1_555
Mg6 O5 2.161616 1_545
Mg6 O10 2.164394 1_555
Mg6 O8 2.185479 1_555
Mg6 O0 2.187105 1_555
Mg6 O0 2.187105 1_556
Mg7 O11 2.094223 1_555
Mg7 O4 2.160527 1_555
Mg7 O5 2.160527 1_555
Mg7 O1 2.188164 1_556
Mg7 O1 2.188164 1_555
Mg7 O9 2.255650 1_555
Mg8 O6 2.161616 1_555
Mg8 O7 2.161616 1_545
Mg8 O10 2.164394 1_555
Mg8 O8 2.185479 1_655
Mg8 O2 2.187105 1_556
Mg8 O2 2.187105 1_555
Mg9 O11 2.094223 1_555
Mg9 O6 2.160527 1_555
Mg9 O7 2.160527 1_555
Mg9 O3 2.188164 1_556
Mg9 O3 2.188164 1_555
Mg9 O9 2.255650 1_655
Mg10 O0 2.115673 1_555
Mg10 O14 2.127691 1_555
Mg10 O4 2.186869 1_554
Mg10 O4 2.186869 1_555
Mg10 O1 2.209279 1_555
Mg10 O12 2.226018 1_555
Mg11 O0 2.115673 1_565
Mg11 O15 2.127691 1_555
Mg11 O5 2.186869 1_554
Mg11 O5 2.186869 1_555
Mg11 O1 2.209279 1_555
Mg11 O13 2.226018 1_555
Mg12 O2 2.115673 1_555
Mg12 O14 2.127691 1_555
Mg12 O6 2.186869 1_554
Mg12 O6 2.186869 1_555
Mg12 O3 2.209279 1_555
Mg12 O12 2.226018 1_655
Mg13 O2 2.115673 1_565
Mg13 O15 2.127691 1_555
Mg13 O7 2.186869 1_555
Mg13 O7 2.186869 1_554
Mg13 O3 2.209279 1_555
Mg13 O13 2.226018 1_655
O0 Zn0 2.264592 1_555
O1 Sn0 2.360023 1_555
O2 Zn0 2.264592 1_655
O3 Sn0 2.360023 1_655
O8 Zn0 2.185673 1_556
O8 Zn0 2.185673 1_555
O9 Sn0 2.185673 1_556
O9 Sn0 2.185673 1_555
O12 Zn0 1.986397 1_555
O12 Sn0 2.333834 1_555
O13 Zn0 1.986397 1_565
O13 Sn0 2.333834 1_555
