# generated using pymatgen
data_PrAgGe
_symmetry_space_group_name_H-M   'P 1'
_cell_length_a   4.53465090
_cell_length_b   4.53465090
_cell_length_c   7.81447119
_cell_angle_alpha   90.00000000
_cell_angle_beta   90.00000000
_cell_angle_gamma   120.00001339
_symmetry_Int_Tables_number   1
_chemical_formula_structural   PrAgGe
_chemical_formula_sum   'Pr2 Ag2 Ge2'
_cell_volume   139.16110999
_cell_formula_units_Z   2
loop_
 _symmetry_equiv_pos_site_id
 _symmetry_equiv_pos_as_xyz
  1  'x, y, z'
loop_
 _atom_site_type_symbol
 _atom_site_label
 _atom_site_symmetry_multiplicity
 _atom_site_fract_x
 _atom_site_fract_y
 _atom_site_fract_z
 _atom_site_occupancy
  Pr  Pr0  1  -0.00000000  0.00000000  0.01357434  1
  Pr  Pr1  1  -0.00000000  0.00000000  0.51357434  1
  Ag  Ag0  1  0.66666700  0.33333300  0.28027203  1
  Ag  Ag1  1  0.33333300  0.66666700  0.78027203  1
  Ge  Ge0  1  0.66666700  0.33333300  0.72895363  1
  Ge  Ge1  1  0.33333300  0.66666700  0.22895363  1
loop_
_geom_bond_atom_site_label_1
_geom_bond_atom_site_label_2
_geom_bond_distance
_geom_bond_site_symmetry_2
Ag0 Ge1 2.648615 1_545
Ag0 Ge1 2.648615 1_655
Ag0 Ge1 2.648623 1_555
Ag0 Pr1 3.190323 1_655
Ag0 Pr1 3.190325 1_555
Ag0 Pr1 3.190325 1_665
Ag0 Pr0 3.346314 1_655
Ag0 Pr0 3.346317 1_555
Ag0 Pr0 3.346317 1_665
Ag1 Ge0 2.648615 1_455
Ag1 Ge0 2.648615 1_565
Ag1 Ge0 2.648623 1_555
Ag1 Pr0 3.190323 1_566
Ag1 Pr0 3.190325 1_556
Ag1 Pr0 3.190325 1_666
Ag1 Pr1 3.346314 1_565
Ag1 Pr1 3.346317 1_555
Ag1 Pr1 3.346317 1_665
Ge0 Pr1 3.112408 1_655
Ge0 Pr1 3.112411 1_555
Ge0 Pr1 3.112411 1_665
Ge0 Pr0 3.435292 1_656
Ge0 Pr0 3.435294 1_556
Ge0 Pr0 3.435294 1_666
Ge1 Pr0 3.112408 1_565
Ge1 Pr0 3.112411 1_555
Ge1 Pr0 3.112411 1_665
Ge1 Pr1 3.435292 1_565
Ge1 Pr1 3.435294 1_555
Ge1 Pr1 3.435294 1_665
