# generated using pymatgen
data_BaCaV2O7
_symmetry_space_group_name_H-M   'P 1'
_cell_length_a   5.87194300
_cell_length_b   7.61504600
_cell_length_c   15.71346700
_cell_angle_alpha   90.00000000
_cell_angle_beta   90.00000000
_cell_angle_gamma   90.00000000
_symmetry_Int_Tables_number   1
_chemical_formula_structural   BaCaV2O7
_chemical_formula_sum   'Ba4 Ca4 V8 O28'
_cell_volume   702.62950052
_cell_formula_units_Z   4
loop_
 _symmetry_equiv_pos_site_id
 _symmetry_equiv_pos_as_xyz
  1  'x, y, z'
loop_
 _atom_site_type_symbol
 _atom_site_label
 _atom_site_symmetry_multiplicity
 _atom_site_fract_x
 _atom_site_fract_y
 _atom_site_fract_z
 _atom_site_occupancy
  Ba  Ba0  1  0.25000000  0.36286700  0.78525700  1
  Ba  Ba1  1  0.75000000  0.63713300  0.21474300  1
  Ba  Ba2  1  0.75000000  0.86286700  0.71474300  1
  Ba  Ba3  1  0.25000000  0.13713300  0.28525700  1
  Ca  Ca0  1  0.25000000  0.11293100  0.55334400  1
  Ca  Ca1  1  0.25000000  0.38706900  0.05334400  1
  Ca  Ca2  1  0.75000000  0.61293100  0.94665600  1
  Ca  Ca3  1  0.75000000  0.88706900  0.44665600  1
  V  V0  1  0.75000000  0.16177600  0.14210200  1
  V  V1  1  0.25000000  0.80040400  0.06055500  1
  V  V2  1  0.75000000  0.33822400  0.64210200  1
  V  V3  1  0.25000000  0.66177600  0.35789800  1
  V  V4  1  0.75000000  0.30040400  0.43944500  1
  V  V5  1  0.25000000  0.69959600  0.56055500  1
  V  V6  1  0.75000000  0.19959600  0.93944500  1
  V  V7  1  0.25000000  0.83822400  0.85789800  1
  O  O0  1  0.25000000  0.91935000  0.15022300  1
  O  O1  1  0.75000000  0.08065000  0.84977700  1
  O  O2  1  0.75000000  0.41935000  0.34977700  1
  O  O3  1  0.25000000  0.58065000  0.65022300  1
  O  O4  1  0.98148900  0.34430900  0.94033600  1
  O  O5  1  0.48148900  0.65569100  0.05966400  1
  O  O6  1  0.01851100  0.84430900  0.55966400  1
  O  O7  1  0.51851100  0.15569100  0.44033600  1
  O  O8  1  0.01851100  0.65569100  0.05966400  1
  O  O9  1  0.51851100  0.34430900  0.94033600  1
  O  O10  1  0.98148900  0.15569100  0.44033600  1
  O  O11  1  0.48148900  0.84430900  0.55966400  1
  O  O12  1  0.25000000  0.93657400  0.96521000  1
  O  O13  1  0.75000000  0.06342600  0.03479000  1
  O  O14  1  0.75000000  0.43657400  0.53479000  1
  O  O15  1  0.25000000  0.56342600  0.46521000  1
  O  O16  1  0.48609800  0.79521500  0.34636400  1
  O  O17  1  0.98609800  0.20478500  0.65363600  1
  O  O18  1  0.51390200  0.29521500  0.15363600  1
  O  O19  1  0.01390200  0.70478500  0.84636400  1
  O  O20  1  0.51390200  0.20478500  0.65363600  1
  O  O21  1  0.01390200  0.79521500  0.34636400  1
  O  O22  1  0.48609800  0.70478500  0.84636400  1
  O  O23  1  0.98609800  0.29521500  0.15363600  1
  O  O24  1  0.25000000  0.51094100  0.27897700  1
  O  O25  1  0.75000000  0.48905900  0.72102300  1
  O  O26  1  0.75000000  0.01094100  0.22102300  1
  O  O27  1  0.25000000  0.98905900  0.77897700  1
loop_
_geom_bond_atom_site_label_1
_geom_bond_atom_site_label_2
_geom_bond_distance
_geom_bond_site_symmetry_2
Ba0 O3 2.693072 1_555
Ba0 O27 2.848275 1_545
Ba0 O20 2.850964 1_555
Ba0 O17 2.850964 1_455
Ba0 O9 2.905861 1_555
Ba0 O4 2.905861 1_455
Ba0 O22 3.102149 1_555
Ba0 O19 3.102149 1_555
Ba0 O25 3.249944 1_455
Ba0 O25 3.249944 1_555
Ba1 O2 2.693072 1_555
Ba1 O26 2.848275 1_565
Ba1 O16 2.850964 1_555
Ba1 O21 2.850964 1_655
Ba1 O5 2.905861 1_555
Ba1 O8 2.905861 1_655
Ba1 O18 3.102149 1_555
Ba1 O23 3.102149 1_555
Ba1 O24 3.249944 1_555
Ba1 O24 3.249944 1_655
Ba2 O1 2.693072 1_565
Ba2 O25 2.848275 1_555
Ba2 O22 2.850964 1_555
Ba2 O19 2.850964 1_655
Ba2 O6 2.905861 1_655
Ba2 O11 2.905861 1_555
Ba2 O17 3.102149 1_565
Ba2 O20 3.102149 1_565
Ba2 O27 3.249944 1_655
Ba2 O27 3.249944 1_555
Ba3 O0 2.693072 1_545
Ba3 O24 2.848275 1_555
Ba3 O23 2.850964 1_455
Ba3 O18 2.850964 1_555
Ba3 O7 2.905861 1_555
Ba3 O10 2.905861 1_455
Ba3 O21 3.102149 1_545
Ba3 O16 3.102149 1_545
Ba3 O26 3.249944 1_555
Ba3 O26 3.249944 1_455
Ca0 O20 2.318221 1_555
Ca0 O17 2.318221 1_455
Ca0 O7 2.396921 1_555
Ca0 O10 2.396921 1_455
Ca0 O11 2.458024 1_545
Ca0 O6 2.458024 1_545
Ca1 O18 2.318221 1_555
Ca1 O23 2.318221 1_455
Ca1 O4 2.396921 1_454
Ca1 O9 2.396921 1_554
Ca1 O8 2.458024 1_555
Ca1 O5 2.458024 1_555
Ca2 O22 2.318221 1_555
Ca2 O19 2.318221 1_655
Ca2 O8 2.396921 1_656
Ca2 O5 2.396921 1_556
Ca2 O9 2.458024 1_555
Ca2 O4 2.458024 1_555
Ca3 O21 2.318221 1_655
Ca3 O16 2.318221 1_555
Ca3 O6 2.396921 1_655
Ca3 O11 2.396921 1_555
Ca3 O7 2.458024 1_565
Ca3 O10 2.458024 1_565
O0 V1 1.675023 1_555
O1 V6 1.675023 1_555
O2 V4 1.675023 1_555
O3 V5 1.675023 1_555
O4 V6 1.749932 1_555
O5 V1 1.749932 1_555
O6 V5 1.749932 1_555
O7 V4 1.749932 1_555
O8 V1 1.749932 1_555
O9 V6 1.749932 1_555
O10 V4 1.749932 1_555
O11 V5 1.749932 1_555
O12 V1 1.822046 1_556
O12 V7 1.845082 1_555
O13 V6 1.822046 1_554
O13 V0 1.845082 1_555
O14 V4 1.822046 1_555
O14 V2 1.845082 1_555
O15 V5 1.822046 1_555
O15 V3 1.845082 1_555
O16 V3 1.728402 1_555
O17 V2 1.728402 1_555
O18 V0 1.728402 1_555
O19 V7 1.728402 1_555
O20 V2 1.728402 1_555
O21 V3 1.728402 1_555
O22 V7 1.728402 1_555
O23 V0 1.728402 1_555
O24 V3 1.690332 1_555
O25 V2 1.690332 1_555
O26 V0 1.690332 1_555
O27 V7 1.690332 1_555
