# generated using pymatgen
data_KNa2CoF6
_symmetry_space_group_name_H-M   'P 1'
_cell_length_a   5.97109847
_cell_length_b   5.97109882
_cell_length_c   5.97109888
_cell_angle_alpha   59.99999515
_cell_angle_beta   59.99999704
_cell_angle_gamma   59.99999667
_symmetry_Int_Tables_number   1
_chemical_formula_structural   KNa2CoF6
_chemical_formula_sum   'K1 Na2 Co1 F6'
_cell_volume   150.53854741
_cell_formula_units_Z   1
loop_
 _symmetry_equiv_pos_site_id
 _symmetry_equiv_pos_as_xyz
  1  'x, y, z'
loop_
 _atom_site_type_symbol
 _atom_site_label
 _atom_site_symmetry_multiplicity
 _atom_site_fract_x
 _atom_site_fract_y
 _atom_site_fract_z
 _atom_site_occupancy
  K  K0  1  0.50000000  0.50000000  0.50000000  1
  Na  Na0  1  0.25000000  0.25000000  0.25000000  1
  Na  Na1  1  0.75000000  0.75000000  0.75000000  1
  Co  Co0  1  0.00000000  -0.00000000  -0.00000000  1
  F  F0  1  0.21662074  0.78337926  0.21662074  1
  F  F1  1  0.78337926  0.78337926  0.21662074  1
  F  F2  1  0.78337926  0.21662074  0.78337926  1
  F  F3  1  0.78337926  0.21662074  0.21662074  1
  F  F4  1  0.21662074  0.78337926  0.78337926  1
  F  F5  1  0.21662074  0.21662074  0.78337926  1
loop_
_geom_bond_atom_site_label_1
_geom_bond_atom_site_label_2
_geom_bond_distance
_geom_bond_site_symmetry_2
Co0 F2 1.829234 1_454
Co0 F0 1.829234 1_545
Co0 F1 1.829234 1_445
Co0 F5 1.829234 1_554
Co0 F4 1.829234 1_544
Co0 F3 1.829234 1_455
F0 K0 2.392970 1_555
F0 Na1 2.998825 1_554
F0 Na1 2.998825 1_455
F0 Na0 2.998826 1_555
F0 Na0 2.998826 1_565
F1 K0 2.392970 1_555
F1 Na0 2.998825 1_565
F1 Na0 2.998825 1_655
F1 Na1 2.998826 1_555
F1 Na1 2.998826 1_554
F2 K0 2.392970 1_555
F2 Na0 2.998825 1_556
F2 Na0 2.998825 1_655
F2 Na1 2.998826 1_555
F2 Na1 2.998826 1_545
F3 K0 2.392970 1_555
F3 Na0 2.998825 1_555
F3 Na1 2.998825 1_554
F3 Na1 2.998825 1_545
F3 Na0 2.998825 1_655
F4 K0 2.392970 1_555
F4 Na1 2.998825 1_555
F4 Na0 2.998825 1_556
F4 Na0 2.998825 1_565
F4 Na1 2.998825 1_455
F5 K0 2.392970 1_555
F5 Na1 2.998825 1_545
F5 Na1 2.998825 1_455
F5 Na0 2.998826 1_555
F5 Na0 2.998826 1_556
