# generated using pymatgen
data_LuMnO3
_symmetry_space_group_name_H-M   'P 1'
_cell_length_a   6.00567570
_cell_length_b   6.00558593
_cell_length_c   11.31237259
_cell_angle_alpha   89.99930347
_cell_angle_beta   90.00043619
_cell_angle_gamma   120.00119631
_symmetry_Int_Tables_number   1
_chemical_formula_structural   LuMnO3
_chemical_formula_sum   'Lu6 Mn6 O18'
_cell_volume   353.34289220
_cell_formula_units_Z   6
loop_
 _symmetry_equiv_pos_site_id
 _symmetry_equiv_pos_as_xyz
  1  'x, y, z'
loop_
 _atom_site_type_symbol
 _atom_site_label
 _atom_site_symmetry_multiplicity
 _atom_site_fract_x
 _atom_site_fract_y
 _atom_site_fract_z
 _atom_site_occupancy
  Lu  Lu0  1  0.66667138  0.33334064  0.23129668  1
  Lu  Lu1  1  0.33333455  0.66667722  0.73135934  1
  Lu  Lu2  1  0.66667214  0.33334559  0.73136017  1
  Lu  Lu3  1  0.33333887  0.66667982  0.23129641  1
  Lu  Lu4  1  0.00000628  0.00000866  0.77629337  1
  Lu  Lu5  1  0.00000501  0.00000795  0.27620429  1
  Mn  Mn0  1  0.66664894  -0.00002056  0.50084511  1
  Mn  Mn1  1  0.66652563  0.66654478  0.00082906  1
  Mn  Mn2  1  -0.00008236  0.33333660  0.00082139  1
  Mn  Mn3  1  0.00004327  0.66661616  0.50084791  1
  Mn  Mn4  1  0.33344150  0.33340219  0.50084742  1
  Mn  Mn5  1  0.33332147  -0.00008111  0.00082255  1
  O  O0  1  0.66668322  0.33335338  0.02244743  1
  O  O1  1  0.33333923  0.66668013  0.52242915  1
  O  O2  1  0.66666419  0.33333703  0.52242881  1
  O  O3  1  0.33334477  0.66667898  0.02244727  1
  O  O4  1  0.00001631  0.00001835  0.97479216  1
  O  O5  1  0.00000907  0.00001501  0.47483137  1
  O  O6  1  0.36155583  0.00000267  0.83555372  1
  O  O7  1  0.36156550  0.36156512  0.33550005  1
  O  O8  1  0.00000377  0.63844124  0.33548985  1
  O  O9  1  -0.00000636  0.36155288  0.83556012  1
  O  O10  1  0.63844517  0.63845069  0.83556444  1
  O  O11  1  0.63845428  0.00000387  0.33550387  1
  O  O12  1  0.30488837  0.00000807  0.16642974  1
  O  O13  1  0.30489037  0.30488713  0.66644793  1
  O  O14  1  0.00000385  0.69513870  0.66646586  1
  O  O15  1  -0.00000332  0.30490055  0.16642259  1
  O  O16  1  0.69509355  0.69510092  0.16641573  1
  O  O17  1  0.69512551  0.00000633  0.66644819  1
loop_
_geom_bond_atom_site_label_1
_geom_bond_atom_site_label_2
_geom_bond_distance
_geom_bond_site_symmetry_2
Lu0 O16 2.217442 1_555
Lu0 O12 2.217444 1_555
Lu0 O15 2.217449 1_655
Lu0 O8 2.255212 1_655
Lu0 O7 2.255323 1_555
Lu0 O11 2.255345 1_555
Lu0 O0 2.362581 1_555
Lu1 O14 2.217609 1_555
Lu1 O17 2.217621 1_565
Lu1 O13 2.217686 1_555
Lu1 O6 2.255227 1_565
Lu1 O9 2.255327 1_555
Lu1 O10 2.255347 1_555
Lu1 O1 2.363496 1_555
Lu2 O14 2.217565 1_655
Lu2 O13 2.217625 1_555
Lu2 O17 2.217688 1_555
Lu2 O6 2.255266 1_555
Lu2 O9 2.255278 1_655
Lu2 O10 2.255314 1_555
Lu2 O2 2.363509 1_555
Lu3 O12 2.217430 1_565
Lu3 O16 2.217456 1_555
Lu3 O15 2.217478 1_555
Lu3 O8 2.255253 1_555
Lu3 O11 2.255302 1_565
Lu3 O7 2.255333 1_555
Lu3 O3 2.362579 1_555
Lu4 O14 2.212665 1_545
Lu4 O13 2.212808 1_555
Lu4 O17 2.212834 1_455
Lu4 O4 2.245492 1_555
Lu4 O9 2.272483 1_555
Lu4 O6 2.272491 1_555
Lu4 O10 2.272516 1_445
Lu5 O12 2.212419 1_555
Lu5 O15 2.212489 1_555
Lu5 O16 2.212595 1_445
Lu5 O5 2.246944 1_555
Lu5 O7 2.272600 1_555
Lu5 O11 2.272610 1_455
Lu5 O8 2.272619 1_545
Mn0 O11 1.878056 1_555
Mn0 O17 1.881145 1_555
Mn0 O1 2.016503 1_545
Mn0 O2 2.016799 1_555
Mn0 O5 2.023461 1_655
Mn1 O10 1.877130 1_554
Mn1 O16 1.881016 1_555
Mn1 O3 2.016267 1_555
Mn1 O0 2.016365 1_555
Mn1 O4 2.024276 1_664
Mn2 O9 1.877139 1_554
Mn2 O15 1.881130 1_555
Mn2 O0 2.016247 1_455
Mn2 O3 2.017041 1_555
Mn2 O4 2.023609 1_554
Mn3 O8 1.878221 1_555
Mn3 O14 1.881359 1_555
Mn3 O1 2.016308 1_555
Mn3 O2 2.016646 1_455
Mn3 O5 2.023868 1_565
Mn4 O7 1.878091 1_555
Mn4 O13 1.881155 1_555
Mn4 O2 2.016256 1_555
Mn4 O1 2.016672 1_555
Mn4 O5 2.023814 1_555
Mn5 O6 1.877235 1_554
Mn5 O12 1.881202 1_555
Mn5 O3 2.016263 1_545
Mn5 O0 2.017120 1_555
Mn5 O4 2.023559 1_554
