# generated using pymatgen
data_CaMg30CdO32
_symmetry_space_group_name_H-M   'P 1'
_cell_length_a   8.60808000
_cell_length_b   8.60808000
_cell_length_c   8.60579100
_cell_angle_alpha   90.00000000
_cell_angle_beta   90.00000000
_cell_angle_gamma   90.00000000
_symmetry_Int_Tables_number   1
_chemical_formula_structural   CaMg30CdO32
_chemical_formula_sum   'Ca1 Mg30 Cd1 O32'
_cell_volume   637.68086261
_cell_formula_units_Z   1
loop_
 _symmetry_equiv_pos_site_id
 _symmetry_equiv_pos_as_xyz
  1  'x, y, z'
loop_
 _atom_site_type_symbol
 _atom_site_label
 _atom_site_symmetry_multiplicity
 _atom_site_fract_x
 _atom_site_fract_y
 _atom_site_fract_z
 _atom_site_occupancy
  Ca  Ca0  1  0.00000000  0.00000000  0.00000000  1
  Mg  Mg0  1  0.50000000  0.00000000  0.00000000  1
  Mg  Mg1  1  0.00000000  0.50000000  0.00000000  1
  Mg  Mg2  1  0.00000000  0.00000000  0.50000000  1
  Mg  Mg3  1  0.50000000  0.00000000  0.50000000  1
  Mg  Mg4  1  0.00000000  0.50000000  0.50000000  1
  Mg  Mg5  1  0.50000000  0.50000000  0.50000000  1
  Mg  Mg6  1  0.25068100  0.25068100  0.00000000  1
  Mg  Mg7  1  0.74931900  0.25068100  0.00000000  1
  Mg  Mg8  1  0.25068100  0.74931900  0.00000000  1
  Mg  Mg9  1  0.74931900  0.74931900  0.00000000  1
  Mg  Mg10  1  0.25010800  0.25010800  0.50000000  1
  Mg  Mg11  1  0.74989200  0.25010800  0.50000000  1
  Mg  Mg12  1  0.25010800  0.74989200  0.50000000  1
  Mg  Mg13  1  0.74989200  0.74989200  0.50000000  1
  Mg  Mg14  1  0.25288300  0.00000000  0.25284300  1
  Mg  Mg15  1  0.74711700  0.00000000  0.25284300  1
  Mg  Mg16  1  0.24792200  0.50000000  0.25235000  1
  Mg  Mg17  1  0.75207800  0.50000000  0.25235000  1
  Mg  Mg18  1  0.25288300  0.00000000  0.74715700  1
  Mg  Mg19  1  0.74711700  0.00000000  0.74715700  1
  Mg  Mg20  1  0.24792200  0.50000000  0.74765000  1
  Mg  Mg21  1  0.75207800  0.50000000  0.74765000  1
  Mg  Mg22  1  0.00000000  0.25288300  0.25284300  1
  Mg  Mg23  1  0.50000000  0.24792200  0.25235000  1
  Mg  Mg24  1  0.00000000  0.74711700  0.25284300  1
  Mg  Mg25  1  0.50000000  0.75207800  0.25235000  1
  Mg  Mg26  1  0.00000000  0.25288300  0.74715700  1
  Mg  Mg27  1  0.50000000  0.24792200  0.74765000  1
  Mg  Mg28  1  0.00000000  0.74711700  0.74715700  1
  Mg  Mg29  1  0.50000000  0.75207800  0.74765000  1
  Cd  Cd0  1  0.50000000  0.50000000  0.00000000  1
  O  O0  1  0.00000000  0.00000000  0.26235900  1
  O  O1  1  0.50000000  0.00000000  0.25370900  1
  O  O2  1  0.00000000  0.50000000  0.25370900  1
  O  O3  1  0.50000000  0.50000000  0.26419100  1
  O  O4  1  0.00000000  0.00000000  0.73764100  1
  O  O5  1  0.50000000  0.00000000  0.74629100  1
  O  O6  1  0.00000000  0.50000000  0.74629100  1
  O  O7  1  0.50000000  0.50000000  0.73580900  1
  O  O8  1  0.25021900  0.25021900  0.24937500  1
  O  O9  1  0.74978100  0.25021900  0.24937500  1
  O  O10  1  0.25021900  0.74978100  0.24937500  1
  O  O11  1  0.74978100  0.74978100  0.24937500  1
  O  O12  1  0.25021900  0.25021900  0.75062500  1
  O  O13  1  0.74978100  0.25021900  0.75062500  1
  O  O14  1  0.25021900  0.74978100  0.75062500  1
  O  O15  1  0.74978100  0.74978100  0.75062500  1
  O  O16  1  0.26080000  0.00000000  0.00000000  1
  O  O17  1  0.73920000  0.00000000  0.00000000  1
  O  O18  1  0.23776500  0.50000000  0.00000000  1
  O  O19  1  0.76223500  0.50000000  0.00000000  1
  O  O20  1  0.25159800  0.00000000  0.50000000  1
  O  O21  1  0.74840200  0.00000000  0.50000000  1
  O  O22  1  0.24851500  0.50000000  0.50000000  1
  O  O23  1  0.75148500  0.50000000  0.50000000  1
  O  O24  1  0.00000000  0.26080000  0.00000000  1
  O  O25  1  0.50000000  0.23776500  0.00000000  1
  O  O26  1  0.00000000  0.73920000  0.00000000  1
  O  O27  1  0.50000000  0.76223500  0.00000000  1
  O  O28  1  0.00000000  0.25159800  0.50000000  1
  O  O29  1  0.50000000  0.24851500  0.50000000  1
  O  O30  1  0.00000000  0.74840200  0.50000000  1
  O  O31  1  0.50000000  0.75148500  0.50000000  1
loop_
_geom_bond_atom_site_label_1
_geom_bond_atom_site_label_2
_geom_bond_distance
_geom_bond_site_symmetry_2
Ca0 O26 2.244987 1_545
Ca0 O17 2.244987 1_455
Ca0 O24 2.244987 1_555
Ca0 O16 2.244987 1_555
Ca0 O0 2.257807 1_555
Ca0 O4 2.257807 1_554
Mg0 O25 2.046700 1_555
Mg0 O27 2.046700 1_545
Mg0 O16 2.059053 1_555
Mg0 O17 2.059053 1_555
Mg0 O1 2.183367 1_555
Mg0 O5 2.183367 1_554
Mg1 O18 2.046700 1_555
Mg1 O19 2.046700 1_455
Mg1 O24 2.059053 1_555
Mg1 O26 2.059053 1_555
Mg1 O2 2.183367 1_555
Mg1 O6 2.183367 1_554
Mg2 O0 2.045089 1_555
Mg2 O4 2.045089 1_555
Mg2 O20 2.165776 1_555
Mg2 O28 2.165776 1_555
Mg2 O30 2.165776 1_545
Mg2 O21 2.165776 1_455
Mg3 O5 2.119529 1_555
Mg3 O1 2.119529 1_555
Mg3 O21 2.138264 1_555
Mg3 O20 2.138264 1_555
Mg3 O29 2.139237 1_555
Mg3 O31 2.139237 1_545
Mg4 O6 2.119529 1_555
Mg4 O2 2.119529 1_555
Mg4 O30 2.138264 1_555
Mg4 O28 2.138264 1_555
Mg4 O22 2.139237 1_555
Mg4 O23 2.139237 1_455
Mg5 O7 2.029323 1_555
Mg5 O3 2.029323 1_555
Mg5 O31 2.164803 1_555
Mg5 O23 2.164803 1_555
Mg5 O22 2.164803 1_555
Mg5 O29 2.164803 1_555
Mg6 O8 2.146077 1_555
Mg6 O12 2.146077 1_554
Mg6 O25 2.149036 1_555
Mg6 O18 2.149036 1_555
Mg6 O24 2.159639 1_555
Mg6 O16 2.159639 1_555
Mg7 O9 2.146077 1_555
Mg7 O13 2.146077 1_554
Mg7 O25 2.149036 1_555
Mg7 O19 2.149036 1_555
Mg7 O17 2.159639 1_555
Mg7 O24 2.159639 1_655
Mg8 O10 2.146077 1_555
Mg8 O14 2.146077 1_554
Mg8 O18 2.149036 1_555
Mg8 O27 2.149036 1_555
Mg8 O26 2.159639 1_555
Mg8 O16 2.159639 1_565
Mg9 O11 2.146077 1_555
Mg9 O15 2.146077 1_554
Mg9 O27 2.149036 1_555
Mg9 O19 2.149036 1_555
Mg9 O17 2.159639 1_565
Mg9 O26 2.159639 1_655
Mg10 O22 2.151134 1_555
Mg10 O29 2.151134 1_555
Mg10 O28 2.152988 1_555
Mg10 O20 2.152988 1_555
Mg10 O12 2.156827 1_555
Mg10 O8 2.156827 1_555
Mg11 O23 2.151134 1_555
Mg11 O29 2.151134 1_555
Mg11 O28 2.152988 1_655
Mg11 O21 2.152988 1_555
Mg11 O13 2.156827 1_555
Mg11 O9 2.156827 1_555
Mg12 O22 2.151134 1_555
Mg12 O31 2.151134 1_555
Mg12 O30 2.152988 1_555
Mg12 O20 2.152988 1_565
Mg12 O14 2.156827 1_555
Mg12 O10 2.156827 1_555
Mg13 O23 2.151134 1_555
Mg13 O31 2.151134 1_555
Mg13 O30 2.152988 1_655
Mg13 O21 2.152988 1_565
Mg13 O15 2.156827 1_555
Mg13 O11 2.156827 1_555
Mg14 O20 2.127010 1_555
Mg14 O1 2.127216 1_555
Mg14 O8 2.154234 1_555
Mg14 O10 2.154234 1_545
Mg14 O16 2.176981 1_555
Mg14 O0 2.178377 1_555
Mg15 O21 2.127010 1_555
Mg15 O1 2.127216 1_555
Mg15 O9 2.154234 1_555
Mg15 O11 2.154234 1_545
Mg15 O17 2.176981 1_555
Mg15 O0 2.178377 1_655
Mg16 O22 2.131230 1_555
Mg16 O2 2.134164 1_555
Mg16 O10 2.150378 1_555
Mg16 O8 2.150378 1_555
Mg16 O3 2.172299 1_555
Mg16 O18 2.173431 1_555
Mg17 O23 2.131230 1_555
Mg17 O2 2.134164 1_655
Mg17 O11 2.150378 1_555
Mg17 O9 2.150378 1_555
Mg17 O3 2.172299 1_555
Mg17 O19 2.173431 1_555
Mg18 O20 2.127010 1_555
Mg18 O5 2.127216 1_555
Mg18 O12 2.154234 1_555
Mg18 O14 2.154234 1_545
Mg18 O16 2.176981 1_556
Mg18 O4 2.178377 1_555
Mg19 O21 2.127010 1_555
Mg19 O5 2.127216 1_555
Mg19 O13 2.154234 1_555
Mg19 O15 2.154234 1_545
Mg19 O17 2.176981 1_556
Mg19 O4 2.178377 1_655
Mg20 O22 2.131230 1_555
Mg20 O6 2.134164 1_555
Mg20 O14 2.150378 1_555
Mg20 O12 2.150378 1_555
Mg20 O7 2.172299 1_555
Mg20 O18 2.173431 1_556
Mg21 O23 2.131230 1_555
Mg21 O6 2.134164 1_655
Mg21 O15 2.150378 1_555
Mg21 O13 2.150378 1_555
Mg21 O7 2.172299 1_555
Mg21 O19 2.173431 1_556
Mg22 O28 2.127010 1_555
Mg22 O2 2.127216 1_555
Mg22 O8 2.154234 1_555
Mg22 O9 2.154234 1_455
Mg22 O24 2.176981 1_555
Mg22 O0 2.178377 1_555
Mg23 O29 2.131230 1_555
Mg23 O1 2.134164 1_555
Mg23 O9 2.150378 1_555
Mg23 O8 2.150378 1_555
Mg23 O3 2.172299 1_555
Mg23 O25 2.173431 1_555
Mg24 O30 2.127010 1_555
Mg24 O2 2.127216 1_555
Mg24 O10 2.154234 1_555
Mg24 O11 2.154234 1_455
Mg24 O26 2.176981 1_555
Mg24 O0 2.178377 1_565
Mg25 O31 2.131230 1_555
Mg25 O1 2.134164 1_565
Mg25 O11 2.150378 1_555
Mg25 O10 2.150378 1_555
Mg25 O3 2.172299 1_555
Mg25 O27 2.173431 1_555
Mg26 O28 2.127010 1_555
Mg26 O6 2.127216 1_555
Mg26 O12 2.154234 1_555
Mg26 O13 2.154234 1_455
Mg26 O24 2.176981 1_556
Mg26 O4 2.178377 1_555
Mg27 O29 2.131230 1_555
Mg27 O5 2.134164 1_555
Mg27 O13 2.150378 1_555
Mg27 O12 2.150378 1_555
Mg27 O7 2.172299 1_555
Mg27 O25 2.173431 1_556
Mg28 O30 2.127010 1_555
Mg28 O6 2.127216 1_555
Mg28 O14 2.154234 1_555
Mg28 O15 2.154234 1_455
Mg28 O26 2.176981 1_556
Mg28 O4 2.178377 1_565
Mg29 O31 2.131230 1_555
Mg29 O5 2.134164 1_565
Mg29 O15 2.150378 1_555
Mg29 O14 2.150378 1_555
Mg29 O7 2.172299 1_555
Mg29 O27 2.173431 1_556
Cd0 O19 2.257340 1_555
Cd0 O27 2.257340 1_555
Cd0 O25 2.257340 1_555
Cd0 O18 2.257340 1_555
Cd0 O3 2.273573 1_555
Cd0 O7 2.273573 1_554
