# generated using pymatgen
data_SmAl8SiAu4
_symmetry_space_group_name_H-M   'P 1'
_cell_length_a   14.90369765
_cell_length_b   14.90369765
_cell_length_c   14.90369765
_cell_angle_alpha   156.78455531
_cell_angle_beta   156.78455531
_cell_angle_gamma   33.06436210
_symmetry_Int_Tables_number   1
_chemical_formula_structural   SmAl8SiAu4
_chemical_formula_sum   'Sm2 Al16 Si2 Au8'
_cell_volume   513.93194417
_cell_formula_units_Z   2
loop_
 _symmetry_equiv_pos_site_id
 _symmetry_equiv_pos_as_xyz
  1  'x, y, z'
loop_
 _atom_site_type_symbol
 _atom_site_label
 _atom_site_symmetry_multiplicity
 _atom_site_fract_x
 _atom_site_fract_y
 _atom_site_fract_z
 _atom_site_occupancy
  Sm  Sm0  1  0.75000000  0.25000000  0.50000000  1
  Sm  Sm1  1  0.25000000  0.75000000  0.50000000  1
  Al  Al0  1  0.40654975  0.40654975  0.50052848  1
  Al  Al1  1  0.59345025  0.59345025  0.49947152  1
  Al  Al2  1  0.90602127  0.90602127  0.49947152  1
  Al  Al3  1  0.40654975  0.90602127  -0.00000000  1
  Al  Al4  1  0.09397873  0.59345025  -0.00000000  1
  Al  Al5  1  0.09397873  0.09397873  0.50052848  1
  Al  Al6  1  0.59345025  0.09397873  0.00000000  1
  Al  Al7  1  0.90602127  0.40654975  -0.00000000  1
  Al  Al8  1  0.30256354  0.30256354  0.50027009  1
  Al  Al9  1  0.69743646  0.69743646  0.49972991  1
  Al  Al10  1  0.80229345  0.80229345  0.49972991  1
  Al  Al11  1  0.30256354  0.80229345  -0.00000000  1
  Al  Al12  1  0.19770655  0.69743646  -0.00000000  1
  Al  Al13  1  0.19770655  0.19770655  0.50027009  1
  Al  Al14  1  0.69743646  0.19770655  -0.00000000  1
  Al  Al15  1  0.80229345  0.30256354  -0.00000000  1
  Si  Si0  1  0.29223854  0.29223854  0.00000000  1
  Si  Si1  1  0.70776146  0.70776146  -0.00000000  1
  Au  Au0  1  0.20706268  0.20706268  -0.00000000  1
  Au  Au1  1  0.79293732  0.79293732  0.00000000  1
  Au  Au2  1  -0.00000000  -0.00000000  -0.00000000  1
  Au  Au3  1  0.60486475  0.10486475  0.50000000  1
  Au  Au4  1  0.39513525  0.89513525  0.50000000  1
  Au  Au5  1  0.10486475  0.60486475  0.50000000  1
  Au  Au6  1  0.89513525  0.39513525  0.50000000  1
  Au  Au7  1  0.50000000  0.50000000  -0.00000000  1
loop_
_geom_bond_atom_site_label_1
_geom_bond_atom_site_label_2
_geom_bond_distance
_geom_bond_site_symmetry_2
Al0 Au0 2.571212 1_555
Al0 Si1 2.578849 1_556
Al0 Au5 2.579793 1_555
Al0 Au3 2.579793 1_555
Al0 Sm1 3.415773 1_555
Al0 Sm0 3.415773 1_555
Al1 Au1 2.571212 1_556
Al1 Si0 2.578849 1_555
Al1 Au6 2.579793 1_555
Al1 Au4 2.579793 1_555
Al1 Sm1 3.415773 1_555
Al1 Sm0 3.415773 1_555
Al2 Au0 2.571212 1_666
Al2 Si1 2.578849 1_555
Al2 Au5 2.579793 1_655
Al2 Au3 2.579793 1_565
Al2 Sm1 3.415773 1_655
Al2 Sm0 3.415773 1_565
Al3 Au0 2.571212 1_565
Al3 Si1 2.578849 1_555
Al3 Au5 2.579793 1_554
Al3 Au3 2.579793 1_565
Al3 Sm0 3.415773 1_565
Al3 Sm1 3.415773 1_554
Al4 Au1 2.571212 1_455
Al4 Si0 2.578849 1_555
Al4 Au4 2.579793 1_555
Al4 Au6 2.579793 1_454
Al4 Sm0 3.415773 1_454
Al4 Sm1 3.415773 1_555
Al5 Au1 2.571212 1_445
Al5 Si0 2.578849 1_556
Al5 Au4 2.579793 1_545
Al5 Au6 2.579793 1_455
Al5 Sm0 3.415773 1_455
Al5 Sm1 3.415773 1_545
Al6 Au1 2.571212 1_545
Al6 Si0 2.578849 1_555
Al6 Au4 2.579793 1_544
Al6 Au6 2.579793 1_555
Al6 Sm0 3.415773 1_555
Al6 Sm1 3.415773 1_544
Al7 Au0 2.571212 1_655
Al7 Si1 2.578849 1_555
Al7 Au3 2.579793 1_554
Al7 Au5 2.579793 1_655
Al7 Sm0 3.415773 1_554
Al7 Sm1 3.415773 1_655
Al8 Au7 2.595366 1_556
Al8 Au5 2.596429 1_555
Al8 Au3 2.596429 1_555
Al8 Au2 2.597237 1_555
Al9 Au7 2.595366 1_555
Al9 Au4 2.596429 1_555
Al9 Au6 2.596429 1_555
Al9 Au2 2.597237 1_666
Al10 Au7 2.595366 1_555
Al10 Au3 2.596429 1_565
Al10 Au5 2.596429 1_655
Al10 Au2 2.597237 1_666
Al11 Au7 2.595366 1_555
Al11 Au3 2.596429 1_565
Al11 Au5 2.596429 1_554
Al11 Au2 2.597237 1_565
Al12 Au7 2.595366 1_555
Al12 Au6 2.596429 1_454
Al12 Au4 2.596429 1_555
Al12 Au2 2.597237 1_565
Al13 Au7 2.595366 1_556
Al13 Au6 2.596429 1_455
Al13 Au4 2.596429 1_545
Al13 Au2 2.597237 1_555
Al14 Au7 2.595366 1_555
Al14 Au6 2.596429 1_555
Al14 Au4 2.596429 1_544
Al14 Au2 2.597237 1_655
Al15 Au7 2.595366 1_555
Al15 Au5 2.596429 1_655
Al15 Au3 2.596429 1_554
Al15 Au2 2.597237 1_655
Si0 Sm0 3.232556 1_555
Si0 Sm1 3.232556 1_555
Si0 Sm1 3.232556 1_544
Si0 Sm0 3.232556 1_454
Si1 Sm1 3.232556 1_655
Si1 Sm0 3.232556 1_554
Si1 Sm0 3.232556 1_565
Si1 Sm1 3.232556 1_554
Au0 Si0 2.433914 1_555
Au0 Sm1 3.240065 1_544
Au0 Sm0 3.240065 1_454
Au0 Sm1 3.240065 1_555
Au0 Sm0 3.240065 1_555
Au1 Si1 2.433914 1_555
Au1 Sm1 3.240065 1_554
Au1 Sm1 3.240065 1_655
Au1 Sm0 3.240065 1_554
Au1 Sm0 3.240065 1_565
