# generated using pymatgen
data_MgZn2(PO4)2
_symmetry_space_group_name_H-M   'P 1'
_cell_length_a   8.40710900
_cell_length_b   5.13416500
_cell_length_c   8.83881177
_cell_angle_alpha   59.93942612
_cell_angle_beta   90.00000000
_cell_angle_gamma   90.00000000
_symmetry_Int_Tables_number   1
_chemical_formula_structural   MgZn2(PO4)2
_chemical_formula_sum   'Mg2 Zn4 P4 O16'
_cell_volume   330.19888886
_cell_formula_units_Z   2
loop_
 _symmetry_equiv_pos_site_id
 _symmetry_equiv_pos_as_xyz
  1  'x, y, z'
loop_
 _atom_site_type_symbol
 _atom_site_label
 _atom_site_symmetry_multiplicity
 _atom_site_fract_x
 _atom_site_fract_y
 _atom_site_fract_z
 _atom_site_occupancy
  Mg  Mg0  1  0.00000000  0.00000000  0.00000000  1
  Mg  Mg1  1  0.50000000  0.00000000  0.50000000  1
  Zn  Zn0  1  0.36167100  0.96391100  0.12026300  1
  Zn  Zn1  1  0.63832900  0.03608900  0.87973700  1
  Zn  Zn2  1  0.86167100  0.03608900  0.37973700  1
  Zn  Zn3  1  0.13832900  0.96391100  0.62026300  1
  P  P0  1  0.69182000  0.66280500  0.30092100  1
  P  P1  1  0.30818000  0.33719500  0.69907900  1
  P  P2  1  0.19182000  0.33719500  0.19907900  1
  P  P3  1  0.80818000  0.66280500  0.80092100  1
  O  O0  1  0.69988000  0.31755100  0.37985700  1
  O  O1  1  0.30012000  0.68244900  0.62014300  1
  O  O2  1  0.19988000  0.68244900  0.12014300  1
  O  O3  1  0.80012000  0.31755100  0.87985700  1
  O  O4  1  0.85914800  0.81798100  0.24284800  1
  O  O5  1  0.14085200  0.18201900  0.75715200  1
  O  O6  1  0.35914800  0.18201900  0.25715200  1
  O  O7  1  0.64085200  0.81798100  0.74284800  1
  O  O8  1  0.57911200  0.79342900  0.13843700  1
  O  O9  1  0.42088800  0.20657100  0.86156300  1
  O  O10  1  0.07911200  0.20657100  0.36156300  1
  O  O11  1  0.92088800  0.79342900  0.63843700  1
  O  O12  1  0.62814500  0.74158700  0.43619900  1
  O  O13  1  0.37185500  0.25841300  0.56380100  1
  O  O14  1  0.12814500  0.25841300  0.06380100  1
  O  O15  1  0.87185500  0.74158700  0.93619900  1
loop_
_geom_bond_atom_site_label_1
_geom_bond_atom_site_label_2
_geom_bond_distance
_geom_bond_site_symmetry_2
Mg0 O15 1.997104 1_444
Mg0 O14 1.997104 1_555
Mg0 O5 2.207569 1_554
Mg0 O4 2.207569 1_445
Mg0 O3 2.207952 1_454
Mg0 O2 2.207952 1_545
Mg1 O12 1.997104 1_545
Mg1 O13 1.997104 1_555
Mg1 O7 2.207569 1_545
Mg1 O6 2.207569 1_555
Mg1 O0 2.207952 1_555
Mg1 O1 2.207952 1_545
O0 P0 1.547403 1_555
O0 Zn2 1.984918 1_555
O1 P1 1.547403 1_555
O1 Zn3 1.984918 1_555
O2 P2 1.547403 1_555
O2 Zn0 1.984918 1_555
O3 P3 1.547403 1_555
O3 Zn1 1.984918 1_555
O4 P0 1.570809 1_555
O4 Zn2 2.018842 1_565
O5 P1 1.570809 1_555
O5 Zn3 2.018842 1_545
O6 P2 1.570809 1_555
O6 Zn0 2.018842 1_545
O7 P3 1.570809 1_555
O7 Zn1 2.018842 1_565
O8 P0 1.563734 1_555
O8 Zn0 1.998207 1_555
O8 Zn1 2.043174 1_564
O9 P1 1.563734 1_555
O9 Zn1 1.998207 1_555
O9 Zn0 2.043174 1_546
O10 P2 1.563734 1_555
O10 Zn2 1.998207 1_455
O10 Zn3 2.043174 1_545
O11 P3 1.563734 1_555
O11 Zn3 1.998207 1_655
O11 Zn2 2.043174 1_565
O12 P0 1.537656 1_555
O12 Zn2 2.373555 1_565
O13 P1 1.537656 1_555
O13 Zn3 2.373555 1_545
O14 P2 1.537656 1_555
O14 Zn0 2.373555 1_545
O15 P3 1.537656 1_555
O15 Zn1 2.373555 1_565
