# generated using pymatgen
data_Sr3DyMn2O8
_symmetry_space_group_name_H-M   'P 1'
_cell_length_a   6.71531732
_cell_length_b   6.71531732
_cell_length_c   5.52577800
_cell_angle_alpha   90.00000000
_cell_angle_beta   90.00000000
_cell_angle_gamma   131.66452138
_symmetry_Int_Tables_number   1
_chemical_formula_structural   Sr3DyMn2O8
_chemical_formula_sum   'Sr3 Dy1 Mn2 O8'
_cell_volume   186.15562324
_cell_formula_units_Z   1
loop_
 _symmetry_equiv_pos_site_id
 _symmetry_equiv_pos_as_xyz
  1  'x, y, z'
loop_
 _atom_site_type_symbol
 _atom_site_label
 _atom_site_symmetry_multiplicity
 _atom_site_fract_x
 _atom_site_fract_y
 _atom_site_fract_z
 _atom_site_occupancy
  Sr  Sr0  1  0.64474500  0.35525500  0.00000000  1
  Sr  Sr1  1  0.35644400  0.64355600  0.00000000  1
  Sr  Sr2  1  0.85423600  0.14576400  0.50000000  1
  Dy  Dy0  1  0.13369000  0.86631000  0.50000000  1
  Mn  Mn0  1  0.50006900  0.49993100  0.50000000  1
  Mn  Mn1  1  0.00032300  0.99967700  0.00000000  1
  O  O0  1  0.25010800  0.23749600  0.26119100  1
  O  O1  1  0.76250400  0.74989200  0.73880900  1
  O  O2  1  0.76250400  0.74989200  0.26119100  1
  O  O3  1  0.25010800  0.23749600  0.73880900  1
  O  O4  1  0.84288200  0.15711800  0.00000000  1
  O  O5  1  0.32210400  0.67789600  0.50000000  1
  O  O6  1  0.65928900  0.34071100  0.50000000  1
  O  O7  1  0.16099500  0.83900500  0.00000000  1
loop_
_geom_bond_atom_site_label_1
_geom_bond_atom_site_label_2
_geom_bond_distance
_geom_bond_site_symmetry_2
Dy0 O5 2.308722 1_555
Dy0 O0 2.444359 1_565
Dy0 O1 2.444359 1_455
Dy0 O3 2.444359 1_565
Dy0 O2 2.444359 1_455
Dy0 O6 2.767150 1_455
Dy0 O6 2.767150 1_565
Dy0 O7 2.783074 1_555
Dy0 O7 2.783074 1_556
Mn0 O2 1.931771 1_555
Mn0 O3 1.931771 1_555
Mn0 O1 1.931771 1_555
Mn0 O0 1.931771 1_555
Mn0 O6 1.950994 1_555
Mn0 O5 2.180685 1_555
Mn1 O4 1.929195 1_465
Mn1 O7 1.968786 1_555
Mn1 O3 1.971189 1_564
Mn1 O0 1.971189 1_565
Mn1 O1 1.971189 1_454
Mn1 O2 1.971189 1_455
O0 Sr0 2.635380 1_555
O0 Sr2 2.647772 1_455
O0 Sr1 2.727582 1_555
O1 Sr0 2.635380 1_556
O1 Sr2 2.647772 1_565
O1 Sr1 2.727582 1_556
O2 Sr0 2.635380 1_555
O2 Sr2 2.647772 1_565
O2 Sr1 2.727582 1_555
O3 Sr0 2.635380 1_556
O3 Sr2 2.647772 1_455
O3 Sr1 2.727582 1_556
O4 Sr0 2.427862 1_555
O4 Sr1 2.754332 1_545
O4 Sr1 2.754332 1_655
O4 Sr2 2.766390 1_555
O4 Sr2 2.766390 1_554
O5 Sr2 2.777364 1_455
O5 Sr2 2.777364 1_565
O5 Sr1 2.794748 1_556
O5 Sr1 2.794748 1_555
O6 Sr2 2.388773 1_555
O6 Sr0 2.768631 1_555
O6 Sr0 2.768631 1_556
O7 Sr1 2.394925 1_555
O7 Sr0 2.756515 1_455
O7 Sr0 2.756515 1_565
