# generated using pymatgen
data_Ba3In2P6(HO3)6
_symmetry_space_group_name_H-M   'P 1'
_cell_length_a   10.41009419
_cell_length_b   10.41009419
_cell_length_c   10.41009381
_cell_angle_alpha   102.56561966
_cell_angle_beta   102.56561966
_cell_angle_gamma   102.56562194
_symmetry_Int_Tables_number   1
_chemical_formula_structural   Ba3In2P6(HO3)6
_chemical_formula_sum   'Ba6 In4 P12 H12 O36'
_cell_volume   1032.36533930
_cell_formula_units_Z   2
loop_
 _symmetry_equiv_pos_site_id
 _symmetry_equiv_pos_as_xyz
  1  'x, y, z'
loop_
 _atom_site_type_symbol
 _atom_site_label
 _atom_site_symmetry_multiplicity
 _atom_site_fract_x
 _atom_site_fract_y
 _atom_site_fract_z
 _atom_site_occupancy
  Ba  Ba0  1  0.17033800  0.92615300  0.65862600  1
  Ba  Ba1  1  0.65862600  0.17033800  0.92615300  1
  Ba  Ba2  1  0.92615300  0.65862600  0.17033800  1
  Ba  Ba3  1  0.82966200  0.07384700  0.34137400  1
  Ba  Ba4  1  0.34137400  0.82966200  0.07384700  1
  Ba  Ba5  1  0.07384700  0.34137400  0.82966200  1
  In  In0  1  0.50000000  0.00000000  0.50000000  1
  In  In1  1  0.50000000  0.50000000  0.00000000  1
  In  In2  1  0.00000000  0.50000000  0.50000000  1
  In  In3  1  0.00000000  0.00000000  0.00000000  1
  P  P0  1  0.24670100  0.69575400  0.38888300  1
  P  P1  1  0.38888300  0.24670100  0.69575400  1
  P  P2  1  0.69575400  0.38888300  0.24670100  1
  P  P3  1  0.75329900  0.30424600  0.61111700  1
  P  P4  1  0.61111700  0.75329900  0.30424600  1
  P  P5  1  0.30424600  0.61111700  0.75329900  1
  P  P6  1  0.97267900  0.68516800  0.80493800  1
  P  P7  1  0.80493800  0.97267900  0.68516800  1
  P  P8  1  0.68516800  0.80493800  0.97267900  1
  P  P9  1  0.02732100  0.31483200  0.19506200  1
  P  P10  1  0.19506200  0.02732100  0.31483200  1
  P  P11  1  0.31483200  0.19506200  0.02732100  1
  H  H0  1  0.30247100  0.58380700  0.39300300  1
  H  H1  1  0.39300300  0.30247100  0.58380700  1
  H  H2  1  0.58380700  0.39300300  0.30247100  1
  H  H3  1  0.69752900  0.41619300  0.60699700  1
  H  H4  1  0.60699700  0.69752900  0.41619300  1
  H  H5  1  0.41619300  0.60699700  0.69752900  1
  H  H6  1  0.83401300  0.66310800  0.80569000  1
  H  H7  1  0.80569000  0.83401300  0.66310800  1
  H  H8  1  0.66310800  0.80569000  0.83401300  1
  H  H9  1  0.16598700  0.33689200  0.19431000  1
  H  H10  1  0.19431000  0.16598700  0.33689200  1
  H  H11  1  0.33689200  0.19431000  0.16598700  1
  O  O0  1  0.21542100  0.70761900  0.24302800  1
  O  O1  1  0.24302800  0.21542100  0.70761900  1
  O  O2  1  0.70761900  0.24302800  0.21542100  1
  O  O3  1  0.78457900  0.29238100  0.75697200  1
  O  O4  1  0.75697200  0.78457900  0.29238100  1
  O  O5  1  0.29238100  0.75697200  0.78457900  1
  O  O6  1  0.34956900  0.82022400  0.50160800  1
  O  O7  1  0.50160800  0.34956900  0.82022400  1
  O  O8  1  0.82022400  0.50160800  0.34956900  1
  O  O9  1  0.65043100  0.17977600  0.49839200  1
  O  O10  1  0.49839200  0.65043100  0.17977600  1
  O  O11  1  0.17977600  0.49839200  0.65043100  1
  O  O12  1  0.11110300  0.66556700  0.43297700  1
  O  O13  1  0.43297700  0.11110300  0.66556700  1
  O  O14  1  0.66556700  0.43297700  0.11110300  1
  O  O15  1  0.88889700  0.33443300  0.56702300  1
  O  O16  1  0.56702300  0.88889700  0.33443300  1
  O  O17  1  0.33443300  0.56702300  0.88889700  1
  O  O18  1  0.96877600  0.65254800  0.65212400  1
  O  O19  1  0.65212400  0.96877600  0.65254800  1
  O  O20  1  0.65254800  0.65212400  0.96877600  1
  O  O21  1  0.03122400  0.34745200  0.34787600  1
  O  O22  1  0.34787600  0.03122400  0.34745200  1
  O  O23  1  0.34745200  0.34787600  0.03122400  1
  O  O24  1  0.04512200  0.84193300  0.86247800  1
  O  O25  1  0.86247800  0.04512200  0.84193300  1
  O  O26  1  0.84193300  0.86247800  0.04512200  1
  O  O27  1  0.95487800  0.15806700  0.13752200  1
  O  O28  1  0.13752200  0.95487800  0.15806700  1
  O  O29  1  0.15806700  0.13752200  0.95487800  1
  O  O30  1  0.03446700  0.60371200  0.89440800  1
  O  O31  1  0.89440800  0.03446700  0.60371200  1
  O  O32  1  0.60371200  0.89440800  0.03446700  1
  O  O33  1  0.96553300  0.39628800  0.10559200  1
  O  O34  1  0.10559200  0.96553300  0.39628800  1
  O  O35  1  0.39628800  0.10559200  0.96553300  1
loop_
_geom_bond_atom_site_label_1
_geom_bond_atom_site_label_2
_geom_bond_distance
_geom_bond_site_symmetry_2
Ba0 O5 2.772843 1_555
Ba0 O34 2.808373 1_555
Ba0 O1 2.841306 1_565
Ba0 O24 2.913262 1_555
Ba0 O13 2.958123 1_565
Ba0 O6 2.967670 1_555
Ba0 O12 3.020971 1_555
Ba0 O18 3.126306 1_455
Ba0 O31 3.290054 1_465
Ba0 O35 3.383947 1_565
Ba0 O29 3.422005 1_565
Ba1 O3 2.772843 1_555
Ba1 O35 2.808373 1_555
Ba1 O2 2.841306 1_556
Ba1 O25 2.913262 1_555
Ba1 O14 2.958123 1_556
Ba1 O7 2.967670 1_555
Ba1 O13 3.020970 1_555
Ba1 O19 3.126306 1_545
Ba1 O32 3.290053 1_546
Ba1 O33 3.383947 1_556
Ba1 O27 3.422005 1_556
Ba2 O4 2.772843 1_555
Ba2 O33 2.808373 1_555
Ba2 O0 2.841306 1_655
Ba2 O26 2.913262 1_555
Ba2 O12 2.958123 1_655
Ba2 O8 2.967669 1_555
Ba2 O14 3.020970 1_555
Ba2 O20 3.126306 1_554
Ba2 O30 3.290053 1_654
Ba2 O34 3.383947 1_655
Ba2 O28 3.422005 1_655
Ba3 O2 2.772843 1_555
Ba3 O31 2.808373 1_555
Ba3 O4 2.841306 1_545
Ba3 O27 2.913262 1_555
Ba3 O16 2.958123 1_545
Ba3 O9 2.967670 1_555
Ba3 O15 3.020971 1_555
Ba3 O21 3.126306 1_655
Ba3 O34 3.290054 1_645
Ba3 O32 3.383947 1_545
Ba3 O26 3.422005 1_545
Ba4 O0 2.772843 1_555
Ba4 O32 2.808373 1_555
Ba4 O5 2.841306 1_554
Ba4 O28 2.913262 1_555
Ba4 O17 2.958123 1_554
Ba4 O10 2.967670 1_555
Ba4 O16 3.020970 1_555
Ba4 O22 3.126306 1_565
Ba4 O35 3.290053 1_564
Ba4 O30 3.383947 1_554
Ba4 O24 3.422005 1_554
Ba5 O1 2.772843 1_555
Ba5 O30 2.808373 1_555
Ba5 O3 2.841306 1_455
Ba5 O29 2.913262 1_555
Ba5 O15 2.958123 1_455
Ba5 O11 2.967669 1_555
Ba5 O17 3.020970 1_555
Ba5 O23 3.126306 1_556
Ba5 O33 3.290053 1_456
Ba5 O31 3.383947 1_455
Ba5 O25 3.422005 1_455
In0 O19 2.118894 1_545
In0 O22 2.118894 1_555
In0 O9 2.169083 1_555
In0 O6 2.169083 1_545
In0 O16 2.191390 1_545
In0 O13 2.191390 1_555
In1 O20 2.118894 1_554
In1 O23 2.118894 1_555
In1 O10 2.169083 1_555
In1 O7 2.169083 1_554
In1 O17 2.191390 1_554
In1 O14 2.191390 1_555
In2 O18 2.118894 1_455
In2 O21 2.118894 1_555
In2 O11 2.169083 1_555
In2 O8 2.169083 1_455
In2 O15 2.191390 1_455
In2 O12 2.191390 1_555
In3 O29 2.140495 1_554
In3 O26 2.140495 1_445
In3 O28 2.140495 1_545
In3 O25 2.140495 1_454
In3 O27 2.140495 1_455
In3 O24 2.140495 1_544
H0 P0 1.415032 1_555
H1 P1 1.415032 1_555
H2 P2 1.415032 1_555
H3 P3 1.415032 1_555
H4 P4 1.415032 1_555
H5 P5 1.415032 1_555
H6 P6 1.413515 1_555
H7 P7 1.413515 1_555
H8 P8 1.413515 1_555
H9 P9 1.413515 1_555
H10 P10 1.413515 1_555
H11 P11 1.413515 1_555
O0 P0 1.520096 1_555
O1 P1 1.520096 1_555
O2 P2 1.520096 1_555
O3 P3 1.520096 1_555
O4 P4 1.520096 1_555
O5 P5 1.520096 1_555
O6 P0 1.546162 1_555
O7 P1 1.546162 1_555
O8 P2 1.546162 1_555
O9 P3 1.546162 1_555
O10 P4 1.546162 1_555
O11 P5 1.546162 1_555
O12 P0 1.566435 1_555
O13 P1 1.566435 1_555
O14 P2 1.566435 1_555
O15 P3 1.566435 1_555
O16 P4 1.566435 1_555
O17 P5 1.566435 1_555
O18 P6 1.542225 1_555
O19 P7 1.542225 1_555
O20 P8 1.542225 1_555
O21 P9 1.542225 1_555
O22 P10 1.542225 1_555
O23 P11 1.542225 1_555
O24 P6 1.559922 1_455
O25 P7 1.559922 1_545
O26 P8 1.559922 1_554
O27 P9 1.559922 1_655
O28 P10 1.559922 1_565
O29 P11 1.559922 1_556
O30 P6 1.523340 1_455
O31 P7 1.523339 1_545
O32 P8 1.523340 1_554
O33 P9 1.523340 1_655
O34 P10 1.523339 1_565
O35 P11 1.523340 1_556
