# generated using pymatgen
data_NaMnPO4
_symmetry_space_group_name_H-M   'P 1'
_cell_length_a   5.17240100
_cell_length_b   6.98061600
_cell_length_c   9.21375900
_cell_angle_alpha   90.00000000
_cell_angle_beta   90.00000000
_cell_angle_gamma   90.00000000
_symmetry_Int_Tables_number   1
_chemical_formula_structural   NaMnPO4
_chemical_formula_sum   'Na4 Mn4 P4 O16'
_cell_volume   332.67700560
_cell_formula_units_Z   4
loop_
 _symmetry_equiv_pos_site_id
 _symmetry_equiv_pos_as_xyz
  1  'x, y, z'
loop_
 _atom_site_type_symbol
 _atom_site_label
 _atom_site_symmetry_multiplicity
 _atom_site_fract_x
 _atom_site_fract_y
 _atom_site_fract_z
 _atom_site_occupancy
  Na  Na0  1  0.02715400  0.25000000  0.34985100  1
  Na  Na1  1  0.52715400  0.75000000  0.15014900  1
  Na  Na2  1  0.97284600  0.75000000  0.65014900  1
  Na  Na3  1  0.47284600  0.25000000  0.84985100  1
  Mn  Mn0  1  0.50000000  0.00000000  0.50000000  1
  Mn  Mn1  1  0.00000000  0.00000000  0.00000000  1
  Mn  Mn2  1  0.50000000  0.50000000  0.50000000  1
  Mn  Mn3  1  0.00000000  0.50000000  0.00000000  1
  P  P0  1  0.02945200  0.75000000  0.32401400  1
  P  P1  1  0.52945200  0.25000000  0.17598600  1
  P  P2  1  0.97054800  0.25000000  0.67598600  1
  P  P3  1  0.47054800  0.75000000  0.82401400  1
  O  O0  1  0.04242600  0.75000000  0.15285500  1
  O  O1  1  0.54242600  0.25000000  0.34714500  1
  O  O2  1  0.95757400  0.25000000  0.84714500  1
  O  O3  1  0.45757400  0.75000000  0.65285500  1
  O  O4  1  0.75634500  0.75000000  0.87982100  1
  O  O5  1  0.25634500  0.25000000  0.62017900  1
  O  O6  1  0.24365500  0.25000000  0.12017900  1
  O  O7  1  0.74365500  0.75000000  0.37982100  1
  O  O8  1  0.82966000  0.06869100  0.62164400  1
  O  O9  1  0.32966000  0.93130900  0.87835600  1
  O  O10  1  0.17034000  0.56869100  0.37835600  1
  O  O11  1  0.67034000  0.43130900  0.12164400  1
  O  O12  1  0.17034000  0.93130900  0.37835600  1
  O  O13  1  0.67034000  0.06869100  0.12164400  1
  O  O14  1  0.82966000  0.43130900  0.62164400  1
  O  O15  1  0.32966000  0.56869100  0.87835600  1
loop_
_geom_bond_atom_site_label_1
_geom_bond_atom_site_label_2
_geom_bond_distance
_geom_bond_site_symmetry_2
Na0 O10 2.359364 1_555
Na0 O12 2.359364 1_545
Na0 O6 2.394176 1_555
Na0 O1 2.507332 1_455
Na0 O1 2.665310 1_555
Na0 O5 2.758461 1_555
Na1 O11 2.359364 1_555
Na1 O13 2.359364 1_565
Na1 O7 2.394176 1_555
Na1 O0 2.507332 1_555
Na1 O0 2.665310 1_655
Na1 O4 2.758461 1_554
Na2 O14 2.359364 1_555
Na2 O8 2.359364 1_565
Na2 O4 2.394176 1_555
Na2 O3 2.507332 1_655
Na2 O3 2.665310 1_555
Na2 O7 2.758461 1_555
Na3 O15 2.359364 1_555
Na3 O9 2.359364 1_545
Na3 O5 2.394176 1_555
Na3 O2 2.507332 1_555
Na3 O2 2.665310 1_455
Na3 O6 2.758461 1_556
Mn0 O12 2.096091 1_545
Mn0 O8 2.096091 1_555
Mn0 O3 2.253269 1_545
Mn0 O1 2.253269 1_555
Mn0 O7 2.420741 1_545
Mn0 O5 2.420741 1_555
Mn1 O9 2.096091 1_544
Mn1 O13 2.096091 1_455
Mn1 O2 2.253269 1_454
Mn1 O0 2.253269 1_545
Mn1 O4 2.420741 1_444
Mn1 O6 2.420741 1_555
Mn2 O10 2.096091 1_555
Mn2 O14 2.096091 1_555
Mn2 O3 2.253269 1_555
Mn2 O1 2.253269 1_555
Mn2 O7 2.420741 1_555
Mn2 O5 2.420741 1_555
Mn3 O15 2.096091 1_554
Mn3 O11 2.096091 1_455
Mn3 O2 2.253269 1_454
Mn3 O0 2.253269 1_555
Mn3 O4 2.420741 1_454
Mn3 O6 2.420741 1_555
O0 P0 1.578445 1_555
O1 P1 1.578445 1_555
O2 P2 1.578445 1_555
O3 P3 1.578445 1_555
O4 P3 1.565131 1_555
O5 P2 1.565131 1_455
O6 P1 1.565131 1_555
O7 P0 1.565131 1_655
O8 P2 1.543893 1_555
O9 P3 1.543893 1_555
O10 P0 1.543893 1_555
O11 P1 1.543893 1_555
O12 P0 1.543893 1_555
O13 P1 1.543893 1_555
O14 P2 1.543893 1_555
O15 P3 1.543893 1_555
