# generated using pymatgen
data_KUH3SO8
_symmetry_space_group_name_H-M   'P 1'
_cell_length_a   8.61866900
_cell_length_b   8.32236054
_cell_length_c   11.87449539
_cell_angle_alpha   111.88058864
_cell_angle_beta   90.00000000
_cell_angle_gamma   90.00000000
_symmetry_Int_Tables_number   1
_chemical_formula_structural   KUH3SO8
_chemical_formula_sum   'K4 U4 H12 S4 O32'
_cell_volume   790.37346012
_cell_formula_units_Z   4
loop_
 _symmetry_equiv_pos_site_id
 _symmetry_equiv_pos_as_xyz
  1  'x, y, z'
loop_
 _atom_site_type_symbol
 _atom_site_label
 _atom_site_symmetry_multiplicity
 _atom_site_fract_x
 _atom_site_fract_y
 _atom_site_fract_z
 _atom_site_occupancy
  K  K0  1  0.97085300  0.05393000  0.29288200  1
  K  K1  1  0.47085300  0.94607000  0.20711800  1
  K  K2  1  0.02914700  0.94607000  0.70711800  1
  K  K3  1  0.52914700  0.05393000  0.79288200  1
  U  U0  1  0.10025600  0.57856700  0.30654900  1
  U  U1  1  0.60025600  0.42143300  0.19345100  1
  U  U2  1  0.89974400  0.42143300  0.69345100  1
  U  U3  1  0.39974400  0.57856700  0.80654900  1
  H  H0  1  0.28451000  0.87544500  0.53135900  1
  H  H1  1  0.78451000  0.12455500  0.96864100  1
  H  H2  1  0.71549000  0.12455500  0.46864100  1
  H  H3  1  0.21549000  0.87544500  0.03135900  1
  H  H4  1  0.33085400  0.68148300  0.51529200  1
  H  H5  1  0.83085400  0.31851700  0.98470800  1
  H  H6  1  0.66914600  0.31851700  0.48470800  1
  H  H7  1  0.16914600  0.68148300  0.01529200  1
  H  H8  1  0.39833000  0.64372600  0.32196100  1
  H  H9  1  0.89833000  0.35627400  0.17803900  1
  H  H10  1  0.60167000  0.35627400  0.67803900  1
  H  H11  1  0.10167000  0.64372600  0.82196100  1
  S  S0  1  0.73722600  0.80031600  0.45405400  1
  S  S1  1  0.23722600  0.19968400  0.04594600  1
  S  S2  1  0.26277400  0.19968400  0.54594600  1
  S  S3  1  0.76277400  0.80031600  0.95405400  1
  O  O0  1  0.90983200  0.77294500  0.42739500  1
  O  O1  1  0.40983200  0.22705500  0.07260500  1
  O  O2  1  0.09016800  0.22705500  0.57260500  1
  O  O3  1  0.59016800  0.77294500  0.92739500  1
  O  O4  1  0.36769300  0.52203200  0.29650300  1
  O  O5  1  0.86769300  0.47796800  0.20349700  1
  O  O6  1  0.63230700  0.47796800  0.70349700  1
  O  O7  1  0.13230700  0.52203200  0.79650300  1
  O  O8  1  0.71315100  0.86670600  0.58509600  1
  O  O9  1  0.21315100  0.13329400  0.91490400  1
  O  O10  1  0.28684900  0.13329400  0.41490400  1
  O  O11  1  0.78684900  0.86670600  0.08509600  1
  O  O12  1  0.14167700  0.75099800  0.25052900  1
  O  O13  1  0.64167700  0.24900200  0.24947100  1
  O  O14  1  0.85832300  0.24900200  0.74947100  1
  O  O15  1  0.35832300  0.75099800  0.75052900  1
  O  O16  1  0.06689100  0.40481000  0.36048400  1
  O  O17  1  0.56689100  0.59519000  0.13951600  1
  O  O18  1  0.93310900  0.59519000  0.63951600  1
  O  O19  1  0.43310900  0.40481000  0.86048400  1
  O  O20  1  0.65645800  0.62972400  0.39388600  1
  O  O21  1  0.15645800  0.37027600  0.10611400  1
  O  O22  1  0.34354200  0.37027600  0.60611400  1
  O  O23  1  0.84354200  0.62972400  0.89388600  1
  O  O24  1  0.68024100  0.92289200  0.39790200  1
  O  O25  1  0.18024100  0.07710800  0.10209800  1
  O  O26  1  0.31975900  0.07710800  0.60209800  1
  O  O27  1  0.81975900  0.92289200  0.89790200  1
  O  O28  1  0.24703500  0.75054300  0.50061200  1
  O  O29  1  0.74703500  0.24945700  0.99938800  1
  O  O30  1  0.75296500  0.24945700  0.49938800  1
  O  O31  1  0.25296500  0.75054300  0.00061200  1
loop_
_geom_bond_atom_site_label_1
_geom_bond_atom_site_label_2
_geom_bond_distance
_geom_bond_site_symmetry_2
K0 O12 2.798478 1_645
K0 O16 2.847737 1_655
K0 O11 2.857473 1_545
K0 O25 2.958377 1_655
K0 O30 3.035357 1_555
K0 O10 3.039680 1_655
K0 O24 3.167265 1_545
K0 O2 3.255640 1_655
K0 O0 3.328701 1_545
K0 O13 3.402059 1_555
K1 O13 2.798478 1_565
K1 O17 2.847737 1_555
K1 O10 2.857473 1_565
K1 O24 2.958377 1_555
K1 O31 3.035357 1_555
K1 O11 3.039680 1_555
K1 O25 3.167265 1_565
K1 O3 3.255640 1_554
K1 O1 3.328701 1_565
K1 O12 3.402059 1_555
K2 O14 2.798478 1_465
K2 O18 2.847737 1_455
K2 O9 2.857473 1_565
K2 O27 2.958377 1_455
K2 O28 3.035357 1_555
K2 O8 3.039680 1_455
K2 O26 3.167265 1_565
K2 O0 3.255640 1_455
K2 O2 3.328701 1_565
K2 O15 3.402059 1_555
K3 O15 2.798478 1_545
K3 O19 2.847737 1_555
K3 O8 2.857473 1_545
K3 O26 2.958377 1_555
K3 O29 3.035357 1_555
K3 O9 3.039680 1_555
K3 O27 3.167265 1_545
K3 O1 3.255640 1_556
K3 O3 3.328701 1_545
K3 O14 3.402059 1_555
H0 O28 1.017480 1_555
H0 O26 1.601201 1_565
H0 K2 2.937830 1_555
H1 O29 1.017480 1_555
H1 O27 1.601201 1_545
H1 K3 2.937830 1_555
H2 O30 1.017480 1_555
H2 O24 1.601201 1_545
H2 K0 2.937830 1_555
H3 O31 1.017480 1_555
H3 O25 1.601201 1_565
H3 K1 2.937830 1_555
H4 O28 0.978398 1_555
H5 O29 0.978398 1_555
H6 O30 0.978398 1_555
H7 O31 0.978398 1_555
H8 O4 0.979099 1_555
H9 O5 0.979099 1_555
H10 O6 0.979099 1_555
H11 O7 0.979099 1_555
O0 S0 1.520332 1_555
O0 U0 2.374745 1_655
O1 S1 1.520332 1_555
O1 U1 2.374745 1_555
O2 S2 1.520332 1_555
O2 U2 2.374745 1_455
O3 S3 1.520332 1_555
O3 U3 2.374745 1_555
O4 U1 2.335017 1_555
O4 U0 2.346608 1_555
O5 U0 2.335017 1_655
O5 U1 2.346608 1_555
O6 U3 2.335017 1_555
O6 U2 2.346608 1_555
O7 U2 2.335017 1_455
O7 U3 2.346608 1_555
O8 S0 1.459052 1_555
O9 S1 1.459052 1_556
O10 S2 1.459052 1_555
O11 S3 1.459052 1_554
O12 U0 1.827778 1_555
O13 U1 1.827778 1_555
O14 U2 1.827778 1_555
O15 U3 1.827778 1_555
O16 U0 1.809496 1_555
O17 U1 1.809496 1_555
O18 U2 1.809496 1_555
O19 U3 1.809496 1_555
O20 S0 1.501540 1_555
O20 U1 2.414359 1_555
O21 S1 1.501540 1_555
O21 U0 2.414359 1_555
O22 S2 1.501540 1_555
O22 U3 2.414359 1_555
O23 S3 1.501540 1_555
O23 U2 2.414359 1_555
O24 S0 1.494467 1_555
O25 S1 1.494467 1_555
O26 S2 1.494467 1_555
O27 S3 1.494467 1_555
O28 U0 2.549662 1_555
O29 U1 2.549662 1_556
O30 U2 2.549662 1_555
O31 U3 2.549662 1_554
