# generated using pymatgen
data_Ca2FeMoO6
_symmetry_space_group_name_H-M   'P 1'
_cell_length_a   5.59719200
_cell_length_b   5.45761100
_cell_length_c   9.50223220
_cell_angle_alpha   55.48112557
_cell_angle_beta   90.00000000
_cell_angle_gamma   90.00000000
_symmetry_Int_Tables_number   1
_chemical_formula_structural   Ca2FeMoO6
_chemical_formula_sum   'Ca4 Fe2 Mo2 O12'
_cell_volume   239.16288034
_cell_formula_units_Z   2
loop_
 _symmetry_equiv_pos_site_id
 _symmetry_equiv_pos_as_xyz
  1  'x, y, z'
loop_
 _atom_site_type_symbol
 _atom_site_label
 _atom_site_symmetry_multiplicity
 _atom_site_fract_x
 _atom_site_fract_y
 _atom_site_fract_z
 _atom_site_occupancy
  Ca  Ca0  1  0.94774500  0.26594700  0.24578800  1
  Ca  Ca1  1  0.44774500  0.73405300  0.25421200  1
  Ca  Ca2  1  0.05225500  0.73405300  0.75421200  1
  Ca  Ca3  1  0.55225500  0.26594700  0.74578800  1
  Fe  Fe0  1  0.00000000  0.50000000  0.50000000  1
  Fe  Fe1  1  0.50000000  0.50000000  0.00000000  1
  Mo  Mo0  1  0.00000000  0.00000000  0.00000000  1
  Mo  Mo1  1  0.50000000  0.00000000  0.50000000  1
  O  O0  1  0.70550000  0.34903300  0.45131800  1
  O  O1  1  0.20550000  0.65096700  0.04868200  1
  O  O2  1  0.29450000  0.65096700  0.54868200  1
  O  O3  1  0.79450000  0.34903300  0.95131800  1
  O  O4  1  0.78534600  0.75950800  0.54818200  1
  O  O5  1  0.28534600  0.24049200  0.95181800  1
  O  O6  1  0.21465400  0.24049200  0.45181800  1
  O  O7  1  0.71465400  0.75950800  0.04818200  1
  O  O8  1  0.52934000  0.15990900  0.24810600  1
  O  O9  1  0.02934000  0.84009100  0.25189400  1
  O  O10  1  0.97066000  0.15990900  0.74810600  1
  O  O11  1  0.47066000  0.84009100  0.75189400  1
loop_
_geom_bond_atom_site_label_1
_geom_bond_atom_site_label_2
_geom_bond_distance
_geom_bond_site_symmetry_2
Ca0 O9 2.336839 1_645
Ca0 O1 2.354635 1_655
Ca0 O6 2.403264 1_655
Ca0 O8 2.409442 1_555
Ca0 O7 2.598330 1_555
Ca0 O0 2.619529 1_555
Ca0 O3 2.707917 1_554
Ca0 O4 2.778686 1_545
Ca1 O8 2.336839 1_565
Ca1 O0 2.354635 1_555
Ca1 O7 2.403264 1_555
Ca1 O9 2.409442 1_555
Ca1 O6 2.598330 1_555
Ca1 O1 2.619529 1_555
Ca1 O2 2.707917 1_555
Ca1 O5 2.778686 1_564
Ca2 O10 2.336839 1_465
Ca2 O3 2.354635 1_455
Ca2 O4 2.403264 1_455
Ca2 O11 2.409442 1_555
Ca2 O5 2.598330 1_555
Ca2 O2 2.619529 1_555
Ca2 O1 2.707917 1_556
Ca2 O6 2.778686 1_565
Ca3 O11 2.336839 1_545
Ca3 O2 2.354635 1_555
Ca3 O5 2.403264 1_555
Ca3 O10 2.409442 1_555
Ca3 O4 2.598330 1_555
Ca3 O3 2.619529 1_555
Ca3 O0 2.707917 1_555
Ca3 O7 2.778686 1_546
Fe0 O0 2.010454 1_455
Fe0 O2 2.010454 1_555
Fe0 O10 2.017607 1_455
Fe0 O9 2.017607 1_555
Fe0 O4 2.096166 1_455
Fe0 O6 2.096166 1_555
Fe1 O1 2.010454 1_555
Fe1 O3 2.010454 1_554
Fe1 O11 2.017607 1_554
Fe1 O8 2.017607 1_555
Fe1 O7 2.096166 1_555
Fe1 O5 2.096166 1_554
Mo0 O5 1.949896 1_554
Mo0 O7 1.949896 1_445
Mo0 O9 2.037215 1_545
Mo0 O10 2.037215 1_454
Mo0 O3 2.041300 1_454
Mo0 O1 2.041300 1_545
Mo1 O4 1.949896 1_545
Mo1 O6 1.949896 1_555
Mo1 O11 2.037215 1_545
Mo1 O8 2.037215 1_555
Mo1 O0 2.041300 1_555
Mo1 O2 2.041300 1_545
