# generated using pymatgen
data_Ba2Mg3Tl2(NiO3)4
_symmetry_space_group_name_H-M   'P 1'
_cell_length_a   3.73507836
_cell_length_b   3.73507807
_cell_length_c   21.10244816
_cell_angle_alpha   95.07723794
_cell_angle_beta   95.07723851
_cell_angle_gamma   89.99999544
_symmetry_Int_Tables_number   1
_chemical_formula_structural   Ba2Mg3Tl2(NiO3)4
_chemical_formula_sum   'Ba2 Mg3 Tl2 Ni4 O12'
_cell_volume   292.08141782
_cell_formula_units_Z   1
loop_
 _symmetry_equiv_pos_site_id
 _symmetry_equiv_pos_as_xyz
  1  'x, y, z'
loop_
 _atom_site_type_symbol
 _atom_site_label
 _atom_site_symmetry_multiplicity
 _atom_site_fract_x
 _atom_site_fract_y
 _atom_site_fract_z
 _atom_site_occupancy
  Ba  Ba0  1  0.15237800  0.15237800  0.30475400  1
  Ba  Ba1  1  0.84762200  0.84762200  0.69524600  1
  Mg  Mg0  1  0.07180200  0.07180200  0.14360500  1
  Mg  Mg1  1  0.92819800  0.92819800  0.85639500  1
  Mg  Mg2  1  0.00000000  0.00000000  0.00000000  1
  Tl  Tl0  1  0.72194700  0.72194700  0.44389400  1
  Tl  Tl1  1  0.27805300  0.27805300  0.55610600  1
  Ni  Ni0  1  0.53531500  0.53531500  0.07063000  1
  Ni  Ni1  1  0.39678000  0.39678000  0.79355900  1
  Ni  Ni2  1  0.60322100  0.60322100  0.20644100  1
  Ni  Ni3  1  0.46468500  0.46468500  0.92937000  1
  O  O0  1  0.39777600  0.89777600  0.79555200  1
  O  O1  1  0.53368200  0.03368200  0.06736400  1
  O  O2  1  0.22701700  0.22701700  0.45403500  1
  O  O3  1  0.96631800  0.46631800  0.93263600  1
  O  O4  1  0.77298300  0.77298300  0.54596500  1
  O  O5  1  0.10222400  0.60222400  0.20444800  1
  O  O6  1  0.60222400  0.10222400  0.20444800  1
  O  O7  1  0.32735600  0.32735600  0.65471300  1
  O  O8  1  0.89777600  0.39777600  0.79555200  1
  O  O9  1  0.03368200  0.53368200  0.06736400  1
  O  O10  1  0.46631800  0.96631800  0.93263600  1
  O  O11  1  0.67264400  0.67264400  0.34528700  1
loop_
_geom_bond_atom_site_label_1
_geom_bond_atom_site_label_2
_geom_bond_distance
_geom_bond_site_symmetry_2
Ba0 O11 2.774085 1_555
Ba0 O11 2.774087 1_545
Ba0 O11 2.774087 1_455
Ba0 O11 2.774090 1_445
Ba0 O5 2.810326 1_555
Ba0 O6 2.810326 1_555
Ba0 O5 2.810332 1_545
Ba0 O6 2.810332 1_455
Ba0 O2 3.125425 1_555
Ba1 O7 2.774085 1_555
Ba1 O7 2.774087 1_565
Ba1 O7 2.774087 1_655
Ba1 O7 2.774090 1_665
Ba1 O8 2.810326 1_555
Ba1 O0 2.810326 1_555
Ba1 O8 2.810332 1_565
Ba1 O0 2.810332 1_655
Ba1 O4 3.125425 1_555
Mg0 O5 2.260612 1_545
Mg0 O6 2.260612 1_455
Mg0 O5 2.260615 1_555
Mg0 O6 2.260615 1_555
Mg0 O9 2.456750 1_545
Mg0 O1 2.456750 1_455
Mg0 O9 2.456752 1_555
Mg0 O1 2.456752 1_555
Mg1 O8 2.260612 1_565
Mg1 O0 2.260612 1_655
Mg1 O8 2.260615 1_555
Mg1 O0 2.260615 1_555
Mg1 O3 2.456750 1_565
Mg1 O10 2.456750 1_655
Mg1 O3 2.456752 1_555
Mg1 O10 2.456752 1_555
Mg2 O3 2.340265 1_454
Mg2 O9 2.340265 1_545
Mg2 O1 2.340265 1_455
Mg2 O10 2.340265 1_544
Mg2 O3 2.340265 1_444
Mg2 O9 2.340265 1_555
Mg2 O1 2.340265 1_555
Mg2 O10 2.340265 1_444
Ni0 O1 1.868790 1_565
Ni0 O1 1.868790 1_555
Ni0 O9 1.868791 1_655
Ni0 O9 1.868791 1_555
Ni1 O0 1.868003 1_555
Ni1 O8 1.868003 1_555
Ni1 O0 1.868007 1_545
Ni1 O8 1.868007 1_455
Ni2 O6 1.868003 1_565
Ni2 O5 1.868003 1_655
Ni2 O6 1.868007 1_555
Ni2 O5 1.868007 1_555
Ni3 O10 1.868790 1_545
Ni3 O10 1.868790 1_555
Ni3 O3 1.868791 1_455
Ni3 O3 1.868791 1_555
O2 Tl1 2.137012 1_555
O2 Tl0 2.649617 1_445
O2 Tl0 2.649619 1_455
O2 Tl0 2.649619 1_545
O2 Tl0 2.649622 1_555
O4 Tl0 2.137012 1_555
O4 Tl1 2.649617 1_665
O4 Tl1 2.649619 1_655
O4 Tl1 2.649619 1_565
O4 Tl1 2.649622 1_555
O7 Tl1 2.064488 1_555
O11 Tl0 2.064488 1_555
