# generated using pymatgen
data_Zn(I3N2)2
_symmetry_space_group_name_H-M   'P 1'
_cell_length_a   8.57448316
_cell_length_b   8.57448316
_cell_length_c   16.15461100
_cell_angle_alpha   90.00000000
_cell_angle_beta   90.00000000
_cell_angle_gamma   119.99999353
_symmetry_Int_Tables_number   1
_chemical_formula_structural   Zn(I3N2)2
_chemical_formula_sum   'Zn3 I18 N12'
_cell_volume   1028.59182514
_cell_formula_units_Z   3
loop_
 _symmetry_equiv_pos_site_id
 _symmetry_equiv_pos_as_xyz
  1  'x, y, z'
loop_
 _atom_site_type_symbol
 _atom_site_label
 _atom_site_symmetry_multiplicity
 _atom_site_fract_x
 _atom_site_fract_y
 _atom_site_fract_z
 _atom_site_occupancy
  Zn  Zn0  1  0.72262200  0.00000000  0.50000300  1
  Zn  Zn1  1  0.00000000  0.72262200  0.83333700  1
  Zn  Zn2  1  0.27737800  0.27737800  0.16667000  1
  I  I0  1  0.41090500  0.88295800  0.34326200  1
  I  I1  1  0.11704200  0.52794800  0.67659600  1
  I  I2  1  0.47205200  0.58909500  0.00992900  1
  I  I3  1  0.58909500  0.47205200  0.32340400  1
  I  I4  1  0.52794800  0.11704200  0.65673800  1
  I  I5  1  0.88295800  0.41090500  0.99007100  1
  I  I6  1  0.10978500  0.76647900  0.45344000  1
  I  I7  1  0.23352100  0.34330600  0.78677400  1
  I  I8  1  0.65669400  0.89021500  0.12010700  1
  I  I9  1  0.89021500  0.65669400  0.21322600  1
  I  I10  1  0.34330600  0.23352100  0.54656000  1
  I  I11  1  0.76647900  0.10978500  0.87989300  1
  I  I12  1  0.13940900  0.31956800  0.42720400  1
  I  I13  1  0.68043200  0.81984100  0.76053800  1
  I  I14  1  0.18015900  0.86059100  0.09387100  1
  I  I15  1  0.86059100  0.18015900  0.23946200  1
  I  I16  1  0.81984100  0.68043200  0.57279600  1
  I  I17  1  0.31956800  0.13940900  0.90612900  1
  N  N0  1  0.81859900  0.93534800  0.39832700  1
  N  N1  1  0.06465200  0.88325100  0.73166100  1
  N  N2  1  0.11674900  0.18140100  0.06499400  1
  N  N3  1  0.18140100  0.11674900  0.26833900  1
  N  N4  1  0.88325100  0.06465200  0.60167300  1
  N  N5  1  0.93534800  0.81859900  0.93500600  1
  N  N6  1  0.70371300  0.21504300  0.45911900  1
  N  N7  1  0.78495700  0.48866900  0.79245300  1
  N  N8  1  0.51133100  0.29628700  0.12578600  1
  N  N9  1  0.29628700  0.51133100  0.20754700  1
  N  N10  1  0.48866900  0.78495700  0.54088100  1
  N  N11  1  0.21504300  0.70371300  0.87421400  1
loop_
_geom_bond_atom_site_label_1
_geom_bond_atom_site_label_2
_geom_bond_distance
_geom_bond_site_symmetry_2
I0 I6 2.872842 1_555
I1 I7 2.872848 1_555
I2 I8 2.872843 1_555
I3 I9 2.872843 1_555
I10 I4 2.872848 1_555
I10 I12 2.934047 1_555
I11 I5 2.872842 1_555
I11 I13 2.934037 1_545
I14 I9 2.934037 1_455
I15 I8 2.934037 1_545
I16 I6 2.934048 1_655
I17 I7 2.934037 1_555
N0 Zn0 2.034379 1_565
N1 Zn1 2.034379 1_555
N2 Zn2 2.034379 1_555
N3 Zn2 2.034288 1_555
N4 Zn0 2.034301 1_555
N5 Zn1 2.034288 1_655
N6 Zn0 2.039942 1_555
N7 Zn1 2.039947 1_655
N8 Zn2 2.039950 1_555
N9 Zn2 2.039913 1_555
N10 Zn0 2.039915 1_565
N11 Zn1 2.039905 1_555
