# generated using pymatgen
data_SrSmMn2O6
_symmetry_space_group_name_H-M   'P 1'
_cell_length_a   5.53953300
_cell_length_b   5.54036200
_cell_length_c   7.72537300
_cell_angle_alpha   90.00000000
_cell_angle_beta   90.00000000
_cell_angle_gamma   90.00000000
_symmetry_Int_Tables_number   1
_chemical_formula_structural   SrSmMn2O6
_chemical_formula_sum   'Sr2 Sm2 Mn4 O12'
_cell_volume   237.09956281
_cell_formula_units_Z   2
loop_
 _symmetry_equiv_pos_site_id
 _symmetry_equiv_pos_as_xyz
  1  'x, y, z'
loop_
 _atom_site_type_symbol
 _atom_site_label
 _atom_site_symmetry_multiplicity
 _atom_site_fract_x
 _atom_site_fract_y
 _atom_site_fract_z
 _atom_site_occupancy
  Sr  Sr0  1  0.50165100  0.26615400  0.50000000  1
  Sr  Sr1  1  0.00165100  0.73384600  0.00000000  1
  Sm  Sm0  1  0.98600200  0.78663600  0.50000000  1
  Sm  Sm1  1  0.48600200  0.21336400  0.00000000  1
  Mn  Mn0  1  0.99939200  0.25446800  0.75061800  1
  Mn  Mn1  1  0.49939200  0.74553200  0.25061800  1
  Mn  Mn2  1  0.99939200  0.25446800  0.24938200  1
  Mn  Mn3  1  0.49939200  0.74553200  0.74938200  1
  O  O0  1  0.05660100  0.22979600  0.50000000  1
  O  O1  1  0.41324100  0.74394000  0.50000000  1
  O  O2  1  0.91324100  0.25606000  0.00000000  1
  O  O3  1  0.55660100  0.77020400  0.00000000  1
  O  O4  1  0.23827200  0.98809200  0.78601000  1
  O  O5  1  0.28358800  0.46710700  0.20813300  1
  O  O6  1  0.78358800  0.53289300  0.29186700  1
  O  O7  1  0.73827200  0.01190800  0.71399000  1
  O  O8  1  0.78358800  0.53289300  0.70813300  1
  O  O9  1  0.73827200  0.01190800  0.28601000  1
  O  O10  1  0.23827200  0.98809200  0.21399000  1
  O  O11  1  0.28358800  0.46710700  0.79186700  1
loop_
_geom_bond_atom_site_label_1
_geom_bond_atom_site_label_2
_geom_bond_distance
_geom_bond_site_symmetry_2
Mn0 O0 1.966639 1_655
Mn0 O8 1.978982 1_555
Mn0 O2 1.984817 1_556
Mn0 O11 1.991964 1_655
Mn0 O7 1.994585 1_555
Mn0 O4 2.000970 1_645
Mn1 O3 1.966639 1_555
Mn1 O5 1.978982 1_555
Mn1 O1 1.984817 1_555
Mn1 O6 1.991964 1_555
Mn1 O10 1.994585 1_555
Mn1 O9 2.000970 1_565
Mn2 O0 1.966639 1_655
Mn2 O6 1.978982 1_555
Mn2 O2 1.984817 1_555
Mn2 O5 1.991964 1_655
Mn2 O9 1.994585 1_555
Mn2 O10 2.000970 1_645
Mn3 O3 1.966639 1_556
Mn3 O11 1.978982 1_555
Mn3 O1 1.984817 1_555
Mn3 O8 1.991964 1_555
Mn3 O4 1.994585 1_555
Mn3 O7 2.000970 1_565
O0 Sr0 2.473585 1_555
O0 Sm0 2.486219 1_445
O0 Sr0 3.080756 1_455
O1 Sm0 2.378497 1_455
O1 Sr0 2.692031 1_555
O1 Sr0 2.934413 1_565
O2 Sm1 2.378497 1_555
O2 Sr1 2.692031 1_655
O2 Sr1 2.934413 1_645
O3 Sr1 2.473585 1_655
O3 Sm1 2.486219 1_565
O3 Sr1 3.080756 1_555
O4 Sm1 2.484727 1_566
O4 Sr1 2.536775 1_556
O4 Sr0 3.063340 1_565
O5 Sm1 2.412256 1_555
O5 Sr1 2.684876 1_555
O5 Sr0 2.789763 1_555
O6 Sm0 2.412256 1_555
O6 Sr0 2.684876 1_555
O6 Sr1 2.789763 1_655
O7 Sm0 2.484727 1_545
O7 Sr0 2.536775 1_555
O7 Sr1 3.063340 1_646
O8 Sm0 2.412256 1_555
O8 Sr0 2.684876 1_555
O8 Sr1 2.789763 1_656
O9 Sm0 2.484727 1_545
O9 Sr0 2.536775 1_555
O9 Sr1 3.063340 1_645
O10 Sm1 2.484727 1_565
O10 Sr1 2.536775 1_555
O10 Sr0 3.063340 1_565
O11 Sm1 2.412256 1_556
O11 Sr1 2.684876 1_556
O11 Sr0 2.789763 1_555
