# generated using pymatgen
data_Li5V3P8O29
_symmetry_space_group_name_H-M   'P 1'
_cell_length_a   9.79037400
_cell_length_b   9.82058400
_cell_length_c   14.10881004
_cell_angle_alpha   89.90726421
_cell_angle_beta   90.56173774
_cell_angle_gamma   119.59652707
_symmetry_Int_Tables_number   1
_chemical_formula_structural   Li5V3P8O29
_chemical_formula_sum   'Li10 V6 P16 O58'
_cell_volume   1179.46520234
_cell_formula_units_Z   2
loop_
 _symmetry_equiv_pos_site_id
 _symmetry_equiv_pos_as_xyz
  1  'x, y, z'
loop_
 _atom_site_type_symbol
 _atom_site_label
 _atom_site_symmetry_multiplicity
 _atom_site_fract_x
 _atom_site_fract_y
 _atom_site_fract_z
 _atom_site_occupancy
  Li  Li0  1  0.90673600  0.67910500  0.05863600  1
  Li  Li1  1  0.77687400  0.08211100  0.05786600  1
  Li  Li2  1  0.31824900  0.22768200  0.05784900  1
  Li  Li3  1  0.67539900  0.90791700  0.44090200  1
  Li  Li4  1  0.33178200  0.09799300  0.56015100  1
  Li  Li5  1  0.22640600  0.90804400  0.94091400  1
  Li  Li6  1  0.32551600  0.66124700  0.61109400  1
  Li  Li7  1  0.22843800  0.31721000  0.44396200  1
  Li  Li8  1  0.08893900  0.32242900  0.93617800  1
  Li  Li9  1  0.96775700  0.95079900  0.50714300  1
  V  V0  1  0.56919600  0.00103100  0.25101800  1
  V  V1  1  0.43332400  0.00081700  0.75313900  1
  V  V2  1  0.57502400  0.57098900  0.75343700  1
  V  V3  1  0.43769700  0.44029100  0.25158100  1
  V  V4  1  0.00286600  0.56813800  0.25609600  1
  V  V5  1  0.99370700  0.43317600  0.74079000  1
  P  P0  1  0.91699900  0.68253800  0.84191300  1
  P  P1  1  0.77686000  0.69255100  0.34083500  1
  P  P2  1  0.91843600  0.22401400  0.34010800  1
  P  P3  1  0.66578100  0.33408500  0.13264700  1
  P  P4  1  0.65783600  0.33372100  0.62813400  1
  P  P5  1  0.77337100  0.08928300  0.84021300  1
  P  P6  1  0.68302700  0.90610500  0.65912000  1
  P  P7  1  0.31941600  0.23441200  0.84197700  1
  P  P8  1  0.68343100  0.76916800  0.15562800  1
  P  P9  1  0.31775300  0.09224100  0.34265200  1
  P  P10  1  0.23059300  0.91173300  0.16211700  1
  P  P11  1  0.33853700  0.66800600  0.37268100  1
  P  P12  1  0.32857700  0.66051300  0.86834500  1
  P  P13  1  0.08814400  0.78170600  0.65831100  1
  P  P14  1  0.22958600  0.31907500  0.65808400  1
  P  P15  1  0.08705700  0.32151800  0.15694800  1
  O  O0  1  0.00529000  0.80300500  0.57657000  1
  O  O1  1  0.91215800  0.65551500  0.33505300  1
  O  O2  1  0.76040100  0.75231900  0.07048800  1
  O  O3  1  0.74897500  0.66281400  0.83542400  1
  O  O4  1  0.90574900  0.52385400  0.82503000  1
  O  O5  1  0.81507600  0.48455900  0.16835500  1
  O  O6  1  0.91693700  0.37842300  0.33249300  1
  O  O7  1  0.00414400  0.24851500  0.06522200  1
  O  O8  1  0.91766000  0.25399600  0.83495800  1
  O  O9  1  0.66066400  0.47952800  0.67907400  1
  O  O10  1  0.61797800  0.53637600  0.32854700  1
  O  O11  1  0.81040700  0.33691000  0.67033900  1
  O  O12  1  0.64190600  0.32682300  0.02789300  1
  O  O13  1  0.65468400  0.34351800  0.52359600  1
  O  O14  1  0.67033000  0.18571900  0.17101100  1
  O  O15  1  0.47792200  0.38266100  0.82412100  1
  O  O16  1  0.51698100  0.33554300  0.17997600  1
  O  O17  1  0.74687500  0.08199800  0.33685800  1
  O  O18  1  0.78966400  0.99751800  0.74976400  1
  O  O19  1  0.76809200  0.97732900  0.56927200  1
  O  O20  1  0.76025300  0.00819200  0.93100700  1
  O  O21  1  0.62014700  0.09688600  0.81734900  1
  O  O22  1  0.51087900  0.18501100  0.66656200  1
  O  O23  1  0.66217100  0.91502600  0.15746700  1
  O  O24  1  0.47307400  0.09357600  0.32975500  1
  O  O25  1  0.34095500  0.26231600  0.33355400  1
  O  O26  1  0.79225100  0.79242200  0.24771300  1
  O  O27  1  0.78626800  0.78881400  0.42472900  1
  O  O28  1  0.23432300  0.23034000  0.57218900  1
  O  O29  1  0.65871900  0.73758000  0.66929700  1
  O  O30  1  0.51972800  0.89323000  0.66932000  1
  O  O31  1  0.33614600  0.08540000  0.84304400  1
  O  O32  1  0.49391600  0.81256200  0.33894900  1
  O  O33  1  0.38131300  0.90091200  0.18216800  1
  O  O34  1  0.24611700  0.00128600  0.07241100  1
  O  O35  1  0.23258700  0.02381700  0.43273200  1
  O  O36  1  0.20893200  0.00223700  0.25106400  1
  O  O37  1  0.26147300  0.92177000  0.66405500  1
  O  O38  1  0.47502500  0.65973200  0.82156700  1
  O  O39  1  0.52239700  0.61941500  0.17829100  1
  O  O40  1  0.32851000  0.81388300  0.83376900  1
  O  O41  1  0.32795300  0.64900800  0.97329400  1
  O  O42  1  0.33888100  0.65124100  0.47865100  1
  O  O43  1  0.19665200  0.67502000  0.33014000  1
  O  O44  1  0.38084000  0.47993800  0.67081800  1
  O  O45  1  0.33097200  0.51310500  0.32891000  1
  O  O46  1  0.08386100  0.74798800  0.16180500  1
  O  O47  1  0.01192600  0.79750500  0.75609900  1
  O  O48  1  0.99989900  0.75999000  0.93276300  1
  O  O49  1  0.10018600  0.62975900  0.66347300  1
  O  O50  1  0.18017500  0.51593700  0.82224600  1
  O  O51  1  0.09447100  0.47880700  0.17848000  1
  O  O52  1  0.25521800  0.34160300  0.16053200  1
  O  O53  1  0.24139100  0.24594100  0.93047200  1
  O  O54  1  0.21056900  0.21420800  0.75110800  1
  O  O55  1  0.08815200  0.34473100  0.65613200  1
  O  O56  1  0.00776300  0.20528300  0.42054700  1
  O  O57  1  0.99234800  0.20391500  0.24119000  1
loop_
_geom_bond_atom_site_label_1
_geom_bond_atom_site_label_2
_geom_bond_distance
_geom_bond_site_symmetry_2
Li0 O2 1.902651 1_555
Li0 O48 1.981999 1_554
Li0 O46 2.092482 1_655
Li0 O5 2.275072 1_555
Li1 O20 1.907551 1_554
Li1 O7 2.009109 1_655
Li1 O23 2.032637 1_545
Li1 O14 2.399573 1_555
Li2 O53 1.983378 1_554
Li2 O34 1.983584 1_555
Li2 O52 2.106186 1_555
Li2 O16 2.404368 1_555
Li3 O27 1.964226 1_555
Li3 O19 1.982220 1_555
Li3 O17 2.097021 1_565
Li3 O32 2.100884 1_555
Li4 O28 1.964035 1_555
Li4 O35 1.994200 1_555
Li4 O37 2.110155 1_545
Li4 O22 2.128666 1_555
Li5 O48 1.963567 1_455
Li5 O34 2.035110 1_566
Li5 O31 2.065800 1_565
Li5 O40 2.255396 1_555
Li6 O42 1.880580 1_555
Li6 O49 2.205869 1_555
Li6 O44 2.261115 1_555
Li6 O30 2.275306 1_555
Li7 O56 1.904334 1_555
Li7 O28 2.011365 1_555
Li7 O25 2.133911 1_555
Li7 O45 2.336215 1_555
Li8 O53 1.976982 1_555
Li8 O7 1.990226 1_556
Li8 O8 2.036178 1_455
Li8 O50 2.309689 1_555
Li9 O0 1.927772 1_655
Li9 O27 2.052618 1_555
Li9 O19 2.279230 1_555
Li9 O35 2.559951 1_665
Li9 O56 2.631469 1_665
O0 P13 1.476568 1_555
O1 P1 1.540022 1_555
O1 V4 1.881802 1_655
O2 P8 1.476394 1_555
O3 P0 1.560238 1_555
O3 V2 1.870658 1_555
O4 P0 1.525952 1_555
O4 V5 1.930841 1_555
O5 P3 1.558329 1_555
O5 V4 2.013556 1_655
O6 P2 1.527289 1_555
O6 V4 1.950329 1_655
O7 P15 1.501761 1_555
O8 P5 1.536928 1_555
O8 V5 2.033126 1_555
O9 P4 1.591052 1_555
O9 V2 1.837039 1_555
O10 P1 1.562370 1_555
O10 V3 1.872289 1_555
O11 P4 1.588455 1_555
O11 V5 1.842413 1_555
O12 P3 1.490360 1_555
O13 P4 1.478898 1_555
O14 P3 1.574483 1_555
O14 V0 1.945666 1_555
O15 P7 1.538201 1_555
O15 V2 1.895992 1_555
O16 P3 1.614962 1_555
O16 V3 1.867836 1_555
O17 P2 1.566271 1_555
O17 V0 1.928874 1_555
O18 P6 1.607223 1_555
O18 P5 1.617341 1_565
O19 P6 1.494052 1_555
O20 P5 1.480044 1_555
O21 P5 1.568779 1_555
O21 V1 1.822641 1_555
O22 P4 1.560138 1_555
O22 V1 1.998754 1_555
O23 P8 1.546133 1_555
O23 V0 2.017589 1_565
O24 P9 1.526887 1_555
O24 V0 1.953019 1_555
O25 P9 1.575714 1_555
O25 V3 1.915534 1_555
O26 P1 1.601425 1_555
O26 P8 1.615130 1_555
O27 P1 1.489522 1_555
O28 P14 1.508186 1_555
O29 P6 1.557938 1_555
O29 V2 1.856297 1_555
O30 P6 1.548387 1_555
O30 V1 2.033950 1_565
O31 P7 1.550868 1_555
O31 V1 2.002959 1_555
O32 P11 1.560378 1_555
O32 V0 2.042319 1_565
O33 P10 1.554138 1_555
O33 V0 1.864259 1_565
O34 P10 1.505506 1_545
O35 P9 1.492175 1_555
O36 P10 1.613946 1_545
O36 P9 1.622538 1_555
O37 P13 1.571708 1_555
O37 V1 1.919548 1_565
O38 P12 1.587701 1_555
O38 V2 1.872420 1_555
O39 P8 1.571235 1_555
O39 V3 1.849687 1_555
O40 P12 1.582768 1_555
O40 V1 1.967897 1_565
O41 P12 1.484670 1_555
O42 P11 1.504037 1_555
O43 P11 1.540337 1_555
O43 V4 1.946845 1_555
O44 P14 1.551043 1_555
O44 V2 2.013297 1_555
O45 P11 1.609913 1_555
O45 V3 1.885827 1_555
O46 P10 1.538720 1_555
O46 V4 2.036613 1_555
O47 P0 1.607951 1_455
O47 P13 1.618527 1_555
O48 P0 1.501072 1_555
O49 P13 1.555360 1_555
O49 V5 2.007807 1_455
O50 P12 1.580083 1_555
O50 V5 1.952020 1_455
O51 P15 1.540746 1_555
O51 V4 1.890152 1_555
O52 P15 1.558715 1_555
O52 V3 2.007466 1_555
O53 P7 1.503278 1_555
O54 P7 1.607427 1_555
O54 P14 1.621366 1_555
O55 P14 1.524946 1_555
O55 V5 1.963262 1_455
O56 P2 1.491787 1_455
O57 P15 1.601766 1_655
O57 P2 1.634661 1_555
