# generated using pymatgen
data_H4N2O3
_symmetry_space_group_name_H-M   'P 1'
_cell_length_a   7.20407100
_cell_length_b   7.90217200
_cell_length_c   8.00268400
_cell_angle_alpha   90.00000000
_cell_angle_beta   90.00000000
_cell_angle_gamma   90.00000000
_symmetry_Int_Tables_number   1
_chemical_formula_structural   H4N2O3
_chemical_formula_sum   'H16 N8 O12'
_cell_volume   455.57525937
_cell_formula_units_Z   4
loop_
 _symmetry_equiv_pos_site_id
 _symmetry_equiv_pos_as_xyz
  1  'x, y, z'
loop_
 _atom_site_type_symbol
 _atom_site_label
 _atom_site_symmetry_multiplicity
 _atom_site_fract_x
 _atom_site_fract_y
 _atom_site_fract_z
 _atom_site_occupancy
  H  H0  1  0.83301100  0.53609200  0.67374400  1
  H  H1  1  0.66698900  0.03609200  0.67374400  1
  H  H2  1  0.16698900  0.46390800  0.17374400  1
  H  H3  1  0.33301100  0.96390800  0.17374400  1
  H  H4  1  0.73541900  0.38140700  0.15492900  1
  H  H5  1  0.99642600  0.60000100  0.45372600  1
  H  H6  1  0.82982100  0.72586200  0.46488200  1
  H  H7  1  0.26458100  0.61859300  0.65492900  1
  H  H8  1  0.00357400  0.39999900  0.95372600  1
  H  H9  1  0.17017900  0.27413800  0.96488200  1
  H  H10  1  0.49642600  0.89999900  0.95372600  1
  H  H11  1  0.32982100  0.77413800  0.96488200  1
  H  H12  1  0.23541900  0.11859300  0.65492900  1
  H  H13  1  0.50357400  0.10000100  0.45372600  1
  H  H14  1  0.67017900  0.22586200  0.46488200  1
  H  H15  1  0.76458100  0.88140700  0.15492900  1
  N  N0  1  0.23813000  0.14524200  0.78284100  1
  N  N1  1  0.26187000  0.64524200  0.78284100  1
  N  N2  1  0.76187000  0.85475800  0.28284100  1
  N  N3  1  0.73813000  0.35475800  0.28284100  1
  N  N4  1  0.61895300  0.44164700  0.79244600  1
  N  N5  1  0.88104700  0.94164700  0.79244600  1
  N  N6  1  0.38104700  0.55835300  0.29244600  1
  N  N7  1  0.11895300  0.05835300  0.29244600  1
  O  O0  1  0.81039000  0.46369100  0.78059800  1
  O  O1  1  0.68961000  0.96369100  0.78059800  1
  O  O2  1  0.18961000  0.53630900  0.28059800  1
  O  O3  1  0.31039000  0.03630900  0.28059800  1
  O  O4  1  0.57680400  0.36400800  0.91629000  1
  O  O5  1  0.90540000  0.64661200  0.53240300  1
  O  O6  1  0.42319600  0.63599200  0.41629000  1
  O  O7  1  0.09460000  0.35338800  0.03240300  1
  O  O8  1  0.40540000  0.85338800  0.03240300  1
  O  O9  1  0.07680400  0.13599200  0.41629000  1
  O  O10  1  0.59460000  0.14661200  0.53240300  1
  O  O11  1  0.92319600  0.86400800  0.91629000  1
loop_
_geom_bond_atom_site_label_1
_geom_bond_atom_site_label_2
_geom_bond_distance
_geom_bond_site_symmetry_2
H0 O0 1.041687 1_555
H0 O5 1.521216 1_555
H1 O1 1.041687 1_545
H1 O10 1.521216 1_555
H2 O2 1.041687 1_555
H2 O7 1.521216 1_555
H3 O3 1.041687 1_565
H3 O8 1.521216 1_555
H4 N3 1.045258 1_555
H5 O5 0.980874 1_555
H6 O5 0.990261 1_555
H7 N1 1.045258 1_555
H8 O7 0.980874 1_556
H9 O7 0.990261 1_556
H10 O8 0.980874 1_556
H11 O8 0.990261 1_556
H12 N0 1.045258 1_555
H13 O10 0.980874 1_555
H14 O10 0.990261 1_555
H15 N2 1.045258 1_555
N4 O4 1.204513 1_555
N4 O0 1.393313 1_555
N5 O11 1.204513 1_555
N5 O1 1.393313 1_555
N6 O6 1.204513 1_555
N6 O2 1.393313 1_555
N7 O9 1.204513 1_555
N7 O3 1.393313 1_555
