# generated using pymatgen
data_Co3(SO6)2
_symmetry_space_group_name_H-M   'P 1'
_cell_length_a   7.05159800
_cell_length_b   9.61325200
_cell_length_c   12.70405800
_cell_angle_alpha   90.00000000
_cell_angle_beta   90.00000000
_cell_angle_gamma   90.00000000
_symmetry_Int_Tables_number   1
_chemical_formula_structural   Co3(SO6)2
_chemical_formula_sum   'Co12 S8 O48'
_cell_volume   861.19270183
_cell_formula_units_Z   4
loop_
 _symmetry_equiv_pos_site_id
 _symmetry_equiv_pos_as_xyz
  1  'x, y, z'
loop_
 _atom_site_type_symbol
 _atom_site_label
 _atom_site_symmetry_multiplicity
 _atom_site_fract_x
 _atom_site_fract_y
 _atom_site_fract_z
 _atom_site_occupancy
  Co  Co0  1  0.05004200  0.02736900  0.63449500  1
  Co  Co1  1  0.94995800  0.97263100  0.13449500  1
  Co  Co2  1  0.05004200  0.47263100  0.36550500  1
  Co  Co3  1  0.94995800  0.52736900  0.86550500  1
  Co  Co4  1  0.94995800  0.97263100  0.36550500  1
  Co  Co5  1  0.05004200  0.02736900  0.86550500  1
  Co  Co6  1  0.94995800  0.52736900  0.63449500  1
  Co  Co7  1  0.05004200  0.47263100  0.13449500  1
  Co  Co8  1  0.72231800  0.24884600  0.75000000  1
  Co  Co9  1  0.27768200  0.75115400  0.25000000  1
  Co  Co10  1  0.72231800  0.25115400  0.25000000  1
  Co  Co11  1  0.27768200  0.74884600  0.75000000  1
  S  S0  1  0.79854000  0.25000000  0.50000000  1
  S  S1  1  0.20146000  0.75000000  0.00000000  1
  S  S2  1  0.20146000  0.75000000  0.50000000  1
  S  S3  1  0.79854000  0.25000000  0.00000000  1
  S  S4  1  0.30413900  0.42798300  0.75000000  1
  S  S5  1  0.69586100  0.57201700  0.25000000  1
  S  S6  1  0.30413900  0.07201700  0.25000000  1
  S  S7  1  0.69586100  0.92798300  0.75000000  1
  O  O0  1  0.92032000  0.37942000  0.49919800  1
  O  O1  1  0.07968000  0.62058000  0.99919800  1
  O  O2  1  0.92032000  0.12058000  0.50080200  1
  O  O3  1  0.07968000  0.87942000  0.00080200  1
  O  O4  1  0.07968000  0.62058000  0.50080200  1
  O  O5  1  0.92032000  0.37942000  0.00080200  1
  O  O6  1  0.07968000  0.87942000  0.49919800  1
  O  O7  1  0.92032000  0.12058000  0.99919800  1
  O  O8  1  0.67796100  0.25437400  0.59404100  1
  O  O9  1  0.32203900  0.74562600  0.09404100  1
  O  O10  1  0.67796100  0.24562600  0.40595900  1
  O  O11  1  0.32203900  0.75437400  0.90595900  1
  O  O12  1  0.32203900  0.74562600  0.40595900  1
  O  O13  1  0.67796100  0.25437400  0.90595900  1
  O  O14  1  0.32203900  0.75437400  0.59404100  1
  O  O15  1  0.67796100  0.24562600  0.09404100  1
  O  O16  1  0.18208900  0.41879400  0.65279600  1
  O  O17  1  0.81791100  0.58120600  0.15279600  1
  O  O18  1  0.18208900  0.08120600  0.34720400  1
  O  O19  1  0.81791100  0.91879400  0.84720400  1
  O  O20  1  0.81791100  0.58120600  0.34720400  1
  O  O21  1  0.18208900  0.41879400  0.84720400  1
  O  O22  1  0.81791100  0.91879400  0.65279600  1
  O  O23  1  0.18208900  0.08120600  0.15279600  1
  O  O24  1  0.43612900  0.31239000  0.75000000  1
  O  O25  1  0.56387100  0.68761000  0.25000000  1
  O  O26  1  0.43612900  0.18761000  0.25000000  1
  O  O27  1  0.56387100  0.81239000  0.75000000  1
  O  O28  1  0.59164700  0.06373000  0.75000000  1
  O  O29  1  0.40835300  0.93627000  0.25000000  1
  O  O30  1  0.59164700  0.43627000  0.25000000  1
  O  O31  1  0.40835300  0.56373000  0.75000000  1
  O  O32  1  0.24750300  0.10472700  0.60599300  1
  O  O33  1  0.75249700  0.89527300  0.10599300  1
  O  O34  1  0.24750300  0.39527300  0.39400700  1
  O  O35  1  0.75249700  0.60472700  0.89400700  1
  O  O36  1  0.75249700  0.89527300  0.39400700  1
  O  O37  1  0.24750300  0.10472700  0.89400700  1
  O  O38  1  0.75249700  0.60472700  0.60599300  1
  O  O39  1  0.24750300  0.39527300  0.10599300  1
  O  O40  1  0.83903500  0.42045900  0.75000000  1
  O  O41  1  0.16096500  0.57954100  0.25000000  1
  O  O42  1  0.83903500  0.07954100  0.25000000  1
  O  O43  1  0.16096500  0.92045900  0.75000000  1
  O  O44  1  0.96434900  0.14469200  0.75000000  1
  O  O45  1  0.03565100  0.85530800  0.25000000  1
  O  O46  1  0.96434900  0.35530800  0.25000000  1
  O  O47  1  0.03565100  0.64469200  0.75000000  1
loop_
_geom_bond_atom_site_label_1
_geom_bond_atom_site_label_2
_geom_bond_distance
_geom_bond_site_symmetry_2
Co0 O32 1.619557 1_555
Co0 O44 1.946899 1_455
Co0 O43 1.954814 1_545
Co0 O22 1.955227 1_445
Co0 O2 2.127063 1_455
Co0 O6 2.240732 1_545
Co1 O33 1.619557 1_555
Co1 O45 1.946899 1_655
Co1 O42 1.954814 1_565
Co1 O23 1.955227 1_665
Co1 O3 2.127063 1_655
Co1 O7 2.240732 1_564
Co2 O34 1.619557 1_555
Co2 O46 1.946899 1_455
Co2 O41 1.954814 1_555
Co2 O20 1.955227 1_455
Co2 O0 2.127063 1_455
Co2 O4 2.240732 1_555
Co3 O35 1.619557 1_555
Co3 O47 1.946899 1_655
Co3 O40 1.954814 1_555
Co3 O21 1.955227 1_655
Co3 O1 2.127063 1_655
Co3 O5 2.240732 1_556
Co4 O36 1.619557 1_555
Co4 O45 1.946899 1_655
Co4 O42 1.954814 1_565
Co4 O18 1.955227 1_665
Co4 O6 2.127063 1_655
Co4 O2 2.240732 1_565
Co5 O37 1.619557 1_555
Co5 O44 1.946899 1_455
Co5 O43 1.954814 1_545
Co5 O19 1.955227 1_445
Co5 O7 2.127063 1_455
Co5 O3 2.240732 1_546
Co6 O38 1.619557 1_555
Co6 O47 1.946899 1_655
Co6 O40 1.954814 1_555
Co6 O16 1.955227 1_655
Co6 O4 2.127063 1_655
Co6 O0 2.240732 1_555
Co7 O39 1.619557 1_555
Co7 O46 1.946899 1_455
Co7 O41 1.954814 1_555
Co7 O17 1.955227 1_455
Co7 O5 2.127063 1_455
Co7 O1 2.240732 1_554
Co8 O40 1.843665 1_555
Co8 O44 1.978727 1_555
Co8 O28 2.003973 1_555
Co8 O13 2.006554 1_555
Co8 O8 2.006554 1_555
Co8 O24 2.108516 1_555
Co9 O41 1.843665 1_555
Co9 O45 1.978727 1_555
Co9 O29 2.003973 1_555
Co9 O12 2.006554 1_555
Co9 O9 2.006554 1_555
Co9 O25 2.108516 1_555
Co10 O42 1.843665 1_555
Co10 O46 1.978727 1_555
Co10 O30 2.003973 1_555
Co10 O10 2.006554 1_555
Co10 O15 2.006554 1_555
Co10 O26 2.108516 1_555
Co11 O43 1.843665 1_555
Co11 O47 1.978727 1_555
Co11 O31 2.003973 1_555
Co11 O11 2.006554 1_555
Co11 O14 2.006554 1_555
Co11 O27 2.108516 1_555
O0 S0 1.511769 1_555
O1 S1 1.511769 1_556
O2 S0 1.511769 1_555
O3 S1 1.511769 1_555
O4 S2 1.511769 1_555
O5 S3 1.511769 1_555
O6 S2 1.511769 1_555
O7 S3 1.511769 1_556
O8 S0 1.466986 1_555
O9 S1 1.466986 1_555
O10 S0 1.466986 1_555
O11 S1 1.466986 1_556
O12 S2 1.466986 1_555
O13 S3 1.466986 1_556
O14 S2 1.466986 1_555
O15 S3 1.466986 1_555
O16 S4 1.507799 1_555
O17 S5 1.507799 1_555
O18 S6 1.507799 1_555
O19 S7 1.507799 1_555
O20 S5 1.507799 1_555
O21 S4 1.507799 1_555
O22 S7 1.507799 1_555
O23 S6 1.507799 1_555
O24 S4 1.449516 1_555
O25 S5 1.449516 1_555
O26 S6 1.449516 1_555
O27 S7 1.449516 1_555
O28 S7 1.497661 1_545
O29 S6 1.497661 1_565
O30 S5 1.497661 1_555
O31 S4 1.497661 1_555
