# generated using pymatgen
data_TiFe2Bi2PbO9
_symmetry_space_group_name_H-M   'P 1'
_cell_length_a   5.64139802
_cell_length_b   5.64139802
_cell_length_c   14.04199800
_cell_angle_alpha   90.00000000
_cell_angle_beta   90.00000000
_cell_angle_gamma   120.00000019
_symmetry_Int_Tables_number   1
_chemical_formula_structural   TiFe2Bi2PbO9
_chemical_formula_sum   'Ti2 Fe4 Bi4 Pb2 O18'
_cell_volume   387.01965433
_cell_formula_units_Z   2
loop_
 _symmetry_equiv_pos_site_id
 _symmetry_equiv_pos_as_xyz
  1  'x, y, z'
loop_
 _atom_site_type_symbol
 _atom_site_label
 _atom_site_symmetry_multiplicity
 _atom_site_fract_x
 _atom_site_fract_y
 _atom_site_fract_z
 _atom_site_occupancy
  Ti  Ti0  1  0.33333300  0.66666700  0.20474300  1
  Ti  Ti1  1  0.00000000  0.00000000  0.02909900  1
  Fe  Fe0  1  0.00000000  0.00000000  0.52769400  1
  Fe  Fe1  1  0.66666700  0.33333300  0.86001800  1
  Fe  Fe2  1  0.66666700  0.33333300  0.36721800  1
  Fe  Fe3  1  0.33333300  0.66666700  0.69658300  1
  Bi  Bi0  1  0.33333300  0.66666700  0.47538100  1
  Bi  Bi1  1  0.00000000  0.00000000  0.80060700  1
  Bi  Bi2  1  0.66666700  0.33333300  0.63546300  1
  Bi  Bi3  1  0.33333300  0.66666700  0.96858300  1
  Pb  Pb0  1  0.66666700  0.33333300  0.13107200  1
  Pb  Pb1  1  0.00000000  0.00000000  0.30320900  1
  O  O0  1  0.91699000  0.68800800  0.92852800  1
  O  O1  1  0.53446200  0.00142400  0.26457800  1
  O  O2  1  0.25170600  0.34943400  0.59990400  1
  O  O3  1  0.77101800  0.08301000  0.92852800  1
  O  O4  1  0.46696100  0.46553800  0.26457800  1
  O  O5  1  0.09772800  0.74829400  0.59990400  1
  O  O6  1  0.31199200  0.22898200  0.92852800  1
  O  O7  1  0.99857600  0.53303900  0.26457800  1
  O  O8  1  0.65056600  0.90227200  0.59990400  1
  O  O9  1  0.58533000  0.56795300  0.76475000  1
  O  O10  1  0.20864900  0.86498900  0.09212100  1
  O  O11  1  0.91139700  0.23657800  0.43656200  1
  O  O12  1  0.98262400  0.41467000  0.76475000  1
  O  O13  1  0.65633900  0.79135100  0.09212100  1
  O  O14  1  0.32518200  0.08860300  0.43656200  1
  O  O15  1  0.43204700  0.01737600  0.76475000  1
  O  O16  1  0.13501100  0.34366100  0.09212100  1
  O  O17  1  0.76342200  0.67481800  0.43656200  1
loop_
_geom_bond_atom_site_label_1
_geom_bond_atom_site_label_2
_geom_bond_distance
_geom_bond_site_symmetry_2
Fe0 O2 2.032557 1_555
Fe0 O8 2.032557 1_445
Fe0 O5 2.032557 1_545
Fe0 O11 2.082249 1_455
Fe0 O17 2.082252 1_445
Fe0 O14 2.082253 1_555
Fe1 O3 2.024248 1_555
Fe1 O0 2.024252 1_555
Fe1 O6 2.024253 1_555
Fe1 O15 2.087903 1_555
Fe1 O12 2.087903 1_555
Fe1 O9 2.087903 1_555
Fe2 O14 1.976304 1_555
Fe2 O17 1.976304 1_555
Fe2 O11 1.976304 1_555
Fe2 O1 2.177845 1_555
Fe2 O7 2.177846 1_555
Fe2 O4 2.177853 1_555
Fe3 O15 2.009722 1_565
Fe3 O12 2.009724 1_455
Fe3 O9 2.009732 1_555
Fe3 O5 2.105638 1_555
Fe3 O8 2.105641 1_555
Fe3 O2 2.105642 1_555
Bi0 O5 2.376586 1_555
Bi0 O8 2.376588 1_555
Bi0 O2 2.376589 1_555
Bi0 O14 2.464664 1_565
Bi0 O11 2.464670 1_455
Bi0 O17 2.464675 1_555
Bi1 O6 2.391546 1_555
Bi1 O0 2.391546 1_445
Bi1 O3 2.391546 1_455
Bi1 O12 2.442304 1_455
Bi1 O9 2.442307 1_445
Bi1 O15 2.442309 1_555
Bi2 O15 2.421902 1_555
Bi2 O12 2.421902 1_555
Bi2 O9 2.421902 1_555
Bi2 O8 2.439318 1_545
Bi2 O5 2.439321 1_655
Bi2 O2 2.439324 1_555
Bi3 O16 2.354299 1_556
Bi3 O13 2.354299 1_556
Bi3 O10 2.354299 1_556
Bi3 O0 2.475940 1_455
Bi3 O3 2.475943 1_565
Bi3 O6 2.475945 1_555
O0 Ti1 2.118320 1_666
O1 Ti0 1.848516 1_545
O1 Pb0 2.486004 1_555
O1 Pb1 2.685665 1_655
O3 Ti1 2.118320 1_656
O4 Ti0 1.848516 1_555
O4 Pb0 2.486010 1_555
O4 Pb1 2.685662 1_555
O6 Ti1 2.118320 1_556
O7 Ti0 1.848516 1_655
O7 Pb0 2.486004 1_555
O7 Pb1 2.685659 1_665
O10 Ti1 1.909260 1_565
O10 Ti0 2.243750 1_555
O10 Pb0 2.670095 1_565
O11 Pb1 2.490905 1_655
O13 Ti1 1.909264 1_665
O13 Ti0 2.243750 1_555
O13 Pb0 2.670101 1_555
O14 Pb1 2.490909 1_555
O16 Ti1 1.909265 1_555
O16 Ti0 2.243750 1_555
O16 Pb0 2.670090 1_455
O17 Pb1 2.490908 1_665
