# generated using pymatgen
data_AuCClO
_symmetry_space_group_name_H-M   'P 1'
_cell_length_a   6.40605072
_cell_length_b   7.87924500
_cell_length_c   7.92804409
_cell_angle_alpha   90.00000000
_cell_angle_beta   113.83113531
_cell_angle_gamma   90.00000000
_symmetry_Int_Tables_number   1
_chemical_formula_structural   AuCClO
_chemical_formula_sum   'Au2 C2 Cl2 O2'
_cell_volume   366.04865783
_cell_formula_units_Z   2
loop_
 _symmetry_equiv_pos_site_id
 _symmetry_equiv_pos_as_xyz
  1  'x, y, z'
loop_
 _atom_site_type_symbol
 _atom_site_label
 _atom_site_symmetry_multiplicity
 _atom_site_fract_x
 _atom_site_fract_y
 _atom_site_fract_z
 _atom_site_occupancy
  Au  Au0  1  0.75829800  0.25000000  0.51723000  1
  Au  Au1  1  0.24128800  0.75000000  0.48259000  1
  C  C0  1  0.88920900  0.25000000  0.77866700  1
  C  C1  1  0.11082000  0.75000000  0.22173100  1
  Cl  Cl0  1  0.39591000  0.75000000  0.79154100  1
  Cl  Cl1  1  0.60398700  0.25000000  0.20791600  1
  O  O0  1  0.96870000  0.25000000  0.93707900  1
  O  O1  1  0.03178700  0.75000000  0.06324500  1
loop_
_geom_bond_atom_site_label_1
_geom_bond_atom_site_label_2
_geom_bond_distance
_geom_bond_site_symmetry_2
Au0 C0 1.895968 1_555
Au0 Cl1 2.243178 1_555
Au1 C1 1.891776 1_555
Au1 Cl0 2.240544 1_555
C0 O0 1.148821 1_555
C1 O1 1.149357 1_555
