# generated using pymatgen
data_AlGaSb2
_symmetry_space_group_name_H-M   'P 1'
_cell_length_a   7.54106441
_cell_length_b   7.54106441
_cell_length_c   7.54106452
_cell_angle_alpha   33.58688952
_cell_angle_beta   33.58688952
_cell_angle_gamma   33.58688732
_symmetry_Int_Tables_number   1
_chemical_formula_structural   AlGaSb2
_chemical_formula_sum   'Al1 Ga1 Sb2'
_cell_volume   116.90358551
_cell_formula_units_Z   1
loop_
 _symmetry_equiv_pos_site_id
 _symmetry_equiv_pos_as_xyz
  1  'x, y, z'
loop_
 _atom_site_type_symbol
 _atom_site_label
 _atom_site_symmetry_multiplicity
 _atom_site_fract_x
 _atom_site_fract_y
 _atom_site_fract_z
 _atom_site_occupancy
  Al  Al0  1  0.00017897  0.00017897  0.00017897  1
  Ga  Ga0  1  0.49995808  0.49995808  0.49995808  1
  Sb  Sb0  1  0.87466222  0.87466222  0.87466222  1
  Sb  Sb1  1  0.37520073  0.37520073  0.37520073  1
loop_
_geom_bond_atom_site_label_1
_geom_bond_atom_site_label_2
_geom_bond_distance
_geom_bond_site_symmetry_2
Al0 Sb1 2.668321 1_455
Al0 Sb1 2.668321 1_545
Al0 Sb1 2.668321 1_554
Al0 Sb0 2.676904 1_444
Ga0 Sb1 2.660708 1_555
Ga0 Sb0 2.666071 1_455
Ga0 Sb0 2.666071 1_545
Ga0 Sb0 2.666071 1_554
