# generated using pymatgen
data_Al(CuRe)2
_symmetry_space_group_name_H-M   'P 1'
_cell_length_a   5.91161900
_cell_length_b   5.91161900
_cell_length_c   3.91197000
_cell_angle_alpha   90.00000000
_cell_angle_beta   90.00000000
_cell_angle_gamma   90.00000000
_symmetry_Int_Tables_number   1
_chemical_formula_structural   Al(CuRe)2
_chemical_formula_sum   'Al2 Cu4 Re4'
_cell_volume   136.71255134
_cell_formula_units_Z   2
loop_
 _symmetry_equiv_pos_site_id
 _symmetry_equiv_pos_as_xyz
  1  'x, y, z'
loop_
 _atom_site_type_symbol
 _atom_site_label
 _atom_site_symmetry_multiplicity
 _atom_site_fract_x
 _atom_site_fract_y
 _atom_site_fract_z
 _atom_site_occupancy
  Al  Al0  1  0.00000000  0.00000000  0.00000000  1
  Al  Al1  1  0.50000000  0.50000000  0.00000000  1
  Cu  Cu0  1  0.86393200  0.36393200  0.00000000  1
  Cu  Cu1  1  0.36393200  0.13606800  0.00000000  1
  Cu  Cu2  1  0.63606800  0.86393200  0.00000000  1
  Cu  Cu3  1  0.13606800  0.63606800  0.00000000  1
  Re  Re0  1  0.66360000  0.16360000  0.50000000  1
  Re  Re1  1  0.16360000  0.33640000  0.50000000  1
  Re  Re2  1  0.83640000  0.66360000  0.50000000  1
  Re  Re3  1  0.33640000  0.83640000  0.50000000  1
loop_
_geom_bond_atom_site_label_1
_geom_bond_atom_site_label_2
_geom_bond_distance
_geom_bond_site_symmetry_2
Al0 Cu1 2.296883 1_555
Al0 Cu3 2.296883 1_545
Al0 Cu0 2.296883 1_455
Al0 Cu2 2.296883 1_445
Al0 Re0 2.952294 1_455
Al0 Re3 2.952294 1_544
Al0 Re2 2.952294 1_444
Al0 Re0 2.952294 1_454
Al0 Re2 2.952294 1_445
Al0 Re3 2.952294 1_545
Al0 Re1 2.952294 1_554
Al0 Re1 2.952294 1_555
Al1 Cu2 2.296883 1_555
Al1 Cu0 2.296883 1_555
Al1 Cu1 2.296883 1_555
Al1 Cu3 2.296883 1_555
Al1 Re3 2.952294 1_554
Al1 Re1 2.952294 1_554
Al1 Re3 2.952294 1_555
Al1 Re1 2.952294 1_555
Al1 Re0 2.952294 1_554
Al1 Re2 2.952294 1_555
Al1 Re0 2.952294 1_555
Al1 Re2 2.952294 1_554
Cu0 Cu3 2.275136 1_655
Cu0 Re0 2.575062 1_554
Cu0 Re0 2.575062 1_555
Cu0 Re2 2.643986 1_555
Cu0 Re2 2.643986 1_554
Cu0 Re1 2.643986 1_655
Cu0 Re1 2.643986 1_654
Cu1 Cu2 2.275136 1_545
Cu1 Re1 2.575062 1_554
Cu1 Re1 2.575062 1_555
Cu1 Re3 2.643986 1_545
Cu1 Re3 2.643986 1_544
Cu1 Re0 2.643986 1_555
Cu1 Re0 2.643986 1_554
Cu2 Re2 2.575062 1_554
Cu2 Re2 2.575062 1_555
Cu2 Re3 2.643986 1_554
Cu2 Re3 2.643986 1_555
Cu2 Re0 2.643986 1_564
Cu2 Re0 2.643986 1_565
Cu3 Re3 2.575062 1_555
Cu3 Re3 2.575062 1_554
Cu3 Re1 2.643986 1_554
Cu3 Re2 2.643986 1_455
Cu3 Re2 2.643986 1_454
Cu3 Re1 2.643986 1_555
Re0 Re3 2.735487 1_545
Re0 Re2 3.127352 1_545
Re0 Re1 3.127352 1_655
Re0 Re2 3.127352 1_555
Re0 Re1 3.127352 1_555
Re1 Re2 2.735487 1_455
Re1 Re3 3.127352 1_555
Re1 Re3 3.127352 1_545
Re2 Re3 3.127352 1_555
Re2 Re3 3.127352 1_655
