# generated using pymatgen
data_Sm6Ta4Al43
_symmetry_space_group_name_H-M   'P 1'
_cell_length_a   11.08063728
_cell_length_b   11.08063792
_cell_length_c   17.88903732
_cell_angle_alpha   90.00001840
_cell_angle_beta   90.00001813
_cell_angle_gamma   120.00012970
_symmetry_Int_Tables_number   1
_chemical_formula_structural   Sm6Ta4Al43
_chemical_formula_sum   'Sm12 Ta8 Al86'
_cell_volume   1902.15777517
_cell_formula_units_Z   2
loop_
 _symmetry_equiv_pos_site_id
 _symmetry_equiv_pos_as_xyz
  1  'x, y, z'
loop_
 _atom_site_type_symbol
 _atom_site_label
 _atom_site_symmetry_multiplicity
 _atom_site_fract_x
 _atom_site_fract_y
 _atom_site_fract_z
 _atom_site_occupancy
  Sm  Sm0  1  0.53038133  -0.00000002  0.59601767  1
  Sm  Sm1  1  0.46961769  -0.00000007  0.40397906  1
  Sm  Sm2  1  -0.00000017  0.53038141  0.59601801  1
  Sm  Sm3  1  0.46961932  0.00000024  0.09600727  1
  Sm  Sm4  1  -0.00000020  0.53037819  0.90399437  1
  Sm  Sm5  1  0.00000027  0.46961710  0.40397893  1
  Sm  Sm6  1  0.53037830  -0.00000015  0.90399488  1
  Sm  Sm7  1  0.00000051  0.46961865  0.09600753  1
  Sm  Sm8  1  0.46961850  0.46961856  0.59601819  1
  Sm  Sm9  1  0.53038217  0.53038181  0.40397914  1
  Sm  Sm10  1  0.53038052  0.53038044  0.09600789  1
  Sm  Sm11  1  0.46962224  0.46962256  0.90399423  1
  Ta  Ta0  1  0.00000003  -0.00000038  0.50000077  1
  Ta  Ta1  1  0.00000001  -0.00000027  -0.00000177  1
  Ta  Ta2  1  0.72726381  0.00000063  0.75000557  1
  Ta  Ta3  1  0.27273124  0.00000012  0.24999517  1
  Ta  Ta4  1  0.00000025  0.72726416  0.75000552  1
  Ta  Ta5  1  0.00000170  0.27273191  0.24999314  1
  Ta  Ta6  1  0.27273685  0.27273699  0.75000572  1
  Ta  Ta7  1  0.72726977  0.72727048  0.24999498  1
  Al  Al0  1  0.15340752  0.59773250  0.75000082  1
  Al  Al1  1  0.84659756  0.40227291  0.24999812  1
  Al  Al2  1  0.40227273  0.55567629  0.75000134  1
  Al  Al3  1  0.59772660  0.15340304  0.75000130  1
  Al  Al4  1  0.59772742  0.44432558  0.24999925  1
  Al  Al5  1  0.40227382  0.84659721  0.24999803  1
  Al  Al6  1  0.44432440  0.84659755  0.75000146  1
  Al  Al7  1  0.55567584  0.40227274  0.75000130  1
  Al  Al8  1  0.55567602  0.15340232  0.24999781  1
  Al  Al9  1  0.44432525  0.59772632  0.24999925  1
  Al  Al10  1  0.84659269  0.44432505  0.75000075  1
  Al  Al11  1  0.15340700  0.55567332  0.24999839  1
  Al  Al12  1  0.15823373  0.99999946  0.11558775  1
  Al  Al13  1  0.84174978  0.00000037  0.88441745  1
  Al  Al14  1  -0.00000069  0.15823194  0.11558841  1
  Al  Al15  1  0.84175989  -0.00000008  0.61559289  1
  Al  Al16  1  -0.00000147  0.15822322  0.38440103  1
  Al  Al17  1  0.00000001  0.84174871  0.88441772  1
  Al  Al18  1  0.15822415  0.99999818  0.38440039  1
  Al  Al19  1  0.00000002  0.84175906  0.61559247  1
  Al  Al20  1  0.84176707  0.84176698  0.11558810  1
  Al  Al21  1  0.15825067  0.15825084  0.88441732  1
  Al  Al22  1  0.15823934  0.15823954  0.61559326  1
  Al  Al23  1  0.84177672  0.84177581  0.38440004  1
  Al  Al24  1  0.24744745  0.49489015  0.49999684  1
  Al  Al25  1  0.75255607  0.50511178  0.49999543  1
  Al  Al26  1  0.50510950  0.75255267  0.49999636  1
  Al  Al27  1  0.75255447  0.50510836  0.00000414  1
  Al  Al28  1  0.49488628  0.24745011  0.00000445  1
  Al  Al29  1  0.49489015  0.24744741  0.49999672  1
  Al  Al30  1  0.24745006  0.49488625  0.00000442  1
  Al  Al31  1  0.50510835  0.75255438  0.00000430  1
  Al  Al32  1  0.24744335  0.75255105  0.49999487  1
  Al  Al33  1  0.75255190  0.24744632  0.49999567  1
  Al  Al34  1  0.75255264  0.24744439  0.00000407  1
  Al  Al35  1  0.24744431  0.75255239  0.00000383  1
  Al  Al36  1  0.14740592  0.00000074  0.75000128  1
  Al  Al37  1  0.85259558  0.00000321  0.24999881  1
  Al  Al38  1  0.00000036  0.14740603  0.75000135  1
  Al  Al39  1  0.00000012  0.85259381  0.24999897  1
  Al  Al40  1  0.85259542  0.85259544  0.75000076  1
  Al  Al41  1  0.14740247  0.14741093  0.24999738  1
  Al  Al42  1  0.33333362  0.66666686  0.62530378  1
  Al  Al43  1  0.66666911  0.33333144  0.37469189  1
  Al  Al44  1  0.66666562  0.33333275  0.12530739  1
  Al  Al45  1  0.66666568  0.33333277  0.87469735  1
  Al  Al46  1  0.33333433  0.66666636  0.87469715  1
  Al  Al47  1  0.33333312  0.66666552  0.12530732  1
  Al  Al48  1  0.33333135  0.66666865  0.37469214  1
  Al  Al49  1  0.66666629  0.33333315  0.62530369  1
  Al  Al50  1  0.25306421  0.00000023  0.52973483  1
  Al  Al51  1  0.74693785  -0.00000070  0.47026158  1
  Al  Al52  1  -0.00000001  0.25306356  0.52973483  1
  Al  Al53  1  0.74693683  -0.00000076  0.02973873  1
  Al  Al54  1  -0.00000091  0.25306348  0.97026310  1
  Al  Al55  1  -0.00000030  0.74693773  0.47026149  1
  Al  Al56  1  0.25306400  -0.00000069  0.97026273  1
  Al  Al57  1  -0.00000097  0.74693628  0.02973873  1
  Al  Al58  1  0.74693619  0.74693634  0.52973463  1
  Al  Al59  1  0.25306082  0.25306088  0.47026210  1
  Al  Al60  1  0.25306009  0.25306032  0.02973945  1
  Al  Al61  1  0.74693501  0.74693540  0.97026317  1
  Al  Al62  1  0.15814616  0.39409818  0.66371327  1
  Al  Al63  1  0.84185121  0.60590283  0.33628466  1
  Al  Al64  1  0.60590231  0.76404897  0.66371251  1
  Al  Al65  1  0.84185408  0.60589920  0.16371714  1
  Al  Al66  1  0.39410714  0.15815532  0.83628873  1
  Al  Al67  1  0.39409699  0.23594788  0.33628559  1
  Al  Al68  1  0.15815524  0.39410825  0.83628792  1
  Al  Al69  1  0.60589946  0.84185437  0.16371673  1
  Al  Al70  1  0.23595182  0.84185496  0.66371192  1
  Al  Al71  1  0.39410077  0.23595529  0.16371691  1
  Al  Al72  1  0.76404778  0.60589345  0.83628877  1
  Al  Al73  1  0.76404944  0.15815064  0.33628510  1
  Al  Al74  1  0.60589896  0.76404526  0.83628566  1
  Al  Al75  1  0.23595456  0.39409930  0.16371694  1
  Al  Al76  1  0.60590217  0.84185018  0.33628579  1
  Al  Al77  1  0.39409743  0.15814633  0.66371272  1
  Al  Al78  1  0.76404513  0.15814529  0.16371708  1
  Al  Al79  1  0.23594859  0.39409515  0.33628568  1
  Al  Al80  1  0.23595247  0.84184574  0.83628894  1
  Al  Al81  1  0.76404801  0.60590297  0.66371206  1
  Al  Al82  1  0.84184518  0.23595326  0.83628784  1
  Al  Al83  1  0.15814606  0.76404389  0.16371775  1
  Al  Al84  1  0.15815058  0.76404899  0.33628363  1
  Al  Al85  1  0.84185395  0.23595206  0.66371300  1
loop_
_geom_bond_atom_site_label_1
_geom_bond_atom_site_label_2
_geom_bond_distance
_geom_bond_site_symmetry_2
Sm0 Sm1 3.500744 1_555
Sm0 Ta2 3.513920 1_555
Sm1 Ta3 3.513894 1_555
Sm2 Sm5 3.500754 1_555
Sm2 Ta4 3.513917 1_555
Sm3 Sm6 3.500274 1_554
Sm3 Ta3 3.513961 1_555
Sm4 Sm7 3.500289 1_556
Sm4 Ta4 3.513959 1_555
Sm5 Ta5 3.513916 1_555
Sm6 Ta2 3.513961 1_555
Sm7 Ta5 3.513925 1_555
Sm8 Sm9 3.500752 1_555
Sm8 Ta6 3.513910 1_555
Sm9 Ta7 3.513908 1_555
Sm10 Sm11 3.500294 1_554
Sm10 Ta7 3.513957 1_555
Sm11 Ta6 3.513948 1_555
Al0 Ta4 2.718336 1_555
Al0 Al68 2.755899 1_555
Al0 Al62 2.755952 1_555
Al0 Al46 2.830449 1_555
Al0 Al42 2.830455 1_555
Al0 Al80 2.839347 1_555
Al0 Al70 2.839438 1_555
Al0 Al10 2.944226 1_455
Al0 Al6 3.017661 1_555
Al0 Al2 3.017699 1_555
Al0 Sm2 3.125013 1_555
Al0 Sm4 3.125183 1_555
Al1 Ta5 2.718392 1_655
Al1 Al65 2.755836 1_555
Al1 Al63 2.755938 1_555
Al1 Al44 2.830396 1_555
Al1 Al43 2.830417 1_555
Al1 Al78 2.839391 1_555
Al1 Al73 2.839411 1_555
Al1 Al11 2.944174 1_655
Al1 Al8 3.017716 1_555
Al1 Al4 3.017729 1_555
Al1 Sm5 3.124960 1_655
Al1 Sm7 3.125117 1_655
Al2 Ta6 2.718333 1_555
Al2 Al74 2.755860 1_555
Al2 Al64 2.755940 1_555
Al2 Al46 2.830450 1_555
Al2 Al42 2.830482 1_555
Al2 Al68 2.839361 1_555
Al2 Al62 2.839455 1_555
Al2 Al7 2.944154 1_555
Al2 Al6 3.017715 1_555
Al2 Sm8 3.125002 1_555
Al2 Sm11 3.125153 1_555
Al3 Ta2 2.718340 1_555
Al3 Al66 2.755880 1_555
Al3 Al77 2.755937 1_555
Al3 Al45 2.830459 1_555
Al3 Al49 2.830484 1_555
Al3 Al82 2.839369 1_555
Al3 Al85 2.839467 1_555
Al3 Al6 2.944137 1_545
Al3 Al7 3.017711 1_555
Al3 Sm0 3.125006 1_555
Al3 Sm6 3.125164 1_555
Al4 Ta7 2.718384 1_555
Al4 Al71 2.755849 1_555
Al4 Al67 2.755942 1_555
Al4 Al44 2.830411 1_555
Al4 Al43 2.830449 1_555
Al4 Al65 2.839392 1_555
Al4 Al63 2.839408 1_555
Al4 Al9 2.944118 1_555
Al4 Al8 3.017738 1_555
Al4 Sm9 3.124942 1_555
Al4 Sm10 3.125123 1_555
Al5 Ta3 2.718395 1_565
Al5 Al69 2.755830 1_555
Al5 Al76 2.755939 1_555
Al5 Al83 2.839384 1_555
Al5 Al84 2.839406 1_555
Al5 Al8 2.944133 1_565
Al5 Al9 3.017729 1_555
Al5 Sm1 3.124964 1_565
Al5 Sm3 3.125120 1_565
Al6 Ta2 2.718333 1_565
Al6 Al80 2.755884 1_555
Al6 Al70 2.755950 1_555
Al6 Al74 2.839419 1_555
Al6 Al64 2.839469 1_555
Al6 Sm0 3.125007 1_565
Al6 Sm6 3.125156 1_565
Al7 Ta6 2.718330 1_555
Al7 Al72 2.755881 1_555
Al7 Al81 2.755944 1_555
Al7 Al77 2.839460 1_555
Al7 Sm8 3.125000 1_555
Al7 Sm11 3.125155 1_555
Al8 Ta3 2.718382 1_555
Al8 Sm1 3.124967 1_555
Al8 Sm3 3.125110 1_555
Al9 Ta7 2.718379 1_555
Al9 Sm9 3.124942 1_555
Al9 Sm10 3.125121 1_555
Al10 Ta4 2.718333 1_655
Al10 Al82 2.755898 1_555
Al10 Al85 2.755953 1_555
Al10 Al45 2.830454 1_555
Al10 Al49 2.830455 1_555
Al10 Al72 2.839350 1_555
Al10 Al81 2.839439 1_555
Al10 Al7 3.017663 1_555
Al10 Al3 3.017700 1_555
Al10 Sm2 3.125011 1_655
Al10 Sm4 3.125179 1_655
Al11 Ta5 2.718353 1_555
Al11 Al83 2.755859 1_555
Al11 Al84 2.755931 1_555
Al11 Al47 2.830371 1_555
Al11 Al48 2.830401 1_555
Al11 Al75 2.839354 1_555
Al11 Al79 2.839405 1_555
Al11 Al9 3.017676 1_555
Al11 Al5 3.017716 1_555
Al11 Sm5 3.124974 1_555
Al11 Sm7 3.125134 1_555
Al12 Ta1 2.711071 1_565
Al12 Ta3 2.718609 1_565
Al12 Al71 2.752184 1_565
Al12 Al83 2.752198 1_555
Al12 Al56 2.804052 1_564
Al12 Al60 2.894658 1_565
Al12 Al57 2.894679 1_555
Al12 Al39 2.942745 1_555
Al12 Al41 2.942771 1_565
Al12 Al20 3.036846 1_455
Al12 Al14 3.036854 1_565
Al12 Sm3 3.468081 1_565
Al13 Ta1 2.711071 1_656
Al13 Ta2 2.718622 1_555
Al13 Al74 2.752110 1_545
Al13 Al82 2.752127 1_555
Al13 Al53 2.803916 1_556
Al13 Al54 2.894666 1_655
Al13 Al61 2.894685 1_545
Al13 Al38 2.942876 1_655
Al13 Al40 2.942883 1_545
Al13 Al21 3.037174 1_655
Al13 Al17 3.037190 1_645
Al13 Sm6 3.467921 1_555
Al14 Ta1 2.711071 1_555
Al14 Ta5 2.718575 1_555
Al14 Al75 2.752179 1_555
Al14 Al78 2.752181 1_455
Al14 Al54 2.804063 1_554
Al14 Al60 2.894660 1_555
Al14 Al53 2.894678 1_455
Al14 Al41 2.942672 1_555
Al14 Al37 2.942710 1_455
Al14 Al20 3.036830 1_445
Al14 Sm7 3.468092 1_555
Al15 Ta0 2.711154 1_655
Al15 Ta2 2.718689 1_555
Al15 Al64 2.752056 1_545
Al15 Al85 2.752072 1_555
Al15 Al51 2.804120 1_555
Al15 Al52 2.894777 1_655
Al15 Al58 2.894778 1_545
Al15 Al40 2.942717 1_545
Al15 Al38 2.942728 1_655
Al15 Al22 3.036969 1_655
Al15 Al19 3.036990 1_645
Al15 Sm0 3.467998 1_555
Al16 Ta0 2.711143 1_555
Al16 Ta5 2.718668 1_555
Al16 Al79 2.752103 1_555
Al16 Al73 2.752130 1_455
Al16 Al52 2.804236 1_555
Al16 Al51 2.894757 1_455
Al16 Al59 2.894775 1_555
Al16 Al37 2.942556 1_455
Al16 Al41 2.942569 1_555
Al16 Al23 3.036661 1_445
Al16 Al18 3.036698 1_545
Al16 Sm5 3.468162 1_555
Al17 Ta1 2.711071 1_566
Al17 Ta4 2.718620 1_555
Al17 Al72 2.752102 1_455
Al17 Al80 2.752109 1_555
Al17 Al57 2.803910 1_556
Al17 Al56 2.894668 1_565
Al17 Al61 2.894684 1_455
Al17 Al36 2.942887 1_565
Al17 Al40 2.942889 1_455
Al17 Al21 3.037187 1_565
Al17 Sm4 3.467911 1_555
Al18 Ta0 2.711156 1_565
Al18 Ta3 2.718621 1_565
Al18 Al67 2.752103 1_565
Al18 Al84 2.752130 1_555
Al18 Al50 2.804244 1_565
Al18 Al55 2.894761 1_555
Al18 Al59 2.894786 1_565
Al18 Al39 2.942562 1_555
Al18 Al41 2.942649 1_565
Al18 Al23 3.036661 1_455
Al18 Sm1 3.468160 1_565
Al19 Ta0 2.711150 1_565
Al19 Ta4 2.718688 1_555
Al19 Al81 2.752054 1_455
Al19 Al70 2.752055 1_555
Al19 Al55 2.804113 1_555
Al19 Al58 2.894778 1_455
Al19 Al50 2.894779 1_565
Al19 Al40 2.942726 1_455
Al19 Al36 2.942737 1_565
Al19 Al22 3.036979 1_565
Al19 Sm2 3.467986 1_555
Al20 Ta1 2.711068 1_665
Al20 Ta7 2.718599 1_555
Al20 Al69 2.752185 1_555
Al20 Al65 2.752188 1_555
Al20 Al61 2.804055 1_554
Al20 Al53 2.894680 1_565
Al20 Al57 2.894680 1_655
Al20 Al39 2.942740 1_655
Al20 Al37 2.942753 1_565
Al20 Sm10 3.468088 1_555
Al21 Ta1 2.711075 1_556
Al21 Ta6 2.718618 1_555
Al21 Al66 2.752111 1_555
Al21 Al68 2.752125 1_555
Al21 Al60 2.803916 1_556
Al21 Al54 2.894684 1_555
Al21 Al56 2.894685 1_555
Al21 Al36 2.942873 1_555
Al21 Al38 2.942873 1_555
Al21 Sm11 3.467918 1_555
Al22 Ta0 2.711150 1_555
Al22 Ta6 2.718689 1_555
Al22 Al77 2.752064 1_555
Al22 Al62 2.752073 1_555
Al22 Al59 2.804117 1_555
Al22 Al52 2.894781 1_555
Al22 Al50 2.894787 1_555
Al22 Al36 2.942717 1_555
Al22 Al38 2.942719 1_555
Al22 Sm8 3.467997 1_555
Al23 Ta0 2.711148 1_665
Al23 Ta7 2.718616 1_555
Al23 Al63 2.752100 1_555
Al23 Al76 2.752109 1_555
Al23 Al58 2.804251 1_555
Al23 Al55 2.894771 1_655
Al23 Al51 2.894782 1_565
Al23 Al39 2.942561 1_655
Al23 Al37 2.942586 1_565
Al23 Sm9 3.468172 1_555
Al24 Al59 2.762945 1_555
Al24 Al52 2.762964 1_555
Al24 Al48 2.782431 1_555
Al24 Al42 2.782452 1_555
Al24 Al26 2.855057 1_555
Al24 Al32 2.855070 1_555
Al24 Al79 3.114199 1_555
Al24 Al62 3.114289 1_555
Al24 Sm8 3.127110 1_555
Al24 Sm5 3.127112 1_555
Al24 Sm9 3.420661 1_555
Al24 Sm2 3.420735 1_555
Al25 Al55 2.762925 1_655
Al25 Al58 2.762945 1_555
Al25 Al43 2.782423 1_555
Al25 Al49 2.782483 1_555
Al25 Al33 2.855075 1_555
Al25 Al29 2.855088 1_555
Al25 Al63 3.114182 1_555
Al25 Al81 3.114287 1_555
Al25 Sm9 3.127078 1_555
Al25 Sm2 3.127139 1_655
Al25 Sm5 3.420680 1_655
Al25 Sm8 3.420728 1_555
Al26 Al58 2.762945 1_555
Al26 Al51 2.762957 1_565
Al26 Al48 2.782421 1_555
Al26 Al42 2.782455 1_555
Al26 Al32 2.855096 1_555
Al26 Al76 3.114186 1_555
Al26 Al64 3.114278 1_555
Al26 Sm9 3.127074 1_555
Al26 Sm0 3.127151 1_565
Al26 Sm8 3.420695 1_555
Al26 Sm1 3.420700 1_565
Al27 Al57 2.762942 1_655
Al27 Al61 2.762976 1_554
Al27 Al44 2.782394 1_555
Al27 Al45 2.782443 1_554
Al27 Al28 2.855067 1_555
Al27 Al34 2.855071 1_555
Al27 Al65 3.114225 1_555
Al27 Al72 3.114242 1_554
Al27 Sm10 3.126967 1_555
Al27 Sm4 3.127028 1_654
Al27 Sm7 3.420550 1_655
Al27 Sm11 3.420589 1_554
Al28 Al60 2.762894 1_555
Al28 Al56 2.762972 1_554
Al28 Al44 2.782409 1_555
Al28 Al45 2.782471 1_554
Al28 Al34 2.855139 1_555
Al28 Al71 3.114192 1_555
Al28 Al66 3.114237 1_554
Al28 Sm11 3.126974 1_554
Al28 Sm3 3.127013 1_555
Al28 Sm10 3.420481 1_555
Al28 Sm6 3.420659 1_554
Al29 Al59 2.762945 1_555
Al29 Al50 2.762959 1_555
Al29 Al43 2.782435 1_555
Al29 Al49 2.782449 1_555
Al29 Al33 2.855062 1_555
Al29 Al67 3.114190 1_555
Al29 Al77 3.114283 1_555
Al29 Sm8 3.127113 1_555
Al29 Sm1 3.127114 1_555
Al29 Sm9 3.420656 1_555
Al29 Sm0 3.420731 1_555
Al30 Al60 2.762891 1_555
Al30 Al54 2.762974 1_554
Al30 Al47 2.782408 1_555
Al30 Al46 2.782477 1_554
Al30 Al31 2.855067 1_555
Al30 Al35 2.855137 1_555
Al30 Al75 3.114197 1_555
Al30 Al68 3.114248 1_554
Al30 Sm11 3.126969 1_554
Al30 Sm7 3.127010 1_555
Al30 Sm10 3.420482 1_555
Al30 Sm4 3.420663 1_554
Al31 Al53 2.762946 1_565
Al31 Al61 2.762970 1_554
Al31 Al47 2.782388 1_555
Al31 Al46 2.782439 1_554
Al31 Al35 2.855071 1_555
Al31 Al69 3.114217 1_555
Al31 Al74 3.114321 1_554
Al31 Sm10 3.126966 1_555
Al31 Sm6 3.127026 1_564
Al31 Sm3 3.420541 1_565
Al31 Sm11 3.420585 1_554
Al32 Al55 2.762951 1_555
Al32 Al50 2.762994 1_565
Al32 Al48 2.782358 1_555
Al32 Al42 2.782470 1_555
Al32 Al84 3.114186 1_555
Al32 Al70 3.114311 1_555
Al32 Sm1 3.127099 1_565
Al32 Sm2 3.127124 1_555
Al32 Sm5 3.420636 1_555
Al32 Sm0 3.420742 1_565
Al33 Al51 2.762986 1_555
Al33 Al52 2.762998 1_655
Al33 Al43 2.782359 1_555
Al33 Al49 2.782446 1_555
Al33 Al73 3.114184 1_555
Al33 Al85 3.114315 1_555
Al33 Sm5 3.127091 1_655
Al33 Sm0 3.127131 1_555
Al33 Sm1 3.420656 1_555
Al33 Sm2 3.420718 1_655
Al34 Al53 2.762959 1_555
Al34 Al54 2.762977 1_654
Al34 Al44 2.782395 1_555
Al34 Al45 2.782443 1_554
Al34 Al78 3.114228 1_555
Al34 Al82 3.114254 1_554
Al34 Sm7 3.126970 1_655
Al34 Sm6 3.127008 1_554
Al34 Sm3 3.420523 1_555
Al34 Sm4 3.420596 1_654
Al35 Al57 2.762959 1_555
Al35 Al56 2.762980 1_564
Al35 Al47 2.782399 1_555
Al35 Al46 2.782447 1_554
Al35 Al80 3.114236 1_554
Al35 Al83 3.114238 1_555
Al35 Sm3 3.126972 1_565
Al35 Sm4 3.127010 1_554
Al35 Sm7 3.420529 1_555
Al35 Sm6 3.420591 1_564
Al36 Ta6 2.620061 1_555
Al36 Ta4 2.620064 1_545
Al36 Al40 2.829031 1_445
Al36 Al38 2.829040 1_555
Al36 Al77 2.852271 1_555
Al36 Al70 2.852284 1_545
Al36 Al66 2.852342 1_555
Al36 Al80 2.852353 1_545
Al37 Ta5 2.619990 1_655
Al37 Ta7 2.620029 1_545
Al37 Al41 2.828997 1_655
Al37 Al39 2.829070 1_645
Al37 Al78 2.852211 1_555
Al37 Al69 2.852245 1_545
Al37 Al73 2.852270 1_555
Al37 Al76 2.852281 1_545
Al38 Ta2 2.620063 1_455
Al38 Ta6 2.620063 1_555
Al38 Al40 2.829032 1_445
Al38 Al62 2.852271 1_555
Al38 Al85 2.852281 1_455
Al38 Al68 2.852342 1_555
Al38 Al82 2.852348 1_455
Al39 Ta7 2.620007 1_455
Al39 Ta3 2.620013 1_565
Al39 Al41 2.829095 1_565
Al39 Al65 2.852227 1_455
Al39 Al83 2.852236 1_555
Al39 Al63 2.852244 1_455
Al39 Al84 2.852271 1_555
Al40 Ta4 2.620064 1_655
Al40 Ta2 2.620071 1_565
Al40 Al74 2.852274 1_555
Al40 Al81 2.852279 1_555
Al40 Al64 2.852281 1_555
Al40 Al72 2.852356 1_555
Al41 Ta5 2.619928 1_555
Al41 Ta3 2.620100 1_555
Al41 Al75 2.852157 1_555
Al41 Al79 2.852205 1_555
Al41 Al71 2.852256 1_555
Al41 Al67 2.852307 1_555
Al42 Al64 2.738478 1_555
Al42 Al62 2.738482 1_555
Al42 Al70 2.738492 1_555
Al42 Al6 2.830486 1_555
Al42 Sm0 3.258753 1_565
Al42 Sm8 3.258759 1_555
Al42 Sm2 3.258759 1_555
Al43 Al73 2.738401 1_555
Al43 Al63 2.738485 1_555
Al43 Al67 2.738499 1_555
Al43 Al8 2.830429 1_555
Al43 Sm5 3.258736 1_655
Al43 Sm1 3.258746 1_555
Al43 Sm9 3.258802 1_555
Al44 Al71 2.738452 1_555
Al44 Al65 2.738466 1_555
Al44 Al78 2.738474 1_555
Al44 Al8 2.830383 1_555
Al44 Sm3 3.258785 1_555
Al44 Sm10 3.258795 1_555
Al44 Sm7 3.258811 1_655
Al45 Al66 2.738376 1_555
Al45 Al82 2.738393 1_555
Al45 Al72 2.738398 1_555
Al45 Al7 2.830460 1_555
Al45 Sm6 3.258783 1_555
Al45 Sm11 3.258786 1_555
Al45 Sm4 3.258789 1_655
Al46 Al68 2.738378 1_555
Al46 Al80 2.738406 1_555
Al46 Al74 2.738456 1_555
Al46 Al6 2.830462 1_555
Al46 Sm11 3.258774 1_555
Al46 Sm6 3.258784 1_565
Al46 Sm4 3.258797 1_555
Al47 Al69 2.738464 1_555
Al47 Al83 2.738464 1_555
Al47 Al75 2.738464 1_555
Al47 Al5 2.830394 1_555
Al47 Al9 2.830413 1_555
Al47 Sm7 3.258786 1_555
Al47 Sm10 3.258791 1_555
Al47 Sm3 3.258809 1_565
Al48 Al84 2.738408 1_555
Al48 Al76 2.738475 1_555
Al48 Al79 2.738515 1_555
Al48 Al5 2.830422 1_555
Al48 Al9 2.830454 1_555
Al48 Sm1 3.258736 1_565
Al48 Sm5 3.258741 1_555
Al48 Sm9 3.258805 1_555
Al49 Al77 2.738480 1_555
Al49 Al85 2.738487 1_555
Al49 Al81 2.738489 1_555
Al49 Al7 2.830484 1_555
Al49 Sm0 3.258754 1_555
Al49 Sm2 3.258756 1_655
Al49 Sm8 3.258758 1_555
Al50 Ta0 2.854113 1_555
Al50 Al70 2.918679 1_545
Al50 Al77 2.918692 1_555
Al50 Al59 2.999140 1_555
Al50 Al55 2.999149 1_545
Al50 Sm1 3.289191 1_555
Al50 Sm0 3.293689 1_555
Al51 Ta0 2.854109 1_655
Al51 Al76 2.918678 1_545
Al51 Al73 2.918710 1_555
Al51 Al58 2.999140 1_545
Al51 Al52 2.999146 1_655
Al51 Sm0 3.289221 1_555
Al51 Sm1 3.293720 1_555
Al52 Ta0 2.854114 1_555
Al52 Al85 2.918702 1_455
Al52 Al62 2.918704 1_555
Al52 Al59 2.999138 1_555
Al52 Sm5 3.289191 1_555
Al52 Sm2 3.293698 1_555
Al53 Ta1 2.854124 1_655
Al53 Al69 2.918701 1_545
Al53 Al78 2.918712 1_555
Al53 Al54 2.999163 1_654
Al53 Al61 2.999163 1_544
Al53 Sm6 3.289086 1_554
Al53 Sm3 3.293605 1_555
Al54 Ta1 2.854120 1_556
Al54 Al82 2.918711 1_455
Al54 Al68 2.918721 1_555
Al54 Al60 2.999164 1_556
Al54 Sm7 3.289058 1_556
Al54 Sm4 3.293569 1_555
Al55 Ta0 2.854107 1_565
Al55 Al63 2.918689 1_455
Al55 Al84 2.918728 1_555
Al55 Al58 2.999147 1_455
Al55 Sm2 3.289223 1_555
Al55 Sm5 3.293725 1_555
Al56 Ta1 2.854121 1_556
Al56 Al80 2.918684 1_545
Al56 Al66 2.918699 1_555
Al56 Al60 2.999171 1_556
Al56 Al57 2.999173 1_546
Al56 Sm3 3.289063 1_556
Al56 Sm6 3.293560 1_555
Al57 Ta1 2.854125 1_565
Al57 Al65 2.918707 1_455
Al57 Al83 2.918730 1_555
Al57 Al61 2.999170 1_454
Al57 Sm4 3.289090 1_554
Al57 Sm7 3.293611 1_555
Al58 Ta0 2.854104 1_665
Al58 Al81 2.918685 1_555
Al58 Al64 2.918698 1_555
Al58 Sm9 3.289188 1_555
Al58 Sm8 3.293694 1_555
Al59 Ta0 2.854092 1_555
Al59 Al79 2.918677 1_555
Al59 Al67 2.918694 1_555
Al59 Sm8 3.289223 1_555
Al59 Sm9 3.293725 1_555
Al60 Ta1 2.854092 1_555
Al60 Al75 2.918697 1_555
Al60 Al71 2.918706 1_555
Al60 Sm11 3.289128 1_554
Al60 Sm10 3.293622 1_555
Al61 Ta1 2.854119 1_666
Al61 Al74 2.918695 1_555
Al61 Al72 2.918697 1_555
Al61 Sm10 3.289062 1_556
Al61 Sm11 3.293548 1_555
Al62 Ta6 2.740636 1_555
Al62 Al85 3.035172 1_455
Al62 Sm2 3.076358 1_555
Al62 Al68 3.087194 1_555
Al62 Sm8 3.345178 1_555
Al63 Ta7 2.740587 1_555
Al63 Al84 3.035241 1_655
Al63 Sm5 3.076397 1_655
Al63 Al65 3.087067 1_555
Al63 Sm9 3.345139 1_555
Al64 Ta2 2.740636 1_565
Al64 Al81 3.035173 1_555
Al64 Sm8 3.076354 1_555
Al64 Al74 3.087168 1_555
Al64 Sm0 3.345174 1_565
Al65 Ta7 2.740520 1_555
Al65 Al83 3.035170 1_655
Al65 Sm7 3.076437 1_655
Al65 Sm10 3.345286 1_555
Al66 Ta6 2.740543 1_555
Al66 Al7 2.839370 1_555
Al66 Al80 3.035339 1_545
Al66 Sm6 3.076414 1_555
Al66 Al77 3.087219 1_555
Al66 Sm11 3.345209 1_555
Al67 Ta3 2.740580 1_555
Al67 Al8 2.839446 1_555
Al67 Al79 3.035211 1_555
Al67 Sm9 3.076380 1_555
Al67 Al71 3.087088 1_555
Al67 Sm1 3.345133 1_555
Al68 Ta6 2.740542 1_555
Al68 Al82 3.035343 1_455
Al68 Sm4 3.076405 1_555
Al68 Sm11 3.345214 1_555
Al69 Ta7 2.740513 1_555
Al69 Al9 2.839407 1_555
Al69 Al78 3.035160 1_565
Al69 Sm3 3.076428 1_565
Al69 Al76 3.087094 1_555
Al69 Sm10 3.345287 1_555
Al70 Ta4 2.740642 1_555
Al70 Al77 3.035164 1_565
Al70 Sm0 3.076345 1_565
Al70 Al80 3.087237 1_555
Al70 Sm2 3.345175 1_555
Al71 Ta3 2.740517 1_555
Al71 Al8 2.839398 1_555
Al71 Al75 3.035159 1_555
Al71 Sm10 3.076413 1_555
Al71 Sm3 3.345293 1_555
Al72 Ta4 2.740546 1_655
Al72 Al74 3.035259 1_555
Al72 Sm11 3.076395 1_555
Al72 Al81 3.087231 1_555
Al72 Sm4 3.345213 1_655
Al73 Ta5 2.740633 1_655
Al73 Al8 2.755910 1_555
Al73 Al76 3.035251 1_545
Al73 Sm1 3.076365 1_555
Al73 Al78 3.087076 1_555
Al73 Sm5 3.345121 1_655
Al74 Ta2 2.740537 1_565
Al74 Sm11 3.076389 1_555
Al74 Sm6 3.345301 1_565
Al75 Ta5 2.740478 1_555
Al75 Al9 2.755852 1_555
Al75 Sm10 3.076419 1_555
Al75 Al79 3.087089 1_555
Al75 Sm7 3.345287 1_555
Al76 Ta7 2.740585 1_555
Al76 Al9 2.839419 1_555
Al76 Sm1 3.076386 1_565
Al76 Sm9 3.345129 1_555
Al77 Ta6 2.740636 1_555
Al77 Sm0 3.076363 1_555
Al77 Sm8 3.345172 1_555
Al78 Ta5 2.740505 1_655
Al78 Al8 2.755829 1_555
Al78 Sm3 3.076422 1_555
Al78 Sm7 3.345286 1_655
Al79 Ta5 2.740594 1_555
Al79 Al9 2.755941 1_555
Al79 Sm9 3.076375 1_555
Al79 Sm5 3.345144 1_555
Al80 Ta4 2.740545 1_555
Al80 Sm6 3.076399 1_565
Al80 Sm4 3.345210 1_555
Al81 Ta4 2.740645 1_655
Al81 Sm8 3.076342 1_555
Al81 Sm2 3.345181 1_655
Al82 Ta2 2.740537 1_555
Al82 Sm4 3.076396 1_655
Al82 Al85 3.087198 1_555
Al82 Sm6 3.345218 1_555
Al83 Ta3 2.740516 1_565
Al83 Sm7 3.076420 1_555
Al83 Al84 3.087037 1_555
Al83 Sm3 3.345294 1_565
Al84 Ta3 2.740589 1_565
Al84 Sm5 3.076376 1_555
Al84 Sm1 3.345136 1_565
Al85 Ta2 2.740631 1_555
Al85 Sm2 3.076350 1_655
Al85 Sm0 3.345178 1_555
