# generated using pymatgen
data_YbGe2Pt
_symmetry_space_group_name_H-M   'P 1'
_cell_length_a   4.40156300
_cell_length_b   8.90755300
_cell_length_c   9.48810491
_cell_angle_alpha   62.00423643
_cell_angle_beta   76.58799664
_cell_angle_gamma   90.00000000
_symmetry_Int_Tables_number   1
_chemical_formula_structural   YbGe2Pt
_chemical_formula_sum   'Yb4 Ge8 Pt4'
_cell_volume   316.93492465
_cell_formula_units_Z   4
loop_
 _symmetry_equiv_pos_site_id
 _symmetry_equiv_pos_as_xyz
  1  'x, y, z'
loop_
 _atom_site_type_symbol
 _atom_site_label
 _atom_site_symmetry_multiplicity
 _atom_site_fract_x
 _atom_site_fract_y
 _atom_site_fract_z
 _atom_site_occupancy
  Yb  Yb0  1  0.20298700  0.20297400  0.59405100  1
  Yb  Yb1  1  0.79703900  0.79702600  0.40594900  1
  Yb  Yb2  1  0.00159000  0.24220900  0.00000000  1
  Yb  Yb3  1  0.00159000  0.75779100  0.00000000  1
  Ge  Ge0  1  0.57489400  0.07494100  0.85011800  1
  Ge  Ge1  1  0.42501200  0.92505900  0.14988200  1
  Ge  Ge2  1  0.19877200  0.54894500  0.60440800  1
  Ge  Ge3  1  0.80318000  0.45105500  0.39559200  1
  Ge  Ge4  1  0.80318000  0.15335400  0.39559200  1
  Ge  Ge5  1  0.19877200  0.84664600  0.60440800  1
  Ge  Ge6  1  0.44148600  0.42272400  0.15455200  1
  Ge  Ge7  1  0.59603800  0.57727600  0.84544800  1
  Pt  Pt0  1  0.35136800  0.60382100  0.29639300  1
  Pt  Pt1  1  0.64776100  0.39617900  0.70360700  1
  Pt  Pt2  1  0.64776100  0.90021400  0.70360700  1
  Pt  Pt3  1  0.35136800  0.09978600  0.29639300  1
loop_
_geom_bond_atom_site_label_1
_geom_bond_atom_site_label_2
_geom_bond_distance
_geom_bond_site_symmetry_2
Ge0 Ge1 2.423172 1_546
Ge0 Pt2 2.506386 1_545
Ge0 Pt1 2.506386 1_555
Ge0 Yb0 3.021084 1_555
Ge0 Yb0 3.021466 1_655
Ge0 Yb2 3.306732 1_556
Ge0 Yb3 3.306732 1_546
Ge0 Yb2 3.316309 1_656
Ge0 Yb3 3.316309 1_646
Ge1 Pt3 2.506386 1_565
Ge1 Pt0 2.506386 1_555
Ge1 Yb1 3.021081 1_455
Ge1 Yb1 3.021469 1_555
Ge1 Yb3 3.306732 1_555
Ge1 Yb2 3.306732 1_565
Ge1 Yb3 3.316309 1_655
Ge1 Yb2 3.316309 1_665
Ge2 Pt1 2.510705 1_555
Ge2 Pt1 2.521573 1_455
Ge2 Pt0 2.641820 1_555
Ge2 Ge5 2.651787 1_555
Ge2 Yb1 3.025969 1_555
Ge2 Yb1 3.032125 1_455
Ge2 Yb0 3.129006 1_555
Ge2 Yb2 3.341801 1_556
Ge3 Pt0 2.510705 1_655
Ge3 Pt0 2.521574 1_555
Ge3 Pt1 2.641820 1_555
Ge3 Ge4 2.651787 1_555
Ge3 Yb0 3.025966 1_655
Ge3 Yb0 3.032128 1_555
Ge3 Yb1 3.129006 1_555
Ge3 Yb3 3.341801 1_655
Ge4 Pt3 2.510708 1_655
Ge4 Pt3 2.521577 1_555
Ge4 Pt2 2.641823 1_545
Ge4 Yb0 3.025958 1_655
Ge4 Yb0 3.032120 1_555
Ge4 Yb1 3.129006 1_545
Ge4 Yb2 3.341803 1_655
Ge5 Pt2 2.510708 1_555
Ge5 Pt2 2.521577 1_455
Ge5 Pt3 2.641823 1_565
Ge5 Yb1 3.025961 1_555
Ge5 Yb1 3.032117 1_455
Ge5 Yb0 3.129006 1_565
Ge5 Yb3 3.341803 1_556
Ge6 Pt0 2.522140 1_555
Ge6 Pt3 2.522140 1_555
Ge6 Yb2 3.369012 1_655
Ge6 Yb3 3.369012 1_655
Ge6 Yb2 3.466355 1_555
Ge6 Yb3 3.466355 1_555
Ge6 Yb0 3.553692 1_555
Ge7 Pt1 2.522140 1_555
Ge7 Pt2 2.522140 1_555
Ge7 Yb3 3.369012 1_656
Ge7 Yb2 3.369012 1_656
Ge7 Yb3 3.466354 1_556
Ge7 Yb2 3.466355 1_556
Ge7 Yb1 3.553692 1_555
Pt0 Yb1 3.240120 1_455
Pt0 Yb1 3.242804 1_555
Pt0 Yb3 3.247671 1_555
Pt0 Yb3 3.259731 1_655
Pt0 Yb0 3.290739 1_555
Pt1 Yb0 3.240123 1_555
Pt1 Yb0 3.242801 1_655
Pt1 Yb2 3.247671 1_556
Pt1 Yb2 3.259731 1_656
Pt1 Yb1 3.290739 1_555
Pt2 Yb0 3.240117 1_565
Pt2 Yb0 3.242795 1_665
Pt2 Yb3 3.247671 1_556
Pt2 Yb3 3.259731 1_656
Pt2 Yb1 3.290733 1_555
Pt3 Yb1 3.240114 1_445
Pt3 Yb1 3.242798 1_545
Pt3 Yb2 3.247671 1_555
Pt3 Yb2 3.259731 1_655
Pt3 Yb0 3.290733 1_555
