# generated using pymatgen
data_MgAl4Tl4O12
_symmetry_space_group_name_H-M   'P 1'
_cell_length_a   5.68421842
_cell_length_b   5.98208433
_cell_length_c   7.89492300
_cell_angle_alpha   90.00000000
_cell_angle_beta   90.00000000
_cell_angle_gamma   71.85720044
_symmetry_Int_Tables_number   1
_chemical_formula_structural   MgAl4Tl4O12
_chemical_formula_sum   'Mg1 Al4 Tl4 O12'
_cell_volume   255.10814627
_cell_formula_units_Z   1
loop_
 _symmetry_equiv_pos_site_id
 _symmetry_equiv_pos_as_xyz
  1  'x, y, z'
loop_
 _atom_site_type_symbol
 _atom_site_label
 _atom_site_symmetry_multiplicity
 _atom_site_fract_x
 _atom_site_fract_y
 _atom_site_fract_z
 _atom_site_occupancy
  Mg  Mg0  1  0.80288100  0.77826700  0.25000000  1
  Al  Al0  1  0.97571000  0.47727400  0.96935300  1
  Al  Al1  1  0.97571000  0.47727400  0.53064700  1
  Al  Al2  1  0.56783100  0.06448400  0.98570600  1
  Al  Al3  1  0.56783100  0.06448400  0.51429400  1
  Tl  Tl0  1  0.07025800  0.98308400  0.75000000  1
  Tl  Tl1  1  0.49989500  0.49367300  0.75000000  1
  Tl  Tl2  1  0.44853400  0.46810000  0.25000000  1
  Tl  Tl3  1  0.12546000  0.03327200  0.25000000  1
  O  O0  1  0.05521300  0.46385100  0.25000000  1
  O  O1  1  0.23215400  0.17639100  0.54260300  1
  O  O2  1  0.23215400  0.17639100  0.95739700  1
  O  O3  1  0.20174800  0.65380500  0.93399200  1
  O  O4  1  0.20174800  0.65380500  0.56600800  1
  O  O5  1  0.51728100  0.07016400  0.25000000  1
  O  O6  1  0.64699400  0.07291300  0.75000000  1
  O  O7  1  0.70890700  0.30495700  0.03160200  1
  O  O8  1  0.70890700  0.30495700  0.46839800  1
  O  O9  1  0.72288200  0.75669000  0.01429900  1
  O  O10  1  0.72288200  0.75669000  0.48570100  1
  O  O11  1  0.89002000  0.44447500  0.75000000  1
loop_
_geom_bond_atom_site_label_1
_geom_bond_atom_site_label_2
_geom_bond_distance
_geom_bond_site_symmetry_2
Mg0 O9 1.929436 1_555
Mg0 O10 1.929436 1_555
Mg0 O0 1.978588 1_655
Mg0 O5 1.979679 1_565
Mg0 Tl3 2.726007 1_665
Al0 O11 1.826008 1_555
Al0 O9 1.867925 1_556
Al0 O3 1.920666 1_655
Al0 O2 1.933766 1_655
Al0 O7 2.139546 1_556
Al0 O0 2.257729 1_656
Al1 O11 1.826008 1_555
Al1 O10 1.867925 1_555
Al1 O4 1.920666 1_655
Al1 O1 1.933766 1_655
Al1 O8 2.139546 1_555
Al1 O0 2.257729 1_655
Al2 O9 1.790895 1_546
Al2 O2 1.828472 1_555
Al2 O7 1.887360 1_556
Al2 O6 1.918862 1_555
Al2 O5 2.105102 1_556
Al3 O10 1.790895 1_545
Al3 O1 1.828472 1_555
Al3 O8 1.887360 1_555
Al3 O6 1.918862 1_555
Al3 O5 2.105102 1_555
O0 Tl2 2.243767 1_555
O0 Tl3 2.480616 1_555
O1 Tl0 2.351134 1_545
O1 Tl3 2.600120 1_555
O2 Tl0 2.351134 1_545
O2 Tl3 2.600120 1_556
O3 Tl1 2.211055 1_555
O3 Tl0 2.373147 1_555
O4 Tl1 2.211055 1_555
O4 Tl0 2.373147 1_555
O5 Tl2 2.289126 1_555
O5 Tl3 2.305475 1_555
O6 Tl0 2.296101 1_645
O6 Tl1 2.392457 1_555
O7 Tl2 2.283934 1_555
O7 Tl1 2.606417 1_554
O8 Tl2 2.283934 1_555
O8 Tl1 2.606417 1_555
O11 Tl1 2.144230 1_555
O11 Tl0 2.628047 1_645
