# generated using pymatgen
data_ScH12N3(OF2)3
_symmetry_space_group_name_H-M   'P 1'
_cell_length_a   7.83797603
_cell_length_b   7.83797603
_cell_length_c   7.83797633
_cell_angle_alpha   96.11187290
_cell_angle_beta   96.11187290
_cell_angle_gamma   96.11187824
_symmetry_Int_Tables_number   1
_chemical_formula_structural   ScH12N3(OF2)3
_chemical_formula_sum   'Sc2 H24 N6 O6 F12'
_cell_volume   472.66707370
_cell_formula_units_Z   2
loop_
 _symmetry_equiv_pos_site_id
 _symmetry_equiv_pos_as_xyz
  1  'x, y, z'
loop_
 _atom_site_type_symbol
 _atom_site_label
 _atom_site_symmetry_multiplicity
 _atom_site_fract_x
 _atom_site_fract_y
 _atom_site_fract_z
 _atom_site_occupancy
  Sc  Sc0  1  0.94654700  0.94654700  0.94654700  1
  Sc  Sc1  1  0.44654700  0.44654700  0.44654700  1
  H  H0  1  0.30946700  0.09096100  0.87154900  1
  H  H1  1  0.09096100  0.87154900  0.30946700  1
  H  H2  1  0.87154900  0.30946700  0.09096100  1
  H  H3  1  0.80946700  0.37154900  0.59096100  1
  H  H4  1  0.37154900  0.59096100  0.80946700  1
  H  H5  1  0.59096100  0.80946700  0.37154900  1
  H  H6  1  0.40287000  0.09146800  0.61402600  1
  H  H7  1  0.09146800  0.61402600  0.40287000  1
  H  H8  1  0.61402600  0.40287000  0.09146800  1
  H  H9  1  0.90287000  0.11402600  0.59146800  1
  H  H10  1  0.11402600  0.59146800  0.90287000  1
  H  H11  1  0.59146800  0.90287000  0.11402600  1
  H  H12  1  0.39854900  0.88311800  0.66748800  1
  H  H13  1  0.88311800  0.66748800  0.39854900  1
  H  H14  1  0.66748800  0.39854900  0.88311800  1
  H  H15  1  0.89854900  0.16748800  0.38311800  1
  H  H16  1  0.16748800  0.38311800  0.89854900  1
  H  H17  1  0.38311800  0.89854900  0.16748800  1
  H  H18  1  0.58983800  0.01306100  0.69621800  1
  H  H19  1  0.01306100  0.69621800  0.58983800  1
  H  H20  1  0.69621800  0.58983800  0.01306100  1
  H  H21  1  0.08983800  0.19621800  0.51306100  1
  H  H22  1  0.19621800  0.51306100  0.08983800  1
  H  H23  1  0.51306100  0.08983800  0.19621800  1
  N  N0  1  0.45546700  0.00984300  0.69868900  1
  N  N1  1  0.00984300  0.69868900  0.45546700  1
  N  N2  1  0.69868900  0.45546700  0.00984300  1
  N  N3  1  0.95546700  0.19868900  0.50984300  1
  N  N4  1  0.19868900  0.50984300  0.95546700  1
  N  N5  1  0.50984300  0.95546700  0.19868900  1
  O  O0  1  0.43705800  0.07204400  0.87144500  1
  O  O1  1  0.07204400  0.87144500  0.43705800  1
  O  O2  1  0.87144500  0.43705800  0.07204400  1
  O  O3  1  0.93705800  0.37144500  0.57204400  1
  O  O4  1  0.37144500  0.57204400  0.93705800  1
  O  O5  1  0.57204400  0.93705800  0.37144500  1
  F  F0  1  0.13056200  0.12588800  0.87940400  1
  F  F1  1  0.12588800  0.87940400  0.13056200  1
  F  F2  1  0.87940400  0.13056200  0.12588800  1
  F  F3  1  0.63056200  0.37940400  0.62588800  1
  F  F4  1  0.37940400  0.62588800  0.63056200  1
  F  F5  1  0.62588800  0.63056200  0.37940400  1
  F  F6  1  0.79757200  0.01891300  0.74328400  1
  F  F7  1  0.01891300  0.74328400  0.79757200  1
  F  F8  1  0.74328400  0.79757200  0.01891300  1
  F  F9  1  0.29757200  0.24328400  0.51891300  1
  F  F10  1  0.24328400  0.51891300  0.29757200  1
  F  F11  1  0.51891300  0.29757200  0.24328400  1
loop_
_geom_bond_atom_site_label_1
_geom_bond_atom_site_label_2
_geom_bond_distance
_geom_bond_site_symmetry_2
H0 O0 1.026556 1_555
H1 O1 1.026556 1_555
H2 O2 1.026556 1_555
H3 O3 1.026556 1_555
H4 O4 1.026556 1_555
H5 O5 1.026556 1_555
H6 N0 1.052580 1_555
H7 N1 1.052580 1_555
H8 N2 1.052580 1_555
H9 N3 1.052580 1_555
H10 N4 1.052580 1_555
H11 N5 1.052580 1_555
H12 N0 1.037351 1_565
H13 N1 1.037351 1_655
H14 N2 1.037351 1_556
H15 N3 1.037351 1_555
H16 N4 1.037351 1_555
H17 N5 1.037351 1_555
H18 N0 1.053103 1_555
H19 N1 1.053103 1_555
H20 N2 1.053103 1_555
H21 N3 1.053103 1_455
H22 N4 1.053103 1_554
H23 N5 1.053103 1_545
N0 O0 1.417035 1_555
N1 O1 1.417035 1_555
N2 O2 1.417035 1_555
N3 O3 1.417035 1_555
N4 O4 1.417035 1_555
N5 O5 1.417035 1_555
F0 H0 1.463415 1_555
F0 Sc0 2.054396 1_445
F1 H1 1.463415 1_555
F1 Sc0 2.054397 1_454
F2 H2 1.463415 1_555
F2 Sc0 2.054397 1_544
F3 H3 1.463415 1_555
F3 Sc1 2.054397 1_555
F4 H4 1.463415 1_555
F4 Sc1 2.054397 1_555
F5 H5 1.463415 1_555
F5 Sc1 2.054396 1_555
F6 H18 1.625381 1_555
F6 H9 1.708759 1_555
F6 Sc0 2.039773 1_545
F7 H19 1.625382 1_555
F7 H10 1.708759 1_555
F7 Sc0 2.039773 1_455
F8 H20 1.625381 1_555
F8 H11 1.708759 1_555
F8 Sc0 2.039772 1_554
F9 H21 1.625381 1_555
F9 H6 1.708759 1_555
F9 Sc1 2.039772 1_555
F10 H22 1.625382 1_555
F10 H7 1.708759 1_555
F10 Sc1 2.039773 1_555
F11 H23 1.625381 1_555
F11 H8 1.708759 1_555
F11 Sc1 2.039773 1_555
