# generated using pymatgen
data_Na7Mn5P3H6O15F13
_symmetry_space_group_name_H-M   'P 1'
_cell_length_a   10.79608677
_cell_length_b   10.75532427
_cell_length_c   23.23413115
_cell_angle_alpha   90.00000003
_cell_angle_beta   88.77438710
_cell_angle_gamma   119.87518171
_symmetry_Int_Tables_number   1
_chemical_formula_structural   Na7Mn5P3H6O15F13
_chemical_formula_sum   'Na28 Mn20 P12 H24 O60 F52'
_cell_volume   2338.61987287
_cell_formula_units_Z   4
loop_
 _symmetry_equiv_pos_site_id
 _symmetry_equiv_pos_as_xyz
  1  'x, y, z'
loop_
 _atom_site_type_symbol
 _atom_site_label
 _atom_site_symmetry_multiplicity
 _atom_site_fract_x
 _atom_site_fract_y
 _atom_site_fract_z
 _atom_site_occupancy
  Na  Na0  1  0.00000000  0.00029557  0.75000000  1
  Na  Na1  1  1.00000000  0.99970443  0.25000000  1
  Na  Na2  1  0.00000000  0.00000000  0.50000000  1
  Na  Na3  1  0.00000000  0.00000000  0.00000000  1
  Na  Na4  1  0.37925225  0.00011198  0.75004429  1
  Na  Na5  1  1.00000000  0.37599475  0.75000000  1
  Na  Na6  1  0.62074775  0.62085973  0.74995571  1
  Na  Na7  1  0.37925225  0.37914027  0.25004429  1
  Na  Na8  1  0.62074775  0.99988802  0.24995571  1
  Na  Na9  1  0.00000000  0.62400525  0.25000000  1
  Na  Na10  1  0.67022022  0.63571334  0.50758617  1
  Na  Na11  1  0.36244104  0.03626920  0.50627850  1
  Na  Na12  1  0.96451722  0.33077252  0.50617187  1
  Na  Na13  1  0.67022022  0.03450687  0.00758617  1
  Na  Na14  1  0.96451722  0.63374470  0.00617187  1
  Na  Na15  1  0.36244104  0.32617184  0.00627850  1
  Na  Na16  1  0.32977978  0.36428666  0.49241383  1
  Na  Na17  1  0.63755896  0.96373080  0.49372150  1
  Na  Na18  1  0.03548278  0.66922748  0.49382813  1
  Na  Na19  1  0.32977978  0.96549313  0.99241383  1
  Na  Na20  1  0.03548278  0.36625530  0.99382813  1
  Na  Na21  1  0.63755896  0.67382816  0.99372150  1
  Na  Na22  1  0.00000000  0.68788212  0.75000000  1
  Na  Na23  1  0.31208777  0.31346325  0.74883721  1
  Na  Na24  1  0.68791223  0.00137548  0.75116279  1
  Na  Na25  1  1.00000000  0.31211788  0.25000000  1
  Na  Na26  1  0.68791223  0.68653675  0.25116279  1
  Na  Na27  1  0.31208777  0.99862452  0.24883721  1
  Mn  Mn0  1  0.88333947  0.75782204  0.62572061  1
  Mn  Mn1  1  0.24283780  0.12628203  0.62475235  1
  Mn  Mn2  1  0.87485463  0.11557095  0.62496948  1
  Mn  Mn3  1  0.88333947  0.12551743  0.12572061  1
  Mn  Mn4  1  0.87485463  0.75928368  0.12496948  1
  Mn  Mn5  1  0.24283780  0.11655577  0.12475235  1
  Mn  Mn6  1  0.11666053  0.24217796  0.37427939  1
  Mn  Mn7  1  0.75716220  0.87371797  0.37524765  1
  Mn  Mn8  1  0.12514537  0.88442905  0.37503052  1
  Mn  Mn9  1  0.11666053  0.87448257  0.87427939  1
  Mn  Mn10  1  0.12514537  0.24071632  0.87503052  1
  Mn  Mn11  1  0.75716220  0.88344423  0.87524765  1
  Mn  Mn12  1  0.33666788  0.67074864  0.71925071  1
  Mn  Mn13  1  0.33666788  0.66591925  0.21925071  1
  Mn  Mn14  1  0.66333212  0.32925136  0.28074929  1
  Mn  Mn15  1  0.66333212  0.33408075  0.78074929  1
  Mn  Mn16  1  0.33063930  0.66294316  0.53278742  1
  Mn  Mn17  1  0.33063930  0.66769614  0.03278742  1
  Mn  Mn18  1  0.66936070  0.33705684  0.46721258  1
  Mn  Mn19  1  0.66936070  0.33230386  0.96721258  1
  P  P0  1  0.20732983  0.80960354  0.62610097  1
  P  P1  1  0.18542816  0.39593834  0.62501271  1
  P  P2  1  0.60397148  0.79591458  0.62586526  1
  P  P3  1  0.20732983  0.39772629  0.12610097  1
  P  P4  1  0.60397148  0.80805690  0.12586526  1
  P  P5  1  0.18542816  0.78948981  0.12501271  1
  P  P6  1  0.79267017  0.19039646  0.37389903  1
  P  P7  1  0.81457184  0.60406166  0.37498729  1
  P  P8  1  0.39602852  0.20408542  0.37413474  1
  P  P9  1  0.79267017  0.60227371  0.87389903  1
  P  P10  1  0.39602852  0.19194310  0.87413474  1
  P  P11  1  0.81457184  0.21051019  0.87498729  1
  H  H0  1  0.80413037  0.48496414  0.58705197  1
  H  H1  1  0.51650739  0.31987259  0.58799651  1
  H  H2  1  0.68229124  0.20054079  0.58866733  1
  H  H3  1  0.80413037  0.31916623  0.08705197  1
  H  H4  1  0.68229124  0.48175045  0.08866733  1
  H  H5  1  0.51650739  0.19663479  0.08799651  1
  H  H6  1  0.19586963  0.51503586  0.41294803  1
  H  H7  1  0.48349261  0.68012741  0.41200349  1
  H  H8  1  0.31770876  0.79945921  0.41133267  1
  H  H9  1  0.19586963  0.68083377  0.91294803  1
  H  H10  1  0.31770876  0.51824955  0.91133267  1
  H  H11  1  0.48349261  0.80336521  0.91200349  1
  H  H12  1  0.80215511  0.48179642  0.65595640  1
  H  H13  1  0.51429652  0.32002715  0.65699884  1
  H  H14  1  0.67907146  0.19667364  0.65703813  1
  H  H15  1  0.80215511  0.32035869  0.15595640  1
  H  H16  1  0.67907146  0.48239782  0.15703813  1
  H  H17  1  0.51429652  0.19426936  0.15699884  1
  H  H18  1  0.19784489  0.51820358  0.34404360  1
  H  H19  1  0.48570348  0.67997285  0.34300116  1
  H  H20  1  0.32092854  0.80332636  0.34296187  1
  H  H21  1  0.19784489  0.67964131  0.84404360  1
  H  H22  1  0.32092854  0.51760218  0.84296187  1
  H  H23  1  0.48570348  0.80573064  0.84300116  1
  O  O0  1  0.26735792  0.96475358  0.60153288  1
  O  O1  1  0.03562679  0.29810392  0.59891155  1
  O  O2  1  0.69865147  0.73300594  0.60345116  1
  O  O3  1  0.26735792  0.30260434  0.10153288  1
  O  O4  1  0.69865147  0.96564553  0.10345116  1
  O  O5  1  0.03562679  0.73752287  0.09891155  1
  O  O6  1  0.73264208  0.03524642  0.39846712  1
  O  O7  1  0.96437321  0.70189608  0.40108845  1
  O  O8  1  0.30134853  0.26699406  0.39654884  1
  O  O9  1  0.73264208  0.69739566  0.89846712  1
  O  O10  1  0.30134853  0.03435447  0.89654884  1
  O  O11  1  0.96437321  0.26247713  0.90108845  1
  O  O12  1  0.05528248  0.75834118  0.65229513  1
  O  O13  1  0.24315008  0.29926842  0.64860094  1
  O  O14  1  0.70304763  0.94513532  0.65278905  1
  O  O15  1  0.05528248  0.29694130  0.15229513  1
  O  O16  1  0.70304763  0.75791231  0.15278905  1
  O  O17  1  0.24315008  0.94388166  0.14860094  1
  O  O18  1  0.94471752  0.24165882  0.34770487  1
  O  O19  1  0.75684992  0.70073158  0.35139906  1
  O  O20  1  0.29695237  0.05486468  0.34721095  1
  O  O21  1  0.94471752  0.70305870  0.84770487  1
  O  O22  1  0.29695237  0.24208769  0.84721095  1
  O  O23  1  0.75684992  0.05611834  0.85139906  1
  O  O24  1  0.30382148  0.81221245  0.67496203  1
  O  O25  1  0.17909052  0.48558858  0.67434936  1
  O  O26  1  0.50524246  0.69760064  0.67602677  1
  O  O27  1  0.30382148  0.49160904  0.17496203  1
  O  O28  1  0.50524246  0.80764182  0.17602677  1
  O  O29  1  0.17909052  0.69350194  0.17434936  1
  O  O30  1  0.69617852  0.18778755  0.32503797  1
  O  O31  1  0.82090948  0.51441142  0.32565064  1
  O  O32  1  0.49475754  0.30239936  0.32397323  1
  O  O33  1  0.69617852  0.50839096  0.82503797  1
  O  O34  1  0.49475754  0.19235818  0.82397323  1
  O  O35  1  0.82090948  0.30649806  0.82565064  1
  O  O36  1  0.19734148  0.71113585  0.57594651  1
  O  O37  1  0.28660593  0.48899315  0.57418373  1
  O  O38  1  0.52051748  0.80586110  0.57581181  1
  O  O39  1  0.19734148  0.48620563  0.07594651  1
  O  O40  1  0.52051748  0.71465638  0.07581181  1
  O  O41  1  0.28660593  0.79761278  0.07418373  1
  O  O42  1  0.80265852  0.28886415  0.42405349  1
  O  O43  1  0.71339407  0.51100685  0.42581627  1
  O  O44  1  0.47948252  0.19413890  0.42418819  1
  O  O45  1  0.80265852  0.51379437  0.92405349  1
  O  O46  1  0.47948252  0.28534362  0.92418819  1
  O  O47  1  0.71339407  0.20238722  0.92581627  1
  O  O48  1  0.78082585  0.52292163  0.62242246  1
  O  O49  1  0.47861375  0.25741478  0.62267588  1
  O  O50  1  0.74226754  0.21987324  0.62260429  1
  O  O51  1  0.78082585  0.25790422  0.12242246  1
  O  O52  1  0.74226754  0.52239430  0.12260429  1
  O  O53  1  0.47861375  0.22119897  0.12267588  1
  O  O54  1  0.21917415  0.47707837  0.37757754  1
  O  O55  1  0.52138625  0.74258522  0.37732412  1
  O  O56  1  0.25773246  0.78012676  0.37739571  1
  O  O57  1  0.21917415  0.74209578  0.87757754  1
  O  O58  1  0.25773246  0.47760570  0.87739571  1
  O  O59  1  0.52138625  0.77880103  0.87732412  1
  F  F0  1  0.99985136  0.00000412  0.62758233  1
  F  F1  1  0.99985136  0.99984724  0.12758233  1
  F  F2  1  0.00014864  -0.00000412  0.37241767  1
  F  F3  1  0.00014864  0.00015276  0.87241767  1
  F  F4  1  0.84443465  0.75925849  0.70542382  1
  F  F5  1  0.23799032  0.08652298  0.70470587  1
  F  F6  1  0.91402451  0.15401124  0.70447249  1
  F  F7  1  0.84443465  0.08517616  0.20542382  1
  F  F8  1  0.91402451  0.76001326  0.20447249  1
  F  F9  1  0.23799032  0.15146734  0.20470587  1
  F  F10  1  0.15556535  0.24074151  0.29457618  1
  F  F11  1  0.76200968  0.91347702  0.29529413  1
  F  F12  1  0.08597549  0.84598876  0.29552751  1
  F  F13  1  0.15556535  0.91482384  0.79457618  1
  F  F14  1  0.08597549  0.23998674  0.79552751  1
  F  F15  1  0.76200968  0.84853266  0.79529413  1
  F  F16  1  0.92972347  0.77373452  0.54573396  1
  F  F17  1  0.22879896  0.15594657  0.54490942  1
  F  F18  1  0.84211007  0.07056743  0.54546833  1
  F  F19  1  0.92972347  0.15598895  0.04573396  1
  F  F20  1  0.84211007  0.77154264  0.04546833  1
  F  F21  1  0.22879896  0.07285238  0.04490942  1
  F  F22  1  0.07027653  0.22626548  0.45426604  1
  F  F23  1  0.77120104  0.84405343  0.45509058  1
  F  F24  1  0.15788993  0.92943257  0.45453167  1
  F  F25  1  0.07027653  0.84401105  0.95426604  1
  F  F26  1  0.15788993  0.22845736  0.95453167  1
  F  F27  1  0.77120104  0.92714762  0.95509058  1
  F  F28  1  0.45939260  0.84392037  0.77334123  1
  F  F29  1  0.17187973  0.62380958  0.76735879  1
  F  F30  1  0.37766665  0.54793917  0.76928745  1
  F  F31  1  0.45939260  0.61547223  0.27334123  1
  F  F32  1  0.37766665  0.82972748  0.26928745  1
  F  F33  1  0.17187973  0.54807015  0.26735879  1
  F  F34  1  0.54060740  0.15607963  0.22665877  1
  F  F35  1  0.82812027  0.37619042  0.23264121  1
  F  F36  1  0.62233335  0.45206083  0.23071255  1
  F  F37  1  0.54060740  0.38452777  0.72665877  1
  F  F38  1  0.62233335  0.17027252  0.73071255  1
  F  F39  1  0.82812027  0.45192985  0.73264121  1
  F  F40  1  0.38600777  0.82896510  0.48500394  1
  F  F41  1  0.15812198  0.54630795  0.47893013  1
  F  F42  1  0.44965238  0.61194962  0.48132555  1
  F  F43  1  0.38600777  0.55704267  0.98500394  1
  F  F44  1  0.44965238  0.83770275  0.98132555  1
  F  F45  1  0.15812198  0.61181404  0.97893013  1
  F  F46  1  0.61399223  0.17103490  0.51499606  1
  F  F47  1  0.84187802  0.45369205  0.52106987  1
  F  F48  1  0.55034762  0.38805038  0.51867445  1
  F  F49  1  0.61399223  0.44295733  0.01499606  1
  F  F50  1  0.55034762  0.16229725  0.01867445  1
  F  F51  1  0.84187802  0.38818596  0.02106987  1
loop_
_geom_bond_atom_site_label_1
_geom_bond_atom_site_label_2
_geom_bond_distance
_geom_bond_site_symmetry_2
Na4 O24 2.492330 1_545
Na4 O34 2.510709 1_555
Na5 O25 2.408596 1_655
Na5 O35 2.408596 1_555
Na6 O33 2.492331 1_555
Na6 O26 2.510709 1_555
Na7 O27 2.492331 1_555
Na7 O32 2.510709 1_555
Na8 O30 2.492330 1_565
Na8 O28 2.510709 1_555
Na9 O31 2.408596 1_455
Na9 O29 2.408596 1_555
Na10 O2 2.420642 1_555
Na10 O43 2.492108 1_555
Na11 O0 2.379001 1_545
Na11 O44 2.424241 1_555
Na12 O1 2.386453 1_655
Na12 O42 2.500989 1_555
Na13 O4 2.420642 1_545
Na13 O47 2.492108 1_554
Na14 O5 2.386453 1_655
Na14 O45 2.500989 1_554
Na15 O3 2.379001 1_555
Na15 O46 2.424241 1_554
Na16 O8 2.420642 1_555
Na16 O37 2.492108 1_555
Na17 O6 2.379001 1_565
Na17 O38 2.424241 1_555
Na18 O7 2.386453 1_455
Na18 O36 2.500989 1_555
Na19 O10 2.420642 1_565
Na19 O41 2.492108 1_556
Na20 O11 2.386453 1_455
Na20 O39 2.500989 1_556
Na21 O9 2.379001 1_555
Na21 O40 2.424241 1_556
Na22 O12 2.361196 1_555
Na22 O21 2.361196 1_455
Na23 O22 2.387293 1_555
Na23 O13 2.441714 1_555
Na24 O14 2.387293 1_545
Na24 O23 2.441714 1_555
Na25 O18 2.361196 1_555
Na25 O15 2.361196 1_655
Na26 O16 2.387293 1_555
Na26 O19 2.441714 1_555
Na27 O20 2.387293 1_565
Na27 O17 2.441714 1_555
Mn0 O2 1.956676 1_555
Mn0 O12 1.966178 1_655
Mn0 O48 2.198107 1_555
Mn1 O13 1.939697 1_555
Mn1 O0 1.957384 1_545
Mn1 O49 2.211129 1_555
Mn2 O14 1.944198 1_545
Mn2 O1 1.947758 1_655
Mn2 O50 2.216644 1_555
Mn3 O4 1.956676 1_545
Mn3 O15 1.966178 1_655
Mn3 O51 2.198108 1_555
Mn4 O16 1.944198 1_555
Mn4 O5 1.947758 1_655
Mn4 O52 2.216644 1_555
Mn5 O17 1.939697 1_545
Mn5 O3 1.957384 1_555
Mn5 O53 2.211129 1_555
Mn6 O8 1.956676 1_555
Mn6 O18 1.966178 1_455
Mn6 O54 2.198107 1_555
Mn7 O19 1.939697 1_555
Mn7 O6 1.957384 1_565
Mn7 O55 2.211129 1_555
Mn8 O20 1.944198 1_565
Mn8 O7 1.947758 1_455
Mn8 O56 2.216644 1_555
Mn9 O10 1.956676 1_565
Mn9 O21 1.966178 1_455
Mn9 O57 2.198108 1_555
Mn10 O22 1.944198 1_555
Mn10 O11 1.947758 1_455
Mn10 O58 2.216644 1_555
Mn11 O23 1.939697 1_565
Mn11 O9 1.957384 1_555
Mn11 O59 2.211129 1_555
Mn12 O26 1.949965 1_555
Mn12 O24 2.013120 1_555
Mn12 O25 2.156203 1_555
Mn13 O28 1.949965 1_555
Mn13 O27 2.013120 1_555
Mn13 O29 2.156203 1_555
Mn14 O32 1.949965 1_555
Mn14 O30 2.013120 1_555
Mn14 O31 2.156203 1_555
Mn15 O34 1.949965 1_555
Mn15 O33 2.013120 1_555
Mn15 O35 2.156203 1_555
Mn16 O37 1.935379 1_555
Mn16 O36 2.006631 1_555
Mn16 O38 2.124342 1_555
Mn17 O41 1.935379 1_555
Mn17 O39 2.006631 1_555
Mn17 O40 2.124342 1_555
Mn18 O43 1.935379 1_555
Mn18 O42 2.006631 1_555
Mn18 O44 2.124342 1_555
Mn19 O47 1.935379 1_555
Mn19 O45 2.006631 1_555
Mn19 O46 2.124342 1_555
H0 O48 0.999403 1_555
H1 O49 0.989931 1_555
H2 O50 0.985871 1_555
H3 O51 0.999403 1_555
H4 O52 0.985871 1_555
H5 O53 0.989931 1_555
H6 O54 0.999403 1_555
H7 O55 0.989931 1_555
H8 O56 0.985871 1_555
H9 O57 0.999403 1_555
H10 O58 0.985871 1_555
H11 O59 0.989931 1_555
H12 O48 0.982272 1_555
H13 O49 0.996264 1_555
H14 O50 0.987355 1_555
H15 O51 0.982272 1_555
H16 O52 0.987355 1_555
H17 O53 0.996264 1_555
H18 O54 0.982272 1_555
H19 O55 0.996264 1_555
H20 O56 0.987355 1_555
H21 O57 0.982272 1_555
H22 O58 0.987355 1_555
H23 O59 0.996264 1_555
O0 P0 1.561148 1_555
O1 P1 1.561141 1_555
O2 P2 1.562068 1_555
O3 P3 1.561148 1_555
O4 P4 1.562068 1_555
O5 P5 1.561141 1_555
O6 P6 1.561148 1_555
O7 P7 1.561141 1_555
O8 P8 1.562068 1_555
O9 P9 1.561148 1_555
O10 P10 1.562068 1_555
O11 P11 1.561141 1_555
O12 P0 1.557109 1_555
O13 P1 1.558781 1_555
O14 P2 1.558725 1_555
O15 P3 1.557109 1_555
O16 P4 1.558725 1_555
O17 P5 1.558781 1_555
O18 P6 1.557109 1_555
O19 P7 1.558781 1_555
O20 P8 1.558725 1_555
O21 P9 1.557109 1_555
O22 P10 1.558725 1_555
O23 P11 1.558781 1_555
O24 P0 1.547980 1_555
O25 P1 1.520117 1_555
O26 P2 1.560945 1_555
O27 P3 1.547981 1_555
O28 P4 1.560945 1_555
O29 P5 1.520117 1_555
O30 P6 1.547980 1_555
O31 P7 1.520117 1_555
O32 P8 1.560945 1_555
O33 P9 1.547981 1_555
O34 P10 1.560945 1_555
O35 P11 1.520117 1_555
O36 P0 1.543611 1_555
O37 P1 1.563724 1_555
O38 P2 1.522004 1_555
O39 P3 1.543611 1_555
O40 P4 1.522004 1_555
O41 P5 1.563724 1_555
O42 P6 1.543611 1_555
O43 P7 1.563724 1_555
O44 P8 1.522004 1_555
O45 P9 1.543611 1_555
O46 P10 1.522004 1_555
O47 P11 1.563724 1_555
F0 Mn2 2.245936 1_555
F0 Mn0 2.259885 1_545
F0 Mn1 2.274609 1_655
F0 Na0 2.844304 1_655
F1 Mn4 2.245936 1_555
F1 Mn3 2.259885 1_565
F1 Mn5 2.274609 1_665
F1 Na1 2.844304 1_555
F2 Mn8 2.245936 1_545
F2 Mn6 2.259885 1_555
F2 Mn7 2.274609 1_445
F2 Na1 2.844304 1_445
F3 Mn10 2.245936 1_555
F3 Mn9 2.259885 1_545
F3 Mn11 2.274609 1_445
F3 Na0 2.844304 1_555
F4 Mn0 1.891861 1_555
F4 Na6 2.330270 1_555
F4 Na22 2.416928 1_655
F4 Na0 2.520106 1_665
F5 Mn1 1.900003 1_555
F5 Na23 2.395574 1_555
F5 Na4 2.404162 1_555
F5 Na0 2.465701 1_555
F6 Mn2 1.902915 1_555
F6 Na5 2.348392 1_555
F6 Na24 2.392759 1_555
F6 Na0 2.506894 1_655
F7 Mn3 1.891861 1_555
F7 Na8 2.330270 1_545
F7 Na25 2.416928 1_555
F7 Na1 2.520106 1_545
F8 Mn4 1.902915 1_555
F8 Na9 2.348392 1_655
F8 Na26 2.392759 1_555
F8 Na1 2.506894 1_555
F9 Mn5 1.900003 1_555
F9 Na27 2.395574 1_545
F9 Na7 2.404162 1_555
F9 Na1 2.465701 1_445
F10 Mn6 1.891861 1_555
F10 Na7 2.330270 1_555
F10 Na25 2.416928 1_455
F10 Na1 2.520106 1_445
F11 Mn7 1.900003 1_555
F11 Na26 2.395574 1_555
F11 Na8 2.404162 1_555
F11 Na1 2.465701 1_555
F12 Mn8 1.902915 1_555
F12 Na9 2.348392 1_555
F12 Na27 2.392759 1_555
F12 Na1 2.506894 1_455
F13 Mn9 1.891861 1_555
F13 Na4 2.330270 1_565
F13 Na22 2.416928 1_555
F13 Na0 2.520106 1_565
F14 Mn10 1.902915 1_555
F14 Na5 2.348392 1_455
F14 Na23 2.392759 1_555
F14 Na0 2.506894 1_555
F15 Mn11 1.900003 1_555
F15 Na24 2.395574 1_565
F15 Na6 2.404162 1_555
F15 Na0 2.465701 1_665
F16 Mn0 1.899629 1_555
F16 Na18 2.289345 1_655
F16 Na2 2.398554 1_665
F16 Na10 2.607933 1_555
F17 Mn1 1.904283 1_555
F17 Na16 2.281812 1_555
F17 Na2 2.446702 1_555
F17 Na11 2.517707 1_555
F18 Mn2 1.904902 1_555
F18 Na17 2.286547 1_545
F18 Na2 2.410296 1_655
F18 Na12 2.583811 1_555
F19 Mn3 1.899629 1_555
F19 Na20 2.289345 1_654
F19 Na3 2.398554 1_655
F19 Na13 2.607933 1_555
F20 Mn4 1.904902 1_555
F20 Na21 2.286547 1_554
F20 Na3 2.410296 1_665
F20 Na14 2.583811 1_555
F21 Mn5 1.904283 1_555
F21 Na19 2.281812 1_544
F21 Na3 2.446702 1_555
F21 Na15 2.517707 1_555
F22 Mn6 1.899629 1_555
F22 Na12 2.289345 1_455
F22 Na2 2.398554 1_555
F22 Na16 2.607933 1_555
F23 Mn7 1.904283 1_555
F23 Na10 2.281812 1_555
F23 Na2 2.446702 1_665
F23 Na17 2.517707 1_555
F24 Mn8 1.904902 1_555
F24 Na11 2.286547 1_565
F24 Na2 2.410296 1_565
F24 Na18 2.583811 1_555
F25 Mn9 1.899629 1_555
F25 Na14 2.289345 1_456
F25 Na3 2.398554 1_566
F25 Na19 2.607933 1_555
F26 Mn10 1.904902 1_555
F26 Na15 2.286547 1_556
F26 Na3 2.410296 1_556
F26 Na20 2.583811 1_555
F27 Mn11 1.904283 1_555
F27 Na13 2.281812 1_566
F27 Na3 2.446702 1_666
F27 Na21 2.517707 1_555
F28 Mn12 2.101590 1_555
F28 Na24 2.236840 1_565
F28 Na4 2.309024 1_565
F29 Mn12 1.920803 1_555
F29 Na22 2.320959 1_555
F29 Na5 2.411396 1_455
F30 Mn12 1.973974 1_555
F30 Na23 2.307051 1_555
F30 Na6 2.367077 1_555
F31 Mn13 2.101590 1_555
F31 Na26 2.236840 1_555
F31 Na7 2.309024 1_555
F32 Mn13 1.973974 1_555
F32 Na27 2.307051 1_555
F32 Na8 2.367077 1_555
F33 Mn13 1.920803 1_555
F33 Na25 2.320959 1_455
F33 Na9 2.411396 1_555
F34 Mn14 2.101590 1_555
F34 Na27 2.236840 1_545
F34 Na8 2.309024 1_545
F35 Mn14 1.920803 1_555
F35 Na25 2.320959 1_555
F35 Na9 2.411396 1_655
F36 Mn14 1.973974 1_555
F36 Na26 2.307051 1_555
F36 Na7 2.367077 1_555
F37 Mn15 2.101590 1_555
F37 Na23 2.236840 1_555
F37 Na6 2.309024 1_555
F38 Mn15 1.973974 1_555
F38 Na24 2.307051 1_555
F38 Na4 2.367077 1_555
F39 Mn15 1.920803 1_555
F39 Na22 2.320959 1_655
F39 Na5 2.411396 1_555
F40 Mn16 1.920048 1_555
F40 Na17 2.370517 1_555
F40 Na11 2.416617 1_565
F41 H6 1.655062 1_555
F41 Mn16 2.092967 1_555
F41 Na12 2.293388 1_455
F41 Na18 2.311890 1_555
F42 Mn16 2.004407 1_555
F42 Na16 2.321207 1_555
F42 Na10 2.358787 1_555
F43 Mn17 1.920048 1_556
F43 Na21 2.370517 1_555
F43 Na15 2.416617 1_556
F44 Mn17 2.004407 1_556
F44 Na19 2.321207 1_555
F44 Na13 2.358787 1_566
F45 H9 1.655062 1_555
F45 Mn17 2.092967 1_556
F45 Na14 2.293388 1_456
F45 Na20 2.311890 1_555
F46 Mn18 1.920048 1_555
F46 Na11 2.370517 1_555
F46 Na17 2.416617 1_545
F47 H0 1.655062 1_555
F47 Mn18 2.092967 1_555
F47 Na18 2.293388 1_655
F47 Na12 2.311890 1_555
F48 Mn18 2.004407 1_555
F48 Na10 2.321207 1_555
F48 Na16 2.358787 1_555
F49 Mn19 1.920048 1_554
F49 Na15 2.370517 1_555
F49 Na21 2.416617 1_554
F50 Mn19 2.004407 1_554
F50 Na13 2.321207 1_555
F50 Na19 2.358787 1_544
F51 H3 1.655062 1_555
F51 Mn19 2.092967 1_554
F51 Na20 2.293388 1_654
F51 Na14 2.311890 1_555
