# generated using pymatgen
data_Sr3(AlAs2)2
_symmetry_space_group_name_H-M   'P 1'
_cell_length_a   8.57156430
_cell_length_b   8.57156430
_cell_length_c   6.84447362
_cell_angle_alpha   89.55883983
_cell_angle_beta   89.55883983
_cell_angle_gamma   75.30685915
_symmetry_Int_Tables_number   1
_chemical_formula_structural   Sr3(AlAs2)2
_chemical_formula_sum   'Sr6 Al4 As8'
_cell_volume   486.40724632
_cell_formula_units_Z   2
loop_
 _symmetry_equiv_pos_site_id
 _symmetry_equiv_pos_as_xyz
  1  'x, y, z'
loop_
 _atom_site_type_symbol
 _atom_site_label
 _atom_site_symmetry_multiplicity
 _atom_site_fract_x
 _atom_site_fract_y
 _atom_site_fract_z
 _atom_site_occupancy
  Sr  Sr0  1  0.00700458  0.74812861  0.53828907  1
  Sr  Sr1  1  0.25187139  0.99299542  0.96171093  1
  Sr  Sr2  1  0.99299542  0.25187139  0.46171093  1
  Sr  Sr3  1  0.74812861  0.00700458  0.03828907  1
  Sr  Sr4  1  0.40183042  0.59816958  0.25000000  1
  Sr  Sr5  1  0.59816958  0.40183042  0.75000000  1
  Al  Al0  1  0.82815881  0.58165913  0.08145104  1
  Al  Al1  1  0.41834087  0.17184119  0.41854896  1
  Al  Al2  1  0.17184119  0.41834087  0.91854896  1
  Al  Al3  1  0.58165913  0.82815881  0.58145104  1
  As  As0  1  0.05894702  0.70739470  0.02439087  1
  As  As1  1  0.29260530  0.94105298  0.47560913  1
  As  As2  1  0.94105298  0.29260530  0.97560913  1
  As  As3  1  0.70739470  0.05894702  0.52439087  1
  As  As4  1  0.74102011  0.57758204  0.42512922  1
  As  As5  1  0.42241796  0.25897989  0.07487078  1
  As  As6  1  0.25897989  0.42241796  0.57487078  1
  As  As7  1  0.57758204  0.74102011  0.92512922  1
loop_
_geom_bond_atom_site_label_1
_geom_bond_atom_site_label_2
_geom_bond_distance
_geom_bond_site_symmetry_2
Al0 As4 2.465222 1_555
Al0 As7 2.479600 1_554
Al0 As0 2.508102 1_655
Al0 As2 2.529925 1_554
Al1 As5 2.465222 1_555
Al1 As6 2.479600 1_555
Al1 As1 2.508102 1_545
Al1 As3 2.529925 1_555
Al2 As6 2.465222 1_555
Al2 As5 2.479600 1_556
Al2 As2 2.508102 1_455
Al2 As0 2.529925 1_556
Al3 As7 2.465222 1_555
Al3 As4 2.479600 1_555
Al3 As3 2.508102 1_565
Al3 As1 2.529925 1_555
As0 Sr3 3.198640 1_465
As0 Sr4 3.248195 1_555
As0 Sr1 3.307278 1_554
As0 Sr0 3.363906 1_554
As0 Sr0 3.550762 1_555
As1 Sr2 3.198640 1_465
As1 Sr4 3.248195 1_555
As1 Sr0 3.307278 1_555
As1 Sr1 3.363906 1_555
As1 Sr1 3.550762 1_554
As2 Sr1 3.198640 1_645
As2 Sr5 3.248195 1_555
As2 Sr3 3.307278 1_556
As2 Sr2 3.363906 1_556
As2 Sr2 3.550762 1_555
As3 Sr0 3.198640 1_645
As3 Sr5 3.248195 1_555
As3 Sr2 3.307278 1_555
As3 Sr3 3.363906 1_555
As3 Sr3 3.550762 1_556
As4 Sr2 3.075815 1_555
As4 Sr5 3.091150 1_555
As4 Sr0 3.109693 1_655
As4 Sr4 3.116245 1_555
As5 Sr3 3.075815 1_555
As5 Sr5 3.091150 1_554
As5 Sr1 3.109693 1_544
As5 Sr4 3.116245 1_555
As6 Sr0 3.075815 1_555
As6 Sr4 3.091150 1_555
As6 Sr2 3.109693 1_455
As6 Sr5 3.116245 1_555
As7 Sr1 3.075815 1_555
As7 Sr4 3.091150 1_556
As7 Sr3 3.109693 1_566
As7 Sr5 3.116245 1_555
