# generated using pymatgen
data_Fe4Co(BiO3)5
_symmetry_space_group_name_H-M   'P 1'
_cell_length_a   3.79493200
_cell_length_b   6.34211437
_cell_length_c   14.72056116
_cell_angle_alpha   87.93125114
_cell_angle_beta   88.82954511
_cell_angle_gamma   88.18512801
_symmetry_Int_Tables_number   1
_chemical_formula_structural   Fe4Co(BiO3)5
_chemical_formula_sum   'Fe4 Co1 Bi5 O15'
_cell_volume   353.81840852
_cell_formula_units_Z   1
loop_
 _symmetry_equiv_pos_site_id
 _symmetry_equiv_pos_as_xyz
  1  'x, y, z'
loop_
 _atom_site_type_symbol
 _atom_site_label
 _atom_site_symmetry_multiplicity
 _atom_site_fract_x
 _atom_site_fract_y
 _atom_site_fract_z
 _atom_site_occupancy
  Fe  Fe0  1  0.51222000  0.75236400  0.41056400  1
  Fe  Fe1  1  0.51446200  0.34876100  0.61015000  1
  Fe  Fe2  1  0.51385200  0.94422800  0.81048200  1
  Fe  Fe3  1  0.51390700  0.54564100  0.01245700  1
  Co  Co0  1  0.51546700  0.13845300  0.20937200  1
  Bi  Bi0  1  0.97539200  0.98117100  0.00397100  1
  Bi  Bi1  1  0.97246600  0.56795200  0.20964600  1
  Bi  Bi2  1  0.96463500  0.18149900  0.40441200  1
  Bi  Bi3  1  0.96808100  0.78169500  0.60513100  1
  Bi  Bi4  1  0.96420600  0.37771200  0.80575000  1
  O  O0  1  0.01002000  0.22826000  0.24097000  1
  O  O1  1  0.00825900  0.83456400  0.43892300  1
  O  O2  1  0.01051000  0.43518000  0.63960900  1
  O  O3  1  0.00945700  0.02912700  0.84069700  1
  O  O4  1  0.00914400  0.63657300  0.03901600  1
  O  O5  1  0.51071800  0.03413900  0.33972100  1
  O  O6  1  0.51375100  0.63270100  0.53966900  1
  O  O7  1  0.51653300  0.22537500  0.73968900  1
  O  O8  1  0.51098800  0.83255600  0.94138300  1
  O  O9  1  0.51617000  0.42574300  0.14052900  1
  O  O10  1  0.53784300  0.93882200  0.12928500  1
  O  O11  1  0.54141200  0.53428600  0.32836000  1
  O  O12  1  0.54328100  0.13500200  0.52833000  1
  O  O13  1  0.54034800  0.73164200  0.72829700  1
  O  O14  1  0.54137700  0.33425200  0.92799000  1
loop_
_geom_bond_atom_site_label_1
_geom_bond_atom_site_label_2
_geom_bond_distance
_geom_bond_site_symmetry_2
Fe0 O11 1.869529 1_555
Fe0 O1 2.005901 1_555
Fe0 O6 2.020871 1_555
Fe0 O1 2.024743 1_655
Fe0 O5 2.036212 1_565
Fe1 O12 1.844890 1_555
Fe1 O2 2.015651 1_555
Fe1 O7 2.034974 1_555
Fe1 O2 2.036662 1_655
Fe1 O6 2.045527 1_555
Fe2 O13 1.842748 1_555
Fe2 O3 2.017157 1_565
Fe2 O8 2.028769 1_555
Fe2 O7 2.032730 1_565
Fe2 O3 2.034876 1_665
Fe3 O14 1.860234 1_554
Fe3 O9 2.007328 1_555
Fe3 O4 2.017535 1_555
Fe3 O4 2.032854 1_655
Fe3 O8 2.065823 1_554
Co0 O10 1.759802 1_545
Co0 O5 2.006870 1_555
Co0 O0 2.033098 1_555
Co0 O0 2.045879 1_655
Co0 O9 2.052722 1_555
Bi0 O4 2.227652 1_655
Bi0 O8 2.253321 1_554
Bi0 O8 2.394436 1_654
Bi0 O3 2.413084 1_664
Bi0 O10 2.469721 1_555
Bi1 O0 2.187633 1_655
Bi1 O9 2.254828 1_555
Bi1 O11 2.377768 1_555
Bi1 O9 2.443056 1_655
Bi1 O4 2.535428 1_655
Bi1 O11 2.803434 1_655
Bi2 O5 2.231775 1_555
Bi2 O1 2.241981 1_645
Bi2 O0 2.416824 1_655
Bi2 O12 2.417262 1_555
Bi2 O5 2.436362 1_655
Bi3 O2 2.239091 1_655
Bi3 O6 2.242992 1_555
Bi3 O13 2.427692 1_555
Bi3 O6 2.443340 1_655
Bi3 O1 2.459809 1_655
Bi4 O7 2.237097 1_555
Bi4 O3 2.253680 1_655
Bi4 O14 2.400619 1_555
Bi4 O2 2.463179 1_655
Bi4 O7 2.475637 1_655
