# generated using pymatgen
data_K10NbInAs6
_symmetry_space_group_name_H-M   'P 1'
_cell_length_a   8.40710800
_cell_length_b   9.27829000
_cell_length_c   17.81294818
_cell_angle_alpha   59.98377572
_cell_angle_beta   90.00000000
_cell_angle_gamma   90.00000000
_symmetry_Int_Tables_number   1
_chemical_formula_structural   K10NbInAs6
_chemical_formula_sum   'K20 Nb2 In2 As12'
_cell_volume   1203.12286558
_cell_formula_units_Z   2
loop_
 _symmetry_equiv_pos_site_id
 _symmetry_equiv_pos_as_xyz
  1  'x, y, z'
loop_
 _atom_site_type_symbol
 _atom_site_label
 _atom_site_symmetry_multiplicity
 _atom_site_fract_x
 _atom_site_fract_y
 _atom_site_fract_z
 _atom_site_occupancy
  K  K0  1  0.74765600  0.90585900  0.41011300  1
  K  K1  1  0.25234400  0.90585900  0.91011300  1
  K  K2  1  0.76202400  0.09384000  0.59166800  1
  K  K3  1  0.23797600  0.09384000  0.09166800  1
  K  K4  1  0.58025300  0.16137900  0.75755000  1
  K  K5  1  0.41974700  0.16137900  0.25755000  1
  K  K6  1  0.92047800  0.84068100  0.24016300  1
  K  K7  1  0.07952200  0.84068100  0.74016300  1
  K  K8  1  0.73854500  0.54283500  0.75713300  1
  K  K9  1  0.26145500  0.54283500  0.25713300  1
  K  K10  1  0.77111200  0.45837800  0.23966200  1
  K  K11  1  0.22888800  0.45837800  0.73966200  1
  K  K12  1  0.07644100  0.15997100  0.41850300  1
  K  K13  1  0.92355900  0.15997100  0.91850300  1
  K  K14  1  0.42351000  0.84088300  0.58105400  1
  K  K15  1  0.57649000  0.84088300  0.08105400  1
  K  K16  1  0.25531900  0.26647700  0.57426900  1
  K  K17  1  0.74468100  0.26647700  0.07426900  1
  K  K18  1  0.22826800  0.73371700  0.42557300  1
  K  K19  1  0.77173200  0.73371700  0.92557300  1
  Nb  Nb0  1  0.62340100  0.50561900  0.42276200  1
  Nb  Nb1  1  0.37659900  0.50561900  0.92276200  1
  In  In0  1  0.88450300  0.49311700  0.58226100  1
  In  In1  1  0.11549700  0.49311700  0.08226100  1
  As  As0  1  0.92692000  0.48689900  0.42692300  1
  As  As1  1  0.07308000  0.48689900  0.92692300  1
  As  As2  1  0.55070700  0.51405200  0.56016000  1
  As  As3  1  0.44929300  0.51405200  0.06016000  1
  As  As4  1  0.96952400  0.19800000  0.72469600  1
  As  As5  1  0.03047600  0.19800000  0.22469600  1
  As  As6  1  0.53609100  0.76976700  0.28886800  1
  As  As7  1  0.46390900  0.76976700  0.78886800  1
  As  As8  1  0.99998700  0.77400700  0.57712500  1
  As  As9  1  0.00001300  0.77400700  0.07712500  1
  As  As10  1  0.50524800  0.25452200  0.42151700  1
  As  As11  1  0.49475200  0.25452200  0.92151700  1
loop_
_geom_bond_atom_site_label_1
_geom_bond_atom_site_label_2
_geom_bond_distance
_geom_bond_site_symmetry_2
In0 K8 3.585988 1_555
In1 K9 3.585988 1_555
As0 Nb0 2.556177 1_555
As0 In0 2.818981 1_555
As0 K6 3.304475 1_555
As0 K12 3.355433 1_655
As0 K18 3.407088 1_655
As0 K2 3.623009 1_555
As0 K16 3.650140 1_655
As0 K10 3.714255 1_555
As1 Nb1 2.556177 1_555
As1 In1 2.818981 1_556
As1 K7 3.304475 1_555
As1 K13 3.355433 1_455
As1 K19 3.407088 1_455
As1 K3 3.623009 1_556
As1 K17 3.650140 1_456
As1 K11 3.714255 1_555
As2 Nb0 2.561502 1_555
As2 In0 2.826889 1_555
As2 K16 3.305932 1_555
As2 K14 3.406886 1_555
As2 K4 3.408948 1_555
As2 K18 3.515845 1_555
As2 K0 3.657815 1_555
As3 Nb1 2.561502 1_554
As3 In1 2.826889 1_555
As3 K17 3.305932 1_555
As3 K15 3.406886 1_555
As3 K5 3.408948 1_555
As3 K19 3.515845 1_554
As3 K1 3.657815 1_554
As4 In0 2.737733 1_555
As4 K4 3.311977 1_555
As4 K13 3.312599 1_555
As4 K7 3.317908 1_645
As4 K11 3.362500 1_655
As4 K16 3.413704 1_655
As4 K2 3.447240 1_555
As4 K1 3.866827 1_645
As5 In1 2.737733 1_555
As5 K5 3.311977 1_555
As5 K12 3.312599 1_555
As5 K6 3.317908 1_445
As5 K10 3.362500 1_455
As5 K17 3.413704 1_455
As5 K3 3.447240 1_555
As5 K0 3.866827 1_445
As6 Nb0 2.526980 1_555
As6 K6 3.325300 1_555
As6 K9 3.357780 1_555
As6 K15 3.436590 1_555
As6 K18 3.453116 1_555
As6 K0 3.485811 1_555
As6 K5 3.527347 1_565
As7 Nb1 2.526980 1_555
As7 K7 3.325300 1_555
As7 K8 3.357780 1_555
As7 K14 3.436590 1_555
As7 K19 3.453116 1_555
As7 K1 3.485811 1_555
As7 K4 3.527347 1_565
As8 In0 2.739454 1_555
As8 K7 3.325894 1_655
As8 K12 3.331290 1_665
As8 K0 3.347547 1_555
As8 K18 3.481443 1_655
As8 K11 3.489845 1_655
As8 K8 3.582204 1_555
As8 K14 3.620947 1_655
As8 K2 3.693863 1_565
As9 In1 2.739454 1_555
As9 K6 3.325894 1_455
As9 K13 3.331290 1_464
As9 K1 3.347547 1_554
As9 K19 3.481443 1_454
As9 K10 3.489845 1_455
As9 K9 3.582204 1_555
As9 K15 3.620947 1_455
As9 K3 3.693863 1_565
As10 Nb0 2.542955 1_555
As10 K2 3.398277 1_555
As10 K9 3.477650 1_555
As10 K16 3.483226 1_555
As10 K5 3.509930 1_555
As10 K14 3.516460 1_545
As10 K10 3.596788 1_555
As10 K12 3.716965 1_555
As10 K0 3.913717 1_545
As11 Nb1 2.542955 1_555
As11 K3 3.398277 1_556
As11 K8 3.477650 1_555
As11 K17 3.483226 1_556
As11 K4 3.509930 1_555
As11 K15 3.516460 1_546
As11 K11 3.596788 1_555
As11 K13 3.716965 1_555
As11 K1 3.913717 1_545
