# generated using pymatgen
data_Mg6SiNi
_symmetry_space_group_name_H-M   'P 1'
_cell_length_a   4.70660800
_cell_length_b   6.15995000
_cell_length_c   10.33196900
_cell_angle_alpha   90.00000000
_cell_angle_beta   90.00000000
_cell_angle_gamma   90.00000000
_symmetry_Int_Tables_number   1
_chemical_formula_structural   Mg6SiNi
_chemical_formula_sum   'Mg12 Si2 Ni2'
_cell_volume   299.54930075
_cell_formula_units_Z   2
loop_
 _symmetry_equiv_pos_site_id
 _symmetry_equiv_pos_as_xyz
  1  'x, y, z'
loop_
 _atom_site_type_symbol
 _atom_site_label
 _atom_site_symmetry_multiplicity
 _atom_site_fract_x
 _atom_site_fract_y
 _atom_site_fract_z
 _atom_site_occupancy
  Mg  Mg0  1  0.50000000  0.25155200  0.08477800  1
  Mg  Mg1  1  0.50000000  0.74844800  0.08477800  1
  Mg  Mg2  1  0.00000000  0.24200600  0.91083300  1
  Mg  Mg3  1  0.00000000  0.75799400  0.91083300  1
  Mg  Mg4  1  0.00000000  0.50000000  0.17440900  1
  Mg  Mg5  1  0.00000000  0.50000000  0.66981400  1
  Mg  Mg6  1  0.50000000  0.75155200  0.58477800  1
  Mg  Mg7  1  0.50000000  0.24844800  0.58477800  1
  Mg  Mg8  1  0.00000000  0.74200600  0.41083300  1
  Mg  Mg9  1  0.00000000  0.25799400  0.41083300  1
  Mg  Mg10  1  0.00000000  0.00000000  0.67440900  1
  Mg  Mg11  1  0.00000000  0.00000000  0.16981400  1
  Si  Si0  1  0.50000000  0.50000000  0.83151600  1
  Si  Si1  1  0.50000000  0.00000000  0.33151600  1
  Ni  Ni0  1  0.50000000  0.50000000  0.33304400  1
  Ni  Ni1  1  0.50000000  0.00000000  0.83304400  1
loop_
_geom_bond_atom_site_label_1
_geom_bond_atom_site_label_2
_geom_bond_distance
_geom_bond_site_symmetry_2
Mg0 Mg11 2.951450 1_555
Mg0 Mg11 2.951450 1_655
Mg0 Mg4 2.955984 1_555
Mg0 Mg4 2.955984 1_655
Mg0 Mg2 2.961656 1_654
Mg0 Mg2 2.961656 1_554
Mg0 Si1 2.983283 1_555
Mg0 Ni0 2.986943 1_555
Mg0 Ni1 3.027511 1_554
Mg0 Si0 3.031386 1_554
Mg0 Mg1 3.060855 1_555
Mg0 Mg1 3.099095 1_545
Mg1 Mg11 2.951450 1_665
Mg1 Mg11 2.951450 1_565
Mg1 Mg4 2.955984 1_555
Mg1 Mg4 2.955984 1_655
Mg1 Mg3 2.961656 1_554
Mg1 Mg3 2.961656 1_654
Mg1 Si1 2.983283 1_565
Mg1 Ni0 2.986943 1_555
Mg1 Ni1 3.027511 1_564
Mg1 Si0 3.031386 1_554
Mg2 Ni1 2.899365 1_555
Mg2 Ni1 2.899365 1_455
Mg2 Si0 2.955550 1_555
Mg2 Si0 2.955550 1_455
Mg3 Ni1 2.899365 1_465
Mg3 Ni1 2.899365 1_565
Mg3 Si0 2.955550 1_555
Mg3 Si0 2.955550 1_455
Mg4 Ni0 2.867821 1_555
Mg4 Ni0 2.867821 1_455
Mg5 Si0 2.886049 1_555
Mg5 Si0 2.886049 1_455
Mg5 Mg7 2.951450 1_455
Mg5 Mg7 2.951450 1_555
Mg5 Mg6 2.951450 1_455
Mg5 Mg6 2.951450 1_555
Mg6 Mg8 2.961656 1_555
Mg6 Mg8 2.961656 1_655
Mg6 Si0 2.983283 1_555
Mg6 Ni1 2.986943 1_565
Mg6 Ni0 3.027511 1_555
Mg6 Si1 3.031386 1_565
Mg6 Mg7 3.060855 1_565
Mg6 Mg7 3.099095 1_555
Mg7 Mg9 2.961656 1_555
Mg7 Mg9 2.961656 1_655
Mg7 Si0 2.983283 1_555
Mg7 Ni1 2.986943 1_555
Mg7 Ni0 3.027511 1_555
Mg7 Si1 3.031386 1_555
Mg8 Ni0 2.899365 1_455
Mg8 Ni0 2.899365 1_555
Mg8 Si1 2.955550 1_465
Mg8 Si1 2.955550 1_565
Mg9 Ni0 2.899365 1_455
Mg9 Ni0 2.899365 1_555
Mg9 Si1 2.955550 1_555
Mg9 Si1 2.955550 1_455
Mg10 Ni1 2.867821 1_555
Mg10 Ni1 2.867821 1_455
Mg10 Mg7 2.955984 1_455
Mg10 Mg6 2.955984 1_545
Mg10 Mg7 2.955984 1_555
Mg10 Mg6 2.955984 1_445
Mg11 Si1 2.886049 1_455
Mg11 Si1 2.886049 1_555
