# generated using pymatgen
data_K4MgV6O16
_symmetry_space_group_name_H-M   'P 1'
_cell_length_a   5.49975016
_cell_length_b   8.99716087
_cell_length_c   9.12240036
_cell_angle_alpha   86.00191119
_cell_angle_beta   91.28041364
_cell_angle_gamma   95.58007694
_symmetry_Int_Tables_number   1
_chemical_formula_structural   K4MgV6O16
_chemical_formula_sum   'K4 Mg1 V6 O16'
_cell_volume   448.10841569
_cell_formula_units_Z   1
loop_
 _symmetry_equiv_pos_site_id
 _symmetry_equiv_pos_as_xyz
  1  'x, y, z'
loop_
 _atom_site_type_symbol
 _atom_site_label
 _atom_site_symmetry_multiplicity
 _atom_site_fract_x
 _atom_site_fract_y
 _atom_site_fract_z
 _atom_site_occupancy
  K  K0  1  0.22161600  0.61474200  0.17995700  1
  K  K1  1  0.18874600  0.77535400  0.61975800  1
  K  K2  1  0.12481800  0.24847000  0.42240300  1
  K  K3  1  0.17725800  0.31104400  0.84777200  1
  Mg  Mg0  1  0.16852800  0.01717800  0.17182100  1
  V  V0  1  0.64015100  0.88848200  0.35929700  1
  V  V1  1  0.63915800  0.34261200  0.14476600  1
  V  V2  1  0.60826800  0.13128200  0.64593800  1
  V  V3  1  0.69879700  0.62627900  0.87086800  1
  V  V4  1  0.61953200  0.98933800  0.00168600  1
  V  V5  1  0.65725100  0.51024200  0.50203600  1
  O  O0  1  0.96218700  0.51202200  0.49844200  1
  O  O1  1  0.92624400  0.03771800  0.01103200  1
  O  O2  1  0.55486400  0.47899900  0.00101700  1
  O  O3  1  0.50818500  0.01158900  0.50386000  1
  O  O4  1  0.00175800  0.62300400  0.88265300  1
  O  O5  1  0.91151200  0.13975900  0.66081700  1
  O  O6  1  0.96636200  0.94636400  0.33664800  1
  O  O7  1  0.94166000  0.33111900  0.14562500  1
  O  O8  1  0.59445600  0.59219600  0.69440700  1
  O  O9  1  0.55597100  0.40521200  0.30917000  1
  O  O10  1  0.46901100  0.17093000  0.10533500  1
  O  O11  1  0.44849700  0.89243600  0.16646200  1
  O  O12  1  0.48029000  0.07061800  0.82081000  1
  O  O13  1  0.61038400  0.79613600  0.91778100  1
  O  O14  1  0.51877200  0.31235100  0.59811400  1
  O  O15  1  0.53961100  0.68166900  0.41009500  1
loop_
_geom_bond_atom_site_label_1
_geom_bond_atom_site_label_2
_geom_bond_distance
_geom_bond_site_symmetry_2
K0 O11 2.678081 1_555
K0 O15 2.763356 1_555
K0 O7 2.882053 1_455
K0 O2 2.891761 1_555
K0 O9 2.931239 1_555
K0 O4 2.943813 1_554
K0 O0 3.299289 1_455
K1 O3 2.786624 1_565
K1 O4 2.840010 1_555
K1 O0 2.849654 1_455
K1 O8 2.940869 1_555
K1 O15 2.966197 1_555
K1 O6 3.194354 1_455
K2 O5 2.580187 1_455
K2 O14 2.706491 1_555
K2 O0 2.751981 1_455
K2 O7 2.777204 1_455
K2 O9 2.816828 1_555
K2 O6 2.926580 1_445
K2 O3 3.181650 1_555
K3 O5 2.690121 1_455
K3 O2 2.846955 1_556
K3 O12 2.882861 1_555
K3 O14 2.982950 1_555
K3 O1 3.015345 1_456
K3 O7 3.060335 1_456
K3 O10 3.081600 1_556
K3 O4 3.094488 1_555
Mg0 O6 1.925200 1_445
Mg0 O1 1.970762 1_455
Mg0 O11 1.994980 1_545
Mg0 O10 2.120308 1_555
O0 V5 1.676622 1_555
O1 V4 1.702387 1_545
O2 V1 1.816414 1_555
O2 V3 1.846824 1_554
O3 V2 1.786061 1_555
O3 V0 1.973700 1_545
O4 V3 1.670264 1_455
O5 V2 1.665015 1_555
O6 V0 1.830977 1_555
O7 V1 1.676712 1_555
O8 V3 1.734346 1_555
O8 V5 1.999908 1_555
O9 V1 1.724638 1_555
O9 V5 2.093898 1_555
O10 V1 1.781103 1_555
O10 V4 2.182222 1_545
O11 V4 1.904037 1_555
O11 V0 2.030389 1_555
O12 V2 1.786669 1_555
O12 V4 1.930798 1_546
O13 V3 1.732077 1_555
O13 V4 1.943393 1_556
O14 V2 1.770260 1_555
O14 V5 2.016623 1_555
O15 V5 1.868245 1_555
O15 V0 1.916748 1_555
