# generated using pymatgen
data_Rb2ScSi4O10F
_symmetry_space_group_name_H-M   'P 1'
_cell_length_a   8.51864900
_cell_length_b   11.66905715
_cell_length_c   11.84058288
_cell_angle_alpha   111.25611096
_cell_angle_beta   90.00000000
_cell_angle_gamma   90.00000000
_symmetry_Int_Tables_number   1
_chemical_formula_structural   Rb2ScSi4O10F
_chemical_formula_sum   'Rb8 Sc4 Si16 O40 F4'
_cell_volume   1096.93561329
_cell_formula_units_Z   4
loop_
 _symmetry_equiv_pos_site_id
 _symmetry_equiv_pos_as_xyz
  1  'x, y, z'
loop_
 _atom_site_type_symbol
 _atom_site_label
 _atom_site_symmetry_multiplicity
 _atom_site_fract_x
 _atom_site_fract_y
 _atom_site_fract_z
 _atom_site_occupancy
  Rb  Rb0  1  0.25000000  0.55457000  0.44841500  1
  Rb  Rb1  1  0.75000000  0.44543000  0.55158500  1
  Rb  Rb2  1  0.75000000  0.92019200  0.91943800  1
  Rb  Rb3  1  0.25000000  0.07980800  0.08056200  1
  Rb  Rb4  1  0.25000000  0.98860400  0.47190100  1
  Rb  Rb5  1  0.75000000  0.01139600  0.52809900  1
  Rb  Rb6  1  0.75000000  0.52958900  0.96596600  1
  Rb  Rb7  1  0.25000000  0.47041100  0.03403400  1
  Sc  Sc0  1  0.50359200  0.70647700  0.29140200  1
  Sc  Sc1  1  0.00359200  0.29352300  0.70859800  1
  Sc  Sc2  1  0.49640800  0.29352300  0.70859800  1
  Sc  Sc3  1  0.99640800  0.70647700  0.29140200  1
  Si  Si0  1  0.43928600  0.60983900  0.77050700  1
  Si  Si1  1  0.93928600  0.39016100  0.22949300  1
  Si  Si2  1  0.56071400  0.39016100  0.22949300  1
  Si  Si3  1  0.06071400  0.60983900  0.77050700  1
  Si  Si4  1  0.56645700  0.97908800  0.24628700  1
  Si  Si5  1  0.06645700  0.02091200  0.75371300  1
  Si  Si6  1  0.43354300  0.02091200  0.75371300  1
  Si  Si7  1  0.93354300  0.97908800  0.24628700  1
  Si  Si8  1  0.93723800  0.75627000  0.60910300  1
  Si  Si9  1  0.43723800  0.24373000  0.39089700  1
  Si  Si10  1  0.06276200  0.24373000  0.39089700  1
  Si  Si11  1  0.56276200  0.75627000  0.60910300  1
  Si  Si12  1  0.43685200  0.77125100  0.03808000  1
  Si  Si13  1  0.93685200  0.22874900  0.96192000  1
  Si  Si14  1  0.56314800  0.22874900  0.96192000  1
  Si  Si15  1  0.06314800  0.77125100  0.03808000  1
  O  O0  1  0.25000000  0.59944400  0.78394400  1
  O  O1  1  0.75000000  0.40055600  0.21605600  1
  O  O2  1  0.25000000  0.27701400  0.38587200  1
  O  O3  1  0.75000000  0.72298600  0.61412800  1
  O  O4  1  0.50232700  0.71987600  0.89660900  1
  O  O5  1  0.00232700  0.28012400  0.10339100  1
  O  O6  1  0.49767300  0.28012400  0.10339100  1
  O  O7  1  0.99767300  0.71987600  0.89660900  1
  O  O8  1  0.47110500  0.65767500  0.65708800  1
  O  O9  1  0.97110500  0.34232500  0.34291200  1
  O  O10  1  0.52889500  0.34232500  0.34291200  1
  O  O11  1  0.02889500  0.65767500  0.65708800  1
  O  O12  1  0.75000000  0.02586500  0.25529600  1
  O  O13  1  0.25000000  0.97413500  0.74470400  1
  O  O14  1  0.45737300  0.10427800  0.28719700  1
  O  O15  1  0.95737300  0.89572200  0.71280300  1
  O  O16  1  0.54262700  0.89572200  0.71280300  1
  O  O17  1  0.04262700  0.10427800  0.28719700  1
  O  O18  1  0.52566300  0.90695100  0.10007700  1
  O  O19  1  0.02566300  0.09304900  0.89992300  1
  O  O20  1  0.47433700  0.09304900  0.89992300  1
  O  O21  1  0.97433700  0.90695100  0.10007700  1
  O  O22  1  0.25000000  0.80575800  0.03529600  1
  O  O23  1  0.75000000  0.19424200  0.96470400  1
  O  O24  1  0.52563700  0.48206400  0.74899400  1
  O  O25  1  0.02563700  0.51793600  0.25100600  1
  O  O26  1  0.47436300  0.51793600  0.25100600  1
  O  O27  1  0.97436300  0.48206400  0.74899400  1
  O  O28  1  0.52852900  0.89588000  0.32420800  1
  O  O29  1  0.02852900  0.10412000  0.67579200  1
  O  O30  1  0.47147100  0.10412000  0.67579200  1
  O  O31  1  0.97147100  0.89588000  0.32420800  1
  O  O32  1  0.47566500  0.67906500  0.10620100  1
  O  O33  1  0.97566500  0.32093500  0.89379900  1
  O  O34  1  0.52433500  0.32093500  0.89379900  1
  O  O35  1  0.02433500  0.67906500  0.10620100  1
  O  O36  1  0.50296600  0.74602600  0.47844100  1
  O  O37  1  0.00296600  0.25397400  0.52155900  1
  O  O38  1  0.49703400  0.25397400  0.52155900  1
  O  O39  1  0.99703400  0.74602600  0.47844100  1
  F  F0  1  0.25000000  0.72418200  0.30706700  1
  F  F1  1  0.75000000  0.27581800  0.69293300  1
  F  F2  1  0.75000000  0.68797000  0.27452900  1
  F  F3  1  0.25000000  0.31203000  0.72547100  1
loop_
_geom_bond_atom_site_label_1
_geom_bond_atom_site_label_2
_geom_bond_distance
_geom_bond_site_symmetry_2
O0 Si0 1.629126 1_555
O0 Si3 1.629126 1_555
O1 Si1 1.629126 1_555
O1 Si2 1.629126 1_555
O2 Si9 1.647792 1_555
O2 Si10 1.647792 1_555
O2 Rb0 3.049468 1_555
O3 Si8 1.647792 1_555
O3 Si11 1.647792 1_555
O3 Rb1 3.049468 1_555
O4 Si12 1.657805 1_556
O4 Si0 1.666257 1_555
O4 Rb2 3.087111 1_555
O5 Si13 1.657805 1_454
O5 Si1 1.666257 1_455
O5 Rb3 3.087111 1_555
O6 Si14 1.657805 1_554
O6 Si2 1.666257 1_555
O6 Rb3 3.087111 1_555
O7 Si15 1.657805 1_656
O7 Si3 1.666257 1_655
O7 Rb2 3.087111 1_555
O8 Si11 1.652302 1_555
O8 Si0 1.652909 1_555
O8 Rb0 2.990757 1_555
O8 Rb1 3.331023 1_555
O9 Si10 1.652302 1_655
O9 Si1 1.652909 1_555
O9 Rb1 2.990757 1_555
O9 Rb0 3.331023 1_655
O10 Si9 1.652302 1_555
O10 Si2 1.652909 1_555
O10 Rb1 2.990757 1_555
O10 Rb0 3.331023 1_555
O11 Si8 1.652302 1_455
O11 Si3 1.652909 1_555
O11 Rb0 2.990757 1_555
O11 Rb1 3.331023 1_455
O12 Si4 1.646742 1_545
O12 Si7 1.646742 1_545
O13 Si6 1.646742 1_565
O13 Si5 1.646742 1_565
O14 Si4 1.648981 1_545
O14 Si9 1.654190 1_555
O14 Rb3 2.946501 1_555
O15 Si5 1.648981 1_665
O15 Si8 1.654190 1_555
O15 Rb2 2.946501 1_555
O16 Si6 1.648981 1_565
O16 Si11 1.654190 1_555
O16 Rb2 2.946501 1_555
O17 Si7 1.648981 1_445
O17 Si10 1.654190 1_555
O17 Rb3 2.946501 1_555
O18 Si4 1.664270 1_555
O18 Si12 1.666089 1_555
O18 Rb2 2.913824 1_554
O18 Rb3 3.158219 1_565
O19 Si5 1.664270 1_555
O19 Si13 1.666089 1_455
O19 Rb3 2.913824 1_556
O19 Rb2 3.158219 1_445
O20 Si6 1.664270 1_555
O20 Si14 1.666089 1_555
O20 Rb3 2.913824 1_556
O20 Rb2 3.158219 1_545
O21 Si7 1.664270 1_555
O21 Si15 1.666089 1_655
O21 Rb2 2.913824 1_554
O21 Rb3 3.158219 1_665
O22 Si12 1.645127 1_555
O22 Si15 1.645127 1_555
O22 Rb3 3.044846 1_565
O23 Si13 1.645127 1_555
O23 Si14 1.645127 1_555
O23 Rb2 3.044846 1_545
O24 Si0 1.598037 1_555
O24 Sc2 2.090019 1_555
O24 Rb1 2.928276 1_555
O24 Rb6 3.086682 1_555
O25 Si1 1.598037 1_455
O25 Sc3 2.090019 1_455
O25 Rb0 2.928276 1_555
O25 Rb7 3.086682 1_555
O26 Si2 1.598037 1_555
O26 Sc0 2.090019 1_555
O26 Rb0 2.928276 1_555
O26 Rb7 3.086682 1_555
O27 Si3 1.598037 1_655
O27 Sc1 2.090019 1_655
O27 Rb1 2.928276 1_555
O27 Rb6 3.086682 1_555
O28 Si4 1.596229 1_555
O28 Sc0 2.111470 1_555
O28 Rb4 2.913181 1_555
O28 Rb5 2.974076 1_565
O29 Si5 1.596229 1_555
O29 Sc1 2.111470 1_555
O29 Rb5 2.913181 1_455
O29 Rb4 2.974076 1_545
O30 Si6 1.596229 1_555
O30 Sc2 2.111470 1_555
O30 Rb5 2.913181 1_555
O30 Rb4 2.974076 1_545
O31 Si7 1.596229 1_555
O31 Sc3 2.111470 1_555
O31 Rb4 2.913181 1_655
O31 Rb5 2.974076 1_565
O32 Si12 1.595687 1_555
O32 Sc0 2.111652 1_555
O32 Rb7 2.974110 1_555
O32 Rb6 3.026702 1_554
O33 Si13 1.595687 1_555
O33 Sc1 2.111652 1_655
O33 Rb6 2.974110 1_555
O33 Rb7 3.026702 1_656
O34 Si14 1.595687 1_555
O34 Sc2 2.111652 1_555
O34 Rb6 2.974110 1_555
O34 Rb7 3.026702 1_556
O35 Si15 1.595687 1_555
O35 Sc3 2.111652 1_455
O35 Rb7 2.974110 1_555
O35 Rb6 3.026702 1_454
O36 Si11 1.591611 1_555
O36 Sc0 2.092037 1_555
O36 Rb0 3.030751 1_555
O37 Si10 1.591611 1_555
O37 Sc1 2.092037 1_555
O37 Rb1 3.030751 1_455
O38 Si9 1.591611 1_555
O38 Sc2 2.092037 1_555
O38 Rb1 3.030751 1_555
O39 Si8 1.591611 1_555
O39 Sc3 2.092037 1_555
O39 Rb0 3.030751 1_655
F0 Sc0 2.171642 1_555
F0 Sc3 2.171642 1_455
F0 Rb4 2.993890 1_555
F0 Rb0 3.019961 1_555
F1 Sc1 2.171642 1_655
F1 Sc2 2.171642 1_555
F1 Rb5 2.993890 1_555
F1 Rb1 3.019961 1_555
F2 Sc3 2.112187 1_555
F2 Sc0 2.112187 1_555
F3 Sc2 2.112187 1_555
F3 Sc1 2.112187 1_555
