# generated using pymatgen
data_Nd4CrS7
_symmetry_space_group_name_H-M   'P 1'
_cell_length_a   9.91513493
_cell_length_b   9.91513493
_cell_length_c   6.74063100
_cell_angle_alpha   90.00000000
_cell_angle_beta   90.00000000
_cell_angle_gamma   120.00000621
_symmetry_Int_Tables_number   1
_chemical_formula_structural   Nd4CrS7
_chemical_formula_sum   'Nd8 Cr2 S14'
_cell_volume   573.88968021
_cell_formula_units_Z   2
loop_
 _symmetry_equiv_pos_site_id
 _symmetry_equiv_pos_as_xyz
  1  'x, y, z'
loop_
 _atom_site_type_symbol
 _atom_site_label
 _atom_site_symmetry_multiplicity
 _atom_site_fract_x
 _atom_site_fract_y
 _atom_site_fract_z
 _atom_site_occupancy
  Nd  Nd0  1  0.66666700  0.33333300  0.82741200  1
  Nd  Nd1  1  0.33333300  0.66666700  0.32741200  1
  Nd  Nd2  1  0.62562900  0.85449000  0.78045500  1
  Nd  Nd3  1  0.22886000  0.37437100  0.78045500  1
  Nd  Nd4  1  0.37437100  0.14551000  0.28045500  1
  Nd  Nd5  1  0.14551000  0.77114000  0.78045500  1
  Nd  Nd6  1  0.77114000  0.62562900  0.28045500  1
  Nd  Nd7  1  0.85449000  0.22886000  0.28045500  1
  Cr  Cr0  1  0.00000000  0.00000000  0.97225500  1
  Cr  Cr1  1  0.00000000  0.00000000  0.47225500  1
  S  S0  1  0.49491900  0.56690500  0.53885400  1
  S  S1  1  0.07198500  0.50508100  0.53885400  1
  S  S2  1  0.50508100  0.43309500  0.03885400  1
  S  S3  1  0.43309500  0.92801500  0.53885400  1
  S  S4  1  0.92801500  0.49491900  0.03885400  1
  S  S5  1  0.56690500  0.07198500  0.03885400  1
  S  S6  1  0.66666700  0.33333300  0.43540500  1
  S  S7  1  0.33333300  0.66666700  0.93540500  1
  S  S8  1  0.90644700  0.13648800  0.70366700  1
  S  S9  1  0.23004100  0.09355300  0.70366700  1
  S  S10  1  0.09355300  0.86351200  0.20366700  1
  S  S11  1  0.86351200  0.76995900  0.70366700  1
  S  S12  1  0.76995900  0.90644700  0.20366700  1
  S  S13  1  0.13648800  0.23004100  0.20366700  1
loop_
_geom_bond_atom_site_label_1
_geom_bond_atom_site_label_2
_geom_bond_distance
_geom_bond_site_symmetry_2
Nd0 S6 2.642375 1_555
Nd0 S4 2.676082 1_556
Nd0 S5 2.676082 1_556
Nd0 S2 2.676082 1_556
Nd1 S7 2.642375 1_554
Nd1 S1 2.676082 1_555
Nd1 S3 2.676082 1_555
Nd1 S0 2.676082 1_555
Nd2 S7 2.749748 1_555
Nd2 S8 2.837819 1_565
Nd2 S3 2.866980 1_555
Nd2 S11 2.917265 1_555
Nd2 S0 2.960917 1_555
Nd2 S5 3.046126 1_566
Nd2 S12 3.116740 1_556
Nd3 S7 2.749748 1_555
Nd3 S9 2.837824 1_555
Nd3 S0 2.866980 1_555
Nd3 S8 2.917258 1_455
Nd3 S1 2.960917 1_555
Nd3 S2 3.046142 1_556
Nd3 S13 3.116739 1_556
Nd4 S6 2.749748 1_555
Nd4 S10 2.837819 1_545
Nd4 S5 2.866980 1_555
Nd4 S13 2.917265 1_555
Nd4 S2 2.960917 1_555
Nd4 S3 3.046126 1_545
Nd4 S9 3.116740 1_555
Nd5 S7 2.749749 1_555
Nd5 S11 2.837814 1_455
Nd5 S1 2.866980 1_555
Nd5 S9 2.917256 1_565
Nd5 S3 2.960917 1_555
Nd5 S4 3.046137 1_456
Nd5 S10 3.116736 1_556
Nd6 S6 2.749748 1_555
Nd6 S12 2.837824 1_555
Nd6 S2 2.866980 1_555
Nd6 S10 2.917258 1_655
Nd6 S4 2.960917 1_555
Nd6 S0 3.046142 1_555
Nd6 S11 3.116739 1_555
Nd7 S6 2.749749 1_555
Nd7 S13 2.837814 1_655
Nd7 S4 2.866980 1_555
Nd7 S12 2.917256 1_545
Nd7 S5 2.960917 1_555
Nd7 S1 3.046137 1_655
Nd7 S8 3.116736 1_555
Cr0 S13 2.525928 1_556
Cr0 S12 2.525928 1_446
Cr0 S10 2.525929 1_546
Cr0 S11 2.687914 1_445
Cr0 S9 2.687914 1_555
Cr0 S8 2.687914 1_455
Cr1 S11 2.525928 1_445
Cr1 S9 2.525928 1_555
Cr1 S8 2.525929 1_455
Cr1 S13 2.687914 1_555
Cr1 S12 2.687914 1_445
Cr1 S10 2.687914 1_545
