# generated using pymatgen
data_YPOs2C
_symmetry_space_group_name_H-M   'P 1'
_cell_length_a   5.89401901
_cell_length_b   5.89401901
_cell_length_c   7.05175000
_cell_angle_alpha   90.00000000
_cell_angle_beta   90.00000000
_cell_angle_gamma   142.01173862
_symmetry_Int_Tables_number   1
_chemical_formula_structural   YPOs2C
_chemical_formula_sum   'Y2 P2 Os4 C2'
_cell_volume   150.78149353
_cell_formula_units_Z   2
loop_
 _symmetry_equiv_pos_site_id
 _symmetry_equiv_pos_as_xyz
  1  'x, y, z'
loop_
 _atom_site_type_symbol
 _atom_site_label
 _atom_site_symmetry_multiplicity
 _atom_site_fract_x
 _atom_site_fract_y
 _atom_site_fract_z
 _atom_site_occupancy
  Y  Y0  1  0.54403200  0.45596800  0.25000000  1
  Y  Y1  1  0.45596800  0.54403200  0.75000000  1
  P  P0  1  0.26859900  0.73140100  0.25000000  1
  P  P1  1  0.73140100  0.26859900  0.75000000  1
  Os  Os0  1  0.83415400  0.16584600  0.05203000  1
  Os  Os1  1  0.16584600  0.83415400  0.94797000  1
  Os  Os2  1  0.16584600  0.83415400  0.55203000  1
  Os  Os3  1  0.83415400  0.16584600  0.44797000  1
  C  C0  1  0.00000000  0.00000000  0.00000000  1
  C  C1  1  0.00000000  0.00000000  0.50000000  1
loop_
_geom_bond_atom_site_label_1
_geom_bond_atom_site_label_2
_geom_bond_distance
_geom_bond_site_symmetry_2
P0 Y0 3.070032 1_555
P0 Y0 3.153627 1_565
P0 Y0 3.153627 1_455
P1 Y1 3.070032 1_555
P1 Y1 3.153627 1_545
P1 Y1 3.153627 1_655
Os0 P1 2.418252 1_554
Os0 P0 2.482504 1_545
Os0 P0 2.482504 1_655
Os1 P0 2.418252 1_556
Os1 P1 2.482504 1_565
Os1 P1 2.482504 1_455
Os2 P0 2.418252 1_555
Os2 P1 2.482504 1_565
Os2 P1 2.482504 1_455
Os3 P1 2.418252 1_555
Os3 P0 2.482504 1_545
Os3 P0 2.482504 1_655
C0 Os1 1.884613 1_544
C0 Os0 1.884613 1_455
C0 Y0 2.651194 1_555
C0 Y1 2.651194 1_554
C0 Y0 2.651194 1_445
C0 Y1 2.651194 1_444
C1 Os2 1.884613 1_545
C1 Os3 1.884613 1_455
C1 Y0 2.651194 1_555
C1 Y1 2.651194 1_555
C1 Y0 2.651194 1_445
C1 Y1 2.651194 1_445
