# generated using pymatgen
data_NbSN
_symmetry_space_group_name_H-M   'P 1'
_cell_length_a   3.59217600
_cell_length_b   3.59217600
_cell_length_c   6.12231600
_cell_angle_alpha   90.00000000
_cell_angle_beta   90.00000000
_cell_angle_gamma   90.00000000
_symmetry_Int_Tables_number   1
_chemical_formula_structural   NbSN
_chemical_formula_sum   'Nb2 S2 N2'
_cell_volume   79.00070293
_cell_formula_units_Z   2
loop_
 _symmetry_equiv_pos_site_id
 _symmetry_equiv_pos_as_xyz
  1  'x, y, z'
loop_
 _atom_site_type_symbol
 _atom_site_label
 _atom_site_symmetry_multiplicity
 _atom_site_fract_x
 _atom_site_fract_y
 _atom_site_fract_z
 _atom_site_occupancy
  Nb  Nb0  1  0.50000000  0.00000000  0.18608200  1
  Nb  Nb1  1  0.00000000  0.50000000  0.81391800  1
  S  S0  1  0.50000000  0.00000000  0.61646000  1
  S  S1  1  0.00000000  0.50000000  0.38354000  1
  N  N0  1  0.50000000  0.50000000  0.00000000  1
  N  N1  1  0.00000000  0.00000000  0.00000000  1
loop_
_geom_bond_atom_site_label_1
_geom_bond_atom_site_label_2
_geom_bond_distance
_geom_bond_site_symmetry_2
Nb0 S0 2.634910 1_555
Nb0 S1 2.813060 1_645
Nb0 S1 2.813060 1_555
Nb0 S1 2.813060 1_545
Nb0 S1 2.813060 1_655
Nb1 S1 2.634910 1_555
Nb1 S0 2.813060 1_565
Nb1 S0 2.813060 1_465
Nb1 S0 2.813060 1_455
Nb1 S0 2.813060 1_555
N0 Nb0 2.126929 1_565
N0 Nb0 2.126929 1_555
N0 Nb1 2.126929 1_554
N0 Nb1 2.126929 1_654
N1 Nb0 2.126929 1_455
N1 Nb0 2.126929 1_555
N1 Nb1 2.126929 1_544
N1 Nb1 2.126929 1_554
