# generated using pymatgen
data_Ca2CrWO6
_symmetry_space_group_name_H-M   'P 1'
_cell_length_a   5.45654707
_cell_length_b   5.57965800
_cell_length_c   7.84476353
_cell_angle_alpha   90.00004258
_cell_angle_beta   90.68999050
_cell_angle_gamma   89.99993754
_symmetry_Int_Tables_number   1
_chemical_formula_structural   Ca2CrWO6
_chemical_formula_sum   'Ca4 Cr2 W2 O12'
_cell_volume   238.82173566
_cell_formula_units_Z   2
loop_
 _symmetry_equiv_pos_site_id
 _symmetry_equiv_pos_as_xyz
  1  'x, y, z'
loop_
 _atom_site_type_symbol
 _atom_site_label
 _atom_site_symmetry_multiplicity
 _atom_site_fract_x
 _atom_site_fract_y
 _atom_site_fract_z
 _atom_site_occupancy
  Ca  Ca0  1  0.98955600  0.04840800  0.25386700  1
  Ca  Ca1  1  0.51044100  0.54843100  0.24613500  1
  Ca  Ca2  1  0.01040900  0.95156700  0.74613300  1
  Ca  Ca3  1  0.48958300  0.45159200  0.75387300  1
  Cr  Cr0  1  0.50003700  0.99998700  0.00001000  1
  Cr  Cr1  1  0.99995200  0.49998400  0.49998800  1
  W  W0  1  0.50000400  0.99997500  0.50002000  1
  W  W1  1  0.00004100  0.50005500  0.99992200  1
  O  O0  1  0.69734800  0.28748800  0.45484300  1
  O  O1  1  0.80265200  0.78750300  0.04516100  1
  O  O2  1  0.30269700  0.71250800  0.54518200  1
  O  O3  1  0.19728900  0.21251700  0.95482600  1
  O  O4  1  0.20250800  0.20784500  0.54833100  1
  O  O5  1  0.29748900  0.70784400  0.95168100  1
  O  O6  1  0.79753000  0.79216600  0.45170800  1
  O  O7  1  0.70245900  0.29217000  0.04830300  1
  O  O8  1  0.08955500  0.47274300  0.25186300  1
  O  O9  1  0.41045200  0.97273900  0.24814600  1
  O  O10  1  0.58951000  0.02723800  0.75184700  1
  O  O11  1  0.91049100  0.52723900  0.74816000  1
loop_
_geom_bond_atom_site_label_1
_geom_bond_atom_site_label_2
_geom_bond_distance
_geom_bond_site_symmetry_2
Ca0 O9 2.336087 1_645
Ca0 O6 2.364312 1_545
Ca0 O1 2.408257 1_545
Ca0 O8 2.429800 1_655
Ca0 O7 2.616035 1_555
Ca0 O0 2.620689 1_555
Ca0 O4 2.722692 1_655
Ca0 O3 2.773195 1_654
Ca1 O8 2.336055 1_555
Ca1 O7 2.364307 1_555
Ca1 O0 2.408403 1_555
Ca1 O9 2.429640 1_555
Ca1 O6 2.615974 1_555
Ca1 O1 2.620669 1_555
Ca1 O5 2.722583 1_554
Ca1 O2 2.773200 1_555
Ca2 O10 2.336104 1_465
Ca2 O4 2.364411 1_565
Ca2 O3 2.408286 1_565
Ca2 O11 2.429664 1_455
Ca2 O5 2.615790 1_555
Ca2 O2 2.620778 1_555
Ca2 O6 2.722203 1_455
Ca2 O1 2.773080 1_456
Ca3 O11 2.336128 1_555
Ca3 O5 2.364339 1_555
Ca3 O2 2.408174 1_555
Ca3 O10 2.429816 1_555
Ca3 O4 2.615816 1_555
Ca3 O3 2.620856 1_555
Ca3 O7 2.722267 1_556
Ca3 O0 2.773184 1_555
Cr0 O7 2.002809 1_565
Cr0 O5 2.003056 1_554
Cr0 O9 2.018442 1_555
Cr0 O10 2.018494 1_564
Cr0 O1 2.059989 1_555
Cr0 O3 2.060759 1_564
Cr1 O6 2.002784 1_555
Cr1 O4 2.003081 1_655
Cr1 O8 2.018381 1_655
Cr1 O11 2.018547 1_555
Cr1 O0 2.059974 1_555
Cr1 O2 2.060742 1_655
O0 W0 1.966689 1_545
O1 W1 1.966617 1_654
O2 W0 1.966347 1_555
O3 W1 1.966394 1_555
O4 W0 2.034401 1_545
O5 W1 2.033829 1_555
O6 W0 2.034340 1_555
O7 W1 2.034934 1_654
O8 W1 2.035871 1_554
O9 W0 2.035378 1_555
O10 W0 2.034975 1_545
O11 W1 2.034503 1_655
