# generated using pymatgen
data_Li7Mn4CoO12
_symmetry_space_group_name_H-M   'P 1'
_cell_length_a   5.93090731
_cell_length_b   10.36884113
_cell_length_c   8.02096910
_cell_angle_alpha   110.16932370
_cell_angle_beta   75.24929671
_cell_angle_gamma   82.80173089
_symmetry_Int_Tables_number   1
_chemical_formula_structural   Li7Mn4CoO12
_chemical_formula_sum   'Li14 Mn8 Co2 O24'
_cell_volume   435.24274265
_cell_formula_units_Z   2
loop_
 _symmetry_equiv_pos_site_id
 _symmetry_equiv_pos_as_xyz
  1  'x, y, z'
loop_
 _atom_site_type_symbol
 _atom_site_label
 _atom_site_symmetry_multiplicity
 _atom_site_fract_x
 _atom_site_fract_y
 _atom_site_fract_z
 _atom_site_occupancy
  Li  Li0  1  0.75088500  0.16575800  0.83254300  1
  Li  Li1  1  0.24917500  0.16753800  0.83407700  1
  Li  Li2  1  0.88953500  0.08966600  0.44179500  1
  Li  Li3  1  0.38993800  0.08858200  0.44123200  1
  Li  Li4  1  0.61004000  0.24480600  0.22545500  1
  Li  Li5  1  0.11049700  0.24369600  0.22488500  1
  Li  Li6  1  0.87781200  0.40833000  0.08249300  1
  Li  Li7  1  0.38666500  0.40545100  0.08390000  1
  Li  Li8  1  0.61338500  0.92786000  0.58273200  1
  Li  Li9  1  0.12223300  0.92499600  0.58413800  1
  Li  Li10  1  0.88489900  0.75216100  0.75842100  1
  Li  Li11  1  0.37174200  0.75186200  0.75249500  1
  Li  Li12  1  0.62825800  0.58154300  0.91419300  1
  Li  Li13  1  0.11512900  0.58124000  0.90825900  1
  Mn  Mn0  1  0.74373400  0.83023600  0.16569200  1
  Mn  Mn1  1  0.24699600  0.83136000  0.16789900  1
  Mn  Mn2  1  0.25624300  0.50309100  0.50097700  1
  Mn  Mn3  1  0.75294300  0.50194200  0.49879100  1
  Mn  Mn4  1  0.98975100  0.00511400  0.99567000  1
  Mn  Mn5  1  0.48946700  0.00494700  0.99488200  1
  Mn  Mn6  1  0.01021400  0.32827200  0.67102500  1
  Mn  Mn7  1  0.51050400  0.32837000  0.67179900  1
  Co  Co0  1  0.50000600  0.66665000  0.33332800  1
  Co  Co1  1  0.99999700  0.66664300  0.33333300  1
  O  O0  1  0.17368300  0.02941100  0.17934000  1
  O  O1  1  0.67488200  0.02842000  0.17912100  1
  O  O2  1  0.82630500  0.30390900  0.48732400  1
  O  O3  1  0.32510500  0.30490900  0.48755000  1
  O  O4  1  0.69212400  0.36913200  0.84795700  1
  O  O5  1  0.19133600  0.37054600  0.84803200  1
  O  O6  1  0.30785600  0.96420600  0.81871400  1
  O  O7  1  0.80866100  0.96279900  0.81863900  1
  O  O8  1  0.68436700  0.69705800  0.51081100  1
  O  O9  1  0.20166500  0.69935400  0.53120000  1
  O  O10  1  0.79833000  0.63396400  0.13547100  1
  O  O11  1  0.31562300  0.63625300  0.15585500  1
  O  O12  1  0.45407200  0.86646800  0.36992500  1
  O  O13  1  0.95711000  0.86250400  0.37002400  1
  O  O14  1  0.54592400  0.46684600  0.29673600  1
  O  O15  1  0.04287800  0.47081500  0.29663700  1
  O  O16  1  0.93289500  0.19428100  0.04386400  1
  O  O17  1  0.43325500  0.19435100  0.04374100  1
  O  O18  1  0.06712600  0.13910300  0.62281000  1
  O  O19  1  0.56679200  0.13891200  0.62289800  1
  O  O20  1  0.96043300  0.53285200  0.69869600  1
  O  O21  1  0.46381600  0.53163500  0.70082600  1
  O  O22  1  0.53616300  0.80166300  0.96584400  1
  O  O23  1  0.03955000  0.80049700  0.96797200  1
loop_
_geom_bond_atom_site_label_1
_geom_bond_atom_site_label_2
_geom_bond_distance
_geom_bond_site_symmetry_2
Li0 O7 2.048547 1_545
Li0 O4 2.048823 1_555
Li0 O18 2.089733 1_655
Li0 O17 2.096434 1_556
Li0 O19 2.187589 1_555
Li0 O16 2.189028 1_556
Li1 O6 2.048519 1_545
Li1 O5 2.048917 1_555
Li1 O16 2.089884 1_456
Li1 O19 2.096216 1_555
Li1 O17 2.187690 1_556
Li1 O18 2.188886 1_555
Li2 O19 1.965317 1_555
Li2 O18 1.970033 1_655
Li2 O2 2.090671 1_555
Li2 O0 2.164400 1_655
Li2 O13 2.179646 1_545
Li3 O18 1.965646 1_555
Li3 O19 1.971519 1_555
Li3 O3 2.110366 1_555
Li3 O12 2.130080 1_545
Li3 O1 2.165021 1_555
Li4 O16 1.965875 1_555
Li4 O17 1.971612 1_555
Li4 O1 2.110935 1_555
Li4 O14 2.129372 1_555
Li4 O3 2.164997 1_555
Li5 O17 1.965396 1_555
Li5 O16 1.970103 1_455
Li5 O0 2.091067 1_555
Li5 O2 2.164505 1_455
Li5 O15 2.179234 1_555
Li6 O16 2.102659 1_555
Li6 O14 2.110675 1_555
Li6 O15 2.139235 1_655
Li6 O5 2.162510 1_654
Li6 O10 2.193715 1_555
Li6 O4 2.357309 1_554
Li7 O17 2.070779 1_555
Li7 O14 2.105750 1_555
Li7 O4 2.144079 1_554
Li7 O15 2.147759 1_555
Li7 O11 2.215581 1_555
Li7 O5 2.408586 1_554
Li8 O19 2.070273 1_565
Li8 O12 2.105779 1_555
Li8 O6 2.144452 1_555
Li8 O13 2.147402 1_555
Li8 O8 2.215629 1_555
Li8 O7 2.408613 1_555
Li9 O18 2.103161 1_565
Li9 O12 2.110346 1_555
Li9 O13 2.139281 1_455
Li9 O7 2.162829 1_455
Li9 O9 2.193860 1_555
Li9 O6 2.357312 1_555
Li10 O7 2.030209 1_555
Li10 O23 2.058381 1_655
Li10 O9 2.112210 1_655
Li10 O20 2.117871 1_555
Li10 O22 2.168447 1_555
Li10 O8 2.505211 1_555
Li11 O6 2.038489 1_555
Li11 O22 2.124297 1_555
Li11 O23 2.130518 1_555
Li11 O21 2.145688 1_555
Li11 O8 2.159790 1_555
Li11 O9 2.201707 1_555
Li12 O4 2.039141 1_555
Li12 O21 2.124530 1_555
Li12 O20 2.130436 1_555
Li12 O22 2.144660 1_555
Li12 O11 2.159872 1_556
Li12 O10 2.201548 1_556
Li13 O5 2.030751 1_555
Li13 O20 2.058655 1_455
Li13 O10 2.112424 1_456
Li13 O23 2.117373 1_555
Li13 O21 2.168113 1_555
Li13 O11 2.504945 1_556
Mn0 O12 1.938248 1_555
Mn0 O10 1.939070 1_555
Mn0 O23 1.949004 1_654
Mn0 O1 2.003945 1_565
Mn0 O22 2.222991 1_554
Mn0 O13 2.276785 1_555
Mn1 O13 1.941409 1_455
Mn1 O22 1.941864 1_554
Mn1 O11 1.976491 1_555
Mn1 O0 2.010111 1_565
Mn1 O23 2.221981 1_554
Mn1 O12 2.232802 1_555
Mn2 O14 1.938328 1_555
Mn2 O9 1.938974 1_555
Mn2 O20 1.948922 1_455
Mn2 O3 2.003934 1_555
Mn2 O21 2.223020 1_555
Mn2 O15 2.276785 1_555
Mn3 O21 1.941630 1_555
Mn3 O15 1.941768 1_655
Mn3 O8 1.976631 1_555
Mn3 O2 2.009875 1_555
Mn3 O20 2.222018 1_555
Mn3 O14 2.232737 1_555
Mn4 O16 1.831775 1_556
Mn4 O6 1.942835 1_645
Mn4 O7 1.956377 1_545
Mn4 O1 1.988311 1_556
Mn4 O0 2.013743 1_656
Mn4 O23 2.030384 1_645
Mn5 O17 1.833106 1_556
Mn5 O7 1.943473 1_545
Mn5 O6 1.952629 1_545
Mn5 O0 1.993020 1_556
Mn5 O22 2.013992 1_545
Mn5 O1 2.024582 1_556
Mn6 O18 1.831760 1_555
Mn6 O4 1.942766 1_455
Mn6 O5 1.956351 1_555
Mn6 O3 1.988346 1_555
Mn6 O2 2.013807 1_455
Mn6 O20 2.030068 1_455
Mn7 O19 1.833581 1_555
Mn7 O5 1.943281 1_555
Mn7 O4 1.952614 1_555
Mn7 O2 1.993164 1_555
Mn7 O21 2.013823 1_555
Mn7 O3 2.024586 1_555
Co0 O10 1.952671 1_555
Co0 O9 1.952761 1_555
Co0 O14 1.962394 1_555
Co0 O12 1.962524 1_555
Co0 O8 1.972593 1_555
Co0 O11 1.972630 1_555
Co1 O15 1.922137 1_655
Co1 O13 1.922483 1_555
Co1 O8 1.953376 1_555
Co1 O11 1.953412 1_655
Co1 O10 2.182077 1_555
Co1 O9 2.182105 1_655
