# generated using pymatgen
data_KHo(MoO4)2
_symmetry_space_group_name_H-M   'P 1'
_cell_length_a   5.13431600
_cell_length_b   8.09256500
_cell_length_c   18.44612000
_cell_angle_alpha   90.00000000
_cell_angle_beta   90.00000000
_cell_angle_gamma   90.00000000
_symmetry_Int_Tables_number   1
_chemical_formula_structural   KHo(MoO4)2
_chemical_formula_sum   'K4 Ho4 Mo8 O32'
_cell_volume   766.43233780
_cell_formula_units_Z   4
loop_
 _symmetry_equiv_pos_site_id
 _symmetry_equiv_pos_as_xyz
  1  'x, y, z'
loop_
 _atom_site_type_symbol
 _atom_site_label
 _atom_site_symmetry_multiplicity
 _atom_site_fract_x
 _atom_site_fract_y
 _atom_site_fract_z
 _atom_site_occupancy
  K  K0  1  0.00000000  0.75000000  0.76994600  1
  K  K1  1  0.00000000  0.25000000  0.23005400  1
  K  K2  1  0.50000000  0.25000000  0.73005400  1
  K  K3  1  0.50000000  0.75000000  0.26994600  1
  Ho  Ho0  1  0.00000000  0.75000000  0.00588800  1
  Ho  Ho1  1  0.00000000  0.25000000  0.99411200  1
  Ho  Ho2  1  0.50000000  0.25000000  0.49411200  1
  Ho  Ho3  1  0.50000000  0.75000000  0.50588800  1
  Mo  Mo0  1  0.02255100  0.51618400  0.39917500  1
  Mo  Mo1  1  0.97744900  0.48381600  0.60082500  1
  Mo  Mo2  1  0.47744900  0.01618400  0.10082500  1
  Mo  Mo3  1  0.97744900  0.98381600  0.39917500  1
  Mo  Mo4  1  0.52255100  0.98381600  0.89917500  1
  Mo  Mo5  1  0.02255100  0.01618400  0.60082500  1
  Mo  Mo6  1  0.52255100  0.48381600  0.10082500  1
  Mo  Mo7  1  0.47744900  0.51618400  0.89917500  1
  O  O0  1  0.10223400  0.97439600  0.31067700  1
  O  O1  1  0.89776600  0.02560400  0.68932300  1
  O  O2  1  0.39776600  0.47439600  0.18932300  1
  O  O3  1  0.89776600  0.52560400  0.31067700  1
  O  O4  1  0.60223400  0.52560400  0.81067700  1
  O  O5  1  0.10223400  0.47439600  0.68932300  1
  O  O6  1  0.60223400  0.02560400  0.18932300  1
  O  O7  1  0.39776600  0.97439600  0.81067700  1
  O  O8  1  0.26862000  0.83782200  0.09872600  1
  O  O9  1  0.73138000  0.16217800  0.90127400  1
  O  O10  1  0.23138000  0.33782200  0.40127400  1
  O  O11  1  0.73138000  0.66217800  0.09872600  1
  O  O12  1  0.76862000  0.66217800  0.59872600  1
  O  O13  1  0.26862000  0.33782200  0.90127400  1
  O  O14  1  0.76862000  0.16217800  0.40127400  1
  O  O15  1  0.23138000  0.83782200  0.59872600  1
  O  O16  1  0.24789300  0.50460100  0.03476300  1
  O  O17  1  0.75210700  0.49539900  0.96523700  1
  O  O18  1  0.25210700  0.00460100  0.46523700  1
  O  O19  1  0.75210700  0.99539900  0.03476300  1
  O  O20  1  0.74789300  0.99539900  0.53476300  1
  O  O21  1  0.24789300  0.00460100  0.96523700  1
  O  O22  1  0.74789300  0.49539900  0.46523700  1
  O  O23  1  0.25210700  0.50460100  0.53476300  1
  O  O24  1  0.24650100  0.68998900  0.40762600  1
  O  O25  1  0.75349900  0.31001100  0.59237400  1
  O  O26  1  0.25349900  0.18998900  0.09237400  1
  O  O27  1  0.75349900  0.81001100  0.40762600  1
  O  O28  1  0.74650100  0.81001100  0.90762600  1
  O  O29  1  0.24650100  0.18998900  0.59237400  1
  O  O30  1  0.74650100  0.31001100  0.09237400  1
  O  O31  1  0.25349900  0.68998900  0.90762600  1
loop_
_geom_bond_atom_site_label_1
_geom_bond_atom_site_label_2
_geom_bond_distance
_geom_bond_site_symmetry_2
K0 O1 2.731604 1_465
K0 O5 2.731604 1_555
K0 O4 2.834244 1_455
K0 O7 2.834244 1_555
K0 O28 2.894779 1_455
K0 O31 2.894779 1_555
K1 O0 2.731604 1_545
K1 O3 2.731604 1_455
K1 O6 2.834244 1_455
K1 O2 2.834244 1_555
K1 O26 2.894779 1_555
K1 O30 2.894779 1_455
K2 O4 2.731604 1_555
K2 O7 2.731604 1_545
K2 O1 2.834244 1_555
K2 O5 2.834244 1_555
K2 O29 2.894779 1_555
K2 O25 2.894779 1_555
K3 O2 2.731604 1_555
K3 O6 2.731604 1_565
K3 O3 2.834244 1_555
K3 O0 2.834244 1_555
K3 O24 2.894779 1_555
K3 O27 2.894779 1_555
Ho0 O31 2.283684 1_554
Ho0 O28 2.283684 1_454
Ho0 O11 2.310822 1_455
Ho0 O8 2.310822 1_555
Ho0 O19 2.418149 1_455
Ho0 O16 2.418149 1_555
Ho0 O21 2.535221 1_564
Ho0 O17 2.535221 1_454
Ho1 O30 2.283684 1_456
Ho1 O26 2.283684 1_556
Ho1 O9 2.310822 1_455
Ho1 O13 2.310822 1_555
Ho1 O21 2.418149 1_555
Ho1 O17 2.418149 1_455
Ho1 O19 2.535221 1_446
Ho1 O16 2.535221 1_556
Ho2 O25 2.283684 1_555
Ho2 O29 2.283684 1_555
Ho2 O14 2.310822 1_555
Ho2 O10 2.310822 1_555
Ho2 O22 2.418149 1_555
Ho2 O18 2.418149 1_555
Ho2 O23 2.535221 1_555
Ho2 O20 2.535221 1_545
Ho3 O27 2.283684 1_555
Ho3 O24 2.283684 1_555
Ho3 O15 2.310822 1_555
Ho3 O12 2.310822 1_555
Ho3 O20 2.418149 1_555
Ho3 O23 2.418149 1_555
Ho3 O22 2.535221 1_555
Ho3 O18 2.535221 1_565
Mo0 O3 1.755325 1_455
Mo0 O10 1.798477 1_555
Mo0 O24 1.823385 1_555
Mo0 O22 1.871325 1_455
Mo1 O5 1.755325 1_655
Mo1 O12 1.798477 1_555
Mo1 O25 1.823385 1_555
Mo1 O23 1.871325 1_655
Mo2 O6 1.755325 1_555
Mo2 O8 1.798477 1_545
Mo2 O26 1.823385 1_555
Mo2 O19 1.871325 1_545
Mo3 O0 1.755325 1_655
Mo3 O14 1.798477 1_565
Mo3 O27 1.823385 1_555
Mo3 O18 1.871325 1_665
Mo4 O7 1.755325 1_555
Mo4 O9 1.798477 1_565
Mo4 O28 1.823385 1_555
Mo4 O21 1.871325 1_565
Mo5 O1 1.755325 1_455
Mo5 O15 1.798477 1_545
Mo5 O29 1.823385 1_555
Mo5 O20 1.871325 1_445
Mo6 O2 1.755325 1_555
Mo6 O11 1.798477 1_555
Mo6 O30 1.823385 1_555
Mo6 O16 1.871325 1_555
Mo7 O4 1.755325 1_555
Mo7 O13 1.798477 1_555
Mo7 O31 1.823385 1_555
Mo7 O17 1.871325 1_555
