# generated using pymatgen
data_CuNiAu
_symmetry_space_group_name_H-M   'P 1'
_cell_length_a   5.49164582
_cell_length_b   5.49164582
_cell_length_c   12.68195823
_cell_angle_alpha   90.00000000
_cell_angle_beta   90.00000000
_cell_angle_gamma   120.00000000
_symmetry_Int_Tables_number   1
_chemical_formula_structural   CuNiAu
_chemical_formula_sum   'Cu8 Ni8 Au8'
_cell_volume   331.22414698
_cell_formula_units_Z   8
loop_
 _symmetry_equiv_pos_site_id
 _symmetry_equiv_pos_as_xyz
  1  'x, y, z'
loop_
 _atom_site_type_symbol
 _atom_site_label
 _atom_site_symmetry_multiplicity
 _atom_site_fract_x
 _atom_site_fract_y
 _atom_site_fract_z
 _atom_site_occupancy
  Cu  Cu0_0  1  0.33333350  0.16666650  0.17546150  1
  Cu  Cu0_1  1  0.33333350  0.16666650  0.67546150  1
  Cu  Cu0_2  1  0.33333350  0.66666650  0.17546150  1
  Cu  Cu0_3  1  0.33333350  0.66666650  0.67546150  1
  Cu  Cu0_4  1  0.83333350  0.16666650  0.17546150  1
  Cu  Cu0_5  1  0.83333350  0.16666650  0.67546150  1
  Cu  Cu0_6  1  0.83333350  0.66666650  0.17546150  1
  Cu  Cu0_7  1  0.83333350  0.66666650  0.67546150  1
  Ni  Ni0_0  1  0.16666650  0.33333350  0.32561050  1
  Ni  Ni0_1  1  0.16666650  0.33333350  0.82561050  1
  Ni  Ni0_2  1  0.16666650  0.83333350  0.32561050  1
  Ni  Ni0_3  1  0.16666650  0.83333350  0.82561050  1
  Ni  Ni0_4  1  0.66666650  0.33333350  0.32561050  1
  Ni  Ni0_5  1  0.66666650  0.33333350  0.82561050  1
  Ni  Ni0_6  1  0.66666650  0.83333350  0.32561050  1
  Ni  Ni0_7  1  0.66666650  0.83333350  0.82561050  1
  Au  Au0_0  1  1.00000000  1.00000000  0.49892800  1
  Au  Au0_1  1  1.00000000  0.00000000  0.99892800  1
  Au  Au0_2  1  0.00000000  0.50000000  0.49892800  1
  Au  Au0_3  1  1.00000000  0.50000000  0.99892800  1
  Au  Au0_4  1  0.50000000  1.00000000  0.49892800  1
  Au  Au0_5  1  0.50000000  1.00000000  0.99892800  1
  Au  Au0_6  1  0.50000000  0.50000000  0.49892800  1
  Au  Au0_7  1  0.50000000  0.50000000  0.99892800  1
loop_
_geom_bond_atom_site_label_1
_geom_bond_atom_site_label_2
_geom_bond_distance
_geom_bond_site_symmetry_2
Cu0_0 Ni0_2 2.477719 1_545
Cu0_0 Ni0_4 2.477719 1_555
Cu0_0 Ni0_0 2.477722 1_555
Cu0_0 Cu0_6 2.745823 1_555
Cu0_0 Cu0_4 2.745823 1_455
Cu0_0 Cu0_2 2.745823 1_545
Cu0_0 Cu0_2 2.745823 1_555
Cu0_0 Cu0_4 2.745823 1_555
Cu0_0 Cu0_6 2.745823 1_445
Cu0_1 Ni0_5 2.477719 1_555
Cu0_1 Ni0_3 2.477719 1_545
Cu0_1 Ni0_1 2.477722 1_555
Cu0_1 Cu0_3 2.745823 1_555
Cu0_1 Cu0_7 2.745823 1_555
Cu0_1 Cu0_5 2.745823 1_555
Cu0_1 Cu0_5 2.745823 1_455
Cu0_1 Cu0_3 2.745823 1_545
Cu0_1 Cu0_7 2.745823 1_445
Cu0_2 Ni0_0 2.477719 1_555
Cu0_2 Ni0_6 2.477719 1_555
Cu0_2 Ni0_2 2.477722 1_555
Cu0_2 Cu0_4 2.745823 1_565
Cu0_2 Cu0_6 2.745823 1_455
Cu0_2 Cu0_4 2.745823 1_455
Cu0_2 Cu0_6 2.745823 1_555
Cu0_3 Ni0_7 2.477719 1_555
Cu0_3 Ni0_1 2.477719 1_555
Cu0_3 Ni0_3 2.477722 1_555
Cu0_3 Cu0_5 2.745823 1_455
Cu0_3 Cu0_7 2.745823 1_455
Cu0_3 Cu0_5 2.745823 1_565
Cu0_3 Cu0_7 2.745823 1_555
Cu0_4 Ni0_0 2.477719 1_655
Cu0_4 Ni0_6 2.477719 1_545
Cu0_4 Ni0_4 2.477722 1_555
Cu0_4 Cu0_6 2.745823 1_555
Cu0_4 Cu0_6 2.745823 1_545
Cu0_5 Ni0_1 2.477719 1_655
Cu0_5 Ni0_7 2.477719 1_545
Cu0_5 Ni0_5 2.477722 1_555
Cu0_5 Cu0_7 2.745823 1_555
Cu0_5 Cu0_7 2.745823 1_545
Cu0_6 Ni0_2 2.477719 1_655
Cu0_6 Ni0_4 2.477719 1_555
Cu0_6 Ni0_6 2.477722 1_555
Cu0_7 Ni0_5 2.477719 1_555
Cu0_7 Ni0_3 2.477719 1_655
Cu0_7 Ni0_7 2.477722 1_555
Ni0_0 Ni0_2 2.745823 1_555
Ni0_0 Ni0_6 2.745823 1_555
Ni0_0 Ni0_4 2.745823 1_455
Ni0_0 Ni0_4 2.745823 1_555
Ni0_0 Ni0_6 2.745823 1_445
Ni0_0 Ni0_2 2.745823 1_545
Ni0_1 Ni0_7 2.745823 1_555
Ni0_1 Ni0_5 2.745823 1_555
Ni0_1 Ni0_3 2.745823 1_555
Ni0_1 Ni0_5 2.745823 1_455
Ni0_1 Ni0_7 2.745823 1_445
Ni0_1 Ni0_3 2.745823 1_545
Ni0_2 Ni0_4 2.745823 1_455
Ni0_2 Ni0_6 2.745823 1_555
Ni0_2 Ni0_6 2.745823 1_455
Ni0_2 Ni0_4 2.745823 1_565
Ni0_3 Ni0_7 2.745823 1_555
Ni0_3 Ni0_5 2.745823 1_455
Ni0_3 Ni0_5 2.745823 1_565
Ni0_3 Ni0_7 2.745823 1_455
Ni0_4 Ni0_6 2.745823 1_555
Ni0_4 Ni0_6 2.745823 1_545
Ni0_5 Ni0_7 2.745823 1_555
Ni0_5 Ni0_7 2.745823 1_545
Au0_0 Ni0_2 2.710056 1_655
Au0_0 Ni0_6 2.710057 1_555
Au0_0 Ni0_0 2.710057 1_665
Au0_0 Cu0_5 2.743239 1_565
Au0_0 Cu0_7 2.743240 1_555
Au0_0 Cu0_1 2.743240 1_665
Au0_0 Au0_2 2.745823 1_655
Au0_0 Au0_6 2.745823 1_555
Au0_0 Au0_4 2.745823 1_555
Au0_0 Au0_2 2.745823 1_665
Au0_0 Au0_6 2.745823 1_665
Au0_0 Au0_4 2.745823 1_655
Au0_1 Ni0_3 2.710056 1_645
Au0_1 Ni0_7 2.710057 1_545
Au0_1 Ni0_1 2.710057 1_655
Au0_1 Cu0_4 2.743239 1_556
Au0_1 Cu0_0 2.743240 1_656
Au0_1 Cu0_6 2.743240 1_546
Au0_1 Au0_5 2.745823 1_545
Au0_1 Au0_3 2.745823 1_555
Au0_1 Au0_7 2.745823 1_545
Au0_1 Au0_7 2.745823 1_655
Au0_1 Au0_3 2.745823 1_545
Au0_1 Au0_5 2.745823 1_645
Au0_2 Ni0_0 2.710056 1_555
Au0_2 Ni0_2 2.710057 1_555
Au0_2 Ni0_4 2.710057 1_455
Au0_2 Cu0_7 2.743239 1_455
Au0_2 Cu0_3 2.743240 1_555
Au0_2 Cu0_5 2.743240 1_455
Au0_2 Au0_6 2.745823 1_555
Au0_2 Au0_4 2.745823 1_555
Au0_2 Au0_6 2.745823 1_455
Au0_2 Au0_4 2.745823 1_445
Au0_3 Ni0_1 2.710056 1_655
Au0_3 Ni0_3 2.710057 1_655
Au0_3 Ni0_5 2.710057 1_555
Au0_3 Cu0_6 2.743239 1_556
Au0_3 Cu0_4 2.743240 1_556
Au0_3 Cu0_2 2.743240 1_656
Au0_3 Au0_7 2.745823 1_555
Au0_3 Au0_5 2.745823 1_545
Au0_3 Au0_5 2.745823 1_655
Au0_3 Au0_7 2.745823 1_655
Au0_4 Ni0_6 2.710056 1_555
Au0_4 Ni0_4 2.710057 1_565
Au0_4 Ni0_2 2.710057 1_555
Au0_4 Cu0_1 2.743239 1_565
Au0_4 Cu0_3 2.743240 1_555
Au0_4 Cu0_5 2.743240 1_565
Au0_4 Au0_6 2.745823 1_555
Au0_4 Au0_6 2.745823 1_565
Au0_5 Ni0_7 2.710056 1_555
Au0_5 Ni0_3 2.710057 1_555
Au0_5 Ni0_5 2.710057 1_565
Au0_5 Cu0_0 2.743239 1_566
Au0_5 Cu0_2 2.743240 1_556
Au0_5 Cu0_4 2.743240 1_566
Au0_5 Au0_7 2.745823 1_555
Au0_5 Au0_7 2.745823 1_565
Au0_6 Ni0_4 2.710056 1_555
Au0_6 Ni0_6 2.710057 1_555
Au0_6 Ni0_0 2.710057 1_555
Au0_6 Cu0_3 2.743239 1_555
Au0_6 Cu0_7 2.743240 1_555
Au0_6 Cu0_1 2.743240 1_555
Au0_7 Ni0_5 2.710056 1_555
Au0_7 Ni0_7 2.710057 1_555
Au0_7 Ni0_1 2.710057 1_555
Au0_7 Cu0_2 2.743239 1_556
Au0_7 Cu0_0 2.743240 1_556
Au0_7 Cu0_6 2.743240 1_556
