# generated using pymatgen
data_Cd3H14S3(NO8)2
_symmetry_space_group_name_H-M   'P 1'
_cell_length_a   7.92001518
_cell_length_b   10.01196709
_cell_length_c   10.15491858
_cell_angle_alpha   90.00000000
_cell_angle_beta   112.95198319
_cell_angle_gamma   90.00000000
_symmetry_Int_Tables_number   1
_chemical_formula_structural   Cd3H14S3(NO8)2
_chemical_formula_sum   'Cd6 H28 S6 N4 O32'
_cell_volume   741.48482617
_cell_formula_units_Z   2
loop_
 _symmetry_equiv_pos_site_id
 _symmetry_equiv_pos_as_xyz
  1  'x, y, z'
loop_
 _atom_site_type_symbol
 _atom_site_label
 _atom_site_symmetry_multiplicity
 _atom_site_fract_x
 _atom_site_fract_y
 _atom_site_fract_z
 _atom_site_occupancy
  Cd  Cd0  1  0.13479683  0.79663988  0.17902995  1
  Cd  Cd1  1  0.95576689  0.79663988  0.82097005  1
  Cd  Cd2  1  0.86520317  0.29663988  0.82097005  1
  Cd  Cd3  1  0.04423311  0.29663988  0.17902995  1
  Cd  Cd4  1  0.31185666  0.08798669  -0.00000000  1
  Cd  Cd5  1  0.68814334  0.58798669  -0.00000000  1
  H  H0  1  0.02581619  0.57705879  -0.00000000  1
  H  H1  1  0.97418381  0.07705879  -0.00000000  1
  H  H2  1  0.31827897  0.82676724  -0.00000000  1
  H  H3  1  0.68172103  0.32676724  -0.00000000  1
  H  H4  1  0.42867679  0.62594806  0.34518021  1
  H  H5  1  0.08349658  0.62594806  0.65481979  1
  H  H6  1  0.57132321  0.12594806  0.65481979  1
  H  H7  1  0.91650342  0.12594806  0.34518021  1
  H  H8  1  0.41351556  0.62158707  0.18444559  1
  H  H9  1  0.22906897  0.62158707  0.81555441  1
  H  H10  1  0.58648444  0.12158707  0.81555441  1
  H  H11  1  0.77093103  0.12158707  0.18444559  1
  H  H12  1  0.69192419  0.93980290  0.39286813  1
  H  H13  1  0.29905605  0.93980290  0.60713187  1
  H  H14  1  0.30807581  0.43980290  0.60713187  1
  H  H15  1  0.70094395  0.43980290  0.39286813  1
  H  H16  1  0.62381508  0.79036077  0.31356375  1
  H  H17  1  0.31025132  0.79036077  0.68643625  1
  H  H18  1  0.37618492  0.29036077  0.68643625  1
  H  H19  1  0.68974868  0.29036077  0.31356375  1
  H  H20  1  0.74965105  0.79936697  0.48650371  1
  H  H21  1  0.26314634  0.79936697  0.51349629  1
  H  H22  1  0.25034895  0.29936697  0.51349629  1
  H  H23  1  0.73685366  0.29936697  0.48650371  1
  H  H24  1  0.84594148  0.83695104  0.36884170  1
  H  H25  1  0.47709878  0.83695104  0.63115830  1
  H  H26  1  0.15405852  0.33695104  0.63115830  1
  H  H27  1  0.52290122  0.33695104  0.36884170  1
  S  S0  1  0.38070129  0.07950990  0.35834114  1
  S  S1  1  0.02236015  0.07950990  0.64165886  1
  S  S2  1  0.61929871  0.57950990  0.64165886  1
  S  S3  1  0.97763985  0.57950990  0.35834114  1
  S  S4  1  0.68988826  0.91557027  -0.00000000  1
  S  S5  1  0.31011174  0.41557027  -0.00000000  1
  N  N0  1  0.72937318  0.84258445  0.38943825  1
  N  N1  1  0.33993494  0.84258445  0.61056175  1
  N  N2  1  0.27062682  0.34258445  0.61056175  1
  N  N3  1  0.66006506  0.34258445  0.38943825  1
  O  O0  1  0.23690301  0.97717936  0.32193493  1
  O  O1  1  0.91496808  0.97717936  0.67806507  1
  O  O2  1  0.76309699  0.47717936  0.67806507  1
  O  O3  1  0.08503192  0.47717936  0.32193493  1
  O  O4  1  0.46314431  0.08377086  0.25009676  1
  O  O5  1  0.21304755  0.08377086  0.74990324  1
  O  O6  1  0.53685569  0.58377086  0.74990324  1
  O  O7  1  0.78695245  0.58377086  0.25009676  1
  O  O8  1  0.52661390  0.05137066  0.49845846  1
  O  O9  1  0.02815443  0.05137066  0.50154154  1
  O  O10  1  0.47338610  0.55137066  0.50154154  1
  O  O11  1  0.97184557  0.55137066  0.49845846  1
  O  O12  1  0.29892237  0.21322153  0.36412656  1
  O  O13  1  0.93479581  0.21322153  0.63587344  1
  O  O14  1  0.70107763  0.71322153  0.63587344  1
  O  O15  1  0.06520419  0.71322153  0.36412656  1
  O  O16  1  0.86004627  0.91181613  0.12955716  1
  O  O17  1  0.73048911  0.91181613  0.87044284  1
  O  O18  1  0.13995373  0.41181613  0.87044284  1
  O  O19  1  0.26951089  0.41181613  0.12955716  1
  O  O20  1  0.56742539  0.80404147  -0.00000000  1
  O  O21  1  0.43257461  0.30404147  -0.00000000  1
  O  O22  1  0.59805412  0.04581799  -0.00000000  1
  O  O23  1  0.40194588  0.54581799  -0.00000000  1
  O  O24  1  0.95815106  0.65762777  -0.00000000  1
  O  O25  1  0.04184894  0.15762777  -0.00000000  1
  O  O26  1  0.21305270  0.87702724  -0.00000000  1
  O  O27  1  0.78694730  0.37702724  -0.00000000  1
  O  O28  1  0.41123490  0.68137770  0.25961868  1
  O  O29  1  0.15161722  0.68137770  0.74038132  1
  O  O30  1  0.58876510  0.18137770  0.74038132  1
  O  O31  1  0.84838278  0.18137770  0.25961868  1
loop_
_geom_bond_atom_site_label_1
_geom_bond_atom_site_label_2
_geom_bond_distance
_geom_bond_site_symmetry_2
Cd0 O0 2.260950 1_555
Cd0 O24 2.283834 1_455
Cd0 O26 2.283847 1_555
Cd0 O15 2.311358 1_555
Cd0 O28 2.323249 1_555
Cd0 O16 2.337650 1_455
Cd1 O1 2.260950 1_555
Cd1 O24 2.283834 1_556
Cd1 O26 2.283847 1_656
Cd1 O14 2.311358 1_555
Cd1 O29 2.323255 1_655
Cd1 O17 2.337650 1_555
Cd2 O2 2.260950 1_555
Cd2 O25 2.283834 1_656
Cd2 O27 2.283847 1_556
Cd2 O13 2.311358 1_555
Cd2 O30 2.323249 1_555
Cd2 O18 2.337650 1_655
Cd3 O3 2.260950 1_555
Cd3 O25 2.283834 1_555
Cd3 O27 2.283847 1_455
Cd3 O12 2.311358 1_555
Cd3 O31 2.323255 1_455
Cd3 O19 2.337650 1_555
Cd4 O25 2.249263 1_555
Cd4 O26 2.252421 1_545
Cd4 O22 2.305672 1_555
Cd4 O4 2.348243 1_555
Cd4 O5 2.348243 1_554
Cd4 O21 2.365005 1_555
Cd5 O24 2.249263 1_555
Cd5 O27 2.252421 1_555
Cd5 O23 2.305672 1_555
Cd5 O7 2.348243 1_555
Cd5 O6 2.348243 1_554
Cd5 O20 2.365005 1_555
H0 O24 0.968447 1_455
H1 O25 0.968447 1_655
H2 O26 0.973528 1_555
H3 O27 0.973528 1_555
H4 O28 0.994177 1_555
H4 O10 1.663013 1_555
H5 O29 0.994179 1_555
H5 O11 1.663012 1_455
H6 O30 0.994177 1_555
H6 O8 1.663013 1_555
H7 O31 0.994179 1_555
H7 O9 1.663012 1_655
H8 O28 0.975793 1_555
H9 O29 0.975788 1_555
H10 O30 0.975793 1_555
H11 O31 0.975788 1_555
H12 N0 1.022079 1_555
H13 N1 1.022079 1_555
H14 N2 1.022079 1_555
H15 N3 1.022079 1_555
H16 N0 1.031309 1_555
H17 N1 1.031309 1_555
H18 N2 1.031309 1_555
H19 N3 1.031309 1_555
H20 N0 1.030116 1_555
H21 N1 1.030118 1_555
H22 N2 1.030116 1_555
H23 N3 1.030118 1_555
H24 N0 1.024631 1_555
H25 N1 1.024623 1_555
H26 N2 1.024631 1_555
H27 N3 1.024623 1_555
O0 S0 1.467997 1_565
O1 S1 1.467997 1_665
O2 S2 1.467997 1_555
O3 S3 1.467997 1_455
O4 S0 1.481960 1_555
O5 S1 1.481960 1_555
O6 S2 1.481960 1_555
O7 S3 1.481960 1_555
O8 S0 1.468673 1_555
O9 S1 1.468670 1_555
O10 S2 1.468673 1_555
O11 S3 1.468670 1_555
O12 S0 1.498264 1_555
O13 S1 1.498264 1_655
O14 S2 1.498264 1_555
O15 S3 1.498264 1_455
O16 S4 1.471624 1_555
O17 S4 1.471624 1_556
O18 S5 1.471624 1_556
O19 S5 1.471624 1_555
O20 S4 1.479043 1_555
O21 S5 1.479043 1_555
O22 S4 1.493156 1_545
O23 S5 1.493156 1_555
