# generated using pymatgen
data_Co(IN2)3
_symmetry_space_group_name_H-M   'P 1'
_cell_length_a   11.29029900
_cell_length_b   11.29029900
_cell_length_c   11.29029900
_cell_angle_alpha   90.00000000
_cell_angle_beta   90.00000000
_cell_angle_gamma   90.00000000
_symmetry_Int_Tables_number   1
_chemical_formula_structural   Co(IN2)3
_chemical_formula_sum   'Co4 I12 N24'
_cell_volume   1439.18402733
_cell_formula_units_Z   4
loop_
 _symmetry_equiv_pos_site_id
 _symmetry_equiv_pos_as_xyz
  1  'x, y, z'
loop_
 _atom_site_type_symbol
 _atom_site_label
 _atom_site_symmetry_multiplicity
 _atom_site_fract_x
 _atom_site_fract_y
 _atom_site_fract_z
 _atom_site_occupancy
  Co  Co0  1  0.75000000  0.25000000  0.25000000  1
  Co  Co1  1  0.25000000  0.25000000  0.75000000  1
  Co  Co2  1  0.25000000  0.75000000  0.25000000  1
  Co  Co3  1  0.75000000  0.75000000  0.75000000  1
  I  I0  1  0.50000000  0.88153100  0.50000000  1
  I  I1  1  0.50000000  0.11846900  0.50000000  1
  I  I2  1  0.50000000  0.50000000  0.88153100  1
  I  I3  1  0.50000000  0.50000000  0.11846900  1
  I  I4  1  0.88153100  0.50000000  0.50000000  1
  I  I5  1  0.11846900  0.50000000  0.50000000  1
  I  I6  1  0.00000000  0.61846900  0.00000000  1
  I  I7  1  0.00000000  0.38153100  0.00000000  1
  I  I8  1  0.00000000  0.00000000  0.61846900  1
  I  I9  1  0.00000000  0.00000000  0.38153100  1
  I  I10  1  0.61846900  0.00000000  0.00000000  1
  I  I11  1  0.38153100  0.00000000  0.00000000  1
  N  N0  1  0.37873900  0.62126100  0.46543100  1
  N  N1  1  0.62126100  0.62126100  0.53456900  1
  N  N2  1  0.62126100  0.37873900  0.46543100  1
  N  N3  1  0.37873900  0.37873900  0.53456900  1
  N  N4  1  0.53456900  0.62126100  0.62126100  1
  N  N5  1  0.46543100  0.62126100  0.37873900  1
  N  N6  1  0.46543100  0.37873900  0.62126100  1
  N  N7  1  0.53456900  0.37873900  0.37873900  1
  N  N8  1  0.62126100  0.53456900  0.62126100  1
  N  N9  1  0.37873900  0.46543100  0.62126100  1
  N  N10  1  0.62126100  0.46543100  0.37873900  1
  N  N11  1  0.37873900  0.53456900  0.37873900  1
  N  N12  1  0.12126100  0.87873900  0.03456900  1
  N  N13  1  0.87873900  0.87873900  0.96543100  1
  N  N14  1  0.87873900  0.12126100  0.03456900  1
  N  N15  1  0.12126100  0.12126100  0.96543100  1
  N  N16  1  0.96543100  0.87873900  0.87873900  1
  N  N17  1  0.03456900  0.87873900  0.12126100  1
  N  N18  1  0.03456900  0.12126100  0.87873900  1
  N  N19  1  0.96543100  0.12126100  0.12126100  1
  N  N20  1  0.87873900  0.96543100  0.87873900  1
  N  N21  1  0.12126100  0.03456900  0.87873900  1
  N  N22  1  0.87873900  0.03456900  0.12126100  1
  N  N23  1  0.12126100  0.96543100  0.12126100  1
loop_
_geom_bond_atom_site_label_1
_geom_bond_atom_site_label_2
_geom_bond_distance
_geom_bond_site_symmetry_2
I0 I1 2.675101 1_565
I2 I3 2.675101 1_556
I4 I5 2.675101 1_655
I6 I7 2.675101 1_555
I8 I9 2.675101 1_555
I10 I11 2.675101 1_555
N0 N11 1.384202 1_555
N0 N5 1.384202 1_555
N1 N8 1.384202 1_555
N1 N4 1.384202 1_555
N2 N7 1.384202 1_555
N3 N9 1.384202 1_555
N3 N6 1.384202 1_555
N4 N8 1.384202 1_555
N6 N9 1.384202 1_555
N10 N2 1.384202 1_555
N10 N7 1.384202 1_555
N11 N5 1.384202 1_555
N12 N23 1.384202 1_555
N12 N17 1.384202 1_555
N13 N16 1.384202 1_555
N13 N20 1.384202 1_555
N14 N19 1.384202 1_555
N14 N22 1.384202 1_555
N15 N21 1.384202 1_555
N15 N18 1.384202 1_555
N16 N20 1.384202 1_555
N17 N23 1.384202 1_555
N18 N21 1.384202 1_555
N19 N22 1.384202 1_555
