# generated using pymatgen
data_Mn3Sb5(IO3)3
_symmetry_space_group_name_H-M   'P 1'
_cell_length_a   8.18373146
_cell_length_b   8.93422211
_cell_length_c   12.39843479
_cell_angle_alpha   78.20998663
_cell_angle_beta   85.25430858
_cell_angle_gamma   70.68803109
_symmetry_Int_Tables_number   1
_chemical_formula_structural   Mn3Sb5(IO3)3
_chemical_formula_sum   'Mn6 Sb10 I6 O18'
_cell_volume   837.34568497
_cell_formula_units_Z   2
loop_
 _symmetry_equiv_pos_site_id
 _symmetry_equiv_pos_as_xyz
  1  'x, y, z'
loop_
 _atom_site_type_symbol
 _atom_site_label
 _atom_site_symmetry_multiplicity
 _atom_site_fract_x
 _atom_site_fract_y
 _atom_site_fract_z
 _atom_site_occupancy
  Mn  Mn0  1  0.70905416  0.98959242  0.35215609  1
  Mn  Mn1  1  0.29094584  0.01040758  0.64784391  1
  Mn  Mn2  1  0.02349208  0.96967398  0.12873798  1
  Mn  Mn3  1  0.97650792  0.03032602  0.87126202  1
  Mn  Mn4  1  0.61229652  0.09084456  0.06754798  1
  Mn  Mn5  1  0.38770348  0.90915544  0.93245202  1
  Sb  Sb0  1  0.88252757  0.18386681  0.50007913  1
  Sb  Sb1  1  0.11747243  0.81613319  0.49992087  1
  Sb  Sb2  1  0.24822788  0.15836102  0.25672836  1
  Sb  Sb3  1  0.75177212  0.84163898  0.74327164  1
  Sb  Sb4  1  0.52853298  0.21529633  0.75653006  1
  Sb  Sb5  1  0.47146702  0.78470367  0.24346994  1
  Sb  Sb6  1  0.18910726  0.27022387  0.98180858  1
  Sb  Sb7  1  0.81089274  0.72977613  0.01819142  1
  Sb  Sb8  1  0.79642250  0.32359615  0.20247913  1
  Sb  Sb9  1  0.20357750  0.67640385  0.79752087  1
  I  I0  1  0.71783920  0.36190998  0.92318519  1
  I  I1  1  0.28216080  0.63809002  0.07681481  1
  I  I2  1  0.90204275  0.67172924  0.31481974  1
  I  I3  1  0.09795725  0.32827076  0.68518026  1
  I  I4  1  0.49153131  0.30039213  0.42177975  1
  I  I5  1  0.50846869  0.69960787  0.57822025  1
  O  O0  1  0.14691741  0.06332948  0.98045455  1
  O  O1  1  0.85308259  0.93667052  0.01954545  1
  O  O2  1  0.86197099  0.96968675  0.48214042  1
  O  O3  1  0.13802901  0.03031325  0.51785958  1
  O  O4  1  0.77645080  0.10997666  0.19610139  1
  O  O5  1  0.22354920  0.89002334  0.80389861  1
  O  O6  1  0.43616766  0.14453565  0.90637764  1
  O  O7  1  0.56383234  0.85546435  0.09362236  1
  O  O8  1  0.77680233  0.05358271  0.76922020  1
  O  O9  1  0.22319767  0.94641729  0.23077980  1
  O  O10  1  0.50280190  0.02496514  0.70808934  1
  O  O11  1  0.49719810  0.97503486  0.29191066  1
  O  O12  1  0.03493765  0.25331691  0.13653163  1
  O  O13  1  0.96506235  0.74668309  0.86346837  1
  O  O14  1  0.07094246  0.76839583  0.65840619  1
  O  O15  1  0.92905754  0.23160417  0.34159381  1
  O  O16  1  0.64215584  0.80147773  0.89415937  1
  O  O17  1  0.35784416  0.19852227  0.10584063  1
loop_
_geom_bond_atom_site_label_1
_geom_bond_atom_site_label_2
_geom_bond_distance
_geom_bond_site_symmetry_2
Mn0 O11 1.995984 1_555
Mn0 O2 2.065031 1_555
Mn0 O4 2.137749 1_565
Mn1 O10 1.995984 1_555
Mn1 O3 2.065031 1_555
Mn1 O5 2.137749 1_545
Mn2 O9 2.079654 1_555
Mn2 O1 2.147590 1_455
Mn2 O0 2.173365 1_564
Mn2 O4 2.197362 1_465
Mn2 O12 2.588143 1_565
Mn3 O8 2.079654 1_555
Mn3 O0 2.147590 1_655
Mn3 O1 2.173365 1_546
Mn3 O5 2.197362 1_645
Mn3 O13 2.588143 1_545
Mn4 O17 2.045774 1_555
Mn4 O1 2.116642 1_545
Mn4 O7 2.221892 1_545
Mn4 O4 2.234240 1_555
Mn4 O6 2.434813 1_554
Mn5 O16 2.045774 1_555
Mn5 O0 2.116642 1_565
Mn5 O6 2.221892 1_565
Mn5 O5 2.234240 1_555
Mn5 O7 2.434813 1_556
I0 Mn4 3.028360 1_556
I0 Mn3 3.174533 1_555
I0 Sb4 3.370947 1_555
I0 Sb8 3.501469 1_556
I1 Mn5 3.028360 1_554
I1 Mn2 3.174533 1_555
I1 Sb5 3.370947 1_555
I1 Sb9 3.501469 1_554
I2 Mn0 2.867600 1_555
I3 Mn1 2.867600 1_555
I4 Mn0 3.013347 1_545
I4 Sb0 3.187895 1_555
I5 Mn1 3.013347 1_565
I5 Sb1 3.187895 1_555
O0 Sb6 1.992986 1_555
O1 Sb7 1.992986 1_555
O2 Sb0 2.032832 1_565
O2 Sb1 2.087610 1_655
O3 Sb1 2.032832 1_545
O3 Sb0 2.087610 1_455
O4 Sb8 1.986344 1_555
O5 Sb9 1.986344 1_555
O6 Sb4 2.006606 1_555
O6 Sb6 2.199583 1_555
O7 Sb5 2.006606 1_555
O7 Sb7 2.199583 1_555
O8 Sb3 2.060924 1_545
O8 Sb4 2.063652 1_555
O9 Sb2 2.060924 1_565
O9 Sb5 2.063652 1_555
O10 Sb4 1.992920 1_555
O10 Sb3 2.161517 1_545
O11 Sb5 1.992920 1_555
O11 Sb2 2.161517 1_565
O12 Sb8 2.001985 1_455
O12 Sb6 2.213997 1_554
O12 Sb2 2.218489 1_555
O13 Sb9 2.001985 1_655
O13 Sb7 2.213997 1_556
O13 Sb3 2.218489 1_555
O14 Sb1 1.956820 1_555
O14 Sb9 1.992251 1_555
O14 Sb3 2.655933 1_455
O15 Sb0 1.956820 1_555
O15 Sb8 1.992251 1_555
O15 Sb2 2.655933 1_655
O16 Sb7 2.011416 1_556
O16 Sb3 2.023405 1_555
O17 Sb6 2.011416 1_554
O17 Sb2 2.023405 1_555
