# generated using pymatgen
data_CaY5(MoO6)2
_symmetry_space_group_name_H-M   'P 1'
_cell_length_a   5.97394374
_cell_length_b   7.05383111
_cell_length_c   7.48822914
_cell_angle_alpha   105.22881614
_cell_angle_beta   90.75639059
_cell_angle_gamma   111.92669214
_symmetry_Int_Tables_number   1
_chemical_formula_structural   CaY5(MoO6)2
_chemical_formula_sum   'Ca1 Y5 Mo2 O12'
_cell_volume   280.25124756
_cell_formula_units_Z   1
loop_
 _symmetry_equiv_pos_site_id
 _symmetry_equiv_pos_as_xyz
  1  'x, y, z'
loop_
 _atom_site_type_symbol
 _atom_site_label
 _atom_site_symmetry_multiplicity
 _atom_site_fract_x
 _atom_site_fract_y
 _atom_site_fract_z
 _atom_site_occupancy
  Ca  Ca0  1  0.67281300  0.30909400  0.33148600  1
  Y  Y0  1  0.41847800  0.94295300  0.49825600  1
  Y  Y1  1  0.19617200  0.38667500  0.82650000  1
  Y  Y2  1  0.81498900  0.64776000  0.15065800  1
  Y  Y3  1  0.81878200  0.64524300  0.67026600  1
  Y  Y4  1  0.20745100  0.40113700  0.35599800  1
  Mo  Mo0  1  0.74653200  0.00433500  0.99512800  1
  Mo  Mo1  1  0.26722600  0.99932000  0.99781900  1
  O  O0  1  0.01599700  0.01624900  0.80171200  1
  O  O1  1  0.01828700  0.00755600  0.19277000  1
  O  O2  1  0.49690300  0.97185300  0.20326900  1
  O  O3  1  0.48561100  0.99607200  0.79722900  1
  O  O4  1  0.57899300  0.67880900  0.43004700  1
  O  O5  1  0.94396600  0.35577800  0.57841700  1
  O  O6  1  0.41433600  0.29623500  0.55561800  1
  O  O7  1  0.41862500  0.32830600  0.10073600  1
  O  O8  1  0.07796600  0.67708400  0.92201800  1
  O  O9  1  0.59018200  0.65602400  0.90585000  1
  O  O10  1  0.92658000  0.34668700  0.09728100  1
  O  O11  1  0.06719200  0.68468100  0.41930100  1
loop_
_geom_bond_atom_site_label_1
_geom_bond_atom_site_label_2
_geom_bond_distance
_geom_bond_site_symmetry_2
Ca0 O2 2.142786 1_545
Ca0 O6 2.291990 1_555
Ca0 O5 2.313892 1_555
Ca0 O10 2.336359 1_555
Ca0 O7 2.348898 1_555
Ca0 O11 2.717407 1_655
Ca0 O4 2.784135 1_555
Mo0 O3 2.110659 1_545
Mo0 O10 2.154460 1_556
Mo0 O2 2.167817 1_546
Mo0 O1 2.172054 1_656
Mo0 O0 2.172690 1_655
Mo0 O9 2.182330 1_545
Mo1 O3 2.003681 1_555
Mo1 O8 2.037884 1_555
Mo1 O7 2.066815 1_566
Mo1 O1 2.103188 1_566
Mo1 O2 2.141584 1_556
Mo1 O0 2.142663 1_565
O0 Y3 2.349273 1_445
O0 Y1 2.379044 1_555
O1 Y2 2.298482 1_445
O1 Y4 2.513234 1_555
O2 Y0 2.309327 1_555
O3 Y0 2.176405 1_555
O4 Y4 2.284827 1_555
O4 Y0 2.345064 1_555
O4 Y3 2.398506 1_555
O4 Y2 2.545652 1_555
O5 Y1 2.288397 1_655
O5 Y4 2.308030 1_655
O5 Y3 2.370154 1_555
O6 Y4 2.350486 1_555
O6 Y0 2.424692 1_545
O6 Y1 2.496200 1_555
O6 Y3 2.651041 1_555
O7 Y4 2.353912 1_555
O7 Y2 2.524557 1_555
O7 Y1 2.633125 1_554
O8 Y3 2.332916 1_455
O8 Y2 2.335925 1_456
O8 Y1 2.351707 1_555
O9 Y3 2.248006 1_555
O9 Y2 2.284109 1_556
O9 Y1 2.352288 1_555
O10 Y2 2.394322 1_555
O10 Y4 2.399607 1_655
O10 Y1 2.613852 1_654
O11 Y0 2.149089 1_555
O11 Y4 2.385597 1_555
O11 Y2 2.395054 1_455
O11 Y3 2.418942 1_455
