# generated using pymatgen
data_SrCaTiMnO6
_symmetry_space_group_name_H-M   'P 1'
_cell_length_a   7.75133777
_cell_length_b   7.75133777
_cell_length_c   7.74978900
_cell_angle_alpha   89.99930995
_cell_angle_beta   89.99930995
_cell_angle_gamma   90.00289561
_symmetry_Int_Tables_number   1
_chemical_formula_structural   SrCaTiMnO6
_chemical_formula_sum   'Sr4 Ca4 Ti4 Mn4 O24'
_cell_volume   465.63241056
_cell_formula_units_Z   4
loop_
 _symmetry_equiv_pos_site_id
 _symmetry_equiv_pos_as_xyz
  1  'x, y, z'
loop_
 _atom_site_type_symbol
 _atom_site_label
 _atom_site_symmetry_multiplicity
 _atom_site_fract_x
 _atom_site_fract_y
 _atom_site_fract_z
 _atom_site_occupancy
  Sr  Sr0  1  0.75321700  0.24643000  0.24655300  1
  Sr  Sr1  1  0.24670100  0.24670100  0.24649200  1
  Sr  Sr2  1  0.24643000  0.75321700  0.24655300  1
  Sr  Sr3  1  0.75360100  0.75360100  0.75356400  1
  Ca  Ca0  1  0.75444700  0.24598900  0.75404600  1
  Ca  Ca1  1  0.24555600  0.24555600  0.75403300  1
  Ca  Ca2  1  0.75407100  0.75407100  0.24609400  1
  Ca  Ca3  1  0.24598900  0.75444700  0.75404600  1
  Ti  Ti0  1  0.50001000  0.99999300  0.50283300  1
  Ti  Ti1  1  0.50006100  0.50006100  0.99826800  1
  Ti  Ti2  1  0.99999300  0.50001000  0.50283300  1
  Ti  Ti3  1  0.50003700  0.50003700  0.50151900  1
  Mn  Mn0  1  0.99990600  0.99990600  0.99893300  1
  Mn  Mn1  1  0.50004900  0.99995900  0.99909400  1
  Mn  Mn2  1  0.99996500  0.99996500  0.50175900  1
  Mn  Mn3  1  0.99995900  0.50004900  0.99909400  1
  O  O0  1  0.99995400  0.25035000  0.99322600  1
  O  O1  1  0.50001200  0.24689600  0.99528000  1
  O  O2  1  0.99996800  0.24686200  0.50460000  1
  O  O3  1  0.50002300  0.24917300  0.50375400  1
  O  O4  1  0.00008200  0.74967900  0.99919700  1
  O  O5  1  0.49993500  0.75308100  0.99879600  1
  O  O6  1  0.00006400  0.75313200  0.50113700  1
  O  O7  1  0.49994400  0.75083600  0.50122700  1
  O  O8  1  0.99702500  0.99702500  0.25033500  1
  O  O9  1  0.50179000  0.99815100  0.24695800  1
  O  O10  1  0.00289900  0.00289900  0.74957100  1
  O  O11  1  0.49835300  0.00167000  0.75316900  1
  O  O12  1  0.99815100  0.50179000  0.24695800  1
  O  O13  1  0.50132800  0.50132800  0.24898800  1
  O  O14  1  0.00167000  0.49835300  0.75316900  1
  O  O15  1  0.49880100  0.49880100  0.75070600  1
  O  O16  1  0.74967900  0.00008200  0.99919700  1
  O  O17  1  0.25035000  0.99995400  0.99322600  1
  O  O18  1  0.75313200  0.00006400  0.50113700  1
  O  O19  1  0.24686200  0.99996800  0.50460000  1
  O  O20  1  0.75308100  0.49993500  0.99879600  1
  O  O21  1  0.24689600  0.50001200  0.99528000  1
  O  O22  1  0.75083600  0.49994400  0.50122700  1
  O  O23  1  0.24917300  0.50002300  0.50375400  1
loop_
_geom_bond_atom_site_label_1
_geom_bond_atom_site_label_2
_geom_bond_distance
_geom_bond_site_symmetry_2
Ca0 O0 2.656779 1_555
Ca0 O16 2.691471 1_555
Ca0 O10 2.694605 1_655
Ca0 O2 2.712728 1_555
Ca0 O1 2.717473 1_555
Ca0 O20 2.733603 1_555
Ca0 O18 2.734143 1_555
Ca0 O14 2.738332 1_655
Ca0 O11 2.743474 1_555
Ca0 O3 2.766309 1_555
Ca0 O22 2.777496 1_555
Ca0 O15 2.787104 1_555
Ca1 O0 2.657392 1_455
Ca1 O17 2.657392 1_545
Ca1 O10 2.660176 1_555
Ca1 O19 2.713064 1_545
Ca1 O2 2.713064 1_455
Ca1 O1 2.717703 1_555
Ca1 O21 2.717703 1_555
Ca1 O14 2.722846 1_555
Ca1 O11 2.722846 1_555
Ca1 O23 2.766472 1_555
Ca1 O3 2.766472 1_555
Ca1 O15 2.776133 1_555
Ca2 O8 2.663409 1_555
Ca2 O16 2.701574 1_564
Ca2 O4 2.701574 1_654
Ca2 O12 2.721015 1_555
Ca2 O9 2.721015 1_555
Ca2 O18 2.746380 1_565
Ca2 O6 2.746380 1_655
Ca2 O20 2.748387 1_554
Ca2 O5 2.748387 1_554
Ca2 O13 2.770601 1_555
Ca2 O7 2.791086 1_555
Ca2 O22 2.791086 1_555
Ca3 O17 2.656779 1_555
Ca3 O4 2.691471 1_555
Ca3 O10 2.694605 1_565
Ca3 O19 2.712728 1_555
Ca3 O21 2.717473 1_555
Ca3 O5 2.733603 1_555
Ca3 O6 2.734143 1_555
Ca3 O11 2.738332 1_565
Ca3 O14 2.743474 1_555
Ca3 O23 2.766309 1_555
Ca3 O7 2.777496 1_555
Ca3 O15 2.787104 1_555
Mn0 O10 1.932781 1_665
Mn0 O16 1.939596 1_565
Mn0 O4 1.939596 1_655
Mn0 O17 1.941779 1_655
Mn0 O0 1.941779 1_565
Mn0 O8 1.948568 1_556
Mn1 O11 1.905958 1_565
Mn1 O5 1.913636 1_555
Mn1 O1 1.914320 1_565
Mn1 O9 1.920992 1_556
Mn1 O16 1.934967 1_565
Mn1 O17 1.936036 1_555
Mn2 O18 1.913292 1_565
Mn2 O6 1.913292 1_655
Mn2 O19 1.913909 1_655
Mn2 O2 1.913909 1_565
Mn2 O10 1.920761 1_665
Mn2 O8 1.948750 1_555
Mn3 O14 1.905958 1_655
Mn3 O20 1.913636 1_555
Mn3 O21 1.914320 1_655
Mn3 O12 1.920992 1_556
Mn3 O4 1.934967 1_655
Mn3 O0 1.936036 1_555
O0 Sr1 2.740698 1_656
O0 Sr0 2.740970 1_556
O1 Ti1 1.962504 1_555
O1 Sr0 2.764821 1_556
O1 Sr1 2.765036 1_556
O2 Ti2 1.962283 1_555
O2 Sr0 2.767232 1_555
O2 Sr1 2.767442 1_655
O3 Ti0 1.931492 1_545
O3 Ti3 1.944609 1_555
O3 Sr0 2.797354 1_555
O3 Sr1 2.798404 1_555
O4 Sr3 2.697212 1_455
O4 Sr2 2.705892 1_556
O5 Ti1 1.961248 1_555
O5 Sr3 2.734585 1_555
O5 Sr2 2.747325 1_556
O6 Ti2 1.962078 1_455
O6 Sr3 2.734330 1_455
O6 Sr2 2.745788 1_555
O7 Ti0 1.931340 1_555
O7 Ti3 1.944029 1_555
O7 Sr3 2.773198 1_555
O7 Sr2 2.785197 1_555
O8 Sr0 2.703713 1_565
O8 Sr2 2.703713 1_655
O8 Sr1 2.737052 1_665
O9 Ti0 1.983077 1_555
O9 Sr0 2.738887 1_565
O9 Sr2 2.742651 1_555
O9 Sr1 2.760762 1_565
O10 Sr3 2.732922 1_445
O11 Ti0 1.940137 1_545
O11 Sr3 2.759044 1_545
O12 Ti2 1.983077 1_555
O12 Sr2 2.738887 1_655
O12 Sr0 2.742651 1_555
O12 Sr1 2.760762 1_655
O13 Ti1 1.943077 1_554
O13 Ti3 1.957113 1_555
O13 Sr2 2.777895 1_555
O13 Sr0 2.777895 1_555
O13 Sr1 2.791230 1_555
O14 Ti2 1.940137 1_455
O14 Sr3 2.759044 1_455
O15 Ti1 1.918603 1_555
O15 Ti3 1.931194 1_555
O15 Sr3 2.793147 1_555
O16 Sr3 2.697212 1_545
O16 Sr0 2.705892 1_556
O17 Sr1 2.740698 1_566
O17 Sr2 2.740970 1_556
O18 Ti0 1.962078 1_545
O18 Sr3 2.734330 1_545
O18 Sr0 2.745788 1_555
O19 Ti0 1.962283 1_555
O19 Sr2 2.767232 1_555
O19 Sr1 2.767442 1_565
O20 Ti1 1.961248 1_555
O20 Sr3 2.734585 1_555
O20 Sr0 2.747325 1_556
O21 Ti1 1.962504 1_555
O21 Sr2 2.764821 1_556
O21 Sr1 2.765036 1_556
O22 Ti2 1.931340 1_555
O22 Ti3 1.944029 1_555
O22 Sr3 2.773198 1_555
O22 Sr0 2.785197 1_555
O23 Ti2 1.931492 1_455
O23 Ti3 1.944609 1_555
O23 Sr2 2.797354 1_555
O23 Sr1 2.798404 1_555
