# generated using pymatgen
data_Ca(Al5Cr)2
_symmetry_space_group_name_H-M   'P 1'
_cell_length_a   12.87810600
_cell_length_b   12.87810600
_cell_length_c   5.15916100
_cell_angle_alpha   90.00000000
_cell_angle_beta   90.00000000
_cell_angle_gamma   90.00000000
_symmetry_Int_Tables_number   1
_chemical_formula_structural   Ca(Al5Cr)2
_chemical_formula_sum   'Ca4 Al40 Cr8'
_cell_volume   855.62422453
_cell_formula_units_Z   4
loop_
 _symmetry_equiv_pos_site_id
 _symmetry_equiv_pos_as_xyz
  1  'x, y, z'
loop_
 _atom_site_type_symbol
 _atom_site_label
 _atom_site_symmetry_multiplicity
 _atom_site_fract_x
 _atom_site_fract_y
 _atom_site_fract_z
 _atom_site_occupancy
  Ca  Ca0  1  0.50000000  0.50000000  0.00000000  1
  Ca  Ca1  1  0.00000000  0.00000000  0.00000000  1
  Ca  Ca2  1  0.00000000  0.50000000  0.51884600  1
  Ca  Ca3  1  0.50000000  0.00000000  0.48115400  1
  Al  Al0  1  0.17419600  0.17419600  0.00000000  1
  Al  Al1  1  0.67419600  0.32580400  0.00000000  1
  Al  Al2  1  0.32580400  0.67419600  0.00000000  1
  Al  Al3  1  0.82580400  0.82580400  0.00000000  1
  Al  Al4  1  0.32580400  0.32580400  0.00000000  1
  Al  Al5  1  0.82580400  0.17419600  0.00000000  1
  Al  Al6  1  0.17419600  0.82580400  0.00000000  1
  Al  Al7  1  0.67419600  0.67419600  0.00000000  1
  Al  Al8  1  0.61356600  0.61356600  0.50000000  1
  Al  Al9  1  0.11356600  0.88643400  0.50000000  1
  Al  Al10  1  0.88643400  0.11356600  0.50000000  1
  Al  Al11  1  0.38643400  0.38643400  0.50000000  1
  Al  Al12  1  0.88643400  0.88643400  0.50000000  1
  Al  Al13  1  0.38643400  0.61356600  0.50000000  1
  Al  Al14  1  0.61356600  0.38643400  0.50000000  1
  Al  Al15  1  0.11356600  0.11356600  0.50000000  1
  Al  Al16  1  0.23889700  0.50000000  0.74887500  1
  Al  Al17  1  0.00000000  0.26110300  0.74887500  1
  Al  Al18  1  0.00000000  0.73889700  0.74887500  1
  Al  Al19  1  0.76110300  0.50000000  0.74887500  1
  Al  Al20  1  0.26110300  0.00000000  0.25112500  1
  Al  Al21  1  0.73889700  0.00000000  0.25112500  1
  Al  Al22  1  0.50000000  0.23889700  0.25112500  1
  Al  Al23  1  0.50000000  0.76110300  0.25112500  1
  Al  Al24  1  0.10920700  0.60920700  0.03685500  1
  Al  Al25  1  0.10920700  0.39079300  0.03685500  1
  Al  Al26  1  0.89079300  0.60920700  0.03685500  1
  Al  Al27  1  0.89079300  0.39079300  0.03685500  1
  Al  Al28  1  0.39079300  0.10920700  0.96314500  1
  Al  Al29  1  0.60920700  0.89079300  0.96314500  1
  Al  Al30  1  0.60920700  0.10920700  0.96314500  1
  Al  Al31  1  0.39079300  0.89079300  0.96314500  1
  Al  Al32  1  0.17463700  0.67463700  0.48142700  1
  Al  Al33  1  0.17463700  0.32536300  0.48142700  1
  Al  Al34  1  0.82536300  0.67463700  0.48142700  1
  Al  Al35  1  0.82536300  0.32536300  0.48142700  1
  Al  Al36  1  0.32536300  0.17463700  0.51857300  1
  Al  Al37  1  0.67463700  0.82536300  0.51857300  1
  Al  Al38  1  0.67463700  0.17463700  0.51857300  1
  Al  Al39  1  0.32536300  0.82536300  0.51857300  1
  Cr  Cr0  1  0.74040600  0.50000000  0.25380800  1
  Cr  Cr1  1  0.00000000  0.75959400  0.25380800  1
  Cr  Cr2  1  0.00000000  0.24040600  0.25380800  1
  Cr  Cr3  1  0.25959400  0.50000000  0.25380800  1
  Cr  Cr4  1  0.75959400  0.00000000  0.74619200  1
  Cr  Cr5  1  0.24040600  0.00000000  0.74619200  1
  Cr  Cr6  1  0.50000000  0.74040600  0.74619200  1
  Cr  Cr7  1  0.50000000  0.25959400  0.74619200  1
loop_
_geom_bond_atom_site_label_1
_geom_bond_atom_site_label_2
_geom_bond_distance
_geom_bond_site_symmetry_2
Ca0 Cr6 3.361499 1_554
Ca0 Cr3 3.361499 1_555
Ca0 Cr0 3.361499 1_555
Ca0 Cr7 3.361499 1_554
Ca1 Cr5 3.361499 1_554
Ca1 Cr2 3.361499 1_555
Ca1 Cr1 3.361499 1_545
Ca1 Cr4 3.361499 1_454
Al0 Cr5 2.733882 1_554
Al0 Cr2 2.733882 1_555
Al0 Al4 2.761144 1_555
Al0 Al15 2.805981 1_554
Al0 Al15 2.805981 1_555
Al0 Al20 2.821990 1_555
Al0 Al17 2.821990 1_554
Al0 Al25 2.918414 1_555
Al0 Al28 2.918414 1_554
Al0 Ca1 3.172526 1_555
Al1 Cr0 2.733882 1_555
Al1 Cr7 2.733882 1_554
Al1 Al5 2.761144 1_555
Al1 Al14 2.805981 1_555
Al1 Al14 2.805981 1_554
Al1 Al19 2.821990 1_554
Al1 Al22 2.821990 1_555
Al1 Al27 2.918414 1_555
Al1 Al30 2.918414 1_554
Al1 Ca0 3.172526 1_555
Al2 Cr3 2.733882 1_555
Al2 Cr6 2.733882 1_554
Al2 Al6 2.761144 1_555
Al2 Al23 2.821990 1_555
Al2 Al31 2.918414 1_554
Al2 Al24 2.918414 1_555
Al2 Ca0 3.172526 1_555
Al3 Cr1 2.733882 1_655
Al3 Cr4 2.733882 1_564
Al3 Al7 2.761144 1_555
Al3 Ca1 3.172526 1_665
Al4 Cr3 2.733882 1_555
Al4 Cr7 2.733882 1_554
Al4 Ca0 3.172526 1_555
Al5 Cr4 2.733882 1_554
Al5 Cr2 2.733882 1_655
Al5 Ca1 3.172526 1_655
Al6 Cr1 2.733882 1_555
Al6 Cr5 2.733882 1_564
Al6 Al9 2.805981 1_554
Al6 Al9 2.805981 1_555
Al6 Ca1 3.172526 1_565
Al7 Cr0 2.733882 1_555
Al7 Cr6 2.733882 1_554
Al7 Al8 2.805981 1_555
Al7 Al8 2.805981 1_554
Al7 Ca0 3.172526 1_555
Al8 Cr6 2.533852 1_555
Al8 Cr0 2.533852 1_555
Al8 Ca0 3.306378 1_555
Al8 Ca0 3.306378 1_556
Al9 Cr5 2.533852 1_565
Al9 Cr1 2.533852 1_555
Al9 Ca1 3.306378 1_565
Al9 Ca1 3.306378 1_566
Al10 Cr2 2.533852 1_655
Al10 Cr4 2.533852 1_555
Al10 Al17 2.719846 1_655
Al10 Al21 2.719846 1_555
Al10 Al5 2.805981 1_555
Al10 Al5 2.805981 1_556
Al10 Al38 2.840287 1_555
Al10 Al35 2.840287 1_555
Al10 Al12 2.925030 1_545
Al10 Al15 2.925030 1_655
Al10 Ca1 3.306378 1_656
Al10 Ca1 3.306378 1_655
Al11 Cr7 2.533852 1_555
Al11 Cr3 2.533852 1_555
Al11 Al16 2.719846 1_555
Al11 Al22 2.719846 1_555
Al11 Al4 2.805981 1_556
Al11 Al4 2.805981 1_555
Al11 Al33 2.840287 1_555
Al11 Al36 2.840287 1_555
Al11 Al14 2.925030 1_555
Al11 Al13 2.925030 1_555
Al11 Ca0 3.306378 1_556
Al11 Ca0 3.306378 1_555
Al12 Cr4 2.533852 1_565
Al12 Cr1 2.533852 1_655
Al12 Al21 2.719846 1_565
Al12 Al18 2.719846 1_655
Al12 Al3 2.805981 1_556
Al12 Al3 2.805981 1_555
Al12 Al34 2.840287 1_555
Al12 Al37 2.840287 1_555
Al12 Al9 2.925030 1_655
Al12 Ca1 3.306378 1_665
Al12 Ca1 3.306378 1_666
Al13 Cr3 2.533852 1_555
Al13 Cr6 2.533852 1_555
Al13 Al16 2.719846 1_555
Al13 Al23 2.719846 1_555
Al13 Al2 2.805981 1_555
Al13 Al2 2.805981 1_556
Al13 Al39 2.840287 1_555
Al13 Al32 2.840287 1_555
Al13 Al8 2.925030 1_555
Al13 Ca0 3.306378 1_556
Al13 Ca0 3.306378 1_555
Al14 Cr7 2.533852 1_555
Al14 Cr0 2.533852 1_555
Al14 Al22 2.719846 1_555
Al14 Al19 2.719846 1_555
Al14 Al35 2.840287 1_555
Al14 Al38 2.840287 1_555
Al14 Al8 2.925030 1_555
Al14 Ca0 3.306378 1_556
Al14 Ca0 3.306378 1_555
Al15 Cr5 2.533852 1_555
Al15 Cr2 2.533852 1_555
Al15 Al20 2.719846 1_555
Al15 Al17 2.719846 1_555
Al15 Al36 2.840287 1_555
Al15 Al33 2.840287 1_555
Al15 Al9 2.925030 1_545
Al15 Ca1 3.306378 1_555
Al15 Ca1 3.306378 1_556
Al16 Cr3 2.568000 1_555
Al16 Cr3 2.618631 1_556
Al16 Al25 2.640975 1_556
Al16 Al24 2.640975 1_556
Al16 Al33 2.765262 1_555
Al16 Al32 2.765262 1_555
Al16 Al2 2.821990 1_556
Al16 Al4 2.821990 1_556
Al16 Ca2 3.297498 1_555
Al17 Cr2 2.568000 1_555
Al17 Cr2 2.618631 1_556
Al17 Al25 2.640975 1_556
Al17 Al27 2.640975 1_456
Al17 Al33 2.765262 1_555
Al17 Al35 2.765262 1_455
Al17 Al5 2.821990 1_456
Al17 Ca2 3.297498 1_555
Al18 Cr1 2.568000 1_555
Al18 Cr1 2.618631 1_556
Al18 Al24 2.640975 1_556
Al18 Al26 2.640975 1_456
Al18 Al9 2.719846 1_555
Al18 Al32 2.765262 1_555
Al18 Al34 2.765262 1_455
Al18 Al6 2.821990 1_556
Al18 Al3 2.821990 1_456
Al18 Ca2 3.297498 1_555
Al19 Cr0 2.568000 1_555
Al19 Cr0 2.618631 1_556
Al19 Al27 2.640975 1_556
Al19 Al26 2.640975 1_556
Al19 Al8 2.719846 1_555
Al19 Al35 2.765262 1_555
Al19 Al34 2.765262 1_555
Al19 Al7 2.821990 1_556
Al19 Ca2 3.297498 1_655
Al20 Cr5 2.568000 1_555
Al20 Cr5 2.618631 1_554
Al20 Al28 2.640975 1_554
Al20 Al31 2.640975 1_544
Al20 Al9 2.719846 1_545
Al20 Al36 2.765262 1_555
Al20 Al39 2.765262 1_545
Al20 Al6 2.821990 1_545
Al20 Ca3 3.297498 1_555
Al21 Cr4 2.568000 1_555
Al21 Cr4 2.618631 1_554
Al21 Al30 2.640975 1_554
Al21 Al29 2.640975 1_544
Al21 Al38 2.765262 1_555
Al21 Al37 2.765262 1_545
Al21 Al5 2.821990 1_555
Al21 Al3 2.821990 1_545
Al21 Ca3 3.297498 1_555
Al22 Cr7 2.568000 1_555
Al22 Cr7 2.618631 1_554
Al22 Al28 2.640975 1_554
Al22 Al30 2.640975 1_554
Al22 Al36 2.765262 1_555
Al22 Al38 2.765262 1_555
Al22 Al4 2.821990 1_555
Al22 Ca3 3.297498 1_555
Al23 Cr6 2.568000 1_555
Al23 Cr6 2.618631 1_554
Al23 Al31 2.640975 1_554
Al23 Al29 2.640975 1_554
Al23 Al8 2.719846 1_555
Al23 Al39 2.765262 1_555
Al23 Al37 2.765262 1_555
Al23 Al7 2.821990 1_555
Al23 Ca3 3.297498 1_565
Al24 Al32 2.584702 1_555
Al24 Cr1 2.642259 1_555
Al24 Cr3 2.642259 1_555
Al24 Al26 2.812759 1_455
Al24 Al25 2.812759 1_555
Al24 Al6 2.918414 1_555
Al24 Al32 3.103439 1_554
Al24 Ca2 3.184231 1_555
Al24 Ca2 3.331369 1_554
Al25 Al33 2.584702 1_555
Al25 Cr2 2.642259 1_555
Al25 Cr3 2.642259 1_555
Al25 Al27 2.812759 1_455
Al25 Al4 2.918414 1_555
Al25 Al33 3.103439 1_554
Al25 Ca2 3.184231 1_555
Al25 Ca2 3.331369 1_554
Al26 Al34 2.584702 1_555
Al26 Cr0 2.642259 1_555
Al26 Cr1 2.642259 1_655
Al26 Al27 2.812759 1_555
Al26 Al3 2.918414 1_555
Al26 Al7 2.918414 1_555
Al26 Al34 3.103439 1_554
Al26 Ca2 3.184231 1_655
Al26 Ca2 3.331369 1_654
Al27 Al35 2.584702 1_555
Al27 Cr0 2.642259 1_555
Al27 Cr2 2.642259 1_655
Al27 Al5 2.918414 1_555
Al27 Al35 3.103439 1_554
Al27 Ca2 3.184231 1_655
Al27 Ca2 3.331369 1_654
Al28 Al36 2.584702 1_555
Al28 Cr5 2.642259 1_555
Al28 Cr7 2.642259 1_555
Al28 Al31 2.812759 1_545
Al28 Al30 2.812759 1_555
Al28 Al4 2.918414 1_556
Al28 Al36 3.103439 1_556
Al28 Ca3 3.184231 1_555
Al28 Ca3 3.331369 1_556
Al29 Al37 2.584702 1_555
Al29 Cr6 2.642259 1_555
Al29 Cr4 2.642259 1_565
Al29 Al31 2.812759 1_555
Al29 Al30 2.812759 1_565
Al29 Al7 2.918414 1_556
Al29 Al3 2.918414 1_556
Al29 Al37 3.103439 1_556
Al29 Ca3 3.184231 1_565
Al29 Ca3 3.331369 1_566
Al30 Al38 2.584702 1_555
Al30 Cr4 2.642259 1_555
Al30 Cr7 2.642259 1_555
Al30 Al5 2.918414 1_556
Al30 Al38 3.103439 1_556
Al30 Ca3 3.184231 1_555
Al30 Ca3 3.331369 1_556
Al31 Al39 2.584702 1_555
Al31 Cr6 2.642259 1_555
Al31 Cr5 2.642259 1_565
Al31 Al6 2.918414 1_556
Al31 Al39 3.103439 1_556
Al31 Ca3 3.184231 1_565
Al31 Ca3 3.331369 1_566
Al32 Al39 2.751762 1_555
Al32 Cr1 2.762975 1_555
Al32 Cr3 2.762975 1_555
Al32 Al9 2.840287 1_555
Al32 Ca2 3.186411 1_555
Al33 Al36 2.751762 1_555
Al33 Cr2 2.762975 1_555
Al33 Cr3 2.762975 1_555
Al33 Ca2 3.186411 1_555
Al34 Al37 2.751762 1_555
Al34 Cr0 2.762975 1_555
Al34 Cr1 2.762975 1_655
Al34 Al8 2.840287 1_555
Al34 Ca2 3.186411 1_655
Al35 Al38 2.751762 1_555
Al35 Cr0 2.762975 1_555
Al35 Cr2 2.762975 1_655
Al35 Ca2 3.186411 1_655
Al36 Cr5 2.762975 1_555
Al36 Cr7 2.762975 1_555
Al36 Ca3 3.186411 1_555
Al37 Cr6 2.762975 1_555
Al37 Cr4 2.762975 1_565
Al37 Al8 2.840287 1_555
Al37 Ca3 3.186411 1_565
Al38 Cr4 2.762975 1_555
Al38 Cr7 2.762975 1_555
Al38 Ca3 3.186411 1_555
Al39 Cr6 2.762975 1_555
Al39 Cr5 2.762975 1_565
Al39 Al9 2.840287 1_555
Al39 Ca3 3.186411 1_565
