# generated using pymatgen
data_Mg14VCd
_symmetry_space_group_name_H-M   'P 1'
_cell_length_a   6.31221036
_cell_length_b   6.32139596
_cell_length_c   10.17793575
_cell_angle_alpha   90.00000000
_cell_angle_beta   90.00000000
_cell_angle_gamma   120.04815500
_symmetry_Int_Tables_number   1
_chemical_formula_structural   Mg14VCd
_chemical_formula_sum   'Mg14 V1 Cd1'
_cell_volume   351.53927459
_cell_formula_units_Z   1
loop_
 _symmetry_equiv_pos_site_id
 _symmetry_equiv_pos_as_xyz
  1  'x, y, z'
loop_
 _atom_site_type_symbol
 _atom_site_label
 _atom_site_symmetry_multiplicity
 _atom_site_fract_x
 _atom_site_fract_y
 _atom_site_fract_z
 _atom_site_occupancy
  Mg  Mg0  1  0.16703657  0.33351779  0.62500000  1
  Mg  Mg1  1  0.16787972  0.83393936  0.62500000  1
  Mg  Mg2  1  0.66738966  0.33116230  0.12500000  1
  Mg  Mg3  1  0.66597577  0.33235907  0.62500000  1
  Mg  Mg4  1  0.66738966  0.83622637  0.12500000  1
  Mg  Mg5  1  0.66597577  0.83361569  0.62500000  1
  Mg  Mg6  1  0.32994599  0.16893025  0.36934364  1
  Mg  Mg7  1  0.32994599  0.16893025  0.88065636  1
  Mg  Mg8  1  0.32994599  0.66101673  0.36934364  1
  Mg  Mg9  1  0.32994599  0.66101673  0.88065636  1
  Mg  Mg10  1  0.83866016  0.16933058  0.37203989  1
  Mg  Mg11  1  0.83866016  0.16933058  0.87796011  1
  Mg  Mg12  1  0.83348982  0.66674541  0.37500659  1
  Mg  Mg13  1  0.83348982  0.66674541  0.87499341  1
  V  V0  1  0.16544159  0.33272029  0.12500000  1
  Cd  Cd0  1  0.16882734  0.83441317  0.12500000  1
loop_
_geom_bond_atom_site_label_1
_geom_bond_atom_site_label_2
_geom_bond_distance
_geom_bond_site_symmetry_2
Mg0 Mg10 3.138122 1_455
Mg0 Mg11 3.138122 1_455
Mg0 Mg5 3.153083 1_555
Mg0 Mg3 3.153083 1_555
Mg0 Mg5 3.159140 1_445
Mg0 Mg3 3.159140 1_455
Mg0 Mg6 3.159438 1_555
Mg0 Mg7 3.159438 1_555
Mg0 Mg8 3.159444 1_555
Mg0 Mg9 3.159444 1_555
Mg0 Mg1 3.160701 1_555
Mg0 Mg1 3.160701 1_545
Mg1 Mg12 3.132448 1_455
Mg1 Mg13 3.132448 1_455
Mg1 Mg3 3.145112 1_565
Mg1 Mg5 3.145112 1_555
Mg1 Mg3 3.167099 1_455
Mg1 Mg5 3.167099 1_455
Mg1 Mg8 3.183077 1_555
Mg1 Mg9 3.183077 1_555
Mg1 Mg7 3.183083 1_565
Mg1 Mg6 3.183083 1_565
Mg2 Mg6 3.096101 1_555
Mg2 Mg7 3.096101 1_554
Mg2 Mg4 3.128686 1_545
Mg2 V0 3.138889 1_655
Mg2 V0 3.173345 1_555
Mg2 Mg4 3.192710 1_555
Mg3 Mg5 3.152754 1_545
Mg3 Mg5 3.168642 1_555
Mg3 Mg6 3.184732 1_555
Mg3 Mg7 3.184732 1_555
Mg4 Mg8 3.096101 1_555
Mg4 Mg9 3.096101 1_554
Mg4 V0 3.138888 1_665
Mg4 V0 3.173345 1_555
Mg5 Mg8 3.184732 1_555
Mg5 Mg9 3.184732 1_555
Mg6 V0 3.067848 1_555
Mg6 Mg8 3.110673 1_555
Mg6 Mg8 3.210722 1_545
Mg7 V0 3.067848 1_556
Mg7 Mg9 3.110673 1_555
Mg7 Mg9 3.210722 1_545
Mg8 V0 3.067855 1_555
Mg9 V0 3.067855 1_556
Mg10 V0 3.083825 1_655
Mg10 Mg8 3.102489 1_655
Mg10 Mg6 3.102489 1_655
Mg10 Mg2 3.105618 1_555
Mg10 Mg4 3.105624 1_545
Mg10 Mg12 3.160968 1_545
Mg10 Mg12 3.160968 1_555
Mg10 Mg3 3.162881 1_555
Mg10 Mg5 3.162887 1_545
Mg10 Mg8 3.209962 1_545
Mg10 Mg6 3.209962 1_555
Mg11 V0 3.083825 1_656
Mg11 Mg9 3.102489 1_655
Mg11 Mg7 3.102489 1_655
Mg11 Mg2 3.105618 1_556
Mg11 Mg4 3.105624 1_546
Mg11 Mg13 3.160968 1_545
Mg11 Mg13 3.160968 1_555
Mg11 Mg3 3.162881 1_555
Mg11 Mg5 3.162887 1_545
Mg11 Mg9 3.209962 1_545
Mg11 Mg7 3.209962 1_555
Mg12 Mg5 3.133982 1_555
Mg12 Mg3 3.133988 1_555
Mg12 Mg4 3.137948 1_555
Mg12 Mg2 3.137954 1_555
Mg12 Mg6 3.152551 1_665
Mg12 Mg8 3.152552 1_655
Mg12 Mg6 3.161022 1_555
Mg12 Mg8 3.161023 1_555
Mg13 Mg5 3.133982 1_555
Mg13 Mg3 3.133988 1_555
Mg13 Mg4 3.137948 1_556
Mg13 Mg2 3.137954 1_556
Mg13 Mg7 3.152551 1_665
Mg13 Mg9 3.152552 1_655
Mg13 Mg7 3.161022 1_555
Mg13 Mg9 3.161023 1_555
Cd0 Mg8 3.088186 1_555
Cd0 Mg9 3.088186 1_554
Cd0 Mg7 3.088192 1_564
Cd0 Mg6 3.088192 1_565
Cd0 Mg12 3.135579 1_455
Cd0 Mg13 3.135579 1_454
Cd0 Mg2 3.141306 1_565
Cd0 Mg4 3.141307 1_555
Cd0 V0 3.160752 1_565
Cd0 V0 3.160752 1_555
Cd0 Mg2 3.170935 1_455
Cd0 Mg4 3.170935 1_455
