# generated using pymatgen
data_H26OsC6S6Br3N12O
_symmetry_space_group_name_H-M   'P 1'
_cell_length_a   11.67358300
_cell_length_b   20.74023700
_cell_length_c   12.30920900
_cell_angle_alpha   90.00000000
_cell_angle_beta   90.00000000
_cell_angle_gamma   90.00000000
_symmetry_Int_Tables_number   1
_chemical_formula_structural   H26OsC6S6Br3N12O
_chemical_formula_sum   'H104 Os4 C24 S24 Br12 N48 O4'
_cell_volume   2980.21801762
_cell_formula_units_Z   4
loop_
 _symmetry_equiv_pos_site_id
 _symmetry_equiv_pos_as_xyz
  1  'x, y, z'
loop_
 _atom_site_type_symbol
 _atom_site_label
 _atom_site_symmetry_multiplicity
 _atom_site_fract_x
 _atom_site_fract_y
 _atom_site_fract_z
 _atom_site_occupancy
  H  H0  1  0.71940300  0.28234300  0.79909500  1
  H  H1  1  0.78059700  0.21765700  0.79909500  1
  H  H2  1  0.28059700  0.78234300  0.70090500  1
  H  H3  1  0.21940300  0.71765700  0.70090500  1
  H  H4  1  0.28059700  0.71765700  0.20090500  1
  H  H5  1  0.21940300  0.78234300  0.20090500  1
  H  H6  1  0.71940300  0.21765700  0.29909500  1
  H  H7  1  0.78059700  0.28234300  0.29909500  1
  H  H8  1  0.45468000  0.13175800  0.38607900  1
  H  H9  1  0.04532000  0.36824200  0.38607900  1
  H  H10  1  0.54532000  0.63175800  0.11392100  1
  H  H11  1  0.95468000  0.86824200  0.11392100  1
  H  H12  1  0.54532000  0.86824200  0.61392100  1
  H  H13  1  0.95468000  0.63175800  0.61392100  1
  H  H14  1  0.45468000  0.36824200  0.88607900  1
  H  H15  1  0.04532000  0.13175800  0.88607900  1
  H  H16  1  0.45697000  0.21607900  0.39868900  1
  H  H17  1  0.04303000  0.28392100  0.39868900  1
  H  H18  1  0.54303000  0.71607900  0.10131100  1
  H  H19  1  0.95697000  0.78392100  0.10131100  1
  H  H20  1  0.54303000  0.78392100  0.60131100  1
  H  H21  1  0.95697000  0.71607900  0.60131100  1
  H  H22  1  0.45697000  0.28392100  0.89868900  1
  H  H23  1  0.04303000  0.21607900  0.89868900  1
  H  H24  1  0.64679300  0.21640800  0.62405400  1
  H  H25  1  0.85320700  0.28359200  0.62405400  1
  H  H26  1  0.35320700  0.71640800  0.87594600  1
  H  H27  1  0.14679300  0.78359200  0.87594600  1
  H  H28  1  0.35320700  0.78359200  0.37594600  1
  H  H29  1  0.14679300  0.71640800  0.37594600  1
  H  H30  1  0.64679300  0.28359200  0.12405400  1
  H  H31  1  0.85320700  0.21640800  0.12405400  1
  H  H32  1  0.58282300  0.26462600  0.52132900  1
  H  H33  1  0.91717700  0.23537400  0.52132900  1
  H  H34  1  0.41717700  0.76462600  0.97867100  1
  H  H35  1  0.08282300  0.73537400  0.97867100  1
  H  H36  1  0.41717700  0.73537400  0.47867100  1
  H  H37  1  0.08282300  0.76462600  0.47867100  1
  H  H38  1  0.58282300  0.23537400  0.02132900  1
  H  H39  1  0.91717700  0.26462600  0.02132900  1
  H  H40  1  0.85279200  0.85866500  0.48235300  1
  H  H41  1  0.64720800  0.64133500  0.48235300  1
  H  H42  1  0.14720800  0.35866500  0.01764700  1
  H  H43  1  0.35279200  0.14133500  0.01764700  1
  H  H44  1  0.14720800  0.14133500  0.51764700  1
  H  H45  1  0.35279200  0.35866500  0.51764700  1
  H  H46  1  0.85279200  0.64133500  0.98235300  1
  H  H47  1  0.64720800  0.85866500  0.98235300  1
  H  H48  1  0.81941700  0.82136000  0.35742400  1
  H  H49  1  0.68058300  0.67864000  0.35742400  1
  H  H50  1  0.18058300  0.32136000  0.14257600  1
  H  H51  1  0.31941700  0.17864000  0.14257600  1
  H  H52  1  0.18058300  0.17864000  0.64257600  1
  H  H53  1  0.31941700  0.32136000  0.64257600  1
  H  H54  1  0.81941700  0.67864000  0.85742400  1
  H  H55  1  0.68058300  0.82136000  0.85742400  1
  H  H56  1  0.57871100  0.91620200  0.29839600  1
  H  H57  1  0.92128900  0.58379800  0.29839600  1
  H  H58  1  0.42128900  0.41620200  0.20160400  1
  H  H59  1  0.07871100  0.08379800  0.20160400  1
  H  H60  1  0.42128900  0.08379800  0.70160400  1
  H  H61  1  0.07871100  0.41620200  0.70160400  1
  H  H62  1  0.57871100  0.58379800  0.79839600  1
  H  H63  1  0.92128900  0.91620200  0.79839600  1
  H  H64  1  0.66560000  0.85079000  0.25881000  1
  H  H65  1  0.83440000  0.64921000  0.25881000  1
  H  H66  1  0.33440000  0.35079000  0.24119000  1
  H  H67  1  0.16560000  0.14921000  0.24119000  1
  H  H68  1  0.33440000  0.14921000  0.74119000  1
  H  H69  1  0.16560000  0.35079000  0.74119000  1
  H  H70  1  0.66560000  0.64921000  0.75881000  1
  H  H71  1  0.83440000  0.85079000  0.75881000  1
  H  H72  1  0.27850800  0.95334300  0.62512000  1
  H  H73  1  0.22149200  0.54665700  0.62512000  1
  H  H74  1  0.72149200  0.45334300  0.87488000  1
  H  H75  1  0.77850800  0.04665700  0.87488000  1
  H  H76  1  0.72149200  0.04665700  0.37488000  1
  H  H77  1  0.77850800  0.45334300  0.37488000  1
  H  H78  1  0.27850800  0.54665700  0.12512000  1
  H  H79  1  0.22149200  0.95334300  0.12512000  1
  H  H80  1  0.21995200  0.91841900  0.74086100  1
  H  H81  1  0.28004800  0.58158100  0.74086100  1
  H  H82  1  0.78004800  0.41841900  0.75913900  1
  H  H83  1  0.71995200  0.08158100  0.75913900  1
  H  H84  1  0.78004800  0.08158100  0.25913900  1
  H  H85  1  0.71995200  0.41841900  0.25913900  1
  H  H86  1  0.21995200  0.58158100  0.24086100  1
  H  H87  1  0.28004800  0.91841900  0.24086100  1
  H  H88  1  0.47846900  0.92473800  0.89330200  1
  H  H89  1  0.02153100  0.57526200  0.89330200  1
  H  H90  1  0.52153100  0.42473800  0.60669800  1
  H  H91  1  0.97846900  0.07526200  0.60669800  1
  H  H92  1  0.52153100  0.07526200  0.10669800  1
  H  H93  1  0.97846900  0.42473800  0.10669800  1
  H  H94  1  0.47846900  0.57526200  0.39330200  1
  H  H95  1  0.02153100  0.92473800  0.39330200  1
  H  H96  1  0.33511600  0.90590600  0.90005900  1
  H  H97  1  0.16488400  0.59409400  0.90005900  1
  H  H98  1  0.66488400  0.40590600  0.59994100  1
  H  H99  1  0.83511600  0.09409400  0.59994100  1
  H  H100  1  0.66488400  0.09409400  0.09994100  1
  H  H101  1  0.83511600  0.40590600  0.09994100  1
  H  H102  1  0.33511600  0.59409400  0.40005900  1
  H  H103  1  0.16488400  0.90590600  0.40005900  1
  Os  Os0  1  0.50000000  0.00000000  0.50000000  1
  Os  Os1  1  0.00000000  0.50000000  0.50000000  1
  Os  Os2  1  0.50000000  0.50000000  0.00000000  1
  Os  Os3  1  0.00000000  0.00000000  0.00000000  1
  C  C0  1  0.55804100  0.16674600  0.50675900  1
  C  C1  1  0.94195900  0.33325400  0.50675900  1
  C  C2  1  0.44195900  0.66674600  0.99324100  1
  C  C3  1  0.05804100  0.83325400  0.99324100  1
  C  C4  1  0.44195900  0.83325400  0.49324100  1
  C  C5  1  0.05804100  0.66674600  0.49324100  1
  C  C6  1  0.55804100  0.33325400  0.00675900  1
  C  C7  1  0.94195900  0.16674600  0.00675900  1
  C  C8  1  0.71368100  0.89551400  0.39916600  1
  C  C9  1  0.78631900  0.60448600  0.39916600  1
  C  C10  1  0.28631900  0.39551400  0.10083400  1
  C  C11  1  0.21368100  0.10448600  0.10083400  1
  C  C12  1  0.28631900  0.10448600  0.60083400  1
  C  C13  1  0.21368100  0.39551400  0.60083400  1
  C  C14  1  0.71368100  0.60448600  0.89916600  1
  C  C15  1  0.78631900  0.89551400  0.89916600  1
  C  C16  1  0.39057500  0.94263700  0.75199500  1
  C  C17  1  0.10942500  0.55736300  0.75199500  1
  C  C18  1  0.60942500  0.44263700  0.74800500  1
  C  C19  1  0.89057500  0.05736300  0.74800500  1
  C  C20  1  0.60942500  0.05736300  0.24800500  1
  C  C21  1  0.89057500  0.44263700  0.24800500  1
  C  C22  1  0.39057500  0.55736300  0.25199500  1
  C  C23  1  0.10942500  0.94263700  0.25199500  1
  S  S0  1  0.60317300  0.09276100  0.55779500  1
  S  S1  1  0.89682700  0.40723900  0.55779500  1
  S  S2  1  0.39682700  0.59276100  0.94220500  1
  S  S3  1  0.10317300  0.90723900  0.94220500  1
  S  S4  1  0.39682700  0.90723900  0.44220500  1
  S  S5  1  0.10317300  0.59276100  0.44220500  1
  S  S6  1  0.60317300  0.40723900  0.05779500  1
  S  S7  1  0.89682700  0.09276100  0.05779500  1
  S  S8  1  0.68615100  0.95149900  0.50135800  1
  S  S9  1  0.81384900  0.54850100  0.50135800  1
  S  S10  1  0.31384900  0.45149900  0.99864200  1
  S  S11  1  0.18615100  0.04850100  0.99864200  1
  S  S12  1  0.31384900  0.04850100  0.49864200  1
  S  S13  1  0.18615100  0.45149900  0.49864200  1
  S  S14  1  0.68615100  0.54850100  0.00135800  1
  S  S15  1  0.81384900  0.95149900  0.00135800  1
  S  S16  1  0.51226600  0.97399300  0.69215000  1
  S  S17  1  0.98773400  0.52600700  0.69215000  1
  S  S18  1  0.48773400  0.47399300  0.80785000  1
  S  S19  1  0.01226600  0.02600700  0.80785000  1
  S  S20  1  0.48773400  0.02600700  0.30785000  1
  S  S21  1  0.01226600  0.47399300  0.30785000  1
  S  S22  1  0.51226600  0.52600700  0.19215000  1
  S  S23  1  0.98773400  0.97399300  0.19215000  1
  Br  Br0  1  0.25000000  0.25000000  0.29722100  1
  Br  Br1  1  0.75000000  0.75000000  0.20277900  1
  Br  Br2  1  0.75000000  0.75000000  0.70277900  1
  Br  Br3  1  0.25000000  0.25000000  0.79722100  1
  Br  Br4  1  0.54788000  0.34959900  0.40810700  1
  Br  Br5  1  0.95212000  0.15040100  0.40810700  1
  Br  Br6  1  0.45212000  0.84959900  0.09189300  1
  Br  Br7  1  0.04788000  0.65040100  0.09189300  1
  Br  Br8  1  0.45212000  0.65040100  0.59189300  1
  Br  Br9  1  0.04788000  0.84959900  0.59189300  1
  Br  Br10  1  0.54788000  0.15040100  0.90810700  1
  Br  Br11  1  0.95212000  0.34959900  0.90810700  1
  N  N0  1  0.48797600  0.17197600  0.42208400  1
  N  N1  1  0.01202400  0.32802400  0.42208400  1
  N  N2  1  0.51202400  0.67197600  0.07791600  1
  N  N3  1  0.98797600  0.82802400  0.07791600  1
  N  N4  1  0.51202400  0.82802400  0.57791600  1
  N  N5  1  0.98797600  0.67197600  0.57791600  1
  N  N6  1  0.48797600  0.32802400  0.92208400  1
  N  N7  1  0.01202400  0.17197600  0.92208400  1
  N  N8  1  0.59818400  0.21954900  0.55538700  1
  N  N9  1  0.90181600  0.28045100  0.55538700  1
  N  N10  1  0.40181600  0.71954900  0.94461300  1
  N  N11  1  0.09818400  0.78045100  0.94461300  1
  N  N12  1  0.40181600  0.78045100  0.44461300  1
  N  N13  1  0.09818400  0.71954900  0.44461300  1
  N  N14  1  0.59818400  0.28045100  0.05538700  1
  N  N15  1  0.90181600  0.21954900  0.05538700  1
  N  N16  1  0.80690700  0.85843100  0.41151100  1
  N  N17  1  0.69309300  0.64156900  0.41151100  1
  N  N18  1  0.19309300  0.35843100  0.08848900  1
  N  N19  1  0.30690700  0.14156900  0.08848900  1
  N  N20  1  0.19309300  0.14156900  0.58848900  1
  N  N21  1  0.30690700  0.35843100  0.58848900  1
  N  N22  1  0.80690700  0.64156900  0.91151100  1
  N  N23  1  0.69309300  0.85843100  0.91151100  1
  N  N24  1  0.64903700  0.88810700  0.31172300  1
  N  N25  1  0.85096300  0.61189300  0.31172300  1
  N  N26  1  0.35096300  0.38810700  0.18827700  1
  N  N27  1  0.14903700  0.11189300  0.18827700  1
  N  N28  1  0.35096300  0.11189300  0.68827700  1
  N  N29  1  0.14903700  0.38810700  0.68827700  1
  N  N30  1  0.64903700  0.61189300  0.81172300  1
  N  N31  1  0.85096300  0.88810700  0.81172300  1
  N  N32  1  0.28971600  0.93726600  0.70260700  1
  N  N33  1  0.21028400  0.56273400  0.70260700  1
  N  N34  1  0.71028400  0.43726600  0.79739300  1
  N  N35  1  0.78971600  0.06273400  0.79739300  1
  N  N36  1  0.71028400  0.06273400  0.29739300  1
  N  N37  1  0.78971600  0.43726600  0.29739300  1
  N  N38  1  0.28971600  0.56273400  0.20260700  1
  N  N39  1  0.21028400  0.93726600  0.20260700  1
  N  N40  1  0.40195800  0.92203800  0.85453100  1
  N  N41  1  0.09804200  0.57796200  0.85453100  1
  N  N42  1  0.59804200  0.42203800  0.64546900  1
  N  N43  1  0.90195800  0.07796200  0.64546900  1
  N  N44  1  0.59804200  0.07796200  0.14546900  1
  N  N45  1  0.90195800  0.42203800  0.14546900  1
  N  N46  1  0.40195800  0.57796200  0.35453100  1
  N  N47  1  0.09804200  0.92203800  0.35453100  1
  O  O0  1  0.75000000  0.25000000  0.74940300  1
  O  O1  1  0.25000000  0.75000000  0.75059700  1
  O  O2  1  0.25000000  0.75000000  0.25059700  1
  O  O3  1  0.75000000  0.25000000  0.24940300  1
loop_
_geom_bond_atom_site_label_1
_geom_bond_atom_site_label_2
_geom_bond_distance
_geom_bond_site_symmetry_2
H0 O0 0.975545 1_555
H1 O0 0.975545 1_555
H2 O1 0.975545 1_555
H3 O1 0.975545 1_555
H4 O2 0.975545 1_555
H5 O2 0.975545 1_555
H6 O3 0.975545 1_555
H7 O3 0.975545 1_555
H8 N0 1.021406 1_555
H9 N1 1.021406 1_555
H10 N2 1.021406 1_555
H11 N3 1.021406 1_555
H12 N4 1.021406 1_555
H13 N5 1.021406 1_555
H14 N6 1.021406 1_555
H15 N7 1.021406 1_555
H16 N0 1.025000 1_555
H17 N1 1.025000 1_555
H18 N2 1.025000 1_555
H19 N3 1.025000 1_555
H20 N4 1.025000 1_555
H21 N5 1.025000 1_555
H22 N6 1.025000 1_555
H23 N7 1.025000 1_555
H24 N8 1.020126 1_555
H25 N9 1.020126 1_555
H26 N10 1.020126 1_555
H27 N11 1.020126 1_555
H28 N12 1.020126 1_555
H29 N13 1.020126 1_555
H30 N14 1.020126 1_555
H31 N15 1.020126 1_555
H32 N8 1.040172 1_555
H33 N9 1.040172 1_555
H34 N10 1.040172 1_555
H35 N11 1.040172 1_555
H36 N12 1.040172 1_555
H37 N13 1.040172 1_555
H38 N14 1.040172 1_555
H39 N15 1.040172 1_555
H40 N16 1.023394 1_555
H41 N17 1.023394 1_555
H42 N18 1.023394 1_555
H43 N19 1.023394 1_555
H44 N20 1.023394 1_555
H45 N21 1.023394 1_555
H46 N22 1.023394 1_555
H47 N23 1.023394 1_555
H48 N16 1.027483 1_555
H49 N17 1.027483 1_555
H50 N18 1.027483 1_555
H51 N19 1.027483 1_555
H52 N20 1.027483 1_555
H53 N21 1.027483 1_555
H54 N22 1.027483 1_555
H55 N23 1.027483 1_555
H56 N24 1.020008 1_555
H57 N25 1.020008 1_555
H58 N26 1.020008 1_555
H59 N27 1.020008 1_555
H60 N28 1.020008 1_555
H61 N29 1.020008 1_555
H62 N30 1.020008 1_555
H63 N31 1.020008 1_555
H64 N24 1.029863 1_555
H65 N25 1.029863 1_555
H66 N26 1.029863 1_555
H67 N27 1.029863 1_555
H68 N28 1.029863 1_555
H69 N29 1.029863 1_555
H70 N30 1.029863 1_555
H71 N31 1.029863 1_555
H72 N32 1.018844 1_555
H73 N33 1.018844 1_555
H74 N34 1.018844 1_555
H75 N35 1.018844 1_555
H76 N36 1.018844 1_555
H77 N37 1.018844 1_555
H78 N38 1.018844 1_555
H79 N39 1.018844 1_555
H80 N32 1.018706 1_555
H81 N33 1.018706 1_555
H82 N34 1.018706 1_555
H83 N35 1.018706 1_555
H84 N36 1.018706 1_555
H85 N37 1.018706 1_555
H86 N38 1.018706 1_555
H87 N39 1.018706 1_555
H88 N40 1.014211 1_555
H89 N41 1.014211 1_555
H90 N42 1.014211 1_555
H91 N43 1.014211 1_555
H92 N44 1.014211 1_555
H93 N45 1.014211 1_555
H94 N46 1.014211 1_555
H95 N47 1.014211 1_555
H96 N40 1.017278 1_555
H97 N41 1.017278 1_555
H98 N42 1.017278 1_555
H99 N43 1.017278 1_555
H100 N44 1.017278 1_555
H101 N45 1.017278 1_555
H102 N46 1.017278 1_555
H103 N47 1.017278 1_555
Os0 S4 2.378658 1_545
Os0 S0 2.378658 1_555
Os0 S8 2.394640 1_545
Os0 S12 2.394640 1_555
Os0 S20 2.430162 1_555
Os0 S16 2.430162 1_545
Os1 S5 2.378658 1_555
Os1 S1 2.378658 1_455
Os1 S9 2.394640 1_455
Os1 S13 2.394640 1_555
Os1 S21 2.430162 1_555
Os1 S17 2.430162 1_455
Os2 S6 2.378658 1_555
Os2 S2 2.378658 1_554
Os2 S14 2.394640 1_555
Os2 S10 2.394640 1_554
Os2 S22 2.430162 1_555
Os2 S18 2.430162 1_554
Os3 S7 2.378658 1_455
Os3 S3 2.378658 1_544
Os3 S15 2.394640 1_445
Os3 S11 2.394640 1_554
Os3 S23 2.430162 1_445
Os3 S19 2.430162 1_554
C0 N0 1.329321 1_555
C0 N8 1.333129 1_555
C0 S0 1.739773 1_555
C1 N1 1.329321 1_655
C1 N9 1.333129 1_555
C1 S1 1.739773 1_555
C2 N2 1.329321 1_556
C2 N10 1.333129 1_555
C2 S2 1.739773 1_555
C3 N3 1.329321 1_456
C3 N11 1.333129 1_555
C3 S3 1.739773 1_555
C4 N4 1.329321 1_555
C4 N12 1.333129 1_555
C4 S4 1.739773 1_555
C5 N5 1.329321 1_455
C5 N13 1.333129 1_555
C5 S5 1.739773 1_555
C6 N6 1.329321 1_554
C6 N14 1.333129 1_555
C6 S6 1.739773 1_555
C7 N7 1.329321 1_654
C7 N15 1.333129 1_555
C7 S7 1.739773 1_555
C8 N24 1.323480 1_555
C8 N16 1.341260 1_555
C8 S8 1.741795 1_555
C9 N25 1.323480 1_555
C9 N17 1.341260 1_555
C9 S9 1.741795 1_555
C10 N26 1.323480 1_555
C10 N18 1.341260 1_555
C10 S10 1.741795 1_554
C11 N27 1.323480 1_555
C11 N19 1.341260 1_555
C11 S11 1.741795 1_554
C12 N28 1.323480 1_555
C12 N20 1.341260 1_555
C12 S12 1.741795 1_555
C13 N29 1.323480 1_555
C13 N21 1.341260 1_555
C13 S13 1.741795 1_555
C14 N30 1.323480 1_555
C14 N22 1.341260 1_555
C14 S14 1.741795 1_556
C15 N31 1.323480 1_555
C15 N23 1.341260 1_555
C15 S15 1.741795 1_556
C16 N32 1.329745 1_555
C16 N40 1.339093 1_555
C16 S16 1.727308 1_555
C17 N33 1.329745 1_555
C17 N41 1.339093 1_555
C17 S17 1.727308 1_455
C18 N34 1.329745 1_555
C18 N42 1.339093 1_555
C18 S18 1.727308 1_555
C19 N35 1.329745 1_555
C19 N43 1.339093 1_555
C19 S19 1.727308 1_655
C20 N36 1.329745 1_555
C20 N44 1.339093 1_555
C20 S20 1.727308 1_555
C21 N37 1.329745 1_555
C21 N45 1.339093 1_555
C21 S21 1.727308 1_655
C22 N38 1.329745 1_555
C22 N46 1.339093 1_555
C22 S22 1.727308 1_555
C23 N39 1.329745 1_555
C23 N47 1.339093 1_555
C23 S23 1.727308 1_455
Br4 H32 2.283556 1_555
Br5 H33 2.283556 1_555
Br6 H34 2.283556 1_554
Br7 H35 2.283556 1_554
Br8 H36 2.283556 1_555
Br9 H37 2.283556 1_555
Br10 H38 2.283556 1_556
Br11 H39 2.283556 1_556
