# generated using pymatgen
data_Li3Co4SnO8
_symmetry_space_group_name_H-M   'P 1'
_cell_length_a   6.07875257
_cell_length_b   8.49123017
_cell_length_c   6.10016417
_cell_angle_alpha   90.46377480
_cell_angle_beta   89.95521414
_cell_angle_gamma   90.00374776
_symmetry_Int_Tables_number   1
_chemical_formula_structural   Li3Co4SnO8
_chemical_formula_sum   'Li6 Co8 Sn2 O16'
_cell_volume   314.85619403
_cell_formula_units_Z   2
loop_
 _symmetry_equiv_pos_site_id
 _symmetry_equiv_pos_as_xyz
  1  'x, y, z'
loop_
 _atom_site_type_symbol
 _atom_site_label
 _atom_site_symmetry_multiplicity
 _atom_site_fract_x
 _atom_site_fract_y
 _atom_site_fract_z
 _atom_site_occupancy
  Li  Li0  1  0.49997400  0.49999300  0.00001700  1
  Li  Li1  1  0.00004900  0.99998800  0.49988300  1
  Li  Li2  1  0.25221300  0.25129400  0.25213700  1
  Li  Li3  1  0.74787400  0.74869200  0.74792400  1
  Li  Li4  1  0.25213300  0.74869900  0.74794100  1
  Li  Li5  1  0.74772300  0.25132000  0.25211200  1
  Co  Co0  1  0.49995500  0.50001600  0.49999900  1
  Co  Co1  1  0.99999000  0.50018300  0.00003100  1
  Co  Co2  1  0.49996200  0.00004000  0.49994300  1
  Co  Co3  1  0.99999500  0.00011700  0.99990600  1
  Co  Co4  1  0.25036000  0.24834900  0.74925000  1
  Co  Co5  1  0.74973000  0.75166100  0.25076300  1
  Co  Co6  1  0.74977500  0.24829500  0.74919200  1
  Co  Co7  1  0.25023600  0.75165000  0.25087700  1
  Sn  Sn0  1  0.00000400  0.49993500  0.49992500  1
  Sn  Sn1  1  0.49992700  0.00001400  0.99999400  1
  O  O0  1  0.49966800  0.75590800  0.01807100  1
  O  O1  1  0.99993900  0.25427400  0.51909100  1
  O  O2  1  0.00025200  0.74570700  0.48111800  1
  O  O3  1  0.50019200  0.24393700  0.98182800  1
  O  O4  1  0.50026700  0.25407800  0.51714800  1
  O  O5  1  0.00033400  0.76787700  0.01366900  1
  O  O6  1  0.99990700  0.23208500  0.98649500  1
  O  O7  1  0.49957800  0.74596200  0.48271000  1
  O  O8  1  0.74686300  0.99448900  0.75971800  1
  O  O9  1  0.23995400  0.49695500  0.25389100  1
  O  O10  1  0.25367700  0.99466100  0.75959900  1
  O  O11  1  0.76014700  0.49703300  0.25412200  1
  O  O12  1  0.23986200  0.50294600  0.74596000  1
  O  O13  1  0.74635400  0.00535300  0.24030700  1
  O  O14  1  0.75992500  0.50306600  0.74617200  1
  O  O15  1  0.25318300  0.00542300  0.24020900  1
loop_
_geom_bond_atom_site_label_1
_geom_bond_atom_site_label_2
_geom_bond_distance
_geom_bond_site_symmetry_2
Li0 O0 2.174933 1_555
Li0 O3 2.176163 1_554
Li0 O14 2.211856 1_554
Li0 O9 2.212274 1_555
Li0 O12 2.215174 1_554
Li0 O11 2.215645 1_555
Li1 O2 2.161266 1_555
Li1 O1 2.161431 1_465
Li1 O15 2.208266 1_565
Li1 O8 2.209205 1_455
Li1 O13 2.211928 1_465
Li1 O10 2.212248 1_555
Li2 O9 2.087240 1_555
Li2 O15 2.088435 1_555
Li2 O4 2.211519 1_555
Li2 O3 2.233740 1_554
Li2 O1 2.235984 1_455
Li2 O6 2.237034 1_454
Li3 O14 2.086898 1_555
Li3 O8 2.087786 1_555
Li3 O7 2.213426 1_555
Li3 O0 2.233916 1_556
Li3 O2 2.235761 1_655
Li3 O5 2.238118 1_656
Li4 O12 2.088011 1_555
Li4 O10 2.089176 1_555
Li4 O7 2.208255 1_555
Li4 O0 2.232819 1_556
Li4 O5 2.233562 1_556
Li4 O2 2.235507 1_555
Li5 O11 2.087704 1_555
Li5 O13 2.089237 1_555
Li5 O4 2.207431 1_555
Li5 O3 2.233528 1_554
Li5 O6 2.234707 1_554
Li5 O1 2.237595 1_555
Co0 O4 2.091781 1_555
Co0 O7 2.091899 1_555
Co0 O12 2.178809 1_555
Co0 O11 2.178896 1_555
Co0 O9 2.180727 1_555
Co0 O14 2.180863 1_555
Co1 O12 2.127401 1_654
Co1 O11 2.127427 1_555
Co1 O9 2.128580 1_655
Co1 O14 2.128943 1_554
Co1 O5 2.273901 1_655
Co1 O6 2.277311 1_554
Co2 O4 2.158799 1_555
Co2 O7 2.159146 1_545
Co2 O10 2.179391 1_545
Co2 O13 2.179734 1_555
Co2 O15 2.183506 1_555
Co2 O8 2.184236 1_545
Co3 O6 1.972054 1_555
Co3 O5 1.974470 1_646
Co3 O8 2.125821 1_545
Co3 O15 2.126507 1_656
Co3 O10 2.127064 1_645
Co3 O13 2.127249 1_556
Co4 O1 2.072559 1_455
Co4 O4 2.076657 1_555
Co4 O3 2.079635 1_555
Co4 O6 2.105030 1_455
Co4 O10 2.155655 1_545
Co4 O12 2.163044 1_555
Co5 O2 2.073828 1_655
Co5 O7 2.077095 1_555
Co5 O0 2.081099 1_555
Co5 O5 2.105031 1_655
Co5 O13 2.155717 1_565
Co5 O11 2.163299 1_555
Co6 O1 2.069568 1_555
Co6 O4 2.076278 1_555
Co6 O3 2.077136 1_555
Co6 O6 2.105479 1_555
Co6 O8 2.156672 1_545
Co6 O14 2.164422 1_555
Co7 O2 2.069335 1_555
Co7 O7 2.074639 1_555
Co7 O0 2.077155 1_555
Co7 O5 2.104079 1_555
Co7 O15 2.156427 1_565
Co7 O9 2.163799 1_555
O0 Sn1 2.076583 1_564
O1 Sn0 2.090183 1_655
O2 Sn0 2.090985 1_555
O3 Sn1 2.075065 1_555
O8 Sn1 2.097425 1_565
O9 Sn0 2.092046 1_555
O10 Sn1 2.096562 1_565
O11 Sn0 2.092270 1_655
O12 Sn0 2.093295 1_555
O13 Sn1 2.096979 1_554
O14 Sn0 2.093532 1_655
O15 Sn1 2.096314 1_554
