# generated using pymatgen
data_Ce3(Si3Pd10)2
_symmetry_space_group_name_H-M   'P 1'
_cell_length_a   8.71223309
_cell_length_b   8.71224066
_cell_length_c   8.71224222
_cell_angle_alpha   60.00005692
_cell_angle_beta   60.00002282
_cell_angle_gamma   60.00004054
_symmetry_Int_Tables_number   1
_chemical_formula_structural   Ce3(Si3Pd10)2
_chemical_formula_sum   'Ce3 Si6 Pd20'
_cell_volume   467.60019962
_cell_formula_units_Z   1
loop_
 _symmetry_equiv_pos_site_id
 _symmetry_equiv_pos_as_xyz
  1  'x, y, z'
loop_
 _atom_site_type_symbol
 _atom_site_label
 _atom_site_symmetry_multiplicity
 _atom_site_fract_x
 _atom_site_fract_y
 _atom_site_fract_z
 _atom_site_occupancy
  Ce  Ce0  1  -0.00000000  0.00000000  -0.00000000  1
  Ce  Ce1  1  0.74999936  0.75000064  0.75000064  1
  Ce  Ce2  1  0.25000064  0.24999936  0.24999936  1
  Si  Si0  1  0.73255039  0.73255101  0.26744899  1
  Si  Si1  1  0.26744950  0.73255100  0.26744900  1
  Si  Si2  1  0.73255071  0.26744929  0.26744929  1
  Si  Si3  1  0.26744961  0.26744899  0.73255101  1
  Si  Si4  1  0.73255050  0.26744900  0.73255100  1
  Si  Si5  1  0.26744929  0.73255071  0.73255071  1
  Pd  Pd0  1  0.61495395  0.61495443  0.15513672  1
  Pd  Pd1  1  0.61495390  0.15513672  0.61495443  1
  Pd  Pd2  1  0.15513630  0.61495433  0.61495446  1
  Pd  Pd3  1  0.61495391  0.61495446  0.61495433  1
  Pd  Pd4  1  0.38504605  0.38504557  0.84486328  1
  Pd  Pd5  1  0.38504610  0.84486328  0.38504557  1
  Pd  Pd6  1  0.84486370  0.38504567  0.38504554  1
  Pd  Pd7  1  0.38504609  0.38504554  0.38504567  1
  Pd  Pd8  1  0.00000008  0.99999999  0.34642728  1
  Pd  Pd9  1  0.65357267  0.00000000  0.34642729  1
  Pd  Pd10  1  0.99999991  0.65357281  0.34642719  1
  Pd  Pd11  1  0.65357265  0.34642728  0.99999999  1
  Pd  Pd12  1  0.00000005  0.34642729  0.00000000  1
  Pd  Pd13  1  0.00000009  0.34642719  0.65357281  1
  Pd  Pd14  1  0.34642735  0.65357272  0.00000001  1
  Pd  Pd15  1  0.34642733  1.00000000  0.65357271  1
  Pd  Pd16  1  0.34642739  0.00000001  0.99999999  1
  Pd  Pd17  1  0.99999992  0.00000001  0.65357272  1
  Pd  Pd18  1  0.99999995  0.65357271  1.00000000  1
  Pd  Pd19  1  0.65357261  0.99999999  0.00000001  1
loop_
_geom_bond_atom_site_label_1
_geom_bond_atom_site_label_2
_geom_bond_distance
_geom_bond_site_symmetry_2
Ce0 Pd16 3.018156 1_554
Ce0 Pd19 3.018156 1_445
Ce0 Pd15 3.018158 1_544
Ce0 Pd9 3.018158 1_455
Ce0 Pd12 3.018158 1_555
Ce0 Pd18 3.018158 1_444
Ce0 Pd17 3.018159 1_454
Ce0 Pd8 3.018159 1_545
Ce0 Pd11 3.018159 1_454
Ce0 Pd14 3.018159 1_545
Ce0 Pd13 3.018160 1_554
Ce0 Pd10 3.018160 1_445
Ce1 Pd0 2.881943 1_556
Ce1 Pd1 2.881943 1_565
Ce1 Pd2 2.881946 1_655
Ce1 Pd3 2.881953 1_555
Ce1 Pd16 3.358271 1_565
Ce1 Pd19 3.358271 1_556
Ce1 Pd14 3.358274 1_556
Ce1 Pd17 3.358274 1_565
Ce1 Pd18 3.358275 1_555
Ce1 Pd15 3.358275 1_555
Ce1 Pd8 3.358282 1_655
Ce1 Pd11 3.358282 1_555
Ce1 Pd9 3.358283 1_565
Ce1 Pd12 3.358283 1_656
Ce1 Pd10 3.358287 1_555
Ce1 Pd13 3.358287 1_655
Ce2 Pd4 2.881943 1_554
Ce2 Pd5 2.881943 1_545
Ce2 Pd6 2.881946 1_455
Ce2 Pd7 2.881953 1_555
Ce2 Pd19 3.358271 1_545
Ce2 Pd16 3.358271 1_554
Ce2 Pd11 3.358274 1_554
Ce2 Pd8 3.358274 1_545
Ce2 Pd12 3.358275 1_555
Ce2 Pd9 3.358275 1_555
Ce2 Pd14 3.358282 1_555
Ce2 Pd17 3.358282 1_455
Ce2 Pd15 3.358283 1_545
Ce2 Pd18 3.358283 1_454
Ce2 Pd10 3.358287 1_455
Ce2 Pd13 3.358287 1_555
Pd0 Si1 2.472120 1_555
Pd0 Si0 2.472126 1_555
Pd0 Si2 2.472127 1_555
Pd1 Si3 2.472118 1_555
Pd1 Si4 2.472127 1_555
Pd1 Si2 2.472127 1_555
Pd2 Si5 2.472128 1_555
Pd2 Si3 2.472129 1_555
Pd2 Si1 2.472130 1_555
Pd3 Si5 2.472121 1_555
Pd3 Si0 2.472129 1_555
Pd3 Si4 2.472130 1_555
Pd4 Si4 2.472120 1_555
Pd4 Si3 2.472126 1_555
Pd4 Si5 2.472127 1_555
Pd5 Si0 2.472118 1_555
Pd5 Si1 2.472127 1_555
Pd5 Si5 2.472127 1_555
Pd6 Si2 2.472128 1_555
Pd6 Si0 2.472129 1_555
Pd6 Si4 2.472130 1_555
Pd7 Si2 2.472121 1_555
Pd7 Si3 2.472129 1_555
Pd7 Si1 2.472130 1_555
Pd8 Si1 2.429554 1_555
Pd8 Si2 2.429555 1_465
Pd9 Si2 2.429554 1_555
Pd9 Si0 2.429554 1_545
Pd10 Si0 2.429555 1_555
Pd10 Si1 2.429555 1_655
Pd11 Si4 2.429554 1_555
Pd11 Si2 2.429555 1_556
Pd12 Si2 2.429554 1_455
Pd12 Si3 2.429554 1_554
Pd13 Si3 2.429555 1_555
Pd13 Si4 2.429555 1_455
Pd14 Si1 2.429554 1_555
Pd14 Si5 2.429555 1_554
Pd15 Si5 2.429554 1_555
Pd15 Si3 2.429554 1_565
Pd16 Si3 2.429553 1_555
Pd16 Si1 2.429553 1_546
Pd17 Si4 2.429554 1_555
Pd17 Si5 2.429555 1_645
Pd18 Si5 2.429554 1_655
Pd18 Si0 2.429554 1_556
Pd19 Si0 2.429553 1_555
Pd19 Si4 2.429553 1_564
