# generated using pymatgen
data_Li3Fe2(P2O7)2
_symmetry_space_group_name_H-M   'P 1'
_cell_length_a   9.84059578
_cell_length_b   9.85234160
_cell_length_c   11.22640357
_cell_angle_alpha   90.01312460
_cell_angle_beta   102.24844955
_cell_angle_gamma   90.12380647
_symmetry_Int_Tables_number   1
_chemical_formula_structural   Li3Fe2(P2O7)2
_chemical_formula_sum   'Li12 Fe8 P16 O56'
_cell_volume   1063.65360663
_cell_formula_units_Z   4
loop_
 _symmetry_equiv_pos_site_id
 _symmetry_equiv_pos_as_xyz
  1  'x, y, z'
loop_
 _atom_site_type_symbol
 _atom_site_label
 _atom_site_symmetry_multiplicity
 _atom_site_fract_x
 _atom_site_fract_y
 _atom_site_fract_z
 _atom_site_occupancy
  Li  Li0  1  0.08645051  0.10418367  0.02868150  1
  Li  Li1  1  0.14796663  0.39057368  0.03897951  1
  Li  Li2  1  0.41298540  0.61491968  0.97157898  1
  Li  Li3  1  0.31280496  0.90669611  0.44284836  1
  Li  Li4  1  0.38109953  0.22292780  0.55184711  1
  Li  Li5  1  0.61807891  0.78264400  0.45441754  1
  Li  Li6  1  0.67371320  0.08182470  0.54505443  1
  Li  Li7  1  0.58868627  0.39761285  0.02912744  1
  Li  Li8  1  0.64564106  0.09321462  0.04225870  1
  Li  Li9  1  0.90745147  0.89525074  0.96869766  1
  Li  Li10  1  0.89852926  0.55303802  0.50587874  1
  Li  Li11  1  0.89702884  0.27590992  0.54794894  1
  Fe  Fe0  1  0.20530837  0.91703394  0.67697344  1
  Fe  Fe1  1  0.25236405  0.20881473  0.82263286  1
  Fe  Fe2  1  0.24553849  0.70668270  0.17507629  1
  Fe  Fe3  1  0.29412267  0.42665346  0.33713757  1
  Fe  Fe4  1  0.70388652  0.57968867  0.68215032  1
  Fe  Fe5  1  0.75310350  0.28984639  0.82375697  1
  Fe  Fe6  1  0.74374263  0.77925713  0.16673951  1
  Fe  Fe7  1  0.80091186  0.06939194  0.32426493  1
  P  P0  1  0.02013738  0.45215711  0.75561421  1
  P  P1  1  0.11746064  0.71172234  0.88302231  1
  P  P2  1  0.05902025  0.92275953  0.23820672  1
  P  P3  1  0.12653855  0.14469294  0.42335954  1
  P  P4  1  0.37694073  0.64796591  0.57306486  1
  P  P5  1  0.43795333  0.43098741  0.75849028  1
  P  P6  1  0.52054070  0.05179415  0.75419020  1
  P  P7  1  0.37903865  0.20961200  0.11867729  1
  P  P8  1  0.61820473  0.79730107  0.87940534  1
  P  P9  1  0.47389806  0.94562892  0.24287942  1
  P  P10  1  0.55862458  0.57484937  0.24360655  1
  P  P11  1  0.62455760  0.35924487  0.42954874  1
  P  P12  1  0.87915190  0.85117004  0.58111409  1
  P  P13  1  0.93743794  0.07127331  0.75725808  1
  P  P14  1  0.87875285  0.29078390  0.11228065  1
  P  P15  1  0.97536813  0.55033127  0.24494755  1
  O  O0  1  0.01634891  0.42066463  0.62325562  1
  O  O1  1  0.03059267  0.84776615  0.57071072  1
  O  O2  1  0.08519192  0.07828534  0.72895161  1
  O  O3  1  0.10067066  0.59521464  0.77997557  1
  O  O4  1  0.10213214  0.35576988  0.85158937  1
  O  O5  1  0.19316443  0.82301661  0.82592532  1
  O  O6  1  0.21796499  0.65032497  0.00096737  1
  O  O7  1  0.02034884  0.26702900  0.08517447  1
  O  O8  1  0.12195507  0.06581465  0.29648745  1
  O  O9  1  0.06031948  0.93257894  0.10422064  1
  O  O10  1  0.13012089  0.53236075  0.21916700  1
  O  O11  1  0.19998256  0.27957423  0.40854269  1
  O  O12  1  0.16996427  0.81495208  0.29616377  1
  O  O13  1  0.22270743  0.05839049  0.52130668  1
  O  O14  1  0.29457158  0.56685681  0.46624601  1
  O  O15  1  0.34576817  0.31289968  0.69955750  1
  O  O16  1  0.31443069  0.78904837  0.58656434  1
  O  O17  1  0.36668122  0.03298767  0.76862639  1
  O  O18  1  0.37075939  0.56982119  0.69684442  1
  O  O19  1  0.43791000  0.44319797  0.89242921  1
  O  O20  1  0.48156184  0.76338023  0.90799436  1
  O  O21  1  0.26929292  0.16479340  0.00516907  1
  O  O22  1  0.31709808  0.32857783  0.17997483  1
  O  O23  1  0.39326220  0.08862107  0.21819716  1
  O  O24  1  0.40390685  0.58260512  0.26223105  1
  O  O25  1  0.38438974  0.84107106  0.15780346  1
  O  O26  1  0.47222320  0.34780191  0.44282079  1
  O  O27  1  0.52687851  0.09760829  0.62632050  1
  O  O28  1  0.47954541  0.91849386  0.37724085  1
  O  O29  1  0.53255864  0.66221394  0.56847264  1
  O  O30  1  0.60208661  0.14112791  0.85665313  1
  O  O31  1  0.58630143  0.42269444  0.72980844  1
  O  O32  1  0.59293438  0.90564853  0.76679729  1
  O  O33  1  0.68983582  0.68135427  0.82369313  1
  O  O34  1  0.71894317  0.86683197  0.98823876  1
  O  O35  1  0.51998512  0.23400405  0.09112139  1
  O  O36  1  0.56539882  0.57092473  0.11054523  1
  O  O37  1  0.61622844  0.43015588  0.29853943  1
  O  O38  1  0.61812700  0.95984216  0.20889939  1
  O  O39  1  0.69250449  0.22083710  0.42245259  1
  O  O40  1  0.65032351  0.68702661  0.31158863  1
  O  O41  1  0.71811106  0.44829702  0.52587433  1
  O  O42  1  0.78028034  0.93298547  0.48201775  1
  O  O43  1  0.83734543  0.17930661  0.68694080  1
  O  O44  1  0.81747961  0.70850193  0.59147771  1
  O  O45  1  0.86829803  0.46964037  0.77665425  1
  O  O46  1  0.93399865  0.07341736  0.89076340  1
  O  O47  1  0.87284915  0.92610546  0.70763625  1
  O  O48  1  0.97956609  0.74527581  0.90735198  1
  O  O49  1  0.77229869  0.34618935  0.00104771  1
  O  O50  1  0.81436041  0.16790546  0.16425771  1
  O  O51  1  0.89765596  0.64871269  0.14992485  1
  O  O52  1  0.89931180  0.40350600  0.21893655  1
  O  O53  1  0.91647977  0.90435197  0.27003952  1
  O  O54  1  0.97847297  0.16086836  0.44030240  1
  O  O55  1  0.97824335  0.57877980  0.37535887  1
loop_
_geom_bond_atom_site_label_1
_geom_bond_atom_site_label_2
_geom_bond_distance
_geom_bond_site_symmetry_2
Li0 O7 1.891709 1_555
Li0 O9 1.932636 1_545
Li0 O46 1.937029 1_454
Li0 O21 1.964843 1_555
Li1 O7 1.896755 1_555
Li1 O4 2.083996 1_554
Li1 O22 2.129710 1_555
Li1 O10 2.494938 1_555
Li2 O20 1.817965 1_555
Li2 O19 1.950816 1_555
Li2 O36 1.970173 1_556
Li2 O6 2.045736 1_556
Li3 O28 1.939149 1_555
Li3 O16 1.984155 1_555
Li3 O13 2.032742 1_565
Li3 O12 2.125154 1_555
Li4 O27 1.944386 1_555
Li4 O15 1.975285 1_555
Li4 O26 2.068203 1_555
Li4 O11 2.205531 1_555
Li4 O13 2.221932 1_555
Li5 O40 1.943116 1_555
Li5 O28 1.976818 1_555
Li5 O29 2.051624 1_555
Li5 O42 2.148826 1_555
Li5 O44 2.340323 1_555
Li6 O27 1.872063 1_555
Li6 O39 1.977920 1_555
Li6 O42 2.017913 1_545
Li6 O43 2.226399 1_555
Li7 O35 1.932665 1_555
Li7 O19 1.948157 1_554
Li7 O49 1.966302 1_555
Li7 O36 1.973187 1_555
Li8 O35 2.012174 1_555
Li8 O50 2.050208 1_555
Li8 O30 2.090614 1_554
Li8 O38 2.348253 1_545
Li8 O34 2.460637 1_544
Li9 O48 1.836477 1_555
Li9 O34 1.933423 1_555
Li9 O9 1.933707 1_656
Li9 O46 2.002678 1_565
Li10 O55 1.820351 1_555
Li10 O0 2.034850 1_655
Li10 O44 2.058022 1_555
Li10 O41 2.104452 1_555
Li11 O0 1.923129 1_655
Li11 O54 1.949791 1_555
Li11 O43 2.018094 1_555
Li11 O39 2.263152 1_555
Li11 O41 2.423619 1_555
Fe0 O5 1.937408 1_555
Fe0 O1 1.992278 1_555
Fe0 O17 2.045461 1_565
Fe0 O16 2.059368 1_555
Fe0 O2 2.135884 1_565
Fe0 O13 2.269357 1_565
Fe1 O21 2.066653 1_556
Fe1 O15 2.083498 1_555
Fe1 O4 2.144873 1_555
Fe1 O2 2.173093 1_555
Fe1 O17 2.220662 1_555
Fe2 O25 1.939690 1_555
Fe2 O12 1.992629 1_555
Fe2 O6 1.994061 1_555
Fe2 O24 2.059673 1_555
Fe2 O10 2.171458 1_555
Fe3 O11 1.977486 1_555
Fe3 O14 2.001315 1_555
Fe3 O26 2.051063 1_555
Fe3 O22 2.065729 1_555
Fe3 O10 2.131720 1_555
Fe3 O24 2.148021 1_555
Fe4 O33 1.908003 1_555
Fe4 O45 2.049041 1_555
Fe4 O29 2.055650 1_555
Fe4 O31 2.067111 1_555
Fe4 O44 2.091318 1_555
Fe4 O41 2.208458 1_555
Fe5 O49 2.035876 1_556
Fe5 O30 2.171511 1_555
Fe5 O43 2.185374 1_555
Fe5 O31 2.189790 1_555
Fe5 O45 2.224534 1_555
Fe6 O51 2.028174 1_555
Fe6 O34 2.148002 1_554
Fe6 O53 2.215218 1_555
Fe6 O40 2.224072 1_555
Fe6 O38 2.274842 1_555
Fe6 O36 2.684235 1_555
Fe7 O50 2.070600 1_555
Fe7 O54 2.142241 1_555
Fe7 O53 2.146905 1_545
Fe7 O38 2.253932 1_545
Fe7 O39 2.254884 1_555
Fe7 O42 2.266330 1_545
O0 P0 1.510571 1_555
O1 P12 1.519779 1_455
O2 P13 1.554175 1_455
O3 P0 1.610103 1_555
O3 P1 1.612660 1_555
O4 P0 1.532541 1_555
O5 P1 1.538698 1_555
O6 P1 1.595186 1_554
O7 P14 1.506717 1_455
O8 P3 1.614539 1_555
O8 P2 1.619259 1_545
O9 P2 1.510069 1_555
O10 P15 1.619372 1_455
O11 P3 1.537185 1_555
O12 P2 1.564408 1_555
O13 P3 1.545980 1_555
O14 P4 1.522493 1_555
O15 P5 1.534495 1_555
O16 P4 1.541620 1_555
O17 P6 1.567137 1_555
O18 P4 1.601124 1_555
O18 P5 1.611623 1_555
O19 P5 1.508520 1_555
O20 P8 1.484587 1_555
O21 P7 1.548831 1_555
O22 P7 1.549055 1_555
O23 P9 1.613346 1_545
O23 P7 1.619811 1_555
O24 P10 1.582142 1_555
O25 P9 1.545287 1_555
O26 P11 1.541474 1_555
O27 P6 1.518717 1_555
O28 P9 1.521348 1_555
O29 P4 1.549206 1_555
O30 P6 1.531860 1_555
O31 P5 1.562504 1_555
O32 P6 1.600791 1_565
O32 P8 1.633365 1_555
O33 P8 1.543772 1_555
O34 P8 1.558072 1_555
O35 P7 1.502619 1_555
O36 P10 1.509839 1_555
O37 P10 1.609180 1_555
O37 P11 1.614784 1_555
O38 P9 1.551913 1_555
O39 P11 1.529520 1_555
O40 P10 1.523588 1_555
O41 P11 1.536356 1_555
O42 P12 1.542263 1_555
O43 P13 1.549594 1_555
O44 P12 1.544006 1_555
O45 P0 1.571276 1_655
O46 P13 1.506472 1_555
O47 P12 1.613543 1_555
O47 P13 1.614118 1_565
O48 P1 1.477971 1_655
O49 P14 1.549995 1_555
O50 P14 1.536737 1_555
O51 P15 1.523107 1_555
O52 P14 1.613575 1_555
O52 P15 1.624931 1_555
O53 P2 1.529622 1_655
O54 P3 1.517618 1_655
O55 P15 1.484926 1_555
