# generated using pymatgen
data_KMg14BO15
_symmetry_space_group_name_H-M   'P 1'
_cell_length_a   4.47281800
_cell_length_b   8.20411200
_cell_length_c   8.83933300
_cell_angle_alpha   90.00000000
_cell_angle_beta   90.00000000
_cell_angle_gamma   90.00000000
_symmetry_Int_Tables_number   1
_chemical_formula_structural   KMg14BO15
_chemical_formula_sum   'K1 Mg14 B1 O15'
_cell_volume   324.36374258
_cell_formula_units_Z   1
loop_
 _symmetry_equiv_pos_site_id
 _symmetry_equiv_pos_as_xyz
  1  'x, y, z'
loop_
 _atom_site_type_symbol
 _atom_site_label
 _atom_site_symmetry_multiplicity
 _atom_site_fract_x
 _atom_site_fract_y
 _atom_site_fract_z
 _atom_site_occupancy
  K  K0  1  0.00000000  0.00000000  0.00771800  1
  Mg  Mg0  1  0.00000000  0.00000000  0.50513700  1
  Mg  Mg1  1  0.00000000  0.50000000  0.49810700  1
  Mg  Mg2  1  0.50000000  0.73999200  0.99774000  1
  Mg  Mg3  1  0.50000000  0.26000800  0.99774000  1
  Mg  Mg4  1  0.50000000  0.74887100  0.50582000  1
  Mg  Mg5  1  0.50000000  0.25112900  0.50582000  1
  Mg  Mg6  1  0.50000000  0.00000000  0.75146600  1
  Mg  Mg7  1  0.50000000  0.50000000  0.75665700  1
  Mg  Mg8  1  0.50000000  0.00000000  0.25603400  1
  Mg  Mg9  1  0.50000000  0.50000000  0.23689300  1
  Mg  Mg10  1  0.00000000  0.75028600  0.74594100  1
  Mg  Mg11  1  0.00000000  0.24971400  0.74594100  1
  Mg  Mg12  1  0.00000000  0.74253500  0.26528600  1
  Mg  Mg13  1  0.00000000  0.25746500  0.26528600  1
  B  B0  1  0.00000000  0.50000000  0.93293500  1
  O  O0  1  0.00000000  0.00000000  0.73266400  1
  O  O1  1  0.00000000  0.00000000  0.27863400  1
  O  O2  1  0.00000000  0.50000000  0.27458800  1
  O  O3  1  0.50000000  0.74964100  0.75266000  1
  O  O4  1  0.50000000  0.25035900  0.75266000  1
  O  O5  1  0.50000000  0.74930700  0.24671400  1
  O  O6  1  0.50000000  0.25069300  0.24671400  1
  O  O7  1  0.50000000  0.00000000  0.99668100  1
  O  O8  1  0.50000000  0.50000000  0.99083600  1
  O  O9  1  0.50000000  0.00000000  0.50275500  1
  O  O10  1  0.50000000  0.50000000  0.51382700  1
  O  O11  1  0.00000000  0.66852500  0.98408400  1
  O  O12  1  0.00000000  0.33147500  0.98408400  1
  O  O13  1  0.00000000  0.74533600  0.50928900  1
  O  O14  1  0.00000000  0.25466400  0.50928900  1
loop_
_geom_bond_atom_site_label_1
_geom_bond_atom_site_label_2
_geom_bond_distance
_geom_bond_site_symmetry_2
K0 O7 2.238536 1_554
K0 O7 2.238536 1_454
K0 O1 2.394717 1_555
K0 O0 2.431294 1_554
K0 O12 2.727470 1_554
K0 O11 2.727470 1_544
Mg0 O1 2.002135 1_555
Mg0 O0 2.011187 1_555
Mg0 O14 2.089614 1_555
Mg0 O13 2.089614 1_545
Mg0 O9 2.236508 1_455
Mg0 O9 2.236508 1_555
Mg1 O2 1.975759 1_555
Mg1 O14 2.015189 1_555
Mg1 O13 2.015189 1_555
Mg1 O10 2.240722 1_455
Mg1 O10 2.240722 1_555
Mg2 O8 1.969867 1_555
Mg2 O7 2.133155 1_565
Mg2 O3 2.167790 1_555
Mg2 O5 2.202091 1_556
Mg2 O11 2.315140 1_555
Mg2 O11 2.315140 1_655
Mg3 O8 1.969867 1_555
Mg3 O7 2.133155 1_555
Mg3 O4 2.167790 1_555
Mg3 O6 2.202091 1_556
Mg3 O12 2.315140 1_655
Mg3 O12 2.315140 1_555
Mg4 O10 2.042992 1_555
Mg4 O9 2.060469 1_565
Mg4 O3 2.181910 1_555
Mg4 O13 2.236807 1_555
Mg4 O13 2.236807 1_655
Mg4 O5 2.290327 1_555
Mg5 O10 2.042992 1_555
Mg5 O9 2.060469 1_555
Mg5 O4 2.181910 1_555
Mg5 O14 2.236807 1_555
Mg5 O14 2.236807 1_655
Mg5 O6 2.290327 1_555
Mg6 O4 2.054000 1_555
Mg6 O3 2.054000 1_545
Mg6 O7 2.167537 1_555
Mg6 O9 2.198439 1_555
Mg6 O0 2.242576 1_655
Mg6 O0 2.242576 1_555
Mg7 O3 2.048387 1_555
Mg7 O4 2.048387 1_555
Mg7 O8 2.069986 1_555
Mg7 O10 2.146455 1_555
Mg8 O6 2.058363 1_555
Mg8 O5 2.058363 1_545
Mg8 O9 2.180849 1_555
Mg8 O1 2.245314 1_555
Mg8 O1 2.245314 1_655
Mg8 O7 2.292508 1_554
Mg9 O5 2.047184 1_555
Mg9 O6 2.047184 1_555
Mg9 O8 2.174980 1_554
Mg9 O2 2.261094 1_655
Mg9 O2 2.261094 1_555
Mg9 O10 2.447912 1_555
Mg10 O0 2.052040 1_565
Mg10 O13 2.092240 1_555
Mg10 O11 2.209315 1_555
Mg10 O3 2.237204 1_555
Mg10 O3 2.237204 1_455
Mg11 O0 2.052040 1_555
Mg11 O14 2.092240 1_555
Mg11 O12 2.209315 1_555
Mg11 O4 2.237204 1_555
Mg11 O4 2.237204 1_455
Mg12 O2 1.991482 1_555
Mg12 O1 2.115564 1_565
Mg12 O13 2.156946 1_555
Mg12 O5 2.243114 1_455
Mg12 O5 2.243114 1_555
Mg12 O11 2.558725 1_554
Mg13 O2 1.991482 1_555
Mg13 O1 2.115564 1_555
Mg13 O14 2.156946 1_555
Mg13 O6 2.243114 1_455
Mg13 O6 2.243114 1_555
Mg13 O12 2.558725 1_554
B0 O11 1.454645 1_555
B0 O12 1.454645 1_555
