# generated using pymatgen
data_Zr6Sb2Pt
_symmetry_space_group_name_H-M   'P 1'
_cell_length_a   7.85677416
_cell_length_b   7.85677453
_cell_length_c   3.71342147
_cell_angle_alpha   90.00000000
_cell_angle_beta   90.00000000
_cell_angle_gamma   120.00000280
_symmetry_Int_Tables_number   1
_chemical_formula_structural   Zr6Sb2Pt
_chemical_formula_sum   'Zr6 Sb2 Pt1'
_cell_volume   198.51504361
_cell_formula_units_Z   1
loop_
 _symmetry_equiv_pos_site_id
 _symmetry_equiv_pos_as_xyz
  1  'x, y, z'
loop_
 _atom_site_type_symbol
 _atom_site_label
 _atom_site_symmetry_multiplicity
 _atom_site_fract_x
 _atom_site_fract_y
 _atom_site_fract_z
 _atom_site_occupancy
  Zr  Zr0  1  0.59487175  -0.00000000  -0.00000000  1
  Zr  Zr1  1  0.40512825  0.40512825  0.00000000  1
  Zr  Zr2  1  -0.00000000  0.59487175  0.00000000  1
  Zr  Zr3  1  0.25003971  0.00000000  0.50000000  1
  Zr  Zr4  1  0.74996029  0.74996029  0.50000000  1
  Zr  Zr5  1  0.00000000  0.25003971  0.50000000  1
  Sb  Sb0  1  0.66666700  0.33333300  0.50000000  1
  Sb  Sb1  1  0.33333300  0.66666700  0.50000000  1
  Pt  Pt0  1  -0.00000000  0.00000000  -0.00000000  1
loop_
_geom_bond_atom_site_label_1
_geom_bond_atom_site_label_2
_geom_bond_distance
_geom_bond_site_symmetry_2
Sb0 Zr5 3.000147 1_655
Sb0 Zr3 3.000152 1_555
Sb0 Zr4 3.000155 1_555
Sb0 Zr0 3.024406 1_556
Sb0 Zr0 3.024406 1_555
Sb0 Zr2 3.024408 1_655
Sb0 Zr2 3.024408 1_656
Sb0 Zr1 3.024412 1_555
Sb0 Zr1 3.024412 1_556
Sb1 Zr3 3.000147 1_565
Sb1 Zr5 3.000152 1_555
Sb1 Zr4 3.000154 1_555
Sb1 Zr2 3.024406 1_556
Sb1 Zr2 3.024406 1_555
Sb1 Zr0 3.024408 1_566
Sb1 Zr0 3.024408 1_565
Sb1 Zr1 3.024413 1_555
Sb1 Zr1 3.024413 1_556
Pt0 Zr4 2.703083 1_444
Pt0 Zr4 2.703083 1_445
Pt0 Zr3 2.703083 1_555
Pt0 Zr3 2.703083 1_554
Pt0 Zr5 2.703083 1_554
Pt0 Zr5 2.703083 1_555
Pt0 Zr1 3.183001 1_555
Pt0 Zr0 3.183001 1_455
Pt0 Zr2 3.183001 1_545
