# generated using pymatgen
data_HfAlNi
_symmetry_space_group_name_H-M   'P 1'
_cell_length_a   6.84250195
_cell_length_b   6.84250195
_cell_length_c   3.40775155
_cell_angle_alpha   90.00000000
_cell_angle_beta   90.00000000
_cell_angle_gamma   119.99998886
_symmetry_Int_Tables_number   1
_chemical_formula_structural   HfAlNi
_chemical_formula_sum   'Hf3 Al3 Ni3'
_cell_volume   138.17467887
_cell_formula_units_Z   3
loop_
 _symmetry_equiv_pos_site_id
 _symmetry_equiv_pos_as_xyz
  1  'x, y, z'
loop_
 _atom_site_type_symbol
 _atom_site_label
 _atom_site_symmetry_multiplicity
 _atom_site_fract_x
 _atom_site_fract_y
 _atom_site_fract_z
 _atom_site_occupancy
  Hf  Hf0  1  0.40931436  0.40931436  0.50000000  1
  Hf  Hf1  1  0.59068564  -0.00000000  0.50000000  1
  Hf  Hf2  1  -0.00000000  0.59068564  0.50000000  1
  Al  Al0  1  0.74994076  0.74994076  -0.00000000  1
  Al  Al1  1  0.25005924  -0.00000000  -0.00000000  1
  Al  Al2  1  -0.00000000  0.25005924  0.00000000  1
  Ni  Ni0  1  0.66666700  0.33333300  -0.00000000  1
  Ni  Ni1  1  0.33333300  0.66666700  -0.00000000  1
  Ni  Ni2  1  -0.00000000  0.00000000  0.50000000  1
loop_
_geom_bond_atom_site_label_1
_geom_bond_atom_site_label_2
_geom_bond_distance
_geom_bond_site_symmetry_2
Hf0 Ni1 2.681399 1_556
Hf0 Ni0 2.681399 1_556
Hf0 Ni0 2.681399 1_555
Hf0 Ni1 2.681399 1_555
Hf0 Ni2 2.800735 1_555
Hf1 Ni0 2.681394 1_556
Hf1 Ni0 2.681394 1_555
Hf1 Ni1 2.681396 1_546
Hf1 Ni1 2.681396 1_545
Hf1 Ni2 2.800734 1_655
Hf2 Ni1 2.681394 1_556
Hf2 Ni1 2.681394 1_555
Hf2 Ni0 2.681396 1_456
Hf2 Ni0 2.681396 1_455
Hf2 Ni2 2.800734 1_565
Al0 Ni2 2.414709 1_664
Al0 Ni2 2.414709 1_665
Al0 Ni0 2.612761 1_555
Al0 Ni1 2.612761 1_555
Al0 Hf0 2.887132 1_555
Al0 Hf0 2.887132 1_554
Al0 Hf2 2.980401 1_654
Al0 Hf1 2.980401 1_565
Al0 Hf1 2.980401 1_564
Al0 Hf2 2.980401 1_655
Al1 Ni2 2.414709 1_555
Al1 Ni2 2.414709 1_554
Al1 Ni1 2.612754 1_545
Al1 Ni0 2.612759 1_555
Al1 Hf1 2.887131 1_555
Al1 Hf1 2.887131 1_554
Al1 Hf0 2.980401 1_555
Al1 Hf0 2.980401 1_554
Al1 Hf2 2.980401 1_545
Al1 Hf2 2.980401 1_544
Al2 Ni2 2.414709 1_555
Al2 Ni2 2.414709 1_554
Al2 Ni0 2.612754 1_455
Al2 Ni1 2.612759 1_555
Al2 Hf2 2.887131 1_555
Al2 Hf2 2.887131 1_554
Al2 Hf0 2.980401 1_555
Al2 Hf0 2.980401 1_554
Al2 Hf1 2.980401 1_454
Al2 Hf1 2.980401 1_455
