# generated using pymatgen
data_KTaSi2O7
_symmetry_space_group_name_H-M   'P 1'
_cell_length_a   8.89084300
_cell_length_b   8.89084300
_cell_length_c   7.99979400
_cell_angle_alpha   90.00000000
_cell_angle_beta   90.00000000
_cell_angle_gamma   90.00000000
_symmetry_Int_Tables_number   1
_chemical_formula_structural   KTaSi2O7
_chemical_formula_sum   'K4 Ta4 Si8 O28'
_cell_volume   632.36043030
_cell_formula_units_Z   4
loop_
 _symmetry_equiv_pos_site_id
 _symmetry_equiv_pos_as_xyz
  1  'x, y, z'
loop_
 _atom_site_type_symbol
 _atom_site_label
 _atom_site_symmetry_multiplicity
 _atom_site_fract_x
 _atom_site_fract_y
 _atom_site_fract_z
 _atom_site_occupancy
  K  K0  1  0.67772000  0.17772000  0.00000000  1
  K  K1  1  0.32228000  0.82228000  0.00000000  1
  K  K2  1  0.17772000  0.32228000  0.00000000  1
  K  K3  1  0.82228000  0.67772000  0.00000000  1
  Ta  Ta0  1  0.00000000  0.00000000  0.75113500  1
  Ta  Ta1  1  0.50000000  0.50000000  0.75113500  1
  Ta  Ta2  1  0.00000000  0.00000000  0.24886500  1
  Ta  Ta3  1  0.50000000  0.50000000  0.24886500  1
  Si  Si0  1  0.37657600  0.12342400  0.29989500  1
  Si  Si1  1  0.62342400  0.87657600  0.29989500  1
  Si  Si2  1  0.87657600  0.37657600  0.29989500  1
  Si  Si3  1  0.12342400  0.62342400  0.29989500  1
  Si  Si4  1  0.62342400  0.87657600  0.70010500  1
  Si  Si5  1  0.37657600  0.12342400  0.70010500  1
  Si  Si6  1  0.12342400  0.62342400  0.70010500  1
  Si  Si7  1  0.87657600  0.37657600  0.70010500  1
  O  O0  1  0.21154200  0.07633700  0.76695300  1
  O  O1  1  0.78845800  0.92366300  0.76695300  1
  O  O2  1  0.71154200  0.42366300  0.76695300  1
  O  O3  1  0.28845800  0.57633700  0.76695300  1
  O  O4  1  0.92366300  0.21154200  0.76695300  1
  O  O5  1  0.07633700  0.78845800  0.76695300  1
  O  O6  1  0.57633700  0.71154200  0.76695300  1
  O  O7  1  0.42366300  0.28845800  0.76695300  1
  O  O8  1  0.78845800  0.92366300  0.23304700  1
  O  O9  1  0.21154200  0.07633700  0.23304700  1
  O  O10  1  0.28845800  0.57633700  0.23304700  1
  O  O11  1  0.71154200  0.42366300  0.23304700  1
  O  O12  1  0.07633700  0.78845800  0.23304700  1
  O  O13  1  0.92366300  0.21154200  0.23304700  1
  O  O14  1  0.42366300  0.28845800  0.23304700  1
  O  O15  1  0.57633700  0.71154200  0.23304700  1
  O  O16  1  0.38234300  0.11765700  0.50000000  1
  O  O17  1  0.61765700  0.88234300  0.50000000  1
  O  O18  1  0.88234300  0.38234300  0.50000000  1
  O  O19  1  0.11765700  0.61765700  0.50000000  1
  O  O20  1  0.00000000  0.00000000  0.00000000  1
  O  O21  1  0.50000000  0.50000000  0.00000000  1
  O  O22  1  0.50000000  0.00000000  0.77349600  1
  O  O23  1  0.00000000  0.50000000  0.77349600  1
  O  O24  1  0.50000000  0.00000000  0.22650400  1
  O  O25  1  0.00000000  0.50000000  0.22650400  1
  O  O26  1  0.00000000  0.00000000  0.50000000  1
  O  O27  1  0.50000000  0.50000000  0.50000000  1
loop_
_geom_bond_atom_site_label_1
_geom_bond_atom_site_label_2
_geom_bond_distance
_geom_bond_site_symmetry_2
K0 O24 2.876908 1_555
K0 O22 2.876908 1_554
K0 O11 2.889211 1_555
K0 O2 2.889211 1_554
K0 O13 2.889211 1_555
K0 O4 2.889211 1_554
K0 O8 3.089847 1_545
K0 O1 3.089847 1_544
K0 O14 3.089847 1_555
K0 O7 3.089847 1_554
K0 O20 3.272130 1_655
K0 O21 3.272130 1_555
K1 O24 2.876908 1_565
K1 O22 2.876908 1_564
K1 O12 2.889211 1_555
K1 O10 2.889211 1_555
K1 O3 2.889211 1_554
K1 O5 2.889211 1_554
K1 O15 3.089847 1_555
K1 O9 3.089847 1_565
K1 O6 3.089847 1_554
K1 O0 3.089847 1_564
K1 O20 3.272130 1_565
K1 O21 3.272130 1_555
K2 O25 2.876908 1_555
K2 O23 2.876908 1_554
K2 O14 2.889211 1_555
K2 O7 2.889211 1_554
K2 O9 2.889211 1_555
K2 O0 2.889211 1_554
K2 O10 3.089847 1_555
K2 O13 3.089847 1_455
K2 O3 3.089847 1_554
K2 O4 3.089847 1_454
K2 O20 3.272130 1_555
K2 O21 3.272130 1_555
K3 O25 2.876908 1_655
K3 O23 2.876908 1_654
K3 O8 2.889211 1_555
K3 O15 2.889211 1_555
K3 O1 2.889211 1_554
K3 O6 2.889211 1_554
K3 O12 3.089847 1_655
K3 O5 3.089847 1_654
K3 O11 3.089847 1_555
K3 O2 3.089847 1_554
K3 O20 3.272130 1_665
K3 O21 3.272130 1_555
O0 Si5 1.616844 1_555
O0 Ta0 2.003498 1_555
O1 Si4 1.616844 1_555
O1 Ta0 2.003498 1_665
O2 Si7 1.616844 1_555
O2 Ta1 2.003498 1_555
O3 Si6 1.616844 1_555
O3 Ta1 2.003498 1_555
O4 Si7 1.616844 1_555
O4 Ta0 2.003498 1_655
O5 Si6 1.616844 1_555
O5 Ta0 2.003498 1_565
O6 Si4 1.616844 1_555
O6 Ta1 2.003498 1_555
O7 Si5 1.616844 1_555
O7 Ta1 2.003498 1_555
O8 Si1 1.616844 1_555
O8 Ta2 2.003498 1_665
O9 Si0 1.616844 1_555
O9 Ta2 2.003498 1_555
O10 Si3 1.616844 1_555
O10 Ta3 2.003498 1_555
O11 Si2 1.616844 1_555
O11 Ta3 2.003498 1_555
O12 Si3 1.616844 1_555
O12 Ta2 2.003498 1_565
O13 Si2 1.616844 1_555
O13 Ta2 2.003498 1_655
O14 Si0 1.616844 1_555
O14 Ta3 2.003498 1_555
O15 Si1 1.616844 1_555
O15 Ta3 2.003498 1_555
O16 Si5 1.602440 1_555
O16 Si0 1.602440 1_555
O17 Si4 1.602440 1_555
O17 Si1 1.602440 1_555
O18 Si7 1.602440 1_555
O18 Si2 1.602440 1_555
O19 Si6 1.602440 1_555
O19 Si3 1.602440 1_555
O20 Ta2 1.990869 1_555
O20 Ta0 1.990869 1_554
O21 Ta3 1.990869 1_555
O21 Ta1 1.990869 1_554
O22 Si5 1.659225 1_555
O22 Si4 1.659225 1_545
O23 Si6 1.659225 1_555
O23 Si7 1.659225 1_455
O24 Si0 1.659225 1_555
O24 Si1 1.659225 1_545
O25 Si3 1.659225 1_555
O25 Si2 1.659225 1_455
O26 Ta0 2.009028 1_555
O26 Ta2 2.009028 1_555
O27 Ta1 2.009028 1_555
O27 Ta3 2.009028 1_555
