# generated using pymatgen
data_LiPr2OsO6
_symmetry_space_group_name_H-M   'P 1'
_cell_length_a   5.85547600
_cell_length_b   5.51420100
_cell_length_c   9.55567040
_cell_angle_alpha   55.25122738
_cell_angle_beta   90.00000000
_cell_angle_gamma   90.00000000
_symmetry_Int_Tables_number   1
_chemical_formula_structural   LiPr2OsO6
_chemical_formula_sum   'Li2 Pr4 Os2 O12'
_cell_volume   253.51149374
_cell_formula_units_Z   2
loop_
 _symmetry_equiv_pos_site_id
 _symmetry_equiv_pos_as_xyz
  1  'x, y, z'
loop_
 _atom_site_type_symbol
 _atom_site_label
 _atom_site_symmetry_multiplicity
 _atom_site_fract_x
 _atom_site_fract_y
 _atom_site_fract_z
 _atom_site_occupancy
  Li  Li0  1  0.00000000  0.00000000  0.00000000  1
  Li  Li1  1  0.50000000  0.00000000  0.50000000  1
  Pr  Pr0  1  0.43155300  0.76760100  0.24870400  1
  Pr  Pr1  1  0.93155300  0.23239900  0.25129600  1
  Pr  Pr2  1  0.56844700  0.23239900  0.75129600  1
  Pr  Pr3  1  0.06844700  0.76760100  0.74870400  1
  Os  Os0  1  0.00000000  0.50000000  0.50000000  1
  Os  Os1  1  0.50000000  0.50000000  0.00000000  1
  O  O0  1  0.28650500  0.26522200  0.55274300  1
  O  O1  1  0.78650500  0.73477800  0.94725700  1
  O  O2  1  0.03065400  0.64653800  0.25673000  1
  O  O3  1  0.53065400  0.35346200  0.24327000  1
  O  O4  1  0.71349500  0.73477800  0.44725700  1
  O  O5  1  0.21349500  0.26522200  0.05274300  1
  O  O6  1  0.31318000  0.84088400  0.95269700  1
  O  O7  1  0.81318000  0.15911600  0.54730300  1
  O  O8  1  0.68682000  0.15911600  0.04730300  1
  O  O9  1  0.18682000  0.84088400  0.45269700  1
  O  O10  1  0.46934600  0.64653800  0.75673000  1
  O  O11  1  0.96934600  0.35346200  0.74327000  1
loop_
_geom_bond_atom_site_label_1
_geom_bond_atom_site_label_2
_geom_bond_distance
_geom_bond_site_symmetry_2
Li0 O2 2.097303 1_545
Li0 O11 2.097303 1_454
Li0 O6 2.188408 1_544
Li0 O8 2.188408 1_455
Li0 O1 2.189958 1_444
Li0 O5 2.189958 1_555
Li1 O10 2.097303 1_545
Li1 O3 2.097303 1_555
Li1 O9 2.188408 1_545
Li1 O7 2.188408 1_555
Li1 O0 2.189958 1_555
Li1 O4 2.189958 1_545
O0 Os0 2.000164 1_555
O0 Pr2 2.442654 1_555
O0 Pr3 2.609367 1_545
O0 Pr0 2.767938 1_555
O1 Os1 2.000164 1_556
O1 Pr3 2.442654 1_655
O1 Pr2 2.609367 1_565
O1 Pr1 2.767938 1_556
O2 Os0 1.986876 1_555
O2 Pr1 2.385296 1_455
O2 Pr0 2.429754 1_555
O3 Os1 1.986876 1_555
O3 Pr0 2.385296 1_555
O3 Pr1 2.429754 1_555
O4 Os0 2.000164 1_655
O4 Pr0 2.442654 1_555
O4 Pr1 2.609367 1_565
O4 Pr2 2.767938 1_555
O5 Os1 2.000164 1_555
O5 Pr1 2.442654 1_455
O5 Pr0 2.609367 1_545
O5 Pr3 2.767938 1_554
O6 Os1 1.991405 1_556
O6 Pr2 2.421243 1_565
O6 Pr3 2.629552 1_555
O6 Pr0 2.709504 1_556
O7 Os0 1.991405 1_655
O7 Pr3 2.421243 1_645
O7 Pr2 2.629552 1_555
O7 Pr1 2.709504 1_555
O8 Os1 1.991405 1_555
O8 Pr0 2.421243 1_545
O8 Pr1 2.629552 1_555
O8 Pr2 2.709504 1_554
O9 Os0 1.991405 1_555
O9 Pr1 2.421243 1_465
O9 Pr0 2.629552 1_555
O9 Pr3 2.709504 1_555
O10 Os1 1.986876 1_556
O10 Pr2 2.385296 1_555
O10 Pr3 2.429754 1_555
O11 Os0 1.986876 1_655
O11 Pr3 2.385296 1_655
O11 Pr2 2.429754 1_555
