# generated using pymatgen
data_Ba5MgMnV4(Cl3O7)2
_symmetry_space_group_name_H-M   'P 1'
_cell_length_a   5.81939600
_cell_length_b   13.54675200
_cell_length_c   16.02264417
_cell_angle_alpha   66.42640850
_cell_angle_beta   90.00000000
_cell_angle_gamma   90.00000000
_symmetry_Int_Tables_number   1
_chemical_formula_structural   Ba5MgMnV4(Cl3O7)2
_chemical_formula_sum   'Ba10 Mg2 Mn2 V8 Cl12 O28'
_cell_volume   1157.71615945
_cell_formula_units_Z   2
loop_
 _symmetry_equiv_pos_site_id
 _symmetry_equiv_pos_as_xyz
  1  'x, y, z'
loop_
 _atom_site_type_symbol
 _atom_site_label
 _atom_site_symmetry_multiplicity
 _atom_site_fract_x
 _atom_site_fract_y
 _atom_site_fract_z
 _atom_site_occupancy
  Ba  Ba0  1  0.74851700  0.77112400  0.02195200  1
  Ba  Ba1  1  0.25148300  0.22887600  0.97804800  1
  Ba  Ba2  1  0.74851700  0.22887600  0.47804800  1
  Ba  Ba3  1  0.25148300  0.77112400  0.52195200  1
  Ba  Ba4  1  0.74600300  0.50000000  0.75000000  1
  Ba  Ba5  1  0.25399700  0.50000000  0.25000000  1
  Ba  Ba6  1  0.25235500  0.76400300  0.79441800  1
  Ba  Ba7  1  0.74764500  0.23599700  0.20558200  1
  Ba  Ba8  1  0.25235500  0.23599700  0.70558200  1
  Ba  Ba9  1  0.74764500  0.76400300  0.29441800  1
  Mg  Mg0  1  0.75010000  0.00000000  0.75000000  1
  Mg  Mg1  1  0.24990000  0.00000000  0.25000000  1
  Mn  Mn0  1  0.00000000  0.50000000  0.50000000  1
  Mn  Mn1  1  0.00000000  0.50000000  0.00000000  1
  V  V0  1  0.74926900  0.79481900  0.65141700  1
  V  V1  1  0.25073100  0.20518100  0.34858300  1
  V  V2  1  0.74926900  0.20518100  0.84858300  1
  V  V3  1  0.25073100  0.79481900  0.15141700  1
  V  V4  1  0.24775000  0.95073900  0.90503800  1
  V  V5  1  0.75225000  0.04926100  0.09496200  1
  V  V6  1  0.24775000  0.04926100  0.59496200  1
  V  V7  1  0.75225000  0.95073900  0.40503800  1
  Cl  Cl0  1  0.75647000  0.64840400  0.51334600  1
  Cl  Cl1  1  0.24353000  0.35159600  0.48665400  1
  Cl  Cl2  1  0.75647000  0.35159600  0.98665400  1
  Cl  Cl3  1  0.24353000  0.64840400  0.01334600  1
  Cl  Cl4  1  0.76835200  0.50188800  0.13649100  1
  Cl  Cl5  1  0.23164800  0.49811200  0.86350900  1
  Cl  Cl6  1  0.76835200  0.49811200  0.36350900  1
  Cl  Cl7  1  0.23164800  0.50188800  0.63649100  1
  Cl  Cl8  1  0.75553400  0.64506000  0.88822600  1
  Cl  Cl9  1  0.24446600  0.35494000  0.11177400  1
  Cl  Cl10  1  0.75553400  0.35494000  0.61177400  1
  Cl  Cl11  1  0.24446600  0.64506000  0.38822600  1
  O  O0  1  0.74827800  0.87591900  0.52820600  1
  O  O1  1  0.25172200  0.12408100  0.47179400  1
  O  O2  1  0.74827800  0.12408100  0.97179400  1
  O  O3  1  0.25172200  0.87591900  0.02820600  1
  O  O4  1  0.51608900  0.70935000  0.67807500  1
  O  O5  1  0.48391100  0.29065000  0.32192500  1
  O  O6  1  0.51608900  0.29065000  0.82192500  1
  O  O7  1  0.48391100  0.70935000  0.17807500  1
  O  O8  1  0.99451400  0.91582900  0.35931900  1
  O  O9  1  0.00548600  0.08417100  0.64068100  1
  O  O10  1  0.99451400  0.08417100  0.14068100  1
  O  O11  1  0.00548600  0.91582900  0.85931900  1
  O  O12  1  0.74673500  0.86937300  0.71614600  1
  O  O13  1  0.25326500  0.13062700  0.28385400  1
  O  O14  1  0.74673500  0.13062700  0.78385400  1
  O  O15  1  0.25326500  0.86937300  0.21614600  1
  O  O16  1  0.98465400  0.71152000  0.67746100  1
  O  O17  1  0.01534600  0.28848000  0.32253900  1
  O  O18  1  0.98465400  0.28848000  0.82253900  1
  O  O19  1  0.01534600  0.71152000  0.17746100  1
  O  O20  1  0.48798600  0.91454700  0.85871700  1
  O  O21  1  0.51201400  0.08545300  0.14128300  1
  O  O22  1  0.48798600  0.08545300  0.64128300  1
  O  O23  1  0.51201400  0.91454700  0.35871700  1
  O  O24  1  0.75013100  0.91579500  0.11834200  1
  O  O25  1  0.24986900  0.08420500  0.88165800  1
  O  O26  1  0.75013100  0.08420500  0.38165800  1
  O  O27  1  0.24986900  0.91579500  0.61834200  1
loop_
_geom_bond_atom_site_label_1
_geom_bond_atom_site_label_2
_geom_bond_distance
_geom_bond_site_symmetry_2
Ba0 O7 2.766689 1_555
Ba0 O19 2.768084 1_655
Ba0 O24 2.940616 1_555
Ba0 O11 2.963687 1_654
Ba0 O20 2.974836 1_554
Ba0 Cl8 3.230446 1_554
Ba0 O3 3.239958 1_555
Ba0 O3 3.273287 1_655
Ba0 Cl3 3.356253 1_655
Ba0 Cl4 3.366021 1_555
Ba0 Cl3 3.406201 1_555
Ba1 O6 2.766689 1_555
Ba1 O18 2.768084 1_455
Ba1 O25 2.940616 1_555
Ba1 O10 2.963687 1_456
Ba1 O21 2.974836 1_556
Ba1 Cl9 3.230446 1_556
Ba1 O2 3.239958 1_555
Ba1 O2 3.273287 1_455
Ba1 Cl2 3.356253 1_455
Ba1 Cl5 3.366021 1_555
Ba1 Cl2 3.406201 1_555
Ba2 O5 2.766689 1_555
Ba2 O17 2.768084 1_655
Ba2 O26 2.940616 1_555
Ba2 O9 2.963687 1_655
Ba2 O22 2.974836 1_555
Ba2 Cl10 3.230446 1_555
Ba2 O1 3.239958 1_555
Ba2 O1 3.273287 1_655
Ba2 Cl1 3.356253 1_655
Ba2 Cl6 3.366021 1_555
Ba2 Cl1 3.406201 1_555
Ba3 O4 2.766689 1_555
Ba3 O16 2.768084 1_455
Ba3 O27 2.940616 1_555
Ba3 O8 2.963687 1_455
Ba3 O23 2.974836 1_555
Ba3 Cl11 3.230446 1_555
Ba3 O0 3.239958 1_555
Ba3 O0 3.273287 1_455
Ba3 Cl0 3.356253 1_455
Ba3 Cl7 3.366021 1_555
Ba3 Cl0 3.406201 1_555
Ba4 O6 2.923531 1_555
Ba4 O4 2.923531 1_555
Ba4 O18 2.970926 1_555
Ba4 O16 2.970926 1_555
Ba4 Cl7 3.355347 1_655
Ba4 Cl5 3.355347 1_655
Ba4 Cl5 3.497232 1_555
Ba4 Cl7 3.497232 1_555
Ba4 Cl8 3.500124 1_555
Ba4 Cl10 3.500124 1_555
Ba4 Cl0 3.510838 1_555
Ba4 Cl2 3.510838 1_555
Ba5 O5 2.923531 1_555
Ba5 O7 2.923531 1_555
Ba5 O17 2.970926 1_555
Ba5 O19 2.970926 1_555
Ba5 Cl4 3.355347 1_455
Ba5 Cl6 3.355347 1_455
Ba5 Cl4 3.497232 1_555
Ba5 Cl6 3.497232 1_555
Ba5 Cl11 3.500124 1_555
Ba5 Cl9 3.500124 1_555
Ba5 Cl3 3.510838 1_555
Ba5 Cl1 3.510838 1_555
Ba6 O4 2.735423 1_555
Ba6 O16 2.740403 1_455
Ba6 O27 2.747290 1_555
Ba6 O20 2.963323 1_555
Ba6 O11 3.014331 1_555
Ba6 Cl3 3.219614 1_556
Ba6 O12 3.233509 1_555
Ba6 O12 3.291842 1_455
Ba6 Cl5 3.320355 1_555
Ba6 Cl8 3.358173 1_455
Ba6 Cl8 3.390080 1_555
Ba7 O5 2.735423 1_555
Ba7 O17 2.740403 1_655
Ba7 O26 2.747290 1_555
Ba7 O21 2.963323 1_555
Ba7 O10 3.014331 1_555
Ba7 Cl2 3.219614 1_554
Ba7 O13 3.233509 1_555
Ba7 O13 3.291842 1_655
Ba7 Cl4 3.320355 1_555
Ba7 Cl9 3.358173 1_655
Ba7 Cl9 3.390080 1_555
Ba8 O6 2.735423 1_555
Ba8 O18 2.740403 1_455
Ba8 O25 2.747290 1_555
Ba8 O22 2.963323 1_555
Ba8 O9 3.014331 1_555
Ba8 Cl1 3.219614 1_555
Ba8 O14 3.233509 1_555
Ba8 O14 3.291842 1_455
Ba8 Cl7 3.320355 1_555
Ba8 Cl10 3.358173 1_455
Ba8 Cl10 3.390080 1_555
Ba9 O7 2.735423 1_555
Ba9 O19 2.740403 1_655
Ba9 O24 2.747290 1_555
Ba9 O23 2.963323 1_555
Ba9 O8 3.014331 1_555
Ba9 Cl0 3.219614 1_555
Ba9 O15 3.233509 1_555
Ba9 O15 3.291842 1_655
Ba9 Cl6 3.320355 1_555
Ba9 Cl11 3.358173 1_655
Ba9 Cl11 3.390080 1_555
Mg0 O14 2.047865 1_555
Mg0 O12 2.047865 1_545
Mg0 O9 2.231471 1_655
Mg0 O11 2.231471 1_645
Mg0 O20 2.255700 1_545
Mg0 O22 2.255700 1_555
Mg1 O13 2.047865 1_555
Mg1 O15 2.047865 1_545
Mg1 O8 2.231471 1_445
Mg1 O10 2.231471 1_455
Mg1 O23 2.255700 1_545
Mg1 O21 2.255700 1_555
Cl0 Mn0 2.537658 1_655
Cl1 Mn0 2.537658 1_555
Cl2 Mn1 2.537658 1_656
Cl3 Mn1 2.537658 1_555
Cl4 Mn1 2.577862 1_655
Cl5 Mn1 2.577862 1_556
Cl6 Mn0 2.577862 1_655
Cl7 Mn0 2.577862 1_555
Cl8 Mn1 2.505583 1_656
Cl9 Mn1 2.505583 1_555
Cl10 Mn0 2.505583 1_655
Cl11 Mn0 2.505583 1_555
O0 V7 1.822788 1_555
O0 V0 1.835640 1_555
O1 V6 1.822788 1_555
O1 V1 1.835640 1_555
O2 V5 1.822788 1_556
O2 V2 1.835640 1_555
O3 V4 1.822788 1_554
O3 V3 1.835640 1_555
O4 V0 1.723021 1_555
O5 V1 1.723021 1_555
O6 V2 1.723021 1_555
O7 V3 1.723021 1_555
O8 V7 1.739247 1_555
O9 V6 1.739247 1_555
O10 V5 1.739247 1_555
O11 V4 1.739247 1_555
O12 V0 1.712805 1_555
O13 V1 1.712805 1_555
O14 V2 1.712805 1_555
O15 V3 1.712805 1_555
O16 V0 1.716740 1_555
O17 V1 1.716740 1_555
O18 V2 1.716740 1_555
O19 V3 1.716740 1_555
O20 V4 1.742628 1_555
O21 V5 1.742628 1_555
O22 V6 1.742628 1_555
O23 V7 1.742628 1_555
O24 V5 1.693433 1_565
O25 V4 1.693433 1_545
O26 V7 1.693433 1_545
O27 V6 1.693433 1_565
