# generated using pymatgen
data_Nb12PbSe16
_symmetry_space_group_name_H-M   'P 1'
_cell_length_a   7.08173500
_cell_length_b   10.05810011
_cell_length_c   10.66068117
_cell_angle_alpha   118.12479629
_cell_angle_beta   109.36272830
_cell_angle_gamma   90.00831686
_symmetry_Int_Tables_number   1
_chemical_formula_structural   Nb12PbSe16
_chemical_formula_sum   'Nb12 Pb1 Se16'
_cell_volume   620.54023793
_cell_formula_units_Z   1
loop_
 _symmetry_equiv_pos_site_id
 _symmetry_equiv_pos_as_xyz
  1  'x, y, z'
loop_
 _atom_site_type_symbol
 _atom_site_label
 _atom_site_symmetry_multiplicity
 _atom_site_fract_x
 _atom_site_fract_y
 _atom_site_fract_z
 _atom_site_occupancy
  Nb  Nb0  1  0.92867600  0.48704900  0.10670100  1
  Nb  Nb1  1  0.42871200  0.48692600  0.10709600  1
  Nb  Nb2  1  0.13090900  0.61961200  0.51280200  1
  Nb  Nb3  1  0.63299900  0.62253400  0.51286400  1
  Nb  Nb4  1  0.06718500  0.89287000  0.37929300  1
  Nb  Nb5  1  0.56419900  0.89381700  0.38133900  1
  Nb  Nb6  1  0.57128800  0.51307400  0.89290400  1
  Nb  Nb7  1  0.07132400  0.51295100  0.89329900  1
  Nb  Nb8  1  0.36700100  0.37746600  0.48713600  1
  Nb  Nb9  1  0.86909100  0.38038800  0.48719800  1
  Nb  Nb10  1  0.43580100  0.10618300  0.61866100  1
  Nb  Nb11  1  0.93281500  0.10713000  0.62070700  1
  Pb  Pb0  1  0.50000000  0.00000000  0.00000000  1
  Se  Se0  1  0.51263200  0.33577000  0.27846500  1
  Se  Se1  1  0.01492000  0.33779100  0.27953600  1
  Se  Se2  1  0.70602800  0.94054000  0.66183500  1
  Se  Se3  1  0.20497600  0.94259300  0.66405600  1
  Se  Se4  1  0.40202800  0.72181000  0.05768900  1
  Se  Se5  1  0.90476300  0.72065600  0.05930800  1
  Se  Se6  1  0.98508000  0.66220900  0.72046400  1
  Se  Se7  1  0.48736800  0.66423000  0.72153500  1
  Se  Se8  1  0.79502400  0.05740700  0.33594400  1
  Se  Se9  1  0.29397200  0.05946000  0.33816500  1
  Se  Se10  1  0.09523700  0.27934400  0.94069200  1
  Se  Se11  1  0.59797200  0.27819000  0.94231100  1
  Se  Se12  1  0.70852000  0.33398800  0.66619200  1
  Se  Se13  1  0.20784900  0.33277600  0.66641600  1
  Se  Se14  1  0.79215100  0.66722400  0.33358400  1
  Se  Se15  1  0.29148000  0.66601200  0.33380800  1
loop_
_geom_bond_atom_site_label_1
_geom_bond_atom_site_label_2
_geom_bond_distance
_geom_bond_site_symmetry_2
Nb0 Se11 2.602926 1_554
Nb0 Se10 2.605191 1_654
Nb0 Se5 2.620566 1_555
Nb0 Se15 2.732806 1_655
Nb0 Se14 2.736389 1_555
Nb0 Se1 2.807783 1_655
Nb1 Se10 2.609975 1_554
Nb1 Se11 2.617346 1_554
Nb1 Se4 2.646085 1_555
Nb1 Se15 2.735701 1_555
Nb1 Se14 2.737267 1_555
Nb1 Se0 2.810902 1_555
Nb2 Se6 2.602494 1_455
Nb2 Se7 2.618932 1_555
Nb2 Se1 2.625413 1_555
Nb2 Se15 2.725863 1_555
Nb2 Se14 2.731025 1_455
Nb2 Se3 2.815770 1_555
Nb3 Se6 2.604242 1_555
Nb3 Se7 2.613445 1_555
Nb3 Se0 2.661172 1_555
Nb3 Se14 2.713556 1_555
Nb3 Se15 2.722199 1_555
Nb3 Se2 2.772379 1_555
Nb4 Se9 2.595760 1_565
Nb4 Se8 2.607387 1_465
Nb4 Se3 2.649977 1_555
Nb4 Se15 2.726393 1_555
Nb4 Se14 2.740203 1_455
Nb4 Se5 2.790505 1_455
Nb5 Se9 2.605679 1_565
Nb5 Se2 2.618180 1_555
Nb5 Se8 2.624520 1_565
Nb5 Se15 2.737143 1_555
Nb5 Se14 2.740717 1_555
Nb5 Se4 2.821516 1_555
Nb6 Se5 2.609975 1_556
Nb6 Se4 2.617346 1_556
Nb6 Se11 2.646085 1_555
Nb6 Se12 2.735701 1_555
Nb6 Se13 2.737267 1_555
Nb6 Se7 2.810902 1_555
Nb7 Se4 2.602926 1_556
Nb7 Se5 2.605191 1_456
Nb7 Se10 2.620566 1_555
Nb7 Se12 2.732806 1_455
Nb7 Se13 2.736389 1_555
Nb7 Se6 2.807783 1_455
Nb8 Se1 2.604242 1_555
Nb8 Se0 2.613445 1_555
Nb8 Se7 2.661172 1_555
Nb8 Se13 2.713556 1_555
Nb8 Se12 2.722199 1_555
Nb8 Se9 2.772379 1_555
Nb9 Se1 2.602494 1_655
Nb9 Se0 2.618932 1_555
Nb9 Se6 2.625413 1_555
Nb9 Se12 2.725863 1_555
Nb9 Se13 2.731025 1_655
Nb9 Se8 2.815770 1_555
Nb10 Se2 2.605679 1_545
Nb10 Se9 2.618180 1_555
Nb10 Se3 2.624520 1_545
Nb10 Se12 2.737143 1_555
Nb10 Se13 2.740717 1_555
Nb10 Se11 2.821516 1_555
Nb11 Se2 2.595760 1_545
Nb11 Se3 2.607387 1_645
Nb11 Se8 2.649977 1_555
Nb11 Se12 2.726393 1_555
Nb11 Se13 2.740203 1_655
Nb11 Se10 2.790505 1_655
Pb0 Se4 3.254766 1_545
Pb0 Se11 3.254766 1_554
Pb0 Se0 3.255461 1_555
Pb0 Se7 3.255461 1_544
Pb0 Se8 3.257802 1_555
Pb0 Se3 3.257802 1_544
