# generated using pymatgen
data_CaCrO2
_symmetry_space_group_name_H-M   'P 1'
_cell_length_a   6.21450600
_cell_length_b   6.21453800
_cell_length_c   6.98871431
_cell_angle_alpha   63.60188085
_cell_angle_beta   63.60195867
_cell_angle_gamma   90.00118012
_symmetry_Int_Tables_number   1
_chemical_formula_structural   CaCrO2
_chemical_formula_sum   'Ca4 Cr4 O8'
_cell_volume   209.87598416
_cell_formula_units_Z   4
loop_
 _symmetry_equiv_pos_site_id
 _symmetry_equiv_pos_as_xyz
  1  'x, y, z'
loop_
 _atom_site_type_symbol
 _atom_site_label
 _atom_site_symmetry_multiplicity
 _atom_site_fract_x
 _atom_site_fract_y
 _atom_site_fract_z
 _atom_site_occupancy
  Ca  Ca0  1  0.37500000  0.62499900  0.24999500  1
  Ca  Ca1  1  0.37499700  0.12499700  0.24999900  1
  Ca  Ca2  1  0.87500400  0.62499600  0.74999800  1
  Ca  Ca3  1  0.37500300  0.62500600  0.74999700  1
  Cr  Cr0  1  0.37498000  0.12499000  0.75002100  1
  Cr  Cr1  1  0.87500200  0.12499300  0.75000300  1
  Cr  Cr2  1  0.87500000  0.12500800  0.25000100  1
  Cr  Cr3  1  0.87499700  0.62500100  0.25000900  1
  O  O0  1  0.06938400  0.84743500  0.30513800  1
  O  O1  1  0.62547000  0.84743600  0.30513600  1
  O  O2  1  0.59743400  0.31937900  0.80514000  1
  O  O3  1  0.68061900  0.40256700  0.19485900  1
  O  O4  1  0.59743900  0.87547100  0.80513800  1
  O  O5  1  0.12453500  0.40256800  0.19485600  1
  O  O6  1  0.15257000  0.93062200  0.69485400  1
  O  O7  1  0.15256500  0.37453200  0.69485500  1
loop_
_geom_bond_atom_site_label_1
_geom_bond_atom_site_label_2
_geom_bond_distance
_geom_bond_site_symmetry_2
Ca0 O5 2.342846 1_555
Ca0 O1 2.342904 1_555
Ca0 O3 2.342963 1_555
Ca0 O0 2.342969 1_555
Ca0 O4 2.423780 1_554
Ca0 O7 2.423793 1_555
Ca1 O0 2.342851 1_545
Ca1 O5 2.342886 1_555
Ca1 O1 2.342890 1_545
Ca1 O3 2.342922 1_555
Ca1 O6 2.423774 1_545
Ca1 O2 2.423794 1_554
Ca2 O7 2.342855 1_655
Ca2 O2 2.342893 1_555
Ca2 O6 2.342910 1_655
Ca2 O4 2.342919 1_555
Ca2 O0 2.423800 1_655
Ca2 O3 2.423804 1_556
Ca3 O4 2.342878 1_555
Ca3 O7 2.342933 1_555
Ca3 O6 2.342958 1_555
Ca3 O2 2.343001 1_555
Ca3 O5 2.423788 1_556
Ca3 O1 2.423798 1_555
Cr0 O6 2.099039 1_545
Cr0 O2 2.099082 1_555
Cr0 O7 2.099131 1_555
Cr0 O4 2.099189 1_545
Cr1 O4 2.099033 1_545
Cr1 O6 2.099041 1_645
Cr1 O7 2.099056 1_655
Cr1 O2 2.099096 1_555
Cr2 O5 2.099038 1_655
Cr2 O3 2.099039 1_555
Cr2 O1 2.099108 1_545
Cr2 O0 2.099113 1_645
Cr3 O0 2.099034 1_655
Cr3 O3 2.099105 1_555
Cr3 O1 2.099122 1_555
Cr3 O5 2.099185 1_655
