# generated using pymatgen
data_B8PH24PtC7
_symmetry_space_group_name_H-M   'P 1'
_cell_length_a   14.31304522
_cell_length_b   15.55648611
_cell_length_c   15.58692512
_cell_angle_alpha   90.00000000
_cell_angle_beta   94.26541073
_cell_angle_gamma   90.00000000
_symmetry_Int_Tables_number   1
_chemical_formula_structural   B8PH24PtC7
_chemical_formula_sum   'B64 P8 H192 Pt8 C56'
_cell_volume   3460.98269141
_cell_formula_units_Z   8
loop_
 _symmetry_equiv_pos_site_id
 _symmetry_equiv_pos_as_xyz
  1  'x, y, z'
loop_
 _atom_site_type_symbol
 _atom_site_label
 _atom_site_symmetry_multiplicity
 _atom_site_fract_x
 _atom_site_fract_y
 _atom_site_fract_z
 _atom_site_occupancy
  B  B0  1  0.33103631  0.89092355  0.93152724  1
  B  B1  1  0.66896369  0.39092355  0.56847276  1
  B  B2  1  0.66896369  0.10907645  0.06847276  1
  B  B3  1  0.33103631  0.60907645  0.43152724  1
  B  B4  1  0.26132814  0.81294800  0.86287476  1
  B  B5  1  0.73867186  0.31294800  0.63712524  1
  B  B6  1  0.73867186  0.18705200  0.13712524  1
  B  B7  1  0.26132814  0.68705200  0.36287476  1
  B  B8  1  0.16111505  0.82861752  0.92890870  1
  B  B9  1  0.83888495  0.32861752  0.57109130  1
  B  B10  1  0.83888495  0.17138248  0.07109130  1
  B  B11  1  0.16111505  0.67138248  0.42890870  1
  B  B12  1  0.22742237  0.90769070  0.99742891  1
  B  B13  1  0.77257763  0.40769070  0.50257109  1
  B  B14  1  0.77257763  0.09230930  0.00257109  1
  B  B15  1  0.22742237  0.59230930  0.49742891  1
  B  B16  1  0.28594579  0.92013645  0.82578501  1
  B  B17  1  0.71405421  0.42013645  0.67421499  1
  B  B18  1  0.71405421  0.07986355  0.17421499  1
  B  B19  1  0.28594579  0.57986355  0.32578501  1
  B  B20  1  0.16198842  0.87553957  0.82431350  1
  B  B21  1  0.83801158  0.37553957  0.67568650  1
  B  B22  1  0.83801158  0.12446043  0.17568650  1
  B  B23  1  0.16198842  0.62446043  0.32431350  1
  B  B24  1  0.13761387  0.94243576  0.91967470  1
  B  B25  1  0.86238613  0.44243576  0.58032530  1
  B  B26  1  0.86238613  0.05756424  0.08032530  1
  B  B27  1  0.13761387  0.55756424  0.41967470  1
  B  B28  1  0.26085958  0.98917556  0.92205171  1
  B  B29  1  0.73914042  0.48917556  0.57794829  1
  B  B30  1  0.73914042  0.01082444  0.07794829  1
  B  B31  1  0.26085958  0.51082444  0.42205171  1
  B  B32  1  0.13628964  0.94836974  0.56430497  1
  B  B33  1  0.86371036  0.44836974  0.93569503  1
  B  B34  1  0.86371036  0.05163026  0.43569503  1
  B  B35  1  0.13628964  0.55163026  0.06430497  1
  B  B36  1  0.15085779  0.06707693  0.56229116  1
  B  B37  1  0.84914221  0.56707693  0.93770884  1
  B  B38  1  0.84914221  0.93292307  0.43770884  1
  B  B39  1  0.15085779  0.43292307  0.06229116  1
  B  B40  1  0.25576531  0.05325123  0.49707540  1
  B  B41  1  0.74423469  0.55325123  0.00292460  1
  B  B42  1  0.74423469  0.94674877  0.50292460  1
  B  B43  1  0.25576531  0.44674877  0.99707540  1
  B  B44  1  0.23774611  0.93639725  0.49876335  1
  B  B45  1  0.76225389  0.43639725  0.00123665  1
  B  B46  1  0.76225389  0.06360275  0.50123665  1
  B  B47  1  0.23774611  0.56360275  0.99876335  1
  B  B48  1  0.18303763  0.00737999  0.65744338  1
  B  B49  1  0.81696237  0.50737999  0.84255662  1
  B  B50  1  0.81696237  0.99262001  0.34255662  1
  B  B51  1  0.18303763  0.49262001  0.15744338  1
  B  B52  1  0.27050771  0.08327245  0.60978971  1
  B  B53  1  0.72949229  0.58327245  0.89021029  1
  B  B54  1  0.72949229  0.91672755  0.39021029  1
  B  B55  1  0.27050771  0.41672755  0.10978971  1
  B  B56  1  0.33186406  0.98680628  0.56392139  1
  B  B57  1  0.66813594  0.48680628  0.93607861  1
  B  B58  1  0.66813594  0.01319372  0.43607861  1
  B  B59  1  0.33186406  0.51319372  0.06392139  1
  B  B60  1  0.24784613  0.91272216  0.61149761  1
  B  B61  1  0.75215387  0.41272216  0.88850239  1
  B  B62  1  0.75215387  0.08727784  0.38850239  1
  B  B63  1  0.24784613  0.58727784  0.11149761  1
  P  P0  1  0.11627771  0.15402479  0.83196713  1
  P  P1  1  0.88372229  0.65402479  0.66803287  1
  P  P2  1  0.88372229  0.84597521  0.16803287  1
  P  P3  1  0.11627771  0.34597521  0.33196713  1
  P  P4  1  0.46671430  0.06852012  0.75311824  1
  P  P5  1  0.53328570  0.56852012  0.74688176  1
  P  P6  1  0.53328570  0.93147988  0.24688176  1
  P  P7  1  0.46671430  0.43147988  0.25311824  1
  H  H0  1  0.29211664  0.76515188  0.00962423  1
  H  H1  1  0.70788336  0.26515188  0.49037577  1
  H  H2  1  0.70788336  0.23484812  0.99037577  1
  H  H3  1  0.29211664  0.73484812  0.50962423  1
  H  H4  1  0.14124197  0.27194363  0.92916086  1
  H  H5  1  0.85875803  0.77194363  0.57083914  1
  H  H6  1  0.85875803  0.72805637  0.07083914  1
  H  H7  1  0.14124197  0.22805637  0.42916086  1
  H  H8  1  0.24090622  0.20524865  0.92771193  1
  H  H9  1  0.75909378  0.70524865  0.57228807  1
  H  H10  1  0.75909378  0.79475135  0.07228807  1
  H  H11  1  0.24090622  0.29475135  0.42771193  1
  H  H12  1  0.15486425  0.09503650  0.01847278  1
  H  H13  1  0.84513575  0.59503650  0.48152722  1
  H  H14  1  0.84513575  0.90496350  0.98152722  1
  H  H15  1  0.15486425  0.40496350  0.51847278  1
  H  H16  1  0.18070384  0.19553432  0.06948380  1
  H  H17  1  0.81929616  0.69553432  0.43051620  1
  H  H18  1  0.81929616  0.80446568  0.93051620  1
  H  H19  1  0.18070384  0.30446568  0.56948380  1
  H  H20  1  0.06514782  0.17254118  0.02677238  1
  H  H21  1  0.93485218  0.67254118  0.47322762  1
  H  H22  1  0.93485218  0.82745882  0.97322762  1
  H  H23  1  0.06514782  0.32745882  0.52677238  1
  H  H24  1  0.97291965  0.22803605  0.85389080  1
  H  H25  1  0.02708035  0.72803605  0.64610920  1
  H  H26  1  0.02708035  0.77196395  0.14610920  1
  H  H27  1  0.97291965  0.27196395  0.35389080  1
  H  H28  1  0.97550341  0.12406290  0.89984518  1
  H  H29  1  0.02449659  0.62406290  0.60015482  1
  H  H30  1  0.02449659  0.87593710  0.10015482  1
  H  H31  1  0.97550341  0.37593710  0.39984518  1
  H  H32  1  0.93609326  0.05639639  0.75832646  1
  H  H33  1  0.06390674  0.55639639  0.74167354  1
  H  H34  1  0.06390674  0.94360361  0.24167354  1
  H  H35  1  0.93609326  0.44360361  0.25832646  1
  H  H36  1  0.85460457  0.14060192  0.77362526  1
  H  H37  1  0.14539543  0.64060192  0.72637474  1
  H  H38  1  0.14539543  0.85939808  0.22637474  1
  H  H39  1  0.85460457  0.35939808  0.27362526  1
  H  H40  1  0.94468673  0.15614832  0.70362479  1
  H  H41  1  0.05531327  0.65614832  0.79637521  1
  H  H42  1  0.05531327  0.84385168  0.29637521  1
  H  H43  1  0.94468673  0.34385168  0.20362479  1
  H  H44  1  0.10042785  0.21535609  0.69202901  1
  H  H45  1  0.89957215  0.71535609  0.80797099  1
  H  H46  1  0.89957215  0.78464391  0.30797099  1
  H  H47  1  0.10042785  0.28464391  0.19202901  1
  H  H48  1  0.21348632  0.22983835  0.74120681  1
  H  H49  1  0.78651368  0.72983835  0.75879319  1
  H  H50  1  0.78651368  0.77016165  0.25879319  1
  H  H51  1  0.21348632  0.27016165  0.24120681  1
  H  H52  1  0.16274861  0.35852539  0.82216417  1
  H  H53  1  0.83725139  0.85852539  0.67783583  1
  H  H54  1  0.83725139  0.64147461  0.17783583  1
  H  H55  1  0.16274861  0.14147461  0.32216417  1
  H  H56  1  0.12512361  0.36853456  0.71174009  1
  H  H57  1  0.87487639  0.86853456  0.78825991  1
  H  H58  1  0.87487639  0.63146544  0.28825991  1
  H  H59  1  0.12512361  0.13146544  0.21174009  1
  H  H60  1  0.04343220  0.34097082  0.78644371  1
  H  H61  1  0.95656780  0.84097082  0.71355629  1
  H  H62  1  0.95656780  0.65902918  0.21355629  1
  H  H63  1  0.04343220  0.15902918  0.28644371  1
  H  H64  1  0.41292075  0.89113785  0.95327991  1
  H  H65  1  0.58707925  0.39113785  0.54672009  1
  H  H66  1  0.58707925  0.10886215  0.04672009  1
  H  H67  1  0.41292075  0.60886215  0.45327991  1
  H  H68  1  0.28731060  0.74908817  0.82944645  1
  H  H69  1  0.71268940  0.24908817  0.67055355  1
  H  H70  1  0.71268940  0.25091183  0.17055355  1
  H  H71  1  0.28731060  0.75091183  0.32944645  1
  H  H72  1  0.10380905  0.77797097  0.94864559  1
  H  H73  1  0.89619095  0.27797097  0.55135441  1
  H  H74  1  0.89619095  0.22202903  0.05135441  1
  H  H75  1  0.10380905  0.72202903  0.44864559  1
  H  H76  1  0.22726168  0.92122958  0.07297938  1
  H  H77  1  0.77273832  0.42122958  0.42702062  1
  H  H78  1  0.77273832  0.07877042  0.92702062  1
  H  H79  1  0.22726168  0.57877042  0.57297938  1
  H  H80  1  0.35778654  0.90812383  0.77809278  1
  H  H81  1  0.64221346  0.40812383  0.72190722  1
  H  H82  1  0.64221346  0.09187617  0.22190722  1
  H  H83  1  0.35778654  0.59187617  0.27809278  1
  H  H84  1  0.11008538  0.84516746  0.76850727  1
  H  H85  1  0.88991462  0.34516746  0.73149273  1
  H  H86  1  0.88991462  0.15483254  0.23149273  1
  H  H87  1  0.11008538  0.65483254  0.26850727  1
  H  H88  1  0.06661085  0.96582153  0.94865481  1
  H  H89  1  0.93338915  0.46582153  0.55134519  1
  H  H90  1  0.93338915  0.03417847  0.05134519  1
  H  H91  1  0.06661085  0.53417847  0.44865481  1
  H  H92  1  0.30019081  0.05021916  0.95536007  1
  H  H93  1  0.69980919  0.55021916  0.54463993  1
  H  H94  1  0.69980919  0.94978084  0.04463993  1
  H  H95  1  0.30019081  0.44978084  0.45536007  1
  H  H96  1  0.10933575  0.01035937  0.42282814  1
  H  H97  1  0.89066425  0.51035937  0.07717186  1
  H  H98  1  0.89066425  0.98964063  0.57717186  1
  H  H99  1  0.10933575  0.48964063  0.92282814  1
  H  H100  1  0.56650916  0.03434445  0.64138061  1
  H  H101  1  0.43349084  0.53434445  0.85861939  1
  H  H102  1  0.43349084  0.96565555  0.35861939  1
  H  H103  1  0.56650916  0.46565555  0.14138061  1
  H  H104  1  0.61306405  0.11878168  0.70752784  1
  H  H105  1  0.38693595  0.61878168  0.79247216  1
  H  H106  1  0.38693595  0.88121832  0.29247216  1
  H  H107  1  0.61306405  0.38121832  0.20752784  1
  H  H108  1  0.50092126  0.22367973  0.63081571  1
  H  H109  1  0.49907874  0.72367973  0.86918429  1
  H  H110  1  0.49907874  0.77632027  0.36918429  1
  H  H111  1  0.50092126  0.27632027  0.13081571  1
  H  H112  1  0.56857272  0.16815161  0.55784296  1
  H  H113  1  0.43142728  0.66815161  0.94215704  1
  H  H114  1  0.43142728  0.83184839  0.44215704  1
  H  H115  1  0.56857272  0.33184839  0.05784296  1
  H  H116  1  0.44996134  0.13841887  0.56749742  1
  H  H117  1  0.55003866  0.63841887  0.93250258  1
  H  H118  1  0.55003866  0.86158113  0.43250258  1
  H  H119  1  0.44996134  0.36158113  0.06749742  1
  H  H120  1  0.50162031  0.00644268  0.89113020  1
  H  H121  1  0.49837969  0.50644268  0.60886980  1
  H  H122  1  0.49837969  0.99355732  0.10886980  1
  H  H123  1  0.50162031  0.49355732  0.39113020  1
  H  H124  1  0.59988074  0.06210958  0.85597105  1
  H  H125  1  0.40011926  0.56210958  0.64402895  1
  H  H126  1  0.40011926  0.93789042  0.14402895  1
  H  H127  1  0.59988074  0.43789042  0.35597105  1
  H  H128  1  0.63295808  0.93874804  0.75699068  1
  H  H129  1  0.36704192  0.43874804  0.74300932  1
  H  H130  1  0.36704192  0.06125196  0.24300932  1
  H  H131  1  0.63295808  0.56125196  0.25699068  1
  H  H132  1  0.63050529  0.90521367  0.86559999  1
  H  H133  1  0.36949471  0.40521367  0.63440001  1
  H  H134  1  0.36949471  0.09478633  0.13440001  1
  H  H135  1  0.63050529  0.59478633  0.36559999  1
  H  H136  1  0.53342416  0.88352541  0.79032127  1
  H  H137  1  0.46657584  0.38352541  0.70967873  1
  H  H138  1  0.46657584  0.11647459  0.20967873  1
  H  H139  1  0.53342416  0.61647459  0.29032127  1
  H  H140  1  0.39769764  0.15694822  0.85471774  1
  H  H141  1  0.60230236  0.65694822  0.64528226  1
  H  H142  1  0.60230236  0.84305178  0.14528226  1
  H  H143  1  0.39769764  0.34305178  0.35471774  1
  H  H144  1  0.39816321  0.20719820  0.75355940  1
  H  H145  1  0.60183679  0.70719820  0.74644060  1
  H  H146  1  0.60183679  0.79280180  0.24644060  1
  H  H147  1  0.39816321  0.29280180  0.25355940  1
  H  H148  1  0.57313978  0.24485960  0.78686505  1
  H  H149  1  0.42686022  0.74485960  0.71313495  1
  H  H150  1  0.42686022  0.75514040  0.21313495  1
  H  H151  1  0.57313978  0.25514040  0.28686505  1
  H  H152  1  0.49805501  0.28993471  0.85979050  1
  H  H153  1  0.50194499  0.78993471  0.64020950  1
  H  H154  1  0.50194499  0.71006529  0.14020950  1
  H  H155  1  0.49805501  0.21006529  0.35979050  1
  H  H156  1  0.56693274  0.19914985  0.89043297  1
  H  H157  1  0.43306726  0.69914985  0.60956703  1
  H  H158  1  0.43306726  0.80085015  0.10956703  1
  H  H159  1  0.56693274  0.30085015  0.39043297  1
  H  H160  1  0.06520744  0.90802434  0.56262217  1
  H  H161  1  0.93479256  0.40802434  0.93737783  1
  H  H162  1  0.93479256  0.09197566  0.43737783  1
  H  H163  1  0.06520744  0.59197566  0.06262217  1
  H  H164  1  0.09280051  0.12234086  0.55999312  1
  H  H165  1  0.90719949  0.62234086  0.94000688  1
  H  H166  1  0.90719949  0.87765914  0.44000688  1
  H  H167  1  0.09280051  0.37765914  0.05999312  1
  H  H168  1  0.28120754  0.09882965  0.44159036  1
  H  H169  1  0.71879246  0.59882965  0.05840964  1
  H  H170  1  0.71879246  0.90117035  0.55840964  1
  H  H171  1  0.28120754  0.40117035  0.94159036  1
  H  H172  1  0.25085808  0.88509521  0.44401094  1
  H  H173  1  0.74914192  0.38509521  0.05598906  1
  H  H174  1  0.74914192  0.11490479  0.55598906  1
  H  H175  1  0.25085808  0.61490479  0.94401094  1
  H  H176  1  0.10876238  0.01326291  0.70322229  1
  H  H177  1  0.89123762  0.51326291  0.79677771  1
  H  H178  1  0.89123762  0.98673709  0.29677771  1
  H  H179  1  0.10876238  0.48673709  0.20322229  1
  H  H180  1  0.29022862  0.15765639  0.62119210  1
  H  H181  1  0.70977138  0.65765639  0.87880790  1
  H  H182  1  0.70977138  0.84234361  0.37880790  1
  H  H183  1  0.29022862  0.34234361  0.12119210  1
  H  H184  1  0.40877013  0.97694859  0.53988836  1
  H  H185  1  0.59122987  0.47694859  0.96011164  1
  H  H186  1  0.59122987  0.02305141  0.46011164  1
  H  H187  1  0.40877013  0.52305141  0.03988836  1
  H  H188  1  0.25546535  0.83857032  0.63200453  1
  H  H189  1  0.74453465  0.33857032  0.86799547  1
  H  H190  1  0.74453465  0.16142968  0.36799547  1
  H  H191  1  0.25546535  0.66142968  0.13200453  1
  Pt  Pt0  1  0.17442925  0.01533856  0.80567437  1
  Pt  Pt1  1  0.82557075  0.51533856  0.69432563  1
  Pt  Pt2  1  0.82557075  0.98466144  0.19432563  1
  Pt  Pt3  1  0.17442925  0.48466144  0.30567437  1
  Pt  Pt4  1  0.32900741  0.99521694  0.70548868  1
  Pt  Pt5  1  0.67099259  0.49521694  0.79451132  1
  Pt  Pt6  1  0.67099259  0.00478306  0.29451132  1
  Pt  Pt7  1  0.32900741  0.50478306  0.20548868  1
  C  C0  1  0.26723420  0.81675510  0.96684073  1
  C  C1  1  0.73276580  0.31675510  0.53315927  1
  C  C2  1  0.73276580  0.18324490  0.03315927  1
  C  C3  1  0.26723420  0.68324490  0.46684073  1
  C  C4  1  0.16466231  0.20455626  0.93186760  1
  C  C5  1  0.83533769  0.70455626  0.56813240  1
  C  C6  1  0.83533769  0.79544374  0.06813240  1
  C  C7  1  0.16466231  0.29544374  0.43186760  1
  C  C8  1  0.13944453  0.16405724  0.01615740  1
  C  C9  1  0.86055547  0.66405724  0.48384260  1
  C  C10  1  0.86055547  0.83594276  0.98384260  1
  C  C11  1  0.13944453  0.33594276  0.51615740  1
  C  C12  1  0.98942711  0.16018246  0.84161542  1
  C  C13  1  0.01057289  0.66018246  0.65838458  1
  C  C14  1  0.01057289  0.83981754  0.15838458  1
  C  C15  1  0.98942711  0.33981754  0.34161542  1
  C  C16  1  0.92819091  0.12626063  0.76456905  1
  C  C17  1  0.07180909  0.62626063  0.73543095  1
  C  C18  1  0.07180909  0.87373937  0.23543095  1
  C  C19  1  0.92819091  0.37373937  0.26456905  1
  C  C20  1  0.13898120  0.23683026  0.75186158  1
  C  C21  1  0.86101880  0.73683026  0.74813842  1
  C  C22  1  0.86101880  0.76316974  0.24813842  1
  C  C23  1  0.13898120  0.26316974  0.25186158  1
  C  C24  1  0.11583657  0.33097341  0.77018797  1
  C  C25  1  0.88416343  0.83097341  0.72981203  1
  C  C26  1  0.88416343  0.66902659  0.22981203  1
  C  C27  1  0.11583657  0.16902659  0.27018797  1
  C  C28  1  0.15594097  0.00565181  0.48101240  1
  C  C29  1  0.84405903  0.50565181  0.01898760  1
  C  C30  1  0.84405903  0.99434819  0.51898760  1
  C  C31  1  0.15594097  0.49434819  0.98101240  1
  C  C32  1  0.54870372  0.09523052  0.67189730  1
  C  C33  1  0.45129628  0.59523052  0.82810270  1
  C  C34  1  0.45129628  0.90476948  0.32810270  1
  C  C35  1  0.54870372  0.40476948  0.17189730  1
  C  C36  1  0.51436466  0.16018910  0.60334955  1
  C  C37  1  0.48563534  0.66018910  0.89665045  1
  C  C38  1  0.48563534  0.83981090  0.39665045  1
  C  C39  1  0.51436466  0.33981090  0.10334955  1
  C  C40  1  0.54423091  0.01594076  0.83609228  1
  C  C41  1  0.45576909  0.51594076  0.66390772  1
  C  C42  1  0.45576909  0.98405924  0.16390772  1
  C  C43  1  0.54423091  0.48405924  0.33609228  1
  C  C44  1  0.58743401  0.93093754  0.81024195  1
  C  C45  1  0.41256599  0.43093754  0.68975805  1
  C  C46  1  0.41256599  0.06906246  0.18975805  1
  C  C47  1  0.58743401  0.56906246  0.31024195  1
  C  C48  1  0.44265459  0.17264780  0.80280661  1
  C  C49  1  0.55734541  0.67264780  0.69719339  1
  C  C50  1  0.55734541  0.82735220  0.19719339  1
  C  C51  1  0.44265459  0.32735220  0.30280661  1
  C  C52  1  0.52524243  0.22896529  0.83624848  1
  C  C53  1  0.47475757  0.72896529  0.66375152  1
  C  C54  1  0.47475757  0.77103471  0.16375152  1
  C  C55  1  0.52524243  0.27103471  0.33624848  1
loop_
_geom_bond_atom_site_label_1
_geom_bond_atom_site_label_2
_geom_bond_distance
_geom_bond_site_symmetry_2
B0 H64 1.195609 1_555
B0 C0 1.594659 1_555
B1 H65 1.195609 1_555
B1 C1 1.594659 1_555
B2 H66 1.195609 1_555
B2 C2 1.594659 1_555
B3 H67 1.195609 1_555
B3 C3 1.594659 1_555
B4 H68 1.193953 1_555
B4 C0 1.617507 1_555
B5 H69 1.193953 1_555
B5 C1 1.617507 1_555
B6 H70 1.193953 1_555
B6 C2 1.617507 1_555
B7 H71 1.193953 1_555
B7 C3 1.617507 1_555
B8 H72 1.194027 1_555
B8 C0 1.599081 1_555
B9 H73 1.194027 1_555
B9 C1 1.599081 1_555
B10 H74 1.194027 1_555
B10 C2 1.599081 1_555
B11 H75 1.194027 1_555
B11 C3 1.599081 1_555
B12 H76 1.196457 1_556
B12 C0 1.610477 1_555
B13 H77 1.196457 1_555
B13 C1 1.610477 1_555
B14 H78 1.196457 1_554
B14 C2 1.610477 1_555
B15 H79 1.196457 1_555
B15 C3 1.610477 1_555
B16 H80 1.326104 1_555
B16 Pt0 2.182863 1_565
B17 H81 1.326104 1_555
B17 Pt1 2.182863 1_555
B18 H82 1.326104 1_555
B18 Pt2 2.182863 1_545
B19 H83 1.326104 1_555
B19 Pt3 2.182863 1_555
B20 H84 1.198181 1_555
B20 Pt0 2.203062 1_565
B21 H85 1.198181 1_555
B21 Pt1 2.203062 1_555
B22 H86 1.198181 1_555
B22 Pt2 2.203062 1_545
B23 H87 1.198181 1_555
B23 Pt3 2.203062 1_555
B24 H88 1.198951 1_555
B24 Pt0 2.204673 1_565
B25 H89 1.198951 1_555
B25 Pt1 2.204673 1_555
B26 H90 1.198951 1_555
B26 Pt2 2.204673 1_545
B27 H91 1.198951 1_555
B27 Pt3 2.204673 1_555
B28 H92 1.201984 1_565
B28 Pt0 2.157008 1_565
B29 H93 1.201984 1_555
B29 Pt1 2.157008 1_555
B30 H94 1.201984 1_545
B30 Pt2 2.157008 1_545
B31 H95 1.201984 1_555
B31 Pt3 2.157008 1_555
B32 H160 1.194047 1_555
B32 C28 1.616485 1_565
B33 H161 1.194047 1_555
B33 C29 1.616485 1_556
B34 H162 1.194047 1_555
B34 C30 1.616485 1_545
B35 H163 1.194047 1_555
B35 C31 1.616485 1_554
B36 H164 1.194355 1_555
B36 C28 1.592827 1_555
B37 H165 1.194355 1_555
B37 C29 1.592827 1_556
B38 H166 1.194355 1_555
B38 C30 1.592827 1_555
B39 H167 1.194355 1_555
B39 C31 1.592827 1_554
B40 H168 1.195887 1_555
B40 C28 1.612211 1_555
B41 H169 1.195887 1_555
B41 C29 1.612211 1_555
B42 H170 1.195887 1_555
B42 C30 1.612211 1_555
B43 H171 1.195887 1_555
B43 C31 1.612211 1_555
B44 H172 1.193443 1_555
B44 C28 1.600007 1_565
B45 H173 1.193443 1_555
B45 C29 1.600007 1_555
B46 H174 1.193443 1_555
B46 C30 1.600007 1_545
B47 H175 1.193443 1_555
B47 C31 1.600007 1_555
B48 H176 1.326863 1_555
B48 Pt4 2.174612 1_545
B49 H177 1.326863 1_555
B49 Pt5 2.174612 1_555
B50 H178 1.326863 1_555
B50 Pt6 2.174612 1_565
B51 H179 1.326863 1_555
B51 Pt7 2.174612 1_555
B52 H180 1.201167 1_555
B52 Pt4 2.148667 1_545
B53 H181 1.201167 1_555
B53 Pt5 2.148667 1_555
B54 H182 1.201167 1_555
B54 Pt6 2.148667 1_565
B55 H183 1.201167 1_555
B55 Pt7 2.148667 1_555
B56 H184 1.198688 1_555
B56 Pt4 2.213886 1_555
B57 H185 1.198688 1_555
B57 Pt5 2.213886 1_555
B58 H186 1.198688 1_555
B58 Pt6 2.213886 1_555
B59 H187 1.198688 1_555
B59 Pt7 2.213886 1_555
B60 H188 1.199807 1_555
B60 Pt4 2.211234 1_555
B61 H189 1.199807 1_555
B61 Pt5 2.211234 1_555
B62 H190 1.199807 1_555
B62 Pt6 2.211234 1_555
B63 H191 1.199807 1_555
B63 Pt7 2.211234 1_555
P0 Pt0 2.359267 1_555
P1 Pt1 2.359267 1_555
P2 Pt2 2.359267 1_555
P3 Pt3 2.359267 1_555
P4 Pt4 2.349197 1_545
P5 Pt5 2.349197 1_555
P6 Pt6 2.349197 1_565
P7 Pt7 2.349197 1_555
H80 Pt4 1.793509 1_555
H81 Pt5 1.793509 1_555
H82 Pt6 1.793509 1_555
H83 Pt7 1.793509 1_555
H176 Pt0 1.792011 1_555
H177 Pt1 1.792011 1_555
H178 Pt2 1.792011 1_555
H179 Pt3 1.792011 1_555
C0 H0 1.086576 1_556
C1 H1 1.086576 1_555
C2 H2 1.086576 1_554
C3 H3 1.086576 1_555
C4 H8 1.098055 1_555
C4 H4 1.100455 1_555
C4 P0 1.833526 1_555
C5 H9 1.098055 1_555
C5 H5 1.100455 1_555
C5 P1 1.833526 1_555
C6 H10 1.098055 1_555
C6 H6 1.100455 1_555
C6 P2 1.833526 1_555
C7 H11 1.098055 1_555
C7 H7 1.100455 1_555
C7 P3 1.833526 1_555
C8 H12 1.096222 1_555
C8 H20 1.096272 1_555
C8 H16 1.098359 1_555
C9 H13 1.096222 1_555
C9 H21 1.096272 1_555
C9 H17 1.098359 1_555
C10 H14 1.096222 1_555
C10 H22 1.096272 1_555
C10 H18 1.098359 1_555
C11 H15 1.096222 1_555
C11 H23 1.096272 1_555
C11 H19 1.098359 1_555
C12 H28 1.098238 1_555
C12 H24 1.101532 1_555
C12 P0 1.835451 1_655
C13 H29 1.098238 1_555
C13 H25 1.101532 1_555
C13 P1 1.835451 1_455
C14 H30 1.098238 1_555
C14 H26 1.101532 1_555
C14 P2 1.835451 1_455
C15 H31 1.098238 1_555
C15 H27 1.101532 1_555
C15 P3 1.835451 1_655
C16 H36 1.095965 1_555
C16 H32 1.097781 1_555
C16 H40 1.098935 1_555
C17 H37 1.095965 1_555
C17 H33 1.097781 1_555
C17 H41 1.098935 1_555
C18 H38 1.095965 1_555
C18 H34 1.097781 1_555
C18 H42 1.098935 1_555
C19 H39 1.095965 1_555
C19 H35 1.097781 1_555
C19 H43 1.098935 1_555
C20 H48 1.096793 1_555
C20 H44 1.099682 1_555
C20 P0 1.839650 1_555
C21 H49 1.096793 1_555
C21 H45 1.099682 1_555
C21 P1 1.839650 1_555
C22 H50 1.096793 1_555
C22 H46 1.099682 1_555
C22 P2 1.839650 1_555
C23 H51 1.096793 1_555
C23 H47 1.099682 1_555
C23 P3 1.839650 1_555
C24 H60 1.096094 1_555
C24 H56 1.098670 1_555
C24 H52 1.099992 1_555
C25 H61 1.096094 1_555
C25 H57 1.098670 1_555
C25 H53 1.099992 1_555
C26 H62 1.096094 1_555
C26 H58 1.098670 1_555
C26 H54 1.099992 1_555
C27 H63 1.096094 1_555
C27 H59 1.098670 1_555
C27 H55 1.099992 1_555
C28 H96 1.087583 1_555
C29 H97 1.087583 1_555
C30 H98 1.087583 1_555
C31 H99 1.087583 1_555
C32 H100 1.098350 1_555
C32 H104 1.102342 1_555
C32 P4 1.836713 1_555
C33 H101 1.098350 1_555
C33 H105 1.102342 1_555
C33 P5 1.836713 1_555
C34 H102 1.098350 1_555
C34 H106 1.102342 1_555
C34 P6 1.836713 1_555
C35 H103 1.098350 1_555
C35 H107 1.102342 1_555
C35 P7 1.836713 1_555
C36 H116 1.095483 1_555
C36 H112 1.096503 1_555
C36 H108 1.099132 1_555
C37 H117 1.095483 1_555
C37 H113 1.096503 1_555
C37 H109 1.099132 1_555
C38 H118 1.095483 1_555
C38 H114 1.096503 1_555
C38 H110 1.099132 1_555
C39 H119 1.095483 1_555
C39 H115 1.096503 1_555
C39 H111 1.099132 1_555
C40 H120 1.098894 1_555
C40 H124 1.099810 1_555
C40 P4 1.832820 1_555
C41 H121 1.098894 1_555
C41 H125 1.099810 1_555
C41 P5 1.832820 1_555
C42 H122 1.098894 1_555
C42 H126 1.099810 1_555
C42 P6 1.832820 1_555
C43 H123 1.098894 1_555
C43 H127 1.099810 1_555
C43 P7 1.832820 1_555
C44 H136 1.096499 1_555
C44 H132 1.097994 1_555
C44 H128 1.099418 1_555
C45 H137 1.096499 1_555
C45 H133 1.097994 1_555
C45 H129 1.099418 1_555
C46 H138 1.096499 1_555
C46 H134 1.097994 1_555
C46 H130 1.099418 1_555
C47 H139 1.096499 1_555
C47 H135 1.097994 1_555
C47 H131 1.099418 1_555
C48 H140 1.098113 1_555
C48 H144 1.100421 1_555
C48 P4 1.839034 1_555
C49 H141 1.098113 1_555
C49 H145 1.100421 1_555
C49 P5 1.839034 1_555
C50 H142 1.098113 1_555
C50 H146 1.100421 1_555
C50 P6 1.839034 1_555
C51 H143 1.098113 1_555
C51 H147 1.100421 1_555
C51 P7 1.839034 1_555
C52 H148 1.096410 1_555
C52 H152 1.098596 1_555
C52 H156 1.099787 1_555
C53 H149 1.096410 1_555
C53 H153 1.098596 1_555
C53 H157 1.099787 1_555
C54 H150 1.096410 1_555
C54 H154 1.098596 1_555
C54 H158 1.099787 1_555
C55 H151 1.096410 1_555
C55 H155 1.098596 1_555
C55 H159 1.099787 1_555
