# generated using pymatgen
data_BaCaB2O5
_symmetry_space_group_name_H-M   'P 1'
_cell_length_a   20.83190700
_cell_length_b   6.65599600
_cell_length_c   8.29179684
_cell_angle_alpha   63.03869950
_cell_angle_beta   90.00000000
_cell_angle_gamma   90.00000000
_symmetry_Int_Tables_number   1
_chemical_formula_structural   BaCaB2O5
_chemical_formula_sum   'Ba8 Ca8 B16 O40'
_cell_volume   1024.75714567
_cell_formula_units_Z   8
loop_
 _symmetry_equiv_pos_site_id
 _symmetry_equiv_pos_as_xyz
  1  'x, y, z'
loop_
 _atom_site_type_symbol
 _atom_site_label
 _atom_site_symmetry_multiplicity
 _atom_site_fract_x
 _atom_site_fract_y
 _atom_site_fract_z
 _atom_site_occupancy
  Ba  Ba0  1  0.46906700  0.47859500  0.76146400  1
  Ba  Ba1  1  0.96906700  0.52140500  0.73853600  1
  Ba  Ba2  1  0.53093300  0.52140500  0.23853600  1
  Ba  Ba3  1  0.03093300  0.47859500  0.26146400  1
  Ba  Ba4  1  0.27932800  0.00745500  0.73287000  1
  Ba  Ba5  1  0.77932800  0.99254500  0.76713000  1
  Ba  Ba6  1  0.72067200  0.99254500  0.26713000  1
  Ba  Ba7  1  0.22067200  0.00745500  0.23287000  1
  Ca  Ca0  1  0.41484400  0.98967600  0.26744900  1
  Ca  Ca1  1  0.91484400  0.01032400  0.23255100  1
  Ca  Ca2  1  0.58515600  0.01032400  0.73255100  1
  Ca  Ca3  1  0.08515600  0.98967600  0.76744900  1
  Ca  Ca4  1  0.33607300  0.49608600  0.25163300  1
  Ca  Ca5  1  0.83607300  0.50391400  0.24836700  1
  Ca  Ca6  1  0.66392700  0.50391400  0.74836700  1
  Ca  Ca7  1  0.16392700  0.49608600  0.75163300  1
  B  B0  1  0.44162500  0.86494300  0.92495300  1
  B  B1  1  0.94162500  0.13505700  0.57504700  1
  B  B2  1  0.55837500  0.13505700  0.07504700  1
  B  B3  1  0.05837500  0.86494300  0.42495300  1
  B  B4  1  0.30920700  0.65228200  0.58460700  1
  B  B5  1  0.80920700  0.34771800  0.91539300  1
  B  B6  1  0.69079300  0.34771800  0.41539300  1
  B  B7  1  0.19079300  0.65228200  0.08460700  1
  B  B8  1  0.31241700  0.37020500  0.91748500  1
  B  B9  1  0.81241700  0.62979500  0.58251500  1
  B  B10  1  0.68758300  0.62979500  0.08251500  1
  B  B11  1  0.18758300  0.37020500  0.41748500  1
  B  B12  1  0.43508400  0.14583200  0.59233000  1
  B  B13  1  0.93508400  0.85416800  0.90767000  1
  B  B14  1  0.56491600  0.85416800  0.40767000  1
  B  B15  1  0.06491600  0.14583200  0.09233000  1
  O  O0  1  0.49696200  0.78105200  0.88929100  1
  O  O1  1  0.99696200  0.21894800  0.61070900  1
  O  O2  1  0.50303800  0.21894800  0.11070900  1
  O  O3  1  0.00303800  0.78105200  0.38929100  1
  O  O4  1  0.25621200  0.28108300  0.89381300  1
  O  O5  1  0.75621200  0.71891700  0.60618700  1
  O  O6  1  0.74378800  0.71891700  0.10618700  1
  O  O7  1  0.24378800  0.28108300  0.39381300  1
  O  O8  1  0.24778600  0.72691000  0.57761500  1
  O  O9  1  0.74778600  0.27309000  0.92238500  1
  O  O10  1  0.75221400  0.27309000  0.42238500  1
  O  O11  1  0.25221400  0.72691000  0.07761500  1
  O  O12  1  0.49583100  0.22881500  0.56958400  1
  O  O13  1  0.99583100  0.77118500  0.93041600  1
  O  O14  1  0.50416900  0.77118500  0.43041600  1
  O  O15  1  0.00416900  0.22881500  0.06958400  1
  O  O16  1  0.41468600  0.78292300  0.09337700  1
  O  O17  1  0.91468600  0.21707700  0.40662300  1
  O  O18  1  0.58531400  0.21707700  0.90662300  1
  O  O19  1  0.08531400  0.78292300  0.59337700  1
  O  O20  1  0.40935700  0.04616700  0.77679300  1
  O  O21  1  0.90935700  0.95383300  0.72320700  1
  O  O22  1  0.59064300  0.95383300  0.22320700  1
  O  O23  1  0.09064300  0.04616700  0.27679300  1
  O  O24  1  0.34541100  0.29211200  0.07705500  1
  O  O25  1  0.84541100  0.70788800  0.42294500  1
  O  O26  1  0.65458900  0.70788800  0.92294500  1
  O  O27  1  0.15458900  0.29211200  0.57705500  1
  O  O28  1  0.39324100  0.16427200  0.45997300  1
  O  O29  1  0.89324100  0.83572800  0.04002700  1
  O  O30  1  0.60675900  0.83572800  0.54002700  1
  O  O31  1  0.10675900  0.16427200  0.95997300  1
  O  O32  1  0.34051800  0.55403300  0.76086900  1
  O  O33  1  0.84051800  0.44596700  0.73913100  1
  O  O34  1  0.65948200  0.44596700  0.23913100  1
  O  O35  1  0.15948200  0.55403300  0.26086900  1
  O  O36  1  0.34540400  0.68028500  0.43919100  1
  O  O37  1  0.84540400  0.31971500  0.06080900  1
  O  O38  1  0.65459600  0.31971500  0.56080900  1
  O  O39  1  0.15459600  0.68028500  0.93919100  1
loop_
_geom_bond_atom_site_label_1
_geom_bond_atom_site_label_2
_geom_bond_distance
_geom_bond_site_symmetry_2
Ba0 O14 2.648560 1_555
Ba0 O2 2.708405 1_556
Ba0 O32 2.724180 1_555
Ba0 O0 2.729239 1_555
Ba0 O12 2.829277 1_555
Ba0 O18 2.905719 1_555
Ba0 O20 3.084786 1_555
Ba1 O15 2.648560 1_656
Ba1 O3 2.708405 1_655
Ba1 O33 2.724180 1_555
Ba1 O1 2.729239 1_555
Ba1 O13 2.829277 1_555
Ba1 O19 2.905719 1_655
Ba1 O21 3.084786 1_555
Ba2 O12 2.648560 1_555
Ba2 O0 2.708405 1_554
Ba2 O34 2.724180 1_555
Ba2 O2 2.729239 1_555
Ba2 O14 2.829277 1_555
Ba2 O16 2.905719 1_555
Ba2 O22 3.084786 1_555
Ba3 O13 2.648560 1_454
Ba3 O1 2.708405 1_455
Ba3 O35 2.724180 1_555
Ba3 O3 2.729239 1_555
Ba3 O15 2.829277 1_555
Ba3 O17 2.905719 1_455
Ba3 O23 3.084786 1_555
Ba4 O7 2.669478 1_555
Ba4 O11 2.671520 1_546
Ba4 O4 2.744764 1_555
Ba4 O20 2.760700 1_555
Ba4 O8 2.784889 1_545
Ba5 O6 2.669478 1_556
Ba5 O10 2.671520 1_565
Ba5 O5 2.744764 1_555
Ba5 O21 2.760700 1_555
Ba5 O9 2.784889 1_565
Ba6 O5 2.669478 1_555
Ba6 O9 2.671520 1_564
Ba6 O6 2.744764 1_555
Ba6 O22 2.760700 1_555
Ba6 O10 2.784889 1_565
Ba7 O4 2.669478 1_554
Ba7 O8 2.671520 1_545
Ba7 O7 2.744764 1_555
Ba7 O23 2.760700 1_555
Ba7 O11 2.784889 1_545
Ca0 O2 2.365363 1_565
Ca0 O14 2.370984 1_555
Ca0 O36 2.387895 1_555
Ca0 O24 2.398953 1_565
Ca0 O16 2.403795 1_555
Ca0 O28 2.404920 1_565
Ca1 O3 2.365363 1_645
Ca1 O15 2.370984 1_655
Ca1 O37 2.387895 1_555
Ca1 O25 2.398953 1_545
Ca1 O17 2.403795 1_555
Ca1 O29 2.404920 1_545
Ca2 O0 2.365363 1_545
Ca2 O12 2.370984 1_555
Ca2 O38 2.387895 1_555
Ca2 O26 2.398953 1_545
Ca2 O18 2.403795 1_555
Ca2 O30 2.404920 1_545
Ca3 O1 2.365363 1_465
Ca3 O13 2.370984 1_455
Ca3 O39 2.387895 1_555
Ca3 O27 2.398953 1_565
Ca3 O19 2.403795 1_555
Ca3 O31 2.404920 1_565
Ca4 O11 2.341806 1_555
Ca4 O7 2.367248 1_555
Ca4 O36 2.385061 1_555
Ca4 O24 2.399704 1_555
Ca4 O16 2.403564 1_555
Ca4 O28 2.412605 1_555
Ca5 O10 2.341806 1_555
Ca5 O6 2.367248 1_555
Ca5 O37 2.385061 1_555
Ca5 O25 2.399704 1_555
Ca5 O17 2.403564 1_555
Ca5 O29 2.412605 1_555
Ca6 O9 2.341806 1_555
Ca6 O5 2.367248 1_555
Ca6 O38 2.385061 1_555
Ca6 O26 2.399704 1_555
Ca6 O18 2.403564 1_555
Ca6 O30 2.412605 1_555
Ca7 O8 2.341806 1_555
Ca7 O4 2.367248 1_555
Ca7 O39 2.385061 1_555
Ca7 O27 2.399704 1_555
Ca7 O19 2.403564 1_555
Ca7 O31 2.412605 1_555
B0 O16 1.368194 1_556
B0 O0 1.370342 1_555
B0 O20 1.439570 1_565
B1 O17 1.368194 1_555
B1 O1 1.370342 1_555
B1 O21 1.439570 1_545
B2 O18 1.368194 1_554
B2 O2 1.370342 1_555
B2 O22 1.439570 1_545
B3 O19 1.368194 1_555
B3 O3 1.370342 1_555
B3 O23 1.439570 1_565
B4 O36 1.361398 1_555
B4 O8 1.364238 1_555
B4 O32 1.456881 1_555
B5 O37 1.361398 1_556
B5 O9 1.364238 1_555
B5 O33 1.456881 1_555
B6 O38 1.361398 1_555
B6 O10 1.364238 1_555
B6 O34 1.456881 1_555
B7 O39 1.361398 1_554
B7 O11 1.364238 1_555
B7 O35 1.456881 1_555
B8 O4 1.366344 1_555
B8 O24 1.367341 1_556
B8 O32 1.444091 1_555
B9 O5 1.366344 1_555
B9 O25 1.367341 1_555
B9 O33 1.444091 1_555
B10 O6 1.366344 1_555
B10 O26 1.367341 1_554
B10 O34 1.444091 1_555
B11 O7 1.366344 1_555
B11 O27 1.367341 1_555
B11 O35 1.444091 1_555
B12 O12 1.359269 1_555
B12 O28 1.362786 1_555
B12 O20 1.465162 1_555
B13 O13 1.359269 1_555
B13 O29 1.362786 1_556
B13 O21 1.465162 1_555
B14 O14 1.359269 1_555
B14 O30 1.362786 1_555
B14 O22 1.465162 1_555
B15 O15 1.359269 1_555
B15 O31 1.362786 1_554
B15 O23 1.465162 1_555
