# generated using pymatgen
data_CoH15N6(ClO)2
_symmetry_space_group_name_H-M   'P 1'
_cell_length_a   8.90074900
_cell_length_b   11.30254300
_cell_length_c   16.09415400
_cell_angle_alpha   90.00000000
_cell_angle_beta   90.00000000
_cell_angle_gamma   90.00000000
_symmetry_Int_Tables_number   1
_chemical_formula_structural   CoH15N6(ClO)2
_chemical_formula_sum   'Co4 H60 N24 Cl8 O8'
_cell_volume   1619.08956869
_cell_formula_units_Z   4
loop_
 _symmetry_equiv_pos_site_id
 _symmetry_equiv_pos_as_xyz
  1  'x, y, z'
loop_
 _atom_site_type_symbol
 _atom_site_label
 _atom_site_symmetry_multiplicity
 _atom_site_fract_x
 _atom_site_fract_y
 _atom_site_fract_z
 _atom_site_occupancy
  Co  Co0  1  0.24990700  0.22185800  0.59497400  1
  Co  Co1  1  0.75009300  0.72185800  0.40502600  1
  Co  Co2  1  0.74990700  0.72185800  0.90502600  1
  Co  Co3  1  0.25009300  0.22185800  0.09497400  1
  H  H0  1  0.62757200  0.14507500  0.71847100  1
  H  H1  1  0.37242800  0.64507500  0.28152900  1
  H  H2  1  0.12757200  0.64507500  0.78152900  1
  H  H3  1  0.87242800  0.14507500  0.21847100  1
  H  H4  1  0.53214200  0.18026100  0.87950600  1
  H  H5  1  0.46785800  0.68026100  0.12049400  1
  H  H6  1  0.03214200  0.68026100  0.62049400  1
  H  H7  1  0.96785800  0.18026100  0.37950600  1
  H  H8  1  0.66029600  0.31932100  0.64608000  1
  H  H9  1  0.33970400  0.81932100  0.35392000  1
  H  H10  1  0.16029600  0.81932100  0.85392000  1
  H  H11  1  0.83970400  0.31932100  0.14608000  1
  H  H12  1  0.10519700  0.24100200  0.68220300  1
  H  H13  1  0.89480300  0.74100200  0.31779700  1
  H  H14  1  0.60519700  0.74100200  0.81779700  1
  H  H15  1  0.39480300  0.24100200  0.18220300  1
  H  H16  1  0.47265800  0.08975200  0.03048400  1
  H  H17  1  0.52734200  0.58975200  0.96951600  1
  H  H18  1  0.97265800  0.58975200  0.46951600  1
  H  H19  1  0.02734200  0.08975200  0.53048400  1
  H  H20  1  0.09350900  0.30224400  0.66077400  1
  H  H21  1  0.90649100  0.80224400  0.33922600  1
  H  H22  1  0.59350900  0.80224400  0.83922600  1
  H  H23  1  0.40649100  0.30224400  0.16077400  1
  H  H24  1  0.14915700  0.08114300  0.46052400  1
  H  H25  1  0.85084300  0.58114300  0.53947600  1
  H  H26  1  0.64915700  0.58114300  0.03947600  1
  H  H27  1  0.35084300  0.08114300  0.96052400  1
  H  H28  1  0.66221200  0.35017400  0.53946000  1
  H  H29  1  0.33778800  0.85017400  0.46054000  1
  H  H30  1  0.16221200  0.85017400  0.96054000  1
  H  H31  1  0.83778800  0.35017400  0.03946000  1
  H  H32  1  0.03231300  0.31006200  0.43186100  1
  H  H33  1  0.96768700  0.81006200  0.56813900  1
  H  H34  1  0.53231300  0.81006200  0.06813900  1
  H  H35  1  0.46768700  0.31006200  0.93186100  1
  H  H36  1  0.34313200  0.01288900  0.61224200  1
  H  H37  1  0.65686800  0.51288900  0.38775800  1
  H  H38  1  0.84313200  0.51288900  0.88775800  1
  H  H39  1  0.15686800  0.01288900  0.11224200  1
  H  H40  1  0.21089000  0.02156800  0.68113900  1
  H  H41  1  0.78911000  0.52156800  0.31886100  1
  H  H42  1  0.71089000  0.52156800  0.81886100  1
  H  H43  1  0.28911000  0.02156800  0.18113900  1
  H  H44  1  0.37941000  0.06153600  0.70738000  1
  H  H45  1  0.62059000  0.56153600  0.29262000  1
  H  H46  1  0.87941000  0.56153600  0.79262000  1
  H  H47  1  0.12059000  0.06153600  0.20738000  1
  H  H48  1  0.28706000  0.45545100  0.44375400  1
  H  H49  1  0.71294000  0.95545100  0.55624600  1
  H  H50  1  0.78706000  0.95545100  0.05624600  1
  H  H51  1  0.21294000  0.45545100  0.94375400  1
  H  H52  1  0.09780500  0.61478900  0.74335800  1
  H  H53  1  0.90219500  0.11478900  0.25664200  1
  H  H54  1  0.59780500  0.11478900  0.75664200  1
  H  H55  1  0.40219500  0.61478900  0.24335800  1
  H  H56  1  0.44111800  0.52721200  0.65748900  1
  H  H57  1  0.55888200  0.02721200  0.34251100  1
  H  H58  1  0.94111800  0.02721200  0.84251100  1
  H  H59  1  0.05888200  0.52721200  0.15748900  1
  N  N0  1  0.81065700  0.30040200  0.42169100  1
  N  N1  1  0.18934300  0.80040200  0.57830900  1
  N  N2  1  0.31065700  0.80040200  0.07830900  1
  N  N3  1  0.68934300  0.30040200  0.92169100  1
  N  N4  1  0.60917200  0.31380800  0.58988700  1
  N  N5  1  0.39082800  0.81380800  0.41011300  1
  N  N6  1  0.10917200  0.81380800  0.91011300  1
  N  N7  1  0.89082800  0.31380800  0.08988700  1
  N  N8  1  0.94716900  0.26196400  0.40629600  1
  N  N9  1  0.05283100  0.76196400  0.59370400  1
  N  N10  1  0.44716900  0.76196400  0.09370400  1
  N  N11  1  0.55283100  0.26196400  0.90629600  1
  N  N12  1  0.37335500  0.33562400  0.53416100  1
  N  N13  1  0.62664500  0.83562400  0.46583900  1
  N  N14  1  0.87335500  0.83562400  0.96583900  1
  N  N15  1  0.12664500  0.33562400  0.03416100  1
  N  N16  1  0.30338800  0.06522800  0.65930000  1
  N  N17  1  0.69661200  0.56522800  0.34070000  1
  N  N18  1  0.80338800  0.56522800  0.84070000  1
  N  N19  1  0.19661200  0.06522800  0.15930000  1
  N  N20  1  0.45929400  0.30716500  0.59257300  1
  N  N21  1  0.54070600  0.80716500  0.40742700  1
  N  N22  1  0.95929400  0.80716500  0.90742700  1
  N  N23  1  0.04070600  0.30716500  0.09257300  1
  Cl  Cl0  1  0.40053200  0.99598500  0.85668500  1
  Cl  Cl1  1  0.59946800  0.49598500  0.14331500  1
  Cl  Cl2  1  0.90053200  0.49598500  0.64331500  1
  Cl  Cl3  1  0.09946800  0.99598500  0.35668500  1
  Cl  Cl4  1  0.31044700  0.50567400  0.89356700  1
  Cl  Cl5  1  0.68955300  0.00567400  0.10643300  1
  Cl  Cl6  1  0.81044700  0.00567400  0.60643300  1
  Cl  Cl7  1  0.18955300  0.50567400  0.39356700  1
  O  O0  1  0.70705600  0.23659200  0.39491300  1
  O  O1  1  0.29294400  0.73659200  0.60508700  1
  O  O2  1  0.20705600  0.73659200  0.10508700  1
  O  O3  1  0.79294400  0.23659200  0.89491300  1
  O  O4  1  0.12705700  0.12002200  0.51616600  1
  O  O5  1  0.87294300  0.62002200  0.48383400  1
  O  O6  1  0.62705700  0.62002200  0.98383400  1
  O  O7  1  0.37294300  0.12002200  0.01616600  1
loop_
_geom_bond_atom_site_label_1
_geom_bond_atom_site_label_2
_geom_bond_distance
_geom_bond_site_symmetry_2
Co0 H12 1.917473 1_555
Co0 N12 1.954133 1_555
Co0 H20 1.970988 1_555
Co0 O4 2.032036 1_555
Co0 N20 2.098697 1_555
Co0 N16 2.105329 1_555
Co1 H13 1.917473 1_555
Co1 N13 1.954133 1_555
Co1 H21 1.970988 1_555
Co1 O5 2.032036 1_555
Co1 N21 2.098697 1_555
Co1 N17 2.105329 1_555
Co2 H14 1.917473 1_555
Co2 N14 1.954133 1_555
Co2 H22 1.970988 1_555
Co2 O6 2.032036 1_555
Co2 N22 2.098697 1_555
Co2 N18 2.105329 1_555
Co3 H15 1.917473 1_555
Co3 N15 1.954133 1_555
Co3 H23 1.970988 1_555
Co3 O7 2.032036 1_555
Co3 N23 2.098697 1_555
Co3 N19 2.105329 1_555
H0 H54 0.751515 1_555
H1 H55 0.751515 1_555
H2 H52 0.751515 1_555
H3 H53 0.751515 1_555
H4 N11 1.035652 1_555
H5 N10 1.035652 1_555
H6 N9 1.035652 1_555
H7 N8 1.035652 1_555
H8 N4 1.014321 1_555
H9 N5 1.014321 1_555
H10 N6 1.014321 1_555
H11 N7 1.014321 1_555
H12 H20 0.780316 1_555
H13 H21 0.780316 1_555
H14 H22 0.780316 1_555
H15 H23 0.780316 1_555
H16 O7 0.978712 1_555
H17 O6 0.978712 1_555
H18 O5 0.978712 1_555
H19 O4 0.978712 1_555
H24 O4 1.016727 1_555
H25 O5 1.016727 1_555
H26 O6 1.016727 1_554
H27 O7 1.016727 1_556
H28 N4 1.024930 1_555
H29 N5 1.024930 1_555
H30 N6 1.024930 1_555
H31 N7 1.024930 1_555
H32 N8 1.019388 1_455
H33 N9 1.019388 1_655
H34 N10 1.019388 1_555
H35 N11 1.019388 1_555
H36 N16 1.024051 1_555
H37 N17 1.024051 1_555
H38 N18 1.024051 1_555
H39 N19 1.024051 1_555
H40 N16 1.022191 1_555
H41 N17 1.022191 1_555
H42 N18 1.022191 1_555
H43 N19 1.022191 1_555
H44 N16 1.028775 1_555
H45 N17 1.028775 1_555
H46 N18 1.028775 1_555
H47 N19 1.028775 1_555
N0 O0 1.247479 1_555
N0 N8 1.313964 1_555
N1 O1 1.247479 1_555
N1 N9 1.313964 1_555
N2 O2 1.247479 1_555
N3 O3 1.247479 1_555
N10 N2 1.313964 1_555
N11 N3 1.313964 1_555
N12 N20 1.253931 1_555
N13 N21 1.253931 1_555
N14 N22 1.253931 1_555
N15 N23 1.253931 1_555
N20 N4 1.336837 1_555
N21 N5 1.336837 1_555
N22 N6 1.336837 1_655
N23 N7 1.336837 1_455
Cl0 H27 1.978617 1_565
Cl1 H26 1.978617 1_555
Cl2 H25 1.978617 1_555
Cl3 H24 1.978617 1_565
Cl4 H51 1.314479 1_555
Cl5 H50 1.314479 1_545
Cl6 H49 1.314479 1_545
Cl7 H48 1.314479 1_555
