# generated using pymatgen
data_Ta(C2N3)3
_symmetry_space_group_name_H-M   'P 1'
_cell_length_a   6.95568504
_cell_length_b   11.86763420
_cell_length_c   11.90689000
_cell_angle_alpha   90.00000000
_cell_angle_beta   90.00000000
_cell_angle_gamma   31.45077093
_symmetry_Int_Tables_number   1
_chemical_formula_structural   Ta(C2N3)3
_chemical_formula_sum   'Ta2 C12 N18'
_cell_volume   512.83539318
_cell_formula_units_Z   2
loop_
 _symmetry_equiv_pos_site_id
 _symmetry_equiv_pos_as_xyz
  1  'x, y, z'
loop_
 _atom_site_type_symbol
 _atom_site_label
 _atom_site_symmetry_multiplicity
 _atom_site_fract_x
 _atom_site_fract_y
 _atom_site_fract_z
 _atom_site_occupancy
  Ta  Ta0  1  0.00000000  0.27220800  0.25000000  1
  Ta  Ta1  1  0.00000000  0.72779200  0.75000000  1
  C  C0  1  0.68292100  0.75866100  0.25000000  1
  C  C1  1  0.68292100  0.55841800  0.75000000  1
  C  C2  1  0.31707900  0.24133900  0.75000000  1
  C  C3  1  0.31707900  0.44158200  0.25000000  1
  C  C4  1  0.68547800  0.30584400  0.90177200  1
  C  C5  1  0.68547800  0.00867700  0.09822800  1
  C  C6  1  0.68547800  0.30584400  0.59822800  1
  C  C7  1  0.68547800  0.00867700  0.40177200  1
  C  C8  1  0.31452200  0.69415600  0.09822800  1
  C  C9  1  0.31452200  0.99132300  0.90177200  1
  C  C10  1  0.31452200  0.69415600  0.40177200  1
  C  C11  1  0.31452200  0.99132300  0.59822800  1
  N  N0  1  0.00000000  0.55127900  0.25000000  1
  N  N1  1  0.00000000  0.44872100  0.75000000  1
  N  N2  1  0.38068600  0.94841200  0.25000000  1
  N  N3  1  0.38068600  0.67090200  0.75000000  1
  N  N4  1  0.61931400  0.05158800  0.75000000  1
  N  N5  1  0.61931400  0.32909800  0.25000000  1
  N  N6  1  0.00000000  0.12147600  0.94254400  1
  N  N7  1  0.00000000  0.87852400  0.05745600  1
  N  N8  1  0.00000000  0.12147600  0.55745600  1
  N  N9  1  0.00000000  0.87852400  0.44254400  1
  N  N10  1  0.38536000  0.47852400  0.86942500  1
  N  N11  1  0.38536000  0.13611500  0.13057500  1
  N  N12  1  0.38536000  0.47852400  0.63057500  1
  N  N13  1  0.38536000  0.13611500  0.36942500  1
  N  N14  1  0.61464000  0.52147600  0.13057500  1
  N  N15  1  0.61464000  0.86388500  0.86942500  1
  N  N16  1  0.61464000  0.52147600  0.36942500  1
  N  N17  1  0.61464000  0.86388500  0.63057500  1
loop_
_geom_bond_atom_site_label_1
_geom_bond_atom_site_label_2
_geom_bond_distance
_geom_bond_site_symmetry_2
C0 N2 1.188850 1_555
C0 N0 1.288498 1_655
C1 N3 1.188850 1_555
C1 N1 1.288498 1_655
C2 N4 1.188850 1_555
C2 N1 1.288498 1_555
C3 N5 1.188850 1_555
C3 N0 1.288498 1_555
C4 N10 1.186072 1_555
C4 N6 1.281457 1_655
C5 N11 1.186072 1_555
C5 N7 1.281460 1_645
C6 N12 1.186072 1_555
C6 N8 1.281457 1_655
C7 N13 1.186072 1_555
C7 N9 1.281460 1_645
C8 N14 1.186072 1_555
C8 N7 1.281457 1_555
C9 N15 1.186072 1_555
C9 N6 1.281460 1_565
C10 N16 1.186072 1_555
C10 N9 1.281457 1_555
C11 N17 1.186072 1_555
C11 N8 1.281460 1_565
N2 Ta0 2.101702 1_565
N3 Ta1 2.101702 1_555
N4 Ta1 2.101702 1_645
N5 Ta0 2.101702 1_655
N10 Ta1 2.104521 1_555
N11 Ta0 2.104517 1_555
N12 Ta1 2.104521 1_555
N13 Ta0 2.104517 1_555
N14 Ta0 2.104521 1_655
N15 Ta1 2.104517 1_655
N16 Ta0 2.104521 1_655
N17 Ta1 2.104517 1_655
