# generated using pymatgen
data_K2Cu(HCl2)2
_symmetry_space_group_name_H-M   'P 1'
_cell_length_a   7.04743900
_cell_length_b   7.04743900
_cell_length_c   8.23891900
_cell_angle_alpha   90.00000000
_cell_angle_beta   90.00000000
_cell_angle_gamma   90.00000000
_symmetry_Int_Tables_number   1
_chemical_formula_structural   K2Cu(HCl2)2
_chemical_formula_sum   'K4 Cu2 H4 Cl8'
_cell_volume   409.19741745
_cell_formula_units_Z   2
loop_
 _symmetry_equiv_pos_site_id
 _symmetry_equiv_pos_as_xyz
  1  'x, y, z'
loop_
 _atom_site_type_symbol
 _atom_site_label
 _atom_site_symmetry_multiplicity
 _atom_site_fract_x
 _atom_site_fract_y
 _atom_site_fract_z
 _atom_site_occupancy
  K  K0  1  0.00000000  0.50000000  0.25000000  1
  K  K1  1  0.00000000  0.50000000  0.75000000  1
  K  K2  1  0.50000000  0.00000000  0.25000000  1
  K  K3  1  0.50000000  0.00000000  0.75000000  1
  Cu  Cu0  1  0.00000000  0.00000000  0.00000000  1
  Cu  Cu1  1  0.50000000  0.50000000  0.50000000  1
  H  H0  1  0.00000000  0.00000000  0.18638000  1
  H  H1  1  0.00000000  0.00000000  0.81362000  1
  H  H2  1  0.50000000  0.50000000  0.68638000  1
  H  H3  1  0.50000000  0.50000000  0.31362000  1
  Cl  Cl0  1  0.22696600  0.22696600  0.00000000  1
  Cl  Cl1  1  0.77303400  0.77303400  0.00000000  1
  Cl  Cl2  1  0.27303400  0.72696600  0.50000000  1
  Cl  Cl3  1  0.72696600  0.27303400  0.50000000  1
  Cl  Cl4  1  0.24760900  0.75239100  0.00000000  1
  Cl  Cl5  1  0.75239100  0.24760900  0.00000000  1
  Cl  Cl6  1  0.74760900  0.74760900  0.50000000  1
  Cl  Cl7  1  0.25239100  0.25239100  0.50000000  1
loop_
_geom_bond_atom_site_label_1
_geom_bond_atom_site_label_2
_geom_bond_distance
_geom_bond_site_symmetry_2
Cu0 H1 1.535570 1_554
Cu0 H0 1.535570 1_555
Cu1 H3 1.535570 1_555
Cu1 H2 1.535570 1_555
Cl0 Cu0 2.262076 1_555
Cl0 K1 3.240909 1_554
Cl0 K0 3.240909 1_555
Cl0 K3 3.240909 1_554
Cl0 K2 3.240909 1_555
Cl1 Cu0 2.262076 1_665
Cl1 K2 3.240909 1_565
Cl1 K3 3.240909 1_564
Cl1 K0 3.240909 1_655
Cl1 K1 3.240909 1_654
Cl2 Cu1 2.262076 1_555
Cl2 K2 3.240909 1_565
Cl2 K1 3.240909 1_555
Cl2 K0 3.240909 1_555
Cl2 K3 3.240909 1_565
Cl3 Cu1 2.262076 1_555
Cl3 K3 3.240909 1_555
Cl3 K0 3.240909 1_655
Cl3 K2 3.240909 1_555
Cl3 K1 3.240909 1_655
Cl4 Cu0 2.467816 1_565
Cl4 K1 3.232855 1_554
Cl4 K0 3.232855 1_555
Cl4 K3 3.232855 1_564
Cl4 K2 3.232855 1_565
Cl5 Cu0 2.467816 1_655
Cl5 K2 3.232855 1_555
Cl5 K3 3.232855 1_554
Cl5 K0 3.232855 1_655
Cl5 K1 3.232855 1_654
Cl6 Cu1 2.467816 1_555
Cl6 K1 3.232855 1_655
Cl6 K2 3.232855 1_565
Cl6 K0 3.232855 1_655
Cl6 K3 3.232855 1_565
Cl7 Cu1 2.467816 1_555
Cl7 K1 3.232855 1_555
Cl7 K3 3.232855 1_555
Cl7 K0 3.232855 1_555
Cl7 K2 3.232855 1_555
