# generated using pymatgen
data_Dy2(Al3Ir)3
_symmetry_space_group_name_H-M   'P 1'
_cell_length_a   7.50079433
_cell_length_b   7.50079433
_cell_length_c   9.42815373
_cell_angle_alpha   90.00000000
_cell_angle_beta   90.00000000
_cell_angle_gamma   119.45763736
_symmetry_Int_Tables_number   1
_chemical_formula_structural   Dy2(Al3Ir)3
_chemical_formula_sum   'Dy4 Al18 Ir6'
_cell_volume   461.86968760
_cell_formula_units_Z   2
loop_
 _symmetry_equiv_pos_site_id
 _symmetry_equiv_pos_as_xyz
  1  'x, y, z'
loop_
 _atom_site_type_symbol
 _atom_site_label
 _atom_site_symmetry_multiplicity
 _atom_site_fract_x
 _atom_site_fract_y
 _atom_site_fract_z
 _atom_site_occupancy
  Dy  Dy0  1  0.99483772  0.67175271  0.75000000  1
  Dy  Dy1  1  0.00516228  0.32824729  0.25000000  1
  Dy  Dy2  1  0.67175271  0.99483772  0.75000000  1
  Dy  Dy3  1  0.32824729  0.00516228  0.25000000  1
  Al  Al0  1  0.13026902  0.13026902  0.75000000  1
  Al  Al1  1  0.86973098  0.86973098  0.25000000  1
  Al  Al2  1  0.00163964  0.33536115  0.57351865  1
  Al  Al3  1  0.99836036  0.66463885  0.42648135  1
  Al  Al4  1  0.99836036  0.66463885  0.07351865  1
  Al  Al5  1  0.33536115  0.00163964  0.92648135  1
  Al  Al6  1  0.00163964  0.33536115  0.92648135  1
  Al  Al7  1  0.66463885  0.99836036  0.07351865  1
  Al  Al8  1  0.66463885  0.99836036  0.42648135  1
  Al  Al9  1  0.33536115  0.00163964  0.57351865  1
  Al  Al10  1  0.33372468  0.33372468  0.05014828  1
  Al  Al11  1  0.66627532  0.66627532  0.94985172  1
  Al  Al12  1  0.66627532  0.66627532  0.55014828  1
  Al  Al13  1  0.33372468  0.33372468  0.44985172  1
  Al  Al14  1  0.33954238  0.54813798  0.75000000  1
  Al  Al15  1  0.66045762  0.45186202  0.25000000  1
  Al  Al16  1  0.54813798  0.33954238  0.75000000  1
  Al  Al17  1  0.45186202  0.66045762  0.25000000  1
  Ir  Ir0  1  0.67205922  0.32794078  0.50000000  1
  Ir  Ir1  1  0.32794078  0.67205922  0.50000000  1
  Ir  Ir2  1  0.32794078  0.67205922  0.00000000  1
  Ir  Ir3  1  0.67205922  0.32794078  0.00000000  1
  Ir  Ir4  1  -0.00000000  -0.00000000  0.50000000  1
  Ir  Ir5  1  -0.00000000  -0.00000000  0.00000000  1
loop_
_geom_bond_atom_site_label_1
_geom_bond_atom_site_label_2
_geom_bond_distance
_geom_bond_site_symmetry_2
Dy0 Ir4 3.394904 1_665
Dy0 Ir5 3.394904 1_666
Dy0 Ir2 3.434047 1_656
Dy0 Ir1 3.434047 1_655
Dy0 Ir0 3.453526 1_555
Dy0 Ir3 3.453526 1_556
Dy1 Ir5 3.394904 1_555
Dy1 Ir4 3.394904 1_555
Dy1 Ir0 3.434047 1_455
Dy1 Ir3 3.434047 1_455
Dy1 Ir1 3.453526 1_555
Dy1 Ir2 3.453526 1_555
Dy2 Ir4 3.394904 1_665
Dy2 Ir5 3.394904 1_666
Dy2 Ir0 3.434047 1_565
Dy2 Ir3 3.434047 1_566
Dy2 Ir1 3.453526 1_555
Dy2 Ir2 3.453526 1_556
Dy3 Ir5 3.394904 1_555
Dy3 Ir4 3.394904 1_555
Dy3 Ir2 3.434047 1_545
Dy3 Ir1 3.434047 1_545
Dy3 Ir0 3.453526 1_555
Dy3 Ir3 3.453526 1_555
Al0 Ir5 2.554622 1_556
Al0 Ir4 2.554622 1_555
Al0 Dy0 3.069853 1_445
Al0 Dy2 3.069853 1_445
Al1 Ir4 2.554622 1_665
Al1 Ir5 2.554622 1_665
Al1 Dy3 3.069853 1_665
Al1 Dy1 3.069853 1_665
Al2 Ir0 2.541568 1_455
Al2 Ir1 2.601800 1_555
Al2 Ir4 2.603418 1_555
Al2 Dy2 3.032977 1_445
Al2 Dy0 3.043734 1_455
Al2 Dy1 3.050992 1_555
Al3 Ir1 2.541568 1_655
Al3 Ir0 2.601800 1_555
Al3 Ir4 2.603418 1_665
Al3 Dy3 3.032977 1_665
Al3 Dy1 3.043734 1_655
Al3 Dy0 3.050992 1_555
Al4 Ir2 2.541568 1_655
Al4 Ir3 2.601800 1_555
Al4 Ir5 2.603418 1_665
Al4 Dy3 3.032977 1_665
Al4 Dy1 3.043734 1_655
Al4 Dy0 3.050992 1_554
Al5 Ir2 2.541568 1_546
Al5 Ir3 2.601800 1_556
Al5 Ir5 2.603418 1_556
Al5 Dy0 3.032977 1_445
Al5 Dy2 3.043734 1_545
Al5 Dy3 3.050992 1_556
Al6 Ir3 2.541568 1_456
Al6 Ir2 2.601800 1_556
Al6 Ir5 2.603418 1_556
Al6 Dy2 3.032977 1_445
Al6 Dy0 3.043734 1_455
Al6 Dy1 3.050992 1_556
Al7 Ir3 2.541568 1_565
Al7 Ir2 2.601800 1_555
Al7 Ir5 2.603418 1_665
Al7 Dy1 3.032977 1_665
Al7 Dy3 3.043734 1_565
Al7 Dy2 3.050992 1_554
Al8 Ir0 2.541568 1_565
Al8 Ir1 2.601800 1_555
Al8 Ir4 2.603418 1_665
Al8 Dy1 3.032977 1_665
Al8 Dy3 3.043734 1_565
Al8 Dy2 3.050992 1_555
Al9 Ir1 2.541568 1_545
Al9 Ir0 2.601800 1_555
Al9 Ir4 2.603418 1_555
Al9 Dy0 3.032977 1_445
Al9 Dy2 3.043734 1_545
Al9 Dy3 3.050992 1_555
Al10 Ir5 2.567600 1_555
Al10 Ir2 2.602697 1_555
Al10 Ir3 2.602697 1_555
Al10 Dy3 3.086436 1_555
Al10 Dy1 3.086436 1_555
Al11 Ir5 2.567600 1_666
Al11 Ir2 2.602697 1_556
Al11 Ir3 2.602697 1_556
Al11 Dy0 3.086436 1_555
Al11 Dy2 3.086436 1_555
Al12 Ir4 2.567600 1_665
Al12 Ir0 2.602697 1_555
Al12 Ir1 2.602697 1_555
Al12 Dy0 3.086436 1_555
Al12 Dy2 3.086436 1_555
Al13 Ir4 2.567600 1_555
Al13 Ir0 2.602697 1_555
Al13 Ir1 2.602697 1_555
Al13 Dy3 3.086436 1_555
Al13 Dy1 3.086436 1_555
Al14 Ir1 2.550832 1_555
Al14 Ir2 2.550832 1_556
Al14 Dy2 3.037088 1_555
Al14 Dy0 3.146867 1_455
Al15 Ir3 2.550832 1_555
Al15 Ir0 2.550832 1_555
Al15 Dy3 3.037088 1_555
Al15 Dy1 3.146867 1_655
Al16 Ir0 2.550832 1_555
Al16 Ir3 2.550832 1_556
Al16 Dy0 3.037088 1_555
Al16 Dy2 3.146867 1_545
Al17 Ir1 2.550832 1_555
Al17 Ir2 2.550832 1_555
Al17 Dy1 3.037088 1_555
Al17 Dy3 3.146867 1_565
