# generated using pymatgen
data_Ba3UMnSe6
_symmetry_space_group_name_H-M   'P 1'
_cell_length_a   8.71090361
_cell_length_b   8.71090361
_cell_length_c   8.71090385
_cell_angle_alpha   93.25450336
_cell_angle_beta   93.25450336
_cell_angle_gamma   93.25450462
_symmetry_Int_Tables_number   1
_chemical_formula_structural   Ba3UMnSe6
_chemical_formula_sum   'Ba6 U2 Mn2 Se12'
_cell_volume   657.65720670
_cell_formula_units_Z   2
loop_
 _symmetry_equiv_pos_site_id
 _symmetry_equiv_pos_as_xyz
  1  'x, y, z'
loop_
 _atom_site_type_symbol
 _atom_site_label
 _atom_site_symmetry_multiplicity
 _atom_site_fract_x
 _atom_site_fract_y
 _atom_site_fract_z
 _atom_site_occupancy
  Ba  Ba0  1  0.36639100  0.13360900  0.75000000  1
  Ba  Ba1  1  0.75000000  0.36639100  0.13360900  1
  Ba  Ba2  1  0.13360900  0.75000000  0.36639100  1
  Ba  Ba3  1  0.25000000  0.63360900  0.86639100  1
  Ba  Ba4  1  0.86639100  0.25000000  0.63360900  1
  Ba  Ba5  1  0.63360900  0.86639100  0.25000000  1
  U  U0  1  0.25000000  0.25000000  0.25000000  1
  U  U1  1  0.75000000  0.75000000  0.75000000  1
  Mn  Mn0  1  0.50000000  0.50000000  0.50000000  1
  Mn  Mn1  1  0.00000000  0.00000000  0.00000000  1
  Se  Se0  1  0.19991700  0.41005100  0.53605300  1
  Se  Se1  1  0.53605300  0.19991700  0.41005100  1
  Se  Se2  1  0.41005100  0.53605300  0.19991700  1
  Se  Se3  1  0.03605300  0.91005100  0.69991700  1
  Se  Se4  1  0.69991700  0.03605300  0.91005100  1
  Se  Se5  1  0.91005100  0.69991700  0.03605300  1
  Se  Se6  1  0.80008300  0.58994900  0.46394700  1
  Se  Se7  1  0.46394700  0.80008300  0.58994900  1
  Se  Se8  1  0.58994900  0.46394700  0.80008300  1
  Se  Se9  1  0.96394700  0.08994900  0.30008300  1
  Se  Se10  1  0.30008300  0.96394700  0.08994900  1
  Se  Se11  1  0.08994900  0.30008300  0.96394700  1
loop_
_geom_bond_atom_site_label_1
_geom_bond_atom_site_label_2
_geom_bond_distance
_geom_bond_site_symmetry_2
Ba0 Se7 3.325915 1_545
Ba0 Se4 3.325915 1_555
Ba0 Se3 3.374560 1_545
Ba0 Se8 3.374560 1_555
Ba0 Se10 3.446900 1_546
Ba0 Se1 3.446900 1_555
Ba0 Se11 3.460364 1_555
Ba0 Se0 3.460364 1_555
Ba1 Se5 3.325915 1_555
Ba1 Se8 3.325915 1_554
Ba1 Se4 3.374560 1_554
Ba1 Se6 3.374560 1_555
Ba1 Se11 3.446900 1_654
Ba1 Se2 3.446900 1_555
Ba1 Se1 3.460364 1_555
Ba1 Se9 3.460364 1_555
Ba2 Se6 3.325915 1_455
Ba2 Se3 3.325915 1_555
Ba2 Se7 3.374560 1_555
Ba2 Se5 3.374560 1_455
Ba2 Se0 3.446900 1_555
Ba2 Se9 3.446900 1_465
Ba2 Se10 3.460364 1_555
Ba2 Se2 3.460364 1_555
Ba3 Se11 3.325915 1_555
Ba3 Se2 3.325915 1_556
Ba3 Se10 3.374560 1_556
Ba3 Se0 3.374560 1_555
Ba3 Se5 3.446900 1_456
Ba3 Se8 3.446900 1_555
Ba3 Se7 3.460364 1_555
Ba3 Se3 3.460364 1_555
Ba4 Se0 3.325915 1_655
Ba4 Se9 3.325915 1_555
Ba4 Se1 3.374560 1_555
Ba4 Se11 3.374560 1_655
Ba4 Se6 3.446900 1_555
Ba4 Se3 3.446900 1_645
Ba4 Se4 3.460364 1_555
Ba4 Se8 3.460364 1_555
Ba5 Se1 3.325915 1_565
Ba5 Se10 3.325915 1_555
Ba5 Se2 3.374560 1_555
Ba5 Se9 3.374560 1_565
Ba5 Se7 3.446900 1_555
Ba5 Se4 3.446900 1_564
Ba5 Se5 3.460364 1_555
Ba5 Se6 3.460364 1_555
Mn0 Se6 2.726559 1_555
Mn0 Se0 2.726559 1_555
Mn0 Se7 2.726559 1_555
Mn0 Se1 2.726559 1_555
Mn0 Se8 2.726559 1_555
Mn0 Se2 2.726559 1_555
Mn1 Se11 2.726559 1_554
Mn1 Se5 2.726559 1_445
Mn1 Se10 2.726559 1_545
Mn1 Se4 2.726559 1_454
Mn1 Se9 2.726559 1_455
Mn1 Se3 2.726559 1_544
Se0 U0 2.853262 1_555
Se1 U0 2.853262 1_555
Se2 U0 2.853262 1_555
Se3 U1 2.853262 1_455
Se4 U1 2.853262 1_545
Se5 U1 2.853262 1_554
Se6 U1 2.853262 1_555
Se7 U1 2.853262 1_555
Se8 U1 2.853262 1_555
Se9 U0 2.853262 1_655
Se10 U0 2.853262 1_565
Se11 U0 2.853262 1_556
