# generated using pymatgen
data_LiGd(WO4)2
_symmetry_space_group_name_H-M   'P 1'
_cell_length_a   6.75274942
_cell_length_b   6.75274942
_cell_length_c   6.75274942
_cell_angle_alpha   134.14932749
_cell_angle_beta   134.14932749
_cell_angle_gamma   66.85486514
_symmetry_Int_Tables_number   1
_chemical_formula_structural   LiGd(WO4)2
_chemical_formula_sum   'Li1 Gd1 W2 O8'
_cell_volume   155.97560883
_cell_formula_units_Z   1
loop_
 _symmetry_equiv_pos_site_id
 _symmetry_equiv_pos_as_xyz
  1  'x, y, z'
loop_
 _atom_site_type_symbol
 _atom_site_label
 _atom_site_symmetry_multiplicity
 _atom_site_fract_x
 _atom_site_fract_y
 _atom_site_fract_z
 _atom_site_occupancy
  Li  Li0  1  0.25000000  0.75000000  0.50000000  1
  Gd  Gd0  1  0.00000000  0.00000000  0.00000000  1
  W  W0  1  0.75000000  0.25000000  0.50000000  1
  W  W1  1  0.50000000  0.50000000  0.00000000  1
  O  O0  1  0.99660900  0.09614300  0.41335300  1
  O  O1  1  0.68279000  0.58325600  0.58664700  1
  O  O2  1  0.83265200  0.74842400  0.40865300  1
  O  O3  1  0.33977000  0.42399900  0.59134700  1
  O  O4  1  0.25157600  0.66023000  0.08422800  1
  O  O5  1  0.57600100  0.16734800  0.91577200  1
  O  O6  1  0.41674400  0.00339100  0.09953400  1
  O  O7  1  0.90385700  0.31721000  0.90046600  1
loop_
_geom_bond_atom_site_label_1
_geom_bond_atom_site_label_2
_geom_bond_distance
_geom_bond_site_symmetry_2
Li0 O5 2.432249 1_565
Li0 O2 2.432249 1_455
Li0 O3 2.432251 1_555
Li0 O4 2.432252 1_555
Li0 O6 2.469834 1_566
Li0 O1 2.469834 1_555
Li0 O7 2.469834 1_454
Li0 O0 2.469834 1_465
Gd0 O1 2.401268 1_444
Gd0 O7 2.401268 1_454
Gd0 O6 2.401268 1_555
Gd0 O0 2.401268 1_455
Gd0 O4 2.425173 1_545
Gd0 O3 2.425176 1_555
Gd0 O2 2.425178 1_444
Gd0 O5 2.425178 1_454
O0 W0 1.829033 1_555
O1 W0 1.829033 1_555
O2 W1 1.831217 1_555
O3 W1 1.831214 1_556
O4 W1 1.831217 1_555
O5 W1 1.831217 1_556
O6 W0 1.829033 1_555
O7 W0 1.829033 1_555
