# generated using pymatgen
data_Mg4Si3
_symmetry_space_group_name_H-M   'P 1'
_cell_length_a   5.62158200
_cell_length_b   6.36535338
_cell_length_c   8.50845530
_cell_angle_alpha   105.97918867
_cell_angle_beta   105.24614490
_cell_angle_gamma   100.52520773
_symmetry_Int_Tables_number   1
_chemical_formula_structural   Mg4Si3
_chemical_formula_sum   'Mg8 Si6'
_cell_volume   271.50867039
_cell_formula_units_Z   2
loop_
 _symmetry_equiv_pos_site_id
 _symmetry_equiv_pos_as_xyz
  1  'x, y, z'
loop_
 _atom_site_type_symbol
 _atom_site_label
 _atom_site_symmetry_multiplicity
 _atom_site_fract_x
 _atom_site_fract_y
 _atom_site_fract_z
 _atom_site_occupancy
  Mg  Mg0  1  0.77579900  0.82560500  0.32058400  1
  Mg  Mg1  1  0.31270000  0.65327600  0.58624100  1
  Mg  Mg2  1  0.72952400  0.00624700  0.95256800  1
  Mg  Mg3  1  0.27047600  0.99375300  0.04743200  1
  Mg  Mg4  1  0.22420100  0.17439500  0.67941600  1
  Mg  Mg5  1  0.17763000  0.50086400  0.16235800  1
  Mg  Mg6  1  0.82237000  0.49913600  0.83764200  1
  Mg  Mg7  1  0.68730000  0.34672400  0.41375900  1
  Si  Si0  1  0.09482600  0.20420000  0.32236500  1
  Si  Si1  1  0.32532300  0.92984800  0.36763900  1
  Si  Si2  1  0.90517400  0.79580000  0.67763500  1
  Si  Si3  1  0.62227400  0.40314800  0.08573500  1
  Si  Si4  1  0.67467700  0.07015200  0.63236100  1
  Si  Si5  1  0.37772600  0.59685200  0.91426500  1
loop_
_geom_bond_atom_site_label_1
_geom_bond_atom_site_label_2
_geom_bond_distance
_geom_bond_site_symmetry_2
Mg0 Si3 2.693613 1_555
Mg0 Si0 2.722286 1_665
Mg0 Si1 2.830977 1_555
Mg0 Si1 2.932250 1_655
Mg0 Si4 2.937031 1_565
Mg0 Si2 2.999967 1_555
Mg1 Si2 2.825593 1_455
Mg1 Si5 2.848765 1_555
Mg1 Si4 2.893123 1_565
Mg1 Si1 2.896617 1_555
Mg1 Si0 2.907446 1_555
Mg1 Si2 3.109089 1_555
Mg2 Si3 2.714735 1_556
Mg2 Si4 2.810241 1_555
Mg2 Si5 2.849370 1_545
Mg2 Si2 2.866072 1_545
Mg2 Si0 3.029574 1_656
Mg3 Si5 2.714735 1_554
Mg3 Si1 2.810241 1_555
Mg3 Si3 2.849370 1_565
Mg3 Si0 2.866072 1_565
Mg3 Si2 3.029574 1_454
Mg4 Si5 2.693613 1_555
Mg4 Si2 2.722286 1_445
Mg4 Si4 2.830977 1_555
Mg4 Si4 2.932250 1_455
Mg4 Si1 2.937031 1_545
Mg4 Si0 2.999967 1_555
Mg5 Si1 2.641880 1_555
Mg5 Si0 2.657758 1_555
Mg5 Si5 2.793256 1_554
Mg5 Si3 2.874322 1_555
Mg5 Si3 2.924981 1_455
Mg6 Si4 2.641880 1_555
Mg6 Si2 2.657758 1_555
Mg6 Si3 2.793256 1_556
Mg6 Si5 2.874322 1_555
Mg6 Si5 2.924981 1_655
Mg7 Si0 2.825593 1_655
Mg7 Si3 2.848765 1_555
Mg7 Si1 2.893123 1_545
Mg7 Si4 2.896617 1_555
Mg7 Si2 2.907446 1_555
Mg7 Si0 3.109089 1_555
Si0 Si1 2.410741 1_545
Si1 Si4 2.377610 1_565
Si2 Si4 2.410741 1_565
Si3 Si5 2.468512 1_554
