# generated using pymatgen
data_Rb2Ni3S4
_symmetry_space_group_name_H-M   'P 1'
_cell_length_a   8.48589066
_cell_length_b   7.47764231
_cell_length_c   5.76867690
_cell_angle_alpha   78.51184914
_cell_angle_beta   59.71545173
_cell_angle_gamma   41.77269913
_symmetry_Int_Tables_number   1
_chemical_formula_structural   Rb2Ni3S4
_chemical_formula_sum   'Rb2 Ni3 S4'
_cell_volume   200.36721823
_cell_formula_units_Z   1
loop_
 _symmetry_equiv_pos_site_id
 _symmetry_equiv_pos_as_xyz
  1  'x, y, z'
loop_
 _atom_site_type_symbol
 _atom_site_label
 _atom_site_symmetry_multiplicity
 _atom_site_fract_x
 _atom_site_fract_y
 _atom_site_fract_z
 _atom_site_occupancy
  Rb  Rb0  1  0.66213521  0.66213521  0.33786479  1
  Rb  Rb1  1  0.33786479  0.33786479  0.66213521  1
  Ni  Ni0  1  -0.00000000  -0.00000000  0.00000000  1
  Ni  Ni1  1  -0.00000000  -0.00000000  0.50000000  1
  Ni  Ni2  1  0.50000000  0.50000000  0.00000000  1
  S  S0  1  0.06357210  0.72835650  0.27164350  1
  S  S1  1  0.27164350  0.93642790  0.06357210  1
  S  S2  1  0.72835650  0.06357210  0.93642790  1
  S  S3  1  0.93642790  0.27164350  0.72835650  1
loop_
_geom_bond_atom_site_label_1
_geom_bond_atom_site_label_2
_geom_bond_distance
_geom_bond_site_symmetry_2
Rb0 S3 3.398360 1_555
Rb0 S1 3.398360 1_555
Rb0 S3 3.464707 1_465
Rb0 S1 3.464707 1_645
Rb0 S1 3.464707 1_556
Rb0 S3 3.464707 1_554
Rb0 S0 3.622698 1_655
Rb0 S2 3.622698 1_564
Rb1 S2 3.398360 1_555
Rb1 S0 3.398360 1_555
Rb1 S0 3.464707 1_556
Rb1 S2 3.464707 1_554
Rb1 S0 3.464707 1_645
Rb1 S2 3.464707 1_465
Rb1 S3 3.622698 1_455
Rb1 S1 3.622698 1_546
Ni0 S3 2.196094 1_454
Ni0 S0 2.196094 1_545
Ni0 S1 2.196094 1_545
Ni0 S2 2.196094 1_454
Ni1 S3 2.206120 1_455
Ni1 S1 2.206120 1_545
Ni1 S2 2.206120 1_455
Ni1 S0 2.206120 1_545
Ni2 S0 2.206120 1_555
Ni2 S1 2.206120 1_555
Ni2 S2 2.206120 1_554
Ni2 S3 2.206120 1_554
