# generated using pymatgen
data_BaY2NiO5
_symmetry_space_group_name_H-M   'P 1'
_cell_length_a   3.80524262
_cell_length_b   5.82211037
_cell_length_c   6.70441588
_cell_angle_alpha   115.73437358
_cell_angle_beta   106.48630589
_cell_angle_gamma   90.00000485
_symmetry_Int_Tables_number   1
_chemical_formula_structural   BaY2NiO5
_chemical_formula_sum   'Ba1 Y2 Ni1 O5'
_cell_volume   126.98822103
_cell_formula_units_Z   1
loop_
 _symmetry_equiv_pos_site_id
 _symmetry_equiv_pos_as_xyz
  1  'x, y, z'
loop_
 _atom_site_type_symbol
 _atom_site_label
 _atom_site_symmetry_multiplicity
 _atom_site_fract_x
 _atom_site_fract_y
 _atom_site_fract_z
 _atom_site_occupancy
  Ba  Ba0  1  -0.00000000  -0.00000000  -0.00000000  1
  Y  Y0  1  0.79657080  0.29657080  0.59314160  1
  Y  Y1  1  0.20343020  0.70343020  0.40685840  1
  Ni  Ni0  1  0.50000100  0.50000000  0.00000100  1
  O  O0  1  0.35053444  0.11008884  0.70106988  1
  O  O1  1  0.64946556  0.88991216  0.29893012  1
  O  O2  1  0.64946456  0.40901795  0.29893012  1
  O  O3  1  0.35053544  0.59098105  0.70106888  1
  O  O4  1  -0.00000000  0.50000000  -0.00000000  1
loop_
_geom_bond_atom_site_label_1
_geom_bond_atom_site_label_2
_geom_bond_distance
_geom_bond_site_symmetry_2
Ba0 O4 2.911055 1_555
Ba0 O4 2.911055 1_545
Ba0 O1 2.973116 1_445
Ba0 O2 2.973116 1_555
Ba0 O2 2.973118 1_455
Ba0 O1 2.973118 1_545
Ba0 O0 2.973119 1_554
Ba0 O3 2.973119 1_444
Ba0 O0 2.973121 1_454
Ba0 O3 2.973124 1_544
Ni0 O4 1.902619 1_655
Ni0 O4 1.902623 1_555
Ni0 O2 2.212604 1_555
Ni0 O1 2.212607 1_555
Ni0 O0 2.212609 1_554
Ni0 O3 2.212619 1_554
O0 Y1 2.264399 1_545
O0 Y0 2.441803 1_455
O0 Y0 2.441806 1_555
O1 Y0 2.264399 1_565
O1 Y1 2.441803 1_555
O1 Y1 2.441806 1_655
O2 Y0 2.264399 1_555
O2 Y1 2.441807 1_555
O2 Y1 2.441816 1_655
O3 Y1 2.264400 1_555
O3 Y0 2.441802 1_555
O3 Y0 2.441808 1_455
O4 Y0 2.332083 1_454
O4 Y1 2.332083 1_555
