# generated using pymatgen
data_Ba8Fe8O21
_symmetry_space_group_name_H-M   'P 1'
_cell_length_a   5.74417800
_cell_length_b   5.78308913
_cell_length_c   19.04038149
_cell_angle_alpha   97.62177524
_cell_angle_beta   90.66556253
_cell_angle_gamma   119.39564278
_symmetry_Int_Tables_number   1
_chemical_formula_structural   Ba8Fe8O21
_chemical_formula_sum   'Ba8 Fe8 O21'
_cell_volume   544.04174090
_cell_formula_units_Z   1
loop_
 _symmetry_equiv_pos_site_id
 _symmetry_equiv_pos_as_xyz
  1  'x, y, z'
loop_
 _atom_site_type_symbol
 _atom_site_label
 _atom_site_symmetry_multiplicity
 _atom_site_fract_x
 _atom_site_fract_y
 _atom_site_fract_z
 _atom_site_occupancy
  Ba  Ba0  1  0.24739400  0.12418900  0.12698600  1
  Ba  Ba1  1  0.00000000  0.50000000  0.00000000  1
  Ba  Ba2  1  0.75260600  0.87581100  0.87301400  1
  Ba  Ba3  1  0.00000000  0.00000000  0.50000000  1
  Ba  Ba4  1  0.74757700  0.36826200  0.37179100  1
  Ba  Ba5  1  0.50017400  0.74838800  0.24635600  1
  Ba  Ba6  1  0.49982600  0.25161200  0.75364400  1
  Ba  Ba7  1  0.25242300  0.63173800  0.62820900  1
  Fe  Fe0  1  0.42697400  0.21532400  0.93082700  1
  Fe  Fe1  1  0.10209200  0.01172500  0.30437000  1
  Fe  Fe2  1  0.57302600  0.78467600  0.06917300  1
  Fe  Fe3  1  0.85773900  0.42239300  0.18627000  1
  Fe  Fe4  1  0.89790800  0.98827500  0.69563000  1
  Fe  Fe5  1  0.38585800  0.71482000  0.44361200  1
  Fe  Fe6  1  0.61414200  0.28518000  0.55638800  1
  Fe  Fe7  1  0.14226100  0.57760700  0.81373000  1
  O  O0  1  0.77469700  0.39419400  0.87307600  1
  O  O1  1  0.50000000  0.00000000  0.00000000  1
  O  O2  1  0.24210100  0.35753000  0.88262000  1
  O  O3  1  0.50000000  0.50000000  0.00000000  1
  O  O4  1  0.74578000  0.11654400  0.12342300  1
  O  O5  1  0.25422000  0.88345600  0.87657700  1
  O  O6  1  0.00667400  0.24703200  0.25855100  1
  O  O7  1  0.75789900  0.64247000  0.11738000  1
  O  O8  1  0.49033700  0.24425300  0.25077900  1
  O  O9  1  0.22530300  0.60580600  0.12692400  1
  O  O10  1  0.50000000  0.00000000  0.50000000  1
  O  O11  1  0.98288300  0.72599900  0.24730000  1
  O  O12  1  0.50000000  0.50000000  0.50000000  1
  O  O13  1  0.00000000  0.50000000  0.50000000  1
  O  O14  1  0.26334700  0.14462200  0.62438400  1
  O  O15  1  0.73665300  0.85537800  0.37561600  1
  O  O16  1  0.24428200  0.86957300  0.37447800  1
  O  O17  1  0.75571800  0.13042700  0.62552200  1
  O  O18  1  0.01711700  0.27400100  0.75270000  1
  O  O19  1  0.50966300  0.75574700  0.74922100  1
  O  O20  1  0.99332600  0.75296800  0.74144900  1
loop_
_geom_bond_atom_site_label_1
_geom_bond_atom_site_label_2
_geom_bond_distance
_geom_bond_site_symmetry_2
Ba0 O8 2.554125 1_555
Ba0 O7 2.804209 1_445
Ba0 O9 2.849817 1_555
Ba0 O9 2.937491 1_545
Ba0 O1 3.018475 1_555
Ba0 O7 3.024215 1_555
Ba0 O6 3.043785 1_555
Ba1 O9 2.578247 1_555
Ba1 O0 2.578247 1_454
Ba1 O3 2.872089 1_555
Ba1 O3 2.872089 1_455
Ba1 O2 2.883816 1_554
Ba1 O7 2.883816 1_455
Ba1 O1 2.908150 1_455
Ba1 O1 2.908150 1_565
Ba2 O19 2.554125 1_555
Ba2 O2 2.804209 1_665
Ba2 O0 2.849817 1_555
Ba2 O0 2.937491 1_565
Ba2 O1 3.018475 1_566
Ba2 O2 3.024215 1_555
Ba2 O20 3.043785 1_555
Ba3 O14 2.597322 1_555
Ba3 O15 2.597322 1_445
Ba3 O10 2.872089 1_555
Ba3 O10 2.872089 1_455
Ba3 O13 2.891545 1_545
Ba3 O13 2.891545 1_555
Ba3 O12 2.908150 1_555
Ba3 O12 2.908150 1_445
Ba3 O17 2.981383 1_455
Ba3 O16 2.981383 1_545
Ba4 O8 2.539479 1_555
Ba4 O13 2.642353 1_655
Ba4 O6 2.837839 1_655
Ba4 O15 2.839743 1_555
Ba4 O16 2.895729 1_655
Ba4 O16 2.921577 1_545
Ba4 O15 2.946425 1_545
Ba4 O12 3.035288 1_555
Ba5 O9 2.546607 1_555
Ba5 O15 2.641711 1_555
Ba5 O11 2.838523 1_555
Ba5 O8 2.885951 1_565
Ba5 O6 2.899126 1_665
Ba5 O8 2.900638 1_555
Ba5 O11 2.910421 1_455
Ba5 O6 2.936260 1_555
Ba5 O7 3.028726 1_555
Ba5 O16 3.040378 1_555
Ba5 O4 3.232984 1_565
Ba6 O0 2.546607 1_555
Ba6 O14 2.641711 1_555
Ba6 O18 2.838523 1_555
Ba6 O19 2.885951 1_545
Ba6 O20 2.899126 1_445
Ba6 O19 2.900638 1_555
Ba6 O18 2.910421 1_655
Ba6 O20 2.936260 1_555
Ba6 O2 3.028726 1_555
Ba6 O17 3.040378 1_555
Ba6 O5 3.232984 1_545
Ba7 O19 2.539479 1_555
Ba7 O13 2.642353 1_555
Ba7 O20 2.837839 1_455
Ba7 O14 2.839743 1_555
Ba7 O17 2.895729 1_455
Ba7 O17 2.921577 1_565
Ba7 O14 2.946425 1_565
Ba7 O12 3.035288 1_555
Fe0 O5 1.820936 1_545
Fe0 O3 1.831677 1_556
Fe0 O2 1.918716 1_555
Fe0 O1 2.096729 1_556
Fe0 O0 2.143167 1_555
Fe1 O11 1.666043 1_445
Fe1 O6 1.987281 1_555
Fe1 O16 2.012396 1_545
Fe1 O8 2.301288 1_555
Fe1 O15 2.364843 1_445
Fe2 O4 1.820936 1_565
Fe2 O3 1.831677 1_555
Fe2 O7 1.918716 1_555
Fe2 O1 2.096729 1_565
Fe2 O9 2.143167 1_555
Fe3 O11 1.774880 1_555
Fe3 O4 1.810529 1_555
Fe3 O7 2.193436 1_555
Fe3 O6 2.202048 1_655
Fe3 O9 2.243795 1_655
Fe3 O8 2.299005 1_555
Fe4 O18 1.666043 1_665
Fe4 O20 1.987281 1_555
Fe4 O17 2.012396 1_565
Fe4 O19 2.301288 1_555
Fe4 O14 2.364843 1_665
Fe5 O10 1.659812 1_565
Fe5 O16 2.048691 1_555
Fe5 O12 2.064712 1_555
Fe5 O15 2.264752 1_555
Fe5 O13 2.305366 1_555
Fe6 O10 1.659812 1_555
Fe6 O17 2.048691 1_555
Fe6 O12 2.064712 1_555
Fe6 O14 2.264752 1_555
Fe6 O13 2.305366 1_655
Fe7 O18 1.774880 1_555
Fe7 O5 1.810529 1_555
Fe7 O2 2.193436 1_555
Fe7 O20 2.202048 1_455
Fe7 O0 2.243795 1_455
Fe7 O19 2.299005 1_555
