# generated using pymatgen
data_Mg3Bi2(PO6)2
_symmetry_space_group_name_H-M   'P 1'
_cell_length_a   5.35777700
_cell_length_b   7.86865000
_cell_length_c   12.21251967
_cell_angle_alpha   87.95557511
_cell_angle_beta   90.00000000
_cell_angle_gamma   90.00000000
_symmetry_Int_Tables_number   1
_chemical_formula_structural   Mg3Bi2(PO6)2
_chemical_formula_sum   'Mg6 Bi4 P4 O24'
_cell_volume   514.53344240
_cell_formula_units_Z   2
loop_
 _symmetry_equiv_pos_site_id
 _symmetry_equiv_pos_as_xyz
  1  'x, y, z'
loop_
 _atom_site_type_symbol
 _atom_site_label
 _atom_site_symmetry_multiplicity
 _atom_site_fract_x
 _atom_site_fract_y
 _atom_site_fract_z
 _atom_site_occupancy
  Mg  Mg0  1  0.50000000  0.18300600  0.40500100  1
  Mg  Mg1  1  0.50000000  0.68930600  0.90923900  1
  Mg  Mg2  1  0.50000000  0.79706200  0.40374300  1
  Mg  Mg3  1  0.00000000  0.31519700  0.09103300  1
  Mg  Mg4  1  0.00000000  0.82058900  0.59587600  1
  Mg  Mg5  1  0.50000000  0.30354000  0.89933000  1
  Bi  Bi0  1  0.00000000  0.51766700  0.40517700  1
  Bi  Bi1  1  0.00000000  0.99998100  0.90481300  1
  Bi  Bi2  1  0.50000000  0.48367600  0.59796500  1
  Bi  Bi3  1  0.50000000  0.00102100  0.09771200  1
  P  P0  1  0.50000000  0.48403000  0.19947600  1
  P  P1  1  0.00000000  0.99020400  0.30337300  1
  P  P2  1  0.00000000  0.51543200  0.80312400  1
  P  P3  1  0.50000000  0.00462800  0.69941400  1
  O  O0  1  0.75095000  0.67408800  0.50607400  1
  O  O1  1  0.73577700  0.33600300  0.48754700  1
  O  O2  1  0.24905000  0.67408800  0.50607400  1
  O  O3  1  0.24255700  0.99610000  0.37547500  1
  O  O4  1  0.26888500  0.48825900  0.12335800  1
  O  O5  1  0.00000000  0.14233000  0.22026400  1
  O  O6  1  0.50000000  0.17708200  0.75729000  1
  O  O7  1  0.50000000  0.85837600  0.78629200  1
  O  O8  1  0.00000000  0.68918300  0.74041400  1
  O  O9  1  0.00000000  0.36774500  0.72308500  1
  O  O10  1  0.75780800  0.50203900  0.87533900  1
  O  O11  1  0.24976300  0.17448400  0.99827200  1
  O  O12  1  0.26422300  0.33600300  0.48754700  1
  O  O13  1  0.24219200  0.50203900  0.87533900  1
  O  O14  1  0.26187900  0.83475000  0.99704500  1
  O  O15  1  0.72909300  0.99234000  0.62325000  1
  O  O16  1  0.00000000  0.81900900  0.24663900  1
  O  O17  1  0.50000000  0.31508600  0.26711400  1
  O  O18  1  0.73812100  0.83475000  0.99704500  1
  O  O19  1  0.75744300  0.99610000  0.37547500  1
  O  O20  1  0.27090700  0.99234000  0.62325000  1
  O  O21  1  0.50000000  0.63713400  0.27581100  1
  O  O22  1  0.73111500  0.48825900  0.12335800  1
  O  O23  1  0.75023700  0.17448400  0.99827200  1
loop_
_geom_bond_atom_site_label_1
_geom_bond_atom_site_label_2
_geom_bond_distance
_geom_bond_site_symmetry_2
Mg0 O17 1.947033 1_555
Mg0 O1 2.036651 1_555
Mg0 O12 2.036651 1_555
Mg0 O3 2.057509 1_545
Mg0 O19 2.057509 1_545
Mg1 O7 1.970228 1_555
Mg1 O14 2.043253 1_555
Mg1 O18 2.043253 1_555
Mg1 O13 2.072238 1_555
Mg1 O10 2.072238 1_555
Mg2 O21 2.040809 1_555
Mg2 O2 2.054170 1_555
Mg2 O0 2.054170 1_555
Mg2 O19 2.106179 1_555
Mg2 O3 2.106179 1_555
Mg3 O4 2.030764 1_555
Mg3 O22 2.030764 1_455
Mg3 O5 2.046432 1_555
Mg3 O11 2.095109 1_554
Mg3 O23 2.095109 1_454
Mg4 O8 2.013639 1_555
Mg4 O20 2.019194 1_555
Mg4 O15 2.019194 1_455
Mg4 O0 2.098176 1_455
Mg4 O2 2.098176 1_555
Mg5 O6 2.030358 1_555
Mg5 O23 2.049698 1_555
Mg5 O11 2.049698 1_555
Mg5 O10 2.097787 1_555
Mg5 O13 2.097787 1_555
Bi0 O2 2.218551 1_555
Bi0 O0 2.218551 1_455
Bi0 O1 2.226369 1_455
Bi0 O12 2.226369 1_555
Bi1 O14 2.196199 1_555
Bi1 O18 2.196199 1_455
Bi1 O11 2.256251 1_565
Bi1 O23 2.256251 1_465
Bi2 O12 2.208210 1_555
Bi2 O1 2.208210 1_555
Bi2 O0 2.278606 1_555
Bi2 O2 2.278606 1_555
Bi3 O18 2.228355 1_544
Bi3 O14 2.228355 1_544
Bi3 O11 2.239878 1_554
Bi3 O23 2.239878 1_554
O3 P1 1.571402 1_555
O4 P0 1.548011 1_555
O5 P1 1.541542 1_545
O6 P3 1.552228 1_555
O7 P3 1.537191 1_565
O8 P2 1.543053 1_555
O9 P2 1.544985 1_555
O10 P2 1.570371 1_655
O13 P2 1.570371 1_555
O15 P3 1.545165 1_565
O16 P1 1.536640 1_555
O17 P0 1.539864 1_555
O19 P1 1.571402 1_655
O20 P3 1.545165 1_565
O21 P0 1.549375 1_555
O22 P0 1.548011 1_555
