# generated using pymatgen
data_K2PH4Se3O2
_symmetry_space_group_name_H-M   'P 1'
_cell_length_a   8.81213142
_cell_length_b   8.81213142
_cell_length_c   11.94569200
_cell_angle_alpha   90.00000000
_cell_angle_beta   90.00000000
_cell_angle_gamma   93.96004381
_symmetry_Int_Tables_number   1
_chemical_formula_structural   K2PH4Se3O2
_chemical_formula_sum   'K8 P4 H16 Se12 O8'
_cell_volume   925.41195446
_cell_formula_units_Z   4
loop_
 _symmetry_equiv_pos_site_id
 _symmetry_equiv_pos_as_xyz
  1  'x, y, z'
loop_
 _atom_site_type_symbol
 _atom_site_label
 _atom_site_symmetry_multiplicity
 _atom_site_fract_x
 _atom_site_fract_y
 _atom_site_fract_z
 _atom_site_occupancy
  K  K0  1  0.53689500  0.46310500  0.14592900  1
  K  K1  1  0.46310500  0.53689500  0.85407100  1
  K  K2  1  0.96310500  0.03689500  0.64592900  1
  K  K3  1  0.03689500  0.96310500  0.35407100  1
  K  K4  1  0.09704600  0.40295400  0.25000000  1
  K  K5  1  0.40295400  0.09704600  0.75000000  1
  K  K6  1  0.90295400  0.59704600  0.75000000  1
  K  K7  1  0.59704600  0.90295400  0.25000000  1
  P  P0  1  0.58408900  0.41591100  0.46759600  1
  P  P1  1  0.41591100  0.58408900  0.53240400  1
  P  P2  1  0.91591100  0.08408900  0.96759600  1
  P  P3  1  0.08408900  0.91591100  0.03240400  1
  H  H0  1  0.09996800  0.30652800  0.49696400  1
  H  H1  1  0.30652800  0.09996800  0.50303600  1
  H  H2  1  0.80652800  0.59996800  0.99696400  1
  H  H3  1  0.59996800  0.80652800  0.00303600  1
  H  H4  1  0.90003200  0.69347200  0.50303600  1
  H  H5  1  0.69347200  0.90003200  0.49696400  1
  H  H6  1  0.19347200  0.40003200  0.00303600  1
  H  H7  1  0.40003200  0.19347200  0.99696400  1
  H  H8  1  0.92570500  0.29538100  0.47078400  1
  H  H9  1  0.29538100  0.92570500  0.52921600  1
  H  H10  1  0.79538100  0.42570500  0.97078400  1
  H  H11  1  0.42570500  0.79538100  0.02921600  1
  H  H12  1  0.07429500  0.70461900  0.52921600  1
  H  H13  1  0.70461900  0.07429500  0.47078400  1
  H  H14  1  0.20461900  0.57429500  0.02921600  1
  H  H15  1  0.57429500  0.20461900  0.97078400  1
  Se  Se0  1  0.75329800  0.55333800  0.36682500  1
  Se  Se1  1  0.55333800  0.75329800  0.63317500  1
  Se  Se2  1  0.05333800  0.25329800  0.86682500  1
  Se  Se3  1  0.25329800  0.05333800  0.13317500  1
  Se  Se4  1  0.24670200  0.44666200  0.63317500  1
  Se  Se5  1  0.44666200  0.24670200  0.36682500  1
  Se  Se6  1  0.94666200  0.74670200  0.13317500  1
  Se  Se7  1  0.74670200  0.94666200  0.86682500  1
  Se  Se8  1  0.81469400  0.18530600  0.11682100  1
  Se  Se9  1  0.18530600  0.81469400  0.88317900  1
  Se  Se10  1  0.68530600  0.31469400  0.61682100  1
  Se  Se11  1  0.31469400  0.68530600  0.38317900  1
  O  O0  1  0.02074900  0.24858500  0.45157900  1
  O  O1  1  0.24858500  0.02074900  0.54842100  1
  O  O2  1  0.74858500  0.52074900  0.95157900  1
  O  O3  1  0.52074900  0.74858500  0.04842100  1
  O  O4  1  0.97925100  0.75141500  0.54842100  1
  O  O5  1  0.75141500  0.97925100  0.45157900  1
  O  O6  1  0.25141500  0.47925100  0.04842100  1
  O  O7  1  0.47925100  0.25141500  0.95157900  1
loop_
_geom_bond_atom_site_label_1
_geom_bond_atom_site_label_2
_geom_bond_distance
_geom_bond_site_symmetry_2
K0 O3 2.784802 1_555
K0 O6 2.784802 1_555
K0 Se5 3.319999 1_555
K0 Se0 3.319999 1_555
K1 O2 2.784802 1_555
K1 O7 2.784802 1_555
K1 Se4 3.319999 1_555
K1 Se1 3.319999 1_555
K2 O4 2.784802 1_545
K2 O1 2.784802 1_655
K2 Se7 3.319999 1_545
K2 Se2 3.319999 1_655
K3 O5 2.784802 1_455
K3 O0 2.784802 1_565
K3 Se3 3.319999 1_565
K3 Se6 3.319999 1_455
K4 O6 2.823943 1_555
K4 O0 2.823943 1_555
K4 Se8 3.426535 1_455
K4 Se11 3.426535 1_555
K5 O7 2.823943 1_555
K5 O1 2.823943 1_555
K5 Se9 3.426535 1_545
K5 Se10 3.426535 1_555
K6 O4 2.823943 1_555
K6 O2 2.823943 1_555
K6 Se9 3.426535 1_655
K6 Se10 3.426535 1_555
K7 O5 2.823943 1_555
K7 O3 2.823943 1_555
K7 Se8 3.426535 1_565
K7 Se11 3.426535 1_555
P0 Se10 2.208763 1_555
P0 Se5 2.211246 1_555
P0 Se0 2.211246 1_555
P0 P1 2.301173 1_555
P1 Se11 2.208763 1_555
P1 Se4 2.211246 1_555
P1 Se1 2.211246 1_555
P2 Se8 2.208763 1_556
P2 Se7 2.211246 1_545
P2 Se2 2.211246 1_655
P2 P3 2.301173 1_646
P3 Se9 2.208763 1_554
P3 Se3 2.211246 1_565
P3 Se6 2.211246 1_455
H0 O0 0.996364 1_555
H1 O1 0.996364 1_555
H2 O2 0.996364 1_555
H3 O3 0.996364 1_555
H4 O4 0.996364 1_555
H5 O5 0.996364 1_555
H6 O6 0.996364 1_555
H7 O7 0.996364 1_555
H8 O0 0.985830 1_655
H9 O1 0.985830 1_565
H10 O2 0.985830 1_555
H11 O3 0.985830 1_555
H12 O4 0.985830 1_455
H13 O5 0.985830 1_545
H14 O6 0.985830 1_555
H15 O7 0.985830 1_555
