# generated using pymatgen
data_La3PtI3
_symmetry_space_group_name_H-M   'P 1'
_cell_length_a   11.04512172
_cell_length_b   11.04512172
_cell_length_c   11.04512230
_cell_angle_alpha   109.47121640
_cell_angle_beta   109.47122275
_cell_angle_gamma   109.47122063
_symmetry_Int_Tables_number   1
_chemical_formula_structural   La3PtI3
_chemical_formula_sum   'La12 Pt4 I12'
_cell_volume   1037.26485319
_cell_formula_units_Z   4
loop_
 _symmetry_equiv_pos_site_id
 _symmetry_equiv_pos_as_xyz
  1  'x, y, z'
loop_
 _atom_site_type_symbol
 _atom_site_label
 _atom_site_symmetry_multiplicity
 _atom_site_fract_x
 _atom_site_fract_y
 _atom_site_fract_z
 _atom_site_occupancy
  La  La0  1  0.46216300  0.48108200  0.23108200  1
  La  La1  1  0.75000000  0.23108200  0.26891800  1
  La  La2  1  0.75000000  0.01891800  0.48108200  1
  La  La3  1  0.23108200  0.46216300  0.48108200  1
  La  La4  1  0.26891800  0.75000000  0.23108200  1
  La  La5  1  0.03783700  0.26891800  0.01891800  1
  La  La6  1  0.01891800  0.03783700  0.26891800  1
  La  La7  1  0.48108200  0.75000000  0.01891800  1
  La  La8  1  0.48108200  0.23108200  0.46216300  1
  La  La9  1  0.01891800  0.48108200  0.75000000  1
  La  La10  1  0.26891800  0.01891800  0.03783700  1
  La  La11  1  0.23108200  0.26891800  0.75000000  1
  Pt  Pt0  1  0.25000000  0.25000000  0.25000000  1
  Pt  Pt1  1  0.50000000  0.00000000  0.25000000  1
  Pt  Pt2  1  0.00000000  0.25000000  0.50000000  1
  Pt  Pt3  1  0.25000000  0.50000000  0.00000000  1
  I  I0  1  0.25000000  0.75870800  0.74129200  1
  I  I1  1  0.51741600  0.50870800  0.75870800  1
  I  I2  1  0.98258400  0.74129200  0.99129200  1
  I  I3  1  0.74129200  0.25000000  0.75870800  1
  I  I4  1  0.99129200  0.98258400  0.74129200  1
  I  I5  1  0.25000000  0.99129200  0.50870800  1
  I  I6  1  0.75870800  0.51741600  0.50870800  1
  I  I7  1  0.50870800  0.25000000  0.99129200  1
  I  I8  1  0.75870800  0.74129200  0.25000000  1
  I  I9  1  0.74129200  0.99129200  0.98258400  1
  I  I10  1  0.99129200  0.50870800  0.25000000  1
  I  I11  1  0.50870800  0.75870800  0.51741600  1
loop_
_geom_bond_atom_site_label_1
_geom_bond_atom_site_label_2
_geom_bond_distance
_geom_bond_site_symmetry_2
La0 Pt0 2.957029 1_555
La0 Pt3 2.957029 1_555
La1 Pt1 2.957035 1_555
La1 Pt2 2.957035 1_655
La2 Pt2 2.957035 1_655
La2 Pt1 2.957035 1_555
La3 Pt2 2.957029 1_555
La3 Pt0 2.957030 1_555
La4 Pt1 2.957035 1_565
La4 Pt3 2.957035 1_555
La5 Pt3 2.957029 1_555
La5 Pt0 2.957029 1_555
La6 Pt0 2.957029 1_555
La6 Pt2 2.957030 1_555
La7 Pt3 2.957035 1_555
La7 Pt1 2.957035 1_565
La8 Pt0 2.957029 1_555
La8 Pt1 2.957030 1_555
La9 Pt3 2.957035 1_556
La9 Pt2 2.957036 1_555
La10 Pt1 2.957029 1_555
La10 Pt0 2.957030 1_555
La11 Pt2 2.957035 1_555
La11 Pt3 2.957036 1_556
I0 La9 3.327031 1_555
I0 La7 3.327031 1_556
I0 La3 3.449575 1_555
I0 La10 3.449575 1_566
I1 La3 3.327026 1_555
I1 La11 3.327031 1_555
I1 La7 3.449567 1_556
I1 La8 3.449574 1_555
I2 La10 3.327026 1_666
I2 La4 3.327031 1_656
I2 La9 3.449567 1_655
I2 La6 3.449574 1_666
I3 La9 3.327031 1_655
I3 La2 3.327031 1_555
I3 La5 3.449574 1_656
I3 La8 3.449574 1_555
I4 La5 3.327026 1_666
I4 La11 3.327031 1_665
I4 La2 3.449567 1_565
I4 La10 3.449574 1_666
I5 La6 3.327039 1_565
I5 La8 3.327039 1_565
I5 La11 3.449567 1_565
I5 La4 3.449567 1_555
I6 La8 3.327026 1_555
I6 La1 3.327031 1_555
I6 La9 3.449567 1_655
I6 La0 3.449574 1_555
I7 La10 3.327039 1_556
I7 La0 3.327039 1_556
I7 La11 3.449567 1_555
I7 La1 3.449567 1_556
I8 La7 3.327031 1_555
I8 La2 3.327031 1_565
I8 La0 3.449574 1_555
I8 La6 3.449574 1_665
I9 La6 3.327026 1_666
I9 La1 3.327031 1_566
I9 La7 3.449567 1_556
I9 La5 3.449574 1_666
I10 La3 3.327039 1_655
I10 La5 3.327039 1_655
I10 La1 3.449567 1_555
I10 La4 3.449567 1_655
I11 La0 3.327026 1_555
I11 La4 3.327031 1_555
I11 La2 3.449567 1_565
I11 La3 3.449574 1_555
