# generated using pymatgen
data_Si60Te13P32Se3
_symmetry_space_group_name_H-M   'P 1'
_cell_length_a   10.01818200
_cell_length_b   10.01845100
_cell_length_c   20.03647000
_cell_angle_alpha   90.00000000
_cell_angle_beta   90.00000000
_cell_angle_gamma   90.00000000
_symmetry_Int_Tables_number   1
_chemical_formula_structural   Si60Te13P32Se3
_chemical_formula_sum   'Si60 Te13 P32 Se3'
_cell_volume   2010.99368181
_cell_formula_units_Z   1
loop_
 _symmetry_equiv_pos_site_id
 _symmetry_equiv_pos_as_xyz
  1  'x, y, z'
loop_
 _atom_site_type_symbol
 _atom_site_label
 _atom_site_symmetry_multiplicity
 _atom_site_fract_x
 _atom_site_fract_y
 _atom_site_fract_z
 _atom_site_occupancy
  Si  Si0  1  0.50000000  0.75020100  0.74989800  1
  Si  Si1  1  0.50000000  0.75020100  0.25010200  1
  Si  Si2  1  0.24962000  0.00000000  0.00000000  1
  Si  Si3  1  0.24998200  0.00000000  0.50000000  1
  Si  Si4  1  0.00000000  0.50000000  0.87480300  1
  Si  Si5  1  0.00000000  0.50000000  0.37498600  1
  Si  Si6  1  0.50000000  0.24979900  0.74989800  1
  Si  Si7  1  0.50000000  0.24979900  0.25010200  1
  Si  Si8  1  0.75038000  0.00000000  0.00000000  1
  Si  Si9  1  0.75001800  0.00000000  0.50000000  1
  Si  Si10  1  0.00000000  0.50000000  0.12519700  1
  Si  Si11  1  0.00000000  0.50000000  0.62501400  1
  Si  Si12  1  0.50000000  0.61687800  0.84552200  1
  Si  Si13  1  0.50000000  0.61678200  0.34585700  1
  Si  Si14  1  0.38310200  0.80892800  0.00000000  1
  Si  Si15  1  0.38323600  0.80832200  0.50000000  1
  Si  Si16  1  0.19106600  0.50000000  0.94153900  1
  Si  Si17  1  0.19166500  0.50000000  0.44161800  1
  Si  Si18  1  0.50000000  0.38312200  0.15447800  1
  Si  Si19  1  0.50000000  0.38321800  0.65414300  1
  Si  Si20  1  0.61689900  0.19107200  0.00000000  1
  Si  Si21  1  0.61676400  0.19167800  0.50000000  1
  Si  Si22  1  0.80893400  0.50000000  0.05846100  1
  Si  Si23  1  0.80833500  0.50000000  0.55838200  1
  Si  Si24  1  0.38310200  0.19107200  0.00000000  1
  Si  Si25  1  0.38323600  0.19167800  0.50000000  1
  Si  Si26  1  0.19106600  0.50000000  0.05846100  1
  Si  Si27  1  0.19166500  0.50000000  0.55838200  1
  Si  Si28  1  0.61689900  0.80892800  0.00000000  1
  Si  Si29  1  0.61676400  0.80832200  0.50000000  1
  Si  Si30  1  0.80893400  0.50000000  0.94153900  1
  Si  Si31  1  0.80833500  0.50000000  0.44161800  1
  Si  Si32  1  0.50000000  0.38312200  0.84552200  1
  Si  Si33  1  0.50000000  0.38321800  0.34585700  1
  Si  Si34  1  0.50000000  0.61687800  0.15447800  1
  Si  Si35  1  0.50000000  0.61678200  0.65414300  1
  Si  Si36  1  0.00000000  0.69178400  0.80835800  1
  Si  Si37  1  0.00000000  0.69172000  0.30838500  1
  Si  Si38  1  0.88327900  0.00000000  0.90407300  1
  Si  Si39  1  0.88324500  0.00000000  0.40416300  1
  Si  Si40  1  0.69175200  0.88325100  0.74998200  1
  Si  Si41  1  0.69175200  0.88325100  0.25001800  1
  Si  Si42  1  0.00000000  0.30821600  0.19164200  1
  Si  Si43  1  0.00000000  0.30828000  0.69161500  1
  Si  Si44  1  0.11672100  0.00000000  0.09592700  1
  Si  Si45  1  0.11675500  0.00000000  0.59583700  1
  Si  Si46  1  0.30824800  0.11674900  0.74998200  1
  Si  Si47  1  0.30824800  0.11674900  0.25001800  1
  Si  Si48  1  0.88327900  0.00000000  0.09592700  1
  Si  Si49  1  0.88324500  0.00000000  0.59583700  1
  Si  Si50  1  0.69175200  0.11674900  0.74998200  1
  Si  Si51  1  0.69175200  0.11674900  0.25001800  1
  Si  Si52  1  0.11672100  0.00000000  0.90407300  1
  Si  Si53  1  0.11675500  0.00000000  0.40416300  1
  Si  Si54  1  0.30824800  0.88325100  0.74998200  1
  Si  Si55  1  0.30824800  0.88325100  0.25001800  1
  Si  Si56  1  0.00000000  0.69178400  0.19164200  1
  Si  Si57  1  0.00000000  0.69172000  0.69161500  1
  Si  Si58  1  0.00000000  0.30821600  0.80835800  1
  Si  Si59  1  0.00000000  0.30828000  0.30838500  1
  Te  Te0  1  0.00000000  0.74997500  0.00000000  1
  Te  Te1  1  0.00000000  0.75000700  0.50000000  1
  Te  Te2  1  0.25001800  0.50000000  0.75001600  1
  Te  Te3  1  0.25001800  0.50000000  0.24998400  1
  Te  Te4  1  0.50000000  0.00000000  0.87501000  1
  Te  Te5  1  0.50000000  0.00000000  0.37497000  1
  Te  Te6  1  0.00000000  0.25002500  0.00000000  1
  Te  Te7  1  0.00000000  0.24999300  0.50000000  1
  Te  Te8  1  0.74998200  0.50000000  0.75001600  1
  Te  Te9  1  0.74998200  0.50000000  0.24998400  1
  Te  Te10  1  0.50000000  0.00000000  0.12499000  1
  Te  Te11  1  0.50000000  0.00000000  0.62503000  1
  Te  Te12  1  0.50000000  0.50000000  0.00000000  1
  P  P0  1  0.31560600  0.68438200  0.90780900  1
  P  P1  1  0.31593900  0.68407000  0.40797500  1
  P  P2  1  0.68439400  0.31561800  0.09219100  1
  P  P3  1  0.68406100  0.31593000  0.59202500  1
  P  P4  1  0.31560600  0.31561800  0.09219100  1
  P  P5  1  0.31593900  0.31593000  0.59202500  1
  P  P6  1  0.68439400  0.68438200  0.90780900  1
  P  P7  1  0.68406100  0.68407000  0.40797500  1
  P  P8  1  0.68439400  0.31561800  0.90780900  1
  P  P9  1  0.68406100  0.31593000  0.40797500  1
  P  P10  1  0.31560600  0.68438200  0.09219100  1
  P  P11  1  0.31593900  0.68407000  0.59202500  1
  P  P12  1  0.68439400  0.68438200  0.09219100  1
  P  P13  1  0.68406100  0.68407000  0.59202500  1
  P  P14  1  0.31560600  0.31561800  0.90780900  1
  P  P15  1  0.31593900  0.31593000  0.40797500  1
  P  P16  1  0.81623800  0.81621800  0.84186600  1
  P  P17  1  0.81595800  0.81598000  0.34202900  1
  P  P18  1  0.18376200  0.18378200  0.15813400  1
  P  P19  1  0.18404200  0.18402000  0.65797100  1
  P  P20  1  0.81623800  0.18378200  0.15813400  1
  P  P21  1  0.81595800  0.18402000  0.65797100  1
  P  P22  1  0.18376200  0.81621800  0.84186600  1
  P  P23  1  0.18404200  0.81598000  0.34202900  1
  P  P24  1  0.18376200  0.81621800  0.15813400  1
  P  P25  1  0.18404200  0.81598000  0.65797100  1
  P  P26  1  0.81623800  0.18378200  0.84186600  1
  P  P27  1  0.81595800  0.18402000  0.34202900  1
  P  P28  1  0.18376200  0.18378200  0.84186600  1
  P  P29  1  0.18404200  0.18402000  0.34202900  1
  P  P30  1  0.81623800  0.81621800  0.15813400  1
  P  P31  1  0.81595800  0.81598000  0.65797100  1
  Se  Se0  1  0.50000000  0.50000000  0.50000000  1
  Se  Se1  1  0.00000000  0.00000000  0.74993900  1
  Se  Se2  1  0.00000000  0.00000000  0.25006100  1
loop_
_geom_bond_atom_site_label_1
_geom_bond_atom_site_label_2
_geom_bond_distance
_geom_bond_site_symmetry_2
Si0 Si12 2.335594 1_555
Si0 Si40 2.338170 1_555
Si0 Si54 2.338170 1_555
Si0 Si35 2.338297 1_555
Si1 Si34 2.335594 1_555
Si1 Si41 2.338170 1_555
Si1 Si55 2.338170 1_555
Si1 Si13 2.338297 1_555
Si2 Si24 2.335073 1_555
Si2 Si44 2.338135 1_555
Si2 Si52 2.338135 1_554
Si3 Si45 2.338527 1_555
Si3 Si53 2.338527 1_555
Si4 Si58 2.337545 1_555
Si5 Si59 2.338800 1_555
Si10 Si26 2.334928 1_555
Si10 Si22 2.334928 1_455
Si10 Si56 2.337545 1_555
Si10 Si42 2.337545 1_555
Si11 Si27 2.338660 1_555
Si11 Si23 2.338660 1_455
Si11 Si43 2.338800 1_555
Si11 Si57 2.338800 1_555
Si12 Si32 2.341873 1_555
Si13 Si33 2.339949 1_555
Si14 Si2 2.335073 1_565
Si14 Si28 2.342221 1_555
Si15 Si3 2.338748 1_565
Si15 Si29 2.339526 1_555
Si16 Si4 2.334928 1_555
Si16 Si26 2.342704 1_556
Si17 Si5 2.338660 1_555
Si17 Si27 2.339538 1_555
Si18 Si7 2.335594 1_555
Si18 Si34 2.341873 1_555
Si19 Si6 2.338297 1_555
Si19 Si35 2.339949 1_555
Si20 Si8 2.335067 1_555
Si20 Si24 2.342221 1_555
Si21 Si9 2.338748 1_555
Si21 Si25 2.339526 1_555
Si22 Si30 2.342704 1_554
Si23 Si31 2.339538 1_555
Si25 Si3 2.338748 1_555
Si28 Si8 2.335067 1_565
Si29 Si9 2.338748 1_565
Si30 Si4 2.334928 1_655
Si31 Si5 2.338660 1_655
Si32 Si6 2.335594 1_555
Si33 Si7 2.338297 1_555
Si36 Si4 2.337545 1_555
Si36 Si57 2.339118 1_555
Si37 Si5 2.338800 1_555
Si37 Si56 2.339118 1_555
Si38 Si8 2.338135 1_556
Si38 Si52 2.338664 1_655
Si39 Si9 2.338527 1_555
Si39 Si53 2.339346 1_655
Si40 Si50 2.339288 1_565
Si41 Si51 2.339288 1_565
Si42 Si59 2.339118 1_555
Si43 Si58 2.339118 1_555
Si44 Si48 2.338664 1_455
Si45 Si49 2.339346 1_455
Si46 Si6 2.338170 1_555
Si46 Si54 2.339288 1_545
Si47 Si7 2.338170 1_555
Si47 Si55 2.339288 1_545
Si48 Si8 2.338135 1_555
Si49 Si9 2.338527 1_555
Si50 Si6 2.338170 1_555
Si51 Si7 2.338170 1_555
P0 P22 2.287978 1_555
P0 Si16 2.329301 1_555
P0 Si14 2.329423 1_556
P0 Si12 2.329675 1_555
P1 P23 2.288748 1_555
P1 Si13 2.324588 1_555
P1 Si15 2.324629 1_555
P1 Si17 2.324889 1_555
P2 P20 2.287978 1_555
P2 Si22 2.329301 1_555
P2 Si20 2.329420 1_555
P2 Si18 2.329675 1_555
P3 Si19 2.324588 1_555
P3 Si21 2.324629 1_555
P3 Si23 2.324889 1_555
P4 Si26 2.329301 1_555
P4 Si24 2.329423 1_555
P4 Si18 2.329675 1_555
P5 Si19 2.324588 1_555
P5 Si25 2.324629 1_555
P5 Si27 2.324889 1_555
P6 Si30 2.329301 1_555
P6 Si28 2.329420 1_556
P6 Si12 2.329675 1_555
P7 Si13 2.324588 1_555
P7 Si29 2.324629 1_555
P7 Si31 2.324889 1_555
P8 Si30 2.329301 1_555
P8 Si20 2.329420 1_556
P8 Si32 2.329675 1_555
P9 Si33 2.324588 1_555
P9 Si21 2.324629 1_555
P9 Si31 2.324889 1_555
P10 P24 2.287978 1_555
P10 Si26 2.329301 1_555
P10 Si14 2.329423 1_555
P10 Si34 2.329675 1_555
P11 P25 2.288748 1_555
P11 Si35 2.324588 1_555
P11 Si15 2.324629 1_555
P11 Si27 2.324889 1_555
P12 P30 2.287978 1_555
P12 Si22 2.329301 1_555
P12 Si28 2.329420 1_555
P12 Si34 2.329675 1_555
P13 P31 2.288748 1_555
P13 Si35 2.324588 1_555
P13 Si29 2.324629 1_555
P13 Si23 2.324889 1_555
P14 P28 2.287978 1_555
P14 Si16 2.329301 1_555
P14 Si24 2.329423 1_556
P14 Si32 2.329675 1_555
P15 P29 2.288748 1_555
P15 Si33 2.324588 1_555
P15 Si25 2.324629 1_555
P15 Si17 2.324889 1_555
P16 P6 2.287978 1_555
P16 Si36 2.322497 1_655
P16 Si38 2.322645 1_565
P16 Si40 2.322868 1_555
P17 P7 2.288748 1_555
P17 Si41 2.324072 1_555
P17 Si39 2.324465 1_565
P17 Si37 2.324576 1_655
P18 P4 2.287978 1_555
P18 Si42 2.322497 1_555
P18 Si44 2.322645 1_555
P18 Si47 2.322868 1_555
P19 P5 2.288748 1_555
P19 Si46 2.324072 1_555
P19 Si45 2.324465 1_555
P19 Si43 2.324576 1_555
P20 Si42 2.322497 1_655
P20 Si48 2.322645 1_555
P20 Si51 2.322868 1_555
P21 P3 2.288748 1_555
P21 Si50 2.324072 1_555
P21 Si49 2.324465 1_555
P21 Si43 2.324576 1_655
P22 Si36 2.322497 1_555
P22 Si52 2.322645 1_565
P22 Si54 2.322868 1_555
P23 Si55 2.324072 1_555
P23 Si53 2.324465 1_565
P23 Si37 2.324576 1_555
P24 Si56 2.322497 1_555
P24 Si44 2.322645 1_565
P24 Si55 2.322868 1_555
P25 Si54 2.324072 1_555
P25 Si45 2.324465 1_565
P25 Si57 2.324576 1_555
P26 P8 2.287978 1_555
P26 Si58 2.322497 1_655
P26 Si38 2.322645 1_555
P26 Si50 2.322868 1_555
P27 P9 2.288748 1_555
P27 Si51 2.324072 1_555
P27 Si39 2.324465 1_555
P27 Si59 2.324576 1_655
P28 Si58 2.322497 1_555
P28 Si52 2.322645 1_555
P28 Si46 2.322868 1_555
P29 Si47 2.324072 1_555
P29 Si53 2.324465 1_555
P29 Si59 2.324576 1_555
P30 Si56 2.322497 1_655
P30 Si48 2.322645 1_565
P30 Si41 2.322868 1_555
P31 Si40 2.324072 1_555
P31 Si49 2.324465 1_565
P31 Si57 2.324576 1_655
