# generated using pymatgen
data_HIr
_symmetry_space_group_name_H-M   'P 1'
_cell_length_a   2.78892980
_cell_length_b   2.78892980
_cell_length_c   5.53670300
_cell_angle_alpha   90.00000000
_cell_angle_beta   90.00000000
_cell_angle_gamma   119.99999529
_symmetry_Int_Tables_number   1
_chemical_formula_structural   HIr
_chemical_formula_sum   'H2 Ir2'
_cell_volume   37.29555257
_cell_formula_units_Z   2
loop_
 _symmetry_equiv_pos_site_id
 _symmetry_equiv_pos_as_xyz
  1  'x, y, z'
loop_
 _atom_site_type_symbol
 _atom_site_label
 _atom_site_symmetry_multiplicity
 _atom_site_fract_x
 _atom_site_fract_y
 _atom_site_fract_z
 _atom_site_occupancy
  H  H0  1  0.66666700  0.33333300  0.52763900  1
  H  H1  1  0.33333300  0.66666700  0.02763900  1
  Ir  Ir0  1  0.66666700  0.33333300  0.84702400  1
  Ir  Ir1  1  0.33333300  0.66666700  0.34702400  1
loop_
_geom_bond_atom_site_label_1
_geom_bond_atom_site_label_2
_geom_bond_distance
_geom_bond_site_symmetry_2
H0 Ir0 1.768340 1_555
H0 Ir1 1.895449 1_545
H0 Ir1 1.895449 1_655
H0 Ir1 1.895453 1_555
H1 Ir1 1.768340 1_555
H1 Ir0 1.895449 1_454
H1 Ir0 1.895449 1_564
H1 Ir0 1.895453 1_554
