# generated using pymatgen
data_HoCu4Pd
_symmetry_space_group_name_H-M   'P 1'
_cell_length_a   4.93239334
_cell_length_b   4.93239334
_cell_length_c   4.93239334
_cell_angle_alpha   60.00000000
_cell_angle_beta   60.00000000
_cell_angle_gamma   60.00000000
_symmetry_Int_Tables_number   1
_chemical_formula_structural   HoCu4Pd
_chemical_formula_sum   'Ho1 Cu4 Pd1'
_cell_volume   84.85122387
_cell_formula_units_Z   1
loop_
 _symmetry_equiv_pos_site_id
 _symmetry_equiv_pos_as_xyz
  1  'x, y, z'
loop_
 _atom_site_type_symbol
 _atom_site_label
 _atom_site_symmetry_multiplicity
 _atom_site_fract_x
 _atom_site_fract_y
 _atom_site_fract_z
 _atom_site_occupancy
  Ho  Ho0  1  0.75000000  0.75000000  0.75000000  1
  Cu  Cu0  1  0.37420409  0.37420409  0.37420409  1
  Cu  Cu1  1  0.87738872  0.37420409  0.37420409  1
  Cu  Cu2  1  0.37420409  0.87738872  0.37420409  1
  Cu  Cu3  1  0.37420409  0.37420409  0.87738872  1
  Pd  Pd0  1  0.00000000  0.00000000  0.00000000  1
loop_
_geom_bond_atom_site_label_1
_geom_bond_atom_site_label_2
_geom_bond_distance
_geom_bond_site_symmetry_2
Ho0 Pd0 3.020462 1_656
Ho0 Pd0 3.020462 1_665
Ho0 Pd0 3.020462 1_666
Ho0 Pd0 3.020462 1_566
Cu0 Cu2 2.450489 1_545
Cu0 Cu1 2.450489 1_455
Cu0 Cu3 2.450489 1_554
Cu0 Cu3 2.481905 1_555
Cu0 Cu1 2.481905 1_555
Cu0 Cu2 2.481905 1_555
Cu0 Pd0 2.890214 1_556
Cu0 Pd0 2.890214 1_655
Cu0 Pd0 2.890214 1_565
Cu0 Ho0 2.893561 1_545
Cu0 Ho0 2.893561 1_554
Cu0 Ho0 2.893561 1_455
Cu1 Cu3 2.450489 1_654
Cu1 Cu2 2.450489 1_645
Cu1 Cu3 2.481905 1_555
Cu1 Cu2 2.481905 1_555
Cu1 Pd0 2.890211 1_656
Cu1 Pd0 2.890211 1_665
Cu1 Pd0 2.890216 1_655
Cu1 Ho0 2.893559 1_555
Cu1 Ho0 2.893563 1_554
Cu1 Ho0 2.893563 1_545
Cu2 Cu3 2.450489 1_564
Cu2 Cu3 2.481905 1_555
Cu2 Pd0 2.890211 1_566
Cu2 Pd0 2.890211 1_665
Cu2 Pd0 2.890216 1_565
Cu2 Ho0 2.893559 1_555
Cu2 Ho0 2.893563 1_554
Cu2 Ho0 2.893563 1_455
Cu3 Pd0 2.890211 1_566
Cu3 Pd0 2.890211 1_656
Cu3 Pd0 2.890216 1_556
Cu3 Ho0 2.893559 1_555
Cu3 Ho0 2.893563 1_545
Cu3 Ho0 2.893563 1_455
