# generated using pymatgen
data_Ca3Mn2(SiO4)3
_symmetry_space_group_name_H-M   'P 1'
_cell_length_a   10.59098022
_cell_length_b   10.59098019
_cell_length_c   10.59098060
_cell_angle_alpha   107.10356251
_cell_angle_beta   110.66786202
_cell_angle_gamma   110.66786548
_symmetry_Int_Tables_number   1
_chemical_formula_structural   Ca3Mn2(SiO4)3
_chemical_formula_sum   'Ca12 Mn8 Si12 O48'
_cell_volume   913.34091924
_cell_formula_units_Z   4
loop_
 _symmetry_equiv_pos_site_id
 _symmetry_equiv_pos_as_xyz
  1  'x, y, z'
loop_
 _atom_site_type_symbol
 _atom_site_label
 _atom_site_symmetry_multiplicity
 _atom_site_fract_x
 _atom_site_fract_y
 _atom_site_fract_z
 _atom_site_occupancy
  Ca  Ca0  1  0.37887800  0.75000000  0.12887800  1
  Ca  Ca1  1  0.12112200  0.25000000  0.37112200  1
  Ca  Ca2  1  0.37887800  0.12887800  0.25000000  1
  Ca  Ca3  1  0.12112200  0.37112200  0.75000000  1
  Ca  Ca4  1  0.87887800  0.75000000  0.62887800  1
  Ca  Ca5  1  0.75000000  0.12500000  0.37500000  1
  Ca  Ca6  1  0.75000000  0.62500000  0.87500000  1
  Ca  Ca7  1  0.62112200  0.25000000  0.87112200  1
  Ca  Ca8  1  0.25000000  0.87500000  0.62500000  1
  Ca  Ca9  1  0.87887800  0.62887800  0.25000000  1
  Ca  Ca10  1  0.62112200  0.87112200  0.75000000  1
  Ca  Ca11  1  0.25000000  0.37500000  0.12500000  1
  Mn  Mn0  1  0.00000000  0.00000000  0.00000000  1
  Mn  Mn1  1  0.00000000  0.50000000  0.00000000  1
  Mn  Mn2  1  0.00000000  0.00000000  0.50000000  1
  Mn  Mn3  1  0.00000000  0.50000000  0.50000000  1
  Mn  Mn4  1  0.50000000  0.00000000  0.50000000  1
  Mn  Mn5  1  0.50000000  0.50000000  0.00000000  1
  Mn  Mn6  1  0.50000000  0.50000000  0.50000000  1
  Mn  Mn7  1  0.50000000  0.00000000  0.00000000  1
  Si  Si0  1  0.25000000  0.12500000  0.87500000  1
  Si  Si1  1  0.75000000  0.87500000  0.12500000  1
  Si  Si2  1  0.37440000  0.25000000  0.62440000  1
  Si  Si3  1  0.62560000  0.37560000  0.25000000  1
  Si  Si4  1  0.12560000  0.75000000  0.87560000  1
  Si  Si5  1  0.87440000  0.12440000  0.75000000  1
  Si  Si6  1  0.75000000  0.37500000  0.62500000  1
  Si  Si7  1  0.37440000  0.62440000  0.75000000  1
  Si  Si8  1  0.12560000  0.87560000  0.25000000  1
  Si  Si9  1  0.87440000  0.25000000  0.12440000  1
  Si  Si10  1  0.62560000  0.75000000  0.37560000  1
  Si  Si11  1  0.25000000  0.62500000  0.37500000  1
  O  O0  1  0.29897500  0.49398700  0.38696200  1
  O  O1  1  0.01111600  0.29865400  0.89165700  1
  O  O2  1  0.11858300  0.60759400  0.91804000  1
  O  O3  1  0.20102500  0.58798600  0.19501200  1
  O  O4  1  0.20102500  0.11303800  0.00601300  1
  O  O5  1  0.59300400  0.20134600  0.21246200  1
  O  O6  1  0.60702600  0.19501200  0.49398700  1
  O  O7  1  0.18955400  0.20054400  0.58196000  1
  O  O8  1  0.89297400  0.38696200  0.58798600  1
  O  O9  1  0.31044600  0.91804000  0.29945600  1
  O  O10  1  0.90699600  0.28753800  0.29865400  1
  O  O11  1  0.01111600  0.21246200  0.11945700  1
  O  O12  1  0.18955400  0.48901000  0.60759400  1
  O  O13  1  0.59300400  0.89165700  0.38054300  1
  O  O14  1  0.11858300  0.01099000  0.20054400  1
  O  O15  1  0.48888400  0.60834300  0.20134600  1
  O  O16  1  0.38141700  0.58196000  0.89240600  1
  O  O17  1  0.89297400  0.00601300  0.30498800  1
  O  O18  1  0.60702600  0.91201400  0.11303800  1
  O  O19  1  0.10702600  0.61303800  0.41201400  1
  O  O20  1  0.90699600  0.11945700  0.60834300  1
  O  O21  1  0.38141700  0.29945600  0.48901000  1
  O  O22  1  0.31044600  0.89240600  0.01099000  1
  O  O23  1  0.29897500  0.30498800  0.91201400  1
  O  O24  1  0.70102500  0.50601300  0.61303800  1
  O  O25  1  0.98888400  0.70134600  0.10834300  1
  O  O26  1  0.88141700  0.39240600  0.08196000  1
  O  O27  1  0.79897500  0.41201400  0.80498800  1
  O  O28  1  0.79897500  0.88696200  0.99398700  1
  O  O29  1  0.40699600  0.79865400  0.78753800  1
  O  O30  1  0.39297400  0.80498800  0.50601300  1
  O  O31  1  0.81044600  0.79945600  0.41804000  1
  O  O32  1  0.70102500  0.69501200  0.08798600  1
  O  O33  1  0.68955400  0.10759400  0.98901000  1
  O  O34  1  0.61858300  0.70054400  0.51099000  1
  O  O35  1  0.51111600  0.61945700  0.71246200  1
  O  O36  1  0.09300400  0.88054300  0.39165700  1
  O  O37  1  0.39297400  0.08798600  0.88696200  1
  O  O38  1  0.10702600  0.99398700  0.69501200  1
  O  O39  1  0.61858300  0.41804000  0.10759400  1
  O  O40  1  0.51111600  0.39165700  0.79865400  1
  O  O41  1  0.88141700  0.98901000  0.79945600  1
  O  O42  1  0.40699600  0.10834300  0.61945700  1
  O  O43  1  0.81044600  0.51099000  0.39240600  1
  O  O44  1  0.98888400  0.78753800  0.88054300  1
  O  O45  1  0.09300400  0.71246200  0.70134600  1
  O  O46  1  0.68955400  0.08196000  0.70054400  1
  O  O47  1  0.48888400  0.38054300  0.28753800  1
loop_
_geom_bond_atom_site_label_1
_geom_bond_atom_site_label_2
_geom_bond_distance
_geom_bond_site_symmetry_2
Ca0 O15 2.340358 1_555
Ca0 O13 2.340374 1_555
Ca0 O22 2.366297 1_555
Ca0 O2 2.366303 1_554
Ca0 O3 2.517868 1_555
Ca0 O18 2.517874 1_555
Ca0 O9 2.626787 1_555
Ca0 O16 2.626793 1_554
Ca1 O10 2.340367 1_455
Ca1 O11 2.340377 1_555
Ca1 O7 2.366297 1_555
Ca1 O21 2.366306 1_555
Ca1 O0 2.517862 1_555
Ca1 O17 2.517868 1_455
Ca1 O14 2.626780 1_555
Ca1 O12 2.626787 1_555
Ca2 O5 2.340367 1_555
Ca2 O47 2.340377 1_555
Ca2 O9 2.366297 1_545
Ca2 O14 2.366306 1_555
Ca2 O4 2.517863 1_555
Ca2 O6 2.517868 1_555
Ca2 O21 2.626781 1_555
Ca2 O22 2.626787 1_545
Ca3 O1 2.340358 1_555
Ca3 O20 2.340374 1_455
Ca3 O12 2.366297 1_555
Ca3 O16 2.366303 1_555
Ca3 O23 2.517868 1_555
Ca3 O8 2.517874 1_455
Ca3 O7 2.626787 1_555
Ca3 O2 2.626793 1_555
Ca4 O45 2.340367 1_655
Ca4 O44 2.340377 1_555
Ca4 O31 2.366297 1_555
Ca4 O34 2.366306 1_555
Ca4 O24 2.517862 1_555
Ca4 O38 2.517868 1_655
Ca4 O41 2.626780 1_555
Ca4 O43 2.626787 1_555
Ca5 O17 2.453726 1_555
Ca5 O6 2.453726 1_555
Ca5 O8 2.453732 1_555
Ca5 O18 2.453732 1_545
Ca5 O10 2.475708 1_555
Ca5 O5 2.475708 1_555
Ca5 O13 2.475722 1_545
Ca5 O20 2.475722 1_555
Ca6 O27 2.453726 1_555
Ca6 O32 2.453726 1_556
Ca6 O28 2.453735 1_555
Ca6 O24 2.453735 1_555
Ca6 O44 2.475702 1_555
Ca6 O35 2.475702 1_555
Ca6 O40 2.475714 1_555
Ca6 O25 2.475714 1_556
Ca7 O40 2.340358 1_555
Ca7 O42 2.340374 1_555
Ca7 O33 2.366297 1_555
Ca7 O26 2.366303 1_556
Ca7 O27 2.517868 1_555
Ca7 O37 2.517874 1_555
Ca7 O46 2.626787 1_555
Ca7 O39 2.626793 1_556
Ca8 O38 2.453726 1_555
Ca8 O30 2.453726 1_555
Ca8 O19 2.453732 1_555
Ca8 O37 2.453732 1_565
Ca8 O45 2.475708 1_555
Ca8 O29 2.475708 1_555
Ca8 O42 2.475722 1_565
Ca8 O36 2.475722 1_555
Ca9 O25 2.340358 1_555
Ca9 O36 2.340374 1_655
Ca9 O43 2.366297 1_555
Ca9 O39 2.366303 1_555
Ca9 O32 2.517868 1_555
Ca9 O19 2.517874 1_655
Ca9 O31 2.626787 1_555
Ca9 O26 2.626793 1_555
Ca10 O29 2.340367 1_555
Ca10 O35 2.340377 1_555
Ca10 O46 2.366297 1_565
Ca10 O41 2.366306 1_555
Ca10 O28 2.517863 1_555
Ca10 O30 2.517868 1_555
Ca10 O34 2.626781 1_555
Ca10 O33 2.626787 1_565
Ca11 O3 2.453726 1_555
Ca11 O23 2.453726 1_554
Ca11 O4 2.453735 1_555
Ca11 O0 2.453735 1_555
Ca11 O11 2.475702 1_555
Ca11 O47 2.475702 1_555
Ca11 O15 2.475714 1_555
Ca11 O1 2.475714 1_554
Mn0 O41 1.992602 1_444
Mn0 O14 1.992602 1_555
Mn0 O28 2.007577 1_444
Mn0 O4 2.007577 1_555
Mn0 O11 2.170521 1_555
Mn0 O44 2.170521 1_444
Mn1 O2 1.992598 1_554
Mn1 O26 1.992598 1_455
Mn1 O3 2.007579 1_555
Mn1 O27 2.007579 1_454
Mn1 O25 2.170526 1_455
Mn1 O1 2.170526 1_554
Mn2 O31 1.992604 1_445
Mn2 O7 1.992604 1_555
Mn2 O38 2.007579 1_545
Mn2 O17 2.007579 1_455
Mn2 O20 2.170523 1_455
Mn2 O36 2.170523 1_545
Mn3 O12 1.992604 1_555
Mn3 O43 1.992604 1_455
Mn3 O19 2.007574 1_555
Mn3 O8 2.007574 1_455
Mn3 O10 2.170523 1_455
Mn3 O45 2.170523 1_555
Mn4 O46 1.992604 1_555
Mn4 O9 1.992604 1_545
Mn4 O6 2.007579 1_555
Mn4 O30 2.007579 1_545
Mn4 O13 2.170523 1_545
Mn4 O42 2.170523 1_555
Mn5 O39 1.992598 1_555
Mn5 O16 1.992598 1_554
Mn5 O23 2.007579 1_554
Mn5 O32 2.007579 1_555
Mn5 O15 2.170526 1_555
Mn5 O40 2.170526 1_554
Mn6 O34 1.992602 1_555
Mn6 O21 1.992602 1_555
Mn6 O24 2.007577 1_555
Mn6 O0 2.007577 1_555
Mn6 O47 2.170521 1_555
Mn6 O35 2.170521 1_555
Mn7 O22 1.992604 1_545
Mn7 O33 1.992604 1_554
Mn7 O18 2.007574 1_545
Mn7 O37 2.007574 1_554
Mn7 O29 2.170523 1_544
Mn7 O5 2.170523 1_555
O0 Si11 1.665973 1_555
O1 Si5 1.644682 1_455
O2 Si4 1.680919 1_555
O3 Si11 1.665970 1_555
O4 Si0 1.665973 1_554
O5 Si3 1.644685 1_555
O6 Si6 1.665970 1_555
O7 Si2 1.680921 1_555
O8 Si6 1.665968 1_555
O9 Si8 1.680921 1_555
O10 Si9 1.644685 1_555
O11 Si9 1.644688 1_455
O12 Si7 1.680921 1_555
O13 Si10 1.644673 1_555
O14 Si8 1.680924 1_545
O15 Si10 1.644682 1_555
O16 Si7 1.680919 1_555
O17 Si1 1.665970 1_545
O18 Si1 1.665968 1_555
O19 Si11 1.665968 1_555
O20 Si5 1.644673 1_555
O21 Si2 1.680924 1_555
O22 Si4 1.680921 1_554
O23 Si0 1.665970 1_555
O24 Si6 1.665973 1_555
O25 Si8 1.644682 1_655
O26 Si9 1.680919 1_555
O27 Si6 1.665970 1_555
O28 Si1 1.665973 1_556
O29 Si7 1.644685 1_555
O30 Si11 1.665970 1_555
O31 Si10 1.680921 1_555
O32 Si1 1.665970 1_555
O33 Si9 1.680921 1_556
O34 Si10 1.680924 1_555
O35 Si7 1.644688 1_555
O36 Si8 1.644673 1_555
O37 Si0 1.665968 1_555
O38 Si0 1.665970 1_565
O39 Si3 1.680919 1_555
O40 Si2 1.644682 1_555
O41 Si5 1.680924 1_565
O42 Si2 1.644673 1_555
O43 Si3 1.680921 1_555
O44 Si4 1.644688 1_655
O45 Si4 1.644685 1_555
O46 Si5 1.680921 1_555
O47 Si3 1.644688 1_555
