# generated using pymatgen
data_K3Ca(PO4)2
_symmetry_space_group_name_H-M   'P 1'
_cell_length_a   5.81768332
_cell_length_b   5.81768332
_cell_length_c   7.53952053
_cell_angle_alpha   86.74225951
_cell_angle_beta   86.74225951
_cell_angle_gamma   59.39674300
_symmetry_Int_Tables_number   1
_chemical_formula_structural   K3Ca(PO4)2
_chemical_formula_sum   'K3 Ca1 P2 O8'
_cell_volume   219.16486157
_cell_formula_units_Z   1
loop_
 _symmetry_equiv_pos_site_id
 _symmetry_equiv_pos_as_xyz
  1  'x, y, z'
loop_
 _atom_site_type_symbol
 _atom_site_label
 _atom_site_symmetry_multiplicity
 _atom_site_fract_x
 _atom_site_fract_y
 _atom_site_fract_z
 _atom_site_occupancy
  K  K0  1  0.00000000  0.00000000  0.00000000  1
  K  K1  1  0.33209800  0.33209800  0.70018100  1
  K  K2  1  0.66790200  0.66790200  0.29981900  1
  Ca  Ca0  1  0.00000000  0.00000000  0.50000000  1
  P  P0  1  0.34146500  0.34146500  0.24989900  1
  P  P1  1  0.65853500  0.65853500  0.75010100  1
  O  O0  1  0.36188700  0.36188700  0.04347900  1
  O  O1  1  0.63811300  0.63811300  0.95652100  1
  O  O2  1  0.18872000  0.18872000  0.29489900  1
  O  O3  1  0.81128000  0.81128000  0.70510200  1
  O  O4  1  0.18389700  0.62440900  0.32767100  1
  O  O5  1  0.62440900  0.18389700  0.32767100  1
  O  O6  1  0.81610300  0.37559100  0.67232900  1
  O  O7  1  0.37559100  0.81610300  0.67232900  1
loop_
_geom_bond_atom_site_label_1
_geom_bond_atom_site_label_2
_geom_bond_distance
_geom_bond_site_symmetry_2
K0 O3 3.022665 1_444
K0 O2 3.022671 1_555
K0 O4 3.054351 1_545
K0 O7 3.054351 1_544
K0 O5 3.054351 1_455
K0 O6 3.054351 1_454
K0 O1 3.209934 1_454
K0 O1 3.209934 1_544
K0 O0 3.209934 1_455
K0 O0 3.209934 1_545
K1 O0 2.625247 1_556
K1 O3 2.890009 1_545
K1 O3 2.890009 1_455
K1 O6 2.900298 1_455
K1 O7 2.900298 1_545
K1 O7 2.947705 1_555
K1 O6 2.947705 1_555
K1 O4 3.124542 1_555
K1 O5 3.124542 1_555
K2 O1 2.625247 1_554
K2 O2 2.890009 1_655
K2 O2 2.890009 1_565
K2 O5 2.900298 1_565
K2 O4 2.900298 1_655
K2 O4 2.947705 1_555
K2 O5 2.947705 1_555
K2 O7 3.124542 1_555
K2 O6 3.124542 1_555
Ca0 O6 2.322007 1_455
Ca0 O7 2.322007 1_545
Ca0 O5 2.322007 1_455
Ca0 O4 2.322007 1_545
Ca0 O2 2.375599 1_555
Ca0 O3 2.375604 1_445
O0 P0 1.556492 1_555
O1 P1 1.556492 1_555
O2 P0 1.558808 1_555
O3 P1 1.558807 1_555
O4 P0 1.551112 1_555
O5 P0 1.551112 1_555
O6 P1 1.551112 1_555
O7 P1 1.551112 1_555
