# generated using pymatgen
data_CoSb(PO4)2
_symmetry_space_group_name_H-M   'P 1'
_cell_length_a   4.94531065
_cell_length_b   10.03834858
_cell_length_c   13.01585435
_cell_angle_alpha   89.17519303
_cell_angle_beta   89.61839475
_cell_angle_gamma   84.00586298
_symmetry_Int_Tables_number   1
_chemical_formula_structural   CoSb(PO4)2
_chemical_formula_sum   'Co4 Sb4 P8 O32'
_cell_volume   642.53487755
_cell_formula_units_Z   4
loop_
 _symmetry_equiv_pos_site_id
 _symmetry_equiv_pos_as_xyz
  1  'x, y, z'
loop_
 _atom_site_type_symbol
 _atom_site_label
 _atom_site_symmetry_multiplicity
 _atom_site_fract_x
 _atom_site_fract_y
 _atom_site_fract_z
 _atom_site_occupancy
  Co  Co0  1  0.41561400  0.22121100  0.89899200  1
  Co  Co1  1  0.58903700  0.77875600  0.65534300  1
  Co  Co2  1  0.41070600  0.22164600  0.34437900  1
  Co  Co3  1  0.58447500  0.77785300  0.10098200  1
  Sb  Sb0  1  0.90973700  0.29936000  0.12167600  1
  Sb  Sb1  1  0.96971700  0.29054800  0.62521500  1
  Sb  Sb2  1  0.03108800  0.70979200  0.37480400  1
  Sb  Sb3  1  0.08910000  0.70028700  0.87825100  1
  P  P0  1  0.38150000  0.09614100  0.12648500  1
  P  P1  1  0.42484400  0.10692300  0.62362500  1
  P  P2  1  0.57613300  0.89353900  0.37641900  1
  P  P3  1  0.61706400  0.90341400  0.87348400  1
  P  P4  1  0.87289800  0.40521900  0.39213300  1
  P  P5  1  0.86345700  0.40786200  0.85658700  1
  P  P6  1  0.13628200  0.59197100  0.14359900  1
  P  P7  1  0.12775900  0.59496300  0.60776400  1
  O  O0  1  0.58276400  0.04259900  0.37892700  1
  O  O1  1  0.64097500  0.05228300  0.87111700  1
  O  O2  1  0.35827000  0.94723100  0.12874400  1
  O  O3  1  0.41798400  0.95790500  0.62115900  1
  O  O4  1  0.67931000  0.12608200  0.12842200  1
  O  O5  1  0.72533500  0.14069100  0.62241500  1
  O  O6  1  0.27574700  0.85956700  0.37762300  1
  O  O7  1  0.31910300  0.87383700  0.87130300  1
  O  O8  1  0.17924000  0.37957200  0.38508600  1
  O  O9  1  0.17319500  0.38425300  0.86362500  1
  O  O10  1  0.82650000  0.61572700  0.13668600  1
  O  O11  1  0.82163700  0.62070500  0.61472000  1
  O  O12  1  0.23388600  0.44177200  0.13566400  1
  O  O13  1  0.21070900  0.43984200  0.62279500  1
  O  O14  1  0.79026300  0.56034800  0.37718300  1
  O  O15  1  0.76505500  0.55799600  0.86476100  1
  O  O16  1  0.21903000  0.17320500  0.03347100  1
  O  O17  1  0.24847800  0.18093600  0.53339300  1
  O  O18  1  0.20912600  0.17130900  0.21665900  1
  O  O19  1  0.25192400  0.17744900  0.71583400  1
  O  O20  1  0.74909900  0.82305700  0.28424400  1
  O  O21  1  0.78982300  0.82808400  0.78344700  1
  O  O22  1  0.75245800  0.81948500  0.46667900  1
  O  O23  1  0.77911500  0.82651900  0.96654900  1
  O  O24  1  0.76154900  0.36398600  0.50212600  1
  O  O25  1  0.72660000  0.32348900  0.93912900  1
  O  O26  1  0.72434600  0.32854300  0.31211800  1
  O  O27  1  0.76040400  0.35652400  0.74774600  1
  O  O28  1  0.27269400  0.67616100  0.06079200  1
  O  O29  1  0.23946700  0.63618700  0.49780600  1
  O  O30  1  0.24003000  0.64364000  0.25221700  1
  O  O31  1  0.27647500  0.67153000  0.68782200  1
loop_
_geom_bond_atom_site_label_1
_geom_bond_atom_site_label_2
_geom_bond_distance
_geom_bond_site_symmetry_2
Co0 O1 1.966447 1_555
Co0 O9 1.975773 1_555
Co0 O25 2.012005 1_555
Co0 O16 2.071712 1_556
Co0 O19 2.581018 1_555
Co1 O11 1.937734 1_555
Co1 O3 1.952406 1_555
Co1 O31 2.013009 1_555
Co1 O21 2.039564 1_555
Co2 O8 1.934252 1_555
Co2 O0 1.954237 1_555
Co2 O26 2.014822 1_555
Co2 O18 2.040607 1_555
Co3 O10 1.968755 1_555
Co3 O2 1.971790 1_555
Co3 O28 2.011932 1_555
Co3 O23 2.068332 1_554
Co3 O20 2.587005 1_555
O0 P2 1.500924 1_545
O1 P3 1.511189 1_545
O2 P0 1.510985 1_565
O3 P1 1.500626 1_565
O4 P0 1.534002 1_555
O4 Sb0 2.177175 1_555
O5 P1 1.558252 1_555
O5 Sb1 2.026511 1_555
O6 P2 1.558396 1_555
O6 Sb2 2.026780 1_555
O7 P3 1.533741 1_555
O7 Sb3 2.178302 1_555
O8 P4 1.512335 1_455
O9 P5 1.528478 1_455
O10 P6 1.528663 1_655
O11 P7 1.511263 1_655
O12 P6 1.539085 1_555
O12 Sb0 2.266388 1_455
O13 P7 1.578031 1_555
O13 Sb1 2.009602 1_455
O14 P4 1.577746 1_555
O14 Sb2 2.010264 1_655
O15 P5 1.539553 1_555
O15 Sb3 2.264532 1_655
O16 P0 1.601835 1_555
O16 Sb0 2.207992 1_455
O17 P1 1.595374 1_555
O17 Sb1 2.058790 1_455
O18 P0 1.597312 1_555
O18 Sb0 2.225747 1_455
O19 P1 1.599144 1_555
O19 Sb1 2.068890 1_455
O20 P2 1.598745 1_555
O20 Sb2 2.068570 1_655
O21 P3 1.597607 1_555
O21 Sb3 2.222850 1_655
O22 P2 1.595703 1_555
O22 Sb2 2.059182 1_655
O23 P3 1.600678 1_555
O23 Sb3 2.211173 1_655
O24 P4 1.595059 1_555
O24 Sb1 1.999863 1_555
O25 P5 1.553539 1_555
O25 Sb0 2.547663 1_556
O26 P4 1.538877 1_555
O26 Sb0 2.646732 1_555
O27 P5 1.617936 1_555
O27 Sb1 1.979614 1_555
O28 P6 1.553754 1_555
O28 Sb3 2.548384 1_554
O29 P7 1.595279 1_555
O29 Sb2 1.999971 1_555
O30 P6 1.617812 1_555
O30 Sb2 1.979833 1_555
O31 P7 1.539082 1_555
O31 Sb3 2.649443 1_555
