# generated using pymatgen
data_CaTi2CoO7
_symmetry_space_group_name_H-M   'P 1'
_cell_length_a   14.70044000
_cell_length_b   7.02555500
_cell_length_c   11.16892589
_cell_angle_alpha   76.16574376
_cell_angle_beta   90.00000000
_cell_angle_gamma   90.00000000
_symmetry_Int_Tables_number   1
_chemical_formula_structural   CaTi2CoO7
_chemical_formula_sum   'Ca8 Ti16 Co8 O56'
_cell_volume   1120.05101802
_cell_formula_units_Z   8
loop_
 _symmetry_equiv_pos_site_id
 _symmetry_equiv_pos_as_xyz
  1  'x, y, z'
loop_
 _atom_site_type_symbol
 _atom_site_label
 _atom_site_symmetry_multiplicity
 _atom_site_fract_x
 _atom_site_fract_y
 _atom_site_fract_z
 _atom_site_occupancy
  Ca  Ca0  1  0.50544500  0.93337800  0.73012900  1
  Ca  Ca1  1  0.87839000  0.67253200  0.97428300  1
  Ca  Ca2  1  0.37839000  0.32746800  0.52571700  1
  Ca  Ca3  1  0.12161000  0.32746800  0.02571700  1
  Ca  Ca4  1  0.62161000  0.67253200  0.47428300  1
  Ca  Ca5  1  0.99455500  0.93337800  0.23012900  1
  Ca  Ca6  1  0.49455500  0.06662200  0.26987100  1
  Ca  Ca7  1  0.00544500  0.06662200  0.76987100  1
  Ti  Ti0  1  0.86546900  0.16396500  0.97673800  1
  Ti  Ti1  1  0.01135700  0.58797700  0.68785100  1
  Ti  Ti2  1  0.48864300  0.58797700  0.18785100  1
  Ti  Ti3  1  0.98864300  0.41202300  0.31214900  1
  Ti  Ti4  1  0.71195800  0.49396000  0.79319100  1
  Ti  Ti5  1  0.21195800  0.50604000  0.70680900  1
  Ti  Ti6  1  0.28804200  0.50604000  0.20680900  1
  Ti  Ti7  1  0.78804200  0.49396000  0.29319100  1
  Ti  Ti8  1  0.51135700  0.41202300  0.81214900  1
  Ti  Ti9  1  0.14219900  0.12712900  0.47182800  1
  Ti  Ti10  1  0.64219900  0.87287100  0.02817200  1
  Ti  Ti11  1  0.85780100  0.87287100  0.52817200  1
  Ti  Ti12  1  0.36546900  0.83603500  0.52326200  1
  Ti  Ti13  1  0.63453100  0.16396500  0.47673800  1
  Ti  Ti14  1  0.13453100  0.83603500  0.02326200  1
  Ti  Ti15  1  0.35780100  0.12712900  0.97182800  1
  Co  Co0  1  0.67105700  0.37814800  0.08099700  1
  Co  Co1  1  0.17105700  0.62185200  0.41900300  1
  Co  Co2  1  0.32894300  0.62185200  0.91900300  1
  Co  Co3  1  0.82894300  0.37814800  0.58099700  1
  Co  Co4  1  0.75663000  0.99405600  0.25104000  1
  Co  Co5  1  0.25663000  0.00594400  0.24896000  1
  Co  Co6  1  0.24337000  0.00594400  0.74896000  1
  Co  Co7  1  0.74337000  0.99405600  0.75104000  1
  O  O0  1  0.98220900  0.22139300  0.96070000  1
  O  O1  1  0.48220900  0.77860700  0.53930000  1
  O  O2  1  0.01779100  0.77860700  0.03930000  1
  O  O3  1  0.51779100  0.22139300  0.46070000  1
  O  O4  1  0.84734300  0.00776300  0.86791000  1
  O  O5  1  0.34734300  0.99223700  0.63209000  1
  O  O6  1  0.15265700  0.99223700  0.13209000  1
  O  O7  1  0.65265700  0.00776300  0.36791000  1
  O  O8  1  0.85036200  0.99678500  0.13134600  1
  O  O9  1  0.35036200  0.00321500  0.36865400  1
  O  O10  1  0.14963800  0.00321500  0.86865400  1
  O  O11  1  0.64963800  0.99678500  0.63134600  1
  O  O12  1  0.28515400  0.35652100  0.93591200  1
  O  O13  1  0.78515400  0.64347900  0.56408800  1
  O  O14  1  0.71484600  0.64347900  0.06408800  1
  O  O15  1  0.21484600  0.35652100  0.43591200  1
  O  O16  1  0.35443500  0.01650300  0.13616200  1
  O  O17  1  0.85443500  0.98349700  0.36383800  1
  O  O18  1  0.64556500  0.98349700  0.86383800  1
  O  O19  1  0.14556500  0.01650300  0.63616200  1
  O  O20  1  0.33436800  0.92460500  0.89090800  1
  O  O21  1  0.43300500  0.61839100  0.82556400  1
  O  O22  1  0.83436800  0.07539500  0.60909200  1
  O  O23  1  0.16563200  0.92460500  0.39090800  1
  O  O24  1  0.47392700  0.27520500  0.70758900  1
  O  O25  1  0.97392700  0.72479500  0.79241100  1
  O  O26  1  0.52607300  0.72479500  0.29241100  1
  O  O27  1  0.02607300  0.27520500  0.20758900  1
  O  O28  1  0.47128100  0.21696800  0.95595300  1
  O  O29  1  0.97128100  0.78303200  0.54404700  1
  O  O30  1  0.52871900  0.78303200  0.04404700  1
  O  O31  1  0.02871900  0.21696800  0.45595300  1
  O  O32  1  0.89492800  0.57003000  0.20584700  1
  O  O33  1  0.39492800  0.42997000  0.29415300  1
  O  O34  1  0.10507200  0.42997000  0.79415300  1
  O  O35  1  0.60507200  0.57003000  0.70584700  1
  O  O36  1  0.75471700  0.29517300  0.21662800  1
  O  O37  1  0.25471700  0.70482700  0.28337200  1
  O  O38  1  0.24528300  0.70482700  0.78337200  1
  O  O39  1  0.74528300  0.29517300  0.71662800  1
  O  O40  1  0.70593300  0.38819100  0.44699100  1
  O  O41  1  0.20593300  0.61180900  0.05300900  1
  O  O42  1  0.29406700  0.61180900  0.55300900  1
  O  O43  1  0.79406700  0.38819100  0.94699100  1
  O  O44  1  0.72962400  0.73475300  0.28321000  1
  O  O45  1  0.22962400  0.26524700  0.21679000  1
  O  O46  1  0.27037600  0.26524700  0.71679000  1
  O  O47  1  0.77037600  0.73475300  0.78321000  1
  O  O48  1  0.87672400  0.41070000  0.42146000  1
  O  O49  1  0.37672400  0.58930000  0.07854000  1
  O  O50  1  0.12327600  0.58930000  0.57854000  1
  O  O51  1  0.62327600  0.41070000  0.92146000  1
  O  O52  1  0.06699500  0.61839100  0.32556400  1
  O  O53  1  0.56699500  0.38160900  0.17443600  1
  O  O54  1  0.93300500  0.38160900  0.67443600  1
  O  O55  1  0.66563200  0.07539500  0.10909200  1
loop_
_geom_bond_atom_site_label_1
_geom_bond_atom_site_label_2
_geom_bond_distance
_geom_bond_site_symmetry_2
Ca0 O11 2.381974 1_555
Ca0 O24 2.399217 1_565
Ca0 O21 2.457500 1_555
Ca0 O5 2.560317 1_555
Ca0 O18 2.616971 1_555
Ca0 O1 2.636284 1_555
Ca1 O2 2.353923 1_656
Ca1 O4 2.414243 1_565
Ca1 O25 2.424214 1_555
Ca1 O43 2.431319 1_555
Ca1 O32 2.525085 1_556
Ca1 O14 2.594194 1_556
Ca1 O47 2.611615 1_555
Ca2 O3 2.353923 1_555
Ca2 O5 2.414243 1_545
Ca2 O24 2.424214 1_555
Ca2 O42 2.431319 1_555
Ca2 O33 2.525085 1_555
Ca2 O15 2.594194 1_555
Ca2 O46 2.611615 1_555
Ca3 O0 2.353923 1_454
Ca3 O6 2.414243 1_545
Ca3 O27 2.424214 1_555
Ca3 O41 2.431319 1_555
Ca3 O34 2.525085 1_554
Ca3 O12 2.594194 1_554
Ca3 O45 2.611615 1_555
Ca4 O1 2.353923 1_555
Ca4 O7 2.414243 1_565
Ca4 O26 2.424214 1_555
Ca4 O40 2.431319 1_555
Ca4 O35 2.525085 1_555
Ca4 O13 2.594194 1_555
Ca4 O44 2.611615 1_555
Ca5 O8 2.381974 1_555
Ca5 O27 2.399217 1_665
Ca5 O52 2.457500 1_655
Ca5 O6 2.560317 1_655
Ca5 O17 2.616971 1_555
Ca5 O2 2.636284 1_655
Ca6 O9 2.381974 1_555
Ca6 O26 2.399217 1_545
Ca6 O53 2.457500 1_555
Ca6 O7 2.560317 1_555
Ca6 O16 2.616971 1_555
Ca6 O3 2.636284 1_555
Ca7 O10 2.381974 1_555
Ca7 O25 2.399217 1_445
Ca7 O54 2.457500 1_455
Ca7 O4 2.560317 1_455
Ca7 O19 2.616971 1_555
Ca7 O0 2.636284 1_455
Co0 O53 1.855266 1_555
Co0 O51 1.877713 1_554
Co0 O36 1.929973 1_555
Co0 O14 1.938180 1_555
Co0 O55 2.076006 1_555
Co0 O43 2.337637 1_554
Co1 O52 1.855266 1_555
Co1 O50 1.877713 1_555
Co1 O37 1.929973 1_555
Co1 O15 1.938180 1_555
Co1 O23 2.076006 1_555
Co1 O42 2.337637 1_555
Co2 O21 1.855266 1_555
Co2 O49 1.877713 1_556
Co2 O38 1.929973 1_555
Co2 O12 1.938180 1_555
Co2 O20 2.076006 1_555
Co2 O41 2.337637 1_556
Co3 O54 1.855266 1_555
Co3 O48 1.877713 1_555
Co3 O39 1.929973 1_555
Co3 O13 1.938180 1_555
Co3 O22 2.076006 1_555
Co3 O40 2.337637 1_555
Co4 O44 1.814509 1_555
Co4 O17 1.901365 1_555
Co4 O8 1.916742 1_555
Co4 O7 2.027161 1_565
Co4 O55 2.048481 1_565
Co4 O36 2.057929 1_565
Co5 O45 1.814509 1_555
Co5 O16 1.901365 1_555
Co5 O9 1.916742 1_555
Co5 O6 2.027161 1_545
Co5 O23 2.048481 1_545
Co5 O37 2.057929 1_545
Co6 O46 1.814509 1_555
Co6 O19 1.901365 1_555
Co6 O10 1.916742 1_555
Co6 O5 2.027161 1_545
Co6 O20 2.048481 1_545
Co6 O38 2.057929 1_545
Co7 O47 1.814509 1_555
Co7 O18 1.901365 1_555
Co7 O11 1.916742 1_555
Co7 O4 2.027161 1_565
Co7 O22 2.048481 1_565
Co7 O39 2.057929 1_565
O0 Ti0 1.762217 1_555
O1 Ti12 1.762217 1_555
O2 Ti14 1.762217 1_555
O3 Ti13 1.762217 1_555
O4 Ti0 1.841365 1_555
O5 Ti12 1.841365 1_555
O6 Ti14 1.841365 1_555
O7 Ti13 1.841365 1_555
O8 Ti0 1.854930 1_564
O9 Ti12 1.854930 1_545
O10 Ti14 1.854930 1_546
O11 Ti13 1.854930 1_565
O12 Ti15 1.894604 1_555
O13 Ti11 1.894604 1_555
O14 Ti10 1.894604 1_555
O15 Ti9 1.894604 1_555
O16 Ti15 1.814696 1_554
O17 Ti11 1.814696 1_555
O18 Ti10 1.814696 1_556
O19 Ti9 1.814696 1_555
O20 Ti15 1.890757 1_565
O21 Ti8 1.885488 1_555
O22 Ti11 1.890757 1_545
O23 Ti9 1.890757 1_565
O24 Ti8 1.768431 1_555
O25 Ti1 1.768431 1_655
O26 Ti2 1.768431 1_555
O27 Ti3 1.768431 1_455
O28 Ti15 1.777415 1_555
O28 Ti8 1.937030 1_555
O29 Ti11 1.777415 1_555
O29 Ti1 1.937030 1_655
O30 Ti10 1.777415 1_555
O30 Ti2 1.937030 1_555
O31 Ti9 1.777415 1_555
O31 Ti3 1.937030 1_455
O32 Ti7 1.859263 1_555
O32 Ti3 1.977259 1_555
O33 Ti6 1.859263 1_555
O33 Ti2 1.977259 1_555
O34 Ti5 1.859263 1_555
O34 Ti1 1.977259 1_555
O35 Ti4 1.859263 1_555
O35 Ti8 1.977259 1_555
O36 Ti7 1.868910 1_555
O37 Ti6 1.868910 1_555
O38 Ti5 1.868910 1_555
O39 Ti4 1.868910 1_555
O40 Ti13 1.855651 1_555
O40 Ti7 2.085534 1_555
O41 Ti14 1.855651 1_555
O41 Ti6 2.085534 1_555
O42 Ti12 1.855651 1_555
O42 Ti5 2.085534 1_555
O43 Ti0 1.855651 1_555
O43 Ti4 2.085534 1_555
O44 Ti7 1.876590 1_555
O45 Ti6 1.876590 1_555
O46 Ti5 1.876590 1_555
O47 Ti4 1.876590 1_555
O48 Ti7 1.921813 1_555
O48 Ti3 2.047462 1_555
O49 Ti6 1.921813 1_555
O49 Ti2 2.047462 1_555
O50 Ti5 1.921813 1_555
O50 Ti1 2.047462 1_555
O51 Ti4 1.921813 1_555
O51 Ti8 2.047462 1_555
O52 Ti3 1.885488 1_455
O53 Ti2 1.885488 1_555
O54 Ti1 1.885488 1_655
O55 Ti10 1.890757 1_545
