# generated using pymatgen
data_HfGePd
_symmetry_space_group_name_H-M   'P 1'
_cell_length_a   3.93676441
_cell_length_b   6.66890489
_cell_length_c   11.45592734
_cell_angle_alpha   90.08053057
_cell_angle_beta   90.00000000
_cell_angle_gamma   90.00000000
_symmetry_Int_Tables_number   1
_chemical_formula_structural   HfGePd
_chemical_formula_sum   'Hf6 Ge6 Pd6'
_cell_volume   300.76255852
_cell_formula_units_Z   6
loop_
 _symmetry_equiv_pos_site_id
 _symmetry_equiv_pos_as_xyz
  1  'x, y, z'
loop_
 _atom_site_type_symbol
 _atom_site_label
 _atom_site_symmetry_multiplicity
 _atom_site_fract_x
 _atom_site_fract_y
 _atom_site_fract_z
 _atom_site_occupancy
  Hf  Hf0  1  0.25000000  0.66190292  0.92084199  1
  Hf  Hf1  1  0.75000000  0.33809708  0.07915801  1
  Hf  Hf2  1  0.25000000  0.53266120  0.62197362  1
  Hf  Hf3  1  0.75000000  0.46733880  0.37802638  1
  Hf  Hf4  1  0.25000000  0.03037475  0.70781631  1
  Hf  Hf5  1  0.75000000  0.96962525  0.29218369  1
  Ge  Ge0  1  0.25000000  0.74923925  0.41570280  1
  Ge  Ge1  1  0.75000000  0.25076075  0.58429720  1
  Ge  Ge2  1  0.25000000  0.26202159  0.25003021  1
  Ge  Ge3  1  0.75000000  0.73797841  0.74996979  1
  Ge  Ge4  1  0.25000000  0.25172220  0.91599741  1
  Ge  Ge5  1  0.75000000  0.74827780  0.08400259  1
  Pd  Pd0  1  0.75000000  0.99673086  0.90864983  1
  Pd  Pd1  1  0.25000000  0.00326914  0.09135017  1
  Pd  Pd2  1  0.75000000  0.85816242  0.54167189  1
  Pd  Pd3  1  0.25000000  0.14183758  0.45832811  1
  Pd  Pd4  1  0.75000000  0.37223923  0.79402684  1
  Pd  Pd5  1  0.25000000  0.62776077  0.20597316  1
loop_
_geom_bond_atom_site_label_1
_geom_bond_atom_site_label_2
_geom_bond_distance
_geom_bond_site_symmetry_2
Hf0 Pd0 2.980086 1_455
Hf0 Pd0 2.980086 1_555
Hf0 Pd1 2.997603 1_566
Hf0 Pd4 3.115901 1_455
Hf0 Pd4 3.115901 1_555
Hf0 Pd5 3.274687 1_556
Hf1 Pd1 2.980086 1_555
Hf1 Pd1 2.980086 1_655
Hf1 Pd0 2.997603 1_544
Hf1 Pd5 3.115901 1_555
Hf1 Pd5 3.115901 1_655
Hf1 Pd4 3.274687 1_554
Hf2 Pd4 2.984957 1_455
Hf2 Pd4 2.984957 1_555
Hf2 Pd2 3.072216 1_455
Hf2 Pd2 3.072216 1_555
Hf2 Pd3 3.208418 1_555
Hf3 Pd5 2.984957 1_555
Hf3 Pd5 2.984957 1_655
Hf3 Pd3 3.072216 1_555
Hf3 Pd3 3.072216 1_655
Hf3 Pd2 3.208418 1_555
Hf4 Pd3 2.954211 1_555
Hf4 Pd2 2.968174 1_545
Hf4 Pd2 2.968174 1_445
Hf4 Pd0 3.036396 1_545
Hf4 Pd0 3.036396 1_445
Hf4 Pd4 3.168811 1_455
Hf4 Pd4 3.168811 1_555
Hf5 Pd2 2.954211 1_555
Hf5 Pd3 2.968174 1_565
Hf5 Pd3 2.968174 1_665
Hf5 Pd1 3.036396 1_565
Hf5 Pd1 3.036396 1_665
Hf5 Pd5 3.168811 1_655
Hf5 Pd5 3.168811 1_555
Ge0 Pd5 2.534473 1_555
Ge0 Pd2 2.545929 1_455
Ge0 Pd2 2.545929 1_555
Ge0 Pd3 2.662674 1_565
Ge0 Hf3 2.755507 1_555
Ge0 Hf3 2.755507 1_455
Ge0 Hf2 2.771207 1_555
Ge0 Hf5 2.835981 1_455
Ge0 Hf5 2.835981 1_555
Ge1 Pd4 2.534473 1_555
Ge1 Pd3 2.545929 1_555
Ge1 Pd3 2.545929 1_655
Ge1 Pd2 2.662674 1_545
Ge1 Hf2 2.755507 1_655
Ge1 Hf2 2.755507 1_555
Ge1 Hf3 2.771207 1_555
Ge1 Hf4 2.835981 1_655
Ge1 Hf4 2.835981 1_555
Ge2 Pd5 2.491447 1_555
Ge2 Pd1 2.504667 1_555
Ge2 Pd3 2.518321 1_555
Ge2 Hf3 2.809588 1_455
Ge2 Hf3 2.809588 1_555
Ge2 Hf5 2.812958 1_445
Ge2 Hf5 2.812958 1_545
Ge2 Hf1 2.822502 1_455
Ge2 Hf1 2.822502 1_555
Ge3 Pd4 2.491447 1_555
Ge3 Pd0 2.504667 1_555
Ge3 Pd2 2.518321 1_555
Ge3 Hf2 2.809588 1_655
Ge3 Hf2 2.809588 1_555
Ge3 Hf4 2.812958 1_565
Ge3 Hf4 2.812958 1_665
Ge3 Hf0 2.822502 1_555
Ge3 Hf0 2.822502 1_655
Ge4 Pd4 2.544809 1_455
Ge4 Pd4 2.544809 1_555
Ge4 Pd0 2.602490 1_545
Ge4 Pd0 2.602490 1_445
Ge4 Pd1 2.605782 1_556
Ge4 Hf0 2.735941 1_555
Ge4 Hf1 2.774356 1_556
Ge4 Hf1 2.774356 1_456
Ge4 Hf4 2.803015 1_555
Ge5 Pd5 2.544809 1_555
Ge5 Pd5 2.544809 1_655
Ge5 Pd1 2.602490 1_665
Ge5 Pd1 2.602490 1_565
Ge5 Pd0 2.605782 1_554
Ge5 Hf1 2.735941 1_555
Ge5 Hf0 2.774356 1_654
Ge5 Hf0 2.774356 1_554
Ge5 Hf5 2.803015 1_555
Pd0 Pd4 2.829253 1_565
Pd0 Pd1 2.873470 1_566
Pd0 Pd1 2.873470 1_666
Pd1 Pd5 2.829253 1_545
Pd2 Pd3 2.893117 1_665
Pd2 Pd3 2.893117 1_565
