# generated using pymatgen
data_Zn6B3HO11
_symmetry_space_group_name_H-M   'P 1'
_cell_length_a   8.29683050
_cell_length_b   10.02175045
_cell_length_c   8.29683042
_cell_angle_alpha   65.54734861
_cell_angle_beta   119.99999400
_cell_angle_gamma   114.45265167
_symmetry_Int_Tables_number   1
_chemical_formula_structural   Zn6B3HO11
_chemical_formula_sum   'Zn12 B6 H2 O22'
_cell_volume   524.77972513
_cell_formula_units_Z   2
loop_
 _symmetry_equiv_pos_site_id
 _symmetry_equiv_pos_as_xyz
  1  'x, y, z'
loop_
 _atom_site_type_symbol
 _atom_site_label
 _atom_site_symmetry_multiplicity
 _atom_site_fract_x
 _atom_site_fract_y
 _atom_site_fract_z
 _atom_site_occupancy
  Zn  Zn0  1  0.13804300  0.91444600  0.80898500  1
  Zn  Zn1  1  0.58538800  0.91444600  0.86195700  1
  Zn  Zn2  1  0.19101500  0.91444600  0.41461200  1
  Zn  Zn3  1  0.85612400  0.08743800  0.19497000  1
  Zn  Zn4  1  0.42628300  0.08743800  0.14387600  1
  Zn  Zn5  1  0.80503000  0.08743800  0.57371700  1
  Zn  Zn6  1  0.08538900  0.41444600  0.30898500  1
  Zn  Zn7  1  0.69101500  0.41444600  0.36195700  1
  Zn  Zn8  1  0.63804300  0.41444600  0.91461200  1
  Zn  Zn9  1  0.92628300  0.58743800  0.69497000  1
  Zn  Zn10  1  0.30503000  0.58743800  0.64387600  1
  Zn  Zn11  1  0.35612400  0.58743800  0.07371700  1
  B  B0  1  0.22827400  0.25038600  0.72857300  1
  B  B1  1  0.75068500  0.25038600  0.77172600  1
  B  B2  1  0.27142700  0.25038600  0.24931500  1
  B  B3  1  0.77142700  0.75038600  0.27172600  1
  B  B4  1  0.25068500  0.75038600  0.22857300  1
  B  B5  1  0.72827400  0.75038600  0.74931500  1
  H  H0  1  0.25866200  0.77598600  0.74133800  1
  H  H1  1  0.75866200  0.27598600  0.24133800  1
  O  O0  1  0.29934500  0.89803500  0.70065500  1
  O  O1  1  0.70494900  0.11484700  0.29505100  1
  O  O2  1  0.79934500  0.39803500  0.20065500  1
  O  O3  1  0.20494900  0.61484700  0.79505100  1
  O  O4  1  0.89540300  0.75002800  0.75016600  1
  O  O5  1  0.60479100  0.75002800  0.10459700  1
  O  O6  1  0.24983400  0.75002800  0.39520900  1
  O  O7  1  0.10479100  0.25002800  0.25016600  1
  O  O8  1  0.39540300  0.25002800  0.89520900  1
  O  O9  1  0.74983400  0.25002800  0.60459700  1
  O  O10  1  0.08946400  0.11537700  0.69870900  1
  O  O11  1  0.72462200  0.11537700  0.91053600  1
  O  O12  1  0.30129100  0.11537700  0.27537800  1
  O  O13  1  0.90933200  0.88636900  0.30010900  1
  O  O14  1  0.27714500  0.88636900  0.09066800  1
  O  O15  1  0.69989100  0.88636900  0.72285500  1
  O  O16  1  0.22462200  0.61537700  0.19870900  1
  O  O17  1  0.80129100  0.61537700  0.41053600  1
  O  O18  1  0.58946400  0.61537700  0.77537800  1
  O  O19  1  0.77714500  0.38636900  0.80010900  1
  O  O20  1  0.19989100  0.38636900  0.59066800  1
  O  O21  1  0.40933200  0.38636900  0.22285500  1
loop_
_geom_bond_atom_site_label_1
_geom_bond_atom_site_label_2
_geom_bond_distance
_geom_bond_site_symmetry_2
B0 O8 1.384610 1_555
B0 O10 1.385850 1_555
B0 O20 1.388213 1_555
B1 O9 1.384609 1_555
B1 O11 1.385850 1_555
B1 O19 1.388216 1_555
B2 O7 1.384609 1_555
B2 O12 1.385850 1_555
B2 O21 1.388212 1_555
B3 O5 1.384610 1_555
B3 O17 1.385850 1_555
B3 O13 1.388213 1_555
B4 O6 1.384609 1_555
B4 O16 1.385850 1_555
B4 O14 1.388212 1_555
B5 O4 1.384609 1_555
B5 O18 1.385850 1_555
B5 O15 1.388216 1_555
H0 O0 1.074376 1_555
H0 O3 1.418478 1_555
H1 O2 1.074376 1_555
H1 O1 1.418478 1_555
O0 Zn0 2.033070 1_555
O0 Zn2 2.033070 1_555
O0 Zn1 2.033070 1_555
O1 Zn3 1.963083 1_555
O1 Zn4 1.963090 1_555
O1 Zn5 1.963091 1_555
O2 Zn7 2.033070 1_555
O2 Zn8 2.033070 1_554
O2 Zn6 2.033077 1_655
O3 Zn10 1.963083 1_555
O3 Zn11 1.963090 1_556
O3 Zn9 1.963091 1_455
O4 Zn0 1.985714 1_655
O4 Zn9 2.002783 1_555
O5 Zn1 1.985714 1_554
O5 Zn11 2.002789 1_555
O6 Zn2 1.985713 1_555
O6 Zn10 2.002788 1_555
O7 Zn6 1.985709 1_555
O7 Zn3 2.002788 1_455
O8 Zn8 1.985714 1_555
O8 Zn4 2.002789 1_556
O9 Zn7 1.985714 1_555
O9 Zn5 2.002783 1_555
O10 Zn0 1.957637 1_545
O10 Zn5 1.992241 1_455
O11 Zn1 1.957637 1_545
O11 Zn3 1.992241 1_556
O12 Zn2 1.957637 1_545
O12 Zn4 1.992234 1_555
O13 Zn2 1.974907 1_655
O13 Zn3 1.977988 1_565
O14 Zn0 1.974906 1_554
O14 Zn4 1.977988 1_565
O15 Zn1 1.974899 1_555
O15 Zn5 1.977988 1_565
O16 Zn6 1.957634 1_555
O16 Zn11 1.992234 1_555
O17 Zn7 1.957637 1_555
O17 Zn9 1.992241 1_555
O18 Zn8 1.957637 1_555
O18 Zn10 1.992241 1_555
O19 Zn8 1.974899 1_555
O19 Zn9 1.977988 1_555
O20 Zn6 1.974907 1_555
O20 Zn10 1.977988 1_555
O21 Zn7 1.974906 1_555
O21 Zn11 1.977988 1_555
