# generated using pymatgen
data_Ba5Dy8Zn4O21
_symmetry_space_group_name_H-M   'P 1'
_cell_length_a   10.24409088
_cell_length_b   10.24409088
_cell_length_c   10.24409088
_cell_angle_alpha   94.53034897
_cell_angle_beta   94.53034897
_cell_angle_gamma   147.35465266
_symmetry_Int_Tables_number   1
_chemical_formula_structural   Ba5Dy8Zn4O21
_chemical_formula_sum   'Ba5 Dy8 Zn4 O21'
_cell_volume   556.53714492
_cell_formula_units_Z   1
loop_
 _symmetry_equiv_pos_site_id
 _symmetry_equiv_pos_as_xyz
  1  'x, y, z'
loop_
 _atom_site_type_symbol
 _atom_site_label
 _atom_site_symmetry_multiplicity
 _atom_site_fract_x
 _atom_site_fract_y
 _atom_site_fract_z
 _atom_site_occupancy
  Ba  Ba0  1  0.46512700  0.86075800  0.32588500  1
  Ba  Ba1  1  0.13924200  0.46512700  0.60436800  1
  Ba  Ba2  1  0.86075800  0.53487300  0.39563200  1
  Ba  Ba3  1  0.53487300  0.13924200  0.67411500  1
  Ba  Ba4  1  0.00000000  0.00000000  0.00000000  1
  Dy  Dy0  1  0.58866700  0.64217000  0.23083700  1
  Dy  Dy1  1  0.35783000  0.58866700  0.94649700  1
  Dy  Dy2  1  0.64217000  0.41133300  0.05350300  1
  Dy  Dy3  1  0.41133300  0.35783000  0.76916300  1
  Dy  Dy4  1  0.75269700  0.83214700  0.58484400  1
  Dy  Dy5  1  0.16785300  0.75269700  0.92055000  1
  Dy  Dy6  1  0.83214700  0.24730300  0.07945000  1
  Dy  Dy7  1  0.24730300  0.16785300  0.41515600  1
  Zn  Zn0  1  0.95938500  0.74918000  0.70856600  1
  Zn  Zn1  1  0.25082000  0.95938500  0.21020500  1
  Zn  Zn2  1  0.74918000  0.04061500  0.78979500  1
  Zn  Zn3  1  0.04061500  0.25082000  0.29143400  1
  O  O0  1  0.09959200  0.99046500  0.59429900  1
  O  O1  1  0.50529300  0.09959200  0.10912700  1
  O  O2  1  0.99046500  0.39616600  0.89087300  1
  O  O3  1  0.39616600  0.50529300  0.40570100  1
  O  O4  1  0.90040800  0.00953500  0.40570100  1
  O  O5  1  0.49470700  0.90040800  0.89087300  1
  O  O6  1  0.00953500  0.60383400  0.10912700  1
  O  O7  1  0.60383400  0.49470700  0.59429900  1
  O  O8  1  0.92782300  0.79779000  0.22564400  1
  O  O9  1  0.70217900  0.92782300  0.13003300  1
  O  O10  1  0.79779000  0.57214600  0.86996700  1
  O  O11  1  0.57214600  0.70217900  0.77435600  1
  O  O12  1  0.07217700  0.20221000  0.77435600  1
  O  O13  1  0.29782100  0.07217700  0.86996700  1
  O  O14  1  0.20221000  0.42785400  0.13003300  1
  O  O15  1  0.42785400  0.29782100  0.22564400  1
  O  O16  1  0.37197800  0.03727100  0.40924900  1
  O  O17  1  0.50000000  0.50000000  0.00000000  1
  O  O18  1  0.62802200  0.96272900  0.59075100  1
  O  O19  1  0.03727100  0.62802200  0.66529300  1
  O  O20  1  0.96272900  0.37197800  0.33470700  1
loop_
_geom_bond_atom_site_label_1
_geom_bond_atom_site_label_2
_geom_bond_distance
_geom_bond_site_symmetry_2
Ba0 O18 2.671947 1_555
Ba0 O16 2.774891 1_565
Ba0 O20 2.883482 1_565
Ba0 O20 2.883482 1_455
Ba0 O14 2.927835 1_555
Ba0 O9 2.927835 1_555
Ba0 O1 3.223838 1_565
Ba0 O6 3.223838 1_555
Ba0 O4 3.264501 1_565
Ba0 O3 3.264501 1_555
Ba1 O19 2.671949 1_555
Ba1 O20 2.774882 1_455
Ba1 O18 2.883478 1_555
Ba1 O18 2.883484 1_445
Ba1 O11 2.927839 1_555
Ba1 O12 2.927842 1_555
Ba1 O3 3.223831 1_555
Ba1 O4 3.223833 1_455
Ba1 O5 3.264508 1_555
Ba1 O2 3.264511 1_455
Ba2 O20 2.671949 1_555
Ba2 O19 2.774882 1_655
Ba2 O16 2.883478 1_555
Ba2 O16 2.883484 1_665
Ba2 O15 2.927839 1_555
Ba2 O8 2.927842 1_555
Ba2 O7 3.223831 1_555
Ba2 O0 3.223833 1_655
Ba2 O1 3.264508 1_555
Ba2 O6 3.264511 1_655
Ba3 O16 2.671947 1_555
Ba3 O18 2.774891 1_545
Ba3 O19 2.883482 1_545
Ba3 O19 2.883482 1_655
Ba3 O13 2.927835 1_555
Ba3 O10 2.927835 1_555
Ba3 O2 3.223838 1_555
Ba3 O5 3.223838 1_545
Ba3 O7 3.264501 1_555
Ba3 O0 3.264501 1_545
Ba4 O17 2.879066 1_445
Ba4 O17 2.879066 1_555
Ba4 O11 2.937319 1_444
Ba4 O13 2.937319 1_554
Ba4 O10 2.937319 1_444
Ba4 O12 2.937319 1_554
Ba4 O15 2.937319 1_555
Ba4 O8 2.937319 1_445
Ba4 O9 2.937319 1_445
Ba4 O14 2.937319 1_555
Dy0 O8 2.308763 1_555
Dy0 O15 2.308763 1_555
Dy0 O3 2.315598 1_555
Dy0 O4 2.315598 1_565
Dy0 O17 2.329563 1_555
Dy0 O9 2.432731 1_555
Dy0 O14 2.432731 1_555
Dy1 O9 2.308763 1_556
Dy1 O14 2.308763 1_556
Dy1 O5 2.315598 1_555
Dy1 O2 2.315598 1_455
Dy1 O17 2.329563 1_556
Dy1 O11 2.432731 1_555
Dy1 O12 2.432731 1_555
Dy2 O10 2.308763 1_554
Dy2 O13 2.308763 1_554
Dy2 O1 2.315598 1_555
Dy2 O6 2.315598 1_655
Dy2 O17 2.329563 1_555
Dy2 O15 2.432731 1_555
Dy2 O8 2.432731 1_555
Dy3 O12 2.308763 1_555
Dy3 O11 2.308763 1_555
Dy3 O0 2.315598 1_545
Dy3 O7 2.315598 1_555
Dy3 O17 2.329563 1_556
Dy3 O10 2.432731 1_555
Dy3 O13 2.432731 1_555
Dy4 O3 2.300974 1_555
Dy4 O4 2.300974 1_565
Dy4 O0 2.341573 1_655
Dy4 O7 2.341573 1_555
Dy4 O11 2.406462 1_555
Dy4 O12 2.406462 1_665
Dy4 O18 2.510153 1_555
Dy5 O5 2.300974 1_555
Dy5 O2 2.300974 1_455
Dy5 O6 2.341573 1_556
Dy5 O1 2.341573 1_566
Dy5 O13 2.406462 1_565
Dy5 O10 2.406462 1_455
Dy5 O19 2.510153 1_555
Dy6 O6 2.300974 1_655
Dy6 O1 2.300974 1_555
Dy6 O5 2.341573 1_544
Dy6 O2 2.341573 1_554
Dy6 O14 2.406462 1_655
Dy6 O9 2.406462 1_545
Dy6 O20 2.510153 1_555
Dy7 O7 2.300974 1_555
Dy7 O0 2.300974 1_545
Dy7 O3 2.341573 1_555
Dy7 O4 2.341573 1_455
Dy7 O15 2.406462 1_555
Dy7 O8 2.406462 1_445
Dy7 O16 2.510153 1_555
O0 Zn0 2.070437 1_455
O1 Zn1 2.070430 1_545
O2 Zn2 2.070430 1_555
O3 Zn3 2.070433 1_555
O4 Zn3 2.070437 1_655
O5 Zn2 2.070430 1_565
O6 Zn1 2.070430 1_555
O7 Zn0 2.070433 1_555
O8 Zn1 2.147883 1_655
O9 Zn3 2.147878 1_665
O10 Zn0 2.147874 1_555
O11 Zn2 2.147883 1_565
O12 Zn2 2.147883 1_455
O13 Zn0 2.147878 1_445
O14 Zn3 2.147874 1_555
O15 Zn1 2.147883 1_545
O16 Zn1 2.002549 1_545
O18 Zn2 2.002549 1_565
O19 Zn0 2.002551 1_455
O20 Zn3 2.002551 1_655
