# generated using pymatgen
data_Ba3Ac
_symmetry_space_group_name_H-M   'P 1'
_cell_length_a   7.54054649
_cell_length_b   7.54054649
_cell_length_c   7.54054649
_cell_angle_alpha   132.52457329
_cell_angle_beta   132.52457329
_cell_angle_gamma   69.40177160
_symmetry_Int_Tables_number   1
_chemical_formula_structural   Ba3Ac
_chemical_formula_sum   'Ba3 Ac1'
_cell_volume   228.48213308
_cell_formula_units_Z   1
loop_
 _symmetry_equiv_pos_site_id
 _symmetry_equiv_pos_as_xyz
  1  'x, y, z'
loop_
 _atom_site_type_symbol
 _atom_site_label
 _atom_site_symmetry_multiplicity
 _atom_site_fract_x
 _atom_site_fract_y
 _atom_site_fract_z
 _atom_site_occupancy
  Ba  Ba0  1  0.75000000  0.25000000  0.50000000  1
  Ba  Ba1  1  0.25000000  0.75000000  0.50000000  1
  Ba  Ba2  1  0.50000000  0.50000000  0.00000000  1
  Ac  Ac0  1  0.00000000  0.00000000  0.00000000  1
loop_
_geom_bond_atom_site_label_1
_geom_bond_atom_site_label_2
_geom_bond_distance
_geom_bond_site_symmetry_2
Ba0 Ba1 4.292775 1_544
Ba0 Ba1 4.292775 1_656
Ba0 Ba1 4.292775 1_555
Ba0 Ba1 4.292775 1_645
Ba0 Ba2 4.338426 1_556
Ba0 Ba2 4.338426 1_555
Ba0 Ba2 4.338426 1_545
Ba0 Ba2 4.338426 1_656
Ba1 Ba2 4.338426 1_556
Ba1 Ba2 4.338426 1_555
Ba1 Ba2 4.338426 1_566
Ba1 Ba2 4.338426 1_455
Ac0 Ba2 4.292775 1_455
Ac0 Ba2 4.292775 1_444
Ac0 Ba2 4.292775 1_556
Ac0 Ba2 4.292775 1_545
Ac0 Ba1 4.338426 1_544
Ac0 Ba0 4.338426 1_454
Ac0 Ba1 4.338426 1_444
Ac0 Ba1 4.338426 1_545
Ac0 Ba0 4.338426 1_455
Ac0 Ba1 4.338426 1_555
Ac0 Ba0 4.338426 1_444
Ac0 Ba0 4.338426 1_555
