# generated using pymatgen
data_Te2MoW3(SeS2)2
_symmetry_space_group_name_H-M   'P 1'
_cell_length_a   3.30891709
_cell_length_b   3.30891709
_cell_length_c   37.55383200
_cell_angle_alpha   90.00000000
_cell_angle_beta   90.00000000
_cell_angle_gamma   119.99998187
_symmetry_Int_Tables_number   1
_chemical_formula_structural   Te2MoW3(SeS2)2
_chemical_formula_sum   'Te2 Mo1 W3 Se2 S4'
_cell_volume   356.08751079
_cell_formula_units_Z   1
loop_
 _symmetry_equiv_pos_site_id
 _symmetry_equiv_pos_as_xyz
  1  'x, y, z'
loop_
 _atom_site_type_symbol
 _atom_site_label
 _atom_site_symmetry_multiplicity
 _atom_site_fract_x
 _atom_site_fract_y
 _atom_site_fract_z
 _atom_site_occupancy
  Te  Te0  1  0.33333300  0.66666700  0.70880800  1
  Te  Te1  1  0.33333300  0.66666700  0.60629600  1
  Mo  Mo0  1  0.33333300  0.66666700  0.46963200  1
  W  W0  1  0.33333300  0.66666700  0.09391300  1
  W  W1  1  0.66666700  0.33333300  0.28180100  1
  W  W2  1  0.66666700  0.33333300  0.65757700  1
  Se  Se0  1  0.33333300  0.66666700  0.32678800  1
  Se  Se1  1  0.33333300  0.66666700  0.23681800  1
  S  S0  1  0.66666700  0.33333300  0.05305000  1
  S  S1  1  0.66666700  0.33333300  0.42896100  1
  S  S2  1  0.66666700  0.33333300  0.13477300  1
  S  S3  1  0.66666700  0.33333300  0.51033000  1
loop_
_geom_bond_atom_site_label_1
_geom_bond_atom_site_label_2
_geom_bond_distance
_geom_bond_site_symmetry_2
Te0 W2 2.711293 1_565
Te0 W2 2.711293 1_455
Te0 W2 2.711296 1_555
Te1 W2 2.712625 1_455
Te1 W2 2.712625 1_565
Te1 W2 2.712629 1_555
Mo0 S1 2.445903 1_455
Mo0 S1 2.445903 1_565
Mo0 S1 2.445907 1_555
Mo0 S3 2.446536 1_455
Mo0 S3 2.446536 1_565
Mo0 S3 2.446540 1_555
Se0 W1 2.550260 1_455
Se0 W1 2.550260 1_565
Se0 W1 2.550264 1_555
Se1 W1 2.550161 1_455
Se1 W1 2.550161 1_565
Se1 W1 2.550164 1_555
S0 W0 2.450412 1_655
S0 W0 2.450412 1_545
S0 W0 2.450416 1_555
S2 W0 2.450342 1_545
S2 W0 2.450342 1_655
S2 W0 2.450346 1_555
