# generated using pymatgen
data_Li3Bi(PO4)2
_symmetry_space_group_name_H-M   'P 1'
_cell_length_a   7.67537900
_cell_length_b   8.53282905
_cell_length_c   8.53512165
_cell_angle_alpha   119.97211050
_cell_angle_beta   90.02287771
_cell_angle_gamma   89.99385601
_symmetry_Int_Tables_number   1
_chemical_formula_structural   Li3Bi(PO4)2
_chemical_formula_sum   'Li9 Bi3 P6 O24'
_cell_volume   484.23387418
_cell_formula_units_Z   3
loop_
 _symmetry_equiv_pos_site_id
 _symmetry_equiv_pos_as_xyz
  1  'x, y, z'
loop_
 _atom_site_type_symbol
 _atom_site_label
 _atom_site_symmetry_multiplicity
 _atom_site_fract_x
 _atom_site_fract_y
 _atom_site_fract_z
 _atom_site_occupancy
  Li  Li0  1  0.36287000  0.02018600  0.67772600  1
  Li  Li1  1  0.62945600  0.98459900  0.32776000  1
  Li  Li2  1  0.50048200  0.66623400  0.33517700  1
  Li  Li3  1  0.63497600  0.67453000  0.65540200  1
  Li  Li4  1  0.48645200  0.00656000  0.00976900  1
  Li  Li5  1  0.49924500  0.33272200  0.66798900  1
  Li  Li6  1  0.36842700  0.32477500  0.34177700  1
  Li  Li7  1  0.36833300  0.65506600  0.98387500  1
  Li  Li8  1  0.63544600  0.34090500  0.01942400  1
  Bi  Bi0  1  0.95008600  0.66762500  0.33373800  1
  Bi  Bi1  1  0.05227600  0.33319000  0.66558200  1
  Bi  Bi2  1  0.99314400  0.96895100  0.98349600  1
  P  P0  1  0.74406700  0.66549200  0.97160600  1
  P  P1  1  0.25394200  0.33798000  0.02971900  1
  P  P2  1  0.25748600  0.69207900  0.66386500  1
  P  P3  1  0.74551000  0.02952800  0.69012200  1
  P  P4  1  0.25365200  0.97063300  0.30524300  1
  P  P5  1  0.74829700  0.30686700  0.33721700  1
  O  O0  1  0.59409800  0.58095200  0.83417100  1
  O  O1  1  0.07702400  0.86761800  0.24044900  1
  O  O2  1  0.72463100  0.87388100  0.08691000  1
  O  O3  1  0.26118200  0.12897900  0.91715300  1
  O  O4  1  0.91986900  0.13474300  0.74481400  1
  O  O5  1  0.58946900  0.16169000  0.74989800  1
  O  O6  1  0.25582400  0.09936000  0.51744300  1
  O  O7  1  0.26645400  0.41642100  0.89729800  1
  O  O8  1  0.27514700  0.08367600  0.21152500  1
  O  O9  1  0.59318300  0.25414900  0.41817500  1
  O  O10  1  0.73282700  0.89871500  0.48024100  1
  O  O11  1  0.73617500  0.21047400  0.12867600  1
  O  O12  1  0.92278700  0.25052700  0.38683900  1
  O  O13  1  0.26389100  0.48137600  0.57924800  1
  O  O14  1  0.92186700  0.63593700  0.87075500  1
  O  O15  1  0.08019400  0.39377500  0.13639200  1
  O  O16  1  0.73989200  0.51839500  0.41637000  1
  O  O17  1  0.41031900  0.41419700  0.16273800  1
  O  O18  1  0.27139900  0.78461300  0.87291300  1
  O  O19  1  0.08014000  0.75590100  0.62599900  1
  O  O20  1  0.40977900  0.74958500  0.58532900  1
  O  O21  1  0.74055800  0.91357400  0.78487800  1
  O  O22  1  0.74369000  0.57979100  0.09687900  1
  O  O23  1  0.40545600  0.83395000  0.25542100  1
loop_
_geom_bond_atom_site_label_1
_geom_bond_atom_site_label_2
_geom_bond_distance
_geom_bond_site_symmetry_2
Li0 O3 1.937178 1_555
Li0 O6 1.981263 1_555
Li0 O5 2.029463 1_555
Li0 O20 2.064864 1_545
Li1 O2 1.926813 1_555
Li1 O10 1.952509 1_555
Li1 O9 2.046886 1_565
Li1 O23 2.048460 1_555
Li2 O23 2.004026 1_555
Li2 O20 2.008210 1_555
Li2 O17 2.026590 1_555
Li2 O10 2.488648 1_555
Li2 O16 2.513994 1_555
Li2 O22 2.582484 1_555
Li3 O21 1.945732 1_555
Li3 O16 1.967488 1_555
Li3 O20 2.033990 1_555
Li3 O0 2.069271 1_555
Li4 O8 2.213264 1_555
Li4 O18 2.337604 1_544
Li4 O3 2.351410 1_554
Li4 O2 2.408440 1_545
Li4 O11 2.442552 1_555
Li4 O21 2.568809 1_544
Li5 O0 2.006481 1_555
Li5 O9 2.021981 1_555
Li5 O5 2.029018 1_555
Li5 O7 2.477706 1_555
Li5 O13 2.530642 1_555
Li5 O6 2.559147 1_555
Li6 O8 1.922326 1_555
Li6 O13 1.957655 1_555
Li6 O9 2.038578 1_555
Li6 O17 2.046018 1_555
Li7 O18 1.928130 1_555
Li7 O7 1.949490 1_555
Li7 O0 2.056558 1_555
Li7 O23 2.060959 1_556
Li8 O11 1.934441 1_555
Li8 O22 1.983878 1_555
Li8 O17 2.027367 1_555
Li8 O5 2.059031 1_554
Bi0 O15 2.315787 1_655
Bi0 O16 2.370716 1_555
Bi0 O22 2.375304 1_555
Bi0 O10 2.402052 1_555
Bi0 O1 2.419507 1_655
Bi0 O19 2.430444 1_655
Bi1 O12 2.338168 1_455
Bi1 O6 2.345361 1_555
Bi1 O4 2.345743 1_455
Bi1 O13 2.390032 1_555
Bi1 O7 2.390070 1_555
Bi1 O14 2.494542 1_455
Bi2 O21 2.460249 1_555
Bi2 O2 2.530186 1_556
Bi2 O18 2.538453 1_655
Bi2 O14 2.562726 1_555
Bi2 O11 2.668762 1_566
Bi2 O3 2.681742 1_665
Bi2 O19 2.742274 1_655
Bi2 O8 2.743107 1_666
Bi2 O1 2.804528 1_656
O0 P0 1.541087 1_555
O1 P4 1.558953 1_555
O2 P0 1.550543 1_554
O3 P1 1.547460 1_556
O4 P3 1.547873 1_555
O5 P3 1.546542 1_555
O6 P4 1.580925 1_545
O7 P1 1.578159 1_556
O8 P4 1.538995 1_545
O9 P5 1.551960 1_555
O10 P3 1.570479 1_565
O11 P5 1.546098 1_555
O12 P5 1.551449 1_555
O13 P2 1.568142 1_555
O14 P0 1.565523 1_555
O15 P1 1.549770 1_555
O16 P5 1.581143 1_555
O17 P1 1.553667 1_555
O18 P2 1.552622 1_555
O19 P2 1.558598 1_555
O20 P2 1.544612 1_555
O21 P3 1.560135 1_565
O22 P0 1.568194 1_554
O23 P4 1.550232 1_555
