# generated using pymatgen
data_BaCa2Cu3O5
_symmetry_space_group_name_H-M   'P 1'
_cell_length_a   3.94736300
_cell_length_b   3.94736300
_cell_length_c   20.91574100
_cell_angle_alpha   90.00000000
_cell_angle_beta   90.00000000
_cell_angle_gamma   90.00000000
_symmetry_Int_Tables_number   1
_chemical_formula_structural   BaCa2Cu3O5
_chemical_formula_sum   'Ba2 Ca4 Cu6 O10'
_cell_volume   325.90227140
_cell_formula_units_Z   2
loop_
 _symmetry_equiv_pos_site_id
 _symmetry_equiv_pos_as_xyz
  1  'x, y, z'
loop_
 _atom_site_type_symbol
 _atom_site_label
 _atom_site_symmetry_multiplicity
 _atom_site_fract_x
 _atom_site_fract_y
 _atom_site_fract_z
 _atom_site_occupancy
  Ba  Ba0  1  0.50000000  0.50000000  0.38770100  1
  Ba  Ba1  1  0.50000000  0.50000000  0.61229900  1
  Ca  Ca0  1  0.50000000  0.50000000  0.07470800  1
  Ca  Ca1  1  0.50000000  0.50000000  0.92529200  1
  Ca  Ca2  1  0.50000000  0.50000000  0.22386300  1
  Ca  Ca3  1  0.50000000  0.50000000  0.77613700  1
  Cu  Cu0  1  0.00000000  0.00000000  0.30126700  1
  Cu  Cu1  1  0.00000000  0.00000000  0.69873300  1
  Cu  Cu2  1  0.00000000  0.00000000  0.15148500  1
  Cu  Cu3  1  0.00000000  0.00000000  0.84851500  1
  Cu  Cu4  1  0.00000000  0.00000000  0.00000000  1
  Cu  Cu5  1  0.00000000  0.00000000  0.50000000  1
  O  O0  1  0.00000000  0.50000000  0.30614100  1
  O  O1  1  0.00000000  0.50000000  0.69385900  1
  O  O2  1  0.50000000  0.00000000  0.30614100  1
  O  O3  1  0.50000000  0.00000000  0.69385900  1
  O  O4  1  0.00000000  0.50000000  0.15295300  1
  O  O5  1  0.00000000  0.50000000  0.84704700  1
  O  O6  1  0.50000000  0.00000000  0.15295300  1
  O  O7  1  0.50000000  0.00000000  0.84704700  1
  O  O8  1  0.00000000  0.50000000  0.00000000  1
  O  O9  1  0.50000000  0.00000000  0.00000000  1
loop_
_geom_bond_atom_site_label_1
_geom_bond_atom_site_label_2
_geom_bond_distance
_geom_bond_site_symmetry_2
Ba0 O0 2.608730 1_655
Ba0 O2 2.608730 1_555
Ba0 O2 2.608730 1_565
Ba0 O0 2.608730 1_555
Ba0 Cu5 3.647983 1_555
Ba0 Cu5 3.647983 1_565
Ba0 Cu5 3.647983 1_665
Ba0 Cu5 3.647983 1_655
Ba1 O3 2.608730 1_565
Ba1 O3 2.608730 1_555
Ba1 O1 2.608730 1_555
Ba1 O1 2.608730 1_655
Ba1 Cu5 3.647983 1_565
Ba1 Cu5 3.647983 1_555
Ba1 Cu5 3.647983 1_665
Ba1 Cu5 3.647983 1_655
Ca0 O8 2.517351 1_555
Ca0 O8 2.517351 1_655
Ca0 O9 2.517351 1_555
Ca0 O9 2.517351 1_565
Ca0 O4 2.563927 1_655
Ca0 O4 2.563927 1_555
Ca0 O6 2.563927 1_565
Ca0 O6 2.563927 1_555
Ca1 O8 2.517351 1_656
Ca1 O9 2.517351 1_556
Ca1 O9 2.517351 1_566
Ca1 O8 2.517351 1_556
Ca1 O7 2.563927 1_565
Ca1 O5 2.563927 1_555
Ca1 O5 2.563927 1_655
Ca1 O7 2.563927 1_555
Ca2 O4 2.468827 1_655
Ca2 O4 2.468827 1_555
Ca2 O6 2.468827 1_565
Ca2 O6 2.468827 1_555
Ca2 O2 2.618575 1_565
Ca2 O0 2.618575 1_555
Ca2 O0 2.618575 1_655
Ca2 O2 2.618575 1_555
Ca3 O7 2.468827 1_555
Ca3 O7 2.468827 1_565
Ca3 O5 2.468827 1_655
Ca3 O5 2.468827 1_555
Ca3 O1 2.618575 1_555
Ca3 O3 2.618575 1_565
Ca3 O1 2.618575 1_655
Ca3 O3 2.618575 1_555
Cu0 O2 1.976313 1_455
Cu0 O0 1.976313 1_545
Cu0 O0 1.976313 1_555
Cu0 O2 1.976313 1_555
Cu1 O3 1.976313 1_555
Cu1 O3 1.976313 1_455
Cu1 O1 1.976313 1_545
Cu1 O1 1.976313 1_555
Cu2 O4 1.973920 1_555
Cu2 O4 1.973920 1_545
Cu2 O6 1.973920 1_455
Cu2 O6 1.973920 1_555
Cu3 O7 1.973920 1_555
Cu3 O7 1.973920 1_455
Cu3 O5 1.973920 1_545
Cu3 O5 1.973920 1_555
Cu4 O9 1.973682 1_455
Cu4 O8 1.973682 1_555
Cu4 O8 1.973682 1_545
Cu4 O9 1.973682 1_555
