# generated using pymatgen
data_Zn(WO2)2
_symmetry_space_group_name_H-M   'P 1'
_cell_length_a   6.40374569
_cell_length_b   6.40374569
_cell_length_c   6.40374569
_cell_angle_alpha   60.00000000
_cell_angle_beta   60.00000000
_cell_angle_gamma   60.00000000
_symmetry_Int_Tables_number   1
_chemical_formula_structural   Zn(WO2)2
_chemical_formula_sum   'Zn2 W4 O8'
_cell_volume   185.68945058
_cell_formula_units_Z   2
loop_
 _symmetry_equiv_pos_site_id
 _symmetry_equiv_pos_as_xyz
  1  'x, y, z'
loop_
 _atom_site_type_symbol
 _atom_site_label
 _atom_site_symmetry_multiplicity
 _atom_site_fract_x
 _atom_site_fract_y
 _atom_site_fract_z
 _atom_site_occupancy
  Zn  Zn0  1  0.50000000  0.50000000  0.50000000  1
  Zn  Zn1  1  0.75000000  0.75000000  0.75000000  1
  W  W0  1  0.12500000  0.12500000  0.12500000  1
  W  W1  1  0.62500000  0.12500000  0.12500000  1
  W  W2  1  0.12500000  0.62500000  0.12500000  1
  W  W3  1  0.12500000  0.12500000  0.62500000  1
  O  O0  1  0.35347900  0.88217400  0.88217400  1
  O  O1  1  0.88217400  0.35347900  0.88217400  1
  O  O2  1  0.88217400  0.88217400  0.35347900  1
  O  O3  1  0.36782600  0.36782600  0.36782600  1
  O  O4  1  0.36782600  0.36782600  0.89652100  1
  O  O5  1  0.36782600  0.89652100  0.36782600  1
  O  O6  1  0.88217400  0.88217400  0.88217400  1
  O  O7  1  0.89652100  0.36782600  0.36782600  1
loop_
_geom_bond_atom_site_label_1
_geom_bond_atom_site_label_2
_geom_bond_distance
_geom_bond_site_symmetry_2
O0 Zn1 2.073264 1_555
O0 W0 2.201015 1_566
O0 W2 2.201019 1_556
O0 W3 2.201019 1_565
O1 Zn1 2.073264 1_555
O1 W0 2.201015 1_656
O1 W1 2.201019 1_556
O1 W3 2.201019 1_655
O2 Zn1 2.073264 1_555
O2 W0 2.201015 1_665
O2 W2 2.201019 1_655
O2 W1 2.201019 1_565
O3 Zn0 2.073269 1_555
O3 W1 2.201015 1_555
O3 W3 2.201015 1_555
O3 W2 2.201015 1_555
O4 Zn0 2.073264 1_555
O4 W0 2.201015 1_556
O4 W1 2.201019 1_556
O4 W2 2.201019 1_556
O5 Zn0 2.073264 1_555
O5 W0 2.201015 1_565
O5 W3 2.201019 1_565
O5 W1 2.201019 1_565
O6 Zn1 2.073269 1_555
O6 W3 2.201015 1_665
O6 W2 2.201015 1_656
O6 W1 2.201015 1_566
O7 Zn0 2.073264 1_555
O7 W0 2.201015 1_655
O7 W3 2.201019 1_655
O7 W2 2.201019 1_655
