# generated using pymatgen
data_CsMg14Nb
_symmetry_space_group_name_H-M   'P 1'
_cell_length_a   6.58382915
_cell_length_b   6.58382859
_cell_length_c   10.38670220
_cell_angle_alpha   90.00000000
_cell_angle_beta   90.00000000
_cell_angle_gamma   120.00000286
_symmetry_Int_Tables_number   1
_chemical_formula_structural   CsMg14Nb
_chemical_formula_sum   'Cs1 Mg14 Nb1'
_cell_volume   389.91089202
_cell_formula_units_Z   1
loop_
 _symmetry_equiv_pos_site_id
 _symmetry_equiv_pos_as_xyz
  1  'x, y, z'
loop_
 _atom_site_type_symbol
 _atom_site_label
 _atom_site_symmetry_multiplicity
 _atom_site_fract_x
 _atom_site_fract_y
 _atom_site_fract_z
 _atom_site_occupancy
  Cs  Cs0  1  0.16666700  0.33333300  0.12500000  1
  Mg  Mg0  1  0.17623687  0.83811794  0.12500000  1
  Mg  Mg1  1  0.16021134  0.83010517  0.62500000  1
  Mg  Mg2  1  0.66188206  0.32376313  0.12500000  1
  Mg  Mg3  1  0.66989483  0.33978866  0.62500000  1
  Mg  Mg4  1  0.66188206  0.83811794  0.12500000  1
  Mg  Mg5  1  0.66989483  0.83010517  0.62500000  1
  Mg  Mg6  1  0.33499800  0.16500200  0.39783918  1
  Mg  Mg7  1  0.33499800  0.16500200  0.85216082  1
  Mg  Mg8  1  0.33499800  0.66999701  0.39783918  1
  Mg  Mg9  1  0.33499800  0.66999701  0.85216082  1
  Mg  Mg10  1  0.83000299  0.16500200  0.39783918  1
  Mg  Mg11  1  0.83000299  0.16500200  0.85216082  1
  Mg  Mg12  1  0.83333300  0.66666700  0.36811727  1
  Mg  Mg13  1  0.83333300  0.66666700  0.88188273  1
  Nb  Nb0  1  0.16666700  0.33333300  0.62500000  1
loop_
_geom_bond_atom_site_label_1
_geom_bond_atom_site_label_2
_geom_bond_distance
_geom_bond_site_symmetry_2
Cs0 Mg0 3.292366 1_545
Cs0 Mg4 3.292366 1_555
Cs0 Mg4 3.292366 1_445
Cs0 Mg0 3.292367 1_555
Cs0 Mg2 3.292367 1_555
Cs0 Mg2 3.292367 1_455
Cs0 Mg7 3.422824 1_554
Cs0 Mg6 3.422824 1_555
Cs0 Mg9 3.422830 1_554
Cs0 Mg8 3.422830 1_555
Cs0 Mg11 3.422830 1_454
Cs0 Mg10 3.422830 1_455
Mg0 Mg12 3.193619 1_455
Mg0 Mg13 3.193619 1_454
Mg0 Mg2 3.197405 1_565
Mg0 Mg4 3.197405 1_555
Mg0 Mg2 3.386424 1_455
Mg0 Mg4 3.386424 1_455
Mg0 Mg9 3.392005 1_554
Mg0 Mg8 3.392005 1_555
Mg0 Mg6 3.392012 1_565
Mg0 Mg7 3.392012 1_564
Mg1 Mg8 3.035705 1_555
Mg1 Mg9 3.035705 1_555
Mg1 Mg6 3.035712 1_565
Mg1 Mg7 3.035712 1_565
Mg1 Mg3 3.228160 1_455
Mg1 Mg5 3.228160 1_455
Mg1 Mg12 3.254656 1_455
Mg1 Mg13 3.254656 1_455
Mg1 Nb0 3.292120 1_565
Mg1 Nb0 3.292120 1_555
Mg1 Mg3 3.355669 1_565
Mg1 Mg5 3.355669 1_555
Mg2 Mg4 3.197405 1_545
Mg2 Mg4 3.386424 1_555
Mg2 Mg7 3.392012 1_554
Mg2 Mg6 3.392012 1_555
Mg3 Mg6 3.035712 1_555
Mg3 Mg7 3.035712 1_555
Mg3 Mg5 3.228160 1_555
Mg3 Nb0 3.292120 1_555
Mg3 Nb0 3.292120 1_655
Mg3 Mg5 3.355669 1_545
Mg4 Mg9 3.392012 1_554
Mg4 Mg8 3.392012 1_555
Mg5 Mg9 3.035712 1_555
Mg5 Mg8 3.035712 1_555
Mg5 Nb0 3.292120 1_665
Mg5 Nb0 3.292120 1_555
Mg6 Nb0 3.041669 1_555
Mg6 Mg8 3.259028 1_545
Mg6 Mg8 3.324801 1_555
Mg7 Nb0 3.041669 1_555
Mg7 Mg9 3.259028 1_545
Mg7 Mg9 3.324801 1_555
Mg8 Nb0 3.041676 1_555
Mg9 Nb0 3.041676 1_555
Mg10 Mg3 3.035705 1_555
Mg10 Mg5 3.035712 1_545
Mg10 Nb0 3.041676 1_655
Mg10 Mg8 3.259028 1_545
Mg10 Mg6 3.259028 1_555
Mg10 Mg12 3.306412 1_555
Mg10 Mg12 3.306413 1_545
Mg10 Mg8 3.324801 1_655
Mg10 Mg6 3.324801 1_655
Mg10 Mg2 3.392005 1_555
Mg10 Mg4 3.392011 1_545
Mg11 Mg3 3.035705 1_555
Mg11 Mg5 3.035712 1_545
Mg11 Nb0 3.041676 1_655
Mg11 Mg9 3.259028 1_545
Mg11 Mg7 3.259028 1_555
Mg11 Mg13 3.306412 1_555
Mg11 Mg13 3.306413 1_545
Mg11 Mg9 3.324801 1_655
Mg11 Mg7 3.324801 1_655
Mg11 Mg2 3.392005 1_556
Mg11 Mg4 3.392011 1_546
Mg12 Mg4 3.193613 1_555
Mg12 Mg2 3.193619 1_555
Mg12 Mg5 3.254650 1_555
Mg12 Mg3 3.254656 1_555
Mg12 Mg6 3.306413 1_555
Mg12 Mg6 3.306413 1_665
Mg12 Mg8 3.306413 1_655
Mg12 Mg8 3.306413 1_555
Mg13 Mg4 3.193613 1_556
Mg13 Mg2 3.193619 1_556
Mg13 Mg5 3.254650 1_555
Mg13 Mg3 3.254656 1_555
Mg13 Mg7 3.306413 1_555
Mg13 Mg7 3.306413 1_665
Mg13 Mg9 3.306413 1_655
Mg13 Mg9 3.306413 1_555
