# generated using pymatgen
data_Ba3SrYb2(ReO6)2
_symmetry_space_group_name_H-M   'P 1'
_cell_length_a   5.93449973
_cell_length_b   5.93449973
_cell_length_c   10.28945385
_cell_angle_alpha   73.23913900
_cell_angle_beta   90.00000000
_cell_angle_gamma   120.00000000
_symmetry_Int_Tables_number   1
_chemical_formula_structural   Ba3SrYb2(ReO6)2
_chemical_formula_sum   'Ba3 Sr1 Yb2 Re2 O12'
_cell_volume   295.91760651
_cell_formula_units_Z   1
loop_
 _symmetry_equiv_pos_site_id
 _symmetry_equiv_pos_as_xyz
  1  'x, y, z'
loop_
 _atom_site_type_symbol
 _atom_site_label
 _atom_site_symmetry_multiplicity
 _atom_site_fract_x
 _atom_site_fract_y
 _atom_site_fract_z
 _atom_site_occupancy
  Ba  Ba0  1  0.12495300  0.24990700  0.62514000  1
  Ba  Ba1  1  0.87526600  0.75053300  0.37420100  1
  Ba  Ba2  1  0.37477600  0.74955200  0.87567200  1
  Sr  Sr0  1  0.62499900  0.24999800  0.12500200  1
  Yb  Yb0  1  0.25015100  0.50030200  0.24954700  1
  Yb  Yb1  1  0.74984400  0.49968900  0.75046700  1
  Re  Re0  1  0.99979700  0.99959400  0.00060900  1
  Re  Re1  1  0.50020200  0.00040400  0.49939300  1
  O  O0  1  0.11545800  0.23091500  0.11591100  1
  O  O1  1  0.61539700  0.23079400  0.61507400  1
  O  O2  1  0.38571200  0.23125500  0.38303300  1
  O  O3  1  0.88339300  0.23063500  0.88597200  1
  O  O4  1  0.65317400  0.76863200  0.11591100  1
  O  O5  1  0.15413200  0.76952900  0.61507400  1
  O  O6  1  0.38571200  0.77142500  0.38303300  1
  O  O7  1  0.88339300  0.76678700  0.88597200  1
  O  O8  1  0.11545800  0.76863200  0.11591100  1
  O  O9  1  0.61539700  0.76952900  0.61507400  1
  O  O10  1  0.84554200  0.23125500  0.38303300  1
  O  O11  1  0.34724100  0.23063500  0.88597200  1
loop_
_geom_bond_atom_site_label_1
_geom_bond_atom_site_label_2
_geom_bond_distance
_geom_bond_site_symmetry_2
Ba0 O1 2.971819 1_455
Ba0 O5 2.971819 1_555
Ba0 O9 2.971821 1_445
Ba0 O9 2.971821 1_555
Ba0 O5 2.971825 1_545
Ba0 O1 2.971825 1_555
Ba0 O7 2.988312 1_445
Ba0 O11 2.988312 1_555
Ba0 O3 2.988312 1_455
Ba0 O2 2.990498 1_555
Ba0 O10 2.990498 1_455
Ba0 O6 2.990498 1_555
Ba1 O4 2.964587 1_555
Ba1 O0 2.964587 1_665
Ba1 O8 2.964589 1_655
Ba1 O10 2.971676 1_565
Ba1 O6 2.971676 1_555
Ba1 O2 2.971676 1_665
Ba1 O6 2.971676 1_655
Ba1 O10 2.971676 1_555
Ba1 O2 2.971676 1_555
Ba1 O9 2.978051 1_555
Ba1 O5 2.978054 1_655
Ba1 O1 2.978054 1_555
Ba2 O0 2.971063 1_556
Ba2 O8 2.971063 1_556
Ba2 O4 2.971063 1_556
Ba2 O11 2.971512 1_555
Ba2 O7 2.971512 1_555
Ba2 O3 2.971515 1_565
Ba2 O3 2.971515 1_455
Ba2 O11 2.971518 1_565
Ba2 O7 2.971518 1_455
Ba2 O1 2.981689 1_565
Ba2 O5 2.981689 1_555
Ba2 O9 2.981689 1_555
O0 Re0 1.939136 1_445
O0 Yb0 2.252869 1_555
O0 Sr0 2.971369 1_555
O0 Sr0 2.971375 1_455
O1 Re1 1.938416 1_555
O1 Yb1 2.265566 1_555
O2 Re1 1.938241 1_555
O2 Yb0 2.258911 1_555
O2 Sr0 2.957980 1_555
O3 Re0 1.939813 1_546
O3 Yb1 2.258992 1_555
O3 Sr0 2.958535 1_556
O4 Re0 1.939136 1_555
O4 Yb0 2.252869 1_555
O4 Sr0 2.971366 1_565
O4 Sr0 2.971378 1_555
O5 Re1 1.938412 1_565
O5 Yb1 2.265566 1_455
O6 Re1 1.938232 1_565
O6 Yb0 2.258915 1_555
O6 Sr0 2.957975 1_565
O7 Re0 1.939809 1_556
O7 Yb1 2.258992 1_555
O7 Sr0 2.958542 1_556
O8 Re0 1.939136 1_455
O8 Yb0 2.252869 1_555
O8 Sr0 2.971366 1_565
O8 Sr0 2.971378 1_455
O9 Re1 1.938412 1_565
O9 Yb1 2.265562 1_555
O10 Re1 1.938237 1_555
O10 Yb0 2.258915 1_655
O10 Sr0 2.957978 1_555
O11 Re0 1.939809 1_446
O11 Yb1 2.258992 1_555
O11 Sr0 2.958538 1_556
