# generated using pymatgen
data_Pr2MgSe4
_symmetry_space_group_name_H-M   'P 1'
_cell_length_a   13.54030400
_cell_length_b   4.15907000
_cell_length_c   14.77434200
_cell_angle_alpha   90.00000000
_cell_angle_beta   90.00000000
_cell_angle_gamma   90.00000000
_symmetry_Int_Tables_number   1
_chemical_formula_structural   Pr2MgSe4
_chemical_formula_sum   'Pr8 Mg4 Se16'
_cell_volume   832.01813581
_cell_formula_units_Z   4
loop_
 _symmetry_equiv_pos_site_id
 _symmetry_equiv_pos_as_xyz
  1  'x, y, z'
loop_
 _atom_site_type_symbol
 _atom_site_label
 _atom_site_symmetry_multiplicity
 _atom_site_fract_x
 _atom_site_fract_y
 _atom_site_fract_z
 _atom_site_occupancy
  Pr  Pr0  1  0.11916900  0.25000000  0.07417600  1
  Pr  Pr1  1  0.88083100  0.75000000  0.92582400  1
  Pr  Pr2  1  0.38083100  0.75000000  0.57417600  1
  Pr  Pr3  1  0.61916900  0.25000000  0.42582400  1
  Pr  Pr4  1  0.13590100  0.25000000  0.70466400  1
  Pr  Pr5  1  0.86409900  0.75000000  0.29533600  1
  Pr  Pr6  1  0.36409900  0.75000000  0.20466400  1
  Pr  Pr7  1  0.63590100  0.25000000  0.79533600  1
  Mg  Mg0  1  0.10702700  0.75000000  0.46039700  1
  Mg  Mg1  1  0.89297300  0.25000000  0.53960300  1
  Mg  Mg2  1  0.39297300  0.25000000  0.96039700  1
  Mg  Mg3  1  0.60702700  0.75000000  0.03960300  1
  Se  Se0  1  0.00249000  0.75000000  0.61266000  1
  Se  Se1  1  0.99751000  0.25000000  0.38734000  1
  Se  Se2  1  0.49751000  0.25000000  0.11266000  1
  Se  Se3  1  0.50249000  0.75000000  0.88734000  1
  Se  Se4  1  0.02885500  0.25000000  0.88397300  1
  Se  Se5  1  0.97114500  0.75000000  0.11602700  1
  Se  Se6  1  0.47114500  0.75000000  0.38397300  1
  Se  Se7  1  0.52885500  0.25000000  0.61602700  1
  Se  Se8  1  0.22510100  0.25000000  0.24681200  1
  Se  Se9  1  0.77489900  0.75000000  0.75318800  1
  Se  Se10  1  0.27489900  0.75000000  0.74681200  1
  Se  Se11  1  0.72510100  0.25000000  0.25318800  1
  Se  Se12  1  0.26733500  0.75000000  0.01403700  1
  Se  Se13  1  0.73266500  0.25000000  0.98596300  1
  Se  Se14  1  0.23266500  0.25000000  0.51403700  1
  Se  Se15  1  0.76733500  0.75000000  0.48596300  1
loop_
_geom_bond_atom_site_label_1
_geom_bond_atom_site_label_2
_geom_bond_distance
_geom_bond_site_symmetry_2
Pr0 Se8 2.926233 1_555
Pr0 Se5 2.953636 1_455
Pr0 Se5 2.953636 1_445
Pr0 Se12 3.023047 1_555
Pr0 Se12 3.023047 1_545
Pr0 Se4 3.064675 1_554
Pr1 Se9 2.926233 1_555
Pr1 Se4 2.953636 1_655
Pr1 Se4 2.953636 1_665
Pr1 Se13 3.023047 1_565
Pr1 Se13 3.023047 1_555
Pr1 Se5 3.064675 1_556
Pr2 Se10 2.926233 1_555
Pr2 Se7 2.953636 1_565
Pr2 Se7 2.953636 1_555
Pr2 Se14 3.023047 1_555
Pr2 Se14 3.023047 1_565
Pr2 Se6 3.064675 1_555
Pr3 Se11 2.926233 1_555
Pr3 Se6 2.953636 1_555
Pr3 Se6 2.953636 1_545
Pr3 Se15 3.023047 1_545
Pr3 Se15 3.023047 1_555
Pr3 Se7 3.064675 1_555
Pr4 Se10 2.873054 1_545
Pr4 Se10 2.873054 1_555
Pr4 Se4 3.019765 1_555
Pr4 Se0 3.071698 1_545
Pr4 Se0 3.071698 1_555
Pr4 Se14 3.106236 1_555
Pr5 Se11 2.873054 1_565
Pr5 Se11 2.873054 1_555
Pr5 Se5 3.019765 1_555
Pr5 Se1 3.071698 1_565
Pr5 Se1 3.071698 1_555
Pr5 Se15 3.106236 1_555
Pr6 Se8 2.873054 1_555
Pr6 Se8 2.873054 1_565
Pr6 Se6 3.019765 1_555
Pr6 Se2 3.071698 1_565
Pr6 Se2 3.071698 1_555
Pr6 Se12 3.106236 1_555
Pr7 Se9 2.873054 1_555
Pr7 Se9 2.873054 1_545
Pr7 Se7 3.019765 1_555
Pr7 Se3 3.071698 1_545
Pr7 Se3 3.071698 1_555
Pr7 Se13 3.106236 1_555
Mg0 Se0 2.657851 1_555
Mg0 Se1 2.772810 1_455
Mg0 Se1 2.772810 1_465
Mg0 Se14 2.801164 1_555
Mg0 Se14 2.801164 1_565
Mg1 Se1 2.657851 1_555
Mg1 Se0 2.772810 1_655
Mg1 Se0 2.772810 1_645
Mg1 Se15 2.801164 1_545
Mg1 Se15 2.801164 1_555
Mg2 Se2 2.657851 1_556
Mg2 Se3 2.772810 1_545
Mg2 Se3 2.772810 1_555
Mg2 Se12 2.801164 1_546
Mg2 Se12 2.801164 1_556
Mg3 Se3 2.657851 1_554
Mg3 Se2 2.772810 1_555
Mg3 Se2 2.772810 1_565
Mg3 Se13 2.801164 1_554
Mg3 Se13 2.801164 1_564
