# generated using pymatgen
data_Li6OsN4
_symmetry_space_group_name_H-M   'P 1'
_cell_length_a   6.68871745
_cell_length_b   6.68871745
_cell_length_c   4.76661918
_cell_angle_alpha   90.00000000
_cell_angle_beta   90.00000000
_cell_angle_gamma   90.00000000
_symmetry_Int_Tables_number   1
_chemical_formula_structural   Li6OsN4
_chemical_formula_sum   'Li12 Os2 N8'
_cell_volume   213.25349486
_cell_formula_units_Z   2
loop_
 _symmetry_equiv_pos_site_id
 _symmetry_equiv_pos_as_xyz
  1  'x, y, z'
loop_
 _atom_site_type_symbol
 _atom_site_label
 _atom_site_symmetry_multiplicity
 _atom_site_fract_x
 _atom_site_fract_y
 _atom_site_fract_z
 _atom_site_occupancy
  Li  Li0  1  0.50000000  0.00000000  0.60919241  1
  Li  Li1  1  0.00000000  0.50000000  0.89080759  1
  Li  Li2  1  -0.00000000  0.50000000  0.39080759  1
  Li  Li3  1  0.50000000  0.00000000  0.10919241  1
  Li  Li4  1  0.21048535  0.21048535  0.50000000  1
  Li  Li5  1  0.78951465  0.78951465  0.50000000  1
  Li  Li6  1  0.71048535  0.71048535  -0.00000000  1
  Li  Li7  1  0.28951465  0.28951465  -0.00000000  1
  Li  Li8  1  0.21048535  0.78951465  0.50000000  1
  Li  Li9  1  0.78951465  0.21048535  0.50000000  1
  Li  Li10  1  0.71048535  0.28951465  -0.00000000  1
  Li  Li11  1  0.28951465  0.71048535  -0.00000000  1
  Os  Os0  1  0.50000000  0.50000000  0.50000000  1
  Os  Os1  1  0.00000000  0.00000000  -0.00000000  1
  N  N0  1  0.50000000  0.24658684  0.33067938  1
  N  N1  1  0.50000000  0.75341316  0.33067938  1
  N  N2  1  0.00000000  0.74658684  0.16932062  1
  N  N3  1  -0.00000000  0.25341316  0.16932062  1
  N  N4  1  0.24658684  0.50000000  0.66932062  1
  N  N5  1  0.75341316  0.50000000  0.66932062  1
  N  N6  1  0.74658684  0.00000000  0.83067938  1
  N  N7  1  0.25341316  0.00000000  0.83067938  1
loop_
_geom_bond_atom_site_label_1
_geom_bond_atom_site_label_2
_geom_bond_distance
_geom_bond_site_symmetry_2
Li0 N6 1.958303 1_555
Li0 N7 1.958303 1_555
Li0 N1 2.117259 1_545
Li0 N0 2.117259 1_555
Li1 N5 1.958303 1_455
Li1 N4 1.958303 1_555
Li1 N3 2.117259 1_556
Li1 N2 2.117259 1_556
Li2 N3 1.958303 1_555
Li2 N2 1.958303 1_555
Li2 N5 2.117259 1_455
Li2 N4 2.117259 1_555
Li3 N1 1.958303 1_545
Li3 N0 1.958303 1_555
Li3 N7 2.117259 1_554
Li3 N6 2.117259 1_554
Li4 N4 2.111791 1_555
Li4 N0 2.111791 1_555
Li4 N3 2.132848 1_555
Li4 N7 2.132848 1_555
Li5 N1 2.111791 1_555
Li5 N5 2.111791 1_555
Li5 N2 2.132848 1_655
Li5 N6 2.132848 1_565
Li6 N2 2.111791 1_655
Li6 N6 2.111791 1_564
Li6 N5 2.132848 1_554
Li6 N1 2.132848 1_555
Li7 N3 2.111791 1_555
Li7 N7 2.111791 1_554
Li7 N4 2.132848 1_554
Li7 N0 2.132848 1_555
Li8 N1 2.111791 1_555
Li8 N4 2.111791 1_555
Li8 N7 2.132848 1_565
Li8 N2 2.132848 1_555
Li9 N5 2.111791 1_555
Li9 N0 2.111791 1_555
Li9 N3 2.132848 1_655
Li9 N6 2.132848 1_555
Li10 N3 2.111791 1_655
Li10 N6 2.111791 1_554
Li10 N5 2.132848 1_554
Li10 N0 2.132848 1_555
Li11 N2 2.111791 1_555
Li11 N7 2.111791 1_564
Li11 N4 2.132848 1_554
Li11 N1 2.132848 1_555
N0 Os0 1.877350 1_555
N1 Os0 1.877350 1_555
N2 Os1 1.877350 1_565
N3 Os1 1.877350 1_555
N4 Os0 1.877350 1_555
N5 Os0 1.877350 1_555
N6 Os1 1.877350 1_656
N7 Os1 1.877350 1_556
