# generated using pymatgen
data_LaGd(CuSn)4
_symmetry_space_group_name_H-M   'P 1'
_cell_length_a   4.48968300
_cell_length_b   4.48968300
_cell_length_c   10.63771200
_cell_angle_alpha   90.00000000
_cell_angle_beta   90.00000000
_cell_angle_gamma   90.00000000
_symmetry_Int_Tables_number   1
_chemical_formula_structural   LaGd(CuSn)4
_chemical_formula_sum   'La1 Gd1 Cu4 Sn4'
_cell_volume   214.42705681
_cell_formula_units_Z   1
loop_
 _symmetry_equiv_pos_site_id
 _symmetry_equiv_pos_as_xyz
  1  'x, y, z'
loop_
 _atom_site_type_symbol
 _atom_site_label
 _atom_site_symmetry_multiplicity
 _atom_site_fract_x
 _atom_site_fract_y
 _atom_site_fract_z
 _atom_site_occupancy
  La  La0  1  0.00000000  0.00000000  0.76131700  1
  Gd  Gd0  1  0.50000000  0.50000000  0.23674600  1
  Cu  Cu0  1  0.50000000  0.50000000  0.63489100  1
  Cu  Cu1  1  0.00000000  0.00000000  0.36526400  1
  Cu  Cu2  1  0.50000000  0.00000000  0.00149900  1
  Cu  Cu3  1  0.00000000  0.50000000  0.00149900  1
  Sn  Sn0  1  0.50000000  0.50000000  0.87437400  1
  Sn  Sn1  1  0.00000000  0.00000000  0.12807600  1
  Sn  Sn2  1  0.50000000  0.00000000  0.49815200  1
  Sn  Sn3  1  0.00000000  0.50000000  0.49815200  1
loop_
_geom_bond_atom_site_label_1
_geom_bond_atom_site_label_2
_geom_bond_distance
_geom_bond_site_symmetry_2
La0 Sn0 3.394854 1_445
La0 Sn0 3.394854 1_555
La0 Sn0 3.394854 1_455
La0 Sn0 3.394854 1_545
La0 Sn3 3.588365 1_555
La0 Sn2 3.588365 1_455
La0 Sn2 3.588365 1_555
La0 Sn3 3.588365 1_545
Gd0 Sn1 3.378604 1_565
Gd0 Sn1 3.378604 1_555
Gd0 Sn1 3.378604 1_655
Gd0 Sn1 3.378604 1_665
Gd0 Sn3 3.573786 1_655
Gd0 Sn3 3.573786 1_555
Gd0 Sn2 3.573786 1_555
Gd0 Sn2 3.573786 1_565
Cu0 Sn0 2.547551 1_555
Cu0 Sn2 2.674910 1_565
Cu0 Sn3 2.674910 1_655
Cu0 Sn3 2.674910 1_555
Cu0 Sn2 2.674910 1_555
Cu0 La0 3.447802 1_565
Cu0 La0 3.447802 1_655
Cu0 La0 3.447802 1_665
Cu0 La0 3.447802 1_555
Cu1 Sn1 2.523138 1_555
Cu1 Sn3 2.652856 1_555
Cu1 Sn2 2.652856 1_455
Cu1 Sn2 2.652856 1_555
Cu1 Sn3 2.652856 1_545
Cu1 Gd0 3.456543 1_545
Cu1 Gd0 3.456543 1_455
Cu1 Gd0 3.456543 1_555
Cu1 Gd0 3.456543 1_445
Cu2 Sn1 2.617699 1_555
Cu2 Sn1 2.617699 1_655
Cu2 Sn0 2.620702 1_544
Cu2 Sn0 2.620702 1_554
Cu2 Gd0 3.361810 1_545
Cu2 Gd0 3.361810 1_555
Cu2 La0 3.401069 1_654
Cu2 La0 3.401069 1_554
Cu3 Sn1 2.617699 1_565
Cu3 Sn1 2.617699 1_555
Cu3 Sn0 2.620702 1_454
Cu3 Sn0 2.620702 1_554
Cu3 Gd0 3.361810 1_455
Cu3 Gd0 3.361810 1_555
Cu3 La0 3.401069 1_564
Cu3 La0 3.401069 1_554
