# generated using pymatgen
data_Sb3Au
_symmetry_space_group_name_H-M   'P 1'
_cell_length_a   6.12639000
_cell_length_b   6.12639000
_cell_length_c   23.63027000
_cell_angle_alpha   90.00000000
_cell_angle_beta   90.00000000
_cell_angle_gamma   90.00000000
_symmetry_Int_Tables_number   1
_chemical_formula_structural   Sb3Au
_chemical_formula_sum   'Sb24 Au8'
_cell_volume   886.90675805
_cell_formula_units_Z   8
loop_
 _symmetry_equiv_pos_site_id
 _symmetry_equiv_pos_as_xyz
  1  'x, y, z'
loop_
 _atom_site_type_symbol
 _atom_site_label
 _atom_site_symmetry_multiplicity
 _atom_site_fract_x
 _atom_site_fract_y
 _atom_site_fract_z
 _atom_site_occupancy
  Sb  Sb0_0  1  0.00000000  0.00000000  0.11561050  1
  Sb  Sb0_1  1  0.00000000  0.00000000  0.61561050  1
  Sb  Sb0_2  1  0.00000000  0.50000000  0.11561050  1
  Sb  Sb0_3  1  0.00000000  0.50000000  0.61561050  1
  Sb  Sb0_4  1  0.50000000  0.00000000  0.11561050  1
  Sb  Sb0_5  1  0.50000000  0.00000000  0.61561050  1
  Sb  Sb0_6  1  0.50000000  0.50000000  0.11561050  1
  Sb  Sb0_7  1  0.50000000  0.50000000  0.61561050  1
  Sb  Sb1_0  1  0.00000000  0.00000000  0.25000000  1
  Sb  Sb1_1  1  0.00000000  0.00000000  0.75000000  1
  Sb  Sb1_2  1  0.00000000  0.50000000  0.25000000  1
  Sb  Sb1_3  1  0.00000000  0.50000000  0.75000000  1
  Sb  Sb1_4  1  0.50000000  0.00000000  0.25000000  1
  Sb  Sb1_5  1  0.50000000  0.00000000  0.75000000  1
  Sb  Sb1_6  1  0.50000000  0.50000000  0.25000000  1
  Sb  Sb1_7  1  0.50000000  0.50000000  0.75000000  1
  Sb  Sb2_0  1  0.00000000  0.00000000  0.38438950  1
  Sb  Sb2_1  1  0.00000000  0.00000000  0.88438950  1
  Sb  Sb2_2  1  0.00000000  0.50000000  0.38438950  1
  Sb  Sb2_3  1  0.00000000  0.50000000  0.88438950  1
  Sb  Sb2_4  1  0.50000000  0.00000000  0.38438950  1
  Sb  Sb2_5  1  0.50000000  0.00000000  0.88438950  1
  Sb  Sb2_6  1  0.50000000  0.50000000  0.38438950  1
  Sb  Sb2_7  1  0.50000000  0.50000000  0.88438950  1
  Au  Au0_0  1  0.00000000  0.00000000  0.00000000  1
  Au  Au0_1  1  0.00000000  0.00000000  0.50000000  1
  Au  Au0_2  1  0.00000000  0.50000000  0.00000000  1
  Au  Au0_3  1  0.00000000  0.50000000  0.50000000  1
  Au  Au0_4  1  0.50000000  0.00000000  0.00000000  1
  Au  Au0_5  1  0.50000000  0.00000000  0.50000000  1
  Au  Au0_6  1  0.50000000  0.50000000  0.00000000  1
  Au  Au0_7  1  0.50000000  0.50000000  0.50000000  1
loop_
_geom_bond_atom_site_label_1
_geom_bond_atom_site_label_2
_geom_bond_distance
_geom_bond_site_symmetry_2
Sb0_0 Sb1_0 3.175660 1_555
Sb0_1 Sb1_1 3.175660 1_555
Sb0_2 Sb1_2 3.175660 1_555
Sb0_3 Sb1_3 3.175660 1_555
Sb0_4 Sb1_4 3.175660 1_555
Sb0_5 Sb1_5 3.175660 1_555
Sb0_6 Sb1_6 3.175660 1_555
Sb0_7 Sb1_7 3.175660 1_555
Sb1_0 Sb1_4 3.063195 1_455
Sb1_0 Sb1_2 3.063195 1_545
Sb1_0 Sb1_4 3.063195 1_555
Sb1_0 Sb1_2 3.063195 1_555
Sb1_0 Sb2_0 3.175660 1_555
Sb1_1 Sb1_3 3.063195 1_555
Sb1_1 Sb1_3 3.063195 1_545
Sb1_1 Sb1_5 3.063195 1_455
Sb1_1 Sb1_5 3.063195 1_555
Sb1_1 Sb2_1 3.175660 1_555
Sb1_2 Sb1_6 3.063195 1_455
Sb1_2 Sb1_6 3.063195 1_555
Sb1_2 Sb2_2 3.175660 1_555
Sb1_3 Sb1_7 3.063195 1_455
Sb1_3 Sb1_7 3.063195 1_555
Sb1_3 Sb2_3 3.175660 1_555
Sb1_4 Sb1_6 3.063195 1_545
Sb1_4 Sb1_6 3.063195 1_555
Sb1_4 Sb2_4 3.175660 1_555
Sb1_5 Sb1_7 3.063195 1_545
Sb1_5 Sb1_7 3.063195 1_555
Sb1_5 Sb2_5 3.175660 1_555
Sb1_6 Sb2_6 3.175660 1_555
Sb1_7 Sb2_7 3.175660 1_555
Au0_0 Sb0_0 2.731907 1_555
Au0_0 Sb2_1 2.731907 1_554
Au0_1 Sb0_1 2.731907 1_555
Au0_1 Sb2_0 2.731907 1_555
Au0_2 Sb0_2 2.731907 1_555
Au0_2 Sb2_3 2.731907 1_554
Au0_3 Sb0_3 2.731907 1_555
Au0_3 Sb2_2 2.731907 1_555
Au0_4 Sb0_4 2.731907 1_555
Au0_4 Sb2_5 2.731907 1_554
Au0_5 Sb0_5 2.731907 1_555
Au0_5 Sb2_4 2.731907 1_555
Au0_6 Sb0_6 2.731907 1_555
Au0_6 Sb2_7 2.731907 1_554
Au0_7 Sb0_7 2.731907 1_555
Au0_7 Sb2_6 2.731907 1_555
