# generated using pymatgen
data_Mg2Si
_symmetry_space_group_name_H-M   'P 1'
_cell_length_a   5.51439200
_cell_length_b   6.18291164
_cell_length_c   7.54013319
_cell_angle_alpha   85.71696606
_cell_angle_beta   71.40015774
_cell_angle_gamma   83.68879864
_symmetry_Int_Tables_number   1
_chemical_formula_structural   Mg2Si
_chemical_formula_sum   'Mg8 Si4'
_cell_volume   241.96235123
_cell_formula_units_Z   4
loop_
 _symmetry_equiv_pos_site_id
 _symmetry_equiv_pos_as_xyz
  1  'x, y, z'
loop_
 _atom_site_type_symbol
 _atom_site_label
 _atom_site_symmetry_multiplicity
 _atom_site_fract_x
 _atom_site_fract_y
 _atom_site_fract_z
 _atom_site_occupancy
  Mg  Mg0  1  0.23025300  0.63326900  0.51761600  1
  Mg  Mg1  1  0.80296600  0.91985500  0.89824700  1
  Mg  Mg2  1  0.76392400  0.87474700  0.45133800  1
  Mg  Mg3  1  0.82391800  0.42367000  0.86611100  1
  Mg  Mg4  1  0.23607600  0.12525300  0.54866200  1
  Mg  Mg5  1  0.19703400  0.08014500  0.10175300  1
  Mg  Mg6  1  0.17608200  0.57633000  0.13388900  1
  Mg  Mg7  1  0.76974700  0.36673100  0.48238400  1
  Si  Si0  1  0.61661100  0.20260000  0.20768800  1
  Si  Si1  1  0.35933600  0.39428800  0.79652800  1
  Si  Si2  1  0.38338900  0.79740000  0.79231200  1
  Si  Si3  1  0.64066400  0.60571200  0.20347200  1
loop_
_geom_bond_atom_site_label_1
_geom_bond_atom_site_label_2
_geom_bond_distance
_geom_bond_site_symmetry_2
Mg0 Si3 2.705080 1_555
Mg0 Si1 2.715193 1_555
Mg0 Si2 2.766063 1_555
Mg1 Si2 2.866869 1_555
Mg1 Si0 2.870695 1_566
Mg1 Si3 2.875896 1_556
Mg1 Si2 3.063051 1_655
Mg2 Si2 2.799551 1_555
Mg2 Si0 2.859692 1_565
Mg2 Si3 2.871446 1_555
Mg3 Si3 2.701202 1_556
Mg3 Si0 2.783530 1_556
Mg3 Si1 2.800990 1_555
Mg3 Si1 2.816682 1_655
Mg4 Si0 2.799551 1_555
Mg4 Si2 2.859692 1_545
Mg4 Si1 2.871446 1_555
Mg5 Si0 2.866869 1_555
Mg5 Si2 2.870695 1_544
Mg5 Si1 2.875896 1_554
Mg5 Si0 3.063051 1_455
Mg6 Si1 2.701202 1_554
Mg6 Si2 2.783530 1_554
Mg6 Si3 2.800990 1_555
Mg6 Si3 2.816682 1_455
Mg7 Si1 2.705080 1_555
Mg7 Si3 2.715193 1_555
Mg7 Si0 2.766063 1_555
Si0 Si3 2.507758 1_555
Si1 Si2 2.507758 1_555
