# generated using pymatgen
data_CaMg30TiO32
_symmetry_space_group_name_H-M   'P 1'
_cell_length_a   8.46290245
_cell_length_b   8.46290245
_cell_length_c   8.48466265
_cell_angle_alpha   90.00000000
_cell_angle_beta   90.00000000
_cell_angle_gamma   90.00000000
_symmetry_Int_Tables_number   1
_chemical_formula_structural   CaMg30TiO32
_chemical_formula_sum   'Ca1 Mg30 Ti1 O32'
_cell_volume   607.67762995
_cell_formula_units_Z   1
loop_
 _symmetry_equiv_pos_site_id
 _symmetry_equiv_pos_as_xyz
  1  'x, y, z'
loop_
 _atom_site_type_symbol
 _atom_site_label
 _atom_site_symmetry_multiplicity
 _atom_site_fract_x
 _atom_site_fract_y
 _atom_site_fract_z
 _atom_site_occupancy
  Ca  Ca0  1  0.00000000  -0.00000000  0.00000000  1
  Mg  Mg0  1  0.00000000  0.50000000  0.00000000  1
  Mg  Mg1  1  0.50000000  -0.00000000  0.00000000  1
  Mg  Mg2  1  0.00000000  -0.00000000  0.50000000  1
  Mg  Mg3  1  0.00000000  0.50000000  0.50000000  1
  Mg  Mg4  1  0.50000000  -0.00000000  0.50000000  1
  Mg  Mg5  1  0.50000000  0.50000000  0.50000000  1
  Mg  Mg6  1  0.25164463  0.25164463  0.00000000  1
  Mg  Mg7  1  0.25164463  0.74835537  0.00000000  1
  Mg  Mg8  1  0.74835537  0.25164463  0.00000000  1
  Mg  Mg9  1  0.74835537  0.74835537  0.00000000  1
  Mg  Mg10  1  0.25008450  0.25008450  0.50000000  1
  Mg  Mg11  1  0.25008450  0.74991550  0.50000000  1
  Mg  Mg12  1  0.74991550  0.25008450  0.50000000  1
  Mg  Mg13  1  0.74991550  0.74991550  0.50000000  1
  Mg  Mg14  1  0.00000000  0.25353981  0.25358947  1
  Mg  Mg15  1  0.00000000  0.74646019  0.25358947  1
  Mg  Mg16  1  0.50000000  0.25070545  0.25220302  1
  Mg  Mg17  1  0.50000000  0.74929455  0.25220302  1
  Mg  Mg18  1  0.00000000  0.25353981  0.74641053  1
  Mg  Mg19  1  0.00000000  0.74646019  0.74641053  1
  Mg  Mg20  1  0.50000000  0.25070545  0.74779698  1
  Mg  Mg21  1  0.50000000  0.74929455  0.74779698  1
  Mg  Mg22  1  0.25353981  -0.00000000  0.25358947  1
  Mg  Mg23  1  0.25070545  0.50000000  0.25220302  1
  Mg  Mg24  1  0.74646019  -0.00000000  0.25358947  1
  Mg  Mg25  1  0.74929455  0.50000000  0.25220302  1
  Mg  Mg26  1  0.25353981  -0.00000000  0.74641053  1
  Mg  Mg27  1  0.25070545  0.50000000  0.74779698  1
  Mg  Mg28  1  0.74646019  -0.00000000  0.74641053  1
  Mg  Mg29  1  0.74929455  0.50000000  0.74779698  1
  Ti  Ti0  1  0.50000000  0.50000000  0.00000000  1
  O  O0  1  0.00000000  -0.00000000  0.26288237  1
  O  O1  1  0.00000000  0.50000000  0.25281239  1
  O  O2  1  0.50000000  -0.00000000  0.25281239  1
  O  O3  1  0.50000000  0.50000000  0.26138088  1
  O  O4  1  0.00000000  -0.00000000  0.73711763  1
  O  O5  1  0.00000000  0.50000000  0.74718761  1
  O  O6  1  0.50000000  -0.00000000  0.74718761  1
  O  O7  1  0.50000000  0.50000000  0.73861912  1
  O  O8  1  0.25003126  0.25003126  0.24956501  1
  O  O9  1  0.25003126  0.74996874  0.24956501  1
  O  O10  1  0.74996874  0.25003126  0.24956501  1
  O  O11  1  0.74996874  0.74996874  0.24956501  1
  O  O12  1  0.25003126  0.25003126  0.75043499  1
  O  O13  1  0.25003126  0.74996874  0.75043499  1
  O  O14  1  0.74996874  0.25003126  0.75043499  1
  O  O15  1  0.74996874  0.74996874  0.75043499  1
  O  O16  1  0.00000000  0.26263401  0.00000000  1
  O  O17  1  0.00000000  0.73736599  0.00000000  1
  O  O18  1  0.50000000  0.24732573  0.00000000  1
  O  O19  1  0.50000000  0.75267427  0.00000000  1
  O  O20  1  0.00000000  0.25194010  0.50000000  1
  O  O21  1  0.00000000  0.74805990  0.50000000  1
  O  O22  1  0.50000000  0.24864970  0.50000000  1
  O  O23  1  0.50000000  0.75135030  0.50000000  1
  O  O24  1  0.26263401  -0.00000000  0.00000000  1
  O  O25  1  0.24732573  0.50000000  0.00000000  1
  O  O26  1  0.73736599  -0.00000000  0.00000000  1
  O  O27  1  0.75267427  0.50000000  0.00000000  1
  O  O28  1  0.25194010  -0.00000000  0.50000000  1
  O  O29  1  0.24864970  0.50000000  0.50000000  1
  O  O30  1  0.74805990  -0.00000000  0.50000000  1
  O  O31  1  0.75135030  0.50000000  0.50000000  1
loop_
_geom_bond_atom_site_label_1
_geom_bond_atom_site_label_2
_geom_bond_distance
_geom_bond_site_symmetry_2
Ca0 O26 2.222646 1_455
Ca0 O17 2.222646 1_545
Ca0 O24 2.222646 1_555
Ca0 O16 2.222646 1_555
Ca0 O4 2.230468 1_554
Ca0 O0 2.230468 1_555
Mg0 O16 2.008805 1_555
Mg0 O17 2.008805 1_555
Mg0 O25 2.093094 1_555
Mg0 O27 2.093094 1_455
Mg0 O1 2.145028 1_555
Mg0 O5 2.145028 1_554
Mg1 O24 2.008805 1_555
Mg1 O26 2.008805 1_555
Mg1 O18 2.093094 1_555
Mg1 O19 2.093094 1_545
Mg1 O6 2.145028 1_554
Mg1 O2 2.145028 1_555
Mg2 O4 2.011863 1_555
Mg2 O0 2.011863 1_555
Mg2 O30 2.132144 1_455
Mg2 O20 2.132144 1_555
Mg2 O28 2.132144 1_555
Mg2 O21 2.132144 1_545
Mg3 O5 2.097303 1_555
Mg3 O1 2.097303 1_555
Mg3 O20 2.099307 1_555
Mg3 O21 2.099307 1_555
Mg3 O29 2.104298 1_555
Mg3 O31 2.104298 1_455
Mg4 O2 2.097303 1_555
Mg4 O6 2.097303 1_555
Mg4 O30 2.099307 1_555
Mg4 O28 2.099307 1_555
Mg4 O22 2.104298 1_555
Mg4 O23 2.104298 1_545
Mg5 O7 2.024603 1_555
Mg5 O3 2.024603 1_555
Mg5 O31 2.127153 1_555
Mg5 O23 2.127153 1_555
Mg5 O22 2.127153 1_555
Mg5 O29 2.127153 1_555
Mg6 O25 2.102125 1_555
Mg6 O18 2.102125 1_555
Mg6 O12 2.117563 1_554
Mg6 O8 2.117563 1_555
Mg6 O24 2.131674 1_555
Mg6 O16 2.131674 1_555
Mg7 O25 2.102125 1_555
Mg7 O19 2.102125 1_555
Mg7 O9 2.117563 1_555
Mg7 O13 2.117563 1_554
Mg7 O17 2.131674 1_555
Mg7 O24 2.131674 1_565
Mg8 O18 2.102125 1_555
Mg8 O27 2.102125 1_555
Mg8 O10 2.117563 1_555
Mg8 O14 2.117563 1_554
Mg8 O26 2.131674 1_555
Mg8 O16 2.131674 1_655
Mg9 O19 2.102125 1_555
Mg9 O27 2.102125 1_555
Mg9 O15 2.117563 1_554
Mg9 O11 2.117563 1_555
Mg9 O17 2.131674 1_655
Mg9 O26 2.131674 1_565
Mg10 O22 2.115045 1_555
Mg10 O29 2.115045 1_555
Mg10 O28 2.116499 1_555
Mg10 O20 2.116499 1_555
Mg10 O12 2.124857 1_555
Mg10 O8 2.124857 1_555
Mg11 O29 2.115045 1_555
Mg11 O23 2.115045 1_555
Mg11 O21 2.116499 1_555
Mg11 O28 2.116499 1_565
Mg11 O9 2.124857 1_555
Mg11 O13 2.124857 1_555
Mg12 O22 2.115045 1_555
Mg12 O31 2.115045 1_555
Mg12 O30 2.116499 1_555
Mg12 O20 2.116499 1_655
Mg12 O10 2.124857 1_555
Mg12 O14 2.124857 1_555
Mg13 O23 2.115045 1_555
Mg13 O31 2.115045 1_555
Mg13 O21 2.116499 1_655
Mg13 O30 2.116499 1_565
Mg13 O15 2.124857 1_555
Mg13 O11 2.124857 1_555
Mg14 O1 2.085779 1_555
Mg14 O20 2.090754 1_555
Mg14 O10 2.116474 1_455
Mg14 O8 2.116474 1_555
Mg14 O0 2.147131 1_555
Mg14 O16 2.152997 1_555
Mg15 O1 2.085779 1_555
Mg15 O21 2.090754 1_555
Mg15 O11 2.116474 1_455
Mg15 O9 2.116474 1_555
Mg15 O0 2.147131 1_565
Mg15 O17 2.152997 1_555
Mg16 O22 2.102546 1_555
Mg16 O3 2.111192 1_555
Mg16 O10 2.115587 1_555
Mg16 O8 2.115587 1_555
Mg16 O2 2.121702 1_555
Mg16 O18 2.140049 1_555
Mg17 O23 2.102546 1_555
Mg17 O3 2.111192 1_555
Mg17 O11 2.115587 1_555
Mg17 O9 2.115587 1_555
Mg17 O2 2.121702 1_565
Mg17 O19 2.140049 1_555
Mg18 O5 2.085779 1_555
Mg18 O20 2.090754 1_555
Mg18 O14 2.116474 1_455
Mg18 O12 2.116474 1_555
Mg18 O4 2.147131 1_555
Mg18 O16 2.152997 1_556
Mg19 O5 2.085779 1_555
Mg19 O21 2.090754 1_555
Mg19 O15 2.116474 1_455
Mg19 O13 2.116474 1_555
Mg19 O4 2.147131 1_565
Mg19 O17 2.152997 1_556
Mg20 O22 2.102546 1_555
Mg20 O7 2.111192 1_555
Mg20 O12 2.115587 1_555
Mg20 O14 2.115587 1_555
Mg20 O6 2.121702 1_555
Mg20 O18 2.140049 1_556
Mg21 O23 2.102546 1_555
Mg21 O7 2.111192 1_555
Mg21 O15 2.115587 1_555
Mg21 O13 2.115587 1_555
Mg21 O6 2.121702 1_565
Mg21 O19 2.140049 1_556
Mg22 O2 2.085779 1_555
Mg22 O28 2.090754 1_555
Mg22 O9 2.116474 1_545
Mg22 O8 2.116474 1_555
Mg22 O0 2.147131 1_555
Mg22 O24 2.152997 1_555
Mg23 O29 2.102546 1_555
Mg23 O3 2.111192 1_555
Mg23 O8 2.115587 1_555
Mg23 O9 2.115587 1_555
Mg23 O1 2.121702 1_555
Mg23 O25 2.140049 1_555
Mg24 O2 2.085779 1_555
Mg24 O30 2.090754 1_555
Mg24 O11 2.116474 1_545
Mg24 O10 2.116474 1_555
Mg24 O0 2.147131 1_655
Mg24 O26 2.152997 1_555
Mg25 O31 2.102546 1_555
Mg25 O3 2.111192 1_555
Mg25 O10 2.115587 1_555
Mg25 O11 2.115587 1_555
Mg25 O1 2.121702 1_655
Mg25 O27 2.140049 1_555
Mg26 O6 2.085779 1_555
Mg26 O28 2.090754 1_555
Mg26 O13 2.116474 1_545
Mg26 O12 2.116474 1_555
Mg26 O4 2.147131 1_555
Mg26 O24 2.152997 1_556
Mg27 O29 2.102546 1_555
Mg27 O7 2.111192 1_555
Mg27 O12 2.115587 1_555
Mg27 O13 2.115587 1_555
Mg27 O5 2.121702 1_555
Mg27 O25 2.140049 1_556
Mg28 O6 2.085779 1_555
Mg28 O30 2.090754 1_555
Mg28 O15 2.116474 1_545
Mg28 O14 2.116474 1_555
Mg28 O4 2.147131 1_655
Mg28 O26 2.152997 1_556
Mg29 O31 2.102546 1_555
Mg29 O7 2.111192 1_555
Mg29 O14 2.115587 1_555
Mg29 O15 2.115587 1_555
Mg29 O5 2.121702 1_655
Mg29 O27 2.140049 1_556
O3 Ti0 2.217729 1_555
O7 Ti0 2.217729 1_556
O18 Ti0 2.138358 1_555
O19 Ti0 2.138358 1_555
O25 Ti0 2.138358 1_555
O27 Ti0 2.138358 1_555
