# generated using pymatgen
data_Mg6VSb
_symmetry_space_group_name_H-M   'P 1'
_cell_length_a   5.19134600
_cell_length_b   6.08709100
_cell_length_c   10.97273000
_cell_angle_alpha   90.00000000
_cell_angle_beta   90.00000000
_cell_angle_gamma   90.00000000
_symmetry_Int_Tables_number   1
_chemical_formula_structural   Mg6VSb
_chemical_formula_sum   'Mg12 V2 Sb2'
_cell_volume   346.74041333
_cell_formula_units_Z   2
loop_
 _symmetry_equiv_pos_site_id
 _symmetry_equiv_pos_as_xyz
  1  'x, y, z'
loop_
 _atom_site_type_symbol
 _atom_site_label
 _atom_site_symmetry_multiplicity
 _atom_site_fract_x
 _atom_site_fract_y
 _atom_site_fract_z
 _atom_site_occupancy
  Mg  Mg0  1  0.50000000  0.74905500  0.91674200  1
  Mg  Mg1  1  0.50000000  0.25094500  0.91674200  1
  Mg  Mg2  1  0.00000000  0.25845500  0.58289300  1
  Mg  Mg3  1  0.00000000  0.74154500  0.58289300  1
  Mg  Mg4  1  0.00000000  0.50000000  0.83002500  1
  Mg  Mg5  1  0.00000000  0.00000000  0.83595400  1
  Mg  Mg6  1  0.50000000  0.24905500  0.41674200  1
  Mg  Mg7  1  0.50000000  0.75094500  0.41674200  1
  Mg  Mg8  1  0.00000000  0.75845500  0.08289300  1
  Mg  Mg9  1  0.00000000  0.24154500  0.08289300  1
  Mg  Mg10  1  0.00000000  0.00000000  0.33002500  1
  Mg  Mg11  1  0.00000000  0.50000000  0.33595400  1
  V  V0  1  0.50000000  0.50000000  0.66678700  1
  V  V1  1  0.50000000  0.00000000  0.16678700  1
  Sb  Sb0  1  0.50000000  0.00000000  0.66796200  1
  Sb  Sb1  1  0.50000000  0.50000000  0.16796200  1
loop_
_geom_bond_atom_site_label_1
_geom_bond_atom_site_label_2
_geom_bond_distance
_geom_bond_site_symmetry_2
Mg0 Mg1 3.032041 1_555
Mg0 Mg1 3.055050 1_565
Mg0 Sb0 3.128117 1_565
Mg0 V0 3.133793 1_555
Mg0 Mg5 3.139534 1_565
Mg0 Mg5 3.139534 1_665
Mg0 V1 3.140238 1_566
Mg0 Sb1 3.145948 1_556
Mg0 Mg4 3.152972 1_555
Mg0 Mg4 3.152972 1_655
Mg0 Mg8 3.172475 1_556
Mg0 Mg8 3.172475 1_656
Mg1 Sb0 3.128117 1_555
Mg1 V0 3.133793 1_555
Mg1 Mg5 3.139534 1_555
Mg1 Mg5 3.139534 1_655
Mg1 V1 3.140238 1_556
Mg1 Sb1 3.145948 1_556
Mg1 Mg4 3.152972 1_555
Mg1 Mg4 3.152972 1_655
Mg1 Mg9 3.172475 1_656
Mg1 Mg9 3.172475 1_556
Mg2 Mg3 2.940613 1_555
Mg2 Mg4 3.084670 1_555
Mg2 V0 3.121974 1_555
Mg2 V0 3.121974 1_455
Mg2 Mg3 3.146478 1_545
Mg2 Mg6 3.172475 1_455
Mg2 Mg6 3.172475 1_555
Mg2 Sb0 3.175517 1_455
Mg2 Sb0 3.175517 1_555
Mg2 Mg5 3.191478 1_555
Mg3 Mg4 3.084670 1_555
Mg3 V0 3.121974 1_455
Mg3 V0 3.121974 1_555
Mg3 Mg7 3.172475 1_455
Mg3 Mg7 3.172475 1_555
Mg3 Sb0 3.175517 1_465
Mg3 Sb0 3.175517 1_565
Mg3 Mg5 3.191478 1_565
Mg4 Mg5 3.044241 1_555
Mg4 Mg5 3.044241 1_565
Mg4 V0 3.153696 1_555
Mg4 V0 3.153696 1_455
Mg4 Mg8 3.189636 1_556
Mg4 Mg9 3.189636 1_556
Mg5 Mg9 3.082808 1_556
Mg5 Mg8 3.082808 1_546
Mg5 Sb0 3.183612 1_455
Mg5 Sb0 3.183612 1_555
Mg6 Mg7 3.032041 1_545
Mg6 Mg7 3.055050 1_555
Mg6 Sb1 3.128117 1_555
Mg6 V1 3.133793 1_555
Mg6 V0 3.140238 1_555
Mg6 Sb0 3.145948 1_555
Mg7 Sb1 3.128117 1_555
Mg7 V1 3.133793 1_565
Mg7 V0 3.140238 1_555
Mg7 Sb0 3.145948 1_565
Mg8 Mg9 2.940613 1_565
Mg8 V1 3.121974 1_465
Mg8 V1 3.121974 1_565
Mg8 Mg9 3.146478 1_555
Mg8 Sb1 3.175517 1_455
Mg8 Sb1 3.175517 1_555
Mg9 V1 3.121974 1_455
Mg9 V1 3.121974 1_555
Mg9 Sb1 3.175517 1_455
Mg9 Sb1 3.175517 1_555
Mg10 Mg11 3.044241 1_555
Mg10 Mg11 3.044241 1_545
Mg10 Mg8 3.084670 1_545
Mg10 Mg9 3.084670 1_555
Mg10 Mg6 3.152972 1_455
Mg10 Mg6 3.152972 1_555
Mg10 Mg7 3.152972 1_545
Mg10 Mg7 3.152972 1_445
Mg10 V1 3.153696 1_555
Mg10 V1 3.153696 1_455
Mg10 Mg3 3.189636 1_545
Mg10 Mg2 3.189636 1_555
Mg11 Mg3 3.082808 1_555
Mg11 Mg2 3.082808 1_555
Mg11 Mg7 3.139534 1_455
Mg11 Mg6 3.139534 1_555
Mg11 Mg7 3.139534 1_555
Mg11 Mg6 3.139534 1_455
Mg11 Sb1 3.183612 1_455
Mg11 Sb1 3.183612 1_555
Mg11 Mg8 3.191478 1_555
Mg11 Mg9 3.191478 1_555
Sb0 V0 3.043573 1_545
Sb0 V0 3.043573 1_555
Sb1 V1 3.043573 1_565
Sb1 V1 3.043573 1_555
