# generated using pymatgen
data_Na15Os7N19
_symmetry_space_group_name_H-M   'P 1'
_cell_length_a   6.23898460
_cell_length_b   11.69317182
_cell_length_c   17.81377133
_cell_angle_alpha   89.29037992
_cell_angle_beta   94.75476727
_cell_angle_gamma   100.88653126
_symmetry_Int_Tables_number   1
_chemical_formula_structural   Na15Os7N19
_chemical_formula_sum   'Na30 Os14 N38'
_cell_volume   1271.79002226
_cell_formula_units_Z   2
loop_
 _symmetry_equiv_pos_site_id
 _symmetry_equiv_pos_as_xyz
  1  'x, y, z'
loop_
 _atom_site_type_symbol
 _atom_site_label
 _atom_site_symmetry_multiplicity
 _atom_site_fract_x
 _atom_site_fract_y
 _atom_site_fract_z
 _atom_site_occupancy
  Na  Na0  1  0.52934700  0.62634900  0.44267000  1
  Na  Na1  1  0.47065300  0.37365100  0.55733000  1
  Na  Na2  1  0.59462300  0.12910300  0.64101700  1
  Na  Na3  1  0.40537700  0.87089700  0.35898300  1
  Na  Na4  1  0.72768700  0.03219000  0.20299200  1
  Na  Na5  1  0.27231300  0.96781000  0.79700800  1
  Na  Na6  1  0.90248700  0.03028700  0.39440100  1
  Na  Na7  1  0.09751300  0.96971300  0.60559900  1
  Na  Na8  1  0.82519300  0.78867700  0.28637400  1
  Na  Na9  1  0.17480700  0.21132300  0.71362600  1
  Na  Na10  1  0.82694200  0.15927700  0.83050700  1
  Na  Na11  1  0.17305800  0.84072300  0.16949300  1
  Na  Na12  1  0.87227800  0.90818500  0.88721500  1
  Na  Na13  1  0.12772200  0.09181500  0.11278500  1
  Na  Na14  1  0.71388800  0.08908100  0.00635000  1
  Na  Na15  1  0.28611200  0.91091900  0.99365000  1
  Na  Na16  1  0.59802700  0.89629700  0.53529900  1
  Na  Na17  1  0.40197300  0.10370300  0.46470100  1
  Na  Na18  1  0.67394500  0.49595700  0.28741000  1
  Na  Na19  1  0.32605500  0.50404300  0.71259000  1
  Na  Na20  1  0.98934200  0.34988900  0.02094500  1
  Na  Na21  1  0.01065800  0.65011100  0.97905500  1
  Na  Na22  1  0.88388900  0.65999100  0.79362600  1
  Na  Na23  1  0.11611100  0.34000900  0.20637400  1
  Na  Na24  1  0.78351900  0.26410500  0.37020500  1
  Na  Na25  1  0.21648100  0.73589500  0.62979500  1
  Na  Na26  1  0.55830100  0.35849200  0.84411500  1
  Na  Na27  1  0.44169900  0.64150800  0.15588500  1
  Na  Na28  1  0.00000000  0.50000000  0.50000000  1
  Na  Na29  1  0.50000000  0.50000000  0.00000000  1
  Os  Os0  1  0.60579400  0.26401800  0.13083900  1
  Os  Os1  1  0.39420600  0.73598200  0.86916100  1
  Os  Os2  1  0.81447000  0.39143900  0.69649100  1
  Os  Os3  1  0.18553000  0.60856100  0.30350900  1
  Os  Os4  1  0.71034200  0.64446800  0.61108200  1
  Os  Os5  1  0.28965800  0.35553200  0.38891800  1
  Os  Os6  1  0.99950900  0.78252800  0.45425300  1
  Os  Os7  1  0.00049100  0.21747200  0.54574700  1
  Os  Os8  1  0.91623900  0.55245500  0.13380400  1
  Os  Os9  1  0.08376100  0.44754500  0.86619600  1
  Os  Os10  1  0.68967400  0.88626600  0.71643600  1
  Os  Os11  1  0.31032600  0.11373400  0.28356400  1
  Os  Os12  1  0.70801600  0.80802900  0.05482700  1
  Os  Os13  1  0.29198400  0.19197100  0.94517300  1
  N  N0  1  0.85091700  0.20933300  0.11839700  1
  N  N1  1  0.14908300  0.79066700  0.88160300  1
  N  N2  1  0.89293700  0.30447200  0.61621500  1
  N  N3  1  0.10706300  0.69552800  0.38378500  1
  N  N4  1  0.56210700  0.07251100  0.32472000  1
  N  N5  1  0.43789300  0.92748900  0.67528000  1
  N  N6  1  0.60793000  0.78416200  0.79338300  1
  N  N7  1  0.39207000  0.21583800  0.20661700  1
  N  N8  1  0.71063200  0.42090500  0.16201300  1
  N  N9  1  0.28936800  0.57909500  0.83798700  1
  N  N10  1  0.57291000  0.40518400  0.41413100  1
  N  N11  1  0.42709000  0.59481600  0.58586900  1
  N  N12  1  0.78375200  0.09783800  0.51790000  1
  N  N13  1  0.21624800  0.90216200  0.48210000  1
  N  N14  1  0.90119100  0.67595100  0.52821100  1
  N  N15  1  0.09880900  0.32404900  0.47178900  1
  N  N16  1  0.97213100  0.90261100  0.06072800  1
  N  N17  1  0.02786900  0.09738900  0.93927200  1
  N  N18  1  0.75087400  0.83057500  0.41888000  1
  N  N19  1  0.24912600  0.16942500  0.58112000  1
  N  N20  1  0.80869300  0.80939600  0.64046100  1
  N  N21  1  0.19130700  0.19060400  0.35953900  1
  N  N22  1  0.85557900  0.47223900  0.91302500  1
  N  N23  1  0.14442100  0.52776100  0.08697500  1
  N  N24  1  0.59459300  0.79728000  0.95387900  1
  N  N25  1  0.40540700  0.20272000  0.04612100  1
  N  N26  1  0.74956800  0.66022200  0.08434600  1
  N  N27  1  0.25043200  0.33977800  0.91565400  1
  N  N28  1  0.89863200  0.00974200  0.74791200  1
  N  N29  1  0.10136800  0.99025800  0.25208800  1
  N  N30  1  0.98872800  0.65555600  0.22407800  1
  N  N31  1  0.01127200  0.34444400  0.77592200  1
  N  N32  1  0.86831700  0.54838000  0.67149900  1
  N  N33  1  0.13168300  0.45162000  0.32850100  1
  N  N34  1  0.53431100  0.34169100  0.71331100  1
  N  N35  1  0.46568900  0.65830900  0.28668900  1
  N  N36  1  0.52455200  0.86229900  0.11274500  1
  N  N37  1  0.47544800  0.13770100  0.88725500  1
loop_
_geom_bond_atom_site_label_1
_geom_bond_atom_site_label_2
_geom_bond_distance
_geom_bond_site_symmetry_2
N0 Os0 1.796083 1_555
N0 Na13 2.410229 1_655
N0 Na14 2.454499 1_555
N0 Na20 2.470319 1_555
N0 Na23 2.490571 1_655
N0 Na4 2.581816 1_555
N1 Os1 1.796083 1_555
N1 Na12 2.410229 1_455
N1 Na15 2.454499 1_555
N1 Na21 2.470319 1_555
N1 Na22 2.490571 1_455
N1 Na5 2.581816 1_555
N2 Os7 1.868181 1_655
N2 Os2 1.912817 1_555
N2 Na2 2.556653 1_555
N2 Na9 2.731467 1_655
N2 Na1 3.003625 1_555
N2 Na28 3.081318 1_655
N3 Os6 1.868181 1_455
N3 Os3 1.912817 1_555
N3 Na3 2.556653 1_555
N3 Na8 2.731467 1_455
N3 Na0 3.003625 1_555
N3 Na28 3.081318 1_555
N4 Os11 1.823124 1_555
N4 Na3 2.465578 1_545
N4 Na6 2.497639 1_555
N4 Na24 2.504855 1_555
N4 Na4 2.563644 1_555
N4 Na17 2.814667 1_555
N5 Os10 1.823124 1_555
N5 Na2 2.465578 1_565
N5 Na7 2.497639 1_555
N5 Na25 2.504855 1_555
N5 Na5 2.563644 1_555
N5 Na16 2.814667 1_555
N6 Os10 1.846555 1_555
N6 Os1 1.978237 1_555
N6 Na22 2.452615 1_555
N6 Na12 2.513305 1_555
N7 Os11 1.846555 1_555
N7 Os0 1.978237 1_555
N7 Na23 2.452615 1_555
N7 Na13 2.513305 1_555
N8 Os8 1.899101 1_555
N8 Os0 1.900894 1_555
N8 Na18 2.453894 1_555
N8 Na23 2.910842 1_655
N9 Os9 1.899101 1_555
N9 Os1 1.900894 1_555
N9 Na19 2.453894 1_555
N9 Na22 2.910842 1_455
N10 Os5 1.774581 1_555
N10 Na24 2.466056 1_555
N10 Na18 2.558037 1_555
N10 Na1 2.684731 1_555
N10 Na0 2.709486 1_555
N10 Na28 2.986565 1_655
N11 Os4 1.774581 1_555
N11 Na25 2.466056 1_555
N11 Na19 2.558037 1_555
N11 Na0 2.684731 1_555
N11 Na1 2.709486 1_555
N11 Na28 2.986565 1_555
N12 Os7 1.795268 1_655
N12 Na16 2.450003 1_545
N12 Na17 2.502434 1_555
N12 Na6 2.558682 1_555
N12 Na2 2.635878 1_555
N12 Na7 3.009987 1_645
N13 Os6 1.795268 1_455
N13 Na17 2.450003 1_565
N13 Na16 2.502434 1_555
N13 Na7 2.558682 1_555
N13 Na3 2.635878 1_555
N13 Na6 3.009987 1_465
N14 Os6 1.862692 1_555
N14 Os4 1.960860 1_555
N14 Na28 2.328442 1_655
N14 Na25 2.560442 1_655
N14 Na0 2.639704 1_555
N15 Os7 1.862692 1_555
N15 Os5 1.960860 1_555
N15 Na28 2.328442 1_555
N15 Na24 2.560442 1_455
N15 Na1 2.639704 1_555
N16 Os12 1.798684 1_555
N16 Na15 2.363879 1_654
N16 Na11 2.398833 1_655
N16 Na13 2.405683 1_665
N17 Os13 1.798684 1_555
N17 Na14 2.363879 1_456
N17 Na10 2.398833 1_455
N17 Na12 2.405683 1_445
N18 Os6 1.810358 1_555
N18 Na6 2.397320 1_565
N18 Na3 2.448942 1_555
N18 Na8 2.514468 1_555
N18 Na16 2.538704 1_555
N18 Na0 2.572531 1_555
N19 Os7 1.810358 1_555
N19 Na7 2.397320 1_545
N19 Na2 2.448942 1_555
N19 Na9 2.514468 1_555
N19 Na17 2.538704 1_555
N19 Na1 2.572531 1_555
N20 Os10 1.907847 1_555
N20 Os4 1.973428 1_555
N20 Na7 2.455113 1_655
N20 Na16 2.513676 1_555
N20 Na25 2.856182 1_655
N21 Os11 1.907847 1_555
N21 Os5 1.973428 1_555
N21 Na6 2.455113 1_455
N21 Na17 2.513676 1_555
N21 Na24 2.856182 1_455
N22 Os9 1.778791 1_655
N22 Na26 2.333899 1_555
N22 Na21 2.399460 1_655
N22 Na20 2.560468 1_556
N22 Na29 2.877793 1_556
N22 Na22 3.029042 1_555
N23 Os8 1.778791 1_455
N23 Na27 2.333899 1_555
N23 Na20 2.399460 1_455
N23 Na21 2.560468 1_554
N23 Na29 2.877793 1_555
N23 Na23 3.029042 1_555
N24 Os12 1.873860 1_556
N24 Os1 1.931276 1_555
N24 Na12 2.355367 1_555
N24 Na15 2.680884 1_555
N25 Os13 1.873860 1_554
N25 Os0 1.931276 1_555
N25 Na13 2.355367 1_555
N25 Na14 2.680884 1_555
N26 Os12 1.858759 1_555
N26 Os8 1.939344 1_555
N26 Na27 2.366747 1_555
N26 Na21 2.601951 1_654
N26 Na29 2.602303 1_555
N27 Os13 1.858759 1_555
N27 Os9 1.939344 1_555
N27 Na26 2.366747 1_555
N27 Na20 2.601951 1_456
N27 Na29 2.602303 1_556
N28 Os10 1.812868 1_545
N28 Na10 2.427032 1_555
N28 Na5 2.554179 1_645
N28 Na9 2.739095 1_655
N28 Na12 2.741540 1_545
N28 Na7 2.992634 1_645
N28 Na2 3.083317 1_555
N29 Os11 1.812868 1_565
N29 Na11 2.427032 1_555
N29 Na4 2.554179 1_465
N29 Na8 2.739095 1_455
N29 Na13 2.741540 1_565
N29 Na6 2.992634 1_465
N29 Na3 3.083317 1_555
N30 Os3 1.938887 1_655
N30 Os8 1.991358 1_555
N30 Na8 2.350727 1_555
N30 Na11 2.479675 1_655
N30 Na18 2.746510 1_555
N31 Os2 1.938887 1_455
N31 Os9 1.991358 1_555
N31 Na9 2.350727 1_555
N31 Na10 2.479675 1_455
N31 Na19 2.746510 1_555
N32 Os2 1.857547 1_555
N32 Os4 1.898590 1_555
N32 Na22 2.536350 1_555
N32 Na25 2.916526 1_655
N32 Na19 3.027143 1_655
N33 Os3 1.857547 1_555
N33 Os5 1.898590 1_555
N33 Na23 2.536350 1_555
N33 Na24 2.916526 1_455
N33 Na18 3.027143 1_455
N34 Os2 1.783756 1_555
N34 Na26 2.330845 1_555
N34 Na9 2.462723 1_555
N34 Na19 2.494126 1_555
N34 Na1 2.804544 1_555
N34 Na2 2.914170 1_555
N35 Os3 1.783756 1_555
N35 Na27 2.330845 1_555
N35 Na8 2.462723 1_555
N35 Na18 2.494126 1_555
N35 Na0 2.804544 1_555
N35 Na3 2.914170 1_555
N36 Os12 1.806580 1_555
N36 Na11 2.459039 1_555
N36 Na15 2.608353 1_554
N36 Na4 2.632008 1_565
N36 Na27 2.652509 1_555
N37 Os13 1.806580 1_555
N37 Na10 2.459039 1_555
N37 Na14 2.608353 1_556
N37 Na5 2.632008 1_545
N37 Na26 2.652509 1_555
