# generated using pymatgen
data_Ca2Sb2O7
_symmetry_space_group_name_H-M   'P 1'
_cell_length_a   7.30379589
_cell_length_b   7.30379845
_cell_length_c   7.30382638
_cell_angle_alpha   60.00006966
_cell_angle_beta   59.99993883
_cell_angle_gamma   59.99997922
_symmetry_Int_Tables_number   1
_chemical_formula_structural   Ca2Sb2O7
_chemical_formula_sum   'Ca4 Sb4 O14'
_cell_volume   275.50711012
_cell_formula_units_Z   2
loop_
 _symmetry_equiv_pos_site_id
 _symmetry_equiv_pos_as_xyz
  1  'x, y, z'
loop_
 _atom_site_type_symbol
 _atom_site_label
 _atom_site_symmetry_multiplicity
 _atom_site_fract_x
 _atom_site_fract_y
 _atom_site_fract_z
 _atom_site_occupancy
  Ca  Ca0  1  0.50000015  0.50000002  0.99999972  1
  Ca  Ca1  1  0.49999993  0.00000017  0.50000001  1
  Ca  Ca2  1  0.00000019  0.49999997  0.49999988  1
  Ca  Ca3  1  0.49999996  0.50000015  0.50000011  1
  Sb  Sb0  1  0.00000003  0.00000031  0.49999988  1
  Sb  Sb1  1  0.00000016  0.49999990  0.99999994  1
  Sb  Sb2  1  0.49999999  0.00000020  0.00000009  1
  Sb  Sb3  1  0.00000021  0.00000000  0.99999979  1
  O  O0  1  0.32341639  0.92658388  0.92658317  1
  O  O1  1  0.92658401  0.32341522  0.32341686  1
  O  O2  1  0.92658448  0.32341517  0.92658502  1
  O  O3  1  0.32341437  0.92658513  0.32341641  1
  O  O4  1  0.92658317  0.92658399  0.32341734  1
  O  O5  1  0.32341571  0.32341579  0.92658446  1
  O  O6  1  0.67658381  0.07341584  0.07341672  1
  O  O7  1  0.07341634  0.67658462  0.67658254  1
  O  O8  1  0.07341511  0.67658454  0.07341554  1
  O  O9  1  0.67658544  0.07341522  0.67658352  1
  O  O10  1  0.07341665  0.07341631  0.67658259  1
  O  O11  1  0.67658407  0.67658389  0.07341623  1
  O  O12  1  0.37500202  0.37500028  0.37499662  1
  O  O13  1  0.62499781  0.62499940  0.62500356  1
loop_
_geom_bond_atom_site_label_1
_geom_bond_atom_site_label_2
_geom_bond_distance
_geom_bond_site_symmetry_2
Ca0 O13 2.236308 1_555
Ca0 O12 2.236313 1_556
Ca0 O0 2.580874 1_555
Ca0 O6 2.580876 1_556
Ca0 O2 2.580877 1_555
Ca0 O5 2.580877 1_555
Ca0 O11 2.580878 1_556
Ca0 O8 2.580880 1_556
Ca1 O12 2.236324 1_555
Ca1 O13 2.236328 1_545
Ca1 O4 2.580868 1_545
Ca1 O10 2.580868 1_555
Ca1 O0 2.580880 1_545
Ca1 O6 2.580881 1_555
Ca1 O9 2.580881 1_555
Ca1 O3 2.580882 1_545
Ca2 O12 2.236331 1_555
Ca2 O13 2.236334 1_455
Ca2 O10 2.580875 1_555
Ca2 O7 2.580876 1_555
Ca2 O4 2.580876 1_455
Ca2 O1 2.580879 1_455
Ca2 O8 2.580890 1_555
Ca2 O2 2.580894 1_455
Ca3 O13 2.236328 1_555
Ca3 O12 2.236333 1_555
Ca3 O7 2.580870 1_555
Ca3 O1 2.580873 1_555
Ca3 O11 2.580884 1_555
Ca3 O9 2.580884 1_555
Ca3 O3 2.580885 1_555
Ca3 O5 2.580887 1_555
O0 Sb3 1.977154 1_565
O0 Sb2 1.977161 1_566
O1 Sb0 1.977152 1_655
O1 Sb1 1.977170 1_654
O2 Sb3 1.977153 1_655
O2 Sb1 1.977155 1_655
O3 Sb0 1.977145 1_565
O3 Sb2 1.977166 1_565
O4 Sb0 1.977157 1_665
O4 Sb3 1.977174 1_664
O5 Sb1 1.977152 1_555
O5 Sb2 1.977155 1_556
O6 Sb3 1.977156 1_654
O6 Sb2 1.977158 1_555
O7 Sb0 1.977155 1_565
O7 Sb1 1.977172 1_555
O8 Sb1 1.977154 1_554
O8 Sb3 1.977155 1_564
O9 Sb0 1.977146 1_655
O9 Sb2 1.977167 1_556
O10 Sb0 1.977155 1_555
O10 Sb3 1.977172 1_555
O11 Sb1 1.977155 1_654
O11 Sb2 1.977158 1_565
