# generated using pymatgen
data_Mg3Si4
_symmetry_space_group_name_H-M   'P 1'
_cell_length_a   5.32306400
_cell_length_b   6.81057384
_cell_length_c   7.92094426
_cell_angle_alpha   103.87972644
_cell_angle_beta   108.42615386
_cell_angle_gamma   99.04567040
_symmetry_Int_Tables_number   1
_chemical_formula_structural   Mg3Si4
_chemical_formula_sum   'Mg6 Si8'
_cell_volume   255.87565496
_cell_formula_units_Z   2
loop_
 _symmetry_equiv_pos_site_id
 _symmetry_equiv_pos_as_xyz
  1  'x, y, z'
loop_
 _atom_site_type_symbol
 _atom_site_label
 _atom_site_symmetry_multiplicity
 _atom_site_fract_x
 _atom_site_fract_y
 _atom_site_fract_z
 _atom_site_occupancy
  Mg  Mg0  1  0.63124100  0.92897600  0.40534400  1
  Mg  Mg1  1  0.06822300  0.67972200  0.47646200  1
  Mg  Mg2  1  0.34207600  0.71020600  0.89888500  1
  Mg  Mg3  1  0.14264100  0.17686900  0.89100400  1
  Mg  Mg4  1  0.47256400  0.39018900  0.42872500  1
  Mg  Mg5  1  0.02861600  0.92493000  0.15150400  1
  Si  Si0  1  0.79622300  0.45282200  0.86787500  1
  Si  Si1  1  0.59078900  0.06572500  0.80928200  1
  Si  Si2  1  0.19559300  0.56038100  0.16072600  1
  Si  Si3  1  0.63461200  0.50519600  0.13955800  1
  Si  Si4  1  0.76331600  0.75904900  0.73416300  1
  Si  Si5  1  0.99978600  0.36099800  0.60743800  1
  Si  Si6  1  0.22384100  0.09093000  0.54417000  1
  Si  Si7  1  0.61053800  0.14039600  0.13149600  1
loop_
_geom_bond_atom_site_label_1
_geom_bond_atom_site_label_2
_geom_bond_distance
_geom_bond_site_symmetry_2
Mg0 Si7 2.861438 1_565
Mg0 Si2 2.903307 1_555
Mg0 Si6 2.916772 1_665
Mg0 Si6 2.967565 1_565
Mg0 Si5 3.001392 1_565
Mg0 Si4 3.026839 1_555
Mg0 Si3 3.144449 1_555
Mg0 Si1 3.196865 1_565
Mg1 Si5 2.644170 1_455
Mg1 Si6 2.661963 1_565
Mg1 Si3 2.753806 1_455
Mg1 Si2 2.764940 1_555
Mg1 Si4 2.988943 1_455
Mg2 Si5 2.765815 1_455
Mg2 Si2 2.781778 1_556
Mg2 Si3 2.844744 1_556
Mg2 Si7 2.906888 1_566
Mg2 Si1 2.920553 1_565
Mg2 Si4 2.943478 1_555
Mg2 Si4 3.048544 1_455
Mg2 Si0 3.052271 1_455
Mg2 Si0 3.237049 1_555
Mg3 Si7 2.704814 1_556
Mg3 Si1 2.735839 1_455
Mg3 Si5 2.786989 1_455
Mg3 Si1 2.826942 1_555
Mg3 Si0 2.829739 1_455
Mg3 Si6 2.852291 1_555
Mg3 Si2 2.859486 1_556
Mg3 Si3 2.919161 1_556
Mg3 Si4 2.937567 1_445
Mg4 Si6 2.748463 1_555
Mg4 Si5 2.778221 1_555
Mg4 Si2 2.786188 1_555
Mg4 Si4 2.837947 1_555
Mg4 Si3 2.915668 1_555
Mg4 Si7 2.922476 1_555
Mg4 Si0 3.243231 1_555
Mg5 Si2 2.774790 1_555
Mg5 Si6 2.816419 1_565
Mg5 Si7 2.836667 1_465
Mg5 Si4 2.992309 1_454
Mg5 Si3 3.230939 1_455
Mg5 Si0 3.231505 1_454
Si0 Si2 2.452436 1_656
Si0 Si3 2.529201 1_556
Si0 Si1 2.558748 1_555
Si0 Si4 2.561139 1_555
Si0 Si5 2.613053 1_555
Si1 Si4 2.431504 1_545
Si1 Si6 2.437194 1_555
Si1 Si7 2.444271 1_556
Si2 Si3 2.474721 1_555
Si2 Si3 2.895986 1_455
Si3 Si7 2.451902 1_555
Si5 Si6 2.383708 1_655
