# generated using pymatgen
data_Ba4Mg(RhO3)4
_symmetry_space_group_name_H-M   'P 1'
_cell_length_a   6.07115706
_cell_length_b   6.07261438
_cell_length_c   10.28924391
_cell_angle_alpha   88.25756387
_cell_angle_beta   91.77203161
_cell_angle_gamma   122.49032855
_symmetry_Int_Tables_number   1
_chemical_formula_structural   Ba4Mg(RhO3)4
_chemical_formula_sum   'Ba4 Mg1 Rh4 O12'
_cell_volume   319.77214050
_cell_formula_units_Z   1
loop_
 _symmetry_equiv_pos_site_id
 _symmetry_equiv_pos_as_xyz
  1  'x, y, z'
loop_
 _atom_site_type_symbol
 _atom_site_label
 _atom_site_symmetry_multiplicity
 _atom_site_fract_x
 _atom_site_fract_y
 _atom_site_fract_z
 _atom_site_occupancy
  Ba  Ba0  1  0.66710700  0.33240200  0.73115700  1
  Ba  Ba1  1  0.27092500  0.72916200  0.28901800  1
  Ba  Ba2  1  0.97693800  0.02285300  0.49217600  1
  Ba  Ba3  1  0.02527700  0.97445200  0.92409200  1
  Mg  Mg0  1  0.55207500  0.44714400  0.15085700  1
  Rh  Rh0  1  0.33915600  0.66003000  0.88315000  1
  Rh  Rh1  1  0.64418600  0.35587300  0.40033400  1
  Rh  Rh2  1  0.78357600  0.21619300  0.09361600  1
  Rh  Rh3  1  0.32668800  0.67284500  0.61560800  1
  O  O0  1  0.17014900  0.37231000  0.74795700  1
  O  O1  1  0.79761000  0.20268100  0.27812700  1
  O  O2  1  0.32222800  0.20859100  0.28708700  1
  O  O3  1  0.62690100  0.82854400  0.74803800  1
  O  O4  1  0.18481900  0.81518500  0.74146100  1
  O  O5  1  0.79055400  0.67765300  0.28703400  1
  O  O6  1  0.50306200  0.00170700  0.50350600  1
  O  O7  1  0.50583900  0.49243600  0.97172000  1
  O  O8  1  0.48029300  0.97567200  0.99859100  1
  O  O9  1  0.50087000  0.49662900  0.52945800  1
  O  O10  1  0.99790100  0.49836100  0.50360500  1
  O  O11  1  0.02343000  0.51927600  0.99840900  1
loop_
_geom_bond_atom_site_label_1
_geom_bond_atom_site_label_2
_geom_bond_distance
_geom_bond_site_symmetry_2
Ba0 O9 2.673214 1_555
Ba0 O10 2.916116 1_555
Ba0 O6 2.916239 1_555
Ba0 O4 2.927221 1_545
Ba0 O4 2.929887 1_655
Ba0 O0 2.930968 1_655
Ba0 O3 2.935926 1_545
Ba0 O7 3.057465 1_555
Ba0 O3 3.160969 1_555
Ba0 O0 3.164157 1_555
Ba0 O11 3.273172 1_655
Ba0 O8 3.277489 1_545
Ba1 O6 2.668303 1_565
Ba1 O10 2.670062 1_455
Ba1 O2 2.756130 1_565
Ba1 O5 2.760502 1_455
Ba1 O1 2.936581 1_455
Ba1 O1 2.937724 1_565
Ba1 O8 3.271859 1_554
Ba1 O11 3.274091 1_554
Ba1 O5 3.333945 1_555
Ba1 O2 3.339575 1_555
Ba1 Mg0 3.362429 1_555
Ba1 O9 3.428565 1_555
Ba2 O5 2.775444 1_545
Ba2 O2 2.776394 1_655
Ba2 O6 2.816027 1_555
Ba2 O10 2.827196 1_555
Ba2 O1 2.865510 1_555
Ba2 O9 2.950013 1_655
Ba2 O9 2.963791 1_545
Ba2 O0 3.206264 1_655
Ba2 O3 3.209733 1_545
Ba2 O10 3.253655 1_545
Ba2 O6 3.263370 1_655
Ba2 O4 3.327932 1_645
Ba3 O4 2.575707 1_555
Ba3 O3 2.727731 1_455
Ba3 O0 2.728486 1_565
Ba3 O11 2.839688 1_555
Ba3 O8 2.840122 1_555
Ba3 O7 2.965247 1_565
Ba3 O7 2.974000 1_455
Ba3 Rh2 3.158962 1_466
Mg0 O7 1.889944 1_554
Mg0 O5 1.958426 1_555
Mg0 O2 1.958660 1_555
O0 Rh3 2.038117 1_555
O0 Rh0 2.043058 1_555
O1 Rh2 1.899012 1_555
O1 Rh1 2.094902 1_555
O2 Rh1 2.005678 1_555
O3 Rh3 2.036187 1_555
O3 Rh0 2.043235 1_555
O4 Rh3 2.025517 1_555
O4 Rh0 2.161374 1_555
O5 Rh1 2.006753 1_555
O6 Rh3 2.025884 1_545
O6 Rh1 2.103409 1_555
O7 Rh0 1.970621 1_555
O8 Rh2 1.888357 1_566
O8 Rh0 2.032275 1_555
O9 Rh1 2.047526 1_555
O9 Rh3 2.092957 1_555
O10 Rh3 2.023622 1_655
O10 Rh1 2.099505 1_555
O11 Rh2 1.888615 1_456
O11 Rh0 2.032244 1_555
