# generated using pymatgen
data_Ba6Pr2Fe4O15
_symmetry_space_group_name_H-M   'P 1'
_cell_length_a   11.97293248
_cell_length_b   11.97293248
_cell_length_c   7.17554860
_cell_angle_alpha   89.81903917
_cell_angle_beta   89.81903917
_cell_angle_gamma   119.63732497
_symmetry_Int_Tables_number   1
_chemical_formula_structural   Ba6Pr2Fe4O15
_chemical_formula_sum   'Ba12 Pr4 Fe8 O30'
_cell_volume   894.03355384
_cell_formula_units_Z   2
loop_
 _symmetry_equiv_pos_site_id
 _symmetry_equiv_pos_as_xyz
  1  'x, y, z'
loop_
 _atom_site_type_symbol
 _atom_site_label
 _atom_site_symmetry_multiplicity
 _atom_site_fract_x
 _atom_site_fract_y
 _atom_site_fract_z
 _atom_site_occupancy
  Ba  Ba0  1  0.82327600  0.17240800  0.33463500  1
  Ba  Ba1  1  0.82613900  0.65134600  0.33555200  1
  Ba  Ba2  1  0.34749400  0.17180000  0.33619000  1
  Ba  Ba3  1  0.17240800  0.82327600  0.83463500  1
  Ba  Ba4  1  0.17180000  0.34749400  0.83619000  1
  Ba  Ba5  1  0.65134600  0.82613900  0.83555200  1
  Ba  Ba6  1  0.00104000  0.99998900  0.49695800  1
  Ba  Ba7  1  0.99998900  0.00104000  0.99695800  1
  Ba  Ba8  1  0.52153900  0.04551800  0.67066700  1
  Ba  Ba9  1  0.04551800  0.52153900  0.17066700  1
  Ba  Ba10  1  0.66805500  0.33468900  0.02148500  1
  Ba  Ba11  1  0.33468900  0.66805500  0.52148500  1
  Pr  Pr0  1  0.52056200  0.47855900  0.66348500  1
  Pr  Pr1  1  0.95546200  0.47775500  0.66850400  1
  Pr  Pr2  1  0.47855900  0.52056200  0.16348500  1
  Pr  Pr3  1  0.47775500  0.95546200  0.16850400  1
  Fe  Fe0  1  0.81861700  0.17530600  0.83385300  1
  Fe  Fe1  1  0.81697400  0.64452700  0.82966100  1
  Fe  Fe2  1  0.35822700  0.18139700  0.84261000  1
  Fe  Fe3  1  0.17530600  0.81861700  0.33385300  1
  Fe  Fe4  1  0.18139700  0.35822700  0.34261000  1
  Fe  Fe5  1  0.64452700  0.81697400  0.32966100  1
  Fe  Fe6  1  0.66288900  0.33323000  0.47449800  1
  Fe  Fe7  1  0.33323000  0.66288900  0.97449800  1
  O  O0  1  0.09006500  0.89756300  0.22763800  1
  O  O1  1  0.09818400  0.19557600  0.23331500  1
  O  O2  1  0.80953200  0.89827800  0.22963500  1
  O  O3  1  0.89756300  0.09006500  0.72763800  1
  O  O4  1  0.89827800  0.80953200  0.72963500  1
  O  O5  1  0.19557600  0.09818400  0.73331500  1
  O  O6  1  0.75867600  0.25917700  0.65888900  1
  O  O7  1  0.74610100  0.50334700  0.65491800  1
  O  O8  1  0.49678500  0.26083300  0.66022800  1
  O  O9  1  0.25917700  0.75867600  0.15888900  1
  O  O10  1  0.26083300  0.49678500  0.16022800  1
  O  O11  1  0.50334700  0.74610100  0.15491800  1
  O  O12  1  0.06479500  0.67594700  0.49032200  1
  O  O13  1  0.33417700  0.39686800  0.47352400  1
  O  O14  1  0.60584500  0.93252100  0.45088400  1
  O  O15  1  0.06898200  0.39105200  0.49196500  1
  O  O16  1  0.32651900  0.93569100  0.45570000  1
  O  O17  1  0.60313600  0.66454700  0.46742400  1
  O  O18  1  0.93569100  0.32651900  0.95570000  1
  O  O19  1  0.66454700  0.60313600  0.96742400  1
  O  O20  1  0.39105200  0.06898200  0.99196500  1
  O  O21  1  0.93252100  0.60584500  0.95088400  1
  O  O22  1  0.67594700  0.06479500  0.99032200  1
  O  O23  1  0.39686800  0.33417700  0.97352400  1
  O  O24  1  0.58149200  0.41815400  0.33059300  1
  O  O25  1  0.58438600  0.17404700  0.32135800  1
  O  O26  1  0.82501000  0.41591800  0.34052000  1
  O  O27  1  0.41815400  0.58149200  0.83059300  1
  O  O28  1  0.41591800  0.82501000  0.84052000  1
  O  O29  1  0.17404700  0.58438600  0.82135800  1
loop_
_geom_bond_atom_site_label_1
_geom_bond_atom_site_label_2
_geom_bond_distance
_geom_bond_site_symmetry_2
Ba0 O6 2.808849 1_555
Ba0 O25 2.871847 1_555
Ba0 O14 2.880695 1_545
Ba0 O26 2.905760 1_555
Ba0 O22 2.945423 1_554
Ba0 O15 3.033946 1_655
Ba0 O18 3.177811 1_554
Ba0 O1 3.243426 1_655
Ba0 O3 3.252855 1_555
Ba0 O2 3.293846 1_545
Ba1 O7 2.755149 1_555
Ba1 O26 2.812216 1_555
Ba1 O24 2.879120 1_555
Ba1 O17 2.907169 1_555
Ba1 O12 2.945271 1_655
Ba1 O2 3.150588 1_555
Ba1 O19 3.160919 1_554
Ba1 O0 3.167396 1_655
Ba1 O21 3.195527 1_554
Ba1 O4 3.280347 1_555
Ba2 O8 2.809817 1_555
Ba2 O25 2.824750 1_555
Ba2 O16 2.840971 1_545
Ba2 O24 2.894214 1_555
Ba2 O20 2.921363 1_554
Ba2 O13 2.949370 1_555
Ba2 O23 3.118153 1_554
Ba2 O1 3.223196 1_555
Ba2 O5 3.251347 1_555
Ba2 O0 3.302996 1_545
Ba3 O9 2.808849 1_556
Ba3 O29 2.871847 1_555
Ba3 O21 2.880695 1_455
Ba3 O28 2.905760 1_555
Ba3 O12 2.945423 1_555
Ba3 O20 3.033946 1_565
Ba3 O16 3.177811 1_555
Ba3 O5 3.243426 1_565
Ba3 O0 3.252855 1_556
Ba3 O4 3.293846 1_455
Ba4 O10 2.809817 1_556
Ba4 O29 2.824750 1_555
Ba4 O18 2.840971 1_455
Ba4 O27 2.894214 1_555
Ba4 O15 2.921363 1_555
Ba4 O23 2.949370 1_555
Ba4 O13 3.118153 1_555
Ba4 O5 3.223196 1_555
Ba4 O1 3.251347 1_556
Ba4 O3 3.302996 1_455
Ba5 O11 2.755149 1_556
Ba5 O28 2.812216 1_555
Ba5 O27 2.879120 1_555
Ba5 O19 2.907169 1_555
Ba5 O22 2.945271 1_565
Ba5 O4 3.150588 1_555
Ba5 O17 3.160919 1_555
Ba5 O3 3.167396 1_565
Ba5 O14 3.195527 1_555
Ba5 O2 3.280347 1_556
Ba6 O4 2.586381 1_455
Ba6 O3 2.599558 1_465
Ba6 O5 2.648187 1_565
Ba6 O0 2.769369 1_555
Ba6 O1 2.771242 1_565
Ba6 O2 2.775037 1_455
Ba7 O2 2.586381 1_546
Ba7 O0 2.599558 1_646
Ba7 O1 2.648187 1_656
Ba7 O3 2.769369 1_555
Ba7 O5 2.771242 1_655
Ba7 O4 2.775037 1_545
Ba8 O16 2.561131 1_545
Ba8 O14 2.586577 1_545
Ba8 O28 2.592843 1_545
Ba8 O6 2.725096 1_555
Ba8 O8 2.737492 1_555
Ba8 O25 2.834656 1_555
Ba8 O20 2.872359 1_555
Ba8 O22 2.887942 1_555
Ba9 O18 2.561131 1_454
Ba9 O21 2.586577 1_454
Ba9 O26 2.592843 1_455
Ba9 O9 2.725096 1_555
Ba9 O10 2.737492 1_555
Ba9 O29 2.834656 1_554
Ba9 O15 2.872359 1_555
Ba9 O12 2.887942 1_555
Ba10 O25 2.718000 1_555
Ba10 O26 2.819866 1_555
Ba10 O24 2.831293 1_555
Ba10 O6 3.119506 1_554
Ba10 O7 3.155021 1_554
Ba10 O8 3.156135 1_554
Ba10 O19 3.257055 1_554
Ba10 O21 3.261193 1_554
Ba10 O23 3.263165 1_554
Ba10 O20 3.276983 1_554
Ba10 O18 3.286524 1_554
Ba10 O22 3.287467 1_554
Ba11 O29 2.718000 1_555
Ba11 O28 2.819866 1_555
Ba11 O27 2.831293 1_555
Ba11 O9 3.119506 1_555
Ba11 O11 3.155021 1_555
Ba11 O10 3.156135 1_555
Ba11 O17 3.257055 1_555
Ba11 O14 3.261193 1_555
Ba11 O13 3.263165 1_555
Ba11 O15 3.276983 1_555
Ba11 O16 3.286524 1_555
Ba11 O12 3.287467 1_555
Fe0 O3 1.862884 1_555
Fe0 O18 1.874801 1_555
Fe0 O22 1.916327 1_555
Fe0 O6 1.951948 1_555
Fe1 O4 1.857509 1_555
Fe1 O21 1.877167 1_555
Fe1 O19 1.909036 1_555
Fe1 O7 1.936754 1_555
Fe2 O5 1.869694 1_555
Fe2 O23 1.902406 1_555
Fe2 O20 1.905587 1_555
Fe2 O8 1.946096 1_555
Fe3 O0 1.862884 1_555
Fe3 O16 1.874801 1_555
Fe3 O12 1.916327 1_555
Fe3 O9 1.951948 1_555
Fe4 O1 1.869694 1_555
Fe4 O13 1.902406 1_555
Fe4 O15 1.905587 1_555
Fe4 O10 1.946096 1_555
Fe5 O2 1.857509 1_555
Fe5 O14 1.877167 1_555
Fe5 O17 1.909036 1_555
Fe5 O11 1.936754 1_555
Fe6 O26 1.937449 1_555
Fe6 O25 1.992838 1_555
Fe6 O24 2.007399 1_555
Fe6 O8 2.180286 1_555
Fe6 O7 2.198867 1_555
Fe6 O6 2.204503 1_555
Fe7 O28 1.937449 1_555
Fe7 O29 1.992838 1_555
Fe7 O27 2.007399 1_555
Fe7 O10 2.180286 1_556
Fe7 O11 2.198867 1_556
Fe7 O9 2.204503 1_556
O6 Pr1 2.511713 1_555
O7 Pr0 2.567106 1_555
O7 Pr1 2.673528 1_555
O8 Pr0 2.478621 1_555
O9 Pr3 2.511713 1_555
O10 Pr2 2.478621 1_555
O11 Pr2 2.567106 1_555
O11 Pr3 2.673528 1_555
O12 Pr1 2.424301 1_455
O13 Pr0 2.379809 1_555
O13 Pr2 2.748416 1_555
O14 Pr3 2.639271 1_555
O15 Pr1 2.433624 1_455
O16 Pr3 2.670409 1_555
O17 Pr0 2.389443 1_555
O17 Pr2 2.730258 1_555
O18 Pr1 2.670409 1_555
O19 Pr2 2.389443 1_556
O19 Pr0 2.730258 1_555
O20 Pr3 2.433624 1_546
O21 Pr1 2.639271 1_555
O22 Pr3 2.424301 1_546
O23 Pr2 2.379809 1_556
O23 Pr0 2.748416 1_555
O24 Pr2 2.440199 1_555
O24 Pr0 2.698658 1_555
O25 Pr3 2.530733 1_545
O26 Pr1 2.723418 1_555
O27 Pr0 2.440199 1_555
O27 Pr2 2.698658 1_556
O28 Pr3 2.723418 1_556
O29 Pr1 2.530733 1_455
