# generated using pymatgen
data_Eu3AlO5
_symmetry_space_group_name_H-M   'P 1'
_cell_length_a   7.31131488
_cell_length_b   7.31131488
_cell_length_c   7.31131488
_cell_angle_alpha   125.40986480
_cell_angle_beta   125.40986480
_cell_angle_gamma   80.86025301
_symmetry_Int_Tables_number   1
_chemical_formula_structural   Eu3AlO5
_chemical_formula_sum   'Eu6 Al2 O10'
_cell_volume   250.24236004
_cell_formula_units_Z   2
loop_
 _symmetry_equiv_pos_site_id
 _symmetry_equiv_pos_as_xyz
  1  'x, y, z'
loop_
 _atom_site_type_symbol
 _atom_site_label
 _atom_site_symmetry_multiplicity
 _atom_site_fract_x
 _atom_site_fract_y
 _atom_site_fract_z
 _atom_site_occupancy
  Eu  Eu0  1  0.75000000  0.75000000  0.00000000  1
  Eu  Eu1  1  0.25000000  0.25000000  0.00000000  1
  Eu  Eu2  1  0.17823300  0.67823300  0.85646600  1
  Eu  Eu3  1  0.82176700  0.32176700  0.14353400  1
  Eu  Eu4  1  0.67823300  0.82176700  0.50000000  1
  Eu  Eu5  1  0.32176700  0.17823300  0.50000000  1
  Al  Al0  1  0.75000000  0.25000000  0.50000000  1
  Al  Al1  1  0.25000000  0.75000000  0.50000000  1
  O  O0  1  0.00000000  0.00000000  0.00000000  1
  O  O1  1  0.50000000  0.50000000  0.00000000  1
  O  O2  1  0.79254600  0.29254600  0.78735300  1
  O  O3  1  0.50519300  0.00519300  0.21264700  1
  O  O4  1  0.29254600  0.50519300  0.50000000  1
  O  O5  1  0.00519300  0.79254600  0.50000000  1
  O  O6  1  0.20745400  0.70745400  0.21264700  1
  O  O7  1  0.49480700  0.99480700  0.78735300  1
  O  O8  1  0.70745400  0.49480700  0.50000000  1
  O  O9  1  0.99480700  0.20745400  0.50000000  1
loop_
_geom_bond_atom_site_label_1
_geom_bond_atom_site_label_2
_geom_bond_distance
_geom_bond_site_symmetry_2
Eu0 O1 2.782677 1_555
Eu0 O0 2.782677 1_665
Eu0 O9 2.811450 1_565
Eu0 O3 2.811450 1_565
Eu0 O7 2.811450 1_554
Eu0 O4 2.811450 1_554
Eu0 O6 2.811450 1_655
Eu0 O2 2.811450 1_554
Eu0 O8 2.811450 1_554
Eu0 O5 2.811450 1_655
Eu1 O0 2.782677 1_555
Eu1 O1 2.782677 1_555
Eu1 O7 2.811450 1_544
Eu1 O3 2.811450 1_555
Eu1 O6 2.811450 1_555
Eu1 O9 2.811450 1_454
Eu1 O5 2.811450 1_544
Eu1 O4 2.811450 1_555
Eu1 O2 2.811450 1_454
Eu1 O8 2.811450 1_555
Eu2 O6 2.365993 1_556
Eu2 O3 2.365993 1_566
Eu2 O1 2.466519 1_556
Eu2 O0 2.466519 1_566
Eu2 O5 2.731095 1_555
Eu2 O4 2.731095 1_555
Eu2 O8 2.731095 1_455
Eu2 O9 2.731095 1_455
Eu3 O7 2.365993 1_544
Eu3 O2 2.365993 1_554
Eu3 O0 2.466519 1_655
Eu3 O1 2.466519 1_555
Eu3 O8 2.731095 1_555
Eu3 O5 2.731095 1_655
Eu3 O4 2.731095 1_655
Eu3 O9 2.731095 1_555
Eu4 O8 2.365993 1_555
Eu4 O5 2.365993 1_655
Eu4 O1 2.466519 1_555
Eu4 O0 2.466519 1_666
Eu4 O6 2.731095 1_555
Eu4 O2 2.731095 1_565
Eu4 O3 2.731095 1_565
Eu4 O7 2.731095 1_555
Eu5 O9 2.365993 1_455
Eu5 O4 2.365993 1_555
Eu5 O0 2.466519 1_555
Eu5 O1 2.466519 1_556
Eu5 O3 2.731095 1_555
Eu5 O7 2.731095 1_545
Eu5 O6 2.731095 1_545
Eu5 O2 2.731095 1_555
Al0 O2 1.767339 1_555
Al0 O8 1.767339 1_555
Al0 O9 1.767339 1_555
Al0 O3 1.767339 1_555
Al1 O7 1.767339 1_555
Al1 O4 1.767339 1_555
Al1 O5 1.767339 1_555
Al1 O6 1.767339 1_555
