# generated using pymatgen
data_YbMgPb
_symmetry_space_group_name_H-M   'P 1'
_cell_length_a   8.49026287
_cell_length_b   8.49026287
_cell_length_c   4.05715400
_cell_angle_alpha   90.00000000
_cell_angle_beta   90.00000000
_cell_angle_gamma   119.99999117
_symmetry_Int_Tables_number   1
_chemical_formula_structural   YbMgPb
_chemical_formula_sum   'Yb3 Mg3 Pb3'
_cell_volume   253.27623191
_cell_formula_units_Z   3
loop_
 _symmetry_equiv_pos_site_id
 _symmetry_equiv_pos_as_xyz
  1  'x, y, z'
loop_
 _atom_site_type_symbol
 _atom_site_label
 _atom_site_symmetry_multiplicity
 _atom_site_fract_x
 _atom_site_fract_y
 _atom_site_fract_z
 _atom_site_occupancy
  Yb  Yb0  1  0.00000000  0.38063600  0.50000000  1
  Yb  Yb1  1  0.61936400  0.61936400  0.50000000  1
  Yb  Yb2  1  0.38063600  0.00000000  0.50000000  1
  Mg  Mg0  1  0.33333300  0.66666700  0.00000000  1
  Mg  Mg1  1  0.66666700  0.33333300  0.00000000  1
  Mg  Mg2  1  0.00000000  0.00000000  0.50000000  1
  Pb  Pb0  1  0.00000000  0.71305500  0.00000000  1
  Pb  Pb1  1  0.28694500  0.28694500  0.00000000  1
  Pb  Pb2  1  0.71305500  0.00000000  0.00000000  1
loop_
_geom_bond_atom_site_label_1
_geom_bond_atom_site_label_2
_geom_bond_distance
_geom_bond_site_symmetry_2
Mg0 Pb0 3.046164 1_555
Mg0 Pb2 3.046169 1_565
Mg0 Pb1 3.046172 1_555
Mg0 Yb2 3.339041 1_565
Mg0 Yb2 3.339041 1_564
Mg0 Yb0 3.339044 1_555
Mg0 Yb0 3.339044 1_554
Mg0 Yb1 3.339048 1_554
Mg0 Yb1 3.339048 1_555
Mg1 Pb2 3.046164 1_555
Mg1 Pb0 3.046169 1_655
Mg1 Pb1 3.046172 1_555
Mg1 Yb0 3.339041 1_655
Mg1 Yb0 3.339041 1_654
Mg1 Yb2 3.339044 1_555
Mg1 Yb2 3.339044 1_554
Mg1 Yb1 3.339048 1_554
Mg1 Yb1 3.339048 1_555
Mg2 Pb2 3.170234 1_455
Mg2 Pb0 3.170234 1_546
Mg2 Pb2 3.170234 1_456
Mg2 Pb0 3.170234 1_545
Mg2 Pb1 3.170234 1_556
Mg2 Pb1 3.170234 1_555
Mg2 Yb0 3.231700 1_555
Mg2 Yb2 3.231700 1_555
Mg2 Yb1 3.231700 1_445
Pb0 Yb0 3.475722 1_555
Pb0 Yb0 3.475722 1_554
Pb0 Yb1 3.552615 1_455
Pb0 Yb1 3.552615 1_454
Pb0 Yb2 3.552615 1_564
Pb0 Yb2 3.552615 1_565
Pb1 Yb1 3.475722 1_555
Pb1 Yb1 3.475722 1_554
Pb1 Yb0 3.552615 1_555
Pb1 Yb0 3.552615 1_554
Pb1 Yb2 3.552615 1_554
Pb1 Yb2 3.552615 1_555
Pb2 Yb2 3.475722 1_554
Pb2 Yb2 3.475722 1_555
Pb2 Yb1 3.552615 1_545
Pb2 Yb1 3.552615 1_544
Pb2 Yb0 3.552615 1_655
Pb2 Yb0 3.552615 1_654
