# generated using pymatgen
data_Cs2Mg(SeO7)2
_symmetry_space_group_name_H-M   'P 1'
_cell_length_a   12.71601500
_cell_length_b   6.58343000
_cell_length_c   9.58174085
_cell_angle_alpha   85.09570176
_cell_angle_beta   90.00000000
_cell_angle_gamma   90.00000000
_symmetry_Int_Tables_number   1
_chemical_formula_structural   Cs2Mg(SeO7)2
_chemical_formula_sum   'Cs4 Mg2 Se4 O28'
_cell_volume   799.19867436
_cell_formula_units_Z   2
loop_
 _symmetry_equiv_pos_site_id
 _symmetry_equiv_pos_as_xyz
  1  'x, y, z'
loop_
 _atom_site_type_symbol
 _atom_site_label
 _atom_site_symmetry_multiplicity
 _atom_site_fract_x
 _atom_site_fract_y
 _atom_site_fract_z
 _atom_site_occupancy
  Cs  Cs0  1  0.15380400  0.81235600  0.35998000  1
  Cs  Cs1  1  0.65380400  0.18764400  0.14002000  1
  Cs  Cs2  1  0.84619600  0.18764400  0.64002000  1
  Cs  Cs3  1  0.34619600  0.81235600  0.85998000  1
  Mg  Mg0  1  0.00000000  0.50000000  0.00000000  1
  Mg  Mg1  1  0.50000000  0.50000000  0.50000000  1
  Se  Se0  1  0.15742300  0.27022400  0.61953500  1
  Se  Se1  1  0.65742300  0.72977600  0.88046500  1
  Se  Se2  1  0.84257700  0.72977600  0.38046500  1
  Se  Se3  1  0.34257700  0.27022400  0.11953500  1
  O  O0  1  0.20354200  0.50633100  0.64698000  1
  O  O1  1  0.70354200  0.49366900  0.85302000  1
  O  O2  1  0.79645800  0.49366900  0.35302000  1
  O  O3  1  0.29645800  0.50633100  0.14698000  1
  O  O4  1  0.08735600  0.18082900  0.76027800  1
  O  O5  1  0.58735600  0.81917100  0.73972200  1
  O  O6  1  0.91264400  0.81917100  0.23972200  1
  O  O7  1  0.41264400  0.18082900  0.26027800  1
  O  O8  1  0.26104500  0.10505800  0.60394900  1
  O  O9  1  0.76104500  0.89494200  0.89605100  1
  O  O10  1  0.73895500  0.89494200  0.39605100  1
  O  O11  1  0.23895500  0.10505800  0.10394900  1
  O  O12  1  0.08316700  0.28043300  0.47715800  1
  O  O13  1  0.58316700  0.71956700  0.02284200  1
  O  O14  1  0.91683300  0.71956700  0.52284200  1
  O  O15  1  0.41683300  0.28043300  0.97715800  1
  O  O16  1  0.88347600  0.33323000  0.09749500  1
  O  O17  1  0.38347600  0.66677000  0.40250500  1
  O  O18  1  0.11652400  0.66677000  0.90250500  1
  O  O19  1  0.61652400  0.33323000  0.59749500  1
  O  O20  1  0.13451300  0.51410400  0.11305500  1
  O  O21  1  0.63451300  0.48589600  0.38694500  1
  O  O22  1  0.86548700  0.48589600  0.88694500  1
  O  O23  1  0.36548700  0.51410400  0.61305500  1
  O  O24  1  0.10255600  0.23328400  0.00969700  1
  O  O25  1  0.60255600  0.76671600  0.49030300  1
  O  O26  1  0.89744400  0.76671600  0.99030300  1
  O  O27  1  0.39744400  0.23328400  0.50969700  1
loop_
_geom_bond_atom_site_label_1
_geom_bond_atom_site_label_2
_geom_bond_distance
_geom_bond_site_symmetry_2
Cs0 O17 3.089868 1_555
Cs0 O11 3.177371 1_565
Cs0 O20 3.210566 1_555
Cs0 O6 3.274893 1_455
Cs0 O0 3.327760 1_555
Cs0 O14 3.424248 1_455
Cs0 O8 3.436232 1_565
Cs0 O12 3.486396 1_565
Cs0 O3 3.495414 1_555
Cs0 O12 3.695712 1_555
Cs1 O16 3.089868 1_555
Cs1 O10 3.177371 1_545
Cs1 O21 3.210566 1_555
Cs1 O7 3.274893 1_555
Cs1 O1 3.327760 1_554
Cs1 O15 3.424248 1_554
Cs1 O9 3.436232 1_544
Cs1 O13 3.486396 1_545
Cs1 O2 3.495414 1_555
Cs1 O13 3.695712 1_555
Cs2 O19 3.089868 1_555
Cs2 O9 3.177371 1_545
Cs2 O22 3.210566 1_555
Cs2 O4 3.274893 1_655
Cs2 O2 3.327760 1_555
Cs2 O12 3.424248 1_655
Cs2 O10 3.436232 1_545
Cs2 O14 3.486396 1_545
Cs2 O1 3.495414 1_555
Cs2 O14 3.695712 1_555
Cs3 O18 3.089868 1_555
Cs3 O8 3.177371 1_565
Cs3 O23 3.210566 1_555
Cs3 O5 3.274893 1_555
Cs3 O3 3.327760 1_556
Cs3 O13 3.424248 1_556
Cs3 O11 3.436232 1_566
Cs3 O15 3.486396 1_565
Cs3 O0 3.495414 1_555
Cs3 O15 3.695712 1_555
Mg0 O18 2.024409 1_554
Mg0 O16 2.024409 1_455
Mg0 O20 2.031006 1_555
Mg0 O22 2.031006 1_454
Mg0 O24 2.182803 1_555
Mg0 O26 2.182803 1_454
Mg1 O19 2.024409 1_555
Mg1 O17 2.024409 1_555
Mg1 O23 2.031006 1_555
Mg1 O21 2.031006 1_555
Mg1 O25 2.182803 1_555
Mg1 O27 2.182803 1_555
O0 Se0 1.702677 1_555
O1 Se1 1.702677 1_555
O2 Se2 1.702677 1_555
O3 Se3 1.702677 1_555
O4 Se0 1.680213 1_555
O5 Se1 1.680213 1_555
O6 Se2 1.680213 1_555
O7 Se3 1.680213 1_555
O8 Se0 1.722975 1_555
O9 Se1 1.722975 1_555
O10 Se2 1.722975 1_555
O11 Se3 1.722975 1_555
O12 Se0 1.655755 1_555
O13 Se1 1.655755 1_554
O14 Se2 1.655755 1_555
O15 Se3 1.655755 1_556
