# generated using pymatgen
data_Sr5Ca3Mn7FeO20
_symmetry_space_group_name_H-M   'P 1'
_cell_length_a   11.01577440
_cell_length_b   11.11814981
_cell_length_c   17.78810407
_cell_angle_alpha   108.13215491
_cell_angle_beta   108.16558482
_cell_angle_gamma   90.07199031
_symmetry_Int_Tables_number   1
_chemical_formula_structural   Sr5Ca3Mn7FeO20
_chemical_formula_sum   'Sr20 Ca12 Mn28 Fe4 O80'
_cell_volume   1955.53477728
_cell_formula_units_Z   4
loop_
 _symmetry_equiv_pos_site_id
 _symmetry_equiv_pos_as_xyz
  1  'x, y, z'
loop_
 _atom_site_type_symbol
 _atom_site_label
 _atom_site_symmetry_multiplicity
 _atom_site_fract_x
 _atom_site_fract_y
 _atom_site_fract_z
 _atom_site_occupancy
  Sr  Sr0  1  0.30793212  0.05747007  0.60810446  1
  Sr  Sr1  1  0.30778206  0.55884528  0.60866615  1
  Sr  Sr2  1  0.80791774  0.05893887  0.60886041  1
  Sr  Sr3  1  0.80895634  0.55859946  0.61036067  1
  Sr  Sr4  1  0.19692418  0.43939399  0.38779736  1
  Sr  Sr5  1  0.19965641  0.44203791  0.89263204  1
  Sr  Sr6  1  0.69761342  0.44028070  0.38857508  1
  Sr  Sr7  1  0.69766377  0.94058047  0.38782149  1
  Sr  Sr8  1  0.70056321  0.94079763  0.89333002  1
  Sr  Sr9  1  0.05887227  0.29996289  0.60915387  1
  Sr  Sr10  1  0.05926303  0.80111659  0.60964730  1
  Sr  Sr11  1  0.55909693  0.30165972  0.61020588  1
  Sr  Sr12  1  0.55866932  0.80051001  0.60955106  1
  Sr  Sr13  1  0.44752725  0.19830666  0.38807473  1
  Sr  Sr14  1  0.45028559  0.20254502  0.89253444  1
  Sr  Sr15  1  0.44733842  0.69865986  0.38813882  1
  Sr  Sr16  1  0.44922679  0.70139299  0.89307020  1
  Sr  Sr17  1  0.94748172  0.19692983  0.38738211  1
  Sr  Sr18  1  0.94994715  0.20086628  0.89254520  1
  Sr  Sr19  1  0.94821045  0.69935588  0.38783160  1
  Ca  Ca0  1  0.30493635  0.06376185  0.10573588  1
  Ca  Ca1  1  0.30622675  0.56373774  0.10577296  1
  Ca  Ca2  1  0.80481218  0.06246838  0.10496698  1
  Ca  Ca3  1  0.80474184  0.56230461  0.10511952  1
  Ca  Ca4  1  0.20052578  0.93886053  0.39291012  1
  Ca  Ca5  1  0.20111910  0.93946506  0.89695312  1
  Ca  Ca6  1  0.70279613  0.44050064  0.89685335  1
  Ca  Ca7  1  0.05642234  0.29207811  0.10631183  1
  Ca  Ca8  1  0.05629523  0.79303658  0.10645224  1
  Ca  Ca9  1  0.55541350  0.29328107  0.10609685  1
  Ca  Ca10  1  0.55523958  0.79247464  0.10600015  1
  Ca  Ca11  1  0.95356475  0.70806803  0.89788752  1
  Mn  Mn0  1  0.00322978  0.99900874  0.49773059  1
  Mn  Mn1  1  0.00287744  0.49980685  0.49915285  1
  Mn  Mn2  1  0.50245616  0.99935913  0.49801474  1
  Mn  Mn3  1  0.50762693  0.50142660  0.00367887  1
  Mn  Mn4  1  0.50322653  0.49944971  0.49893985  1
  Mn  Mn5  1  0.25742313  0.25185156  0.00352987  1
  Mn  Mn6  1  0.25251280  0.24777446  0.49757716  1
  Mn  Mn7  1  0.25646550  0.75316249  0.00398340  1
  Mn  Mn8  1  0.25249396  0.74907491  0.49786683  1
  Mn  Mn9  1  0.75750820  0.25342176  0.00453840  1
  Mn  Mn10  1  0.75311562  0.24973177  0.49901387  1
  Mn  Mn11  1  0.75350321  0.74945417  0.49915440  1
  Mn  Mn12  1  0.10572991  0.09157961  0.24487340  1
  Mn  Mn13  1  0.11205951  0.09546859  0.75255562  1
  Mn  Mn14  1  0.10586485  0.59740528  0.24334599  1
  Mn  Mn15  1  0.10926892  0.60210894  0.75369994  1
  Mn  Mn16  1  0.60481866  0.09262692  0.24327371  1
  Mn  Mn17  1  0.61217645  0.10038957  0.75167837  1
  Mn  Mn18  1  0.60548636  0.59363482  0.24462946  1
  Mn  Mn19  1  0.61533634  0.59756167  0.75479503  1
  Mn  Mn20  1  0.35534036  0.40147794  0.24512983  1
  Mn  Mn21  1  0.36341072  0.40467701  0.75187291  1
  Mn  Mn22  1  0.35277713  0.90240756  0.24671489  1
  Mn  Mn23  1  0.36026131  0.90477671  0.75512529  1
  Mn  Mn24  1  0.85606650  0.40231575  0.24514845  1
  Mn  Mn25  1  0.86125832  0.40862698  0.75711150  1
  Mn  Mn26  1  0.85786384  0.89905519  0.24334727  1
  Mn  Mn27  1  0.86548730  0.90045842  0.75356658  1
  Fe  Fe0  1  0.00822384  0.00102459  0.00376995  1
  Fe  Fe1  1  0.00652559  0.50145788  0.00289601  1
  Fe  Fe2  1  0.50588053  0.00218172  0.00414299  1
  Fe  Fe3  1  0.75734544  0.75018820  0.00303977  1
  O  O0  1  0.12554314  0.11858643  0.49068560  1
  O  O1  1  0.12866700  0.12038372  0.99344398  1
  O  O2  1  0.12465664  0.62260028  0.49357984  1
  O  O3  1  0.12531803  0.62775689  0.99364017  1
  O  O4  1  0.62482831  0.12340081  0.49460481  1
  O  O5  1  0.62919073  0.12702211  0.99709909  1
  O  O6  1  0.62535162  0.62313201  0.49466617  1
  O  O7  1  0.62763827  0.61808239  0.99411745  1
  O  O8  1  0.13830695  0.37940192  0.01470429  1
  O  O9  1  0.12922112  0.37590316  0.50372871  1
  O  O10  1  0.13585239  0.87915171  0.01187359  1
  O  O11  1  0.12982277  0.87664901  0.50094757  1
  O  O12  1  0.63833103  0.38136656  0.01415602  1
  O  O13  1  0.62944936  0.37664193  0.50343070  1
  O  O14  1  0.63514416  0.87954215  0.01441088  1
  O  O15  1  0.62948250  0.87659288  0.50364471  1
  O  O16  1  0.37113460  0.11680138  0.49004219  1
  O  O17  1  0.37308585  0.12125787  0.99395275  1
  O  O18  1  0.37511789  0.62150946  0.49430242  1
  O  O19  1  0.37702417  0.62462664  0.99744576  1
  O  O20  1  0.87595162  0.12218230  0.49493843  1
  O  O21  1  0.87782002  0.12284324  0.99679285  1
  O  O22  1  0.87516006  0.62180364  0.49401101  1
  O  O23  1  0.87451646  0.61762349  0.99008740  1
  O  O24  1  0.38853283  0.38485975  0.01540259  1
  O  O25  1  0.37966593  0.37618683  0.50344491  1
  O  O26  1  0.38264847  0.88358694  0.01394328  1
  O  O27  1  0.37774027  0.87720882  0.50165060  1
  O  O28  1  0.88430206  0.38197638  0.01360643  1
  O  O29  1  0.87953524  0.37714681  0.50348768  1
  O  O30  1  0.88780366  0.88118080  0.01303610  1
  O  O31  1  0.87984685  0.87729072  0.50304615  1
  O  O32  1  0.08519501  0.09183515  0.13448601  1
  O  O33  1  0.08000573  0.08096631  0.63943967  1
  O  O34  1  0.08019134  0.59409082  0.13186034  1
  O  O35  1  0.07276958  0.58348242  0.63919691  1
  O  O36  1  0.57867114  0.09454482  0.13294473  1
  O  O37  1  0.57451075  0.08300438  0.63755081  1
  O  O38  1  0.58399825  0.59775265  0.13673982  1
  O  O39  1  0.58023555  0.58236994  0.64138061  1
  O  O40  1  0.43434702  0.41899680  0.35895880  1
  O  O41  1  0.44431448  0.41602775  0.86541641  1
  O  O42  1  0.43584837  0.91881894  0.35991662  1
  O  O43  1  0.44423427  0.91910067  0.87028485  1
  O  O44  1  0.93429273  0.41862450  0.35887896  1
  O  O45  1  0.94567196  0.41445525  0.86994648  1
  O  O46  1  0.93617970  0.91879275  0.35757148  1
  O  O47  1  0.94685436  0.91037412  0.86857595  1
  O  O48  1  0.33422212  0.28888068  0.13818961  1
  O  O49  1  0.32637714  0.30359304  0.63880643  1
  O  O50  1  0.32792178  0.79083432  0.13777004  1
  O  O51  1  0.32349439  0.80703980  0.64138738  1
  O  O52  1  0.83341550  0.29030273  0.13732627  1
  O  O53  1  0.82683249  0.31121022  0.64335299  1
  O  O54  1  0.83332040  0.78672979  0.13325746  1
  O  O55  1  0.82729388  0.80484101  0.63999240  1
  O  O56  1  0.18249711  0.19278182  0.35748052  1
  O  O57  1  0.19143727  0.20411543  0.86317510  1
  O  O58  1  0.18334369  0.69718241  0.35698317  1
  O  O59  1  0.19242106  0.70914306  0.86609835  1
  O  O60  1  0.68276937  0.18879978  0.35721782  1
  O  O61  1  0.69013350  0.20833420  0.86481614  1
  O  O62  1  0.68393786  0.69032976  0.35833255  1
  O  O63  1  0.69532443  0.70350190  0.86839887  1
  O  O64  1  0.42838713  0.06208319  0.24001530  1
  O  O65  1  0.44048206  0.06417291  0.75220145  1
  O  O66  1  0.42950039  0.56487795  0.23978541  1
  O  O67  1  0.44121755  0.56816399  0.75190111  1
  O  O68  1  0.92867118  0.06454505  0.23859504  1
  O  O69  1  0.94037291  0.06537336  0.75188752  1
  O  O70  1  0.93049287  0.56427861  0.23986102  1
  O  O71  1  0.93828683  0.57673559  0.76094418  1
  O  O72  1  0.17954367  0.42760954  0.23987158  1
  O  O73  1  0.19095008  0.44029927  0.75239085  1
  O  O74  1  0.17745828  0.92264280  0.24724922  1
  O  O75  1  0.18855336  0.93170370  0.75994751  1
  O  O76  1  0.67970399  0.42544380  0.23988182  1
  O  O77  1  0.68817266  0.43124672  0.75998713  1
  O  O78  1  0.68122857  0.92594279  0.23939476  1
  O  O79  1  0.69358338  0.93849163  0.75318722  1
loop_
_geom_bond_atom_site_label_1
_geom_bond_atom_site_label_2
_geom_bond_distance
_geom_bond_site_symmetry_2
Ca0 O64 2.357420 1_555
Ca0 O48 2.384194 1_555
Ca0 O26 2.500359 1_545
Ca0 O10 2.527465 1_545
Ca0 O1 2.554187 1_554
Ca0 O17 2.578120 1_554
Ca0 O32 2.625414 1_555
Ca0 O36 2.903159 1_555
Ca1 O66 2.342977 1_555
Ca1 O50 2.403196 1_555
Ca1 O24 2.506965 1_555
Ca1 O8 2.510338 1_555
Ca1 O19 2.554847 1_554
Ca1 O3 2.620177 1_554
Ca1 O34 2.674733 1_555
Ca1 O38 2.936956 1_555
Ca2 O68 2.335757 1_555
Ca2 O52 2.413412 1_555
Ca2 O14 2.509672 1_545
Ca2 O30 2.541216 1_545
Ca2 O5 2.546675 1_554
Ca2 O21 2.562712 1_554
Ca2 O36 2.691713 1_555
Ca2 O32 2.966732 1_655
Ca3 O70 2.358175 1_555
Ca3 O54 2.387060 1_555
Ca3 O12 2.478048 1_555
Ca3 O28 2.510035 1_555
Ca3 O7 2.540216 1_554
Ca3 O23 2.630360 1_554
Ca3 O38 2.664943 1_555
Ca3 O34 2.924174 1_655
Ca4 O74 2.471658 1_555
Ca4 O16 2.503938 1_565
Ca4 O0 2.537097 1_565
Ca4 O27 2.548797 1_555
Ca4 O58 2.553187 1_555
Ca4 O11 2.556863 1_555
Ca4 O46 2.773850 1_455
Ca4 O42 2.825347 1_555
Ca4 O56 3.072051 1_565
Ca5 O75 2.371634 1_555
Ca5 O59 2.441246 1_555
Ca5 O1 2.517605 1_565
Ca5 O17 2.536258 1_565
Ca5 O10 2.629413 1_556
Ca5 O26 2.632200 1_556
Ca5 O47 2.686841 1_455
Ca5 O43 2.859257 1_555
Ca6 O77 2.358660 1_555
Ca6 O61 2.457860 1_555
Ca6 O23 2.491690 1_555
Ca6 O7 2.519550 1_555
Ca6 O28 2.643761 1_556
Ca6 O12 2.658388 1_556
Ca6 O41 2.721180 1_555
Ca6 O45 2.860976 1_555
Ca7 O72 2.347745 1_555
Ca7 O32 2.430098 1_555
Ca7 O8 2.512094 1_555
Ca7 O28 2.528721 1_455
Ca7 O21 2.554542 1_454
Ca7 O1 2.631130 1_554
Ca7 O52 2.681661 1_455
Ca7 O48 2.935701 1_555
Ca8 O34 2.390735 1_555
Ca8 O74 2.407281 1_555
Ca8 O30 2.502334 1_455
Ca8 O10 2.536716 1_555
Ca8 O3 2.577107 1_554
Ca8 O23 2.644037 1_454
Ca8 O54 2.648777 1_455
Ca8 O50 2.869387 1_555
Ca9 O76 2.341770 1_555
Ca9 O36 2.399560 1_555
Ca9 O24 2.489313 1_555
Ca9 O12 2.528683 1_555
Ca9 O5 2.567523 1_554
Ca9 O17 2.605520 1_554
Ca9 O48 2.673888 1_555
Ca9 O52 2.939215 1_555
Ca10 O78 2.346993 1_555
Ca10 O38 2.391000 1_555
Ca10 O14 2.497958 1_555
Ca10 O26 2.533451 1_555
Ca10 O19 2.539585 1_554
Ca10 O7 2.635916 1_554
Ca10 O50 2.734738 1_555
Ca10 O54 2.952371 1_555
Ca11 O71 2.371539 1_555
Ca11 O47 2.458225 1_555
Ca11 O3 2.493898 1_655
Ca11 O23 2.524681 1_555
Ca11 O10 2.610109 1_656
Ca11 O30 2.626703 1_556
Ca11 O63 2.724478 1_555
Ca11 O59 2.859177 1_655
Mn0 O11 1.949910 1_555
Mn0 O0 1.950162 1_565
Mn0 O31 1.960298 1_455
Mn0 O20 1.961486 1_465
Mn0 O46 2.241200 1_455
Mn0 O33 2.266895 1_565
Mn1 O22 1.956857 1_455
Mn1 O2 1.958534 1_555
Mn1 O29 1.959076 1_455
Mn1 O9 1.960958 1_555
Mn1 O35 2.241374 1_555
Mn1 O44 2.243341 1_455
Mn2 O16 1.951879 1_565
Mn2 O4 1.954784 1_565
Mn2 O15 1.957958 1_555
Mn2 O27 1.959950 1_555
Mn2 O42 2.209067 1_555
Mn2 O37 2.233519 1_565
Mn3 O7 1.931851 1_554
Mn3 O24 1.943910 1_555
Mn3 O12 1.970266 1_555
Mn3 O19 1.989566 1_554
Mn3 O38 2.152985 1_555
Mn3 O41 2.216315 1_554
Mn4 O13 1.951261 1_555
Mn4 O6 1.957231 1_555
Mn4 O18 1.960077 1_555
Mn4 O25 1.966948 1_555
Mn4 O40 2.238274 1_555
Mn4 O39 2.278894 1_555
Mn5 O17 1.935616 1_554
Mn5 O8 1.940154 1_555
Mn5 O1 1.962985 1_554
Mn5 O24 1.981780 1_555
Mn5 O48 2.178219 1_555
Mn5 O57 2.255217 1_554
Mn6 O0 1.952639 1_555
Mn6 O25 1.955055 1_555
Mn6 O16 1.959189 1_555
Mn6 O9 1.971399 1_555
Mn6 O56 2.242992 1_555
Mn6 O49 2.261003 1_555
Mn7 O3 1.932493 1_554
Mn7 O10 1.935390 1_555
Mn7 O26 1.935899 1_555
Mn7 O19 1.953748 1_554
Mn7 O50 2.160848 1_555
Mn7 O59 2.219481 1_554
Mn8 O27 1.953218 1_555
Mn8 O2 1.956409 1_555
Mn8 O18 1.960222 1_555
Mn8 O11 1.960484 1_555
Mn8 O58 2.258781 1_555
Mn8 O51 2.296585 1_555
Mn9 O28 1.931516 1_555
Mn9 O5 1.937297 1_554
Mn9 O12 1.941542 1_555
Mn9 O21 1.969103 1_554
Mn9 O52 2.147407 1_555
Mn9 O61 2.247828 1_554
Mn10 O29 1.951481 1_555
Mn10 O4 1.957904 1_555
Mn10 O20 1.961956 1_555
Mn10 O13 1.963538 1_555
Mn10 O60 2.266663 1_555
Mn10 O53 2.307605 1_555
Mn11 O22 1.954227 1_555
Mn11 O6 1.956201 1_555
Mn11 O31 1.958481 1_555
Mn11 O15 1.968140 1_555
Mn11 O62 2.251902 1_555
Mn11 O55 2.254982 1_555
Mn12 O56 1.879371 1_555
Mn12 O32 1.906135 1_555
Mn12 O68 1.936193 1_455
Mn12 O74 2.046046 1_545
Mn13 O57 1.881677 1_555
Mn13 O33 1.885264 1_555
Mn13 O69 1.915956 1_455
Mn13 O75 2.031327 1_545
Mn14 O58 1.889778 1_555
Mn14 O34 1.902335 1_555
Mn14 O70 1.944453 1_455
Mn14 O72 2.046683 1_555
Mn15 O35 1.892008 1_555
Mn15 O59 1.904478 1_555
Mn15 O71 1.953558 1_455
Mn15 O73 2.009401 1_555
Mn16 O60 1.884766 1_555
Mn16 O36 1.899629 1_555
Mn16 O64 1.952393 1_555
Mn16 O78 2.026872 1_545
Mn17 O37 1.887119 1_555
Mn17 O61 1.909046 1_555
Mn17 O65 1.936700 1_555
Mn17 O79 2.015946 1_545
Mn18 O38 1.874228 1_555
Mn18 O62 1.883558 1_555
Mn18 O66 1.935211 1_555
Mn18 O76 2.030010 1_555
Mn19 O39 1.883986 1_555
Mn19 O63 1.911287 1_555
Mn19 O67 1.927380 1_555
Mn19 O77 2.033553 1_555
Mn20 O48 1.865750 1_555
Mn20 O40 1.884282 1_555
Mn20 O72 1.936161 1_555
Mn20 O66 2.032000 1_555
Mn21 O49 1.885454 1_555
Mn21 O41 1.899523 1_555
Mn21 O73 1.943365 1_555
Mn21 O67 2.008434 1_555
Mn22 O50 1.881845 1_555
Mn22 O42 1.883450 1_555
Mn22 O74 1.947236 1_555
Mn22 O64 2.012329 1_565
Mn23 O51 1.886185 1_555
Mn23 O43 1.921543 1_555
Mn23 O75 1.939420 1_555
Mn23 O65 2.001592 1_565
Mn24 O52 1.872402 1_555
Mn24 O44 1.884797 1_555
Mn24 O76 1.937012 1_555
Mn24 O70 2.018274 1_555
Mn25 O53 1.888910 1_555
Mn25 O45 1.911168 1_555
Mn25 O77 1.937853 1_555
Mn25 O71 2.024513 1_555
Mn26 O46 1.884091 1_555
Mn26 O54 1.901170 1_555
Mn26 O78 1.951817 1_555
Mn26 O68 2.033529 1_565
Mn27 O55 1.876368 1_555
Mn27 O47 1.927914 1_555
Mn27 O79 1.939228 1_555
Mn27 O69 2.022113 1_565
Fe0 O30 1.957247 1_445
Fe0 O10 1.957915 1_545
Fe0 O1 1.963259 1_554
Fe0 O21 1.977796 1_454
Fe0 O32 2.110017 1_555
Fe0 O47 2.175335 1_444
Fe1 O23 1.953443 1_454
Fe1 O28 1.981593 1_455
Fe1 O3 1.996234 1_554
Fe1 O8 1.996313 1_555
Fe1 O34 2.085281 1_555
Fe1 O45 2.136335 1_454
Fe2 O26 1.974311 1_545
Fe2 O17 1.978478 1_554
Fe2 O14 1.979365 1_545
Fe2 O5 1.999248 1_554
Fe2 O36 2.082021 1_555
Fe2 O43 2.145970 1_544
Fe3 O23 1.967287 1_554
Fe3 O30 1.972859 1_555
Fe3 O14 1.978621 1_555
Fe3 O7 1.982992 1_554
Fe3 O54 2.106065 1_555
Fe3 O63 2.162712 1_554
O0 Sr17 2.595361 1_455
O0 Sr0 2.670416 1_555
O0 Sr9 2.714867 1_555
O1 Sr18 2.588192 1_455
O2 Sr19 2.601567 1_455
O2 Sr4 2.622201 1_555
O2 Sr1 2.663556 1_555
O2 Sr10 2.664825 1_555
O3 Sr5 2.602879 1_555
O4 Sr13 2.603412 1_555
O4 Sr7 2.633356 1_545
O4 Sr2 2.658271 1_555
O4 Sr11 2.660093 1_555
O5 Sr14 2.596008 1_555
O5 Sr8 2.615800 1_545
O6 Sr15 2.611285 1_555
O6 Sr6 2.623125 1_555
O6 Sr12 2.652588 1_555
O6 Sr3 2.677335 1_555
O7 Sr16 2.605663 1_555
O8 Sr18 2.731471 1_454
O8 Sr5 2.740777 1_554
O9 Sr9 2.592342 1_555
O9 Sr1 2.613019 1_555
O9 Sr17 2.663454 1_455
O9 Sr4 2.677854 1_555
O11 Sr0 2.607206 1_565
O11 Sr19 2.635904 1_455
O11 Sr10 2.644649 1_555
O12 Sr14 2.728061 1_554
O13 Sr11 2.608595 1_555
O13 Sr3 2.621144 1_555
O13 Sr13 2.655480 1_555
O13 Sr6 2.663365 1_555
O14 Sr16 2.710879 1_554
O14 Sr8 2.738895 1_554
O15 Sr12 2.603754 1_555
O15 Sr2 2.609798 1_565
O15 Sr15 2.655295 1_555
O15 Sr7 2.681562 1_555
O16 Sr13 2.606164 1_555
O16 Sr0 2.665166 1_555
O16 Sr11 2.752371 1_555
O17 Sr14 2.600776 1_555
O18 Sr4 2.612609 1_555
O18 Sr15 2.622637 1_555
O18 Sr1 2.644957 1_555
O18 Sr12 2.667887 1_555
O19 Sr16 2.591057 1_555
O19 Sr5 2.603376 1_555
O20 Sr7 2.612774 1_545
O20 Sr17 2.626775 1_555
O20 Sr2 2.644833 1_555
O20 Sr9 2.651932 1_655
O21 Sr8 2.593699 1_545
O21 Sr18 2.596278 1_555
O22 Sr6 2.600538 1_555
O22 Sr19 2.630187 1_555
O22 Sr3 2.674722 1_555
O22 Sr10 2.674858 1_655
O24 Sr14 2.742509 1_554
O24 Sr5 2.745287 1_554
O25 Sr1 2.610903 1_555
O25 Sr11 2.615901 1_555
O25 Sr4 2.664452 1_555
O25 Sr13 2.667546 1_555
O26 Sr16 2.745950 1_554
O27 Sr0 2.596824 1_565
O27 Sr12 2.649747 1_555
O27 Sr15 2.660786 1_555
O28 Sr18 2.736893 1_554
O29 Sr3 2.612838 1_555
O29 Sr9 2.620106 1_655
O29 Sr6 2.651303 1_555
O29 Sr17 2.689306 1_555
O30 Sr8 2.714986 1_554
O31 Sr2 2.610996 1_565
O31 Sr10 2.624141 1_655
O31 Sr7 2.657094 1_555
O31 Sr19 2.669006 1_555
O33 Sr9 2.648115 1_555
O33 Sr0 2.732512 1_555
O33 Sr2 2.870208 1_455
O33 Sr10 2.985020 1_545
O35 Sr10 2.626232 1_555
O35 Sr3 2.786626 1_455
O35 Sr1 2.803201 1_555
O35 Sr9 3.024027 1_555
O37 Sr11 2.619341 1_555
O37 Sr2 2.770889 1_555
O37 Sr0 2.815078 1_555
O37 Sr12 3.018940 1_545
O39 Sr12 2.651684 1_555
O39 Sr3 2.738639 1_555
O39 Sr1 2.868632 1_555
O39 Sr11 2.990431 1_555
O40 Sr13 2.656082 1_555
O40 Sr6 2.777060 1_555
O40 Sr4 2.814342 1_555
O40 Sr15 2.984275 1_555
O41 Sr14 2.562014 1_555
O41 Sr5 2.882691 1_555
O41 Sr16 3.053310 1_555
O42 Sr15 2.643025 1_555
O42 Sr7 2.766552 1_555
O42 Sr13 2.985523 1_565
O43 Sr16 2.573560 1_555
O43 Sr8 2.722922 1_555
O43 Sr14 3.049421 1_565
O44 Sr17 2.662029 1_555
O44 Sr4 2.772064 1_655
O44 Sr6 2.813482 1_555
O44 Sr19 2.996625 1_555
O45 Sr18 2.526999 1_555
O45 Sr5 2.702149 1_655
O46 Sr19 2.652038 1_555
O46 Sr7 2.837898 1_555
O46 Sr17 2.965917 1_565
O47 Sr8 2.885073 1_555
O47 Sr18 3.122131 1_565
O49 Sr0 2.612823 1_555
O49 Sr11 2.763662 1_555
O49 Sr9 2.824997 1_555
O49 Sr1 3.043563 1_555
O51 Sr1 2.630526 1_555
O51 Sr10 2.783350 1_555
O51 Sr12 2.815496 1_555
O51 Sr0 3.016003 1_565
O53 Sr2 2.671032 1_555
O53 Sr9 2.800423 1_655
O53 Sr11 2.816616 1_555
O53 Sr3 2.980354 1_555
O55 Sr3 2.616859 1_555
O55 Sr10 2.769320 1_655
O55 Sr12 2.834812 1_555
O55 Sr2 3.038912 1_565
O56 Sr4 2.618983 1_555
O56 Sr13 2.794915 1_555
O56 Sr17 2.798384 1_455
O57 Sr5 2.527300 1_555
O57 Sr14 2.735122 1_555
O57 Sr18 2.868622 1_455
O58 Sr15 2.784561 1_555
O58 Sr19 2.808707 1_455
O58 Sr4 3.076572 1_555
O59 Sr16 2.724046 1_555
O59 Sr5 3.146091 1_555
O60 Sr6 2.669600 1_555
O60 Sr17 2.791550 1_555
O60 Sr13 2.806979 1_555
O60 Sr7 2.969844 1_545
O61 Sr18 2.754517 1_555
O61 Sr14 2.838943 1_555
O61 Sr8 3.165714 1_545
O62 Sr7 2.660908 1_555
O62 Sr19 2.788245 1_555
O62 Sr15 2.813236 1_555
O62 Sr6 2.987029 1_555
O63 Sr8 2.532980 1_555
O63 Sr16 2.879322 1_555
O64 Sr13 2.538678 1_555
O65 Sr14 2.459869 1_555
O65 Sr0 2.500961 1_555
O66 Sr15 2.539245 1_555
O67 Sr16 2.460497 1_555
O67 Sr1 2.482567 1_555
O68 Sr17 2.539032 1_555
O69 Sr18 2.455545 1_555
O69 Sr2 2.485704 1_555
O70 Sr19 2.537739 1_555
O71 Sr3 2.555165 1_555
O72 Sr4 2.539466 1_555
O73 Sr5 2.460391 1_555
O73 Sr9 2.500325 1_555
O75 Sr10 2.547317 1_555
O76 Sr6 2.542634 1_555
O77 Sr11 2.537638 1_555
O78 Sr7 2.542541 1_555
O79 Sr8 2.462051 1_555
O79 Sr12 2.505441 1_555
