# generated using pymatgen
data_Mg2Ta2CrO8
_symmetry_space_group_name_H-M   'P 1'
_cell_length_a   5.20845030
_cell_length_b   6.07971669
_cell_length_c   10.07894559
_cell_angle_alpha   105.09953587
_cell_angle_beta   91.01042374
_cell_angle_gamma   90.95632000
_symmetry_Int_Tables_number   1
_chemical_formula_structural   Mg2Ta2CrO8
_chemical_formula_sum   'Mg4 Ta4 Cr2 O16'
_cell_volume   308.01705133
_cell_formula_units_Z   2
loop_
 _symmetry_equiv_pos_site_id
 _symmetry_equiv_pos_as_xyz
  1  'x, y, z'
loop_
 _atom_site_type_symbol
 _atom_site_label
 _atom_site_symmetry_multiplicity
 _atom_site_fract_x
 _atom_site_fract_y
 _atom_site_fract_z
 _atom_site_occupancy
  Mg  Mg0  1  0.75227600  0.41668700  0.54557700  1
  Mg  Mg1  1  0.74366800  0.86988600  0.45622600  1
  Mg  Mg2  1  0.24692900  0.58401000  0.45260000  1
  Mg  Mg3  1  0.25501900  0.13076300  0.54213000  1
  Ta  Ta0  1  0.73955000  0.29117900  0.23716300  1
  Ta  Ta1  1  0.76456400  0.03526700  0.76253200  1
  Ta  Ta2  1  0.25942900  0.70998200  0.76093400  1
  Ta  Ta3  1  0.23441200  0.96579500  0.23557800  1
  Cr  Cr0  1  0.74764500  0.65222000  0.99757100  1
  Cr  Cr1  1  0.25020800  0.34924900  0.00018200  1
  O  O0  1  0.07156300  0.20363200  0.14851800  1
  O  O1  1  0.43550500  0.01284100  0.84806000  1
  O  O2  1  0.92788700  0.79790300  0.84987800  1
  O  O3  1  0.56345400  0.98854200  0.14986100  1
  O  O4  1  0.58920300  0.44285300  0.11757700  1
  O  O5  1  0.92472400  0.28733500  0.87697800  1
  O  O6  1  0.40968100  0.55772200  0.88031800  1
  O  O7  1  0.07314100  0.71530100  0.12019400  1
  O  O8  1  0.45288100  0.29800500  0.37646200  1
  O  O9  1  0.04894200  0.91211900  0.62533900  1
  O  O10  1  0.37617900  0.84364700  0.38291200  1
  O  O11  1  0.12097000  0.44955900  0.61492000  1
  O  O12  1  0.62264700  0.15720700  0.61516700  1
  O  O13  1  0.87853300  0.55124300  0.38317500  1
  O  O14  1  0.95045700  0.08821000  0.37334400  1
  O  O15  1  0.54674800  0.70293100  0.62184800  1
loop_
_geom_bond_atom_site_label_1
_geom_bond_atom_site_label_2
_geom_bond_distance
_geom_bond_site_symmetry_2
Mg0 O12 1.998534 1_555
Mg0 O11 2.020677 1_655
Mg0 O15 2.039530 1_555
Mg0 O13 2.120979 1_555
Mg0 O8 2.255122 1_555
Mg0 O14 2.528433 1_555
Mg1 O13 2.027076 1_555
Mg1 O10 2.028190 1_555
Mg1 O14 2.044852 1_565
Mg1 O12 2.151616 1_565
Mg1 O9 2.272020 1_655
Mg1 O15 2.403582 1_555
Mg2 O10 1.999273 1_555
Mg2 O13 2.019470 1_455
Mg2 O8 2.039407 1_555
Mg2 O11 2.119390 1_555
Mg2 O15 2.257655 1_555
Mg2 O9 2.529109 1_555
Mg3 O11 2.026004 1_555
Mg3 O12 2.027917 1_555
Mg3 O9 2.046306 1_545
Mg3 O10 2.152576 1_545
Mg3 O14 2.266964 1_455
Mg3 O8 2.407121 1_555
Cr0 O7 2.050891 1_656
Cr0 O6 2.089110 1_555
Cr0 O4 2.136939 1_556
Cr0 O2 2.142460 1_555
Cr0 O3 2.437124 1_556
Cr0 O5 2.439736 1_555
Cr1 O5 2.053907 1_454
Cr1 O4 2.093635 1_555
Cr1 O6 2.133980 1_554
Cr1 O0 2.143811 1_555
Cr1 O1 2.439192 1_554
Cr1 O7 2.443735 1_555
O0 Ta0 1.977219 1_455
O0 Ta3 2.063003 1_545
O1 Ta1 1.950548 1_555
O1 Ta2 2.018755 1_545
O2 Ta2 1.976621 1_655
O2 Ta1 2.063410 1_565
O3 Ta3 1.951711 1_555
O3 Ta0 2.018069 1_565
O4 Ta0 1.867127 1_555
O5 Ta1 1.837768 1_555
O6 Ta2 1.867747 1_555
O7 Ta3 1.837783 1_555
O8 Ta0 2.061043 1_555
O8 Ta3 2.400531 1_545
O9 Ta1 2.058233 1_465
O9 Ta2 2.333898 1_555
O10 Ta3 1.963675 1_555
O11 Ta2 1.975652 1_555
O12 Ta1 1.963493 1_555
O13 Ta0 1.975256 1_555
O14 Ta3 2.059137 1_645
O14 Ta0 2.342618 1_555
O15 Ta2 2.061865 1_555
O15 Ta1 2.398791 1_565
