# generated using pymatgen
data_KBaCr2(PO4)3
_symmetry_space_group_name_H-M   'P 1'
_cell_length_a   9.96085600
_cell_length_b   9.96085600
_cell_length_c   9.96085600
_cell_angle_alpha   90.00000000
_cell_angle_beta   90.00000000
_cell_angle_gamma   90.00000000
_symmetry_Int_Tables_number   1
_chemical_formula_structural   KBaCr2(PO4)3
_chemical_formula_sum   'K4 Ba4 Cr8 P12 O48'
_cell_volume   988.30270760
_cell_formula_units_Z   4
loop_
 _symmetry_equiv_pos_site_id
 _symmetry_equiv_pos_as_xyz
  1  'x, y, z'
loop_
 _atom_site_type_symbol
 _atom_site_label
 _atom_site_symmetry_multiplicity
 _atom_site_fract_x
 _atom_site_fract_y
 _atom_site_fract_z
 _atom_site_occupancy
  K  K0  1  0.20328300  0.70328300  0.79671700  1
  K  K1  1  0.70328300  0.79671700  0.20328300  1
  K  K2  1  0.79671700  0.20328300  0.70328300  1
  K  K3  1  0.29671700  0.29671700  0.29671700  1
  Ba  Ba0  1  0.43249100  0.93249100  0.56750900  1
  Ba  Ba1  1  0.93249100  0.56750900  0.43249100  1
  Ba  Ba2  1  0.56750900  0.43249100  0.93249100  1
  Ba  Ba3  1  0.06750900  0.06750900  0.06750900  1
  Cr  Cr0  1  0.91334500  0.41334500  0.08665500  1
  Cr  Cr1  1  0.41334500  0.08665500  0.91334500  1
  Cr  Cr2  1  0.08665500  0.91334500  0.41334500  1
  Cr  Cr3  1  0.58665500  0.58665500  0.58665500  1
  Cr  Cr4  1  0.64825000  0.14825000  0.35175000  1
  Cr  Cr5  1  0.14825000  0.35175000  0.64825000  1
  Cr  Cr6  1  0.35175000  0.64825000  0.14825000  1
  Cr  Cr7  1  0.85175000  0.85175000  0.85175000  1
  P  P0  1  0.22588100  0.37407500  0.95972100  1
  P  P1  1  0.04027900  0.72588100  0.12592500  1
  P  P2  1  0.87407500  0.54027900  0.77411900  1
  P  P3  1  0.72588100  0.12592500  0.04027900  1
  P  P4  1  0.54027900  0.77411900  0.87407500  1
  P  P5  1  0.37407500  0.95972100  0.22588100  1
  P  P6  1  0.77411900  0.87407500  0.54027900  1
  P  P7  1  0.95972100  0.22588100  0.37407500  1
  P  P8  1  0.12592500  0.04027900  0.72588100  1
  P  P9  1  0.27411900  0.62592500  0.45972100  1
  P  P10  1  0.45972100  0.27411900  0.62592500  1
  P  P11  1  0.62592500  0.45972100  0.27411900  1
  O  O0  1  0.30109900  0.23902700  0.98582000  1
  O  O1  1  0.01418000  0.80109900  0.26097300  1
  O  O2  1  0.73902700  0.51418000  0.69890100  1
  O  O3  1  0.80109900  0.26097300  0.01418000  1
  O  O4  1  0.51418000  0.69890100  0.73902700  1
  O  O5  1  0.23902700  0.98582000  0.30109900  1
  O  O6  1  0.69890100  0.73902700  0.51418000  1
  O  O7  1  0.98582000  0.30109900  0.23902700  1
  O  O8  1  0.26097300  0.01418000  0.80109900  1
  O  O9  1  0.19890100  0.76097300  0.48582000  1
  O  O10  1  0.48582000  0.19890100  0.76097300  1
  O  O11  1  0.76097300  0.48582000  0.19890100  1
  O  O12  1  0.07749500  0.34601900  0.99476100  1
  O  O13  1  0.00523900  0.57749500  0.15398100  1
  O  O14  1  0.84601900  0.50523900  0.92250500  1
  O  O15  1  0.57749500  0.15398100  0.00523900  1
  O  O16  1  0.50523900  0.92250500  0.84601900  1
  O  O17  1  0.34601900  0.99476100  0.07749500  1
  O  O18  1  0.92250500  0.84601900  0.50523900  1
  O  O19  1  0.99476100  0.07749500  0.34601900  1
  O  O20  1  0.15398100  0.00523900  0.57749500  1
  O  O21  1  0.42250500  0.65398100  0.49476100  1
  O  O22  1  0.49476100  0.42250500  0.65398100  1
  O  O23  1  0.65398100  0.49476100  0.42250500  1
  O  O24  1  0.24158100  0.42208100  0.81228700  1
  O  O25  1  0.18771300  0.74158100  0.07791900  1
  O  O26  1  0.92208100  0.68771300  0.75841900  1
  O  O27  1  0.74158100  0.07791900  0.18771300  1
  O  O28  1  0.68771300  0.75841900  0.92208100  1
  O  O29  1  0.42208100  0.81228700  0.24158100  1
  O  O30  1  0.75841900  0.92208100  0.68771300  1
  O  O31  1  0.81228700  0.24158100  0.42208100  1
  O  O32  1  0.07791900  0.18771300  0.74158100  1
  O  O33  1  0.25841900  0.57791900  0.31228700  1
  O  O34  1  0.31228700  0.25841900  0.57791900  1
  O  O35  1  0.57791900  0.31228700  0.25841900  1
  O  O36  1  0.29727400  0.47698200  0.05059900  1
  O  O37  1  0.94940100  0.79727400  0.02301800  1
  O  O38  1  0.97698200  0.44940100  0.70272600  1
  O  O39  1  0.79727400  0.02301800  0.94940100  1
  O  O40  1  0.44940100  0.70272600  0.97698200  1
  O  O41  1  0.47698200  0.05059900  0.29727400  1
  O  O42  1  0.70272600  0.97698200  0.44940100  1
  O  O43  1  0.05059900  0.29727400  0.47698200  1
  O  O44  1  0.02301800  0.94940100  0.79727400  1
  O  O45  1  0.20272600  0.52301800  0.55059900  1
  O  O46  1  0.55059900  0.20272600  0.52301800  1
  O  O47  1  0.52301800  0.55059900  0.20272600  1
loop_
_geom_bond_atom_site_label_1
_geom_bond_atom_site_label_2
_geom_bond_distance
_geom_bond_site_symmetry_2
K0 O24 2.831122 1_555
K0 O25 2.831122 1_556
K0 O26 2.831122 1_455
K0 O44 3.038793 1_555
K0 O40 3.038793 1_555
K0 O45 3.038793 1_555
K0 O9 3.149967 1_555
K0 O8 3.149967 1_565
K0 O4 3.149967 1_555
K1 O27 2.831122 1_565
K1 O29 2.831122 1_555
K1 O28 2.831122 1_554
K1 O37 3.038793 1_555
K1 O42 3.038793 1_555
K1 O47 3.038793 1_555
K1 O11 3.149967 1_555
K1 O1 3.149967 1_655
K1 O6 3.149967 1_555
K2 O31 2.831122 1_555
K2 O32 2.831122 1_655
K2 O30 2.831122 1_545
K2 O39 3.038793 1_555
K2 O38 3.038793 1_555
K2 O46 3.038793 1_555
K2 O10 3.149967 1_555
K2 O2 3.149967 1_555
K2 O3 3.149967 1_556
K3 O33 2.831122 1_555
K3 O34 2.831122 1_555
K3 O35 2.831122 1_555
K3 O43 3.038793 1_555
K3 O41 3.038793 1_555
K3 O36 3.038793 1_555
K3 O0 3.149967 1_554
K3 O7 3.149967 1_455
K3 O5 3.149967 1_545
Ba0 O20 2.869000 1_565
Ba0 O21 2.869000 1_555
Ba0 O16 2.869000 1_555
Ba0 O41 2.970873 1_565
Ba0 O46 2.970873 1_565
Ba0 O42 2.970873 1_555
Ba0 O9 2.999124 1_555
Ba0 O8 2.999124 1_565
Ba0 O4 2.999124 1_555
Ba1 O13 2.869000 1_655
Ba1 O23 2.869000 1_555
Ba1 O18 2.869000 1_555
Ba1 O43 2.970873 1_655
Ba1 O45 2.970873 1_655
Ba1 O38 2.970873 1_555
Ba1 O11 2.999124 1_555
Ba1 O1 2.999124 1_655
Ba1 O6 2.999124 1_555
Ba2 O15 2.869000 1_556
Ba2 O22 2.869000 1_555
Ba2 O14 2.869000 1_555
Ba2 O36 2.970873 1_556
Ba2 O47 2.970873 1_556
Ba2 O40 2.970873 1_555
Ba2 O10 2.999124 1_555
Ba2 O3 2.999124 1_556
Ba2 O2 2.999124 1_555
Ba3 O17 2.869000 1_545
Ba3 O12 2.869000 1_554
Ba3 O19 2.869000 1_455
Ba3 O44 2.970873 1_544
Ba3 O37 2.970873 1_445
Ba3 O39 2.970873 1_454
Ba3 O7 2.999124 1_455
Ba3 O5 2.999124 1_545
Ba3 O0 2.999124 1_554
Cr0 O12 1.990241 1_654
Cr0 O13 1.990241 1_655
Cr0 O14 1.990241 1_554
Cr0 O3 2.018616 1_555
Cr0 O7 2.018616 1_555
Cr0 O11 2.018616 1_555
Cr1 O17 1.990241 1_546
Cr1 O15 1.990241 1_556
Cr1 O16 1.990241 1_545
Cr1 O8 2.018616 1_555
Cr1 O0 2.018616 1_555
Cr1 O10 2.018616 1_555
Cr2 O19 1.990241 1_465
Cr2 O20 1.990241 1_565
Cr2 O18 1.990241 1_455
Cr2 O1 2.018616 1_555
Cr2 O5 2.018616 1_555
Cr2 O9 2.018616 1_555
Cr3 O21 1.990241 1_555
Cr3 O22 1.990241 1_555
Cr3 O23 1.990241 1_555
Cr3 O2 2.018616 1_555
Cr3 O6 2.018616 1_555
Cr3 O4 2.018616 1_555
Cr4 O27 2.006198 1_555
Cr4 O31 2.006198 1_555
Cr4 O35 2.006198 1_555
Cr4 O46 2.037381 1_555
Cr4 O42 2.037381 1_545
Cr4 O41 2.037381 1_555
Cr5 O32 2.006198 1_555
Cr5 O24 2.006198 1_555
Cr5 O34 2.006198 1_555
Cr5 O45 2.037381 1_555
Cr5 O38 2.037381 1_455
Cr5 O43 2.037381 1_555
Cr6 O25 2.006198 1_555
Cr6 O29 2.006198 1_555
Cr6 O33 2.006198 1_555
Cr6 O47 2.037381 1_555
Cr6 O40 2.037381 1_554
Cr6 O36 2.037381 1_555
Cr7 O28 2.006198 1_555
Cr7 O26 2.006198 1_555
Cr7 O30 2.006198 1_555
Cr7 O37 2.037381 1_556
Cr7 O39 2.037381 1_565
Cr7 O44 2.037381 1_655
O0 P0 1.561564 1_555
O1 P1 1.561564 1_555
O2 P2 1.561564 1_555
O3 P3 1.561564 1_555
O4 P4 1.561564 1_555
O5 P5 1.561564 1_555
O6 P6 1.561564 1_555
O7 P7 1.561564 1_555
O8 P8 1.561564 1_555
O9 P9 1.561564 1_555
O10 P10 1.561564 1_555
O11 P11 1.561564 1_555
O12 P0 1.544201 1_555
O13 P1 1.544201 1_555
O14 P2 1.544201 1_555
O15 P3 1.544201 1_555
O16 P4 1.544201 1_555
O17 P5 1.544201 1_555
O18 P6 1.544201 1_555
O19 P7 1.544201 1_555
O20 P8 1.544201 1_555
O21 P9 1.544201 1_555
O22 P10 1.544201 1_555
O23 P11 1.544201 1_555
O24 P0 1.552356 1_555
O25 P1 1.552356 1_555
O26 P2 1.552356 1_555
O27 P3 1.552356 1_555
O28 P4 1.552356 1_555
O29 P5 1.552356 1_555
O30 P6 1.552356 1_555
O31 P7 1.552356 1_555
O32 P8 1.552356 1_555
O33 P9 1.552356 1_555
O34 P10 1.552356 1_555
O35 P11 1.552356 1_555
O36 P0 1.541380 1_554
O37 P1 1.541380 1_655
O38 P2 1.541380 1_555
O39 P3 1.541380 1_556
O40 P4 1.541380 1_555
O41 P5 1.541380 1_545
O42 P6 1.541380 1_555
O43 P7 1.541380 1_455
O44 P8 1.541380 1_565
O45 P9 1.541380 1_555
O46 P10 1.541380 1_555
O47 P11 1.541380 1_555
