# generated using pymatgen
data_Na2LiY(Si2O5)3
_symmetry_space_group_name_H-M   'P 1'
_cell_length_a   11.35538618
_cell_length_b   11.35538618
_cell_length_c   10.37479049
_cell_angle_alpha   90.00000000
_cell_angle_beta   90.00000000
_cell_angle_gamma   100.35535572
_symmetry_Int_Tables_number   1
_chemical_formula_structural   Na2LiY(Si2O5)3
_chemical_formula_sum   'Na8 Li4 Y4 Si24 O60'
_cell_volume   1315.98532691
_cell_formula_units_Z   4
loop_
 _symmetry_equiv_pos_site_id
 _symmetry_equiv_pos_as_xyz
  1  'x, y, z'
loop_
 _atom_site_type_symbol
 _atom_site_label
 _atom_site_symmetry_multiplicity
 _atom_site_fract_x
 _atom_site_fract_y
 _atom_site_fract_z
 _atom_site_occupancy
  Na  Na0  1  0.57636679  0.42363321  0.26079286  1
  Na  Na1  1  0.92363321  0.07636679  0.76079286  1
  Na  Na2  1  0.42363321  0.57636679  0.73920714  1
  Na  Na3  1  0.07636679  0.92363321  0.23920714  1
  Na  Na4  1  0.03456026  0.46543974  0.25000000  1
  Na  Na5  1  0.46543974  0.03456026  0.75000000  1
  Na  Na6  1  0.96543974  0.53456026  0.75000000  1
  Na  Na7  1  0.53456026  0.96543974  0.25000000  1
  Li  Li0  1  0.24479083  0.24479083  -0.00000000  1
  Li  Li1  1  0.74479083  0.74479083  0.50000000  1
  Li  Li2  1  0.75520917  0.75520917  -0.00000000  1
  Li  Li3  1  0.25520917  0.25520917  0.50000000  1
  Y  Y0  1  0.33998167  0.16001833  0.25000000  1
  Y  Y1  1  0.16001833  0.33998167  0.75000000  1
  Y  Y2  1  0.66001833  0.83998167  0.75000000  1
  Y  Y3  1  0.83998167  0.66001833  0.25000000  1
  Si  Si0  1  0.76920335  0.01714269  0.47543687  1
  Si  Si1  1  0.53227954  0.68947422  0.31525892  1
  Si  Si2  1  0.81052578  0.96772046  0.18474108  1
  Si  Si3  1  0.68947422  0.53227954  0.68474108  1
  Si  Si4  1  0.03227954  0.18947422  0.18474108  1
  Si  Si5  1  0.46772046  0.31052578  0.68474108  1
  Si  Si6  1  0.18947422  0.03227954  0.81525892  1
  Si  Si7  1  0.31052578  0.46772046  0.31525892  1
  Si  Si8  1  0.01714269  0.76920335  0.52456313  1
  Si  Si9  1  0.48285731  0.73079665  0.02456313  1
  Si  Si10  1  0.96772046  0.81052578  0.81525892  1
  Si  Si11  1  0.73079665  0.48285731  0.97543687  1
  Si  Si12  1  0.98285731  0.23079665  0.47543687  1
  Si  Si13  1  0.51714269  0.26920335  0.97543687  1
  Si  Si14  1  0.90988256  0.30349893  0.96074283  1
  Si  Si15  1  0.26920335  0.51714269  0.02456313  1
  Si  Si16  1  0.09011744  0.69650107  0.03925717  1
  Si  Si17  1  0.40988256  0.80349893  0.53925717  1
  Si  Si18  1  0.69650107  0.09011744  0.96074283  1
  Si  Si19  1  0.80349893  0.40988256  0.46074283  1
  Si  Si20  1  0.19650107  0.59011744  0.53925717  1
  Si  Si21  1  0.30349893  0.90988256  0.03925717  1
  Si  Si22  1  0.59011744  0.19650107  0.46074283  1
  Si  Si23  1  0.23079665  0.98285731  0.52456313  1
  O  O0  1  0.39642883  0.82635719  0.99089047  1
  O  O1  1  0.56426349  0.43573651  0.68402575  1
  O  O2  1  0.06426349  0.93573651  0.81597425  1
  O  O3  1  0.43573651  0.56426349  0.31597425  1
  O  O4  1  0.82852358  0.17147642  0.93159648  1
  O  O5  1  0.32852358  0.67147642  0.56840352  1
  O  O6  1  0.17147642  0.82852358  0.06840352  1
  O  O7  1  0.67147642  0.32852358  0.43159648  1
  O  O8  1  0.90306400  0.09693600  0.49190547  1
  O  O9  1  0.59693600  0.40306400  -0.00809453  1
  O  O10  1  0.09693600  0.90306400  0.50809453  1
  O  O11  1  0.40306400  0.59693600  0.00809453  1
  O  O12  1  0.01764724  0.65205133  0.16573410  1
  O  O13  1  0.48235276  0.84794867  0.66573410  1
  O  O14  1  0.65205133  0.01764724  0.83426590  1
  O  O15  1  0.84794867  0.48235276  0.33426590  1
  O  O16  1  0.98235276  0.34794867  0.83426590  1
  O  O17  1  0.51764724  0.15205133  0.33426590  1
  O  O18  1  0.34794867  0.98235276  0.16573410  1
  O  O19  1  0.15205133  0.51764724  0.66573410  1
  O  O20  1  0.00557193  0.71269148  0.91493294  1
  O  O21  1  0.49442807  0.78730852  0.41493294  1
  O  O22  1  0.71269148  0.00557193  0.08506706  1
  O  O23  1  0.78730852  0.49442807  0.58506706  1
  O  O24  1  0.97596289  0.74604118  0.67514607  1
  O  O25  1  0.50557193  0.21269148  0.58506706  1
  O  O26  1  0.28730852  0.99442807  0.91493294  1
  O  O27  1  0.21269148  0.50557193  0.41493294  1
  O  O28  1  0.83923858  0.84001406  0.84598462  1
  O  O29  1  0.66076142  0.65998594  0.34598462  1
  O  O30  1  0.84001406  0.83923858  0.15401538  1
  O  O31  1  0.65998594  0.66076142  0.65401538  1
  O  O32  1  0.16076142  0.15998594  0.15401538  1
  O  O33  1  0.33923858  0.34001406  0.65401538  1
  O  O34  1  0.15998594  0.16076142  0.84598462  1
  O  O35  1  0.34001406  0.33923858  0.34598462  1
  O  O36  1  0.17364281  0.60357117  0.99089047  1
  O  O37  1  0.32635719  0.89642883  0.49089047  1
  O  O38  1  0.60357117  0.17364281  0.00910953  1
  O  O39  1  0.89642883  0.32635719  0.50910953  1
  O  O40  1  0.82635719  0.39642883  0.00910953  1
  O  O41  1  0.67364281  0.10357117  0.50910953  1
  O  O42  1  0.93573651  0.06426349  0.18402575  1
  O  O43  1  0.10357117  0.67364281  0.49089047  1
  O  O44  1  0.25529385  0.40635802  0.92981570  1
  O  O45  1  0.24470615  0.09364198  0.42981570  1
  O  O46  1  0.40635802  0.25529385  0.07018430  1
  O  O47  1  0.09364198  0.24470615  0.57018430  1
  O  O48  1  0.74470615  0.59364198  0.07018430  1
  O  O49  1  0.75529385  0.90635802  0.57018430  1
  O  O50  1  0.59364198  0.74470615  0.92981570  1
  O  O51  1  0.90635802  0.75529385  0.42981570  1
  O  O52  1  0.24604118  0.47596289  0.17514607  1
  O  O53  1  0.25395882  0.02403711  0.67514607  1
  O  O54  1  0.47596289  0.24604118  0.82485393  1
  O  O55  1  0.02403711  0.25395882  0.32485393  1
  O  O56  1  0.75395882  0.52403711  0.82485393  1
  O  O57  1  0.74604118  0.97596289  0.32485393  1
  O  O58  1  0.52403711  0.75395882  0.17514607  1
  O  O59  1  0.99442807  0.28730852  0.08506706  1
loop_
_geom_bond_atom_site_label_1
_geom_bond_atom_site_label_2
_geom_bond_distance
_geom_bond_site_symmetry_2
Na0 O7 2.427412 1_555
Na0 O3 2.518886 1_555
Na0 O9 2.812627 1_555
Na0 O35 2.824556 1_555
Na0 O29 2.824556 1_555
Na1 O4 2.427412 1_555
Na1 O2 2.518886 1_645
Na1 O8 2.812627 1_555
Na1 O34 2.824556 1_655
Na1 O28 2.824556 1_545
Na2 O5 2.427412 1_555
Na2 O1 2.518886 1_555
Na2 O11 2.812627 1_556
Na2 O33 2.824556 1_555
Na2 O31 2.824556 1_555
Na3 O6 2.427412 1_555
Na3 O42 2.518886 1_465
Na3 O10 2.812627 1_555
Na3 O32 2.824556 1_565
Na3 O30 2.824556 1_455
Na4 O15 2.331920 1_455
Na4 O12 2.331920 1_555
Na4 O55 2.506225 1_555
Na4 O52 2.506225 1_555
Na4 O59 2.625988 1_455
Na4 O27 2.625988 1_555
Na5 O13 2.331920 1_545
Na5 O14 2.331920 1_555
Na5 O53 2.506225 1_555
Na5 O54 2.506225 1_555
Na5 O25 2.625988 1_555
Na5 O26 2.625988 1_545
Na6 O19 2.331920 1_655
Na6 O16 2.331920 1_555
Na6 O24 2.506225 1_555
Na6 O56 2.506225 1_555
Na6 O23 2.625988 1_555
Na6 O20 2.625988 1_655
Na7 O17 2.331920 1_565
Na7 O18 2.331920 1_555
Na7 O57 2.506225 1_555
Na7 O58 2.506225 1_555
Na7 O21 2.625988 1_555
Na7 O22 2.625988 1_565
Li0 O46 1.957480 1_555
Li0 O44 1.957480 1_554
Li0 O32 2.015117 1_555
Li0 O34 2.015117 1_554
Li1 O49 1.957480 1_555
Li1 O51 1.957480 1_555
Li1 O29 2.015117 1_555
Li1 O31 2.015117 1_555
Li2 O48 1.957480 1_555
Li2 O50 1.957480 1_554
Li2 O28 2.015117 1_554
Li2 O30 2.015117 1_555
Li3 O47 1.957480 1_555
Li3 O45 1.957480 1_555
Li3 O35 2.015117 1_555
Li3 O33 2.015117 1_555
O0 Si21 1.620111 1_556
O0 Si9 1.626533 1_556
O1 Si5 1.631897 1_555
O1 Si3 1.631897 1_555
O2 Si6 1.631897 1_565
O2 Si10 1.631897 1_455
O3 Si7 1.631897 1_555
O3 Si1 1.631897 1_555
O4 Si18 1.641505 1_555
O4 Si14 1.641505 1_555
O5 Si20 1.641505 1_555
O5 Si17 1.641505 1_555
O6 Si16 1.641505 1_555
O6 Si21 1.641505 1_555
O7 Si22 1.641505 1_555
O7 Si19 1.641505 1_555
O8 Si0 1.632654 1_555
O8 Si12 1.632654 1_555
O9 Si13 1.632654 1_554
O9 Si11 1.632654 1_554
O10 Si8 1.632654 1_555
O10 Si23 1.632654 1_555
O11 Si15 1.632654 1_555
O11 Si9 1.632654 1_555
O12 Si16 1.582543 1_555
O12 Y3 2.215456 1_455
O13 Si17 1.582543 1_555
O13 Y2 2.215456 1_555
O14 Si18 1.582543 1_555
O14 Y2 2.215456 1_545
O15 Si19 1.582543 1_555
O15 Y3 2.215456 1_555
O16 Si14 1.582543 1_555
O16 Y1 2.215456 1_655
O17 Si22 1.582543 1_555
O17 Y0 2.215456 1_555
O18 Si21 1.582543 1_555
O18 Y0 2.215456 1_565
O19 Si20 1.582543 1_555
O19 Y1 2.215456 1_555
O20 Si10 1.630941 1_455
O20 Si16 1.637872 1_556
O21 Si1 1.630941 1_555
O21 Si17 1.637872 1_555
O22 Si2 1.630941 1_545
O22 Si18 1.637872 1_554
O23 Si3 1.630941 1_555
O23 Si19 1.637872 1_555
O24 Si10 1.637882 1_555
O24 Si8 1.638383 1_655
O25 Si5 1.630941 1_555
O25 Si22 1.637872 1_555
O26 Si6 1.630941 1_565
O26 Si21 1.637872 1_556
O27 Si7 1.630941 1_555
O27 Si20 1.637872 1_555
O28 Si10 1.586802 1_555
O28 Y2 2.265631 1_555
O29 Si1 1.586802 1_555
O29 Y3 2.265631 1_555
O30 Si2 1.586802 1_555
O30 Y3 2.265631 1_555
O31 Si3 1.586802 1_555
O31 Y2 2.265631 1_555
O32 Si4 1.586802 1_555
O32 Y0 2.265631 1_555
O33 Si5 1.586802 1_555
O33 Y1 2.265631 1_555
O34 Si6 1.586802 1_555
O34 Y1 2.265631 1_555
O35 Si7 1.586802 1_555
O35 Y0 2.265631 1_555
O36 Si16 1.620111 1_556
O36 Si15 1.626533 1_556
O37 Si17 1.620111 1_555
O37 Si23 1.626533 1_555
O38 Si18 1.620111 1_554
O38 Si13 1.626533 1_554
O39 Si19 1.620111 1_555
O39 Si12 1.626533 1_555
O40 Si14 1.620111 1_554
O40 Si11 1.626533 1_554
O41 Si22 1.620111 1_555
O41 Si0 1.626533 1_555
O42 Si4 1.631897 1_655
O42 Si2 1.631897 1_545
O43 Si20 1.620111 1_555
O43 Si8 1.626533 1_555
O44 Si15 1.581880 1_556
O44 Y1 2.219395 1_555
O45 Si23 1.581880 1_545
O45 Y0 2.219395 1_555
O46 Si13 1.581880 1_554
O46 Y0 2.219395 1_555
O47 Si12 1.581880 1_455
O47 Y1 2.219395 1_555
O48 Si11 1.581880 1_554
O48 Y3 2.219395 1_555
O49 Si0 1.581880 1_565
O49 Y2 2.219395 1_555
O50 Si9 1.581880 1_556
O50 Y2 2.219395 1_555
O51 Si8 1.581880 1_655
O51 Y3 2.219395 1_555
O52 Si7 1.637882 1_555
O52 Si15 1.638383 1_555
O53 Si6 1.637882 1_555
O53 Si23 1.638383 1_545
O54 Si5 1.637882 1_555
O54 Si13 1.638383 1_555
O55 Si4 1.637882 1_555
O55 Si12 1.638383 1_455
O56 Si3 1.637882 1_555
O56 Si11 1.638383 1_555
O57 Si2 1.637882 1_555
O57 Si0 1.638383 1_565
O58 Si1 1.637882 1_555
O58 Si9 1.638383 1_555
O59 Si4 1.630941 1_655
O59 Si14 1.637872 1_554
