# generated using pymatgen
data_Ta4InBi3O16
_symmetry_space_group_name_H-M   'P 1'
_cell_length_a   5.51665753
_cell_length_b   7.81554574
_cell_length_c   7.74474477
_cell_angle_alpha   101.61818041
_cell_angle_beta   89.32393713
_cell_angle_gamma   87.41045335
_symmetry_Int_Tables_number   1
_chemical_formula_structural   Ta4InBi3O16
_chemical_formula_sum   'Ta4 In1 Bi3 O16'
_cell_volume   326.66992473
_cell_formula_units_Z   1
loop_
 _symmetry_equiv_pos_site_id
 _symmetry_equiv_pos_as_xyz
  1  'x, y, z'
loop_
 _atom_site_type_symbol
 _atom_site_label
 _atom_site_symmetry_multiplicity
 _atom_site_fract_x
 _atom_site_fract_y
 _atom_site_fract_z
 _atom_site_occupancy
  Ta  Ta0  1  0.75279300  0.33088400  0.19082000  1
  Ta  Ta1  1  0.24313700  0.67301800  0.81490600  1
  Ta  Ta2  1  0.22676200  0.65916700  0.31007600  1
  Ta  Ta3  1  0.77655000  0.34424900  0.69030500  1
  In  In0  1  0.70908600  0.84583500  0.12324800  1
  Bi  Bi0  1  0.28897200  0.17173800  0.88842100  1
  Bi  Bi1  1  0.23634100  0.11821800  0.37536400  1
  Bi  Bi2  1  0.75492500  0.88237000  0.61811900  1
  O  O0  1  0.08667300  0.44462400  0.77967500  1
  O  O1  1  0.92973600  0.55177300  0.20881300  1
  O  O2  1  0.54183200  0.15444000  0.63202000  1
  O  O3  1  0.47635900  0.84439800  0.36146500  1
  O  O4  1  0.68762400  0.33625300  0.94796100  1
  O  O5  1  0.35629900  0.67721900  0.05371400  1
  O  O6  1  0.55384200  0.54025500  0.70519400  1
  O  O7  1  0.43596500  0.45327700  0.29478700  1
  O  O8  1  0.55119100  0.10946100  0.16591300  1
  O  O9  1  0.42273900  0.89251000  0.81905500  1
  O  O10  1  0.00099200  0.10741900  0.68548100  1
  O  O11  1  0.99593800  0.88694100  0.31640100  1
  O  O12  1  0.03309500  0.16763100  0.12802800  1
  O  O13  1  0.92975300  0.79877000  0.88997400  1
  O  O14  1  0.86143100  0.32268800  0.44248500  1
  O  O15  1  0.14796500  0.68686500  0.55777300  1
loop_
_geom_bond_atom_site_label_1
_geom_bond_atom_site_label_2
_geom_bond_distance
_geom_bond_site_symmetry_2
In0 O13 2.126306 1_554
In0 O8 2.160997 1_565
In0 O11 2.180233 1_555
In0 O3 2.237405 1_555
In0 O5 2.405209 1_555
Bi0 O9 2.229036 1_545
Bi0 O10 2.249396 1_555
Bi0 O12 2.324538 1_556
Bi0 O2 2.390992 1_555
Bi0 O4 2.596746 1_555
Bi0 O0 2.652173 1_555
Bi0 O8 2.716466 1_556
Bi1 O11 2.265634 1_445
Bi1 O12 2.320600 1_555
Bi1 O8 2.351803 1_555
Bi1 O3 2.447947 1_545
Bi1 O14 2.538308 1_455
Bi1 O2 2.601336 1_555
Bi1 O10 2.734832 1_555
Bi2 O10 2.251981 1_665
Bi2 O2 2.365151 1_565
Bi2 O9 2.378277 1_555
Bi2 O3 2.505277 1_555
Bi2 O13 2.516957 1_555
Bi2 O15 2.577520 1_655
Bi2 O11 2.682159 1_555
O0 Ta3 1.987961 1_455
O0 Ta1 1.988570 1_555
O1 Ta2 1.973323 1_655
O1 Ta0 2.002796 1_555
O2 Ta3 1.999683 1_555
O3 Ta2 2.027594 1_555
O4 Ta0 1.927462 1_556
O4 Ta3 2.063106 1_555
O5 Ta1 1.953488 1_554
O5 Ta2 2.135667 1_555
O6 Ta3 1.903918 1_555
O6 Ta1 2.046072 1_555
O7 Ta2 1.920294 1_555
O7 Ta0 2.030705 1_555
O8 Ta0 2.076879 1_555
O9 Ta1 2.014355 1_555
O10 Ta3 2.173583 1_455
O11 Ta2 2.133423 1_655
O12 Ta0 1.951829 1_455
O13 Ta1 1.971142 1_655
O14 Ta3 1.942364 1_555
O14 Ta0 2.058297 1_555
O15 Ta2 1.928845 1_555
O15 Ta1 2.087943 1_555
