# generated using pymatgen
data_CsLa6FeI10
_symmetry_space_group_name_H-M   'P 1'
_cell_length_a   14.07332898
_cell_length_b   15.72275538
_cell_length_c   14.44738351
_cell_angle_alpha   89.99174751
_cell_angle_beta   89.99930427
_cell_angle_gamma   89.99989077
_symmetry_Int_Tables_number   1
_chemical_formula_structural   CsLa6FeI10
_chemical_formula_sum   'Cs4 La24 Fe4 I40'
_cell_volume   3196.79431574
_cell_formula_units_Z   4
loop_
 _symmetry_equiv_pos_site_id
 _symmetry_equiv_pos_as_xyz
  1  'x, y, z'
loop_
 _atom_site_type_symbol
 _atom_site_label
 _atom_site_symmetry_multiplicity
 _atom_site_fract_x
 _atom_site_fract_y
 _atom_site_fract_z
 _atom_site_occupancy
  Cs  Cs0  1  0.75002895  0.58215914  0.51321633  1
  Cs  Cs1  1  0.24999895  0.41795552  0.48669642  1
  Cs  Cs2  1  0.24999094  0.91780603  0.01313387  1
  Cs  Cs3  1  0.74998829  0.08208524  0.98679245  1
  La  La0  1  0.75004453  0.99353352  0.60515643  1
  La  La1  1  0.25003854  0.00622473  0.39493002  1
  La  La2  1  0.24997124  0.50650602  0.10482636  1
  La  La3  1  0.74993943  0.49348079  0.89510659  1
  La  La4  1  0.74997791  0.76818905  0.10326343  1
  La  La5  1  0.24996345  0.23194121  0.89681069  1
  La  La6  1  0.25002129  0.73151467  0.60321427  1
  La  La7  1  0.75006047  0.26859292  0.39670308  1
  La  La8  1  0.39297334  0.94283276  0.61853511  1
  La  La9  1  0.60697850  0.05699897  0.38135586  1
  La  La10  1  0.60690797  0.55689353  0.11856793  1
  La  La11  1  0.89308438  0.05702744  0.38134729  1
  La  La12  1  0.39292954  0.44318831  0.88153886  1
  La  La13  1  0.10703729  0.94281008  0.61857044  1
  La  La14  1  0.10707235  0.44316320  0.88155157  1
  La  La15  1  0.89299418  0.55694867  0.11856120  1
  La  La16  1  0.89274622  0.70438463  0.88310686  1
  La  La17  1  0.10729389  0.29583214  0.11681972  1
  La  La18  1  0.10736922  0.79536717  0.38293870  1
  La  La19  1  0.39264143  0.29577818  0.11685697  1
  La  La20  1  0.89282708  0.20462229  0.61717314  1
  La  La21  1  0.60718599  0.70432063  0.88308391  1
  La  La22  1  0.60723212  0.20458593  0.61715385  1
  La  La23  1  0.39269626  0.79534424  0.38293402  1
  Fe  Fe0  1  0.74985394  0.62896906  0.99913995  1
  Fe  Fe1  1  0.24990922  0.37134674  0.00097679  1
  Fe  Fe2  1  0.25006336  0.87087266  0.49904231  1
  Fe  Fe3  1  0.75010158  0.12900616  0.50114021  1
  I  I0  1  0.92486412  0.53700258  0.75181738  1
  I  I1  1  0.07509341  0.46308085  0.24818585  1
  I  I2  1  0.07514811  0.96269577  0.25142758  1
  I  I3  1  0.42490367  0.46306705  0.24820744  1
  I  I4  1  0.92490037  0.03716498  0.74854389  1
  I  I5  1  0.57511445  0.53697924  0.75175477  1
  I  I6  1  0.57510594  0.03714993  0.74853301  1
  I  I7  1  0.42488970  0.96270725  0.25141470  1
  I  I8  1  0.91664506  0.87443605  0.49892203  1
  I  I9  1  0.08340921  0.12538262  0.50104855  1
  I  I10  1  0.08325261  0.62536021  0.99909496  1
  I  I11  1  0.41663208  0.12539404  0.50103367  1
  I  I12  1  0.91667654  0.37474977  0.00097197  1
  I  I13  1  0.58335580  0.87444537  0.49892136  1
  I  I14  1  0.58330114  0.37472615  0.00099199  1
  I  I15  1  0.41667846  0.62536686  0.99908760  1
  I  I16  1  0.74999977  0.96299931  0.23565626  1
  I  I17  1  0.24999727  0.03688655  0.76431486  1
  I  I18  1  0.25000533  0.53703536  0.73582492  1
  I  I19  1  0.74997789  0.46305865  0.26411771  1
  I  I20  1  0.75000480  0.78247645  0.72480899  1
  I  I21  1  0.24997296  0.21750646  0.27511439  1
  I  I22  1  0.25000546  0.71707354  0.22449675  1
  I  I23  1  0.75000534  0.28289272  0.77547517  1
  I  I24  1  0.40908781  0.78721010  0.76368465  1
  I  I25  1  0.59093394  0.21272309  0.23623546  1
  I  I26  1  0.59082765  0.71242681  0.26353717  1
  I  I27  1  0.90911957  0.21278414  0.23623200  1
  I  I28  1  0.40920218  0.28760243  0.73651912  1
  I  I29  1  0.09090479  0.78719738  0.76370788  1
  I  I30  1  0.09082367  0.28761965  0.73650024  1
  I  I31  1  0.90918317  0.71241863  0.26352052  1
  I  I32  1  0.91784980  0.87724790  0.99952943  1
  I  I33  1  0.08218260  0.12277666  0.00049282  1
  I  I34  1  0.08206976  0.62240454  0.49948737  1
  I  I35  1  0.41784563  0.12277100  0.00050521  1
  I  I36  1  0.91789691  0.37763193  0.50050706  1
  I  I37  1  0.58214652  0.87727481  0.99954359  1
  I  I38  1  0.58215476  0.37759943  0.50051181  1
  I  I39  1  0.41790987  0.62239211  0.49947519  1
loop_
_geom_bond_atom_site_label_1
_geom_bond_atom_site_label_2
_geom_bond_distance
_geom_bond_site_symmetry_2
Cs0 I36 3.994496 1_555
Cs0 I38 3.994966 1_555
Cs0 I19 4.057099 1_555
Cs0 I5 4.294182 1_555
Cs0 I0 4.294254 1_555
Cs0 I20 4.389463 1_555
Cs1 I39 3.993763 1_555
Cs1 I34 3.994070 1_555
Cs1 I18 4.057333 1_555
Cs1 I3 4.293352 1_555
Cs1 I1 4.293691 1_555
Cs1 I21 4.390843 1_555
Cs2 I33 3.999530 1_565
Cs2 I35 3.999840 1_565
Cs2 I17 4.052893 1_564
Cs2 I2 4.290176 1_555
Cs2 I7 4.290557 1_555
Cs2 I22 4.391208 1_555
Cs3 I37 3.997856 1_545
Cs3 I32 3.998347 1_545
Cs3 I16 4.053506 1_546
Cs3 I6 4.290265 1_555
Cs3 I4 4.290290 1_555
Cs3 I23 4.391598 1_555
Fe0 La3 2.607283 1_555
Fe0 La4 2.656179 1_556
Fe0 La21 2.871542 1_555
Fe0 La16 2.873946 1_555
Fe0 La10 2.882305 1_556
Fe0 La15 2.883842 1_556
Fe1 La2 2.601525 1_555
Fe1 La5 2.658931 1_554
Fe1 La17 2.870261 1_555
Fe1 La19 2.872101 1_555
Fe1 La14 2.879637 1_554
Fe1 La12 2.881678 1_554
Fe2 La1 2.605837 1_565
Fe2 La6 2.658006 1_555
Fe2 La23 2.872957 1_555
Fe2 La18 2.873402 1_555
Fe2 La8 2.882024 1_555
Fe2 La13 2.883298 1_555
Fe3 La0 2.606585 1_545
Fe3 La7 2.663139 1_555
Fe3 La20 2.873834 1_555
Fe3 La22 2.874820 1_555
Fe3 La11 2.885421 1_555
Fe3 La9 2.886932 1_555
I0 La16 3.275578 1_555
I0 La3 3.288401 1_555
I0 La14 3.502105 1_655
I1 La17 3.274697 1_555
I1 La2 3.288231 1_555
I1 La15 3.500323 1_455
I2 La18 3.276527 1_555
I2 La1 3.290166 1_565
I2 La11 3.505515 1_465
I3 La19 3.275201 1_555
I3 La2 3.289083 1_555
I3 La10 3.499157 1_555
I4 La20 3.276690 1_555
I4 La0 3.289091 1_545
I4 La13 3.506838 1_645
I5 La21 3.275314 1_555
I5 La3 3.287880 1_555
I5 La12 3.501900 1_555
I6 La22 3.276589 1_555
I6 La0 3.289774 1_545
I6 La8 3.506769 1_545
I7 La23 3.276971 1_555
I7 La1 3.289792 1_565
I7 La9 3.505710 1_565
I8 La11 3.351965 1_565
I8 La13 3.365099 1_655
I8 La0 3.370465 1_555
I8 La18 3.399753 1_655
I9 La13 3.351419 1_545
I9 La11 3.364641 1_455
I9 La1 3.370513 1_555
I9 La20 3.400165 1_455
I10 La14 3.347205 1_555
I10 La15 3.362244 1_456
I10 La2 3.365975 1_556
I10 La16 3.396967 1_455
I11 La8 3.351157 1_545
I11 La9 3.364873 1_555
I11 La1 3.370195 1_555
I11 La22 3.400093 1_555
I12 La15 3.347373 1_555
I12 La14 3.363454 1_654
I12 La3 3.365961 1_554
I12 La17 3.396587 1_655
I13 La9 3.351472 1_565
I13 La8 3.364763 1_555
I13 La0 3.371282 1_555
I13 La23 3.399285 1_555
I14 La10 3.346751 1_555
I14 La12 3.363700 1_554
I14 La3 3.365308 1_554
I14 La19 3.397326 1_555
I15 La12 3.346901 1_555
I15 La10 3.362365 1_556
I15 La2 3.365949 1_556
I15 La21 3.396657 1_555
I16 La9 3.266084 1_565
I16 La11 3.266792 1_565
I16 La4 3.611359 1_555
I17 La13 3.266552 1_545
I17 La8 3.266824 1_545
I17 La5 3.615406 1_555
I18 La12 3.264048 1_555
I18 La14 3.264393 1_555
I18 La6 3.608149 1_555
I19 La15 3.263658 1_555
I19 La10 3.263697 1_555
I19 La7 3.607774 1_555
I20 La16 3.282167 1_555
I20 La21 3.282948 1_555
I20 La0 3.741444 1_555
I21 La19 3.282160 1_555
I21 La17 3.282975 1_555
I21 La1 3.745665 1_555
I22 La18 3.284113 1_555
I22 La23 3.284437 1_555
I22 La2 3.735180 1_555
I23 La20 3.284165 1_555
I23 La22 3.284192 1_555
I23 La3 3.735206 1_555
I24 La8 3.230235 1_555
I24 La6 3.339719 1_555
I24 La21 3.527883 1_555
I25 La9 3.231101 1_555
I25 La7 3.340978 1_555
I25 La19 3.530860 1_555
I26 La10 3.227899 1_555
I26 La4 3.338601 1_555
I26 La23 3.528548 1_555
I27 La11 3.231429 1_555
I27 La7 3.340084 1_555
I27 La17 3.529714 1_655
I28 La12 3.229190 1_555
I28 La5 3.339199 1_555
I28 La22 3.527773 1_555
I29 La13 3.230017 1_555
I29 La6 3.340331 1_555
I29 La16 3.528078 1_455
I30 La14 3.228963 1_555
I30 La5 3.338560 1_555
I30 La20 3.527058 1_455
I31 La15 3.227164 1_555
I31 La4 3.339023 1_555
I31 La18 3.529524 1_655
I32 La16 3.215927 1_555
I32 La4 3.281302 1_556
I33 La17 3.217772 1_555
I33 La5 3.280907 1_554
I34 La18 3.218090 1_555
I34 La6 3.282736 1_555
I35 La19 3.217455 1_555
I35 La5 3.282083 1_554
I36 La20 3.219246 1_555
I36 La7 3.281494 1_555
I37 La21 3.217311 1_555
I37 La4 3.281041 1_556
I38 La22 3.219131 1_555
I38 La7 3.281929 1_555
I39 La23 3.217764 1_555
I39 La6 3.282249 1_555
