# generated using pymatgen
data_Er6Mn4Al43
_symmetry_space_group_name_H-M   'P 1'
_cell_length_a   10.91422019
_cell_length_b   10.91422019
_cell_length_c   17.64576700
_cell_angle_alpha   90.00000000
_cell_angle_beta   90.00000000
_cell_angle_gamma   120.00000114
_symmetry_Int_Tables_number   1
_chemical_formula_structural   Er6Mn4Al43
_chemical_formula_sum   'Er12 Mn8 Al86'
_cell_volume   1820.35708921
_cell_formula_units_Z   2
loop_
 _symmetry_equiv_pos_site_id
 _symmetry_equiv_pos_as_xyz
  1  'x, y, z'
loop_
 _atom_site_type_symbol
 _atom_site_label
 _atom_site_symmetry_multiplicity
 _atom_site_fract_x
 _atom_site_fract_y
 _atom_site_fract_z
 _atom_site_occupancy
  Er  Er0  1  0.53168100  0.00000000  0.59507400  1
  Er  Er1  1  0.46831900  0.00000000  0.40492600  1
  Er  Er2  1  0.00000000  0.53168100  0.59507400  1
  Er  Er3  1  0.46831900  0.00000000  0.09507400  1
  Er  Er4  1  0.00000000  0.53168100  0.90492600  1
  Er  Er5  1  0.00000000  0.46831900  0.40492600  1
  Er  Er6  1  0.53168100  0.00000000  0.90492600  1
  Er  Er7  1  0.00000000  0.46831900  0.09507400  1
  Er  Er8  1  0.46831900  0.46831900  0.59507400  1
  Er  Er9  1  0.53168100  0.53168100  0.40492600  1
  Er  Er10  1  0.53168100  0.53168100  0.09507400  1
  Er  Er11  1  0.46831900  0.46831900  0.90492600  1
  Mn  Mn0  1  0.00000000  0.00000000  0.50000000  1
  Mn  Mn1  1  0.00000000  0.00000000  0.00000000  1
  Mn  Mn2  1  0.73225600  0.00000000  0.75000000  1
  Mn  Mn3  1  0.26774400  0.00000000  0.25000000  1
  Mn  Mn4  1  0.00000000  0.73225600  0.75000000  1
  Mn  Mn5  1  0.00000000  0.26774400  0.25000000  1
  Mn  Mn6  1  0.26774400  0.26774400  0.75000000  1
  Mn  Mn7  1  0.73225600  0.73225600  0.25000000  1
  Al  Al0  1  0.14519100  0.59753400  0.75000000  1
  Al  Al1  1  0.85480900  0.40246600  0.25000000  1
  Al  Al2  1  0.40246600  0.54765700  0.75000000  1
  Al  Al3  1  0.59753400  0.14519100  0.75000000  1
  Al  Al4  1  0.59753400  0.45234300  0.25000000  1
  Al  Al5  1  0.40246600  0.85480900  0.25000000  1
  Al  Al6  1  0.45234300  0.85480900  0.75000000  1
  Al  Al7  1  0.54765700  0.40246600  0.75000000  1
  Al  Al8  1  0.54765700  0.14519100  0.25000000  1
  Al  Al9  1  0.45234300  0.59753400  0.25000000  1
  Al  Al10  1  0.85480900  0.45234300  0.75000000  1
  Al  Al11  1  0.14519100  0.54765700  0.25000000  1
  Al  Al12  1  0.15480200  0.00000000  0.11601500  1
  Al  Al13  1  0.84519800  0.00000000  0.88398500  1
  Al  Al14  1  0.00000000  0.15480200  0.11601500  1
  Al  Al15  1  0.84519800  0.00000000  0.61601500  1
  Al  Al16  1  0.00000000  0.15480200  0.38398500  1
  Al  Al17  1  0.00000000  0.84519800  0.88398500  1
  Al  Al18  1  0.15480200  0.00000000  0.38398500  1
  Al  Al19  1  0.00000000  0.84519800  0.61601500  1
  Al  Al20  1  0.84519800  0.84519800  0.11601500  1
  Al  Al21  1  0.15480200  0.15480200  0.88398500  1
  Al  Al22  1  0.15480200  0.15480200  0.61601500  1
  Al  Al23  1  0.84519800  0.84519800  0.38398500  1
  Al  Al24  1  0.24615900  0.49231900  0.50000000  1
  Al  Al25  1  0.75384100  0.50768100  0.50000000  1
  Al  Al26  1  0.50768100  0.75384100  0.50000000  1
  Al  Al27  1  0.75384100  0.50768100  0.00000000  1
  Al  Al28  1  0.49231900  0.24615900  0.00000000  1
  Al  Al29  1  0.49231900  0.24615900  0.50000000  1
  Al  Al30  1  0.24615900  0.49231900  0.00000000  1
  Al  Al31  1  0.50768100  0.75384100  0.00000000  1
  Al  Al32  1  0.24615900  0.75384100  0.50000000  1
  Al  Al33  1  0.75384100  0.24615900  0.50000000  1
  Al  Al34  1  0.75384100  0.24615900  0.00000000  1
  Al  Al35  1  0.24615900  0.75384100  0.00000000  1
  Al  Al36  1  0.14456800  0.00000000  0.75000000  1
  Al  Al37  1  0.85543200  0.00000000  0.25000000  1
  Al  Al38  1  0.00000000  0.14456800  0.75000000  1
  Al  Al39  1  0.00000000  0.85543200  0.25000000  1
  Al  Al40  1  0.85543200  0.85543200  0.75000000  1
  Al  Al41  1  0.14456800  0.14456800  0.25000000  1
  Al  Al42  1  0.33333300  0.66666700  0.62743300  1
  Al  Al43  1  0.66666700  0.33333300  0.37256700  1
  Al  Al44  1  0.66666700  0.33333300  0.12743300  1
  Al  Al45  1  0.66666700  0.33333300  0.87256700  1
  Al  Al46  1  0.33333300  0.66666700  0.87256700  1
  Al  Al47  1  0.33333300  0.66666700  0.12743300  1
  Al  Al48  1  0.33333300  0.66666700  0.37256700  1
  Al  Al49  1  0.66666700  0.33333300  0.62743300  1
  Al  Al50  1  0.25102500  0.00000000  0.53071100  1
  Al  Al51  1  0.74897500  0.00000000  0.46928900  1
  Al  Al52  1  0.00000000  0.25102500  0.53071100  1
  Al  Al53  1  0.74897500  0.00000000  0.03071100  1
  Al  Al54  1  0.00000000  0.25102500  0.96928900  1
  Al  Al55  1  0.00000000  0.74897500  0.46928900  1
  Al  Al56  1  0.25102500  0.00000000  0.96928900  1
  Al  Al57  1  0.00000000  0.74897500  0.03071100  1
  Al  Al58  1  0.74897500  0.74897500  0.53071100  1
  Al  Al59  1  0.25102500  0.25102500  0.46928900  1
  Al  Al60  1  0.25102500  0.25102500  0.03071100  1
  Al  Al61  1  0.74897500  0.74897500  0.96928900  1
  Al  Al62  1  0.15775400  0.39100500  0.66562300  1
  Al  Al63  1  0.84224600  0.60899500  0.33437700  1
  Al  Al64  1  0.60899500  0.76674800  0.66562300  1
  Al  Al65  1  0.84224600  0.60899500  0.16562300  1
  Al  Al66  1  0.39100500  0.15775400  0.83437700  1
  Al  Al67  1  0.39100500  0.23325200  0.33437700  1
  Al  Al68  1  0.15775400  0.39100500  0.83437700  1
  Al  Al69  1  0.60899500  0.84224600  0.16562300  1
  Al  Al70  1  0.23325200  0.84224600  0.66562300  1
  Al  Al71  1  0.39100500  0.23325200  0.16562300  1
  Al  Al72  1  0.76674800  0.60899500  0.83437700  1
  Al  Al73  1  0.76674800  0.15775400  0.33437700  1
  Al  Al74  1  0.60899500  0.76674800  0.83437700  1
  Al  Al75  1  0.23325200  0.39100500  0.16562300  1
  Al  Al76  1  0.60899500  0.84224600  0.33437700  1
  Al  Al77  1  0.39100500  0.15775400  0.66562300  1
  Al  Al78  1  0.76674800  0.15775400  0.16562300  1
  Al  Al79  1  0.23325200  0.39100500  0.33437700  1
  Al  Al80  1  0.23325200  0.84224600  0.83437700  1
  Al  Al81  1  0.76674800  0.60899500  0.66562300  1
  Al  Al82  1  0.84224600  0.23325200  0.83437700  1
  Al  Al83  1  0.15775400  0.76674800  0.16562300  1
  Al  Al84  1  0.15775400  0.76674800  0.33437700  1
  Al  Al85  1  0.84224600  0.23325200  0.66562300  1
loop_
_geom_bond_atom_site_label_1
_geom_bond_atom_site_label_2
_geom_bond_distance
_geom_bond_site_symmetry_2
Er0 Er1 3.425832 1_555
Er0 Mn2 3.502262 1_555
Er1 Mn3 3.502262 1_555
Er2 Er5 3.425832 1_555
Er2 Mn4 3.502262 1_555
Er3 Er6 3.425832 1_554
Er3 Mn3 3.502262 1_555
Er4 Er7 3.425832 1_556
Er4 Mn4 3.502262 1_555
Er5 Mn5 3.502262 1_555
Er6 Mn2 3.502262 1_555
Er7 Mn5 3.502262 1_555
Er8 Er9 3.425832 1_555
Er8 Mn6 3.502262 1_555
Er9 Mn7 3.502262 1_555
Er10 Er11 3.425832 1_554
Er10 Mn7 3.502262 1_555
Er11 Mn6 3.502262 1_555
Al0 Mn4 2.646352 1_555
Al0 Al10 2.744688 1_455
Al0 Al68 2.761461 1_555
Al0 Al62 2.761461 1_555
Al0 Al80 2.776141 1_555
Al0 Al70 2.776141 1_555
Al0 Al42 2.813209 1_555
Al0 Al46 2.813209 1_555
Al0 Er2 3.059794 1_555
Al0 Er4 3.059794 1_555
Al1 Mn5 2.646352 1_655
Al1 Al11 2.744688 1_655
Al1 Al63 2.761461 1_555
Al1 Al65 2.761461 1_555
Al1 Al73 2.776141 1_555
Al1 Al78 2.776141 1_555
Al1 Al43 2.813209 1_555
Al1 Al44 2.813209 1_555
Al1 Er5 3.059794 1_655
Al1 Er7 3.059794 1_655
Al2 Mn6 2.646352 1_555
Al2 Al7 2.744688 1_555
Al2 Al74 2.761456 1_555
Al2 Al64 2.761456 1_555
Al2 Al68 2.776142 1_555
Al2 Al62 2.776142 1_555
Al2 Al42 2.813216 1_555
Al2 Al46 2.813216 1_555
Al2 Er8 3.059794 1_555
Al2 Er11 3.059794 1_555
Al3 Mn2 2.646352 1_555
Al3 Al6 2.744688 1_545
Al3 Al66 2.761461 1_555
Al3 Al77 2.761461 1_555
Al3 Al82 2.776141 1_555
Al3 Al85 2.776141 1_555
Al3 Al49 2.813209 1_555
Al3 Al45 2.813209 1_555
Al3 Er6 3.059794 1_555
Al3 Er0 3.059794 1_555
Al4 Mn7 2.646352 1_555
Al4 Al9 2.744688 1_555
Al4 Al71 2.761456 1_555
Al4 Al67 2.761456 1_555
Al4 Al63 2.776142 1_555
Al4 Al65 2.776142 1_555
Al4 Al43 2.813216 1_555
Al4 Al44 2.813216 1_555
Al4 Er9 3.059794 1_555
Al4 Er10 3.059794 1_555
Al5 Mn3 2.646352 1_565
Al5 Al8 2.744688 1_565
Al5 Al76 2.761461 1_555
Al5 Al69 2.761461 1_555
Al5 Al83 2.776141 1_555
Al5 Al84 2.776141 1_555
Al5 Er1 3.059794 1_565
Al5 Er3 3.059794 1_565
Al6 Mn2 2.646352 1_565
Al6 Al80 2.761452 1_555
Al6 Al70 2.761452 1_555
Al6 Al74 2.776150 1_555
Al6 Al64 2.776150 1_555
Al6 Er6 3.059794 1_565
Al6 Er0 3.059794 1_565
Al7 Mn6 2.646352 1_555
Al7 Al72 2.761456 1_555
Al7 Al81 2.761456 1_555
Al7 Al77 2.776142 1_555
Al7 Er8 3.059794 1_555
Al7 Er11 3.059794 1_555
Al8 Mn3 2.646352 1_555
Al8 Er1 3.059794 1_555
Al8 Er3 3.059794 1_555
Al9 Mn7 2.646352 1_555
Al9 Er9 3.059794 1_555
Al9 Er10 3.059794 1_555
Al10 Mn4 2.646352 1_655
Al10 Al82 2.761452 1_555
Al10 Al85 2.761452 1_555
Al10 Al72 2.776150 1_555
Al10 Al81 2.776150 1_555
Al10 Al49 2.813210 1_555
Al10 Al45 2.813210 1_555
Al10 Er2 3.059794 1_655
Al10 Er4 3.059794 1_655
Al11 Mn5 2.646352 1_555
Al11 Al84 2.761452 1_555
Al11 Al83 2.761452 1_555
Al11 Al79 2.776150 1_555
Al11 Al75 2.776150 1_555
Al11 Al48 2.813210 1_555
Al11 Al47 2.813210 1_555
Al11 Er5 3.059794 1_555
Al11 Er7 3.059794 1_555
Al12 Mn1 2.654332 1_555
Al12 Mn3 2.666317 1_555
Al12 Al71 2.707438 1_555
Al12 Al83 2.707443 1_545
Al12 Al56 2.793979 1_554
Al12 Al57 2.828007 1_545
Al12 Al60 2.828007 1_555
Al12 Al39 2.875427 1_545
Al12 Al41 2.875427 1_555
Al12 Al20 2.926374 1_445
Al12 Al14 2.926375 1_555
Al12 Er3 3.441688 1_555
Al13 Mn1 2.654332 1_656
Al13 Mn2 2.666317 1_555
Al13 Al74 2.707438 1_545
Al13 Al82 2.707443 1_555
Al13 Al53 2.793979 1_556
Al13 Al54 2.828007 1_655
Al13 Al61 2.828007 1_545
Al13 Al38 2.875427 1_655
Al13 Al40 2.875427 1_545
Al13 Al21 2.926374 1_655
Al13 Al17 2.926375 1_645
Al13 Er6 3.441688 1_555
Al14 Mn1 2.654332 1_555
Al14 Mn5 2.666317 1_555
Al14 Al75 2.707438 1_555
Al14 Al78 2.707443 1_455
Al14 Al54 2.793979 1_554
Al14 Al53 2.828007 1_455
Al14 Al60 2.828007 1_555
Al14 Al37 2.875427 1_455
Al14 Al41 2.875427 1_555
Al14 Al20 2.926374 1_445
Al14 Er7 3.441688 1_555
Al15 Mn0 2.654332 1_655
Al15 Mn2 2.666317 1_555
Al15 Al64 2.707438 1_545
Al15 Al85 2.707443 1_555
Al15 Al51 2.793979 1_555
Al15 Al52 2.828007 1_655
Al15 Al58 2.828007 1_545
Al15 Al38 2.875427 1_655
Al15 Al40 2.875427 1_545
Al15 Al22 2.926374 1_655
Al15 Al19 2.926375 1_645
Al15 Er0 3.441688 1_555
Al16 Mn0 2.654332 1_555
Al16 Mn5 2.666317 1_555
Al16 Al79 2.707438 1_555
Al16 Al73 2.707443 1_455
Al16 Al52 2.793979 1_555
Al16 Al51 2.828007 1_455
Al16 Al59 2.828007 1_555
Al16 Al37 2.875427 1_455
Al16 Al41 2.875427 1_555
Al16 Al23 2.926374 1_445
Al16 Al18 2.926375 1_555
Al16 Er5 3.441688 1_555
Al17 Mn1 2.654332 1_566
Al17 Mn4 2.666317 1_555
Al17 Al72 2.707438 1_455
Al17 Al80 2.707443 1_555
Al17 Al57 2.793979 1_556
Al17 Al56 2.828007 1_565
Al17 Al61 2.828007 1_455
Al17 Al36 2.875427 1_565
Al17 Al40 2.875427 1_455
Al17 Al21 2.926374 1_565
Al17 Er4 3.441688 1_555
Al18 Mn0 2.654332 1_555
Al18 Mn3 2.666317 1_555
Al18 Al67 2.707438 1_555
Al18 Al84 2.707443 1_545
Al18 Al50 2.793979 1_555
Al18 Al55 2.828007 1_545
Al18 Al59 2.828007 1_555
Al18 Al39 2.875427 1_545
Al18 Al41 2.875427 1_555
Al18 Al23 2.926374 1_445
Al18 Er1 3.441688 1_555
Al19 Mn0 2.654332 1_565
Al19 Mn4 2.666317 1_555
Al19 Al81 2.707438 1_455
Al19 Al70 2.707443 1_555
Al19 Al55 2.793979 1_555
Al19 Al50 2.828007 1_565
Al19 Al58 2.828007 1_455
Al19 Al36 2.875427 1_565
Al19 Al40 2.875427 1_455
Al19 Al22 2.926374 1_565
Al19 Er2 3.441688 1_555
Al20 Mn1 2.654332 1_665
Al20 Mn7 2.666317 1_555
Al20 Al69 2.707433 1_555
Al20 Al65 2.707433 1_555
Al20 Al61 2.793979 1_554
Al20 Al57 2.828007 1_655
Al20 Al53 2.828007 1_565
Al20 Al39 2.875427 1_655
Al20 Al37 2.875427 1_565
Al20 Er10 3.441688 1_555
Al21 Mn1 2.654332 1_556
Al21 Mn6 2.666317 1_555
Al21 Al68 2.707433 1_555
Al21 Al66 2.707433 1_555
Al21 Al60 2.793979 1_556
Al21 Al56 2.828007 1_555
Al21 Al54 2.828007 1_555
Al21 Al36 2.875427 1_555
Al21 Al38 2.875427 1_555
Al21 Er11 3.441688 1_555
Al22 Mn0 2.654332 1_555
Al22 Mn6 2.666317 1_555
Al22 Al77 2.707433 1_555
Al22 Al62 2.707433 1_555
Al22 Al59 2.793979 1_555
Al22 Al52 2.828007 1_555
Al22 Al50 2.828007 1_555
Al22 Al36 2.875427 1_555
Al22 Al38 2.875427 1_555
Al22 Er8 3.441688 1_555
Al23 Mn0 2.654332 1_665
Al23 Mn7 2.666317 1_555
Al23 Al63 2.707433 1_555
Al23 Al76 2.707433 1_555
Al23 Al58 2.793979 1_555
Al23 Al51 2.828007 1_565
Al23 Al55 2.828007 1_655
Al23 Al39 2.875427 1_655
Al23 Al37 2.875427 1_565
Al23 Er9 3.441688 1_555
Al24 Al52 2.715113 1_555
Al24 Al59 2.715119 1_555
Al24 Al42 2.787855 1_555
Al24 Al48 2.787855 1_555
Al24 Al26 2.854309 1_555
Al24 Al32 2.854309 1_555
Al24 Er5 3.065517 1_555
Al24 Er8 3.065526 1_555
Al24 Al62 3.102908 1_555
Al24 Al79 3.102911 1_555
Al24 Er2 3.372132 1_555
Al24 Er9 3.372142 1_555
Al25 Al55 2.715113 1_655
Al25 Al58 2.715119 1_555
Al25 Al43 2.787855 1_555
Al25 Al49 2.787855 1_555
Al25 Al29 2.854309 1_555
Al25 Al33 2.854309 1_555
Al25 Er2 3.065517 1_655
Al25 Er9 3.065526 1_555
Al25 Al63 3.102908 1_555
Al25 Al81 3.102911 1_555
Al25 Er5 3.372132 1_655
Al25 Er8 3.372142 1_555
Al26 Al51 2.715113 1_565
Al26 Al58 2.715119 1_555
Al26 Al42 2.787855 1_555
Al26 Al48 2.787855 1_555
Al26 Al32 2.854309 1_555
Al26 Er0 3.065517 1_565
Al26 Er9 3.065526 1_555
Al26 Al76 3.102908 1_555
Al26 Al64 3.102911 1_555
Al26 Er1 3.372132 1_565
Al26 Er8 3.372142 1_555
Al27 Al57 2.715113 1_655
Al27 Al61 2.715119 1_554
Al27 Al44 2.787855 1_555
Al27 Al45 2.787855 1_554
Al27 Al28 2.854309 1_555
Al27 Al34 2.854309 1_555
Al27 Er4 3.065517 1_654
Al27 Er10 3.065526 1_555
Al27 Al65 3.102908 1_555
Al27 Al72 3.102911 1_554
Al27 Er7 3.372132 1_655
Al27 Er11 3.372142 1_554
Al28 Al56 2.715113 1_554
Al28 Al60 2.715119 1_555
Al28 Al44 2.787855 1_555
Al28 Al45 2.787855 1_554
Al28 Al34 2.854309 1_555
Al28 Er3 3.065517 1_555
Al28 Er11 3.065526 1_554
Al28 Al66 3.102908 1_554
Al28 Al71 3.102911 1_555
Al28 Er6 3.372132 1_554
Al28 Er10 3.372142 1_555
Al29 Al50 2.715113 1_555
Al29 Al59 2.715119 1_555
Al29 Al43 2.787855 1_555
Al29 Al49 2.787855 1_555
Al29 Al33 2.854309 1_555
Al29 Er1 3.065517 1_555
Al29 Er8 3.065526 1_555
Al29 Al77 3.102908 1_555
Al29 Al67 3.102911 1_555
Al29 Er0 3.372132 1_555
Al29 Er9 3.372142 1_555
Al30 Al54 2.715113 1_554
Al30 Al60 2.715119 1_555
Al30 Al47 2.787855 1_555
Al30 Al46 2.787855 1_554
Al30 Al31 2.854309 1_555
Al30 Al35 2.854309 1_555
Al30 Er7 3.065517 1_555
Al30 Er11 3.065526 1_554
Al30 Al68 3.102908 1_554
Al30 Al75 3.102911 1_555
Al30 Er4 3.372132 1_554
Al30 Er10 3.372142 1_555
Al31 Al53 2.715113 1_565
Al31 Al61 2.715119 1_554
Al31 Al47 2.787855 1_555
Al31 Al46 2.787855 1_554
Al31 Al35 2.854309 1_555
Al31 Er6 3.065517 1_564
Al31 Er10 3.065526 1_555
Al31 Al69 3.102908 1_555
Al31 Al74 3.102911 1_554
Al31 Er3 3.372132 1_565
Al31 Er11 3.372142 1_554
Al32 Al50 2.715108 1_565
Al32 Al55 2.715108 1_555
Al32 Al48 2.787855 1_555
Al32 Al42 2.787855 1_555
Al32 Er1 3.065521 1_565
Al32 Er2 3.065521 1_555
Al32 Al70 3.102904 1_555
Al32 Al84 3.102904 1_555
Al32 Er0 3.372138 1_565
Al32 Er5 3.372138 1_555
Al33 Al52 2.715108 1_655
Al33 Al51 2.715108 1_555
Al33 Al43 2.787855 1_555
Al33 Al49 2.787855 1_555
Al33 Er0 3.065521 1_555
Al33 Er5 3.065521 1_655
Al33 Al85 3.102904 1_555
Al33 Al73 3.102904 1_555
Al33 Er1 3.372138 1_555
Al33 Er2 3.372138 1_655
Al34 Al53 2.715108 1_555
Al34 Al54 2.715108 1_654
Al34 Al44 2.787855 1_555
Al34 Al45 2.787855 1_554
Al34 Er7 3.065521 1_655
Al34 Er6 3.065521 1_554
Al34 Al78 3.102904 1_555
Al34 Al82 3.102904 1_554
Al34 Er3 3.372138 1_555
Al34 Er4 3.372138 1_654
Al35 Al57 2.715108 1_555
Al35 Al56 2.715108 1_564
Al35 Al46 2.787855 1_554
Al35 Al47 2.787855 1_555
Al35 Er3 3.065521 1_565
Al35 Er4 3.065521 1_554
Al35 Al83 3.102904 1_555
Al35 Al80 3.102904 1_554
Al35 Er7 3.372138 1_555
Al35 Er6 3.372138 1_564
Al36 Mn4 2.533405 1_545
Al36 Mn6 2.533405 1_555
Al36 Al40 2.732911 1_445
Al36 Al38 2.732911 1_555
Al36 Al66 2.790094 1_555
Al36 Al77 2.790094 1_555
Al36 Al80 2.790101 1_545
Al36 Al70 2.790101 1_545
Al37 Mn5 2.533405 1_655
Al37 Mn7 2.533405 1_545
Al37 Al41 2.732911 1_655
Al37 Al39 2.732911 1_645
Al37 Al69 2.790094 1_545
Al37 Al76 2.790094 1_545
Al37 Al73 2.790101 1_555
Al37 Al78 2.790101 1_555
Al38 Mn2 2.533405 1_455
Al38 Mn6 2.533405 1_555
Al38 Al40 2.732911 1_445
Al38 Al68 2.790094 1_555
Al38 Al62 2.790094 1_555
Al38 Al82 2.790101 1_455
Al38 Al85 2.790101 1_455
Al39 Mn3 2.533405 1_565
Al39 Mn7 2.533405 1_455
Al39 Al41 2.732911 1_565
Al39 Al65 2.790094 1_455
Al39 Al63 2.790094 1_455
Al39 Al84 2.790101 1_555
Al39 Al83 2.790101 1_555
Al40 Mn4 2.533405 1_655
Al40 Mn2 2.533405 1_565
Al40 Al72 2.790092 1_555
Al40 Al74 2.790092 1_555
Al40 Al64 2.790092 1_555
Al40 Al81 2.790092 1_555
Al41 Mn3 2.533405 1_555
Al41 Mn5 2.533405 1_555
Al41 Al75 2.790092 1_555
Al41 Al79 2.790092 1_555
Al41 Al67 2.790092 1_555
Al41 Al71 2.790092 1_555
Al42 Al70 2.722626 1_555
Al42 Al62 2.722643 1_555
Al42 Al64 2.722646 1_555
Al42 Al6 2.813210 1_555
Al42 Er2 3.220599 1_555
Al42 Er0 3.220600 1_565
Al42 Er8 3.220609 1_555
Al43 Al73 2.722626 1_555
Al43 Al63 2.722643 1_555
Al43 Al67 2.722646 1_555
Al43 Al8 2.813210 1_555
Al43 Er5 3.220599 1_655
Al43 Er1 3.220600 1_555
Al43 Er9 3.220609 1_555
Al44 Al78 2.722626 1_555
Al44 Al65 2.722643 1_555
Al44 Al71 2.722646 1_555
Al44 Al8 2.813210 1_555
Al44 Er7 3.220599 1_655
Al44 Er3 3.220600 1_555
Al44 Er10 3.220609 1_555
Al45 Al82 2.722626 1_555
Al45 Al66 2.722643 1_555
Al45 Al72 2.722646 1_555
Al45 Al7 2.813216 1_555
Al45 Er6 3.220599 1_555
Al45 Er4 3.220600 1_655
Al45 Er11 3.220609 1_555
Al46 Al80 2.722626 1_555
Al46 Al68 2.722643 1_555
Al46 Al74 2.722646 1_555
Al46 Al6 2.813210 1_555
Al46 Er4 3.220599 1_555
Al46 Er6 3.220600 1_565
Al46 Er11 3.220609 1_555
Al47 Al83 2.722626 1_555
Al47 Al69 2.722643 1_555
Al47 Al75 2.722646 1_555
Al47 Al5 2.813209 1_555
Al47 Al9 2.813216 1_555
Al47 Er3 3.220599 1_565
Al47 Er7 3.220600 1_555
Al47 Er10 3.220609 1_555
Al48 Al84 2.722626 1_555
Al48 Al76 2.722643 1_555
Al48 Al79 2.722646 1_555
Al48 Al5 2.813209 1_555
Al48 Al9 2.813216 1_555
Al48 Er1 3.220599 1_565
Al48 Er5 3.220600 1_555
Al48 Er9 3.220609 1_555
Al49 Al85 2.722626 1_555
Al49 Al77 2.722643 1_555
Al49 Al81 2.722646 1_555
Al49 Al7 2.813216 1_555
Al49 Er0 3.220599 1_555
Al49 Er2 3.220600 1_655
Al49 Er8 3.220609 1_555
Al50 Mn0 2.792824 1_555
Al50 Al77 2.887122 1_555
Al50 Al70 2.887124 1_545
Al50 Al55 2.946335 1_545
Al50 Al59 2.946335 1_555
Al50 Er1 3.248225 1_555
Al50 Er0 3.266914 1_555
Al51 Mn0 2.792824 1_655
Al51 Al76 2.887122 1_545
Al51 Al73 2.887124 1_555
Al51 Al52 2.946335 1_655
Al51 Al58 2.946335 1_545
Al51 Er0 3.248225 1_555
Al51 Er1 3.266914 1_555
Al52 Mn0 2.792824 1_555
Al52 Al62 2.887122 1_555
Al52 Al85 2.887124 1_455
Al52 Al59 2.946335 1_555
Al52 Er5 3.248225 1_555
Al52 Er2 3.266914 1_555
Al53 Mn1 2.792824 1_655
Al53 Al69 2.887122 1_545
Al53 Al78 2.887124 1_555
Al53 Al54 2.946335 1_654
Al53 Al61 2.946335 1_544
Al53 Er6 3.248225 1_554
Al53 Er3 3.266914 1_555
Al54 Mn1 2.792824 1_556
Al54 Al68 2.887122 1_555
Al54 Al82 2.887124 1_455
Al54 Al60 2.946335 1_556
Al54 Er7 3.248225 1_556
Al54 Er4 3.266914 1_555
Al55 Mn0 2.792824 1_565
Al55 Al63 2.887122 1_455
Al55 Al84 2.887124 1_555
Al55 Al58 2.946335 1_455
Al55 Er2 3.248225 1_555
Al55 Er5 3.266914 1_555
Al56 Mn1 2.792824 1_556
Al56 Al66 2.887122 1_555
Al56 Al80 2.887124 1_545
Al56 Al57 2.946335 1_546
Al56 Al60 2.946335 1_556
Al56 Er3 3.248225 1_556
Al56 Er6 3.266914 1_555
Al57 Mn1 2.792824 1_565
Al57 Al65 2.887122 1_455
Al57 Al83 2.887124 1_555
Al57 Al61 2.946335 1_454
Al57 Er4 3.248225 1_554
Al57 Er7 3.266914 1_555
Al58 Mn0 2.792823 1_665
Al58 Al81 2.887118 1_555
Al58 Al64 2.887118 1_555
Al58 Er9 3.248225 1_555
Al58 Er8 3.266914 1_555
Al59 Mn0 2.792823 1_555
Al59 Al67 2.887118 1_555
Al59 Al79 2.887118 1_555
Al59 Er8 3.248225 1_555
Al59 Er9 3.266914 1_555
Al60 Mn1 2.792823 1_555
Al60 Al71 2.887118 1_555
Al60 Al75 2.887118 1_555
Al60 Er11 3.248225 1_554
Al60 Er10 3.266914 1_555
Al61 Mn1 2.792823 1_666
Al61 Al72 2.887118 1_555
Al61 Al74 2.887118 1_555
Al61 Er10 3.248225 1_556
Al61 Er11 3.266914 1_555
Al62 Mn6 2.661335 1_555
Al62 Al68 2.977794 1_555
Al62 Al85 2.982179 1_455
Al62 Er2 3.084658 1_555
Al62 Er8 3.300123 1_555
Al63 Mn7 2.661335 1_555
Al63 Al65 2.977794 1_555
Al63 Al84 2.982179 1_655
Al63 Er5 3.084658 1_655
Al63 Er9 3.300123 1_555
Al64 Mn2 2.661342 1_565
Al64 Al74 2.977794 1_555
Al64 Al81 2.982160 1_555
Al64 Er8 3.084649 1_555
Al64 Er0 3.300132 1_565
Al65 Mn7 2.661335 1_555
Al65 Al83 2.982179 1_655
Al65 Er7 3.084658 1_655
Al65 Er10 3.300123 1_555
Al66 Mn6 2.661335 1_555
Al66 Al7 2.776142 1_555
Al66 Al77 2.977794 1_555
Al66 Al80 2.982179 1_545
Al66 Er6 3.084658 1_555
Al66 Er11 3.300123 1_555
Al67 Mn3 2.661342 1_555
Al67 Al8 2.776150 1_555
Al67 Al71 2.977794 1_555
Al67 Al79 2.982160 1_555
Al67 Er9 3.084649 1_555
Al67 Er1 3.300132 1_555
Al68 Mn6 2.661335 1_555
Al68 Al82 2.982179 1_455
Al68 Er4 3.084658 1_555
Al68 Er11 3.300123 1_555
Al69 Mn7 2.661335 1_555
Al69 Al9 2.776142 1_555
Al69 Al76 2.977794 1_555
Al69 Al78 2.982179 1_565
Al69 Er3 3.084658 1_565
Al69 Er10 3.300123 1_555
Al70 Mn4 2.661343 1_555
Al70 Al80 2.977794 1_555
Al70 Al77 2.982179 1_565
Al70 Er0 3.084650 1_565
Al70 Er2 3.300125 1_555
Al71 Mn3 2.661342 1_555
Al71 Al8 2.776150 1_555
Al71 Al75 2.982160 1_555
Al71 Er10 3.084649 1_555
Al71 Er3 3.300132 1_555
Al72 Mn4 2.661342 1_655
Al72 Al81 2.977794 1_555
Al72 Al74 2.982160 1_555
Al72 Er11 3.084649 1_555
Al72 Er4 3.300132 1_655
Al73 Mn5 2.661343 1_655
Al73 Al8 2.761452 1_555
Al73 Al78 2.977794 1_555
Al73 Al76 2.982179 1_545
Al73 Er1 3.084650 1_555
Al73 Er5 3.300125 1_655
Al74 Mn2 2.661342 1_565
Al74 Er11 3.084649 1_555
Al74 Er6 3.300132 1_565
Al75 Mn5 2.661342 1_555
Al75 Al9 2.761456 1_555
Al75 Al79 2.977794 1_555
Al75 Er10 3.084649 1_555
Al75 Er7 3.300132 1_555
Al76 Mn7 2.661335 1_555
Al76 Al9 2.776142 1_555
Al76 Er1 3.084658 1_565
Al76 Er9 3.300123 1_555
Al77 Mn6 2.661335 1_555
Al77 Er0 3.084658 1_555
Al77 Er8 3.300123 1_555
Al78 Mn5 2.661343 1_655
Al78 Al8 2.761452 1_555
Al78 Er3 3.084650 1_555
Al78 Er7 3.300125 1_655
Al79 Mn5 2.661342 1_555
Al79 Al9 2.761456 1_555
Al79 Er9 3.084649 1_555
Al79 Er5 3.300132 1_555
Al80 Mn4 2.661343 1_555
Al80 Er6 3.084650 1_565
Al80 Er4 3.300125 1_555
Al81 Mn4 2.661342 1_655
Al81 Er8 3.084649 1_555
Al81 Er2 3.300132 1_655
Al82 Mn2 2.661343 1_555
Al82 Al85 2.977794 1_555
Al82 Er4 3.084650 1_655
Al82 Er6 3.300125 1_555
Al83 Mn3 2.661343 1_565
Al83 Al84 2.977794 1_555
Al83 Er7 3.084650 1_555
Al83 Er3 3.300125 1_565
Al84 Mn3 2.661343 1_565
Al84 Er5 3.084650 1_555
Al84 Er1 3.300125 1_565
Al85 Mn2 2.661343 1_555
Al85 Er2 3.084650 1_655
Al85 Er0 3.300125 1_555
