# generated using pymatgen
data_Sr2CoGe2O7
_symmetry_space_group_name_H-M   'P 1'
_cell_length_a   9.85866329
_cell_length_b   9.89652956
_cell_length_c   9.86337976
_cell_angle_alpha   72.44531218
_cell_angle_beta   66.46964215
_cell_angle_gamma   107.25833312
_symmetry_Int_Tables_number   1
_chemical_formula_structural   Sr2CoGe2O7
_chemical_formula_sum   'Sr8 Co4 Ge8 O28'
_cell_volume   739.29080122
_cell_formula_units_Z   4
loop_
 _symmetry_equiv_pos_site_id
 _symmetry_equiv_pos_as_xyz
  1  'x, y, z'
loop_
 _atom_site_type_symbol
 _atom_site_label
 _atom_site_symmetry_multiplicity
 _atom_site_fract_x
 _atom_site_fract_y
 _atom_site_fract_z
 _atom_site_occupancy
  Sr  Sr0  1  0.83752800  0.83174100  0.49755500  1
  Sr  Sr1  1  0.33710800  0.83272200  0.99909400  1
  Sr  Sr2  1  0.99407000  0.66378300  0.83715500  1
  Sr  Sr3  1  0.49577600  0.66457400  0.33727200  1
  Sr  Sr4  1  0.67131200  0.16845500  0.99335900  1
  Sr  Sr5  1  0.16876900  0.16753300  0.49513300  1
  Sr  Sr6  1  0.49788000  0.33561800  0.67040800  1
  Sr  Sr7  1  0.99843600  0.33641000  0.16930700  1
  Co  Co0  1  0.00107600  0.50065500  0.49828400  1
  Co  Co1  1  0.49985400  0.99978600  0.50042100  1
  Co  Co2  1  0.49970400  0.50009300  0.00023300  1
  Co  Co3  1  0.99889300  0.99985800  0.00101100  1
  Ge  Ge0  1  0.08639900  0.36114400  0.77156400  1
  Ge  Ge1  1  0.57993000  0.35615900  0.27495200  1
  Ge  Ge2  1  0.27933900  0.14759900  0.08222700  1
  Ge  Ge3  1  0.77425900  0.14215200  0.58291700  1
  Ge  Ge4  1  0.86639700  0.63976000  0.27435000  1
  Ge  Ge5  1  0.36837100  0.64324800  0.77682400  1
  Ge  Ge6  1  0.77086400  0.85224800  0.86846200  1
  Ge  Ge7  1  0.27519600  0.85774200  0.36823300  1
  O  O0  1  0.34307700  0.00044300  0.15702200  1
  O  O1  1  0.84355100  0.00015800  0.65774800  1
  O  O2  1  0.65553100  0.49547200  0.34533400  1
  O  O3  1  0.15886600  0.50321300  0.84079300  1
  O  O4  1  0.74555800  0.36214900  0.11217300  1
  O  O5  1  0.25148000  0.36518300  0.61051100  1
  O  O6  1  0.61278200  0.13733500  0.74848700  1
  O  O7  1  0.11913500  0.14406700  0.24775200  1
  O  O8  1  0.52552100  0.63732200  0.61756500  1
  O  O9  1  0.02421900  0.63602800  0.11378000  1
  O  O10  1  0.11414500  0.86253500  0.52456400  1
  O  O11  1  0.60889300  0.85624100  0.02469800  1
  O  O12  1  0.48290900  0.32126400  0.94304400  1
  O  O13  1  0.97300400  0.32016600  0.44568800  1
  O  O14  1  0.94831800  0.18239800  0.96880200  1
  O  O15  1  0.44124700  0.17655000  0.47218000  1
  O  O16  1  0.73568300  0.67879800  0.83795100  1
  O  O17  1  0.23459900  0.68014200  0.34668400  1
  O  O18  1  0.84451900  0.81693800  0.23457600  1
  O  O19  1  0.35092500  0.82299000  0.73562000  1
  O  O20  1  0.84814400  0.58227900  0.47259500  1
  O  O21  1  0.34071300  0.57869200  0.98041900  1
  O  O22  1  0.96471200  0.90680500  0.85709300  1
  O  O23  1  0.47386100  0.91632800  0.34861000  1
  O  O24  1  0.94611700  0.41989500  0.73254500  1
  O  O25  1  0.44116500  0.42085700  0.23754200  1
  O  O26  1  0.23489800  0.09134600  0.94439500  1
  O  O27  1  0.73526600  0.08312400  0.44307000  1
loop_
_geom_bond_atom_site_label_1
_geom_bond_atom_site_label_2
_geom_bond_distance
_geom_bond_site_symmetry_2
Co0 O20 1.973357 1_455
Co0 O24 1.975009 1_455
Co0 O17 1.978356 1_555
Co0 O13 1.979035 1_455
Co1 O15 1.976350 1_565
Co1 O19 1.976441 1_555
Co1 O23 1.979092 1_555
Co1 O27 1.980170 1_565
Co2 O25 1.993079 1_555
Co2 O21 1.994107 1_554
Co2 O16 1.994953 1_554
Co2 O12 1.995156 1_554
Co3 O14 1.981856 1_564
Co3 O18 1.987598 1_555
Co3 O26 1.988138 1_664
Co3 O22 1.990735 1_554
Ge0 O5 1.741413 1_555
Ge0 O14 1.774162 1_455
Ge0 O24 1.779322 1_455
Ge0 O3 1.823763 1_555
Ge1 O4 1.743391 1_555
Ge1 O15 1.778078 1_555
Ge1 O25 1.788276 1_555
Ge1 O2 1.821825 1_555
Ge2 O7 1.742158 1_555
Ge2 O26 1.771302 1_554
Ge2 O12 1.787849 1_554
Ge2 O0 1.823471 1_555
Ge3 O6 1.742321 1_555
Ge3 O27 1.779859 1_555
Ge3 O13 1.780615 1_555
Ge3 O1 1.825564 1_555
Ge4 O9 1.741359 1_655
Ge4 O18 1.775392 1_555
Ge4 O20 1.779536 1_555
Ge4 O2 1.823248 1_555
Ge5 O8 1.742848 1_555
Ge5 O19 1.777699 1_555
Ge5 O21 1.789029 1_555
Ge5 O3 1.821613 1_555
Ge6 O11 1.742263 1_556
Ge6 O22 1.770999 1_555
Ge6 O16 1.788606 1_555
Ge6 O1 1.824542 1_565
Ge7 O10 1.742062 1_555
Ge7 O23 1.779170 1_555
Ge7 O17 1.780583 1_555
Ge7 O0 1.825793 1_565
O0 Sr1 2.599991 1_544
O0 Sr4 2.619020 1_554
O1 Sr5 2.595394 1_655
O1 Sr0 2.623532 1_545
O2 Sr6 2.588635 1_555
O2 Sr3 2.621299 1_555
O3 Sr2 2.590383 1_455
O3 Sr7 2.618769 1_456
O4 Sr4 2.605981 1_554
O4 Sr2 2.782256 1_554
O4 Sr7 2.830141 1_555
O5 Sr5 2.631247 1_555
O5 Sr3 2.758421 1_555
O5 Sr6 2.792650 1_555
O6 Sr6 2.613593 1_555
O6 Sr4 2.778020 1_555
O6 Sr1 2.804217 1_545
O7 Sr7 2.613180 1_455
O7 Sr5 2.734002 1_555
O7 Sr0 2.860879 1_445
O8 Sr0 2.602293 1_555
O8 Sr6 2.779584 1_555
O8 Sr3 2.836622 1_555
O9 Sr1 2.628052 1_554
O9 Sr7 2.760224 1_455
O9 Sr2 2.802172 1_454
O10 Sr2 2.611932 1_455
O10 Sr0 2.781492 1_455
O10 Sr5 2.804864 1_565
O11 Sr3 2.611249 1_555
O11 Sr1 2.739168 1_554
O11 Sr4 2.857459 1_564
O12 Sr6 2.591043 1_555
O12 Sr4 2.816594 1_555
O13 Sr7 2.585737 1_555
O13 Sr5 2.877740 1_655
O14 Sr4 2.600702 1_555
O14 Sr7 2.937703 1_556
O15 Sr5 2.575896 1_555
O15 Sr6 2.969767 1_555
O16 Sr2 2.592388 1_555
O16 Sr0 2.812941 1_555
O17 Sr3 2.591408 1_555
O17 Sr1 2.874122 1_554
O18 Sr0 2.616639 1_555
O18 Sr3 2.888297 1_555
O19 Sr1 2.580197 1_555
O19 Sr2 2.967894 1_455
O20 Sr0 2.581852 1_555
O20 Sr6 2.904387 1_555
O21 Sr1 2.585072 1_555
O21 Sr7 2.844539 1_456
O22 Sr2 2.561197 1_555
O22 Sr5 3.013164 1_665
O23 Sr3 2.595168 1_555
O23 Sr4 2.947996 1_564
O24 Sr4 2.592887 1_555
O24 Sr2 2.885919 1_555
O25 Sr5 2.582050 1_555
O25 Sr3 2.856319 1_555
O26 Sr6 2.571912 1_555
O26 Sr1 2.998132 1_545
O27 Sr7 2.601957 1_555
O27 Sr0 2.934073 1_545
