# generated using pymatgen
data_NaAl3Si3(HO6)2
_symmetry_space_group_name_H-M   'P 1'
_cell_length_a   8.96481000
_cell_length_b   5.16854900
_cell_length_c   19.36970118
_cell_angle_alpha   85.76675365
_cell_angle_beta   90.00000000
_cell_angle_gamma   90.00000000
_symmetry_Int_Tables_number   1
_chemical_formula_structural   NaAl3Si3(HO6)2
_chemical_formula_sum   'Na4 Al12 Si12 H8 O48'
_cell_volume   895.04772348
_cell_formula_units_Z   4
loop_
 _symmetry_equiv_pos_site_id
 _symmetry_equiv_pos_as_xyz
  1  'x, y, z'
loop_
 _atom_site_type_symbol
 _atom_site_label
 _atom_site_symmetry_multiplicity
 _atom_site_fract_x
 _atom_site_fract_y
 _atom_site_fract_z
 _atom_site_occupancy
  Na  Na0  1  0.58352600  0.50000000  0.75000000  1
  Na  Na1  1  0.41647400  0.50000000  0.25000000  1
  Na  Na2  1  0.11048600  0.00000000  0.75000000  1
  Na  Na3  1  0.88951400  0.00000000  0.25000000  1
  Al  Al0  1  0.08578500  0.75114200  0.50130900  1
  Al  Al1  1  0.25957000  0.54737200  0.64259900  1
  Al  Al2  1  0.08578500  0.24885800  0.99869100  1
  Al  Al3  1  0.25957000  0.45262800  0.85740100  1
  Al  Al4  1  0.91421500  0.24885800  0.49869100  1
  Al  Al5  1  0.74043000  0.45262800  0.35740100  1
  Al  Al6  1  0.91421500  0.75114200  0.00130900  1
  Al  Al7  1  0.74043000  0.54737200  0.14259900  1
  Al  Al8  1  0.58441800  0.25303000  0.49917000  1
  Al  Al9  1  0.58441800  0.74697000  0.00083000  1
  Al  Al10  1  0.41558200  0.74697000  0.50083000  1
  Al  Al11  1  0.41558200  0.25303000  0.99917000  1
  Si  Si0  1  0.92856300  0.55358600  0.64206100  1
  Si  Si1  1  0.92856300  0.44641400  0.85793900  1
  Si  Si2  1  0.07143700  0.44641400  0.35793900  1
  Si  Si3  1  0.07143700  0.55358600  0.14206100  1
  Si  Si4  1  0.42949400  0.03039300  0.64261000  1
  Si  Si5  1  0.75583900  0.06294900  0.64109100  1
  Si  Si6  1  0.42949400  0.96960700  0.85739000  1
  Si  Si7  1  0.75583900  0.93705100  0.85890900  1
  Si  Si8  1  0.57050600  0.96960700  0.35739000  1
  Si  Si9  1  0.24416100  0.93705100  0.35890900  1
  Si  Si10  1  0.57050600  0.03039300  0.14261000  1
  Si  Si11  1  0.24416100  0.06294900  0.14109100  1
  H  H0  1  0.66000000  0.64606900  0.55585900  1
  H  H1  1  0.66000000  0.35393100  0.94414100  1
  H  H2  1  0.34000000  0.35393100  0.44414100  1
  H  H3  1  0.34000000  0.64606900  0.05585900  1
  H  H4  1  0.14759400  0.13271700  0.57021000  1
  H  H5  1  0.14759400  0.86728300  0.92979000  1
  H  H6  1  0.85240600  0.86728300  0.42979000  1
  H  H7  1  0.85240600  0.13271700  0.07021000  1
  O  O0  1  0.94190400  0.54388600  0.55745800  1
  O  O1  1  0.25052200  0.62335900  0.55273300  1
  O  O2  1  0.56747300  0.55221800  0.55077000  1
  O  O3  1  0.08436600  0.62845900  0.67732800  1
  O  O4  1  0.79785000  0.75887900  0.66505600  1
  O  O5  1  0.87459300  0.26138100  0.67481000  1
  O  O6  1  0.94190400  0.45611400  0.94254200  1
  O  O7  1  0.25052200  0.37664100  0.94726700  1
  O  O8  1  0.56747300  0.44778200  0.94923000  1
  O  O9  1  0.08436600  0.37154100  0.82267200  1
  O  O10  1  0.79785000  0.24112100  0.83494400  1
  O  O11  1  0.87459300  0.73861900  0.82519000  1
  O  O12  1  0.05809600  0.45611400  0.44254200  1
  O  O13  1  0.74947800  0.37664100  0.44726700  1
  O  O14  1  0.43252700  0.44778200  0.44923000  1
  O  O15  1  0.91563400  0.37154100  0.32267200  1
  O  O16  1  0.20215000  0.24112100  0.33494400  1
  O  O17  1  0.12540700  0.73861900  0.32519000  1
  O  O18  1  0.05809600  0.54388600  0.05745800  1
  O  O19  1  0.74947800  0.62335900  0.05273300  1
  O  O20  1  0.43252700  0.55221800  0.05077000  1
  O  O21  1  0.91563400  0.62845900  0.17732800  1
  O  O22  1  0.20215000  0.75887900  0.16505600  1
  O  O23  1  0.12540700  0.26138100  0.17481000  1
  O  O24  1  0.44764000  0.04023400  0.55739700  1
  O  O25  1  0.75143100  0.11058200  0.55709300  1
  O  O26  1  0.06016700  0.05191900  0.55139200  1
  O  O27  1  0.59194700  0.12652700  0.67421600  1
  O  O28  1  0.29435100  0.21748000  0.66500100  1
  O  O29  1  0.39894900  0.73831000  0.67732700  1
  O  O30  1  0.44764000  0.95976600  0.94260300  1
  O  O31  1  0.75143100  0.88941800  0.94290700  1
  O  O32  1  0.06016700  0.94808100  0.94860800  1
  O  O33  1  0.59194700  0.87347300  0.82578400  1
  O  O34  1  0.29435100  0.78252000  0.83499900  1
  O  O35  1  0.39894900  0.26169000  0.82267300  1
  O  O36  1  0.55236000  0.95976600  0.44260300  1
  O  O37  1  0.24856900  0.88941800  0.44290700  1
  O  O38  1  0.93983300  0.94808100  0.44860800  1
  O  O39  1  0.40805300  0.87347300  0.32578400  1
  O  O40  1  0.70564900  0.78252000  0.33499900  1
  O  O41  1  0.60105100  0.26169000  0.32267300  1
  O  O42  1  0.55236000  0.04023400  0.05739700  1
  O  O43  1  0.24856900  0.11058200  0.05709300  1
  O  O44  1  0.93983300  0.05191900  0.05139200  1
  O  O45  1  0.40805300  0.12652700  0.17421600  1
  O  O46  1  0.70564900  0.21748000  0.16500100  1
  O  O47  1  0.60105100  0.73831000  0.17732700  1
loop_
_geom_bond_atom_site_label_1
_geom_bond_atom_site_label_2
_geom_bond_distance
_geom_bond_site_symmetry_2
Na0 O35 2.445541 1_555
Na0 O29 2.445541 1_555
Na0 O33 2.510957 1_555
Na0 O27 2.510957 1_555
Na0 O10 2.804305 1_555
Na0 O4 2.804305 1_555
Na1 O41 2.445541 1_555
Na1 O47 2.445541 1_555
Na1 O39 2.510957 1_555
Na1 O45 2.510957 1_555
Na1 O16 2.804305 1_555
Na1 O22 2.804305 1_555
Na2 O9 2.474469 1_555
Na2 O3 2.474469 1_545
Na2 O34 2.533353 1_545
Na2 O28 2.533353 1_555
Na2 O5 2.850938 1_455
Na2 O11 2.850938 1_445
Na3 O15 2.474469 1_555
Na3 O21 2.474469 1_545
Na3 O40 2.533353 1_545
Na3 O46 2.533353 1_555
Na3 O23 2.850938 1_655
Na3 O17 2.850938 1_645
Al0 O1 1.874105 1_555
Al0 O26 1.906093 1_565
Al0 O38 1.907021 1_455
Al0 O37 1.949547 1_555
Al0 O0 1.955020 1_455
Al0 O12 1.984645 1_555
Al1 O28 1.755996 1_555
Al1 O29 1.756609 1_555
Al1 O1 1.757799 1_555
Al1 O3 1.771098 1_555
Al2 O7 1.874105 1_555
Al2 O32 1.906093 1_545
Al2 O44 1.907021 1_456
Al2 O43 1.949547 1_556
Al2 O6 1.955020 1_455
Al2 O18 1.984645 1_556
Al3 O34 1.755996 1_555
Al3 O35 1.756609 1_555
Al3 O7 1.757799 1_555
Al3 O9 1.771098 1_555
Al4 O13 1.874105 1_555
Al4 O38 1.906093 1_545
Al4 O26 1.907021 1_655
Al4 O25 1.949547 1_555
Al4 O12 1.955020 1_655
Al4 O0 1.984645 1_555
Al5 O40 1.755996 1_555
Al5 O41 1.756609 1_555
Al5 O13 1.757799 1_555
Al5 O15 1.771098 1_555
Al6 O19 1.874105 1_555
Al6 O44 1.906093 1_565
Al6 O32 1.907021 1_654
Al6 O31 1.949547 1_554
Al6 O18 1.955020 1_655
Al6 O6 1.984645 1_554
Al7 O46 1.755996 1_555
Al7 O47 1.756609 1_555
Al7 O19 1.757799 1_555
Al7 O21 1.771098 1_555
Al8 O13 1.874481 1_555
Al8 O2 1.908261 1_555
Al8 O14 1.912938 1_555
Al8 O24 1.949895 1_555
Al8 O36 1.955967 1_545
Al8 O25 1.980054 1_555
Al9 O19 1.874481 1_555
Al9 O8 1.908261 1_554
Al9 O20 1.912938 1_555
Al9 O30 1.949895 1_554
Al9 O42 1.955967 1_565
Al9 O31 1.980054 1_554
Al10 O1 1.874481 1_555
Al10 O14 1.908261 1_555
Al10 O2 1.912938 1_555
Al10 O36 1.949895 1_555
Al10 O24 1.955967 1_565
Al10 O37 1.980054 1_555
Al11 O7 1.874481 1_555
Al11 O20 1.908261 1_556
Al11 O8 1.912938 1_555
Al11 O42 1.949895 1_556
Al11 O30 1.955967 1_545
Al11 O43 1.980054 1_556
H0 O2 0.969598 1_555
H1 O8 0.969598 1_555
H2 O14 0.969598 1_555
H3 O20 0.969598 1_555
H4 O26 0.971606 1_555
H5 O32 0.971606 1_555
H6 O38 0.971606 1_555
H7 O44 0.971606 1_555
O0 Si0 1.647543 1_555
O3 Si0 1.614410 1_455
O4 Si5 1.649104 1_565
O4 Si0 1.663484 1_555
O5 Si5 1.646427 1_555
O5 Si0 1.666125 1_555
O6 Si1 1.647543 1_555
O9 Si1 1.614410 1_455
O10 Si7 1.649104 1_545
O10 Si1 1.663484 1_555
O11 Si7 1.646427 1_555
O11 Si1 1.666125 1_555
O12 Si2 1.647543 1_555
O15 Si2 1.614410 1_655
O16 Si9 1.649104 1_545
O16 Si2 1.663484 1_555
O17 Si9 1.646427 1_555
O17 Si2 1.666125 1_555
O18 Si3 1.647543 1_555
O21 Si3 1.614410 1_655
O22 Si11 1.649104 1_565
O22 Si3 1.663484 1_555
O23 Si11 1.646427 1_555
O23 Si3 1.666125 1_555
O24 Si4 1.655588 1_555
O25 Si5 1.627949 1_555
O27 Si5 1.646060 1_555
O27 Si4 1.669600 1_555
O28 Si4 1.628758 1_555
O29 Si4 1.629828 1_565
O30 Si6 1.655588 1_555
O31 Si7 1.627949 1_555
O33 Si7 1.646060 1_555
O33 Si6 1.669600 1_555
O34 Si6 1.628758 1_555
O35 Si6 1.629828 1_545
O36 Si8 1.655588 1_555
O37 Si9 1.627949 1_555
O39 Si9 1.646060 1_555
O39 Si8 1.669600 1_555
O40 Si8 1.628758 1_555
O41 Si8 1.629828 1_545
O42 Si10 1.655588 1_555
O43 Si11 1.627949 1_555
O45 Si11 1.646060 1_555
O45 Si10 1.669600 1_555
O46 Si10 1.628758 1_555
O47 Si10 1.629828 1_565
