# generated using pymatgen
data_Tm3In
_symmetry_space_group_name_H-M   'P 1'
_cell_length_a   6.73304916
_cell_length_b   6.73304967
_cell_length_c   5.53507488
_cell_angle_alpha   90.00000000
_cell_angle_beta   90.00000000
_cell_angle_gamma   120.00001107
_symmetry_Int_Tables_number   1
_chemical_formula_structural   Tm3In
_chemical_formula_sum   'Tm6 In2'
_cell_volume   217.30898717
_cell_formula_units_Z   2
loop_
 _symmetry_equiv_pos_site_id
 _symmetry_equiv_pos_as_xyz
  1  'x, y, z'
loop_
 _atom_site_type_symbol
 _atom_site_label
 _atom_site_symmetry_multiplicity
 _atom_site_fract_x
 _atom_site_fract_y
 _atom_site_fract_z
 _atom_site_occupancy
  Tm  Tm0  1  0.82975060  0.17024940  0.75000000  1
  Tm  Tm1  1  0.34049981  0.17024940  0.75000000  1
  Tm  Tm2  1  0.82975060  0.65950019  0.75000000  1
  Tm  Tm3  1  0.17024940  0.82975060  0.25000000  1
  Tm  Tm4  1  0.65950019  0.82975060  0.25000000  1
  Tm  Tm5  1  0.17024940  0.34049981  0.25000000  1
  In  In0  1  0.66666700  0.33333300  0.25000000  1
  In  In1  1  0.33333300  0.66666700  0.75000000  1
loop_
_geom_bond_atom_site_label_1
_geom_bond_atom_site_label_2
_geom_bond_distance
_geom_bond_site_symmetry_2
Tm0 Tm1 3.294150 1_555
Tm0 Tm2 3.294150 1_555
Tm0 Tm5 3.406062 1_655
Tm0 Tm5 3.406062 1_656
Tm0 Tm4 3.406062 1_546
Tm0 Tm4 3.406062 1_545
Tm0 Tm1 3.438900 1_655
Tm0 Tm2 3.438900 1_545
Tm1 Tm2 3.294149 1_555
Tm1 Tm3 3.406062 1_545
Tm1 Tm3 3.406062 1_546
Tm1 Tm5 3.406069 1_555
Tm1 Tm5 3.406069 1_556
Tm1 Tm2 3.438899 1_445
Tm2 Tm3 3.406062 1_655
Tm2 Tm3 3.406062 1_656
Tm2 Tm4 3.406069 1_555
Tm2 Tm4 3.406069 1_556
Tm3 Tm4 3.294150 1_555
Tm3 Tm5 3.294150 1_555
Tm3 Tm4 3.438900 1_455
Tm3 Tm5 3.438900 1_565
Tm4 Tm5 3.294149 1_555
Tm4 Tm5 3.438899 1_665
In0 Tm1 3.358036 1_554
In0 Tm1 3.358036 1_555
In0 Tm2 3.358036 1_555
In0 Tm2 3.358036 1_554
In0 Tm0 3.358036 1_555
In0 Tm0 3.358036 1_554
In0 Tm5 3.366777 1_655
In0 Tm4 3.366777 1_545
In0 Tm3 3.366783 1_655
In0 Tm3 3.366783 1_545
In0 Tm5 3.366791 1_555
In0 Tm4 3.366791 1_555
In1 Tm4 3.358036 1_555
In1 Tm4 3.358036 1_556
In1 Tm5 3.358036 1_555
In1 Tm5 3.358036 1_556
In1 Tm3 3.358036 1_556
In1 Tm3 3.358036 1_555
In1 Tm2 3.366777 1_455
In1 Tm1 3.366777 1_565
In1 Tm0 3.366783 1_455
In1 Tm0 3.366783 1_565
In1 Tm2 3.366791 1_555
In1 Tm1 3.366791 1_555
