# generated using pymatgen
data_CaAl2(Si2O7)2
_symmetry_space_group_name_H-M   'P 1'
_cell_length_a   10.03816650
_cell_length_b   10.03816650
_cell_length_c   7.56261334
_cell_angle_alpha   74.39554649
_cell_angle_beta   74.39554649
_cell_angle_gamma   82.97998310
_symmetry_Int_Tables_number   1
_chemical_formula_structural   CaAl2(Si2O7)2
_chemical_formula_sum   'Ca2 Al4 Si8 O28'
_cell_volume   705.88318231
_cell_formula_units_Z   2
loop_
 _symmetry_equiv_pos_site_id
 _symmetry_equiv_pos_as_xyz
  1  'x, y, z'
loop_
 _atom_site_type_symbol
 _atom_site_label
 _atom_site_symmetry_multiplicity
 _atom_site_fract_x
 _atom_site_fract_y
 _atom_site_fract_z
 _atom_site_occupancy
  Ca  Ca0  1  0.98752100  0.51821300  0.76321900  1
  Ca  Ca1  1  0.48178700  0.01247900  0.23678100  1
  Al  Al0  1  0.05348900  0.20218100  0.76188000  1
  Al  Al1  1  0.79781900  0.94651100  0.23812000  1
  Al  Al2  1  0.66967500  0.58865400  0.76716100  1
  Al  Al3  1  0.41134600  0.33032500  0.23283900  1
  Si  Si0  1  0.09047800  0.39080000  0.34119100  1
  Si  Si1  1  0.60920000  0.90952200  0.65880900  1
  Si  Si2  1  0.93462000  0.23050300  0.17563000  1
  Si  Si3  1  0.76949700  0.06538000  0.82437000  1
  Si  Si4  1  0.69878600  0.46555800  0.17747500  1
  Si  Si5  1  0.53444200  0.30121400  0.82252500  1
  Si  Si6  1  0.85581100  0.62360500  0.34582600  1
  Si  Si7  1  0.37639500  0.14418900  0.65417400  1
  O  O0  1  0.99656300  0.53168700  0.27002000  1
  O  O1  1  0.46831300  0.00343700  0.72998000  1
  O  O2  1  0.99904800  0.29255400  0.94657800  1
  O  O3  1  0.70744600  0.00095200  0.05342200  1
  O  O4  1  0.76195500  0.53613700  0.95036200  1
  O  O5  1  0.46386300  0.23804500  0.04963800  1
  O  O6  1  0.06245300  0.35741500  0.57274600  1
  O  O7  1  0.64258500  0.93754700  0.42725400  1
  O  O8  1  0.82417500  0.59873500  0.57655700  1
  O  O9  1  0.40126500  0.17582500  0.42344300  1
  O  O10  1  0.25076300  0.41624500  0.23499800  1
  O  O11  1  0.58375500  0.74923700  0.76500200  1
  O  O12  1  0.88147400  0.78412000  0.24182500  1
  O  O13  1  0.21588000  0.11852600  0.75817500  1
  O  O14  1  0.04124300  0.25883200  0.28979200  1
  O  O15  1  0.74116800  0.95875700  0.71020800  1
  O  O16  1  0.72342400  0.57093100  0.29773800  1
  O  O17  1  0.42906900  0.27657600  0.70226200  1
  O  O18  1  0.78861100  0.31997300  0.23587400  1
  O  O19  1  0.68002700  0.21138900  0.76412600  1
  O  O20  1  0.56296900  0.46166200  0.77957000  1
  O  O21  1  0.53833800  0.43703100  0.22043000  1
  O  O22  1  0.93163400  0.09011500  0.77373700  1
  O  O23  1  0.90988500  0.06836600  0.22626300  1
  O  O24  1  0.23604400  0.52582500  0.74957800  1
  O  O25  1  0.47417500  0.76395600  0.25042200  1
  O  O26  1  0.00517500  0.74016600  0.84640000  1
  O  O27  1  0.25983400  0.99482500  0.15360000  1
loop_
_geom_bond_atom_site_label_1
_geom_bond_atom_site_label_2
_geom_bond_distance
_geom_bond_site_symmetry_2
Ca0 O2 2.323741 1_555
Ca0 O4 2.340023 1_555
Ca0 O6 2.370087 1_655
Ca0 O8 2.375321 1_555
Ca0 O24 2.478706 1_655
Ca0 O26 2.510304 1_655
Ca1 O3 2.323741 1_555
Ca1 O5 2.340023 1_555
Ca1 O7 2.370087 1_545
Ca1 O9 2.375321 1_555
Ca1 O25 2.478706 1_545
Ca1 O27 2.510304 1_545
Al0 O22 1.729974 1_455
Al0 O13 1.736863 1_555
Al0 O2 1.795143 1_455
Al0 O6 1.802251 1_555
Al1 O23 1.729974 1_565
Al1 O12 1.736863 1_555
Al1 O3 1.795143 1_565
Al1 O7 1.802251 1_555
Al2 O11 1.730935 1_555
Al2 O20 1.731035 1_555
Al2 O4 1.798245 1_555
Al2 O8 1.802919 1_555
Al3 O10 1.730935 1_555
Al3 O21 1.731035 1_555
Al3 O5 1.798245 1_555
Al3 O9 1.802919 1_555
O0 Si6 1.645124 1_555
O0 Si0 1.648065 1_655
O1 Si7 1.645124 1_555
O1 Si1 1.648065 1_545
O2 Si2 1.649896 1_556
O3 Si3 1.649896 1_554
O4 Si4 1.650240 1_556
O5 Si5 1.650240 1_554
O6 Si0 1.643260 1_555
O7 Si1 1.643260 1_555
O8 Si6 1.641601 1_555
O9 Si7 1.641601 1_555
O10 Si0 1.610562 1_555
O11 Si1 1.610562 1_555
O12 Si6 1.609921 1_555
O13 Si7 1.609921 1_555
O14 Si2 1.635670 1_455
O14 Si0 1.640320 1_555
O15 Si3 1.635670 1_565
O15 Si1 1.640320 1_555
O16 Si4 1.646123 1_555
O16 Si6 1.647143 1_555
O17 Si5 1.646123 1_555
O17 Si7 1.647143 1_555
O18 Si4 1.639726 1_555
O18 Si2 1.643619 1_555
O19 Si5 1.639726 1_555
O19 Si3 1.643619 1_555
O20 Si5 1.600869 1_555
O21 Si4 1.600869 1_555
O22 Si3 1.602986 1_555
O23 Si2 1.602986 1_555
