# generated using pymatgen
data_Mg2Si
_symmetry_space_group_name_H-M   'P 1'
_cell_length_a   5.49156900
_cell_length_b   5.16516200
_cell_length_c   8.45506569
_cell_angle_alpha   78.57632789
_cell_angle_beta   90.00000000
_cell_angle_gamma   90.00000000
_symmetry_Int_Tables_number   1
_chemical_formula_structural   Mg2Si
_chemical_formula_sum   'Mg8 Si4'
_cell_volume   235.07551274
_cell_formula_units_Z   4
loop_
 _symmetry_equiv_pos_site_id
 _symmetry_equiv_pos_as_xyz
  1  'x, y, z'
loop_
 _atom_site_type_symbol
 _atom_site_label
 _atom_site_symmetry_multiplicity
 _atom_site_fract_x
 _atom_site_fract_y
 _atom_site_fract_z
 _atom_site_occupancy
  Mg  Mg0  1  0.90799700  0.05407500  0.71256600  1
  Mg  Mg1  1  0.18633900  0.49463100  0.12232400  1
  Mg  Mg2  1  0.68633900  0.50536900  0.87767600  1
  Mg  Mg3  1  0.39939700  0.34763700  0.50754000  1
  Mg  Mg4  1  0.40799700  0.94592500  0.28743400  1
  Mg  Mg5  1  0.38605900  0.00360800  0.90454300  1
  Mg  Mg6  1  0.88605900  0.99639200  0.09545700  1
  Mg  Mg7  1  0.89939700  0.65236300  0.49246000  1
  Si  Si0  1  0.16970200  0.50778900  0.79235500  1
  Si  Si1  1  0.95091400  0.18905200  0.38191400  1
  Si  Si2  1  0.45091400  0.81094800  0.61808600  1
  Si  Si3  1  0.66970200  0.49221100  0.20764500  1
loop_
_geom_bond_atom_site_label_1
_geom_bond_atom_site_label_2
_geom_bond_distance
_geom_bond_site_symmetry_2
Mg0 Si1 2.754155 1_555
Mg0 Si0 2.939194 1_655
Mg0 Si2 2.985489 1_545
Mg0 Si0 3.119018 1_645
Mg1 Si3 2.750081 1_555
Mg1 Si1 2.758222 1_455
Mg1 Si0 2.778750 1_554
Mg1 Si3 2.926842 1_455
Mg2 Si0 2.750081 1_655
Mg2 Si2 2.758222 1_555
Mg2 Si3 2.778750 1_556
Mg2 Si0 2.926842 1_555
Mg3 Si2 2.750727 1_555
Mg3 Si2 2.758941 1_545
Mg3 Si1 2.865235 1_455
Mg3 Si3 2.905245 1_555
Mg3 Si0 2.977172 1_555
Mg4 Si2 2.754155 1_555
Mg4 Si3 2.939194 1_555
Mg4 Si1 2.985489 1_465
Mg4 Si3 3.119018 1_565
Mg5 Si2 2.817445 1_545
Mg5 Si0 2.848624 1_555
Mg5 Si0 3.135660 1_545
Mg6 Si1 2.817445 1_565
Mg6 Si3 2.848624 1_555
Mg6 Si3 3.135660 1_565
Mg7 Si1 2.750727 1_555
Mg7 Si1 2.758941 1_565
Mg7 Si2 2.865235 1_555
Mg7 Si0 2.905245 1_655
Mg7 Si3 2.977172 1_555
Si0 Si2 2.468583 1_555
Si1 Si3 2.468583 1_555
