# generated using pymatgen
data_Rb3P3H5N
_symmetry_space_group_name_H-M   'P 1'
_cell_length_a   9.74477300
_cell_length_b   13.06342900
_cell_length_c   15.41759400
_cell_angle_alpha   90.00000000
_cell_angle_beta   90.00000000
_cell_angle_gamma   90.00000000
_symmetry_Int_Tables_number   1
_chemical_formula_structural   Rb3P3H5N
_chemical_formula_sum   'Rb24 P24 H40 N8'
_cell_volume   1962.66203202
_cell_formula_units_Z   8
loop_
 _symmetry_equiv_pos_site_id
 _symmetry_equiv_pos_as_xyz
  1  'x, y, z'
loop_
 _atom_site_type_symbol
 _atom_site_label
 _atom_site_symmetry_multiplicity
 _atom_site_fract_x
 _atom_site_fract_y
 _atom_site_fract_z
 _atom_site_occupancy
  Rb  Rb0  1  0.89820700  0.91139800  0.89202700  1
  Rb  Rb1  1  0.60179300  0.41139800  0.10797300  1
  Rb  Rb2  1  0.39820700  0.08860200  0.60797300  1
  Rb  Rb3  1  0.10179300  0.58860200  0.39202700  1
  Rb  Rb4  1  0.10179300  0.08860200  0.10797300  1
  Rb  Rb5  1  0.39820700  0.58860200  0.89202700  1
  Rb  Rb6  1  0.60179300  0.91139800  0.39202700  1
  Rb  Rb7  1  0.89820700  0.41139800  0.60797300  1
  Rb  Rb8  1  0.05976200  0.58831200  0.09423200  1
  Rb  Rb9  1  0.44023800  0.08831200  0.90576800  1
  Rb  Rb10  1  0.55976200  0.41168800  0.40576800  1
  Rb  Rb11  1  0.94023800  0.91168800  0.59423200  1
  Rb  Rb12  1  0.94023800  0.41168800  0.90576800  1
  Rb  Rb13  1  0.55976200  0.91168800  0.09423200  1
  Rb  Rb14  1  0.44023800  0.58831200  0.59423200  1
  Rb  Rb15  1  0.05976200  0.08831200  0.40576800  1
  Rb  Rb16  1  0.76611500  0.17210500  0.76257600  1
  Rb  Rb17  1  0.73388500  0.67210500  0.23742400  1
  Rb  Rb18  1  0.26611500  0.82789500  0.73742400  1
  Rb  Rb19  1  0.23388500  0.32789500  0.26257600  1
  Rb  Rb20  1  0.23388500  0.82789500  0.23742400  1
  Rb  Rb21  1  0.26611500  0.32789500  0.76257600  1
  Rb  Rb22  1  0.73388500  0.17210500  0.26257600  1
  Rb  Rb23  1  0.76611500  0.67210500  0.73742400  1
  P  P0  1  0.04673400  0.16064300  0.64066400  1
  P  P1  1  0.45326600  0.66064300  0.35933600  1
  P  P2  1  0.54673400  0.83935700  0.85933600  1
  P  P3  1  0.95326600  0.33935700  0.14066400  1
  P  P4  1  0.95326600  0.83935700  0.35933600  1
  P  P5  1  0.54673400  0.33935700  0.64066400  1
  P  P6  1  0.45326600  0.16064300  0.14066400  1
  P  P7  1  0.04673400  0.66064300  0.85933600  1
  P  P8  1  0.12802400  0.07644400  0.75556300  1
  P  P9  1  0.37197600  0.57644400  0.24443700  1
  P  P10  1  0.62802400  0.92355600  0.74443700  1
  P  P11  1  0.87197600  0.42355600  0.25556300  1
  P  P12  1  0.87197600  0.92355600  0.24443700  1
  P  P13  1  0.62802400  0.42355600  0.75556300  1
  P  P14  1  0.37197600  0.07644400  0.25556300  1
  P  P15  1  0.12802400  0.57644400  0.74443700  1
  P  P16  1  0.06647800  0.14508200  0.88163700  1
  P  P17  1  0.43352200  0.64508200  0.11836300  1
  P  P18  1  0.56647800  0.85491800  0.61836300  1
  P  P19  1  0.93352200  0.35491800  0.38163700  1
  P  P20  1  0.93352200  0.85491800  0.11836300  1
  P  P21  1  0.56647800  0.35491800  0.88163700  1
  P  P22  1  0.43352200  0.14508200  0.38163700  1
  P  P23  1  0.06647800  0.64508200  0.61836300  1
  H  H0  1  0.15828100  0.22497100  0.60954300  1
  H  H1  1  0.34171900  0.72497100  0.39045700  1
  H  H2  1  0.65828100  0.77502900  0.89045700  1
  H  H3  1  0.84171900  0.27502900  0.10954300  1
  H  H4  1  0.84171900  0.77502900  0.39045700  1
  H  H5  1  0.65828100  0.27502900  0.60954300  1
  H  H6  1  0.34171900  0.22497100  0.10954300  1
  H  H7  1  0.15828100  0.72497100  0.89045700  1
  H  H8  1  0.17672200  0.21409200  0.90799900  1
  H  H9  1  0.32327800  0.71409200  0.09200100  1
  H  H10  1  0.67672200  0.78590800  0.59200100  1
  H  H11  1  0.82327800  0.28590800  0.40799900  1
  H  H12  1  0.82327800  0.78590800  0.09200100  1
  H  H13  1  0.67672200  0.28590800  0.90799900  1
  H  H14  1  0.32327800  0.21409200  0.40799900  1
  H  H15  1  0.17672200  0.71409200  0.59200100  1
  H  H16  1  0.82648300  0.13587900  0.97386900  1
  H  H17  1  0.67351700  0.63587900  0.02613100  1
  H  H18  1  0.32648300  0.86412100  0.52613100  1
  H  H19  1  0.17351700  0.36412100  0.47386900  1
  H  H20  1  0.17351700  0.86412100  0.02613100  1
  H  H21  1  0.32648300  0.36412100  0.97386900  1
  H  H22  1  0.67351700  0.13587900  0.47386900  1
  H  H23  1  0.82648300  0.63587900  0.52613100  1
  H  H24  1  0.79762700  0.04835700  0.04802500  1
  H  H25  1  0.70237300  0.54835700  0.95197500  1
  H  H26  1  0.29762700  0.95164300  0.45197500  1
  H  H27  1  0.20237300  0.45164300  0.54802500  1
  H  H28  1  0.20237300  0.95164300  0.95197500  1
  H  H29  1  0.29762700  0.45164300  0.04802500  1
  H  H30  1  0.70237300  0.04835700  0.54802500  1
  H  H31  1  0.79762700  0.54835700  0.45197500  1
  H  H32  1  0.68735000  0.14352600  0.03608700  1
  H  H33  1  0.81265000  0.64352600  0.96391300  1
  H  H34  1  0.18735000  0.85647400  0.46391300  1
  H  H35  1  0.31265000  0.35647400  0.53608700  1
  H  H36  1  0.31265000  0.85647400  0.96391300  1
  H  H37  1  0.18735000  0.35647400  0.03608700  1
  H  H38  1  0.81265000  0.14352600  0.53608700  1
  H  H39  1  0.68735000  0.64352600  0.46391300  1
  N  N0  1  0.74987200  0.09350100  0.00248200  1
  N  N1  1  0.75012800  0.59350100  0.99751800  1
  N  N2  1  0.24987200  0.90649900  0.49751800  1
  N  N3  1  0.25012800  0.40649900  0.50248200  1
  N  N4  1  0.25012800  0.90649900  0.99751800  1
  N  N5  1  0.24987200  0.40649900  0.00248200  1
  N  N6  1  0.75012800  0.09350100  0.50248200  1
  N  N7  1  0.74987200  0.59350100  0.49751800  1
loop_
_geom_bond_atom_site_label_1
_geom_bond_atom_site_label_2
_geom_bond_distance
_geom_bond_site_symmetry_2
P0 P8 2.230569 1_555
P1 P9 2.230569 1_555
P8 Rb2 3.483542 1_555
P8 Rb18 3.525819 1_545
P8 Rb21 3.551408 1_555
P8 Rb16 3.743141 1_455
P8 Rb0 3.753750 1_445
P8 Rb11 3.764013 1_445
P8 Rb9 3.826682 1_555
P9 Rb3 3.483542 1_555
P9 Rb19 3.525819 1_555
P9 Rb20 3.551408 1_555
P9 Rb17 3.743141 1_555
P9 Rb1 3.753750 1_555
P9 Rb10 3.764013 1_555
P9 Rb8 3.826682 1_555
P10 P18 2.223032 1_555
P10 P2 2.230569 1_555
P10 Rb0 3.483542 1_555
P10 Rb16 3.525819 1_565
P10 Rb23 3.551408 1_555
P10 Rb18 3.743141 1_555
P10 Rb2 3.753750 1_565
P10 Rb9 3.764013 1_565
P10 Rb11 3.826682 1_555
P11 P19 2.223032 1_555
P11 P3 2.230569 1_555
P11 Rb1 3.483542 1_555
P11 Rb17 3.525819 1_555
P11 Rb22 3.551408 1_555
P11 Rb19 3.743141 1_655
P11 Rb3 3.753750 1_655
P11 Rb8 3.764013 1_655
P11 Rb10 3.826682 1_555
P12 P20 2.223032 1_555
P12 P4 2.230569 1_555
P12 Rb6 3.483542 1_555
P12 Rb22 3.525819 1_565
P12 Rb17 3.551408 1_555
P12 Rb20 3.743141 1_655
P12 Rb4 3.753750 1_665
P12 Rb15 3.764013 1_665
P12 Rb13 3.826682 1_555
P13 P21 2.223032 1_555
P13 P5 2.230569 1_555
P13 Rb7 3.483542 1_555
P13 Rb23 3.525819 1_555
P13 Rb16 3.551408 1_555
P13 Rb21 3.743141 1_555
P13 Rb5 3.753750 1_555
P13 Rb14 3.764013 1_555
P13 Rb12 3.826682 1_555
P14 P22 2.223032 1_555
P14 P6 2.230569 1_555
P14 Rb4 3.483542 1_555
P14 Rb20 3.525819 1_545
P14 Rb19 3.551408 1_555
P14 Rb22 3.743141 1_555
P14 Rb6 3.753750 1_545
P14 Rb13 3.764013 1_545
P14 Rb15 3.826682 1_555
P15 P23 2.223032 1_555
P15 P7 2.230569 1_555
P15 Rb5 3.483542 1_555
P15 Rb21 3.525819 1_555
P15 Rb18 3.551408 1_555
P15 Rb23 3.743141 1_455
P15 Rb7 3.753750 1_455
P15 Rb12 3.764013 1_455
P15 Rb14 3.826682 1_555
P16 P8 2.223032 1_555
P17 P9 2.223032 1_555
H0 P0 1.455323 1_555
H0 Rb21 2.911834 1_555
H0 Rb2 2.939472 1_555
H1 P1 1.455323 1_555
H1 Rb20 2.911834 1_555
H1 Rb3 2.939472 1_555
H2 P2 1.455323 1_555
H2 Rb23 2.911834 1_555
H2 Rb0 2.939472 1_555
H3 P3 1.455323 1_555
H3 Rb22 2.911834 1_555
H3 Rb1 2.939472 1_555
H4 P4 1.455323 1_555
H4 Rb17 2.911834 1_555
H4 Rb6 2.939472 1_555
H5 P5 1.455323 1_555
H5 Rb16 2.911834 1_555
H5 Rb7 2.939472 1_555
H6 P6 1.455323 1_555
H6 Rb19 2.911834 1_555
H6 Rb4 2.939472 1_555
H7 P7 1.455323 1_555
H7 Rb18 2.911834 1_555
H7 Rb5 2.939472 1_555
H8 P16 1.460149 1_555
H8 Rb21 2.827699 1_555
H8 Rb9 3.048795 1_555
H9 P17 1.460149 1_555
H9 Rb20 2.827699 1_555
H9 Rb8 3.048795 1_555
H10 P18 1.460149 1_555
H10 Rb23 2.827699 1_555
H10 Rb11 3.048795 1_555
H11 P19 1.460149 1_555
H11 Rb22 2.827699 1_555
H11 Rb10 3.048795 1_555
H12 P20 1.460149 1_555
H12 Rb17 2.827699 1_555
H12 Rb13 3.048795 1_555
H13 P21 1.460149 1_555
H13 Rb16 2.827699 1_555
H13 Rb12 3.048795 1_555
H14 P22 1.460149 1_555
H14 Rb19 2.827699 1_555
H14 Rb15 3.048795 1_555
H15 P23 1.460149 1_555
H15 Rb18 2.827699 1_555
H15 Rb14 3.048795 1_555
H16 N0 1.028800 1_556
H17 N1 1.028800 1_554
H18 N2 1.028800 1_555
H19 N3 1.028800 1_555
H20 N4 1.028800 1_554
H21 N5 1.028800 1_556
H22 N6 1.028800 1_555
H23 N7 1.028800 1_555
H24 N0 1.028291 1_555
H24 Rb13 3.011294 1_545
H25 N1 1.028291 1_555
H25 Rb12 3.011294 1_555
H26 N2 1.028291 1_555
H26 Rb15 3.011294 1_565
H27 N3 1.028291 1_555
H27 Rb14 3.011294 1_555
H28 N4 1.028291 1_555
H28 Rb9 3.011294 1_565
H29 N5 1.028291 1_555
H29 Rb8 3.011294 1_555
H30 N6 1.028291 1_555
H30 Rb11 3.011294 1_545
H31 N7 1.028291 1_555
H31 Rb10 3.011294 1_555
H32 N0 1.032810 1_555
H33 N1 1.032810 1_555
H34 N2 1.032810 1_555
H35 N3 1.032810 1_555
H36 N4 1.032810 1_555
H37 N5 1.032810 1_555
H38 N6 1.032810 1_555
H39 N7 1.032810 1_555
