# generated using pymatgen
data_HfSbPd
_symmetry_space_group_name_H-M   'P 1'
_cell_length_a   4.41636500
_cell_length_b   6.68012800
_cell_length_c   8.02168200
_cell_angle_alpha   90.00000000
_cell_angle_beta   90.00000000
_cell_angle_gamma   90.00000000
_symmetry_Int_Tables_number   1
_chemical_formula_structural   HfSbPd
_chemical_formula_sum   'Hf4 Sb4 Pd4'
_cell_volume   236.65472780
_cell_formula_units_Z   4
loop_
 _symmetry_equiv_pos_site_id
 _symmetry_equiv_pos_as_xyz
  1  'x, y, z'
loop_
 _atom_site_type_symbol
 _atom_site_label
 _atom_site_symmetry_multiplicity
 _atom_site_fract_x
 _atom_site_fract_y
 _atom_site_fract_z
 _atom_site_occupancy
  Hf  Hf0  1  0.25000000  0.51473000  0.20489700  1
  Hf  Hf1  1  0.75000000  0.48527000  0.79510300  1
  Hf  Hf2  1  0.75000000  0.98527000  0.70489700  1
  Hf  Hf3  1  0.25000000  0.01473000  0.29510300  1
  Sb  Sb0  1  0.25000000  0.76252200  0.89993600  1
  Sb  Sb1  1  0.75000000  0.23747800  0.10006400  1
  Sb  Sb2  1  0.75000000  0.73747800  0.39993600  1
  Sb  Sb3  1  0.25000000  0.26252200  0.60006400  1
  Pd  Pd0  1  0.25000000  0.67073200  0.57683300  1
  Pd  Pd1  1  0.75000000  0.32926800  0.42316700  1
  Pd  Pd2  1  0.75000000  0.82926800  0.07683300  1
  Pd  Pd3  1  0.25000000  0.17073200  0.92316700  1
loop_
_geom_bond_atom_site_label_1
_geom_bond_atom_site_label_2
_geom_bond_distance
_geom_bond_site_symmetry_2
Hf0 Sb0 2.953700 1_554
Hf0 Sb1 3.002239 1_455
Hf0 Sb1 3.002239 1_555
Hf0 Pd1 3.078407 1_455
Hf0 Pd1 3.078407 1_555
Hf0 Sb2 3.088358 1_455
Hf0 Sb2 3.088358 1_555
Hf0 Pd0 3.160314 1_555
Hf0 Pd2 3.216557 1_455
Hf0 Pd2 3.216557 1_555
Hf0 Pd3 3.223033 1_554
Hf1 Sb1 2.953700 1_556
Hf1 Sb0 3.002239 1_655
Hf1 Sb0 3.002239 1_555
Hf1 Pd0 3.078407 1_655
Hf1 Pd0 3.078407 1_555
Hf1 Sb3 3.088358 1_655
Hf1 Sb3 3.088358 1_555
Hf1 Pd1 3.160314 1_555
Hf1 Pd3 3.216557 1_655
Hf1 Pd3 3.216557 1_555
Hf1 Pd2 3.223033 1_556
Hf2 Sb2 2.953700 1_555
Hf2 Sb3 3.002239 1_665
Hf2 Sb3 3.002239 1_565
Hf2 Pd3 3.078407 1_665
Hf2 Pd3 3.078407 1_565
Hf2 Sb0 3.088358 1_655
Hf2 Sb0 3.088358 1_555
Hf2 Pd2 3.160314 1_556
Hf2 Pd0 3.216557 1_655
Hf2 Pd0 3.216557 1_555
Hf2 Pd1 3.223033 1_565
Hf3 Sb3 2.953700 1_555
Hf3 Sb2 3.002239 1_545
Hf3 Sb2 3.002239 1_445
Hf3 Pd2 3.078407 1_545
Hf3 Pd2 3.078407 1_445
Hf3 Sb1 3.088358 1_455
Hf3 Sb1 3.088358 1_555
Hf3 Pd3 3.160314 1_554
Hf3 Pd1 3.216557 1_455
Hf3 Pd1 3.216557 1_555
Hf3 Pd0 3.223033 1_545
Pd0 Sb2 2.662417 1_455
Pd0 Sb2 2.662417 1_555
Pd0 Sb0 2.663373 1_555
Pd0 Sb3 2.733255 1_555
Pd1 Sb3 2.662417 1_555
Pd1 Sb3 2.662417 1_655
Pd1 Sb1 2.663373 1_555
Pd1 Sb2 2.733255 1_555
Pd2 Sb0 2.662417 1_654
Pd2 Sb0 2.662417 1_554
Pd2 Sb2 2.663373 1_555
Pd2 Sb1 2.733255 1_565
Pd3 Sb1 2.662417 1_556
Pd3 Sb1 2.662417 1_456
Pd3 Sb3 2.663373 1_555
Pd3 Sb0 2.733255 1_545
