# generated using pymatgen
data_CsMg6Ga
_symmetry_space_group_name_H-M   'P 1'
_cell_length_a   18.75584971
_cell_length_b   18.75584971
_cell_length_c   9.88428000
_cell_angle_alpha   90.00000000
_cell_angle_beta   90.00000000
_cell_angle_gamma   140.83203139
_symmetry_Int_Tables_number   1
_chemical_formula_structural   CsMg6Ga
_chemical_formula_sum   'Cs8 Mg48 Ga8'
_cell_volume   2196.12915183
_cell_formula_units_Z   8
loop_
 _symmetry_equiv_pos_site_id
 _symmetry_equiv_pos_as_xyz
  1  'x, y, z'
loop_
 _atom_site_type_symbol
 _atom_site_label
 _atom_site_symmetry_multiplicity
 _atom_site_fract_x
 _atom_site_fract_y
 _atom_site_fract_z
 _atom_site_occupancy
  Cs  Cs0_0  1  0.39590900  0.10409100  0.25000000  1
  Cs  Cs0_1  1  0.39590900  0.10409100  0.75000000  1
  Cs  Cs0_2  1  0.39590900  0.60409100  0.25000000  1
  Cs  Cs0_3  1  0.39590900  0.60409100  0.75000000  1
  Cs  Cs0_4  1  0.89590900  0.10409100  0.25000000  1
  Cs  Cs0_5  1  0.89590900  0.10409100  0.75000000  1
  Cs  Cs0_6  1  0.89590900  0.60409100  0.25000000  1
  Cs  Cs0_7  1  0.89590900  0.60409100  0.75000000  1
  Mg  Mg0_0  1  0.15338350  0.08689100  0.25000000  1
  Mg  Mg0_1  1  0.15338350  0.08689100  0.75000000  1
  Mg  Mg0_2  1  0.15338350  0.58689100  0.25000000  1
  Mg  Mg0_3  1  0.15338350  0.58689100  0.75000000  1
  Mg  Mg0_4  1  0.65338350  0.08689100  0.25000000  1
  Mg  Mg0_5  1  0.65338350  0.08689100  0.75000000  1
  Mg  Mg0_6  1  0.65338350  0.58689100  0.25000000  1
  Mg  Mg0_7  1  0.65338350  0.58689100  0.75000000  1
  Mg  Mg1_0  1  0.41310900  0.34661650  0.25000000  1
  Mg  Mg1_1  1  0.41310900  0.34661650  0.75000000  1
  Mg  Mg1_2  1  0.41310900  0.84661650  0.25000000  1
  Mg  Mg1_3  1  0.41310900  0.84661650  0.75000000  1
  Mg  Mg1_4  1  0.91310900  0.34661650  0.25000000  1
  Mg  Mg1_5  1  0.91310900  0.34661650  0.75000000  1
  Mg  Mg1_6  1  0.91310900  0.84661650  0.25000000  1
  Mg  Mg1_7  1  0.91310900  0.84661650  0.75000000  1
  Mg  Mg2_0  1  0.10191400  0.14841200  0.00000000  1
  Mg  Mg2_1  1  0.10191400  0.14841200  0.50000000  1
  Mg  Mg2_2  1  0.10191400  0.64841200  0.00000000  1
  Mg  Mg2_3  1  0.10191400  0.64841200  0.50000000  1
  Mg  Mg2_4  1  0.60191400  0.14841200  0.00000000  1
  Mg  Mg2_5  1  0.60191400  0.14841200  0.50000000  1
  Mg  Mg2_6  1  0.60191400  0.64841200  0.00000000  1
  Mg  Mg2_7  1  0.60191400  0.64841200  0.50000000  1
  Mg  Mg3_0  1  0.35158800  0.39808600  0.00000000  1
  Mg  Mg3_1  1  0.35158800  0.39808600  0.50000000  1
  Mg  Mg3_2  1  0.35158800  0.89808600  0.00000000  1
  Mg  Mg3_3  1  0.35158800  0.89808600  0.50000000  1
  Mg  Mg3_4  1  0.85158800  0.39808600  0.00000000  1
  Mg  Mg3_5  1  0.85158800  0.39808600  0.50000000  1
  Mg  Mg3_6  1  0.85158800  0.89808600  0.00000000  1
  Mg  Mg3_7  1  0.85158800  0.89808600  0.50000000  1
  Mg  Mg4_0  1  0.30470250  0.19529750  0.00000000  1
  Mg  Mg4_1  1  0.30470250  0.19529750  0.50000000  1
  Mg  Mg4_2  1  0.30470250  0.69529750  0.00000000  1
  Mg  Mg4_3  1  0.30470250  0.69529750  0.50000000  1
  Mg  Mg4_4  1  0.80470250  0.19529750  0.00000000  1
  Mg  Mg4_5  1  0.80470250  0.19529750  0.50000000  1
  Mg  Mg4_6  1  0.80470250  0.69529750  0.00000000  1
  Mg  Mg4_7  1  0.80470250  0.69529750  0.50000000  1
  Mg  Mg5_0  1  0.06043400  0.43956600  0.00000000  1
  Mg  Mg5_1  1  0.06043400  0.43956600  0.50000000  1
  Mg  Mg5_2  1  0.06043400  0.93956600  0.00000000  1
  Mg  Mg5_3  1  0.06043400  0.93956600  0.50000000  1
  Mg  Mg5_4  1  0.56043400  0.43956600  0.00000000  1
  Mg  Mg5_5  1  0.56043400  0.43956600  0.50000000  1
  Mg  Mg5_6  1  0.56043400  0.93956600  0.00000000  1
  Mg  Mg5_7  1  0.56043400  0.93956600  0.50000000  1
  Ga  Ga0_0  1  0.21896400  0.28103600  0.25000000  1
  Ga  Ga0_1  1  0.21896400  0.28103600  0.75000000  1
  Ga  Ga0_2  1  0.21896400  0.78103600  0.25000000  1
  Ga  Ga0_3  1  0.21896400  0.78103600  0.75000000  1
  Ga  Ga0_4  1  0.71896400  0.28103600  0.25000000  1
  Ga  Ga0_5  1  0.71896400  0.28103600  0.75000000  1
  Ga  Ga0_6  1  0.71896400  0.78103600  0.25000000  1
  Ga  Ga0_7  1  0.71896400  0.78103600  0.75000000  1
loop_
_geom_bond_atom_site_label_1
_geom_bond_atom_site_label_2
_geom_bond_distance
_geom_bond_site_symmetry_2
Cs0_0 Mg4_0 4.061581 1_555
Cs0_0 Mg4_1 4.061581 1_555
Cs0_0 Ga0_2 4.067790 1_545
Cs0_0 Ga0_4 4.067790 1_555
Cs0_0 Mg2_5 4.092164 1_555
Cs0_0 Mg2_4 4.092164 1_555
Cs0_0 Mg3_3 4.092164 1_545
Cs0_0 Mg3_2 4.092164 1_545
Cs0_0 Mg0_0 4.303486 1_555
Cs0_0 Mg1_0 4.303486 1_555
Cs0_0 Cs0_1 4.942140 1_554
Cs0_0 Cs0_1 4.942140 1_555
Cs0_1 Mg4_0 4.061581 1_556
Cs0_1 Mg4_1 4.061581 1_555
Cs0_1 Ga0_3 4.067790 1_545
Cs0_1 Ga0_5 4.067790 1_555
Cs0_1 Mg2_4 4.092164 1_556
Cs0_1 Mg2_5 4.092164 1_555
Cs0_1 Mg3_3 4.092164 1_545
Cs0_1 Mg3_2 4.092164 1_546
Cs0_1 Mg0_1 4.303486 1_555
Cs0_1 Mg1_1 4.303486 1_555
Cs0_2 Mg4_2 4.061581 1_555
Cs0_2 Mg4_3 4.061581 1_555
Cs0_2 Ga0_0 4.067790 1_555
Cs0_2 Ga0_6 4.067790 1_555
Cs0_2 Mg2_7 4.092164 1_555
Cs0_2 Mg2_6 4.092164 1_555
Cs0_2 Mg3_1 4.092164 1_555
Cs0_2 Mg3_0 4.092164 1_555
Cs0_2 Mg0_2 4.303486 1_555
Cs0_2 Mg1_2 4.303486 1_555
Cs0_2 Cs0_3 4.942140 1_554
Cs0_2 Cs0_3 4.942140 1_555
Cs0_3 Mg4_3 4.061581 1_555
Cs0_3 Mg4_2 4.061581 1_556
Cs0_3 Ga0_1 4.067790 1_555
Cs0_3 Ga0_7 4.067790 1_555
Cs0_3 Mg2_7 4.092164 1_555
Cs0_3 Mg2_6 4.092164 1_556
Cs0_3 Mg3_1 4.092164 1_555
Cs0_3 Mg3_0 4.092164 1_556
Cs0_3 Mg0_3 4.303486 1_555
Cs0_3 Mg1_3 4.303486 1_555
Cs0_4 Mg4_5 4.061581 1_555
Cs0_4 Mg4_4 4.061581 1_555
Cs0_4 Ga0_6 4.067790 1_545
Cs0_4 Ga0_0 4.067790 1_655
Cs0_4 Mg2_0 4.092164 1_655
Cs0_4 Mg2_1 4.092164 1_655
Cs0_4 Mg3_6 4.092164 1_545
Cs0_4 Mg3_7 4.092164 1_545
Cs0_4 Mg0_4 4.303486 1_555
Cs0_4 Mg1_4 4.303486 1_555
Cs0_4 Cs0_5 4.942140 1_555
Cs0_4 Cs0_5 4.942140 1_554
Cs0_5 Mg4_5 4.061581 1_555
Cs0_5 Mg4_4 4.061581 1_556
Cs0_5 Ga0_7 4.067790 1_545
Cs0_5 Ga0_1 4.067790 1_655
Cs0_5 Mg2_0 4.092164 1_656
Cs0_5 Mg2_1 4.092164 1_655
Cs0_5 Mg3_6 4.092164 1_546
Cs0_5 Mg3_7 4.092164 1_545
Cs0_5 Mg0_5 4.303486 1_555
Cs0_5 Mg1_5 4.303486 1_555
Cs0_6 Mg4_6 4.061581 1_555
Cs0_6 Mg4_7 4.061581 1_555
Cs0_6 Ga0_4 4.067790 1_555
Cs0_6 Ga0_2 4.067790 1_655
Cs0_6 Mg2_2 4.092164 1_655
Cs0_6 Mg2_3 4.092164 1_655
Cs0_6 Mg3_5 4.092164 1_555
Cs0_6 Mg3_4 4.092164 1_555
Cs0_6 Mg0_6 4.303486 1_555
Cs0_6 Mg1_6 4.303486 1_555
Cs0_6 Cs0_7 4.942140 1_555
Cs0_6 Cs0_7 4.942140 1_554
Cs0_7 Mg4_6 4.061581 1_556
Cs0_7 Mg4_7 4.061581 1_555
Cs0_7 Ga0_5 4.067790 1_555
Cs0_7 Ga0_3 4.067790 1_655
Cs0_7 Mg2_3 4.092164 1_655
Cs0_7 Mg2_2 4.092164 1_656
Cs0_7 Mg3_5 4.092164 1_555
Cs0_7 Mg3_4 4.092164 1_556
Cs0_7 Mg0_7 4.303486 1_555
Cs0_7 Mg1_7 4.303486 1_555
Mg0_0 Mg1_6 3.021087 1_445
Mg0_0 Mg5_2 3.051423 1_545
Mg0_0 Mg5_3 3.051423 1_545
Mg0_0 Mg4_1 3.057340 1_555
Mg0_0 Mg4_0 3.057340 1_555
Mg0_0 Mg2_0 3.177537 1_555
Mg0_0 Mg2_1 3.177537 1_555
Mg0_0 Mg1_0 3.265653 1_555
Mg0_1 Mg1_7 3.021087 1_445
Mg0_1 Mg5_3 3.051423 1_545
Mg0_1 Mg5_2 3.051423 1_546
Mg0_1 Mg4_1 3.057340 1_555
Mg0_1 Mg4_0 3.057340 1_556
Mg0_1 Mg2_0 3.177537 1_556
Mg0_1 Mg2_1 3.177537 1_555
Mg0_1 Mg1_1 3.265653 1_555
Mg0_2 Mg1_4 3.021087 1_455
Mg0_2 Mg5_0 3.051423 1_555
Mg0_2 Mg5_1 3.051423 1_555
Mg0_2 Mg4_2 3.057340 1_555
Mg0_2 Mg4_3 3.057340 1_555
Mg0_2 Mg2_2 3.177537 1_555
Mg0_2 Mg2_3 3.177537 1_555
Mg0_2 Mg1_2 3.265653 1_555
Mg0_3 Mg1_5 3.021087 1_455
Mg0_3 Mg5_1 3.051423 1_555
Mg0_3 Mg5_0 3.051423 1_556
Mg0_3 Mg4_3 3.057340 1_555
Mg0_3 Mg4_2 3.057340 1_556
Mg0_3 Mg2_2 3.177537 1_556
Mg0_3 Mg2_3 3.177537 1_555
Mg0_3 Mg1_3 3.265653 1_555
Mg0_4 Mg1_2 3.021087 1_545
Mg0_4 Mg5_6 3.051423 1_545
Mg0_4 Mg5_7 3.051423 1_545
Mg0_4 Mg4_4 3.057340 1_555
Mg0_4 Mg4_5 3.057340 1_555
Mg0_4 Mg2_5 3.177537 1_555
Mg0_4 Mg2_4 3.177537 1_555
Mg0_4 Mg1_4 3.265653 1_555
Mg0_5 Mg1_3 3.021087 1_545
Mg0_5 Mg5_7 3.051423 1_545
Mg0_5 Mg5_6 3.051423 1_546
Mg0_5 Mg4_5 3.057340 1_555
Mg0_5 Mg4_4 3.057340 1_556
Mg0_5 Mg2_5 3.177537 1_555
Mg0_5 Mg2_4 3.177537 1_556
Mg0_5 Mg1_5 3.265653 1_555
Mg0_6 Mg1_0 3.021087 1_555
Mg0_6 Mg5_5 3.051423 1_555
Mg0_6 Mg5_4 3.051423 1_555
Mg0_6 Mg4_7 3.057340 1_555
Mg0_6 Mg4_6 3.057340 1_555
Mg0_6 Mg2_7 3.177537 1_555
Mg0_6 Mg2_6 3.177537 1_555
Mg0_6 Mg1_6 3.265653 1_555
Mg0_7 Mg1_1 3.021087 1_555
Mg0_7 Mg5_4 3.051423 1_556
Mg0_7 Mg5_5 3.051423 1_555
Mg0_7 Mg4_7 3.057340 1_555
Mg0_7 Mg4_6 3.057340 1_556
Mg0_7 Mg2_7 3.177537 1_555
Mg0_7 Mg2_6 3.177537 1_556
Mg0_7 Mg1_7 3.265653 1_555
Mg1_0 Mg5_5 3.051423 1_555
Mg1_0 Mg5_4 3.051423 1_555
Mg1_0 Mg4_0 3.057340 1_555
Mg1_0 Mg4_1 3.057340 1_555
Mg1_0 Mg3_0 3.177537 1_555
Mg1_0 Mg3_1 3.177537 1_555
Mg1_1 Mg5_4 3.051423 1_556
Mg1_1 Mg5_5 3.051423 1_555
Mg1_1 Mg4_1 3.057340 1_555
Mg1_1 Mg4_0 3.057340 1_556
Mg1_1 Mg3_1 3.177537 1_555
Mg1_1 Mg3_0 3.177537 1_556
Mg1_2 Mg5_7 3.051423 1_555
Mg1_2 Mg5_6 3.051423 1_555
Mg1_2 Mg4_3 3.057340 1_555
Mg1_2 Mg4_2 3.057340 1_555
Mg1_2 Mg3_3 3.177537 1_555
Mg1_2 Mg3_2 3.177537 1_555
Mg1_3 Mg5_6 3.051423 1_556
Mg1_3 Mg5_7 3.051423 1_555
Mg1_3 Mg4_3 3.057340 1_555
Mg1_3 Mg4_2 3.057340 1_556
Mg1_3 Mg3_2 3.177537 1_556
Mg1_3 Mg3_3 3.177537 1_555
Mg1_4 Mg5_1 3.051423 1_655
Mg1_4 Mg5_0 3.051423 1_655
Mg1_4 Mg4_4 3.057340 1_555
Mg1_4 Mg4_5 3.057340 1_555
Mg1_4 Mg3_5 3.177537 1_555
Mg1_4 Mg3_4 3.177537 1_555
Mg1_5 Mg5_1 3.051423 1_655
Mg1_5 Mg5_0 3.051423 1_656
Mg1_5 Mg4_4 3.057340 1_556
Mg1_5 Mg4_5 3.057340 1_555
Mg1_5 Mg3_5 3.177537 1_555
Mg1_5 Mg3_4 3.177537 1_556
Mg1_6 Mg5_3 3.051423 1_655
Mg1_6 Mg5_2 3.051423 1_655
Mg1_6 Mg4_7 3.057340 1_555
Mg1_6 Mg4_6 3.057340 1_555
Mg1_6 Mg3_6 3.177537 1_555
Mg1_6 Mg3_7 3.177537 1_555
Mg1_7 Mg5_2 3.051423 1_656
Mg1_7 Mg5_3 3.051423 1_655
Mg1_7 Mg4_7 3.057340 1_555
Mg1_7 Mg4_6 3.057340 1_556
Mg1_7 Mg3_6 3.177537 1_556
Mg1_7 Mg3_7 3.177537 1_555
Mg2_0 Mg3_0 3.139271 1_555
Mg2_0 Mg3_6 3.147469 1_445
Mg2_0 Mg4_0 3.170716 1_555
Mg2_0 Mg5_2 3.350140 1_545
Mg2_1 Mg3_1 3.139271 1_555
Mg2_1 Mg3_7 3.147469 1_445
Mg2_1 Mg4_1 3.170716 1_555
Mg2_1 Mg5_3 3.350140 1_545
Mg2_2 Mg3_2 3.139271 1_555
Mg2_2 Mg3_4 3.147469 1_455
Mg2_2 Mg4_2 3.170716 1_555
Mg2_2 Mg5_0 3.350140 1_555
Mg2_3 Mg3_3 3.139271 1_555
Mg2_3 Mg3_5 3.147469 1_455
Mg2_3 Mg4_3 3.170716 1_555
Mg2_3 Mg5_1 3.350140 1_555
Mg2_4 Mg3_4 3.139271 1_555
Mg2_4 Mg3_2 3.147469 1_545
Mg2_4 Mg4_4 3.170716 1_555
Mg2_4 Mg5_6 3.350140 1_545
Mg2_5 Mg3_5 3.139271 1_555
Mg2_5 Mg3_3 3.147469 1_545
Mg2_5 Mg4_5 3.170716 1_555
Mg2_5 Mg5_7 3.350140 1_545
Mg2_6 Mg3_6 3.139271 1_555
Mg2_6 Mg3_0 3.147469 1_555
Mg2_6 Mg4_6 3.170716 1_555
Mg2_6 Mg5_4 3.350140 1_555
Mg2_7 Mg3_7 3.139271 1_555
Mg2_7 Mg3_1 3.147469 1_555
Mg2_7 Mg4_7 3.170716 1_555
Mg2_7 Mg5_5 3.350140 1_555
Mg3_0 Mg4_0 3.170716 1_555
Mg3_0 Mg5_4 3.350140 1_555
Mg3_1 Mg4_1 3.170716 1_555
Mg3_1 Mg5_5 3.350140 1_555
Mg3_2 Mg4_2 3.170716 1_555
Mg3_2 Mg5_6 3.350140 1_555
Mg3_3 Mg4_3 3.170716 1_555
Mg3_3 Mg5_7 3.350140 1_555
Mg3_4 Mg4_4 3.170716 1_555
Mg3_4 Mg5_0 3.350140 1_655
Mg3_5 Mg4_5 3.170716 1_555
Mg3_5 Mg5_1 3.350140 1_655
Mg3_6 Mg4_6 3.170716 1_555
Mg3_6 Mg5_2 3.350140 1_655
Mg3_7 Mg4_7 3.170716 1_555
Mg3_7 Mg5_3 3.350140 1_655
Mg4_0 Mg5_4 3.149890 1_555
Mg4_0 Mg5_2 3.149890 1_545
Mg4_1 Mg5_5 3.149890 1_555
Mg4_1 Mg5_3 3.149890 1_545
Mg4_2 Mg5_6 3.149890 1_555
Mg4_2 Mg5_0 3.149890 1_555
Mg4_3 Mg5_7 3.149890 1_555
Mg4_3 Mg5_1 3.149890 1_555
Mg4_4 Mg5_0 3.149890 1_655
Mg4_4 Mg5_6 3.149890 1_545
Mg4_5 Mg5_1 3.149890 1_655
Mg4_5 Mg5_7 3.149890 1_545
Mg4_6 Mg5_2 3.149890 1_655
Mg4_6 Mg5_4 3.149890 1_555
Mg4_7 Mg5_3 3.149890 1_655
Mg4_7 Mg5_5 3.149890 1_555
Ga0_0 Mg1_0 2.797748 1_555
Ga0_0 Mg0_0 2.797748 1_555
Ga0_0 Mg2_1 2.940354 1_555
Ga0_0 Mg3_0 2.940354 1_555
Ga0_0 Mg3_1 2.940354 1_555
Ga0_0 Mg2_0 2.940354 1_555
Ga0_1 Mg1_1 2.797748 1_555
Ga0_1 Mg0_1 2.797748 1_555
Ga0_1 Mg2_1 2.940354 1_555
Ga0_1 Mg2_0 2.940354 1_556
Ga0_1 Mg3_1 2.940354 1_555
Ga0_1 Mg3_0 2.940354 1_556
Ga0_2 Mg0_2 2.797748 1_555
Ga0_2 Mg1_2 2.797748 1_555
Ga0_2 Mg2_2 2.940354 1_555
Ga0_2 Mg3_3 2.940354 1_555
Ga0_2 Mg3_2 2.940354 1_555
Ga0_2 Mg2_3 2.940354 1_555
Ga0_3 Mg0_3 2.797748 1_555
Ga0_3 Mg1_3 2.797748 1_555
Ga0_3 Mg3_3 2.940354 1_555
Ga0_3 Mg3_2 2.940354 1_556
Ga0_3 Mg2_2 2.940354 1_556
Ga0_3 Mg2_3 2.940354 1_555
Ga0_4 Mg0_4 2.797748 1_555
Ga0_4 Mg1_4 2.797748 1_555
Ga0_4 Mg3_5 2.940354 1_555
Ga0_4 Mg3_4 2.940354 1_555
Ga0_4 Mg2_4 2.940354 1_555
Ga0_4 Mg2_5 2.940354 1_555
Ga0_5 Mg0_5 2.797748 1_555
Ga0_5 Mg1_5 2.797748 1_555
Ga0_5 Mg3_5 2.940354 1_555
Ga0_5 Mg3_4 2.940354 1_556
Ga0_5 Mg2_4 2.940354 1_556
Ga0_5 Mg2_5 2.940354 1_555
Ga0_6 Mg0_6 2.797748 1_555
Ga0_6 Mg1_6 2.797748 1_555
Ga0_6 Mg2_7 2.940354 1_555
Ga0_6 Mg2_6 2.940354 1_555
Ga0_6 Mg3_7 2.940354 1_555
Ga0_6 Mg3_6 2.940354 1_555
Ga0_7 Mg0_7 2.797748 1_555
Ga0_7 Mg1_7 2.797748 1_555
Ga0_7 Mg2_7 2.940354 1_555
Ga0_7 Mg2_6 2.940354 1_556
Ga0_7 Mg3_7 2.940354 1_555
Ga0_7 Mg3_6 2.940354 1_556
