# generated using pymatgen
data_CuH10(ClO6)3
_symmetry_space_group_name_H-M   'P 1'
_cell_length_a   10.31631040
_cell_length_b   10.31631040
_cell_length_c   13.23106000
_cell_angle_alpha   90.00000000
_cell_angle_beta   90.00000000
_cell_angle_gamma   120.00000259
_symmetry_Int_Tables_number   1
_chemical_formula_structural   CuH10(ClO6)3
_chemical_formula_sum   'Cu3 H30 Cl9 O54'
_cell_volume   1219.47825670
_cell_formula_units_Z   3
loop_
 _symmetry_equiv_pos_site_id
 _symmetry_equiv_pos_as_xyz
  1  'x, y, z'
loop_
 _atom_site_type_symbol
 _atom_site_label
 _atom_site_symmetry_multiplicity
 _atom_site_fract_x
 _atom_site_fract_y
 _atom_site_fract_z
 _atom_site_occupancy
  Cu  Cu0  1  0.69601300  0.00000000  0.83333300  1
  Cu  Cu1  1  0.00000000  0.69601300  0.16666700  1
  Cu  Cu2  1  0.30398700  0.30398700  0.50000000  1
  H  H0  1  0.32663000  0.09656300  0.59858500  1
  H  H1  1  0.90343700  0.23006700  0.93191800  1
  H  H2  1  0.09656300  0.32663000  0.40141500  1
  H  H3  1  0.76993300  0.67337000  0.26525200  1
  H  H4  1  0.23006700  0.90343700  0.06808200  1
  H  H5  1  0.67337000  0.76993300  0.73474800  1
  H  H6  1  0.26485100  0.37366500  0.68547800  1
  H  H7  1  0.62633500  0.89118600  0.01881100  1
  H  H8  1  0.37366500  0.26485100  0.31452200  1
  H  H9  1  0.10881400  0.73514900  0.35214400  1
  H  H10  1  0.89118600  0.62633500  0.98118900  1
  H  H11  1  0.73514900  0.10881400  0.64785600  1
  H  H12  1  0.43762000  0.25378100  0.64669600  1
  H  H13  1  0.74621900  0.18383800  0.98002900  1
  H  H14  1  0.25378100  0.43762000  0.35330400  1
  H  H15  1  0.81616200  0.56238000  0.31336300  1
  H  H16  1  0.18383800  0.74621900  0.01997100  1
  H  H17  1  0.56238000  0.81616200  0.68663700  1
  H  H18  1  0.47184800  0.08838700  0.83070700  1
  H  H19  1  0.91161300  0.38346100  0.16404000  1
  H  H20  1  0.08838700  0.47184800  0.16929300  1
  H  H21  1  0.61653900  0.52815200  0.49737400  1
  H  H22  1  0.38346100  0.91161300  0.83596000  1
  H  H23  1  0.52815200  0.61653900  0.50262600  1
  H  H24  1  0.14923800  0.38209000  0.61117000  1
  H  H25  1  0.61791000  0.76714800  0.94450300  1
  H  H26  1  0.38209000  0.14923800  0.38883000  1
  H  H27  1  0.23285200  0.85076200  0.27783700  1
  H  H28  1  0.76714800  0.61791000  0.05549700  1
  H  H29  1  0.85076200  0.23285200  0.72216300  1
  Cl  Cl0  1  0.17511300  0.54455500  0.85491500  1
  Cl  Cl1  1  0.45544500  0.63055800  0.18824900  1
  Cl  Cl2  1  0.54455500  0.17511300  0.14508500  1
  Cl  Cl3  1  0.36944200  0.82488700  0.52158200  1
  Cl  Cl4  1  0.63055800  0.45544500  0.81175100  1
  Cl  Cl5  1  0.82488700  0.36944200  0.47841800  1
  Cl  Cl6  1  0.08359600  0.00000000  0.83333300  1
  Cl  Cl7  1  0.00000000  0.08359600  0.16666700  1
  Cl  Cl8  1  0.91640400  0.91640400  0.50000000  1
  O  O0  1  0.06711300  0.45676700  0.77597500  1
  O  O1  1  0.54323300  0.61034600  0.10930800  1
  O  O2  1  0.45676700  0.06711300  0.22402500  1
  O  O3  1  0.38965400  0.93288700  0.44264100  1
  O  O4  1  0.61034600  0.54323300  0.89069200  1
  O  O5  1  0.93288700  0.38965400  0.55735900  1
  O  O6  1  0.06935900  0.13254100  0.82155400  1
  O  O7  1  0.86745900  0.93681800  0.15488700  1
  O  O8  1  0.13254100  0.06935900  0.17844600  1
  O  O9  1  0.06318200  0.93064100  0.48822100  1
  O  O10  1  0.93681800  0.86745900  0.84511300  1
  O  O11  1  0.93064100  0.06318200  0.51177900  1
  O  O12  1  0.38875500  0.20366500  0.58317500  1
  O  O13  1  0.79633500  0.18509000  0.91650900  1
  O  O14  1  0.20366500  0.38875500  0.41682500  1
  O  O15  1  0.81491000  0.61124500  0.24984200  1
  O  O16  1  0.18509000  0.79633500  0.08349100  1
  O  O17  1  0.61124500  0.81491000  0.75015800  1
  O  O18  1  0.23764800  0.68143800  0.49880300  1
  O  O19  1  0.31856200  0.55621000  0.83213700  1
  O  O20  1  0.68143800  0.23764800  0.50119700  1
  O  O21  1  0.44379000  0.76235200  0.16547000  1
  O  O22  1  0.55621000  0.31856200  0.16786300  1
  O  O23  1  0.76235200  0.44379000  0.83453000  1
  O  O24  1  0.12008300  0.47399200  0.95341400  1
  O  O25  1  0.52600800  0.64609200  0.28674800  1
  O  O26  1  0.47399200  0.12008300  0.04658600  1
  O  O27  1  0.35390800  0.87991700  0.62008100  1
  O  O28  1  0.64609200  0.52600800  0.71325200  1
  O  O29  1  0.87991700  0.35390800  0.37991900  1
  O  O30  1  0.17651100  0.01885800  0.92232100  1
  O  O31  1  0.98114200  0.15765300  0.25565400  1
  O  O32  1  0.01885800  0.17651100  0.07767900  1
  O  O33  1  0.84234700  0.82348900  0.58898700  1
  O  O34  1  0.15765300  0.98114200  0.74434600  1
  O  O35  1  0.82348900  0.84234700  0.41101300  1
  O  O36  1  0.67482600  0.00000000  0.33333300  1
  O  O37  1  0.00000000  0.67482600  0.66666700  1
  O  O38  1  0.32517400  0.32517400  0.00000000  1
  O  O39  1  0.49647200  0.30405700  0.80753700  1
  O  O40  1  0.69594300  0.19241600  0.14087000  1
  O  O41  1  0.30405700  0.49647200  0.19246300  1
  O  O42  1  0.80758400  0.50352800  0.47420400  1
  O  O43  1  0.19241600  0.69594300  0.85913000  1
  O  O44  1  0.50352800  0.80758400  0.52579600  1
  O  O45  1  0.21354900  0.33833400  0.62070500  1
  O  O46  1  0.66166600  0.87521400  0.95403800  1
  O  O47  1  0.33833400  0.21354900  0.37929500  1
  O  O48  1  0.12478600  0.78645100  0.28737200  1
  O  O49  1  0.87521400  0.66166600  0.04596200  1
  O  O50  1  0.78645100  0.12478600  0.71262800  1
  O  O51  1  0.48344200  0.00000000  0.83333300  1
  O  O52  1  0.00000000  0.48344200  0.16666700  1
  O  O53  1  0.51655800  0.51655800  0.50000000  1
loop_
_geom_bond_atom_site_label_1
_geom_bond_atom_site_label_2
_geom_bond_distance
_geom_bond_site_symmetry_2
Cu0 O50 1.969063 1_555
Cu0 O46 1.969064 1_545
Cu0 O17 1.987966 1_545
Cu0 O13 1.987974 1_555
Cu0 O51 2.192948 1_555
Cu1 O48 1.969063 1_555
Cu1 O49 1.969064 1_455
Cu1 O15 1.987966 1_455
Cu1 O16 1.987974 1_555
Cu1 O52 2.192948 1_555
Cu2 O45 1.969058 1_555
Cu2 O47 1.969058 1_555
Cu2 O12 1.987966 1_555
Cu2 O14 1.987966 1_555
Cu2 O53 2.192948 1_555
H0 O12 0.982341 1_555
H1 O13 0.982338 1_555
H2 O14 0.982341 1_555
H3 O15 0.982341 1_555
H4 O16 0.982338 1_555
H5 O17 0.982341 1_555
H6 O45 0.976998 1_555
H7 O46 0.977002 1_554
H8 O47 0.976998 1_555
H9 O48 0.976985 1_555
H10 O49 0.977002 1_556
H11 O50 0.976985 1_555
H12 O12 0.983439 1_555
H13 O13 0.983425 1_555
H14 O14 0.983439 1_555
H15 O15 0.983442 1_555
H16 O16 0.983425 1_555
H17 O17 0.983442 1_555
H18 O51 0.977755 1_555
H19 O52 0.977755 1_655
H20 O52 0.977755 1_555
H21 O53 0.977755 1_555
H22 O51 0.977755 1_565
H23 O53 0.977755 1_555
H24 O45 0.979454 1_555
H25 O46 0.979444 1_555
H26 O47 0.979454 1_555
H27 O48 0.979446 1_555
H28 O49 0.979444 1_555
H29 O50 0.979446 1_555
Cl0 O19 1.455112 1_555
Cl0 O24 1.461982 1_555
Cl0 O0 1.464040 1_555
Cl0 O43 1.481656 1_555
Cl1 O21 1.455114 1_555
Cl1 O25 1.461980 1_555
Cl1 O1 1.464049 1_555
Cl1 O41 1.481660 1_555
Cl2 O22 1.455112 1_555
Cl2 O26 1.461982 1_555
Cl2 O2 1.464040 1_555
Cl2 O40 1.481656 1_555
Cl3 O18 1.455114 1_555
Cl3 O27 1.461985 1_555
Cl3 O3 1.464049 1_555
Cl3 O44 1.481666 1_555
Cl4 O23 1.455114 1_555
Cl4 O28 1.461980 1_555
Cl4 O4 1.464049 1_555
Cl4 O39 1.481660 1_555
Cl5 O20 1.455114 1_555
Cl5 O29 1.461985 1_555
Cl5 O5 1.464049 1_555
Cl5 O42 1.481666 1_555
Cl6 O6 1.454747 1_555
Cl6 O10 1.454748 1_445
Cl6 O34 1.468475 1_545
Cl6 O30 1.468486 1_555
Cl7 O8 1.454747 1_555
Cl7 O7 1.454748 1_445
Cl7 O31 1.468475 1_455
Cl7 O32 1.468486 1_555
Cl8 O9 1.454747 1_655
Cl8 O11 1.454747 1_565
Cl8 O35 1.468475 1_555
Cl8 O33 1.468475 1_555
