# generated using pymatgen
data_CeSe2
_symmetry_space_group_name_H-M   'P 1'
_cell_length_a   6.05012724
_cell_length_b   6.05012724
_cell_length_c   6.05012724
_cell_angle_alpha   60.00000000
_cell_angle_beta   60.00000000
_cell_angle_gamma   60.00000000
_symmetry_Int_Tables_number   1
_chemical_formula_structural   CeSe2
_chemical_formula_sum   'Ce2 Se4'
_cell_volume   156.59522956
_cell_formula_units_Z   2
loop_
 _symmetry_equiv_pos_site_id
 _symmetry_equiv_pos_as_xyz
  1  'x, y, z'
loop_
 _atom_site_type_symbol
 _atom_site_label
 _atom_site_symmetry_multiplicity
 _atom_site_fract_x
 _atom_site_fract_y
 _atom_site_fract_z
 _atom_site_occupancy
  Ce  Ce0  1  0.25000000  0.25000000  0.25000000  1
  Ce  Ce1  1  0.00000000  0.00000000  0.00000000  1
  Se  Se0  1  0.62500000  0.62500000  0.12500000  1
  Se  Se1  1  0.62500000  0.12500000  0.62500000  1
  Se  Se2  1  0.12500000  0.62500000  0.62500000  1
  Se  Se3  1  0.62500000  0.62500000  0.62500000  1
loop_
_geom_bond_atom_site_label_1
_geom_bond_atom_site_label_2
_geom_bond_distance
_geom_bond_site_symmetry_2
Ce0 Se3 3.547202 1_554
Ce0 Se3 3.547202 1_455
Ce0 Se2 3.547202 1_545
Ce0 Se2 3.547202 1_555
Ce0 Se2 3.547202 1_554
Ce0 Se0 3.547202 1_555
Ce0 Se1 3.547202 1_554
Ce0 Se0 3.547202 1_545
Ce0 Se3 3.547202 1_545
Ce0 Se1 3.547202 1_555
Ce0 Se1 3.547202 1_455
Ce0 Se0 3.547202 1_455
Ce1 Se3 3.547202 1_454
Ce1 Se2 3.547202 1_544
Ce1 Se2 3.547202 1_545
Ce1 Se3 3.547202 1_544
Ce1 Se2 3.547202 1_554
Ce1 Se0 3.547202 1_445
Ce1 Se3 3.547202 1_445
Ce1 Se0 3.547202 1_455
Ce1 Se1 3.547202 1_455
Ce1 Se1 3.547202 1_454
Ce1 Se0 3.547202 1_545
Ce1 Se1 3.547202 1_554
Se0 Se3 3.025064 1_555
Se0 Se1 3.025064 1_555
Se0 Se1 3.025064 1_564
Se0 Se3 3.025064 1_554
Se0 Se2 3.025064 1_654
Se0 Se2 3.025064 1_555
Se1 Se3 3.025064 1_555
Se1 Se3 3.025064 1_545
Se1 Se2 3.025064 1_645
Se1 Se2 3.025064 1_555
Se2 Se3 3.025064 1_555
Se2 Se3 3.025064 1_455
