# generated using pymatgen
data_Mg14MnV
_symmetry_space_group_name_H-M   'P 1'
_cell_length_a   6.30124943
_cell_length_b   6.30124894
_cell_length_c   10.03398584
_cell_angle_alpha   90.00000000
_cell_angle_beta   90.00000000
_cell_angle_gamma   120.00000264
_symmetry_Int_Tables_number   1
_chemical_formula_structural   Mg14MnV
_chemical_formula_sum   'Mg14 Mn1 V1'
_cell_volume   345.03044025
_cell_formula_units_Z   1
loop_
 _symmetry_equiv_pos_site_id
 _symmetry_equiv_pos_as_xyz
  1  'x, y, z'
loop_
 _atom_site_type_symbol
 _atom_site_label
 _atom_site_symmetry_multiplicity
 _atom_site_fract_x
 _atom_site_fract_y
 _atom_site_fract_z
 _atom_site_occupancy
  Mg  Mg0  1  0.16827409  0.83413655  0.12500000  1
  Mg  Mg1  1  0.16886975  0.83443437  0.62500000  1
  Mg  Mg2  1  0.66586345  0.33172591  0.12500000  1
  Mg  Mg3  1  0.66556563  0.33113025  0.62500000  1
  Mg  Mg4  1  0.66586345  0.83413655  0.12500000  1
  Mg  Mg5  1  0.66556563  0.83443437  0.62500000  1
  Mg  Mg6  1  0.32863223  0.17136777  0.37458836  1
  Mg  Mg7  1  0.32863223  0.17136777  0.87541164  1
  Mg  Mg8  1  0.32863223  0.65726546  0.37458836  1
  Mg  Mg9  1  0.32863223  0.65726546  0.87541164  1
  Mg  Mg10  1  0.84273454  0.17136777  0.37458836  1
  Mg  Mg11  1  0.84273454  0.17136777  0.87541164  1
  Mg  Mg12  1  0.83333300  0.66666700  0.37483870  1
  Mg  Mg13  1  0.83333300  0.66666700  0.87516130  1
  Mn  Mn0  1  0.16666700  0.33333300  0.12500000  1
  V  V0  1  0.16666700  0.33333300  0.62500000  1
loop_
_geom_bond_atom_site_label_1
_geom_bond_atom_site_label_2
_geom_bond_distance
_geom_bond_site_symmetry_2
Mg0 Mg12 3.102458 1_455
Mg0 Mg13 3.102458 1_454
Mg0 Mg9 3.108241 1_554
Mg0 Mg8 3.108241 1_555
Mg0 Mg7 3.108248 1_564
Mg0 Mg6 3.108248 1_565
Mg0 Mg2 3.135434 1_565
Mg0 Mg4 3.135435 1_555
Mg0 Mn0 3.150637 1_565
Mg0 Mn0 3.150637 1_555
Mg0 Mg2 3.165815 1_455
Mg0 Mg4 3.165815 1_455
Mg1 Mg13 3.106989 1_455
Mg1 Mg12 3.106989 1_455
Mg1 Mg8 3.113989 1_555
Mg1 Mg9 3.113989 1_555
Mg1 Mg6 3.113996 1_565
Mg1 Mg7 3.113996 1_565
Mg1 Mg3 3.129804 1_565
Mg1 Mg5 3.129805 1_555
Mg1 V0 3.150647 1_555
Mg1 V0 3.150647 1_565
Mg1 Mg3 3.171445 1_455
Mg1 Mg5 3.171445 1_455
Mg2 Mg7 3.108248 1_554
Mg2 Mg6 3.108248 1_555
Mg2 Mg4 3.135434 1_545
Mg2 Mn0 3.150637 1_555
Mg2 Mn0 3.150637 1_655
Mg2 Mg4 3.165815 1_555
Mg3 Mg6 3.113996 1_555
Mg3 Mg7 3.113996 1_555
Mg3 Mg5 3.129804 1_545
Mg3 V0 3.150648 1_655
Mg3 V0 3.150648 1_555
Mg3 Mg5 3.171445 1_555
Mg4 Mg8 3.108248 1_555
Mg4 Mg9 3.108248 1_554
Mg4 Mn0 3.150637 1_555
Mg4 Mn0 3.150637 1_665
Mg5 Mg8 3.113996 1_555
Mg5 Mg9 3.113996 1_555
Mg5 V0 3.150647 1_555
Mg5 V0 3.150647 1_665
Mg6 Mg8 3.061762 1_555
Mg6 Mn0 3.065391 1_555
Mg6 V0 3.072143 1_555
Mg6 Mg8 3.239487 1_545
Mg7 Mg9 3.061762 1_555
Mg7 Mn0 3.065391 1_556
Mg7 V0 3.072143 1_555
Mg7 Mg9 3.239487 1_545
Mg8 Mn0 3.065397 1_555
Mg8 V0 3.072149 1_555
Mg9 Mn0 3.065397 1_556
Mg9 V0 3.072149 1_555
Mg10 Mg8 3.061762 1_655
Mg10 Mg6 3.061763 1_655
Mg10 Mn0 3.065397 1_655
Mg10 V0 3.072150 1_655
Mg10 Mg2 3.108241 1_555
Mg10 Mg4 3.108248 1_545
Mg10 Mg3 3.113989 1_555
Mg10 Mg5 3.113996 1_545
Mg10 Mg12 3.151043 1_545
Mg10 Mg12 3.151043 1_555
Mg10 Mg8 3.239487 1_545
Mg10 Mg6 3.239487 1_555
Mg11 Mg9 3.061762 1_655
Mg11 Mg7 3.061763 1_655
Mg11 Mn0 3.065397 1_656
Mg11 V0 3.072150 1_655
Mg11 Mg2 3.108241 1_556
Mg11 Mg4 3.108248 1_546
Mg11 Mg3 3.113989 1_555
Mg11 Mg5 3.113996 1_545
Mg11 Mg13 3.151043 1_545
Mg11 Mg13 3.151043 1_555
Mg11 Mg9 3.239487 1_545
Mg11 Mg7 3.239487 1_555
Mg12 Mg4 3.102451 1_555
Mg12 Mg2 3.102458 1_555
Mg12 Mg5 3.106982 1_555
Mg12 Mg3 3.106988 1_555
Mg12 Mg6 3.151043 1_665
Mg12 Mg6 3.151043 1_555
Mg12 Mg8 3.151043 1_555
Mg12 Mg8 3.151043 1_655
Mg13 Mg4 3.102451 1_556
Mg13 Mg2 3.102458 1_556
Mg13 Mg5 3.106982 1_555
Mg13 Mg3 3.106988 1_555
Mg13 Mg7 3.151043 1_665
Mg13 Mg7 3.151043 1_555
Mg13 Mg9 3.151043 1_555
Mg13 Mg9 3.151043 1_655
