# generated using pymatgen
data_Na3P
_symmetry_space_group_name_H-M   'P 1'
_cell_length_a   4.92021676
_cell_length_b   4.92021746
_cell_length_c   8.76521101
_cell_angle_alpha   90.00000000
_cell_angle_beta   90.00000000
_cell_angle_gamma   119.99999526
_symmetry_Int_Tables_number   1
_chemical_formula_structural   Na3P
_chemical_formula_sum   'Na6 P2'
_cell_volume   183.76447672
_cell_formula_units_Z   2
loop_
 _symmetry_equiv_pos_site_id
 _symmetry_equiv_pos_as_xyz
  1  'x, y, z'
loop_
 _atom_site_type_symbol
 _atom_site_label
 _atom_site_symmetry_multiplicity
 _atom_site_fract_x
 _atom_site_fract_y
 _atom_site_fract_z
 _atom_site_occupancy
  Na  Na0  1  -0.00000000  -0.00000000  0.25000000  1
  Na  Na1  1  -0.00000000  -0.00000000  0.75000000  1
  Na  Na2  1  0.33333300  0.66666700  0.58021551  1
  Na  Na3  1  0.66666700  0.33333300  0.08021551  1
  Na  Na4  1  0.66666700  0.33333300  0.41978449  1
  Na  Na5  1  0.33333300  0.66666700  0.91978449  1
  P  P0  1  0.33333300  0.66666700  0.25000000  1
  P  P1  1  0.66666700  0.33333300  0.75000000  1
loop_
_geom_bond_atom_site_label_1
_geom_bond_atom_site_label_2
_geom_bond_distance
_geom_bond_site_symmetry_2
Na0 P0 2.840686 1_545
Na0 P0 2.840690 1_445
Na0 P0 2.840690 1_555
Na1 P1 2.840686 1_455
Na1 P1 2.840690 1_555
Na1 P1 2.840690 1_445
Na2 P0 2.894409 1_555
Na2 P1 3.206903 1_455
Na2 P1 3.206903 1_565
Na2 P1 3.206910 1_555
Na3 P1 2.894409 1_554
Na3 P0 3.206903 1_655
Na3 P0 3.206903 1_545
Na3 P0 3.206910 1_555
Na4 P1 2.894409 1_555
Na4 P0 3.206903 1_655
Na4 P0 3.206903 1_545
Na4 P0 3.206910 1_555
Na5 P0 2.894409 1_556
Na5 P1 3.206903 1_455
Na5 P1 3.206903 1_565
Na5 P1 3.206910 1_555
