# generated using pymatgen
data_Sr2Ta2O7
_symmetry_space_group_name_H-M   'P 1'
_cell_length_a   13.81974189
_cell_length_b   13.81974189
_cell_length_c   5.71108702
_cell_angle_alpha   90.00000000
_cell_angle_beta   90.00000000
_cell_angle_gamma   163.51882644
_symmetry_Int_Tables_number   1
_chemical_formula_structural   Sr2Ta2O7
_chemical_formula_sum   'Sr4 Ta4 O14'
_cell_volume   309.44138871
_cell_formula_units_Z   2
loop_
 _symmetry_equiv_pos_site_id
 _symmetry_equiv_pos_as_xyz
  1  'x, y, z'
loop_
 _atom_site_type_symbol
 _atom_site_label
 _atom_site_symmetry_multiplicity
 _atom_site_fract_x
 _atom_site_fract_y
 _atom_site_fract_z
 _atom_site_occupancy
  Sr  Sr0  1  0.44688993  0.55311007  0.23714189  1
  Sr  Sr1  1  0.55311007  0.44688993  0.73714189  1
  Sr  Sr2  1  0.28642106  0.71357894  0.75025723  1
  Sr  Sr3  1  0.71357894  0.28642106  0.25025723  1
  Ta  Ta0  1  0.94501339  0.05498661  0.73936495  1
  Ta  Ta1  1  0.05498661  0.94501339  0.23936495  1
  Ta  Ta2  1  0.84051360  0.15948640  0.24385704  1
  Ta  Ta3  1  0.15948640  0.84051360  0.74385704  1
  O  O0  1  0.20751398  0.79248602  0.51091005  1
  O  O1  1  0.79248602  0.20751398  0.01091005  1
  O  O2  1  0.10100307  0.89899693  0.48785875  1
  O  O3  1  0.89899693  0.10100307  0.98785875  1
  O  O4  1  0.64905786  0.35094214  0.73926998  1
  O  O5  1  0.35094214  0.64905786  0.23926998  1
  O  O6  1  0.54677111  0.45322889  0.23670155  1
  O  O7  1  0.45322889  0.54677111  0.73670155  1
  O  O8  1  0.00181365  0.99818635  0.49528209  1
  O  O9  1  0.99818635  0.00181365  0.99528209  1
  O  O10  1  0.90270652  0.09729348  0.47194873  1
  O  O11  1  0.09729348  0.90270652  0.97194873  1
  O  O12  1  0.79521353  0.20478647  0.48760874  1
  O  O13  1  0.20478647  0.79521353  0.98760874  1
loop_
_geom_bond_atom_site_label_1
_geom_bond_atom_site_label_2
_geom_bond_distance
_geom_bond_site_symmetry_2
O0 Ta3 1.869721 1_555
O0 Sr3 2.483343 1_455
O0 Sr3 2.483343 1_565
O0 Sr2 2.554865 1_555
O1 Ta2 1.869721 1_555
O1 Sr2 2.483343 1_654
O1 Sr2 2.483343 1_544
O1 Sr3 2.554865 1_555
O2 Ta1 1.896962 1_555
O2 Ta3 2.167200 1_555
O2 Sr1 2.768871 1_455
O2 Sr1 2.768871 1_565
O3 Ta0 1.896962 1_555
O3 Ta2 2.167200 1_556
O3 Sr0 2.768871 1_546
O3 Sr0 2.768871 1_656
O4 Ta3 2.001391 1_655
O4 Ta3 2.001391 1_545
O4 Sr1 2.624594 1_555
O5 Ta2 2.001391 1_565
O5 Ta2 2.001391 1_455
O5 Sr0 2.624594 1_555
O6 Ta1 1.993549 1_545
O6 Ta1 1.993549 1_655
O6 Sr0 2.732161 1_555
O6 Sr1 2.858293 1_554
O6 Sr1 2.863313 1_555
O7 Ta0 1.993549 1_455
O7 Ta0 1.993549 1_565
O7 Sr1 2.732161 1_555
O7 Sr0 2.858293 1_555
O7 Sr0 2.863313 1_556
O8 Ta1 2.061975 1_555
O8 Ta0 2.087396 1_465
O8 Sr1 2.792906 1_455
O8 Sr1 2.792906 1_565
O8 Sr0 2.890350 1_455
O8 Sr0 2.890350 1_565
O9 Ta0 2.061975 1_555
O9 Ta1 2.087396 1_646
O9 Sr0 2.792906 1_546
O9 Sr0 2.792906 1_656
O9 Sr1 2.890350 1_545
O9 Sr1 2.890350 1_655
O10 Ta0 1.916173 1_555
O10 Ta2 2.142683 1_555
O10 Sr0 2.680019 1_655
O10 Sr0 2.680019 1_545
O11 Ta1 1.916173 1_556
O11 Ta3 2.142683 1_555
O11 Sr1 2.680019 1_565
O11 Sr1 2.680019 1_455
O12 Ta2 1.863701 1_555
O12 Sr2 2.496272 1_655
O12 Sr2 2.496272 1_545
O12 Sr3 2.612269 1_555
O13 Ta3 1.863701 1_555
O13 Sr3 2.496272 1_566
O13 Sr3 2.496272 1_456
O13 Sr2 2.612269 1_555
