# generated using pymatgen
data_Te2Mo(WSe2)2
_symmetry_space_group_name_H-M   'P 1'
_cell_length_a   3.40160582
_cell_length_b   3.40160582
_cell_length_c   31.44009000
_cell_angle_alpha   90.00000000
_cell_angle_beta   90.00000000
_cell_angle_gamma   119.99999647
_symmetry_Int_Tables_number   1
_chemical_formula_structural   Te2Mo(WSe2)2
_chemical_formula_sum   'Te2 Mo1 W2 Se4'
_cell_volume   315.05211476
_cell_formula_units_Z   1
loop_
 _symmetry_equiv_pos_site_id
 _symmetry_equiv_pos_as_xyz
  1  'x, y, z'
loop_
 _atom_site_type_symbol
 _atom_site_label
 _atom_site_symmetry_multiplicity
 _atom_site_fract_x
 _atom_site_fract_y
 _atom_site_fract_z
 _atom_site_occupancy
  Te  Te0  1  0.33333300  0.66666700  0.51845700  1
  Te  Te1  1  0.33333300  0.66666700  0.63816900  1
  Mo  Mo0  1  0.00000000  0.00000000  0.11565600  1
  W  W0  1  0.00000000  0.00000000  0.57832400  1
  W  W1  1  0.33333300  0.66666700  0.34696600  1
  Se  Se0  1  0.00000000  0.00000000  0.39956700  1
  Se  Se1  1  0.33333300  0.66666700  0.06316600  1
  Se  Se2  1  0.33333300  0.66666700  0.16815800  1
  Se  Se3  1  0.00000000  0.00000000  0.29437700  1
loop_
_geom_bond_atom_site_label_1
_geom_bond_atom_site_label_2
_geom_bond_distance
_geom_bond_site_symmetry_2
Te0 W0 2.720245 1_565
Te0 W0 2.720247 1_555
Te0 W0 2.720247 1_665
Te1 W0 2.719766 1_565
Te1 W0 2.719769 1_555
Te1 W0 2.719769 1_665
Mo0 Se1 2.565234 1_545
Mo0 Se1 2.565236 1_555
Mo0 Se1 2.565236 1_445
Mo0 Se2 2.565477 1_545
Mo0 Se2 2.565479 1_445
Mo0 Se2 2.565479 1_555
Se0 W1 2.567480 1_545
Se0 W1 2.567483 1_445
Se0 W1 2.567483 1_555
Se3 W1 2.567237 1_545
Se3 W1 2.567240 1_555
Se3 W1 2.567240 1_445
