# generated using pymatgen
data_ScTe3
_symmetry_space_group_name_H-M   'P 1'
_cell_length_a   7.14358741
_cell_length_b   7.14358741
_cell_length_c   5.10053200
_cell_angle_alpha   90.00000000
_cell_angle_beta   90.00000000
_cell_angle_gamma   119.99999453
_symmetry_Int_Tables_number   1
_chemical_formula_structural   ScTe3
_chemical_formula_sum   'Sc2 Te6'
_cell_volume   225.41294784
_cell_formula_units_Z   2
loop_
 _symmetry_equiv_pos_site_id
 _symmetry_equiv_pos_as_xyz
  1  'x, y, z'
loop_
 _atom_site_type_symbol
 _atom_site_label
 _atom_site_symmetry_multiplicity
 _atom_site_fract_x
 _atom_site_fract_y
 _atom_site_fract_z
 _atom_site_occupancy
  Sc  Sc0  1  0.33333300  0.66666700  0.75000000  1
  Sc  Sc1  1  0.66666700  0.33333300  0.25000000  1
  Te  Te0  1  0.18417600  0.36835300  0.25000000  1
  Te  Te1  1  0.63164700  0.81582400  0.25000000  1
  Te  Te2  1  0.18417600  0.81582400  0.25000000  1
  Te  Te3  1  0.81582400  0.63164700  0.75000000  1
  Te  Te4  1  0.36835300  0.18417600  0.75000000  1
  Te  Te5  1  0.81582400  0.18417600  0.75000000  1
loop_
_geom_bond_atom_site_label_1
_geom_bond_atom_site_label_2
_geom_bond_distance
_geom_bond_site_symmetry_2
Sc0 Te2 3.147988 1_556
Sc0 Te2 3.147988 1_555
Sc0 Te1 3.147988 1_555
Sc0 Te0 3.147988 1_555
Sc0 Te0 3.147988 1_556
Sc0 Te1 3.147988 1_556
Sc0 Te4 3.578351 1_565
Sc0 Te3 3.578351 1_455
Sc0 Te5 3.578358 1_565
Sc0 Te5 3.578358 1_455
Sc0 Te3 3.578365 1_555
Sc0 Te4 3.578365 1_555
Sc1 Te5 3.147988 1_554
Sc1 Te5 3.147988 1_555
Sc1 Te3 3.147988 1_554
Sc1 Te3 3.147988 1_555
Sc1 Te4 3.147988 1_554
Sc1 Te4 3.147988 1_555
Sc1 Te0 3.578351 1_655
Sc1 Te1 3.578351 1_545
Sc1 Te2 3.578358 1_655
Sc1 Te2 3.578358 1_545
Sc1 Te1 3.578365 1_555
Sc1 Te0 3.578365 1_555
Te0 Te2 3.196548 1_555
Te0 Te1 3.196548 1_555
Te0 Te5 3.420070 1_455
Te0 Te5 3.420070 1_454
Te0 Te4 3.420078 1_554
Te0 Te4 3.420078 1_555
Te1 Te2 3.196548 1_555
Te1 Te5 3.420070 1_565
Te1 Te5 3.420070 1_564
Te1 Te3 3.420078 1_554
Te1 Te3 3.420078 1_555
Te2 Te4 3.420070 1_565
Te2 Te3 3.420070 1_455
Te2 Te4 3.420070 1_564
Te2 Te3 3.420070 1_454
Te3 Te5 3.196548 1_555
Te3 Te4 3.196548 1_555
Te4 Te5 3.196548 1_555
