# generated using pymatgen
data_Li2MnO3
_symmetry_space_group_name_H-M   'P 1'
_cell_length_a   2.89032102
_cell_length_b   5.93693153
_cell_length_c   12.54405429
_cell_angle_alpha   103.46603843
_cell_angle_beta   89.96158051
_cell_angle_gamma   90.15226613
_symmetry_Int_Tables_number   1
_chemical_formula_structural   Li2MnO3
_chemical_formula_sum   'Li8 Mn4 O12'
_cell_volume   209.33302548
_cell_formula_units_Z   4
loop_
 _symmetry_equiv_pos_site_id
 _symmetry_equiv_pos_as_xyz
  1  'x, y, z'
loop_
 _atom_site_type_symbol
 _atom_site_label
 _atom_site_symmetry_multiplicity
 _atom_site_fract_x
 _atom_site_fract_y
 _atom_site_fract_z
 _atom_site_occupancy
  Li  Li0  1  0.00000000  0.16667300  0.33333200  1
  Li  Li1  1  0.49999900  0.66666200  0.83333600  1
  Li  Li2  1  0.00000000  0.66665900  0.33333800  1
  Li  Li3  1  0.49999800  0.16667300  0.83332900  1
  Li  Li4  1  0.49828800  0.98737100  0.48894500  1
  Li  Li5  1  0.99828700  0.48738200  0.98894000  1
  Li  Li6  1  0.50171000  0.34595100  0.17772800  1
  Li  Li7  1  0.00170900  0.84596300  0.67772200  1
  Mn  Mn0  1  0.00094600  0.00091200  0.99342400  1
  Mn  Mn1  1  0.49905000  0.83242300  0.17324400  1
  Mn  Mn2  1  0.50093600  0.50092500  0.49341600  1
  Mn  Mn3  1  0.99908100  0.33240800  0.67325100  1
  O  O0  1  0.50205700  0.22149500  0.00439100  1
  O  O1  1  0.00206600  0.72148100  0.50440000  1
  O  O2  1  0.99794200  0.61183800  0.16227600  1
  O  O3  1  0.49793500  0.11185300  0.66226600  1
  O  O4  1  0.00046800  0.05442500  0.16105100  1
  O  O5  1  0.50046600  0.55444400  0.66104800  1
  O  O6  1  0.49953100  0.77890700  0.00561500  1
  O  O7  1  0.99953200  0.27889400  0.50561900  1
  O  O8  1  0.49912300  0.91180100  0.32137100  1
  O  O9  1  0.99911300  0.41180400  0.82136400  1
  O  O10  1  0.50088800  0.42152700  0.34530200  1
  O  O11  1  0.00087800  0.92153000  0.84529600  1
loop_
_geom_bond_atom_site_label_1
_geom_bond_atom_site_label_2
_geom_bond_distance
_geom_bond_site_symmetry_2
Li0 O10 2.071381 1_555
Li0 O8 2.071446 1_445
Li0 O10 2.073269 1_455
Li0 O8 2.073379 1_545
Li0 O4 2.108013 1_555
Li0 O7 2.108073 1_455
Li1 O9 2.071392 1_455
Li1 O11 2.071435 1_655
Li1 O9 2.073288 1_555
Li1 O11 2.073359 1_555
Li1 O6 2.107988 1_556
Li1 O5 2.108083 1_555
Li2 O10 2.076503 1_455
Li2 O8 2.076576 1_555
Li2 O10 2.085579 1_555
Li2 O8 2.085608 1_455
Li2 O1 2.094088 1_555
Li2 O2 2.094089 1_455
Li3 O9 2.076508 1_555
Li3 O11 2.076575 1_545
Li3 O9 2.085572 1_455
Li3 O11 2.085619 1_645
Li3 O0 2.094088 1_556
Li3 O3 2.094102 1_555
Li4 O8 2.044677 1_555
Li4 O3 2.127149 1_565
Li4 O1 2.171783 1_555
Li4 O1 2.191978 1_655
Li4 O7 2.226348 1_565
Li4 O7 2.227469 1_465
Li5 O9 2.044701 1_555
Li5 O2 2.127309 1_556
Li5 O0 2.171772 1_556
Li5 O0 2.191936 1_656
Li5 O6 2.226356 1_656
Li5 O6 2.227477 1_556
Li6 O10 2.044676 1_555
Li6 O0 2.127321 1_555
Li6 O2 2.171779 1_555
Li6 O2 2.191936 1_455
Li6 O4 2.226354 1_555
Li6 O4 2.227483 1_655
Li7 O11 2.044677 1_555
Li7 O1 2.127161 1_555
Li7 O3 2.171794 1_565
Li7 O3 2.191973 1_465
Li7 O5 2.226328 1_455
Li7 O5 2.227453 1_555
Mn0 O11 1.807454 1_545
Mn0 O0 1.933391 1_556
Mn0 O0 1.933655 1_456
Mn0 O6 1.985330 1_546
Mn0 O6 1.986035 1_446
Mn0 O4 2.052132 1_556
Mn1 O8 1.807442 1_555
Mn1 O2 1.933391 1_455
Mn1 O2 1.933669 1_555
Mn1 O4 1.985317 1_565
Mn1 O4 1.986035 1_665
Mn1 O6 2.052155 1_555
Mn2 O10 1.807286 1_555
Mn2 O1 1.933308 1_655
Mn2 O1 1.933489 1_555
Mn2 O7 1.985493 1_555
Mn2 O7 1.986152 1_455
Mn2 O5 2.052191 1_555
Mn3 O9 1.807274 1_555
Mn3 O3 1.933338 1_555
Mn3 O3 1.933450 1_655
Mn3 O5 1.985554 1_555
Mn3 O5 1.986132 1_655
Mn3 O7 2.052193 1_555
