# generated using pymatgen
data_La3CoSiS7
_symmetry_space_group_name_H-M   'P 1'
_cell_length_a   10.32608841
_cell_length_b   10.32608841
_cell_length_c   5.73918700
_cell_angle_alpha   90.00000000
_cell_angle_beta   90.00000000
_cell_angle_gamma   120.00000261
_symmetry_Int_Tables_number   1
_chemical_formula_structural   La3CoSiS7
_chemical_formula_sum   'La6 Co2 Si2 S14'
_cell_volume   529.97169329
_cell_formula_units_Z   2
loop_
 _symmetry_equiv_pos_site_id
 _symmetry_equiv_pos_as_xyz
  1  'x, y, z'
loop_
 _atom_site_type_symbol
 _atom_site_label
 _atom_site_symmetry_multiplicity
 _atom_site_fract_x
 _atom_site_fract_y
 _atom_site_fract_z
 _atom_site_occupancy
  La  La0  1  0.23255600  0.87842700  0.76641700  1
  La  La1  1  0.64587000  0.76744400  0.76641700  1
  La  La2  1  0.76744400  0.12157300  0.26641700  1
  La  La3  1  0.12157300  0.35413000  0.76641700  1
  La  La4  1  0.35413000  0.23255600  0.26641700  1
  La  La5  1  0.87842700  0.64587000  0.26641700  1
  Co  Co0  1  0.00000000  0.00000000  0.00224600  1
  Co  Co1  1  0.00000000  0.00000000  0.50224600  1
  Si  Si0  1  0.66666700  0.33333300  0.85066900  1
  Si  Si1  1  0.33333300  0.66666700  0.35066900  1
  S  S0  1  0.66666700  0.33333300  0.48509000  1
  S  S1  1  0.33333300  0.66666700  0.98509000  1
  S  S2  1  0.59110700  0.47624500  0.99076700  1
  S  S3  1  0.88513800  0.40889300  0.99076700  1
  S  S4  1  0.40889300  0.52375500  0.49076700  1
  S  S5  1  0.52375500  0.11486200  0.99076700  1
  S  S6  1  0.11486200  0.59110700  0.49076700  1
  S  S7  1  0.47624500  0.88513800  0.49076700  1
  S  S8  1  0.92050400  0.76583000  0.75314800  1
  S  S9  1  0.84532600  0.07949600  0.75314800  1
  S  S10  1  0.07949600  0.23417000  0.25314800  1
  S  S11  1  0.23417000  0.15467400  0.75314800  1
  S  S12  1  0.15467400  0.92050400  0.25314800  1
  S  S13  1  0.76583000  0.84532600  0.25314800  1
loop_
_geom_bond_atom_site_label_1
_geom_bond_atom_site_label_2
_geom_bond_distance
_geom_bond_site_symmetry_2
La0 S8 2.827403 1_455
La0 S11 2.845274 1_565
La0 S7 2.943672 1_555
La0 S12 2.998046 1_556
La0 S6 3.029269 1_555
La0 S5 3.052699 1_565
La0 S1 3.116874 1_555
La0 S12 3.140445 1_555
La1 S9 2.827405 1_565
La1 S8 2.845284 1_555
La1 S4 2.943668 1_555
La1 S13 2.998049 1_556
La1 S7 3.029261 1_555
La1 S2 3.052702 1_555
La1 S1 3.116874 1_555
La1 S13 3.140448 1_555
La2 S10 2.827403 1_655
La2 S13 2.845274 1_545
La2 S5 2.943672 1_554
La2 S9 2.998046 1_555
La2 S3 3.029269 1_554
La2 S7 3.052699 1_545
La2 S0 3.116874 1_555
La2 S9 3.140445 1_554
La3 S11 2.827413 1_555
La3 S9 2.845279 1_455
La3 S6 2.943664 1_555
La3 S10 2.998049 1_556
La3 S4 3.029268 1_555
La3 S3 3.052693 1_455
La3 S1 3.116874 1_555
La3 S10 3.140448 1_555
La4 S12 2.827405 1_545
La4 S10 2.845284 1_555
La4 S2 2.943668 1_554
La4 S11 2.998049 1_555
La4 S5 3.029261 1_554
La4 S4 3.052702 1_555
La4 S0 3.116874 1_555
La4 S11 3.140448 1_554
La5 S13 2.827413 1_555
La5 S12 2.845279 1_655
La5 S3 2.943664 1_554
La5 S8 2.998049 1_555
La5 S2 3.029268 1_554
La5 S6 3.052693 1_655
La5 S0 3.116874 1_555
La5 S8 3.140448 1_554
Co0 S11 2.565099 1_554
Co0 S8 2.565099 1_444
Co0 S9 2.565099 1_454
Co0 S13 2.570884 1_445
Co0 S10 2.570884 1_555
Co0 S12 2.570884 1_545
Co1 S13 2.565099 1_445
Co1 S10 2.565099 1_555
Co1 S12 2.565099 1_545
Co1 S11 2.570884 1_555
Co1 S8 2.570884 1_445
Co1 S9 2.570884 1_455
S0 Si0 2.098126 1_555
S1 Si1 2.098126 1_556
S2 Si0 2.141130 1_555
S3 Si0 2.141121 1_555
S4 Si1 2.141130 1_555
S5 Si0 2.141123 1_555
S6 Si1 2.141121 1_555
S7 Si1 2.141123 1_555
