# generated using pymatgen
data_RbYBeF6
_symmetry_space_group_name_H-M   'P 1'
_cell_length_a   5.91297500
_cell_length_b   6.56510200
_cell_length_c   7.25924503
_cell_angle_alpha   66.32612737
_cell_angle_beta   90.00000000
_cell_angle_gamma   90.00000000
_symmetry_Int_Tables_number   1
_chemical_formula_structural   RbYBeF6
_chemical_formula_sum   'Rb2 Y2 Be2 F12'
_cell_volume   258.08414795
_cell_formula_units_Z   2
loop_
 _symmetry_equiv_pos_site_id
 _symmetry_equiv_pos_as_xyz
  1  'x, y, z'
loop_
 _atom_site_type_symbol
 _atom_site_label
 _atom_site_symmetry_multiplicity
 _atom_site_fract_x
 _atom_site_fract_y
 _atom_site_fract_z
 _atom_site_occupancy
  Rb  Rb0  1  0.25000000  0.07850200  0.78771400  1
  Rb  Rb1  1  0.75000000  0.92149800  0.21228600  1
  Y  Y0  1  0.25000000  0.39145000  0.18036500  1
  Y  Y1  1  0.75000000  0.60855000  0.81963500  1
  Be  Be0  1  0.25000000  0.76730700  0.46439600  1
  Be  Be1  1  0.75000000  0.23269300  0.53560400  1
  F  F0  1  0.46401200  0.75856100  0.59513400  1
  F  F1  1  0.53598800  0.24143900  0.40486600  1
  F  F2  1  0.96401200  0.24143900  0.40486600  1
  F  F3  1  0.03598800  0.75856100  0.59513400  1
  F  F4  1  0.25000000  0.56945500  0.39888400  1
  F  F5  1  0.75000000  0.43054500  0.60111600  1
  F  F6  1  0.49901200  0.67559200  0.03101400  1
  F  F7  1  0.50098800  0.32440800  0.96898600  1
  F  F8  1  0.99901200  0.32440800  0.96898600  1
  F  F9  1  0.00098800  0.67559200  0.03101400  1
  F  F10  1  0.25000000  0.99371000  0.27233900  1
  F  F11  1  0.75000000  0.00629000  0.72766100  1
loop_
_geom_bond_atom_site_label_1
_geom_bond_atom_site_label_2
_geom_bond_distance
_geom_bond_site_symmetry_2
Be0 F4 1.552232 1_555
Be0 F0 1.568951 1_555
Be0 F3 1.568951 1_555
Be0 F10 1.577616 1_555
Be1 F5 1.552232 1_555
Be1 F2 1.568951 1_555
Be1 F1 1.568951 1_555
Be1 F11 1.577616 1_555
F0 Y1 2.279596 1_555
F0 Rb1 3.056197 1_555
F0 Rb0 3.213361 1_565
F1 Y0 2.279596 1_555
F1 Rb0 3.056197 1_555
F1 Rb1 3.213361 1_545
F2 Y0 2.279596 1_655
F2 Rb0 3.056197 1_655
F2 Rb1 3.213361 1_545
F3 Y1 2.279596 1_455
F3 Rb1 3.056197 1_455
F3 Rb0 3.213361 1_565
F4 Y0 2.317467 1_555
F4 Rb0 3.324133 1_555
F5 Y1 2.317467 1_555
F5 Rb1 3.324133 1_555
F6 Y0 2.280144 1_555
F6 Y1 2.300682 1_554
F6 Rb1 2.871652 1_555
F6 Rb0 2.921028 1_564
F7 Y1 2.280144 1_555
F7 Y0 2.300682 1_556
F7 Rb0 2.871652 1_555
F7 Rb1 2.921028 1_546
F8 Y1 2.280144 1_555
F8 Y0 2.300682 1_656
F8 Rb0 2.871652 1_655
F8 Rb1 2.921028 1_546
F9 Y0 2.280144 1_555
F9 Y1 2.300682 1_454
F9 Rb1 2.871652 1_455
F9 Rb0 2.921028 1_564
F10 Y0 2.421591 1_565
F10 Rb1 3.053126 1_455
F10 Rb1 3.053126 1_555
F10 Rb0 3.333707 1_564
F11 Y1 2.421591 1_545
F11 Rb0 3.053126 1_655
F11 Rb0 3.053126 1_555
F11 Rb1 3.333707 1_546
