# generated using pymatgen
data_Li2Lu5B3O13
_symmetry_space_group_name_H-M   'P 1'
_cell_length_a   3.45158066
_cell_length_b   9.97280293
_cell_length_c   15.52711269
_cell_angle_alpha   74.69051858
_cell_angle_beta   90.00000000
_cell_angle_gamma   90.00000000
_symmetry_Int_Tables_number   1
_chemical_formula_structural   Li2Lu5B3O13
_chemical_formula_sum   'Li4 Lu10 B6 O26'
_cell_volume   515.50678688
_cell_formula_units_Z   2
loop_
 _symmetry_equiv_pos_site_id
 _symmetry_equiv_pos_as_xyz
  1  'x, y, z'
loop_
 _atom_site_type_symbol
 _atom_site_label
 _atom_site_symmetry_multiplicity
 _atom_site_fract_x
 _atom_site_fract_y
 _atom_site_fract_z
 _atom_site_occupancy
  Li  Li0  1  0.25000000  0.38598594  0.05275388  1
  Li  Li1  1  0.75000000  0.61401406  0.94724612  1
  Li  Li2  1  0.25000000  0.74830055  0.75456013  1
  Li  Li3  1  0.75000000  0.25169945  0.24543987  1
  Lu  Lu0  1  0.25000000  0.85572964  0.00137336  1
  Lu  Lu1  1  0.75000000  0.14427036  0.99862664  1
  Lu  Lu2  1  0.25000000  0.36110431  0.56350753  1
  Lu  Lu3  1  0.75000000  0.63889569  0.43649247  1
  Lu  Lu4  1  0.25000000  0.47845534  0.30309534  1
  Lu  Lu5  1  0.75000000  0.52154466  0.69690466  1
  Lu  Lu6  1  0.25000000  0.18816991  0.79380865  1
  Lu  Lu7  1  0.75000000  0.81183009  0.20619135  1
  Lu  Lu8  1  0.25000000  0.96333073  0.37002765  1
  Lu  Lu9  1  0.75000000  0.03666927  0.62997235  1
  B  B0  1  0.25000000  0.78908427  0.57565600  1
  B  B1  1  0.75000000  0.21091573  0.42434400  1
  B  B2  1  0.25000000  0.09329571  0.18216425  1
  B  B3  1  0.75000000  0.90670429  0.81783575  1
  B  B4  1  0.25000000  0.58914998  0.11112700  1
  B  B5  1  0.75000000  0.41085002  0.88887300  1
  O  O0  1  0.25000000  0.45671966  0.16409333  1
  O  O1  1  0.75000000  0.54328034  0.83590667  1
  O  O2  1  0.25000000  0.15440909  0.25144284  1
  O  O3  1  0.75000000  0.84559091  0.74855716  1
  O  O4  1  0.25000000  0.51252563  0.43233543  1
  O  O5  1  0.75000000  0.48747437  0.56766457  1
  O  O6  1  0.25000000  0.70516843  0.14784013  1
  O  O7  1  0.75000000  0.29483157  0.85215987  1
  O  O8  1  0.25000000  0.76617208  0.49137079  1
  O  O9  1  0.75000000  0.23382792  0.50862921  1
  O  O10  1  0.25000000  0.62107454  0.01909357  1
  O  O11  1  0.75000000  0.37892546  0.98090643  1
  O  O12  1  0.25000000  0.15099516  0.65561656  1
  O  O13  1  0.75000000  0.84900484  0.34438344  1
  O  O14  1  0.25000000  0.07952165  0.93675854  1
  O  O15  1  0.75000000  0.92047835  0.06324146  1
  O  O16  1  0.25000000  0.16790616  0.09434468  1
  O  O17  1  0.75000000  0.83209384  0.90565532  1
  O  O18  1  0.25000000  0.94845330  0.20784113  1
  O  O19  1  0.75000000  0.05154670  0.79215887  1
  O  O20  1  0.25000000  0.39101158  0.70470803  1
  O  O21  1  0.75000000  0.60898842  0.29529197  1
  O  O22  1  0.25000000  0.92272951  0.58465593  1
  O  O23  1  0.75000000  0.07727049  0.41534407  1
  O  O24  1  0.25000000  0.67764175  0.65183871  1
  O  O25  1  0.75000000  0.32235825  0.34816129  1
loop_
_geom_bond_atom_site_label_1
_geom_bond_atom_site_label_2
_geom_bond_distance
_geom_bond_site_symmetry_2
Li0 O0 2.032306 1_555
Li0 O11 2.066233 1_454
Li0 O11 2.066233 1_554
Li0 O16 2.098909 1_555
Li0 O10 2.263348 1_555
Li1 O1 2.032306 1_555
Li1 O10 2.066233 1_556
Li1 O10 2.066233 1_656
Li1 O17 2.098909 1_555
Li1 O11 2.263348 1_555
Li2 O24 1.906299 1_555
Li2 O3 1.969945 1_555
Li2 O3 1.969945 1_455
Li3 O25 1.906299 1_555
Li3 O2 1.969945 1_555
Li3 O2 1.969945 1_655
Lu0 O15 2.155387 1_455
Lu0 O15 2.155387 1_555
Lu0 O14 2.192084 1_564
Lu0 O10 2.282999 1_555
Lu0 O17 2.329758 1_554
Lu0 O17 2.329758 1_454
Lu0 O6 2.371361 1_555
Lu1 O14 2.155387 1_555
Lu1 O14 2.155387 1_655
Lu1 O15 2.192084 1_546
Lu1 O11 2.282999 1_555
Lu1 O16 2.329758 1_656
Lu1 O16 2.329758 1_556
Lu1 O7 2.371361 1_555
Lu2 O5 2.147962 1_455
Lu2 O5 2.147962 1_555
Lu2 O4 2.191914 1_555
Lu2 O12 2.203076 1_555
Lu2 O20 2.289333 1_555
Lu2 O9 2.426252 1_455
Lu2 O9 2.426252 1_555
Lu3 O4 2.147962 1_555
Lu3 O4 2.147962 1_655
Lu3 O5 2.191914 1_555
Lu3 O13 2.203076 1_555
Lu3 O21 2.289333 1_555
Lu3 O8 2.426252 1_655
Lu3 O8 2.426252 1_555
Lu4 O4 2.121898 1_555
Lu4 O21 2.145781 1_555
Lu4 O21 2.145781 1_455
Lu4 O0 2.225376 1_555
Lu4 O25 2.305680 1_455
Lu4 O25 2.305680 1_555
Lu5 O5 2.121898 1_555
Lu5 O20 2.145781 1_655
Lu5 O20 2.145781 1_555
Lu5 O1 2.225376 1_555
Lu5 O24 2.305680 1_655
Lu5 O24 2.305680 1_555
Lu6 O20 2.127973 1_555
Lu6 O14 2.197875 1_555
Lu6 O19 2.203155 1_455
Lu6 O19 2.203155 1_555
Lu6 O12 2.271927 1_555
Lu6 O7 2.332306 1_455
Lu6 O7 2.332306 1_555
Lu7 O21 2.127973 1_555
Lu7 O15 2.197875 1_555
Lu7 O18 2.203155 1_655
Lu7 O18 2.203155 1_555
Lu7 O13 2.271927 1_555
Lu7 O6 2.332306 1_555
Lu7 O6 2.332306 1_655
Lu8 O13 2.162539 1_455
Lu8 O13 2.162539 1_555
Lu8 O2 2.273486 1_565
Lu8 O23 2.277462 1_465
Lu8 O23 2.277462 1_565
Lu8 O8 2.336588 1_555
Lu8 O18 2.561463 1_555
Lu9 O12 2.162539 1_655
Lu9 O12 2.162539 1_555
Lu9 O3 2.273486 1_545
Lu9 O22 2.277462 1_545
Lu9 O22 2.277462 1_645
Lu9 O9 2.336588 1_555
Lu9 O19 2.561463 1_555
B0 O22 1.376330 1_555
B0 O8 1.386663 1_555
B0 O24 1.392916 1_555
B1 O23 1.376330 1_555
B1 O9 1.386663 1_555
B1 O25 1.392916 1_555
B2 O2 1.369227 1_555
B2 O16 1.370121 1_555
B2 O18 1.393333 1_545
B3 O3 1.369227 1_555
B3 O17 1.370121 1_555
B3 O19 1.393333 1_565
B4 O0 1.359063 1_555
B4 O10 1.379562 1_555
B4 O6 1.418437 1_555
B5 O1 1.359063 1_555
B5 O11 1.379562 1_555
B5 O7 1.418437 1_555
