# generated using pymatgen
data_BaAl2O6
_symmetry_space_group_name_H-M   'P 1'
_cell_length_a   11.39709100
_cell_length_b   13.01839201
_cell_length_c   7.56852101
_cell_angle_alpha   90.00459492
_cell_angle_beta   90.00278252
_cell_angle_gamma   89.99856515
_symmetry_Int_Tables_number   1
_chemical_formula_structural   BaAl2O6
_chemical_formula_sum   'Ba8 Al16 O48'
_cell_volume   1122.95506878
_cell_formula_units_Z   8
loop_
 _symmetry_equiv_pos_site_id
 _symmetry_equiv_pos_as_xyz
  1  'x, y, z'
loop_
 _atom_site_type_symbol
 _atom_site_label
 _atom_site_symmetry_multiplicity
 _atom_site_fract_x
 _atom_site_fract_y
 _atom_site_fract_z
 _atom_site_occupancy
  Ba  Ba0  1  0.63837700  0.34569000  0.08737700  1
  Ba  Ba1  1  0.13839700  0.15430900  0.91260800  1
  Ba  Ba2  1  0.36161600  0.84568500  0.41265900  1
  Ba  Ba3  1  0.86163600  0.65430500  0.58738800  1
  Ba  Ba4  1  0.36162300  0.65431000  0.91262300  1
  Ba  Ba5  1  0.86160300  0.84569100  0.08739200  1
  Ba  Ba6  1  0.63838400  0.15431500  0.58734100  1
  Ba  Ba7  1  0.13836400  0.34569500  0.41261200  1
  Al  Al0  1  0.61059400  0.02847100  0.14908900  1
  Al  Al1  1  0.11060900  0.47151800  0.85092700  1
  Al  Al2  1  0.38937900  0.52844800  0.35090300  1
  Al  Al3  1  0.88940300  0.97154500  0.64909600  1
  Al  Al4  1  0.38940600  0.97152900  0.85091100  1
  Al  Al5  1  0.88939100  0.52848200  0.14907300  1
  Al  Al6  1  0.61062100  0.47155200  0.64909700  1
  Al  Al7  1  0.11059700  0.02845500  0.35090400  1
  Al  Al8  1  0.87585000  0.11247500  0.29763500  1
  Al  Al9  1  0.37586900  0.38752100  0.70240000  1
  Al  Al10  1  0.12413700  0.61248000  0.20238900  1
  Al  Al11  1  0.62416100  0.88753600  0.79759900  1
  Al  Al12  1  0.12415000  0.88752500  0.70236500  1
  Al  Al13  1  0.62413100  0.61247900  0.29760000  1
  Al  Al14  1  0.87586300  0.38752000  0.79761100  1
  Al  Al15  1  0.37583900  0.11246400  0.20240100  1
  O  O0  1  0.00691900  0.19406400  0.24721400  1
  O  O1  1  0.50692400  0.30590700  0.75279500  1
  O  O2  1  0.99309800  0.69412000  0.25275600  1
  O  O3  1  0.49310000  0.80592100  0.74722100  1
  O  O4  1  0.99308100  0.80593600  0.75278600  1
  O  O5  1  0.49307600  0.69409300  0.24720500  1
  O  O6  1  0.00690200  0.30588000  0.74724400  1
  O  O7  1  0.50690000  0.19407900  0.25277900  1
  O  O8  1  0.49179500  0.02992600  0.30399700  1
  O  O9  1  0.99182500  0.47002500  0.69597100  1
  O  O10  1  0.50818100  0.52992900  0.19598900  1
  O  O11  1  0.00822700  0.97009300  0.80397600  1
  O  O12  1  0.50820500  0.97007400  0.69600300  1
  O  O13  1  0.00817500  0.52997500  0.30402900  1
  O  O14  1  0.49181900  0.47007100  0.80401100  1
  O  O15  1  0.99177300  0.02990700  0.19602400  1
  O  O16  1  0.76914200  0.21356300  0.27784900  1
  O  O17  1  0.26914400  0.28644800  0.72212600  1
  O  O18  1  0.23088000  0.71353800  0.22214300  1
  O  O19  1  0.73087500  0.78645300  0.77781400  1
  O  O20  1  0.23085800  0.78643700  0.72215100  1
  O  O21  1  0.73085600  0.71355200  0.27787400  1
  O  O22  1  0.76912000  0.28646200  0.77785700  1
  O  O23  1  0.26912500  0.21354700  0.22218600  1
  O  O24  1  0.58455600  0.13537200  0.99893600  1
  O  O25  1  0.08458700  0.36462800  0.00109200  1
  O  O26  1  0.41542400  0.63536200  0.50103900  1
  O  O27  1  0.91541700  0.86464000  0.49893900  1
  O  O28  1  0.41544400  0.86462800  0.00106400  1
  O  O29  1  0.91541300  0.63537200  0.99890800  1
  O  O30  1  0.58457600  0.36463800  0.49896100  1
  O  O31  1  0.08458300  0.13536000  0.50106100  1
  O  O32  1  0.75037100  0.03285000  0.24381000  1
  O  O33  1  0.25040000  0.46715700  0.75627600  1
  O  O34  1  0.24959300  0.53281200  0.25624900  1
  O  O35  1  0.74962300  0.96717900  0.74378700  1
  O  O36  1  0.24962900  0.96715000  0.75619000  1
  O  O37  1  0.74960000  0.53284300  0.24372400  1
  O  O38  1  0.75040700  0.46718800  0.74375100  1
  O  O39  1  0.25037700  0.03282200  0.25621300  1
  O  O40  1  0.89112600  0.08889300  0.53193100  1
  O  O41  1  0.39113600  0.41111400  0.46810700  1
  O  O42  1  0.10884400  0.58887100  0.96810300  1
  O  O43  1  0.60889300  0.91112900  0.03189100  1
  O  O44  1  0.10887400  0.91110700  0.46806900  1
  O  O45  1  0.60886400  0.58888600  0.53189300  1
  O  O46  1  0.89115600  0.41112900  0.03189700  1
  O  O47  1  0.39110700  0.08887100  0.96810900  1
loop_
_geom_bond_atom_site_label_1
_geom_bond_atom_site_label_2
_geom_bond_distance
_geom_bond_site_symmetry_2
Ba0 O16 2.694075 1_555
Ba0 O7 2.776479 1_555
Ba0 O22 2.881440 1_554
Ba0 O24 2.884566 1_554
Ba0 O10 2.937681 1_555
Ba0 O1 2.987430 1_554
Ba0 O37 2.990457 1_555
Ba0 O46 3.033515 1_555
Ba0 O14 3.164112 1_554
Ba0 O30 3.184434 1_555
Ba0 O38 3.301060 1_554
Ba1 O17 2.694227 1_555
Ba1 O6 2.775971 1_555
Ba1 O23 2.881646 1_556
Ba1 O25 2.884612 1_556
Ba1 O11 2.937350 1_545
Ba1 O0 2.987774 1_556
Ba1 O36 2.990774 1_545
Ba1 O47 3.032707 1_555
Ba1 O15 3.165058 1_456
Ba1 O31 3.184134 1_555
Ba1 O39 3.300517 1_556
Ba2 O18 2.694137 1_555
Ba2 O5 2.776180 1_555
Ba2 O20 2.881547 1_555
Ba2 O26 2.884562 1_555
Ba2 O8 2.937879 1_565
Ba2 O3 2.987493 1_555
Ba2 O39 2.990765 1_565
Ba2 O44 3.032919 1_555
Ba2 O12 3.164106 1_555
Ba2 O28 3.184611 1_555
Ba2 O36 3.299867 1_555
Ba3 O19 2.693968 1_555
Ba3 O4 2.776245 1_555
Ba3 O21 2.881671 1_555
Ba3 O27 2.884809 1_555
Ba3 O9 2.938082 1_555
Ba3 O2 2.988068 1_555
Ba3 O38 2.990356 1_555
Ba3 O45 3.033324 1_555
Ba3 O13 3.163556 1_655
Ba3 O29 3.183873 1_555
Ba3 O37 3.300791 1_555
Ba4 O20 2.694075 1_555
Ba4 O3 2.776479 1_555
Ba4 O18 2.881440 1_556
Ba4 O28 2.884566 1_556
Ba4 O14 2.937681 1_555
Ba4 O5 2.987430 1_556
Ba4 O33 2.990457 1_555
Ba4 O42 3.033515 1_555
Ba4 O10 3.164112 1_556
Ba4 O26 3.184434 1_555
Ba4 O34 3.301060 1_556
Ba5 O21 2.694227 1_555
Ba5 O2 2.775971 1_555
Ba5 O19 2.881646 1_554
Ba5 O29 2.884612 1_554
Ba5 O15 2.937350 1_565
Ba5 O4 2.987774 1_554
Ba5 O32 2.990774 1_565
Ba5 O43 3.032707 1_555
Ba5 O11 3.165058 1_654
Ba5 O27 3.184134 1_555
Ba5 O35 3.300524 1_554
Ba6 O22 2.694137 1_555
Ba6 O1 2.776180 1_555
Ba6 O16 2.881547 1_555
Ba6 O30 2.884562 1_555
Ba6 O12 2.937879 1_545
Ba6 O7 2.987493 1_555
Ba6 O35 2.990754 1_545
Ba6 O40 3.032919 1_555
Ba6 O8 3.164106 1_555
Ba6 O24 3.184611 1_555
Ba6 O32 3.299867 1_555
Ba7 O23 2.693968 1_555
Ba7 O0 2.776245 1_555
Ba7 O17 2.881671 1_555
Ba7 O31 2.884809 1_555
Ba7 O13 2.938082 1_555
Ba7 O6 2.988068 1_555
Ba7 O34 2.990356 1_555
Ba7 O41 3.033324 1_555
Ba7 O9 3.163556 1_455
Ba7 O25 3.183873 1_555
Ba7 O33 3.300791 1_555
Al0 O32 1.747825 1_555
Al0 O43 1.766502 1_545
Al0 O8 1.791174 1_555
Al0 O24 1.821132 1_554
Al1 O33 1.747806 1_555
Al1 O42 1.766551 1_555
Al1 O9 1.791202 1_455
Al1 O25 1.821079 1_556
Al2 O34 1.747705 1_555
Al2 O41 1.766564 1_555
Al2 O10 1.791236 1_555
Al2 O26 1.821066 1_555
Al3 O35 1.747825 1_555
Al3 O40 1.766571 1_565
Al3 O11 1.791166 1_655
Al3 O27 1.821025 1_555
Al4 O36 1.747825 1_555
Al4 O47 1.766502 1_565
Al4 O12 1.791174 1_555
Al4 O28 1.821132 1_556
Al5 O37 1.747806 1_555
Al5 O46 1.766551 1_555
Al5 O13 1.791202 1_655
Al5 O29 1.821079 1_554
Al6 O38 1.747705 1_555
Al6 O45 1.766564 1_555
Al6 O14 1.791236 1_555
Al6 O30 1.821066 1_555
Al7 O39 1.747825 1_555
Al7 O44 1.766571 1_545
Al7 O15 1.791166 1_455
Al7 O31 1.821025 1_555
Al8 O16 1.798130 1_555
Al8 O40 1.808070 1_555
Al8 O32 1.812621 1_555
Al8 O15 1.868762 1_555
Al8 O0 1.872288 1_655
Al9 O17 1.798135 1_555
Al9 O41 1.808080 1_555
Al9 O33 1.812690 1_555
Al9 O14 1.868830 1_555
Al9 O1 1.872233 1_555
Al10 O18 1.798121 1_555
Al10 O42 1.808027 1_554
Al10 O34 1.812791 1_555
Al10 O13 1.868804 1_555
Al10 O2 1.872231 1_455
Al11 O19 1.798120 1_555
Al11 O43 1.808024 1_556
Al11 O35 1.812649 1_555
Al11 O12 1.868774 1_555
Al11 O3 1.872276 1_555
Al12 O20 1.798130 1_555
Al12 O44 1.808070 1_555
Al12 O36 1.812621 1_555
Al12 O11 1.868762 1_555
Al12 O4 1.872288 1_455
Al13 O21 1.798135 1_555
Al13 O45 1.808080 1_555
Al13 O37 1.812690 1_555
Al13 O10 1.868830 1_555
Al13 O5 1.872233 1_555
Al14 O22 1.798121 1_555
Al14 O46 1.808027 1_556
Al14 O38 1.812791 1_555
Al14 O9 1.868804 1_555
Al14 O6 1.872231 1_655
Al15 O23 1.798120 1_555
Al15 O47 1.808024 1_554
Al15 O39 1.812641 1_555
Al15 O8 1.868774 1_555
Al15 O7 1.872276 1_555
