# generated using pymatgen
data_Tb2GdGa5O12
_symmetry_space_group_name_H-M   'P 1'
_cell_length_a   10.79531960
_cell_length_b   10.79531960
_cell_length_c   10.79531960
_cell_angle_alpha   109.46801825
_cell_angle_beta   109.46801825
_cell_angle_gamma   109.47762559
_symmetry_Int_Tables_number   1
_chemical_formula_structural   Tb2GdGa5O12
_chemical_formula_sum   'Tb8 Gd4 Ga20 O48'
_cell_volume   968.46653413
_cell_formula_units_Z   4
loop_
 _symmetry_equiv_pos_site_id
 _symmetry_equiv_pos_as_xyz
  1  'x, y, z'
loop_
 _atom_site_type_symbol
 _atom_site_label
 _atom_site_symmetry_multiplicity
 _atom_site_fract_x
 _atom_site_fract_y
 _atom_site_fract_z
 _atom_site_occupancy
  Tb  Tb0  1  0.00000000  0.00000000  0.00000000  1
  Tb  Tb1  1  0.25000000  0.75000000  0.50000000  1
  Tb  Tb2  1  0.75004400  0.87500000  0.37504400  1
  Tb  Tb3  1  0.49995600  0.37500000  0.62495600  1
  Tb  Tb4  1  0.62500000  0.50004400  0.37504400  1
  Tb  Tb5  1  0.12500000  0.24995600  0.62495600  1
  Tb  Tb6  1  0.75000000  0.25000000  0.50000000  1
  Tb  Tb7  1  0.50000000  0.50000000  0.00000000  1
  Gd  Gd0  1  0.00012700  0.37500000  0.12512700  1
  Gd  Gd1  1  0.24987300  0.87500000  0.87487300  1
  Gd  Gd2  1  0.12500000  0.75012700  0.12512700  1
  Gd  Gd3  1  0.62500000  0.99987300  0.87487300  1
  Ga  Ga0  1  0.74956400  0.37500000  0.87456400  1
  Ga  Ga1  1  0.50043600  0.87500000  0.12543600  1
  Ga  Ga2  1  0.12500000  0.00022400  0.37522400  1
  Ga  Ga3  1  0.62500000  0.74977600  0.62477600  1
  Ga  Ga4  1  0.25018900  0.25018900  0.00000000  1
  Ga  Ga5  1  0.99981100  0.49981100  0.50000000  1
  Ga  Ga6  1  0.99977600  0.87500000  0.62477600  1
  Ga  Ga7  1  0.25022400  0.37500000  0.37522400  1
  Ga  Ga8  1  0.62500000  0.25043600  0.12543600  1
  Ga  Ga9  1  0.12500000  0.49956400  0.87456400  1
  Ga  Ga10  1  0.50018900  0.00018900  0.50000000  1
  Ga  Ga11  1  0.74981100  0.74981100  0.00000000  1
  Ga  Ga12  1  0.37551800  0.62514500  0.25025200  1
  Ga  Ga13  1  0.87510700  0.12485500  0.25037200  1
  Ga  Ga14  1  0.87448200  0.62473500  0.74962800  1
  Ga  Ga15  1  0.37489300  0.12526600  0.74974800  1
  Ga  Ga16  1  0.87473500  0.62510700  0.25025200  1
  Ga  Ga17  1  0.37526500  0.12551800  0.25037200  1
  Ga  Ga18  1  0.87514500  0.12489300  0.74962800  1
  Ga  Ga19  1  0.37485500  0.62448200  0.74974800  1
  O  O0  1  0.25351400  0.53095200  0.33407800  1
  O  O1  1  0.05312600  0.21904800  0.22256200  1
  O  O2  1  0.99648600  0.83056400  0.77743800  1
  O  O3  1  0.19687400  0.91943600  0.66592200  1
  O  O4  1  0.07955100  0.65143400  0.87133500  1
  O  O5  1  0.17044900  0.54178400  0.07188300  1
  O  O6  1  0.78009900  0.20821600  0.12866500  1
  O  O7  1  0.46990100  0.09856600  0.92811700  1
  O  O8  1  0.79333200  0.94741100  0.04531400  1
  O  O9  1  0.90209700  0.74801800  0.95468600  1
  O  O10  1  0.34790300  0.80258900  0.34592000  1
  O  O11  1  0.45666800  0.00198200  0.65408000  1
  O  O12  1  0.49810400  0.71992500  0.16737700  1
  O  O13  1  0.69745200  0.03007500  0.27817900  1
  O  O14  1  0.75189600  0.41927300  0.72182100  1
  O  O15  1  0.55254800  0.33072700  0.83262300  1
  O  O16  1  0.66913100  0.59676400  0.62683200  1
  O  O17  1  0.58086900  0.70770100  0.42763300  1
  O  O18  1  0.96993200  0.04229900  0.37316800  1
  O  O19  1  0.28006800  0.15323600  0.57236700  1
  O  O20  1  0.95768600  0.30262200  0.45577000  1
  O  O21  1  0.84685100  0.50191600  0.54423000  1
  O  O22  1  0.40314900  0.44737900  0.15506500  1
  O  O23  1  0.29231400  0.24808400  0.84493500  1
  O  O24  1  0.66927300  0.44745200  0.16737700  1
  O  O25  1  0.58072700  0.24810400  0.27817900  1
  O  O26  1  0.96992500  0.30254800  0.72182100  1
  O  O27  1  0.28007500  0.50189600  0.83262300  1
  O  O28  1  0.95770100  0.03006800  0.62683200  1
  O  O29  1  0.84676400  0.71993200  0.42763300  1
  O  O30  1  0.40323600  0.33086900  0.37316800  1
  O  O31  1  0.29229900  0.41913100  0.57236700  1
  O  O32  1  0.49808400  0.15314900  0.45577000  1
  O  O33  1  0.69737900  0.04231400  0.54423000  1
  O  O34  1  0.75191600  0.70768600  0.15506500  1
  O  O35  1  0.55262200  0.59685100  0.84493500  1
  O  O36  1  0.08056400  0.80312600  0.33407800  1
  O  O37  1  0.16943600  0.00351400  0.22256200  1
  O  O38  1  0.78095200  0.94687400  0.77743800  1
  O  O39  1  0.46904800  0.74648600  0.66592200  1
  O  O40  1  0.79178400  0.21990100  0.87133500  1
  O  O41  1  0.90143400  0.53009900  0.07188300  1
  O  O42  1  0.34856600  0.92044900  0.12866500  1
  O  O43  1  0.45821600  0.82955100  0.92811700  1
  O  O44  1  0.25198200  0.09790300  0.04531400  1
  O  O45  1  0.05258900  0.20666800  0.95468600  1
  O  O46  1  0.99801800  0.54333200  0.34592000  1
  O  O47  1  0.19741100  0.65209700  0.65408000  1
loop_
_geom_bond_atom_site_label_1
_geom_bond_atom_site_label_2
_geom_bond_distance
_geom_bond_site_symmetry_2
Gd0 O0 2.385298 1_555
Gd0 O1 2.385298 1_555
Gd0 O40 2.385761 1_454
Gd0 O41 2.385761 1_455
Gd0 O5 2.477789 1_555
Gd0 O6 2.477789 1_455
Gd0 O46 2.482056 1_455
Gd0 O45 2.482063 1_554
Gd1 O2 2.385298 1_455
Gd1 O3 2.385298 1_555
Gd1 O43 2.385761 1_555
Gd1 O42 2.385761 1_556
Gd1 O7 2.477789 1_565
Gd1 O4 2.477789 1_555
Gd1 O47 2.482057 1_555
Gd1 O44 2.482063 1_566
Gd2 O36 2.385298 1_555
Gd2 O37 2.385298 1_565
Gd2 O5 2.385761 1_555
Gd2 O4 2.385761 1_554
Gd2 O42 2.477789 1_555
Gd2 O41 2.477789 1_455
Gd2 O10 2.482057 1_555
Gd2 O9 2.482063 1_454
Gd3 O39 2.385298 1_555
Gd3 O38 2.385298 1_555
Gd3 O6 2.385761 1_566
Gd3 O7 2.385761 1_565
Gd3 O43 2.477789 1_555
Gd3 O40 2.477789 1_565
Gd3 O11 2.482056 1_565
Gd3 O8 2.482063 1_556
Ga0 O14 1.868934 1_555
Ga0 O15 1.868934 1_555
Ga0 O41 1.868950 1_556
Ga0 O40 1.868950 1_555
Ga1 O12 1.868934 1_555
Ga1 O13 1.868934 1_565
Ga1 O42 1.868950 1_555
Ga1 O43 1.868950 1_554
Ga2 O19 1.870328 1_555
Ga2 O18 1.870328 1_455
Ga2 O37 1.871365 1_555
Ga2 O36 1.871365 1_545
Ga3 O17 1.870328 1_555
Ga3 O16 1.870328 1_555
Ga3 O38 1.871365 1_555
Ga3 O39 1.871365 1_555
Ga4 O44 1.869033 1_555
Ga4 O45 1.869033 1_554
Ga4 O22 1.870418 1_555
Ga4 O23 1.870418 1_554
Ga5 O47 1.869036 1_655
Ga5 O46 1.869044 1_555
Ga5 O20 1.870408 1_555
Ga5 O21 1.870418 1_555
Ga6 O28 1.870328 1_565
Ga6 O29 1.870328 1_555
Ga6 O3 1.871365 1_655
Ga6 O2 1.871365 1_555
Ga7 O31 1.870328 1_555
Ga7 O30 1.870328 1_555
Ga7 O1 1.871365 1_555
Ga7 O0 1.871365 1_555
Ga8 O25 1.868934 1_555
Ga8 O24 1.868934 1_555
Ga8 O6 1.868950 1_555
Ga8 O7 1.868950 1_554
Ga9 O26 1.868934 1_455
Ga9 O27 1.868934 1_555
Ga9 O5 1.868950 1_556
Ga9 O4 1.868950 1_555
Ga10 O10 1.869036 1_545
Ga10 O11 1.869044 1_555
Ga10 O33 1.870418 1_555
Ga10 O32 1.870418 1_555
Ga11 O8 1.869033 1_555
Ga11 O9 1.869033 1_554
Ga11 O35 1.870413 1_554
Ga11 O34 1.870418 1_555
Ga12 O17 2.022567 1_555
Ga12 O10 2.022927 1_555
Ga12 O5 2.023228 1_555
Ga12 O12 2.023602 1_555
Ga12 O22 2.024651 1_555
Ga12 O0 2.025394 1_555
Ga13 O18 2.022574 1_555
Ga13 O8 2.022922 1_545
Ga13 O6 2.023221 1_555
Ga13 O13 2.023609 1_555
Ga13 O20 2.024663 1_555
Ga13 O1 2.025387 1_655
Ga14 O16 2.022565 1_555
Ga14 O9 2.022918 1_555
Ga14 O4 2.023230 1_655
Ga14 O14 2.023606 1_555
Ga14 O21 2.024663 1_555
Ga14 O2 2.025390 1_555
Ga15 O19 2.022567 1_555
Ga15 O11 2.022924 1_555
Ga15 O7 2.023228 1_555
Ga15 O15 2.023602 1_555
Ga15 O23 2.024651 1_555
Ga15 O3 2.025394 1_545
Ga16 O29 2.022574 1_555
Ga16 O46 2.022918 1_555
Ga16 O41 2.023221 1_555
Ga16 O24 2.023609 1_555
Ga16 O34 2.024658 1_555
Ga16 O36 2.025387 1_655
Ga17 O30 2.022565 1_555
Ga17 O44 2.022918 1_555
Ga17 O42 2.023230 1_545
Ga17 O25 2.023606 1_555
Ga17 O32 2.024663 1_555
Ga17 O37 2.025390 1_555
Ga18 O28 2.022574 1_555
Ga18 O45 2.022922 1_655
Ga18 O40 2.023221 1_555
Ga18 O26 2.023609 1_555
Ga18 O33 2.024658 1_555
Ga18 O38 2.025387 1_545
Ga19 O31 2.022567 1_555
Ga19 O47 2.022927 1_555
Ga19 O43 2.023228 1_555
Ga19 O27 2.023602 1_555
Ga19 O35 2.024660 1_555
Ga19 O39 2.025394 1_555
O0 Tb1 2.466449 1_555
O1 Tb0 2.466449 1_555
O2 Tb0 2.466449 1_666
O3 Tb1 2.466449 1_555
O8 Tb0 2.367929 1_665
O9 Tb0 2.367929 1_666
O10 Tb1 2.367939 1_555
O11 Tb1 2.367929 1_545
O12 Tb2 2.371357 1_555
O12 Tb7 2.469720 1_555
O13 Tb2 2.371357 1_545
O13 Tb6 2.469720 1_555
O14 Tb3 2.371357 1_555
O14 Tb6 2.469720 1_555
O15 Tb3 2.371357 1_555
O15 Tb7 2.469720 1_556
O16 Tb4 2.370395 1_555
O16 Tb3 2.468683 1_555
O17 Tb4 2.370395 1_555
O17 Tb2 2.468683 1_555
O18 Tb5 2.370395 1_655
O18 Tb2 2.468683 1_545
O19 Tb5 2.370395 1_555
O19 Tb3 2.468683 1_555
O20 Tb6 2.371165 1_555
O20 Tb5 2.469717 1_655
O21 Tb6 2.371165 1_555
O21 Tb4 2.469710 1_555
O22 Tb7 2.371165 1_555
O22 Tb4 2.469710 1_555
O23 Tb7 2.371165 1_556
O23 Tb5 2.469710 1_555
O24 Tb4 2.371357 1_555
O24 Tb7 2.469720 1_555
O25 Tb4 2.371357 1_555
O25 Tb6 2.469720 1_555
O26 Tb5 2.371357 1_655
O26 Tb6 2.469720 1_555
O27 Tb5 2.371357 1_555
O27 Tb7 2.469720 1_556
O28 Tb2 2.370395 1_545
O28 Tb5 2.468683 1_655
O29 Tb2 2.370395 1_555
O29 Tb4 2.468683 1_555
O30 Tb3 2.370395 1_555
O30 Tb4 2.468683 1_555
O31 Tb3 2.370395 1_555
O31 Tb5 2.468683 1_555
O32 Tb6 2.371165 1_555
O32 Tb3 2.469710 1_555
O33 Tb6 2.371165 1_555
O33 Tb2 2.469710 1_545
O34 Tb7 2.371165 1_555
O34 Tb2 2.469710 1_555
O35 Tb7 2.371169 1_556
O35 Tb3 2.469705 1_555
O36 Tb1 2.466449 1_555
O37 Tb0 2.466449 1_555
O38 Tb0 2.466449 1_666
O39 Tb1 2.466449 1_555
O44 Tb0 2.367929 1_555
O45 Tb0 2.367929 1_556
O46 Tb1 2.367929 1_655
O47 Tb1 2.367939 1_555
