# generated using pymatgen
data_Na3Li3Fe2P2(CO7)2
_symmetry_space_group_name_H-M   'P 1'
_cell_length_a   5.05737400
_cell_length_b   6.78565652
_cell_length_c   8.66921358
_cell_angle_alpha   89.14992862
_cell_angle_beta   87.17223528
_cell_angle_gamma   89.40448324
_symmetry_Int_Tables_number   1
_chemical_formula_structural   Na3Li3Fe2P2(CO7)2
_chemical_formula_sum   'Na3 Li3 Fe2 P2 C2 O14'
_cell_volume   297.09776125
_cell_formula_units_Z   1
loop_
 _symmetry_equiv_pos_site_id
 _symmetry_equiv_pos_as_xyz
  1  'x, y, z'
loop_
 _atom_site_type_symbol
 _atom_site_label
 _atom_site_symmetry_multiplicity
 _atom_site_fract_x
 _atom_site_fract_y
 _atom_site_fract_z
 _atom_site_occupancy
  Na  Na0  1  0.74697800  0.99541300  0.73889300  1
  Na  Na1  1  0.74708500  0.50271900  0.73908300  1
  Na  Na2  1  0.25447200  0.49980500  0.25847800  1
  Li  Li0  1  0.24115900  0.76304300  0.90809000  1
  Li  Li1  1  0.24365100  0.02216700  0.27767900  1
  Li  Li2  1  0.75342500  0.23281100  0.09558000  1
  Fe  Fe0  1  0.22667400  0.24849600  0.64896200  1
  Fe  Fe1  1  0.78463400  0.75787300  0.34566700  1
  P  P0  1  0.29220300  0.75472600  0.58967600  1
  P  P1  1  0.71867800  0.24747900  0.40273100  1
  C  C0  1  0.27473800  0.23842800  0.95773300  1
  C  C1  1  0.71088100  0.75319600  0.04868200  1
  O  O0  1  0.63762400  0.74602500  0.90852400  1
  O  O1  1  0.02859800  0.24417700  0.92175700  1
  O  O2  1  0.45918100  0.24875000  0.84655000  1
  O  O3  1  0.21203600  0.93001400  0.69764400  1
  O  O4  1  0.20721400  0.56604100  0.68213700  1
  O  O5  1  0.59960600  0.75187100  0.56113500  1
  O  O6  1  0.84413600  0.25094400  0.56251900  1
  O  O7  1  0.16624800  0.77206400  0.43035100  1
  O  O8  1  0.41159300  0.22408600  0.43044700  1
  O  O9  1  0.77600700  0.43707700  0.30526100  1
  O  O10  1  0.82981600  0.07466200  0.30158500  1
  O  O11  1  0.52955400  0.76720300  0.16064400  1
  O  O12  1  0.95918400  0.74772200  0.08127400  1
  O  O13  1  0.34462700  0.22320900  0.09891900  1
loop_
_geom_bond_atom_site_label_1
_geom_bond_atom_site_label_2
_geom_bond_distance
_geom_bond_site_symmetry_2
Na0 O0 2.279812 1_555
Na0 O6 2.334702 1_565
Na0 O3 2.399294 1_655
Na0 O2 2.409615 1_565
Na0 O5 2.424005 1_555
Na0 O1 2.782667 1_665
Na0 O3 2.787316 1_555
Na1 O0 2.272154 1_555
Na1 O6 2.342804 1_555
Na1 O4 2.396794 1_655
Na1 O5 2.409230 1_555
Na1 O2 2.414255 1_555
Na1 O1 2.775036 1_655
Na1 O4 2.825837 1_555
Na2 O13 2.375076 1_555
Na2 O7 2.414794 1_555
Na2 O11 2.416083 1_555
Na2 O9 2.473953 1_455
Na2 O8 2.521434 1_555
Na2 O9 2.716556 1_555
Na2 O12 2.741838 1_455
Li0 O0 2.007382 1_555
Li0 O12 2.021323 1_456
Li0 O3 2.143723 1_555
Li0 O4 2.401907 1_555
Li1 O13 2.096926 1_555
Li1 O10 2.119916 1_455
Li1 O8 2.131128 1_555
Li1 O7 2.163618 1_545
Li1 O11 2.443087 1_545
Li2 O1 2.001321 1_654
Li2 O13 2.067909 1_555
Li2 O10 2.119654 1_555
Li2 O9 2.310212 1_555
Fe0 O8 2.078920 1_555
Fe0 O6 2.108720 1_455
Fe0 O2 2.125015 1_555
Fe0 O4 2.178656 1_555
Fe0 O3 2.197082 1_545
Fe0 O1 2.522299 1_555
Fe1 O5 2.047574 1_555
Fe1 O7 2.102086 1_655
Fe1 O11 2.107245 1_555
Fe1 O10 2.190057 1_565
Fe1 O9 2.211158 1_555
Fe1 O12 2.416904 1_555
C0 O13 1.293011 1_556
C0 O1 1.298195 1_555
C0 O2 1.309467 1_555
C1 O0 1.289397 1_554
C1 O12 1.300721 1_555
C1 O11 1.305834 1_555
O3 P0 1.562310 1_555
O4 P0 1.553559 1_555
O5 P0 1.562082 1_555
O6 P1 1.552419 1_555
O7 P0 1.551715 1_555
O8 P1 1.569092 1_555
O9 P1 1.550675 1_555
O10 P1 1.558251 1_555
