# generated using pymatgen
data_K2MgCr2(H2O5)2
_symmetry_space_group_name_H-M   'P 1'
_cell_length_a   5.76992600
_cell_length_b   6.50936132
_cell_length_c   7.66561754
_cell_angle_alpha   111.12850724
_cell_angle_beta   95.09893681
_cell_angle_gamma   110.05312249
_symmetry_Int_Tables_number   1
_chemical_formula_structural   K2MgCr2(H2O5)2
_chemical_formula_sum   'K2 Mg1 Cr2 H4 O10'
_cell_volume   244.74406295
_cell_formula_units_Z   1
loop_
 _symmetry_equiv_pos_site_id
 _symmetry_equiv_pos_as_xyz
  1  'x, y, z'
loop_
 _atom_site_type_symbol
 _atom_site_label
 _atom_site_symmetry_multiplicity
 _atom_site_fract_x
 _atom_site_fract_y
 _atom_site_fract_z
 _atom_site_occupancy
  K  K0  1  0.09484300  0.46223200  0.24327900  1
  K  K1  1  0.90515700  0.53776800  0.75672100  1
  Mg  Mg0  1  0.00000000  0.00000000  0.00000000  1
  Cr  Cr0  1  0.43348900  0.10714500  0.23481300  1
  Cr  Cr1  1  0.56651100  0.89285500  0.76518700  1
  H  H0  1  0.71615700  0.74715800  0.38996100  1
  H  H1  1  0.28384300  0.25284200  0.61003900  1
  H  H2  1  0.62383000  0.55956500  0.29861600  1
  H  H3  1  0.37617000  0.44043500  0.70138400  1
  O  O0  1  0.73829100  0.17473200  0.62715400  1
  O  O1  1  0.26170900  0.82526800  0.37284600  1
  O  O2  1  0.77198300  0.71861300  0.26876200  1
  O  O3  1  0.40640700  0.27075500  0.36882000  1
  O  O4  1  0.59359300  0.72924500  0.63118000  1
  O  O5  1  0.22801700  0.28138700  0.73123800  1
  O  O6  1  0.69956000  0.83190800  0.91372100  1
  O  O7  1  0.77322300  0.18312900  0.10427800  1
  O  O8  1  0.22677700  0.81687100  0.89572200  1
  O  O9  1  0.30044000  0.16809200  0.08627900  1
loop_
_geom_bond_atom_site_label_1
_geom_bond_atom_site_label_2
_geom_bond_distance
_geom_bond_site_symmetry_2
K0 O7 1.954641 1_455
K0 O1 2.018785 1_555
K1 O8 1.954641 1_655
K1 O0 2.018785 1_555
Mg0 O6 1.616616 1_444
Mg0 O9 1.616616 1_555
Mg0 O8 2.083444 1_544
Mg0 O7 2.083444 1_455
Cr0 O3 1.252130 1_555
Cr0 O9 1.556371 1_555
Cr0 O7 2.264728 1_555
Cr0 O1 2.409876 1_545
Cr1 O4 1.252130 1_555
Cr1 O6 1.556371 1_555
Cr1 O8 2.264728 1_555
Cr1 O0 2.409876 1_565
H0 O2 0.985510 1_555
H0 H2 1.066008 1_555
H1 O5 0.985510 1_555
H1 H3 1.066008 1_555
H2 O2 1.205659 1_555
H3 O5 1.205659 1_555
