# generated using pymatgen
data_Ba8CaY2U4O24
_symmetry_space_group_name_H-M   'P 1'
_cell_length_a   10.78155793
_cell_length_b   10.78155793
_cell_length_c   10.78155793
_cell_angle_alpha   132.00743051
_cell_angle_beta   132.00743051
_cell_angle_gamma   70.21729146
_symmetry_Int_Tables_number   1
_chemical_formula_structural   Ba8CaY2U4O24
_chemical_formula_sum   'Ba8 Ca1 Y2 U4 O24'
_cell_volume   678.25243316
_cell_formula_units_Z   1
loop_
 _symmetry_equiv_pos_site_id
 _symmetry_equiv_pos_as_xyz
  1  'x, y, z'
loop_
 _atom_site_type_symbol
 _atom_site_label
 _atom_site_symmetry_multiplicity
 _atom_site_fract_x
 _atom_site_fract_y
 _atom_site_fract_z
 _atom_site_occupancy
  Ba  Ba0  1  0.87904800  0.35665800  0.00000000  1
  Ba  Ba1  1  0.35665800  0.87904800  0.00000000  1
  Ba  Ba2  1  0.12095200  0.64334200  0.00000000  1
  Ba  Ba3  1  0.64334200  0.12095200  0.00000000  1
  Ba  Ba4  1  0.35665800  0.35665800  0.47761000  1
  Ba  Ba5  1  0.87904800  0.87904800  0.52239000  1
  Ba  Ba6  1  0.12095200  0.12095200  0.47761000  1
  Ba  Ba7  1  0.64334200  0.64334200  0.52239000  1
  Ca  Ca0  1  0.50000000  0.50000000  0.00000000  1
  Y  Y0  1  0.25000000  0.75000000  0.50000000  1
  Y  Y1  1  0.75000000  0.25000000  0.50000000  1
  U  U0  1  0.25296800  0.25296800  0.00000000  1
  U  U1  1  0.74703200  0.74703200  0.00000000  1
  U  U2  1  0.50000000  0.00000000  0.50000000  1
  U  U3  1  0.00000000  0.50000000  0.50000000  1
  O  O0  1  0.13912000  0.13912000  0.00000000  1
  O  O1  1  0.86088000  0.86088000  0.00000000  1
  O  O2  1  0.36822300  0.36822300  0.00000000  1
  O  O3  1  0.63177700  0.63177700  0.00000000  1
  O  O4  1  0.00000000  0.27089800  0.27089800  1
  O  O5  1  0.00000000  0.72910200  0.72910200  1
  O  O6  1  0.27089800  0.00000000  0.27089800  1
  O  O7  1  0.72910200  0.00000000  0.72910200  1
  O  O8  1  0.50000000  0.76094700  0.26094700  1
  O  O9  1  0.50000000  0.23905300  0.73905300  1
  O  O10  1  0.76094700  0.50000000  0.26094700  1
  O  O11  1  0.23905300  0.50000000  0.73905300  1
  O  O12  1  0.12259800  0.62259800  0.50000000  1
  O  O13  1  0.37740200  0.87740200  0.50000000  1
  O  O14  1  0.87740200  0.37740200  0.50000000  1
  O  O15  1  0.62259800  0.12259800  0.50000000  1
  O  O16  1  0.24921500  0.49226800  0.24305300  1
  O  O17  1  0.24921500  0.00616200  0.75694700  1
  O  O18  1  0.99383800  0.75078500  0.24305300  1
  O  O19  1  0.50773200  0.75078500  0.75694700  1
  O  O20  1  0.75078500  0.50773200  0.75694700  1
  O  O21  1  0.75078500  0.99383800  0.24305300  1
  O  O22  1  0.00616200  0.24921500  0.75694700  1
  O  O23  1  0.49226800  0.24921500  0.24305300  1
loop_
_geom_bond_atom_site_label_1
_geom_bond_atom_site_label_2
_geom_bond_distance
_geom_bond_site_symmetry_2
Ba0 O4 2.964210 1_655
Ba0 O7 2.964210 1_554
Ba0 O0 2.985222 1_655
Ba0 O9 3.093256 1_554
Ba0 O10 3.093256 1_555
Ba0 O12 3.104627 1_655
Ba0 O15 3.104627 1_554
Ba0 O16 3.123511 1_655
Ba0 O22 3.123511 1_654
Ba0 O3 3.248526 1_555
Ba0 O18 3.281806 1_555
Ba0 O20 3.281806 1_554
Ba1 O6 2.964210 1_565
Ba1 O5 2.964210 1_554
Ba1 O0 2.985222 1_565
Ba1 O11 3.093256 1_554
Ba1 O8 3.093256 1_555
Ba1 O12 3.104627 1_554
Ba1 O15 3.104627 1_565
Ba1 O23 3.123511 1_565
Ba1 O17 3.123511 1_564
Ba1 O3 3.248526 1_555
Ba1 O21 3.281806 1_555
Ba1 O19 3.281806 1_554
Ba2 O6 2.964210 1_565
Ba2 O5 2.964210 1_554
Ba2 O1 2.985222 1_455
Ba2 O8 3.093256 1_555
Ba2 O11 3.093256 1_554
Ba2 O13 3.104627 1_555
Ba2 O14 3.104627 1_454
Ba2 O18 3.123511 1_455
Ba2 O20 3.123511 1_454
Ba2 O2 3.248526 1_555
Ba2 O22 3.281806 1_554
Ba2 O16 3.281806 1_555
Ba3 O4 2.964210 1_655
Ba3 O7 2.964210 1_554
Ba3 O1 2.985222 1_545
Ba3 O10 3.093256 1_555
Ba3 O9 3.093256 1_554
Ba3 O14 3.104627 1_555
Ba3 O13 3.104627 1_544
Ba3 O21 3.123511 1_545
Ba3 O19 3.123511 1_544
Ba3 O2 3.248526 1_555
Ba3 O17 3.281806 1_554
Ba3 O23 3.281806 1_555
Ba4 O6 2.964210 1_555
Ba4 O4 2.964210 1_555
Ba4 O0 2.985222 1_555
Ba4 O9 3.093256 1_555
Ba4 O11 3.093256 1_555
Ba4 O12 3.104627 1_555
Ba4 O15 3.104627 1_555
Ba4 O23 3.123511 1_555
Ba4 O16 3.123511 1_555
Ba4 O3 3.248526 1_556
Ba4 O19 3.281806 1_555
Ba4 O20 3.281806 1_555
Ba5 O7 2.964210 1_565
Ba5 O5 2.964210 1_655
Ba5 O0 2.985222 1_666
Ba5 O8 3.093256 1_555
Ba5 O10 3.093256 1_555
Ba5 O15 3.104627 1_565
Ba5 O12 3.104627 1_655
Ba5 O22 3.123511 1_665
Ba5 O17 3.123511 1_665
Ba5 O3 3.248526 1_555
Ba5 O21 3.281806 1_555
Ba5 O18 3.281806 1_555
Ba6 O4 2.964210 1_555
Ba6 O6 2.964210 1_555
Ba6 O1 2.985222 1_445
Ba6 O11 3.093256 1_555
Ba6 O9 3.093256 1_555
Ba6 O14 3.104627 1_455
Ba6 O13 3.104627 1_545
Ba6 O18 3.123511 1_445
Ba6 O21 3.123511 1_445
Ba6 O2 3.248526 1_556
Ba6 O22 3.281806 1_555
Ba6 O17 3.281806 1_555
Ba7 O5 2.964210 1_655
Ba7 O7 2.964210 1_565
Ba7 O1 2.985222 1_556
Ba7 O8 3.093256 1_555
Ba7 O10 3.093256 1_555
Ba7 O13 3.104627 1_555
Ba7 O14 3.104627 1_555
Ba7 O20 3.123511 1_555
Ba7 O19 3.123511 1_555
Ba7 O2 3.248526 1_555
Ba7 O16 3.281806 1_555
Ba7 O23 3.281806 1_555
Ca0 O8 2.288305 1_555
Ca0 O10 2.288305 1_555
Ca0 O11 2.288305 1_554
Ca0 O9 2.288305 1_554
Ca0 O3 2.324544 1_555
Ca0 O2 2.324544 1_555
O0 U0 2.008277 1_555
O1 U1 2.008277 1_555
O2 U0 2.033097 1_555
O3 U1 2.033097 1_555
O4 U3 2.009049 1_555
O5 U3 2.009049 1_555
O6 U2 2.009049 1_555
O7 U2 2.009049 1_555
O8 U2 2.096311 1_565
O9 U2 2.096311 1_555
O10 U3 2.096311 1_655
O11 U3 2.096311 1_555
O12 U3 2.162627 1_555
O12 Y0 2.247369 1_555
O13 U2 2.162627 1_565
O13 Y0 2.247369 1_555
O14 U3 2.162627 1_655
O14 Y1 2.247369 1_555
O15 U2 2.162627 1_555
O15 Y1 2.247369 1_555
O16 U0 2.132416 1_555
O16 Y0 2.253270 1_555
O17 U0 2.132416 1_556
O17 Y0 2.253270 1_545
O18 U1 2.132416 1_555
O18 Y0 2.253270 1_655
O19 U1 2.132416 1_556
O19 Y0 2.253270 1_555
O20 U1 2.132416 1_556
O20 Y1 2.253270 1_555
O21 U1 2.132416 1_555
O21 Y1 2.253270 1_565
O22 U0 2.132416 1_556
O22 Y1 2.253270 1_455
O23 U0 2.132416 1_555
O23 Y1 2.253270 1_555
