# generated using pymatgen
data_K2MnOF5
_symmetry_space_group_name_H-M   'P 1'
_cell_length_a   8.19887700
_cell_length_b   6.09989400
_cell_length_c   6.20258142
_cell_angle_alpha   82.83848548
_cell_angle_beta   90.00000000
_cell_angle_gamma   90.00000000
_symmetry_Int_Tables_number   1
_chemical_formula_structural   K2MnOF5
_chemical_formula_sum   'K4 Mn2 O2 F10'
_cell_volume   307.78522730
_cell_formula_units_Z   2
loop_
 _symmetry_equiv_pos_site_id
 _symmetry_equiv_pos_as_xyz
  1  'x, y, z'
loop_
 _atom_site_type_symbol
 _atom_site_label
 _atom_site_symmetry_multiplicity
 _atom_site_fract_x
 _atom_site_fract_y
 _atom_site_fract_z
 _atom_site_occupancy
  K  K0  1  0.25000000  0.07695800  0.47885200  1
  K  K1  1  0.75000000  0.92304200  0.52114800  1
  K  K2  1  0.25000000  0.50615100  0.91893400  1
  K  K3  1  0.75000000  0.49384900  0.08106600  1
  Mn  Mn0  1  0.50000000  0.00000000  0.00000000  1
  Mn  Mn1  1  0.00000000  0.00000000  0.00000000  1
  O  O0  1  0.25000000  0.56115100  0.45009100  1
  O  O1  1  0.75000000  0.43884900  0.54990900  1
  F  F0  1  0.47105700  0.23489300  0.16830300  1
  F  F1  1  0.52894300  0.76510700  0.83169700  1
  F  F2  1  0.97105700  0.76510700  0.83169700  1
  F  F3  1  0.02894300  0.23489300  0.16830300  1
  F  F4  1  0.99245600  0.79996100  0.25794800  1
  F  F5  1  0.00754400  0.20003900  0.74205200  1
  F  F6  1  0.49245600  0.20003900  0.74205200  1
  F  F7  1  0.50754400  0.79996100  0.25794800  1
  F  F8  1  0.25000000  0.96152700  0.97669200  1
  F  F9  1  0.75000000  0.03847300  0.02330800  1
loop_
_geom_bond_atom_site_label_1
_geom_bond_atom_site_label_2
_geom_bond_distance
_geom_bond_site_symmetry_2
K0 O0 2.936625 1_555
K0 O0 3.173547 1_545
K1 O1 2.936625 1_555
K1 O1 3.173547 1_565
K2 O0 2.885477 1_555
K2 O0 3.352934 1_556
K3 O1 2.885477 1_555
K3 O1 3.352934 1_554
F0 Mn0 1.889969 1_555
F0 K0 2.731403 1_555
F0 K2 2.788723 1_554
F0 K3 2.793793 1_555
F1 Mn0 1.889969 1_566
F1 K1 2.731403 1_555
F1 K3 2.788723 1_556
F1 K2 2.793793 1_555
F2 Mn1 1.889969 1_666
F2 K1 2.731403 1_555
F2 K3 2.788723 1_556
F2 K2 2.793793 1_655
F3 Mn1 1.889969 1_555
F3 K0 2.731403 1_555
F3 K2 2.788723 1_554
F3 K3 2.793793 1_455
F4 Mn1 1.888334 1_665
F4 K1 2.736057 1_555
F4 K3 3.025345 1_555
F4 K0 3.125424 1_665
F5 Mn1 1.888334 1_556
F5 K0 2.736057 1_555
F5 K2 3.025345 1_555
F5 K1 3.125424 1_445
F6 Mn0 1.888334 1_556
F6 K0 2.736057 1_555
F6 K2 3.025345 1_555
F6 K1 3.125424 1_545
F7 Mn0 1.888334 1_565
F7 K1 2.736057 1_555
F7 K3 3.025345 1_555
F7 K0 3.125424 1_565
F8 Mn1 2.070214 1_566
F8 Mn0 2.070214 1_566
F8 K2 2.844702 1_555
F8 K0 3.080382 1_565
F9 Mn0 2.070214 1_555
F9 Mn1 2.070214 1_655
F9 K3 2.844702 1_555
F9 K1 3.080382 1_545
