# generated using pymatgen
data_YAl
_symmetry_space_group_name_H-M   'P 1'
_cell_length_a   4.00408950
_cell_length_b   4.33716413
_cell_length_c   6.08382191
_cell_angle_alpha   90.00000000
_cell_angle_beta   109.21274872
_cell_angle_gamma   90.00000000
_symmetry_Int_Tables_number   1
_chemical_formula_structural   YAl
_chemical_formula_sum   'Y2 Al2'
_cell_volume   99.76944931
_cell_formula_units_Z   2
loop_
 _symmetry_equiv_pos_site_id
 _symmetry_equiv_pos_as_xyz
  1  'x, y, z'
loop_
 _atom_site_type_symbol
 _atom_site_label
 _atom_site_symmetry_multiplicity
 _atom_site_fract_x
 _atom_site_fract_y
 _atom_site_fract_z
 _atom_site_occupancy
  Y  Y0  1  0.85114967  0.25000000  0.70229934  1
  Y  Y1  1  0.14885033  0.75000000  0.29770066  1
  Al  Al0  1  0.56818637  0.25000000  0.13637074  1
  Al  Al1  1  0.43181363  0.75000000  0.86362926  1
loop_
_geom_bond_atom_site_label_1
_geom_bond_atom_site_label_2
_geom_bond_distance
_geom_bond_site_symmetry_2
Al0 Al1 2.675425 1_554
Al0 Al1 2.675425 1_544
Al0 Y1 3.093532 1_655
Al0 Y1 3.093532 1_645
Al0 Y1 3.093537 1_545
Al0 Y1 3.093537 1_555
Al0 Y0 3.197944 1_554
Al0 Y0 3.197949 1_454
Al0 Y0 3.251244 1_555
Al1 Y0 3.093532 1_465
Al1 Y0 3.093532 1_455
Al1 Y0 3.093537 1_555
Al1 Y0 3.093537 1_565
Al1 Y1 3.197944 1_556
Al1 Y1 3.197949 1_656
Al1 Y1 3.251244 1_555
