# generated using pymatgen
data_HoCd2
_symmetry_space_group_name_H-M   'P 1'
_cell_length_a   11.98248423
_cell_length_b   9.79038938
_cell_length_c   6.92733109
_cell_angle_alpha   89.97701753
_cell_angle_beta   54.63154879
_cell_angle_gamma   114.10317543
_symmetry_Int_Tables_number   1
_chemical_formula_structural   HoCd2
_chemical_formula_sum   'Ho8 Cd16'
_cell_volume   573.48540004
_cell_formula_units_Z   8
loop_
 _symmetry_equiv_pos_site_id
 _symmetry_equiv_pos_as_xyz
  1  'x, y, z'
loop_
 _atom_site_type_symbol
 _atom_site_label
 _atom_site_symmetry_multiplicity
 _atom_site_fract_x
 _atom_site_fract_y
 _atom_site_fract_z
 _atom_site_occupancy
  Ho  Ho0_0  1  0.00000000  0.00000000  0.49999950  1
  Ho  Ho0_1  1  0.00000000  0.00000000  0.99999950  1
  Ho  Ho0_2  1  0.00000000  0.50000000  0.49999950  1
  Ho  Ho0_3  1  0.00000000  0.50000000  0.99999950  1
  Ho  Ho0_4  1  0.50000000  0.00000000  0.49999950  1
  Ho  Ho0_5  1  0.50000000  0.00000000  0.99999950  1
  Ho  Ho0_6  1  0.50000000  0.50000000  0.49999950  1
  Ho  Ho0_7  1  0.50000000  0.50000000  0.99999950  1
  Cd  Cd0_0  1  0.33324061  0.16664131  0.41737111  1
  Cd  Cd0_1  1  0.33324061  0.16664131  0.91737110  1
  Cd  Cd0_2  1  0.33324060  0.66664131  0.41737110  1
  Cd  Cd0_3  1  0.33324061  0.66664131  0.91737110  1
  Cd  Cd0_4  1  0.83324060  0.16664131  0.41737110  1
  Cd  Cd0_5  1  0.83324061  0.16664131  0.91737111  1
  Cd  Cd0_6  1  0.83324061  0.66664131  0.41737111  1
  Cd  Cd0_7  1  0.83324060  0.66664131  0.91737110  1
  Cd  Cd1_0  1  0.16675940  0.33335869  0.08262939  1
  Cd  Cd1_1  1  0.16675939  0.33335869  0.58262939  1
  Cd  Cd1_2  1  0.16675939  0.83335869  0.08262939  1
  Cd  Cd1_3  1  0.16675940  0.83335869  0.58262939  1
  Cd  Cd1_4  1  0.66675940  0.33335869  0.08262939  1
  Cd  Cd1_5  1  0.66675940  0.33335869  0.58262939  1
  Cd  Cd1_6  1  0.66675939  0.83335869  0.08262940  1
  Cd  Cd1_7  1  0.66675940  0.83335869  0.58262939  1
loop_
_geom_bond_atom_site_label_1
_geom_bond_atom_site_label_2
_geom_bond_distance
_geom_bond_site_symmetry_2
Cd0_0 Cd1_4 2.820184 1_555
Cd0_0 Cd1_1 2.823358 1_555
Cd0_0 Cd1_3 2.823787 1_545
Cd0_0 Ho0_1 3.303433 1_555
Cd0_0 Ho0_0 3.311532 1_555
Cd0_0 Ho0_4 3.311818 1_555
Cd0_0 Ho0_6 3.312290 1_555
Cd0_0 Ho0_7 3.313871 1_554
Cd0_0 Ho0_5 3.315450 1_554
Cd0_0 Cd0_1 3.463666 1_555
Cd0_0 Cd0_1 3.463666 1_554
Cd0_1 Cd1_5 2.820184 1_555
Cd0_1 Cd1_0 2.823358 1_556
Cd0_1 Cd1_2 2.823787 1_546
Cd0_1 Ho0_0 3.303433 1_556
Cd0_1 Ho0_1 3.311532 1_555
Cd0_1 Ho0_5 3.311818 1_555
Cd0_1 Ho0_7 3.312290 1_555
Cd0_1 Ho0_6 3.313871 1_555
Cd0_1 Ho0_4 3.315450 1_555
Cd0_2 Cd1_6 2.820184 1_555
Cd0_2 Cd1_3 2.823358 1_555
Cd0_2 Cd1_1 2.823787 1_555
Cd0_2 Ho0_3 3.303433 1_555
Cd0_2 Ho0_2 3.311532 1_555
Cd0_2 Ho0_6 3.311818 1_555
Cd0_2 Ho0_4 3.312290 1_565
Cd0_2 Ho0_5 3.313871 1_564
Cd0_2 Ho0_7 3.315450 1_554
Cd0_2 Cd0_3 3.463666 1_554
Cd0_2 Cd0_3 3.463666 1_555
Cd0_3 Cd1_7 2.820184 1_555
Cd0_3 Cd1_2 2.823358 1_556
Cd0_3 Cd1_0 2.823787 1_556
Cd0_3 Ho0_2 3.303433 1_556
Cd0_3 Ho0_3 3.311532 1_555
Cd0_3 Ho0_7 3.311818 1_555
Cd0_3 Ho0_5 3.312290 1_565
Cd0_3 Ho0_4 3.313871 1_565
Cd0_3 Ho0_6 3.315450 1_555
Cd0_4 Cd1_0 2.820184 1_655
Cd0_4 Cd1_5 2.823358 1_555
Cd0_4 Cd1_7 2.823787 1_545
Cd0_4 Ho0_5 3.303433 1_555
Cd0_4 Ho0_4 3.311532 1_555
Cd0_4 Ho0_0 3.311818 1_655
Cd0_4 Ho0_2 3.312290 1_655
Cd0_4 Ho0_3 3.313871 1_654
Cd0_4 Ho0_1 3.315450 1_654
Cd0_4 Cd0_5 3.463666 1_554
Cd0_4 Cd0_5 3.463666 1_555
Cd0_5 Cd1_1 2.820184 1_655
Cd0_5 Cd1_4 2.823358 1_556
Cd0_5 Cd1_6 2.823787 1_546
Cd0_5 Ho0_4 3.303433 1_556
Cd0_5 Ho0_5 3.311532 1_555
Cd0_5 Ho0_1 3.311818 1_655
Cd0_5 Ho0_3 3.312290 1_655
Cd0_5 Ho0_2 3.313871 1_655
Cd0_5 Ho0_0 3.315450 1_655
Cd0_6 Cd1_2 2.820184 1_655
Cd0_6 Cd1_7 2.823358 1_555
Cd0_6 Cd1_5 2.823787 1_555
Cd0_6 Ho0_7 3.303433 1_555
Cd0_6 Ho0_6 3.311532 1_555
Cd0_6 Ho0_2 3.311818 1_655
Cd0_6 Ho0_0 3.312290 1_665
Cd0_6 Ho0_1 3.313871 1_664
Cd0_6 Ho0_3 3.315450 1_654
Cd0_6 Cd0_7 3.463666 1_555
Cd0_6 Cd0_7 3.463666 1_554
Cd0_7 Cd1_3 2.820184 1_655
Cd0_7 Cd1_6 2.823358 1_556
Cd0_7 Cd1_4 2.823787 1_556
Cd0_7 Ho0_6 3.303433 1_556
Cd0_7 Ho0_7 3.311532 1_555
Cd0_7 Ho0_3 3.311818 1_655
Cd0_7 Ho0_1 3.312290 1_665
Cd0_7 Ho0_0 3.313871 1_665
Cd0_7 Ho0_2 3.315450 1_655
Cd1_0 Ho0_6 3.303438 1_554
Cd1_0 Ho0_7 3.311526 1_554
Cd1_0 Ho0_3 3.311823 1_554
Cd1_0 Ho0_1 3.312296 1_554
Cd1_0 Ho0_0 3.313865 1_555
Cd1_0 Ho0_2 3.315444 1_555
Cd1_0 Cd1_1 3.463666 1_555
Cd1_0 Cd1_1 3.463666 1_554
Cd1_1 Ho0_7 3.303438 1_554
Cd1_1 Ho0_6 3.311526 1_555
Cd1_1 Ho0_2 3.311823 1_555
Cd1_1 Ho0_0 3.312296 1_555
Cd1_1 Ho0_1 3.313865 1_555
Cd1_1 Ho0_3 3.315444 1_555
Cd1_2 Ho0_4 3.303438 1_564
Cd1_2 Ho0_5 3.311526 1_564
Cd1_2 Ho0_1 3.311823 1_564
Cd1_2 Ho0_3 3.312296 1_554
Cd1_2 Ho0_2 3.313865 1_555
Cd1_2 Ho0_0 3.315444 1_565
Cd1_2 Cd1_3 3.463666 1_555
Cd1_2 Cd1_3 3.463666 1_554
Cd1_3 Ho0_5 3.303438 1_564
Cd1_3 Ho0_4 3.311526 1_565
Cd1_3 Ho0_0 3.311823 1_565
Cd1_3 Ho0_2 3.312296 1_555
Cd1_3 Ho0_3 3.313865 1_555
Cd1_3 Ho0_1 3.315444 1_565
Cd1_4 Ho0_2 3.303438 1_654
Cd1_4 Ho0_3 3.311526 1_654
Cd1_4 Ho0_7 3.311823 1_554
Cd1_4 Ho0_5 3.312296 1_554
Cd1_4 Ho0_4 3.313865 1_555
Cd1_4 Ho0_6 3.315444 1_555
Cd1_4 Cd1_5 3.463666 1_555
Cd1_4 Cd1_5 3.463666 1_554
Cd1_5 Ho0_3 3.303438 1_654
Cd1_5 Ho0_2 3.311526 1_655
Cd1_5 Ho0_6 3.311823 1_555
Cd1_5 Ho0_4 3.312296 1_555
Cd1_5 Ho0_5 3.313865 1_555
Cd1_5 Ho0_7 3.315444 1_555
Cd1_6 Ho0_0 3.303438 1_664
Cd1_6 Ho0_1 3.311526 1_664
Cd1_6 Ho0_5 3.311823 1_564
Cd1_6 Ho0_7 3.312296 1_554
Cd1_6 Ho0_6 3.313865 1_555
Cd1_6 Ho0_4 3.315444 1_565
Cd1_6 Cd1_7 3.463666 1_554
Cd1_6 Cd1_7 3.463666 1_555
Cd1_7 Ho0_1 3.303438 1_664
Cd1_7 Ho0_0 3.311526 1_665
Cd1_7 Ho0_4 3.311823 1_565
Cd1_7 Ho0_6 3.312296 1_555
Cd1_7 Ho0_7 3.313865 1_555
Cd1_7 Ho0_5 3.315444 1_565
