# generated using pymatgen
data_La2ZnFeO6
_symmetry_space_group_name_H-M   'P 1'
_cell_length_a   5.53722294
_cell_length_b   5.53806470
_cell_length_c   5.53921521
_cell_angle_alpha   61.31362289
_cell_angle_beta   61.33205804
_cell_angle_gamma   61.33856436
_symmetry_Int_Tables_number   1
_chemical_formula_structural   La2ZnFeO6
_chemical_formula_sum   'La2 Zn1 Fe1 O6'
_cell_volume   123.69617209
_cell_formula_units_Z   1
loop_
 _symmetry_equiv_pos_site_id
 _symmetry_equiv_pos_as_xyz
  1  'x, y, z'
loop_
 _atom_site_type_symbol
 _atom_site_label
 _atom_site_symmetry_multiplicity
 _atom_site_fract_x
 _atom_site_fract_y
 _atom_site_fract_z
 _atom_site_occupancy
  La  La0  1  0.75073800  0.75070700  0.75064200  1
  La  La1  1  0.24926200  0.24929200  0.24935900  1
  Zn  Zn0  1  0.50000000  0.50000000  0.50000000  1
  Fe  Fe0  1  0.00000000  0.00000000  0.00000000  1
  O  O0  1  0.31837400  0.75986500  0.16954000  1
  O  O1  1  0.75974100  0.16959900  0.31855000  1
  O  O2  1  0.16958400  0.31852500  0.75977200  1
  O  O3  1  0.68162600  0.24013600  0.83045900  1
  O  O4  1  0.83041700  0.68147400  0.24022800  1
  O  O5  1  0.24025800  0.83040100  0.68145000  1
loop_
_geom_bond_atom_site_label_1
_geom_bond_atom_site_label_2
_geom_bond_distance
_geom_bond_site_symmetry_2
La0 O1 2.403901 1_565
La0 O2 2.404477 1_655
La0 O0 2.405175 1_556
La0 O5 2.770804 1_655
La0 O3 2.771604 1_565
La0 O4 2.771945 1_556
La0 O5 2.830534 1_555
La0 O3 2.830654 1_555
La0 O4 2.831403 1_555
La1 O5 2.403895 1_545
La1 O4 2.404474 1_455
La1 O3 2.405181 1_554
La1 O1 2.770809 1_455
La1 O0 2.771600 1_545
La1 O2 2.771948 1_554
La1 O1 2.830528 1_555
La1 O0 2.830661 1_555
La1 O2 2.831400 1_555
Fe0 O0 1.974560 1_545
Fe0 O3 1.974563 1_454
Fe0 O2 1.975041 1_554
Fe0 O4 1.975042 1_445
Fe0 O5 1.976289 1_544
Fe0 O1 1.976289 1_455
O0 Zn0 2.069332 1_555
O1 Zn0 2.069057 1_555
O2 Zn0 2.068227 1_555
O3 Zn0 2.069328 1_555
O4 Zn0 2.068228 1_555
O5 Zn0 2.069058 1_555
