# generated using pymatgen
data_NaSmV4O12
_symmetry_space_group_name_H-M   'P 1'
_cell_length_a   5.30699986
_cell_length_b   5.30699986
_cell_length_c   7.51467614
_cell_angle_alpha   90.00000000
_cell_angle_beta   90.00000000
_cell_angle_gamma   90.00000000
_symmetry_Int_Tables_number   1
_chemical_formula_structural   NaSmV4O12
_chemical_formula_sum   'Na1 Sm1 V4 O12'
_cell_volume   211.64519879
_cell_formula_units_Z   1
loop_
 _symmetry_equiv_pos_site_id
 _symmetry_equiv_pos_as_xyz
  1  'x, y, z'
loop_
 _atom_site_type_symbol
 _atom_site_label
 _atom_site_symmetry_multiplicity
 _atom_site_fract_x
 _atom_site_fract_y
 _atom_site_fract_z
 _atom_site_occupancy
  Na  Na0  1  0.50000000  0.50000000  0.50000000  1
  Sm  Sm0  1  0.00000000  -0.00000000  -0.00000000  1
  V  V0  1  -0.00000000  0.50000000  0.74482568  1
  V  V1  1  0.00000000  0.50000000  0.25517432  1
  V  V2  1  0.50000000  -0.00000000  0.74482568  1
  V  V3  1  0.50000000  -0.00000000  0.25517432  1
  O  O0  1  0.24460817  0.24460817  0.24378824  1
  O  O1  1  0.24460817  0.24460817  0.75621176  1
  O  O2  1  0.75539183  0.75539183  0.75621176  1
  O  O3  1  0.75539183  0.75539183  0.24378824  1
  O  O4  1  0.75539183  0.24460817  0.75621176  1
  O  O5  1  0.75539183  0.24460817  0.24378824  1
  O  O6  1  0.24460817  0.75539183  0.75621176  1
  O  O7  1  0.24460817  0.75539183  0.24378824  1
  O  O8  1  -0.00000000  0.50000000  0.50000000  1
  O  O9  1  0.00000000  0.50000000  -0.00000000  1
  O  O10  1  0.50000000  0.00000000  0.50000000  1
  O  O11  1  0.50000000  -0.00000000  -0.00000000  1
loop_
_geom_bond_atom_site_label_1
_geom_bond_atom_site_label_2
_geom_bond_distance
_geom_bond_site_symmetry_2
Na0 O10 2.653500 1_565
Na0 O8 2.653500 1_555
Na0 O8 2.653500 1_655
Na0 O10 2.653500 1_555
Na0 O6 2.716798 1_555
Na0 O1 2.716798 1_555
Na0 O7 2.716798 1_555
Na0 O4 2.716798 1_555
Na0 O0 2.716798 1_555
Na0 O5 2.716798 1_555
Na0 O2 2.716798 1_555
Na0 O3 2.716798 1_555
O0 V3 1.878694 1_555
O0 V1 1.878694 1_555
O0 Sm0 2.593549 1_555
O1 V2 1.878694 1_555
O1 V0 1.878694 1_555
O1 Sm0 2.593549 1_556
O2 V2 1.878694 1_565
O2 V0 1.878694 1_655
O2 Sm0 2.593549 1_666
O3 V3 1.878694 1_565
O3 V1 1.878694 1_655
O3 Sm0 2.593549 1_665
O4 V0 1.878694 1_655
O4 V2 1.878694 1_555
O4 Sm0 2.593549 1_656
O5 V3 1.878694 1_555
O5 V1 1.878694 1_655
O5 Sm0 2.593549 1_655
O6 V2 1.878694 1_565
O6 V0 1.878694 1_555
O6 Sm0 2.593549 1_566
O7 V3 1.878694 1_565
O7 V1 1.878694 1_555
O7 Sm0 2.593549 1_565
O8 V1 1.839786 1_555
O8 V0 1.839786 1_555
O9 V0 1.917552 1_554
O9 V1 1.917552 1_555
O9 Sm0 2.653500 1_565
O9 Sm0 2.653500 1_555
O10 V3 1.839786 1_555
O10 V2 1.839786 1_555
O11 V2 1.917552 1_554
O11 V3 1.917552 1_555
O11 Sm0 2.653500 1_655
O11 Sm0 2.653500 1_555
