# generated using pymatgen
data_Li3Mn3(PO4)4
_symmetry_space_group_name_H-M   'P 1'
_cell_length_a   7.66242878
_cell_length_b   8.12933601
_cell_length_c   10.06702767
_cell_angle_alpha   89.95547758
_cell_angle_beta   93.09042299
_cell_angle_gamma   91.07628231
_symmetry_Int_Tables_number   1
_chemical_formula_structural   Li3Mn3(PO4)4
_chemical_formula_sum   'Li6 Mn6 P8 O32'
_cell_volume   626.05731113
_cell_formula_units_Z   2
loop_
 _symmetry_equiv_pos_site_id
 _symmetry_equiv_pos_as_xyz
  1  'x, y, z'
loop_
 _atom_site_type_symbol
 _atom_site_label
 _atom_site_symmetry_multiplicity
 _atom_site_fract_x
 _atom_site_fract_y
 _atom_site_fract_z
 _atom_site_occupancy
  Li  Li0  1  0.08392186  0.36942145  0.29962522  1
  Li  Li1  1  0.41336294  0.86952982  0.95061431  1
  Li  Li2  1  0.59920732  0.14313723  0.54772752  1
  Li  Li3  1  0.59033688  0.13741413  0.04813026  1
  Li  Li4  1  0.90284701  0.64057399  0.70168544  1
  Li  Li5  1  0.91193000  0.63561788  0.20226046  1
  Mn  Mn0  1  0.09426496  0.35792011  0.80980584  1
  Mn  Mn1  1  0.40195933  0.85611775  0.44186353  1
  Mn  Mn2  1  0.50592585  0.49313776  0.50154066  1
  Mn  Mn3  1  0.52542306  0.51056588  0.00127535  1
  Mn  Mn4  1  0.99444664  0.99159672  0.74743391  1
  Mn  Mn5  1  0.97209434  0.00972143  0.24854861  1
  P  P0  1  0.80192317  0.80342993  0.48364249  1
  P  P1  1  0.80715441  0.81884343  0.98477567  1
  P  P2  1  0.68800791  0.31993340  0.26478299  1
  P  P3  1  0.69216414  0.30584261  0.76648808  1
  P  P4  1  0.31150028  0.68334217  0.22587573  1
  P  P5  1  0.31635598  0.68511517  0.73949393  1
  P  P6  1  0.19043021  0.18667470  0.51088069  1
  P  P7  1  0.19160385  0.18486242  0.02324446  1
  O  O0  1  0.25834437  0.85765221  0.77334633  1
  O  O1  1  0.95039513  0.85542609  0.58843013  1
  O  O2  1  0.87909728  0.81274014  0.34367063  1
  O  O3  1  0.84595074  0.43363323  0.27382532  1
  O  O4  1  0.89926262  0.81077858  0.84808810  1
  O  O5  1  0.85787034  0.42275552  0.76541301  1
  O  O6  1  0.04596367  0.14973355  0.90287843  1
  O  O7  1  0.03932986  0.13378865  0.41124028  1
  O  O8  1  0.11479940  0.18347607  0.65452287  1
  O  O9  1  0.15696035  0.56220427  0.73448712  1
  O  O10  1  0.09738392  0.19307906  0.15415686  1
  O  O11  1  0.15829844  0.56703877  0.22297362  1
  O  O12  1  0.95533960  0.87372481  0.09148959  1
  O  O13  1  0.24457004  0.36440342  0.97157096  1
  O  O14  1  0.26035671  0.86075541  0.27624223  1
  O  O15  1  0.25467819  0.36039899  0.47716678  1
  O  O16  1  0.34279097  0.06278367  0.51475289  1
  O  O17  1  0.38923588  0.68031432  0.59564445  1
  O  O18  1  0.34018775  0.06952429  0.02551559  1
  O  O19  1  0.46399025  0.63008432  0.83866838  1
  O  O20  1  0.75911873  0.63849859  0.02266686  1
  O  O21  1  0.45344583  0.64984146  0.34767819  1
  O  O22  1  0.55068788  0.36272706  0.66075446  1
  O  O23  1  0.54411640  0.37953775  0.15868170  1
  O  O24  1  0.61764732  0.31804260  0.90674907  1
  O  O25  1  0.65597867  0.93323542  0.97666469  1
  O  O26  1  0.59787791  0.31525572  0.40242904  1
  O  O27  1  0.64706030  0.92241451  0.48763950  1
  O  O28  1  0.74382943  0.62760615  0.52255652  1
  O  O29  1  0.74421845  0.13225863  0.72765928  1
  O  O30  1  0.72993452  0.14114520  0.22704373  1
  O  O31  1  0.40642092  0.69233760  0.09570125  1
loop_
_geom_bond_atom_site_label_1
_geom_bond_atom_site_label_2
_geom_bond_distance
_geom_bond_site_symmetry_2
Li0 O11 1.874079 1_555
Li0 O3 1.910326 1_455
Li0 O10 2.058001 1_555
Li0 O15 2.159412 1_555
Li0 O7 2.249899 1_555
Li1 O18 1.899470 1_566
Li1 O25 1.924690 1_555
Li1 O31 2.052634 1_556
Li1 O0 2.091004 1_555
Li1 O19 2.299661 1_555
Li2 O27 1.941725 1_545
Li2 O26 2.023166 1_555
Li2 O16 2.068579 1_555
Li2 O29 2.076045 1_555
Li2 O22 2.166394 1_555
Li3 O25 1.896809 1_544
Li3 O18 1.985889 1_555
Li3 O30 2.044573 1_555
Li3 O24 2.059862 1_554
Li3 O23 2.304418 1_555
Li4 O5 1.914406 1_555
Li4 O4 2.023958 1_555
Li4 O9 2.069583 1_655
Li4 O1 2.121576 1_555
Li4 O28 2.122779 1_555
Li5 O3 1.864685 1_555
Li5 O11 1.978615 1_655
Li5 O2 2.053912 1_555
Li5 O20 2.100724 1_555
Li5 O12 2.261274 1_555
Mn0 O9 1.889698 1_555
Mn0 O5 1.925293 1_455
Mn0 O13 1.943402 1_555
Mn0 O6 1.972449 1_555
Mn0 O8 2.125527 1_555
Mn1 O16 1.906035 1_565
Mn1 O14 1.940362 1_555
Mn1 O27 1.974592 1_555
Mn1 O21 1.983500 1_555
Mn1 O17 2.110991 1_555
Mn2 O26 1.923374 1_555
Mn2 O22 1.939666 1_555
Mn2 O21 2.032915 1_555
Mn2 O17 2.038858 1_555
Mn2 O28 2.108711 1_555
Mn2 O15 2.191420 1_555
Mn3 O23 1.909121 1_555
Mn3 O19 1.943422 1_554
Mn3 O24 1.992681 1_554
Mn3 O31 2.016157 1_555
Mn3 O20 2.055072 1_555
Mn3 O13 2.442852 1_554
Mn4 O4 1.938165 1_555
Mn4 O1 1.957554 1_555
Mn4 O6 2.043212 1_665
Mn4 O8 2.048203 1_665
Mn4 O29 2.250401 1_565
Mn4 O0 2.316891 1_655
Mn5 O12 1.927221 1_545
Mn5 O7 1.963972 1_655
Mn5 O2 2.004330 1_545
Mn5 O10 2.022085 1_655
Mn5 O30 2.159195 1_555
Mn5 O14 2.540974 1_645
O0 P5 1.523662 1_555
O1 P0 1.561721 1_555
O2 P0 1.558517 1_555
O3 P2 1.507813 1_555
O4 P1 1.581925 1_555
O5 P3 1.572171 1_555
O6 P7 1.624180 1_556
O7 P6 1.545397 1_555
O8 P6 1.586602 1_555
O9 P5 1.562120 1_555
O10 P7 1.538530 1_555
O11 P4 1.492465 1_555
O12 P1 1.578799 1_554
O13 P7 1.601541 1_556
O14 P4 1.592026 1_555
O15 P6 1.530747 1_555
O16 P6 1.555000 1_555
O17 P5 1.580689 1_555
O18 P7 1.487661 1_555
O19 P5 1.540506 1_555
O20 P1 1.557042 1_554
O21 P4 1.620954 1_555
O22 P3 1.554239 1_555
O23 P2 1.575942 1_555
O24 P3 1.555283 1_555
O25 P1 1.497805 1_555
O26 P2 1.581341 1_555
O27 P0 1.547136 1_555
O28 P0 1.545520 1_555
O29 P3 1.530348 1_555
O30 P2 1.546469 1_555
O31 P4 1.533721 1_555
