# generated using pymatgen
data_Al5(CuO4)3
_symmetry_space_group_name_H-M   'P 1'
_cell_length_a   5.76061597
_cell_length_b   5.76061597
_cell_length_c   14.14933789
_cell_angle_alpha   89.77553133
_cell_angle_beta   89.77553133
_cell_angle_gamma   60.07597533
_symmetry_Int_Tables_number   1
_chemical_formula_structural   Al5(CuO4)3
_chemical_formula_sum   'Al10 Cu6 O24'
_cell_volume   406.94163656
_cell_formula_units_Z   2
loop_
 _symmetry_equiv_pos_site_id
 _symmetry_equiv_pos_as_xyz
  1  'x, y, z'
loop_
 _atom_site_type_symbol
 _atom_site_label
 _atom_site_symmetry_multiplicity
 _atom_site_fract_x
 _atom_site_fract_y
 _atom_site_fract_z
 _atom_site_occupancy
  Al  Al0  1  0.33249000  0.33249000  0.83200100  1
  Al  Al1  1  0.33253100  0.83577800  0.83096600  1
  Al  Al2  1  0.99795500  0.99795500  0.50086400  1
  Al  Al3  1  0.83577800  0.33253100  0.83096600  1
  Al  Al4  1  0.82946500  0.82946500  0.33135100  1
  Al  Al5  1  0.99801100  0.50527400  0.50128000  1
  Al  Al6  1  0.50527400  0.99801100  0.50128000  1
  Al  Al7  1  0.66719600  0.16714300  0.16498400  1
  Al  Al8  1  0.16714300  0.66719600  0.16498400  1
  Al  Al9  1  0.16246400  0.16246400  0.04278900  1
  Cu  Cu0  1  0.83131700  0.83131700  0.96294500  1
  Cu  Cu1  1  0.50418600  0.50418600  0.99969400  1
  Cu  Cu2  1  0.50027600  0.50027600  0.62734000  1
  Cu  Cu3  1  0.16834900  0.16834900  0.28819600  1
  Cu  Cu4  1  0.16685300  0.16685300  0.66985200  1
  Cu  Cu5  1  0.50200600  0.50200600  0.36746500  1
  O  O0  1  0.65638400  0.65638400  0.90567100  1
  O  O1  1  0.50030200  0.50030200  0.76535200  1
  O  O2  1  0.65252100  0.19765600  0.90906300  1
  O  O3  1  0.19765600  0.65252100  0.90906300  1
  O  O4  1  0.31803900  0.31803900  0.57667600  1
  O  O5  1  0.45866600  0.02176700  0.75900800  1
  O  O6  1  0.16840800  0.16840800  0.91464100  1
  O  O7  1  0.16711500  0.16711500  0.43179200  1
  O  O8  1  0.31757500  0.86484600  0.57669200  1
  O  O9  1  0.02176700  0.45866600  0.75900800  1
  O  O10  1  0.86484600  0.31757500  0.57669200  1
  O  O11  1  0.02044200  0.02044200  0.75935400  1
  O  O12  1  0.13272300  0.68487500  0.42047400  1
  O  O13  1  0.98294600  0.98294600  0.24634300  1
  O  O14  1  0.83368700  0.83368700  0.56275300  1
  O  O15  1  0.68487500  0.13272300  0.42047400  1
  O  O16  1  0.84538600  0.84538600  0.09432400  1
  O  O17  1  0.00698600  0.53182400  0.25210300  1
  O  O18  1  0.53182400  0.00698600  0.25210300  1
  O  O19  1  0.68260100  0.68260100  0.42108100  1
  O  O20  1  0.82056300  0.31456800  0.08277000  1
  O  O21  1  0.48313900  0.48313900  0.23665400  1
  O  O22  1  0.31456800  0.82056300  0.08277000  1
  O  O23  1  0.33451000  0.33451000  0.08889300  1
loop_
_geom_bond_atom_site_label_1
_geom_bond_atom_site_label_2
_geom_bond_distance
_geom_bond_site_symmetry_2
Al0 O9 1.873365 1_555
Al0 O5 1.873365 1_555
Al0 O1 1.917399 1_555
Al0 O2 1.942021 1_555
Al0 O3 1.942021 1_555
Al0 O6 2.007032 1_555
Al1 O5 1.864111 1_565
Al1 O11 1.867681 1_565
Al1 O1 1.916845 1_555
Al1 O3 1.934336 1_555
Al1 O0 1.936254 1_555
Al1 O6 2.041761 1_565
Al2 O14 1.854225 1_555
Al2 O10 1.931222 1_565
Al2 O8 1.931222 1_655
Al2 O12 1.939453 1_655
Al2 O15 1.939453 1_565
Al2 O7 1.945971 1_665
Al3 O9 1.864111 1_655
Al3 O11 1.867681 1_655
Al3 O1 1.916845 1_555
Al3 O2 1.934336 1_555
Al3 O0 1.936254 1_555
Al3 O6 2.041761 1_655
Al4 O17 1.870735 1_655
Al4 O18 1.870735 1_565
Al4 O19 1.934100 1_555
Al4 O13 1.942529 1_555
Al4 O15 1.973095 1_565
Al4 O12 1.973095 1_655
Al5 O14 1.857812 1_555
Al5 O10 1.925677 1_555
Al5 O4 1.929418 1_655
Al5 O12 1.940285 1_655
Al5 O19 1.946226 1_555
Al5 O7 1.955659 1_655
Al6 O14 1.857812 1_555
Al6 O8 1.925677 1_555
Al6 O4 1.929418 1_565
Al6 O15 1.940285 1_565
Al6 O19 1.946226 1_555
Al6 O7 1.955659 1_565
Al7 O21 1.883236 1_555
Al7 O20 1.894146 1_555
Al7 O16 1.896583 1_545
Al7 O18 1.918382 1_555
Al7 O13 1.959797 1_545
Al7 O23 1.981445 1_555
Al8 O21 1.883236 1_555
Al8 O22 1.894146 1_555
Al8 O16 1.896583 1_455
Al8 O17 1.918382 1_555
Al8 O13 1.959797 1_455
Al8 O23 1.981445 1_555
Al9 O22 1.800084 1_545
Al9 O20 1.800084 1_455
Al9 O6 1.813910 1_554
Al9 O23 1.838534 1_555
Cu0 O16 1.864848 1_556
Cu0 O0 1.927098 1_555
Cu0 O2 1.980042 1_565
Cu0 O3 1.980042 1_655
Cu1 O22 1.979144 1_556
Cu1 O20 1.979144 1_556
Cu1 O2 1.999110 1_555
Cu1 O3 1.999110 1_555
Cu1 O0 2.013930 1_555
Cu1 O23 2.106548 1_556
Cu2 O1 1.952780 1_555
Cu2 O10 1.954670 1_555
Cu2 O8 1.954670 1_555
Cu2 O4 1.956879 1_555
Cu3 O17 1.887464 1_555
Cu3 O18 1.887464 1_555
Cu3 O13 1.944243 1_445
Cu3 O7 2.031770 1_555
Cu4 O11 1.928585 1_555
Cu4 O5 1.929342 1_555
Cu4 O9 1.929342 1_555
Cu4 O4 1.998478 1_555
Cu4 O8 2.005003 1_545
Cu4 O10 2.005003 1_455
Cu5 O21 1.861277 1_555
Cu5 O19 1.957630 1_555
Cu5 O12 1.988857 1_555
Cu5 O15 1.988857 1_555
