# generated using pymatgen
data_K9(FeO4)2
_symmetry_space_group_name_H-M   'P 1'
_cell_length_a   10.56596146
_cell_length_b   10.56596146
_cell_length_c   13.58791175
_cell_angle_alpha   87.37090795
_cell_angle_beta   87.37090795
_cell_angle_gamma   76.38071799
_symmetry_Int_Tables_number   1
_chemical_formula_structural   K9(FeO4)2
_chemical_formula_sum   'K36 Fe8 O32'
_cell_volume   1471.78145143
_cell_formula_units_Z   4
loop_
 _symmetry_equiv_pos_site_id
 _symmetry_equiv_pos_as_xyz
  1  'x, y, z'
loop_
 _atom_site_type_symbol
 _atom_site_label
 _atom_site_symmetry_multiplicity
 _atom_site_fract_x
 _atom_site_fract_y
 _atom_site_fract_z
 _atom_site_occupancy
  K  K0  1  0.10835500  0.71273800  0.71686900  1
  K  K1  1  0.28726200  0.89164500  0.78313100  1
  K  K2  1  0.89164500  0.28726200  0.28313100  1
  K  K3  1  0.71273800  0.10835500  0.21686900  1
  K  K4  1  0.44377500  0.55622500  0.75000000  1
  K  K5  1  0.55622500  0.44377500  0.25000000  1
  K  K6  1  0.90675400  0.39803700  0.53459700  1
  K  K7  1  0.60196300  0.09324600  0.96540300  1
  K  K8  1  0.09324600  0.60196300  0.46540300  1
  K  K9  1  0.39803700  0.90675400  0.03459700  1
  K  K10  1  0.90417800  0.68749000  0.89028900  1
  K  K11  1  0.31251000  0.09582200  0.60971100  1
  K  K12  1  0.09582200  0.31251000  0.10971100  1
  K  K13  1  0.68749000  0.90417800  0.39028900  1
  K  K14  1  0.92347600  0.90417100  0.53914600  1
  K  K15  1  0.09582900  0.07652400  0.96085400  1
  K  K16  1  0.07652400  0.09582900  0.46085400  1
  K  K17  1  0.90417100  0.92347600  0.03914600  1
  K  K18  1  0.20062700  0.38983200  0.65795500  1
  K  K19  1  0.61016800  0.79937300  0.84204500  1
  K  K20  1  0.79937300  0.61016800  0.34204500  1
  K  K21  1  0.38983200  0.20062700  0.15795500  1
  K  K22  1  0.61263300  0.57952500  0.02787000  1
  K  K23  1  0.42047500  0.38736700  0.47213000  1
  K  K24  1  0.38736700  0.42047500  0.97213000  1
  K  K25  1  0.57952500  0.61263300  0.52787000  1
  K  K26  1  0.09412400  0.40148800  0.88006300  1
  K  K27  1  0.59851200  0.90587600  0.61993700  1
  K  K28  1  0.90587600  0.59851200  0.11993700  1
  K  K29  1  0.40148800  0.09412400  0.38006300  1
  K  K30  1  0.81507600  0.38640700  0.78647300  1
  K  K31  1  0.61359300  0.18492400  0.71352700  1
  K  K32  1  0.18492400  0.61359300  0.21352700  1
  K  K33  1  0.38640700  0.81507600  0.28647300  1
  K  K34  1  0.96060500  0.03939500  0.75000000  1
  K  K35  1  0.03939500  0.96060500  0.25000000  1
  Fe  Fe0  1  0.82435800  0.66143700  0.66128500  1
  Fe  Fe1  1  0.33856300  0.17564200  0.83871500  1
  Fe  Fe2  1  0.17564200  0.33856300  0.33871500  1
  Fe  Fe3  1  0.66143700  0.82435800  0.16128500  1
  Fe  Fe4  1  0.19847500  0.72607300  0.98073100  1
  Fe  Fe5  1  0.27392700  0.80152500  0.51926900  1
  Fe  Fe6  1  0.80152500  0.27392700  0.01926900  1
  Fe  Fe7  1  0.72607300  0.19847500  0.48073100  1
  O  O0  1  0.08947500  0.83573000  0.89078700  1
  O  O1  1  0.16427000  0.91052500  0.60921300  1
  O  O2  1  0.91052500  0.16427000  0.10921300  1
  O  O3  1  0.83573000  0.08947500  0.39078700  1
  O  O4  1  0.14075600  0.57194400  0.01652700  1
  O  O5  1  0.42805600  0.85924400  0.48347300  1
  O  O6  1  0.85924400  0.42805600  0.98347300  1
  O  O7  1  0.57194400  0.14075600  0.51652700  1
  O  O8  1  0.82738200  0.18197700  0.59237900  1
  O  O9  1  0.81802300  0.17261800  0.90762100  1
  O  O10  1  0.17261800  0.81802300  0.40762100  1
  O  O11  1  0.18197700  0.82738200  0.09237900  1
  O  O12  1  0.31233500  0.62898300  0.57788200  1
  O  O13  1  0.37101700  0.68766500  0.92211800  1
  O  O14  1  0.68766500  0.37101700  0.42211800  1
  O  O15  1  0.62898300  0.31233500  0.07788200  1
  O  O16  1  0.81547500  0.69193700  0.52146500  1
  O  O17  1  0.30806300  0.18452500  0.97853500  1
  O  O18  1  0.18452500  0.30806300  0.47853500  1
  O  O19  1  0.69193700  0.81547500  0.02146500  1
  O  O20  1  0.97167200  0.53147500  0.70336100  1
  O  O21  1  0.46852500  0.02832800  0.79663900  1
  O  O22  1  0.02832800  0.46852500  0.29663900  1
  O  O23  1  0.53147500  0.97167200  0.20336100  1
  O  O24  1  0.83294100  0.81910400  0.71669400  1
  O  O25  1  0.18089600  0.16705900  0.78330600  1
  O  O26  1  0.16705900  0.18089600  0.28330600  1
  O  O27  1  0.81910400  0.83294100  0.21669400  1
  O  O28  1  0.66975000  0.61294200  0.70888800  1
  O  O29  1  0.38705800  0.33025000  0.79111200  1
  O  O30  1  0.33025000  0.38705800  0.29111200  1
  O  O31  1  0.61294200  0.66975000  0.20888800  1
loop_
_geom_bond_atom_site_label_1
_geom_bond_atom_site_label_2
_geom_bond_distance
_geom_bond_site_symmetry_2
K0 O1 2.660431 1_555
K0 O20 2.673308 1_455
K0 O0 2.725730 1_555
K0 O12 2.806513 1_555
K0 O24 2.862072 1_455
K1 O0 2.660431 1_555
K1 O21 2.673308 1_565
K1 O1 2.725730 1_555
K1 O13 2.806513 1_555
K1 O25 2.862072 1_565
K2 O3 2.660431 1_555
K2 O22 2.673308 1_655
K2 O2 2.725730 1_555
K2 O14 2.806513 1_555
K2 O26 2.862072 1_655
K3 O2 2.660431 1_555
K3 O23 2.673308 1_545
K3 O3 2.725730 1_555
K3 O15 2.806513 1_555
K3 O27 2.862072 1_545
K4 O28 2.625412 1_555
K4 O29 2.625412 1_555
K4 O13 2.760361 1_555
K4 O12 2.760361 1_555
K5 O31 2.625412 1_555
K5 O30 2.625412 1_555
K5 O14 2.760361 1_555
K5 O15 2.760361 1_555
K6 O8 2.684788 1_555
K6 O14 2.907217 1_555
K6 O20 2.934824 1_555
K6 O18 2.940263 1_655
K6 O16 3.026489 1_555
K7 O9 2.684788 1_555
K7 O15 2.907217 1_556
K7 O21 2.934824 1_555
K7 O19 2.940263 1_546
K7 O17 3.026489 1_555
K8 O10 2.684788 1_555
K8 O12 2.907217 1_555
K8 O22 2.934824 1_555
K8 O16 2.940263 1_455
K8 O18 3.026489 1_555
K9 O11 2.684788 1_555
K9 O13 2.907217 1_554
K9 O23 2.934824 1_555
K9 O17 2.940263 1_564
K9 O19 3.026489 1_555
K10 O24 2.726410 1_555
K10 O0 2.780796 1_655
K10 O19 2.908760 1_556
K10 O20 3.056415 1_555
K10 O4 3.073305 1_656
K10 O6 3.095473 1_555
K11 O25 2.726410 1_555
K11 O1 2.780796 1_545
K11 O18 2.908760 1_555
K11 O21 3.056415 1_555
K11 O5 3.073305 1_545
K11 O7 3.095473 1_555
K12 O26 2.726410 1_555
K12 O2 2.780796 1_455
K12 O17 2.908760 1_554
K12 O22 3.056415 1_555
K12 O6 3.073305 1_454
K12 O4 3.095473 1_555
K13 O27 2.726410 1_555
K13 O3 2.780796 1_565
K13 O16 2.908760 1_555
K13 O23 3.056415 1_555
K13 O7 3.073305 1_565
K13 O5 3.095473 1_555
K14 O24 2.745430 1_555
K14 O16 2.769151 1_555
K14 O1 2.773538 1_655
K14 O3 2.776923 1_565
K14 O8 2.982261 1_565
K14 O10 3.088901 1_655
K15 O25 2.745430 1_555
K15 O17 2.769151 1_555
K15 O0 2.773538 1_545
K15 O2 2.776923 1_456
K15 O9 2.982261 1_455
K15 O11 3.088901 1_546
K16 O26 2.745430 1_555
K16 O18 2.769151 1_555
K16 O3 2.773538 1_455
K16 O1 2.776923 1_545
K16 O10 2.982261 1_545
K16 O8 3.088901 1_455
K17 O27 2.745430 1_555
K17 O19 2.769151 1_555
K17 O2 2.773538 1_565
K17 O0 2.776923 1_654
K17 O11 2.982261 1_655
K17 O9 3.088901 1_564
K18 O20 2.591411 1_455
K18 O18 2.649427 1_555
K18 O29 2.681166 1_555
K18 O25 2.883695 1_555
K18 O12 3.161717 1_555
K19 O21 2.591411 1_565
K19 O19 2.649427 1_556
K19 O28 2.681166 1_555
K19 O24 2.883695 1_555
K19 O13 3.161717 1_555
K20 O22 2.591411 1_655
K20 O16 2.649427 1_555
K20 O31 2.681166 1_555
K20 O27 2.883695 1_555
K20 O14 3.161717 1_555
K21 O23 2.591411 1_545
K21 O17 2.649427 1_554
K21 O30 2.681166 1_555
K21 O26 2.883695 1_555
K21 O15 3.161717 1_555
K22 O31 2.678814 1_555
K22 O6 2.774041 1_554
K22 O19 2.807510 1_555
K22 O15 2.840200 1_555
K22 O13 2.949559 1_554
K23 O30 2.678814 1_555
K23 O7 2.774041 1_555
K23 O18 2.807510 1_555
K23 O14 2.840200 1_555
K23 O12 2.949559 1_555
K24 O29 2.678814 1_555
K24 O4 2.774041 1_556
K24 O17 2.807510 1_555
K24 O13 2.840200 1_555
K24 O15 2.949559 1_556
K25 O28 2.678814 1_555
K25 O5 2.774041 1_555
K25 O16 2.807510 1_555
K25 O12 2.840200 1_555
K25 O14 2.949559 1_555
K26 O6 2.756876 1_455
K26 O4 2.780802 1_556
K26 O25 2.796988 1_555
K26 O20 2.910460 1_455
K26 O17 3.116240 1_555
K26 O29 3.201618 1_555
K27 O7 2.756876 1_565
K27 O5 2.780802 1_555
K27 O24 2.796988 1_555
K27 O21 2.910460 1_565
K27 O16 3.116240 1_555
K27 O28 3.201618 1_555
K28 O4 2.756876 1_655
K28 O6 2.780802 1_554
K28 O27 2.796988 1_555
K28 O22 2.910460 1_655
K28 O19 3.116240 1_555
K28 O31 3.201618 1_555
K29 O5 2.756876 1_545
K29 O7 2.780802 1_555
K29 O26 2.796988 1_555
K29 O23 2.910460 1_545
K29 O18 3.116240 1_555
K29 O30 3.201618 1_555
K30 O20 2.688229 1_555
K30 O28 2.717435 1_555
K30 O9 2.728330 1_555
K30 O6 2.810015 1_555
K31 O21 2.688229 1_555
K31 O29 2.717435 1_555
K31 O8 2.728330 1_555
K31 O7 2.810015 1_555
K32 O22 2.688229 1_555
K32 O30 2.717435 1_555
K32 O11 2.728330 1_555
K32 O4 2.810015 1_555
K33 O23 2.688229 1_555
K33 O31 2.717435 1_555
K33 O10 2.728330 1_555
K33 O5 2.810015 1_555
K34 O8 2.796418 1_555
K34 O9 2.796418 1_555
K34 O0 2.936966 1_645
K34 O1 2.936966 1_645
K34 O25 3.012177 1_655
K34 O24 3.012177 1_545
K35 O10 2.796418 1_555
K35 O11 2.796418 1_555
K35 O3 2.936966 1_465
K35 O2 2.936966 1_465
K35 O26 3.012177 1_565
K35 O27 3.012177 1_455
Fe0 O24 1.882228 1_555
Fe0 O28 1.901677 1_555
Fe0 O20 1.907422 1_555
Fe0 O16 1.915224 1_555
Fe1 O25 1.882228 1_555
Fe1 O29 1.901677 1_555
Fe1 O21 1.907422 1_555
Fe1 O17 1.915224 1_555
Fe2 O26 1.882228 1_555
Fe2 O30 1.901677 1_555
Fe2 O22 1.907422 1_555
Fe2 O18 1.915224 1_555
Fe3 O27 1.882228 1_555
Fe3 O31 1.901677 1_555
Fe3 O23 1.907422 1_555
Fe3 O19 1.915224 1_555
Fe4 O11 1.874706 1_556
Fe4 O0 1.879702 1_555
Fe4 O4 1.904842 1_556
Fe4 O13 1.915884 1_555
Fe5 O10 1.874706 1_555
Fe5 O1 1.879702 1_555
Fe5 O5 1.904842 1_555
Fe5 O12 1.915884 1_555
Fe6 O9 1.874706 1_554
Fe6 O2 1.879702 1_555
Fe6 O6 1.904842 1_554
Fe6 O15 1.915884 1_555
Fe7 O8 1.874706 1_555
Fe7 O3 1.879702 1_555
Fe7 O7 1.904842 1_555
Fe7 O14 1.915884 1_555
