# generated using pymatgen
data_Mg14SiNi
_symmetry_space_group_name_H-M   'P 1'
_cell_length_a   6.18731258
_cell_length_b   6.25201874
_cell_length_c   10.03686374
_cell_angle_alpha   90.00000000
_cell_angle_beta   90.00000000
_cell_angle_gamma   120.34655611
_symmetry_Int_Tables_number   1
_chemical_formula_structural   Mg14SiNi
_chemical_formula_sum   'Mg14 Si1 Ni1'
_cell_volume   335.06090603
_cell_formula_units_Z   1
loop_
 _symmetry_equiv_pos_site_id
 _symmetry_equiv_pos_as_xyz
  1  'x, y, z'
loop_
 _atom_site_type_symbol
 _atom_site_label
 _atom_site_symmetry_multiplicity
 _atom_site_fract_x
 _atom_site_fract_y
 _atom_site_fract_z
 _atom_site_occupancy
  Mg  Mg0  1  0.17187739  0.33593820  0.62500000  1
  Mg  Mg1  1  0.17112536  0.83556218  0.62500000  1
  Mg  Mg2  1  0.71433628  0.35549980  0.12500000  1
  Mg  Mg3  1  0.66178540  0.33003251  0.62500000  1
  Mg  Mg4  1  0.71433628  0.85883549  0.12500000  1
  Mg  Mg5  1  0.66178540  0.83175189  0.62500000  1
  Mg  Mg6  1  0.31825797  0.16292336  0.34160834  1
  Mg  Mg7  1  0.31825797  0.16292336  0.90839166  1
  Mg  Mg8  1  0.31825797  0.65533561  0.34160834  1
  Mg  Mg9  1  0.31825797  0.65533561  0.90839166  1
  Mg  Mg10  1  0.83521517  0.16760809  0.37125685  1
  Mg  Mg11  1  0.83521517  0.16760809  0.87874315  1
  Mg  Mg12  1  0.82988764  0.66494432  0.37620914  1
  Mg  Mg13  1  0.82988764  0.66494432  0.87379086  1
  Si  Si0  1  0.15493805  0.82746852  0.12500000  1
  Ni  Ni0  1  0.14657834  0.32328867  0.12500000  1
loop_
_geom_bond_atom_site_label_1
_geom_bond_atom_site_label_2
_geom_bond_distance
_geom_bond_site_symmetry_2
Mg0 Mg5 3.050034 1_555
Mg0 Mg3 3.050035 1_555
Mg0 Mg10 3.117304 1_455
Mg0 Mg11 3.117304 1_455
Mg0 Mg1 3.126012 1_555
Mg0 Mg1 3.126012 1_545
Mg0 Mg5 3.137606 1_445
Mg0 Mg3 3.137606 1_455
Mg0 Mg6 3.327265 1_555
Mg0 Mg7 3.327265 1_555
Mg0 Mg8 3.327271 1_555
Mg0 Mg9 3.327271 1_555
Mg1 Mg3 3.047972 1_565
Mg1 Mg5 3.047972 1_555
Mg1 Mg13 3.091166 1_455
Mg1 Mg12 3.091166 1_455
Mg1 Mg3 3.139477 1_455
Mg1 Mg5 3.139477 1_455
Mg1 Mg8 3.350415 1_555
Mg1 Mg9 3.350415 1_555
Mg1 Mg6 3.350421 1_565
Mg1 Mg7 3.350421 1_565
Mg2 Ni0 2.781597 1_655
Mg2 Si0 2.830284 1_655
Mg3 Mg5 3.115260 1_545
Mg3 Mg5 3.136759 1_555
Mg3 Mg6 3.384650 1_555
Mg3 Mg7 3.384650 1_555
Mg4 Ni0 2.781596 1_665
Mg4 Si0 2.830284 1_655
Mg5 Mg8 3.384649 1_555
Mg5 Mg9 3.384649 1_555
Mg6 Ni0 2.817141 1_555
Mg6 Si0 2.829270 1_545
Mg7 Ni0 2.817141 1_556
Mg7 Si0 2.829270 1_546
Mg8 Ni0 2.817147 1_555
Mg8 Si0 2.829263 1_555
Mg9 Ni0 2.817147 1_556
Mg9 Si0 2.829263 1_556
Mg10 Ni0 2.978772 1_655
Mg10 Mg2 2.989332 1_555
Mg10 Mg4 2.989338 1_545
Mg10 Mg8 3.018345 1_655
Mg10 Mg6 3.018346 1_655
Mg10 Mg3 3.125677 1_555
Mg10 Mg5 3.125683 1_545
Mg10 Mg12 3.126534 1_555
Mg10 Mg12 3.126534 1_545
Mg10 Mg8 3.197754 1_545
Mg10 Mg6 3.197755 1_555
Mg11 Ni0 2.978772 1_656
Mg11 Mg2 2.989332 1_556
Mg11 Mg4 2.989338 1_546
Mg11 Mg9 3.018345 1_655
Mg11 Mg7 3.018346 1_655
Mg11 Mg3 3.125677 1_555
Mg11 Mg5 3.125683 1_545
Mg11 Mg13 3.126534 1_555
Mg11 Mg13 3.126534 1_545
Mg11 Mg9 3.197754 1_545
Mg11 Mg7 3.197755 1_555
Mg12 Mg4 3.035386 1_555
Mg12 Mg2 3.035392 1_555
Mg12 Si0 3.060982 1_655
Mg12 Mg6 3.072183 1_665
Mg12 Mg8 3.072183 1_655
Mg12 Mg5 3.082349 1_555
Mg12 Mg3 3.082355 1_555
Mg12 Mg6 3.154863 1_555
Mg12 Mg8 3.154863 1_555
Mg13 Mg4 3.035386 1_556
Mg13 Mg2 3.035392 1_556
Mg13 Si0 3.060982 1_656
Mg13 Mg7 3.072183 1_665
Mg13 Mg9 3.072183 1_655
Mg13 Mg5 3.082349 1_555
Mg13 Mg3 3.082355 1_555
Mg13 Mg7 3.154863 1_555
Mg13 Mg9 3.154863 1_555
