# generated using pymatgen
data_TmAgS2
_symmetry_space_group_name_H-M   'P 1'
_cell_length_a   7.58917200
_cell_length_b   7.58692200
_cell_length_c   12.33395690
_cell_angle_alpha   89.97815748
_cell_angle_beta   90.00000000
_cell_angle_gamma   90.00000000
_symmetry_Int_Tables_number   1
_chemical_formula_structural   TmAgS2
_chemical_formula_sum   'Tm8 Ag8 S16'
_cell_volume   710.17014296
_cell_formula_units_Z   8
loop_
 _symmetry_equiv_pos_site_id
 _symmetry_equiv_pos_as_xyz
  1  'x, y, z'
loop_
 _atom_site_type_symbol
 _atom_site_label
 _atom_site_symmetry_multiplicity
 _atom_site_fract_x
 _atom_site_fract_y
 _atom_site_fract_z
 _atom_site_occupancy
  Tm  Tm0  1  0.72337200  0.49874200  0.25490400  1
  Tm  Tm1  1  0.22337200  0.50125800  0.74509600  1
  Tm  Tm2  1  0.97096400  0.75338400  0.50244100  1
  Tm  Tm3  1  0.47096400  0.24661600  0.49755900  1
  Tm  Tm4  1  0.71673000  0.99989500  0.75361800  1
  Tm  Tm5  1  0.21673000  0.00010500  0.24638200  1
  Tm  Tm6  1  0.47012700  0.74714600  0.00360000  1
  Tm  Tm7  1  0.97012700  0.25285400  0.99640000  1
  Ag  Ag0  1  0.71891800  0.99901400  0.28307900  1
  Ag  Ag1  1  0.21891800  0.00098600  0.71692100  1
  Ag  Ag2  1  0.47122700  0.74778000  0.52181000  1
  Ag  Ag3  1  0.97122700  0.25222000  0.47819000  1
  Ag  Ag4  1  0.22159200  0.50262300  0.20267600  1
  Ag  Ag5  1  0.72159200  0.49737700  0.79732400  1
  Ag  Ag6  1  0.96969400  0.75442400  0.01872100  1
  Ag  Ag7  1  0.46969400  0.24557600  0.98127900  1
  S  S0  1  0.45379100  0.73332900  0.22483200  1
  S  S1  1  0.95379100  0.26667100  0.77516800  1
  S  S2  1  0.73965200  0.51859400  0.03396200  1
  S  S3  1  0.23965200  0.48140600  0.96603800  1
  S  S4  1  0.70247300  0.98136200  0.53387500  1
  S  S5  1  0.20247300  0.01863800  0.46612500  1
  S  S6  1  0.95277000  0.76804800  0.28294100  1
  S  S7  1  0.45277000  0.23195200  0.71705900  1
  S  S8  1  0.73758800  0.48319900  0.47535000  1
  S  S9  1  0.23758800  0.51680100  0.52465000  1
  S  S10  1  0.98779900  0.76711000  0.72406000  1
  S  S11  1  0.48779900  0.23289000  0.27594000  1
  S  S12  1  0.20601000  0.98496100  0.02522600  1
  S  S13  1  0.70601000  0.01503900  0.97477400  1
  S  S14  1  0.99049300  0.26978200  0.21597700  1
  S  S15  1  0.49049300  0.73021800  0.78402300  1
loop_
_geom_bond_atom_site_label_1
_geom_bond_atom_site_label_2
_geom_bond_distance
_geom_bond_site_symmetry_2
Ag0 S6 2.494062 1_555
Ag0 S11 2.496527 1_565
Ag0 S0 2.937503 1_555
Ag0 S14 3.025170 1_565
Ag0 S4 3.098668 1_555
Ag1 S7 2.494062 1_555
Ag1 S10 2.496527 1_445
Ag1 S1 2.937503 1_455
Ag1 S15 3.025170 1_545
Ag1 S5 3.098668 1_555
Ag2 S9 2.493217 1_555
Ag2 S4 2.498566 1_555
Ag2 S8 2.906032 1_555
Ag2 S5 2.975505 1_565
Ag3 S8 2.493217 1_555
Ag3 S5 2.498566 1_655
Ag3 S9 2.906032 1_655
Ag3 S4 2.975505 1_545
Ag4 S14 2.494668 1_455
Ag4 S0 2.498820 1_555
Ag4 S3 2.926391 1_554
Ag4 S11 3.014075 1_555
Ag4 S6 3.032981 1_455
Ag5 S15 2.494668 1_555
Ag5 S1 2.498820 1_555
Ag5 S2 2.926391 1_556
Ag5 S10 3.014075 1_555
Ag5 S7 3.032981 1_555
Ag6 S12 2.506435 1_655
Ag6 S2 2.506854 1_555
Ag6 S13 2.864811 1_564
Ag6 S3 2.985167 1_654
Ag7 S13 2.506435 1_555
Ag7 S3 2.506854 1_555
Ag7 S12 2.864811 1_546
Ag7 S2 2.985167 1_556
S0 Tm5 2.721106 1_565
S0 Tm6 2.733452 1_555
S0 Tm0 2.736864 1_555
S1 Tm4 2.721106 1_545
S1 Tm7 2.733452 1_555
S1 Tm1 2.736864 1_655
S2 Tm6 2.707485 1_555
S2 Tm7 2.709170 1_554
S2 Tm0 2.731986 1_555
S3 Tm7 2.707485 1_455
S3 Tm6 2.709170 1_556
S3 Tm1 2.731986 1_555
S4 Tm2 2.700821 1_555
S4 Tm3 2.708664 1_565
S4 Tm4 2.716155 1_555
S5 Tm3 2.700821 1_555
S5 Tm2 2.708664 1_445
S5 Tm5 2.716155 1_555
S6 Tm5 2.704698 1_665
S6 Tm0 2.706599 1_555
S6 Tm2 2.713062 1_555
S7 Tm4 2.704698 1_545
S7 Tm1 2.706599 1_555
S7 Tm3 2.713062 1_555
S8 Tm3 2.718608 1_555
S8 Tm0 2.723620 1_555
S8 Tm2 2.729662 1_555
S9 Tm2 2.718608 1_455
S9 Tm1 2.723620 1_555
S9 Tm3 2.729662 1_555
S10 Tm1 2.707664 1_655
S10 Tm4 2.735802 1_555
S10 Tm2 2.738444 1_555
S11 Tm0 2.707664 1_555
S11 Tm5 2.735802 1_555
S11 Tm3 2.738444 1_555
S12 Tm6 2.710109 1_555
S12 Tm5 2.731403 1_565
S12 Tm7 2.731576 1_464
S13 Tm7 2.710109 1_555
S13 Tm4 2.731403 1_545
S13 Tm6 2.731576 1_546
S14 Tm5 2.697066 1_655
S14 Tm0 2.712624 1_555
S14 Tm7 2.715748 1_554
S15 Tm4 2.697066 1_555
S15 Tm1 2.712624 1_555
S15 Tm6 2.715748 1_556
