# generated using pymatgen
data_YbC6
_symmetry_space_group_name_H-M   'P 1'
_cell_length_a   4.34216954
_cell_length_b   4.34216954
_cell_length_c   8.76562000
_cell_angle_alpha   90.00000000
_cell_angle_beta   90.00000000
_cell_angle_gamma   119.99999304
_symmetry_Int_Tables_number   1
_chemical_formula_structural   YbC6
_chemical_formula_sum   'Yb2 C12'
_cell_volume   143.12874237
_cell_formula_units_Z   2
loop_
 _symmetry_equiv_pos_site_id
 _symmetry_equiv_pos_as_xyz
  1  'x, y, z'
loop_
 _atom_site_type_symbol
 _atom_site_label
 _atom_site_symmetry_multiplicity
 _atom_site_fract_x
 _atom_site_fract_y
 _atom_site_fract_z
 _atom_site_occupancy
  Yb  Yb0  1  0.33333300  0.66666700  0.25000000  1
  Yb  Yb1  1  0.66666700  0.33333300  0.75000000  1
  C  C0  1  0.33334900  0.33334900  0.50000000  1
  C  C1  1  0.66665100  0.00000000  0.50000000  1
  C  C2  1  0.00000000  0.66665100  0.50000000  1
  C  C3  1  0.66665100  0.66665100  0.50000000  1
  C  C4  1  0.00000000  0.33334900  0.50000000  1
  C  C5  1  0.33334900  0.00000000  0.50000000  1
  C  C6  1  0.66665100  0.66665100  0.00000000  1
  C  C7  1  0.33334900  0.00000000  0.00000000  1
  C  C8  1  0.00000000  0.33334900  0.00000000  1
  C  C9  1  0.33334900  0.33334900  0.00000000  1
  C  C10  1  0.00000000  0.66665100  0.00000000  1
  C  C11  1  0.66665100  0.00000000  0.00000000  1
loop_
_geom_bond_atom_site_label_1
_geom_bond_atom_site_label_2
_geom_bond_distance
_geom_bond_site_symmetry_2
C0 C3 1.447254 1_555
C0 C5 1.447458 1_555
C0 C4 1.447458 1_555
C0 Yb1 2.626233 1_555
C0 Yb0 2.626233 1_555
C1 C5 1.447254 1_555
C1 C3 1.447458 1_545
C1 C4 1.447458 1_655
C1 Yb1 2.626231 1_555
C1 Yb0 2.626232 1_545
C2 C4 1.447254 1_555
C2 C3 1.447458 1_455
C2 C5 1.447458 1_565
C2 Yb0 2.626231 1_555
C2 Yb1 2.626232 1_455
C3 Yb1 2.626233 1_555
C3 Yb0 2.626233 1_555
C4 Yb1 2.626231 1_455
C4 Yb0 2.626232 1_555
C5 Yb0 2.626231 1_545
C5 Yb1 2.626232 1_555
C6 C9 1.447254 1_555
C6 Yb0 2.626233 1_555
C6 Yb1 2.626233 1_554
C7 C9 1.447458 1_555
C7 Yb0 2.626231 1_545
C7 Yb1 2.626232 1_554
C8 C9 1.447458 1_555
C8 Yb1 2.626231 1_454
C8 Yb0 2.626232 1_555
C9 Yb0 2.626233 1_555
C9 Yb1 2.626233 1_554
C10 C8 1.447254 1_555
C10 C6 1.447458 1_455
C10 C7 1.447458 1_565
C10 Yb0 2.626231 1_555
C10 Yb1 2.626232 1_454
C11 C7 1.447254 1_555
C11 C6 1.447458 1_545
C11 C8 1.447458 1_655
C11 Yb1 2.626231 1_554
C11 Yb0 2.626232 1_545
