# generated using pymatgen
data_Sr8MnFe7O20
_symmetry_space_group_name_H-M   'P 1'
_cell_length_a   11.20816004
_cell_length_b   11.46963304
_cell_length_c   17.75636900
_cell_angle_alpha   108.83943871
_cell_angle_beta   108.39421018
_cell_angle_gamma   90.01000934
_symmetry_Int_Tables_number   1
_chemical_formula_structural   Sr8MnFe7O20
_chemical_formula_sum   'Sr32 Mn4 Fe28 O80'
_cell_volume   2036.69465079
_cell_formula_units_Z   4
loop_
 _symmetry_equiv_pos_site_id
 _symmetry_equiv_pos_as_xyz
  1  'x, y, z'
loop_
 _atom_site_type_symbol
 _atom_site_label
 _atom_site_symmetry_multiplicity
 _atom_site_fract_x
 _atom_site_fract_y
 _atom_site_fract_z
 _atom_site_occupancy
  Sr  Sr0  1  0.30636600  0.06333100  0.10915700  1
  Sr  Sr1  1  0.30593200  0.06153000  0.60888100  1
  Sr  Sr2  1  0.30635600  0.56351000  0.10882700  1
  Sr  Sr3  1  0.30649400  0.55954300  0.60828800  1
  Sr  Sr4  1  0.80616300  0.06343700  0.10920600  1
  Sr  Sr5  1  0.80643800  0.06368300  0.60881000  1
  Sr  Sr6  1  0.80585100  0.56354200  0.10877500  1
  Sr  Sr7  1  0.80705900  0.56189400  0.60840600  1
  Sr  Sr8  1  0.19713700  0.43617400  0.39101500  1
  Sr  Sr9  1  0.19713300  0.43791000  0.89049500  1
  Sr  Sr10  1  0.19720500  0.93689400  0.39095500  1
  Sr  Sr11  1  0.19762400  0.93781600  0.89207700  1
  Sr  Sr12  1  0.69716600  0.43631600  0.39106700  1
  Sr  Sr13  1  0.69799700  0.43871300  0.89035200  1
  Sr  Sr14  1  0.69725800  0.93675100  0.39097200  1
  Sr  Sr15  1  0.69887400  0.93863100  0.89254200  1
  Sr  Sr16  1  0.05628600  0.29577900  0.10902800  1
  Sr  Sr17  1  0.05663800  0.29741600  0.60950500  1
  Sr  Sr18  1  0.05609900  0.79524900  0.10893300  1
  Sr  Sr19  1  0.05554700  0.79573900  0.60792300  1
  Sr  Sr20  1  0.55625000  0.29593900  0.10904500  1
  Sr  Sr21  1  0.55764600  0.29836100  0.60964800  1
  Sr  Sr22  1  0.55612200  0.79515800  0.10898500  1
  Sr  Sr23  1  0.55633100  0.79608800  0.60745800  1
  Sr  Sr24  1  0.44707500  0.20476600  0.39122500  1
  Sr  Sr25  1  0.44705100  0.20264900  0.89111900  1
  Sr  Sr26  1  0.44695700  0.70423100  0.39079400  1
  Sr  Sr27  1  0.44820600  0.70125500  0.89171200  1
  Sr  Sr28  1  0.94752900  0.20468300  0.39117300  1
  Sr  Sr29  1  0.94762700  0.20487200  0.89119000  1
  Sr  Sr30  1  0.94720900  0.70417400  0.39084300  1
  Sr  Sr31  1  0.94865300  0.70348800  0.89159400  1
  Mn  Mn0  1  0.11145300  0.59586900  0.75000000  1
  Mn  Mn1  1  0.61041000  0.59897000  0.75000000  1
  Mn  Mn2  1  0.36196200  0.40422600  0.75000000  1
  Mn  Mn3  1  0.36089400  0.90241900  0.75000000  1
  Fe  Fe0  1  0.00449000  0.00003700  0.00037500  1
  Fe  Fe1  1  0.00402800  0.00019100  0.49961200  1
  Fe  Fe2  1  0.00409300  0.49959200  0.99949300  1
  Fe  Fe3  1  0.00441600  0.50006600  0.50079200  1
  Fe  Fe4  1  0.50376200  0.00013100  0.00001300  1
  Fe  Fe5  1  0.50406600  0.00049400  0.49985900  1
  Fe  Fe6  1  0.50324600  0.49908500  0.99860000  1
  Fe  Fe7  1  0.50434600  0.50023100  0.50099700  1
  Fe  Fe8  1  0.25441600  0.25057900  0.00038800  1
  Fe  Fe9  1  0.25464700  0.25048500  0.50140000  1
  Fe  Fe10  1  0.25362400  0.74927400  0.99920800  1
  Fe  Fe11  1  0.25375000  0.75011900  0.49998700  1
  Fe  Fe12  1  0.75420600  0.25063500  0.00014100  1
  Fe  Fe13  1  0.75460000  0.25009900  0.50050700  1
  Fe  Fe14  1  0.75335000  0.74923400  0.99900300  1
  Fe  Fe15  1  0.75411500  0.74966200  0.49962500  1
  Fe  Fe16  1  0.10775500  0.09064800  0.24991300  1
  Fe  Fe17  1  0.10874100  0.08761500  0.75000000  1
  Fe  Fe18  1  0.10778500  0.59068300  0.25003400  1
  Fe  Fe19  1  0.60775100  0.09064900  0.24996600  1
  Fe  Fe20  1  0.60945000  0.09035900  0.75000000  1
  Fe  Fe21  1  0.60784200  0.59073500  0.25008700  1
  Fe  Fe22  1  0.35778400  0.40933800  0.24999700  1
  Fe  Fe23  1  0.35780200  0.90933800  0.25002900  1
  Fe  Fe24  1  0.85777200  0.40930900  0.24997100  1
  Fe  Fe25  1  0.85955100  0.41107300  0.75000000  1
  Fe  Fe26  1  0.85778700  0.90934000  0.25000300  1
  Fe  Fe27  1  0.85840900  0.90935200  0.75000000  1
  O  O0  1  0.12374200  0.12067300  0.49056000  1
  O  O1  1  0.12407400  0.12146600  0.99080500  1
  O  O2  1  0.12400100  0.62167100  0.49121000  1
  O  O3  1  0.12416900  0.62148700  0.99190700  1
  O  O4  1  0.62428100  0.12140200  0.49107400  1
  O  O5  1  0.62482300  0.12225600  0.99135900  1
  O  O6  1  0.62414000  0.62214500  0.49165400  1
  O  O7  1  0.62493700  0.62247900  0.99257900  1
  O  O8  1  0.13311900  0.37810900  0.00900600  1
  O  O9  1  0.13233000  0.37765900  0.50749200  1
  O  O10  1  0.13310500  0.87906800  0.00938500  1
  O  O11  1  0.13252700  0.87877400  0.50846200  1
  O  O12  1  0.63295600  0.37791700  0.00861400  1
  O  O13  1  0.63316200  0.37749100  0.50825400  1
  O  O14  1  0.63253500  0.87900000  0.00858900  1
  O  O15  1  0.63331800  0.87840000  0.50917800  1
  O  O16  1  0.37434200  0.11930300  0.49138600  1
  O  O17  1  0.37406500  0.12031200  0.99153800  1
  O  O18  1  0.37394700  0.62041200  0.49141100  1
  O  O19  1  0.37483900  0.62016700  0.99250800  1
  O  O20  1  0.87411300  0.11910300  0.49099400  1
  O  O21  1  0.87414000  0.11922200  0.99082200  1
  O  O22  1  0.87372100  0.61968300  0.49061500  1
  O  O23  1  0.87490800  0.61923700  0.99174600  1
  O  O24  1  0.38318200  0.38011300  0.00944000  1
  O  O25  1  0.38235800  0.37989900  0.50742100  1
  O  O26  1  0.38279100  0.88046100  0.00879000  1
  O  O27  1  0.38346400  0.88089700  0.50864100  1
  O  O28  1  0.88320700  0.38032700  0.00892600  1
  O  O29  1  0.88226300  0.37958000  0.50809300  1
  O  O30  1  0.88248600  0.88049100  0.00834600  1
  O  O31  1  0.88326800  0.88066100  0.50919500  1
  O  O32  1  0.08108200  0.09579100  0.14010100  1
  O  O33  1  0.08223600  0.09553200  0.64099600  1
  O  O34  1  0.08164400  0.59594900  0.14069900  1
  O  O35  1  0.07523400  0.58587200  0.63508600  1
  O  O36  1  0.58129900  0.09599100  0.14034400  1
  O  O37  1  0.58164400  0.09620100  0.64042800  1
  O  O38  1  0.58192300  0.59621700  0.14104900  1
  O  O39  1  0.57430000  0.58657600  0.63498400  1
  O  O40  1  0.44109800  0.40419900  0.35934300  1
  O  O41  1  0.44097500  0.41367800  0.86553600  1
  O  O42  1  0.44121400  0.90411400  0.35969500  1
  O  O43  1  0.43868500  0.91383000  0.86382300  1
  O  O44  1  0.94076600  0.40393300  0.35921300  1
  O  O45  1  0.94248000  0.40479100  0.86004600  1
  O  O46  1  0.94076500  0.90389100  0.35957800  1
  O  O47  1  0.94065800  0.90368800  0.85954100  1
  O  O48  1  0.33118700  0.29431300  0.14042200  1
  O  O49  1  0.32543900  0.29814200  0.63446400  1
  O  O50  1  0.33155300  0.79472000  0.14078700  1
  O  O51  1  0.32486300  0.80000700  0.63617700  1
  O  O52  1  0.83151900  0.29441900  0.14030500  1
  O  O53  1  0.83243500  0.29474500  0.63995400  1
  O  O54  1  0.83175600  0.79485600  0.14065700  1
  O  O55  1  0.83111600  0.79414600  0.64045900  1
  O  O56  1  0.19087400  0.20516700  0.35895100  1
  O  O57  1  0.19124000  0.20453600  0.85900400  1
  O  O58  1  0.19095500  0.70564700  0.35965600  1
  O  O59  1  0.19014800  0.70078600  0.86491400  1
  O  O60  1  0.69094500  0.20525000  0.35930100  1
  O  O61  1  0.69121600  0.20577300  0.85957200  1
  O  O62  1  0.69098100  0.70569000  0.35989900  1
  O  O63  1  0.68931600  0.70159200  0.86501600  1
  O  O64  1  0.43653900  0.05998400  0.25005300  1
  O  O65  1  0.44113300  0.05572500  0.75000000  1
  O  O66  1  0.43648400  0.55994800  0.24998800  1
  O  O67  1  0.44013900  0.56413400  0.75000000  1
  O  O68  1  0.93649600  0.05996000  0.25001200  1
  O  O69  1  0.93645800  0.06021500  0.75000000  1
  O  O70  1  0.93648600  0.55993100  0.24994700  1
  O  O71  1  0.93371000  0.56337600  0.75000000  1
  O  O72  1  0.18653000  0.44010800  0.25003000  1
  O  O73  1  0.19044900  0.44209600  0.75000000  1
  O  O74  1  0.18649200  0.94002400  0.24991700  1
  O  O75  1  0.18363700  0.93512700  0.75000000  1
  O  O76  1  0.68657400  0.44010700  0.25008300  1
  O  O77  1  0.69148600  0.44135900  0.75000000  1
  O  O78  1  0.68650000  0.94007800  0.24997000  1
  O  O79  1  0.68644100  0.93856200  0.75000000  1
loop_
_geom_bond_atom_site_label_1
_geom_bond_atom_site_label_2
_geom_bond_distance
_geom_bond_site_symmetry_2
Mn0 O59 1.915078 1_555
Mn0 O35 1.915078 1_555
Mn0 O73 1.973623 1_555
Mn0 O71 2.026668 1_455
Mn1 O63 1.909372 1_555
Mn1 O39 1.909372 1_555
Mn1 O67 1.949734 1_555
Mn1 O77 2.023427 1_555
Mn2 O41 1.927282 1_555
Mn2 O49 1.927282 1_555
Mn2 O73 1.970880 1_555
Mn2 O67 2.032504 1_555
Mn3 O43 1.891855 1_555
Mn3 O51 1.891856 1_555
Mn3 O65 1.974864 1_565
Mn3 O75 2.021898 1_555
Fe0 O30 2.004196 1_445
Fe0 O21 2.006492 1_454
Fe0 O10 2.006790 1_545
Fe0 O1 2.015193 1_554
Fe0 O32 2.234803 1_555
Fe0 O47 2.252205 1_444
Fe1 O20 1.999672 1_455
Fe1 O0 2.003672 1_555
Fe1 O31 2.008935 1_445
Fe1 O11 2.009362 1_545
Fe1 O46 2.240251 1_445
Fe1 O33 2.259311 1_555
Fe2 O23 1.998871 1_455
Fe2 O3 2.004854 1_555
Fe2 O28 2.006392 1_456
Fe2 O8 2.014914 1_556
Fe2 O45 2.229783 1_455
Fe2 O34 2.257909 1_556
Fe3 O29 2.007002 1_455
Fe3 O9 2.010383 1_555
Fe3 O22 2.013575 1_455
Fe3 O2 2.016761 1_555
Fe3 O35 2.138774 1_555
Fe3 O44 2.263233 1_455
Fe4 O26 2.004361 1_545
Fe4 O17 2.008102 1_554
Fe4 O14 2.008778 1_545
Fe4 O5 2.024027 1_554
Fe4 O43 2.168027 1_544
Fe4 O36 2.244255 1_555
Fe5 O16 1.997158 1_555
Fe5 O27 2.000915 1_545
Fe5 O4 2.008637 1_555
Fe5 O15 2.021427 1_545
Fe5 O42 2.242500 1_545
Fe5 O37 2.247551 1_555
Fe6 O19 2.002787 1_555
Fe6 O24 2.010582 1_556
Fe6 O7 2.015898 1_555
Fe6 O12 2.018354 1_556
Fe6 O41 2.119781 1_555
Fe6 O38 2.277852 1_556
Fe7 O25 1.996674 1_555
Fe7 O18 2.015033 1_555
Fe7 O6 2.018735 1_555
Fe7 O13 2.020753 1_555
Fe7 O39 2.134608 1_555
Fe7 O40 2.264387 1_555
Fe8 O8 1.999672 1_555
Fe8 O24 2.003672 1_555
Fe8 O1 2.008927 1_554
Fe8 O17 2.009362 1_554
Fe8 O48 2.240251 1_555
Fe8 O57 2.259311 1_554
Fe9 O9 2.002802 1_555
Fe9 O0 2.010590 1_555
Fe9 O25 2.015882 1_555
Fe9 O16 2.018346 1_555
Fe9 O49 2.119781 1_555
Fe9 O56 2.277850 1_555
Fe10 O3 2.007010 1_555
Fe10 O19 2.010390 1_555
Fe10 O10 2.013583 1_556
Fe10 O26 2.016761 1_556
Fe10 O59 2.138774 1_555
Fe10 O50 2.263233 1_556
Fe11 O2 2.004377 1_555
Fe11 O11 2.008101 1_555
Fe11 O18 2.008778 1_555
Fe11 O27 2.024011 1_555
Fe11 O51 2.168028 1_555
Fe11 O58 2.244253 1_555
Fe12 O12 1.997150 1_555
Fe12 O5 2.000907 1_554
Fe12 O28 2.008637 1_555
Fe12 O21 2.021435 1_554
Fe12 O52 2.242500 1_555
Fe12 O61 2.247552 1_554
Fe13 O13 1.998871 1_555
Fe13 O29 2.004862 1_555
Fe13 O4 2.006384 1_555
Fe13 O20 2.014914 1_555
Fe13 O53 2.229784 1_555
Fe13 O60 2.257909 1_555
Fe14 O7 1.996674 1_555
Fe14 O14 2.015040 1_556
Fe14 O30 2.018728 1_556
Fe14 O23 2.020745 1_555
Fe14 O63 2.134608 1_555
Fe14 O54 2.264387 1_556
Fe15 O6 2.004196 1_555
Fe15 O15 2.006492 1_555
Fe15 O22 2.006798 1_555
Fe15 O31 2.015185 1_555
Fe15 O62 2.234803 1_555
Fe15 O55 2.252206 1_555
Fe16 O56 1.886942 1_555
Fe16 O32 1.897688 1_555
Fe16 O74 1.940098 1_545
Fe16 O68 1.952091 1_455
Fe17 O33 1.895615 1_555
Fe17 O57 1.895615 1_555
Fe17 O75 1.940134 1_545
Fe17 O69 1.956328 1_455
Fe18 O34 1.890834 1_555
Fe18 O58 1.895599 1_555
Fe18 O72 1.939618 1_555
Fe18 O70 1.951447 1_455
Fe19 O60 1.890834 1_555
Fe19 O36 1.895599 1_555
Fe19 O78 1.939618 1_545
Fe19 O64 1.951447 1_555
Fe20 O61 1.894336 1_555
Fe20 O37 1.894336 1_555
Fe20 O65 1.927825 1_555
Fe20 O79 1.943308 1_545
Fe21 O38 1.886946 1_555
Fe21 O62 1.897688 1_555
Fe21 O76 1.940093 1_555
Fe21 O66 1.952091 1_555
Fe22 O40 1.890745 1_555
Fe22 O48 1.894995 1_555
Fe22 O66 1.939551 1_555
Fe22 O72 1.951826 1_555
Fe23 O50 1.889497 1_555
Fe23 O42 1.896293 1_555
Fe23 O64 1.939855 1_565
Fe23 O74 1.951621 1_555
Fe24 O44 1.889499 1_555
Fe24 O52 1.896295 1_555
Fe24 O70 1.939860 1_555
Fe24 O76 1.951621 1_555
Fe25 O45 1.905789 1_555
Fe25 O53 1.905791 1_555
Fe25 O77 1.915520 1_555
Fe25 O71 1.934394 1_555
Fe26 O54 1.890743 1_555
Fe26 O46 1.894990 1_555
Fe26 O68 1.939561 1_565
Fe26 O78 1.951828 1_555
Fe27 O47 1.894012 1_555
Fe27 O55 1.894014 1_555
Fe27 O69 1.938765 1_565
Fe27 O79 1.956403 1_555
O0 Sr10 2.600212 1_545
O0 Sr28 2.615860 1_455
O0 Sr1 2.693944 1_555
O0 Sr17 2.715459 1_555
O1 Sr11 2.591813 1_545
O1 Sr29 2.615477 1_455
O1 Sr0 2.689067 1_556
O1 Sr16 2.697728 1_556
O2 Sr8 2.615365 1_555
O2 Sr30 2.618978 1_455
O2 Sr19 2.683533 1_555
O2 Sr3 2.699425 1_555
O3 Sr31 2.607364 1_455
O3 Sr9 2.612664 1_555
O3 Sr2 2.671813 1_556
O3 Sr18 2.682986 1_556
O4 Sr14 2.607815 1_545
O4 Sr24 2.622127 1_555
O4 Sr5 2.679114 1_555
O4 Sr21 2.709842 1_555
O5 Sr15 2.595446 1_545
O5 Sr25 2.609735 1_555
O5 Sr4 2.681960 1_556
O5 Sr20 2.692861 1_556
O6 Sr12 2.620573 1_555
O6 Sr26 2.623470 1_555
O6 Sr23 2.668981 1_555
O6 Sr7 2.687363 1_555
O7 Sr27 2.598962 1_555
O7 Sr13 2.622159 1_555
O7 Sr6 2.662024 1_556
O7 Sr22 2.674431 1_556
O8 Sr2 2.612658 1_555
O8 Sr16 2.614505 1_555
O8 Sr29 2.686247 1_454
O8 Sr9 2.701528 1_554
O9 Sr3 2.597710 1_555
O9 Sr17 2.625667 1_555
O9 Sr8 2.664568 1_555
O9 Sr28 2.672914 1_455
O10 Sr0 2.604900 1_565
O10 Sr18 2.617947 1_555
O10 Sr11 2.678172 1_554
O10 Sr31 2.693228 1_454
O11 Sr1 2.597728 1_565
O11 Sr19 2.611149 1_555
O11 Sr10 2.678816 1_555
O11 Sr30 2.691861 1_455
O12 Sr6 2.613263 1_555
O12 Sr20 2.617929 1_555
O12 Sr25 2.698478 1_554
O12 Sr13 2.709034 1_554
O13 Sr21 2.607346 1_555
O13 Sr7 2.610872 1_555
O13 Sr12 2.673616 1_555
O13 Sr24 2.682821 1_555
O14 Sr4 2.611036 1_565
O14 Sr22 2.628034 1_555
O14 Sr15 2.672738 1_554
O14 Sr27 2.700291 1_554
O15 Sr23 2.587528 1_555
O15 Sr5 2.610553 1_565
O15 Sr14 2.687615 1_555
O15 Sr26 2.699590 1_555
O16 Sr24 2.613250 1_555
O16 Sr10 2.617929 1_545
O16 Sr1 2.698478 1_555
O16 Sr21 2.709040 1_555
O17 Sr25 2.597728 1_555
O17 Sr11 2.611149 1_545
O17 Sr20 2.678816 1_556
O17 Sr0 2.691861 1_556
O18 Sr26 2.611024 1_555
O18 Sr8 2.628040 1_555
O18 Sr23 2.672715 1_555
O18 Sr3 2.700303 1_555
O19 Sr27 2.597704 1_555
O19 Sr9 2.625680 1_555
O19 Sr22 2.664556 1_556
O19 Sr2 2.672920 1_556
O20 Sr28 2.612658 1_555
O20 Sr14 2.614505 1_545
O20 Sr5 2.686236 1_555
O20 Sr17 2.701534 1_655
O21 Sr15 2.587515 1_545
O21 Sr29 2.610540 1_555
O21 Sr16 2.687615 1_656
O21 Sr4 2.699590 1_556
O22 Sr30 2.604894 1_555
O22 Sr12 2.617953 1_555
O22 Sr19 2.678166 1_655
O22 Sr7 2.693234 1_555
O23 Sr13 2.607352 1_555
O23 Sr31 2.610872 1_555
O23 Sr18 2.673616 1_656
O23 Sr6 2.682809 1_556
O24 Sr20 2.600212 1_555
O24 Sr2 2.615860 1_555
O24 Sr25 2.693944 1_554
O24 Sr9 2.715453 1_554
O25 Sr3 2.598969 1_555
O25 Sr21 2.622158 1_555
O25 Sr24 2.662018 1_555
O25 Sr8 2.674443 1_555
O26 Sr22 2.615372 1_555
O26 Sr0 2.618978 1_565
O26 Sr11 2.683533 1_554
O26 Sr27 2.699425 1_554
O27 Sr23 2.595446 1_555
O27 Sr1 2.609735 1_565
O27 Sr26 2.681960 1_555
O27 Sr10 2.692861 1_555
O28 Sr16 2.607808 1_655
O28 Sr6 2.622134 1_555
O28 Sr29 2.679108 1_554
O28 Sr13 2.709854 1_554
O29 Sr7 2.607370 1_555
O29 Sr17 2.612651 1_655
O29 Sr28 2.671807 1_555
O29 Sr12 2.682992 1_555
O30 Sr18 2.620573 1_655
O30 Sr4 2.623470 1_565
O30 Sr15 2.668981 1_554
O30 Sr31 2.687363 1_554
O31 Sr19 2.591819 1_655
O31 Sr5 2.615472 1_565
O31 Sr30 2.689073 1_555
O31 Sr14 2.697722 1_555
O32 Sr16 2.522684 1_555
O32 Sr0 2.749551 1_555
O32 Sr4 2.955437 1_455
O33 Sr17 2.547916 1_555
O33 Sr1 2.742709 1_555
O33 Sr5 2.960633 1_455
O34 Sr18 2.521205 1_555
O34 Sr2 2.750634 1_555
O34 Sr6 2.961801 1_455
O35 Sr19 2.599665 1_555
O35 Sr3 2.778836 1_555
O35 Sr7 2.889895 1_455
O35 Sr17 3.188304 1_555
O36 Sr20 2.524271 1_555
O36 Sr4 2.746546 1_555
O36 Sr0 2.954872 1_555
O37 Sr21 2.544271 1_555
O37 Sr5 2.749567 1_555
O37 Sr1 2.963891 1_555
O38 Sr22 2.519847 1_555
O38 Sr6 2.745434 1_555
O38 Sr2 2.958590 1_555
O39 Sr23 2.598185 1_555
O39 Sr7 2.792789 1_555
O39 Sr3 2.887439 1_555
O39 Sr21 3.186117 1_555
O40 Sr24 2.523827 1_555
O40 Sr12 2.745087 1_555
O40 Sr8 2.960590 1_555
O41 Sr25 2.600016 1_555
O41 Sr13 2.773479 1_555
O41 Sr9 2.903133 1_555
O41 Sr27 3.176175 1_555
O42 Sr26 2.521953 1_555
O42 Sr14 2.746584 1_555
O42 Sr10 2.958498 1_555
O43 Sr27 2.635858 1_555
O43 Sr15 2.795158 1_555
O43 Sr11 2.897231 1_555
O43 Sr25 3.186161 1_565
O44 Sr28 2.522103 1_555
O44 Sr8 2.748282 1_655
O44 Sr12 2.958334 1_555
O45 Sr29 2.523061 1_555
O45 Sr9 2.734247 1_655
O45 Sr13 2.957269 1_555
O46 Sr30 2.521245 1_555
O46 Sr10 2.750933 1_655
O46 Sr14 2.954069 1_555
O47 Sr31 2.533081 1_555
O47 Sr11 2.754180 1_655
O47 Sr15 2.949361 1_555
O48 Sr0 2.521245 1_555
O48 Sr20 2.750933 1_555
O48 Sr16 2.954069 1_555
O49 Sr1 2.600016 1_555
O49 Sr21 2.773490 1_555
O49 Sr17 2.903133 1_555
O49 Sr3 3.176175 1_555
O50 Sr2 2.522103 1_555
O50 Sr22 2.748281 1_555
O50 Sr18 2.958334 1_555
O51 Sr3 2.635858 1_555
O51 Sr23 2.795136 1_555
O51 Sr19 2.897243 1_555
O51 Sr1 3.186161 1_565
O52 Sr4 2.521953 1_555
O52 Sr16 2.746584 1_655
O52 Sr20 2.958498 1_555
O53 Sr5 2.523049 1_555
O53 Sr17 2.734237 1_655
O53 Sr21 2.957269 1_555
O54 Sr6 2.523816 1_555
O54 Sr18 2.745076 1_655
O54 Sr22 2.960600 1_555
O55 Sr7 2.533069 1_555
O55 Sr19 2.754192 1_655
O55 Sr23 2.949361 1_555
O56 Sr8 2.519869 1_555
O56 Sr24 2.745423 1_555
O56 Sr28 2.958589 1_455
O57 Sr9 2.547905 1_555
O57 Sr25 2.742709 1_555
O57 Sr29 2.960644 1_455
O58 Sr10 2.524271 1_555
O58 Sr26 2.746546 1_555
O58 Sr30 2.954872 1_455
O59 Sr11 2.599665 1_555
O59 Sr27 2.778836 1_555
O59 Sr31 2.889895 1_455
O59 Sr9 3.188316 1_555
O60 Sr12 2.521205 1_555
O60 Sr28 2.750634 1_555
O60 Sr24 2.961813 1_555
O61 Sr13 2.544271 1_555
O61 Sr29 2.749557 1_555
O61 Sr25 2.963891 1_555
O62 Sr14 2.522684 1_555
O62 Sr30 2.749551 1_555
O62 Sr26 2.955437 1_555
O63 Sr15 2.598196 1_555
O63 Sr31 2.792789 1_555
O63 Sr27 2.887439 1_555
O63 Sr13 3.186118 1_555
O64 Sr0 2.479434 1_555
O64 Sr24 2.485927 1_555
O65 Sr1 2.508181 1_555
O65 Sr25 2.508181 1_555
O66 Sr26 2.479105 1_555
O66 Sr2 2.484040 1_555
O67 Sr27 2.472626 1_555
O67 Sr3 2.472626 1_555
O68 Sr4 2.479105 1_555
O68 Sr28 2.484040 1_555
O69 Sr29 2.483773 1_555
O69 Sr5 2.483774 1_555
O70 Sr30 2.479434 1_555
O70 Sr6 2.485928 1_555
O71 Sr7 2.460999 1_555
O71 Sr31 2.460999 1_555
O72 Sr16 2.481050 1_555
O72 Sr8 2.483589 1_555
O73 Sr17 2.488120 1_555
O73 Sr9 2.488124 1_555
O74 Sr10 2.481054 1_555
O74 Sr18 2.483057 1_555
O75 Sr19 2.467804 1_555
O75 Sr11 2.467804 1_555
O76 Sr20 2.481051 1_555
O76 Sr12 2.483054 1_555
O77 Sr21 2.480135 1_555
O77 Sr13 2.480139 1_555
O78 Sr14 2.481050 1_555
O78 Sr22 2.483593 1_555
O79 Sr15 2.490309 1_555
O79 Sr23 2.490316 1_555
