# generated using pymatgen
data_DyZr4O9
_symmetry_space_group_name_H-M   'P 1'
_cell_length_a   9.86825051
_cell_length_b   9.86825051
_cell_length_c   9.86825051
_cell_angle_alpha   159.22750935
_cell_angle_beta   149.27166273
_cell_angle_gamma   37.38291215
_symmetry_Int_Tables_number   1
_chemical_formula_structural   DyZr4O9
_chemical_formula_sum   'Dy1 Zr4 O9'
_cell_volume   173.92928299
_cell_formula_units_Z   1
loop_
 _symmetry_equiv_pos_site_id
 _symmetry_equiv_pos_as_xyz
  1  'x, y, z'
loop_
 _atom_site_type_symbol
 _atom_site_label
 _atom_site_symmetry_multiplicity
 _atom_site_fract_x
 _atom_site_fract_y
 _atom_site_fract_z
 _atom_site_occupancy
  Dy  Dy0  1  0.98078300  0.00000000  0.98078300  1
  Zr  Zr0  1  0.20924900  0.19717500  0.01207300  1
  Zr  Zr1  1  0.40776100  0.39225000  0.01551100  1
  Zr  Zr2  1  0.81489800  0.80282500  0.01207300  1
  Zr  Zr3  1  0.62326100  0.60775000  0.01551100  1
  O  O0  1  0.16767200  0.90592700  0.26174400  1
  O  O1  1  0.06030700  0.30000000  0.76030700  1
  O  O2  1  0.55673700  0.29728300  0.25945400  1
  O  O3  1  0.35581700  0.09407300  0.26174400  1
  O  O4  1  0.46030700  0.70000000  0.76030700  1
  O  O5  1  0.65813400  0.89408000  0.76405400  1
  O  O6  1  0.62292700  0.50000000  0.12292700  1
  O  O7  1  0.96217100  0.70271700  0.25945400  1
  O  O8  1  0.86997300  0.10592000  0.76405400  1
loop_
_geom_bond_atom_site_label_1
_geom_bond_atom_site_label_2
_geom_bond_distance
_geom_bond_site_symmetry_2
Dy0 O8 2.281607 1_555
Dy0 O5 2.281614 1_545
Dy0 O0 2.291672 1_646
Dy0 O3 2.291677 1_656
Dy0 O6 2.582044 1_545
Dy0 O6 2.582044 1_556
O0 Zr1 2.234155 1_555
O0 Zr1 2.234158 1_566
O0 Zr2 2.328102 1_455
O1 Zr1 2.180694 1_556
O1 Zr2 2.202933 1_456
O1 Zr2 2.202933 1_445
O1 Zr0 2.329974 1_556
O2 Zr1 2.186210 1_555
O2 Zr2 2.218313 1_556
O2 Zr2 2.218313 1_545
O2 Zr0 2.275125 1_555
O3 Zr3 2.234157 1_545
O3 Zr3 2.234157 1_556
O3 Zr0 2.328099 1_555
O4 Zr3 2.180694 1_556
O4 Zr0 2.202929 1_566
O4 Zr0 2.202932 1_555
O4 Zr2 2.329980 1_556
O5 Zr2 2.143068 1_556
O5 Zr1 2.203518 1_555
O5 Zr1 2.203518 1_566
O6 Zr3 2.091293 1_555
O6 Zr1 2.091293 1_555
O7 Zr3 2.186210 1_555
O7 Zr0 2.218313 1_666
O7 Zr0 2.218316 1_655
O7 Zr2 2.275135 1_555
O8 Zr0 2.143086 1_656
O8 Zr3 2.203515 1_556
O8 Zr3 2.203518 1_545
