# generated using pymatgen
data_Eu2B4O9
_symmetry_space_group_name_H-M   'P 1'
_cell_length_a   4.54377243
_cell_length_b   13.16626311
_cell_length_c   25.25507259
_cell_angle_alpha   99.66027732
_cell_angle_beta   90.00000000
_cell_angle_gamma   99.93632461
_symmetry_Int_Tables_number   1
_chemical_formula_structural   Eu2B4O9
_chemical_formula_sum   'Eu20 B40 O90'
_cell_volume   1466.45412885
_cell_formula_units_Z   10
loop_
 _symmetry_equiv_pos_site_id
 _symmetry_equiv_pos_as_xyz
  1  'x, y, z'
loop_
 _atom_site_type_symbol
 _atom_site_label
 _atom_site_symmetry_multiplicity
 _atom_site_fract_x
 _atom_site_fract_y
 _atom_site_fract_z
 _atom_site_occupancy
  Eu  Eu0  1  0.65176420  0.97608386  0.82141019  1
  Eu  Eu1  1  0.34823580  0.02391614  0.17858981  1
  Eu  Eu2  1  0.67568034  0.02391614  0.67858981  1
  Eu  Eu3  1  0.32431966  0.97608386  0.32141019  1
  Eu  Eu4  1  0.53268044  0.71728570  0.70796635  1
  Eu  Eu5  1  0.46731956  0.28271430  0.29203365  1
  Eu  Eu6  1  0.81539474  0.28271430  0.79203365  1
  Eu  Eu7  1  0.18460526  0.71728570  0.20796635  1
  Eu  Eu8  1  0.41918174  0.43124934  0.63020171  1
  Eu  Eu9  1  0.58081826  0.56875066  0.36979829  1
  Eu  Eu10  1  0.98793241  0.56875066  0.86979829  1
  Eu  Eu11  1  0.01206759  0.43124934  0.13020171  1
  Eu  Eu12  1  0.72855454  0.87153108  0.42946420  1
  Eu  Eu13  1  0.27144546  0.12846892  0.57053580  1
  Eu  Eu14  1  0.85702345  0.12846892  0.07053580  1
  Eu  Eu15  1  0.14297655  0.87153108  0.92946420  1
  Eu  Eu16  1  0.61450845  0.68886050  0.53933983  1
  Eu  Eu17  1  0.38549155  0.31113950  0.46066017  1
  Eu  Eu18  1  0.92564795  0.31113950  0.96066017  1
  Eu  Eu19  1  0.07435205  0.68886050  0.03933983  1
  B  B0  1  0.78689025  0.93566410  0.56549734  1
  B  B1  1  0.21310975  0.06433590  0.43450266  1
  B  B2  1  0.85122615  0.06433590  0.93450266  1
  B  B3  1  0.14877385  0.93566410  0.06549734  1
  B  B4  1  0.27465009  0.19928975  0.69221464  1
  B  B5  1  0.72534991  0.80071025  0.30778536  1
  B  B6  1  0.07536033  0.80071025  0.80778536  1
  B  B7  1  0.92463967  0.19928975  0.19221464  1
  B  B8  1  0.54819580  0.70883727  0.83711274  1
  B  B9  1  0.45180420  0.29116273  0.16288726  1
  B  B10  1  0.83935852  0.29116273  0.66288726  1
  B  B11  1  0.16064148  0.70883727  0.33711274  1
  B  B12  1  0.35638394  0.39163196  0.86671343  1
  B  B13  1  0.64361606  0.60836804  0.13328657  1
  B  B14  1  0.96475198  0.60836804  0.63328657  1
  B  B15  1  0.03524802  0.39163196  0.36671343  1
  B  B16  1  0.37375806  0.14685799  0.96893305  1
  B  B17  1  0.62624194  0.85314201  0.03106695  1
  B  B18  1  0.22690007  0.85314201  0.53106695  1
  B  B19  1  0.77309993  0.14685799  0.46893305  1
  B  B20  1  0.41931800  0.50363323  0.78188925  1
  B  B21  1  0.58068200  0.49636677  0.21811075  1
  B  B22  1  0.91568477  0.49636677  0.71811075  1
  B  B23  1  0.08431523  0.50363323  0.28188925  1
  B  B24  1  0.48165006  0.51605456  0.96149746  1
  B  B25  1  0.51834994  0.48394544  0.03850254  1
  B  B26  1  0.96559549  0.48394544  0.53850254  1
  B  B27  1  0.03440451  0.51605456  0.46149746  1
  B  B28  1  0.22744714  0.10393981  0.77522120  1
  B  B29  1  0.77255286  0.89606019  0.22477880  1
  B  B30  1  0.12350733  0.89606019  0.72477880  1
  B  B31  1  0.87649267  0.10393981  0.27522120  1
  B  B32  1  0.22177527  0.18391111  0.87654464  1
  B  B33  1  0.77822473  0.81608889  0.12345536  1
  B  B34  1  0.03786416  0.81608889  0.62345536  1
  B  B35  1  0.96213584  0.18391111  0.37654464  1
  B  B36  1  0.56965217  0.70534741  0.94172524  1
  B  B37  1  0.43034783  0.29465259  0.05827476  1
  B  B38  1  0.86430476  0.29465259  0.55827476  1
  B  B39  1  0.13569524  0.70534741  0.44172524  1
  O  O0  1  0.73573089  0.78679599  0.98412536  1
  O  O1  1  0.26426911  0.21320401  0.01587464  1
  O  O2  1  0.94893489  0.21320401  0.51587464  1
  O  O3  1  0.05106511  0.78679599  0.48412536  1
  O  O4  1  0.68442051  0.46386087  0.75669418  1
  O  O5  1  0.31557949  0.53613913  0.24330582  1
  O  O6  1  0.22055964  0.53613913  0.74330582  1
  O  O7  1  0.77944036  0.46386087  0.25669418  1
  O  O8  1  0.81144084  0.89714891  0.72636957  1
  O  O9  1  0.18855916  0.10285109  0.27363043  1
  O  O10  1  0.91429193  0.10285109  0.77363043  1
  O  O11  1  0.08570807  0.89714891  0.22636957  1
  O  O12  1  0.69066653  0.73958367  0.89118578  1
  O  O13  1  0.30933347  0.26041633  0.10881422  1
  O  O14  1  0.95108287  0.26041633  0.60881422  1
  O  O15  1  0.04891713  0.73958367  0.39118578  1
  O  O16  1  0.67630740  0.96266444  0.91476755  1
  O  O17  1  0.32369260  0.03733556  0.08523245  1
  O  O18  1  0.71364297  0.03733556  0.58523245  1
  O  O19  1  0.28635703  0.96266444  0.41476755  1
  O  O20  1  0.31210613  0.00000000  0.75000000  1
  O  O21  1  0.68789387  0.00000000  0.25000000  1
  O  O22  1  0.15455990  0.28638655  0.86464569  1
  O  O23  1  0.84544010  0.71361345  0.13535431  1
  O  O24  1  0.86817335  0.71361345  0.63535431  1
  O  O25  1  0.13182665  0.28638655  0.36464569  1
  O  O26  1  0.50338456  0.27039840  0.66561875  1
  O  O27  1  0.49661544  0.72960160  0.33438125  1
  O  O28  1  0.23298616  0.72960160  0.83438125  1
  O  O29  1  0.76701384  0.27039840  0.16561875  1
  O  O30  1  0.22177213  0.09585250  0.65904224  1
  O  O31  1  0.77822787  0.90414750  0.34095776  1
  O  O32  1  0.12591964  0.90414750  0.84095776  1
  O  O33  1  0.87408036  0.09585250  0.15904224  1
  O  O34  1  0.24398301  0.42562380  0.81461227  1
  O  O35  1  0.75601699  0.57437620  0.18538773  1
  O  O36  1  0.81835921  0.57437620  0.68538773  1
  O  O37  1  0.18164079  0.42562380  0.31461227  1
  O  O38  1  0.55866990  0.30459506  0.55512419  1
  O  O39  1  0.44133010  0.69540494  0.44487581  1
  O  O40  1  0.25407484  0.69540494  0.94487581  1
  O  O41  1  0.74592516  0.30459506  0.05512419  1
  O  O42  1  0.26415375  0.45796600  0.91796334  1
  O  O43  1  0.73584625  0.54203400  0.08203666  1
  O  O44  1  0.80618775  0.54203400  0.58203666  1
  O  O45  1  0.19381225  0.45796600  0.41796334  1
  O  O46  1  0.66171008  0.44998418  0.98649909  1
  O  O47  1  0.33828992  0.55001582  0.01350091  1
  O  O48  1  0.21172590  0.55001582  0.51350091  1
  O  O49  1  0.78827410  0.44998418  0.48649909  1
  O  O50  1  0.14235389  0.05345863  0.95747057  1
  O  O51  1  0.85764611  0.94654137  0.04252943  1
  O  O52  1  0.08889525  0.94654137  0.54252943  1
  O  O53  1  0.91110475  0.05345863  0.45747057  1
  O  O54  1  0.66517273  0.39392337  0.86619981  1
  O  O55  1  0.33482727  0.60607663  0.13380019  1
  O  O56  1  0.27124935  0.60607663  0.63380019  1
  O  O57  1  0.72875065  0.39392337  0.36619981  1
  O  O58  1  0.67648622  0.60361763  0.94497001  1
  O  O59  1  0.32351378  0.39638237  0.05502999  1
  O  O60  1  0.07286859  0.39638237  0.55502999  1
  O  O61  1  0.92713141  0.60361763  0.44497001  1
  O  O62  1  0.79680635  0.87427285  0.61072491  1
  O  O63  1  0.20319365  0.12572715  0.38927509  1
  O  O64  1  0.92253350  0.12572715  0.88927509  1
  O  O65  1  0.07746650  0.87427285  0.11072491  1
  O  O66  1  0.38143651  0.18920940  0.74596472  1
  O  O67  1  0.61856349  0.81079060  0.25403528  1
  O  O68  1  0.19222711  0.81079060  0.75403528  1
  O  O69  1  0.80777289  0.18920940  0.24596472  1
  O  O70  1  0.40508172  0.21279840  0.92614983  1
  O  O71  1  0.59491828  0.78720160  0.07385017  1
  O  O72  1  0.19228332  0.78720160  0.57385017  1
  O  O73  1  0.80771668  0.21279840  0.42614983  1
  O  O74  1  0.74346383  0.76088814  0.80005538  1
  O  O75  1  0.25653617  0.23911186  0.19994462  1
  O  O76  1  0.98257569  0.23911186  0.69994462  1
  O  O77  1  0.01742431  0.76088814  0.30005538  1
  O  O78  1  0.52718720  0.59311372  0.82619258  1
  O  O79  1  0.47281280  0.40688628  0.17380742  1
  O  O80  1  0.93407348  0.40688628  0.67380742  1
  O  O81  1  0.06592652  0.59311372  0.32619258  1
  O  O82  1  0.55447507  0.87583363  0.52243614  1
  O  O83  1  0.44552493  0.12416637  0.47756386  1
  O  O84  1  0.67864144  0.12416637  0.97756386  1
  O  O85  1  0.32135856  0.87583363  0.02243614  1
  O  O86  1  0.36757347  0.13026453  0.83076445  1
  O  O87  1  0.63242653  0.86973547  0.16923555  1
  O  O88  1  0.23730894  0.86973547  0.66923555  1
  O  O89  1  0.76269106  0.13026453  0.33076445  1
loop_
_geom_bond_atom_site_label_1
_geom_bond_atom_site_label_2
_geom_bond_distance
_geom_bond_site_symmetry_2
Eu0 O10 2.377724 1_565
Eu0 O16 2.397755 1_555
Eu0 O20 2.468162 1_565
Eu0 O32 2.495108 1_555
Eu0 O64 2.522545 1_565
Eu0 O86 2.566667 1_565
Eu0 O32 2.577515 1_655
Eu0 O8 2.605909 1_555
Eu1 O11 2.377724 1_545
Eu1 O17 2.397755 1_555
Eu1 O21 2.468162 1_555
Eu1 O33 2.495108 1_555
Eu1 O65 2.522545 1_545
Eu1 O87 2.566667 1_545
Eu1 O33 2.577515 1_455
Eu1 O9 2.605909 1_555
Eu2 O8 2.377724 1_545
Eu2 O18 2.397756 1_555
Eu2 O20 2.468162 1_555
Eu2 O30 2.495108 1_555
Eu2 O62 2.522545 1_545
Eu2 O88 2.566667 1_545
Eu2 O30 2.577515 1_655
Eu2 O10 2.605909 1_555
Eu3 O9 2.377724 1_565
Eu3 O19 2.397756 1_555
Eu3 O21 2.468162 1_565
Eu3 O31 2.495108 1_555
Eu3 O63 2.522545 1_565
Eu3 O89 2.566667 1_565
Eu3 O31 2.577515 1_455
Eu3 O11 2.605909 1_555
Eu4 O68 2.332136 1_555
Eu4 O56 2.354290 1_555
Eu4 O24 2.384267 1_555
Eu4 O74 2.453155 1_555
Eu4 O8 2.454348 1_555
Eu4 O36 2.456273 1_555
Eu4 O6 2.836069 1_555
Eu4 O88 2.894033 1_555
Eu5 O69 2.332136 1_555
Eu5 O57 2.354290 1_555
Eu5 O25 2.384267 1_555
Eu5 O75 2.453155 1_555
Eu5 O9 2.454348 1_555
Eu5 O37 2.456273 1_555
Eu5 O7 2.836069 1_555
Eu5 O89 2.894033 1_555
Eu6 O66 2.332136 1_555
Eu6 O54 2.354290 1_555
Eu6 O22 2.384267 1_655
Eu6 O76 2.453155 1_555
Eu6 O10 2.454348 1_555
Eu6 O34 2.456273 1_655
Eu6 O4 2.836069 1_555
Eu6 O86 2.894033 1_555
Eu7 O67 2.332136 1_555
Eu7 O55 2.354290 1_555
Eu7 O23 2.384267 1_455
Eu7 O77 2.453155 1_555
Eu7 O11 2.454348 1_555
Eu7 O35 2.456273 1_455
Eu7 O5 2.836069 1_555
Eu7 O87 2.894033 1_555
Eu8 O60 2.397759 1_555
Eu8 O80 2.459435 1_455
Eu8 O38 2.466012 1_555
Eu8 O56 2.494435 1_555
Eu8 O26 2.519309 1_555
Eu8 O44 2.531744 1_555
Eu8 O36 2.592753 1_555
Eu8 O80 2.677073 1_555
Eu9 O61 2.397759 1_555
Eu9 O81 2.459435 1_655
Eu9 O39 2.466012 1_555
Eu9 O57 2.494435 1_555
Eu9 O27 2.519309 1_555
Eu9 O45 2.531744 1_555
Eu9 O37 2.592753 1_555
Eu9 O81 2.677073 1_555
Eu10 O58 2.397759 1_555
Eu10 O78 2.459435 1_555
Eu10 O40 2.466012 1_655
Eu10 O54 2.494435 1_555
Eu10 O28 2.519309 1_655
Eu10 O42 2.531744 1_655
Eu10 O34 2.592752 1_655
Eu10 O78 2.677073 1_655
Eu11 O59 2.397759 1_555
Eu11 O79 2.459435 1_555
Eu11 O41 2.466012 1_455
Eu11 O55 2.494435 1_555
Eu11 O29 2.519309 1_455
Eu11 O43 2.531744 1_455
Eu11 O35 2.592752 1_455
Eu11 O79 2.677073 1_455
Eu12 O31 2.349541 1_555
Eu12 O53 2.381495 1_565
Eu12 O82 2.472416 1_555
Eu12 O3 2.525647 1_655
Eu12 O15 2.525989 1_655
Eu12 O39 2.547670 1_555
Eu12 O19 2.568273 1_555
Eu12 O19 2.664820 1_655
Eu12 O27 2.860658 1_555
Eu13 O30 2.349541 1_555
Eu13 O52 2.381495 1_545
Eu13 O83 2.472416 1_555
Eu13 O2 2.525647 1_455
Eu13 O14 2.525989 1_455
Eu13 O38 2.547670 1_555
Eu13 O18 2.568273 1_555
Eu13 O18 2.664820 1_455
Eu13 O26 2.860658 1_555
Eu14 O33 2.349541 1_555
Eu14 O51 2.381495 1_545
Eu14 O84 2.472416 1_554
Eu14 O1 2.525647 1_655
Eu14 O13 2.525989 1_655
Eu14 O41 2.547670 1_555
Eu14 O17 2.568273 1_555
Eu14 O17 2.664820 1_655
Eu14 O29 2.860657 1_555
Eu15 O32 2.349541 1_555
Eu15 O50 2.381495 1_565
Eu15 O85 2.472416 1_556
Eu15 O0 2.525647 1_455
Eu15 O12 2.525989 1_455
Eu15 O40 2.547670 1_555
Eu15 O16 2.568273 1_555
Eu15 O16 2.664820 1_455
Eu15 O28 2.860657 1_555
Eu16 O48 2.358422 1_555
Eu16 O39 2.531905 1_555
Eu16 O72 2.568119 1_555
Eu16 O82 2.627023 1_555
Eu16 O24 2.630540 1_555
Eu16 O44 2.634207 1_555
Eu16 O3 2.694925 1_655
Eu16 O62 2.778641 1_555
Eu16 O72 2.788612 1_655
Eu16 O61 2.934294 1_555
Eu16 O56 3.098018 1_555
Eu17 O49 2.358422 1_555
Eu17 O38 2.531905 1_555
Eu17 O73 2.568119 1_555
Eu17 O83 2.627023 1_555
Eu17 O25 2.630540 1_555
Eu17 O45 2.634207 1_555
Eu17 O2 2.694925 1_455
Eu17 O63 2.778641 1_555
Eu17 O73 2.788612 1_455
Eu17 O60 2.934294 1_555
Eu17 O57 3.098018 1_555
Eu18 O46 2.358422 1_555
Eu18 O41 2.531905 1_556
Eu18 O70 2.568119 1_555
Eu18 O84 2.627023 1_555
Eu18 O22 2.630540 1_655
Eu18 O42 2.634207 1_655
Eu18 O1 2.694925 1_656
Eu18 O64 2.778641 1_555
Eu18 O70 2.788612 1_655
Eu18 O59 2.934294 1_656
Eu18 O54 3.098018 1_555
Eu19 O47 2.358422 1_555
Eu19 O40 2.531905 1_554
Eu19 O71 2.568119 1_555
Eu19 O85 2.627023 1_555
Eu19 O23 2.630540 1_455
Eu19 O43 2.634207 1_455
Eu19 O0 2.694925 1_454
Eu19 O65 2.778641 1_555
Eu19 O71 2.788612 1_455
Eu19 O58 2.934294 1_454
Eu19 O55 3.098018 1_555
B0 O18 1.442552 1_565
B0 O52 1.483267 1_655
B0 O62 1.510785 1_555
B0 O82 1.530963 1_555
B1 O19 1.442552 1_545
B1 O53 1.483267 1_455
B1 O63 1.510785 1_555
B1 O83 1.530963 1_555
B2 O16 1.442552 1_545
B2 O50 1.483267 1_655
B2 O64 1.510785 1_555
B2 O84 1.530963 1_555
B3 O17 1.442552 1_565
B3 O51 1.483267 1_455
B3 O65 1.510785 1_555
B3 O85 1.530963 1_555
B4 O30 1.455497 1_555
B4 O66 1.475954 1_555
B4 O76 1.509979 1_455
B4 O26 1.510999 1_555
B5 O31 1.455497 1_555
B5 O67 1.475954 1_555
B5 O77 1.509979 1_655
B5 O27 1.510999 1_555
B6 O32 1.455497 1_555
B6 O68 1.475954 1_555
B6 O74 1.509979 1_455
B6 O28 1.510999 1_555
B7 O33 1.455497 1_555
B7 O69 1.475954 1_555
B7 O75 1.509979 1_655
B7 O29 1.510999 1_555
B8 O74 1.462249 1_555
B8 O12 1.473732 1_555
B8 O78 1.488439 1_555
B8 O28 1.507406 1_555
B9 O75 1.462249 1_555
B9 O13 1.473732 1_555
B9 O79 1.488439 1_555
B9 O29 1.507406 1_555
B10 O76 1.462249 1_555
B10 O14 1.473732 1_555
B10 O80 1.488439 1_555
B10 O26 1.507406 1_555
B11 O77 1.462249 1_555
B11 O15 1.473732 1_555
B11 O81 1.488439 1_555
B11 O27 1.507406 1_555
B12 O54 1.398283 1_555
B12 O22 1.516905 1_555
B12 O42 1.536422 1_555
B12 O34 1.571316 1_555
B13 O55 1.398283 1_555
B13 O23 1.516905 1_555
B13 O43 1.536422 1_555
B13 O35 1.571316 1_555
B14 O56 1.398283 1_655
B14 O24 1.516905 1_555
B14 O44 1.536422 1_555
B14 O36 1.571316 1_555
B15 O57 1.398283 1_455
B15 O25 1.516905 1_555
B15 O45 1.536422 1_555
B15 O37 1.571316 1_555
B16 O50 1.461460 1_555
B16 O70 1.487837 1_555
B16 O1 1.489435 1_556
B16 O84 1.490159 1_555
B17 O51 1.461460 1_555
B17 O71 1.487837 1_555
B17 O0 1.489435 1_554
B17 O85 1.490159 1_555
B18 O52 1.461460 1_555
B18 O72 1.487837 1_555
B18 O3 1.489435 1_555
B18 O82 1.490159 1_555
B19 O53 1.461460 1_555
B19 O73 1.487837 1_555
B19 O2 1.489435 1_555
B19 O83 1.490159 1_555
B20 O6 1.490517 1_555
B20 O4 1.495303 1_555
B20 O78 1.496139 1_555
B20 O34 1.541129 1_555
B21 O7 1.490517 1_555
B21 O5 1.495303 1_555
B21 O79 1.496139 1_555
B21 O35 1.541129 1_555
B22 O4 1.490517 1_555
B22 O6 1.495303 1_655
B22 O80 1.496139 1_555
B22 O36 1.541129 1_555
B23 O5 1.490517 1_555
B23 O7 1.495303 1_455
B23 O81 1.496139 1_555
B23 O37 1.541129 1_555
B24 O58 1.447884 1_555
B24 O42 1.492426 1_555
B24 O47 1.500857 1_556
B24 O46 1.501581 1_555
B25 O59 1.447884 1_555
B25 O43 1.492426 1_555
B25 O46 1.500857 1_554
B25 O47 1.501581 1_555
B26 O60 1.447884 1_655
B26 O44 1.492426 1_555
B26 O49 1.500857 1_555
B26 O48 1.501581 1_655
B27 O61 1.447884 1_455
B27 O45 1.492426 1_555
B27 O48 1.500857 1_555
B27 O49 1.501581 1_455
B28 O10 1.421003 1_455
B28 O86 1.501298 1_555
B28 O66 1.517638 1_555
B28 O20 1.521712 1_555
B29 O11 1.421003 1_655
B29 O87 1.501298 1_555
B29 O67 1.517638 1_555
B29 O21 1.521712 1_565
B30 O8 1.421003 1_455
B30 O88 1.501298 1_555
B30 O68 1.517638 1_555
B30 O20 1.521712 1_565
B31 O9 1.421003 1_655
B31 O89 1.501298 1_555
B31 O69 1.517638 1_555
B31 O21 1.521712 1_555
B32 O70 1.462399 1_555
B32 O86 1.470351 1_555
B32 O64 1.504049 1_455
B32 O22 1.510713 1_555
B33 O71 1.462399 1_555
B33 O87 1.470351 1_555
B33 O65 1.504049 1_655
B33 O23 1.510713 1_555
B34 O72 1.462399 1_555
B34 O88 1.470351 1_555
B34 O62 1.504049 1_455
B34 O24 1.510713 1_455
B35 O73 1.462399 1_555
B35 O89 1.470351 1_555
B35 O63 1.504049 1_655
B35 O25 1.510713 1_655
B36 O40 1.420664 1_555
B36 O0 1.483722 1_555
B36 O12 1.497408 1_555
B36 O58 1.515775 1_555
B37 O41 1.420664 1_555
B37 O1 1.483722 1_555
B37 O13 1.497408 1_555
B37 O59 1.515775 1_555
B38 O38 1.420664 1_555
B38 O2 1.483722 1_555
B38 O14 1.497408 1_555
B38 O60 1.515775 1_655
B39 O39 1.420664 1_555
B39 O3 1.483722 1_555
B39 O15 1.497408 1_555
B39 O61 1.515775 1_455
