# generated using pymatgen
data_TiCrCuS4
_symmetry_space_group_name_H-M   'P 1'
_cell_length_a   11.41402714
_cell_length_b   6.89934706
_cell_length_c   11.93612354
_cell_angle_alpha   90.83557742
_cell_angle_beta   90.17737999
_cell_angle_gamma   89.96887649
_symmetry_Int_Tables_number   1
_chemical_formula_structural   TiCrCuS4
_chemical_formula_sum   'Ti8 Cr8 Cu8 S32'
_cell_volume   939.85721122
_cell_formula_units_Z   8
loop_
 _symmetry_equiv_pos_site_id
 _symmetry_equiv_pos_as_xyz
  1  'x, y, z'
loop_
 _atom_site_type_symbol
 _atom_site_label
 _atom_site_symmetry_multiplicity
 _atom_site_fract_x
 _atom_site_fract_y
 _atom_site_fract_z
 _atom_site_occupancy
  Ti  Ti0  1  0.09010200  0.89780600  0.68102800  1
  Ti  Ti1  1  0.91114600  0.10713100  0.18201300  1
  Ti  Ti2  1  0.40904400  0.88350300  0.18457600  1
  Ti  Ti3  1  0.58717600  0.10219900  0.68495700  1
  Ti  Ti4  1  0.86629000  0.61688100  0.83302700  1
  Ti  Ti5  1  0.36963900  0.38390100  0.83147500  1
  Ti  Ti6  1  0.63078900  0.59952400  0.33015500  1
  Ti  Ti7  1  0.87133900  0.39358700  0.48704600  1
  Cr  Cr0  1  0.12362700  0.36349000  0.33049800  1
  Cr  Cr1  1  0.15840100  0.62343900  0.95167000  1
  Cr  Cr2  1  0.34282800  0.63155400  0.45511700  1
  Cr  Cr3  1  0.65781600  0.38335000  0.95376800  1
  Cr  Cr4  1  0.14120500  0.13034400  0.97302800  1
  Cr  Cr5  1  0.85367000  0.86808800  0.47148400  1
  Cr  Cr6  1  0.35691000  0.13599000  0.46924900  1
  Cr  Cr7  1  0.64528000  0.87728400  0.97034700  1
  Cu  Cu0  1  0.11737700  0.37163800  0.68495400  1
  Cu  Cu1  1  0.88792400  0.62649900  0.18606900  1
  Cu  Cu2  1  0.39300600  0.38152800  0.18595900  1
  Cu  Cu3  1  0.60756000  0.62126400  0.68560500  1
  Cu  Cu4  1  0.12271100  0.88347500  0.32497800  1
  Cu  Cu5  1  0.87926600  0.12284500  0.81710400  1
  Cu  Cu6  1  0.37706000  0.88639800  0.82054600  1
  Cu  Cu7  1  0.62297200  0.12804500  0.32103700  1
  S  S0  1  0.02406800  0.86087500  0.87895000  1
  S  S1  1  0.97483100  0.12963300  0.38056700  1
  S  S2  1  0.47492100  0.86714500  0.38232300  1
  S  S3  1  0.52631800  0.13823900  0.88426300  1
  S  S4  1  0.03518400  0.36174300  0.14303400  1
  S  S5  1  0.95886400  0.63498500  0.63668000  1
  S  S6  1  0.45869400  0.34842500  0.64094500  1
  S  S7  1  0.53788200  0.63063700  0.14254200  1
  S  S8  1  0.02193400  0.38824000  0.87769900  1
  S  S9  1  0.97867200  0.61325000  0.37107400  1
  S  S10  1  0.47389400  0.38918800  0.38261300  1
  S  S11  1  0.52281300  0.61424100  0.87858700  1
  S  S12  1  0.03461500  0.86217000  0.14107600  1
  S  S13  1  0.96517500  0.14653300  0.63672200  1
  S  S14  1  0.46721400  0.85195700  0.64362800  1
  S  S15  1  0.52974100  0.12979400  0.14402800  1
  S  S16  1  0.21419600  0.88580800  0.52075300  1
  S  S17  1  0.78453700  0.12664100  0.01979600  1
  S  S18  1  0.28507700  0.87980200  0.01703300  1
  S  S19  1  0.71681000  0.12505600  0.52071000  1
  S  S20  1  0.21586400  0.37708100  0.50994100  1
  S  S21  1  0.78464800  0.63327400  0.01719300  1
  S  S22  1  0.28297000  0.37129900  0.01517200  1
  S  S23  1  0.71400500  0.62794000  0.51766700  1
  S  S24  1  0.23057600  0.11892500  0.78976400  1
  S  S25  1  0.76327200  0.87781300  0.29010300  1
  S  S26  1  0.26494400  0.12038300  0.28947000  1
  S  S27  1  0.73643800  0.88416100  0.78998600  1
  S  S28  1  0.23820900  0.62900000  0.77180900  1
  S  S29  1  0.76793800  0.36731800  0.28676200  1
  S  S30  1  0.25685400  0.61601000  0.27900900  1
  S  S31  1  0.73570700  0.37267200  0.77241600  1
loop_
_geom_bond_atom_site_label_1
_geom_bond_atom_site_label_2
_geom_bond_distance
_geom_bond_site_symmetry_2
Cr0 S26 2.373360 1_555
Cr0 S20 2.384323 1_555
Cr0 S30 2.401112 1_555
Cr0 S1 2.425332 1_455
Cr0 S9 2.432875 1_455
Cr0 S4 2.451792 1_555
Cr1 S28 2.335541 1_555
Cr1 S22 2.377275 1_556
Cr1 S18 2.404837 1_556
Cr1 S8 2.406545 1_555
Cr1 S0 2.412139 1_555
Cr2 S30 2.318154 1_555
Cr2 S20 2.377590 1_555
Cr2 S2 2.392095 1_555
Cr2 S10 2.397117 1_555
Cr2 S16 2.410566 1_555
Cr3 S31 2.342797 1_555
Cr3 S21 2.366423 1_556
Cr3 S11 2.397464 1_555
Cr3 S3 2.398959 1_555
Cr3 S17 2.425066 1_556
Cr4 S22 2.368226 1_556
Cr4 S24 2.416706 1_555
Cr4 S18 2.445119 1_546
Cr4 S8 2.522066 1_555
Cr4 S0 2.537230 1_545
Cr4 S4 2.837172 1_556
Cr4 S12 3.008771 1_546
Cr5 S23 2.371772 1_555
Cr5 S25 2.397211 1_555
Cr5 S19 2.429192 1_565
Cr5 S1 2.532876 1_565
Cr5 S9 2.551437 1_555
Cr5 S5 2.826990 1_555
Cr5 S13 3.012802 1_565
Cr6 S20 2.360692 1_555
Cr6 S26 2.386973 1_555
Cr6 S10 2.442889 1_555
Cr6 S16 2.459873 1_545
Cr6 S2 2.506229 1_545
Cr6 S6 2.756328 1_555
Cr7 S21 2.386711 1_556
Cr7 S27 2.395067 1_555
Cr7 S17 2.408765 1_566
Cr7 S3 2.486697 1_565
Cr7 S11 2.526350 1_555
Cr7 S7 2.956821 1_556
Cr7 S15 2.996830 1_566
Cu0 S20 2.376086 1_555
Cu0 S13 2.394189 1_455
Cu0 S28 2.463714 1_555
Cu0 S24 2.515078 1_555
Cu0 S8 2.549603 1_555
Cu0 S5 2.631956 1_455
Cu1 S21 2.332995 1_555
Cu1 S12 2.402000 1_655
Cu1 S9 2.439097 1_555
Cu1 S4 2.529885 1_655
Cu1 S25 2.553069 1_555
Cu1 S29 2.567731 1_555
Cu2 S15 2.383125 1_555
Cu2 S22 2.391249 1_555
Cu2 S7 2.447710 1_555
Cu2 S30 2.494262 1_555
Cu2 S10 2.519517 1_555
Cu2 S26 2.643537 1_555
Cu3 S14 2.316458 1_555
Cu3 S23 2.348240 1_555
Cu3 S31 2.488868 1_555
Cu3 S11 2.502207 1_555
Cu3 S6 2.585223 1_555
Cu3 S27 2.632820 1_555
Cu4 S26 2.348233 1_565
Cu4 S12 2.414155 1_555
Cu4 S30 2.454226 1_555
Cu4 S1 2.478822 1_465
Cu4 S9 2.553512 1_455
Cu4 S16 2.556376 1_555
Cu5 S27 2.336321 1_545
Cu5 S13 2.376427 1_555
Cu5 S31 2.441058 1_555
Cu5 S8 2.546553 1_655
Cu5 S0 2.563492 1_645
Cu5 S17 2.652804 1_556
Cu6 S24 2.348338 1_565
Cu6 S14 2.360771 1_555
Cu6 S28 2.443587 1_555
Cu6 S3 2.540960 1_565
Cu6 S18 2.573551 1_556
Cu6 S11 2.607834 1_555
Cu7 S15 2.362897 1_555
Cu7 S29 2.378511 1_555
Cu7 S25 2.379796 1_545
Cu7 S10 2.578283 1_555
Cu7 S2 2.584617 1_545
Cu7 S19 2.610257 1_555
S0 Ti0 2.498566 1_555
S0 Ti4 2.519472 1_455
S1 Ti1 2.479506 1_555
S1 Ti7 2.503313 1_555
S2 Ti2 2.479109 1_555
S2 Ti6 2.632841 1_555
S3 Ti3 2.489277 1_555
S3 Ti5 2.547302 1_555
S4 Ti1 2.310268 1_455
S5 Ti0 2.404610 1_655
S5 Ti4 2.578502 1_555
S5 Ti7 2.620277 1_555
S6 Ti3 2.308908 1_555
S6 Ti5 2.502574 1_555
S7 Ti2 2.331135 1_555
S7 Ti6 2.486860 1_555
S8 Ti4 2.438114 1_455
S9 Ti7 2.405739 1_555
S10 Ti6 2.396086 1_555
S11 Ti5 2.422663 1_555
S12 Ti1 2.249167 1_465
S13 Ti0 2.297151 1_645
S13 Ti7 2.705411 1_555
S14 Ti3 2.252236 1_565
S15 Ti2 2.247272 1_545
S16 Ti0 2.384306 1_555
S17 Ti1 2.417765 1_555
S18 Ti2 2.446029 1_555
S19 Ti3 2.466760 1_555
S19 Ti7 2.595101 1_555
S21 Ti4 2.391378 1_554
S22 Ti5 2.410989 1_554
S23 Ti6 2.433977 1_555
S23 Ti7 2.440598 1_555
S24 Ti5 2.466005 1_555
S24 Ti0 2.552396 1_545
S25 Ti6 2.497206 1_555
S25 Ti1 2.663165 1_565
S26 Ti2 2.625634 1_545
S27 Ti4 2.425108 1_555
S27 Ti3 2.603097 1_565
S28 Ti5 2.375490 1_555
S28 Ti0 2.741398 1_555
S29 Ti6 2.294240 1_555
S29 Ti7 2.666634 1_555
S29 Ti1 2.720580 1_555
S30 Ti2 2.787520 1_555
S31 Ti4 2.354623 1_555
S31 Ti3 2.716962 1_555
