# generated using pymatgen
data_HoMnO3
_symmetry_space_group_name_H-M   'P 1'
_cell_length_a   6.11740084
_cell_length_b   6.11740084
_cell_length_c   12.54384500
_cell_angle_alpha   90.00000000
_cell_angle_beta   90.00000000
_cell_angle_gamma   125.39102334
_symmetry_Int_Tables_number   1
_chemical_formula_structural   HoMnO3
_chemical_formula_sum   'Ho6 Mn6 O18'
_cell_volume   382.68250285
_cell_formula_units_Z   6
loop_
 _symmetry_equiv_pos_site_id
 _symmetry_equiv_pos_as_xyz
  1  'x, y, z'
loop_
 _atom_site_type_symbol
 _atom_site_label
 _atom_site_symmetry_multiplicity
 _atom_site_fract_x
 _atom_site_fract_y
 _atom_site_fract_z
 _atom_site_occupancy
  Ho  Ho0  1  0.02754000  0.02754000  0.33905300  1
  Ho  Ho1  1  0.97246000  0.97246000  0.83905300  1
  Ho  Ho2  1  0.70055100  0.36690400  0.28685800  1
  Ho  Ho3  1  0.36690400  0.70055100  0.28685800  1
  Ho  Ho4  1  0.29944900  0.63309600  0.78685800  1
  Ho  Ho5  1  0.63309600  0.29944900  0.78685800  1
  Mn  Mn0  1  0.40050700  0.40050700  0.04199900  1
  Mn  Mn1  1  0.04248300  0.68389700  0.02171900  1
  Mn  Mn2  1  0.68389700  0.04248300  0.02171900  1
  Mn  Mn3  1  0.59949300  0.59949300  0.54199900  1
  Mn  Mn4  1  0.95751700  0.31610300  0.52171900  1
  Mn  Mn5  1  0.31610300  0.95751700  0.52171900  1
  O  O0  1  0.41258800  0.41258800  0.41752500  1
  O  O1  1  0.05913300  0.65169300  0.42418600  1
  O  O2  1  0.65169300  0.05913300  0.42418600  1
  O  O3  1  0.58741200  0.58741200  0.91752500  1
  O  O4  1  0.94086700  0.34830700  0.92418600  1
  O  O5  1  0.34830700  0.94086700  0.92418600  1
  O  O6  1  0.71260200  0.71260200  0.24959800  1
  O  O7  1  0.01681800  0.31814200  0.24752600  1
  O  O8  1  0.31814200  0.01681800  0.24752600  1
  O  O9  1  0.28739800  0.28739800  0.74959800  1
  O  O10  1  0.98318200  0.68185800  0.74752600  1
  O  O11  1  0.68185800  0.98318200  0.74752600  1
  O  O12  1  0.98120600  0.98120600  0.52887800  1
  O  O13  1  0.01879400  0.01879400  0.02887800  1
  O  O14  1  0.70549200  0.38282700  0.09079600  1
  O  O15  1  0.38282700  0.70549200  0.09079600  1
  O  O16  1  0.29450800  0.61717300  0.59079600  1
  O  O17  1  0.61717300  0.29450800  0.59079600  1
loop_
_geom_bond_atom_site_label_1
_geom_bond_atom_site_label_2
_geom_bond_distance
_geom_bond_site_symmetry_2
Ho0 O6 2.093639 1_445
Ho0 O7 2.148911 1_555
Ho0 O8 2.148911 1_555
Ho0 O0 2.374644 1_555
Ho0 O12 2.395293 1_445
Ho0 O1 2.641744 1_545
Ho0 O2 2.641744 1_455
Ho1 O9 2.093639 1_665
Ho1 O11 2.148911 1_555
Ho1 O10 2.148911 1_555
Ho1 O3 2.374644 1_555
Ho1 O13 2.395293 1_666
Ho1 O4 2.641744 1_565
Ho1 O5 2.641744 1_655
Ho2 O8 2.121176 1_555
Ho2 O6 2.124986 1_555
Ho2 O7 2.178090 1_655
Ho2 O2 2.439206 1_555
Ho2 O14 2.460792 1_555
Ho2 O1 2.527414 1_655
Ho2 O0 2.537334 1_555
Ho3 O7 2.121176 1_555
Ho3 O6 2.124986 1_555
Ho3 O8 2.178090 1_565
Ho3 O1 2.439206 1_555
Ho3 O15 2.460792 1_555
Ho3 O2 2.527414 1_565
Ho3 O0 2.537334 1_555
Ho4 O11 2.121176 1_555
Ho4 O9 2.124986 1_555
Ho4 O10 2.178090 1_455
Ho4 O5 2.439206 1_555
Ho4 O16 2.460792 1_555
Ho4 O4 2.527414 1_455
Ho4 O3 2.537334 1_555
Ho5 O10 2.121176 1_555
Ho5 O9 2.124986 1_555
Ho5 O11 2.178090 1_545
Ho5 O4 2.439206 1_555
Ho5 O17 2.460792 1_555
Ho5 O5 2.527414 1_545
Ho5 O3 2.537334 1_555
Mn0 O3 1.881027 1_554
Mn0 O14 2.025091 1_555
Mn0 O15 2.025091 1_555
Mn0 O13 2.148616 1_555
Mn1 O14 1.998712 1_455
Mn1 O5 2.015316 1_554
Mn1 O13 2.137784 1_565
Mn1 O4 2.149324 1_454
Mn1 O15 2.187346 1_555
Mn2 O15 1.998712 1_545
Mn2 O4 2.015316 1_554
Mn2 O13 2.137784 1_655
Mn2 O5 2.149324 1_544
Mn2 O14 2.187346 1_555
Mn3 O0 1.881027 1_555
Mn3 O17 2.025091 1_555
Mn3 O16 2.025091 1_555
Mn3 O12 2.148616 1_555
Mn4 O16 1.998712 1_655
Mn4 O2 2.015316 1_555
Mn4 O12 2.137784 1_545
Mn4 O1 2.149324 1_655
Mn4 O17 2.187346 1_555
Mn5 O17 1.998712 1_565
Mn5 O1 2.015316 1_555
Mn5 O12 2.137784 1_455
Mn5 O2 2.149324 1_565
Mn5 O16 2.187346 1_555
