# generated using pymatgen
data_CrCuSnSe4
_symmetry_space_group_name_H-M   'P 1'
_cell_length_a   7.63959254
_cell_length_b   7.63959254
_cell_length_c   7.63959254
_cell_angle_alpha   120.40464220
_cell_angle_beta   119.20361320
_cell_angle_gamma   90.34272527
_symmetry_Int_Tables_number   1
_chemical_formula_structural   CrCuSnSe4
_chemical_formula_sum   'Cr2 Cu2 Sn2 Se8'
_cell_volume   316.16358612
_cell_formula_units_Z   2
loop_
 _symmetry_equiv_pos_site_id
 _symmetry_equiv_pos_as_xyz
  1  'x, y, z'
loop_
 _atom_site_type_symbol
 _atom_site_label
 _atom_site_symmetry_multiplicity
 _atom_site_fract_x
 _atom_site_fract_y
 _atom_site_fract_z
 _atom_site_occupancy
  Cr  Cr0  1  0.50000000  0.00000000  0.00000000  1
  Cr  Cr1  1  0.50000000  0.50000000  0.50000000  1
  Cu  Cu0  1  0.87997100  0.62997100  0.25000000  1
  Cu  Cu1  1  0.12002900  0.37002900  0.75000000  1
  Sn  Sn0  1  0.50000000  0.00000000  0.50000000  1
  Sn  Sn1  1  0.00000000  0.00000000  0.00000000  1
  Se  Se0  1  0.73595900  0.73226600  0.49630700  1
  Se  Se1  1  0.73595900  0.23965300  0.00369300  1
  Se  Se2  1  0.72420200  0.74787100  0.97633200  1
  Se  Se3  1  0.27153900  0.74787100  0.52366800  1
  Se  Se4  1  0.26404100  0.26773400  0.50369300  1
  Se  Se5  1  0.26404100  0.76034700  0.99630700  1
  Se  Se6  1  0.27579800  0.25212900  0.02366800  1
  Se  Se7  1  0.72846100  0.25212900  0.47633200  1
loop_
_geom_bond_atom_site_label_1
_geom_bond_atom_site_label_2
_geom_bond_distance
_geom_bond_site_symmetry_2
Cr0 Se1 2.541829 1_555
Cr0 Se5 2.541829 1_544
Cr0 Se6 2.581797 1_555
Cr0 Se2 2.581797 1_544
Cr0 Se7 2.581802 1_555
Cr0 Se3 2.581802 1_544
Cr1 Se0 2.541823 1_555
Cr1 Se4 2.541823 1_555
Cr1 Se7 2.581802 1_555
Cr1 Se3 2.581802 1_555
Cr1 Se2 2.581803 1_555
Cr1 Se6 2.581803 1_555
Cu0 Se1 2.429785 1_555
Cu0 Se0 2.429791 1_555
Cu0 Se3 2.467706 1_655
Cu0 Se2 2.467706 1_554
Cu1 Se5 2.429785 1_555
Cu1 Se4 2.429791 1_555
Cu1 Se7 2.467706 1_455
Cu1 Se6 2.467706 1_556
Se0 Sn0 2.732979 1_565
Se0 Sn1 2.732979 1_666
Se1 Sn0 2.732979 1_554
Se1 Sn1 2.732984 1_655
Se2 Sn1 2.722010 1_666
Se3 Sn0 2.722004 1_565
Se4 Sn0 2.732979 1_555
Se4 Sn1 2.732979 1_555
Se5 Sn0 2.732979 1_566
Se5 Sn1 2.732984 1_566
Se6 Sn1 2.722010 1_555
Se7 Sn0 2.722004 1_555
