# generated using pymatgen
data_CsH3(SeO4)2
_symmetry_space_group_name_H-M   'P 1'
_cell_length_a   8.22270900
_cell_length_b   13.39833300
_cell_length_c   8.65047023
_cell_angle_alpha   90.00000000
_cell_angle_beta   90.10749832
_cell_angle_gamma   90.00000000
_symmetry_Int_Tables_number   1
_chemical_formula_structural   CsH3(SeO4)2
_chemical_formula_sum   'Cs4 H12 Se8 O32'
_cell_volume   953.02576005
_cell_formula_units_Z   4
loop_
 _symmetry_equiv_pos_site_id
 _symmetry_equiv_pos_as_xyz
  1  'x, y, z'
loop_
 _atom_site_type_symbol
 _atom_site_label
 _atom_site_symmetry_multiplicity
 _atom_site_fract_x
 _atom_site_fract_y
 _atom_site_fract_z
 _atom_site_occupancy
  Cs  Cs0  1  0.21574300  0.56214700  0.66409800  1
  Cs  Cs1  1  0.78425700  0.06214700  0.83590200  1
  Cs  Cs2  1  0.78425700  0.43785300  0.33590200  1
  Cs  Cs3  1  0.21574300  0.93785300  0.16409800  1
  H  H0  1  0.11820300  0.24406800  0.10599700  1
  H  H1  1  0.88179700  0.74406800  0.39400300  1
  H  H2  1  0.88179700  0.75593200  0.89400300  1
  H  H3  1  0.11820300  0.25593200  0.60599700  1
  H  H4  1  0.51574100  0.65244400  0.24654100  1
  H  H5  1  0.48425900  0.15244400  0.25345900  1
  H  H6  1  0.48425900  0.34755600  0.75345900  1
  H  H7  1  0.51574100  0.84755600  0.74654100  1
  H  H8  1  0.33422800  0.45086500  0.12785600  1
  H  H9  1  0.66577200  0.95086500  0.37214400  1
  H  H10  1  0.66577200  0.54913500  0.87214400  1
  H  H11  1  0.33422800  0.04913500  0.62785600  1
  Se  Se0  1  0.25528600  0.29400800  0.32198600  1
  Se  Se1  1  0.74471400  0.79400800  0.17801400  1
  Se  Se2  1  0.74471400  0.70599200  0.67801400  1
  Se  Se3  1  0.25528600  0.20599200  0.82198600  1
  Se  Se4  1  0.25055800  0.60811700  0.18490500  1
  Se  Se5  1  0.74944200  0.10811700  0.31509500  1
  Se  Se6  1  0.74944200  0.39188300  0.81509500  1
  Se  Se7  1  0.25055800  0.89188300  0.68490500  1
  O  O0  1  0.39208100  0.37336100  0.25218600  1
  O  O1  1  0.60791900  0.87336100  0.24781400  1
  O  O2  1  0.60791900  0.62663900  0.74781400  1
  O  O3  1  0.39208100  0.12663900  0.75218600  1
  O  O4  1  0.17186700  0.33471500  0.48450700  1
  O  O5  1  0.82813300  0.83471500  0.01549300  1
  O  O6  1  0.82813300  0.66528500  0.51549300  1
  O  O7  1  0.17186700  0.16528500  0.98450700  1
  O  O8  1  0.32771000  0.17862600  0.33590300  1
  O  O9  1  0.67229000  0.67862600  0.16409700  1
  O  O10  1  0.67229000  0.82137400  0.66409700  1
  O  O11  1  0.32771000  0.32137400  0.83590300  1
  O  O12  1  0.08956400  0.29272100  0.19459100  1
  O  O13  1  0.91043600  0.79272100  0.30540900  1
  O  O14  1  0.91043600  0.70727900  0.80540900  1
  O  O15  1  0.08956400  0.20727900  0.69459100  1
  O  O16  1  0.10524700  0.57130600  0.30057200  1
  O  O17  1  0.89475300  0.07130600  0.19942800  1
  O  O18  1  0.89475300  0.42869400  0.69942800  1
  O  O19  1  0.10524700  0.92869400  0.80057200  1
  O  O20  1  0.22773700  0.70506500  0.07384300  1
  O  O21  1  0.77226300  0.20506500  0.42615700  1
  O  O22  1  0.77226300  0.29493500  0.92615700  1
  O  O23  1  0.22773700  0.79493500  0.57384300  1
  O  O24  1  0.41809700  0.62247700  0.30798800  1
  O  O25  1  0.58190300  0.12247700  0.19201200  1
  O  O26  1  0.58190300  0.37752300  0.69201200  1
  O  O27  1  0.41809700  0.87752300  0.80798800  1
  O  O28  1  0.30477000  0.51129900  0.05888300  1
  O  O29  1  0.69523000  0.01129900  0.44111700  1
  O  O30  1  0.69523000  0.48870100  0.94111700  1
  O  O31  1  0.30477000  0.98870100  0.55888300  1
loop_
_geom_bond_atom_site_label_1
_geom_bond_atom_site_label_2
_geom_bond_distance
_geom_bond_site_symmetry_2
Cs0 O18 3.203126 1_455
Cs0 O23 3.216763 1_555
Cs0 O16 3.273958 1_555
Cs0 O14 3.404312 1_455
Cs0 O2 3.414869 1_555
Cs0 O4 3.439048 1_555
Cs0 O28 3.557160 1_556
Cs0 O24 3.595938 1_555
Cs0 O11 3.668525 1_555
Cs0 O6 3.702026 1_455
Cs1 O19 3.203126 1_645
Cs1 O22 3.216763 1_555
Cs1 O17 3.273958 1_556
Cs1 O15 3.404312 1_655
Cs1 O3 3.414869 1_555
Cs1 O5 3.439048 1_546
Cs1 O29 3.557160 1_555
Cs1 O25 3.595938 1_556
Cs1 O10 3.668525 1_545
Cs1 O7 3.702026 1_655
Cs2 O16 3.203126 1_655
Cs2 O21 3.216763 1_555
Cs2 O18 3.273958 1_555
Cs2 O12 3.404312 1_655
Cs2 O0 3.414869 1_555
Cs2 O6 3.439048 1_555
Cs2 O30 3.557160 1_554
Cs2 O26 3.595938 1_555
Cs2 O9 3.668525 1_555
Cs2 O4 3.702026 1_655
Cs3 O17 3.203126 1_465
Cs3 O20 3.216763 1_555
Cs3 O19 3.273958 1_554
Cs3 O13 3.404312 1_455
Cs3 O1 3.414869 1_555
Cs3 O7 3.439048 1_564
Cs3 O31 3.557160 1_555
Cs3 O27 3.595938 1_554
Cs3 O8 3.668525 1_565
Cs3 O5 3.702026 1_455
H0 O12 1.033636 1_555
H0 O7 1.554075 1_554
H1 O13 1.033636 1_555
H1 O6 1.554075 1_555
H2 O14 1.033636 1_555
H2 O5 1.554075 1_556
H3 O15 1.033636 1_555
H3 O4 1.554075 1_555
H4 O24 1.044029 1_555
H4 O9 1.513987 1_555
H5 O25 1.044029 1_555
H5 O8 1.513987 1_555
H6 O26 1.044029 1_555
H6 O11 1.513987 1_555
H7 O27 1.044029 1_555
H7 O10 1.513987 1_555
H8 O28 1.034291 1_555
H8 O0 1.568258 1_555
H9 O29 1.034291 1_565
H9 O1 1.568258 1_555
H10 O30 1.034291 1_555
H10 O2 1.568258 1_555
H11 O31 1.034291 1_545
H11 O3 1.568258 1_555
O0 Se0 1.662152 1_555
O1 Se1 1.662152 1_555
O2 Se2 1.662152 1_555
O3 Se3 1.662152 1_555
O4 Se0 1.657737 1_555
O5 Se1 1.657737 1_555
O6 Se2 1.657737 1_555
O7 Se3 1.657737 1_555
O8 Se0 1.660951 1_555
O9 Se1 1.660951 1_555
O10 Se2 1.660951 1_555
O11 Se3 1.660951 1_555
O12 Se0 1.751009 1_555
O13 Se1 1.751009 1_555
O14 Se2 1.751009 1_555
O15 Se3 1.751009 1_555
O16 Se4 1.636017 1_555
O17 Se5 1.636017 1_555
O18 Se6 1.636017 1_555
O19 Se7 1.636017 1_555
O20 Se4 1.626285 1_555
O21 Se5 1.626285 1_555
O22 Se6 1.626285 1_555
O23 Se7 1.626285 1_555
O24 Se4 1.750144 1_555
O25 Se5 1.750144 1_555
O26 Se6 1.750144 1_555
O27 Se7 1.750144 1_555
O28 Se4 1.752623 1_555
O29 Se5 1.752623 1_555
O30 Se6 1.752623 1_555
O31 Se7 1.752623 1_555
