# generated using pymatgen
data_Nb2(PO4)3
_symmetry_space_group_name_H-M   'P 1'
_cell_length_a   8.94386482
_cell_length_b   8.94386482
_cell_length_c   8.94386569
_cell_angle_alpha   59.05887220
_cell_angle_beta   59.05887220
_cell_angle_gamma   59.05886715
_symmetry_Int_Tables_number   1
_chemical_formula_structural   Nb2(PO4)3
_chemical_formula_sum   'Nb4 P6 O24'
_cell_volume   495.03877031
_cell_formula_units_Z   2
loop_
 _symmetry_equiv_pos_site_id
 _symmetry_equiv_pos_as_xyz
  1  'x, y, z'
loop_
 _atom_site_type_symbol
 _atom_site_label
 _atom_site_symmetry_multiplicity
 _atom_site_fract_x
 _atom_site_fract_y
 _atom_site_fract_z
 _atom_site_occupancy
  Nb  Nb0  1  0.14099596  0.14099596  0.14099596  1
  Nb  Nb1  1  0.35900404  0.35900404  0.35900404  1
  Nb  Nb2  1  0.85900404  0.85900404  0.85900404  1
  Nb  Nb3  1  0.64099596  0.64099596  0.64099596  1
  P  P0  1  0.25000000  0.53417391  0.96582609  1
  P  P1  1  0.96582609  0.25000000  0.53417391  1
  P  P2  1  0.53417391  0.96582609  0.25000000  1
  P  P3  1  0.75000000  0.46582609  0.03417391  1
  P  P4  1  0.03417391  0.75000000  0.46582609  1
  P  P5  1  0.46582609  0.03417391  0.75000000  1
  O  O0  1  0.91835931  0.29168728  0.06110455  1
  O  O1  1  0.06110455  0.91835931  0.29168728  1
  O  O2  1  0.29168728  0.06110455  0.91835931  1
  O  O3  1  0.58164069  0.43889545  0.20831272  1
  O  O4  1  0.20831272  0.58164069  0.43889545  1
  O  O5  1  0.43889545  0.20831272  0.58164069  1
  O  O6  1  0.08164069  0.70831272  0.93889545  1
  O  O7  1  0.93889545  0.08164069  0.70831272  1
  O  O8  1  0.70831272  0.93889545  0.08164069  1
  O  O9  1  0.41835931  0.56110455  0.79168728  1
  O  O10  1  0.49538853  0.86720513  0.71896009  1
  O  O11  1  0.86720513  0.71896009  0.49538853  1
  O  O12  1  0.71896009  0.49538853  0.86720513  1
  O  O13  1  0.63279487  0.00461147  0.78103991  1
  O  O14  1  0.00461147  0.78103991  0.63279487  1
  O  O15  1  0.78103991  0.63279487  0.00461147  1
  O  O16  1  0.50461147  0.13279487  0.28103991  1
  O  O17  1  0.13279487  0.28103991  0.50461147  1
  O  O18  1  0.28103991  0.50461147  0.13279487  1
  O  O19  1  0.36720513  0.99538853  0.21896009  1
  O  O20  1  0.99538853  0.21896009  0.36720513  1
  O  O21  1  0.21896009  0.36720513  0.99538853  1
  O  O22  1  0.56110455  0.79168728  0.41835931  1
  O  O23  1  0.79168728  0.41835931  0.56110455  1
loop_
_geom_bond_atom_site_label_1
_geom_bond_atom_site_label_2
_geom_bond_distance
_geom_bond_site_symmetry_2
Nb0 O0 2.001285 1_455
Nb0 O1 2.001285 1_545
Nb0 O2 2.001285 1_554
Nb0 O19 2.020643 1_545
Nb0 O21 2.020644 1_554
Nb0 O20 2.020644 1_455
Nb1 O4 2.001285 1_555
Nb1 O3 2.001285 1_555
Nb1 O5 2.001285 1_555
Nb1 O16 2.020643 1_555
Nb1 O17 2.020644 1_555
Nb1 O18 2.020644 1_555
Nb2 O6 2.001285 1_655
Nb2 O7 2.001285 1_565
Nb2 O8 2.001285 1_556
Nb2 O13 2.020643 1_565
Nb2 O15 2.020644 1_556
Nb2 O14 2.020644 1_655
Nb3 O23 2.001285 1_555
Nb3 O9 2.001285 1_555
Nb3 O22 2.001285 1_555
Nb3 O10 2.020643 1_555
Nb3 O11 2.020644 1_555
Nb3 O12 2.020644 1_555
O0 P3 1.525352 1_555
O1 P4 1.525352 1_555
O2 P5 1.525352 1_555
O3 P3 1.525352 1_555
O4 P4 1.525352 1_555
O5 P5 1.525352 1_555
O6 P0 1.525352 1_555
O7 P1 1.525352 1_555
O8 P2 1.525352 1_555
O9 P0 1.525352 1_555
O10 P5 1.523770 1_565
O11 P4 1.523770 1_655
O12 P3 1.523770 1_556
O13 P5 1.523770 1_555
O14 P4 1.523770 1_555
O15 P3 1.523770 1_555
O16 P2 1.523770 1_545
O17 P1 1.523770 1_455
O18 P0 1.523770 1_554
O19 P2 1.523770 1_555
O20 P1 1.523770 1_555
O21 P0 1.523770 1_555
O22 P2 1.525352 1_555
O23 P1 1.525352 1_555
