# generated using pymatgen
data_TiAlAu2
_symmetry_space_group_name_H-M   'P 1'
_cell_length_a   6.17918200
_cell_length_b   6.17918200
_cell_length_c   14.17389400
_cell_angle_alpha   90.00000000
_cell_angle_beta   90.00000000
_cell_angle_gamma   90.00000000
_symmetry_Int_Tables_number   1
_chemical_formula_structural   TiAlAu2
_chemical_formula_sum   'Ti8 Al8 Au16'
_cell_volume   541.19173382
_cell_formula_units_Z   8
loop_
 _symmetry_equiv_pos_site_id
 _symmetry_equiv_pos_as_xyz
  1  'x, y, z'
loop_
 _atom_site_type_symbol
 _atom_site_label
 _atom_site_symmetry_multiplicity
 _atom_site_fract_x
 _atom_site_fract_y
 _atom_site_fract_z
 _atom_site_occupancy
  Ti  Ti0_0  1  0.25000000  0.25000000  0.25000000  1
  Ti  Ti0_1  1  0.25000000  0.25000000  0.75000000  1
  Ti  Ti0_2  1  0.25000000  0.75000000  0.25000000  1
  Ti  Ti0_3  1  0.25000000  0.75000000  0.75000000  1
  Ti  Ti0_4  1  0.75000000  0.25000000  0.25000000  1
  Ti  Ti0_5  1  0.75000000  0.25000000  0.75000000  1
  Ti  Ti0_6  1  0.75000000  0.75000000  0.25000000  1
  Ti  Ti0_7  1  0.75000000  0.75000000  0.75000000  1
  Al  Al0_0  1  0.25000000  0.25000000  0.00000000  1
  Al  Al0_1  1  0.25000000  0.25000000  0.50000000  1
  Al  Al0_2  1  0.25000000  0.75000000  0.00000000  1
  Al  Al0_3  1  0.25000000  0.75000000  0.50000000  1
  Al  Al0_4  1  0.75000000  0.25000000  0.00000000  1
  Al  Al0_5  1  0.75000000  0.25000000  0.50000000  1
  Al  Al0_6  1  0.75000000  0.75000000  0.00000000  1
  Al  Al0_7  1  0.75000000  0.75000000  0.50000000  1
  Au  Au0_0  1  0.00000000  0.00000000  0.38074350  1
  Au  Au0_1  1  0.00000000  0.00000000  0.88074350  1
  Au  Au0_2  1  0.00000000  0.50000000  0.38074350  1
  Au  Au0_3  1  0.00000000  0.50000000  0.88074350  1
  Au  Au0_4  1  0.50000000  0.00000000  0.38074350  1
  Au  Au0_5  1  0.50000000  0.00000000  0.88074350  1
  Au  Au0_6  1  0.50000000  0.50000000  0.38074350  1
  Au  Au0_7  1  0.50000000  0.50000000  0.88074350  1
  Au  Au1_0  1  0.00000000  0.00000000  0.11925650  1
  Au  Au1_1  1  0.00000000  0.00000000  0.61925650  1
  Au  Au1_2  1  0.00000000  0.50000000  0.11925650  1
  Au  Au1_3  1  0.00000000  0.50000000  0.61925650  1
  Au  Au1_4  1  0.50000000  0.00000000  0.11925650  1
  Au  Au1_5  1  0.50000000  0.00000000  0.61925650  1
  Au  Au1_6  1  0.50000000  0.50000000  0.11925650  1
  Au  Au1_7  1  0.50000000  0.50000000  0.61925650  1
loop_
_geom_bond_atom_site_label_1
_geom_bond_atom_site_label_2
_geom_bond_distance
_geom_bond_site_symmetry_2
Ti0_0 Ti0_2 3.089591 1_555
Ti0_0 Ti0_2 3.089591 1_545
Ti0_0 Ti0_4 3.089591 1_455
Ti0_0 Ti0_4 3.089591 1_555
Ti0_1 Ti0_5 3.089591 1_455
Ti0_1 Ti0_5 3.089591 1_555
Ti0_1 Ti0_3 3.089591 1_555
Ti0_1 Ti0_3 3.089591 1_545
Ti0_2 Ti0_6 3.089591 1_455
Ti0_2 Ti0_6 3.089591 1_555
Ti0_3 Ti0_7 3.089591 1_555
Ti0_3 Ti0_7 3.089591 1_455
Ti0_4 Ti0_6 3.089591 1_555
Ti0_4 Ti0_6 3.089591 1_545
Ti0_5 Ti0_7 3.089591 1_545
Ti0_5 Ti0_7 3.089591 1_555
Al0_0 Au1_4 2.762245 1_555
Al0_0 Au1_2 2.762245 1_555
Al0_0 Au1_6 2.762245 1_555
Al0_0 Au1_0 2.762245 1_555
Al0_0 Au0_3 2.762245 1_554
Al0_0 Au0_5 2.762245 1_554
Al0_0 Au0_7 2.762245 1_554
Al0_0 Au0_1 2.762245 1_554
Al0_1 Au1_3 2.762245 1_555
Al0_1 Au1_7 2.762245 1_555
Al0_1 Au1_1 2.762245 1_555
Al0_1 Au1_5 2.762245 1_555
Al0_1 Au0_0 2.762245 1_555
Al0_1 Au0_4 2.762245 1_555
Al0_1 Au0_2 2.762245 1_555
Al0_1 Au0_6 2.762245 1_555
Al0_2 Au1_0 2.762245 1_565
Al0_2 Au1_4 2.762245 1_565
Al0_2 Au1_2 2.762245 1_555
Al0_2 Au1_6 2.762245 1_555
Al0_2 Au0_1 2.762245 1_564
Al0_2 Au0_3 2.762245 1_554
Al0_2 Au0_5 2.762245 1_564
Al0_2 Au0_7 2.762245 1_554
Al0_3 Au1_1 2.762245 1_565
Al0_3 Au1_3 2.762245 1_555
Al0_3 Au1_5 2.762245 1_565
Al0_3 Au1_7 2.762245 1_555
Al0_3 Au0_0 2.762245 1_565
Al0_3 Au0_4 2.762245 1_565
Al0_3 Au0_2 2.762245 1_555
Al0_3 Au0_6 2.762245 1_555
Al0_4 Au1_0 2.762245 1_655
Al0_4 Au1_4 2.762245 1_555
Al0_4 Au1_2 2.762245 1_655
Al0_4 Au1_6 2.762245 1_555
Al0_4 Au0_1 2.762245 1_654
Al0_4 Au0_5 2.762245 1_554
Al0_4 Au0_3 2.762245 1_654
Al0_4 Au0_7 2.762245 1_554
Al0_5 Au1_3 2.762245 1_655
Al0_5 Au1_1 2.762245 1_655
Al0_5 Au1_7 2.762245 1_555
Al0_5 Au1_5 2.762245 1_555
Al0_5 Au0_4 2.762245 1_555
Al0_5 Au0_0 2.762245 1_655
Al0_5 Au0_2 2.762245 1_655
Al0_5 Au0_6 2.762245 1_555
Al0_6 Au1_0 2.762245 1_665
Al0_6 Au1_4 2.762245 1_565
Al0_6 Au1_2 2.762245 1_655
Al0_6 Au1_6 2.762245 1_555
Al0_6 Au0_5 2.762245 1_564
Al0_6 Au0_1 2.762245 1_664
Al0_6 Au0_3 2.762245 1_654
Al0_6 Au0_7 2.762245 1_554
Al0_7 Au1_1 2.762245 1_665
Al0_7 Au1_3 2.762245 1_655
Al0_7 Au1_5 2.762245 1_565
Al0_7 Au1_7 2.762245 1_555
Al0_7 Au0_4 2.762245 1_565
Al0_7 Au0_0 2.762245 1_665
Al0_7 Au0_2 2.762245 1_655
Al0_7 Au0_6 2.762245 1_555
Au0_0 Ti0_2 2.864774 1_545
Au0_0 Ti0_6 2.864774 1_445
Au0_0 Ti0_4 2.864774 1_455
Au0_0 Ti0_0 2.864774 1_555
Au0_0 Au0_4 3.089591 1_555
Au0_0 Au0_2 3.089591 1_555
Au0_0 Au0_2 3.089591 1_545
Au0_0 Au0_4 3.089591 1_455
Au0_1 Ti0_5 2.864774 1_455
Au0_1 Ti0_1 2.864774 1_555
Au0_1 Ti0_7 2.864774 1_445
Au0_1 Ti0_3 2.864774 1_545
Au0_1 Au0_5 3.089591 1_555
Au0_1 Au0_5 3.089591 1_455
Au0_1 Au0_3 3.089591 1_555
Au0_1 Au0_3 3.089591 1_545
Au0_2 Ti0_2 2.864774 1_555
Au0_2 Ti0_6 2.864774 1_455
Au0_2 Ti0_4 2.864774 1_455
Au0_2 Ti0_0 2.864774 1_555
Au0_2 Au0_6 3.089591 1_455
Au0_2 Au0_6 3.089591 1_555
Au0_3 Ti0_5 2.864774 1_455
Au0_3 Ti0_1 2.864774 1_555
Au0_3 Ti0_7 2.864774 1_455
Au0_3 Ti0_3 2.864774 1_555
Au0_3 Au0_7 3.089591 1_555
Au0_3 Au0_7 3.089591 1_455
Au0_4 Ti0_4 2.864774 1_555
Au0_4 Ti0_6 2.864774 1_545
Au0_4 Ti0_2 2.864774 1_545
Au0_4 Ti0_0 2.864774 1_555
Au0_4 Au0_6 3.089591 1_545
Au0_4 Au0_6 3.089591 1_555
Au0_5 Ti0_7 2.864774 1_545
Au0_5 Ti0_1 2.864774 1_555
Au0_5 Ti0_5 2.864774 1_555
Au0_5 Ti0_3 2.864774 1_545
Au0_5 Au0_7 3.089591 1_555
Au0_5 Au0_7 3.089591 1_545
Au0_6 Ti0_4 2.864774 1_555
Au0_6 Ti0_2 2.864774 1_555
Au0_6 Ti0_6 2.864774 1_555
Au0_6 Ti0_0 2.864774 1_555
Au0_7 Ti0_1 2.864774 1_555
Au0_7 Ti0_5 2.864774 1_555
Au0_7 Ti0_3 2.864774 1_555
Au0_7 Ti0_7 2.864774 1_555
Au1_0 Ti0_2 2.864774 1_545
Au1_0 Ti0_4 2.864774 1_455
Au1_0 Ti0_0 2.864774 1_555
Au1_0 Ti0_6 2.864774 1_445
Au1_0 Au1_2 3.089591 1_555
Au1_0 Au1_2 3.089591 1_545
Au1_0 Au1_4 3.089591 1_455
Au1_0 Au1_4 3.089591 1_555
Au1_1 Ti0_1 2.864774 1_555
Au1_1 Ti0_5 2.864774 1_455
Au1_1 Ti0_7 2.864774 1_445
Au1_1 Ti0_3 2.864774 1_545
Au1_1 Au1_3 3.089591 1_545
Au1_1 Au1_5 3.089591 1_455
Au1_1 Au1_3 3.089591 1_555
Au1_1 Au1_5 3.089591 1_555
Au1_2 Ti0_6 2.864774 1_455
Au1_2 Ti0_4 2.864774 1_455
Au1_2 Ti0_0 2.864774 1_555
Au1_2 Ti0_2 2.864774 1_555
Au1_2 Au1_6 3.089591 1_555
Au1_2 Au1_6 3.089591 1_455
Au1_3 Ti0_1 2.864774 1_555
Au1_3 Ti0_5 2.864774 1_455
Au1_3 Ti0_7 2.864774 1_455
Au1_3 Ti0_3 2.864774 1_555
Au1_3 Au1_7 3.089591 1_455
Au1_3 Au1_7 3.089591 1_555
Au1_4 Ti0_2 2.864774 1_545
Au1_4 Ti0_0 2.864774 1_555
Au1_4 Ti0_4 2.864774 1_555
Au1_4 Ti0_6 2.864774 1_545
Au1_4 Au1_6 3.089591 1_555
Au1_4 Au1_6 3.089591 1_545
Au1_5 Ti0_1 2.864774 1_555
Au1_5 Ti0_7 2.864774 1_545
Au1_5 Ti0_5 2.864774 1_555
Au1_5 Ti0_3 2.864774 1_545
Au1_5 Au1_7 3.089591 1_545
Au1_5 Au1_7 3.089591 1_555
Au1_6 Ti0_0 2.864774 1_555
Au1_6 Ti0_4 2.864774 1_555
Au1_6 Ti0_6 2.864774 1_555
Au1_6 Ti0_2 2.864774 1_555
Au1_7 Ti0_1 2.864774 1_555
Au1_7 Ti0_5 2.864774 1_555
Au1_7 Ti0_3 2.864774 1_555
Au1_7 Ti0_7 2.864774 1_555
