# generated using pymatgen
data_HfZrS6
_symmetry_space_group_name_H-M   'P 1'
_cell_length_a   3.62550016
_cell_length_b   5.15560914
_cell_length_c   9.20415594
_cell_angle_alpha   83.17838914
_cell_angle_beta   90.00000000
_cell_angle_gamma   90.00000000
_symmetry_Int_Tables_number   1
_chemical_formula_structural   HfZrS6
_chemical_formula_sum   'Hf1 Zr1 S6'
_cell_volume   170.82305347
_cell_formula_units_Z   1
loop_
 _symmetry_equiv_pos_site_id
 _symmetry_equiv_pos_as_xyz
  1  'x, y, z'
loop_
 _atom_site_type_symbol
 _atom_site_label
 _atom_site_symmetry_multiplicity
 _atom_site_fract_x
 _atom_site_fract_y
 _atom_site_fract_z
 _atom_site_occupancy
  Hf  Hf0  1  0.50000000  0.71823325  0.65105272  1
  Zr  Zr0  1  0.00000000  0.28176155  0.34952545  1
  S  S0  1  0.50000000  0.51783160  0.17705629  1
  S  S1  1  0.00000000  0.48179701  0.82027869  1
  S  S2  1  0.50000000  0.11828487  0.17746942  1
  S  S3  1  -0.00000000  0.88286748  0.82030198  1
  S  S4  1  0.50000000  0.23865652  0.55442877  1
  S  S5  1  0.00000000  0.76056873  0.44988767  1
loop_
_geom_bond_atom_site_label_1
_geom_bond_atom_site_label_2
_geom_bond_distance
_geom_bond_site_symmetry_2
Hf0 S5 2.581851 1_655
Hf0 S5 2.581851 1_555
Hf0 S1 2.597495 1_555
Hf0 S1 2.597495 1_655
Hf0 S3 2.597565 1_655
Hf0 S3 2.597565 1_555
Hf0 S4 2.724535 1_565
Hf0 S4 2.725179 1_555
S0 S2 2.059459 1_555
S0 Zr0 2.613108 1_655
S0 Zr0 2.613108 1_555
S1 S3 2.067788 1_555
S2 Zr0 2.611775 1_555
S2 Zr0 2.611775 1_655
S4 Zr0 2.606288 1_555
S4 Zr0 2.606288 1_655
S5 Zr0 2.735687 1_565
S5 Zr0 2.736553 1_555
