# generated using pymatgen
data_Zn8B4H3O15F
_symmetry_space_group_name_H-M   'P 1'
_cell_length_a   4.99443400
_cell_length_b   8.33910425
_cell_length_c   9.74685628
_cell_angle_alpha   101.16822838
_cell_angle_beta   90.21276278
_cell_angle_gamma   90.01395446
_symmetry_Int_Tables_number   1
_chemical_formula_structural   Zn8B4H3O15F
_chemical_formula_sum   'Zn8 B4 H3 O15 F1'
_cell_volume   398.25735904
_cell_formula_units_Z   1
loop_
 _symmetry_equiv_pos_site_id
 _symmetry_equiv_pos_as_xyz
  1  'x, y, z'
loop_
 _atom_site_type_symbol
 _atom_site_label
 _atom_site_symmetry_multiplicity
 _atom_site_fract_x
 _atom_site_fract_y
 _atom_site_fract_z
 _atom_site_occupancy
  Zn  Zn0  1  0.51747300  0.22369600  0.84791300  1
  Zn  Zn1  1  0.51822300  0.71851400  0.34312900  1
  Zn  Zn2  1  0.01798400  0.77847200  0.15165300  1
  Zn  Zn3  1  0.01739800  0.27687300  0.65024700  1
  Zn  Zn4  1  0.50108200  0.34911200  0.20369900  1
  Zn  Zn5  1  0.50100300  0.84901700  0.71058300  1
  Zn  Zn6  1  0.00157200  0.64911000  0.79576100  1
  Zn  Zn7  1  0.00114500  0.15015400  0.29722100  1
  B  B0  1  0.00484800  0.51678400  0.30632700  1
  B  B1  1  0.00344400  0.01718300  0.80516400  1
  B  B2  1  0.50434300  0.48363500  0.69351400  1
  B  B3  1  0.50391100  0.98428300  0.19428500  1
  H  H0  1  0.17317700  0.52891500  0.99294700  1
  H  H1  1  0.17932400  0.02837100  0.49250500  1
  H  H2  1  0.67437900  0.47129200  0.00749500  1
  O  O0  1  0.64053500  0.63118500  0.71233500  1
  O  O1  1  0.64002900  0.13104800  0.21282300  1
  O  O2  1  0.13900300  0.36940500  0.28387100  1
  O  O3  1  0.13614800  0.86887400  0.78455400  1
  O  O4  1  0.22848900  0.48155300  0.67855800  1
  O  O5  1  0.22834500  0.98113300  0.17716300  1
  O  O6  1  0.72886300  0.51831900  0.32375400  1
  O  O7  1  0.72698600  0.01984900  0.82077500  1
  O  O8  1  0.64069700  0.34018700  0.69581400  1
  O  O9  1  0.63948000  0.83965400  0.19669500  1
  O  O10  1  0.13756300  0.66231600  0.30597100  1
  O  O11  1  0.13880100  0.16158900  0.80616100  1
  O  O12  1  0.01526800  0.59845500  0.98677800  1
  O  O13  1  0.03350800  0.10537200  0.48527100  1
  O  O14  1  0.51571500  0.40283200  0.01370000  1
  F  F0  1  0.49426700  0.88782000  0.51533300  1
loop_
_geom_bond_atom_site_label_1
_geom_bond_atom_site_label_2
_geom_bond_distance
_geom_bond_site_symmetry_2
B0 O2 1.380070 1_555
B0 O10 1.383279 1_555
B0 O6 1.389200 1_455
B1 O11 1.379229 1_555
B1 O3 1.383606 1_545
B1 O7 1.389383 1_455
B2 O8 1.380547 1_555
B2 O4 1.384637 1_555
B2 O0 1.386190 1_555
B3 O1 1.380485 1_565
B3 O5 1.385392 1_555
B3 O9 1.387400 1_555
H0 O12 0.987559 1_555
H1 O13 0.982369 1_555
H2 O14 0.985417 1_555
O0 Zn5 1.948908 1_555
O0 Zn6 1.968979 1_655
O1 Zn4 1.964455 1_555
O1 Zn7 1.973072 1_655
O2 Zn4 1.966956 1_555
O2 Zn7 1.981438 1_555
O3 Zn5 1.957414 1_555
O3 Zn6 1.974775 1_555
O4 Zn3 1.978760 1_555
O4 Zn6 1.983390 1_555
O5 Zn2 1.963723 1_555
O5 Zn7 2.003826 1_565
O6 Zn1 1.951840 1_555
O6 Zn4 2.001055 1_555
O7 Zn5 1.963249 1_545
O7 Zn0 1.970614 1_555
O8 Zn3 1.982818 1_655
O8 Zn0 2.021032 1_555
O9 Zn2 1.986598 1_655
O9 Zn1 1.997255 1_555
O10 Zn1 1.973319 1_555
O10 Zn2 2.028621 1_555
O11 Zn0 1.980617 1_555
O11 Zn3 2.039770 1_555
O12 Zn2 1.975227 1_556
O12 Zn6 1.988266 1_555
O13 Zn3 1.935887 1_555
O13 Zn7 1.946298 1_555
O14 Zn0 1.976809 1_554
O14 Zn4 1.989446 1_555
F0 Zn1 1.976977 1_555
F0 Zn5 1.991383 1_555
