# generated using pymatgen
data_KCeNbSnO6
_symmetry_space_group_name_H-M   'P 1'
_cell_length_a   6.02611195
_cell_length_b   6.02611195
_cell_length_c   8.49138535
_cell_angle_alpha   90.00000000
_cell_angle_beta   90.00000000
_cell_angle_gamma   90.00000000
_symmetry_Int_Tables_number   1
_chemical_formula_structural   KCeNbSnO6
_chemical_formula_sum   'K2 Ce2 Nb2 Sn2 O12'
_cell_volume   308.35638187
_cell_formula_units_Z   2
loop_
 _symmetry_equiv_pos_site_id
 _symmetry_equiv_pos_as_xyz
  1  'x, y, z'
loop_
 _atom_site_type_symbol
 _atom_site_label
 _atom_site_symmetry_multiplicity
 _atom_site_fract_x
 _atom_site_fract_y
 _atom_site_fract_z
 _atom_site_occupancy
  K  K0  1  0.00000000  0.00000000  0.25000000  1
  K  K1  1  0.00000000  0.00000000  0.75000000  1
  Ce  Ce0  1  0.00000000  0.50000000  0.00000000  1
  Ce  Ce1  1  0.50000000  0.00000000  0.50000000  1
  Nb  Nb0  1  0.00000000  0.50000000  0.50000000  1
  Nb  Nb1  1  0.50000000  0.00000000  0.00000000  1
  Sn  Sn0  1  0.50000000  0.50000000  0.75000000  1
  Sn  Sn1  1  0.50000000  0.50000000  0.25000000  1
  O  O0  1  0.00000000  0.50000000  0.73719356  1
  O  O1  1  0.50000000  0.00000000  0.76280644  1
  O  O2  1  0.24526412  0.72899106  0.50000000  1
  O  O3  1  0.75473588  0.27100894  0.50000000  1
  O  O4  1  0.27100894  0.75473588  0.00000000  1
  O  O5  1  0.72899106  0.24526412  0.00000000  1
  O  O6  1  0.24526412  0.27100894  0.50000000  1
  O  O7  1  0.27100894  0.24526412  0.00000000  1
  O  O8  1  0.75473588  0.72899106  0.50000000  1
  O  O9  1  0.72899106  0.75473588  0.00000000  1
  O  O10  1  0.00000000  0.50000000  0.26280644  1
  O  O11  1  0.50000000  0.00000000  0.23719356  1
loop_
_geom_bond_atom_site_label_1
_geom_bond_atom_site_label_2
_geom_bond_distance
_geom_bond_site_symmetry_2
K0 O11 3.015018 1_555
K0 O10 3.015018 1_545
K0 O10 3.015018 1_555
K0 O11 3.015018 1_455
K0 O3 3.059092 1_455
K0 O8 3.059092 1_445
K0 O6 3.059092 1_555
K0 O5 3.059092 1_455
K0 O2 3.059092 1_545
K0 O7 3.059092 1_555
K0 O9 3.059092 1_445
K0 O4 3.059092 1_545
K1 O0 3.015018 1_555
K1 O1 3.015018 1_455
K1 O1 3.015018 1_555
K1 O0 3.015018 1_545
K1 O3 3.059092 1_455
K1 O8 3.059092 1_445
K1 O4 3.059092 1_546
K1 O9 3.059092 1_446
K1 O6 3.059092 1_555
K1 O5 3.059092 1_456
K1 O2 3.059092 1_545
K1 O7 3.059092 1_556
Ce0 O0 2.231591 1_554
Ce0 O10 2.231591 1_555
Ce0 O5 2.241327 1_455
Ce0 O9 2.241327 1_455
Ce0 O7 2.241327 1_555
Ce0 O4 2.241327 1_555
Ce1 O1 2.231591 1_555
Ce1 O11 2.231591 1_555
Ce1 O8 2.241327 1_545
Ce1 O2 2.241327 1_545
Ce1 O3 2.241327 1_555
Ce1 O6 2.241327 1_555
Nb0 O10 2.014102 1_555
Nb0 O0 2.014102 1_555
Nb0 O6 2.022040 1_555
Nb0 O8 2.022040 1_455
Nb0 O3 2.022040 1_455
Nb0 O2 2.022040 1_555
Nb1 O11 2.014102 1_555
Nb1 O1 2.014102 1_554
Nb1 O7 2.022040 1_555
Nb1 O9 2.022040 1_545
Nb1 O4 2.022040 1_545
Nb1 O5 2.022040 1_555
