# generated using pymatgen
data_CaPr(BiO3)2
_symmetry_space_group_name_H-M   'P 1'
_cell_length_a   5.89812400
_cell_length_b   6.18867400
_cell_length_c   8.65345500
_cell_angle_alpha   90.00000000
_cell_angle_beta   90.00000000
_cell_angle_gamma   90.00000000
_symmetry_Int_Tables_number   1
_chemical_formula_structural   CaPr(BiO3)2
_chemical_formula_sum   'Ca2 Pr2 Bi4 O12'
_cell_volume   315.86466441
_cell_formula_units_Z   2
loop_
 _symmetry_equiv_pos_site_id
 _symmetry_equiv_pos_as_xyz
  1  'x, y, z'
loop_
 _atom_site_type_symbol
 _atom_site_label
 _atom_site_symmetry_multiplicity
 _atom_site_fract_x
 _atom_site_fract_y
 _atom_site_fract_z
 _atom_site_occupancy
  Ca  Ca0  1  0.48680900  0.20059000  0.00000000  1
  Ca  Ca1  1  0.98680900  0.79941000  0.50000000  1
  Pr  Pr0  1  0.02474400  0.68485400  0.00000000  1
  Pr  Pr1  1  0.52474400  0.31514600  0.50000000  1
  Bi  Bi0  1  0.00216800  0.24510700  0.75076300  1
  Bi  Bi1  1  0.00216800  0.24510700  0.24923700  1
  Bi  Bi2  1  0.50216800  0.75489300  0.25076300  1
  Bi  Bi3  1  0.50216800  0.75489300  0.74923700  1
  O  O0  1  0.14543500  0.18096600  0.50000000  1
  O  O1  1  0.18383400  0.93665600  0.82327300  1
  O  O2  1  0.18383400  0.93665600  0.17672700  1
  O  O3  1  0.30516000  0.44834300  0.17338600  1
  O  O4  1  0.30516000  0.44834300  0.82661400  1
  O  O5  1  0.36121900  0.68123700  0.50000000  1
  O  O6  1  0.64543500  0.81903400  0.00000000  1
  O  O7  1  0.68383400  0.06334400  0.67672700  1
  O  O8  1  0.68383400  0.06334400  0.32327300  1
  O  O9  1  0.80516000  0.55165700  0.67338600  1
  O  O10  1  0.80516000  0.55165700  0.32661400  1
  O  O11  1  0.86121900  0.31876300  0.00000000  1
loop_
_geom_bond_atom_site_label_1
_geom_bond_atom_site_label_2
_geom_bond_distance
_geom_bond_site_symmetry_2
Ca0 O11 2.326266 1_555
Ca0 O3 2.397901 1_555
Ca0 O4 2.397901 1_554
Ca0 O6 2.539921 1_545
Ca0 O2 2.863576 1_545
Ca0 O1 2.863576 1_544
Ca1 O5 2.326266 1_655
Ca1 O9 2.397901 1_555
Ca1 O10 2.397901 1_555
Ca1 O0 2.539921 1_665
Ca1 O7 2.863576 1_565
Ca1 O8 2.863576 1_565
Bi0 O1 2.277214 1_545
Bi0 O7 2.280586 1_455
Bi0 O4 2.281767 1_555
Bi0 O9 2.323286 1_455
Bi0 O11 2.355954 1_456
Bi0 O0 2.362278 1_555
Bi1 O2 2.277214 1_545
Bi1 O8 2.280586 1_455
Bi1 O3 2.281767 1_555
Bi1 O10 2.323286 1_455
Bi1 O11 2.355954 1_455
Bi1 O0 2.362278 1_555
Bi2 O8 2.277214 1_565
Bi2 O2 2.280586 1_555
Bi2 O10 2.281767 1_555
Bi2 O3 2.323286 1_555
Bi2 O5 2.355954 1_555
Bi2 O6 2.362278 1_555
Bi3 O7 2.277214 1_565
Bi3 O1 2.280586 1_555
Bi3 O9 2.281767 1_555
Bi3 O4 2.323286 1_555
Bi3 O5 2.355954 1_555
Bi3 O6 2.362278 1_556
O0 Pr1 2.386351 1_555
O1 Pr0 2.376465 1_556
O2 Pr0 2.376465 1_555
O3 Pr0 2.670024 1_555
O4 Pr0 2.670024 1_556
O5 Pr1 2.462370 1_555
O6 Pr0 2.386351 1_655
O7 Pr1 2.376465 1_555
O8 Pr1 2.376465 1_555
O9 Pr1 2.670024 1_555
O10 Pr1 2.670024 1_555
O11 Pr0 2.462370 1_655
