# generated using pymatgen
data_Ca2Ti2SiGeO10
_symmetry_space_group_name_H-M   'P 1'
_cell_length_a   5.56022266
_cell_length_b   5.56022266
_cell_length_c   7.17668441
_cell_angle_alpha   75.81323848
_cell_angle_beta   75.81323848
_cell_angle_gamma   105.86506848
_symmetry_Int_Tables_number   1
_chemical_formula_structural   Ca2Ti2SiGeO10
_chemical_formula_sum   'Ca2 Ti2 Si1 Ge1 O10'
_cell_volume   194.98435916
_cell_formula_units_Z   1
loop_
 _symmetry_equiv_pos_site_id
 _symmetry_equiv_pos_as_xyz
  1  'x, y, z'
loop_
 _atom_site_type_symbol
 _atom_site_label
 _atom_site_symmetry_multiplicity
 _atom_site_fract_x
 _atom_site_fract_y
 _atom_site_fract_z
 _atom_site_occupancy
  Ca  Ca0  1  0.82603300  0.17396700  0.50000000  1
  Ca  Ca1  1  0.17248800  0.82751200  0.00000000  1
  Ti  Ti0  1  0.50015800  0.50484100  0.74626900  1
  Ti  Ti1  1  0.49515900  0.49984200  0.25373100  1
  Si  Si0  1  0.18007400  0.81992600  0.50000000  1
  Ge  Ge0  1  0.81722500  0.18277500  0.00000000  1
  O  O0  1  0.38538600  0.81160400  0.63266300  1
  O  O1  1  0.18839600  0.61461400  0.36733700  1
  O  O2  1  0.60207300  0.18470200  0.85517300  1
  O  O3  1  0.81529800  0.39792700  0.14482700  1
  O  O4  1  0.75351700  0.86558900  0.17153500  1
  O  O5  1  0.13441100  0.24648300  0.82846500  1
  O  O6  1  0.25058300  0.12109600  0.34213800  1
  O  O7  1  0.87890400  0.74941700  0.65786200  1
  O  O8  1  0.43256100  0.56743900  0.00000000  1
  O  O9  1  0.56773600  0.43226400  0.50000000  1
loop_
_geom_bond_atom_site_label_1
_geom_bond_atom_site_label_2
_geom_bond_distance
_geom_bond_site_symmetry_2
Ca0 O9 2.291946 1_555
Ca0 O7 2.484777 1_545
Ca0 O6 2.484777 1_655
Ca0 O0 2.487214 1_545
Ca0 O1 2.487214 1_655
Ca0 O2 2.571153 1_555
Ca0 O3 2.571153 1_555
Ca1 O8 2.307705 1_555
Ca1 O3 2.430565 1_455
Ca1 O2 2.430565 1_564
Ca1 O4 2.445183 1_455
Ca1 O5 2.445183 1_564
Ca1 O1 2.645916 1_555
Ca1 O0 2.645916 1_554
Ge0 O3 1.767077 1_555
Ge0 O2 1.767077 1_554
Ge0 O5 1.769694 1_654
Ge0 O4 1.769694 1_545
O0 Si0 1.658868 1_555
O0 Ti0 2.037106 1_555
O1 Si0 1.658868 1_555
O1 Ti1 2.037106 1_555
O2 Ti0 2.046260 1_555
O3 Ti1 2.046260 1_555
O4 Ti1 1.986611 1_555
O5 Ti0 1.986611 1_555
O6 Si0 1.653732 1_545
O6 Ti1 2.010747 1_555
O7 Si0 1.653732 1_655
O7 Ti0 2.010747 1_555
O8 Ti1 1.903937 1_555
O8 Ti0 1.903937 1_554
O9 Ti0 1.880081 1_555
O9 Ti1 1.880081 1_555
