# generated using pymatgen
data_NaCoBP2H4O11
_symmetry_space_group_name_H-M   'P 1'
_cell_length_a   9.51900364
_cell_length_b   9.51900364
_cell_length_c   15.96162768
_cell_angle_alpha   90.00000000
_cell_angle_beta   90.00000000
_cell_angle_gamma   120.00000458
_symmetry_Int_Tables_number   1
_chemical_formula_structural   NaCoBP2H4O11
_chemical_formula_sum   'Na6 Co6 B6 P12 H24 O66'
_cell_volume   1252.53760502
_cell_formula_units_Z   6
loop_
 _symmetry_equiv_pos_site_id
 _symmetry_equiv_pos_as_xyz
  1  'x, y, z'
loop_
 _atom_site_type_symbol
 _atom_site_label
 _atom_site_symmetry_multiplicity
 _atom_site_fract_x
 _atom_site_fract_y
 _atom_site_fract_z
 _atom_site_occupancy
  Na  Na0  1  0.80691142  0.19308858  0.75000000  1
  Na  Na1  1  0.38617715  0.19308858  0.41666700  1
  Na  Na2  1  0.19308858  0.80691142  0.25000000  1
  Na  Na3  1  0.61382285  0.80691142  0.91666700  1
  Na  Na4  1  0.80691142  0.61382285  0.08333300  1
  Na  Na5  1  0.19308858  0.38617715  0.58333300  1
  Co  Co0  1  0.44675197  0.55324803  0.75000000  1
  Co  Co1  1  0.10649606  0.55324803  0.41666700  1
  Co  Co2  1  0.55324803  0.44675197  0.25000000  1
  Co  Co3  1  0.89350394  0.44675197  0.91666700  1
  Co  Co4  1  0.44675197  0.89350394  0.08333300  1
  Co  Co5  1  0.55324803  0.10649606  0.58333300  1
  B  B0  1  0.15213672  0.84786328  0.75000000  1
  B  B1  1  0.69572657  0.84786328  0.41666700  1
  B  B2  1  0.84786328  0.15213672  0.25000000  1
  B  B3  1  0.30427343  0.15213672  0.91666700  1
  B  B4  1  0.15213672  0.30427343  0.08333300  1
  B  B5  1  0.84786328  0.69572657  0.58333300  1
  P  P0  1  0.61182005  0.77982539  0.58560634  1
  P  P1  1  0.16800534  0.38817995  0.25227334  1
  P  P2  1  0.38817995  0.22017461  0.08560634  1
  P  P3  1  0.83199466  0.22017461  0.08106066  1
  P  P4  1  0.22017461  0.83199466  0.91893934  1
  P  P5  1  0.83199466  0.61182005  0.75227334  1
  P  P6  1  0.77982539  0.61182005  0.41439366  1
  P  P7  1  0.16800534  0.77982539  0.58106066  1
  P  P8  1  0.77982539  0.16800534  0.41893934  1
  P  P9  1  0.22017461  0.38817995  0.91439366  1
  P  P10  1  0.38817995  0.16800534  0.74772666  1
  P  P11  1  0.61182005  0.83199466  0.24772666  1
  H  H0  1  0.81380356  0.39928266  0.62931529  1
  H  H1  1  0.58547910  0.18619644  0.29598229  1
  H  H2  1  0.18619644  0.60071734  0.12931529  1
  H  H3  1  0.41452090  0.60071734  0.03735171  1
  H  H4  1  0.60071734  0.41452090  0.96264829  1
  H  H5  1  0.41452090  0.81380356  0.79598229  1
  H  H6  1  0.39928266  0.81380356  0.37068471  1
  H  H7  1  0.58547910  0.39928266  0.53735171  1
  H  H8  1  0.39928266  0.58547910  0.46264829  1
  H  H9  1  0.60071734  0.18619644  0.87068471  1
  H  H10  1  0.18619644  0.58547910  0.70401771  1
  H  H11  1  0.81380356  0.41452090  0.20401771  1
  H  H12  1  0.68259998  0.14094686  0.94426864  1
  H  H13  1  0.45834688  0.31740002  0.61093564  1
  H  H14  1  0.31740002  0.85905314  0.44426864  1
  H  H15  1  0.54165312  0.85905314  0.72239836  1
  H  H16  1  0.85905314  0.54165312  0.27760164  1
  H  H17  1  0.54165312  0.68259998  0.11093564  1
  H  H18  1  0.14094686  0.68259998  0.05573136  1
  H  H19  1  0.45834688  0.14094686  0.22239836  1
  H  H20  1  0.14094686  0.45834688  0.77760164  1
  H  H21  1  0.85905314  0.31740002  0.55573136  1
  H  H22  1  0.31740002  0.45834688  0.38906436  1
  H  H23  1  0.68259998  0.54165312  0.88906436  1
  O  O0  1  0.61192477  0.92990078  0.62065536  1
  O  O1  1  0.31797600  0.38807523  0.28732236  1
  O  O2  1  0.38807523  0.07009922  0.12065536  1
  O  O3  1  0.68202400  0.07009922  0.04601164  1
  O  O4  1  0.07009922  0.68202400  0.95398836  1
  O  O5  1  0.68202400  0.61192477  0.78732236  1
  O  O6  1  0.92990078  0.61192477  0.37934464  1
  O  O7  1  0.31797600  0.92990078  0.54601164  1
  O  O8  1  0.92990078  0.31797600  0.45398836  1
  O  O9  1  0.07009922  0.38807523  0.87934464  1
  O  O10  1  0.38807523  0.31797600  0.71267764  1
  O  O11  1  0.61192477  0.68202400  0.21267764  1
  O  O12  1  0.70615117  0.19782771  0.88904841  1
  O  O13  1  0.49167654  0.29384883  0.55571541  1
  O  O14  1  0.29384883  0.80217229  0.38904841  1
  O  O15  1  0.50832346  0.80217229  0.77761859  1
  O  O16  1  0.80217229  0.50832346  0.22238141  1
  O  O17  1  0.50832346  0.70615117  0.05571541  1
  O  O18  1  0.19782771  0.70615117  0.11095159  1
  O  O19  1  0.49167654  0.19782771  0.27761859  1
  O  O20  1  0.19782771  0.49167654  0.72238141  1
  O  O21  1  0.80217229  0.29384883  0.61095159  1
  O  O22  1  0.29384883  0.49167654  0.44428459  1
  O  O23  1  0.70615117  0.50832346  0.94428459  1
  O  O24  1  0.86569318  0.86569318  -0.00000000  1
  O  O25  1  0.00000000  0.13430682  0.66666700  1
  O  O26  1  0.13430682  0.13430682  0.50000000  1
  O  O27  1  0.13430682  0.00000000  0.33333300  1
  O  O28  1  1.00000000  0.86569318  0.16666700  1
  O  O29  1  0.86569318  1.00000000  0.83333300  1
  O  O30  1  0.38068259  0.51854169  0.87627130  1
  O  O31  1  0.13785909  0.61931741  0.54293830  1
  O  O32  1  0.61931741  0.48145831  0.37627130  1
  O  O33  1  0.86214091  0.48145831  0.79039570  1
  O  O34  1  0.48145831  0.86214091  0.20960430  1
  O  O35  1  0.86214091  0.38068259  0.04293830  1
  O  O36  1  0.51854169  0.38068259  0.12372870  1
  O  O37  1  0.13785909  0.51854169  0.29039570  1
  O  O38  1  0.51854169  0.13785909  0.70960430  1
  O  O39  1  0.48145831  0.61931741  0.62372870  1
  O  O40  1  0.61931741  0.13785909  0.45706170  1
  O  O41  1  0.38068259  0.86214091  0.95706170  1
  O  O42  1  0.57969688  0.76322519  0.48754425  1
  O  O43  1  0.18352832  0.42030312  0.15421125  1
  O  O44  1  0.42030312  0.23677481  0.98754425  1
  O  O45  1  0.81647168  0.23677481  0.17912275  1
  O  O46  1  0.23677481  0.81647168  0.82087725  1
  O  O47  1  0.81647168  0.57969688  0.65421125  1
  O  O48  1  0.76322519  0.57969688  0.51245575  1
  O  O49  1  0.18352832  0.76322519  0.67912275  1
  O  O50  1  0.76322519  0.18352832  0.32087725  1
  O  O51  1  0.23677481  0.42030312  0.01245575  1
  O  O52  1  0.42030312  0.18352832  0.84578875  1
  O  O53  1  0.57969688  0.81647168  0.34578875  1
  O  O54  1  0.78474311  0.80436833  0.60045805  1
  O  O55  1  0.01962522  0.21525689  0.26712505  1
  O  O56  1  0.21525689  0.19563167  0.10045805  1
  O  O57  1  0.98037478  0.19563167  0.06620895  1
  O  O58  1  0.19563167  0.98037478  0.93379105  1
  O  O59  1  0.98037478  0.78474311  0.76712505  1
  O  O60  1  0.80436833  0.78474311  0.39954195  1
  O  O61  1  0.01962522  0.80436833  0.56620895  1
  O  O62  1  0.80436833  0.01962522  0.43379105  1
  O  O63  1  0.19563167  0.21525689  0.89954195  1
  O  O64  1  0.21525689  0.01962522  0.73287495  1
  O  O65  1  0.78474311  0.98037478  0.23287495  1
loop_
_geom_bond_atom_site_label_1
_geom_bond_atom_site_label_2
_geom_bond_distance
_geom_bond_site_symmetry_2
Na0 O21 2.427171 1_555
Na0 O12 2.427171 1_555
Na0 O29 2.547365 1_545
Na0 O25 2.547365 1_655
Na0 O33 2.604610 1_555
Na0 O38 2.604610 1_555
Na1 O13 2.427171 1_555
Na1 O19 2.427171 1_555
Na1 O26 2.547365 1_555
Na1 O27 2.547373 1_555
Na1 O40 2.604606 1_555
Na1 O32 2.604610 1_555
Na2 O14 2.427171 1_555
Na2 O18 2.427171 1_555
Na2 O27 2.547365 1_565
Na2 O28 2.547365 1_455
Na2 O37 2.604610 1_555
Na2 O34 2.604610 1_555
Na3 O17 2.427171 1_556
Na3 O15 2.427171 1_555
Na3 O24 2.547365 1_556
Na3 O29 2.547373 1_555
Na3 O41 2.604606 1_555
Na3 O30 2.604610 1_555
Na4 O23 2.427171 1_554
Na4 O16 2.427171 1_555
Na4 O24 2.547365 1_555
Na4 O28 2.547373 1_555
Na4 O35 2.604606 1_555
Na4 O36 2.604610 1_555
Na5 O22 2.427171 1_555
Na5 O20 2.427171 1_555
Na5 O26 2.547365 1_555
Na5 O25 2.547373 1_555
Na5 O31 2.604606 1_555
Na5 O39 2.604610 1_555
Co0 O30 2.087852 1_555
Co0 O39 2.087852 1_555
Co0 O5 2.105131 1_555
Co0 O10 2.105131 1_555
Co0 O15 2.182582 1_555
Co0 O20 2.182582 1_555
Co1 O37 2.087852 1_555
Co1 O31 2.087852 1_555
Co1 O8 2.105127 1_455
Co1 O6 2.105131 1_455
Co1 O22 2.182579 1_555
Co1 O14 2.182582 1_555
Co2 O32 2.087852 1_555
Co2 O36 2.087852 1_555
Co2 O11 2.105131 1_555
Co2 O1 2.105131 1_555
Co2 O16 2.182582 1_555
Co2 O19 2.182582 1_555
Co3 O33 2.087852 1_555
Co3 O35 2.087852 1_556
Co3 O4 2.105127 1_655
Co3 O9 2.105131 1_655
Co3 O23 2.182579 1_555
Co3 O12 2.182582 1_555
Co4 O34 2.087852 1_555
Co4 O41 2.087852 1_554
Co4 O3 2.105127 1_565
Co4 O2 2.105131 1_565
Co4 O17 2.182579 1_555
Co4 O18 2.182582 1_555
Co5 O38 2.087852 1_555
Co5 O40 2.087852 1_555
Co5 O7 2.105127 1_545
Co5 O0 2.105131 1_545
Co5 O13 2.182579 1_555
Co5 O21 2.182582 1_555
B0 O59 1.458281 1_455
B0 O64 1.458281 1_565
B0 O49 1.503004 1_555
B0 O46 1.503004 1_555
B1 O62 1.458278 1_565
B1 O60 1.458281 1_555
B1 O42 1.503004 1_555
B1 O53 1.503016 1_555
B2 O65 1.458281 1_545
B2 O55 1.458281 1_655
B2 O50 1.503004 1_555
B2 O45 1.503004 1_555
B3 O58 1.458278 1_545
B3 O63 1.458281 1_555
B3 O44 1.503004 1_555
B3 O52 1.503016 1_555
B4 O57 1.458278 1_455
B4 O56 1.458281 1_555
B4 O51 1.503004 1_555
B4 O43 1.503016 1_555
B5 O61 1.458278 1_655
B5 O54 1.458281 1_555
B5 O48 1.503004 1_555
B5 O47 1.503016 1_555
H0 O21 0.997155 1_555
H1 O19 0.997155 1_555
H2 O18 0.997155 1_555
H3 O17 0.997155 1_555
H4 O23 0.997155 1_555
H5 O15 0.997155 1_555
H6 O14 0.997155 1_555
H7 O13 0.997155 1_555
H8 O22 0.997155 1_555
H9 O12 0.997155 1_555
H10 O20 0.997155 1_555
H11 O16 0.997155 1_555
H12 O12 0.999458 1_555
H13 O13 0.999458 1_555
H14 O14 0.999458 1_555
H15 O15 0.999458 1_555
H16 O16 0.999458 1_555
H17 O17 0.999458 1_555
H18 O18 0.999458 1_555
H19 O19 0.999458 1_555
H20 O20 0.999458 1_555
H21 O21 0.999458 1_555
H22 O22 0.999458 1_555
H23 O23 0.999458 1_555
O0 P0 1.533739 1_555
O1 P1 1.533739 1_555
O2 P2 1.533739 1_555
O3 P3 1.533739 1_555
O4 P4 1.533739 1_555
O5 P5 1.533739 1_555
O6 P6 1.533739 1_555
O7 P7 1.533739 1_555
O8 P8 1.533739 1_555
O9 P9 1.533739 1_555
O10 P10 1.533739 1_555
O11 P11 1.533739 1_555
O30 P9 1.532506 1_555
O31 P7 1.532506 1_555
O32 P6 1.532506 1_555
O33 P5 1.532506 1_555
O34 P11 1.532506 1_555
O35 P3 1.532506 1_555
O36 P2 1.532506 1_555
O37 P1 1.532506 1_555
O38 P10 1.532506 1_555
O39 P0 1.532506 1_555
O40 P8 1.532506 1_555
O41 P4 1.532506 1_555
O42 P0 1.587482 1_555
O43 P1 1.587482 1_555
O44 P2 1.587482 1_556
O45 P3 1.587482 1_555
O46 P4 1.587482 1_555
O47 P5 1.587482 1_555
O48 P6 1.587482 1_555
O49 P7 1.587482 1_555
O50 P8 1.587482 1_555
O51 P9 1.587482 1_554
O52 P10 1.587482 1_555
O53 P11 1.587482 1_555
O54 P0 1.560678 1_555
O55 P1 1.560678 1_555
O56 P2 1.560678 1_555
O57 P3 1.560678 1_555
O58 P4 1.560678 1_555
O59 P5 1.560678 1_555
O60 P6 1.560678 1_555
O61 P7 1.560678 1_555
O62 P8 1.560678 1_555
O63 P9 1.560678 1_555
O64 P10 1.560678 1_555
O65 P11 1.560678 1_555
