# generated using pymatgen
data_Th3Hg
_symmetry_space_group_name_H-M   'P 1'
_cell_length_a   6.09953501
_cell_length_b   6.09953501
_cell_length_c   6.09953501
_cell_angle_alpha   132.96856306
_cell_angle_beta   132.96856306
_cell_angle_gamma   68.70352193
_symmetry_Int_Tables_number   1
_chemical_formula_structural   Th3Hg
_chemical_formula_sum   'Th3 Hg1'
_cell_volume   119.30569887
_cell_formula_units_Z   1
loop_
 _symmetry_equiv_pos_site_id
 _symmetry_equiv_pos_as_xyz
  1  'x, y, z'
loop_
 _atom_site_type_symbol
 _atom_site_label
 _atom_site_symmetry_multiplicity
 _atom_site_fract_x
 _atom_site_fract_y
 _atom_site_fract_z
 _atom_site_occupancy
  Th  Th0  1  0.75000000  0.25000000  0.50000000  1
  Th  Th1  1  0.25000000  0.75000000  0.50000000  1
  Th  Th2  1  0.50000000  0.50000000  0.00000000  1
  Hg  Hg0  1  0.00000000  -0.00000000  0.00000000  1
loop_
_geom_bond_atom_site_label_1
_geom_bond_atom_site_label_2
_geom_bond_distance
_geom_bond_site_symmetry_2
Th0 Th1 3.441798 1_645
Th0 Th1 3.441798 1_544
Th0 Th1 3.441798 1_555
Th0 Th1 3.441798 1_656
Th0 Th2 3.501796 1_656
Th0 Th2 3.501796 1_545
Th0 Th2 3.501796 1_555
Th0 Th2 3.501796 1_556
Th1 Th2 3.501796 1_566
Th1 Th2 3.501796 1_555
Th1 Th2 3.501796 1_556
Th1 Th2 3.501796 1_455
Hg0 Th2 3.441798 1_444
Hg0 Th2 3.441798 1_545
Hg0 Th2 3.441798 1_556
Hg0 Th2 3.441798 1_455
Hg0 Th1 3.501796 1_544
Hg0 Th1 3.501796 1_444
Hg0 Th1 3.501796 1_555
Hg0 Th1 3.501796 1_545
Hg0 Th0 3.501796 1_455
Hg0 Th0 3.501796 1_444
Hg0 Th0 3.501796 1_454
Hg0 Th0 3.501796 1_555
