# generated using pymatgen
data_KSmHf4O12
_symmetry_space_group_name_H-M   'P 1'
_cell_length_a   5.78293655
_cell_length_b   5.78293655
_cell_length_c   8.23992536
_cell_angle_alpha   90.00000000
_cell_angle_beta   90.00000000
_cell_angle_gamma   90.74732548
_symmetry_Int_Tables_number   1
_chemical_formula_structural   KSmHf4O12
_chemical_formula_sum   'K1 Sm1 Hf4 O12'
_cell_volume   275.53907014
_cell_formula_units_Z   1
loop_
 _symmetry_equiv_pos_site_id
 _symmetry_equiv_pos_as_xyz
  1  'x, y, z'
loop_
 _atom_site_type_symbol
 _atom_site_label
 _atom_site_symmetry_multiplicity
 _atom_site_fract_x
 _atom_site_fract_y
 _atom_site_fract_z
 _atom_site_occupancy
  K  K0  1  0.98057437  0.01942563  -0.00000000  1
  Sm  Sm0  1  0.52430460  0.47569540  0.50000000  1
  Hf  Hf0  1  0.49273222  0.99066803  0.24582479  1
  Hf  Hf1  1  0.49273222  0.99066803  0.75417521  1
  Hf  Hf2  1  0.00933197  0.50726778  0.75417521  1
  Hf  Hf3  1  0.00933197  0.50726778  0.24582479  1
  O  O0  1  0.23513406  0.23496792  0.26878259  1
  O  O1  1  0.76503208  0.76486594  0.26878259  1
  O  O2  1  0.76503208  0.76486594  0.73121741  1
  O  O3  1  0.23513406  0.23496792  0.73121741  1
  O  O4  1  0.29258704  0.70741296  0.30910337  1
  O  O5  1  0.72347066  0.27652934  0.25443428  1
  O  O6  1  0.72347066  0.27652934  0.74556572  1
  O  O7  1  0.29258704  0.70741296  0.69089663  1
  O  O8  1  0.47567205  0.98204389  -0.00000000  1
  O  O9  1  0.51528361  0.06476680  0.50000000  1
  O  O10  1  0.01795611  0.52432795  -0.00000000  1
  O  O11  1  0.93523320  0.48471639  0.50000000  1
loop_
_geom_bond_atom_site_label_1
_geom_bond_atom_site_label_2
_geom_bond_distance
_geom_bond_site_symmetry_2
K0 O8 2.874078 1_645
K0 O10 2.874078 1_645
K0 O8 2.924997 1_545
K0 O10 2.924997 1_655
K0 O3 2.928824 1_654
K0 O0 2.928824 1_655
K0 O2 2.928824 1_544
K0 O1 2.928824 1_545
K0 O5 2.978975 1_555
K0 O6 2.978975 1_554
Hf0 O8 2.028561 1_555
Hf0 O4 2.060399 1_555
Hf0 O1 2.067412 1_555
Hf0 O0 2.075026 1_565
Hf0 O5 2.112053 1_565
Hf0 O9 2.141405 1_565
Hf1 O8 2.028561 1_556
Hf1 O7 2.060399 1_555
Hf1 O2 2.067412 1_555
Hf1 O3 2.075026 1_565
Hf1 O6 2.112053 1_565
Hf1 O9 2.141405 1_565
Hf2 O10 2.028561 1_556
Hf2 O7 2.060399 1_555
Hf2 O3 2.067412 1_555
Hf2 O2 2.075026 1_455
Hf2 O6 2.112053 1_455
Hf2 O11 2.141405 1_455
Hf3 O10 2.028561 1_555
Hf3 O4 2.060399 1_555
Hf3 O0 2.067412 1_555
Hf3 O1 2.075026 1_455
Hf3 O5 2.112053 1_455
Hf3 O11 2.141405 1_455
O0 Sm0 2.881584 1_555
O1 Sm0 2.881584 1_555
O2 Sm0 2.881584 1_555
O3 Sm0 2.881584 1_555
O4 Sm0 2.472313 1_555
O5 Sm0 2.604237 1_555
O6 Sm0 2.604237 1_555
O7 Sm0 2.472313 1_555
O9 Sm0 2.376266 1_555
O11 Sm0 2.376266 1_555
