# generated using pymatgen
data_Zr4Fe4Si7
_symmetry_space_group_name_H-M   'P 1'
_cell_length_a   9.59050315
_cell_length_b   9.59050724
_cell_length_c   9.59120783
_cell_angle_alpha   93.87038970
_cell_angle_beta   93.87031086
_cell_angle_gamma   149.88040274
_symmetry_Int_Tables_number   1
_chemical_formula_structural   Zr4Fe4Si7
_chemical_formula_sum   'Zr8 Fe8 Si14'
_cell_volume   427.48402978
_cell_formula_units_Z   2
loop_
 _symmetry_equiv_pos_site_id
 _symmetry_equiv_pos_as_xyz
  1  'x, y, z'
loop_
 _atom_site_type_symbol
 _atom_site_label
 _atom_site_symmetry_multiplicity
 _atom_site_fract_x
 _atom_site_fract_y
 _atom_site_fract_z
 _atom_site_occupancy
  Zr  Zr0  1  0.69668155  0.50001158  0.19665658  1
  Zr  Zr1  1  0.49999903  0.69665966  0.19661902  1
  Zr  Zr2  1  0.49999377  0.30331474  0.80334790  1
  Zr  Zr3  1  0.30333833  0.50000944  0.80338455  1
  Zr  Zr4  1  0.86236063  0.86236344  0.72476033  1
  Zr  Zr5  1  0.13762708  0.86237494  0.00000296  1
  Zr  Zr6  1  0.86237782  0.13762518  0.00000274  1
  Zr  Zr7  1  0.13763054  0.13763311  0.27522662  1
  Fe  Fe0  1  0.10238329  0.89762359  0.50000585  1
  Fe  Fe1  1  0.89760137  0.39763947  0.79528460  1
  Fe  Fe2  1  0.60236021  0.10239807  0.20471235  1
  Fe  Fe3  1  0.10236405  0.60237087  0.20471273  1
  Fe  Fe4  1  0.60238628  0.39761698  0.50000546  1
  Fe  Fe5  1  0.39762807  0.89763491  0.79528422  1
  Fe  Fe6  1  0.89763402  0.10237217  0.50000539  1
  Fe  Fe7  1  0.39762684  0.60237622  0.50000532  1
  Si  Si0  1  0.74976681  0.74976347  -0.00000295  1
  Si  Si1  1  0.25023803  0.25023496  0.00000672  1
  Si  Si2  1  0.09054872  0.50002466  0.59056494  1
  Si  Si3  1  0.50004538  0.09055948  0.59054511  1
  Si  Si4  1  0.49996576  0.90944263  0.40942155  1
  Si  Si5  1  0.90943458  0.49994951  0.40944418  1
  Si  Si6  1  0.70101869  0.00000748  0.70102761  1
  Si  Si7  1  -0.00001874  0.70098893  0.70100303  1
  Si  Si8  1  0.71040366  0.71039906  0.42088357  1
  Si  Si9  1  0.28955419  0.71044991  0.00000397  1
  Si  Si10  1  0.29900793  0.00002288  0.29899974  1
  Si  Si11  1  0.71044494  0.28955975  0.00000479  1
  Si  Si12  1  0.28959790  0.28959317  0.57910389  1
  Si  Si13  1  0.00000026  0.29898275  0.29897622  1
loop_
_geom_bond_atom_site_label_1
_geom_bond_atom_site_label_2
_geom_bond_distance
_geom_bond_site_symmetry_2
Fe0 Si12 2.384417 1_565
Fe0 Si8 2.384480 1_455
Fe0 Si7 2.404097 1_555
Fe0 Si10 2.404130 1_565
Fe0 Si3 2.418834 1_565
Fe0 Si5 2.418904 1_455
Fe0 Fe4 2.491864 1_565
Fe0 Fe4 2.491880 1_455
Fe0 Zr2 3.074300 1_565
Fe0 Zr0 3.074368 1_455
Fe0 Zr4 3.079255 1_455
Fe0 Zr7 3.079410 1_565
Fe1 Si11 2.384006 1_556
Fe1 Si9 2.384350 1_656
Fe1 Si7 2.403951 1_655
Fe1 Si6 2.404393 1_555
Fe1 Si3 2.418635 1_555
Fe1 Si2 2.418919 1_655
Fe1 Fe5 2.491816 1_545
Fe1 Fe5 2.491929 1_655
Fe1 Zr2 3.073583 1_555
Fe1 Zr3 3.074316 1_655
Fe1 Zr5 3.078749 1_656
Fe1 Zr6 3.079131 1_556
Fe2 Si11 2.383911 1_555
Fe2 Si9 2.384270 1_545
Fe2 Si10 2.404028 1_555
Fe2 Si13 2.404463 1_655
Fe2 Si5 2.418579 1_555
Fe2 Si4 2.418849 1_545
Fe2 Fe3 2.491813 1_655
Fe2 Fe3 2.491932 1_545
Fe2 Zr0 3.073657 1_555
Fe2 Zr1 3.074403 1_545
Fe2 Zr5 3.078704 1_545
Fe2 Zr6 3.079077 1_555
Fe3 Si9 2.384047 1_555
Fe3 Si11 2.384139 1_455
Fe3 Si10 2.404265 1_565
Fe3 Si13 2.404289 1_555
Fe3 Si4 2.418673 1_555
Fe3 Si5 2.418869 1_455
Fe3 Zr0 3.073914 1_455
Fe3 Zr1 3.074148 1_555
Fe3 Zr5 3.078794 1_555
Fe3 Zr6 3.078992 1_455
Fe4 Si12 2.384240 1_555
Fe4 Si8 2.384324 1_555
Fe4 Si7 2.404031 1_655
Fe4 Si10 2.404061 1_555
Fe4 Si3 2.418591 1_555
Fe4 Si5 2.418657 1_555
Fe4 Zr2 3.074328 1_555
Fe4 Zr0 3.074386 1_555
Fe4 Zr4 3.079283 1_555
Fe4 Zr7 3.079427 1_555
Fe5 Si9 2.384131 1_556
Fe5 Si11 2.384231 1_566
Fe5 Si7 2.404196 1_555
Fe5 Si6 2.404224 1_565
Fe5 Si2 2.418759 1_555
Fe5 Si3 2.418922 1_565
Fe5 Zr2 3.073837 1_565
Fe5 Zr3 3.074061 1_555
Fe5 Zr5 3.078845 1_556
Fe5 Zr6 3.079040 1_566
Fe6 Si12 2.384329 1_655
Fe6 Si8 2.384389 1_545
Fe6 Si6 2.404295 1_555
Fe6 Si13 2.404330 1_655
Fe6 Si2 2.418919 1_655
Fe6 Si4 2.419011 1_545
Fe6 Fe7 2.491865 1_655
Fe6 Fe7 2.491880 1_545
Fe6 Zr3 3.074613 1_655
Fe6 Zr1 3.074676 1_545
Fe6 Zr4 3.079106 1_545
Fe6 Zr7 3.079253 1_655
Fe7 Si12 2.384165 1_555
Fe7 Si8 2.384242 1_555
Fe7 Si6 2.404304 1_565
Fe7 Si13 2.404319 1_555
Fe7 Si2 2.418791 1_555
Fe7 Si4 2.418877 1_555
Fe7 Zr3 3.074634 1_555
Fe7 Zr1 3.074703 1_555
Fe7 Zr4 3.079138 1_555
Fe7 Zr7 3.079283 1_555
Si0 Si1 2.489547 1_555
Si0 Si1 2.494197 1_665
Si0 Zr5 2.837820 1_655
Si0 Zr6 2.837839 1_565
Si0 Zr4 2.837849 1_554
Si0 Zr7 2.837924 1_665
Si0 Zr1 2.860546 1_555
Si0 Zr3 2.860674 1_554
Si0 Zr0 2.860789 1_555
Si0 Zr2 2.860901 1_554
Si1 Zr7 2.837708 1_555
Si1 Zr5 2.837825 1_545
Si1 Zr6 2.837833 1_455
Si1 Zr4 2.838063 1_444
Si1 Zr3 2.860613 1_554
Si1 Zr1 2.860614 1_555
Si1 Zr2 2.860834 1_554
Si1 Zr0 2.860850 1_555
Si2 Si5 2.371742 1_455
Si2 Zr3 2.787364 1_555
Si3 Si4 2.371747 1_545
Si3 Zr2 2.787266 1_555
Si4 Zr1 2.787326 1_555
Si5 Zr0 2.787222 1_555
Si6 Zr4 2.777656 1_545
Si6 Zr6 2.777796 1_556
Si6 Zr3 2.829443 1_655
Si6 Zr3 2.829558 1_545
Si7 Zr4 2.777759 1_455
Si7 Zr5 2.778024 1_556
Si7 Zr2 2.829442 1_455
Si7 Zr2 2.829456 1_565
Si8 Zr0 2.762292 1_555
Si8 Zr1 2.762554 1_555
Si8 Zr4 2.814479 1_555
Si8 Zr7 2.833389 1_555
Si8 Zr7 2.833848 1_665
Si9 Zr3 2.761964 1_554
Si9 Zr1 2.762012 1_555
Si9 Zr5 2.814011 1_555
Si9 Zr6 2.833525 1_565
Si9 Zr6 2.833527 1_455
Si10 Zr7 2.777701 1_555
Si10 Zr5 2.777990 1_545
Si10 Zr0 2.829442 1_555
Si10 Zr0 2.829457 1_445
Si11 Zr2 2.762066 1_554
Si11 Zr0 2.762096 1_555
Si11 Zr6 2.814153 1_555
Si11 Zr5 2.833458 1_655
Si11 Zr5 2.833460 1_545
Si12 Zr2 2.762466 1_555
Si12 Zr3 2.762729 1_555
Si12 Zr7 2.814484 1_555
Si12 Zr4 2.833375 1_555
Si12 Zr4 2.833858 1_445
Si13 Zr7 2.777613 1_555
Si13 Zr6 2.777776 1_455
Si13 Zr1 2.829463 1_445
Si13 Zr1 2.829565 1_555
