# generated using pymatgen
data_YHoCo4
_symmetry_space_group_name_H-M   'P 1'
_cell_length_a   5.05301985
_cell_length_b   5.05301581
_cell_length_c   5.05301962
_cell_angle_alpha   59.99979951
_cell_angle_beta   59.99985131
_cell_angle_gamma   59.99976887
_symmetry_Int_Tables_number   1
_chemical_formula_structural   YHoCo4
_chemical_formula_sum   'Y1 Ho1 Co4'
_cell_volume   91.22959427
_cell_formula_units_Z   1
loop_
 _symmetry_equiv_pos_site_id
 _symmetry_equiv_pos_as_xyz
  1  'x, y, z'
loop_
 _atom_site_type_symbol
 _atom_site_label
 _atom_site_symmetry_multiplicity
 _atom_site_fract_x
 _atom_site_fract_y
 _atom_site_fract_z
 _atom_site_occupancy
  Y  Y0  1  0.99999648  0.00000201  0.00000102  1
  Ho  Ho0  1  0.25000268  0.24999788  0.24999924  1
  Co  Co0  1  0.62485015  0.62485027  0.12545023  1
  Co  Co1  1  0.62485019  0.12545033  0.62485018  1
  Co  Co2  1  0.12545126  0.62485019  0.62485011  1
  Co  Co3  1  0.62485023  0.62485032  0.62485022  1
loop_
_geom_bond_atom_site_label_1
_geom_bond_atom_site_label_2
_geom_bond_distance
_geom_bond_site_symmetry_2
Ho0 Y0 3.094297 1_555
Ho0 Y0 3.094331 1_456
Ho0 Y0 3.094335 1_455
Ho0 Y0 3.094336 1_465
Co0 Co1 2.523469 1_555
Co0 Co2 2.523469 1_555
Co0 Co3 2.523478 1_555
Co0 Co1 2.529533 1_564
Co0 Co2 2.529539 1_654
Co0 Co3 2.529541 1_554
Co0 Ho0 2.962252 1_565
Co0 Ho0 2.962275 1_655
Co0 Ho0 2.962275 1_555
Co0 Y0 2.962902 1_555
Co0 Y0 2.962913 1_565
Co0 Y0 2.962927 1_465
Co1 Co2 2.523465 1_555
Co1 Co3 2.523476 1_555
Co1 Co2 2.529535 1_645
Co1 Co3 2.529540 1_545
Co1 Ho0 2.962259 1_556
Co1 Ho0 2.962272 1_555
Co1 Ho0 2.962275 1_655
Co1 Y0 2.962908 1_555
Co1 Y0 2.962911 1_556
Co1 Y0 2.962928 1_456
Co2 Co3 2.523474 1_555
Co2 Co3 2.529546 1_455
Co2 Ho0 2.962259 1_565
Co2 Ho0 2.962266 1_556
Co2 Ho0 2.962284 1_555
Co2 Y0 2.962915 1_456
Co2 Y0 2.962919 1_465
Co2 Y0 2.962921 1_466
Co3 Ho0 2.962253 1_565
Co3 Ho0 2.962264 1_556
Co3 Ho0 2.962277 1_655
Co3 Y0 2.962898 1_556
Co3 Y0 2.962906 1_565
Co3 Y0 2.962924 1_466
