# generated using pymatgen
data_NiIr3
_symmetry_space_group_name_H-M   'P 1'
_cell_length_a   4.63966161
_cell_length_b   4.63966161
_cell_length_c   4.63966161
_cell_angle_alpha   132.16676221
_cell_angle_beta   132.16676221
_cell_angle_gamma   69.96577130
_symmetry_Int_Tables_number   1
_chemical_formula_structural   NiIr3
_chemical_formula_sum   'Ni1 Ir3'
_cell_volume   53.79676919
_cell_formula_units_Z   1
loop_
 _symmetry_equiv_pos_site_id
 _symmetry_equiv_pos_as_xyz
  1  'x, y, z'
loop_
 _atom_site_type_symbol
 _atom_site_label
 _atom_site_symmetry_multiplicity
 _atom_site_fract_x
 _atom_site_fract_y
 _atom_site_fract_z
 _atom_site_occupancy
  Ni  Ni0  1  -0.00000000  -0.00000000  -0.00000000  1
  Ir  Ir0  1  0.75000000  0.25000000  0.50000000  1
  Ir  Ir1  1  0.25000000  0.75000000  0.50000000  1
  Ir  Ir2  1  0.50000000  0.50000000  -0.00000000  1
loop_
_geom_bond_atom_site_label_1
_geom_bond_atom_site_label_2
_geom_bond_distance
_geom_bond_site_symmetry_2
Ir0 Ir1 2.660065 1_645
Ir0 Ir1 2.660065 1_656
Ir0 Ir1 2.660065 1_544
Ir0 Ir1 2.660065 1_555
Ir0 Ir2 2.674061 1_555
Ir0 Ni0 2.674061 1_666
Ir0 Ni0 2.674061 1_655
Ir0 Ir2 2.674061 1_556
Ir0 Ni0 2.674061 1_555
Ir0 Ni0 2.674061 1_656
Ir0 Ir2 2.674061 1_656
Ir0 Ir2 2.674061 1_545
Ir1 Ir2 2.674061 1_555
Ir1 Ni0 2.674061 1_565
Ir1 Ni0 2.674061 1_666
Ir1 Ir2 2.674061 1_556
Ir1 Ni0 2.674061 1_566
Ir1 Ir2 2.674061 1_455
Ir1 Ni0 2.674061 1_555
Ir1 Ir2 2.674061 1_566
Ir2 Ni0 2.660065 1_565
Ir2 Ni0 2.660065 1_554
Ir2 Ni0 2.660065 1_666
Ir2 Ni0 2.660065 1_655
