# generated using pymatgen
data_Zn(InAu4)3
_symmetry_space_group_name_H-M   'P 1'
_cell_length_a   4.76763200
_cell_length_b   5.34355600
_cell_length_c   11.73073900
_cell_angle_alpha   90.00000000
_cell_angle_beta   90.00000000
_cell_angle_gamma   90.00000000
_symmetry_Int_Tables_number   1
_chemical_formula_structural   Zn(InAu4)3
_chemical_formula_sum   'Zn1 In3 Au12'
_cell_volume   298.85358048
_cell_formula_units_Z   1
loop_
 _symmetry_equiv_pos_site_id
 _symmetry_equiv_pos_as_xyz
  1  'x, y, z'
loop_
 _atom_site_type_symbol
 _atom_site_label
 _atom_site_symmetry_multiplicity
 _atom_site_fract_x
 _atom_site_fract_y
 _atom_site_fract_z
 _atom_site_occupancy
  Zn  Zn0  1  0.50000000  0.66808600  0.00000000  1
  In  In0  1  0.50000000  0.66580200  0.50000000  1
  In  In1  1  0.00000000  0.33351600  0.75143500  1
  In  In2  1  0.00000000  0.33351600  0.24856500  1
  Au  Au0  1  0.00000000  0.34507300  0.00000000  1
  Au  Au1  1  0.00000000  0.33502100  0.50000000  1
  Au  Au2  1  0.50000000  0.66616000  0.75614000  1
  Au  Au3  1  0.50000000  0.66616000  0.24386000  1
  Au  Au4  1  0.50000000  0.16485000  0.12259800  1
  Au  Au5  1  0.50000000  0.16419000  0.62715800  1
  Au  Au6  1  0.50000000  0.16485000  0.87740200  1
  Au  Au7  1  0.50000000  0.16419000  0.37284200  1
  Au  Au8  1  0.00000000  0.82950500  0.12033500  1
  Au  Au9  1  0.00000000  0.83478900  0.62572000  1
  Au  Au10  1  0.00000000  0.82950500  0.87966500  1
  Au  Au11  1  0.00000000  0.83478900  0.37428000  1
loop_
_geom_bond_atom_site_label_1
_geom_bond_atom_site_label_2
_geom_bond_distance
_geom_bond_site_symmetry_2
Au0 In2 2.916505 1_555
Au0 In1 2.916505 1_554
Au0 Zn0 2.943091 1_555
Au0 Zn0 2.943091 1_455
Au0 Au4 2.945900 1_555
Au0 Au6 2.945900 1_554
Au0 Au4 2.945900 1_455
Au0 Au6 2.945900 1_454
Au0 Au8 2.948468 1_555
Au0 Au10 2.948468 1_554
Au0 Au8 3.095562 1_545
Au0 Au10 3.095562 1_544
Au1 In2 2.949529 1_555
Au1 In1 2.949529 1_555
Au1 Au7 2.956502 1_555
Au1 Au7 2.956502 1_455
Au1 Au5 2.956502 1_455
Au1 Au5 2.956502 1_555
Au1 In0 2.967625 1_455
Au1 In0 2.967625 1_555
Au1 Au11 3.050701 1_555
Au1 Au9 3.050701 1_555
Au1 Au11 3.052872 1_545
Au1 Au9 3.052872 1_545
Au2 Zn0 2.860677 1_556
Au2 Au9 2.972404 1_555
Au2 Au9 2.972404 1_655
Au2 In1 2.974078 1_655
Au2 In1 2.974078 1_555
Au2 In0 3.004712 1_555
Au2 Au6 3.020683 1_565
Au2 Au6 3.033041 1_555
Au2 Au5 3.061305 1_565
Au2 Au5 3.079625 1_555
Au3 Zn0 2.860677 1_555
Au3 Au8 2.923038 1_555
Au3 Au8 2.923038 1_655
Au3 In2 2.974078 1_555
Au3 In2 2.974078 1_655
Au3 In0 3.004712 1_555
Au3 Au4 3.020683 1_565
Au3 Au4 3.033041 1_555
Au3 Au7 3.061305 1_565
Au3 Au7 3.079625 1_555
Au4 Au6 2.876330 1_554
Au4 Au7 2.935549 1_555
Au4 In2 2.945918 1_655
Au4 In2 2.945918 1_555
Au4 Au8 2.982334 1_645
Au4 Au8 2.982334 1_545
Au4 Zn0 3.019042 1_545
Au4 Zn0 3.049494 1_555
Au5 Au6 2.935549 1_555
Au5 In1 2.937108 1_655
Au5 In1 2.937108 1_555
Au5 Au9 2.963287 1_645
Au5 Au9 2.963287 1_545
Au5 Au7 2.983315 1_555
Au5 In0 3.052456 1_545
Au5 In0 3.067498 1_555
Au6 In1 2.945918 1_655
Au6 In1 2.945918 1_555
Au6 Zn0 3.019042 1_546
Au6 Zn0 3.049494 1_556
Au7 In2 2.937108 1_655
Au7 In2 2.937108 1_555
Au7 In0 3.052456 1_545
Au7 In0 3.067498 1_555
Au8 Zn0 2.901593 1_455
Au8 Zn0 2.901593 1_555
Au8 In2 3.047465 1_555
Au8 In2 3.084818 1_565
Au9 In0 2.944991 1_555
Au9 In0 2.944991 1_455
Au9 In1 3.045804 1_565
Au9 In1 3.057715 1_555
Au10 Au8 2.823237 1_556
Au10 Zn0 2.901593 1_556
Au10 Zn0 2.901593 1_456
Au10 Au2 2.923038 1_455
Au10 Au2 2.923038 1_555
Au10 Au9 2.979096 1_555
Au10 Au6 2.982334 1_565
Au10 Au6 2.982334 1_465
Au10 In1 3.047465 1_555
Au10 In1 3.084818 1_565
Au11 In0 2.944991 1_455
Au11 In0 2.944991 1_555
Au11 Au9 2.949577 1_555
Au11 Au7 2.963287 1_565
Au11 Au7 2.963287 1_465
Au11 Au3 2.972404 1_455
Au11 Au3 2.972404 1_555
Au11 Au8 2.979096 1_555
Au11 In2 3.045804 1_565
Au11 In2 3.057715 1_555
