# generated using pymatgen
data_Te16Rh9
_symmetry_space_group_name_H-M   'P 1'
_cell_length_a   15.99483331
_cell_length_b   11.95646171
_cell_length_c   8.83471422
_cell_angle_alpha   42.12243849
_cell_angle_beta   47.36104570
_cell_angle_gamma   33.15066203
_symmetry_Int_Tables_number   1
_chemical_formula_structural   Te16Rh9
_chemical_formula_sum   'Te16 Rh9'
_cell_volume   612.32578329
_cell_formula_units_Z   1
loop_
 _symmetry_equiv_pos_site_id
 _symmetry_equiv_pos_as_xyz
  1  'x, y, z'
loop_
 _atom_site_type_symbol
 _atom_site_label
 _atom_site_symmetry_multiplicity
 _atom_site_fract_x
 _atom_site_fract_y
 _atom_site_fract_z
 _atom_site_occupancy
  Te  Te0  1  0.04177000  0.20601200  0.54591400  1
  Te  Te1  1  0.04871700  0.69959700  0.04187600  1
  Te  Te2  1  0.29276000  0.19679400  0.55172200  1
  Te  Te3  1  0.20729900  0.29666300  0.95493000  1
  Te  Te4  1  0.29270100  0.70333700  0.04507000  1
  Te  Te5  1  0.20724000  0.80320600  0.44827800  1
  Te  Te6  1  0.54166200  0.20861600  0.54662700  1
  Te  Te7  1  0.45128300  0.30040300  0.95812400  1
  Te  Te8  1  0.54610000  0.70156500  0.03966500  1
  Te  Te9  1  0.45823000  0.79398800  0.45408600  1
  Te  Te10  1  0.79813700  0.20738100  0.53012700  1
  Te  Te11  1  0.70251300  0.29589800  0.96839400  1
  Te  Te12  1  0.79748700  0.70410200  0.03160600  1
  Te  Te13  1  0.70186300  0.79261900  0.46987300  1
  Te  Te14  1  0.95390000  0.29843500  0.96033500  1
  Te  Te15  1  0.95833800  0.79138400  0.45337300  1
  Rh  Rh0  1  0.24955300  0.24594300  0.25418800  1
  Rh  Rh1  1  0.00663200  0.74998200  0.73558600  1
  Rh  Rh2  1  0.49336800  0.25001800  0.26441400  1
  Rh  Rh3  1  0.75000000  0.00000000  0.00000000  1
  Rh  Rh4  1  0.25044700  0.75405700  0.74581200  1
  Rh  Rh5  1  0.75158000  0.24180500  0.25832400  1
  Rh  Rh6  1  0.49902800  0.74360300  0.75157600  1
  Rh  Rh7  1  0.00097200  0.25639700  0.24842400  1
  Rh  Rh8  1  0.74842000  0.75819500  0.74167600  1
loop_
_geom_bond_atom_site_label_1
_geom_bond_atom_site_label_2
_geom_bond_distance
_geom_bond_site_symmetry_2
Rh0 Te9 2.662279 1_545
Rh0 Te0 2.672671 1_555
Rh0 Te1 2.674455 1_555
Rh0 Te3 2.677788 1_554
Rh0 Te2 2.687413 1_555
Rh0 Te7 2.689720 1_554
Rh1 Te5 2.670701 1_555
Rh1 Te3 2.673914 1_555
Rh1 Te15 2.682562 1_455
Rh1 Te10 2.694574 1_465
Rh1 Te12 2.724601 1_456
Rh1 Te1 2.740227 1_556
Rh1 Rh3 2.839735 1_466
Rh2 Te2 2.670701 1_555
Rh2 Te4 2.673914 1_555
Rh2 Te6 2.682562 1_555
Rh2 Te13 2.694574 1_545
Rh2 Te11 2.724601 1_554
Rh2 Te7 2.740227 1_554
Rh2 Rh3 2.839735 1_555
Rh3 Te11 2.737482 1_554
Rh3 Te12 2.737482 1_545
Rh3 Te1 2.748429 1_645
Rh3 Te7 2.748429 1_554
Rh3 Te13 2.751556 1_545
Rh3 Te10 2.751556 1_554
Rh4 Te0 2.662279 1_565
Rh4 Te9 2.672671 1_555
Rh4 Te7 2.674455 1_555
Rh4 Te4 2.677788 1_556
Rh4 Te5 2.687413 1_555
Rh4 Te1 2.689720 1_556
Rh5 Te10 2.633129 1_555
Rh5 Te11 2.647872 1_554
Rh5 Te15 2.653419 1_545
Rh5 Te6 2.657873 1_555
Rh5 Te14 2.710061 1_554
Rh5 Te8 2.710696 1_555
Rh6 Te11 2.641762 1_555
Rh6 Te9 2.648186 1_555
Rh6 Te4 2.657450 1_556
Rh6 Te2 2.669841 1_565
Rh6 Te13 2.672892 1_555
Rh6 Te8 2.713334 1_556
Rh7 Te12 2.641762 1_455
Rh7 Te0 2.648186 1_555
Rh7 Te3 2.657450 1_554
Rh7 Te5 2.669841 1_545
Rh7 Te10 2.672892 1_455
Rh7 Te14 2.713334 1_454
Rh8 Te13 2.633129 1_555
Rh8 Te12 2.647872 1_556
Rh8 Te6 2.653419 1_565
Rh8 Te15 2.657873 1_555
Rh8 Te8 2.710061 1_556
Rh8 Te14 2.710696 1_555
