# generated using pymatgen
data_MgAg14(PbO3)6
_symmetry_space_group_name_H-M   'P 1'
_cell_length_a   8.93131817
_cell_length_b   8.96756961
_cell_length_c   8.85241483
_cell_angle_alpha   72.74905229
_cell_angle_beta   107.01825118
_cell_angle_gamma   108.50809908
_symmetry_Int_Tables_number   1
_chemical_formula_structural   MgAg14(PbO3)6
_chemical_formula_sum   'Mg1 Ag14 Pb6 O18'
_cell_volume   626.47376094
_cell_formula_units_Z   1
loop_
 _symmetry_equiv_pos_site_id
 _symmetry_equiv_pos_as_xyz
  1  'x, y, z'
loop_
 _atom_site_type_symbol
 _atom_site_label
 _atom_site_symmetry_multiplicity
 _atom_site_fract_x
 _atom_site_fract_y
 _atom_site_fract_z
 _atom_site_occupancy
  Mg  Mg0  1  0.82935414  0.22207941  0.21644858  1
  Ag  Ag0  1  0.83693670  0.17987880  0.65430328  1
  Ag  Ag1  1  0.17105704  0.33781614  0.83359829  1
  Ag  Ag2  1  0.69142324  0.83524245  0.84489698  1
  Ag  Ag3  1  0.49690430  0.97265548  0.52345797  1
  Ag  Ag4  1  0.12433888  0.91718608  0.91400661  1
  Ag  Ag5  1  0.27102285  0.75461478  0.73806583  1
  Ag  Ag6  1  0.42273496  0.57831885  0.60066905  1
  Ag  Ag7  1  0.60607631  0.42733854  0.43497028  1
  Ag  Ag8  1  0.42259656  0.19003814  0.21792912  1
  Ag  Ag9  1  0.95592690  0.05353853  0.04563235  1
  Ag  Ag10  1  0.02456238  0.51682516  0.50703058  1
  Ag  Ag11  1  0.84068846  0.65683277  0.17810799  1
  Ag  Ag12  1  0.17339491  0.85161710  0.32203583  1
  Ag  Ag13  1  0.50872318  0.50768526  0.00153562  1
  Pb  Pb0  1  0.51592451  0.16864201  0.83604203  1
  Pb  Pb1  1  0.84865184  0.50703151  0.83732294  1
  Pb  Pb2  1  0.16681750  0.17439886  0.49178464  1
  Pb  Pb3  1  0.84384132  0.83858597  0.50274063  1
  Pb  Pb4  1  0.17614127  0.50363518  0.16719432  1
  Pb  Pb5  1  0.52081593  0.83605070  0.17220091  1
  O  O0  1  0.80028590  0.24053796  0.85483057  1
  O  O1  1  0.58353951  0.45395390  0.82219622  1
  O  O2  1  0.88513232  0.11661375  0.46041683  1
  O  O3  1  0.21979574  0.15785554  0.75648934  1
  O  O4  1  0.87365968  0.77835402  0.77638720  1
  O  O5  1  0.49928411  0.88197035  0.90490614  1
  O  O6  1  0.11831344  0.52947669  0.89539185  1
  O  O7  1  0.41516062  0.19252202  0.47803634  1
  O  O8  1  0.83325444  0.57081972  0.56386739  1
  O  O9  1  0.59074074  0.11722832  0.12528194  1
  O  O10  1  0.19807256  0.44648036  0.43975354  1
  O  O11  1  0.89341924  0.46701755  0.11756047  1
  O  O12  1  0.57459169  0.80509407  0.44672396  1
  O  O13  1  0.07427658  0.22842305  0.21962963  1
  O  O14  1  0.79123989  0.85389674  0.23053809  1
  O  O15  1  0.44595986  0.55918079  0.19119243  1
  O  O16  1  0.11214479  0.90451280  0.51706997  1
  O  O17  1  0.24547571  0.77805566  0.15002826  1
loop_
_geom_bond_atom_site_label_1
_geom_bond_atom_site_label_2
_geom_bond_distance
_geom_bond_site_symmetry_2
Mg0 O9 2.061133 1_555
Mg0 O2 2.065151 1_555
Mg0 O11 2.067163 1_555
Mg0 O13 2.162172 1_655
Ag0 O0 2.140121 1_555
Ag0 O2 2.148979 1_555
Ag1 O3 2.129109 1_555
Ag1 O6 2.167410 1_555
Ag2 O5 2.127162 1_555
Ag2 O4 2.136740 1_555
Ag3 O12 2.178053 1_555
Ag3 O7 2.203181 1_565
Ag4 O3 2.252086 1_565
Ag4 O17 2.253949 1_556
Ag4 O4 2.362236 1_455
Ag5 O5 2.324140 1_555
Ag5 O6 2.360496 1_555
Ag5 O16 2.382023 1_555
Ag6 O1 2.285446 1_555
Ag6 O10 2.296256 1_555
Ag6 O12 2.349335 1_555
Ag7 O8 2.220925 1_555
Ag7 O7 2.260914 1_555
Ag7 O15 2.419428 1_555
Ag8 O9 2.239486 1_555
Ag8 O7 2.329729 1_555
Ag9 O13 2.318751 1_655
Ag9 O0 2.454170 1_554
Ag9 O14 2.459132 1_545
Ag10 O10 2.130219 1_555
Ag10 O8 2.140091 1_455
Ag11 O11 2.145774 1_555
Ag11 O14 2.152991 1_555
Ag12 O17 2.146475 1_555
Ag12 O16 2.169905 1_555
Ag13 O1 2.116173 1_554
Ag13 O15 2.126344 1_555
O0 Pb1 2.255187 1_555
O0 Pb0 2.381239 1_555
O1 Pb1 2.233307 1_555
O1 Pb0 2.408795 1_555
O2 Pb3 2.331453 1_545
O2 Pb2 2.350260 1_655
O3 Pb2 2.219505 1_555
O3 Pb0 2.507608 1_555
O4 Pb3 2.273431 1_555
O4 Pb1 2.282086 1_555
O5 Pb5 2.238633 1_556
O5 Pb0 2.425577 1_565
O6 Pb4 2.264435 1_556
O6 Pb1 2.265881 1_455
O7 Pb2 2.208690 1_555
O8 Pb3 2.276558 1_555
O8 Pb1 2.289082 1_555
O9 Pb5 2.334807 1_545
O9 Pb0 2.389352 1_554
O10 Pb4 2.275152 1_555
O10 Pb2 2.284629 1_555
O11 Pb1 2.329247 1_554
O11 Pb4 2.363607 1_655
O12 Pb3 2.247382 1_555
O12 Pb5 2.283609 1_555
O13 Pb2 2.262425 1_555
O13 Pb4 2.297028 1_555
O14 Pb5 2.280180 1_555
O14 Pb3 2.286492 1_555
O15 Pb4 2.258664 1_555
O15 Pb5 2.324681 1_555
O16 Pb3 2.252776 1_455
O16 Pb2 2.266801 1_565
O17 Pb5 2.307046 1_555
O17 Pb4 2.308313 1_555
