# generated using pymatgen
data_MgFe10(O4F)4
_symmetry_space_group_name_H-M   'P 1'
_cell_length_a   4.82995105
_cell_length_b   12.89314786
_cell_length_c   5.62691576
_cell_angle_alpha   100.05807896
_cell_angle_beta   88.83578509
_cell_angle_gamma   92.51286743
_symmetry_Int_Tables_number   1
_chemical_formula_structural   MgFe10(O4F)4
_chemical_formula_sum   'Mg1 Fe10 O16 F4'
_cell_volume   344.66081979
_cell_formula_units_Z   1
loop_
 _symmetry_equiv_pos_site_id
 _symmetry_equiv_pos_as_xyz
  1  'x, y, z'
loop_
 _atom_site_type_symbol
 _atom_site_label
 _atom_site_symmetry_multiplicity
 _atom_site_fract_x
 _atom_site_fract_y
 _atom_site_fract_z
 _atom_site_occupancy
  Mg  Mg0  1  0.65269882  0.14443298  0.03572790  1
  Fe  Fe0  1  0.54018342  0.98957497  0.45657943  1
  Fe  Fe1  1  0.46146452  0.41309159  0.34408190  1
  Fe  Fe2  1  0.34148160  0.24832245  0.78970141  1
  Fe  Fe3  1  0.50619586  0.60523377  0.71391659  1
  Fe  Fe4  1  0.55120876  0.79770972  0.08004209  1
  Fe  Fe5  1  0.91304924  0.40017101  0.84370719  1
  Fe  Fe6  1  0.01732480  0.80168543  0.59251967  1
  Fe  Fe7  1  0.07797601  0.19064103  0.34585513  1
  Fe  Fe8  1  0.97575902  0.59646019  0.23706661  1
  Fe  Fe9  1  0.08078314  0.98476076  0.97493164  1
  O  O0  1  0.72529886  0.25938223  0.82727624  1
  O  O1  1  0.85585372  0.85314476  0.89331075  1
  O  O2  1  0.82059043  0.66931464  0.53540292  1
  O  O3  1  0.83969612  0.06292982  0.25272665  1
  O  O4  1  0.77236899  0.46413394  0.16000804  1
  O  O5  1  0.66058514  0.46783551  0.65533479  1
  O  O6  1  0.68377900  0.65815407  0.02895441  1
  O  O7  1  0.73344937  0.85503091  0.37991826  1
  O  O8  1  0.23932339  0.35011752  0.04860668  1
  O  O9  1  0.33725944  0.73714168  0.79248778  1
  O  O10  1  0.33585496  0.12959165  0.53341826  1
  O  O11  1  0.36926256  0.93098952  0.14456287  1
  O  O12  1  0.28559729  0.54693773  0.42719635  1
  O  O13  1  0.24134475  0.14167277  0.01950147  1
  O  O14  1  0.23416582  0.92939560  0.64602000  1
  O  O15  1  0.18336543  0.32644186  0.56244015  1
  F  F0  1  0.75815323  0.04100773  0.76015039  1
  F  F1  1  0.70915230  0.26603833  0.30642710  1
  F  F2  1  0.16508167  0.54161386  0.91454276  1
  F  F3  1  0.20947532  0.73766795  0.28091757  1
loop_
_geom_bond_atom_site_label_1
_geom_bond_atom_site_label_2
_geom_bond_distance
_geom_bond_site_symmetry_2
Mg0 O13 1.989244 1_555
Mg0 O3 1.996782 1_555
Mg0 O0 2.059164 1_554
Fe0 O11 1.968634 1_555
Fe0 O7 1.982640 1_555
Fe0 O14 2.011777 1_555
Fe0 O10 2.070291 1_565
Fe0 O3 2.120028 1_565
Fe1 O12 1.936176 1_555
Fe1 O4 1.961912 1_555
Fe1 O5 2.016842 1_555
Fe1 O8 2.024668 1_555
Fe1 O15 2.200633 1_555
Fe2 O8 1.856907 1_556
Fe2 O0 1.866520 1_555
Fe2 O10 1.910653 1_555
Fe2 O15 1.946789 1_555
Fe2 O13 2.081833 1_556
Fe3 O9 1.896851 1_555
Fe3 O5 1.924784 1_555
Fe3 O12 1.969555 1_555
Fe3 O6 1.982839 1_556
Fe3 O2 2.028634 1_555
Fe4 O6 1.908673 1_555
Fe4 O7 1.932858 1_555
Fe4 O11 1.938687 1_555
Fe4 O9 1.962541 1_554
Fe4 O1 1.971600 1_554
Fe5 O4 1.948535 1_556
Fe5 O5 1.959672 1_555
Fe5 O0 1.981493 1_555
Fe5 O15 2.147663 1_655
Fe5 O8 2.156872 1_656
Fe6 O1 1.874187 1_455
Fe6 O14 1.893998 1_555
Fe6 O2 1.896725 1_455
Fe6 O7 2.054467 1_455
Fe6 O9 2.203844 1_555
Fe7 O10 1.927267 1_555
Fe7 O3 1.966561 1_455
Fe7 O13 1.993313 1_555
Fe7 O15 2.002930 1_555
Fe8 O4 1.917233 1_555
Fe8 O2 1.929226 1_555
Fe8 O12 2.044314 1_655
Fe8 O6 2.117462 1_555
Fe9 O11 1.924317 1_556
Fe9 O1 1.963977 1_455
Fe9 O14 2.003219 1_555
Fe9 O3 2.072127 1_466
Fe9 O13 2.109574 1_566
F0 Mg0 1.935799 1_556
F0 Fe0 2.020430 1_545
F0 Fe9 2.212812 1_645
F1 Mg0 1.999484 1_555
F1 Fe7 2.100201 1_655
F1 Fe1 2.262540 1_555
F2 Fe8 2.042247 1_456
F2 Fe5 2.130150 1_455
F2 Fe3 2.188855 1_555
F3 Fe6 2.027907 1_555
F3 Fe8 2.079419 1_455
F3 Fe4 2.172323 1_555
