# generated using pymatgen
data_Mn2PO5
_symmetry_space_group_name_H-M   'P 1'
_cell_length_a   5.60179379
_cell_length_b   7.60136580
_cell_length_c   5.60258527
_cell_angle_alpha   64.47570075
_cell_angle_beta   93.70102689
_cell_angle_gamma   115.55167689
_symmetry_Int_Tables_number   1
_chemical_formula_structural   Mn2PO5
_chemical_formula_sum   'Mn4 P2 O10'
_cell_volume   192.05860329
_cell_formula_units_Z   2
loop_
 _symmetry_equiv_pos_site_id
 _symmetry_equiv_pos_as_xyz
  1  'x, y, z'
loop_
 _atom_site_type_symbol
 _atom_site_label
 _atom_site_symmetry_multiplicity
 _atom_site_fract_x
 _atom_site_fract_y
 _atom_site_fract_z
 _atom_site_occupancy
  Mn  Mn0  1  0.50024300  0.99961200  0.50040800  1
  Mn  Mn1  1  0.99994600  0.99994300  0.49974500  1
  Mn  Mn2  1  0.50034300  0.50001100  0.99985300  1
  Mn  Mn3  1  0.49946000  0.49971600  0.50000500  1
  P  P0  1  0.11864600  0.75039900  0.11843700  1
  P  P1  1  0.88120900  0.24966200  0.88166100  1
  O  O0  1  0.35034800  0.25018600  0.35002900  1
  O  O1  1  0.65011800  0.74979800  0.64966700  1
  O  O2  1  0.81640800  0.10044700  0.19222800  1
  O  O3  1  0.28599600  0.62411400  0.18036200  1
  O  O4  1  0.80811000  0.60073400  0.18318200  1
  O  O5  1  0.18012600  0.87735200  0.28504600  1
  O  O6  1  0.81999300  0.12284700  0.71495200  1
  O  O7  1  0.71376500  0.37592300  0.81960500  1
  O  O8  1  0.19171200  0.39955500  0.81691800  1
  O  O9  1  0.18357800  0.89970000  0.80790300  1
loop_
_geom_bond_atom_site_label_1
_geom_bond_atom_site_label_2
_geom_bond_distance
_geom_bond_site_symmetry_2
Mn0 O6 2.185312 1_565
Mn0 O5 2.187369 1_555
Mn0 O2 2.188298 1_565
Mn0 O9 2.190027 1_555
Mn0 O1 2.219523 1_555
Mn0 O0 2.224453 1_565
Mn1 O1 1.944997 1_555
Mn1 O0 1.947151 1_665
Mn1 O2 1.980823 1_565
Mn1 O9 1.983099 1_655
Mn1 O5 2.295233 1_655
Mn1 O6 2.298435 1_565
Mn2 O1 1.945832 1_555
Mn2 O0 1.945994 1_556
Mn2 O4 1.980885 1_556
Mn2 O8 1.982276 1_555
Mn2 O7 2.299648 1_555
Mn2 O3 2.304451 1_556
Mn3 O3 2.184197 1_555
Mn3 O7 2.185815 1_555
Mn3 O8 2.191364 1_555
Mn3 O4 2.192275 1_555
Mn3 O0 2.217567 1_555
Mn3 O1 2.219755 1_555
O2 P1 1.572060 1_554
O3 P0 1.538825 1_555
O4 P0 1.571793 1_655
O5 P0 1.539240 1_555
O6 P1 1.539020 1_555
O7 P1 1.539076 1_555
O8 P1 1.571899 1_455
O9 P0 1.571998 1_556
