# generated using pymatgen
data_Li4MnCo2O7
_symmetry_space_group_name_H-M   'P 1'
_cell_length_a   15.02160522
_cell_length_b   15.02160522
_cell_length_c   5.86427190
_cell_angle_alpha   84.26858434
_cell_angle_beta   84.26858434
_cell_angle_gamma   10.99376897
_symmetry_Int_Tables_number   1
_chemical_formula_structural   Li4MnCo2O7
_chemical_formula_sum   'Li8 Mn2 Co4 O14'
_cell_volume   251.07635995
_cell_formula_units_Z   2
loop_
 _symmetry_equiv_pos_site_id
 _symmetry_equiv_pos_as_xyz
  1  'x, y, z'
loop_
 _atom_site_type_symbol
 _atom_site_label
 _atom_site_symmetry_multiplicity
 _atom_site_fract_x
 _atom_site_fract_y
 _atom_site_fract_z
 _atom_site_occupancy
  Li  Li0  1  0.56860700  0.56860700  0.21661300  1
  Li  Li1  1  0.71647800  0.71647800  0.64192500  1
  Li  Li2  1  0.85999200  0.85999200  0.07464800  1
  Li  Li3  1  0.14360300  0.14360300  0.92871900  1
  Li  Li4  1  0.28841000  0.28841000  0.35996800  1
  Li  Li5  1  0.42844800  0.42844800  0.79299900  1
  Li  Li6  1  0.99413200  0.99413200  0.49775500  1
  Li  Li7  1  0.42843300  0.42843300  0.27962300  1
  Mn  Mn0  1  0.99562400  0.99562400  0.00687200  1
  Mn  Mn1  1  0.14308800  0.14308800  0.42823000  1
  Co  Co0  1  0.28721300  0.28721300  0.84452800  1
  Co  Co1  1  0.56863400  0.56863400  0.71696300  1
  Co  Co2  1  0.71797300  0.71797300  0.14037400  1
  Co  Co3  1  0.86556500  0.86556500  0.56005700  1
  O  O0  1  0.50037300  0.50037300  0.22351700  1
  O  O1  1  0.64131700  0.64131700  0.65761500  1
  O  O2  1  0.78538200  0.78538200  0.08906400  1
  O  O3  1  0.06684000  0.06684000  0.94029500  1
  O  O4  1  0.21378000  0.21378000  0.38194700  1
  O  O5  1  0.35599700  0.35599700  0.79652000  1
  O  O6  1  0.92554800  0.92554800  0.53990700  1
  O  O7  1  0.64225400  0.64225400  0.20072600  1
  O  O8  1  0.78554800  0.78554800  0.62532700  1
  O  O9  1  0.93478300  0.93478300  0.03370200  1
  O  O10  1  0.21510000  0.21510000  0.90503000  1
  O  O11  1  0.35724300  0.35724300  0.34551500  1
  O  O12  1  0.49926900  0.49926900  0.77731300  1
  O  O13  1  0.07036600  0.07036600  0.49424800  1
loop_
_geom_bond_atom_site_label_1
_geom_bond_atom_site_label_2
_geom_bond_distance
_geom_bond_site_symmetry_2
Li0 O0 2.036878 1_555
Li0 O3 2.171691 1_564
Li0 O3 2.171691 1_654
Li0 O13 2.177455 1_655
Li0 O13 2.177455 1_565
Li0 O7 2.195029 1_555
Li1 O8 2.058057 1_555
Li1 O4 2.103830 1_655
Li1 O4 2.103830 1_565
Li1 O10 2.107154 1_655
Li1 O10 2.107154 1_565
Li1 O1 2.240334 1_555
Li2 O11 2.138750 1_655
Li2 O11 2.138750 1_565
Li2 O5 2.187271 1_654
Li2 O5 2.187271 1_564
Li2 O2 2.224325 1_555
Li2 O9 2.225400 1_555
Li3 O10 2.128676 1_555
Li3 O7 2.145622 1_546
Li3 O7 2.145622 1_456
Li3 O1 2.150487 1_545
Li3 O1 2.150487 1_455
Li3 O3 2.289787 1_555
Li4 O11 2.051685 1_555
Li4 O8 2.114882 1_545
Li4 O8 2.114882 1_455
Li4 O2 2.152080 1_455
Li4 O2 2.152080 1_545
Li4 O4 2.222586 1_555
Li5 O9 2.037787 1_546
Li5 O9 2.037787 1_456
Li5 O6 2.075273 1_455
Li5 O6 2.075273 1_545
Li5 O12 2.110662 1_555
Li5 O5 2.164677 1_555
Li6 O6 2.041080 1_555
Li6 O0 2.152091 1_655
Li6 O0 2.152091 1_565
Li6 O12 2.198258 1_655
Li6 O12 2.198258 1_565
Li6 O13 2.277810 1_665
Li7 O9 2.032599 1_455
Li7 O9 2.032599 1_545
Li7 O6 2.093180 1_545
Li7 O6 2.093180 1_455
Li7 O11 2.125238 1_555
Li7 O0 2.143505 1_555
Mn0 O9 1.810449 1_555
Mn0 O0 1.934170 1_565
Mn0 O0 1.934170 1_655
Mn0 O12 1.966022 1_564
Mn0 O12 1.966022 1_654
Mn0 O3 2.126332 1_664
Mn1 O7 1.964129 1_545
Mn1 O7 1.964129 1_455
Mn1 O1 1.966868 1_545
Mn1 O1 1.966868 1_455
Mn1 O4 2.104218 1_555
Mn1 O13 2.170369 1_555
Co0 O8 1.933462 1_545
Co0 O8 1.933462 1_455
Co0 O2 2.028357 1_456
Co0 O2 2.028357 1_546
Co0 O5 2.047990 1_555
Co0 O10 2.150124 1_555
Co1 O13 1.940481 1_655
Co1 O13 1.940481 1_565
Co1 O3 1.942833 1_655
Co1 O3 1.942833 1_565
Co1 O12 2.069041 1_555
Co1 O1 2.166524 1_555
Co2 O10 2.001617 1_564
Co2 O10 2.001617 1_654
Co2 O2 2.008123 1_555
Co2 O4 2.014333 1_655
Co2 O4 2.014333 1_565
Co2 O7 2.256518 1_555
Co3 O6 1.785814 1_555
Co3 O11 1.943765 1_655
Co3 O11 1.943765 1_565
Co3 O5 1.998927 1_655
Co3 O5 1.998927 1_565
Co3 O8 2.385111 1_555
