# generated using pymatgen
data_Sr4PtN4
_symmetry_space_group_name_H-M   'P 1'
_cell_length_a   6.39694493
_cell_length_b   6.32749845
_cell_length_c   9.14791278
_cell_angle_alpha   68.83537004
_cell_angle_beta   80.56687013
_cell_angle_gamma   75.03280947
_symmetry_Int_Tables_number   1
_chemical_formula_structural   Sr4PtN4
_chemical_formula_sum   'Sr8 Pt2 N8'
_cell_volume   332.55857315
_cell_formula_units_Z   2
loop_
 _symmetry_equiv_pos_site_id
 _symmetry_equiv_pos_as_xyz
  1  'x, y, z'
loop_
 _atom_site_type_symbol
 _atom_site_label
 _atom_site_symmetry_multiplicity
 _atom_site_fract_x
 _atom_site_fract_y
 _atom_site_fract_z
 _atom_site_occupancy
  Sr  Sr0  1  0.79760300  0.56640700  0.15012800  1
  Sr  Sr1  1  0.20239700  0.43359300  0.84987200  1
  Sr  Sr2  1  0.70188500  0.16896100  0.98712800  1
  Sr  Sr3  1  0.29811500  0.83103900  0.01287200  1
  Sr  Sr4  1  0.74413800  0.43380100  0.59463300  1
  Sr  Sr5  1  0.25586200  0.56619900  0.40536700  1
  Sr  Sr6  1  0.22089900  0.97652400  0.62299200  1
  Sr  Sr7  1  0.77910100  0.02347600  0.37700800  1
  Pt  Pt0  1  0.72861500  0.83281900  0.76212700  1
  Pt  Pt1  1  0.27138500  0.16718100  0.23787300  1
  N  N0  1  0.98746900  0.67571200  0.61579100  1
  N  N1  1  0.01253100  0.32428800  0.38420900  1
  N  N2  1  0.96988100  0.85883300  0.87480000  1
  N  N3  1  0.03011900  0.14116700  0.12520000  1
  N  N4  1  0.51695500  0.63657600  0.77751600  1
  N  N5  1  0.48304500  0.36342400  0.22248400  1
  N  N6  1  0.51402300  0.88531100  0.22910700  1
  N  N7  1  0.48597700  0.11468900  0.77089300  1
loop_
_geom_bond_atom_site_label_1
_geom_bond_atom_site_label_2
_geom_bond_distance
_geom_bond_site_symmetry_2
N0 Pt0 2.215006 1_555
N0 Sr1 2.516132 1_655
N0 Sr4 2.519286 1_555
N0 Sr5 2.529551 1_655
N0 Sr7 2.712698 1_565
N0 Sr6 2.729077 1_655
N1 Pt1 2.215006 1_555
N1 Sr0 2.516132 1_455
N1 Sr5 2.519286 1_555
N1 Sr4 2.529551 1_455
N1 Sr6 2.712698 1_545
N1 Sr7 2.729077 1_455
N2 Pt0 2.060738 1_555
N2 Sr3 2.559919 1_656
N2 Sr6 2.570154 1_655
N2 Sr2 2.643217 1_565
N2 Sr0 2.785703 1_556
N2 Sr1 2.787273 1_655
N3 Pt1 2.060738 1_555
N3 Sr2 2.559919 1_454
N3 Sr7 2.570154 1_455
N3 Sr3 2.643217 1_545
N3 Sr1 2.785703 1_554
N3 Sr0 2.787273 1_455
N4 Pt0 2.018584 1_555
N4 Sr4 2.519341 1_555
N4 Sr1 2.534009 1_555
N4 Sr6 2.605659 1_555
N4 Sr3 2.853862 1_556
N4 Sr2 2.944432 1_555
N5 Pt1 2.018584 1_555
N5 Sr5 2.519341 1_555
N5 Sr0 2.534009 1_555
N5 Sr7 2.605659 1_555
N5 Sr2 2.853862 1_554
N5 Sr3 2.944432 1_555
N6 Pt1 2.056484 1_565
N6 Sr0 2.572333 1_555
N6 Sr2 2.634151 1_564
N6 Sr3 2.751260 1_555
N6 Sr7 2.800377 1_565
N6 Sr5 2.811193 1_555
N7 Pt0 2.056484 1_545
N7 Sr1 2.572333 1_555
N7 Sr3 2.634151 1_546
N7 Sr2 2.751260 1_555
N7 Sr6 2.800377 1_545
N7 Sr4 2.811193 1_555
