# generated using pymatgen
data_Hf6Cr5Si7
_symmetry_space_group_name_H-M   'P 1'
_cell_length_a   5.09243400
_cell_length_b   13.22398100
_cell_length_c   16.29264200
_cell_angle_alpha   90.00000000
_cell_angle_beta   90.00000000
_cell_angle_gamma   90.00000000
_symmetry_Int_Tables_number   1
_chemical_formula_structural   Hf6Cr5Si7
_chemical_formula_sum   'Hf24 Cr20 Si28'
_cell_volume   1097.18317822
_cell_formula_units_Z   4
loop_
 _symmetry_equiv_pos_site_id
 _symmetry_equiv_pos_as_xyz
  1  'x, y, z'
loop_
 _atom_site_type_symbol
 _atom_site_label
 _atom_site_symmetry_multiplicity
 _atom_site_fract_x
 _atom_site_fract_y
 _atom_site_fract_z
 _atom_site_occupancy
  Hf  Hf0  1  0.25000000  0.18174400  0.28995700  1
  Hf  Hf1  1  0.75000000  0.81825600  0.71004300  1
  Hf  Hf2  1  0.75000000  0.68174400  0.21004300  1
  Hf  Hf3  1  0.25000000  0.31825600  0.78995700  1
  Hf  Hf4  1  0.25000000  0.81742000  0.14959000  1
  Hf  Hf5  1  0.75000000  0.18258000  0.85041000  1
  Hf  Hf6  1  0.75000000  0.31742000  0.35041000  1
  Hf  Hf7  1  0.25000000  0.68258000  0.64959000  1
  Hf  Hf8  1  0.25000000  0.96800700  0.67613000  1
  Hf  Hf9  1  0.75000000  0.03199300  0.32387000  1
  Hf  Hf10  1  0.75000000  0.46800700  0.82387000  1
  Hf  Hf11  1  0.25000000  0.53199300  0.17613000  1
  Hf  Hf12  1  0.25000000  0.73106000  0.44352200  1
  Hf  Hf13  1  0.75000000  0.26894000  0.55647800  1
  Hf  Hf14  1  0.75000000  0.23106000  0.05647800  1
  Hf  Hf15  1  0.25000000  0.76894000  0.94352200  1
  Hf  Hf16  1  0.25000000  0.97100000  0.43763200  1
  Hf  Hf17  1  0.75000000  0.02900000  0.56236800  1
  Hf  Hf18  1  0.75000000  0.47100000  0.06236800  1
  Hf  Hf19  1  0.25000000  0.52900000  0.93763200  1
  Hf  Hf20  1  0.25000000  0.35018400  0.46490400  1
  Hf  Hf21  1  0.75000000  0.64981600  0.53509600  1
  Hf  Hf22  1  0.75000000  0.85018400  0.03509600  1
  Hf  Hf23  1  0.25000000  0.14981600  0.96490400  1
  Cr  Cr0  1  0.25000000  0.14421900  0.56367700  1
  Cr  Cr1  1  0.75000000  0.85578100  0.43632300  1
  Cr  Cr2  1  0.75000000  0.64421900  0.93632300  1
  Cr  Cr3  1  0.25000000  0.35578100  0.06367700  1
  Cr  Cr4  1  0.50050700  0.16133900  0.68546500  1
  Cr  Cr5  1  0.00050700  0.83866100  0.31453500  1
  Cr  Cr6  1  0.49949300  0.66133900  0.81453500  1
  Cr  Cr7  1  0.99949300  0.33866100  0.18546500  1
  Cr  Cr8  1  0.49949300  0.83866100  0.31453500  1
  Cr  Cr9  1  0.99949300  0.16133900  0.68546500  1
  Cr  Cr10  1  0.50050700  0.33866100  0.18546500  1
  Cr  Cr11  1  0.00050700  0.66133900  0.81453500  1
  Cr  Cr12  1  0.51296200  0.03967600  0.13020400  1
  Cr  Cr13  1  0.01296200  0.96032400  0.86979600  1
  Cr  Cr14  1  0.48703800  0.53967600  0.36979600  1
  Cr  Cr15  1  0.98703800  0.46032400  0.63020400  1
  Cr  Cr16  1  0.48703800  0.96032400  0.86979600  1
  Cr  Cr17  1  0.98703800  0.03967600  0.13020400  1
  Cr  Cr18  1  0.51296200  0.46032400  0.63020400  1
  Cr  Cr19  1  0.01296200  0.53967600  0.36979600  1
  Si  Si0  1  0.49640300  0.84086700  0.56153900  1
  Si  Si1  1  0.99640300  0.15913300  0.43846100  1
  Si  Si2  1  0.50359700  0.34086700  0.93846100  1
  Si  Si3  1  0.00359700  0.65913300  0.06153900  1
  Si  Si4  1  0.50359700  0.15913300  0.43846100  1
  Si  Si5  1  0.00359700  0.84086700  0.56153900  1
  Si  Si6  1  0.49640300  0.65913300  0.06153900  1
  Si  Si7  1  0.99640300  0.34086700  0.93846100  1
  Si  Si8  1  0.25000000  0.97997400  0.25810200  1
  Si  Si9  1  0.75000000  0.02002600  0.74189800  1
  Si  Si10  1  0.75000000  0.47997400  0.24189800  1
  Si  Si11  1  0.25000000  0.52002600  0.75810200  1
  Si  Si12  1  0.25000000  0.81894200  0.78533600  1
  Si  Si13  1  0.75000000  0.18105800  0.21466400  1
  Si  Si14  1  0.75000000  0.31894200  0.71466400  1
  Si  Si15  1  0.25000000  0.68105800  0.28533600  1
  Si  Si16  1  0.25000000  0.19392100  0.12534600  1
  Si  Si17  1  0.75000000  0.80607900  0.87465400  1
  Si  Si18  1  0.75000000  0.69392100  0.37465400  1
  Si  Si19  1  0.25000000  0.30607900  0.62534600  1
  Si  Si20  1  0.25000000  0.10722300  0.80506300  1
  Si  Si21  1  0.75000000  0.89277700  0.19493700  1
  Si  Si22  1  0.75000000  0.60722300  0.69493700  1
  Si  Si23  1  0.25000000  0.39277700  0.30506300  1
  Si  Si24  1  0.25000000  0.95168600  0.01536800  1
  Si  Si25  1  0.75000000  0.04831400  0.98463200  1
  Si  Si26  1  0.75000000  0.45168600  0.48463200  1
  Si  Si27  1  0.25000000  0.54831400  0.51536800  1
loop_
_geom_bond_atom_site_label_1
_geom_bond_atom_site_label_2
_geom_bond_distance
_geom_bond_site_symmetry_2
Hf0 Si16 2.686778 1_555
Hf0 Si8 2.718211 1_545
Hf0 Si4 2.758854 1_555
Hf0 Si1 2.758854 1_455
Hf0 Si23 2.801528 1_555
Hf0 Si13 2.826332 1_455
Hf0 Si13 2.826332 1_555
Hf1 Si17 2.686778 1_555
Hf1 Si9 2.718211 1_565
Hf1 Si5 2.758854 1_655
Hf1 Si0 2.758854 1_555
Hf1 Si22 2.801528 1_555
Hf1 Si12 2.826332 1_555
Hf1 Si12 2.826332 1_655
Hf2 Si18 2.686778 1_555
Hf2 Si10 2.718211 1_555
Hf2 Si6 2.758854 1_555
Hf2 Si3 2.758854 1_655
Hf2 Si21 2.801528 1_555
Hf2 Si15 2.826332 1_655
Hf2 Si15 2.826332 1_555
Hf3 Si19 2.686778 1_555
Hf3 Si11 2.718211 1_555
Hf3 Si7 2.758854 1_455
Hf3 Si2 2.758854 1_555
Hf3 Si20 2.801528 1_555
Hf3 Si14 2.826332 1_455
Hf3 Si14 2.826332 1_555
Hf4 Si8 2.783247 1_555
Hf4 Si24 2.816867 1_555
Hf4 Si6 2.830892 1_555
Hf4 Si3 2.830892 1_555
Hf4 Si21 2.832337 1_555
Hf4 Si21 2.832337 1_455
Hf4 Si15 2.853620 1_555
Hf5 Si9 2.783247 1_555
Hf5 Si25 2.816867 1_555
Hf5 Si2 2.830892 1_555
Hf5 Si7 2.830892 1_555
Hf5 Si20 2.832337 1_655
Hf5 Si20 2.832337 1_555
Hf5 Si14 2.853620 1_555
Hf6 Si10 2.783247 1_555
Hf6 Si26 2.816867 1_555
Hf6 Si1 2.830892 1_555
Hf6 Si4 2.830892 1_555
Hf6 Si23 2.832337 1_655
Hf6 Si23 2.832337 1_555
Hf6 Si13 2.853620 1_555
Hf7 Si11 2.783247 1_555
Hf7 Si27 2.816867 1_555
Hf7 Si5 2.830892 1_555
Hf7 Si0 2.830892 1_555
Hf7 Si22 2.832337 1_555
Hf7 Si22 2.832337 1_455
Hf7 Si12 2.853620 1_555
Hf8 Si12 2.655467 1_555
Hf8 Si20 2.793208 1_565
Hf8 Si5 2.808365 1_555
Hf8 Si0 2.808365 1_555
Hf8 Si9 2.846860 1_465
Hf8 Si9 2.846860 1_565
Hf9 Si13 2.655467 1_555
Hf9 Si21 2.793208 1_545
Hf9 Si1 2.808365 1_555
Hf9 Si4 2.808365 1_555
Hf9 Si8 2.846860 1_645
Hf9 Si8 2.846860 1_545
Hf10 Si14 2.655467 1_555
Hf10 Si22 2.793208 1_555
Hf10 Si2 2.808365 1_555
Hf10 Si7 2.808365 1_555
Hf10 Si11 2.846860 1_655
Hf10 Si11 2.846860 1_555
Hf11 Si15 2.655467 1_555
Hf11 Si23 2.793208 1_555
Hf11 Si6 2.808365 1_555
Hf11 Si3 2.808365 1_555
Hf11 Si10 2.846860 1_455
Hf11 Si10 2.846860 1_555
Hf12 Si15 2.660738 1_555
Hf12 Si27 2.685202 1_555
Hf12 Si5 2.716661 1_555
Hf12 Si0 2.716661 1_555
Hf12 Si18 2.825492 1_455
Hf12 Si18 2.825492 1_555
Hf13 Si14 2.660738 1_555
Hf13 Si26 2.685202 1_555
Hf13 Si1 2.716661 1_555
Hf13 Si4 2.716661 1_555
Hf13 Si19 2.825492 1_555
Hf13 Si19 2.825492 1_655
Hf14 Si13 2.660738 1_555
Hf14 Si25 2.685202 1_554
Hf14 Si2 2.716661 1_554
Hf14 Si7 2.716661 1_554
Hf14 Si16 2.825492 1_655
Hf14 Si16 2.825492 1_555
Hf15 Si12 2.660738 1_555
Hf15 Si24 2.685202 1_556
Hf15 Si3 2.716661 1_556
Hf15 Si6 2.716661 1_556
Hf15 Si17 2.825492 1_555
Hf15 Si17 2.825492 1_455
Hf16 Si1 2.803114 1_465
Hf16 Si4 2.803114 1_565
Hf16 Si8 2.927424 1_555
Hf16 Si0 2.934512 1_555
Hf16 Si5 2.934512 1_555
Hf17 Si5 2.803114 1_645
Hf17 Si0 2.803114 1_545
Hf17 Si9 2.927424 1_555
Hf17 Si1 2.934512 1_555
Hf17 Si4 2.934512 1_555
Hf18 Si6 2.803114 1_555
Hf18 Si3 2.803114 1_655
Hf18 Si10 2.927424 1_555
Hf18 Si7 2.934512 1_554
Hf18 Si2 2.934512 1_554
Hf19 Si2 2.803114 1_555
Hf19 Si7 2.803114 1_455
Hf19 Si11 2.927424 1_555
Hf19 Si6 2.934512 1_556
Hf19 Si3 2.934512 1_556
Hf20 Si23 2.664446 1_555
Hf20 Si19 2.678301 1_555
Hf20 Si27 2.746043 1_555
Hf20 Si1 2.869907 1_455
Hf20 Si4 2.869907 1_555
Hf20 Si26 2.896238 1_555
Hf20 Si26 2.896238 1_455
Hf21 Si22 2.664446 1_555
Hf21 Si18 2.678301 1_555
Hf21 Si26 2.746043 1_555
Hf21 Si5 2.869907 1_655
Hf21 Si0 2.869907 1_555
Hf21 Si27 2.896238 1_655
Hf21 Si27 2.896238 1_555
Hf22 Si21 2.664446 1_555
Hf22 Si17 2.678301 1_554
Hf22 Si25 2.746043 1_564
Hf22 Si6 2.869907 1_555
Hf22 Si3 2.869907 1_655
Hf22 Si24 2.896238 1_655
Hf22 Si24 2.896238 1_555
Hf23 Si20 2.664446 1_555
Hf23 Si16 2.678301 1_556
Hf23 Si24 2.746043 1_546
Hf23 Si2 2.869907 1_555
Hf23 Si7 2.869907 1_455
Hf23 Si25 2.896238 1_555
Hf23 Si25 2.896238 1_455
Cr0 Si19 2.364525 1_555
Cr0 Cr4 2.369785 1_555
Cr0 Cr9 2.369785 1_455
Cr0 Si1 2.422537 1_455
Cr0 Si4 2.422537 1_555
Cr0 Hf8 2.964244 1_545
Cr0 Hf17 2.967355 1_555
Cr0 Hf17 2.967355 1_455
Cr0 Hf16 3.076419 1_545
Cr1 Si18 2.364525 1_555
Cr1 Cr5 2.369785 1_655
Cr1 Cr8 2.369785 1_555
Cr1 Si0 2.422537 1_555
Cr1 Si5 2.422537 1_655
Cr1 Hf9 2.964244 1_565
Cr1 Hf16 2.967355 1_555
Cr1 Hf16 2.967355 1_655
Cr1 Hf17 3.076419 1_565
Cr2 Si17 2.364525 1_555
Cr2 Cr6 2.369785 1_555
Cr2 Si6 2.422537 1_556
Cr2 Si3 2.422537 1_656
Cr2 Hf10 2.964244 1_555
Cr2 Hf19 2.967355 1_555
Cr2 Hf19 2.967355 1_655
Cr2 Hf18 3.076419 1_556
Cr3 Si16 2.364525 1_555
Cr3 Cr7 2.369785 1_455
Cr3 Si2 2.422537 1_554
Cr3 Si7 2.422537 1_454
Cr3 Hf11 2.964244 1_555
Cr3 Hf18 2.967355 1_555
Cr3 Hf18 2.967355 1_455
Cr3 Hf19 3.076419 1_554
Cr4 Si20 2.436478 1_555
Cr4 Si9 2.439617 1_555
Cr4 Si14 2.486803 1_555
Cr4 Si19 2.500069 1_555
Cr4 Cr9 2.541053 1_555
Cr4 Cr9 2.551381 1_455
Cr4 Hf13 2.838201 1_555
Cr4 Hf8 2.861261 1_545
Cr4 Hf17 2.949447 1_555
Cr4 Hf3 2.971806 1_555
Cr4 Hf5 2.985833 1_555
Cr5 Si21 2.436478 1_455
Cr5 Si8 2.439617 1_555
Cr5 Si15 2.486803 1_555
Cr5 Si18 2.500069 1_455
Cr5 Cr8 2.541053 1_555
Cr5 Cr8 2.551381 1_455
Cr5 Hf12 2.838201 1_555
Cr5 Hf9 2.861261 1_465
Cr5 Hf16 2.949447 1_555
Cr5 Hf2 2.971806 1_455
Cr5 Hf4 2.985833 1_555
Cr6 Si22 2.436478 1_555
Cr6 Si11 2.439617 1_555
Cr6 Si12 2.486803 1_555
Cr6 Si17 2.500069 1_555
Cr6 Hf15 2.838201 1_555
Cr6 Hf10 2.861261 1_555
Cr6 Hf19 2.949447 1_555
Cr6 Hf1 2.971806 1_555
Cr6 Hf7 2.985833 1_555
Cr7 Si23 2.436478 1_655
Cr7 Si10 2.439617 1_555
Cr7 Si13 2.486803 1_555
Cr7 Si16 2.500069 1_655
Cr7 Hf14 2.838201 1_555
Cr7 Hf11 2.861261 1_655
Cr7 Hf18 2.949447 1_555
Cr7 Hf0 2.971806 1_655
Cr7 Hf6 2.985833 1_555
Cr8 Si21 2.436478 1_555
Cr8 Si8 2.439617 1_555
Cr8 Si15 2.486803 1_555
Cr8 Si18 2.500069 1_555
Cr8 Hf12 2.838201 1_555
Cr8 Hf9 2.861261 1_565
Cr8 Hf16 2.949447 1_555
Cr8 Hf2 2.971806 1_555
Cr8 Hf4 2.985833 1_555
Cr9 Si20 2.436478 1_655
Cr9 Si9 2.439617 1_555
Cr9 Si14 2.486803 1_555
Cr9 Si19 2.500069 1_655
Cr9 Hf13 2.838201 1_555
Cr9 Hf8 2.861261 1_645
Cr9 Hf17 2.949447 1_555
Cr9 Hf3 2.971806 1_655
Cr9 Hf5 2.985833 1_555
Cr10 Cr3 2.369785 1_555
Cr10 Si23 2.436478 1_555
Cr10 Si10 2.439617 1_555
Cr10 Si13 2.486803 1_555
Cr10 Si16 2.500069 1_555
Cr10 Cr7 2.541053 1_555
Cr10 Cr7 2.551381 1_455
Cr10 Hf14 2.838201 1_555
Cr10 Hf11 2.861261 1_555
Cr10 Hf18 2.949447 1_555
Cr10 Hf0 2.971806 1_555
Cr10 Hf6 2.985833 1_555
Cr11 Cr2 2.369785 1_455
Cr11 Si22 2.436478 1_455
Cr11 Si11 2.439617 1_555
Cr11 Si12 2.486803 1_555
Cr11 Si17 2.500069 1_455
Cr11 Cr6 2.541053 1_555
Cr11 Cr6 2.551381 1_455
Cr11 Hf15 2.838201 1_555
Cr11 Hf10 2.861261 1_455
Cr11 Hf19 2.949447 1_555
Cr11 Hf1 2.971806 1_455
Cr11 Hf7 2.985833 1_555
Cr12 Cr17 2.414201 1_555
Cr12 Si16 2.441313 1_555
Cr12 Si21 2.518547 1_545
Cr12 Si24 2.578317 1_545
Cr12 Si8 2.599759 1_545
Cr12 Si13 2.616525 1_555
Cr12 Si25 2.663710 1_554
Cr13 Cr16 2.414201 1_555
Cr13 Si17 2.441313 1_455
Cr13 Si20 2.518547 1_565
Cr13 Si25 2.578317 1_465
Cr13 Si9 2.599759 1_465
Cr13 Si12 2.616525 1_555
Cr13 Si24 2.663710 1_556
Cr14 Cr19 2.414201 1_555
Cr14 Si18 2.441313 1_555
Cr14 Si23 2.518547 1_555
Cr14 Si26 2.578317 1_555
Cr14 Si10 2.599759 1_555
Cr14 Si15 2.616525 1_555
Cr14 Si27 2.663710 1_555
Cr15 Cr18 2.414201 1_555
Cr15 Si19 2.441313 1_655
Cr15 Si22 2.518547 1_555
Cr15 Si27 2.578317 1_655
Cr15 Si11 2.599759 1_655
Cr15 Si14 2.616525 1_555
Cr15 Si26 2.663710 1_555
Cr16 Si17 2.441313 1_555
Cr16 Si20 2.518547 1_565
Cr16 Si25 2.578317 1_565
Cr16 Si9 2.599759 1_565
Cr16 Si12 2.616525 1_555
Cr16 Si24 2.663710 1_556
Cr17 Si16 2.441313 1_655
Cr17 Si21 2.518547 1_545
Cr17 Si24 2.578317 1_645
Cr17 Si8 2.599759 1_645
Cr17 Si13 2.616525 1_555
Cr17 Si25 2.663710 1_554
Cr18 Si19 2.441313 1_555
Cr18 Si22 2.518547 1_555
Cr18 Si27 2.578317 1_555
Cr18 Si11 2.599759 1_555
Cr18 Si14 2.616525 1_555
Cr18 Si26 2.663710 1_555
Cr19 Si18 2.441313 1_455
Cr19 Si23 2.518547 1_555
Cr19 Si26 2.578317 1_455
Cr19 Si10 2.599759 1_455
Cr19 Si15 2.616525 1_555
Cr19 Si27 2.663710 1_555
Si0 Si5 2.509582 1_555
Si0 Si5 2.582852 1_655
Si1 Si4 2.509582 1_555
Si1 Si4 2.582852 1_655
Si2 Si7 2.509582 1_555
Si2 Si7 2.582852 1_455
Si3 Si6 2.509582 1_555
Si3 Si6 2.582852 1_455
