# generated using pymatgen
data_LiEr(WO4)2
_symmetry_space_group_name_H-M   'P 1'
_cell_length_a   5.88904200
_cell_length_b   5.08837100
_cell_length_c   10.95745069
_cell_angle_alpha   66.47043981
_cell_angle_beta   90.00000000
_cell_angle_gamma   90.00000000
_symmetry_Int_Tables_number   1
_chemical_formula_structural   LiEr(WO4)2
_chemical_formula_sum   'Li2 Er2 W4 O16'
_cell_volume   301.04626108
_cell_formula_units_Z   2
loop_
 _symmetry_equiv_pos_site_id
 _symmetry_equiv_pos_as_xyz
  1  'x, y, z'
loop_
 _atom_site_type_symbol
 _atom_site_label
 _atom_site_symmetry_multiplicity
 _atom_site_fract_x
 _atom_site_fract_y
 _atom_site_fract_z
 _atom_site_occupancy
  Li  Li0  1  0.24706400  0.50000000  0.75000000  1
  Li  Li1  1  0.75293600  0.50000000  0.25000000  1
  Er  Er0  1  0.68524100  0.00000000  0.75000000  1
  Er  Er1  1  0.31475900  0.00000000  0.25000000  1
  W  W0  1  0.17681100  0.23558600  0.51391400  1
  W  W1  1  0.82318900  0.76441400  0.48608600  1
  W  W2  1  0.17681100  0.76441400  0.98608600  1
  W  W3  1  0.82318900  0.23558600  0.01391400  1
  O  O0  1  0.62764600  0.78898800  0.60992400  1
  O  O1  1  0.37235400  0.21101200  0.39007600  1
  O  O2  1  0.62764600  0.21101200  0.89007600  1
  O  O3  1  0.37235400  0.78898800  0.10992400  1
  O  O4  1  0.37264200  0.27042600  0.63596200  1
  O  O5  1  0.62735800  0.72957400  0.36403800  1
  O  O6  1  0.37264200  0.72957400  0.86403800  1
  O  O7  1  0.62735800  0.27042600  0.13596200  1
  O  O8  1  0.08483400  0.85003200  0.61232600  1
  O  O9  1  0.91516600  0.14996800  0.38767400  1
  O  O10  1  0.08483400  0.14996800  0.88767400  1
  O  O11  1  0.91516600  0.85003200  0.11232600  1
  O  O12  1  0.89003400  0.35015200  0.59759400  1
  O  O13  1  0.10996600  0.64984800  0.40240600  1
  O  O14  1  0.89003400  0.64984800  0.90240600  1
  O  O15  1  0.10996600  0.35015200  0.09759400  1
loop_
_geom_bond_atom_site_label_1
_geom_bond_atom_site_label_2
_geom_bond_distance
_geom_bond_site_symmetry_2
Li0 O10 2.053158 1_555
Li0 O8 2.053158 1_555
Li0 O6 2.153694 1_555
Li0 O4 2.153694 1_555
Li1 O9 2.053158 1_555
Li1 O11 2.053158 1_555
Li1 O5 2.153694 1_555
Li1 O7 2.153694 1_555
Er0 O2 2.222516 1_555
Er0 O0 2.222516 1_545
Er0 O14 2.245467 1_545
Er0 O12 2.245467 1_555
Er0 O6 2.339003 1_545
Er0 O4 2.339003 1_555
Er1 O1 2.222516 1_555
Er1 O3 2.222516 1_545
Er1 O15 2.245467 1_555
Er1 O13 2.245467 1_545
Er1 O5 2.339003 1_545
Er1 O7 2.339003 1_555
O0 W1 1.821679 1_555
O1 W0 1.821679 1_555
O2 W3 1.821679 1_556
O3 W2 1.821679 1_554
O4 W0 1.827345 1_555
O5 W1 1.827345 1_555
O6 W2 1.827345 1_555
O7 W3 1.827345 1_555
O8 W0 1.901552 1_565
O8 W1 2.226786 1_455
O9 W1 1.901552 1_545
O9 W0 2.226786 1_655
O10 W2 1.901552 1_545
O10 W3 2.226786 1_456
O11 W3 1.901552 1_565
O11 W2 2.226786 1_654
O12 W1 2.008670 1_555
O12 W0 2.111765 1_655
O13 W0 2.008670 1_555
O13 W1 2.111765 1_455
O14 W3 2.008670 1_556
O14 W2 2.111765 1_655
O15 W2 2.008670 1_554
O15 W3 2.111765 1_455
