# generated using pymatgen
data_Gd12Co6Pb
_symmetry_space_group_name_H-M   'P 1'
_cell_length_a   8.51691644
_cell_length_b   8.51691644
_cell_length_c   8.51691644
_cell_angle_alpha   109.47122063
_cell_angle_beta   109.47122063
_cell_angle_gamma   109.47122063
_symmetry_Int_Tables_number   1
_chemical_formula_structural   Gd12Co6Pb
_chemical_formula_sum   'Gd12 Co6 Pb1'
_cell_volume   475.58184630
_cell_formula_units_Z   1
loop_
 _symmetry_equiv_pos_site_id
 _symmetry_equiv_pos_as_xyz
  1  'x, y, z'
loop_
 _atom_site_type_symbol
 _atom_site_label
 _atom_site_symmetry_multiplicity
 _atom_site_fract_x
 _atom_site_fract_y
 _atom_site_fract_z
 _atom_site_occupancy
  Gd  Gd0  1  0.80704200  0.69367600  0.50071900  1
  Gd  Gd1  1  0.19295800  0.30632400  0.49928100  1
  Gd  Gd2  1  0.19295800  0.69367600  0.88663400  1
  Gd  Gd3  1  0.80704200  0.30632400  0.11336600  1
  Gd  Gd4  1  0.69367600  0.50071900  0.80704200  1
  Gd  Gd5  1  0.30632400  0.49928100  0.19295800  1
  Gd  Gd6  1  0.69367600  0.88663400  0.19295800  1
  Gd  Gd7  1  0.30632400  0.11336600  0.80704200  1
  Gd  Gd8  1  0.50071900  0.80704200  0.69367600  1
  Gd  Gd9  1  0.49928100  0.19295800  0.30632400  1
  Gd  Gd10  1  0.11336600  0.80704200  0.30632400  1
  Gd  Gd11  1  0.88663400  0.19295800  0.69367600  1
  Co  Co0  1  0.88685300  0.38685300  0.50000000  1
  Co  Co1  1  0.11314700  0.61314700  0.50000000  1
  Co  Co2  1  0.38685300  0.50000000  0.88685300  1
  Co  Co3  1  0.61314700  0.50000000  0.11314700  1
  Co  Co4  1  0.50000000  0.88685300  0.38685300  1
  Co  Co5  1  0.50000000  0.11314700  0.61314700  1
  Pb  Pb0  1  0.00000000  0.00000000  0.00000000  1
loop_
_geom_bond_atom_site_label_1
_geom_bond_atom_site_label_2
_geom_bond_distance
_geom_bond_site_symmetry_2
Gd0 Pb0 3.560393 1_666
Gd1 Pb0 3.560393 1_555
Gd2 Pb0 3.560400 1_566
Gd3 Pb0 3.560400 1_655
Gd4 Pb0 3.560393 1_666
Gd5 Pb0 3.560393 1_555
Gd6 Pb0 3.560400 1_665
Gd7 Pb0 3.560400 1_556
Gd8 Pb0 3.560393 1_666
Gd9 Pb0 3.560393 1_555
Gd10 Pb0 3.560400 1_565
Gd11 Pb0 3.560400 1_656
Co0 Co1 2.225486 1_655
Co0 Gd11 2.695182 1_555
Co0 Gd9 2.695189 1_555
Co0 Gd0 2.909834 1_555
Co0 Gd2 2.909836 1_655
Co0 Gd3 2.909836 1_555
Co0 Gd1 2.909838 1_655
Co1 Gd10 2.695182 1_555
Co1 Gd8 2.695189 1_555
Co1 Gd1 2.909834 1_555
Co1 Gd3 2.909836 1_455
Co1 Gd2 2.909836 1_555
Co1 Gd0 2.909838 1_455
Co2 Co3 2.225486 1_556
Co2 Gd2 2.695182 1_555
Co2 Gd1 2.695189 1_555
Co2 Gd4 2.909834 1_555
Co2 Gd6 2.909836 1_556
Co2 Gd7 2.909836 1_555
Co2 Gd5 2.909838 1_556
Co3 Gd3 2.695182 1_555
Co3 Gd0 2.695189 1_555
Co3 Gd5 2.909834 1_555
Co3 Gd6 2.909836 1_555
Co3 Gd7 2.909836 1_554
Co3 Gd4 2.909838 1_554
Co4 Co5 2.225486 1_565
Co4 Gd6 2.695182 1_555
Co4 Gd5 2.695189 1_555
Co4 Gd8 2.909834 1_555
Co4 Gd11 2.909836 1_565
Co4 Gd10 2.909836 1_555
Co4 Gd9 2.909838 1_565
Co5 Gd7 2.695182 1_555
Co5 Gd4 2.695189 1_555
Co5 Gd9 2.909834 1_555
Co5 Gd10 2.909836 1_545
Co5 Gd11 2.909836 1_555
Co5 Gd8 2.909838 1_545
