# generated using pymatgen
data_Na2TiFe(PO4)3
_symmetry_space_group_name_H-M   'P 1'
_cell_length_a   8.87838335
_cell_length_b   8.88199045
_cell_length_c   17.75988993
_cell_angle_alpha   58.99173539
_cell_angle_beta   58.92773623
_cell_angle_gamma   58.91145220
_symmetry_Int_Tables_number   1
_chemical_formula_structural   Na2TiFe(PO4)3
_chemical_formula_sum   'Na8 Ti4 Fe4 P12 O48'
_cell_volume   966.43474200
_cell_formula_units_Z   4
loop_
 _symmetry_equiv_pos_site_id
 _symmetry_equiv_pos_as_xyz
  1  'x, y, z'
loop_
 _atom_site_type_symbol
 _atom_site_label
 _atom_site_symmetry_multiplicity
 _atom_site_fract_x
 _atom_site_fract_y
 _atom_site_fract_z
 _atom_site_occupancy
  Na  Na0  1  0.00419400  0.01359500  0.99337300  1
  Na  Na1  1  0.00147700  0.01623900  0.49252000  1
  Na  Na2  1  0.38450200  0.75016700  0.05855700  1
  Na  Na3  1  0.49112000  0.48065800  0.26154000  1
  Na  Na4  1  0.88617700  0.60916800  0.12313600  1
  Na  Na5  1  0.47602700  0.51822300  0.75236000  1
  Na  Na6  1  0.61539400  0.24743200  0.94349600  1
  Na  Na7  1  0.88276100  0.62002200  0.62660100  1
  Ti  Ti0  1  0.14743900  0.13950700  0.57195400  1
  Ti  Ti1  1  0.35707300  0.35495200  0.67838100  1
  Ti  Ti2  1  0.64199900  0.64313000  0.32657400  1
  Ti  Ti3  1  0.85382100  0.86106300  0.42335500  1
  Fe  Fe0  1  0.13976800  0.15160100  0.07368700  1
  Fe  Fe1  1  0.35572200  0.34607600  0.18058500  1
  Fe  Fe2  1  0.64350900  0.65454100  0.82356800  1
  Fe  Fe3  1  0.86055600  0.84989200  0.92171600  1
  P  P0  1  0.03769200  0.74737500  0.23014900  1
  P  P1  1  0.46064500  0.03738200  0.37546300  1
  P  P2  1  0.75126400  0.45415800  0.02124800  1
  P  P3  1  0.25178800  0.53516900  0.48039900  1
  P  P4  1  0.53659900  0.95311100  0.12681000  1
  P  P5  1  0.04011200  0.75012000  0.72585400  1
  P  P6  1  0.96134100  0.24776000  0.27216100  1
  P  P7  1  0.46078900  0.04902800  0.87424000  1
  P  P8  1  0.75252000  0.46242000  0.52089400  1
  P  P9  1  0.25275800  0.54493100  0.97958100  1
  P  P10  1  0.53837800  0.96403200  0.62404500  1
  P  P11  1  0.96484300  0.24624500  0.76902900  1
  O  O0  1  0.12433300  0.28347100  0.25993400  1
  O  O1  1  0.28440900  0.52498900  0.06298200  1
  O  O2  1  0.06139500  0.91444900  0.13889300  1
  O  O3  1  0.49876500  0.12781100  0.14063600  1
  O  O4  1  0.98895500  0.79291800  0.31605800  1
  O  O5  1  0.22216500  0.58068000  0.22234000  1
  O  O6  1  0.27966300  0.05817500  0.46085700  1
  O  O7  1  0.44598800  0.21573100  0.29112000  1
  O  O8  1  0.21192500  0.36881200  0.49683800  1
  O  O9  1  0.57742400  0.44032000  0.11203400  1
  O  O10  1  0.07882600  0.71689000  0.47040500  1
  O  O11  1  0.37590700  0.96943400  0.10878900  1
  O  O12  1  0.62744300  0.99420100  0.39969100  1
  O  O13  1  0.13135000  0.29214100  0.74879000  1
  O  O14  1  0.92016500  0.27389100  0.03225600  1
  O  O15  1  0.42209600  0.56066100  0.39051300  1
  O  O16  1  0.78376700  0.62597600  0.00532500  1
  O  O17  1  0.28422400  0.50100300  0.56615100  1
  O  O18  1  0.57189600  0.76947900  0.21156800  1
  O  O19  1  0.06834700  0.92295500  0.63565100  1
  O  O20  1  0.50283600  0.13168900  0.64386300  1
  O  O21  1  0.72375200  0.93037800  0.04237400  1
  O  O22  1  0.00687900  0.78258800  0.81030200  1
  O  O23  1  0.22541500  0.58214900  0.71162500  1
  O  O24  1  0.77664400  0.41883900  0.28610500  1
  O  O25  1  0.98573600  0.22421900  0.18656400  1
  O  O26  1  0.27898600  0.06322800  0.95991400  1
  O  O27  1  0.49881000  0.86758700  0.35577700  1
  O  O28  1  0.93266900  0.07572300  0.36248400  1
  O  O29  1  0.43067600  0.22919500  0.78827300  1
  O  O30  1  0.71331600  0.50574800  0.43489700  1
  O  O31  1  0.22325400  0.36950800  0.99992400  1
  O  O32  1  0.58058600  0.43650700  0.60997600  1
  O  O33  1  0.07900700  0.72322400  0.96864000  1
  O  O34  1  0.87314300  0.70236300  0.24688800  1
  O  O35  1  0.37218200  0.00238300  0.60163900  1
  O  O36  1  0.62273200  0.03108800  0.89223600  1
  O  O37  1  0.92280600  0.28020200  0.53017100  1
  O  O38  1  0.42474500  0.56082400  0.88838700  1
  O  O39  1  0.79193600  0.62599700  0.50838800  1
  O  O40  1  0.56238000  0.77924000  0.70700600  1
  O  O41  1  0.72405600  0.93662500  0.54002800  1
  O  O42  1  0.78147300  0.41756500  0.77709200  1
  O  O43  1  0.00479900  0.20760700  0.68326200  1
  O  O44  1  0.50206300  0.87585200  0.85749300  1
  O  O45  1  0.93842300  0.08260600  0.86133900  1
  O  O46  1  0.70970600  0.48428600  0.93864400  1
  O  O47  1  0.87967400  0.71279500  0.73460500  1
loop_
_geom_bond_atom_site_label_1
_geom_bond_atom_site_label_2
_geom_bond_distance
_geom_bond_site_symmetry_2
Na0 O14 2.389654 1_456
Na0 O45 2.403784 1_455
Na0 O26 2.417428 1_555
Na0 O2 2.502137 1_546
Na0 O33 2.526396 1_545
Na0 O21 2.550349 1_446
Na1 O28 2.419014 1_455
Na1 O6 2.419852 1_555
Na1 O37 2.423580 1_455
Na1 O41 2.513434 1_445
Na1 O19 2.525961 1_545
Na1 O10 2.570416 1_545
Na2 O9 2.351118 1_555
Na2 O26 2.379794 1_564
Na2 O2 2.447726 1_555
Na2 O11 2.482117 1_555
Na2 O5 2.491184 1_555
Na2 O1 2.529328 1_555
Na2 O16 2.872865 1_555
Na2 O44 2.887152 1_554
Na3 O7 2.335876 1_555
Na3 O5 2.421545 1_555
Na3 O15 2.430105 1_555
Na3 O9 2.522332 1_555
Na3 O24 2.524943 1_555
Na3 O18 2.603837 1_555
Na4 O33 2.358845 1_654
Na4 O24 2.435512 1_555
Na4 O21 2.438528 1_555
Na4 O18 2.440754 1_555
Na4 O16 2.593931 1_555
Na4 O34 2.653670 1_555
Na4 O25 2.771091 1_555
Na4 O1 2.897439 1_655
Na5 O23 2.393782 1_555
Na5 O38 2.411473 1_555
Na5 O40 2.425997 1_555
Na5 O29 2.504901 1_555
Na5 O32 2.560284 1_555
Na5 O42 2.582159 1_555
Na6 O38 2.368218 1_555
Na6 O21 2.406329 1_546
Na6 O45 2.458199 1_555
Na6 O36 2.477360 1_555
Na6 O42 2.528490 1_555
Na6 O46 2.586926 1_555
Na6 O31 2.814390 1_555
Na6 O3 2.832056 1_556
Na7 O42 2.328696 1_555
Na7 O10 2.359817 1_655
Na7 O40 2.421500 1_555
Na7 O47 2.431029 1_555
Na7 O41 2.438579 1_555
Na7 O39 2.578622 1_555
Fe0 O31 1.969361 1_554
Fe0 O25 1.973922 1_455
Fe0 O14 1.998244 1_455
Fe0 O11 2.051508 1_545
Fe0 O26 2.069017 1_554
Fe0 O2 2.104921 1_545
Fe1 O3 1.954219 1_555
Fe1 O0 1.974710 1_555
Fe1 O7 2.039723 1_555
Fe1 O1 2.048106 1_555
Fe1 O9 2.057972 1_555
Fe1 O5 2.104922 1_555
Fe2 O44 1.921951 1_555
Fe2 O46 1.986658 1_555
Fe2 O47 2.004726 1_555
Fe2 O38 2.040803 1_555
Fe2 O40 2.093780 1_555
Fe2 O42 2.166970 1_555
Fe3 O22 1.929661 1_655
Fe3 O16 1.984356 1_556
Fe3 O36 2.021435 1_565
Fe3 O33 2.042260 1_655
Fe3 O45 2.080146 1_565
Fe3 O21 2.138505 1_556
O0 P6 1.523338 1_455
O1 P9 1.553127 1_554
O2 P0 1.538030 1_555
O3 P4 1.532971 1_545
O4 P0 1.566009 1_655
O4 Ti3 1.874963 1_555
O5 P0 1.538386 1_555
O6 P1 1.543601 1_555
O6 Ti0 1.998702 1_555
O7 P1 1.521046 1_555
O8 P3 1.543591 1_555
O8 Ti0 1.967728 1_555
O9 P2 1.555599 1_555
O10 P3 1.556049 1_555
O10 Ti3 2.075459 1_455
O11 P4 1.539089 1_555
O12 P1 1.557709 1_565
O12 Ti3 1.876151 1_555
O13 P11 1.550377 1_455
O13 Ti1 1.933960 1_555
O14 P2 1.533320 1_555
O15 P3 1.541270 1_555
O15 Ti2 1.992288 1_555
O16 P2 1.555023 1_555
O17 P3 1.542945 1_555
O17 Ti1 1.968287 1_555
O18 P4 1.566463 1_555
O18 Ti2 2.011917 1_555
O19 P5 1.560409 1_555
O19 Ti0 1.950732 1_565
O20 P10 1.543064 1_545
O20 Ti1 1.940693 1_555
O21 P4 1.563298 1_555
O22 P5 1.523335 1_555
O23 P5 1.555897 1_555
O23 Ti1 1.966282 1_555
O24 P6 1.566689 1_555
O24 Ti2 2.010775 1_555
O25 P6 1.530515 1_555
O26 P7 1.545561 1_555
O27 P1 1.550710 1_565
O27 Ti2 1.904475 1_555
O28 P6 1.558080 1_555
O28 Ti3 1.940990 1_545
O29 P7 1.557401 1_555
O29 Ti1 1.949433 1_555
O30 P8 1.551358 1_555
O30 Ti2 1.905704 1_555
O31 P9 1.539692 1_555
O32 P8 1.543022 1_555
O32 Ti1 2.006953 1_555
O33 P9 1.547503 1_555
O34 P0 1.554010 1_655
O34 Ti2 1.959858 1_555
O35 P10 1.548869 1_545
O35 Ti0 1.912409 1_555
O36 P7 1.542743 1_555
O37 P8 1.545221 1_555
O37 Ti0 2.021933 1_655
O38 P9 1.552061 1_555
O39 P8 1.547595 1_555
O39 Ti3 2.005293 1_555
O40 P10 1.543198 1_555
O41 P10 1.556933 1_555
O41 Ti3 2.059478 1_555
O42 P11 1.553037 1_555
O43 P11 1.555277 1_455
O43 Ti0 1.932404 1_555
O44 P7 1.537986 1_565
O45 P11 1.534693 1_555
O46 P2 1.553139 1_556
O47 P5 1.539201 1_655
