# generated using pymatgen
data_La5Sm3Co7CuO20
_symmetry_space_group_name_H-M   'P 1'
_cell_length_a   10.92040607
_cell_length_b   11.53138225
_cell_length_c   17.60328912
_cell_angle_alpha   109.06826418
_cell_angle_beta   108.11563767
_cell_angle_gamma   90.03157731
_symmetry_Int_Tables_number   1
_chemical_formula_structural   La5Sm3Co7CuO20
_chemical_formula_sum   'La20 Sm12 Co28 Cu4 O80'
_cell_volume   1978.33893661
_cell_formula_units_Z   4
loop_
 _symmetry_equiv_pos_site_id
 _symmetry_equiv_pos_as_xyz
  1  'x, y, z'
loop_
 _atom_site_type_symbol
 _atom_site_label
 _atom_site_symmetry_multiplicity
 _atom_site_fract_x
 _atom_site_fract_y
 _atom_site_fract_z
 _atom_site_occupancy
  La  La0  1  0.30611000  0.06536500  0.61051400  1
  La  La1  1  0.30755400  0.56745600  0.61187900  1
  La  La2  1  0.80557900  0.06688900  0.61087800  1
  La  La3  1  0.80551400  0.56685800  0.61316400  1
  La  La4  1  0.19491600  0.43323300  0.38847300  1
  La  La5  1  0.18745800  0.43511700  0.89038900  1
  La  La6  1  0.19282300  0.93335400  0.38573000  1
  La  La7  1  0.69347100  0.43294600  0.38664300  1
  La  La8  1  0.69461700  0.93190800  0.38584400  1
  La  La9  1  0.05417600  0.29495600  0.11221000  1
  La  La10  1  0.05687200  0.29563700  0.61106300  1
  La  La11  1  0.05351800  0.79690400  0.61330000  1
  La  La12  1  0.55616900  0.29646900  0.61297900  1
  La  La13  1  0.44422200  0.20285900  0.38632900  1
  La  La14  1  0.44587200  0.20497600  0.89061100  1
  La  La15  1  0.44388100  0.70416300  0.38712800  1
  La  La16  1  0.44289300  0.70685800  0.88966300  1
  La  La17  1  0.94325300  0.20414600  0.38604600  1
  La  La18  1  0.94166100  0.20289600  0.88869900  1
  La  La19  1  0.94411800  0.70316700  0.38634600  1
  Sm  Sm0  1  0.29740800  0.06750800  0.10824100  1
  Sm  Sm1  1  0.29895200  0.56977500  0.10977600  1
  Sm  Sm2  1  0.79405200  0.06588200  0.10671900  1
  Sm  Sm3  1  0.79996500  0.56970900  0.10863800  1
  Sm  Sm4  1  0.18766400  0.93318800  0.89243100  1
  Sm  Sm5  1  0.69404400  0.43365800  0.89248900  1
  Sm  Sm6  1  0.69073400  0.92964900  0.88917500  1
  Sm  Sm7  1  0.04838700  0.78930800  0.10886000  1
  Sm  Sm8  1  0.55124000  0.28966000  0.10959900  1
  Sm  Sm9  1  0.54825800  0.79316900  0.10920200  1
  Sm  Sm10  1  0.55419200  0.79351300  0.61112500  1
  Sm  Sm11  1  0.94080800  0.71364800  0.89231100  1
  Co  Co0  1  0.00422600  0.99933700  0.49937000  1
  Co  Co1  1  0.00413800  0.50093200  0.49995300  1
  Co  Co2  1  0.50486800  0.99859700  0.50009200  1
  Co  Co3  1  0.50497500  0.50051200  0.00330700  1
  Co  Co4  1  0.50487400  0.50022600  0.49979300  1
  Co  Co5  1  0.25492400  0.25138000  0.00147500  1
  Co  Co6  1  0.25440700  0.24935400  0.49934400  1
  Co  Co7  1  0.25314200  0.75215900  0.00233500  1
  Co  Co8  1  0.25515300  0.75085600  0.50096200  1
  Co  Co9  1  0.75386000  0.24997200  0.00144500  1
  Co  Co10  1  0.75399600  0.24971800  0.49943400  1
  Co  Co11  1  0.75355300  0.74975400  0.49981900  1
  Co  Co12  1  0.10551300  0.09233800  0.24836200  1
  Co  Co13  1  0.10964100  0.09386400  0.75277300  1
  Co  Co14  1  0.10641200  0.59681200  0.24910900  1
  Co  Co15  1  0.10685500  0.59895400  0.75345800  1
  Co  Co16  1  0.60570200  0.09291700  0.24813600  1
  Co  Co17  1  0.60767600  0.09395400  0.75192300  1
  Co  Co18  1  0.60472000  0.59335900  0.24476100  1
  Co  Co19  1  0.61072400  0.59666900  0.75059500  1
  Co  Co20  1  0.35846500  0.40422300  0.24616800  1
  Co  Co21  1  0.36117700  0.40591900  0.75265500  1
  Co  Co22  1  0.35442000  0.90347700  0.24608600  1
  Co  Co23  1  0.35960400  0.90465000  0.75011200  1
  Co  Co24  1  0.85260400  0.40237800  0.24474100  1
  Co  Co25  1  0.85535300  0.40777800  0.75046200  1
  Co  Co26  1  0.85601900  0.90454000  0.24751200  1
  Co  Co27  1  0.85416600  0.90216100  0.74946000  1
  Cu  Cu0  1  0.99927200  0.00050000  0.00233000  1
  Cu  Cu1  1  0.00026300  0.50237200  0.00070900  1
  Cu  Cu2  1  0.49987700  0.99900300  0.00132500  1
  Cu  Cu3  1  0.75106800  0.75028500  0.00183700  1
  O  O0  1  0.11812800  0.11837000  0.48191800  1
  O  O1  1  0.11926000  0.11933300  0.98574900  1
  O  O2  1  0.11974700  0.61994800  0.48391100  1
  O  O3  1  0.11135200  0.62452600  0.98529500  1
  O  O4  1  0.61802800  0.11592200  0.48165000  1
  O  O5  1  0.61792600  0.11649000  0.98602900  1
  O  O6  1  0.61781700  0.61928600  0.48280600  1
  O  O7  1  0.62118000  0.61675600  0.98203400  1
  O  O8  1  0.13336600  0.38460300  0.01759600  1
  O  O9  1  0.13573300  0.38175100  0.51666900  1
  O  O10  1  0.13077100  0.88146800  0.01868900  1
  O  O11  1  0.13638400  0.88076800  0.51838600  1
  O  O12  1  0.63561000  0.38008200  0.02235700  1
  O  O13  1  0.63518100  0.38241000  0.51697700  1
  O  O14  1  0.63203600  0.87774900  0.01772100  1
  O  O15  1  0.63475800  0.87887500  0.52056300  1
  O  O16  1  0.36826400  0.11169400  0.48258300  1
  O  O17  1  0.36439700  0.10971800  0.98343200  1
  O  O18  1  0.37020900  0.61543200  0.48345000  1
  O  O19  1  0.36788600  0.61539500  0.98743700  1
  O  O20  1  0.86855300  0.11338000  0.48202400  1
  O  O21  1  0.86100200  0.10674500  0.98039700  1
  O  O22  1  0.86828300  0.61538800  0.48143000  1
  O  O23  1  0.86658800  0.61490400  0.98509900  1
  O  O24  1  0.38649700  0.39001000  0.02396100  1
  O  O25  1  0.38567900  0.38702300  0.51684700  1
  O  O26  1  0.38307700  0.89079700  0.02012400  1
  O  O27  1  0.38935900  0.88346400  0.51919000  1
  O  O28  1  0.87846100  0.39304400  0.01528900  1
  O  O29  1  0.88532500  0.38679800  0.51610700  1
  O  O30  1  0.87769000  0.88418200  0.01496000  1
  O  O31  1  0.88431200  0.88413000  0.51592600  1
  O  O32  1  0.11786000  0.12554600  0.15104900  1
  O  O33  1  0.08972700  0.11114400  0.64230900  1
  O  O34  1  0.11855100  0.62641800  0.15081700  1
  O  O35  1  0.08958200  0.61286000  0.64238000  1
  O  O36  1  0.61569500  0.12415700  0.14992700  1
  O  O37  1  0.59245600  0.11408200  0.64298500  1
  O  O38  1  0.60818700  0.62089400  0.14210000  1
  O  O39  1  0.59193200  0.61407000  0.64070100  1
  O  O40  1  0.44982600  0.38724300  0.35667600  1
  O  O41  1  0.46253300  0.38855900  0.86015400  1
  O  O42  1  0.44713700  0.88760000  0.35720300  1
  O  O43  1  0.46914600  0.87629600  0.84992400  1
  O  O44  1  0.94650400  0.38973900  0.35700200  1
  O  O45  1  0.95467700  0.37570400  0.85068700  1
  O  O46  1  0.94576900  0.88970000  0.35926900  1
  O  O47  1  0.96585700  0.87839400  0.85061600  1
  O  O48  1  0.35444700  0.27426400  0.14128300  1
  O  O49  1  0.34047700  0.28022400  0.64167600  1
  O  O50  1  0.35658500  0.77679700  0.14191800  1
  O  O51  1  0.35096800  0.78056500  0.64128400  1
  O  O52  1  0.84935200  0.27351500  0.13956200  1
  O  O53  1  0.83792600  0.28256100  0.63969500  1
  O  O54  1  0.86768400  0.77436200  0.14989600  1
  O  O55  1  0.83998900  0.77826200  0.63959500  1
  O  O56  1  0.19783500  0.21893100  0.35925000  1
  O  O57  1  0.20405900  0.22256200  0.86069400  1
  O  O58  1  0.19556100  0.72187700  0.36046300  1
  O  O59  1  0.20770300  0.72517600  0.86113400  1
  O  O60  1  0.69720000  0.21896100  0.35952400  1
  O  O61  1  0.69922200  0.22335300  0.86045600  1
  O  O62  1  0.69600900  0.71861500  0.35675100  1
  O  O63  1  0.71755100  0.72548100  0.85047700  1
  O  O64  1  0.41774300  0.06688500  0.24411600  1
  O  O65  1  0.42045000  0.07071600  0.75088100  1
  O  O66  1  0.41865000  0.56830900  0.24399700  1
  O  O67  1  0.42524800  0.56845200  0.75069200  1
  O  O68  1  0.91683600  0.06737500  0.24325400  1
  O  O69  1  0.92178700  0.06624100  0.74980200  1
  O  O70  1  0.91785200  0.56537600  0.24319800  1
  O  O71  1  0.92343800  0.57469700  0.75700800  1
  O  O72  1  0.17443200  0.43364800  0.25005200  1
  O  O73  1  0.17474400  0.43466500  0.75142100  1
  O  O74  1  0.16772100  0.92610000  0.24430000  1
  O  O75  1  0.17713200  0.93194800  0.75694700  1
  O  O76  1  0.66582200  0.42746900  0.24367000  1
  O  O77  1  0.67146200  0.43247200  0.75615500  1
  O  O78  1  0.66682800  0.92530600  0.24375100  1
  O  O79  1  0.66896000  0.92822100  0.75039600  1
loop_
_geom_bond_atom_site_label_1
_geom_bond_atom_site_label_2
_geom_bond_distance
_geom_bond_site_symmetry_2
La0 O49 2.358663 1_555
La0 O65 2.376973 1_555
La0 O11 2.543113 1_545
La0 O27 2.553110 1_545
La0 O33 2.608916 1_555
La0 O16 2.748435 1_555
La0 O0 2.779875 1_555
La0 O37 3.016167 1_555
La1 O51 2.355142 1_555
La1 O67 2.377316 1_555
La1 O25 2.543766 1_555
La1 O9 2.571055 1_555
La1 O35 2.615515 1_555
La1 O18 2.768403 1_555
La1 O2 2.768825 1_555
La1 O39 3.005121 1_555
La2 O53 2.372878 1_555
La2 O69 2.381822 1_555
La2 O31 2.562920 1_545
La2 O15 2.570411 1_545
La2 O37 2.578911 1_555
La2 O4 2.762918 1_555
La2 O20 2.769386 1_555
La2 O33 2.990207 1_655
La3 O55 2.334513 1_555
La3 O71 2.429140 1_555
La3 O39 2.550202 1_555
La3 O13 2.556318 1_555
La3 O29 2.569049 1_555
La3 O6 2.795617 1_555
La3 O22 2.827820 1_555
La3 O35 2.999490 1_655
La4 O56 2.356298 1_555
La4 O72 2.378246 1_555
La4 O18 2.565942 1_555
La4 O2 2.574526 1_555
La4 O44 2.607661 1_455
La4 O25 2.755157 1_555
La4 O9 2.764890 1_555
La4 O40 3.019981 1_555
La5 O57 2.352881 1_555
La5 O73 2.405017 1_555
La5 O45 2.449553 1_455
La5 O19 2.589239 1_555
La5 O3 2.594921 1_555
La5 O8 2.716060 1_556
La5 O24 2.854083 1_556
La5 O41 3.225591 1_555
La6 O58 2.333506 1_555
La6 O74 2.391633 1_555
La6 O16 2.545596 1_565
La6 O0 2.566053 1_565
La6 O46 2.610171 1_455
La6 O11 2.832048 1_555
La6 O27 2.864536 1_555
La6 O42 2.989855 1_555
La7 O60 2.358146 1_555
La7 O76 2.419290 1_555
La7 O22 2.564286 1_555
La7 O40 2.565020 1_555
La7 O6 2.580752 1_555
La7 O29 2.773243 1_555
La7 O13 2.791061 1_555
La7 O44 2.980631 1_555
La8 O62 2.343890 1_555
La8 O78 2.399567 1_555
La8 O20 2.556227 1_565
La8 O4 2.566579 1_565
La8 O42 2.608067 1_555
La8 O31 2.777415 1_555
La8 O15 2.887295 1_555
La8 O46 2.937453 1_555
La9 O32 2.312114 1_555
La9 O72 2.377107 1_555
La9 O52 2.458245 1_455
La9 O8 2.571016 1_555
La9 O28 2.664528 1_455
La9 O1 2.757170 1_554
La9 O21 2.864447 1_454
La9 O48 3.179351 1_555
La10 O33 2.366441 1_555
La10 O73 2.400745 1_555
La10 O9 2.540839 1_555
La10 O29 2.571287 1_455
La10 O53 2.606190 1_455
La10 O0 2.775801 1_555
La10 O20 2.788733 1_455
La10 O49 2.989849 1_555
La11 O35 2.346619 1_555
La11 O75 2.437922 1_555
La11 O55 2.536444 1_455
La11 O31 2.554038 1_455
La11 O11 2.557478 1_555
La11 O22 2.786071 1_455
La11 O2 2.804283 1_555
La11 O51 3.145742 1_555
La12 O37 2.335804 1_555
La12 O77 2.416369 1_555
La12 O13 2.565673 1_555
La12 O25 2.572518 1_555
La12 O49 2.576760 1_555
La12 O16 2.808903 1_555
La12 O4 2.821930 1_555
La12 O53 2.977275 1_555
La13 O40 2.354113 1_555
La13 O64 2.407038 1_555
La13 O4 2.558076 1_555
La13 O16 2.588640 1_555
La13 O56 2.600351 1_555
La13 O13 2.797548 1_555
La13 O25 2.815013 1_555
La13 O60 2.959144 1_555
La14 O41 2.367262 1_555
La14 O65 2.368724 1_555
La14 O57 2.548978 1_555
La14 O5 2.559699 1_555
La14 O17 2.596877 1_555
La14 O12 2.774226 1_556
La14 O24 2.856366 1_556
La14 O61 2.994559 1_555
La15 O42 2.343673 1_555
La15 O66 2.422223 1_555
La15 O6 2.547985 1_555
La15 O18 2.559331 1_555
La15 O58 2.624379 1_555
La15 O27 2.784839 1_555
La15 O15 2.789219 1_555
La15 O62 2.977903 1_555
La16 O43 2.325132 1_555
La16 O67 2.392577 1_555
La16 O59 2.482165 1_555
La16 O7 2.579058 1_555
La16 O19 2.609119 1_555
La16 O14 2.725571 1_556
La16 O26 2.819826 1_556
La17 O44 2.359875 1_555
La17 O68 2.418092 1_555
La17 O0 2.561651 1_655
La17 O20 2.574301 1_555
La17 O60 2.596075 1_555
La17 O9 2.795089 1_655
La17 O29 2.798136 1_555
La17 O56 2.974605 1_655
La18 O45 2.317094 1_555
La18 O69 2.379223 1_555
La18 O61 2.563400 1_555
La18 O1 2.574066 1_655
La18 O21 2.581337 1_555
La18 O8 2.802909 1_656
La18 O28 2.831155 1_556
La18 O57 3.075111 1_655
La19 O46 2.351475 1_555
La19 O70 2.427064 1_555
La19 O22 2.545596 1_555
La19 O2 2.565059 1_655
La19 O62 2.612975 1_555
La19 O31 2.793214 1_555
La19 O11 2.802734 1_655
La19 O58 2.938619 1_655
Co0 O20 2.000247 1_465
Co0 O0 2.009205 1_565
Co0 O31 2.013218 1_455
Co0 O11 2.016218 1_555
Co0 O46 2.251891 1_455
Co0 O33 2.298546 1_565
Co1 O29 1.992137 1_455
Co1 O2 2.007537 1_555
Co1 O22 2.007946 1_455
Co1 O9 2.010960 1_555
Co1 O35 2.291721 1_555
Co1 O44 2.297497 1_455
Co2 O4 1.999370 1_565
Co2 O16 2.000020 1_565
Co2 O27 2.005069 1_555
Co2 O15 2.014238 1_555
Co2 O42 2.296071 1_555
Co2 O37 2.308506 1_565
Co3 O24 2.005814 1_555
Co3 O19 2.014487 1_554
Co3 O12 2.021170 1_555
Co3 O7 2.041825 1_554
Co3 O38 2.288328 1_555
Co3 O41 2.319279 1_554
Co4 O13 1.991270 1_555
Co4 O25 1.996412 1_555
Co4 O6 1.997827 1_555
Co4 O18 1.999766 1_555
Co4 O39 2.276920 1_555
Co4 O40 2.306191 1_555
Co5 O24 2.001752 1_555
Co5 O1 2.014227 1_554
Co5 O17 2.024318 1_554
Co5 O8 2.038235 1_555
Co5 O57 2.272917 1_554
Co5 O48 2.284673 1_555
Co6 O0 2.000296 1_555
Co6 O9 2.011756 1_555
Co6 O25 2.018268 1_555
Co6 O16 2.019200 1_555
Co6 O56 2.252441 1_555
Co6 O49 2.289134 1_555
Co7 O10 2.013221 1_555
Co7 O26 2.015277 1_555
Co7 O19 2.015536 1_554
Co7 O3 2.018386 1_554
Co7 O50 2.282906 1_555
Co7 O59 2.291015 1_554
Co8 O11 1.992438 1_555
Co8 O27 1.993413 1_555
Co8 O2 1.995204 1_555
Co8 O18 2.010194 1_555
Co8 O58 2.260740 1_555
Co8 O51 2.270050 1_555
Co9 O12 1.997747 1_555
Co9 O21 2.026313 1_554
Co9 O5 2.029908 1_554
Co9 O28 2.039948 1_555
Co9 O52 2.250369 1_555
Co9 O61 2.278387 1_554
Co10 O20 2.014058 1_555
Co10 O13 2.015637 1_555
Co10 O29 2.018480 1_555
Co10 O4 2.018892 1_555
Co10 O60 2.248402 1_555
Co10 O53 2.249681 1_555
Co11 O15 1.993672 1_555
Co11 O6 1.994345 1_555
Co11 O31 1.994794 1_555
Co11 O22 2.000475 1_555
Co11 O55 2.253894 1_555
Co11 O62 2.300261 1_555
Co12 O32 1.916109 1_555
Co12 O56 1.967342 1_555
Co12 O74 2.020744 1_545
Co12 O68 2.050253 1_455
Co13 O57 1.952619 1_555
Co13 O33 1.964291 1_555
Co13 O75 2.022921 1_545
Co13 O69 2.057738 1_455
Co14 O34 1.912194 1_555
Co14 O58 1.958223 1_555
Co14 O72 2.026421 1_555
Co14 O70 2.055147 1_455
Co15 O59 1.954895 1_555
Co15 O35 1.964734 1_555
Co15 O73 2.028218 1_555
Co15 O71 2.045178 1_455
Co16 O36 1.911710 1_555
Co16 O60 1.968136 1_555
Co16 O78 2.030564 1_545
Co16 O64 2.050208 1_555
Co17 O61 1.955504 1_555
Co17 O37 1.962549 1_555
Co17 O79 2.019917 1_545
Co17 O65 2.055560 1_555
Co18 O38 1.945655 1_555
Co18 O62 1.970332 1_555
Co18 O76 2.022453 1_555
Co18 O66 2.047511 1_555
Co19 O63 1.916986 1_555
Co19 O39 1.957408 1_555
Co19 O77 2.028954 1_555
Co19 O67 2.051878 1_555
Co20 O48 1.948930 1_555
Co20 O40 1.964712 1_555
Co20 O66 2.018692 1_555
Co20 O72 2.056649 1_555
Co21 O41 1.947140 1_555
Co21 O49 1.960451 1_555
Co21 O67 2.014794 1_555
Co21 O73 2.057495 1_555
Co22 O50 1.942609 1_555
Co22 O42 1.971625 1_555
Co22 O64 2.021442 1_565
Co22 O74 2.047425 1_555
Co23 O43 1.921911 1_555
Co23 O51 1.955189 1_555
Co23 O65 2.021107 1_565
Co23 O75 2.051666 1_555
Co24 O52 1.949053 1_555
Co24 O44 1.976397 1_555
Co24 O70 2.021195 1_555
Co24 O76 2.055454 1_555
Co25 O45 1.913832 1_555
Co25 O53 1.962766 1_555
Co25 O71 2.017721 1_555
Co25 O77 2.056937 1_555
Co26 O54 1.916591 1_555
Co26 O46 1.970079 1_555
Co26 O68 2.023377 1_565
Co26 O78 2.063031 1_555
Co27 O47 1.924113 1_555
Co27 O55 1.952865 1_555
Co27 O69 2.028182 1_565
Co27 O79 2.049229 1_555
Cu0 O21 1.969422 1_554
Cu0 O30 1.996959 1_545
Cu0 O10 2.008084 1_645
Cu0 O1 2.043787 1_654
Cu0 O32 2.456226 1_655
Cu0 O47 2.486883 1_544
Cu1 O28 1.961211 1_455
Cu1 O23 1.968755 1_454
Cu1 O3 1.995505 1_554
Cu1 O8 2.010636 1_555
Cu1 O45 2.452924 1_454
Cu1 O34 2.470356 1_555
Cu2 O26 1.955471 1_555
Cu2 O17 1.973096 1_564
Cu2 O5 2.005524 1_564
Cu2 O14 2.031777 1_555
Cu2 O36 2.449317 1_565
Cu2 O43 2.489396 1_554
Cu3 O7 1.960549 1_554
Cu3 O14 1.971771 1_555
Cu3 O30 1.978722 1_555
Cu3 O23 2.012005 1_554
Cu3 O54 2.440190 1_555
Cu3 O63 2.492079 1_554
O1 Sm4 2.514945 1_545
O1 Sm0 2.650648 1_556
O3 Sm11 2.531681 1_455
O3 Sm7 2.654372 1_556
O3 Sm1 2.740621 1_556
O5 Sm6 2.574062 1_545
O5 Sm2 2.612237 1_556
O5 Sm8 2.719951 1_556
O6 Sm10 2.762942 1_555
O7 Sm5 2.486563 1_555
O7 Sm3 2.675508 1_556
O7 Sm9 2.814000 1_556
O8 Sm1 2.523782 1_555
O10 Sm0 2.530004 1_565
O10 Sm7 2.539200 1_555
O10 Sm11 2.703748 1_454
O10 Sm4 2.721371 1_554
O12 Sm8 2.493945 1_555
O12 Sm3 2.537743 1_555
O12 Sm5 2.800847 1_554
O14 Sm9 2.514561 1_555
O14 Sm2 2.518438 1_565
O14 Sm6 2.770546 1_554
O15 Sm10 2.486168 1_555
O17 Sm4 2.525315 1_545
O17 Sm0 2.701284 1_556
O17 Sm8 2.750919 1_556
O18 Sm10 2.734357 1_555
O19 Sm9 2.678742 1_556
O19 Sm1 2.688726 1_556
O21 Sm6 2.490529 1_545
O21 Sm2 2.719672 1_556
O23 Sm5 2.536812 1_555
O23 Sm11 2.580473 1_555
O23 Sm7 2.678710 1_656
O23 Sm3 2.693373 1_556
O24 Sm8 2.510733 1_555
O24 Sm1 2.519385 1_555
O26 Sm0 2.504578 1_565
O26 Sm9 2.525223 1_555
O26 Sm4 2.753475 1_554
O27 Sm10 2.494481 1_555
O28 Sm3 2.505160 1_555
O28 Sm5 2.627412 1_554
O30 Sm2 2.557660 1_565
O30 Sm7 2.582949 1_655
O30 Sm11 2.675150 1_554
O30 Sm6 2.700819 1_554
O32 Sm0 2.334741 1_555
O34 Sm7 2.284052 1_555
O34 Sm1 2.325483 1_555
O36 Sm8 2.284223 1_555
O36 Sm2 2.326478 1_555
O38 Sm9 2.286387 1_555
O38 Sm3 2.371237 1_555
O39 Sm10 2.300874 1_555
O41 Sm5 2.428259 1_555
O43 Sm6 2.322145 1_555
O45 Sm5 3.173685 1_555
O47 Sm11 2.293016 1_555
O47 Sm4 2.322471 1_655
O48 Sm0 2.297302 1_555
O48 Sm8 2.402232 1_555
O50 Sm1 2.304248 1_555
O50 Sm9 2.359836 1_555
O51 Sm10 2.452247 1_555
O52 Sm2 2.304003 1_555
O52 Sm8 3.147726 1_555
O54 Sm3 2.277681 1_555
O54 Sm7 2.326601 1_655
O55 Sm10 3.018004 1_555
O59 Sm4 2.305886 1_555
O59 Sm11 3.139388 1_455
O61 Sm5 2.308417 1_555
O63 Sm6 2.273684 1_555
O63 Sm11 2.335497 1_555
O64 Sm0 2.346160 1_555
O66 Sm1 2.323130 1_555
O68 Sm2 2.354498 1_555
O70 Sm3 2.334872 1_555
O71 Sm11 2.345500 1_555
O74 Sm7 2.340749 1_555
O75 Sm4 2.347045 1_555
O76 Sm8 2.317730 1_555
O77 Sm5 2.330484 1_555
O78 Sm9 2.311007 1_555
O79 Sm10 2.364951 1_555
O79 Sm6 2.374315 1_555
