# generated using pymatgen
data_Li3Fe3WO8
_symmetry_space_group_name_H-M   'P 1'
_cell_length_a   6.09693403
_cell_length_b   6.09693403
_cell_length_c   6.10601766
_cell_angle_alpha   61.23154928
_cell_angle_beta   61.23154928
_cell_angle_gamma   60.27109783
_symmetry_Int_Tables_number   1
_chemical_formula_structural   Li3Fe3WO8
_chemical_formula_sum   'Li3 Fe3 W1 O8'
_cell_volume   163.76383830
_cell_formula_units_Z   1
loop_
 _symmetry_equiv_pos_site_id
 _symmetry_equiv_pos_as_xyz
  1  'x, y, z'
loop_
 _atom_site_type_symbol
 _atom_site_label
 _atom_site_symmetry_multiplicity
 _atom_site_fract_x
 _atom_site_fract_y
 _atom_site_fract_z
 _atom_site_occupancy
  Li  Li0  1  0.00000000  0.00000000  0.00000000  1
  Li  Li1  1  0.50000000  0.00000000  0.50000000  1
  Li  Li2  1  0.00000000  0.50000000  0.50000000  1
  Fe  Fe0  1  0.50000000  0.50000000  0.50000000  1
  Fe  Fe1  1  0.00000000  0.50000000  0.00000000  1
  Fe  Fe2  1  0.50000000  0.00000000  0.00000000  1
  W  W0  1  0.00000000  0.00000000  0.50000000  1
  O  O0  1  0.27390600  0.27390600  0.74231300  1
  O  O1  1  0.77716800  0.77716800  0.72300000  1
  O  O2  1  0.23023200  0.75865400  0.28097000  1
  O  O3  1  0.72609400  0.72609400  0.25768700  1
  O  O4  1  0.75865400  0.23023200  0.28097000  1
  O  O5  1  0.22283200  0.22283200  0.27700000  1
  O  O6  1  0.76976800  0.24134600  0.71903000  1
  O  O7  1  0.24134600  0.76976800  0.71903000  1
loop_
_geom_bond_atom_site_label_1
_geom_bond_atom_site_label_2
_geom_bond_distance
_geom_bond_site_symmetry_2
Li0 O2 2.217763 1_545
Li0 O4 2.217763 1_455
Li0 O7 2.217763 1_544
Li0 O6 2.217763 1_454
Li0 O3 2.400208 1_445
Li0 O0 2.400208 1_554
Li1 O7 2.145777 1_545
Li1 O4 2.145777 1_555
Li1 O5 2.170876 1_555
Li1 O1 2.170876 1_545
Li1 O0 2.238343 1_555
Li1 O3 2.238343 1_545
Li2 O6 2.145777 1_455
Li2 O2 2.145777 1_555
Li2 O1 2.170876 1_455
Li2 O5 2.170876 1_555
Li2 O3 2.238343 1_455
Li2 O0 2.238343 1_555
Fe0 O0 1.986916 1_555
Fe0 O3 1.986916 1_555
Fe0 O2 2.120265 1_555
Fe0 O6 2.120265 1_555
Fe0 O4 2.120265 1_555
Fe0 O7 2.120265 1_555
Fe1 O0 2.107164 1_554
Fe1 O3 2.107164 1_455
Fe1 O5 2.178492 1_555
Fe1 O1 2.178492 1_454
Fe1 O7 2.251255 1_554
Fe1 O4 2.251255 1_455
Fe2 O0 2.107164 1_554
Fe2 O3 2.107164 1_545
Fe2 O5 2.178492 1_555
Fe2 O1 2.178492 1_544
Fe2 O6 2.251255 1_554
Fe2 O2 2.251255 1_545
O1 W0 1.953201 1_665
O2 W0 1.990711 1_565
O4 W0 1.990711 1_655
O5 W0 1.953201 1_555
O6 W0 1.990711 1_655
O7 W0 1.990711 1_565
