# generated using pymatgen
data_Na2HoNb5O15
_symmetry_space_group_name_H-M   'P 1'
_cell_length_a   12.65070200
_cell_length_b   12.65070200
_cell_length_c   3.93660400
_cell_angle_alpha   90.00000000
_cell_angle_beta   90.00000000
_cell_angle_gamma   90.00000000
_symmetry_Int_Tables_number   1
_chemical_formula_structural   Na2HoNb5O15
_chemical_formula_sum   'Na4 Ho2 Nb10 O30'
_cell_volume   630.01513198
_cell_formula_units_Z   2
loop_
 _symmetry_equiv_pos_site_id
 _symmetry_equiv_pos_as_xyz
  1  'x, y, z'
loop_
 _atom_site_type_symbol
 _atom_site_label
 _atom_site_symmetry_multiplicity
 _atom_site_fract_x
 _atom_site_fract_y
 _atom_site_fract_z
 _atom_site_occupancy
  Na  Na0  1  0.67310600  0.17310600  0.50000000  1
  Na  Na1  1  0.32689400  0.82689400  0.50000000  1
  Na  Na2  1  0.17310600  0.32689400  0.50000000  1
  Na  Na3  1  0.82689400  0.67310600  0.50000000  1
  Ho  Ho0  1  0.00000000  0.00000000  0.50000000  1
  Ho  Ho1  1  0.50000000  0.50000000  0.50000000  1
  Nb  Nb0  1  0.50000000  0.00000000  0.00000000  1
  Nb  Nb1  1  0.00000000  0.50000000  0.00000000  1
  Nb  Nb2  1  0.21191200  0.07836300  0.00000000  1
  Nb  Nb3  1  0.78808800  0.92163700  0.00000000  1
  Nb  Nb4  1  0.07836300  0.78808800  0.00000000  1
  Nb  Nb5  1  0.71191200  0.42163700  0.00000000  1
  Nb  Nb6  1  0.92163700  0.21191200  0.00000000  1
  Nb  Nb7  1  0.28808800  0.57836300  0.00000000  1
  Nb  Nb8  1  0.57836300  0.71191200  0.00000000  1
  Nb  Nb9  1  0.42163700  0.28808800  0.00000000  1
  O  O0  1  0.18670500  0.08152100  0.50000000  1
  O  O1  1  0.81329500  0.91847900  0.50000000  1
  O  O2  1  0.08152100  0.81329500  0.50000000  1
  O  O3  1  0.68670500  0.41847900  0.50000000  1
  O  O4  1  0.91847900  0.18670500  0.50000000  1
  O  O5  1  0.31329500  0.58152100  0.50000000  1
  O  O6  1  0.58152100  0.68670500  0.50000000  1
  O  O7  1  0.41847900  0.31329500  0.50000000  1
  O  O8  1  0.22478800  0.72478800  0.00000000  1
  O  O9  1  0.77521200  0.27521200  0.00000000  1
  O  O10  1  0.72478800  0.77521200  0.00000000  1
  O  O11  1  0.27521200  0.22478800  0.00000000  1
  O  O12  1  0.50000000  0.00000000  0.50000000  1
  O  O13  1  0.00000000  0.50000000  0.50000000  1
  O  O14  1  0.05591700  0.12990500  0.00000000  1
  O  O15  1  0.94408300  0.87009500  0.00000000  1
  O  O16  1  0.12990500  0.94408300  0.00000000  1
  O  O17  1  0.55591700  0.37009500  0.00000000  1
  O  O18  1  0.87009500  0.05591700  0.00000000  1
  O  O19  1  0.44408300  0.62990500  0.00000000  1
  O  O20  1  0.62990500  0.55591700  0.00000000  1
  O  O21  1  0.37009500  0.44408300  0.00000000  1
  O  O22  1  0.34075100  0.99763100  0.00000000  1
  O  O23  1  0.65924900  0.00236900  0.00000000  1
  O  O24  1  0.99763100  0.65924900  0.00000000  1
  O  O25  1  0.84075100  0.50236900  0.00000000  1
  O  O26  1  0.00236900  0.34075100  0.00000000  1
  O  O27  1  0.15924900  0.49763100  0.00000000  1
  O  O28  1  0.49763100  0.84075100  0.00000000  1
  O  O29  1  0.50236900  0.15924900  0.00000000  1
loop_
_geom_bond_atom_site_label_1
_geom_bond_atom_site_label_2
_geom_bond_distance
_geom_bond_site_symmetry_2
Na0 O9 2.685378 1_556
Na0 O9 2.685378 1_555
Na0 O23 2.927507 1_556
Na0 O23 2.927507 1_555
Na0 O29 2.927507 1_555
Na0 O29 2.927507 1_556
Na1 O8 2.685378 1_556
Na1 O8 2.685378 1_555
Na1 O22 2.927507 1_555
Na1 O22 2.927507 1_556
Na1 O28 2.927507 1_555
Na1 O28 2.927507 1_556
Na2 O11 2.685378 1_556
Na2 O11 2.685378 1_555
Na2 O26 2.927507 1_555
Na2 O26 2.927507 1_556
Na2 O27 2.927507 1_556
Na2 O27 2.927507 1_555
Na3 O10 2.685378 1_556
Na3 O10 2.685378 1_555
Na3 O24 2.927507 1_556
Na3 O24 2.927507 1_555
Na3 O25 2.927507 1_556
Na3 O25 2.927507 1_555
Ho0 O0 2.577281 1_555
Ho0 O4 2.577281 1_455
Ho0 O2 2.577281 1_545
Ho0 O1 2.577281 1_445
Ho0 O14 2.659951 1_555
Ho0 O14 2.659951 1_556
Ho0 O18 2.659951 1_456
Ho0 O18 2.659951 1_455
Ho0 O16 2.659951 1_545
Ho0 O16 2.659951 1_546
Ho0 O15 2.659951 1_446
Ho0 O15 2.659951 1_445
Ho1 O5 2.577281 1_555
Ho1 O6 2.577281 1_555
Ho1 O7 2.577281 1_555
Ho1 O3 2.577281 1_555
Ho1 O19 2.659951 1_556
Ho1 O19 2.659951 1_555
Ho1 O20 2.659951 1_555
Ho1 O20 2.659951 1_556
Ho1 O17 2.659951 1_555
Ho1 O17 2.659951 1_556
Ho1 O21 2.659951 1_555
Ho1 O21 2.659951 1_556
Nb0 O12 1.968302 1_554
Nb0 O12 1.968302 1_555
Nb0 O23 2.014835 1_555
Nb0 O29 2.014835 1_555
Nb0 O22 2.014835 1_545
Nb0 O28 2.014835 1_545
Nb1 O13 1.968302 1_555
Nb1 O13 1.968302 1_554
Nb1 O24 2.014835 1_455
Nb1 O27 2.014835 1_555
Nb1 O25 2.014835 1_455
Nb1 O26 2.014835 1_555
Nb2 O22 1.923454 1_545
Nb2 O16 1.990477 1_545
Nb2 O0 1.994366 1_555
Nb2 O0 1.994366 1_554
Nb2 O11 2.018061 1_555
Nb2 O14 2.078377 1_555
Nb3 O23 1.923454 1_565
Nb3 O18 1.990477 1_565
Nb3 O1 1.994366 1_554
Nb3 O1 1.994366 1_555
Nb3 O10 2.018061 1_555
Nb3 O15 2.078377 1_555
Nb4 O24 1.923454 1_455
Nb4 O15 1.990477 1_455
Nb4 O2 1.994366 1_554
Nb4 O2 1.994366 1_555
Nb4 O8 2.018061 1_555
Nb4 O16 2.078377 1_555
Nb5 O25 1.923454 1_555
Nb5 O20 1.990477 1_555
Nb5 O3 1.994366 1_554
Nb5 O3 1.994366 1_555
Nb5 O9 2.018061 1_555
Nb5 O17 2.078377 1_555
Nb6 O26 1.923454 1_655
Nb6 O14 1.990477 1_655
Nb6 O4 1.994366 1_554
Nb6 O4 1.994366 1_555
Nb6 O9 2.018061 1_555
Nb6 O18 2.078377 1_555
Nb7 O27 1.923454 1_555
Nb7 O21 1.990477 1_555
Nb7 O5 1.994366 1_555
Nb7 O5 1.994366 1_554
Nb7 O8 2.018061 1_555
Nb7 O19 2.078377 1_555
Nb8 O28 1.923454 1_555
Nb8 O19 1.990477 1_555
Nb8 O6 1.994366 1_555
Nb8 O6 1.994366 1_554
Nb8 O10 2.018061 1_555
Nb8 O20 2.078377 1_555
Nb9 O29 1.923454 1_555
Nb9 O17 1.990477 1_555
Nb9 O7 1.994366 1_555
Nb9 O7 1.994366 1_554
Nb9 O11 2.018061 1_555
Nb9 O21 2.078377 1_555
