# generated using pymatgen
data_Dy6Mg(Sb5O12)2
_symmetry_space_group_name_H-M   'P 1'
_cell_length_a   9.71953734
_cell_length_b   9.37210573
_cell_length_c   9.37210573
_cell_angle_alpha   108.70812765
_cell_angle_beta   110.22393826
_cell_angle_gamma   110.22393826
_symmetry_Int_Tables_number   1
_chemical_formula_structural   Dy6Mg(Sb5O12)2
_chemical_formula_sum   'Dy6 Mg1 Sb10 O24'
_cell_volume   650.99712904
_cell_formula_units_Z   1
loop_
 _symmetry_equiv_pos_site_id
 _symmetry_equiv_pos_as_xyz
  1  'x, y, z'
loop_
 _atom_site_type_symbol
 _atom_site_label
 _atom_site_symmetry_multiplicity
 _atom_site_fract_x
 _atom_site_fract_y
 _atom_site_fract_z
 _atom_site_occupancy
  Dy  Dy0  1  0.73136485  0.24324442  0.48790665  1
  Dy  Dy1  1  0.73136485  0.48790665  0.24324442  1
  Dy  Dy2  1  0.48812044  0.24466223  0.75675558  1
  Dy  Dy3  1  0.48812044  0.75675558  0.24466223  1
  Dy  Dy4  1  0.24345820  0.75533777  0.51209335  1
  Dy  Dy5  1  0.24345820  0.51209335  0.75533777  1
  Mg  Mg0  1  0.30807377  0.00000000  0.00000000  1
  Sb  Sb0  1  0.57819155  0.00000000  0.00000000  1
  Sb  Sb1  1  0.24634871  0.00000000  0.29906999  1
  Sb  Sb2  1  0.24634871  0.29906999  0.00000000  1
  Sb  Sb3  1  0.71849276  0.00000000  0.71358989  1
  Sb  Sb4  1  0.71849276  0.71358989  0.00000000  1
  Sb  Sb5  1  0.99334657  0.52430612  0.00000000  1
  Sb  Sb6  1  0.99334657  0.00000000  0.52430612  1
  Sb  Sb7  1  0.46904045  0.47569388  0.47569388  1
  Sb  Sb8  1  0.00490287  0.28641011  0.28641011  1
  Sb  Sb9  1  0.94727872  0.70093001  0.70093001  1
  O  O0  1  0.50961434  0.00000000  0.18468569  1
  O  O1  1  0.50961434  0.18468569  0.00000000  1
  O  O2  1  0.70313024  0.49648420  0.00000000  1
  O  O3  1  0.70313024  0.00000000  0.49648420  1
  O  O4  1  0.81033392  0.30027506  0.30027506  1
  O  O5  1  0.48196665  0.49141765  0.19154309  1
  O  O6  1  0.48196665  0.19154309  0.49141765  1
  O  O7  1  0.51005986  0.69972494  0.00000000  1
  O  O8  1  0.51005986  0.00000000  0.69972494  1
  O  O9  1  0.69115970  0.48894725  0.48894725  1
  O  O10  1  0.80537164  0.28106728  0.79655509  1
  O  O11  1  0.80537164  0.79655509  0.28106728  1
  O  O12  1  0.20221145  0.51105275  0.00000000  1
  O  O13  1  0.20221145  0.00000000  0.51105275  1
  O  O14  1  0.52430336  0.71893272  0.51548681  1
  O  O15  1  0.52430336  0.51548681  0.71893272  1
  O  O16  1  0.00881655  0.48451319  0.20344491  1
  O  O17  1  0.00881655  0.20344491  0.48451319  1
  O  O18  1  0.29042455  0.80845691  0.29987555  1
  O  O19  1  0.29042455  0.29987555  0.80845691  1
  O  O20  1  0.20664704  0.50351580  0.50351580  1
  O  O21  1  0.99054900  0.70012445  0.50858235  1
  O  O22  1  0.99054900  0.50858235  0.70012445  1
  O  O23  1  0.32492765  0.81531431  0.81531431  1
loop_
_geom_bond_atom_site_label_1
_geom_bond_atom_site_label_2
_geom_bond_distance
_geom_bond_site_symmetry_2
Dy0 O3 2.231399 1_555
Dy0 O4 2.284651 1_555
Dy0 O6 2.316273 1_555
Dy0 O22 2.349014 1_555
Dy0 O9 2.462894 1_555
Dy0 O0 2.476015 1_555
Dy0 O10 2.595772 1_555
Dy0 O17 2.856481 1_655
Dy1 O2 2.231399 1_555
Dy1 O4 2.284651 1_555
Dy1 O5 2.316273 1_555
Dy1 O21 2.349014 1_555
Dy1 O9 2.462894 1_555
Dy1 O1 2.476015 1_555
Dy1 O11 2.595772 1_555
Dy1 O16 2.856481 1_655
Dy2 O2 2.231399 1_556
Dy2 O8 2.284656 1_555
Dy2 O19 2.316268 1_555
Dy2 O6 2.349015 1_555
Dy2 O13 2.462898 1_555
Dy2 O1 2.476015 1_556
Dy2 O15 2.595765 1_555
Dy2 O10 2.856483 1_555
Dy3 O3 2.231399 1_565
Dy3 O7 2.284656 1_555
Dy3 O18 2.316268 1_555
Dy3 O5 2.349015 1_555
Dy3 O12 2.462898 1_555
Dy3 O0 2.476015 1_565
Dy3 O14 2.595765 1_555
Dy3 O11 2.856483 1_555
Dy4 O20 2.231401 1_555
Dy4 O8 2.284656 1_565
Dy4 O21 2.316272 1_455
Dy4 O18 2.349010 1_555
Dy4 O13 2.462898 1_565
Dy4 O23 2.476016 1_555
Dy4 O16 2.595769 1_555
Dy4 O14 2.856476 1_555
Dy5 O20 2.231401 1_555
Dy5 O7 2.284656 1_556
Dy5 O22 2.316272 1_455
Dy5 O19 2.349010 1_555
Dy5 O12 2.462898 1_556
Dy5 O23 2.476016 1_555
Dy5 O17 2.595769 1_555
Dy5 O15 2.856476 1_555
Mg0 O23 2.118721 1_544
Mg0 O0 2.118727 1_555
Mg0 O1 2.118727 1_555
O0 Sb0 2.058621 1_555
O1 Sb0 2.058621 1_555
O2 Sb4 1.988064 1_555
O3 Sb3 1.988064 1_555
O4 Sb8 1.984710 1_655
O5 Sb2 1.986031 1_555
O6 Sb1 1.986031 1_555
O7 Sb4 1.984700 1_555
O8 Sb3 1.984700 1_555
O9 Sb7 2.076293 1_555
O9 Sb9 2.172636 1_555
O10 Sb5 2.023355 1_556
O10 Sb3 2.225049 1_555
O11 Sb6 2.023355 1_565
O11 Sb4 2.225049 1_555
O12 Sb5 2.076283 1_455
O12 Sb2 2.172641 1_555
O13 Sb6 2.076283 1_455
O13 Sb1 2.172641 1_555
O14 Sb7 2.023359 1_555
O14 Sb3 2.225052 1_565
O15 Sb7 2.023359 1_555
O15 Sb4 2.225052 1_556
O16 Sb5 2.023350 1_455
O16 Sb8 2.225058 1_555
O17 Sb6 2.023350 1_455
O17 Sb8 2.225058 1_555
O18 Sb1 1.986038 1_565
O19 Sb2 1.986038 1_556
O20 Sb8 1.988066 1_555
O21 Sb9 1.986029 1_555
O22 Sb9 1.986029 1_555
O23 Sb0 2.058626 1_566
