# generated using pymatgen
data_Ag2S2O7
_symmetry_space_group_name_H-M   'P 1'
_cell_length_a   6.80650232
_cell_length_b   6.74884302
_cell_length_c   6.90829982
_cell_angle_alpha   63.53550696
_cell_angle_beta   87.04559490
_cell_angle_gamma   85.08586855
_symmetry_Int_Tables_number   1
_chemical_formula_structural   Ag2S2O7
_chemical_formula_sum   'Ag4 S4 O14'
_cell_volume   283.00992986
_cell_formula_units_Z   2
loop_
 _symmetry_equiv_pos_site_id
 _symmetry_equiv_pos_as_xyz
  1  'x, y, z'
loop_
 _atom_site_type_symbol
 _atom_site_label
 _atom_site_symmetry_multiplicity
 _atom_site_fract_x
 _atom_site_fract_y
 _atom_site_fract_z
 _atom_site_occupancy
  Ag  Ag0  1  0.11905420  0.79811509  0.21188672  1
  Ag  Ag1  1  0.88094580  0.20188491  0.78811328  1
  Ag  Ag2  1  0.62866600  0.79454946  0.56987659  1
  Ag  Ag3  1  0.37133400  0.20545054  0.43012341  1
  S  S0  1  0.12283529  0.71024099  0.72434232  1
  S  S1  1  0.87716471  0.28975901  0.27565768  1
  S  S2  1  0.37613680  0.30013877  0.87868754  1
  S  S3  1  0.62386320  0.69986123  0.12131246  1
  O  O0  1  0.96729729  0.61604485  0.66437130  1
  O  O1  1  0.03270271  0.38395515  0.33562870  1
  O  O2  1  0.25915576  0.81931037  0.54365635  1
  O  O3  1  0.74084424  0.18068963  0.45634365  1
  O  O4  1  0.05921715  0.83820080  0.83917772  1
  O  O5  1  0.94078285  0.16179920  0.16082228  1
  O  O6  1  0.25092257  0.50606137  0.90899429  1
  O  O7  1  0.74907743  0.49393863  0.09100571  1
  O  O8  1  0.39980394  0.14142786  0.10165640  1
  O  O9  1  0.60019606  0.85857214  0.89834360  1
  O  O10  1  0.25074333  0.23791741  0.75454861  1
  O  O11  1  0.74925667  0.76208259  0.24545139  1
  O  O12  1  0.55575712  0.39309630  0.76513532  1
  O  O13  1  0.44424288  0.60690370  0.23486468  1
loop_
_geom_bond_atom_site_label_1
_geom_bond_atom_site_label_2
_geom_bond_distance
_geom_bond_site_symmetry_2
Ag0 O13 2.440059 1_555
Ag0 O4 2.517334 1_554
Ag0 O5 2.526512 1_465
Ag0 O11 2.538262 1_455
Ag0 O2 2.593028 1_555
Ag0 O1 2.643642 1_555
Ag1 O12 2.440059 1_555
Ag1 O5 2.517334 1_556
Ag1 O4 2.526512 1_645
Ag1 O10 2.538262 1_655
Ag1 O3 2.593028 1_555
Ag1 O0 2.643642 1_555
Ag2 O11 2.441736 1_555
Ag2 O0 2.483634 1_555
Ag2 O9 2.487462 1_555
Ag2 O12 2.512045 1_555
Ag2 O2 2.516804 1_555
Ag2 O3 2.539059 1_565
Ag3 O10 2.441736 1_555
Ag3 O1 2.483634 1_555
Ag3 O8 2.487462 1_555
Ag3 O13 2.512045 1_555
Ag3 O3 2.516804 1_555
Ag3 O2 2.539059 1_545
O0 S0 1.446312 1_655
O1 S1 1.446312 1_455
O2 S0 1.462720 1_555
O3 S1 1.462720 1_555
O4 S0 1.440057 1_555
O5 S1 1.440057 1_555
O6 S0 1.621191 1_555
O6 S2 1.655172 1_555
O7 S1 1.621191 1_555
O7 S3 1.655172 1_555
O8 S2 1.439228 1_554
O9 S3 1.439228 1_556
O10 S2 1.448470 1_555
O11 S3 1.448470 1_555
O12 S2 1.448300 1_555
O13 S3 1.448300 1_555
