# generated using pymatgen
data_Eu3(Cu2Sn)4
_symmetry_space_group_name_H-M   'P 1'
_cell_length_a   9.23556979
_cell_length_b   9.23556979
_cell_length_c   7.82759800
_cell_angle_alpha   90.00000000
_cell_angle_beta   90.00000000
_cell_angle_gamma   119.99999852
_symmetry_Int_Tables_number   1
_chemical_formula_structural   Eu3(Cu2Sn)4
_chemical_formula_sum   'Eu6 Cu16 Sn8'
_cell_volume   578.21125500
_cell_formula_units_Z   2
loop_
 _symmetry_equiv_pos_site_id
 _symmetry_equiv_pos_as_xyz
  1  'x, y, z'
loop_
 _atom_site_type_symbol
 _atom_site_label
 _atom_site_symmetry_multiplicity
 _atom_site_fract_x
 _atom_site_fract_y
 _atom_site_fract_z
 _atom_site_occupancy
  Eu  Eu0  1  0.52533700  0.47466300  0.50141000  1
  Eu  Eu1  1  0.05067400  0.52533700  0.00141000  1
  Eu  Eu2  1  0.47466300  0.94932600  0.00141000  1
  Eu  Eu3  1  0.52533700  0.05067400  0.50141000  1
  Eu  Eu4  1  0.94932600  0.47466300  0.50141000  1
  Eu  Eu5  1  0.47466300  0.52533700  0.00141000  1
  Cu  Cu0  1  0.89992900  0.79985800  0.52182800  1
  Cu  Cu1  1  0.00000000  0.00000000  0.77427100  1
  Cu  Cu2  1  0.00000000  0.00000000  0.27427100  1
  Cu  Cu3  1  0.66666700  0.33333300  0.17183300  1
  Cu  Cu4  1  0.33333300  0.66666700  0.67183300  1
  Cu  Cu5  1  0.10007100  0.89992900  0.02182800  1
  Cu  Cu6  1  0.83744400  0.16255600  0.82766800  1
  Cu  Cu7  1  0.67488800  0.83744400  0.32766800  1
  Cu  Cu8  1  0.16255600  0.32511200  0.32766800  1
  Cu  Cu9  1  0.83744400  0.67488800  0.82766800  1
  Cu  Cu10  1  0.32511200  0.16255600  0.82766800  1
  Cu  Cu11  1  0.20014200  0.10007100  0.52182800  1
  Cu  Cu12  1  0.89992900  0.10007100  0.52182800  1
  Cu  Cu13  1  0.79985800  0.89992900  0.02182800  1
  Cu  Cu14  1  0.10007100  0.20014200  0.02182800  1
  Cu  Cu15  1  0.16255600  0.83744400  0.32766800  1
  Sn  Sn0  1  0.66453800  0.83226900  0.70590300  1
  Sn  Sn1  1  0.16773100  0.33546200  0.70590300  1
  Sn  Sn2  1  0.83226900  0.66453800  0.20590300  1
  Sn  Sn3  1  0.33546200  0.16773100  0.20590300  1
  Sn  Sn4  1  0.16773100  0.83226900  0.70590300  1
  Sn  Sn5  1  0.33333300  0.66666700  0.31617700  1
  Sn  Sn6  1  0.83226900  0.16773100  0.20590300  1
  Sn  Sn7  1  0.66666700  0.33333300  0.81617700  1
loop_
_geom_bond_atom_site_label_1
_geom_bond_atom_site_label_2
_geom_bond_distance
_geom_bond_site_symmetry_2
Eu0 Sn0 3.298003 1_555
Eu0 Sn1 3.298003 1_555
Eu0 Sn7 3.343918 1_555
Eu0 Sn3 3.389713 1_555
Eu0 Sn2 3.389713 1_555
Eu0 Sn5 3.396427 1_555
Eu1 Sn2 3.298003 1_455
Eu1 Sn6 3.298003 1_455
Eu1 Sn5 3.343913 1_555
Eu1 Sn1 3.389713 1_554
Eu1 Sn4 3.389713 1_554
Eu1 Sn7 3.396420 1_454
Eu2 Sn3 3.298003 1_565
Eu2 Sn6 3.298003 1_565
Eu2 Sn5 3.343913 1_555
Eu2 Sn0 3.389713 1_554
Eu2 Sn4 3.389713 1_554
Eu2 Sn7 3.396420 1_564
Eu3 Sn0 3.298003 1_545
Eu3 Sn4 3.298003 1_545
Eu3 Sn7 3.343913 1_555
Eu3 Sn3 3.389713 1_555
Eu3 Sn6 3.389713 1_555
Eu3 Sn5 3.396420 1_545
Eu4 Sn1 3.298003 1_655
Eu4 Sn4 3.298003 1_655
Eu4 Sn7 3.343913 1_555
Eu4 Sn2 3.389713 1_555
Eu4 Sn6 3.389713 1_555
Eu4 Sn5 3.396420 1_655
Eu5 Sn2 3.298003 1_555
Eu5 Sn3 3.298003 1_555
Eu5 Sn5 3.343918 1_555
Eu5 Sn1 3.389713 1_554
Eu5 Sn0 3.389713 1_554
Eu5 Sn7 3.396427 1_554
Cu0 Cu2 2.513461 1_665
Cu0 Cu1 2.543063 1_665
Cu0 Cu9 2.594278 1_555
Cu0 Sn2 2.699411 1_555
Cu0 Cu7 2.733394 1_555
Cu0 Cu15 2.733395 1_655
Cu0 Sn0 2.746376 1_555
Cu0 Sn4 2.746376 1_655
Cu0 Cu12 2.772638 1_565
Cu0 Cu11 2.772638 1_665
Cu0 Eu4 3.259449 1_555
Cu0 Eu0 3.259449 1_555
Cu1 Cu5 2.513461 1_546
Cu1 Cu14 2.513461 1_556
Cu1 Cu13 2.513461 1_446
Cu1 Cu12 2.543063 1_455
Cu1 Cu11 2.543063 1_555
Cu1 Cu6 2.633701 1_455
Cu1 Cu10 2.633701 1_555
Cu1 Cu9 2.633701 1_445
Cu1 Sn4 2.735954 1_545
Cu1 Sn0 2.735954 1_445
Cu1 Sn1 2.735954 1_555
Cu2 Cu5 2.543063 1_545
Cu2 Cu8 2.633701 1_555
Cu2 Cu7 2.633701 1_445
Cu2 Sn6 2.735954 1_455
Cu2 Sn2 2.735954 1_445
Cu2 Sn3 2.735954 1_555
Cu3 Sn6 2.662439 1_555
Cu3 Sn2 2.662447 1_555
Cu3 Sn3 2.662447 1_555
Cu3 Sn7 2.783932 1_554
Cu3 Eu1 3.348572 1_655
Cu3 Eu2 3.348572 1_545
Cu3 Eu5 3.348579 1_555
Cu3 Eu3 3.430226 1_555
Cu3 Eu4 3.430226 1_555
Cu3 Eu0 3.430231 1_555
Cu4 Sn4 2.662439 1_555
Cu4 Sn0 2.662447 1_555
Cu4 Sn1 2.662447 1_555
Cu4 Sn5 2.783932 1_555
Cu4 Eu3 3.348572 1_565
Cu4 Eu4 3.348572 1_455
Cu4 Eu0 3.348579 1_555
Cu4 Eu2 3.430226 1_556
Cu4 Eu1 3.430226 1_556
Cu4 Eu5 3.430231 1_556
Cu5 Sn4 2.699411 1_554
Cu5 Cu9 2.733395 1_454
Cu5 Sn3 2.746376 1_565
Cu5 Sn2 2.746376 1_455
Cu5 Eu2 3.259449 1_555
Cu5 Eu1 3.259449 1_555
Cu6 Sn7 2.733311 1_555
Cu6 Sn1 2.809314 1_655
Cu6 Sn0 2.809314 1_545
Cu6 Sn6 2.961829 1_556
Cu6 Eu1 3.217974 1_656
Cu6 Eu2 3.217974 1_546
Cu6 Eu4 3.594433 1_555
Cu6 Eu3 3.594433 1_555
Cu7 Sn5 2.733319 1_555
Cu7 Sn2 2.809314 1_555
Cu7 Sn6 2.809314 1_565
Cu7 Sn0 2.961829 1_555
Cu7 Eu3 3.217974 1_565
Cu7 Eu0 3.217974 1_555
Cu7 Eu2 3.594432 1_555
Cu7 Eu5 3.594433 1_555
Cu8 Sn5 2.733319 1_555
Cu8 Sn3 2.809314 1_555
Cu8 Sn6 2.809314 1_455
Cu8 Sn1 2.961829 1_555
Cu8 Eu4 3.217974 1_455
Cu8 Eu0 3.217974 1_555
Cu8 Eu1 3.594432 1_555
Cu8 Eu5 3.594433 1_555
Cu9 Sn7 2.733319 1_555
Cu9 Sn0 2.809314 1_555
Cu9 Sn4 2.809314 1_655
Cu9 Sn2 2.961829 1_556
Cu9 Eu1 3.217974 1_656
Cu9 Eu5 3.217974 1_556
Cu9 Eu4 3.594432 1_555
Cu9 Eu0 3.594433 1_555
Cu10 Cu11 2.594278 1_555
Cu10 Sn7 2.733319 1_555
Cu10 Cu14 2.733394 1_556
Cu10 Cu5 2.733395 1_546
Cu10 Sn1 2.809314 1_555
Cu10 Sn4 2.809314 1_545
Cu10 Sn3 2.961829 1_556
Cu10 Eu2 3.217974 1_546
Cu10 Eu5 3.217974 1_556
Cu10 Eu3 3.594432 1_555
Cu10 Eu0 3.594433 1_555
Cu11 Cu2 2.513461 1_555
Cu11 Sn3 2.699411 1_555
Cu11 Cu8 2.733394 1_555
Cu11 Cu15 2.733395 1_545
Cu11 Sn1 2.746376 1_555
Cu11 Sn4 2.746376 1_545
Cu11 Cu12 2.772638 1_455
Cu11 Eu3 3.259449 1_555
Cu11 Eu0 3.259449 1_555
Cu12 Cu2 2.513461 1_655
Cu12 Cu6 2.594278 1_555
Cu12 Sn6 2.699411 1_555
Cu12 Cu8 2.733395 1_655
Cu12 Cu7 2.733395 1_545
Cu12 Sn1 2.746376 1_655
Cu12 Sn0 2.746376 1_545
Cu12 Eu4 3.259449 1_555
Cu12 Eu3 3.259449 1_555
Cu13 Cu2 2.543063 1_665
Cu13 Cu7 2.594278 1_555
Cu13 Sn0 2.699411 1_554
Cu13 Cu9 2.733394 1_554
Cu13 Cu6 2.733395 1_564
Cu13 Sn2 2.746376 1_555
Cu13 Sn6 2.746376 1_565
Cu13 Cu5 2.772638 1_655
Cu13 Cu14 2.772638 1_665
Cu13 Eu2 3.259449 1_555
Cu13 Eu5 3.259449 1_555
Cu14 Cu2 2.543063 1_555
Cu14 Cu8 2.594278 1_555
Cu14 Sn1 2.699411 1_554
Cu14 Cu6 2.733395 1_454
Cu14 Sn3 2.746376 1_555
Cu14 Sn6 2.746376 1_455
Cu14 Cu5 2.772638 1_545
Cu14 Eu1 3.259449 1_555
Cu14 Eu5 3.259449 1_555
Cu15 Cu5 2.594278 1_555
Cu15 Cu2 2.633701 1_565
Cu15 Sn5 2.733311 1_555
Cu15 Sn3 2.809314 1_565
Cu15 Sn2 2.809314 1_455
Cu15 Sn4 2.961829 1_555
Cu15 Eu3 3.217974 1_565
Cu15 Eu4 3.217974 1_455
Cu15 Eu2 3.594433 1_555
Cu15 Eu1 3.594433 1_555
