# generated using pymatgen
data_BaLaI5
_symmetry_space_group_name_H-M   'P 1'
_cell_length_a   11.70585949
_cell_length_b   11.70585949
_cell_length_c   8.04239548
_cell_angle_alpha   88.94184793
_cell_angle_beta   88.94184793
_cell_angle_gamma   147.82052357
_symmetry_Int_Tables_number   1
_chemical_formula_structural   BaLaI5
_chemical_formula_sum   'Ba2 La2 I10'
_cell_volume   585.60528084
_cell_formula_units_Z   2
loop_
 _symmetry_equiv_pos_site_id
 _symmetry_equiv_pos_as_xyz
  1  'x, y, z'
loop_
 _atom_site_type_symbol
 _atom_site_label
 _atom_site_symmetry_multiplicity
 _atom_site_fract_x
 _atom_site_fract_y
 _atom_site_fract_z
 _atom_site_occupancy
  Ba  Ba0  1  0.67341900  0.32658100  0.25000000  1
  Ba  Ba1  1  0.32658100  0.67341900  0.75000000  1
  La  La0  1  0.92143200  0.07856800  0.25000000  1
  La  La1  1  0.07856800  0.92143200  0.75000000  1
  I  I0  1  0.78583400  0.71677600  0.10107100  1
  I  I1  1  0.80272200  0.18808400  0.99282000  1
  I  I2  1  0.63092900  0.36907100  0.75000000  1
  I  I3  1  0.81191600  0.19727800  0.50718000  1
  I  I4  1  0.71677600  0.78583400  0.60107100  1
  I  I5  1  0.28322400  0.21416600  0.39892900  1
  I  I6  1  0.18808400  0.80272200  0.49282000  1
  I  I7  1  0.36907100  0.63092900  0.25000000  1
  I  I8  1  0.19727800  0.81191600  0.00718000  1
  I  I9  1  0.21416600  0.28322400  0.89892900  1
loop_
_geom_bond_atom_site_label_1
_geom_bond_atom_site_label_2
_geom_bond_distance
_geom_bond_site_symmetry_2
Ba0 I1 3.655066 1_554
Ba0 I3 3.655066 1_555
Ba0 I5 3.687031 1_555
Ba0 I0 3.687031 1_555
Ba0 I8 3.724044 1_655
Ba0 I6 3.724044 1_545
Ba0 I6 3.894878 1_655
Ba0 I8 3.894878 1_545
Ba0 I2 4.133229 1_554
Ba0 I2 4.133229 1_555
Ba1 I6 3.655066 1_555
Ba1 I8 3.655066 1_556
Ba1 I9 3.687031 1_555
Ba1 I4 3.687031 1_555
Ba1 I3 3.724044 1_565
Ba1 I1 3.724044 1_455
Ba1 I1 3.894878 1_565
Ba1 I3 3.894878 1_455
Ba1 I7 4.133229 1_555
Ba1 I7 4.133229 1_556
I0 La0 3.281508 1_565
I0 La1 3.309060 1_654
I1 La0 3.297923 1_556
I2 La1 3.451390 1_655
I2 La1 3.451390 1_545
I3 La0 3.297923 1_555
I4 La1 3.281508 1_655
I4 La0 3.309060 1_565
I5 La0 3.281508 1_455
I5 La1 3.309060 1_545
I6 La1 3.297923 1_555
I7 La0 3.451390 1_565
I7 La0 3.451390 1_455
I8 La1 3.297923 1_554
I9 La1 3.281508 1_545
I9 La0 3.309060 1_456
