# generated using pymatgen
data_CaFe3Co5O16
_symmetry_space_group_name_H-M   'P 1'
_cell_length_a   5.76955701
_cell_length_b   5.76876553
_cell_length_c   9.14651047
_cell_angle_alpha   87.49948750
_cell_angle_beta   93.82636565
_cell_angle_gamma   117.79161122
_symmetry_Int_Tables_number   1
_chemical_formula_structural   CaFe3Co5O16
_chemical_formula_sum   'Ca1 Fe3 Co5 O16'
_cell_volume   268.68231263
_cell_formula_units_Z   1
loop_
 _symmetry_equiv_pos_site_id
 _symmetry_equiv_pos_as_xyz
  1  'x, y, z'
loop_
 _atom_site_type_symbol
 _atom_site_label
 _atom_site_symmetry_multiplicity
 _atom_site_fract_x
 _atom_site_fract_y
 _atom_site_fract_z
 _atom_site_occupancy
  Ca  Ca0  1  0.80139000  0.20451400  0.43562200  1
  Fe  Fe0  1  0.65653500  0.81405800  0.18908400  1
  Fe  Fe1  1  0.84515600  0.67304300  0.71810600  1
  Fe  Fe2  1  0.84635300  0.16854800  0.75074400  1
  Co  Co0  1  0.16394800  0.83445800  0.18819200  1
  Co  Co1  1  0.34026400  0.66790900  0.48730100  1
  Co  Co2  1  0.17964000  0.34370100  0.20176900  1
  Co  Co3  1  0.34166800  0.16537300  0.71671000  1
  Co  Co4  1  0.66200800  0.33406500  0.98829700  1
  O  O0  1  0.19222900  0.84557400  0.60933000  1
  O  O1  1  0.05943100  0.54070700  0.31463500  1
  O  O2  1  0.30419900  0.64845200  0.08944100  1
  O  O3  1  0.01283700  0.01030400  0.29659900  1
  O  O4  1  0.03750400  0.99300400  0.82591100  1
  O  O5  1  0.16813900  0.33574700  0.61039500  1
  O  O6  1  0.45623000  0.93279600  0.31923700  1
  O  O7  1  0.46691700  0.49123300  0.33343100  1
  O  O8  1  0.32266600  0.15972000  0.09611300  1
  O  O9  1  0.67490100  0.84597000  0.60646700  1
  O  O10  1  0.50797900  0.46045500  0.84229200  1
  O  O11  1  0.51940000  0.04597200  0.85694400  1
  O  O12  1  0.66432500  0.33699100  0.62024900  1
  O  O13  1  0.83030100  0.66241100  0.08862300  1
  O  O14  1  0.95352700  0.48274200  0.86730800  1
  O  O15  1  0.82578800  0.17953700  0.10041900  1
loop_
_geom_bond_atom_site_label_1
_geom_bond_atom_site_label_2
_geom_bond_distance
_geom_bond_site_symmetry_2
Ca0 O6 2.123146 1_545
Ca0 O1 2.131315 1_655
Ca0 O12 2.217096 1_555
Ca0 O9 2.390629 1_545
Ca0 O5 2.401301 1_655
Ca0 O3 2.442596 1_655
Fe0 O13 1.904123 1_555
Fe0 O2 1.973168 1_555
Fe0 O15 2.023129 1_565
Fe0 O3 2.032670 1_665
Fe0 O6 2.053015 1_555
Fe0 O7 2.118135 1_555
Fe1 O9 1.921914 1_555
Fe1 O4 1.927011 1_655
Fe1 O12 1.946407 1_555
Fe1 O14 1.963143 1_555
Fe1 O0 2.076362 1_655
Fe1 O10 2.127734 1_555
Fe2 O4 1.895782 1_645
Fe2 O14 1.959525 1_555
Fe2 O11 1.985627 1_555
Fe2 O12 2.038366 1_555
Fe2 O9 2.122805 1_545
Fe2 O5 2.136638 1_655
Co0 O8 1.852391 1_565
Co0 O6 1.870745 1_555
Co0 O1 1.882001 1_555
Co0 O13 1.892966 1_455
Co0 O2 1.900994 1_555
Co0 O3 1.949405 1_565
Co1 O9 1.984493 1_555
Co1 O0 2.017183 1_555
Co1 O5 2.027807 1_555
Co1 O6 2.030900 1_555
Co1 O1 2.075767 1_555
Co1 O7 2.123762 1_555
Co2 O2 1.850813 1_555
Co2 O7 1.851844 1_555
Co2 O3 1.901936 1_555
Co2 O8 1.937508 1_555
Co2 O1 1.941973 1_555
Co2 O15 1.986268 1_455
Co3 O11 1.891340 1_555
Co3 O4 1.893689 1_545
Co3 O5 1.902162 1_555
Co3 O10 1.907387 1_555
Co3 O12 1.910087 1_555
Co3 O0 1.916577 1_545
Co4 O15 1.820897 1_556
Co4 O10 1.861616 1_555
Co4 O14 1.899878 1_555
Co4 O11 1.910390 1_555
Co4 O13 1.921026 1_556
Co4 O8 2.037674 1_556
