# generated using pymatgen
data_PrIn5Rh
_symmetry_space_group_name_H-M   'P 1'
_cell_length_a   4.68213599
_cell_length_b   4.68213599
_cell_length_c   7.59112632
_cell_angle_alpha   90.00000000
_cell_angle_beta   90.00000000
_cell_angle_gamma   90.00000000
_symmetry_Int_Tables_number   1
_chemical_formula_structural   PrIn5Rh
_chemical_formula_sum   'Pr1 In5 Rh1'
_cell_volume   166.41568812
_cell_formula_units_Z   1
loop_
 _symmetry_equiv_pos_site_id
 _symmetry_equiv_pos_as_xyz
  1  'x, y, z'
loop_
 _atom_site_type_symbol
 _atom_site_label
 _atom_site_symmetry_multiplicity
 _atom_site_fract_x
 _atom_site_fract_y
 _atom_site_fract_z
 _atom_site_occupancy
  Pr  Pr0  1  -0.00000000  0.00000000  0.00000000  1
  In  In0  1  0.00000000  0.50000000  0.30642341  1
  In  In1  1  -0.00000000  0.50000000  0.69357659  1
  In  In2  1  0.50000000  -0.00000000  0.30642341  1
  In  In3  1  0.50000000  0.00000000  0.69357659  1
  In  In4  1  0.50000000  0.50000000  0.00000000  1
  Rh  Rh0  1  -0.00000000  0.00000000  0.50000000  1
loop_
_geom_bond_atom_site_label_1
_geom_bond_atom_site_label_2
_geom_bond_distance
_geom_bond_site_symmetry_2
In0 Rh0 2.764041 1_565
In0 Rh0 2.764041 1_555
In0 In4 3.300202 1_555
In0 Pr0 3.300202 1_565
In0 Pr0 3.300202 1_555
In0 In4 3.300202 1_455
In1 Rh0 2.764041 1_565
In1 Rh0 2.764041 1_555
In1 Pr0 3.300202 1_566
In1 In4 3.300202 1_556
In1 Pr0 3.300202 1_556
In1 In4 3.300202 1_456
In2 Rh0 2.764041 1_655
In2 Rh0 2.764041 1_555
In2 In4 3.300202 1_545
In2 In4 3.300202 1_555
In2 Pr0 3.300202 1_555
In2 Pr0 3.300202 1_655
In3 Rh0 2.764041 1_655
In3 Rh0 2.764041 1_555
In3 In4 3.300202 1_556
In3 Pr0 3.300202 1_556
In3 Pr0 3.300202 1_656
In3 In4 3.300202 1_546
In4 Pr0 3.310770 1_565
In4 Pr0 3.310770 1_555
In4 Pr0 3.310770 1_655
In4 Pr0 3.310770 1_665
