# generated using pymatgen
data_Dy2Cu(SiO3)4
_symmetry_space_group_name_H-M   'P 1'
_cell_length_a   4.82384600
_cell_length_b   7.11895608
_cell_length_c   7.84845462
_cell_angle_alpha   114.53854280
_cell_angle_beta   86.44607077
_cell_angle_gamma   102.98889317
_symmetry_Int_Tables_number   1
_chemical_formula_structural   Dy2Cu(SiO3)4
_chemical_formula_sum   'Dy2 Cu1 Si4 O12'
_cell_volume   238.75638736
_cell_formula_units_Z   1
loop_
 _symmetry_equiv_pos_site_id
 _symmetry_equiv_pos_as_xyz
  1  'x, y, z'
loop_
 _atom_site_type_symbol
 _atom_site_label
 _atom_site_symmetry_multiplicity
 _atom_site_fract_x
 _atom_site_fract_y
 _atom_site_fract_z
 _atom_site_occupancy
  Dy  Dy0  1  0.96283200  0.77212400  0.55020700  1
  Dy  Dy1  1  0.03716800  0.22787600  0.44979300  1
  Cu  Cu0  1  0.00000000  0.00000000  0.00000000  1
  Si  Si0  1  0.42539200  0.61023000  0.79650100  1
  Si  Si1  1  0.57460800  0.38977000  0.20349900  1
  Si  Si2  1  0.54532100  0.17890700  0.78645700  1
  Si  Si3  1  0.45467900  0.82109300  0.21354300  1
  O  O0  1  0.73581700  0.76409500  0.80451200  1
  O  O1  1  0.26418300  0.23590500  0.19548800  1
  O  O2  1  0.71131200  0.30003500  0.99466900  1
  O  O3  1  0.28868800  0.69996500  0.00533100  1
  O  O4  1  0.77975400  0.42313600  0.37484700  1
  O  O5  1  0.22024600  0.57686400  0.62515300  1
  O  O6  1  0.74293200  0.98857300  0.20523100  1
  O  O7  1  0.25706800  0.01142700  0.79476900  1
  O  O8  1  0.44373600  0.35908700  0.73535300  1
  O  O9  1  0.55626400  0.64091300  0.26464700  1
  O  O10  1  0.76504800  0.07439700  0.62717800  1
  O  O11  1  0.23495200  0.92560300  0.37282200  1
loop_
_geom_bond_atom_site_label_1
_geom_bond_atom_site_label_2
_geom_bond_distance
_geom_bond_site_symmetry_2
Dy0 O0 2.231983 1_555
Dy0 O7 2.266223 1_665
Dy0 O4 2.273939 1_555
Dy0 O11 2.290695 1_655
Dy0 O5 2.316399 1_655
Dy0 O10 2.382737 1_565
Dy0 O9 2.779293 1_555
Dy1 O1 2.231983 1_555
Dy1 O6 2.266223 1_445
Dy1 O5 2.273939 1_555
Dy1 O10 2.290695 1_455
Dy1 O4 2.316399 1_455
Dy1 O11 2.382737 1_545
Dy1 O8 2.779293 1_555
Cu0 O1 1.984581 1_555
Cu0 O0 1.984581 1_444
Cu0 O6 1.988647 1_445
Cu0 O7 1.988647 1_554
O0 Si0 1.631943 1_555
O1 Si1 1.631943 1_555
O2 Si1 1.647712 1_556
O2 Si2 1.654249 1_555
O3 Si0 1.647712 1_554
O3 Si3 1.654249 1_555
O4 Si1 1.624268 1_555
O5 Si0 1.624268 1_555
O6 Si3 1.633207 1_555
O7 Si2 1.633207 1_555
O8 Si2 1.667498 1_555
O8 Si0 1.669675 1_555
O9 Si3 1.667498 1_555
O9 Si1 1.669675 1_555
O10 Si2 1.630158 1_555
O11 Si3 1.630158 1_555
