# generated using pymatgen
data_Eu3(PPt)4
_symmetry_space_group_name_H-M   'P 1'
_cell_length_a   9.92952192
_cell_length_b   9.92952192
_cell_length_c   7.05579668
_cell_angle_alpha   69.25124611
_cell_angle_beta   69.25124611
_cell_angle_gamma   23.87540423
_symmetry_Int_Tables_number   1
_chemical_formula_structural   Eu3(PPt)4
_chemical_formula_sum   'Eu3 P4 Pt4'
_cell_volume   262.46359349
_cell_formula_units_Z   1
loop_
 _symmetry_equiv_pos_site_id
 _symmetry_equiv_pos_as_xyz
  1  'x, y, z'
loop_
 _atom_site_type_symbol
 _atom_site_label
 _atom_site_symmetry_multiplicity
 _atom_site_fract_x
 _atom_site_fract_y
 _atom_site_fract_z
 _atom_site_occupancy
  Eu  Eu0  1  0.75049400  0.75049400  0.25231000  1
  Eu  Eu1  1  0.24950600  0.24950600  0.74769000  1
  Eu  Eu2  1  0.50000000  0.50000000  0.50000000  1
  P  P0  1  0.37049000  0.37049000  0.96244200  1
  P  P1  1  0.87253800  0.87253800  0.46118400  1
  P  P2  1  0.12746200  0.12746200  0.53881600  1
  P  P3  1  0.62951000  0.62951000  0.03755800  1
  Pt  Pt0  1  0.37231700  0.37231700  0.29233200  1
  Pt  Pt1  1  0.87299300  0.87299300  0.79561500  1
  Pt  Pt2  1  0.12700700  0.12700700  0.20438500  1
  Pt  Pt3  1  0.62768300  0.62768300  0.70766800  1
loop_
_geom_bond_atom_site_label_1
_geom_bond_atom_site_label_2
_geom_bond_distance
_geom_bond_site_symmetry_2
Eu0 P1 3.213371 1_555
Eu0 P0 3.222420 1_564
Eu0 P0 3.222420 1_654
Eu0 Pt0 3.222553 1_565
Eu0 Pt0 3.222553 1_655
Eu0 P3 3.225073 1_555
Eu0 Pt3 3.234881 1_555
Eu0 Pt1 3.239462 1_554
Eu0 P2 3.243416 1_565
Eu0 P2 3.243416 1_655
Eu0 Pt2 3.267575 1_565
Eu0 Pt2 3.267575 1_655
Eu1 P2 3.213371 1_555
Eu1 P3 3.222420 1_546
Eu1 P3 3.222420 1_456
Eu1 Pt3 3.222553 1_545
Eu1 Pt3 3.222553 1_455
Eu1 P0 3.225073 1_555
Eu1 Pt0 3.234881 1_555
Eu1 Pt2 3.239462 1_556
Eu1 P1 3.243416 1_545
Eu1 P1 3.243416 1_455
Eu1 Pt1 3.267575 1_455
Eu1 Pt1 3.267575 1_545
Eu2 P2 3.304228 1_565
Eu2 P2 3.304228 1_655
Eu2 P1 3.304228 1_545
Eu2 P1 3.304228 1_455
Eu2 Pt1 3.306208 1_455
Eu2 Pt1 3.306208 1_545
Eu2 Pt2 3.306208 1_565
Eu2 Pt2 3.306208 1_655
Eu2 Pt3 3.306661 1_555
Eu2 Pt0 3.306661 1_555
Eu2 P3 3.321490 1_555
Eu2 P0 3.321490 1_555
P0 Pt0 2.340724 1_556
P0 Pt1 2.359021 1_545
P0 Pt1 2.359021 1_455
P1 Pt1 2.362893 1_555
P1 Pt0 2.375213 1_655
P1 Pt0 2.375213 1_565
P2 Pt2 2.362893 1_555
P2 Pt3 2.375213 1_545
P2 Pt3 2.375213 1_455
P3 Pt3 2.340724 1_554
P3 Pt2 2.359021 1_565
P3 Pt2 2.359021 1_655
