# generated using pymatgen
data_Mg14TiNi
_symmetry_space_group_name_H-M   'P 1'
_cell_length_a   6.27312636
_cell_length_b   6.07581576
_cell_length_c   9.95367578
_cell_angle_alpha   90.00000000
_cell_angle_beta   90.00000000
_cell_angle_gamma   118.96487993
_symmetry_Int_Tables_number   1
_chemical_formula_structural   Mg14TiNi
_chemical_formula_sum   'Mg14 Ti1 Ni1'
_cell_volume   331.92413668
_cell_formula_units_Z   1
loop_
 _symmetry_equiv_pos_site_id
 _symmetry_equiv_pos_as_xyz
  1  'x, y, z'
loop_
 _atom_site_type_symbol
 _atom_site_label
 _atom_site_symmetry_multiplicity
 _atom_site_fract_x
 _atom_site_fract_y
 _atom_site_fract_z
 _atom_site_occupancy
  Mg  Mg0  1  0.16338735  0.33169317  0.62500000  1
  Mg  Mg1  1  0.16629948  0.83314924  0.62500000  1
  Mg  Mg2  1  0.64704020  0.33237432  0.12500000  1
  Mg  Mg3  1  0.66109598  0.32699391  0.62500000  1
  Mg  Mg4  1  0.64704020  0.81466489  0.12500000  1
  Mg  Mg5  1  0.66109598  0.83410107  0.62500000  1
  Mg  Mg6  1  0.33225830  0.16855132  0.35975837  1
  Mg  Mg7  1  0.33225830  0.16855132  0.89024163  1
  Mg  Mg8  1  0.33225830  0.66370799  0.35975837  1
  Mg  Mg9  1  0.33225830  0.66370799  0.89024163  1
  Mg  Mg10  1  0.86072049  0.18036074  0.35150917  1
  Mg  Mg11  1  0.86072049  0.18036074  0.89849083  1
  Mg  Mg12  1  0.84228003  0.67114051  0.37603182  1
  Mg  Mg13  1  0.84228003  0.67114051  0.87396818  1
  Ti  Ti0  1  0.14225017  0.82112458  0.12500000  1
  Ni  Ni0  1  0.17675639  0.33837769  0.12500000  1
loop_
_geom_bond_atom_site_label_1
_geom_bond_atom_site_label_2
_geom_bond_distance
_geom_bond_site_symmetry_2
Mg0 Mg1 3.037950 1_545
Mg0 Mg1 3.037950 1_555
Mg0 Mg5 3.136115 1_555
Mg0 Mg3 3.136116 1_555
Mg0 Mg5 3.137210 1_445
Mg0 Mg3 3.137210 1_455
Mg0 Mg7 3.176797 1_555
Mg0 Mg6 3.176797 1_555
Mg0 Mg8 3.176803 1_555
Mg0 Mg9 3.176803 1_555
Mg0 Mg10 3.189058 1_455
Mg0 Mg11 3.189058 1_455
Mg1 Mg12 3.050216 1_455
Mg1 Mg13 3.050216 1_455
Mg1 Mg3 3.101124 1_565
Mg1 Mg5 3.101124 1_555
Mg1 Mg3 3.172010 1_455
Mg1 Mg5 3.172010 1_455
Mg1 Mg8 3.186230 1_555
Mg1 Mg9 3.186230 1_555
Mg1 Mg6 3.186236 1_565
Mg1 Mg7 3.186236 1_565
Mg2 Mg7 2.906299 1_554
Mg2 Mg6 2.906299 1_555
Mg2 Mg4 2.930309 1_555
Mg2 Ni0 2.967985 1_555
Mg2 Ti0 3.087699 1_655
Mg2 Mg4 3.145507 1_545
Mg2 Ti0 3.185803 1_545
Mg2 Ni0 3.305467 1_655
Mg3 Mg5 2.994726 1_545
Mg3 Mg5 3.081090 1_555
Mg3 Mg7 3.198273 1_555
Mg3 Mg6 3.198273 1_555
Mg4 Mg9 2.906299 1_554
Mg4 Mg8 2.906299 1_555
Mg4 Ni0 2.967985 1_555
Mg4 Ti0 3.087699 1_655
Mg4 Ti0 3.185803 1_555
Mg4 Ni0 3.305466 1_665
Mg5 Mg8 3.198273 1_555
Mg5 Mg9 3.198273 1_555
Mg6 Ni0 2.907118 1_555
Mg6 Ti0 2.983271 1_545
Mg6 Mg8 3.008481 1_555
Mg6 Mg8 3.067335 1_545
Mg7 Ni0 2.907118 1_556
Mg7 Ti0 2.983271 1_546
Mg7 Mg9 3.008481 1_555
Mg7 Mg9 3.067335 1_545
Mg8 Ni0 2.907124 1_555
Mg8 Ti0 2.983264 1_555
Mg9 Ni0 2.907124 1_556
Mg9 Ti0 2.983264 1_556
Mg10 Ni0 2.844624 1_655
Mg10 Mg2 2.988671 1_555
Mg10 Mg4 2.988677 1_545
Mg10 Mg8 2.994548 1_655
Mg10 Mg6 2.994548 1_655
Mg10 Mg12 3.049378 1_545
Mg10 Mg12 3.049378 1_555
Mg10 Mg8 3.281990 1_545
Mg10 Mg6 3.281990 1_555
Mg10 Mg3 3.294400 1_555
Mg10 Mg5 3.294406 1_545
Mg11 Ni0 2.844624 1_656
Mg11 Mg2 2.988671 1_556
Mg11 Mg4 2.988677 1_546
Mg11 Mg9 2.994548 1_655
Mg11 Mg7 2.994548 1_655
Mg11 Mg13 3.049378 1_545
Mg11 Mg13 3.049378 1_555
Mg11 Mg9 3.281990 1_545
Mg11 Mg7 3.281990 1_555
Mg11 Mg3 3.294400 1_555
Mg11 Mg5 3.294406 1_545
Mg12 Ti0 2.992323 1_655
Mg12 Mg5 3.082751 1_555
Mg12 Mg3 3.082757 1_555
Mg12 Mg4 3.088424 1_555
Mg12 Mg2 3.088430 1_555
Mg12 Mg6 3.100051 1_665
Mg12 Mg8 3.100052 1_655
Mg12 Mg6 3.181933 1_555
Mg12 Mg8 3.181933 1_555
Mg13 Ti0 2.992323 1_656
Mg13 Mg5 3.082751 1_555
Mg13 Mg3 3.082757 1_555
Mg13 Mg4 3.088424 1_556
Mg13 Mg2 3.088430 1_556
Mg13 Mg7 3.100051 1_665
Mg13 Mg9 3.100052 1_655
Mg13 Mg7 3.181933 1_555
Mg13 Mg9 3.181933 1_555
Ni0 Ti0 3.043805 1_545
Ni0 Ti0 3.043805 1_555
