# generated using pymatgen
data_K3Mg2Cl7
_symmetry_space_group_name_H-M   'P 1'
_cell_length_a   13.15606875
_cell_length_b   13.15606875
_cell_length_c   13.15606875
_cell_angle_alpha   158.30510272
_cell_angle_beta   158.30510272
_cell_angle_gamma   30.87029962
_symmetry_Int_Tables_number   1
_chemical_formula_structural   K3Mg2Cl7
_chemical_formula_sum   'K3 Mg2 Cl7'
_cell_volume   310.95660439
_cell_formula_units_Z   1
loop_
 _symmetry_equiv_pos_site_id
 _symmetry_equiv_pos_as_xyz
  1  'x, y, z'
loop_
 _atom_site_type_symbol
 _atom_site_label
 _atom_site_symmetry_multiplicity
 _atom_site_fract_x
 _atom_site_fract_y
 _atom_site_fract_z
 _atom_site_occupancy
  K  K0  1  0.31799210  0.31799210  0.00000000  1
  K  K1  1  0.68200790  0.68200790  -0.00000000  1
  K  K2  1  0.50000000  0.50000000  -0.00000000  1
  Mg  Mg0  1  0.09932785  0.09932785  -0.00000000  1
  Mg  Mg1  1  0.90067215  0.90067215  0.00000000  1
  Cl  Cl0  1  0.59579140  0.09579140  0.50000000  1
  Cl  Cl1  1  0.40420860  0.90420860  0.50000000  1
  Cl  Cl2  1  0.09579140  0.59579140  0.50000000  1
  Cl  Cl3  1  0.90420860  0.40420860  0.50000000  1
  Cl  Cl4  1  0.19637481  0.19637481  0.00000000  1
  Cl  Cl5  1  0.80362519  0.80362519  -0.00000000  1
  Cl  Cl6  1  -0.00000000  -0.00000000  -0.00000000  1
loop_
_geom_bond_atom_site_label_1
_geom_bond_atom_site_label_2
_geom_bond_distance
_geom_bond_site_symmetry_2
Cl0 Mg0 2.477527 1_656
Cl0 Mg0 2.477527 1_555
Cl0 K1 3.303307 1_545
Cl0 K1 3.303307 1_556
Cl0 K2 3.468847 1_556
Cl0 K2 3.468847 1_545
Cl1 Mg1 2.477527 1_556
Cl1 Mg1 2.477527 1_455
Cl1 K0 3.303307 1_555
Cl1 K0 3.303307 1_566
Cl1 K2 3.468847 1_555
Cl1 K2 3.468847 1_566
Cl2 Mg0 2.477527 1_555
Cl2 Mg0 2.477527 1_566
Cl2 K1 3.303307 1_556
Cl2 K1 3.303307 1_455
Cl2 K2 3.468847 1_556
Cl2 K2 3.468847 1_455
Cl3 Mg1 2.477527 1_556
Cl3 Mg1 2.477527 1_545
Cl3 K0 3.303307 1_555
Cl3 K0 3.303307 1_656
Cl3 K2 3.468847 1_555
Cl3 K2 3.468847 1_656
Cl4 Mg0 2.461414 1_555
Cl4 K0 3.084594 1_555
Cl4 K1 3.520365 1_455
Cl4 K1 3.520365 1_556
Cl4 K1 3.520365 1_444
Cl4 K1 3.520365 1_545
Cl5 Mg1 2.461414 1_555
Cl5 K1 3.084594 1_555
Cl5 K0 3.520365 1_655
Cl5 K0 3.520365 1_666
Cl5 K0 3.520365 1_554
Cl5 K0 3.520365 1_565
Cl6 Mg0 2.519264 1_555
Cl6 Mg1 2.519264 1_445
Cl6 K2 3.501455 1_444
Cl6 K2 3.501455 1_545
Cl6 K2 3.501455 1_455
Cl6 K2 3.501455 1_556
