# generated using pymatgen
data_CaCrNiP2O9
_symmetry_space_group_name_H-M   'P 1'
_cell_length_a   6.46135400
_cell_length_b   7.51246500
_cell_length_c   14.18058300
_cell_angle_alpha   90.00000000
_cell_angle_beta   90.00000000
_cell_angle_gamma   90.00000000
_symmetry_Int_Tables_number   1
_chemical_formula_structural   CaCrNiP2O9
_chemical_formula_sum   'Ca4 Cr4 Ni4 P8 O36'
_cell_volume   688.33536535
_cell_formula_units_Z   4
loop_
 _symmetry_equiv_pos_site_id
 _symmetry_equiv_pos_as_xyz
  1  'x, y, z'
loop_
 _atom_site_type_symbol
 _atom_site_label
 _atom_site_symmetry_multiplicity
 _atom_site_fract_x
 _atom_site_fract_y
 _atom_site_fract_z
 _atom_site_occupancy
  Ca  Ca0  1  0.25000000  0.87928600  0.27892800  1
  Ca  Ca1  1  0.25000000  0.62071400  0.77892800  1
  Ca  Ca2  1  0.75000000  0.12071400  0.72107200  1
  Ca  Ca3  1  0.75000000  0.37928600  0.22107200  1
  Cr  Cr0  1  0.25000000  0.34860800  0.38358100  1
  Cr  Cr1  1  0.75000000  0.65139200  0.61641900  1
  Cr  Cr2  1  0.75000000  0.84860800  0.11641900  1
  Cr  Cr3  1  0.25000000  0.15139200  0.88358100  1
  Ni  Ni0  1  0.00000000  0.00000000  0.50000000  1
  Ni  Ni1  1  0.00000000  0.50000000  0.00000000  1
  Ni  Ni2  1  0.50000000  0.50000000  0.00000000  1
  Ni  Ni3  1  0.50000000  0.00000000  0.50000000  1
  P  P0  1  0.75000000  0.34909700  0.43906500  1
  P  P1  1  0.25000000  0.65090300  0.56093500  1
  P  P2  1  0.25000000  0.84909700  0.06093500  1
  P  P3  1  0.75000000  0.15090300  0.93906500  1
  P  P4  1  0.25000000  0.38911900  0.19385000  1
  P  P5  1  0.75000000  0.61088100  0.80615000  1
  P  P6  1  0.75000000  0.88911900  0.30615000  1
  P  P7  1  0.25000000  0.11088100  0.69385000  1
  O  O0  1  0.55203500  0.60619600  0.86614900  1
  O  O1  1  0.05203500  0.39380400  0.13385100  1
  O  O2  1  0.44796500  0.10619600  0.63385100  1
  O  O3  1  0.94796500  0.89380400  0.36614900  1
  O  O4  1  0.44796500  0.39380400  0.13385100  1
  O  O5  1  0.94796500  0.60619600  0.86614900  1
  O  O6  1  0.55203500  0.89380400  0.36614900  1
  O  O7  1  0.05203500  0.10619600  0.63385100  1
  O  O8  1  0.75000000  0.33409800  0.98719200  1
  O  O9  1  0.25000000  0.66590200  0.01280800  1
  O  O10  1  0.25000000  0.83409800  0.51280800  1
  O  O11  1  0.75000000  0.16590200  0.48719200  1
  O  O12  1  0.25000000  0.14504700  0.44419100  1
  O  O13  1  0.75000000  0.85495300  0.55580900  1
  O  O14  1  0.75000000  0.64504700  0.05580900  1
  O  O15  1  0.25000000  0.35495300  0.94419100  1
  O  O16  1  0.25000000  0.21793200  0.25877700  1
  O  O17  1  0.75000000  0.78206800  0.74122300  1
  O  O18  1  0.75000000  0.71793200  0.24122300  1
  O  O19  1  0.25000000  0.28206800  0.75877700  1
  O  O20  1  0.93779900  0.13261000  0.87114100  1
  O  O21  1  0.43779900  0.86739000  0.12885900  1
  O  O22  1  0.06220100  0.63261000  0.62885900  1
  O  O23  1  0.56220100  0.36739000  0.37114100  1
  O  O24  1  0.06220100  0.86739000  0.12885900  1
  O  O25  1  0.56220100  0.13261000  0.87114100  1
  O  O26  1  0.93779900  0.36739000  0.37114100  1
  O  O27  1  0.43779900  0.63261000  0.62885900  1
  O  O28  1  0.25000000  0.96240500  0.77203400  1
  O  O29  1  0.75000000  0.03759500  0.22796600  1
  O  O30  1  0.75000000  0.46240500  0.72796600  1
  O  O31  1  0.25000000  0.53759500  0.27203400  1
  O  O32  1  0.25000000  0.99118900  0.98410600  1
  O  O33  1  0.75000000  0.00881100  0.01589400  1
  O  O34  1  0.75000000  0.49118900  0.51589400  1
  O  O35  1  0.25000000  0.50881100  0.48410600  1
loop_
_geom_bond_atom_site_label_1
_geom_bond_atom_site_label_2
_geom_bond_distance
_geom_bond_site_symmetry_2
Ca0 O6 2.313060 1_555
Ca0 O3 2.313060 1_455
Ca0 O24 2.451342 1_555
Ca0 O21 2.451342 1_555
Ca0 O16 2.560064 1_565
Ca0 O31 2.568803 1_555
Ca1 O0 2.313060 1_555
Ca1 O5 2.313060 1_455
Ca1 O27 2.451342 1_555
Ca1 O22 2.451342 1_555
Ca1 O19 2.560064 1_555
Ca1 O28 2.568803 1_555
Ca2 O2 2.313060 1_555
Ca2 O7 2.313060 1_655
Ca2 O20 2.451342 1_555
Ca2 O25 2.451342 1_555
Ca2 O17 2.560064 1_545
Ca2 O30 2.568803 1_555
Ca3 O4 2.313060 1_555
Ca3 O1 2.313060 1_655
Ca3 O26 2.451342 1_555
Ca3 O23 2.451342 1_555
Ca3 O18 2.560064 1_555
Ca3 O29 2.568803 1_555
Cr0 O12 1.754225 1_555
Cr0 O35 1.865615 1_555
Cr0 O16 2.023833 1_555
Cr0 O23 2.029850 1_555
Cr0 O26 2.029850 1_455
Cr0 O31 2.125514 1_555
Cr1 O13 1.754225 1_555
Cr1 O34 1.865615 1_555
Cr1 O17 2.023833 1_555
Cr1 O22 2.029850 1_655
Cr1 O27 2.029850 1_555
Cr1 O30 2.125514 1_555
Cr2 O14 1.754225 1_555
Cr2 O33 1.865615 1_565
Cr2 O18 2.023833 1_555
Cr2 O24 2.029850 1_655
Cr2 O21 2.029850 1_555
Cr2 O29 2.125514 1_565
Cr3 O15 1.754225 1_555
Cr3 O32 1.865615 1_545
Cr3 O19 2.023833 1_555
Cr3 O25 2.029850 1_555
Cr3 O20 2.029850 1_455
Cr3 O28 2.125514 1_545
Ni0 O10 2.048329 1_545
Ni0 O11 2.048329 1_455
Ni0 O7 2.086203 1_555
Ni0 O3 2.086203 1_445
Ni0 O12 2.103093 1_555
Ni0 O13 2.103093 1_445
Ni1 O9 2.048329 1_555
Ni1 O8 2.048329 1_454
Ni1 O1 2.086203 1_555
Ni1 O5 2.086203 1_454
Ni1 O14 2.103093 1_455
Ni1 O15 2.103093 1_554
Ni2 O8 2.048329 1_554
Ni2 O9 2.048329 1_555
Ni2 O0 2.086203 1_554
Ni2 O4 2.086203 1_555
Ni2 O14 2.103093 1_555
Ni2 O15 2.103093 1_554
Ni3 O10 2.048329 1_545
Ni3 O11 2.048329 1_555
Ni3 O2 2.086203 1_555
Ni3 O6 2.086203 1_545
Ni3 O12 2.103093 1_555
Ni3 O13 2.103093 1_545
O0 P5 1.536648 1_555
O1 P4 1.536648 1_555
O2 P7 1.536648 1_555
O3 P6 1.536648 1_555
O4 P4 1.536648 1_555
O5 P5 1.536648 1_555
O6 P6 1.536648 1_555
O7 P7 1.536648 1_555
O8 P3 1.536170 1_555
O9 P2 1.536170 1_555
O10 P1 1.536170 1_555
O11 P0 1.536170 1_555
O16 P4 1.581639 1_555
O17 P5 1.581639 1_555
O18 P6 1.581639 1_555
O19 P7 1.581639 1_555
O20 P3 1.555336 1_555
O21 P2 1.555336 1_555
O22 P1 1.555336 1_555
O23 P0 1.555336 1_555
O24 P2 1.555336 1_555
O25 P3 1.555336 1_555
O26 P0 1.555336 1_555
O27 P1 1.555336 1_555
O28 P7 1.572694 1_565
O29 P6 1.572694 1_545
O30 P5 1.572694 1_555
O31 P4 1.572694 1_555
O32 P2 1.525267 1_556
O33 P3 1.525267 1_554
O34 P0 1.525267 1_555
O35 P1 1.525267 1_555
