# generated using pymatgen
data_Li2Cu(Si2O5)2
_symmetry_space_group_name_H-M   'P 1'
_cell_length_a   11.04019903
_cell_length_b   7.70051800
_cell_length_c   11.12709267
_cell_angle_alpha   90.00000000
_cell_angle_beta   110.87169891
_cell_angle_gamma   90.00000000
_symmetry_Int_Tables_number   1
_chemical_formula_structural   Li2Cu(Si2O5)2
_chemical_formula_sum   'Li8 Cu4 Si16 O40'
_cell_volume   883.89839849
_cell_formula_units_Z   4
loop_
 _symmetry_equiv_pos_site_id
 _symmetry_equiv_pos_as_xyz
  1  'x, y, z'
loop_
 _atom_site_type_symbol
 _atom_site_label
 _atom_site_symmetry_multiplicity
 _atom_site_fract_x
 _atom_site_fract_y
 _atom_site_fract_z
 _atom_site_occupancy
  Li  Li0  1  0.09563300  0.25000000  0.39536500  1
  Li  Li1  1  0.04224500  0.25000000  0.10700200  1
  Li  Li2  1  0.36944500  0.25000000  0.83541200  1
  Li  Li3  1  0.38472300  0.25000000  0.44597600  1
  Li  Li4  1  0.61527600  0.75000000  0.55402400  1
  Li  Li5  1  0.63055500  0.75000000  0.16458800  1
  Li  Li6  1  0.95775500  0.75000000  0.89299800  1
  Li  Li7  1  0.90436700  0.75000000  0.60463500  1
  Cu  Cu0  1  0.21391800  0.02921200  0.28217600  1
  Cu  Cu1  1  0.21391800  0.47078800  0.28217600  1
  Cu  Cu2  1  0.78608200  0.52921200  0.71782400  1
  Cu  Cu3  1  0.78608200  0.97078800  0.71782400  1
  Si  Si0  1  0.08504000  0.04743800  0.74123600  1
  Si  Si1  1  0.08504000  0.45256200  0.74123600  1
  Si  Si2  1  0.26190600  0.95491500  0.58919600  1
  Si  Si3  1  0.26190600  0.54508500  0.58919600  1
  Si  Si4  1  0.23732500  0.54964400  0.01522400  1
  Si  Si5  1  0.23732500  0.95035600  0.01522400  1
  Si  Si6  1  0.53089700  0.94607100  0.77615100  1
  Si  Si7  1  0.53089700  0.55392900  0.77615100  1
  Si  Si8  1  0.46910300  0.05392900  0.22384900  1
  Si  Si9  1  0.46910300  0.44607100  0.22384900  1
  Si  Si10  1  0.76267500  0.04964400  0.98477600  1
  Si  Si11  1  0.76267500  0.45035600  0.98477600  1
  Si  Si12  1  0.73809400  0.04508500  0.41080400  1
  Si  Si13  1  0.73809400  0.45491500  0.41080400  1
  Si  Si14  1  0.91496000  0.54743800  0.25876400  1
  Si  Si15  1  0.91496000  0.95256200  0.25876400  1
  O  O0  1  0.04355800  0.25000000  0.70405400  1
  O  O1  1  0.21390600  0.04969900  0.87657400  1
  O  O2  1  0.21390600  0.45030100  0.87657400  1
  O  O3  1  0.18147900  0.75000000  0.98132400  1
  O  O4  1  0.13272500  0.53251500  0.62857400  1
  O  O5  1  0.13272500  0.96748500  0.62857400  1
  O  O6  1  0.03093100  0.07026100  0.24994700  1
  O  O7  1  0.03093100  0.42973900  0.24994700  1
  O  O8  1  0.29230800  0.75000000  0.57029100  1
  O  O9  1  0.24552700  0.07159500  0.46503900  1
  O  O10  1  0.24552700  0.42840500  0.46503900  1
  O  O11  1  0.16619200  0.44873200  0.09769600  1
  O  O12  1  0.16619200  0.05126800  0.09769600  1
  O  O13  1  0.38364600  0.46481400  0.71587400  1
  O  O14  1  0.38364600  0.03518600  0.71587400  1
  O  O15  1  0.51358500  0.75000000  0.82543500  1
  O  O16  1  0.60405300  0.06002700  0.90756600  1
  O  O17  1  0.60405300  0.43997300  0.90756600  1
  O  O18  1  0.39959300  0.04907300  0.32883300  1
  O  O19  1  0.39959300  0.45092700  0.32883300  1
  O  O20  1  0.60040700  0.54907300  0.67116700  1
  O  O21  1  0.60040700  0.95092700  0.67116700  1
  O  O22  1  0.39594700  0.56002700  0.09243400  1
  O  O23  1  0.39594700  0.93997300  0.09243400  1
  O  O24  1  0.48641500  0.25000000  0.17456500  1
  O  O25  1  0.61635400  0.53518600  0.28412600  1
  O  O26  1  0.61635400  0.96481400  0.28412600  1
  O  O27  1  0.83380800  0.94873200  0.90230400  1
  O  O28  1  0.83380800  0.55126800  0.90230400  1
  O  O29  1  0.75447300  0.57159500  0.53496100  1
  O  O30  1  0.75447300  0.92840500  0.53496100  1
  O  O31  1  0.70769200  0.25000000  0.42970900  1
  O  O32  1  0.96906900  0.57026100  0.75005300  1
  O  O33  1  0.96906900  0.92973900  0.75005300  1
  O  O34  1  0.86727500  0.03251500  0.37142600  1
  O  O35  1  0.86727500  0.46748500  0.37142600  1
  O  O36  1  0.81852100  0.25000000  0.01867600  1
  O  O37  1  0.78609400  0.54969900  0.12342600  1
  O  O38  1  0.78609400  0.95030100  0.12342600  1
  O  O39  1  0.95644200  0.75000000  0.29594600  1
loop_
_geom_bond_atom_site_label_1
_geom_bond_atom_site_label_2
_geom_bond_distance
_geom_bond_site_symmetry_2
Li0 O7 2.054394 1_555
Li0 O6 2.054394 1_555
Li0 O9 2.076724 1_555
Li0 O10 2.076724 1_555
Li1 O11 2.079938 1_555
Li1 O12 2.079938 1_555
Li1 O6 2.145401 1_555
Li1 O7 2.145401 1_555
Li1 O36 2.310170 1_455
Li2 O14 2.163025 1_555
Li2 O13 2.163025 1_555
Li2 O2 2.469407 1_555
Li2 O1 2.469407 1_555
Li3 O18 2.066978 1_555
Li3 O19 2.066978 1_555
Li3 O10 2.127493 1_555
Li3 O9 2.127493 1_555
Li4 O20 2.066974 1_555
Li4 O21 2.066974 1_555
Li4 O30 2.127501 1_555
Li4 O29 2.127501 1_555
Li5 O25 2.163025 1_555
Li5 O26 2.163025 1_555
Li5 O37 2.469407 1_555
Li5 O38 2.469407 1_555
Li6 O28 2.079938 1_555
Li6 O27 2.079938 1_555
Li6 O32 2.145401 1_555
Li6 O33 2.145401 1_555
Li6 O3 2.310170 1_655
Li7 O32 2.054394 1_555
Li7 O33 2.054394 1_555
Li7 O30 2.076724 1_555
Li7 O29 2.076724 1_555
Cu0 O18 1.933042 1_555
Cu0 O12 1.936354 1_555
Cu0 O6 1.947705 1_555
Cu0 O9 1.965320 1_555
Cu1 O19 1.933042 1_555
Cu1 O11 1.936354 1_555
Cu1 O7 1.947705 1_555
Cu1 O10 1.965320 1_555
Cu2 O20 1.933042 1_555
Cu2 O28 1.936354 1_555
Cu2 O32 1.947705 1_555
Cu2 O29 1.965320 1_555
Cu3 O21 1.933042 1_555
Cu3 O27 1.936354 1_555
Cu3 O33 1.947705 1_555
Cu3 O30 1.965320 1_555
O0 Si0 1.636757 1_555
O0 Si1 1.636757 1_555
O1 Si5 1.657703 1_546
O1 Si0 1.662996 1_555
O2 Si4 1.657703 1_556
O2 Si1 1.662996 1_555
O3 Si5 1.654411 1_556
O3 Si4 1.654411 1_556
O4 Si3 1.637263 1_555
O4 Si1 1.642554 1_555
O5 Si2 1.637263 1_555
O5 Si0 1.642554 1_565
O6 Si15 1.599958 1_445
O7 Si14 1.599958 1_455
O8 Si2 1.642300 1_555
O8 Si3 1.642300 1_555
O9 Si2 1.603293 1_545
O10 Si3 1.603293 1_555
O11 Si4 1.605060 1_555
O12 Si5 1.605060 1_545
O13 Si7 1.669330 1_555
O13 Si3 1.680903 1_555
O14 Si6 1.669330 1_545
O14 Si2 1.680903 1_545
O15 Si6 1.640605 1_555
O15 Si7 1.640605 1_555
O16 Si6 1.648952 1_545
O16 Si10 1.655055 1_555
O17 Si7 1.648952 1_555
O17 Si11 1.655055 1_555
O18 Si8 1.610495 1_555
O19 Si9 1.610495 1_555
O20 Si7 1.610495 1_555
O21 Si6 1.610495 1_555
O22 Si9 1.648952 1_555
O22 Si4 1.655055 1_555
O23 Si8 1.648952 1_565
O23 Si5 1.655055 1_555
O24 Si9 1.640605 1_555
O24 Si8 1.640605 1_555
O25 Si9 1.669330 1_555
O25 Si13 1.680903 1_555
O26 Si8 1.669330 1_565
O26 Si12 1.680903 1_565
O27 Si10 1.605060 1_565
O28 Si11 1.605060 1_555
O29 Si13 1.603293 1_555
O30 Si12 1.603293 1_565
O31 Si12 1.642300 1_555
O31 Si13 1.642300 1_555
O32 Si1 1.599958 1_655
O33 Si0 1.599958 1_665
O34 Si12 1.637263 1_555
O34 Si15 1.642554 1_545
O35 Si13 1.637263 1_555
O35 Si14 1.642554 1_555
O36 Si11 1.654411 1_554
O36 Si10 1.654411 1_554
O37 Si11 1.657703 1_554
O37 Si14 1.662996 1_555
O38 Si10 1.657703 1_564
O38 Si15 1.662996 1_555
O39 Si15 1.636757 1_555
O39 Si14 1.636757 1_555
