# generated using pymatgen
data_Ca2Ni7
_symmetry_space_group_name_H-M   'P 1'
_cell_length_a   4.98853968
_cell_length_b   4.98853900
_cell_length_c   12.29302135
_cell_angle_alpha   78.29332940
_cell_angle_beta   78.29333103
_cell_angle_gamma   59.99999789
_symmetry_Int_Tables_number   1
_chemical_formula_structural   Ca2Ni7
_chemical_formula_sum   'Ca4 Ni14'
_cell_volume   257.55904277
_cell_formula_units_Z   2
loop_
 _symmetry_equiv_pos_site_id
 _symmetry_equiv_pos_as_xyz
  1  'x, y, z'
loop_
 _atom_site_type_symbol
 _atom_site_label
 _atom_site_symmetry_multiplicity
 _atom_site_fract_x
 _atom_site_fract_y
 _atom_site_fract_z
 _atom_site_occupancy
  Ca  Ca0  1  0.94859400  0.94859400  0.15421700  1
  Ca  Ca1  1  0.05140600  0.05140600  0.84578300  1
  Ca  Ca2  1  0.85183300  0.85183300  0.44450200  1
  Ca  Ca3  1  0.14816700  0.14816700  0.55549800  1
  Ni  Ni0  1  0.50000000  0.50000000  0.50000000  1
  Ni  Ni1  1  0.72178700  0.72178700  0.83463800  1
  Ni  Ni2  1  0.27821300  0.27821300  0.16536200  1
  Ni  Ni3  1  0.61226600  0.61226600  0.16320200  1
  Ni  Ni4  1  0.38773400  0.38773400  0.83679800  1
  Ni  Ni5  1  0.00000000  0.50000000  0.00000000  1
  Ni  Ni6  1  0.50000000  0.00000000  0.00000000  1
  Ni  Ni7  1  0.50000000  0.50000000  0.00000000  1
  Ni  Ni8  1  0.39155300  0.39155300  0.32719200  1
  Ni  Ni9  1  0.88970300  0.39155300  0.32719200  1
  Ni  Ni10  1  0.39155300  0.88970300  0.32719200  1
  Ni  Ni11  1  0.60844700  0.60844700  0.67280800  1
  Ni  Ni12  1  0.11029700  0.60844700  0.67280800  1
  Ni  Ni13  1  0.60844700  0.11029700  0.67280800  1
loop_
_geom_bond_atom_site_label_1
_geom_bond_atom_site_label_2
_geom_bond_distance
_geom_bond_site_symmetry_2
Ca0 Ni3 2.882133 1_555
Ca0 Ni3 2.882137 1_565
Ca0 Ni3 2.882137 1_655
Ca0 Ni2 2.883210 1_655
Ca0 Ni2 2.883210 1_565
Ca0 Ni2 2.883218 1_665
Ca0 Ni5 3.101309 1_655
Ca0 Ni6 3.101309 1_565
Ca0 Ni7 3.101311 1_565
Ca0 Ni7 3.101311 1_655
Ca0 Ni5 3.101313 1_665
Ca0 Ni6 3.101313 1_665
Ca0 Ni9 3.239553 1_555
Ca0 Ni10 3.239553 1_555
Ca0 Ni8 3.239557 1_655
Ca0 Ni8 3.239557 1_565
Ca0 Ni9 3.239561 1_565
Ca0 Ni10 3.239561 1_655
Ca1 Ni4 2.882133 1_555
Ca1 Ni4 2.882137 1_545
Ca1 Ni4 2.882137 1_455
Ca1 Ni1 2.883210 1_455
Ca1 Ni1 2.883210 1_545
Ca1 Ni1 2.883218 1_445
Ca1 Ni5 3.101309 1_556
Ca1 Ni6 3.101309 1_556
Ca1 Ni7 3.101311 1_546
Ca1 Ni7 3.101311 1_456
Ca1 Ni5 3.101313 1_546
Ca1 Ni6 3.101313 1_456
Ca1 Ni12 3.239553 1_555
Ca1 Ni13 3.239553 1_555
Ca1 Ni11 3.239557 1_455
Ca1 Ni11 3.239557 1_545
Ca1 Ni12 3.239561 1_545
Ca1 Ni13 3.239561 1_455
Ca2 Ni9 2.861274 1_565
Ca2 Ni8 2.861274 1_565
Ca2 Ni9 2.861274 1_555
Ca2 Ni8 2.861274 1_655
Ca2 Ni10 2.861274 1_555
Ca2 Ni10 2.861274 1_655
Ca2 Ni0 2.955514 1_565
Ca2 Ni0 2.955515 1_655
Ca2 Ni0 2.955519 1_555
Ca2 Ni13 3.087657 1_565
Ca2 Ni12 3.087657 1_655
Ca2 Ni11 3.087661 1_555
Ca3 Ni12 2.861274 1_545
Ca3 Ni11 2.861274 1_545
Ca3 Ni12 2.861274 1_555
Ca3 Ni11 2.861274 1_455
Ca3 Ni13 2.861274 1_555
Ca3 Ni13 2.861274 1_455
Ca3 Ni0 2.955514 1_545
Ca3 Ni0 2.955515 1_455
Ca3 Ni0 2.955519 1_555
Ca3 Ni10 3.087657 1_545
Ca3 Ni9 3.087657 1_455
Ca3 Ni8 3.087661 1_555
Ni0 Ni11 2.514665 1_555
Ni0 Ni8 2.514665 1_555
Ni0 Ni13 2.514667 1_555
Ni0 Ni10 2.514667 1_555
Ni0 Ni12 2.514668 1_555
Ni0 Ni9 2.514668 1_555
Ni1 Ni13 2.414448 1_565
Ni1 Ni11 2.414448 1_555
Ni1 Ni12 2.414448 1_655
Ni1 Ni7 2.445246 1_556
Ni1 Ni6 2.445248 1_566
Ni1 Ni5 2.445248 1_656
Ni2 Ni8 2.414448 1_555
Ni2 Ni9 2.414448 1_455
Ni2 Ni7 2.445246 1_555
Ni2 Ni6 2.445248 1_555
Ni2 Ni5 2.445248 1_555
Ni3 Ni6 2.424433 1_565
Ni3 Ni7 2.424433 1_555
Ni3 Ni5 2.424433 1_655
Ni3 Ni8 2.428862 1_555
Ni3 Ni9 2.428865 1_555
Ni4 Ni6 2.424433 1_556
Ni4 Ni7 2.424433 1_556
Ni4 Ni5 2.424433 1_556
Ni5 Ni6 2.494270 1_555
Ni5 Ni6 2.494270 1_465
Ni5 Ni7 2.494270 1_555
Ni5 Ni7 2.494270 1_455
Ni6 Ni7 2.494270 1_555
Ni6 Ni7 2.494270 1_545
Ni8 Ni9 2.485041 1_555
Ni8 Ni9 2.503499 1_455
Ni10 Ni2 2.414448 1_565
Ni10 Ni3 2.428865 1_555
Ni10 Ni8 2.485041 1_555
Ni10 Ni9 2.485041 1_555
Ni10 Ni8 2.503498 1_565
Ni10 Ni9 2.503498 1_465
Ni11 Ni4 2.428862 1_555
Ni11 Ni13 2.485041 1_555
Ni11 Ni12 2.485041 1_555
Ni11 Ni13 2.503498 1_565
Ni11 Ni12 2.503499 1_655
Ni12 Ni4 2.428865 1_555
Ni12 Ni13 2.485041 1_555
Ni12 Ni13 2.503498 1_465
Ni13 Ni4 2.428865 1_555
