# generated using pymatgen
data_ScNi4Sn
_symmetry_space_group_name_H-M   'P 1'
_cell_length_a   4.83536203
_cell_length_b   4.83536262
_cell_length_c   4.83536245
_cell_angle_alpha   60.00000125
_cell_angle_beta   59.99999722
_cell_angle_gamma   59.99999419
_symmetry_Int_Tables_number   1
_chemical_formula_structural   ScNi4Sn
_chemical_formula_sum   'Sc1 Ni4 Sn1'
_cell_volume   79.94145652
_cell_formula_units_Z   1
loop_
 _symmetry_equiv_pos_site_id
 _symmetry_equiv_pos_as_xyz
  1  'x, y, z'
loop_
 _atom_site_type_symbol
 _atom_site_label
 _atom_site_symmetry_multiplicity
 _atom_site_fract_x
 _atom_site_fract_y
 _atom_site_fract_z
 _atom_site_occupancy
  Sc  Sc0  1  0.00000000  -0.00000000  0.00000000  1
  Ni  Ni0  1  0.62494670  0.62494670  0.62494670  1
  Ni  Ni1  1  0.62494670  0.62494670  0.12515790  1
  Ni  Ni2  1  0.12515790  0.62494670  0.62494670  1
  Ni  Ni3  1  0.62494670  0.12515790  0.62494670  1
  Sn  Sn0  1  0.25000000  0.25000000  0.25000000  1
loop_
_geom_bond_atom_site_label_1
_geom_bond_atom_site_label_2
_geom_bond_distance
_geom_bond_site_symmetry_2
Sc0 Sn0 2.961042 1_455
Sc0 Sn0 2.961043 1_555
Sc0 Sn0 2.961043 1_554
Sc0 Sn0 2.961043 1_545
Ni0 Ni2 2.416660 1_555
Ni0 Ni1 2.416660 1_555
Ni0 Ni3 2.416660 1_555
Ni0 Ni2 2.418702 1_655
Ni0 Ni1 2.418702 1_556
Ni0 Ni3 2.418703 1_565
Ni0 Sn0 2.834872 1_655
Ni0 Sn0 2.834873 1_565
Ni0 Sn0 2.834873 1_556
Ni0 Sc0 2.835092 1_566
Ni0 Sc0 2.835092 1_656
Ni0 Sc0 2.835093 1_665
Ni1 Ni2 2.416660 1_555
Ni1 Ni3 2.416660 1_555
Ni1 Ni2 2.418702 1_654
Ni1 Ni3 2.418703 1_564
Ni1 Sn0 2.834869 1_555
Ni1 Sn0 2.834876 1_655
Ni1 Sn0 2.834877 1_565
Ni1 Sc0 2.835088 1_565
Ni1 Sc0 2.835088 1_655
Ni1 Sc0 2.835097 1_665
Ni2 Ni3 2.416660 1_555
Ni2 Ni3 2.418702 1_465
Ni2 Sn0 2.834869 1_555
Ni2 Sn0 2.834877 1_556
Ni2 Sn0 2.834877 1_565
Ni2 Sc0 2.835088 1_565
Ni2 Sc0 2.835089 1_556
Ni2 Sc0 2.835097 1_566
Ni3 Sn0 2.834868 1_555
Ni3 Sn0 2.834877 1_655
Ni3 Sn0 2.834877 1_556
Ni3 Sc0 2.835088 1_556
Ni3 Sc0 2.835088 1_655
Ni3 Sc0 2.835096 1_656
