# generated using pymatgen
data_Cs2ScHgF6
_symmetry_space_group_name_H-M   'P 1'
_cell_length_a   6.63181686
_cell_length_b   6.63181704
_cell_length_c   6.63181703
_cell_angle_alpha   59.99999927
_cell_angle_beta   59.99999895
_cell_angle_gamma   59.99999902
_symmetry_Int_Tables_number   1
_chemical_formula_structural   Cs2ScHgF6
_chemical_formula_sum   'Cs2 Sc1 Hg1 F6'
_cell_volume   206.24460133
_cell_formula_units_Z   1
loop_
 _symmetry_equiv_pos_site_id
 _symmetry_equiv_pos_as_xyz
  1  'x, y, z'
loop_
 _atom_site_type_symbol
 _atom_site_label
 _atom_site_symmetry_multiplicity
 _atom_site_fract_x
 _atom_site_fract_y
 _atom_site_fract_z
 _atom_site_occupancy
  Cs  Cs0  1  0.25000000  0.25000000  0.25000000  1
  Cs  Cs1  1  0.75000000  0.75000000  0.75000000  1
  Sc  Sc0  1  0.00000000  0.00000000  0.00000000  1
  Hg  Hg0  1  0.50000000  0.50000000  0.50000000  1
  F  F0  1  0.21801779  0.78198221  0.21801779  1
  F  F1  1  0.78198221  0.78198221  0.21801779  1
  F  F2  1  0.78198221  0.21801779  0.78198221  1
  F  F3  1  0.78198221  0.21801779  0.21801779  1
  F  F4  1  0.21801779  0.78198221  0.78198221  1
  F  F5  1  0.21801779  0.21801779  0.78198221  1
loop_
_geom_bond_atom_site_label_1
_geom_bond_atom_site_label_2
_geom_bond_distance
_geom_bond_site_symmetry_2
Cs0 F2 3.329448 1_554
Cs0 F1 3.329448 1_545
Cs0 F3 3.329448 1_555
Cs0 F2 3.329448 1_455
Cs0 F1 3.329448 1_455
Cs0 F3 3.329448 1_455
Cs0 F4 3.329448 1_545
Cs0 F4 3.329448 1_554
Cs0 F5 3.329448 1_555
Cs0 F0 3.329448 1_555
Cs0 F5 3.329448 1_554
Cs0 F0 3.329448 1_545
Cs1 F0 3.329448 1_556
Cs1 F5 3.329448 1_565
Cs1 F4 3.329448 1_555
Cs1 F0 3.329448 1_655
Cs1 F5 3.329448 1_655
Cs1 F4 3.329448 1_655
Cs1 F3 3.329448 1_565
Cs1 F3 3.329448 1_556
Cs1 F1 3.329448 1_555
Cs1 F2 3.329448 1_555
Cs1 F1 3.329448 1_556
Cs1 F2 3.329448 1_565
F0 Sc0 2.044746 1_565
F0 Hg0 2.644656 1_555
F1 Sc0 2.044746 1_665
F1 Hg0 2.644656 1_555
F2 Sc0 2.044746 1_656
F2 Hg0 2.644656 1_555
F3 Sc0 2.044746 1_655
F3 Hg0 2.644656 1_555
F4 Sc0 2.044746 1_566
F4 Hg0 2.644656 1_555
F5 Sc0 2.044746 1_556
F5 Hg0 2.644656 1_555
