# generated using pymatgen
data_Ba2Ti4Cr2O13
_symmetry_space_group_name_H-M   'P 1'
_cell_length_a   7.84720675
_cell_length_b   7.90059000
_cell_length_c   10.04823286
_cell_angle_alpha   66.84836995
_cell_angle_beta   103.13830062
_cell_angle_gamma   104.57862129
_symmetry_Int_Tables_number   1
_chemical_formula_structural   Ba2Ti4Cr2O13
_chemical_formula_sum   'Ba4 Ti8 Cr4 O26'
_cell_volume   548.55904133
_cell_formula_units_Z   2
loop_
 _symmetry_equiv_pos_site_id
 _symmetry_equiv_pos_as_xyz
  1  'x, y, z'
loop_
 _atom_site_type_symbol
 _atom_site_label
 _atom_site_symmetry_multiplicity
 _atom_site_fract_x
 _atom_site_fract_y
 _atom_site_fract_z
 _atom_site_occupancy
  Ba  Ba0  1  0.89628800  0.11024500  0.22764200  1
  Ba  Ba1  1  0.89628500  0.61024700  0.22765500  1
  Ba  Ba2  1  0.10369900  0.88976000  0.77233800  1
  Ba  Ba3  1  0.10370800  0.38974700  0.77234700  1
  Ti  Ti0  1  0.24760200  0.01832100  0.08698000  1
  Ti  Ti1  1  0.24762200  0.51833000  0.08699000  1
  Ti  Ti2  1  0.75238300  0.98167400  0.91300700  1
  Ti  Ti3  1  0.75240400  0.48167900  0.91302000  1
  Ti  Ti4  1  0.33209400  0.86444900  0.43714900  1
  Ti  Ti5  1  0.33209500  0.36444600  0.43715000  1
  Ti  Ti6  1  0.66790300  0.13555100  0.56285200  1
  Ti  Ti7  1  0.66791000  0.63555200  0.56285300  1
  Cr  Cr0  1  0.48973500  0.74255200  0.75973000  1
  Cr  Cr1  1  0.51025500  0.75744100  0.24028400  1
  Cr  Cr2  1  0.48976600  0.24257200  0.75974200  1
  Cr  Cr3  1  0.51023500  0.25743500  0.24026800  1
  O  O0  1  0.00000300  0.50000100  0.00000200  1
  O  O1  1  0.00000200  0.99999900  0.99999500  1
  O  O2  1  0.60210800  0.86476200  0.57152000  1
  O  O3  1  0.60211900  0.36476500  0.57152500  1
  O  O4  1  0.39787400  0.13523300  0.42847600  1
  O  O5  1  0.39788800  0.63523800  0.42847700  1
  O  O6  1  0.26046400  0.75600600  0.61815400  1
  O  O7  1  0.26048200  0.25601300  0.61816200  1
  O  O8  1  0.73951600  0.24398400  0.38183600  1
  O  O9  1  0.73953900  0.74398800  0.38185200  1
  O  O10  1  0.33815600  0.62535500  0.91838700  1
  O  O11  1  0.33815900  0.12535900  0.91838800  1
  O  O12  1  0.66184400  0.37464400  0.08161400  1
  O  O13  1  0.66185400  0.87464500  0.08161400  1
  O  O14  1  0.73697900  0.74177400  0.88485900  1
  O  O15  1  0.73698900  0.24178000  0.88486600  1
  O  O16  1  0.26301300  0.25822400  0.11512900  1
  O  O17  1  0.26302800  0.75822800  0.11513700  1
  O  O18  1  0.13627300  0.88177400  0.30462400  1
  O  O19  1  0.13627200  0.38177000  0.30462800  1
  O  O20  1  0.86372700  0.11823200  0.69537200  1
  O  O21  1  0.86372800  0.61822200  0.69537500  1
  O  O22  1  0.47282900  0.99697600  0.24245400  1
  O  O23  1  0.47283200  0.49697800  0.24245500  1
  O  O24  1  0.52717100  0.00302500  0.75754700  1
  O  O25  1  0.52716900  0.50302400  0.75754700  1
loop_
_geom_bond_atom_site_label_1
_geom_bond_atom_site_label_2
_geom_bond_distance
_geom_bond_site_symmetry_2
Ba0 O18 2.711856 1_645
Ba0 O19 2.712137 1_655
Ba0 O9 2.799314 1_545
Ba0 O8 2.799759 1_555
Ba0 O12 2.863292 1_555
Ba0 O13 2.863349 1_545
Ba0 O0 3.069643 1_655
Ba0 O1 3.069744 1_644
Ba0 O16 3.110069 1_655
Ba0 O15 3.223017 1_554
Ba0 O22 3.238550 1_545
Ba1 O19 2.711916 1_655
Ba1 O18 2.712087 1_655
Ba1 O8 2.799323 1_555
Ba1 O9 2.799659 1_555
Ba1 O13 2.863225 1_555
Ba1 O12 2.863466 1_555
Ba1 O1 3.069709 1_654
Ba1 O0 3.069815 1_655
Ba1 O17 3.110219 1_655
Ba1 O14 3.223201 1_554
Ba1 O23 3.238484 1_555
Ba2 O20 2.711802 1_465
Ba2 O21 2.712066 1_455
Ba2 O7 2.799288 1_565
Ba2 O6 2.799725 1_555
Ba2 O10 2.863414 1_555
Ba2 O11 2.863555 1_565
Ba2 O0 3.069731 1_556
Ba2 O1 3.069733 1_555
Ba2 O14 3.110067 1_455
Ba2 O17 3.223268 1_556
Ba2 O24 3.238613 1_565
Ba3 O21 2.711862 1_455
Ba3 O20 2.712021 1_455
Ba3 O6 2.799299 1_555
Ba3 O7 2.799669 1_555
Ba3 O11 2.863282 1_555
Ba3 O10 2.863507 1_555
Ba3 O1 3.069623 1_545
Ba3 O0 3.069823 1_556
Ba3 O15 3.110052 1_455
Ba3 O16 3.223080 1_556
Ba3 O25 3.238545 1_555
Cr0 O10 1.990129 1_555
Cr0 O25 1.995850 1_555
Cr0 O24 1.996194 1_565
Cr0 O6 2.021334 1_555
Cr0 O2 2.044524 1_555
Cr0 O14 2.058187 1_555
Cr1 O13 1.990331 1_555
Cr1 O22 1.995826 1_555
Cr1 O23 1.996171 1_555
Cr1 O9 2.021371 1_555
Cr1 O5 2.044356 1_555
Cr1 O17 2.058151 1_555
Cr2 O11 1.990191 1_555
Cr2 O24 1.995960 1_555
Cr2 O25 1.996015 1_555
Cr2 O7 2.021429 1_555
Cr2 O3 2.044500 1_555
Cr2 O15 2.058034 1_555
Cr3 O12 1.990262 1_555
Cr3 O23 1.995889 1_555
Cr3 O22 1.996100 1_545
Cr3 O8 2.021353 1_555
Cr3 O4 2.044458 1_555
Cr3 O16 2.058088 1_555
O0 Ti3 1.935420 1_454
O0 Ti1 1.935574 1_555
O1 Ti0 1.935435 1_566
O1 Ti2 1.935574 1_455
O2 Ti7 2.041749 1_555
O2 Ti6 2.041817 1_565
O2 Ti4 2.238749 1_555
O3 Ti6 2.041738 1_555
O3 Ti7 2.041789 1_555
O3 Ti5 2.238829 1_555
O4 Ti5 2.041716 1_555
O4 Ti4 2.041763 1_545
O4 Ti6 2.238864 1_555
O5 Ti4 2.041749 1_555
O5 Ti5 2.041824 1_555
O5 Ti7 2.238820 1_555
O6 Ti4 1.831656 1_555
O7 Ti5 1.831662 1_555
O8 Ti6 1.831698 1_555
O9 Ti7 1.831617 1_555
O10 Ti1 1.791144 1_556
O11 Ti0 1.791139 1_556
O12 Ti3 1.791168 1_554
O13 Ti2 1.791159 1_554
O14 Ti3 1.992428 1_555
O14 Ti2 1.994398 1_555
O15 Ti2 1.992499 1_545
O15 Ti3 1.994402 1_555
O16 Ti1 1.992498 1_555
O16 Ti0 1.994415 1_555
O17 Ti0 1.992425 1_565
O17 Ti1 1.994374 1_555
O18 Ti4 1.784828 1_555
O18 Ti0 2.290993 1_565
O19 Ti5 1.784823 1_555
O19 Ti1 2.291020 1_555
O20 Ti6 1.784818 1_555
O20 Ti2 2.290972 1_545
O21 Ti7 1.784795 1_555
O21 Ti3 2.290983 1_555
O22 Ti0 2.068916 1_565
O22 Ti4 2.220943 1_555
O23 Ti1 2.068774 1_555
O23 Ti5 2.220953 1_555
O24 Ti2 2.068759 1_545
O24 Ti6 2.220930 1_555
O25 Ti3 2.068955 1_555
O25 Ti7 2.220963 1_555
