# generated using pymatgen
data_ThN3O14
_symmetry_space_group_name_H-M   'P 1'
_cell_length_a   8.04083800
_cell_length_b   7.03036000
_cell_length_c   26.79243315
_cell_angle_alpha   76.95603091
_cell_angle_beta   90.00000000
_cell_angle_gamma   90.00000000
_symmetry_Int_Tables_number   1
_chemical_formula_structural   ThN3O14
_chemical_formula_sum   'Th4 N12 O56'
_cell_volume   1475.49549181
_cell_formula_units_Z   4
loop_
 _symmetry_equiv_pos_site_id
 _symmetry_equiv_pos_as_xyz
  1  'x, y, z'
loop_
 _atom_site_type_symbol
 _atom_site_label
 _atom_site_symmetry_multiplicity
 _atom_site_fract_x
 _atom_site_fract_y
 _atom_site_fract_z
 _atom_site_occupancy
  Th  Th0  1  0.93245100  0.14082300  0.94360800  1
  Th  Th1  1  0.06754900  0.85917700  0.05639200  1
  Th  Th2  1  0.43245100  0.85917700  0.55639200  1
  Th  Th3  1  0.56754900  0.14082300  0.44360800  1
  N  N0  1  0.67652000  0.99540800  0.62408700  1
  N  N1  1  0.32348000  0.00459200  0.37591300  1
  N  N2  1  0.17652000  0.00459200  0.87591300  1
  N  N3  1  0.82348000  0.99540800  0.12408700  1
  N  N4  1  0.77469400  0.39601300  0.49252300  1
  N  N5  1  0.22530600  0.60398700  0.50747700  1
  N  N6  1  0.27469400  0.60398700  0.00747700  1
  N  N7  1  0.72530600  0.39601300  0.99252300  1
  N  N8  1  0.79600200  0.91117000  0.77613700  1
  N  N9  1  0.20399800  0.08883000  0.22386300  1
  N  N10  1  0.29600200  0.08883000  0.72386300  1
  N  N11  1  0.70399800  0.91117000  0.27613700  1
  O  O0  1  0.79665600  0.20797700  0.50153600  1
  O  O1  1  0.20334400  0.79202300  0.49846400  1
  O  O2  1  0.29665600  0.79202300  0.99846400  1
  O  O3  1  0.70334400  0.20797700  0.00153600  1
  O  O4  1  0.79383000  0.79536400  0.74674900  1
  O  O5  1  0.20617000  0.20463600  0.25325100  1
  O  O6  1  0.29383000  0.20463600  0.75325100  1
  O  O7  1  0.70617000  0.79536400  0.24674900  1
  O  O8  1  0.99738500  0.54696000  0.83814600  1
  O  O9  1  0.00261500  0.45304000  0.16185400  1
  O  O10  1  0.49738500  0.45304000  0.66185400  1
  O  O11  1  0.50261500  0.54696000  0.33814600  1
  O  O12  1  0.10015500  0.13698600  0.00482000  1
  O  O13  1  0.89984500  0.86301400  0.99518000  1
  O  O14  1  0.60015500  0.86301400  0.49518000  1
  O  O15  1  0.39984500  0.13698600  0.50482000  1
  O  O16  1  0.78956700  0.07047300  0.64286900  1
  O  O17  1  0.21043300  0.92952700  0.35713100  1
  O  O18  1  0.28956700  0.92952700  0.85713100  1
  O  O19  1  0.71043300  0.07047300  0.14286900  1
  O  O20  1  0.69217600  0.82888700  0.61093700  1
  O  O21  1  0.30782400  0.17111300  0.38906300  1
  O  O22  1  0.19217600  0.17111300  0.88906300  1
  O  O23  1  0.80782400  0.82888700  0.11093700  1
  O  O24  1  0.88241900  0.06309900  0.76514300  1
  O  O25  1  0.11758100  0.93690100  0.23485700  1
  O  O26  1  0.38241900  0.93690100  0.73485700  1
  O  O27  1  0.61758100  0.06309900  0.26514300  1
  O  O28  1  0.11089300  0.83600600  0.61351600  1
  O  O29  1  0.88910700  0.16399400  0.38648400  1
  O  O30  1  0.61089300  0.16399400  0.88648400  1
  O  O31  1  0.38910700  0.83600600  0.11351600  1
  O  O32  1  0.52996700  0.31617200  0.87326600  1
  O  O33  1  0.47003300  0.68382800  0.12673400  1
  O  O34  1  0.02996700  0.68382800  0.62673400  1
  O  O35  1  0.97003300  0.31617200  0.37326600  1
  O  O36  1  0.81678800  0.46653900  0.95226200  1
  O  O37  1  0.18321200  0.53346100  0.04773800  1
  O  O38  1  0.31678800  0.53346100  0.54773800  1
  O  O39  1  0.68321200  0.46653900  0.45226200  1
  O  O40  1  0.41455600  0.57640600  0.67733700  1
  O  O41  1  0.58544400  0.42359400  0.32266300  1
  O  O42  1  0.91455600  0.42359400  0.82266300  1
  O  O43  1  0.08544400  0.57640600  0.17733700  1
  O  O44  1  0.71194000  0.87349900  0.81650400  1
  O  O45  1  0.28806000  0.12650100  0.18349600  1
  O  O46  1  0.21194000  0.12650100  0.68349600  1
  O  O47  1  0.78806000  0.87349900  0.31650400  1
  O  O48  1  0.53120500  0.07623600  0.61466200  1
  O  O49  1  0.46879500  0.92376400  0.38533800  1
  O  O50  1  0.03120500  0.92376400  0.88533800  1
  O  O51  1  0.96879500  0.07623600  0.11466200  1
  O  O52  1  0.83155100  0.49614700  0.51975100  1
  O  O53  1  0.16844900  0.50385300  0.48024900  1
  O  O54  1  0.33155100  0.50385300  0.98024900  1
  O  O55  1  0.66844900  0.49614700  0.01975100  1
loop_
_geom_bond_atom_site_label_1
_geom_bond_atom_site_label_2
_geom_bond_distance
_geom_bond_site_symmetry_2
N0 O16 1.215677 1_565
N0 O48 1.298917 1_565
N0 O20 1.302577 1_555
N1 O17 1.215677 1_545
N1 O49 1.298917 1_545
N1 O21 1.302577 1_555
N2 O18 1.215677 1_545
N2 O50 1.298917 1_545
N2 O22 1.302577 1_555
N3 O19 1.215677 1_565
N3 O51 1.298917 1_565
N3 O23 1.302577 1_555
N4 O52 1.211854 1_555
N4 O0 1.301145 1_555
N4 O39 1.307319 1_555
N5 O53 1.211854 1_555
N5 O1 1.301145 1_555
N5 O38 1.307319 1_555
N6 O54 1.211854 1_554
N6 O2 1.301145 1_554
N6 O37 1.307319 1_555
N7 O55 1.211854 1_556
N7 O3 1.301145 1_556
N7 O36 1.307319 1_555
N8 O44 1.251972 1_555
N8 O24 1.252379 1_565
N8 O4 1.253988 1_555
N9 O45 1.251972 1_555
N9 O25 1.252379 1_545
N9 O5 1.253988 1_555
N10 O46 1.251972 1_555
N10 O26 1.252379 1_545
N10 O6 1.253988 1_555
N11 O47 1.251972 1_555
N11 O27 1.252379 1_565
N11 O7 1.253988 1_555
O0 Th3 2.521151 1_555
O1 Th2 2.521151 1_555
O2 Th1 2.521151 1_556
O3 Th0 2.521151 1_554
O10 O40 1.237047 1_555
O11 O41 1.237047 1_555
O12 Th0 2.118683 1_454
O12 Th1 2.138775 1_545
O13 Th1 2.118683 1_656
O13 Th0 2.138775 1_565
O14 Th2 2.118683 1_555
O14 Th3 2.138775 1_565
O15 Th3 2.118683 1_555
O15 Th2 2.138775 1_545
O20 Th2 2.530214 1_555
O21 Th3 2.530214 1_555
O22 Th0 2.530214 1_455
O23 Th1 2.530214 1_655
O28 O34 1.233868 1_555
O28 Th2 2.990268 1_555
O29 O35 1.233868 1_555
O29 Th3 2.990268 1_555
O30 O32 1.233868 1_555
O30 Th0 2.990268 1_555
O31 O33 1.233868 1_555
O31 Th1 2.990268 1_555
O36 Th0 2.530222 1_555
O37 Th1 2.530222 1_555
O38 Th2 2.530222 1_555
O39 Th3 2.530222 1_555
O42 O8 1.237047 1_555
O43 O9 1.237047 1_555
O48 Th2 2.544004 1_545
O49 Th3 2.544004 1_565
O50 Th0 2.544004 1_465
O51 Th1 2.544004 1_645
