# generated using pymatgen
data_Al2Si3(NiO4)3
_symmetry_space_group_name_H-M   'P 1'
_cell_length_a   10.03682740
_cell_length_b   10.03682740
_cell_length_c   10.03682740
_cell_angle_alpha   109.47122063
_cell_angle_beta   109.47122063
_cell_angle_gamma   109.47122063
_symmetry_Int_Tables_number   1
_chemical_formula_structural   Al2Si3(NiO4)3
_chemical_formula_sum   'Al8 Si12 Ni12 O48'
_cell_volume   778.33664203
_cell_formula_units_Z   4
loop_
 _symmetry_equiv_pos_site_id
 _symmetry_equiv_pos_as_xyz
  1  'x, y, z'
loop_
 _atom_site_type_symbol
 _atom_site_label
 _atom_site_symmetry_multiplicity
 _atom_site_fract_x
 _atom_site_fract_y
 _atom_site_fract_z
 _atom_site_occupancy
  Al  Al0  1  0.00000000  0.00000000  0.50000000  1
  Al  Al1  1  0.00000000  0.00000000  0.00000000  1
  Al  Al2  1  0.50000000  0.00000000  0.00000000  1
  Al  Al3  1  0.00000000  0.50000000  0.00000000  1
  Al  Al4  1  0.50000000  0.50000000  0.00000000  1
  Al  Al5  1  0.00000000  0.50000000  0.50000000  1
  Al  Al6  1  0.50000000  0.00000000  0.50000000  1
  Al  Al7  1  0.50000000  0.50000000  0.50000000  1
  Si  Si0  1  0.12500000  0.87500000  0.25000000  1
  Si  Si1  1  0.25000000  0.12500000  0.87500000  1
  Si  Si2  1  0.75000000  0.37500000  0.62500000  1
  Si  Si3  1  0.62500000  0.37500000  0.25000000  1
  Si  Si4  1  0.62500000  0.75000000  0.37500000  1
  Si  Si5  1  0.37500000  0.62500000  0.75000000  1
  Si  Si6  1  0.12500000  0.75000000  0.87500000  1
  Si  Si7  1  0.75000000  0.87500000  0.12500000  1
  Si  Si8  1  0.87500000  0.25000000  0.12500000  1
  Si  Si9  1  0.37500000  0.25000000  0.62500000  1
  Si  Si10  1  0.25000000  0.62500000  0.37500000  1
  Si  Si11  1  0.87500000  0.12500000  0.75000000  1
  Ni  Ni0  1  0.87500000  0.62500000  0.25000000  1
  Ni  Ni1  1  0.62500000  0.25000000  0.87500000  1
  Ni  Ni2  1  0.87500000  0.75000000  0.62500000  1
  Ni  Ni3  1  0.75000000  0.62500000  0.87500000  1
  Ni  Ni4  1  0.25000000  0.87500000  0.62500000  1
  Ni  Ni5  1  0.62500000  0.87500000  0.75000000  1
  Ni  Ni6  1  0.12500000  0.37500000  0.75000000  1
  Ni  Ni7  1  0.37500000  0.75000000  0.12500000  1
  Ni  Ni8  1  0.12500000  0.25000000  0.37500000  1
  Ni  Ni9  1  0.25000000  0.37500000  0.12500000  1
  Ni  Ni10  1  0.75000000  0.12500000  0.37500000  1
  Ni  Ni11  1  0.37500000  0.12500000  0.25000000  1
  O  O0  1  0.48379100  0.37856400  0.29830100  1
  O  O1  1  0.31451000  0.89477300  0.01620900  1
  O  O2  1  0.60522700  0.91973700  0.12143600  1
  O  O3  1  0.58026300  0.18549000  0.20169900  1
  O  O4  1  0.12143600  0.01620900  0.20169900  1
  O  O5  1  0.18549000  0.20169900  0.58026300  1
  O  O6  1  0.18549000  0.48379100  0.60522700  1
  O  O7  1  0.20169900  0.58026300  0.18549000  1
  O  O8  1  0.37856400  0.58026300  0.89477300  1
  O  O9  1  0.91973700  0.29830100  0.31451000  1
  O  O10  1  0.29830100  0.31451000  0.91973700  1
  O  O11  1  0.20169900  0.12143600  0.01620900  1
  O  O12  1  0.48379100  0.60522700  0.18549000  1
  O  O13  1  0.89477300  0.37856400  0.58026300  1
  O  O14  1  0.01620900  0.20169900  0.12143600  1
  O  O15  1  0.60522700  0.18549000  0.48379100  1
  O  O16  1  0.58026300  0.89477300  0.37856400  1
  O  O17  1  0.01620900  0.31451000  0.89477300  1
  O  O18  1  0.91973700  0.12143600  0.60522700  1
  O  O19  1  0.62143600  0.41973700  0.10522700  1
  O  O20  1  0.37856400  0.29830100  0.48379100  1
  O  O21  1  0.29830100  0.48379100  0.37856400  1
  O  O22  1  0.89477300  0.01620900  0.31451000  1
  O  O23  1  0.31451000  0.91973700  0.29830100  1
  O  O24  1  0.51620900  0.62143600  0.70169900  1
  O  O25  1  0.68549000  0.10522700  0.98379100  1
  O  O26  1  0.39477300  0.08026300  0.87856400  1
  O  O27  1  0.41973700  0.81451000  0.79830100  1
  O  O28  1  0.87856400  0.98379100  0.79830100  1
  O  O29  1  0.81451000  0.79830100  0.41973700  1
  O  O30  1  0.81451000  0.51620900  0.39477300  1
  O  O31  1  0.79830100  0.41973700  0.81451000  1
  O  O32  1  0.68549000  0.08026300  0.70169900  1
  O  O33  1  0.10522700  0.98379100  0.68549000  1
  O  O34  1  0.70169900  0.51620900  0.62143600  1
  O  O35  1  0.62143600  0.70169900  0.51620900  1
  O  O36  1  0.87856400  0.39477300  0.08026300  1
  O  O37  1  0.08026300  0.87856400  0.39477300  1
  O  O38  1  0.98379100  0.68549000  0.10522700  1
  O  O39  1  0.41973700  0.10522700  0.62143600  1
  O  O40  1  0.39477300  0.81451000  0.51620900  1
  O  O41  1  0.98379100  0.79830100  0.87856400  1
  O  O42  1  0.10522700  0.62143600  0.41973700  1
  O  O43  1  0.51620900  0.39477300  0.81451000  1
  O  O44  1  0.79830100  0.87856400  0.98379100  1
  O  O45  1  0.70169900  0.68549000  0.08026300  1
  O  O46  1  0.08026300  0.70169900  0.68549000  1
  O  O47  1  0.12143600  0.60522700  0.91973700  1
loop_
_geom_bond_atom_site_label_1
_geom_bond_atom_site_label_2
_geom_bond_distance
_geom_bond_site_symmetry_2
Al0 O22 1.900942 1_455
Al0 O5 1.900942 1_555
Al0 O37 1.900942 1_545
Al0 O33 1.900942 1_545
Al0 O18 1.900942 1_455
Al0 O29 1.900942 1_445
Al1 O4 1.900942 1_555
Al1 O14 1.900942 1_555
Al1 O11 1.900942 1_555
Al1 O28 1.900942 1_444
Al1 O41 1.900942 1_444
Al1 O44 1.900942 1_444
Al2 O1 1.900942 1_545
Al2 O3 1.900942 1_555
Al2 O26 1.900942 1_554
Al2 O25 1.900942 1_554
Al2 O2 1.900942 1_545
Al2 O27 1.900942 1_544
Al3 O17 1.900942 1_554
Al3 O36 1.900942 1_455
Al3 O7 1.900942 1_555
Al3 O38 1.900942 1_455
Al3 O47 1.900942 1_554
Al3 O31 1.900942 1_454
Al4 O10 1.900942 1_554
Al4 O43 1.900942 1_554
Al4 O45 1.900942 1_555
Al4 O12 1.900942 1_555
Al4 O19 1.900942 1_555
Al4 O8 1.900942 1_554
Al5 O9 1.900942 1_455
Al5 O30 1.900942 1_455
Al5 O46 1.900942 1_555
Al5 O6 1.900942 1_555
Al5 O42 1.900942 1_555
Al5 O13 1.900942 1_455
Al6 O23 1.900942 1_545
Al6 O40 1.900942 1_545
Al6 O32 1.900942 1_555
Al6 O15 1.900942 1_555
Al6 O39 1.900942 1_555
Al6 O16 1.900942 1_545
Al7 O21 1.900942 1_555
Al7 O20 1.900942 1_555
Al7 O0 1.900942 1_555
Al7 O24 1.900942 1_555
Al7 O34 1.900942 1_555
Al7 O35 1.900942 1_555
Ni0 O30 2.208211 1_555
Ni0 O38 2.208211 1_555
Ni0 O37 2.208211 1_655
Ni0 O19 2.208211 1_555
Ni0 O29 2.390496 1_555
Ni0 O42 2.390496 1_655
Ni0 O45 2.390496 1_555
Ni0 O36 2.390496 1_555
Ni1 O43 2.208211 1_555
Ni1 O36 2.208211 1_556
Ni1 O25 2.208211 1_555
Ni1 O39 2.208211 1_555
Ni1 O31 2.390496 1_555
Ni1 O19 2.390496 1_556
Ni1 O32 2.390496 1_555
Ni1 O26 2.390496 1_555
Ni2 O46 2.208211 1_655
Ni2 O35 2.208211 1_555
Ni2 O29 2.208211 1_555
Ni2 O41 2.208211 1_555
Ni2 O28 2.390496 1_555
Ni2 O33 2.390496 1_655
Ni2 O34 2.390496 1_555
Ni2 O30 2.390496 1_555
Ni3 O45 2.208211 1_556
Ni3 O34 2.208211 1_555
Ni3 O31 2.208211 1_555
Ni3 O44 2.208211 1_555
Ni3 O41 2.390496 1_555
Ni3 O38 2.390496 1_556
Ni3 O24 2.390496 1_555
Ni3 O43 2.390496 1_555
Ni4 O40 2.208211 1_555
Ni4 O33 2.208211 1_555
Ni4 O26 2.208211 1_565
Ni4 O42 2.208211 1_555
Ni4 O27 2.390496 1_555
Ni4 O39 2.390496 1_565
Ni4 O37 2.390496 1_555
Ni4 O46 2.390496 1_555
Ni5 O32 2.208211 1_565
Ni5 O24 2.208211 1_555
Ni5 O27 2.208211 1_555
Ni5 O28 2.208211 1_555
Ni5 O44 2.390496 1_555
Ni5 O25 2.390496 1_565
Ni5 O40 2.390496 1_555
Ni5 O35 2.390496 1_555
Ni6 O8 2.208211 1_555
Ni6 O6 2.208211 1_555
Ni6 O17 2.208211 1_555
Ni6 O18 2.208211 1_455
Ni6 O10 2.390496 1_555
Ni6 O5 2.390496 1_555
Ni6 O47 2.390496 1_555
Ni6 O13 2.390496 1_455
Ni7 O16 2.208211 1_555
Ni7 O12 2.208211 1_555
Ni7 O1 2.208211 1_555
Ni7 O47 2.208211 1_554
Ni7 O23 2.390496 1_555
Ni7 O7 2.390496 1_555
Ni7 O8 2.390496 1_554
Ni7 O2 2.390496 1_555
Ni8 O20 2.208211 1_555
Ni8 O5 2.208211 1_555
Ni8 O9 2.208211 1_455
Ni8 O14 2.208211 1_555
Ni8 O6 2.390496 1_555
Ni8 O21 2.390496 1_555
Ni8 O4 2.390496 1_555
Ni8 O22 2.390496 1_455
Ni9 O21 2.208211 1_555
Ni9 O7 2.208211 1_555
Ni9 O10 2.208211 1_554
Ni9 O11 2.208211 1_555
Ni9 O12 2.390496 1_555
Ni9 O0 2.390496 1_555
Ni9 O14 2.390496 1_555
Ni9 O17 2.390496 1_554
Ni10 O13 2.208211 1_555
Ni10 O15 2.208211 1_555
Ni10 O22 2.208211 1_555
Ni10 O2 2.208211 1_545
Ni10 O9 2.390496 1_555
Ni10 O3 2.390496 1_555
Ni10 O16 2.390496 1_545
Ni10 O18 2.390496 1_555
Ni11 O0 2.208211 1_555
Ni11 O3 2.208211 1_555
Ni11 O23 2.208211 1_545
Ni11 O4 2.208211 1_555
Ni11 O15 2.390496 1_555
Ni11 O20 2.390496 1_555
Ni11 O11 2.390496 1_555
Ni11 O1 2.390496 1_545
O0 Si3 1.650850 1_555
O1 Si6 1.650850 1_554
O2 Si7 1.650850 1_555
O3 Si3 1.650850 1_555
O4 Si0 1.650850 1_545
O5 Si9 1.650850 1_555
O6 Si5 1.650850 1_555
O7 Si10 1.650850 1_555
O8 Si5 1.650850 1_555
O9 Si8 1.650850 1_555
O10 Si1 1.650850 1_555
O11 Si1 1.650850 1_554
O12 Si4 1.650850 1_555
O13 Si2 1.650850 1_555
O14 Si8 1.650850 1_455
O15 Si2 1.650850 1_555
O16 Si4 1.650850 1_555
O17 Si11 1.650850 1_455
O18 Si11 1.650850 1_555
O19 Si3 1.650850 1_555
O20 Si9 1.650850 1_555
O21 Si10 1.650850 1_555
O22 Si7 1.650850 1_545
O23 Si0 1.650850 1_555
O24 Si5 1.650850 1_555
O25 Si8 1.650850 1_556
O26 Si1 1.650850 1_555
O27 Si5 1.650850 1_555
O28 Si11 1.650850 1_565
O29 Si4 1.650850 1_555
O30 Si3 1.650850 1_555
O31 Si2 1.650850 1_555
O32 Si11 1.650850 1_555
O33 Si1 1.650850 1_565
O34 Si2 1.650850 1_555
O35 Si4 1.650850 1_555
O36 Si8 1.650850 1_555
O37 Si0 1.650850 1_555
O38 Si0 1.650850 1_655
O39 Si9 1.650850 1_555
O40 Si10 1.650850 1_555
O41 Si6 1.650850 1_655
O42 Si10 1.650850 1_555
O43 Si9 1.650850 1_555
O44 Si7 1.650850 1_556
O45 Si7 1.650850 1_555
O46 Si6 1.650850 1_555
O47 Si6 1.650850 1_555
