# generated using pymatgen
data_EuMnIn
_symmetry_space_group_name_H-M   'P 1'
_cell_length_a   4.96726640
_cell_length_b   4.96726640
_cell_length_c   3.70353500
_cell_angle_alpha   90.00000000
_cell_angle_beta   90.00000000
_cell_angle_gamma   120.00000527
_symmetry_Int_Tables_number   1
_chemical_formula_structural   EuMnIn
_chemical_formula_sum   'Eu1 Mn1 In1'
_cell_volume   79.13743426
_cell_formula_units_Z   1
loop_
 _symmetry_equiv_pos_site_id
 _symmetry_equiv_pos_as_xyz
  1  'x, y, z'
loop_
 _atom_site_type_symbol
 _atom_site_label
 _atom_site_symmetry_multiplicity
 _atom_site_fract_x
 _atom_site_fract_y
 _atom_site_fract_z
 _atom_site_occupancy
  Eu  Eu0  1  0.33333300  0.66666700  0.00000000  1
  Mn  Mn0  1  0.00000000  0.00000000  0.50000000  1
  In  In0  1  0.66666700  0.33333300  0.50000000  1
loop_
_geom_bond_atom_site_label_1
_geom_bond_atom_site_label_2
_geom_bond_distance
_geom_bond_site_symmetry_2
Eu0 In0 3.413738 1_455
Eu0 In0 3.413738 1_454
Eu0 In0 3.413738 1_564
Eu0 In0 3.413738 1_565
Eu0 Mn0 3.413738 1_564
Eu0 Mn0 3.413738 1_565
Eu0 Mn0 3.413741 1_555
Eu0 Mn0 3.413741 1_664
Eu0 Mn0 3.413741 1_554
Eu0 Mn0 3.413741 1_665
Eu0 In0 3.413745 1_554
Eu0 In0 3.413745 1_555
In0 Mn0 2.867850 1_655
In0 Mn0 2.867854 1_665
In0 Mn0 2.867854 1_555
