# generated using pymatgen
data_Hg3(SeF)2
_symmetry_space_group_name_H-M   'P 1'
_cell_length_a   7.34525806
_cell_length_b   7.34525806
_cell_length_c   7.34525806
_cell_angle_alpha   109.47122063
_cell_angle_beta   109.47122063
_cell_angle_gamma   109.47122063
_symmetry_Int_Tables_number   1
_chemical_formula_structural   Hg3(SeF)2
_chemical_formula_sum   'Hg6 Se4 F4'
_cell_volume   305.06984754
_cell_formula_units_Z   2
loop_
 _symmetry_equiv_pos_site_id
 _symmetry_equiv_pos_as_xyz
  1  'x, y, z'
loop_
 _atom_site_type_symbol
 _atom_site_label
 _atom_site_symmetry_multiplicity
 _atom_site_fract_x
 _atom_site_fract_y
 _atom_site_fract_z
 _atom_site_occupancy
  Hg  Hg0  1  0.16394469  0.91394469  0.25000000  1
  Hg  Hg1  1  0.33605531  0.58605531  0.75000000  1
  Hg  Hg2  1  0.91394469  0.25000000  0.16394469  1
  Hg  Hg3  1  0.58605531  0.75000000  0.33605531  1
  Hg  Hg4  1  0.25000000  0.16394469  0.91394469  1
  Hg  Hg5  1  0.75000000  0.33605531  0.58605531  1
  Se  Se0  1  0.91934106  0.91934106  0.91934106  1
  Se  Se1  1  0.58065894  0.50000000  -0.00000000  1
  Se  Se2  1  0.00000000  0.58065894  0.50000000  1
  Se  Se3  1  0.50000000  0.00000000  0.58065894  1
  F  F0  1  0.47717983  0.47717983  0.47717983  1
  F  F1  1  0.02282017  0.50000000  0.00000000  1
  F  F2  1  -0.00000000  0.02282017  0.50000000  1
  F  F3  1  0.50000000  -0.00000000  0.02282017  1
loop_
_geom_bond_atom_site_label_1
_geom_bond_atom_site_label_2
_geom_bond_distance
_geom_bond_site_symmetry_2
Hg0 Se3 2.516163 1_565
Hg0 Se0 2.516163 1_454
Hg1 Se2 2.516163 1_555
Hg1 Se1 2.516163 1_556
Hg2 Se0 2.516163 1_544
Hg2 Se2 2.516163 1_655
Hg3 Se3 2.516163 1_565
Hg3 Se1 2.516163 1_555
Hg4 Se0 2.516163 1_445
Hg4 Se1 2.516163 1_556
Hg5 Se2 2.516163 1_655
Hg5 Se3 2.516163 1_555
F0 Hg5 2.568842 1_555
F0 Hg3 2.568842 1_555
F0 Hg1 2.568842 1_555
F1 Hg0 2.568842 1_555
F1 Hg2 2.568842 1_455
F1 Hg5 2.568842 1_454
F2 Hg0 2.568842 1_545
F2 Hg3 2.568842 1_445
F2 Hg4 2.568842 1_555
F3 Hg4 2.568842 1_554
F3 Hg2 2.568842 1_555
F3 Hg1 2.568842 1_544
