# generated using pymatgen
data_SmWO5
_symmetry_space_group_name_H-M   'P 1'
_cell_length_a   13.03275100
_cell_length_b   5.36367600
_cell_length_c   7.14121505
_cell_angle_alpha   63.28282362
_cell_angle_beta   90.00000000
_cell_angle_gamma   90.00000000
_symmetry_Int_Tables_number   1
_chemical_formula_structural   SmWO5
_chemical_formula_sum   'Sm4 W4 O20'
_cell_volume   445.89980128
_cell_formula_units_Z   4
loop_
 _symmetry_equiv_pos_site_id
 _symmetry_equiv_pos_as_xyz
  1  'x, y, z'
loop_
 _atom_site_type_symbol
 _atom_site_label
 _atom_site_symmetry_multiplicity
 _atom_site_fract_x
 _atom_site_fract_y
 _atom_site_fract_z
 _atom_site_occupancy
  Sm  Sm0  1  0.55735000  0.63543300  0.21699600  1
  Sm  Sm1  1  0.44265000  0.36456700  0.78300400  1
  Sm  Sm2  1  0.05735000  0.36456700  0.28300400  1
  Sm  Sm3  1  0.94265000  0.63543300  0.71699600  1
  W  W0  1  0.86077800  0.88606400  0.15470900  1
  W  W1  1  0.13922200  0.11393600  0.84529100  1
  W  W2  1  0.36077800  0.11393600  0.34529100  1
  W  W3  1  0.63922200  0.88606400  0.65470900  1
  O  O0  1  0.90914700  0.53255300  0.42617600  1
  O  O1  1  0.09085300  0.46744700  0.57382400  1
  O  O2  1  0.40914700  0.46744700  0.07382400  1
  O  O3  1  0.59085300  0.53255300  0.92617600  1
  O  O4  1  0.42973200  0.99653100  0.15967400  1
  O  O5  1  0.57026800  0.00346900  0.84032600  1
  O  O6  1  0.92973200  0.00346900  0.34032600  1
  O  O7  1  0.07026800  0.99653100  0.65967400  1
  O  O8  1  0.93315200  0.70350000  0.02729800  1
  O  O9  1  0.06684800  0.29650000  0.97270200  1
  O  O10  1  0.43315200  0.29650000  0.47270200  1
  O  O11  1  0.56684800  0.70350000  0.52729800  1
  O  O12  1  0.72717600  0.79403100  0.20598400  1
  O  O13  1  0.27282400  0.20596900  0.79401600  1
  O  O14  1  0.22717600  0.20596900  0.29401600  1
  O  O15  1  0.77282400  0.79403100  0.70598400  1
  O  O16  1  0.14664800  0.77077600  0.06856700  1
  O  O17  1  0.85335200  0.22922400  0.93143300  1
  O  O18  1  0.64664800  0.22922400  0.43143300  1
  O  O19  1  0.35335200  0.77077600  0.56856700  1
loop_
_geom_bond_atom_site_label_1
_geom_bond_atom_site_label_2
_geom_bond_distance
_geom_bond_site_symmetry_2
O0 W0 2.108466 1_555
O0 Sm3 2.416350 1_555
O0 Sm2 2.533021 1_655
O1 W1 2.108466 1_555
O1 Sm2 2.416350 1_555
O1 Sm3 2.533021 1_455
O2 W2 2.108466 1_555
O2 Sm1 2.416350 1_554
O2 Sm0 2.533021 1_555
O3 W3 2.108466 1_555
O3 Sm0 2.416350 1_556
O3 Sm1 2.533021 1_555
O4 W2 1.926585 1_565
O4 Sm0 2.443808 1_555
O4 Sm1 2.527067 1_564
O5 W3 1.926585 1_545
O5 Sm1 2.443808 1_555
O5 Sm0 2.527067 1_546
O6 W0 1.926585 1_545
O6 Sm2 2.443808 1_655
O6 Sm3 2.527067 1_545
O7 W1 1.926585 1_565
O7 Sm3 2.443808 1_455
O7 Sm2 2.527067 1_565
O8 W0 1.864815 1_555
O8 Sm3 2.405497 1_554
O8 Sm2 2.504875 1_655
O9 W1 1.864815 1_555
O9 Sm2 2.405497 1_556
O9 Sm3 2.504875 1_455
O10 W2 1.864815 1_555
O10 Sm1 2.405497 1_555
O10 Sm0 2.504875 1_555
O11 W3 1.864815 1_555
O11 Sm0 2.405497 1_555
O11 Sm1 2.504875 1_555
O12 W0 1.801946 1_555
O12 Sm0 2.359739 1_555
O13 W1 1.801946 1_555
O13 Sm1 2.359739 1_555
O14 W2 1.801946 1_555
O14 Sm2 2.359739 1_555
O15 W3 1.801946 1_555
O15 Sm3 2.359739 1_555
O16 W1 1.816760 1_564
O16 Sm2 2.333761 1_555
O17 W0 1.816760 1_546
O17 Sm3 2.333761 1_555
O18 W3 1.816760 1_545
O18 Sm0 2.333761 1_555
O19 W2 1.816760 1_565
O19 Sm1 2.333761 1_555
