# generated using pymatgen
data_Ba2Li(NiO3)2
_symmetry_space_group_name_H-M   'P 1'
_cell_length_a   5.68364800
_cell_length_b   5.68364752
_cell_length_c   5.20671900
_cell_angle_alpha   90.00000000
_cell_angle_beta   90.00000000
_cell_angle_gamma   120.00000279
_symmetry_Int_Tables_number   1
_chemical_formula_structural   Ba2Li(NiO3)2
_chemical_formula_sum   'Ba2 Li1 Ni2 O6'
_cell_volume   145.66293938
_cell_formula_units_Z   1
loop_
 _symmetry_equiv_pos_site_id
 _symmetry_equiv_pos_as_xyz
  1  'x, y, z'
loop_
 _atom_site_type_symbol
 _atom_site_label
 _atom_site_symmetry_multiplicity
 _atom_site_fract_x
 _atom_site_fract_y
 _atom_site_fract_z
 _atom_site_occupancy
  Ba  Ba0  1  0.66666700  0.33333400  0.76679500  1
  Ba  Ba1  1  0.33333300  0.66666600  0.26030800  1
  Li  Li0  1  0.66666700  0.33333300  0.26575200  1
  Ni  Ni0  1  0.00000000  0.00000000  0.48776500  1
  Ni  Ni1  1  0.00000000  0.00000000  0.98516900  1
  O  O0  1  0.84689500  0.15310500  0.23543800  1
  O  O1  1  0.70039100  0.85019600  0.73689200  1
  O  O2  1  0.14980500  0.29960900  0.73689200  1
  O  O3  1  0.84689400  0.69379000  0.23543800  1
  O  O4  1  0.14980500  0.85019600  0.73689200  1
  O  O5  1  0.30620800  0.15310500  0.23543800  1
loop_
_geom_bond_atom_site_label_1
_geom_bond_atom_site_label_2
_geom_bond_distance
_geom_bond_site_symmetry_2
Ba0 Li0 2.597929 1_556
Ba0 Li0 2.608790 1_555
Ba0 O2 2.850920 1_555
Ba0 O4 2.850922 1_655
Ba0 O1 2.850922 1_555
Ba0 O1 2.850922 1_545
Ba0 O4 2.850922 1_545
Ba0 O2 2.850926 1_655
Ba0 O3 3.016943 1_556
Ba0 O0 3.016946 1_556
Ba0 O5 3.016952 1_556
Ba1 O5 2.847895 1_555
Ba1 O3 2.847898 1_555
Ba1 O0 2.847901 1_455
Ba1 O0 2.847906 1_565
Ba1 O3 2.847910 1_455
Ba1 O5 2.847912 1_565
Ba1 O2 3.069492 1_555
Ba1 O1 3.069495 1_555
Ba1 O4 3.069495 1_555
Ba1 O2 3.269770 1_554
Ba1 O4 3.269773 1_554
Ba1 O1 3.269773 1_554
Li0 O0 1.781237 1_555
Li0 O3 1.781242 1_555
Li0 O5 1.781252 1_555
Ni0 O2 1.964023 1_555
Ni0 O1 1.964023 1_445
Ni0 O4 1.964023 1_545
Ni0 O5 1.999437 1_555
Ni0 O3 1.999444 1_445
Ni0 O0 1.999444 1_455
Ni1 O2 1.961103 1_555
Ni1 O1 1.961103 1_445
Ni1 O4 1.961103 1_545
Ni1 O5 1.992412 1_556
Ni1 O3 1.992420 1_446
Ni1 O0 1.992420 1_456
