# generated using pymatgen
data_Tm(Al2Fe)4
_symmetry_space_group_name_H-M   'P 1'
_cell_length_a   5.02886400
_cell_length_b   6.62755142
_cell_length_c   6.62755142
_cell_angle_alpha   81.72425021
_cell_angle_beta   67.70404780
_cell_angle_gamma   67.70404780
_symmetry_Int_Tables_number   1
_chemical_formula_structural   Tm(Al2Fe)4
_chemical_formula_sum   'Tm1 Al8 Fe4'
_cell_volume   189.09569366
_cell_formula_units_Z   1
loop_
 _symmetry_equiv_pos_site_id
 _symmetry_equiv_pos_as_xyz
  1  'x, y, z'
loop_
 _atom_site_type_symbol
 _atom_site_label
 _atom_site_symmetry_multiplicity
 _atom_site_fract_x
 _atom_site_fract_y
 _atom_site_fract_z
 _atom_site_occupancy
  Tm  Tm0  1  0.00000000  0.00000000  0.00000000  1
  Al  Al0  1  0.00000000  0.66216600  0.33783400  1
  Al  Al1  1  0.00000000  0.33783400  0.66216600  1
  Al  Al2  1  0.66216600  0.33783400  0.33783400  1
  Al  Al3  1  0.33783400  0.66216600  0.66216600  1
  Al  Al4  1  0.50000000  0.21936400  0.78063600  1
  Al  Al5  1  0.50000000  0.78063600  0.21936400  1
  Al  Al6  1  0.71936400  0.78063600  0.78063600  1
  Al  Al7  1  0.28063600  0.21936400  0.21936400  1
  Fe  Fe0  1  0.50000000  0.50000000  0.00000000  1
  Fe  Fe1  1  0.00000000  0.50000000  0.00000000  1
  Fe  Fe2  1  0.00000000  0.00000000  0.50000000  1
  Fe  Fe3  1  0.50000000  0.00000000  0.50000000  1
loop_
_geom_bond_atom_site_label_1
_geom_bond_atom_site_label_2
_geom_bond_distance
_geom_bond_site_symmetry_2
Al0 Fe1 2.619358 1_555
Al0 Fe0 2.619358 1_555
Al0 Fe3 2.619358 1_465
Al0 Fe2 2.619358 1_565
Al0 Al5 2.716223 1_455
Al0 Al5 2.716223 1_555
Al0 Al7 2.810787 1_555
Al0 Al6 2.810787 1_455
Al0 Al1 2.812617 1_555
Al0 Tm0 2.929707 1_565
Al1 Fe2 2.619358 1_555
Al1 Fe3 2.619358 1_555
Al1 Fe0 2.619358 1_456
Al1 Fe1 2.619358 1_556
Al1 Al4 2.716223 1_455
Al1 Al4 2.716223 1_555
Al1 Al7 2.810787 1_555
Al1 Al6 2.810787 1_455
Al1 Tm0 2.929707 1_556
Al2 Fe0 2.619358 1_555
Al2 Fe3 2.619358 1_555
Al2 Fe1 2.619358 1_655
Al2 Fe2 2.619358 1_655
Al2 Al7 2.716223 1_555
Al2 Al7 2.716223 1_655
Al2 Al4 2.810787 1_555
Al2 Al5 2.810787 1_555
Al2 Al3 2.812617 1_555
Al2 Tm0 2.929707 1_655
Al3 Fe2 2.619358 1_565
Al3 Fe1 2.619358 1_556
Al3 Fe3 2.619358 1_565
Al3 Fe0 2.619358 1_556
Al3 Al6 2.716223 1_455
Al3 Al6 2.716223 1_555
Al3 Al4 2.810787 1_555
Al3 Al5 2.810787 1_555
Al3 Tm0 2.929707 1_566
Al4 Fe1 2.520205 1_556
Al4 Fe0 2.520205 1_556
Al4 Fe3 2.520205 1_555
Al4 Fe2 2.520205 1_655
Al4 Al6 2.690303 1_545
Al4 Al7 2.690303 1_556
Al4 Tm0 3.152972 1_556
Al4 Tm0 3.152972 1_656
Al5 Fe1 2.520205 1_655
Al5 Fe2 2.520205 1_565
Al5 Fe0 2.520205 1_555
Al5 Fe3 2.520205 1_565
Al5 Al6 2.690303 1_554
Al5 Al7 2.690303 1_565
Al5 Tm0 3.152972 1_565
Al5 Tm0 3.152972 1_665
Al6 Fe2 2.520205 1_665
Al6 Fe0 2.520205 1_556
Al6 Fe1 2.520205 1_656
Al6 Fe3 2.520205 1_565
Al6 Tm0 3.152972 1_566
Al6 Tm0 3.152972 1_666
Al7 Fe1 2.520205 1_555
Al7 Fe2 2.520205 1_555
Al7 Fe3 2.520205 1_555
Al7 Fe0 2.520205 1_555
Al7 Tm0 3.152972 1_655
Al7 Tm0 3.152972 1_555
Fe0 Fe1 2.514432 1_555
Fe0 Fe1 2.514432 1_655
Fe0 Tm0 3.313776 1_565
Fe0 Tm0 3.313776 1_655
Fe1 Tm0 3.313776 1_565
Fe1 Tm0 3.313776 1_555
Fe2 Fe3 2.514432 1_455
Fe2 Fe3 2.514432 1_555
Fe2 Tm0 3.313776 1_555
Fe2 Tm0 3.313776 1_556
Fe3 Tm0 3.313776 1_655
Fe3 Tm0 3.313776 1_556
