# generated using pymatgen
data_La3Mg2WS8
_symmetry_space_group_name_H-M   'P 1'
_cell_length_a   8.12470344
_cell_length_b   7.90141696
_cell_length_c   8.12492172
_cell_angle_alpha   59.05916225
_cell_angle_beta   59.99856802
_cell_angle_gamma   59.06297770
_symmetry_Int_Tables_number   1
_chemical_formula_structural   La3Mg2WS8
_chemical_formula_sum   'La3 Mg2 W1 S8'
_cell_volume   363.49680819
_cell_formula_units_Z   1
loop_
 _symmetry_equiv_pos_site_id
 _symmetry_equiv_pos_as_xyz
  1  'x, y, z'
loop_
 _atom_site_type_symbol
 _atom_site_label
 _atom_site_symmetry_multiplicity
 _atom_site_fract_x
 _atom_site_fract_y
 _atom_site_fract_z
 _atom_site_occupancy
  La  La0  1  0.49999756  0.50002844  0.49997922  1
  La  La1  1  0.49999990  0.49999529  0.00000198  1
  La  La2  1  0.00000188  0.49998258  0.50001041  1
  Mg  Mg0  1  0.87409643  0.87772185  0.87408775  1
  Mg  Mg1  1  0.12589940  0.12228576  0.12590984  1
  W  W0  1  0.50000390  -0.00000227  0.50000247  1
  S  S0  1  0.72808745  0.78010769  0.72807768  1
  S  S1  1  0.27192138  0.21988945  0.73626739  1
  S  S2  1  0.25196508  0.74412921  0.25194448  1
  S  S3  1  0.73627269  0.21990759  0.27190914  1
  S  S4  1  0.74801232  0.25586518  0.74804656  1
  S  S5  1  0.26372860  0.78009173  0.72809336  1
  S  S6  1  0.27191568  0.21987867  0.27193697  1
  S  S7  1  0.72810173  0.78011383  0.26373376  1
loop_
_geom_bond_atom_site_label_1
_geom_bond_atom_site_label_2
_geom_bond_distance
_geom_bond_site_symmetry_2
La0 S2 2.812532 1_555
La0 S4 2.812594 1_555
La0 S7 2.882381 1_555
La0 S5 2.882500 1_555
La0 S1 2.882524 1_555
La0 S3 2.882589 1_555
La1 S2 2.812575 1_555
La1 S4 2.812630 1_554
La1 S0 2.882432 1_554
La1 S6 2.882442 1_555
La1 S3 2.882512 1_555
La1 S5 2.882515 1_554
La2 S4 2.812562 1_455
La2 S2 2.812567 1_555
La2 S1 2.882505 1_555
La2 S7 2.882508 1_455
La2 S6 2.882513 1_555
La2 S0 2.882598 1_455
Mg0 S4 2.404396 1_565
Mg0 S5 2.588107 1_655
Mg0 S0 2.588152 1_555
Mg0 S7 2.588215 1_556
Mg1 S2 2.404480 1_545
Mg1 S3 2.588076 1_455
Mg1 S6 2.588189 1_555
Mg1 S1 2.588194 1_554
S0 W0 2.588359 1_565
S1 W0 2.588347 1_555
S3 W0 2.588286 1_555
S5 W0 2.588303 1_565
S6 W0 2.588334 1_555
S7 W0 2.588327 1_565
