# generated using pymatgen
data_Mg14TiC
_symmetry_space_group_name_H-M   'P 1'
_cell_length_a   6.50838367
_cell_length_b   5.98298566
_cell_length_c   9.76124880
_cell_angle_alpha   90.00000000
_cell_angle_beta   90.00000000
_cell_angle_gamma   117.36368044
_symmetry_Int_Tables_number   1
_chemical_formula_structural   Mg14TiC
_chemical_formula_sum   'Mg14 Ti1 C1'
_cell_volume   337.56837079
_cell_formula_units_Z   1
loop_
 _symmetry_equiv_pos_site_id
 _symmetry_equiv_pos_as_xyz
  1  'x, y, z'
loop_
 _atom_site_type_symbol
 _atom_site_label
 _atom_site_symmetry_multiplicity
 _atom_site_fract_x
 _atom_site_fract_y
 _atom_site_fract_z
 _atom_site_occupancy
  Mg  Mg0  1  0.16457974  0.33228937  0.62500000  1
  Mg  Mg1  1  0.15220788  0.82610344  0.62500000  1
  Mg  Mg2  1  0.61456443  0.29085690  0.12500000  1
  Mg  Mg3  1  0.65363463  0.33059314  0.62500000  1
  Mg  Mg4  1  0.61456443  0.82370653  0.12500000  1
  Mg  Mg5  1  0.65363463  0.82304048  0.62500000  1
  Mg  Mg6  1  0.32663493  0.15929804  0.35896371  1
  Mg  Mg7  1  0.32663493  0.15929804  0.89103629  1
  Mg  Mg8  1  0.32663493  0.66733789  0.35896371  1
  Mg  Mg9  1  0.32663493  0.66733789  0.89103629  1
  Mg  Mg10  1  0.83692578  0.16846339  0.37493412  1
  Mg  Mg11  1  0.83692578  0.16846339  0.87506588  1
  Mg  Mg12  1  0.87577185  0.68788643  0.33105883  1
  Mg  Mg13  1  0.87577185  0.68788643  0.91894117  1
  Ti  Ti0  1  0.11774139  0.30887020  0.12500000  1
  C  C0  1  0.29713791  0.89856845  0.12500000  1
loop_
_geom_bond_atom_site_label_1
_geom_bond_atom_site_label_2
_geom_bond_distance
_geom_bond_site_symmetry_2
Mg0 Mg1 2.992347 1_545
Mg0 Mg1 2.992347 1_555
Mg0 Mg10 3.089509 1_455
Mg0 Mg11 3.089509 1_455
Mg0 Mg7 3.151315 1_555
Mg0 Mg6 3.151315 1_555
Mg0 Mg8 3.151321 1_555
Mg0 Mg9 3.151321 1_555
Mg0 Mg5 3.187634 1_555
Mg0 Mg3 3.187634 1_555
Mg0 Mg5 3.320774 1_445
Mg0 Mg3 3.320774 1_455
Mg1 Mg8 3.150551 1_555
Mg1 Mg9 3.150551 1_555
Mg1 Mg6 3.150557 1_565
Mg1 Mg7 3.150557 1_565
Mg1 Mg3 3.236524 1_455
Mg1 Mg5 3.236524 1_455
Mg1 Mg3 3.271941 1_565
Mg1 Mg5 3.271941 1_555
Mg1 Mg12 3.284142 1_455
Mg1 Mg13 3.284142 1_455
Mg2 Ti0 3.226752 1_655
Mg2 Ti0 3.284446 1_555
Mg3 Mg5 2.946305 1_555
Mg3 Mg5 3.036680 1_545
Mg3 Mg6 3.212208 1_555
Mg3 Mg7 3.212208 1_555
Mg4 Ti0 3.226752 1_665
Mg4 Ti0 3.284446 1_555
Mg5 Mg8 3.212208 1_555
Mg5 Mg9 3.212208 1_555
Mg6 Ti0 2.997216 1_555
Mg7 Ti0 2.997216 1_556
Mg8 Ti0 2.997222 1_555
Mg9 Ti0 2.997222 1_556
Mg10 Ti0 2.930292 1_655
Mg10 Mg12 3.030325 1_545
Mg10 Mg12 3.030325 1_555
Mg10 Mg3 3.063663 1_555
Mg10 Mg5 3.063669 1_545
Mg10 Mg2 3.091416 1_555
Mg10 Mg4 3.091422 1_545
Mg10 Mg8 3.216568 1_655
Mg10 Mg6 3.216569 1_655
Mg10 Mg8 3.300008 1_545
Mg10 Mg6 3.300008 1_555
Mg11 Ti0 2.930292 1_656
Mg11 Mg13 3.030325 1_545
Mg11 Mg13 3.030325 1_555
Mg11 Mg3 3.063663 1_555
Mg11 Mg5 3.063669 1_545
Mg11 Mg2 3.091416 1_556
Mg11 Mg4 3.091422 1_546
Mg11 Mg9 3.216568 1_655
Mg11 Mg7 3.216569 1_655
Mg11 Mg9 3.300008 1_545
Mg11 Mg7 3.300008 1_555
Mg12 Mg5 3.471495 1_555
Mg12 Mg3 3.471500 1_555
Mg13 Mg5 3.471495 1_555
Mg13 Mg3 3.471500 1_555
C0 Mg2 2.306366 1_565
C0 Mg4 2.306366 1_555
C0 Mg9 2.722238 1_554
C0 Mg8 2.722238 1_555
C0 Mg7 2.722245 1_564
C0 Mg6 2.722245 1_565
