# generated using pymatgen
data_Ni4Sn3
_symmetry_space_group_name_H-M   'P 1'
_cell_length_a   5.21378300
_cell_length_b   7.06609800
_cell_length_c   24.57819798
_cell_angle_alpha   89.90060383
_cell_angle_beta   90.00000000
_cell_angle_gamma   90.00000000
_symmetry_Int_Tables_number   1
_chemical_formula_structural   Ni4Sn3
_chemical_formula_sum   'Ni32 Sn24'
_cell_volume   905.48652725
_cell_formula_units_Z   8
loop_
 _symmetry_equiv_pos_site_id
 _symmetry_equiv_pos_as_xyz
  1  'x, y, z'
loop_
 _atom_site_type_symbol
 _atom_site_label
 _atom_site_symmetry_multiplicity
 _atom_site_fract_x
 _atom_site_fract_y
 _atom_site_fract_z
 _atom_site_occupancy
  Ni  Ni0  1  0.24738100  0.74239600  0.20831600  1
  Ni  Ni1  1  0.24511500  0.73875000  0.54134400  1
  Ni  Ni2  1  0.24545300  0.73971900  0.87487200  1
  Ni  Ni3  1  0.75156500  0.24255200  0.29194000  1
  Ni  Ni4  1  0.75212800  0.23357900  0.62524300  1
  Ni  Ni5  1  0.75257200  0.23302500  0.95913500  1
  Ni  Ni6  1  0.74574500  0.26104900  0.12659700  1
  Ni  Ni7  1  0.74437900  0.26082400  0.45622700  1
  Ni  Ni8  1  0.74326100  0.26473200  0.79143800  1
  Ni  Ni9  1  0.25198400  0.75835300  0.04159100  1
  Ni  Ni10  1  0.25304000  0.75938900  0.37514300  1
  Ni  Ni11  1  0.25253600  0.75958200  0.70824100  1
  Ni  Ni12  1  0.25425500  0.26104900  0.12659700  1
  Ni  Ni13  1  0.25562100  0.26082400  0.45622700  1
  Ni  Ni14  1  0.25673900  0.26473200  0.79143800  1
  Ni  Ni15  1  0.74801600  0.75835300  0.04159100  1
  Ni  Ni16  1  0.74696000  0.75938900  0.37514300  1
  Ni  Ni17  1  0.74746400  0.75958200  0.70824100  1
  Ni  Ni18  1  0.75261900  0.74239600  0.20831600  1
  Ni  Ni19  1  0.75488500  0.73875000  0.54134400  1
  Ni  Ni20  1  0.75454700  0.73971900  0.87487200  1
  Ni  Ni21  1  0.24843500  0.24255200  0.29194000  1
  Ni  Ni22  1  0.24787200  0.23357900  0.62524300  1
  Ni  Ni23  1  0.24742800  0.23302500  0.95913500  1
  Ni  Ni24  1  0.00000000  0.90463300  0.62303000  1
  Ni  Ni25  1  0.00000000  0.90433800  0.95700600  1
  Ni  Ni26  1  0.50000000  0.58881100  0.12375800  1
  Ni  Ni27  1  0.50000000  0.58730300  0.45939200  1
  Ni  Ni28  1  0.50000000  0.59041200  0.79134900  1
  Ni  Ni29  1  0.50000000  0.08684000  0.04283900  1
  Ni  Ni30  1  0.50000000  0.08660400  0.37426600  1
  Ni  Ni31  1  0.50000000  0.08681100  0.70873700  1
  Sn  Sn0  1  0.00000000  0.09152700  0.04914100  1
  Sn  Sn1  1  0.00000000  0.08306900  0.37537900  1
  Sn  Sn2  1  0.00000000  0.09201000  0.71459700  1
  Sn  Sn3  1  0.00000000  0.58490100  0.12398100  1
  Sn  Sn4  1  0.00000000  0.58569000  0.45624600  1
  Sn  Sn5  1  0.00000000  0.58838900  0.78985900  1
  Sn  Sn6  1  0.50000000  0.90175400  0.28643200  1
  Sn  Sn7  1  0.50000000  0.89842000  0.61954500  1
  Sn  Sn8  1  0.50000000  0.89850000  0.95354100  1
  Sn  Sn9  1  0.50000000  0.40611000  0.21358600  1
  Sn  Sn10  1  0.50000000  0.39890500  0.54669500  1
  Sn  Sn11  1  0.50000000  0.40172300  0.88041100  1
  Sn  Sn12  1  0.00000000  0.08506900  0.20874400  1
  Sn  Sn13  1  0.00000000  0.09690400  0.53512800  1
  Sn  Sn14  1  0.00000000  0.09761500  0.86953500  1
  Sn  Sn15  1  0.00000000  0.58368400  0.29253400  1
  Sn  Sn16  1  0.00000000  0.55242900  0.62582800  1
  Sn  Sn17  1  0.00000000  0.55170100  0.95894000  1
  Sn  Sn18  1  0.50000000  0.94088800  0.13655800  1
  Sn  Sn19  1  0.50000000  0.94058900  0.46834800  1
  Sn  Sn20  1  0.50000000  0.94263200  0.80302000  1
  Sn  Sn21  1  0.50000000  0.43738100  0.03093100  1
  Sn  Sn22  1  0.50000000  0.44189200  0.36467500  1
  Sn  Sn23  1  0.50000000  0.43856600  0.69779300  1
loop_
_geom_bond_atom_site_label_1
_geom_bond_atom_site_label_2
_geom_bond_distance
_geom_bond_site_symmetry_2
Ni0 Ni18 2.579582 1_455
Ni0 Sn6 2.587746 1_555
Ni0 Sn18 2.608435 1_555
Ni0 Ni18 2.634201 1_555
Ni0 Sn15 2.682873 1_555
Ni0 Sn3 2.684505 1_555
Ni0 Ni26 2.690651 1_555
Ni0 Sn9 2.719730 1_555
Ni0 Sn12 2.743492 1_565
Ni1 Ni19 2.555953 1_455
Ni1 Sn7 2.596288 1_555
Ni1 Ni27 2.641179 1_555
Ni1 Sn19 2.647651 1_555
Ni1 Ni24 2.654459 1_555
Ni1 Ni19 2.657830 1_555
Ni1 Sn4 2.680559 1_555
Ni1 Sn10 2.747514 1_555
Ni1 Sn16 2.769256 1_555
Ni1 Sn13 2.839001 1_565
Ni2 Ni20 2.559477 1_455
Ni2 Sn8 2.601201 1_555
Ni2 Sn20 2.631933 1_555
Ni2 Ni20 2.654306 1_555
Ni2 Ni25 2.659721 1_555
Ni2 Ni28 2.663848 1_555
Ni2 Sn5 2.674842 1_555
Ni2 Sn11 2.735467 1_555
Ni2 Sn17 2.768142 1_555
Ni2 Sn14 2.837123 1_565
Ni3 Sn9 2.599418 1_555
Ni3 Sn22 2.628484 1_555
Ni3 Ni30 2.649736 1_555
Ni3 Sn12 2.665559 1_655
Ni3 Sn1 2.673088 1_655
Ni3 Sn15 2.736508 1_655
Ni3 Sn6 2.745682 1_545
Ni4 Sn16 2.597424 1_655
Ni4 Sn10 2.609981 1_555
Ni4 Sn23 2.648514 1_555
Ni4 Sn7 2.712465 1_545
Ni4 Sn2 2.736119 1_655
Ni4 Sn13 2.741515 1_655
Ni5 Sn17 2.595142 1_655
Ni5 Sn11 2.625047 1_555
Ni5 Sn21 2.634759 1_556
Ni5 Sn8 2.709544 1_545
Ni5 Sn14 2.727035 1_655
Ni5 Sn0 2.747719 1_656
Ni6 Sn18 2.611053 1_545
Ni6 Sn0 2.612328 1_655
Ni6 Sn3 2.645290 1_655
Ni6 Sn9 2.696493 1_555
Ni6 Sn12 2.715018 1_655
Ni6 Sn21 2.951700 1_555
Ni7 Sn19 2.613458 1_545
Ni7 Sn13 2.621203 1_655
Ni7 Sn4 2.654376 1_655
Ni7 Sn1 2.703899 1_655
Ni7 Sn10 2.743550 1_555
Ni7 Sn22 2.883356 1_555
Ni8 Sn2 2.618436 1_655
Ni8 Sn14 2.619694 1_655
Ni8 Sn20 2.620597 1_545
Ni8 Sn5 2.650157 1_655
Ni8 Sn11 2.708328 1_555
Ni8 Sn23 2.899150 1_555
Ni9 Sn21 2.624258 1_555
Ni9 Sn0 2.702673 1_565
Ni9 Sn3 2.705590 1_555
Ni9 Sn8 2.707162 1_554
Ni9 Sn17 2.827583 1_554
Ni9 Sn18 2.965514 1_555
Ni10 Ni16 2.575192 1_555
Ni10 Sn22 2.599853 1_555
Ni10 Ni16 2.638591 1_455
Ni10 Sn1 2.640397 1_565
Ni10 Ni30 2.646536 1_565
Ni10 Sn4 2.685518 1_555
Ni10 Sn15 2.722715 1_555
Ni10 Ni27 2.723145 1_555
Ni10 Sn6 2.723273 1_555
Ni10 Sn19 2.924938 1_555
Ni11 Ni17 2.580447 1_555
Ni11 Sn23 2.622587 1_555
Ni11 Ni17 2.633336 1_455
Ni11 Ni31 2.647894 1_565
Ni11 Ni24 2.676361 1_555
Ni11 Sn5 2.685632 1_555
Ni11 Ni28 2.693978 1_555
Ni11 Sn2 2.697582 1_565
Ni11 Sn7 2.715152 1_555
Ni11 Sn16 2.826555 1_555
Ni11 Sn20 2.962212 1_555
Ni12 Ni6 2.562522 1_555
Ni12 Sn18 2.611053 1_545
Ni12 Sn0 2.612328 1_555
Ni12 Sn3 2.645290 1_555
Ni12 Ni26 2.647600 1_555
Ni12 Ni6 2.651261 1_455
Ni12 Sn9 2.696493 1_555
Ni12 Sn12 2.715018 1_555
Ni12 Ni29 2.720965 1_555
Ni12 Sn21 2.951700 1_555
Ni13 Ni7 2.548278 1_555
Ni13 Sn19 2.613458 1_545
Ni13 Sn13 2.621203 1_555
Ni13 Ni27 2.636673 1_555
Ni13 Sn4 2.654376 1_555
Ni13 Ni7 2.665505 1_455
Ni13 Ni30 2.684317 1_555
Ni13 Sn1 2.703899 1_555
Ni13 Sn10 2.743550 1_555
Ni13 Sn22 2.883356 1_555
Ni14 Ni8 2.536620 1_555
Ni14 Sn2 2.618436 1_555
Ni14 Sn14 2.619694 1_555
Ni14 Sn20 2.620597 1_545
Ni14 Ni28 2.627645 1_555
Ni14 Sn5 2.650157 1_555
Ni14 Ni8 2.677163 1_455
Ni14 Ni31 2.707338 1_555
Ni14 Sn11 2.708328 1_555
Ni14 Sn23 2.899150 1_555
Ni15 Ni9 2.586203 1_555
Ni15 Sn21 2.624258 1_555
Ni15 Ni9 2.627580 1_655
Ni15 Ni29 2.657236 1_565
Ni15 Ni25 2.665466 1_654
Ni15 Ni26 2.679062 1_555
Ni15 Sn0 2.702673 1_665
Ni15 Sn3 2.705590 1_655
Ni15 Sn8 2.707162 1_554
Ni15 Sn17 2.827583 1_654
Ni15 Sn18 2.965514 1_555
Ni16 Sn22 2.599853 1_555
Ni16 Sn1 2.640397 1_665
Ni16 Ni30 2.646536 1_565
Ni16 Sn4 2.685518 1_655
Ni16 Sn15 2.722715 1_655
Ni16 Ni27 2.723145 1_555
Ni16 Sn6 2.723273 1_555
Ni16 Sn19 2.924938 1_555
Ni17 Sn23 2.622587 1_555
Ni17 Ni31 2.647894 1_565
Ni17 Ni24 2.676361 1_655
Ni17 Sn5 2.685632 1_655
Ni17 Ni28 2.693978 1_555
Ni17 Sn2 2.697582 1_665
Ni17 Sn7 2.715152 1_555
Ni17 Sn16 2.826555 1_655
Ni17 Sn20 2.962212 1_555
Ni18 Sn6 2.587746 1_555
Ni18 Sn18 2.608435 1_555
Ni18 Sn15 2.682873 1_655
Ni18 Sn3 2.684505 1_655
Ni18 Ni26 2.690651 1_555
Ni18 Sn9 2.719730 1_555
Ni18 Sn12 2.743492 1_665
Ni19 Sn7 2.596288 1_555
Ni19 Ni27 2.641179 1_555
Ni19 Sn19 2.647651 1_555
Ni19 Ni24 2.654459 1_655
Ni19 Sn4 2.680559 1_655
Ni19 Sn10 2.747514 1_555
Ni19 Sn16 2.769256 1_655
Ni19 Sn13 2.839001 1_665
Ni20 Sn8 2.601201 1_555
Ni20 Sn20 2.631933 1_555
Ni20 Ni25 2.659721 1_655
Ni20 Ni28 2.663848 1_555
Ni20 Sn5 2.674842 1_655
Ni20 Sn11 2.735467 1_555
Ni20 Sn17 2.768142 1_655
Ni20 Sn14 2.837123 1_665
Ni21 Ni3 2.590572 1_455
Ni21 Sn9 2.599418 1_555
Ni21 Ni3 2.623211 1_555
Ni21 Sn22 2.628484 1_555
Ni21 Ni30 2.649736 1_555
Ni21 Sn12 2.665559 1_555
Ni21 Sn1 2.673088 1_555
Ni21 Sn15 2.736508 1_555
Ni21 Sn6 2.745682 1_545
Ni22 Ni4 2.584702 1_455
Ni22 Sn16 2.597424 1_555
Ni22 Sn10 2.609981 1_555
Ni22 Ni4 2.629081 1_555
Ni22 Ni31 2.647151 1_555
Ni22 Sn23 2.648514 1_555
Ni22 Ni24 2.660120 1_545
Ni22 Sn7 2.712465 1_545
Ni22 Sn2 2.736119 1_555
Ni22 Sn13 2.741515 1_555
Ni23 Ni5 2.580072 1_455
Ni23 Sn17 2.595142 1_555
Ni23 Sn11 2.625047 1_555
Ni23 Ni5 2.633711 1_555
Ni23 Sn21 2.634759 1_556
Ni23 Ni29 2.650697 1_556
Ni23 Ni25 2.657352 1_545
Ni23 Sn8 2.709544 1_545
Ni23 Sn14 2.727035 1_555
Ni23 Sn0 2.747719 1_556
Ni24 Sn16 2.489539 1_555
Ni24 Sn13 2.550151 1_565
Ni24 Sn7 2.608670 1_555
Ni24 Sn7 2.608670 1_455
Ni24 Sn2 2.613114 1_565
Ni24 Ni4 2.660120 1_465
Ni25 Sn17 2.492139 1_555
Ni25 Sn14 2.544989 1_565
Ni25 Sn8 2.608611 1_555
Ni25 Sn8 2.608611 1_455
Ni25 Sn0 2.624487 1_566
Ni25 Ni5 2.657352 1_465
Ni25 Ni9 2.665466 1_556
Ni26 Sn18 2.508165 1_555
Ni26 Sn21 2.521656 1_555
Ni26 Sn9 2.555616 1_555
Ni26 Sn3 2.607044 1_555
Ni26 Sn3 2.607044 1_655
Ni26 Ni6 2.647600 1_555
Ni26 Ni9 2.679062 1_555
Ni27 Sn19 2.506420 1_555
Ni27 Sn10 2.523198 1_555
Ni27 Sn22 2.546270 1_555
Ni27 Sn4 2.608063 1_655
Ni27 Sn4 2.608063 1_555
Ni27 Ni7 2.636673 1_555
Ni28 Sn20 2.505792 1_555
Ni28 Sn23 2.539137 1_555
Ni28 Sn11 2.561093 1_555
Ni28 Sn5 2.607188 1_555
Ni28 Sn5 2.607188 1_655
Ni28 Ni8 2.627645 1_555
Ni29 Sn21 2.493684 1_555
Ni29 Sn18 2.522145 1_545
Ni29 Sn8 2.568719 1_544
Ni29 Sn0 2.611702 1_555
Ni29 Sn0 2.611702 1_655
Ni29 Ni5 2.650697 1_554
Ni29 Ni9 2.657236 1_545
Ni29 Ni6 2.720965 1_555
Ni30 Sn22 2.521136 1_555
Ni30 Sn6 2.525130 1_545
Ni30 Sn19 2.530470 1_545
Ni30 Sn1 2.607154 1_655
Ni30 Sn1 2.607154 1_555
Ni30 Ni7 2.684317 1_555
Ni31 Sn23 2.499584 1_555
Ni31 Sn20 2.529750 1_545
Ni31 Sn7 2.566678 1_545
Ni31 Sn2 2.611129 1_555
Ni31 Sn2 2.611129 1_655
Ni31 Ni4 2.647151 1_555
Ni31 Ni8 2.707338 1_555
Sn13 Sn19 3.273553 1_545
Sn13 Sn19 3.273553 1_445
Sn15 Sn22 3.307178 1_455
Sn15 Sn22 3.307178 1_555
Sn16 Sn23 3.250665 1_455
Sn16 Sn23 3.250665 1_555
Sn17 Sn21 3.251810 1_456
Sn17 Sn21 3.251810 1_556
