# generated using pymatgen
data_UNO8
_symmetry_space_group_name_H-M   'P 1'
_cell_length_a   9.07170700
_cell_length_b   9.07738501
_cell_length_c   10.77266126
_cell_angle_alpha   107.69308957
_cell_angle_beta   110.72926836
_cell_angle_gamma   102.53572447
_symmetry_Int_Tables_number   1
_chemical_formula_structural   UNO8
_chemical_formula_sum   'U4 N4 O32'
_cell_volume   736.10327128
_cell_formula_units_Z   4
loop_
 _symmetry_equiv_pos_site_id
 _symmetry_equiv_pos_as_xyz
  1  'x, y, z'
loop_
 _atom_site_type_symbol
 _atom_site_label
 _atom_site_symmetry_multiplicity
 _atom_site_fract_x
 _atom_site_fract_y
 _atom_site_fract_z
 _atom_site_occupancy
  U  U0  1  0.78706600  0.00038100  0.24715200  1
  U  U1  1  0.21293400  0.99961900  0.75284800  1
  U  U2  1  0.74484700  0.27686300  0.52197800  1
  U  U3  1  0.25515300  0.72313700  0.47802200  1
  N  N0  1  0.10874200  0.02420700  0.19085600  1
  N  N1  1  0.89125800  0.97579300  0.80914400  1
  N  N2  1  0.51102300  0.68690600  0.99124000  1
  N  N3  1  0.48897700  0.31309400  0.00876000  1
  O  O0  1  0.84828800  0.87456300  0.34302800  1
  O  O1  1  0.15171200  0.12543700  0.65697200  1
  O  O2  1  0.72300600  0.10999100  0.13534700  1
  O  O3  1  0.27699400  0.89000900  0.86465300  1
  O  O4  1  0.79985800  0.19359800  0.65848400  1
  O  O5  1  0.20014200  0.80640200  0.34151600  1
  O  O6  1  0.66736900  0.39652600  0.42356000  1
  O  O7  1  0.33263100  0.60347400  0.57644000  1
  O  O8  1  0.61898900  0.05163600  0.34877600  1
  O  O9  1  0.38101100  0.94836400  0.65122400  1
  O  O10  1  0.91587200  0.24203700  0.44552000  1
  O  O11  1  0.08412800  0.75796300  0.55448000  1
  O  O12  1  0.09564600  0.12820300  0.29446300  1
  O  O13  1  0.90435400  0.87179700  0.70553700  1
  O  O14  1  0.97588000  0.89951800  0.09800800  1
  O  O15  1  0.02412000  0.10048200  0.90199200  1
  O  O16  1  0.24417700  0.04728100  0.18459400  1
  O  O17  1  0.75582300  0.95271900  0.81540600  1
  O  O18  1  0.65668200  0.73861400  0.99721600  1
  O  O19  1  0.34331800  0.26138600  0.00278400  1
  O  O20  1  0.49288800  0.77137800  0.10032600  1
  O  O21  1  0.50711200  0.22862200  0.89967400  1
  O  O22  1  0.39425500  0.56326500  0.88741600  1
  O  O23  1  0.60574500  0.43673500  0.11258400  1
  O  O24  1  0.99646600  0.55751200  0.76975700  1
  O  O25  1  0.00353400  0.44248800  0.23024300  1
  O  O26  1  0.59622200  0.43967200  0.70446100  1
  O  O27  1  0.40377800  0.56032800  0.29553900  1
  O  O28  1  0.48095400  0.30694800  0.61213600  1
  O  O29  1  0.51904600  0.69305200  0.38786400  1
  O  O30  1  0.95733000  0.41961000  0.10180600  1
  O  O31  1  0.04267000  0.58039000  0.89819400  1
loop_
_geom_bond_atom_site_label_1
_geom_bond_atom_site_label_2
_geom_bond_distance
_geom_bond_site_symmetry_2
N0 O16 1.230242 1_555
N0 O14 1.265107 1_445
N0 O12 1.285737 1_555
N1 O17 1.230242 1_555
N1 O15 1.265107 1_665
N1 O13 1.285737 1_555
N2 O22 1.230804 1_555
N2 O18 1.273840 1_555
N2 O20 1.280586 1_556
N3 O23 1.230804 1_555
N3 O19 1.273840 1_555
N3 O21 1.280586 1_554
O0 U0 1.807176 1_565
O1 U1 1.807176 1_545
O2 U0 1.806180 1_555
O3 U1 1.806180 1_555
O4 U2 1.817310 1_555
O5 U3 1.817310 1_555
O6 U2 1.817107 1_555
O7 U3 1.817107 1_555
O8 U2 2.030954 1_555
O8 U0 2.218068 1_555
O9 U3 2.030954 1_555
O9 U1 2.218068 1_555
O10 U2 2.035862 1_555
O10 U0 2.239241 1_555
O11 U3 2.035862 1_555
O11 U1 2.239241 1_555
O12 U0 2.581272 1_455
O13 U1 2.581272 1_655
O24 O31 1.228904 1_655
O24 U2 2.802577 1_555
O25 O30 1.228904 1_455
O25 U3 2.802577 1_555
O26 O28 1.233973 1_555
O27 O29 1.233973 1_555
O28 U2 2.918471 1_555
O29 U3 2.918471 1_555
