# generated using pymatgen
data_Na8Fe6P6(O8F3)3
_symmetry_space_group_name_H-M   'P 1'
_cell_length_a   11.60797241
_cell_length_b   11.60797241
_cell_length_c   7.09170274
_cell_angle_alpha   81.07275770
_cell_angle_beta   81.07275770
_cell_angle_gamma   46.50070061
_symmetry_Int_Tables_number   1
_chemical_formula_structural   Na8Fe6P6(O8F3)3
_chemical_formula_sum   'Na8 Fe6 P6 O24 F9'
_cell_volume   683.19723010
_cell_formula_units_Z   1
loop_
 _symmetry_equiv_pos_site_id
 _symmetry_equiv_pos_as_xyz
  1  'x, y, z'
loop_
 _atom_site_type_symbol
 _atom_site_label
 _atom_site_symmetry_multiplicity
 _atom_site_fract_x
 _atom_site_fract_y
 _atom_site_fract_z
 _atom_site_occupancy
  Na  Na0  1  0.08537900  0.08537900  0.17357900  1
  Na  Na1  1  0.43161200  0.43161200  0.86057800  1
  Na  Na2  1  0.56838800  0.56838800  0.13942200  1
  Na  Na3  1  0.91462100  0.91462100  0.82642100  1
  Na  Na4  1  0.04673700  0.60410900  0.64722300  1
  Na  Na5  1  0.39589100  0.95326300  0.35277700  1
  Na  Na6  1  0.60410900  0.04673700  0.64722300  1
  Na  Na7  1  0.95326300  0.39589100  0.35277700  1
  Fe  Fe0  1  0.60545900  0.60545900  0.58457700  1
  Fe  Fe1  1  0.93657700  0.93657700  0.24972600  1
  Fe  Fe2  1  0.26961400  0.26961400  0.91671800  1
  Fe  Fe3  1  0.06342300  0.06342300  0.75027400  1
  Fe  Fe4  1  0.39454100  0.39454100  0.41542300  1
  Fe  Fe5  1  0.73038600  0.73038600  0.08328200  1
  P  P0  1  0.91710500  0.41679900  0.83595300  1
  P  P1  1  0.24837600  0.75162400  0.50000000  1
  P  P2  1  0.58320100  0.08289500  0.16404700  1
  P  P3  1  0.75162400  0.24837600  0.50000000  1
  P  P4  1  0.08289500  0.58320100  0.16404700  1
  P  P5  1  0.41679900  0.91710500  0.83595300  1
  O  O0  1  0.96129200  0.25645100  0.88691500  1
  O  O1  1  0.28237600  0.59630700  0.55439200  1
  O  O2  1  0.61052800  0.93099600  0.21087700  1
  O  O3  1  0.82030200  0.51614200  0.01365600  1
  O  O4  1  0.15426700  0.85309500  0.67598600  1
  O  O5  1  0.49705000  0.17859000  0.34430500  1
  O  O6  1  0.85309500  0.15426700  0.67598600  1
  O  O7  1  0.17859000  0.49705000  0.34430500  1
  O  O8  1  0.51614200  0.82030200  0.01365600  1
  O  O9  1  0.59630700  0.28237600  0.55439200  1
  O  O10  1  0.93099600  0.61052800  0.21087700  1
  O  O11  1  0.25645100  0.96129200  0.88691500  1
  O  O12  1  0.71762400  0.40369300  0.44560800  1
  O  O13  1  0.03870800  0.74354900  0.11308500  1
  O  O14  1  0.38947200  0.06900400  0.78912300  1
  O  O15  1  0.84573300  0.14690500  0.32401400  1
  O  O16  1  0.17969800  0.48385800  0.98634400  1
  O  O17  1  0.50295000  0.82141000  0.65569500  1
  O  O18  1  0.82141000  0.50295000  0.65569500  1
  O  O19  1  0.14690500  0.84573300  0.32401400  1
  O  O20  1  0.48385800  0.17969800  0.98634400  1
  O  O21  1  0.06900400  0.38947200  0.78912300  1
  O  O22  1  0.40369300  0.71762400  0.44560800  1
  O  O23  1  0.74354900  0.03870800  0.11308500  1
  F  F0  1  0.66471800  0.66471800  0.32933200  1
  F  F1  1  0.00000000  0.00000000  0.00000000  1
  F  F2  1  0.33528200  0.33528200  0.67066800  1
  F  F3  1  0.54612700  0.54612700  0.81710300  1
  F  F4  1  0.88218000  0.88218000  0.50226100  1
  F  F5  1  0.20545700  0.20545700  0.14838700  1
  F  F6  1  0.11782000  0.11782000  0.49773900  1
  F  F7  1  0.45387300  0.45387300  0.18289700  1
  F  F8  1  0.79454300  0.79454300  0.85161300  1
loop_
_geom_bond_atom_site_label_1
_geom_bond_atom_site_label_2
_geom_bond_distance
_geom_bond_site_symmetry_2
Na0 O0 2.422612 1_454
Na0 O11 2.422612 1_544
Na0 O15 2.442729 1_455
Na0 O19 2.442729 1_545
Na1 O16 2.575118 1_555
Na1 O20 2.575118 1_555
Na1 O1 2.586590 1_555
Na1 O9 2.586590 1_555
Na2 O3 2.575118 1_555
Na2 O8 2.575118 1_555
Na2 O12 2.586590 1_555
Na2 O22 2.586590 1_555
Na3 O23 2.422612 1_566
Na3 O13 2.422612 1_656
Na3 O6 2.442729 1_565
Na3 O4 2.442729 1_655
Na4 O7 2.385645 1_555
Na4 O21 2.388107 1_555
Na4 O1 2.653679 1_555
Na4 O16 2.694161 1_555
Na5 O17 2.385645 1_555
Na5 O2 2.388107 1_555
Na5 O22 2.653679 1_555
Na5 O8 2.694161 1_555
Na6 O5 2.385645 1_555
Na6 O14 2.388107 1_555
Na6 O9 2.653679 1_555
Na6 O20 2.694161 1_555
Na7 O18 2.385645 1_555
Na7 O10 2.388107 1_555
Na7 O12 2.653679 1_555
Na7 O3 2.694161 1_555
Fe0 O18 2.013396 1_555
Fe0 O17 2.013396 1_555
Fe0 O12 2.066859 1_555
Fe0 O22 2.066859 1_555
Fe1 O23 2.006331 1_565
Fe1 O13 2.006331 1_655
Fe1 O15 2.008173 1_565
Fe1 O19 2.008173 1_655
Fe2 O21 1.995030 1_555
Fe2 O14 1.995030 1_555
Fe2 O16 2.041010 1_555
Fe2 O20 2.041010 1_555
Fe3 O11 2.006331 1_545
Fe3 O0 2.006331 1_455
Fe3 O4 2.008173 1_545
Fe3 O6 2.008173 1_455
Fe4 O7 2.013396 1_555
Fe4 O5 2.013396 1_555
Fe4 O1 2.066859 1_555
Fe4 O9 2.066859 1_555
Fe5 O10 1.995030 1_555
Fe5 O2 1.995030 1_555
Fe5 O8 2.041010 1_555
Fe5 O3 2.041010 1_555
O0 P0 1.546808 1_555
O1 P1 1.551410 1_555
O2 P2 1.549476 1_565
O3 P0 1.551848 1_554
O4 P1 1.549205 1_555
O5 P2 1.543627 1_555
O6 P3 1.549205 1_555
O7 P4 1.543627 1_555
O8 P5 1.551848 1_554
O9 P3 1.551410 1_555
O10 P4 1.549476 1_655
O11 P5 1.546808 1_555
O12 P3 1.551410 1_555
O13 P4 1.546808 1_555
O14 P5 1.549476 1_545
O15 P3 1.549205 1_555
O16 P4 1.551848 1_556
O17 P5 1.543627 1_555
O18 P0 1.543627 1_555
O19 P1 1.549205 1_555
O20 P2 1.551848 1_556
O21 P0 1.549476 1_455
O22 P1 1.551410 1_555
O23 P2 1.546808 1_555
F0 Fe0 2.025196 1_555
F0 Fe5 2.044789 1_555
F0 Na5 2.570343 1_555
F0 Na7 2.570343 1_555
F0 Na2 2.640209 1_555
F1 Fe3 2.038938 1_554
F1 Fe1 2.038938 1_445
F1 Na3 2.364162 1_444
F1 Na0 2.364162 1_555
F2 Fe4 2.025196 1_555
F2 Fe2 2.044789 1_555
F2 Na4 2.570343 1_555
F2 Na6 2.570343 1_555
F2 Na1 2.640209 1_555
F3 Fe0 1.901569 1_555
F3 Na1 2.409832 1_555
F3 Na2 2.411834 1_556
F4 Fe1 1.962583 1_555
F4 Na4 2.493156 1_655
F4 Na6 2.493156 1_565
F4 Na3 2.510157 1_555
F5 Fe2 1.952572 1_554
F5 Na7 2.515163 1_455
F5 Na5 2.515163 1_545
F5 Na0 2.537273 1_555
F6 Fe3 1.962583 1_555
F6 Na7 2.493156 1_455
F6 Na5 2.493156 1_545
F6 Na0 2.510157 1_555
F7 Fe4 1.901569 1_555
F7 Na2 2.409832 1_555
F7 Na1 2.411834 1_554
F8 Fe5 1.952572 1_556
F8 Na4 2.515163 1_655
F8 Na6 2.515163 1_565
F8 Na3 2.537273 1_555
