# generated using pymatgen
data_K7Mo12H29Pt2O59
_symmetry_space_group_name_H-M   'P 1'
_cell_length_a   10.39705900
_cell_length_b   12.30268255
_cell_length_c   12.62453624
_cell_angle_alpha   111.75651507
_cell_angle_beta   109.77003780
_cell_angle_gamma   84.78124662
_symmetry_Int_Tables_number   1
_chemical_formula_structural   K7Mo12H29Pt2O59
_chemical_formula_sum   'K7 Mo12 H29 Pt2 O59'
_cell_volume   1410.30177842
_cell_formula_units_Z   1
loop_
 _symmetry_equiv_pos_site_id
 _symmetry_equiv_pos_as_xyz
  1  'x, y, z'
loop_
 _atom_site_type_symbol
 _atom_site_label
 _atom_site_symmetry_multiplicity
 _atom_site_fract_x
 _atom_site_fract_y
 _atom_site_fract_z
 _atom_site_occupancy
  K  K0  1  0.24567800  0.09325000  0.87307500  1
  K  K1  1  0.75501800  0.90531600  0.12526800  1
  K  K2  1  0.57709100  0.36580500  0.17310600  1
  K  K3  1  0.42249100  0.63724500  0.82666700  1
  K  K4  1  0.00088800  0.99901200  0.49835800  1
  K  K5  1  0.07884200  0.43099500  0.15016800  1
  K  K6  1  0.92325600  0.57248000  0.85203400  1
  Mo  Mo0  1  0.47147100  0.31865000  0.80703500  1
  Mo  Mo1  1  0.52876300  0.68279700  0.19370900  1
  Mo  Mo2  1  0.02932200  0.22015300  0.33763900  1
  Mo  Mo3  1  0.97069400  0.77975100  0.66187400  1
  Mo  Mo4  1  0.70116600  0.22789800  0.67359900  1
  Mo  Mo5  1  0.30192100  0.77542500  0.33024400  1
  Mo  Mo6  1  0.13476300  0.31332300  0.64617000  1
  Mo  Mo7  1  0.86525500  0.68690000  0.35419800  1
  Mo  Mo8  1  0.60671000  0.14006300  0.36803200  1
  Mo  Mo9  1  0.39143100  0.85996400  0.62715200  1
  Mo  Mo10  1  0.26908600  0.13518400  0.19858900  1
  Mo  Mo11  1  0.73038300  0.86386700  0.80116000  1
  H  H0  1  0.15400700  0.37944400  0.90200000  1
  H  H1  1  0.84650000  0.62149300  0.09917700  1
  H  H2  1  0.24684400  0.48585500  0.00460000  1
  H  H3  1  0.75358000  0.51548600  0.99631200  1
  H  H4  1  0.74867500  0.25663800  0.97627900  1
  H  H5  1  0.25224100  0.74284500  0.02448600  1
  H  H6  1  0.24297000  0.40953900  0.50911100  1
  H  H7  1  0.76016900  0.59028500  0.49055000  1
  H  H8  1  0.40578500  0.41473300  0.36233700  1
  H  H9  1  0.59475500  0.58706300  0.63875600  1
  H  H10  1  0.96459700  0.12368900  0.94178800  1
  H  H11  1  0.03587500  0.87537700  0.05818800  1
  H  H12  1  0.31133700  0.10383200  0.62576600  1
  H  H13  1  0.68662300  0.89569300  0.37448300  1
  H  H14  1  0.81621900  0.41543800  0.42550600  1
  H  H15  1  0.18409200  0.58318000  0.57430500  1
  H  H16  1  0.42292500  0.53496000  0.34720800  1
  H  H17  1  0.57601700  0.46562300  0.65082800  1
  H  H18  1  0.21543600  0.02186300  0.35122700  1
  H  H19  1  0.78268000  0.97757900  0.64852300  1
  H  H20  1  0.95820000  0.18981700  0.85753800  1
  H  H21  1  0.04395500  0.80882500  0.14250800  1
  H  H22  1  0.42292700  0.94715200  0.22991700  1
  H  H23  1  0.57910000  0.05190200  0.77057900  1
  H  H24  1  0.76291500  0.15692300  0.02270600  1
  H  H25  1  0.23575600  0.84289300  0.97821100  1
  H  H26  1  0.73130600  0.42060000  0.50900200  1
  H  H27  1  0.26890900  0.58111800  0.49188800  1
  H  H28  1  0.50129000  0.01611200  0.50009200  1
  Pt  Pt0  1  0.37195800  0.21093500  0.50060100  1
  Pt  Pt1  1  0.62653800  0.78772500  0.49967900  1
  O  O0  1  0.15210600  0.45344300  0.96695600  1
  O  O1  1  0.84828000  0.54786200  0.03370200  1
  O  O2  1  0.03653100  0.19904700  0.48616400  1
  O  O3  1  0.96397600  0.80161000  0.51407800  1
  O  O4  1  0.92691000  0.34075900  0.34678500  1
  O  O5  1  0.07452300  0.66005700  0.65400600  1
  O  O6  1  0.73878000  0.45455500  0.45238200  1
  O  O7  1  0.26132000  0.54465900  0.54668800  1
  O  O8  1  0.43729400  0.02929500  0.23736100  1
  O  O9  1  0.56309100  0.97036800  0.76334100  1
  O  O10  1  0.74981700  0.24135000  0.04688600  1
  O  O11  1  0.25005500  0.75862200  0.95388700  1
  O  O12  1  0.17480900  0.00764600  0.09075000  1
  O  O13  1  0.82511700  0.99112200  0.90929300  1
  O  O14  1  0.10621700  0.24286000  0.73471500  1
  O  O15  1  0.89340200  0.75828500  0.26605500  1
  O  O16  1  0.51561900  0.31978200  0.64433600  1
  O  O17  1  0.48413000  0.67868900  0.35615900  1
  O  O18  1  0.13120100  0.24205400  0.23871400  1
  O  O19  1  0.86833900  0.75743300  0.76034200  1
  O  O20  1  0.70821800  0.01411800  0.36287600  1
  O  O21  1  0.28961000  0.98645700  0.63515500  1
  O  O22  1  0.22343900  0.10551800  0.35314800  1
  O  O23  1  0.77505300  0.89452600  0.64656500  1
  O  O24  1  0.02528400  0.42846400  0.65427100  1
  O  O25  1  0.97479600  0.57177300  0.34526200  1
  O  O26  1  0.31910700  0.18867800  0.63246000  1
  O  O27  1  0.68024000  0.81144900  0.36845000  1
  O  O28  1  0.36823700  0.46068400  0.31107700  1
  O  O29  1  0.63292000  0.53848300  0.68728000  1
  O  O30  1  0.42288400  0.26148300  0.89638800  1
  O  O31  1  0.57750700  0.73917700  0.10385100  1
  O  O32  1  0.32957800  0.19688000  0.11985300  1
  O  O33  1  0.67118700  0.80102500  0.87981300  1
  O  O34  1  0.70186800  0.24893500  0.52287400  1
  O  O35  1  0.29200400  0.74829500  0.47576600  1
  O  O36  1  0.64132900  0.19412200  0.27192100  1
  O  O37  1  0.36332700  0.80541900  0.72647200  1
  O  O38  1  0.42502900  0.23441700  0.37030100  1
  O  O39  1  0.57465100  0.76420400  0.62946700  1
  O  O40  1  0.58201000  0.43932600  0.90608700  1
  O  O41  1  0.41739700  0.56250200  0.09462400  1
  O  O42  1  0.81060900  0.34404600  0.77950400  1
  O  O43  1  0.19406800  0.65810500  0.22257300  1
  O  O44  1  0.92503000  0.09806400  0.23537800  1
  O  O45  1  0.07385000  0.90252800  0.76454200  1
  O  O46  1  0.21725400  0.32654100  0.49879000  1
  O  O47  1  0.78557400  0.67305900  0.50091200  1
  O  O48  1  0.80470400  0.10310600  0.66120600  1
  O  O49  1  0.19632000  0.89931500  0.34036200  1
  O  O50  1  0.50306400  0.99968300  0.99185800  1
  O  O51  1  0.00986300  0.18760700  0.93731300  1
  O  O52  1  0.99095300  0.81162600  0.06323000  1
  O  O53  1  0.60924400  0.19631000  0.77324500  1
  O  O54  1  0.39473400  0.80687800  0.22983000  1
  O  O55  1  0.52540300  0.09845700  0.50321800  1
  O  O56  1  0.47211200  0.89694800  0.49842500  1
  O  O57  1  0.30682100  0.40187500  0.75372400  1
  O  O58  1  0.69329400  0.59862300  0.24609900  1
loop_
_geom_bond_atom_site_label_1
_geom_bond_atom_site_label_2
_geom_bond_distance
_geom_bond_site_symmetry_2
K0 O45 2.701450 1_545
K0 O32 2.740759 1_556
K0 O30 2.764084 1_555
K0 O51 2.854104 1_555
K0 O14 2.953957 1_555
K0 O50 2.956293 1_545
K0 O21 2.974904 1_545
K1 O44 2.708617 1_565
K1 O33 2.727106 1_554
K1 O31 2.756093 1_555
K1 O52 2.841730 1_555
K1 O15 2.946381 1_555
K1 O20 2.986460 1_565
K1 O50 2.993046 1_554
K2 O36 2.756192 1_555
K2 O10 2.781278 1_555
K2 O58 2.903904 1_555
K2 O41 3.086744 1_555
K2 O30 3.111809 1_554
K2 O28 3.114815 1_555
K2 O6 3.149521 1_555
K2 O32 3.187508 1_555
K3 O37 2.727884 1_555
K3 O11 2.776070 1_555
K3 O57 2.930330 1_555
K3 O40 3.104055 1_555
K3 O31 3.116834 1_556
K3 O29 3.145685 1_555
K3 O7 3.155092 1_555
K3 O33 3.157209 1_555
K4 O3 2.581282 1_455
K4 O2 2.588965 1_565
K4 O21 2.936643 1_555
K4 O20 2.971733 1_465
K4 O49 3.175904 1_555
K4 O48 3.230642 1_465
K4 O15 3.250673 1_455
K4 O14 3.294513 1_565
K5 O0 2.776690 1_554
K5 O43 2.837664 1_555
K5 O18 2.869420 1_555
K5 O1 2.920835 1_455
K5 O25 2.921539 1_455
K5 O28 2.971237 1_555
K5 O51 3.134217 1_554
K6 O1 2.779705 1_556
K6 O42 2.841449 1_555
K6 O19 2.848272 1_555
K6 O0 2.918375 1_655
K6 O24 2.944194 1_655
K6 O29 2.991762 1_555
K6 O52 3.090687 1_556
Mo0 O40 1.746596 1_555
Mo0 O30 1.749448 1_555
Mo0 O57 1.960718 1_555
Mo0 O53 2.011067 1_555
Mo0 O16 2.256095 1_555
Mo0 O26 2.325953 1_555
Mo1 O41 1.747915 1_555
Mo1 O31 1.749585 1_555
Mo1 O58 1.963728 1_555
Mo1 O54 2.001738 1_555
Mo1 O17 2.269104 1_555
Mo1 O27 2.316625 1_555
Mo2 O44 1.735020 1_455
Mo2 O4 1.737079 1_455
Mo2 O2 1.962450 1_555
Mo2 O18 1.987608 1_555
Mo2 O46 2.339238 1_555
Mo2 O22 2.349516 1_555
Mo3 O45 1.736309 1_655
Mo3 O5 1.737403 1_655
Mo3 O3 1.959340 1_555
Mo3 O19 1.988554 1_555
Mo3 O47 2.322308 1_555
Mo3 O23 2.362752 1_555
Mo4 O42 1.724679 1_555
Mo4 O48 1.782020 1_555
Mo4 O53 1.972374 1_555
Mo4 O34 2.015598 1_555
Mo4 O16 2.136976 1_555
Mo4 O55 2.415183 1_555
Mo5 O43 1.731252 1_555
Mo5 O49 1.786344 1_555
Mo5 O54 1.986721 1_555
Mo5 O35 2.021416 1_555
Mo5 O17 2.138109 1_555
Mo5 O56 2.336830 1_555
Mo6 O24 1.729370 1_555
Mo6 O14 1.754638 1_555
Mo6 O57 1.960972 1_555
Mo6 O2 1.964769 1_555
Mo6 O26 2.355410 1_555
Mo6 O46 2.356497 1_555
Mo7 O25 1.729436 1_555
Mo7 O15 1.756897 1_555
Mo7 O58 1.960190 1_555
Mo7 O3 1.967096 1_555
Mo7 O47 2.333124 1_555
Mo7 O27 2.360955 1_555
Mo8 O36 1.726652 1_555
Mo8 O20 1.786931 1_555
Mo8 O34 1.893638 1_555
Mo8 O8 2.117895 1_555
Mo8 O38 2.128258 1_555
Mo8 O55 2.364665 1_555
Mo9 O37 1.736421 1_555
Mo9 O21 1.791310 1_555
Mo9 O35 1.893151 1_555
Mo9 O39 2.144112 1_555
Mo9 O9 2.149474 1_555
Mo9 O56 2.256436 1_555
Mo10 O32 1.740348 1_555
Mo10 O12 1.752044 1_555
Mo10 O18 1.922268 1_555
Mo10 O8 2.115268 1_555
Mo10 O38 2.199766 1_555
Mo10 O22 2.313368 1_555
Mo11 O33 1.741141 1_555
Mo11 O13 1.752510 1_555
Mo11 O19 1.922390 1_555
Mo11 O9 2.111257 1_555
Mo11 O39 2.200007 1_555
Mo11 O23 2.314706 1_555
H0 O0 0.977707 1_555
H1 O1 0.977951 1_555
H2 O0 0.984567 1_554
H3 O1 0.984104 1_556
H4 O10 0.973034 1_556
H5 O11 0.972785 1_554
H6 O46 1.028870 1_555
H6 O7 1.560985 1_555
H7 O47 1.025038 1_555
H7 O6 1.571175 1_555
H8 O28 0.975154 1_555
H9 O29 0.976607 1_555
H10 O51 0.980459 1_655
H11 O52 0.980354 1_455
H12 O26 1.024004 1_555
H12 O21 1.534483 1_545
H13 O27 1.017330 1_555
H13 O20 1.560322 1_565
H14 O6 0.994100 1_555
H15 O7 0.994253 1_555
H16 O28 0.988156 1_555
H17 O29 0.985785 1_555
H18 O22 1.030745 1_555
H18 O49 1.488000 1_545
H19 O23 1.022552 1_555
H19 O48 1.522895 1_565
H20 O51 0.977363 1_655
H21 O52 0.977529 1_455
H22 O8 0.999988 1_565
H23 O9 0.997182 1_545
H24 O10 0.978735 1_555
H25 O11 0.978826 1_555
H26 O6 0.977919 1_555
H27 O7 0.979514 1_555
H28 O55 1.049086 1_555
H28 O56 1.515075 1_545
O16 Pt0 2.011441 1_555
O17 Pt1 2.004812 1_555
O22 Pt0 2.040024 1_555
O23 Pt1 2.043332 1_555
O26 Pt0 2.032755 1_555
O27 Pt1 2.038498 1_555
O38 Pt0 2.022176 1_555
O39 Pt1 2.009317 1_555
O46 Pt0 2.047825 1_555
O47 Pt1 2.073385 1_555
O55 Pt0 2.014397 1_555
O56 Pt1 1.997460 1_555
