# generated using pymatgen
data_Rb3GdV2O8
_symmetry_space_group_name_H-M   'P 1'
_cell_length_a   6.13734106
_cell_length_b   6.13734106
_cell_length_c   7.90922300
_cell_angle_alpha   90.00000000
_cell_angle_beta   90.00000000
_cell_angle_gamma   119.99998988
_symmetry_Int_Tables_number   1
_chemical_formula_structural   Rb3GdV2O8
_chemical_formula_sum   'Rb3 Gd1 V2 O8'
_cell_volume   258.00315294
_cell_formula_units_Z   1
loop_
 _symmetry_equiv_pos_site_id
 _symmetry_equiv_pos_as_xyz
  1  'x, y, z'
loop_
 _atom_site_type_symbol
 _atom_site_label
 _atom_site_symmetry_multiplicity
 _atom_site_fract_x
 _atom_site_fract_y
 _atom_site_fract_z
 _atom_site_occupancy
  Rb  Rb0  1  0.66666700  0.33333300  0.30954700  1
  Rb  Rb1  1  0.33333300  0.66666700  0.69045300  1
  Rb  Rb2  1  0.00000000  0.00000000  0.00000000  1
  Gd  Gd0  1  0.00000000  0.00000000  0.50000000  1
  V  V0  1  0.66666700  0.33333300  0.74818600  1
  V  V1  1  0.33333300  0.66666700  0.25181400  1
  O  O0  1  0.66666700  0.33333300  0.96091200  1
  O  O1  1  0.33333300  0.66666700  0.03908800  1
  O  O2  1  0.82316500  0.64632900  0.67150800  1
  O  O3  1  0.17683500  0.35367100  0.32849200  1
  O  O4  1  0.82316500  0.17683500  0.67150800  1
  O  O5  1  0.17683500  0.82316500  0.32849200  1
  O  O6  1  0.35367100  0.17683500  0.67150800  1
  O  O7  1  0.64632900  0.82316500  0.32849200  1
loop_
_geom_bond_atom_site_label_1
_geom_bond_atom_site_label_2
_geom_bond_distance
_geom_bond_site_symmetry_2
Gd0 O5 2.318121 1_545
Gd0 O4 2.318121 1_455
Gd0 O6 2.318126 1_555
Gd0 O3 2.318126 1_555
Gd0 O2 2.318126 1_445
Gd0 O7 2.318126 1_445
O0 V0 1.682497 1_555
O0 Rb0 2.757432 1_556
O0 Rb2 3.556853 1_656
O0 Rb2 3.556859 1_666
O0 Rb2 3.556859 1_556
O1 V1 1.682497 1_555
O1 Rb1 2.757432 1_554
O1 Rb2 3.556853 1_565
O1 Rb2 3.556859 1_555
O1 Rb2 3.556859 1_665
O2 V0 1.770698 1_555
O2 Rb1 3.074222 1_655
O2 Rb1 3.074234 1_555
O2 Rb2 3.206842 1_666
O2 Rb0 3.311098 1_555
O3 V1 1.770698 1_555
O3 Rb0 3.074222 1_455
O3 Rb0 3.074234 1_555
O3 Rb2 3.206842 1_555
O3 Rb1 3.311098 1_555
O4 V0 1.770698 1_555
O4 Rb1 3.074228 1_545
O4 Rb1 3.074228 1_655
O4 Rb2 3.206839 1_656
O4 Rb0 3.311098 1_555
O5 V1 1.770698 1_555
O5 Rb0 3.074228 1_455
O5 Rb0 3.074228 1_565
O5 Rb2 3.206839 1_565
O5 Rb1 3.311098 1_555
O6 V0 1.770698 1_555
O6 Rb1 3.074222 1_545
O6 Rb1 3.074234 1_555
O6 Rb2 3.206842 1_556
O6 Rb0 3.311098 1_555
O7 V1 1.770698 1_555
O7 Rb0 3.074222 1_565
O7 Rb0 3.074234 1_555
O7 Rb2 3.206842 1_665
O7 Rb1 3.311098 1_555
