# generated using pymatgen
data_Li3MnV(PO4)3
_symmetry_space_group_name_H-M   'P 1'
_cell_length_a   8.41919400
_cell_length_b   8.83438333
_cell_length_c   12.47743869
_cell_angle_alpha   89.14184233
_cell_angle_beta   88.11902886
_cell_angle_gamma   89.88984297
_symmetry_Int_Tables_number   1
_chemical_formula_structural   Li3MnV(PO4)3
_chemical_formula_sum   'Li12 Mn4 V4 P12 O48'
_cell_volume   927.44671645
_cell_formula_units_Z   4
loop_
 _symmetry_equiv_pos_site_id
 _symmetry_equiv_pos_as_xyz
  1  'x, y, z'
loop_
 _atom_site_type_symbol
 _atom_site_label
 _atom_site_symmetry_multiplicity
 _atom_site_fract_x
 _atom_site_fract_y
 _atom_site_fract_z
 _atom_site_occupancy
  Li  Li0  1  0.00390600  0.99841500  0.00051700  1
  Li  Li1  1  0.00040900  0.10344200  0.25110600  1
  Li  Li2  1  0.00149500  0.99979900  0.50041800  1
  Li  Li3  1  0.01455000  0.89220500  0.74814600  1
  Li  Li4  1  0.28788800  0.81308100  0.04602300  1
  Li  Li5  1  0.28662200  0.19189700  0.54871800  1
  Li  Li6  1  0.50466900  0.50846900  0.00043100  1
  Li  Li7  1  0.50326200  0.39791700  0.25151100  1
  Li  Li8  1  0.49893700  0.50221900  0.50008100  1
  Li  Li9  1  0.49657300  0.60668800  0.75310800  1
  Li  Li10  1  0.71204200  0.80374500  0.45068400  1
  Li  Li11  1  0.71681000  0.18993300  0.94634900  1
  Mn  Mn0  1  0.21192900  0.49697800  0.64703600  1
  Mn  Mn1  1  0.28720800  0.00665100  0.85695500  1
  Mn  Mn2  1  0.78932700  0.50153600  0.35280100  1
  Mn  Mn3  1  0.78908500  0.49836800  0.85471100  1
  V  V0  1  0.21365900  0.49983200  0.14380100  1
  V  V1  1  0.28510400  0.99612300  0.35780600  1
  V  V2  1  0.71621900  0.99972800  0.14092300  1
  V  V3  1  0.71624400  0.00237500  0.64193000  1
  P  P0  1  0.00083000  0.79732400  0.25058100  1
  P  P1  1  0.00245800  0.19705100  0.74909700  1
  P  P2  1  0.15560900  0.35532300  0.39346000  1
  P  P3  1  0.15547000  0.64453900  0.89563500  1
  P  P4  1  0.34594600  0.14669200  0.10410900  1
  P  P5  1  0.34737600  0.85122700  0.60258500  1
  P  P6  1  0.50318400  0.70622100  0.24902300  1
  P  P7  1  0.50113400  0.29589200  0.74964900  1
  P  P8  1  0.65366300  0.14665800  0.39587000  1
  P  P9  1  0.64422300  0.85666400  0.89800900  1
  P  P10  1  0.83940400  0.35635300  0.10246700  1
  P  P11  1  0.84600000  0.64284100  0.60855600  1
  O  O0  1  0.00702500  0.41751600  0.10672200  1
  O  O1  1  0.01614400  0.58170800  0.60691000  1
  O  O2  1  0.06897000  0.90713900  0.33488400  1
  O  O3  1  0.07738300  0.08769600  0.83516400  1
  O  O4  1  0.12651400  0.70184200  0.19131800  1
  O  O5  1  0.12772800  0.29118600  0.68585100  1
  O  O6  1  0.13923300  0.17824000  0.40637200  1
  O  O7  1  0.13775800  0.82083000  0.90799300  1
  O  O8  1  0.24721600  0.40302000  0.28936900  1
  O  O9  1  0.24495100  0.05827000  0.02414900  1
  O  O10  1  0.25703800  0.40504300  0.48791800  1
  O  O11  1  0.25370900  0.59927400  0.79563200  1
  O  O12  1  0.25021900  0.93658600  0.51546300  1
  O  O13  1  0.27496500  0.09933100  0.21566400  1
  O  O14  1  0.25155900  0.59299800  0.99470500  1
  O  O15  1  0.26829300  0.90095800  0.70910100  1
  O  O16  1  0.34190500  0.32121400  0.08801700  1
  O  O17  1  0.34898700  0.67623600  0.58969000  1
  O  O18  1  0.38270000  0.80139200  0.31214700  1
  O  O19  1  0.38366500  0.20195100  0.81766100  1
  O  O20  1  0.43277300  0.59583300  0.16664200  1
  O  O21  1  0.42320600  0.40410000  0.66397800  1
  O  O22  1  0.47623900  0.10377100  0.40863800  1
  O  O23  1  0.46508900  0.90142500  0.91105600  1
  O  O24  1  0.52437100  0.10649600  0.09171000  1
  O  O25  1  0.52518900  0.89540900  0.59151500  1
  O  O26  1  0.57894600  0.60108400  0.33789400  1
  O  O27  1  0.57639100  0.40528100  0.83220800  1
  O  O28  1  0.62016000  0.80514900  0.18491700  1
  O  O29  1  0.61682700  0.19952500  0.68410700  1
  O  O30  1  0.65322300  0.32209800  0.40690200  1
  O  O31  1  0.64097500  0.68411600  0.91384300  1
  O  O32  1  0.72985000  0.09561900  0.28787700  1
  O  O33  1  0.74421500  0.40975600  0.00223900  1
  O  O34  1  0.71607400  0.90620300  0.78771700  1
  O  O35  1  0.75249500  0.06192500  0.48227900  1
  O  O36  1  0.73848600  0.40010400  0.20153300  1
  O  O37  1  0.74343300  0.59173400  0.51543600  1
  O  O38  1  0.74497300  0.94367400  0.98010000  1
  O  O39  1  0.75547800  0.59724000  0.71437800  1
  O  O40  1  0.85582900  0.18013900  0.08805900  1
  O  O41  1  0.86152200  0.81942800  0.59575300  1
  O  O42  1  0.87245400  0.70614600  0.31385400  1
  O  O43  1  0.87527900  0.28286000  0.81243000  1
  O  O44  1  0.93276000  0.90766600  0.16372900  1
  O  O45  1  0.93536800  0.08580700  0.66507000  1
  O  O46  1  0.98517100  0.41604600  0.39489400  1
  O  O47  1  0.98603100  0.58274400  0.89441500  1
loop_
_geom_bond_atom_site_label_1
_geom_bond_atom_site_label_2
_geom_bond_distance
_geom_bond_site_symmetry_2
Li0 O9 2.129112 1_565
Li0 O44 2.240892 1_455
Li0 O7 2.241896 1_554
Li0 O38 2.257300 1_454
Li0 O3 2.265142 1_564
Li0 O40 2.297860 1_465
Li1 O2 2.101162 1_545
Li1 O44 2.146025 1_445
Li1 O32 2.309785 1_455
Li1 O13 2.339477 1_555
Li1 O6 2.397058 1_555
Li1 O40 2.489521 1_455
Li2 O12 2.179528 1_555
Li2 O35 2.184093 1_465
Li2 O6 2.251475 1_565
Li2 O45 2.253452 1_465
Li2 O41 2.280640 1_455
Li2 O2 2.287071 1_555
Li3 O45 2.105254 1_465
Li3 O3 2.130443 1_565
Li3 O15 2.176772 1_555
Li3 O7 2.355249 1_555
Li3 O41 2.426830 1_455
Li3 O34 2.548149 1_455
Li4 O14 2.082375 1_554
Li4 O7 2.169686 1_554
Li4 O9 2.209726 1_565
Li4 O23 2.339024 1_554
Li4 O4 2.426596 1_555
Li5 O10 2.037426 1_555
Li5 O6 2.204685 1_555
Li5 O5 2.318823 1_555
Li5 O12 2.322175 1_545
Li5 O22 2.462202 1_555
Li6 O31 2.183420 1_554
Li6 O33 2.196376 1_555
Li6 O14 2.259673 1_554
Li6 O20 2.286227 1_555
Li6 O27 2.360806 1_554
Li6 O16 2.380138 1_555
Li7 O36 2.056680 1_555
Li7 O20 2.124265 1_555
Li7 O8 2.192175 1_555
Li7 O26 2.212848 1_555
Li7 O30 2.433206 1_555
Li7 O16 2.587103 1_555
Li8 O37 2.221718 1_555
Li8 O10 2.222312 1_555
Li8 O17 2.271273 1_555
Li8 O26 2.274138 1_555
Li8 O21 2.281101 1_555
Li8 O30 2.349353 1_555
Li9 O11 2.096413 1_555
Li9 O27 2.139617 1_555
Li9 O39 2.218842 1_555
Li9 O21 2.220468 1_555
Li9 O31 2.484465 1_555
Li9 O17 2.490981 1_555
Li10 O37 2.048774 1_555
Li10 O41 2.244364 1_555
Li10 O42 2.317429 1_555
Li10 O35 2.347865 1_565
Li10 O25 2.464674 1_555
Li10 O26 2.574573 1_555
Li11 O33 2.088964 1_556
Li11 O40 2.152841 1_556
Li11 O38 2.223443 1_545
Li11 O43 2.250089 1_555
Li11 O24 2.495915 1_556
Mn0 O1 1.888451 1_555
Mn0 O21 1.973799 1_555
Mn0 O5 1.999609 1_555
Mn0 O17 2.066468 1_555
Mn0 O11 2.114793 1_555
Mn0 O10 2.177902 1_555
Mn1 O23 1.898661 1_545
Mn1 O3 1.930834 1_555
Mn1 O19 1.957201 1_555
Mn1 O15 2.090958 1_545
Mn1 O7 2.146545 1_545
Mn1 O9 2.160026 1_556
Mn2 O46 1.898719 1_555
Mn2 O42 1.987365 1_555
Mn2 O26 1.988981 1_555
Mn2 O30 2.050810 1_555
Mn2 O36 2.157264 1_555
Mn2 O37 2.213135 1_555
Mn3 O47 1.902678 1_555
Mn3 O39 1.973515 1_555
Mn3 O27 2.001839 1_555
Mn3 O33 2.014026 1_556
Mn3 O43 2.104599 1_555
Mn3 O31 2.181761 1_555
O0 P10 1.514950 1_455
O0 V0 1.958874 1_555
O1 P11 1.529546 1_455
O2 P0 1.564955 1_555
O2 V1 2.014298 1_555
O3 P1 1.579728 1_555
O4 P0 1.530328 1_555
O4 V0 2.018128 1_555
O5 P1 1.534850 1_555
O6 P2 1.576132 1_555
O6 V1 2.106363 1_545
O7 P3 1.573648 1_555
O8 P2 1.542188 1_555
O8 V0 2.023991 1_555
O9 P4 1.552479 1_555
O10 P2 1.547343 1_555
O11 P3 1.531952 1_555
O12 P5 1.565535 1_555
O12 V1 2.040658 1_555
O13 P4 1.548724 1_555
O13 V1 1.986296 1_545
O14 P3 1.561157 1_555
O14 V0 2.038695 1_556
O15 P5 1.536546 1_555
O16 P4 1.552281 1_555
O16 V0 2.029118 1_555
O17 P5 1.556670 1_555
O18 P6 1.523264 1_555
O18 V1 1.988076 1_555
O19 P7 1.521175 1_555
O20 P6 1.559259 1_555
O20 V0 2.061901 1_555
O21 P7 1.581133 1_555
O22 P8 1.544350 1_555
O22 V1 1.996790 1_545
O23 P9 1.562353 1_555
O24 P4 1.546274 1_555
O24 V2 1.979276 1_545
O25 P5 1.549071 1_555
O25 V3 1.991514 1_565
O26 P6 1.585083 1_555
O27 P7 1.572110 1_555
O28 P6 1.517959 1_555
O28 V2 1.964239 1_555
O29 P7 1.519114 1_555
O29 V3 2.000996 1_555
O30 P8 1.558044 1_555
O31 P9 1.534348 1_555
O32 P8 1.546216 1_555
O32 V2 2.038051 1_545
O33 P10 1.573367 1_555
O34 P9 1.542602 1_555
O34 V3 1.996079 1_565
O35 P8 1.564440 1_555
O35 V3 2.065778 1_555
O36 P10 1.530789 1_555
O37 P11 1.543576 1_555
O38 P9 1.562900 1_555
O38 V2 2.080367 1_556
O39 P11 1.551043 1_555
O40 P10 1.575059 1_555
O40 V2 2.069235 1_545
O41 P11 1.571070 1_555
O41 V3 2.101003 1_565
O42 P0 1.539019 1_655
O43 P1 1.518193 1_655
O44 P0 1.568452 1_655
O44 V2 2.021773 1_555
O45 P1 1.567161 1_655
O45 V3 2.019076 1_555
O46 P2 1.530629 1_655
O47 P3 1.529034 1_655
