# generated using pymatgen
data_MgCoO3
_symmetry_space_group_name_H-M   'P 1'
_cell_length_a   3.65788348
_cell_length_b   3.65787367
_cell_length_c   3.65787544
_cell_angle_alpha   90.00000000
_cell_angle_beta   90.00000000
_cell_angle_gamma   90.00000000
_symmetry_Int_Tables_number   1
_chemical_formula_structural   MgCoO3
_chemical_formula_sum   'Mg1 Co1 O3'
_cell_volume   48.94265018
_cell_formula_units_Z   1
loop_
 _symmetry_equiv_pos_site_id
 _symmetry_equiv_pos_as_xyz
  1  'x, y, z'
loop_
 _atom_site_type_symbol
 _atom_site_label
 _atom_site_symmetry_multiplicity
 _atom_site_fract_x
 _atom_site_fract_y
 _atom_site_fract_z
 _atom_site_occupancy
  Mg  Mg0  1  0.50000000  0.50000000  0.50000000  1
  Co  Co0  1  0.00000000  -0.00000000  -0.00000000  1
  O  O0  1  0.50000000  -0.00000000  -0.00000000  1
  O  O1  1  0.00000000  0.50000000  -0.00000000  1
  O  O2  1  -0.00000000  0.00000000  0.50000000  1
loop_
_geom_bond_atom_site_label_1
_geom_bond_atom_site_label_2
_geom_bond_distance
_geom_bond_site_symmetry_2
Mg0 O0 2.586508 1_556
Mg0 O0 2.586508 1_566
Mg0 O0 2.586508 1_555
Mg0 O0 2.586508 1_565
Mg0 O2 2.586511 1_555
Mg0 O2 2.586511 1_655
Mg0 O2 2.586511 1_665
Mg0 O2 2.586511 1_565
Mg0 O1 2.586511 1_656
Mg0 O1 2.586511 1_655
Mg0 O1 2.586511 1_555
Mg0 O1 2.586511 1_556
Co0 O1 1.828937 1_555
Co0 O1 1.828937 1_545
Co0 O2 1.828938 1_555
Co0 O2 1.828938 1_554
Co0 O0 1.828942 1_455
Co0 O0 1.828942 1_555
