# generated using pymatgen
data_RbMg14Sb
_symmetry_space_group_name_H-M   'P 1'
_cell_length_a   6.60726235
_cell_length_b   6.62287707
_cell_length_c   10.61658238
_cell_angle_alpha   90.00000000
_cell_angle_beta   90.00000000
_cell_angle_gamma   120.07821282
_symmetry_Int_Tables_number   1
_chemical_formula_structural   RbMg14Sb
_chemical_formula_sum   'Rb1 Mg14 Sb1'
_cell_volume   402.01364389
_cell_formula_units_Z   1
loop_
 _symmetry_equiv_pos_site_id
 _symmetry_equiv_pos_as_xyz
  1  'x, y, z'
loop_
 _atom_site_type_symbol
 _atom_site_label
 _atom_site_symmetry_multiplicity
 _atom_site_fract_x
 _atom_site_fract_y
 _atom_site_fract_z
 _atom_site_occupancy
  Rb  Rb0  1  0.16872932  0.33436416  0.12500000  1
  Mg  Mg0  1  0.16685005  0.33342452  0.62500000  1
  Mg  Mg1  1  0.16351216  0.83175558  0.62500000  1
  Mg  Mg2  1  0.66507543  0.32508281  0.12500000  1
  Mg  Mg3  1  0.66830994  0.33697344  0.62500000  1
  Mg  Mg4  1  0.66507543  0.83999161  0.12500000  1
  Mg  Mg5  1  0.66830994  0.83133550  0.62500000  1
  Mg  Mg6  1  0.33913652  0.16049209  0.39041239  1
  Mg  Mg7  1  0.33913652  0.16049209  0.85958761  1
  Mg  Mg8  1  0.33913652  0.67864543  0.39041239  1
  Mg  Mg9  1  0.33913652  0.67864543  0.85958761  1
  Mg  Mg10  1  0.81908789  0.15954444  0.39210135  1
  Mg  Mg11  1  0.81908789  0.15954444  0.85789865  1
  Mg  Mg12  1  0.82994692  0.66497396  0.37187769  1
  Mg  Mg13  1  0.82994692  0.66497396  0.87812231  1
  Sb  Sb0  1  0.17952204  0.83976052  0.12500000  1
loop_
_geom_bond_atom_site_label_1
_geom_bond_atom_site_label_2
_geom_bond_distance
_geom_bond_site_symmetry_2
Rb0 Sb0 3.312013 1_555
Rb0 Sb0 3.312013 1_545
Mg0 Mg11 3.172886 1_455
Mg0 Mg10 3.172886 1_455
Mg0 Mg6 3.180735 1_555
Mg0 Mg7 3.180735 1_555
Mg0 Mg8 3.180742 1_555
Mg0 Mg9 3.180742 1_555
Mg0 Mg5 3.301560 1_555
Mg0 Mg3 3.301560 1_555
Mg0 Mg5 3.305827 1_445
Mg0 Mg3 3.305828 1_455
Mg0 Mg1 3.311493 1_545
Mg0 Mg1 3.311494 1_555
Mg1 Mg9 3.123606 1_555
Mg1 Mg8 3.123606 1_555
Mg1 Mg6 3.123613 1_565
Mg1 Mg7 3.123613 1_565
Mg1 Mg3 3.270537 1_455
Mg1 Mg5 3.270538 1_455
Mg1 Mg12 3.295278 1_455
Mg1 Mg13 3.295278 1_455
Mg1 Mg3 3.336726 1_565
Mg1 Mg5 3.336727 1_555
Mg2 Sb0 3.207412 1_545
Mg2 Mg4 3.212699 1_545
Mg2 Rb0 3.297395 1_655
Mg2 Rb0 3.310724 1_555
Mg2 Mg7 3.378291 1_554
Mg2 Mg6 3.378291 1_555
Mg2 Sb0 3.399851 1_655
Mg2 Mg4 3.410178 1_555
Mg3 Mg6 3.122667 1_555
Mg3 Mg7 3.122667 1_555
Mg3 Mg5 3.274099 1_555
Mg3 Mg5 3.348778 1_545
Mg4 Sb0 3.207412 1_555
Mg4 Rb0 3.297395 1_665
Mg4 Rb0 3.310723 1_555
Mg4 Mg9 3.378291 1_554
Mg4 Mg8 3.378291 1_555
Mg4 Sb0 3.399851 1_655
Mg5 Mg8 3.122667 1_555
Mg5 Mg9 3.122667 1_555
Mg6 Mg8 3.191211 1_545
Mg6 Sb0 3.364322 1_545
Mg6 Mg8 3.431666 1_555
Mg6 Rb0 3.439939 1_555
Mg7 Mg9 3.191211 1_545
Mg7 Sb0 3.364322 1_546
Mg7 Mg9 3.431666 1_555
Mg7 Rb0 3.439939 1_556
Mg8 Sb0 3.364316 1_555
Mg8 Rb0 3.439946 1_555
Mg9 Sb0 3.364316 1_556
Mg9 Rb0 3.439946 1_556
Mg10 Mg3 3.108123 1_555
Mg10 Mg5 3.108130 1_545
Mg10 Mg8 3.174365 1_545
Mg10 Mg6 3.174365 1_555
Mg10 Mg12 3.318973 1_545
Mg10 Mg12 3.318973 1_555
Mg10 Mg2 3.375939 1_555
Mg10 Mg4 3.375945 1_545
Mg10 Mg8 3.433003 1_655
Mg10 Mg6 3.433003 1_655
Mg10 Rb0 3.469521 1_655
Mg11 Mg3 3.108123 1_555
Mg11 Mg5 3.108130 1_545
Mg11 Mg9 3.174365 1_545
Mg11 Mg7 3.174365 1_555
Mg11 Mg13 3.318973 1_545
Mg11 Mg13 3.318973 1_555
Mg11 Mg2 3.375939 1_556
Mg11 Mg4 3.375945 1_546
Mg11 Mg9 3.433003 1_655
Mg11 Mg7 3.433003 1_655
Mg11 Rb0 3.469521 1_656
Mg12 Mg4 3.265814 1_555
Mg12 Mg2 3.265821 1_555
Mg12 Mg5 3.279564 1_555
Mg12 Mg3 3.279571 1_555
Mg12 Mg6 3.295106 1_555
Mg12 Mg8 3.295106 1_555
Mg12 Sb0 3.296130 1_655
Mg12 Mg6 3.325721 1_665
Mg12 Mg8 3.325721 1_655
Mg13 Mg4 3.265814 1_556
Mg13 Mg2 3.265821 1_556
Mg13 Mg5 3.279564 1_555
Mg13 Mg3 3.279571 1_555
Mg13 Mg7 3.295106 1_555
Mg13 Mg9 3.295106 1_555
Mg13 Sb0 3.296130 1_656
Mg13 Mg7 3.325721 1_665
Mg13 Mg9 3.325721 1_655
