# generated using pymatgen
data_Nd4Ti3Fe25B2
_symmetry_space_group_name_H-M   'P 1'
_cell_length_a   8.82636639
_cell_length_b   8.82636639
_cell_length_c   12.29588300
_cell_angle_alpha   90.00000000
_cell_angle_beta   90.00000000
_cell_angle_gamma   89.80799626
_symmetry_Int_Tables_number   1
_chemical_formula_structural   Nd4Ti3Fe25B2
_chemical_formula_sum   'Nd8 Ti6 Fe50 B4'
_cell_volume   957.90223446
_cell_formula_units_Z   2
loop_
 _symmetry_equiv_pos_site_id
 _symmetry_equiv_pos_as_xyz
  1  'x, y, z'
loop_
 _atom_site_type_symbol
 _atom_site_label
 _atom_site_symmetry_multiplicity
 _atom_site_fract_x
 _atom_site_fract_y
 _atom_site_fract_z
 _atom_site_occupancy
  Nd  Nd0  1  0.23914000  0.76086000  0.50114100  1
  Nd  Nd1  1  0.76086000  0.23914000  0.50114100  1
  Nd  Nd2  1  0.26025800  0.26025800  0.99409900  1
  Nd  Nd3  1  0.73974200  0.73974200  0.99409900  1
  Nd  Nd4  1  0.64074500  0.64074500  0.50647000  1
  Nd  Nd5  1  0.35925500  0.35925500  0.50647000  1
  Nd  Nd6  1  0.85966800  0.14033200  0.99932500  1
  Nd  Nd7  1  0.14033200  0.85966800  0.99932500  1
  Ti  Ti0  1  0.68982500  0.68982500  0.24994900  1
  Ti  Ti1  1  0.31017500  0.31017500  0.24994900  1
  Ti  Ti2  1  0.50000000  0.50000000  0.11879600  1
  Ti  Ti3  1  0.00000000  0.00000000  0.62597900  1
  Ti  Ti4  1  0.50000000  0.50000000  0.87355600  1
  Ti  Ti5  1  0.00000000  0.00000000  0.37522400  1
  Fe  Fe0  1  0.39799400  0.60200600  0.29434300  1
  Fe  Fe1  1  0.60200600  0.39799400  0.29434300  1
  Fe  Fe2  1  0.10559300  0.10559300  0.79647000  1
  Fe  Fe3  1  0.89440700  0.89440700  0.79647000  1
  Fe  Fe4  1  0.60240400  0.39759600  0.70064800  1
  Fe  Fe5  1  0.39759600  0.60240400  0.70064800  1
  Fe  Fe6  1  0.90033400  0.90033400  0.20161900  1
  Fe  Fe7  1  0.09966600  0.09966600  0.20161900  1
  Fe  Fe8  1  0.13812900  0.53862900  0.32413500  1
  Fe  Fe9  1  0.86187100  0.46137100  0.32413500  1
  Fe  Fe10  1  0.36381100  0.03662000  0.82017200  1
  Fe  Fe11  1  0.63618900  0.96338000  0.82017200  1
  Fe  Fe12  1  0.86367700  0.46533000  0.68122800  1
  Fe  Fe13  1  0.13632300  0.53467000  0.68122800  1
  Fe  Fe14  1  0.63893700  0.96538200  0.17609600  1
  Fe  Fe15  1  0.36106300  0.03461800  0.17609600  1
  Fe  Fe16  1  0.53862900  0.13812900  0.32413500  1
  Fe  Fe17  1  0.46137100  0.86187100  0.32413500  1
  Fe  Fe18  1  0.03662000  0.36381100  0.82017200  1
  Fe  Fe19  1  0.96338000  0.63618900  0.82017200  1
  Fe  Fe20  1  0.46533000  0.86367700  0.68122800  1
  Fe  Fe21  1  0.53467000  0.13632300  0.68122800  1
  Fe  Fe22  1  0.96538200  0.63893700  0.17609600  1
  Fe  Fe23  1  0.03461800  0.36106300  0.17609600  1
  Fe  Fe24  1  0.93422600  0.72028900  0.37632100  1
  Fe  Fe25  1  0.06577400  0.27971100  0.37632100  1
  Fe  Fe26  1  0.56914500  0.21990600  0.87237600  1
  Fe  Fe27  1  0.43085500  0.78009400  0.87237600  1
  Fe  Fe28  1  0.06516100  0.27981200  0.62674600  1
  Fe  Fe29  1  0.93483900  0.72018800  0.62674600  1
  Fe  Fe30  1  0.43278200  0.77860300  0.12612200  1
  Fe  Fe31  1  0.56721800  0.22139700  0.12612200  1
  Fe  Fe32  1  0.72028900  0.93422600  0.37632100  1
  Fe  Fe33  1  0.27971100  0.06577400  0.37632100  1
  Fe  Fe34  1  0.21990600  0.56914500  0.87237600  1
  Fe  Fe35  1  0.78009400  0.43085500  0.87237600  1
  Fe  Fe36  1  0.27981200  0.06516100  0.62674600  1
  Fe  Fe37  1  0.72018800  0.93483900  0.62674600  1
  Fe  Fe38  1  0.77860300  0.43278200  0.12612200  1
  Fe  Fe39  1  0.22139700  0.56721800  0.12612200  1
  Fe  Fe40  1  0.00000000  0.50000000  0.50263200  1
  Fe  Fe41  1  0.50000000  0.00000000  0.99735900  1
  Fe  Fe42  1  0.50000000  0.00000000  0.50263200  1
  Fe  Fe43  1  0.00000000  0.50000000  0.99735900  1
  Fe  Fe44  1  0.18518900  0.81481100  0.25236800  1
  Fe  Fe45  1  0.81481100  0.18518900  0.25236800  1
  Fe  Fe46  1  0.31811700  0.31811700  0.75401500  1
  Fe  Fe47  1  0.68188300  0.68188300  0.75401500  1
  Fe  Fe48  1  0.81269500  0.18730500  0.74799600  1
  Fe  Fe49  1  0.18730500  0.81269500  0.74799600  1
  B  B0  1  0.86180200  0.86180200  0.50121500  1
  B  B1  1  0.13819800  0.13819800  0.50121500  1
  B  B2  1  0.64077000  0.35923000  0.99717800  1
  B  B3  1  0.35923000  0.64077000  0.99717800  1
loop_
_geom_bond_atom_site_label_1
_geom_bond_atom_site_label_2
_geom_bond_distance
_geom_bond_site_symmetry_2
Nd2 Ti1 3.207215 1_556
Nd2 Ti4 3.343982 1_555
Nd2 Ti2 3.366933 1_556
Nd3 Ti0 3.207215 1_556
Nd3 Ti4 3.343982 1_555
Nd3 Ti2 3.366933 1_556
Nd4 Ti0 3.213293 1_555
Nd5 Ti1 3.213293 1_555
Ti0 Ti2 2.869459 1_555
Ti1 Ti2 2.869459 1_555
Fe0 Fe17 2.390941 1_555
Fe0 Fe8 2.390941 1_555
Fe0 Ti2 2.504984 1_555
Fe0 Fe1 2.542282 1_555
Fe0 Fe30 2.608726 1_555
Fe0 Fe39 2.608726 1_555
Fe0 Fe44 2.701614 1_555
Fe0 Ti0 2.747171 1_555
Fe0 Ti1 2.747171 1_555
Fe0 Nd0 3.222462 1_555
Fe0 Nd4 3.393489 1_555
Fe0 Nd5 3.393489 1_555
Fe1 Fe16 2.390941 1_555
Fe1 Fe9 2.390941 1_555
Fe1 Ti2 2.504984 1_555
Fe1 Fe31 2.608726 1_555
Fe1 Fe38 2.608726 1_555
Fe1 Fe45 2.701614 1_555
Fe1 Ti0 2.747171 1_555
Fe1 Ti1 2.747171 1_555
Fe1 Nd1 3.222462 1_555
Fe1 Nd4 3.393489 1_555
Fe1 Nd5 3.393489 1_555
Fe2 Ti3 2.477440 1_555
Fe2 Fe28 2.615997 1_555
Fe2 Fe36 2.615997 1_555
Fe2 Fe3 2.640514 1_445
Fe2 Fe46 2.708035 1_555
Fe2 Fe48 2.747054 1_455
Fe2 Fe49 2.747054 1_545
Fe2 Nd2 3.105586 1_555
Fe2 Nd7 3.320031 1_545
Fe2 Nd6 3.320031 1_455
Fe3 Ti3 2.477440 1_665
Fe3 Fe37 2.615997 1_555
Fe3 Fe47 2.708035 1_555
Fe3 Fe49 2.747054 1_655
Fe3 Fe48 2.747054 1_565
Fe3 Nd3 3.105586 1_555
Fe3 Nd7 3.320031 1_655
Fe3 Nd6 3.320031 1_565
Fe4 Ti4 2.479627 1_555
Fe4 Fe5 2.552202 1_555
Fe4 Fe48 2.684419 1_555
Fe4 Fe47 2.688996 1_555
Fe4 Fe46 2.688996 1_555
Fe4 Nd1 3.149091 1_555
Fe4 Nd4 3.228903 1_555
Fe4 Nd5 3.228903 1_555
Fe5 Ti4 2.479627 1_555
Fe5 Nd0 3.149091 1_555
Fe5 Nd4 3.228903 1_555
Fe5 Nd5 3.228903 1_555
Fe6 Ti5 2.471745 1_665
Fe6 Fe7 2.492301 1_665
Fe6 Ti0 2.698301 1_555
Fe6 Nd3 3.246942 1_554
Fe6 Nd6 3.286039 1_564
Fe6 Nd7 3.286039 1_654
Fe7 Ti5 2.471745 1_555
Fe7 Ti1 2.698301 1_555
Fe7 Nd2 3.246942 1_554
Fe7 Nd6 3.286039 1_454
Fe7 Nd7 3.286039 1_544
Fe8 Fe9 2.534110 1_455
Fe8 Ti1 2.680199 1_555
Fe8 Nd0 3.064468 1_555
Fe8 Nd5 3.364757 1_555
Fe9 Ti0 2.680199 1_555
Fe9 Nd1 3.064468 1_555
Fe9 Nd4 3.364757 1_555
Fe10 Fe2 2.375009 1_555
Fe10 Fe27 2.424828 1_545
Fe10 Fe21 2.444656 1_555
Fe10 Fe20 2.458163 1_545
Fe10 Fe11 2.487410 1_545
Fe10 Fe36 2.503679 1_555
Fe10 Fe41 2.508667 1_555
Fe10 Fe26 2.516628 1_555
Fe10 Fe46 2.644026 1_555
Fe10 Fe49 2.672385 1_545
Fe10 Nd2 3.048471 1_555
Fe10 Nd7 3.347135 1_545
Fe11 Fe3 2.375009 1_555
Fe11 Fe26 2.424828 1_565
Fe11 Fe20 2.444656 1_555
Fe11 Fe21 2.458163 1_565
Fe11 Fe37 2.503679 1_555
Fe11 Fe41 2.508667 1_565
Fe11 Fe27 2.516628 1_555
Fe11 Fe47 2.644026 1_555
Fe11 Fe48 2.672385 1_565
Fe11 Nd3 3.048471 1_555
Fe11 Nd6 3.347135 1_565
Fe12 Fe4 2.396192 1_555
Fe12 Fe29 2.431639 1_555
Fe12 Fe19 2.444656 1_555
Fe12 Fe18 2.458163 1_655
Fe12 Fe35 2.482421 1_555
Fe12 Fe13 2.485066 1_655
Fe12 Fe28 2.504616 1_655
Fe12 Fe40 2.523150 1_655
Fe12 Fe48 2.627880 1_555
Fe12 Fe47 2.647352 1_555
Fe12 Nd1 3.118446 1_555
Fe12 Nd4 3.296341 1_555
Fe13 Fe5 2.396192 1_555
Fe13 Fe28 2.431639 1_555
Fe13 Fe18 2.444656 1_555
Fe13 Fe19 2.458163 1_455
Fe13 Fe34 2.482421 1_555
Fe13 Fe29 2.504616 1_455
Fe13 Fe40 2.523150 1_555
Fe13 Fe49 2.627880 1_555
Fe13 Fe46 2.647352 1_555
Fe13 Nd0 3.118446 1_555
Fe13 Nd5 3.296341 1_555
Fe14 Fe6 2.396320 1_555
Fe14 Fe31 2.423813 1_565
Fe14 Fe15 2.525616 1_565
Fe14 Fe16 2.532387 1_565
Fe14 Fe41 2.534699 1_564
Fe14 Fe30 2.535043 1_555
Fe14 Fe17 2.571771 1_555
Fe14 Fe32 2.578963 1_555
Fe14 Ti0 2.633340 1_555
Fe14 Fe45 2.659589 1_565
Fe14 Nd3 3.123135 1_554
Fe14 Nd6 3.305248 1_564
Fe15 Fe7 2.396320 1_555
Fe15 Fe30 2.423813 1_545
Fe15 Fe17 2.532387 1_545
Fe15 Fe41 2.534699 1_554
Fe15 Fe31 2.535043 1_555
Fe15 Fe16 2.571771 1_555
Fe15 Fe33 2.578963 1_555
Fe15 Ti1 2.633340 1_555
Fe15 Fe44 2.659589 1_545
Fe15 Nd2 3.123135 1_554
Fe15 Nd7 3.305248 1_544
Fe16 Fe33 2.460080 1_555
Fe16 Fe32 2.490440 1_545
Fe16 Fe17 2.534110 1_545
Fe16 Fe42 2.534261 1_555
Fe16 Fe31 2.555984 1_555
Fe16 Fe45 2.626845 1_555
Fe16 Ti1 2.680199 1_555
Fe16 Nd1 3.064468 1_555
Fe16 Nd5 3.364757 1_555
Fe17 Fe32 2.460080 1_555
Fe17 Fe33 2.490440 1_565
Fe17 Fe42 2.534261 1_565
Fe17 Fe30 2.555984 1_555
Fe17 Fe44 2.626845 1_555
Fe17 Ti0 2.680199 1_555
Fe17 Nd0 3.064468 1_555
Fe17 Nd4 3.364757 1_555
Fe18 Fe2 2.375009 1_555
Fe18 Fe35 2.424828 1_455
Fe18 Fe19 2.487410 1_455
Fe18 Fe28 2.503679 1_555
Fe18 Fe43 2.508667 1_555
Fe18 Fe34 2.516628 1_555
Fe18 Fe46 2.644026 1_555
Fe18 Fe48 2.672385 1_455
Fe18 Nd2 3.048471 1_555
Fe18 Nd6 3.347135 1_455
Fe19 Fe3 2.375009 1_555
Fe19 Fe34 2.424828 1_655
Fe19 Fe29 2.503679 1_555
Fe19 Fe43 2.508667 1_655
Fe19 Fe35 2.516628 1_555
Fe19 Fe47 2.644026 1_555
Fe19 Fe49 2.672385 1_655
Fe19 Nd3 3.048471 1_555
Fe19 Nd7 3.347135 1_655
Fe20 Fe5 2.396192 1_555
Fe20 Fe37 2.431639 1_555
Fe20 Fe27 2.482421 1_555
Fe20 Fe21 2.485066 1_565
Fe20 Fe36 2.504616 1_565
Fe20 Fe42 2.523150 1_565
Fe20 Fe49 2.627880 1_555
Fe20 Fe47 2.647352 1_555
Fe20 Nd0 3.118446 1_555
Fe20 Nd4 3.296341 1_555
Fe21 Fe4 2.396192 1_555
Fe21 Fe36 2.431639 1_555
Fe21 Fe26 2.482421 1_555
Fe21 Fe37 2.504616 1_545
Fe21 Fe42 2.523150 1_555
Fe21 Fe48 2.627880 1_555
Fe21 Fe46 2.647352 1_555
Fe21 Nd1 3.118446 1_555
Fe21 Nd5 3.296341 1_555
Fe22 Fe6 2.396320 1_555
Fe22 Fe39 2.423813 1_655
Fe22 Fe23 2.525616 1_655
Fe22 Fe8 2.532387 1_655
Fe22 Fe43 2.534699 1_654
Fe22 Fe38 2.535043 1_555
Fe22 Fe9 2.571771 1_555
Fe22 Fe24 2.578963 1_555
Fe22 Ti0 2.633340 1_555
Fe22 Fe44 2.659589 1_655
Fe22 Nd3 3.123135 1_554
Fe22 Nd7 3.305248 1_654
Fe23 Fe7 2.396320 1_555
Fe23 Fe38 2.423813 1_455
Fe23 Fe9 2.532387 1_455
Fe23 Fe43 2.534699 1_554
Fe23 Fe39 2.535043 1_555
Fe23 Fe8 2.571771 1_555
Fe23 Fe25 2.578963 1_555
Fe23 Ti1 2.633340 1_555
Fe23 Fe45 2.659589 1_455
Fe23 Nd2 3.123135 1_554
Fe23 Nd6 3.305248 1_454
Fe24 Fe9 2.460080 1_555
Fe24 Fe8 2.490440 1_655
Fe24 Ti5 2.538100 1_665
Fe24 Fe40 2.553841 1_655
Fe24 Ti0 2.672835 1_555
Fe24 Fe6 2.688136 1_555
Fe24 Fe44 2.817439 1_655
Fe24 Nd0 3.119811 1_655
Fe25 Fe8 2.460080 1_555
Fe25 Fe9 2.490440 1_455
Fe25 Ti5 2.538100 1_555
Fe25 Fe40 2.553841 1_555
Fe25 Ti1 2.672835 1_555
Fe25 Fe7 2.688136 1_555
Fe25 Fe45 2.817439 1_455
Fe25 Nd1 3.119811 1_455
Fe26 Ti4 2.544484 1_555
Fe26 Fe41 2.551363 1_555
Fe26 Fe4 2.647194 1_555
Fe26 Fe48 2.653045 1_555
Fe26 Fe46 2.786714 1_555
Fe26 Nd2 3.129443 1_555
Fe27 Ti4 2.544484 1_555
Fe27 Fe41 2.551363 1_565
Fe27 Fe5 2.647194 1_555
Fe27 Fe49 2.653045 1_555
Fe27 Fe47 2.786714 1_555
Fe27 Nd3 3.129443 1_555
Fe28 Fe40 2.535602 1_555
Fe28 Ti3 2.537700 1_555
Fe28 Fe46 2.748291 1_555
Fe28 Fe48 2.804845 1_455
Fe28 Nd1 3.120014 1_455
Fe29 Fe40 2.535602 1_655
Fe29 Ti3 2.537700 1_665
Fe29 Fe3 2.615997 1_555
Fe29 Fe47 2.748291 1_555
Fe29 Fe49 2.804845 1_655
Fe29 Nd0 3.120014 1_655
Fe30 Ti2 2.529282 1_555
Fe30 Fe41 2.585554 1_564
Fe30 Fe44 2.698675 1_555
Fe30 Ti0 2.840342 1_555
Fe30 Nd3 3.176033 1_554
Fe31 Ti2 2.529282 1_555
Fe31 Fe41 2.585554 1_554
Fe31 Fe45 2.698675 1_555
Fe31 Ti1 2.840342 1_555
Fe31 Nd2 3.176033 1_554
Fe32 Ti5 2.538100 1_665
Fe32 Fe42 2.553841 1_565
Fe32 Ti0 2.672835 1_555
Fe32 Fe6 2.688136 1_555
Fe32 Fe45 2.817439 1_565
Fe32 Nd1 3.119811 1_565
Fe33 Ti5 2.538100 1_555
Fe33 Fe42 2.553841 1_555
Fe33 Ti1 2.672835 1_555
Fe33 Fe7 2.688136 1_555
Fe33 Fe44 2.817439 1_545
Fe33 Nd0 3.119811 1_545
Fe34 Ti4 2.544484 1_555
Fe34 Fe43 2.551363 1_555
Fe34 Fe5 2.647194 1_555
Fe34 Fe49 2.653045 1_555
Fe34 Fe46 2.786714 1_555
Fe34 Nd2 3.129443 1_555
Fe35 Ti4 2.544484 1_555
Fe35 Fe43 2.551363 1_655
Fe35 Fe4 2.647194 1_555
Fe35 Fe48 2.653045 1_555
Fe35 Fe47 2.786714 1_555
Fe35 Nd3 3.129443 1_555
Fe36 Fe42 2.535602 1_555
Fe36 Ti3 2.537700 1_555
Fe36 Fe46 2.748291 1_555
Fe36 Fe49 2.804845 1_545
Fe36 Nd0 3.120014 1_545
Fe37 Fe42 2.535602 1_565
Fe37 Ti3 2.537700 1_665
Fe37 Fe47 2.748291 1_555
Fe37 Fe48 2.804845 1_565
Fe37 Nd1 3.120014 1_565
Fe38 Ti2 2.529282 1_555
Fe38 Fe9 2.555984 1_555
Fe38 Fe43 2.585554 1_654
Fe38 Fe45 2.698675 1_555
Fe38 Ti0 2.840342 1_555
Fe38 Nd3 3.176033 1_554
Fe39 Ti2 2.529282 1_555
Fe39 Fe8 2.555984 1_555
Fe39 Fe43 2.585554 1_554
Fe39 Fe44 2.698675 1_555
Fe39 Ti1 2.840342 1_555
Fe39 Nd2 3.176033 1_554
Fe40 Fe8 2.534261 1_555
Fe40 Fe9 2.534261 1_455
Fe40 Nd1 3.128798 1_455
Fe40 Nd0 3.128798 1_555
Fe40 Nd5 3.402023 1_555
Fe40 Nd4 3.402023 1_455
Fe41 Nd2 3.118255 1_555
Fe41 Nd3 3.118255 1_545
Fe41 Nd6 3.411592 1_555
Fe41 Nd7 3.411592 1_545
Fe42 Nd1 3.128798 1_555
Fe42 Nd0 3.128798 1_545
Fe42 Nd4 3.402023 1_545
Fe42 Nd5 3.402023 1_555
Fe43 Nd2 3.118255 1_555
Fe43 Nd3 3.118255 1_455
Fe43 Nd7 3.411592 1_555
Fe43 Nd6 3.411592 1_455
Fe44 Fe8 2.626845 1_555
Fe44 Fe6 2.695894 1_455
Fe44 Fe7 2.695894 1_565
Fe44 Ti5 2.758180 1_565
Fe44 Nd0 3.131895 1_555
Fe44 Nd7 3.161201 1_554
Fe45 Fe9 2.626845 1_555
Fe45 Fe6 2.695894 1_545
Fe45 Fe7 2.695894 1_655
Fe45 Ti5 2.758180 1_655
Fe45 Nd1 3.131895 1_555
Fe45 Nd6 3.161201 1_554
Fe46 Fe5 2.688996 1_555
Fe46 Ti4 2.707798 1_555
Fe46 Nd2 3.039394 1_555
Fe46 Nd5 3.086938 1_555
Fe47 Fe5 2.688996 1_555
Fe47 Ti4 2.707798 1_555
Fe47 Nd3 3.039394 1_555
Fe47 Nd4 3.086938 1_555
Fe48 Ti3 2.774688 1_655
Fe48 Nd1 3.103270 1_555
Fe48 Nd6 3.145261 1_555
Fe49 Fe5 2.684419 1_555
Fe49 Ti3 2.774688 1_565
Fe49 Nd0 3.103270 1_555
Fe49 Nd7 3.145261 1_555
B0 Fe24 2.078873 1_555
B0 Fe32 2.078873 1_555
B0 Fe29 2.086853 1_555
B0 Fe37 2.086853 1_555
B0 Ti3 2.310658 1_665
B0 Ti5 2.320702 1_665
B0 Nd4 2.764689 1_555
B1 Fe33 2.078873 1_555
B1 Fe25 2.078873 1_555
B1 Fe28 2.086853 1_555
B1 Fe36 2.086853 1_555
B1 Ti3 2.310658 1_555
B1 Ti5 2.320702 1_555
B1 Nd5 2.764689 1_555
B2 Fe26 2.066868 1_555
B2 Fe35 2.066868 1_555
B2 Fe31 2.102505 1_556
B2 Fe38 2.102505 1_556
B2 Ti2 2.305087 1_556
B2 Ti4 2.321149 1_555
B2 Nd6 2.727911 1_555
B3 Fe34 2.066868 1_555
B3 Fe27 2.066868 1_555
B3 Fe39 2.102505 1_556
B3 Fe30 2.102505 1_556
B3 Ti2 2.305087 1_556
B3 Ti4 2.321149 1_555
B3 Nd7 2.727911 1_555
