# generated using pymatgen
data_Sn3(HO2)2
_symmetry_space_group_name_H-M   'P 1'
_cell_length_a   7.92374245
_cell_length_b   7.92374245
_cell_length_c   9.08523420
_cell_angle_alpha   89.93844351
_cell_angle_beta   89.93844351
_cell_angle_gamma   90.01045198
_symmetry_Int_Tables_number   1
_chemical_formula_structural   Sn3(HO2)2
_chemical_formula_sum   'Sn12 H8 O16'
_cell_volume   570.42206935
_cell_formula_units_Z   4
loop_
 _symmetry_equiv_pos_site_id
 _symmetry_equiv_pos_as_xyz
  1  'x, y, z'
loop_
 _atom_site_type_symbol
 _atom_site_label
 _atom_site_symmetry_multiplicity
 _atom_site_fract_x
 _atom_site_fract_y
 _atom_site_fract_z
 _atom_site_occupancy
  Sn  Sn0  1  0.19568269  0.11040249  0.50479967  1
  Sn  Sn1  1  0.69572044  0.37128379  0.00168833  1
  Sn  Sn2  1  0.78585734  0.87169348  0.50866799  1
  Sn  Sn3  1  0.28600435  0.61010343  0.99725368  1
  Sn  Sn4  1  0.37128379  0.69572044  0.50168833  1
  Sn  Sn5  1  0.11040249  0.19568269  0.00479967  1
  Sn  Sn6  1  0.61010343  0.28600435  0.49725368  1
  Sn  Sn7  1  0.87169348  0.78585734  0.00866799  1
  Sn  Sn8  1  0.48914533  0.99357382  0.78012767  1
  Sn  Sn9  1  0.98794839  0.49213032  0.72609323  1
  Sn  Sn10  1  0.49213032  0.98794839  0.22609323  1
  Sn  Sn11  1  0.99357382  0.48914533  0.28012767  1
  H  H0  1  0.32737188  0.31644228  0.73710324  1
  H  H1  1  0.82674239  0.16877839  0.76574792  1
  H  H2  1  0.65110800  0.66968315  0.74386716  1
  H  H3  1  0.15058918  0.81560670  0.76574344  1
  H  H4  1  0.16877839  0.82674239  0.26574792  1
  H  H5  1  0.31644228  0.32737188  0.23710324  1
  H  H6  1  0.81560670  0.15058918  0.26574344  1
  H  H7  1  0.66968315  0.65110800  0.24386716  1
  O  O0  1  0.37959405  0.23735359  0.66777034  1
  O  O1  1  0.87879103  0.24685167  0.83601058  1
  O  O2  1  0.60011958  0.74775137  0.67295940  1
  O  O3  1  0.09943338  0.73654508  0.83575196  1
  O  O4  1  0.24685167  0.87879103  0.33601058  1
  O  O5  1  0.23735359  0.37959405  0.16777034  1
  O  O6  1  0.73654508  0.09943338  0.33575196  1
  O  O7  1  0.74775137  0.60011958  0.17295940  1
  O  O8  1  0.30624017  0.91127966  0.62518136  1
  O  O9  1  0.80587304  0.57237702  0.88312330  1
  O  O10  1  0.67387812  0.07307097  0.62501254  1
  O  O11  1  0.17352005  0.41052835  0.87910519  1
  O  O12  1  0.57237702  0.80587304  0.38312330  1
  O  O13  1  0.91127966  0.30624017  0.12518136  1
  O  O14  1  0.41052835  0.17352005  0.37910519  1
  O  O15  1  0.07307097  0.67387812  0.12501254  1
loop_
_geom_bond_atom_site_label_1
_geom_bond_atom_site_label_2
_geom_bond_distance
_geom_bond_site_symmetry_2
H0 O0 0.980365 1_555
H1 O1 0.980618 1_555
H2 O2 0.980150 1_555
H3 O3 0.979699 1_555
H4 O4 0.980618 1_555
H5 O5 0.980365 1_555
H6 O6 0.979699 1_555
H7 O7 0.980150 1_555
O0 Sn0 2.309778 1_555
O0 Sn8 2.350549 1_545
O0 Sn6 2.424263 1_555
O1 Sn1 2.311081 1_556
O1 Sn9 2.348619 1_555
O1 Sn5 2.426732 1_656
O2 Sn2 2.313015 1_555
O2 Sn8 2.349071 1_555
O2 Sn4 2.426153 1_555
O3 Sn3 2.311759 1_555
O3 Sn9 2.351396 1_455
O3 Sn7 2.423336 1_456
O4 Sn4 2.311081 1_555
O4 Sn10 2.348619 1_555
O4 Sn0 2.426732 1_565
O5 Sn5 2.309778 1_555
O5 Sn11 2.350549 1_455
O5 Sn3 2.424263 1_554
O6 Sn6 2.311759 1_555
O6 Sn10 2.351396 1_545
O6 Sn2 2.423336 1_545
O7 Sn7 2.313015 1_555
O7 Sn11 2.349071 1_555
O7 Sn1 2.426153 1_555
O8 Sn4 2.108319 1_555
O8 Sn0 2.109952 1_565
O8 Sn8 2.124465 1_555
O9 Sn7 2.107005 1_556
O9 Sn1 2.110663 1_556
O9 Sn9 2.125783 1_555
O10 Sn6 2.108729 1_555
O10 Sn2 2.110176 1_545
O10 Sn8 2.125738 1_545
O11 Sn5 2.108696 1_556
O11 Sn3 2.110111 1_555
O11 Sn9 2.124982 1_455
O12 Sn2 2.107005 1_555
O12 Sn4 2.110663 1_555
O12 Sn10 2.125783 1_555
O13 Sn1 2.108319 1_555
O13 Sn5 2.109952 1_655
O13 Sn11 2.124465 1_555
O14 Sn0 2.108696 1_555
O14 Sn6 2.110111 1_555
O14 Sn10 2.124982 1_545
O15 Sn3 2.108729 1_554
O15 Sn7 2.110176 1_455
O15 Sn11 2.125738 1_455
