# generated using pymatgen
data_Na3MoNO3
_symmetry_space_group_name_H-M   'P 1'
_cell_length_a   5.70763600
_cell_length_b   6.29386000
_cell_length_c   7.35565000
_cell_angle_alpha   90.00000000
_cell_angle_beta   90.00000000
_cell_angle_gamma   90.00000000
_symmetry_Int_Tables_number   1
_chemical_formula_structural   Na3MoNO3
_chemical_formula_sum   'Na6 Mo2 N2 O6'
_cell_volume   264.23747037
_cell_formula_units_Z   2
loop_
 _symmetry_equiv_pos_site_id
 _symmetry_equiv_pos_as_xyz
  1  'x, y, z'
loop_
 _atom_site_type_symbol
 _atom_site_label
 _atom_site_symmetry_multiplicity
 _atom_site_fract_x
 _atom_site_fract_y
 _atom_site_fract_z
 _atom_site_occupancy
  Na  Na0  1  0.51221300  0.83533500  0.00000000  1
  Na  Na1  1  0.51016900  0.32831700  0.74457800  1
  Na  Na2  1  0.51016900  0.32831700  0.25542200  1
  Na  Na3  1  0.01016900  0.67168300  0.24457800  1
  Na  Na4  1  0.01221300  0.16466500  0.50000000  1
  Na  Na5  1  0.01016900  0.67168300  0.75542200  1
  Mo  Mo0  1  0.50259900  0.82714500  0.50000000  1
  Mo  Mo1  1  0.00259900  0.17285500  0.00000000  1
  N  N0  1  0.69570500  0.17627500  0.00000000  1
  N  N1  1  0.19570500  0.82372500  0.50000000  1
  O  O0  1  0.60348000  0.68646400  0.29075500  1
  O  O1  1  0.10348000  0.31353600  0.20924500  1
  O  O2  1  0.10348000  0.31353600  0.79075500  1
  O  O3  1  0.60348000  0.68646400  0.70924500  1
  O  O4  1  0.10128500  0.89046600  0.00000000  1
  O  O5  1  0.60128500  0.10953400  0.50000000  1
loop_
_geom_bond_atom_site_label_1
_geom_bond_atom_site_label_2
_geom_bond_distance
_geom_bond_site_symmetry_2
Na0 O4 2.370955 1_555
Na0 O3 2.392338 1_554
Na0 O0 2.392338 1_555
Na1 O5 2.324450 1_555
Na1 O3 2.330726 1_555
Na1 O2 2.347796 1_555
Na2 O5 2.324450 1_555
Na2 O0 2.330726 1_555
Na2 O1 2.347796 1_555
Na3 O4 2.324450 1_555
Na3 O1 2.330726 1_555
Na3 O0 2.347796 1_455
Na4 O5 2.370955 1_455
Na4 O1 2.392338 1_555
Na4 O2 2.392338 1_555
Na5 O4 2.324450 1_556
Na5 O2 2.330726 1_555
Na5 O3 2.347796 1_455
Mo0 N1 1.751771 1_555
Mo0 O5 1.864436 1_565
Mo0 O0 1.866667 1_555
Mo0 O3 1.866667 1_555
Mo1 N0 1.751771 1_455
Mo1 O4 1.864436 1_545
Mo1 O1 1.866667 1_555
Mo1 O2 1.866667 1_554
N0 Na2 2.359451 1_555
N0 Na1 2.359451 1_554
N0 Na0 2.387767 1_545
N1 Na5 2.359451 1_555
N1 Na3 2.359451 1_555
N1 Na4 2.387767 1_565
