# generated using pymatgen
data_Ba2Ca3Tl2(WO3)4
_symmetry_space_group_name_H-M   'P 1'
_cell_length_a   4.08370514
_cell_length_b   4.08370533
_cell_length_c   23.50479919
_cell_angle_alpha   94.98354497
_cell_angle_beta   94.98354643
_cell_angle_gamma   89.99999906
_symmetry_Int_Tables_number   1
_chemical_formula_structural   Ba2Ca3Tl2(WO3)4
_chemical_formula_sum   'Ba2 Ca3 Tl2 W4 O12'
_cell_volume   389.01200442
_cell_formula_units_Z   1
loop_
 _symmetry_equiv_pos_site_id
 _symmetry_equiv_pos_as_xyz
  1  'x, y, z'
loop_
 _atom_site_type_symbol
 _atom_site_label
 _atom_site_symmetry_multiplicity
 _atom_site_fract_x
 _atom_site_fract_y
 _atom_site_fract_z
 _atom_site_occupancy
  Ba  Ba0  1  0.16930800  0.16930800  0.33861400  1
  Ba  Ba1  1  0.83069200  0.83069200  0.66138600  1
  Ca  Ca0  1  0.07736800  0.07736800  0.15473600  1
  Ca  Ca1  1  0.92263200  0.92263200  0.84526400  1
  Ca  Ca2  1  0.00000000  0.00000000  0.00000000  1
  Tl  Tl0  1  0.72695500  0.72695500  0.45390900  1
  Tl  Tl1  1  0.27304500  0.27304500  0.54609100  1
  W  W0  1  0.53812800  0.53812800  0.07625600  1
  W  W1  1  0.38908400  0.38908400  0.77816800  1
  W  W2  1  0.61091600  0.61091600  0.22183200  1
  W  W3  1  0.46187200  0.46187200  0.92374400  1
  O  O0  1  0.39420900  0.89420900  0.78841800  1
  O  O1  1  0.53507300  0.03507300  0.07014800  1
  O  O2  1  0.22141300  0.22141300  0.44282500  1
  O  O3  1  0.96492700  0.46492700  0.92985200  1
  O  O4  1  0.77858700  0.77858700  0.55717500  1
  O  O5  1  0.10579100  0.60579100  0.21158200  1
  O  O6  1  0.60579100  0.10579100  0.21158200  1
  O  O7  1  0.34506100  0.34506100  0.69012200  1
  O  O8  1  0.89420900  0.39420900  0.78841800  1
  O  O9  1  0.03507300  0.53507300  0.07014800  1
  O  O10  1  0.46492700  0.96492700  0.92985200  1
  O  O11  1  0.65493900  0.65493900  0.30987800  1
loop_
_geom_bond_atom_site_label_1
_geom_bond_atom_site_label_2
_geom_bond_distance
_geom_bond_site_symmetry_2
Ba0 O2 2.430904 1_555
Ba0 O11 2.964391 1_555
Ba0 O11 2.964397 1_455
Ba0 O11 2.964397 1_545
Ba0 O11 2.964403 1_445
Ba1 O4 2.430904 1_555
Ba1 O7 2.964391 1_555
Ba1 O7 2.964397 1_655
Ba1 O7 2.964397 1_565
Ba1 O7 2.964403 1_665
Ca0 O6 2.434651 1_555
Ca0 O5 2.434651 1_555
Ca0 O6 2.434651 1_455
Ca0 O5 2.434651 1_545
Ca0 O1 2.839457 1_555
Ca0 O9 2.839457 1_555
Ca0 O1 2.839463 1_455
Ca0 O9 2.839463 1_545
Ca1 O0 2.434651 1_555
Ca1 O8 2.434651 1_555
Ca1 O0 2.434651 1_655
Ca1 O8 2.434651 1_565
Ca1 O10 2.839457 1_555
Ca1 O3 2.839457 1_555
Ca1 O10 2.839463 1_655
Ca1 O3 2.839463 1_565
Ca2 O10 2.616621 1_444
Ca2 O1 2.616621 1_555
Ca2 O9 2.616621 1_555
Ca2 O3 2.616621 1_444
Ca2 O1 2.616627 1_455
Ca2 O10 2.616627 1_544
Ca2 O3 2.616627 1_454
Ca2 O9 2.616627 1_545
O0 W1 2.055804 1_555
O0 W1 2.055804 1_565
O1 W0 2.046814 1_545
O1 W0 2.046822 1_555
O2 Tl1 2.408860 1_555
O3 W3 2.046814 1_655
O3 W3 2.046822 1_555
O4 Tl0 2.408860 1_555
O5 W2 2.055804 1_555
O5 W2 2.055804 1_455
O6 W2 2.055804 1_555
O6 W2 2.055804 1_545
O7 W1 2.053827 1_555
O8 W1 2.055804 1_555
O8 W1 2.055804 1_655
O9 W0 2.046814 1_455
O9 W0 2.046822 1_555
O10 W3 2.046814 1_565
O10 W3 2.046822 1_555
O11 W2 2.053827 1_555
