# generated using pymatgen
data_Ba2SrTeO6
_symmetry_space_group_name_H-M   'P 1'
_cell_length_a   6.11840606
_cell_length_b   6.11840606
_cell_length_c   6.11840603
_cell_angle_alpha   60.76419607
_cell_angle_beta   60.76419607
_cell_angle_gamma   60.76419518
_symmetry_Int_Tables_number   1
_chemical_formula_structural   Ba2SrTeO6
_chemical_formula_sum   'Ba2 Sr1 Te1 O6'
_cell_volume   164.74931149
_cell_formula_units_Z   1
loop_
 _symmetry_equiv_pos_site_id
 _symmetry_equiv_pos_as_xyz
  1  'x, y, z'
loop_
 _atom_site_type_symbol
 _atom_site_label
 _atom_site_symmetry_multiplicity
 _atom_site_fract_x
 _atom_site_fract_y
 _atom_site_fract_z
 _atom_site_occupancy
  Ba  Ba0  1  0.25206000  0.25206000  0.25206000  1
  Ba  Ba1  1  0.74794000  0.74794000  0.74794000  1
  Sr  Sr0  1  0.00000000  0.00000000  0.00000000  1
  Te  Te0  1  0.50000000  0.50000000  0.50000000  1
  O  O0  1  0.32844100  0.71750600  0.22634000  1
  O  O1  1  0.71750600  0.22634000  0.32844100  1
  O  O2  1  0.22634000  0.32844100  0.71750600  1
  O  O3  1  0.67155900  0.28249400  0.77366000  1
  O  O4  1  0.77366000  0.67155900  0.28249400  1
  O  O5  1  0.28249400  0.77366000  0.67155900  1
loop_
_geom_bond_atom_site_label_1
_geom_bond_atom_site_label_2
_geom_bond_distance
_geom_bond_site_symmetry_2
Ba0 O4 2.790334 1_455
Ba0 O5 2.790334 1_545
Ba0 O3 2.790334 1_554
Ba0 O2 3.023816 1_555
Ba0 O1 3.023816 1_555
Ba0 O0 3.023816 1_555
Ba0 O2 3.142929 1_554
Ba0 O0 3.142929 1_545
Ba0 O1 3.142929 1_455
Ba1 O2 2.790334 1_655
Ba1 O1 2.790334 1_565
Ba1 O0 2.790334 1_556
Ba1 O4 3.023816 1_555
Ba1 O5 3.023816 1_555
Ba1 O3 3.023816 1_555
Ba1 O4 3.142929 1_556
Ba1 O3 3.142929 1_565
Ba1 O5 3.142929 1_655
O0 Te0 1.962656 1_555
O0 Sr0 2.435353 1_565
O1 Te0 1.962656 1_555
O1 Sr0 2.435353 1_655
O2 Te0 1.962656 1_555
O2 Sr0 2.435353 1_556
O3 Te0 1.962656 1_555
O3 Sr0 2.435353 1_656
O4 Te0 1.962656 1_555
O4 Sr0 2.435353 1_665
O5 Te0 1.962656 1_555
O5 Sr0 2.435353 1_566
