# generated using pymatgen
data_TiSiPd
_symmetry_space_group_name_H-M   'P 1'
_cell_length_a   3.76880174
_cell_length_b   6.34284162
_cell_length_c   7.39065812
_cell_angle_alpha   90.00000000
_cell_angle_beta   90.00000000
_cell_angle_gamma   90.00000000
_symmetry_Int_Tables_number   1
_chemical_formula_structural   TiSiPd
_chemical_formula_sum   'Ti4 Si4 Pd4'
_cell_volume   176.67303593
_cell_formula_units_Z   4
loop_
 _symmetry_equiv_pos_site_id
 _symmetry_equiv_pos_as_xyz
  1  'x, y, z'
loop_
 _atom_site_type_symbol
 _atom_site_label
 _atom_site_symmetry_multiplicity
 _atom_site_fract_x
 _atom_site_fract_y
 _atom_site_fract_z
 _atom_site_occupancy
  Ti  Ti0  1  0.75000000  0.47070880  0.17635653  1
  Ti  Ti1  1  0.75000000  0.97070880  0.32364347  1
  Ti  Ti2  1  0.25000000  0.52929120  0.82364347  1
  Ti  Ti3  1  0.25000000  0.02929120  0.67635653  1
  Si  Si0  1  0.75000000  0.24507485  0.87409244  1
  Si  Si1  1  0.75000000  0.74507485  0.62590756  1
  Si  Si2  1  0.25000000  0.75492515  0.12590756  1
  Si  Si3  1  0.25000000  0.25492515  0.37409244  1
  Pd  Pd0  1  0.75000000  0.35478543  0.56236980  1
  Pd  Pd1  1  0.75000000  0.85478543  0.93763020  1
  Pd  Pd2  1  0.25000000  0.64521457  0.43763020  1
  Pd  Pd3  1  0.25000000  0.14521457  0.06236980  1
loop_
_geom_bond_atom_site_label_1
_geom_bond_atom_site_label_2
_geom_bond_distance
_geom_bond_site_symmetry_2
Si0 Ti2 2.634360 1_555
Si0 Ti2 2.634360 1_655
Si0 Ti0 2.653048 1_556
Si0 Ti3 2.749535 1_555
Si0 Ti3 2.749535 1_655
Si1 Ti3 2.634360 1_665
Si1 Ti3 2.634360 1_565
Si1 Ti1 2.653048 1_555
Si1 Ti2 2.749535 1_555
Si1 Ti2 2.749535 1_655
Si2 Ti0 2.634360 1_455
Si2 Ti0 2.634360 1_555
Si2 Ti2 2.653048 1_554
Si2 Ti1 2.749535 1_555
Si2 Ti1 2.749535 1_455
Si3 Ti1 2.634360 1_545
Si3 Ti1 2.634360 1_445
Si3 Ti3 2.653048 1_555
Si3 Ti0 2.749535 1_455
Si3 Ti0 2.749535 1_555
Pd0 Si0 2.406637 1_555
Pd0 Si3 2.426605 1_555
Pd0 Si3 2.426605 1_655
Pd0 Si1 2.519688 1_555
Pd0 Pd2 2.791842 1_655
Pd0 Pd2 2.791842 1_555
Pd0 Ti2 2.916301 1_655
Pd0 Ti2 2.916301 1_555
Pd0 Ti3 2.919429 1_655
Pd0 Ti3 2.919429 1_555
Pd0 Ti0 2.946122 1_555
Pd0 Ti1 3.007936 1_545
Pd1 Si1 2.406637 1_555
Pd1 Si2 2.426605 1_656
Pd1 Si2 2.426605 1_556
Pd1 Si0 2.519688 1_565
Pd1 Pd3 2.791842 1_666
Pd1 Pd3 2.791842 1_566
Pd1 Ti3 2.916301 1_565
Pd1 Ti3 2.916301 1_665
Pd1 Ti2 2.919429 1_655
Pd1 Ti2 2.919429 1_555
Pd1 Ti1 2.946122 1_556
Pd1 Ti0 3.007936 1_556
Pd2 Si2 2.406637 1_555
Pd2 Si1 2.426605 1_555
Pd2 Si1 2.426605 1_455
Pd2 Si3 2.519688 1_555
Pd2 Ti0 2.916301 1_555
Pd2 Ti0 2.916301 1_455
Pd2 Ti1 2.919429 1_455
Pd2 Ti1 2.919429 1_555
Pd2 Ti2 2.946122 1_555
Pd2 Ti3 3.007936 1_565
Pd3 Si3 2.406637 1_555
Pd3 Si0 2.426605 1_554
Pd3 Si0 2.426605 1_454
Pd3 Si2 2.519688 1_545
Pd3 Ti1 2.916301 1_545
Pd3 Ti1 2.916301 1_445
Pd3 Ti0 2.919429 1_455
Pd3 Ti0 2.919429 1_555
Pd3 Ti3 2.946122 1_554
Pd3 Ti2 3.007936 1_554
