# generated using pymatgen
data_KGePO5
_symmetry_space_group_name_H-M   'P 1'
_cell_length_a   6.40152400
_cell_length_b   10.17297500
_cell_length_c   12.82633200
_cell_angle_alpha   90.00000000
_cell_angle_beta   90.00000000
_cell_angle_gamma   90.00000000
_symmetry_Int_Tables_number   1
_chemical_formula_structural   KGePO5
_chemical_formula_sum   'K8 Ge8 P8 O40'
_cell_volume   835.28336508
_cell_formula_units_Z   8
loop_
 _symmetry_equiv_pos_site_id
 _symmetry_equiv_pos_as_xyz
  1  'x, y, z'
loop_
 _atom_site_type_symbol
 _atom_site_label
 _atom_site_symmetry_multiplicity
 _atom_site_fract_x
 _atom_site_fract_y
 _atom_site_fract_z
 _atom_site_occupancy
  K  K0  1  0.19142300  0.56895600  0.39157500  1
  K  K1  1  0.22027600  0.81544200  0.61877100  1
  K  K2  1  0.72027600  0.31544200  0.88122900  1
  K  K3  1  0.27972400  0.81544200  0.11877100  1
  K  K4  1  0.77972400  0.31544200  0.38122900  1
  K  K5  1  0.69142300  0.06895600  0.10842500  1
  K  K6  1  0.30857700  0.56895600  0.89157500  1
  K  K7  1  0.80857700  0.06895600  0.60842500  1
  Ge  Ge0  1  0.75407400  0.75206000  0.25157600  1
  Ge  Ge1  1  0.24592600  0.25206000  0.74842400  1
  Ge  Ge2  1  0.74592600  0.75206000  0.75157600  1
  Ge  Ge3  1  0.25407400  0.25206000  0.24842400  1
  Ge  Ge4  1  0.99728100  0.50097400  0.13043800  1
  Ge  Ge5  1  0.00271900  0.00097400  0.86956200  1
  Ge  Ge6  1  0.50271900  0.50097400  0.63043800  1
  Ge  Ge7  1  0.49728100  0.00097400  0.36956200  1
  P  P0  1  0.83404300  0.75104700  0.99779700  1
  P  P1  1  0.33404300  0.25104700  0.50220300  1
  P  P2  1  0.66595700  0.75104700  0.49779700  1
  P  P3  1  0.16595700  0.25104700  0.00220300  1
  P  P4  1  0.50378200  0.50302400  0.17912200  1
  P  P5  1  0.49621800  0.00302400  0.82087800  1
  P  P6  1  0.99621800  0.50302400  0.67912200  1
  P  P7  1  0.00378200  0.00302400  0.32087800  1
  O  O0  1  0.96110800  0.88792600  0.24422000  1
  O  O1  1  0.03889200  0.38792600  0.75578000  1
  O  O2  1  0.53889200  0.88792600  0.74422000  1
  O  O3  1  0.46110800  0.38792600  0.25578000  1
  O  O4  1  0.04090100  0.12168700  0.24649200  1
  O  O5  1  0.95909900  0.62168700  0.75350800  1
  O  O6  1  0.45909900  0.12168700  0.74649200  1
  O  O7  1  0.54090100  0.62168700  0.25350800  1
  O  O8  1  0.19515300  0.97165400  0.39031700  1
  O  O9  1  0.80484700  0.47165400  0.60968300  1
  O  O10  1  0.30484700  0.97165400  0.89031700  1
  O  O11  1  0.69515300  0.47165400  0.10968300  1
  O  O12  1  0.81320000  0.03323500  0.39131800  1
  O  O13  1  0.18680000  0.53323500  0.60868200  1
  O  O14  1  0.68680000  0.03323500  0.89131800  1
  O  O15  1  0.69037200  0.72671600  0.90233000  1
  O  O16  1  0.31320000  0.53323500  0.10868200  1
  O  O17  1  0.53268500  0.63489500  0.72492900  1
  O  O18  1  0.03268500  0.13489500  0.77507100  1
  O  O19  1  0.96731500  0.63489500  0.22492900  1
  O  O20  1  0.54630900  0.87739200  0.26889000  1
  O  O21  1  0.45369100  0.37739200  0.73111000  1
  O  O22  1  0.95369100  0.87739200  0.76889000  1
  O  O23  1  0.04630900  0.37739200  0.23111000  1
  O  O24  1  0.48413600  0.13258000  0.48472100  1
  O  O25  1  0.51586400  0.63258000  0.51527900  1
  O  O26  1  0.01586400  0.13258000  0.98472100  1
  O  O27  1  0.98413600  0.63258000  0.01527900  1
  O  O28  1  0.47566500  0.37462100  0.51825800  1
  O  O29  1  0.52433500  0.87462100  0.48174200  1
  O  O30  1  0.02433500  0.37462100  0.01825800  1
  O  O31  1  0.97566500  0.87462100  0.98174200  1
  O  O32  1  0.19480000  0.27578000  0.40532700  1
  O  O33  1  0.80520000  0.77578000  0.59467300  1
  O  O34  1  0.30520000  0.27578000  0.90532700  1
  O  O35  1  0.69480000  0.77578000  0.09467300  1
  O  O36  1  0.19037200  0.22671600  0.59767000  1
  O  O37  1  0.80962800  0.72671600  0.40233000  1
  O  O38  1  0.30962800  0.22671600  0.09767000  1
  O  O39  1  0.46731500  0.13489500  0.27507100  1
loop_
_geom_bond_atom_site_label_1
_geom_bond_atom_site_label_2
_geom_bond_distance
_geom_bond_site_symmetry_2
K0 O19 2.660237 1_455
K0 O25 2.692587 1_555
K0 O13 2.808453 1_555
K0 O7 2.903248 1_555
K0 O37 2.927144 1_455
K0 O23 2.982745 1_555
K0 O32 2.987762 1_555
K0 O3 3.066868 1_555
K0 O28 3.139984 1_555
K1 O22 2.648952 1_455
K1 O29 2.690753 1_555
K1 O2 2.700528 1_555
K1 O33 2.705294 1_455
K1 O13 2.881779 1_555
K1 O25 2.966994 1_555
K1 O17 3.037605 1_555
K1 O5 3.109190 1_455
K1 O8 3.337284 1_555
K2 O21 2.648952 1_555
K2 O30 2.690753 1_656
K2 O1 2.700528 1_655
K2 O34 2.705294 1_555
K2 O14 2.881779 1_555
K2 O26 2.966994 1_655
K2 O18 3.037605 1_655
K2 O6 3.109190 1_555
K2 O11 3.337284 1_556
K3 O20 2.648952 1_555
K3 O31 2.690753 1_454
K3 O0 2.700528 1_455
K3 O35 2.705294 1_555
K3 O16 2.881779 1_555
K3 O27 2.966994 1_455
K3 O19 3.037605 1_455
K3 O7 3.109190 1_555
K3 O10 3.337284 1_554
K4 O23 2.648952 1_655
K4 O28 2.690753 1_555
K4 O3 2.700528 1_555
K4 O32 2.705294 1_655
K4 O12 2.881779 1_555
K4 O24 2.966994 1_555
K4 O39 3.037605 1_555
K4 O4 3.109190 1_655
K4 O9 3.337284 1_555
K5 O39 2.660237 1_555
K5 O26 2.692587 1_654
K5 O14 2.808453 1_554
K5 O4 2.903248 1_655
K5 O38 2.927144 1_555
K5 O20 2.982745 1_545
K5 O35 2.987762 1_545
K5 O0 3.066868 1_545
K5 O31 3.139984 1_544
K6 O17 2.660237 1_555
K6 O27 2.692587 1_456
K6 O16 2.808453 1_556
K6 O5 2.903248 1_455
K6 O15 2.927144 1_555
K6 O21 2.982745 1_555
K6 O34 2.987762 1_555
K6 O1 3.066868 1_555
K6 O30 3.139984 1_556
K7 O18 2.660237 1_655
K7 O24 2.692587 1_555
K7 O12 2.808453 1_555
K7 O6 2.903248 1_555
K7 O36 2.927144 1_655
K7 O22 2.982745 1_545
K7 O33 2.987762 1_545
K7 O2 3.066868 1_545
K7 O29 3.139984 1_545
Ge0 O19 1.844150 1_555
Ge0 O20 1.855768 1_555
Ge0 O7 1.903118 1_555
Ge0 O0 1.917232 1_555
Ge0 O37 1.982886 1_555
Ge0 O35 2.062116 1_555
Ge1 O18 1.844150 1_555
Ge1 O21 1.855768 1_555
Ge1 O6 1.903118 1_555
Ge1 O1 1.917232 1_555
Ge1 O36 1.982886 1_555
Ge1 O34 2.062116 1_555
Ge2 O17 1.844150 1_555
Ge2 O22 1.855768 1_555
Ge2 O5 1.903118 1_555
Ge2 O2 1.917232 1_555
Ge2 O15 1.982886 1_555
Ge2 O33 2.062116 1_555
Ge3 O39 1.844150 1_555
Ge3 O23 1.855768 1_555
Ge3 O4 1.903118 1_555
Ge3 O3 1.917232 1_555
Ge3 O38 1.982886 1_555
Ge3 O32 2.062116 1_555
Ge4 O23 1.829312 1_655
Ge4 O19 1.833505 1_555
Ge4 O30 1.937143 1_655
Ge4 O11 1.974968 1_555
Ge4 O27 1.995310 1_555
Ge4 O16 2.067735 1_655
Ge5 O22 1.829312 1_445
Ge5 O18 1.833505 1_555
Ge5 O31 1.937143 1_445
Ge5 O10 1.974968 1_545
Ge5 O26 1.995310 1_555
Ge5 O14 2.067735 1_455
Ge6 O21 1.829312 1_555
Ge6 O17 1.833505 1_555
Ge6 O28 1.937143 1_555
Ge6 O9 1.974968 1_555
Ge6 O25 1.995310 1_555
Ge6 O13 2.067735 1_555
Ge7 O20 1.829312 1_545
Ge7 O39 1.833505 1_555
Ge7 O29 1.937143 1_545
Ge7 O8 1.974968 1_545
Ge7 O24 1.995310 1_555
Ge7 O12 2.067735 1_555
O0 P7 1.553181 1_665
O1 P6 1.553181 1_455
O2 P5 1.553181 1_565
O3 P4 1.553181 1_555
O4 P7 1.556918 1_555
O5 P6 1.556918 1_555
O6 P5 1.556918 1_555
O7 P4 1.556918 1_555
O8 P7 1.547864 1_565
O9 P6 1.547864 1_555
O10 P5 1.547864 1_565
O11 P4 1.547864 1_555
O12 P7 1.548929 1_655
O13 P6 1.548929 1_455
O14 P5 1.548929 1_555
O15 P0 1.551295 1_555
O16 P4 1.548929 1_555
O24 P1 1.557523 1_555
O25 P2 1.557523 1_555
O26 P3 1.557523 1_556
O27 P0 1.557523 1_554
O28 P1 1.563541 1_555
O29 P2 1.563541 1_555
O30 P3 1.563541 1_555
O31 P0 1.563541 1_555
O32 P1 1.549776 1_555
O33 P2 1.549776 1_555
O34 P3 1.549776 1_556
O35 P0 1.549776 1_554
O36 P1 1.551295 1_555
O37 P2 1.551295 1_555
O38 P3 1.551295 1_555
