# generated using pymatgen
data_LiSm4Tm4O12
_symmetry_space_group_name_H-M   'P 1'
_cell_length_a   6.05678271
_cell_length_b   8.46409258
_cell_length_c   5.75321272
_cell_angle_alpha   87.53099382
_cell_angle_beta   88.68974848
_cell_angle_gamma   89.23527746
_symmetry_Int_Tables_number   1
_chemical_formula_structural   LiSm4Tm4O12
_chemical_formula_sum   'Li1 Sm4 Tm4 O12'
_cell_volume   294.56601771
_cell_formula_units_Z   1
loop_
 _symmetry_equiv_pos_site_id
 _symmetry_equiv_pos_as_xyz
  1  'x, y, z'
loop_
 _atom_site_type_symbol
 _atom_site_label
 _atom_site_symmetry_multiplicity
 _atom_site_fract_x
 _atom_site_fract_y
 _atom_site_fract_z
 _atom_site_occupancy
  Li  Li0  1  0.38278800  0.05544300  0.36087600  1
  Sm  Sm0  1  0.05939900  0.23440100  0.98428200  1
  Sm  Sm1  1  0.42755800  0.73457000  0.47083200  1
  Sm  Sm2  1  0.56103400  0.30002100  0.49654500  1
  Sm  Sm3  1  0.95155000  0.76038800  0.02002600  1
  Tm  Tm0  1  0.95989100  0.99778800  0.50863600  1
  Tm  Tm1  1  0.00158900  0.50110300  0.50384400  1
  Tm  Tm2  1  0.51437200  0.00092900  0.94755200  1
  Tm  Tm3  1  0.50373600  0.50268300  0.99662900  1
  O  O0  1  0.05540700  0.74725300  0.63589300  1
  O  O1  1  0.20895500  0.58291600  0.20062100  1
  O  O2  1  0.19597000  0.93191900  0.20703400  1
  O  O3  1  0.31443300  0.45342300  0.69101700  1
  O  O4  1  0.29609200  0.08983200  0.66651400  1
  O  O5  1  0.42836000  0.23688200  0.12945200  1
  O  O6  1  0.56431400  0.75011100  0.85405000  1
  O  O7  1  0.66023700  0.93051100  0.31776900  1
  O  O8  1  0.69761700  0.56706600  0.30892300  1
  O  O9  1  0.86699200  0.01926400  0.87711600  1
  O  O10  1  0.80893600  0.41290900  0.81301600  1
  O  O11  1  0.93660400  0.25308800  0.36353700  1
loop_
_geom_bond_atom_site_label_1
_geom_bond_atom_site_label_2
_geom_bond_distance
_geom_bond_site_symmetry_2
Li0 O2 1.820418 1_545
Li0 O4 1.857475 1_555
Li0 O7 1.989896 1_545
Li0 O5 2.006405 1_555
O0 Tm1 2.278143 1_555
O0 Tm0 2.284799 1_455
O0 Sm3 2.290823 1_456
O0 Sm1 2.428671 1_555
O1 Tm1 2.217931 1_555
O1 Tm3 2.228621 1_554
O1 Sm3 2.375641 1_455
O1 Sm1 2.475655 1_555
O2 Tm0 2.305393 1_455
O2 Sm3 2.392031 1_455
O2 Tm2 2.472277 1_564
O2 Sm1 2.622488 1_555
O2 Sm0 2.930979 1_564
O3 Tm3 2.178995 1_555
O3 Tm1 2.224477 1_555
O3 Sm2 2.272775 1_555
O3 Sm1 2.735148 1_555
O3 Sm0 2.890878 1_555
O4 Tm2 2.212411 1_555
O4 Tm0 2.401327 1_445
O4 Sm2 2.559469 1_555
O4 Sm0 2.630748 1_555
O5 Tm2 2.341466 1_554
O5 Sm2 2.361789 1_555
O5 Tm3 2.391055 1_554
O5 Sm0 2.404177 1_554
O6 Tm2 2.227462 1_565
O6 Tm3 2.247694 1_555
O6 Sm1 2.382363 1_555
O6 Sm3 2.556431 1_556
O7 Tm0 2.235328 1_555
O7 Sm1 2.322037 1_555
O7 Tm2 2.373821 1_564
O7 Sm3 2.850854 1_555
O8 Tm1 2.229790 1_655
O8 Tm3 2.258754 1_554
O8 Sm1 2.352751 1_555
O8 Sm2 2.599482 1_555
O8 Sm3 2.742524 1_555
O9 Tm2 2.171070 1_555
O9 Tm0 2.195386 1_545
O9 Sm0 2.289163 1_655
O9 Sm3 2.360831 1_546
O10 Tm1 2.212829 1_655
O10 Tm3 2.247824 1_555
O10 Sm0 2.331076 1_655
O10 Sm2 2.606853 1_555
O11 Tm0 2.286483 1_545
O11 Sm0 2.300302 1_654
O11 Tm1 2.322893 1_655
O11 Sm2 2.416672 1_555
