# generated using pymatgen
data_Li7Mn4CoO12
_symmetry_space_group_name_H-M   'P 1'
_cell_length_a   5.09795700
_cell_length_b   5.94537842
_cell_length_c   7.68181724
_cell_angle_alpha   100.31290949
_cell_angle_beta   108.71436020
_cell_angle_gamma   89.76876852
_symmetry_Int_Tables_number   1
_chemical_formula_structural   Li7Mn4CoO12
_chemical_formula_sum   'Li7 Mn4 Co1 O12'
_cell_volume   216.60143939
_cell_formula_units_Z   1
loop_
 _symmetry_equiv_pos_site_id
 _symmetry_equiv_pos_as_xyz
  1  'x, y, z'
loop_
 _atom_site_type_symbol
 _atom_site_label
 _atom_site_symmetry_multiplicity
 _atom_site_fract_x
 _atom_site_fract_y
 _atom_site_fract_z
 _atom_site_occupancy
  Li  Li0  1  0.48617500  0.24473000  0.99485300  1
  Li  Li1  1  0.50955000  0.58327900  0.33809900  1
  Li  Li2  1  0.49231400  0.74548500  0.99677900  1
  Li  Li3  1  0.51451000  0.09392500  0.34043700  1
  Li  Li4  1  0.48611500  0.92851600  0.66551700  1
  Li  Li5  1  0.50671100  0.39960200  0.66536800  1
  Li  Li6  1  0.99877700  0.16495200  0.66363100  1
  Mn  Mn0  1  0.99553200  0.00349100  0.99962300  1
  Mn  Mn1  1  0.99456900  0.66068400  0.66404700  1
  Mn  Mn2  1  0.00021200  0.49487000  0.99665400  1
  Mn  Mn3  1  0.00490500  0.83969100  0.33809900  1
  Co  Co0  1  0.00735500  0.33346000  0.34113300  1
  O  O0  1  0.21456800  0.93859700  0.83356700  1
  O  O1  1  0.24319800  0.31587000  0.15636500  1
  O  O2  1  0.22071900  0.47010700  0.83138800  1
  O  O3  1  0.21536600  0.78509900  0.15771200  1
  O  O4  1  0.22981500  0.64889300  0.50598700  1
  O  O5  1  0.23939000  0.10384100  0.48229400  1
  O  O6  1  0.78764800  0.56133500  0.16868400  1
  O  O7  1  0.77801100  0.85976600  0.49722000  1
  O  O8  1  0.76999200  0.02548800  0.16974900  1
  O  O9  1  0.76901800  0.39587400  0.50739500  1
  O  O10  1  0.76878400  0.22099300  0.85853900  1
  O  O11  1  0.76676700  0.68145200  0.82686400  1
loop_
_geom_bond_atom_site_label_1
_geom_bond_atom_site_label_2
_geom_bond_distance
_geom_bond_site_symmetry_2
Li0 O1 2.011631 1_556
Li0 O10 2.026243 1_555
Li0 O2 2.168179 1_555
Li0 O0 2.208401 1_545
Li0 O8 2.227548 1_556
Li0 O6 2.344099 1_556
Li1 O9 2.021250 1_555
Li1 O7 2.072332 1_555
Li1 O1 2.080057 1_555
Li1 O6 2.200535 1_555
Li1 O4 2.201078 1_555
Li1 O3 2.203714 1_555
Li2 O0 2.063515 1_555
Li2 O2 2.087210 1_555
Li2 O6 2.106623 1_556
Li2 O8 2.135591 1_566
Li2 O3 2.142496 1_556
Li2 O11 2.189962 1_555
Li3 O5 2.028597 1_555
Li3 O8 2.117000 1_555
Li3 O9 2.162796 1_555
Li3 O7 2.177201 1_545
Li3 O1 2.247666 1_555
Li3 O3 2.322362 1_545
Li4 O5 2.007063 1_565
Li4 O4 2.057518 1_555
Li4 O0 2.169072 1_555
Li4 O10 2.241608 1_565
Li4 O7 2.256820 1_555
Li4 O11 2.288634 1_555
Li5 O9 2.071897 1_555
Li5 O11 2.079147 1_555
Li5 O10 2.096458 1_555
Li5 O5 2.197969 1_555
Li5 O2 2.219171 1_555
Li5 O4 2.283009 1_555
Li6 O9 2.090977 1_555
Li6 O0 2.102602 1_645
Li6 O7 2.110874 1_545
Li6 O2 2.115709 1_655
Li6 O5 2.118666 1_655
Li6 O10 2.161539 1_555
Mn0 O0 1.938365 1_645
Mn0 O10 1.966927 1_555
Mn0 O8 1.987181 1_556
Mn0 O3 2.023896 1_646
Mn0 O1 2.176203 1_656
Mn0 O11 2.214101 1_545
Mn1 O9 1.922842 1_555
Mn1 O11 1.950351 1_555
Mn1 O4 1.954656 1_655
Mn1 O2 1.955862 1_655
Mn1 O7 1.971490 1_555
Mn1 O0 1.997771 1_655
Mn2 O1 1.911506 1_556
Mn2 O2 1.935105 1_555
Mn2 O10 1.939765 1_455
Mn2 O6 1.950720 1_456
Mn2 O11 1.964529 1_455
Mn2 O3 2.022694 1_556
Mn3 O5 1.914398 1_565
Mn3 O7 1.923600 1_455
Mn3 O4 1.956819 1_555
Mn3 O8 1.958019 1_465
Mn3 O3 1.991701 1_555
Mn3 O6 1.994463 1_455
Co0 O9 2.016855 1_455
Co0 O5 2.032907 1_555
Co0 O1 2.124142 1_555
Co0 O6 2.126765 1_455
Co0 O4 2.156875 1_555
Co0 O8 2.163936 1_455
