# generated using pymatgen
data_CoPbO3
_symmetry_space_group_name_H-M   'P 1'
_cell_length_a   5.52213810
_cell_length_b   5.77470854
_cell_length_c   9.55270861
_cell_angle_alpha   105.89324443
_cell_angle_beta   89.88966352
_cell_angle_gamma   61.49456483
_symmetry_Int_Tables_number   1
_chemical_formula_structural   CoPbO3
_chemical_formula_sum   'Co4 Pb4 O12'
_cell_volume   254.27265632
_cell_formula_units_Z   4
loop_
 _symmetry_equiv_pos_site_id
 _symmetry_equiv_pos_as_xyz
  1  'x, y, z'
loop_
 _atom_site_type_symbol
 _atom_site_label
 _atom_site_symmetry_multiplicity
 _atom_site_fract_x
 _atom_site_fract_y
 _atom_site_fract_z
 _atom_site_occupancy
  Co  Co0  1  0.96838300  0.06334300  0.67750500  1
  Co  Co1  1  0.53157700  0.93669300  0.82251700  1
  Co  Co2  1  0.46849000  0.06309500  0.17741200  1
  Co  Co3  1  0.03147900  0.93684000  0.32255700  1
  Pb  Pb0  1  0.79210700  0.41552200  0.06937500  1
  Pb  Pb1  1  0.29228900  0.41549200  0.56918700  1
  Pb  Pb2  1  0.70776100  0.58456100  0.43074500  1
  Pb  Pb3  1  0.20789200  0.58439700  0.93067100  1
  O  O0  1  0.03745100  0.24085000  0.22857300  1
  O  O1  1  0.53746200  0.24070500  0.72844600  1
  O  O2  1  0.58308000  0.24094300  0.36704700  1
  O  O3  1  0.08299700  0.24089300  0.86711600  1
  O  O4  1  0.51882700  0.24024800  0.02519000  1
  O  O5  1  0.01901500  0.24026200  0.52513700  1
  O  O6  1  0.98112700  0.75976600  0.47480900  1
  O  O7  1  0.48104100  0.75969400  0.97484500  1
  O  O8  1  0.91692000  0.75917100  0.13293500  1
  O  O9  1  0.41696500  0.75909200  0.63292300  1
  O  O10  1  0.46259500  0.75924000  0.27148100  1
  O  O11  1  0.96254300  0.75919500  0.77153100  1
loop_
_geom_bond_atom_site_label_1
_geom_bond_atom_site_label_2
_geom_bond_distance
_geom_bond_site_symmetry_2
Co0 O5 2.079913 1_655
Co0 O3 2.083098 1_655
Co0 O1 2.084373 1_555
Co0 O11 2.193309 1_545
Co0 O9 2.199196 1_645
Co0 O6 2.202282 1_545
Co1 O7 2.079745 1_555
Co1 O9 2.083090 1_555
Co1 O11 2.084548 1_555
Co1 O1 2.192956 1_565
Co1 O3 2.199122 1_565
Co1 O4 2.202057 1_566
Co2 O4 2.079162 1_555
Co2 O2 2.083882 1_555
Co2 O0 2.084902 1_555
Co2 O10 2.192132 1_545
Co2 O8 2.198205 1_545
Co2 O7 2.201291 1_544
Co3 O6 2.079090 1_455
Co3 O8 2.083285 1_455
Co3 O10 2.085313 1_555
Co3 O0 2.192613 1_565
Co3 O2 2.198289 1_465
Co3 O5 2.201607 1_565
O0 Pb0 2.170121 1_455
O0 Pb2 2.328498 1_455
O1 Pb1 2.170462 1_555
O1 Pb3 2.328523 1_555
O2 Pb1 2.168038 1_555
O2 Pb2 2.329389 1_555
O3 Pb0 2.169126 1_456
O3 Pb3 2.329575 1_555
O4 Pb0 2.169413 1_555
O4 Pb3 2.333399 1_554
O5 Pb1 2.169105 1_555
O5 Pb2 2.333753 1_455
O6 Pb2 2.169474 1_555
O6 Pb1 2.333414 1_655
O7 Pb3 2.168840 1_555
O7 Pb0 2.333784 1_556
O8 Pb3 2.169286 1_654
O8 Pb0 2.330029 1_555
O9 Pb2 2.168343 1_555
O9 Pb1 2.329284 1_555
O10 Pb2 2.170262 1_555
O10 Pb0 2.327766 1_555
O11 Pb3 2.169934 1_655
O11 Pb1 2.329578 1_655
