# generated using pymatgen
data_KRbMg30O31
_symmetry_space_group_name_H-M   'P 1'
_cell_length_a   8.58809864
_cell_length_b   8.72970902
_cell_length_c   8.74175110
_cell_angle_alpha   90.00000000
_cell_angle_beta   90.00000000
_cell_angle_gamma   90.00000000
_symmetry_Int_Tables_number   1
_chemical_formula_structural   KRbMg30O31
_chemical_formula_sum   'K1 Rb1 Mg30 O31'
_cell_volume   655.38308567
_cell_formula_units_Z   1
loop_
 _symmetry_equiv_pos_site_id
 _symmetry_equiv_pos_as_xyz
  1  'x, y, z'
loop_
 _atom_site_type_symbol
 _atom_site_label
 _atom_site_symmetry_multiplicity
 _atom_site_fract_x
 _atom_site_fract_y
 _atom_site_fract_z
 _atom_site_occupancy
  K  K0  1  0.11268807  0.00000000  0.00000000  1
  Rb  Rb0  1  0.99051951  0.00000000  0.50000000  1
  Mg  Mg0  1  0.99105373  0.50000000  0.00000000  1
  Mg  Mg1  1  0.99298413  0.50000000  0.50000000  1
  Mg  Mg2  1  0.51673874  0.00000000  0.00000000  1
  Mg  Mg3  1  0.49822319  0.00000000  0.50000000  1
  Mg  Mg4  1  0.50556476  0.50000000  0.00000000  1
  Mg  Mg5  1  0.50026437  0.50000000  0.50000000  1
  Mg  Mg6  1  0.99738087  0.25201759  0.24557888  1
  Mg  Mg7  1  0.99738087  0.25201759  0.75442112  1
  Mg  Mg8  1  0.99738087  0.74798241  0.24557888  1
  Mg  Mg9  1  0.99738087  0.74798241  0.75442112  1
  Mg  Mg10  1  0.49833697  0.24797879  0.24766678  1
  Mg  Mg11  1  0.49833697  0.24797879  0.75233322  1
  Mg  Mg12  1  0.49833697  0.75202121  0.24766678  1
  Mg  Mg13  1  0.49833697  0.75202121  0.75233322  1
  Mg  Mg14  1  0.24739884  0.00000000  0.27975412  1
  Mg  Mg15  1  0.24739884  0.00000000  0.72024588  1
  Mg  Mg16  1  0.24721269  0.50000000  0.25470563  1
  Mg  Mg17  1  0.24721269  0.50000000  0.74529437  1
  Mg  Mg18  1  0.75700851  0.00000000  0.24005621  1
  Mg  Mg19  1  0.75700851  0.00000000  0.75994379  1
  Mg  Mg20  1  0.74819333  0.50000000  0.24975382  1
  Mg  Mg21  1  0.74819333  0.50000000  0.75024618  1
  Mg  Mg22  1  0.24945696  0.28111200  0.00000000  1
  Mg  Mg23  1  0.24850951  0.25951184  0.50000000  1
  Mg  Mg24  1  0.24945696  0.71888800  0.00000000  1
  Mg  Mg25  1  0.24850951  0.74048816  0.50000000  1
  Mg  Mg26  1  0.75996103  0.24308469  0.00000000  1
  Mg  Mg27  1  0.74418303  0.25107910  0.50000000  1
  Mg  Mg28  1  0.75996103  0.75691531  0.00000000  1
  Mg  Mg29  1  0.74418303  0.74892090  0.50000000  1
  O  O0  1  0.27652290  0.00000000  0.50000000  1
  O  O1  1  0.25743296  0.50000000  0.00000000  1
  O  O2  1  0.25567859  0.50000000  0.50000000  1
  O  O3  1  0.74148863  0.00000000  0.00000000  1
  O  O4  1  0.71527501  0.00000000  0.50000000  1
  O  O5  1  0.74434353  0.50000000  0.00000000  1
  O  O6  1  0.74169059  0.50000000  0.50000000  1
  O  O7  1  0.24747868  0.24502809  0.24427516  1
  O  O8  1  0.24747868  0.24502809  0.75572484  1
  O  O9  1  0.24747868  0.75497191  0.24427516  1
  O  O10  1  0.24747868  0.75497191  0.75572484  1
  O  O11  1  0.74731661  0.24866351  0.24846749  1
  O  O12  1  0.74731661  0.24866351  0.75153251  1
  O  O13  1  0.74731661  0.75133649  0.24846749  1
  O  O14  1  0.74731661  0.75133649  0.75153251  1
  O  O15  1  0.99971934  0.00000000  0.22976613  1
  O  O16  1  0.99971934  0.00000000  0.77023387  1
  O  O17  1  0.99933777  0.50000000  0.24658209  1
  O  O18  1  0.99933777  0.50000000  0.75341791  1
  O  O19  1  0.48507319  0.00000000  0.23565122  1
  O  O20  1  0.48507319  0.00000000  0.76434878  1
  O  O21  1  0.49658748  0.50000000  0.24701193  1
  O  O22  1  0.49658748  0.50000000  0.75298807  1
  O  O23  1  0.00470667  0.27035692  0.00000000  1
  O  O24  1  0.00175752  0.27935977  0.50000000  1
  O  O25  1  0.00470667  0.72964308  0.00000000  1
  O  O26  1  0.00175752  0.72064023  0.50000000  1
  O  O27  1  0.48981513  0.24529118  0.00000000  1
  O  O28  1  0.49481839  0.25462695  0.50000000  1
  O  O29  1  0.48981513  0.75470882  0.00000000  1
  O  O30  1  0.49481839  0.74537305  0.50000000  1
loop_
_geom_bond_atom_site_label_1
_geom_bond_atom_site_label_2
_geom_bond_distance
_geom_bond_site_symmetry_2
K0 O15 2.230598 1_455
K0 O16 2.230598 1_454
K0 O25 2.535791 1_545
K0 O23 2.535791 1_555
Mg0 O23 2.008143 1_655
Mg0 O25 2.008143 1_655
Mg0 O5 2.118772 1_555
Mg0 O18 2.156733 1_554
Mg0 O17 2.156733 1_555
Mg0 O1 2.287691 1_655
Mg1 O24 1.927598 1_655
Mg1 O26 1.927598 1_655
Mg1 O6 2.158134 1_555
Mg1 O18 2.215988 1_555
Mg1 O17 2.215988 1_555
Mg1 O2 2.256046 1_655
Mg2 O3 1.930174 1_555
Mg2 O20 2.077877 1_554
Mg2 O19 2.077877 1_555
Mg2 O29 2.153768 1_545
Mg2 O27 2.153768 1_555
Mg3 O4 1.864062 1_555
Mg3 O0 1.903984 1_555
Mg3 O28 2.223012 1_555
Mg3 O30 2.223012 1_545
Mg3 O19 2.313629 1_555
Mg3 O20 2.313629 1_555
Mg4 O5 2.050656 1_555
Mg4 O1 2.130980 1_555
Mg4 O22 2.160693 1_554
Mg4 O21 2.160693 1_555
Mg4 O27 2.227644 1_555
Mg4 O29 2.227644 1_555
Mg5 O6 2.073392 1_555
Mg5 O2 2.100527 1_555
Mg5 O30 2.142546 1_555
Mg5 O28 2.142546 1_555
Mg5 O22 2.211784 1_555
Mg5 O21 2.211784 1_555
Mg6 O11 2.147925 1_555
Mg6 O7 2.148761 1_655
Mg6 O23 2.153670 1_655
Mg6 O17 2.164897 1_555
Mg6 O15 2.204470 1_555
Mg6 O24 2.237173 1_655
Mg7 O12 2.147925 1_555
Mg7 O8 2.148761 1_655
Mg7 O23 2.153670 1_656
Mg7 O18 2.164897 1_555
Mg7 O16 2.204470 1_555
Mg7 O24 2.237173 1_655
Mg8 O13 2.147925 1_555
Mg8 O9 2.148761 1_655
Mg8 O25 2.153670 1_655
Mg8 O17 2.164897 1_555
Mg8 O15 2.204470 1_565
Mg8 O26 2.237173 1_655
Mg9 O14 2.147925 1_555
Mg9 O10 2.148761 1_655
Mg9 O25 2.153670 1_656
Mg9 O18 2.164897 1_555
Mg9 O16 2.204470 1_565
Mg9 O26 2.237173 1_655
Mg10 O11 2.138282 1_555
Mg10 O7 2.154754 1_555
Mg10 O27 2.166405 1_555
Mg10 O19 2.170321 1_555
Mg10 O21 2.200131 1_555
Mg10 O28 2.206804 1_555
Mg11 O12 2.138282 1_555
Mg11 O8 2.154754 1_555
Mg11 O27 2.166405 1_556
Mg11 O20 2.170321 1_555
Mg11 O22 2.200131 1_555
Mg11 O28 2.206804 1_555
Mg12 O13 2.138282 1_555
Mg12 O9 2.154754 1_555
Mg12 O29 2.166405 1_555
Mg12 O19 2.170321 1_565
Mg12 O21 2.200131 1_555
Mg12 O30 2.206804 1_555
Mg13 O14 2.138282 1_555
Mg13 O10 2.154754 1_555
Mg13 O29 2.166405 1_556
Mg13 O20 2.170321 1_565
Mg13 O22 2.200131 1_555
Mg13 O30 2.206804 1_555
Mg14 O0 1.941513 1_555
Mg14 O19 2.077262 1_555
Mg14 O7 2.161392 1_555
Mg14 O9 2.161392 1_545
Mg14 O15 2.171518 1_455
Mg15 O0 1.941513 1_555
Mg15 O20 2.077262 1_555
Mg15 O8 2.161392 1_555
Mg15 O10 2.161392 1_545
Mg15 O16 2.171518 1_455
Mg16 O17 2.129958 1_455
Mg16 O21 2.142711 1_555
Mg16 O2 2.145535 1_555
Mg16 O9 2.227699 1_555
Mg16 O7 2.227699 1_555
Mg16 O1 2.228303 1_555
Mg17 O18 2.129958 1_455
Mg17 O22 2.142711 1_555
Mg17 O2 2.145535 1_555
Mg17 O10 2.227699 1_555
Mg17 O8 2.227699 1_555
Mg17 O1 2.228303 1_556
Mg18 O15 2.086365 1_555
Mg18 O3 2.102740 1_555
Mg18 O13 2.173599 1_545
Mg18 O11 2.173599 1_555
Mg18 O4 2.300456 1_555
Mg18 O19 2.335725 1_555
Mg19 O16 2.086365 1_555
Mg19 O3 2.102740 1_556
Mg19 O14 2.173599 1_545
Mg19 O12 2.173599 1_555
Mg19 O4 2.300456 1_555
Mg19 O20 2.335725 1_555
Mg20 O17 2.157031 1_555
Mg20 O21 2.160949 1_555
Mg20 O5 2.183536 1_555
Mg20 O6 2.188303 1_555
Mg20 O11 2.194136 1_555
Mg20 O13 2.194136 1_555
Mg21 O18 2.157031 1_555
Mg21 O22 2.160949 1_555
Mg21 O5 2.183536 1_556
Mg21 O6 2.188303 1_555
Mg21 O14 2.194136 1_555
Mg21 O12 2.194136 1_555
Mg22 O1 1.912056 1_555
Mg22 O27 2.087771 1_555
Mg22 O23 2.104035 1_555
Mg22 O7 2.158568 1_555
Mg22 O8 2.158568 1_554
Mg23 O2 2.100294 1_555
Mg23 O28 2.115755 1_555
Mg23 O24 2.126202 1_555
Mg23 O7 2.239073 1_555
Mg23 O8 2.239073 1_555
Mg23 O0 2.278201 1_555
Mg24 O1 1.912056 1_555
Mg24 O29 2.087771 1_555
Mg24 O25 2.104035 1_555
Mg24 O9 2.158568 1_555
Mg24 O10 2.158568 1_554
Mg25 O2 2.100294 1_555
Mg25 O30 2.115755 1_555
Mg25 O26 2.126202 1_555
Mg25 O9 2.239073 1_555
Mg25 O10 2.239073 1_555
Mg25 O0 2.278201 1_565
Mg26 O23 2.115340 1_655
Mg26 O3 2.127980 1_555
Mg26 O11 2.175299 1_555
Mg26 O12 2.175299 1_554
Mg26 O5 2.246803 1_555
Mg26 O27 2.320120 1_555
Mg27 O28 2.141792 1_555
Mg27 O6 2.173112 1_555
Mg27 O11 2.199100 1_555
Mg27 O12 2.199100 1_555
Mg27 O4 2.205863 1_555
Mg27 O24 2.225809 1_655
Mg28 O25 2.115340 1_655
Mg28 O3 2.127980 1_565
Mg28 O13 2.175299 1_555
Mg28 O14 2.175299 1_554
Mg28 O5 2.246803 1_555
Mg28 O29 2.320120 1_555
Mg29 O30 2.141792 1_555
Mg29 O6 2.173112 1_555
Mg29 O14 2.199100 1_555
Mg29 O13 2.199100 1_555
Mg29 O4 2.205863 1_565
Mg29 O26 2.225809 1_655
O0 Rb0 2.456225 1_455
O4 Rb0 2.363827 1_555
O15 Rb0 2.363638 1_555
O16 Rb0 2.363638 1_555
O24 Rb0 2.440639 1_455
O26 Rb0 2.440639 1_465
