# generated using pymatgen
data_NdTmS3
_symmetry_space_group_name_H-M   'P 1'
_cell_length_a   3.93607442
_cell_length_b   10.98356558
_cell_length_c   21.41125346
_cell_angle_alpha   78.61778890
_cell_angle_beta   90.00000000
_cell_angle_gamma   90.00000000
_symmetry_Int_Tables_number   1
_chemical_formula_structural   NdTmS3
_chemical_formula_sum   'Nd8 Tm8 S24'
_cell_volume   907.44881826
_cell_formula_units_Z   8
loop_
 _symmetry_equiv_pos_site_id
 _symmetry_equiv_pos_as_xyz
  1  'x, y, z'
loop_
 _atom_site_type_symbol
 _atom_site_label
 _atom_site_symmetry_multiplicity
 _atom_site_fract_x
 _atom_site_fract_y
 _atom_site_fract_z
 _atom_site_occupancy
  Nd  Nd0  1  0.25000000  0.30368734  0.76600864  1
  Nd  Nd1  1  0.75000000  0.69631266  0.23399136  1
  Nd  Nd2  1  0.25000000  0.90954079  0.86322461  1
  Nd  Nd3  1  0.75000000  0.09045921  0.13677539  1
  Nd  Nd4  1  0.25000000  0.69196594  0.73295670  1
  Nd  Nd5  1  0.75000000  0.30803406  0.26704330  1
  Nd  Nd6  1  0.25000000  0.79855726  0.53700290  1
  Nd  Nd7  1  0.75000000  0.20144274  0.46299710  1
  Tm  Tm0  1  0.25000000  0.55348246  0.41656165  1
  Tm  Tm1  1  0.75000000  0.44651754  0.58343835  1
  Tm  Tm2  1  0.25000000  0.96995769  0.35128864  1
  Tm  Tm3  1  0.75000000  0.03004231  0.64871136  1
  Tm  Tm4  1  0.25000000  0.82010164  0.04604807  1
  Tm  Tm5  1  0.75000000  0.17989836  0.95395193  1
  Tm  Tm6  1  0.25000000  0.47776177  0.08757681  1
  Tm  Tm7  1  0.75000000  0.52223823  0.91242319  1
  S  S0  1  0.25000000  0.08546354  0.03691035  1
  S  S1  1  0.75000000  0.91453646  0.96308965  1
  S  S2  1  0.25000000  0.20415213  0.36520549  1
  S  S3  1  0.75000000  0.79584787  0.63479451  1
  S  S4  1  0.25000000  0.74579951  0.32380902  1
  S  S5  1  0.75000000  0.25420049  0.67619098  1
  S  S6  1  0.25000000  0.63584660  0.96426937  1
  S  S7  1  0.75000000  0.36415340  0.03573063  1
  S  S8  1  0.25000000  0.50558607  0.22014572  1
  S  S9  1  0.75000000  0.49441393  0.77985428  1
  S  S10  1  0.25000000  0.25245888  0.17333093  1
  S  S11  1  0.75000000  0.74754112  0.82666907  1
  S  S12  1  0.25000000  0.87437379  0.16317771  1
  S  S13  1  0.75000000  0.12562621  0.83682229  1
  S  S14  1  0.25000000  0.35649306  0.51376524  1
  S  S15  1  0.75000000  0.64350694  0.48623476  1
  S  S16  1  0.25000000  0.05809815  0.55532893  1
  S  S17  1  0.75000000  0.94190185  0.44467107  1
  S  S18  1  0.25000000  0.96256942  0.72895872  1
  S  S19  1  0.75000000  0.03743058  0.27104128  1
  S  S20  1  0.25000000  0.54630419  0.63425032  1
  S  S21  1  0.75000000  0.45369581  0.36574968  1
  S  S22  1  0.25000000  0.34185492  0.90109091  1
  S  S23  1  0.75000000  0.65814508  0.09890909  1
loop_
_geom_bond_atom_site_label_1
_geom_bond_atom_site_label_2
_geom_bond_distance
_geom_bond_site_symmetry_2
Nd0 S5 2.877419 1_555
Nd0 S5 2.877419 1_455
Nd0 S9 2.931656 1_555
Nd0 S9 2.931656 1_455
Nd0 S13 2.970955 1_455
Nd0 S13 2.970955 1_555
Nd0 S22 3.003266 1_555
Nd0 S20 3.477433 1_555
Nd1 S4 2.877419 1_655
Nd1 S4 2.877419 1_555
Nd1 S8 2.931656 1_655
Nd1 S8 2.931656 1_555
Nd1 S12 2.970955 1_555
Nd1 S12 2.970955 1_655
Nd1 S23 3.003266 1_555
Nd1 S21 3.477433 1_555
Nd2 S18 2.818301 1_555
Nd2 S11 2.863830 1_455
Nd2 S11 2.863830 1_555
Nd2 S1 2.914540 1_455
Nd2 S1 2.914540 1_555
Nd2 S13 3.048957 1_565
Nd2 S13 3.048957 1_465
Nd2 S6 3.339237 1_555
Nd3 S19 2.818301 1_555
Nd3 S10 2.863830 1_555
Nd3 S10 2.863830 1_655
Nd3 S0 2.914540 1_555
Nd3 S0 2.914540 1_655
Nd3 S12 3.048957 1_545
Nd3 S12 3.048957 1_645
Nd3 S7 3.339237 1_555
Nd4 S20 2.891506 1_555
Nd4 S3 2.940399 1_555
Nd4 S3 2.940399 1_455
Nd4 S9 2.954592 1_455
Nd4 S9 2.954592 1_555
Nd4 S18 2.956489 1_555
Nd4 S11 2.958927 1_555
Nd4 S11 2.958927 1_455
Nd5 S21 2.891506 1_555
Nd5 S2 2.940399 1_655
Nd5 S2 2.940399 1_555
Nd5 S8 2.954592 1_655
Nd5 S8 2.954592 1_555
Nd5 S19 2.956489 1_555
Nd5 S10 2.958927 1_655
Nd5 S10 2.958927 1_555
Nd6 S3 2.869431 1_455
Nd6 S3 2.869431 1_555
Nd6 S15 2.947144 1_455
Nd6 S15 2.947144 1_555
Nd6 S16 2.953281 1_565
Nd6 S17 3.005289 1_455
Nd6 S17 3.005289 1_555
Nd6 S20 3.120079 1_555
Nd7 S2 2.869431 1_555
Nd7 S2 2.869431 1_655
Nd7 S14 2.947144 1_555
Nd7 S14 2.947144 1_655
Nd7 S17 2.953281 1_545
Nd7 S16 3.005289 1_555
Nd7 S16 3.005289 1_655
Nd7 S21 3.120079 1_555
S0 Tm5 2.716038 1_554
S0 Tm5 2.716038 1_454
S0 Tm4 2.882396 1_545
S1 Tm4 2.716038 1_656
S1 Tm4 2.716038 1_556
S1 Tm5 2.882396 1_565
S2 Tm2 2.647263 1_545
S3 Tm3 2.647263 1_565
S4 Tm0 2.598103 1_555
S4 Tm2 2.641908 1_555
S5 Tm1 2.598103 1_555
S5 Tm3 2.641908 1_555
S6 Tm7 2.685012 1_455
S6 Tm7 2.685012 1_555
S6 Tm6 2.859357 1_556
S6 Tm4 2.925799 1_556
S7 Tm6 2.685012 1_655
S7 Tm6 2.685012 1_555
S7 Tm7 2.859357 1_554
S7 Tm5 2.925799 1_554
S8 Tm6 2.914221 1_555
S9 Tm7 2.914221 1_555
S10 Tm6 2.775184 1_555
S11 Tm7 2.775184 1_555
S12 Tm4 2.689783 1_555
S13 Tm5 2.689783 1_555
S14 Tm0 2.689902 1_555
S14 Tm1 2.767404 1_455
S14 Tm1 2.767404 1_555
S15 Tm1 2.689902 1_555
S15 Tm0 2.767404 1_555
S15 Tm0 2.767404 1_655
S16 Tm3 2.778971 1_555
S16 Tm3 2.778971 1_455
S17 Tm2 2.778971 1_655
S17 Tm2 2.778971 1_555
S18 Tm3 2.621449 1_465
S18 Tm3 2.621449 1_565
S19 Tm2 2.621449 1_545
S19 Tm2 2.621449 1_645
S20 Tm1 2.593973 1_455
S20 Tm1 2.593973 1_555
S21 Tm0 2.593973 1_555
S21 Tm0 2.593973 1_655
S22 Tm5 2.742964 1_455
S22 Tm5 2.742964 1_555
S22 Tm7 2.836750 1_555
S22 Tm7 2.836750 1_455
S23 Tm4 2.742964 1_655
S23 Tm4 2.742964 1_555
S23 Tm6 2.836750 1_555
S23 Tm6 2.836750 1_655
