# generated using pymatgen
data_KSmEuWO6
_symmetry_space_group_name_H-M   'P 1'
_cell_length_a   8.47531611
_cell_length_b   8.43506728
_cell_length_c   8.43612692
_cell_angle_alpha   90.00000000
_cell_angle_beta   90.00000000
_cell_angle_gamma   90.00000000
_symmetry_Int_Tables_number   1
_chemical_formula_structural   KSmEuWO6
_chemical_formula_sum   'K4 Sm4 Eu4 W4 O24'
_cell_volume   603.09754601
_cell_formula_units_Z   4
loop_
 _symmetry_equiv_pos_site_id
 _symmetry_equiv_pos_as_xyz
  1  'x, y, z'
loop_
 _atom_site_type_symbol
 _atom_site_label
 _atom_site_symmetry_multiplicity
 _atom_site_fract_x
 _atom_site_fract_y
 _atom_site_fract_z
 _atom_site_occupancy
  K  K0  1  -0.00000000  0.50000000  0.50000000  1
  K  K1  1  0.50000000  -0.00000000  0.50000000  1
  K  K2  1  0.50000000  -0.00000000  0.00000000  1
  K  K3  1  -0.00000000  0.50000000  -0.00000000  1
  Sm  Sm0  1  0.75000000  0.75000000  0.75000000  1
  Sm  Sm1  1  0.25000000  0.25000000  0.75000000  1
  Sm  Sm2  1  0.25000000  0.75000000  0.25000000  1
  Sm  Sm3  1  0.75000000  0.25000000  0.25000000  1
  Eu  Eu0  1  0.50000000  0.50000000  0.00000000  1
  Eu  Eu1  1  -0.00000000  -0.00000000  0.50000000  1
  Eu  Eu2  1  0.00000000  -0.00000000  0.00000000  1
  Eu  Eu3  1  0.50000000  0.50000000  0.50000000  1
  W  W0  1  0.25000000  0.25000000  0.25000000  1
  W  W1  1  0.75000000  0.75000000  0.25000000  1
  W  W2  1  0.75000000  0.25000000  0.75000000  1
  W  W3  1  0.25000000  0.75000000  0.75000000  1
  O  O0  1  0.01989020  0.21347774  0.27449951  1
  O  O1  1  0.98010980  0.78652226  0.27449951  1
  O  O2  1  0.98010980  0.21347774  0.72550049  1
  O  O3  1  0.01989020  0.78652226  0.72550049  1
  O  O4  1  0.26612315  0.02109137  0.22294012  1
  O  O5  1  0.26612315  0.97890863  0.77705988  1
  O  O6  1  0.73387685  0.97890863  0.22294012  1
  O  O7  1  0.73387685  0.02109137  0.77705988  1
  O  O8  1  0.22455046  0.27195589  0.02088510  1
  O  O9  1  0.77544954  0.27195589  0.97911490  1
  O  O10  1  0.22455046  0.72804411  0.97911490  1
  O  O11  1  0.77544954  0.72804411  0.02088510  1
  O  O12  1  0.48010980  0.28652226  0.22550049  1
  O  O13  1  0.51989020  0.71347774  0.22550049  1
  O  O14  1  0.51989020  0.28652226  0.77449951  1
  O  O15  1  0.48010980  0.71347774  0.77449951  1
  O  O16  1  0.23387685  0.47890863  0.27705988  1
  O  O17  1  0.23387685  0.52109137  0.72294012  1
  O  O18  1  0.76612315  0.52109137  0.27705988  1
  O  O19  1  0.76612315  0.47890863  0.72294012  1
  O  O20  1  0.27544954  0.22804411  0.47911490  1
  O  O21  1  0.72455046  0.22804411  0.52088510  1
  O  O22  1  0.27544954  0.77195589  0.52088510  1
  O  O23  1  0.72455046  0.77195589  0.47911490  1
loop_
_geom_bond_atom_site_label_1
_geom_bond_atom_site_label_2
_geom_bond_distance
_geom_bond_site_symmetry_2
K0 O17 2.738232 1_555
K0 O19 2.738232 1_455
K0 O16 2.738232 1_555
K0 O18 2.738232 1_455
K0 O1 3.080332 1_455
K0 O0 3.080332 1_555
K0 O2 3.080332 1_455
K0 O3 3.080332 1_555
K0 O23 3.277700 1_455
K0 O20 3.277700 1_555
K0 O21 3.277700 1_455
K0 O22 3.277700 1_555
K1 O20 2.711657 1_555
K1 O22 2.711657 1_545
K1 O21 2.711657 1_555
K1 O23 2.711657 1_545
K1 O4 3.069808 1_555
K1 O6 3.069808 1_545
K1 O7 3.069808 1_555
K1 O5 3.069808 1_545
K2 O7 2.738232 1_554
K2 O5 2.738232 1_544
K2 O4 2.738232 1_555
K2 O6 2.738232 1_545
K2 O12 3.080332 1_555
K2 O14 3.080332 1_554
K2 O13 3.080332 1_545
K2 O15 3.080332 1_544
K2 O10 3.277700 1_544
K2 O11 3.277700 1_545
K2 O8 3.277700 1_555
K2 O9 3.277700 1_554
K3 O10 2.711657 1_554
K3 O11 2.711657 1_455
K3 O9 2.711657 1_454
K3 O8 2.711657 1_555
K3 O16 3.069808 1_555
K3 O17 3.069808 1_554
K3 O18 3.069808 1_455
K3 O19 3.069808 1_454
Eu0 O13 2.624857 1_555
Eu0 O15 2.624857 1_554
Eu0 O12 2.624857 1_555
Eu0 O14 2.624857 1_554
Eu1 O3 2.624857 1_545
Eu1 O1 2.624857 1_445
Eu1 O0 2.624857 1_555
Eu1 O2 2.624857 1_455
Eu2 O3 2.938275 1_544
Eu2 O1 2.938275 1_445
Eu2 O2 2.938275 1_454
Eu2 O0 2.938275 1_555
Eu2 O5 2.942118 1_544
Eu2 O7 2.942118 1_454
Eu2 O6 2.942118 1_445
Eu2 O4 2.942118 1_555
Eu2 O11 2.985842 1_445
Eu2 O10 2.985842 1_544
Eu2 O9 2.985842 1_454
Eu2 O8 2.985842 1_555
Eu3 O14 2.938275 1_555
Eu3 O15 2.938275 1_555
Eu3 O13 2.938275 1_555
Eu3 O12 2.938275 1_555
Eu3 O17 2.942118 1_555
Eu3 O19 2.942118 1_555
Eu3 O18 2.942118 1_555
Eu3 O16 2.942118 1_555
Eu3 O22 2.985842 1_555
Eu3 O20 2.985842 1_555
Eu3 O23 2.985842 1_555
Eu3 O21 2.985842 1_555
O0 W0 1.985223 1_555
O0 Sm3 2.317292 1_455
O1 W1 1.985223 1_555
O1 Sm2 2.317292 1_655
O2 W2 1.985223 1_555
O2 Sm1 2.317292 1_655
O3 W3 1.985223 1_555
O3 Sm0 2.317292 1_455
O4 W0 1.949103 1_555
O4 Sm2 2.302100 1_545
O5 W3 1.949103 1_555
O5 Sm1 2.302100 1_565
O6 W1 1.949103 1_555
O6 Sm3 2.302100 1_565
O7 W2 1.949103 1_555
O7 Sm0 2.302100 1_545
O8 W0 1.953638 1_555
O8 Sm1 2.302837 1_554
O9 W2 1.953638 1_555
O9 Sm3 2.302837 1_556
O10 W3 1.953638 1_555
O10 Sm2 2.302837 1_556
O11 W1 1.953638 1_555
O11 Sm0 2.302837 1_554
O12 W0 1.985223 1_555
O12 Sm3 2.317292 1_555
O13 W1 1.985223 1_555
O13 Sm2 2.317292 1_555
O14 W2 1.985223 1_555
O14 Sm1 2.317292 1_555
O15 W3 1.985223 1_555
O15 Sm0 2.317292 1_555
O16 W0 1.949103 1_555
O16 Sm2 2.302100 1_555
O17 W3 1.949103 1_555
O17 Sm1 2.302100 1_555
O18 W1 1.949103 1_555
O18 Sm3 2.302100 1_555
O19 W2 1.949103 1_555
O19 Sm0 2.302100 1_555
O20 W0 1.953638 1_555
O20 Sm1 2.302837 1_555
O21 W2 1.953638 1_555
O21 Sm3 2.302837 1_555
O22 W3 1.953638 1_555
O22 Sm2 2.302837 1_555
O23 W1 1.953638 1_555
O23 Sm0 2.302837 1_555
