# generated using pymatgen
data_Te6Mo3WSe2
_symmetry_space_group_name_H-M   'P 1'
_cell_length_a   3.49919409
_cell_length_b   3.49919409
_cell_length_c   39.59251600
_cell_angle_alpha   90.00000000
_cell_angle_beta   90.00000000
_cell_angle_gamma   120.00000169
_symmetry_Int_Tables_number   1
_chemical_formula_structural   Te6Mo3WSe2
_chemical_formula_sum   'Te6 Mo3 W1 Se2'
_cell_volume   419.83611001
_cell_formula_units_Z   1
loop_
 _symmetry_equiv_pos_site_id
 _symmetry_equiv_pos_as_xyz
  1  'x, y, z'
loop_
 _atom_site_type_symbol
 _atom_site_label
 _atom_site_symmetry_multiplicity
 _atom_site_fract_x
 _atom_site_fract_y
 _atom_site_fract_z
 _atom_site_occupancy
  Te  Te0  1  0.00000000  0.00000000  0.32807400  1
  Te  Te1  1  0.00000000  0.00000000  0.70382200  1
  Te  Te2  1  0.33333300  0.66666700  0.42308800  1
  Te  Te3  1  0.33333300  0.66666700  0.51623500  1
  Te  Te4  1  0.00000000  0.00000000  0.23549500  1
  Te  Te5  1  0.00000000  0.00000000  0.61124500  1
  Mo  Mo0  1  0.00000000  0.00000000  0.09391800  1
  Mo  Mo1  1  0.33333300  0.66666700  0.28177200  1
  Mo  Mo2  1  0.33333300  0.66666700  0.65755000  1
  W  W0  1  0.00000000  0.00000000  0.46965900  1
  Se  Se0  1  0.33333300  0.66666700  0.05305600  1
  Se  Se1  1  0.33333300  0.66666700  0.13483300  1
loop_
_geom_bond_atom_site_label_1
_geom_bond_atom_site_label_2
_geom_bond_distance
_geom_bond_site_symmetry_2
Te2 W0 2.735192 1_565
Te2 W0 2.735194 1_665
Te2 W0 2.735194 1_555
Te3 W0 2.735326 1_565
Te3 W0 2.735328 1_555
Te3 W0 2.735328 1_665
Mo0 Se0 2.588207 1_545
Mo0 Se0 2.588210 1_445
Mo0 Se0 2.588210 1_555
Mo0 Se1 2.589519 1_545
Mo0 Se1 2.589522 1_555
Mo0 Se1 2.589522 1_445
Mo1 Te4 2.727359 1_565
Mo1 Te4 2.727361 1_665
Mo1 Te4 2.727361 1_555
Mo1 Te0 2.728024 1_565
Mo1 Te0 2.728026 1_555
Mo1 Te0 2.728026 1_665
Mo2 Te1 2.727226 1_565
Mo2 Te1 2.727228 1_665
Mo2 Te1 2.727228 1_555
Mo2 Te5 2.728104 1_565
Mo2 Te5 2.728106 1_665
Mo2 Te5 2.728106 1_555
