# generated using pymatgen
data_Mg2Ti3O8
_symmetry_space_group_name_H-M   'P 1'
_cell_length_a   5.95508534
_cell_length_b   5.95508534
_cell_length_c   9.50825500
_cell_angle_alpha   90.00000000
_cell_angle_beta   90.00000000
_cell_angle_gamma   119.99999271
_symmetry_Int_Tables_number   1
_chemical_formula_structural   Mg2Ti3O8
_chemical_formula_sum   'Mg4 Ti6 O16'
_cell_volume   292.01654867
_cell_formula_units_Z   2
loop_
 _symmetry_equiv_pos_site_id
 _symmetry_equiv_pos_as_xyz
  1  'x, y, z'
loop_
 _atom_site_type_symbol
 _atom_site_label
 _atom_site_symmetry_multiplicity
 _atom_site_fract_x
 _atom_site_fract_y
 _atom_site_fract_z
 _atom_site_occupancy
  Mg  Mg0  1  0.66666700  0.33333300  0.02284100  1
  Mg  Mg1  1  0.33333300  0.66666700  0.52284100  1
  Mg  Mg2  1  0.66666700  0.33333300  0.41802500  1
  Mg  Mg3  1  0.33333300  0.66666700  0.91802500  1
  Ti  Ti0  1  0.67388100  0.83694100  0.24418100  1
  Ti  Ti1  1  0.83694100  0.16305900  0.74418100  1
  Ti  Ti2  1  0.16305900  0.32611900  0.24418100  1
  Ti  Ti3  1  0.83694100  0.67388100  0.74418100  1
  Ti  Ti4  1  0.32611900  0.16305900  0.74418100  1
  Ti  Ti5  1  0.16305900  0.83694100  0.24418100  1
  O  O0  1  0.83618300  0.16381700  0.14637600  1
  O  O1  1  0.67236600  0.83618300  0.64637600  1
  O  O2  1  0.16381700  0.32763400  0.64637600  1
  O  O3  1  0.83618300  0.67236600  0.14637600  1
  O  O4  1  0.32763400  0.16381700  0.14637600  1
  O  O5  1  0.16381700  0.83618300  0.64637600  1
  O  O6  1  0.51887200  0.48112800  0.86621200  1
  O  O7  1  0.03774300  0.51887200  0.36621200  1
  O  O8  1  0.48112800  0.96225700  0.36621200  1
  O  O9  1  0.51887200  0.03774300  0.86621200  1
  O  O10  1  0.00000000  0.00000000  0.35098000  1
  O  O11  1  0.00000000  0.00000000  0.85098000  1
  O  O12  1  0.33333300  0.66666700  0.13134900  1
  O  O13  1  0.96225700  0.48112800  0.86621200  1
  O  O14  1  0.48112800  0.51887200  0.36621200  1
  O  O15  1  0.66666700  0.33333300  0.63134900  1
loop_
_geom_bond_atom_site_label_1
_geom_bond_atom_site_label_2
_geom_bond_distance
_geom_bond_site_symmetry_2
Mg0 O0 2.106384 1_555
Mg0 O3 2.106388 1_555
Mg0 O4 2.106388 1_555
Mg0 O6 2.131154 1_554
Mg0 O13 2.131154 1_554
Mg0 O9 2.131154 1_554
Mg1 O5 2.106384 1_555
Mg1 O1 2.106388 1_555
Mg1 O2 2.106388 1_555
Mg1 O14 2.131154 1_555
Mg1 O8 2.131154 1_555
Mg1 O7 2.131154 1_555
Mg2 O7 1.976128 1_655
Mg2 O8 1.976128 1_545
Mg2 O14 1.976138 1_555
Mg2 O15 2.028339 1_555
Mg3 O9 1.976128 1_565
Mg3 O13 1.976128 1_455
Mg3 O6 1.976138 1_555
Mg3 O12 2.028339 1_556
O0 Ti2 1.925286 1_655
O0 Ti0 1.925286 1_545
O1 Ti1 1.925286 1_565
O1 Ti3 1.925290 1_555
O2 Ti1 1.925286 1_455
O2 Ti4 1.925290 1_555
O3 Ti5 1.925286 1_655
O3 Ti0 1.925290 1_555
O4 Ti5 1.925286 1_545
O4 Ti2 1.925290 1_555
O5 Ti4 1.925286 1_565
O5 Ti3 1.925286 1_455
O6 Ti3 2.019260 1_555
O6 Ti4 2.019260 1_555
O7 Ti2 2.019260 1_555
O7 Ti5 2.019260 1_555
O8 Ti0 2.019260 1_555
O8 Ti5 2.019260 1_555
O9 Ti4 2.019260 1_555
O9 Ti1 2.019260 1_555
O10 Ti5 1.964658 1_545
O10 Ti2 1.964663 1_555
O10 Ti0 1.964663 1_445
O11 Ti1 1.964658 1_455
O11 Ti4 1.964663 1_555
O11 Ti3 1.964663 1_445
O12 Ti5 2.058043 1_555
O12 Ti0 2.058043 1_555
O12 Ti2 2.058043 1_555
O13 Ti3 2.019260 1_555
O13 Ti1 2.019260 1_555
O14 Ti0 2.019260 1_555
O14 Ti2 2.019260 1_555
O15 Ti1 2.058043 1_555
O15 Ti3 2.058043 1_555
O15 Ti4 2.058043 1_555
