# generated using pymatgen
data_K2H3IrNCl5
_symmetry_space_group_name_H-M   'P 1'
_cell_length_a   7.04124600
_cell_length_b   10.15183900
_cell_length_c   13.80273400
_cell_angle_alpha   90.00000000
_cell_angle_beta   90.00000000
_cell_angle_gamma   90.00000000
_symmetry_Int_Tables_number   1
_chemical_formula_structural   K2H3IrNCl5
_chemical_formula_sum   'K8 H12 Ir4 N4 Cl20'
_cell_volume   986.64145205
_cell_formula_units_Z   4
loop_
 _symmetry_equiv_pos_site_id
 _symmetry_equiv_pos_as_xyz
  1  'x, y, z'
loop_
 _atom_site_type_symbol
 _atom_site_label
 _atom_site_symmetry_multiplicity
 _atom_site_fract_x
 _atom_site_fract_y
 _atom_site_fract_z
 _atom_site_occupancy
  K  K0  1  0.86885600  0.50139100  0.34675900  1
  K  K1  1  0.63114400  0.99860900  0.84675900  1
  K  K2  1  0.13114400  0.00139100  0.65324100  1
  K  K3  1  0.36885600  0.49860900  0.15324100  1
  K  K4  1  0.13114400  0.49860900  0.65324100  1
  K  K5  1  0.36885600  0.00139100  0.15324100  1
  K  K6  1  0.86885600  0.99860900  0.34675900  1
  K  K7  1  0.63114400  0.50139100  0.84675900  1
  H  H0  1  0.08098100  0.83217600  0.99586700  1
  H  H1  1  0.41901900  0.66782400  0.49586700  1
  H  H2  1  0.91901900  0.33217700  0.00413300  1
  H  H3  1  0.58098100  0.16782400  0.50413300  1
  H  H4  1  0.91901900  0.16782400  0.00413300  1
  H  H5  1  0.58098100  0.33217700  0.50413300  1
  H  H6  1  0.08098100  0.66782400  0.99586700  1
  H  H7  1  0.41901900  0.83217600  0.49586700  1
  H  H8  1  0.92239000  0.75000000  0.93212100  1
  H  H9  1  0.57761000  0.75000000  0.43212100  1
  H  H10  1  0.07761000  0.25000000  0.06787900  1
  H  H11  1  0.42239000  0.25000000  0.56787900  1
  Ir  Ir0  1  0.81361400  0.75000000  0.11413900  1
  Ir  Ir1  1  0.68638600  0.75000000  0.61413900  1
  Ir  Ir2  1  0.18638600  0.25000000  0.88586100  1
  Ir  Ir3  1  0.31361400  0.25000000  0.38586100  1
  N  N0  1  0.99491700  0.75000000  0.99668500  1
  N  N1  1  0.50508300  0.75000000  0.49668500  1
  N  N2  1  0.00508300  0.25000000  0.00331500  1
  N  N3  1  0.49491700  0.25000000  0.50331500  1
  Cl  Cl0  1  0.08529300  0.75000000  0.21534700  1
  Cl  Cl1  1  0.41470700  0.75000000  0.71534700  1
  Cl  Cl2  1  0.91470700  0.25000000  0.78465300  1
  Cl  Cl3  1  0.58529300  0.25000000  0.28465300  1
  Cl  Cl4  1  0.81700900  0.51684900  0.11094500  1
  Cl  Cl5  1  0.68299100  0.98315100  0.61094500  1
  Cl  Cl6  1  0.18299100  0.01684900  0.88905500  1
  Cl  Cl7  1  0.31700900  0.48315100  0.38905500  1
  Cl  Cl8  1  0.18299100  0.48315100  0.88905500  1
  Cl  Cl9  1  0.31700900  0.01684900  0.38905500  1
  Cl  Cl10  1  0.81700900  0.98315100  0.11094500  1
  Cl  Cl11  1  0.68299100  0.51684900  0.61094500  1
  Cl  Cl12  1  0.54788800  0.75000000  0.00656400  1
  Cl  Cl13  1  0.95211200  0.75000000  0.50656400  1
  Cl  Cl14  1  0.45211200  0.25000000  0.99343600  1
  Cl  Cl15  1  0.04788800  0.25000000  0.49343600  1
  Cl  Cl16  1  0.60746200  0.75000000  0.25386400  1
  Cl  Cl17  1  0.89253800  0.75000000  0.75386400  1
  Cl  Cl18  1  0.39253800  0.25000000  0.74613600  1
  Cl  Cl19  1  0.10746200  0.25000000  0.24613600  1
loop_
_geom_bond_atom_site_label_1
_geom_bond_atom_site_label_2
_geom_bond_distance
_geom_bond_site_symmetry_2
H0 N0 1.031171 1_455
H1 N1 1.031171 1_555
H2 N2 1.031179 1_655
H3 N3 1.031171 1_555
H4 N2 1.031171 1_655
H5 N3 1.031179 1_555
H6 N0 1.031171 1_455
H7 N1 1.031171 1_555
H8 N0 1.027113 1_555
H9 N1 1.027113 1_555
H10 N2 1.027113 1_555
H11 N3 1.027113 1_555
Ir0 N0 2.063480 1_554
Ir1 N1 2.063480 1_555
Ir2 N2 2.063480 1_556
Ir3 N3 2.063480 1_555
Cl0 Ir0 2.368728 1_455
Cl0 K5 3.351794 1_565
Cl0 K3 3.351794 1_555
Cl0 K6 3.461550 1_455
Cl0 K0 3.461550 1_455
Cl1 Ir1 2.368728 1_555
Cl1 K2 3.351794 1_565
Cl1 K4 3.351794 1_555
Cl1 K7 3.461550 1_555
Cl1 K1 3.461550 1_555
Cl2 Ir2 2.368728 1_655
Cl2 K7 3.351794 1_555
Cl2 K1 3.351794 1_545
Cl2 K4 3.461550 1_655
Cl2 K2 3.461550 1_655
Cl3 Ir3 2.368728 1_555
Cl3 K0 3.351794 1_555
Cl3 K6 3.351794 1_545
Cl3 K3 3.461550 1_555
Cl3 K5 3.461550 1_555
Cl4 Ir0 2.367443 1_555
Cl4 K3 3.214443 1_555
Cl4 K0 3.279044 1_555
Cl5 Ir1 2.367443 1_555
Cl5 K2 3.214443 1_665
Cl5 K1 3.279044 1_555
Cl6 Ir2 2.367443 1_555
Cl6 K1 3.214443 1_545
Cl6 K2 3.279044 1_555
Cl7 Ir3 2.367443 1_555
Cl7 K0 3.214443 1_455
Cl7 K3 3.279044 1_555
Cl8 Ir2 2.367443 1_555
Cl8 K7 3.214443 1_555
Cl8 K4 3.279044 1_555
Cl9 Ir3 2.367443 1_555
Cl9 K6 3.214443 1_445
Cl9 K5 3.279044 1_555
Cl10 Ir0 2.367443 1_555
Cl10 K5 3.214443 1_565
Cl10 K6 3.279044 1_555
Cl11 Ir1 2.367443 1_555
Cl11 K4 3.214443 1_655
Cl11 K7 3.279044 1_555
Cl12 Ir0 2.388622 1_555
Cl12 K7 3.402754 1_554
Cl12 K1 3.402754 1_554
Cl12 K5 3.492997 1_565
Cl12 K3 3.492997 1_555
Cl13 Ir1 2.388622 1_555
Cl13 K6 3.402754 1_555
Cl13 K0 3.402754 1_555
Cl13 K2 3.492997 1_665
Cl13 K4 3.492997 1_655
Cl14 Ir2 2.388622 1_555
Cl14 K3 3.402754 1_556
Cl14 K5 3.402754 1_556
Cl14 K7 3.492997 1_555
Cl14 K1 3.492997 1_545
Cl15 Ir3 2.388622 1_555
Cl15 K4 3.402754 1_555
Cl15 K2 3.402754 1_555
Cl15 K0 3.492997 1_455
Cl15 K6 3.492997 1_445
Cl16 Ir0 2.413813 1_555
Cl16 K5 3.356302 1_565
Cl16 K3 3.356302 1_555
Cl16 K6 3.376595 1_555
Cl16 K0 3.376595 1_555
Cl17 Ir1 2.413813 1_555
Cl17 K2 3.356302 1_665
Cl17 K4 3.356302 1_655
Cl17 K7 3.376595 1_555
Cl17 K1 3.376595 1_555
Cl18 Ir2 2.413813 1_555
Cl18 K7 3.356302 1_555
Cl18 K1 3.356302 1_545
Cl18 K4 3.376595 1_555
Cl18 K2 3.376595 1_555
Cl19 Ir3 2.413813 1_555
Cl19 K0 3.356302 1_455
Cl19 K6 3.356302 1_445
Cl19 K3 3.376595 1_555
Cl19 K5 3.376595 1_555
