# generated using pymatgen
data_V2ZnO4
_symmetry_space_group_name_H-M   'P 1'
_cell_length_a   6.09334534
_cell_length_b   6.09334534
_cell_length_c   14.87080717
_cell_angle_alpha   89.14760067
_cell_angle_beta   89.14760067
_cell_angle_gamma   59.76978443
_symmetry_Int_Tables_number   1
_chemical_formula_structural   V2ZnO4
_chemical_formula_sum   'V12 Zn6 O24'
_cell_volume   476.98053941
_cell_formula_units_Z   6
loop_
 _symmetry_equiv_pos_site_id
 _symmetry_equiv_pos_as_xyz
  1  'x, y, z'
loop_
 _atom_site_type_symbol
 _atom_site_label
 _atom_site_symmetry_multiplicity
 _atom_site_fract_x
 _atom_site_fract_y
 _atom_site_fract_z
 _atom_site_occupancy
  V  V0  1  0.16991500  0.66766800  0.83298100  1
  V  V1  1  0.49624200  0.49624200  0.62270900  1
  V  V2  1  0.50020000  0.50020000  0.99784500  1
  V  V3  1  0.66766800  0.16991500  0.83298100  1
  V  V4  1  0.49957300  0.00049500  0.50050300  1
  V  V5  1  0.82899400  0.82899400  0.29110400  1
  V  V6  1  0.00049500  0.49957300  0.50050300  1
  V  V7  1  0.83343100  0.33215800  0.16665100  1
  V  V8  1  0.17211600  0.17211600  0.71204200  1
  V  V9  1  0.33215800  0.83343100  0.16665100  1
  V  V10  1  0.50435700  0.50435700  0.37687100  1
  V  V11  1  0.83527600  0.83527600  0.04103400  1
  Zn  Zn0  1  0.16195600  0.16195600  0.95781800  1
  Zn  Zn1  1  0.83306600  0.83306600  0.66681700  1
  Zn  Zn2  1  0.66847400  0.66847400  0.83346300  1
  Zn  Zn3  1  0.16782800  0.16782800  0.33346500  1
  Zn  Zn4  1  0.00049500  0.00049500  0.50066800  1
  Zn  Zn5  1  0.33073600  0.33073600  0.16640900  1
  O  O0  1  0.34347700  0.80349100  0.91555500  1
  O  O1  1  0.49632800  0.49632800  0.75387200  1
  O  O2  1  0.80349100  0.34347700  0.91555500  1
  O  O3  1  0.34717100  0.34717100  0.91313500  1
  O  O4  1  0.66995400  0.14901400  0.57947900  1
  O  O5  1  0.99631500  0.99631500  0.75773400  1
  O  O6  1  0.82527300  0.82527300  0.42313000  1
  O  O7  1  0.51803800  0.00489000  0.75578200  1
  O  O8  1  0.14901400  0.66995400  0.57947900  1
  O  O9  1  0.83959500  0.83959500  0.91092900  1
  O  O10  1  0.67195400  0.67195400  0.57747000  1
  O  O11  1  0.00489000  0.51803800  0.75578200  1
  O  O12  1  0.99759700  0.48451400  0.24590700  1
  O  O13  1  0.32848500  0.32848500  0.42219200  1
  O  O14  1  0.85141800  0.33330500  0.42070400  1
  O  O15  1  0.48451400  0.99759700  0.24590700  1
  O  O16  1  0.15947100  0.15947100  0.09357600  1
  O  O17  1  0.17516500  0.17516500  0.57844900  1
  O  O18  1  0.00358000  0.00358000  0.24369600  1
  O  O19  1  0.33330500  0.85141800  0.42070400  1
  O  O20  1  0.65567400  0.65567400  0.08509900  1
  O  O21  1  0.18598200  0.66434900  0.08440700  1
  O  O22  1  0.50538800  0.50538800  0.24308000  1
  O  O23  1  0.66434900  0.18598200  0.08440700  1
loop_
_geom_bond_atom_site_label_1
_geom_bond_atom_site_label_2
_geom_bond_distance
_geom_bond_site_symmetry_2
O0 Zn0 1.994184 1_565
O0 V2 2.003783 1_555
O0 V0 2.064334 1_555
O0 Zn2 2.099097 1_555
O1 V1 1.950515 1_555
O1 V3 2.075050 1_555
O1 V0 2.075050 1_555
O1 Zn2 2.187064 1_555
O2 Zn0 1.994184 1_655
O2 V2 2.003783 1_555
O2 V3 2.064334 1_555
O2 Zn2 2.099097 1_555
O3 Zn0 2.055924 1_555
O3 V3 2.060641 1_555
O3 V0 2.060641 1_555
O3 V2 2.066697 1_555
O4 V1 1.943020 1_555
O4 V4 2.071255 1_555
O4 Zn4 2.091666 1_655
O4 Zn1 2.101970 1_545
O5 V8 1.966943 1_665
O5 V3 2.053491 1_565
O5 V0 2.053491 1_655
O5 Zn1 2.209822 1_555
O6 V5 1.963052 1_555
O6 V6 2.058501 1_655
O6 V4 2.058501 1_565
O6 Zn4 2.197860 1_665
O7 V8 1.939751 1_555
O7 V3 2.036916 1_555
O7 Zn2 2.108487 1_545
O7 Zn1 2.114980 1_545
O8 V1 1.943020 1_555
O8 V6 2.071255 1_555
O8 Zn4 2.091666 1_565
O8 Zn1 2.101970 1_455
O9 V11 1.934522 1_556
O9 V0 2.082251 1_655
O9 V3 2.082251 1_565
O9 Zn2 2.160501 1_555
O10 V1 1.963852 1_555
O10 V4 2.066685 1_565
O10 V6 2.066685 1_655
O10 Zn1 2.177368 1_555
O11 V8 1.939751 1_555
O11 V0 2.036916 1_555
O11 Zn2 2.108487 1_455
O11 Zn1 2.114980 1_455
O12 V5 1.939880 1_555
O12 V7 2.062603 1_555
O12 Zn5 2.107717 1_655
O12 Zn3 2.108283 1_655
O13 V10 1.965838 1_555
O13 V6 2.075115 1_555
O13 V4 2.075115 1_555
O13 Zn3 2.167813 1_555
O14 V10 1.945445 1_555
O14 V6 2.062601 1_655
O14 Zn3 2.103295 1_655
O14 Zn4 2.111190 1_655
O15 V5 1.939880 1_555
O15 V9 2.062603 1_555
O15 Zn5 2.107717 1_565
O15 Zn3 2.108283 1_565
O16 Zn0 2.018551 1_554
O16 V7 2.024788 1_455
O16 V9 2.024788 1_545
O16 Zn5 2.124867 1_555
O17 V8 1.986344 1_555
O17 V6 2.057628 1_555
O17 V4 2.057628 1_555
O17 Zn4 2.194850 1_555
O18 V5 1.963504 1_445
O18 V7 2.067132 1_455
O18 V9 2.067132 1_545
O18 Zn3 2.207588 1_555
O19 V10 1.945445 1_555
O19 V4 2.062601 1_565
O19 Zn3 2.103295 1_565
O19 Zn4 2.111190 1_565
O20 V11 1.997005 1_555
O20 V7 2.085153 1_555
O20 V9 2.085153 1_555
O20 V2 2.110792 1_554
O21 V11 1.961449 1_455
O21 V9 2.084365 1_555
O21 V2 2.088035 1_554
O21 Zn5 2.133103 1_555
O22 V10 1.989423 1_555
O22 V7 2.060338 1_555
O22 V9 2.060338 1_555
O22 Zn5 2.185795 1_555
O23 V11 1.961449 1_545
O23 V7 2.084365 1_555
O23 V2 2.088035 1_554
O23 Zn5 2.133103 1_555
