# generated using pymatgen
data_Lu(Al5Re)2
_symmetry_space_group_name_H-M   'P 1'
_cell_length_a   6.89270343
_cell_length_b   6.89270343
_cell_length_c   26.69222297
_cell_angle_alpha   90.00000000
_cell_angle_beta   90.00000000
_cell_angle_gamma   96.10817711
_symmetry_Int_Tables_number   1
_chemical_formula_structural   Lu(Al5Re)2
_chemical_formula_sum   'Lu6 Al60 Re12'
_cell_volume   1260.93097402
_cell_formula_units_Z   6
loop_
 _symmetry_equiv_pos_site_id
 _symmetry_equiv_pos_as_xyz
  1  'x, y, z'
loop_
 _atom_site_type_symbol
 _atom_site_label
 _atom_site_symmetry_multiplicity
 _atom_site_fract_x
 _atom_site_fract_y
 _atom_site_fract_z
 _atom_site_occupancy
  Lu  Lu0  1  0.87534221  0.12465779  0.58464767  1
  Lu  Lu1  1  0.12465779  0.87534221  0.41535233  1
  Lu  Lu2  1  0.12465779  0.87534221  0.08464767  1
  Lu  Lu3  1  0.87534221  0.12465779  0.91535233  1
  Lu  Lu4  1  0.61725723  0.38274277  0.75000000  1
  Lu  Lu5  1  0.38274277  0.61725723  0.25000000  1
  Al  Al0  1  0.59690454  0.40309546  0.63356619  1
  Al  Al1  1  0.40309546  0.59690454  0.36643381  1
  Al  Al2  1  0.40309546  0.59690454  0.13356619  1
  Al  Al3  1  0.59690454  0.40309546  0.86643381  1
  Al  Al4  1  0.17750253  0.39989035  0.75000000  1
  Al  Al5  1  0.82249747  0.60010965  0.25000000  1
  Al  Al6  1  0.60010965  0.82249747  0.75000000  1
  Al  Al7  1  0.39989035  0.17750253  0.25000000  1
  Al  Al8  1  0.87539350  0.12460650  0.14567035  1
  Al  Al9  1  0.12460650  0.87539350  0.85432965  1
  Al  Al10  1  0.12460650  0.87539350  0.64567035  1
  Al  Al11  1  0.87539350  0.12460650  0.35432965  1
  Al  Al12  1  0.37004815  0.62995185  0.67841581  1
  Al  Al13  1  0.62995185  0.37004815  0.32158419  1
  Al  Al14  1  0.62995185  0.37004815  0.17841581  1
  Al  Al15  1  0.37004815  0.62995185  0.82158419  1
  Al  Al16  1  0.22777510  0.47083765  0.58083746  1
  Al  Al17  1  0.77222490  0.52916235  0.41916254  1
  Al  Al18  1  0.77222490  0.52916235  0.08083746  1
  Al  Al19  1  0.52916235  0.77222490  0.91916254  1
  Al  Al20  1  0.22777510  0.47083765  0.91916254  1
  Al  Al21  1  0.47083765  0.22777510  0.08083746  1
  Al  Al22  1  0.47083765  0.22777510  0.41916254  1
  Al  Al23  1  0.52916235  0.77222490  0.58083746  1
  Al  Al24  1  0.96348315  0.73803814  0.75000000  1
  Al  Al25  1  0.03651685  0.26196186  0.25000000  1
  Al  Al26  1  0.26196186  0.03651685  0.75000000  1
  Al  Al27  1  0.73803814  0.96348315  0.25000000  1
  Al  Al28  1  0.62259233  0.37740767  0.52225028  1
  Al  Al29  1  0.37740767  0.62259233  0.47774972  1
  Al  Al30  1  0.37740767  0.62259233  0.02225028  1
  Al  Al31  1  0.62259233  0.37740767  0.97774972  1
  Al  Al32  1  0.96766618  0.47355698  0.67120965  1
  Al  Al33  1  0.03233382  0.52644302  0.32879035  1
  Al  Al34  1  0.03233382  0.52644302  0.17120965  1
  Al  Al35  1  0.52644302  0.03233382  0.82879035  1
  Al  Al36  1  0.96766618  0.47355698  0.82879035  1
  Al  Al37  1  0.47355698  0.96766618  0.17120965  1
  Al  Al38  1  0.47355698  0.96766618  0.32879035  1
  Al  Al39  1  0.52644302  0.03233382  0.67120965  1
  Al  Al40  1  0.90675662  0.09324338  0.69946413  1
  Al  Al41  1  0.09324338  0.90675662  0.30053587  1
  Al  Al42  1  0.09324338  0.90675662  0.19946413  1
  Al  Al43  1  0.90675662  0.09324338  0.80053587  1
  Al  Al44  1  0.87682852  0.61995390  0.58310909  1
  Al  Al45  1  0.12317148  0.38004610  0.41689091  1
  Al  Al46  1  0.12317148  0.38004610  0.08310909  1
  Al  Al47  1  0.38004610  0.12317148  0.91689091  1
  Al  Al48  1  0.87682852  0.61995390  0.91689091  1
  Al  Al49  1  0.61995390  0.87682852  0.08310909  1
  Al  Al50  1  0.61995390  0.87682852  0.41689091  1
  Al  Al51  1  0.38004610  0.12317148  0.58310909  1
  Al  Al52  1  0.20504168  0.20504168  0.50000000  1
  Al  Al53  1  0.79495832  0.79495832  0.50000000  1
  Al  Al54  1  0.79495832  0.79495832  0.00000000  1
  Al  Al55  1  0.20504168  0.20504168  0.00000000  1
  Al  Al56  1  0.83469861  0.16530139  0.03410813  1
  Al  Al57  1  0.16530139  0.83469861  0.96589187  1
  Al  Al58  1  0.16530139  0.83469861  0.53410813  1
  Al  Al59  1  0.83469861  0.16530139  0.46589187  1
  Re  Re0  1  0.24886980  0.25528340  0.66306575  1
  Re  Re1  1  0.75113020  0.74471660  0.33693425  1
  Re  Re2  1  0.75113020  0.74471660  0.16306575  1
  Re  Re3  1  0.74471660  0.75113020  0.83693425  1
  Re  Re4  1  0.24886980  0.25528340  0.83693425  1
  Re  Re5  1  0.25528340  0.24886980  0.16306575  1
  Re  Re6  1  0.25528340  0.24886980  0.33693425  1
  Re  Re7  1  0.74471660  0.75113020  0.66306575  1
  Re  Re8  1  0.00000000  0.50000000  0.50000000  1
  Re  Re9  1  0.00000000  0.50000000  0.00000000  1
  Re  Re10  1  0.50000000  0.00000000  0.00000000  1
  Re  Re11  1  0.50000000  0.00000000  0.50000000  1
loop_
_geom_bond_atom_site_label_1
_geom_bond_atom_site_label_2
_geom_bond_distance
_geom_bond_site_symmetry_2
Lu0 Re0 3.365601 1_655
Lu0 Re7 3.365601 1_545
Lu0 Re8 3.473249 1_655
Lu0 Re11 3.473249 1_555
Lu1 Re6 3.365601 1_565
Lu1 Re1 3.365601 1_455
Lu1 Re8 3.473249 1_555
Lu1 Re11 3.473249 1_565
Lu2 Re2 3.365601 1_455
Lu2 Re5 3.365601 1_565
Lu2 Re10 3.473249 1_565
Lu2 Re9 3.473249 1_555
Lu3 Re4 3.365601 1_655
Lu3 Re3 3.365601 1_545
Lu3 Re9 3.473249 1_656
Lu3 Re10 3.473249 1_556
Al0 Al12 2.616006 1_555
Al0 Re7 2.625379 1_555
Al0 Re0 2.625379 1_555
Al0 Al44 2.675278 1_555
Al0 Al51 2.675278 1_555
Al0 Al39 2.740835 1_555
Al0 Al32 2.740835 1_555
Al0 Al28 2.982920 1_555
Al0 Al23 2.987509 1_555
Al0 Al16 2.987509 1_555
Al0 Lu4 3.114875 1_555
Al0 Lu0 3.139328 1_555
Al1 Al13 2.616006 1_555
Al1 Re1 2.625379 1_555
Al1 Re6 2.625379 1_555
Al1 Al50 2.675278 1_555
Al1 Al45 2.675278 1_555
Al1 Al33 2.740835 1_555
Al1 Al38 2.740835 1_555
Al1 Al29 2.982920 1_555
Al1 Al17 2.987509 1_555
Al1 Al22 2.987509 1_555
Al1 Lu5 3.114875 1_555
Al1 Lu1 3.139328 1_555
Al2 Re2 2.625379 1_555
Al2 Re5 2.625379 1_555
Al2 Al46 2.675278 1_555
Al2 Al49 2.675278 1_555
Al2 Al34 2.740835 1_555
Al2 Al37 2.740835 1_555
Al2 Al30 2.982920 1_555
Al2 Al21 2.987509 1_555
Al2 Lu5 3.114875 1_555
Al2 Lu2 3.139328 1_555
Al3 Re3 2.625379 1_555
Al3 Re4 2.625379 1_555
Al3 Al48 2.675278 1_555
Al3 Al47 2.675278 1_555
Al3 Al35 2.740835 1_555
Al3 Al36 2.740835 1_555
Al3 Al31 2.982920 1_555
Al3 Lu4 3.114875 1_555
Al3 Lu3 3.139328 1_555
Al4 Re4 2.593139 1_555
Al4 Re0 2.593139 1_555
Al4 Al40 2.988339 1_455
Al4 Al43 2.988339 1_455
Al4 Lu4 3.045943 1_555
Al5 Re2 2.593139 1_555
Al5 Re1 2.593139 1_555
Al5 Lu5 3.045943 1_555
Al6 Re3 2.593139 1_555
Al6 Re7 2.593139 1_555
Al6 Lu4 3.045943 1_555
Al7 Re5 2.593139 1_555
Al7 Re6 2.593139 1_555
Al7 Lu5 3.045943 1_555
Al8 Re2 2.707083 1_545
Al8 Re5 2.707083 1_655
Al8 Lu2 3.030686 1_645
Al9 Re3 2.707083 1_455
Al9 Re4 2.707083 1_565
Al9 Lu3 3.030686 1_465
Al10 Al40 2.655376 1_465
Al10 Al12 2.664042 1_555
Al10 Re7 2.707083 1_455
Al10 Re0 2.707083 1_565
Al10 Al44 2.857514 1_455
Al10 Al51 2.857514 1_565
Al10 Al32 2.944270 1_455
Al10 Al39 2.944270 1_565
Al10 Al58 3.006934 1_555
Al10 Lu0 3.030686 1_465
Al10 Al24 3.108217 1_455
Al10 Al26 3.108217 1_565
Al11 Al41 2.655376 1_645
Al11 Al13 2.664042 1_555
Al11 Re1 2.707083 1_545
Al11 Re6 2.707083 1_655
Al11 Al50 2.857514 1_545
Al11 Al45 2.857514 1_655
Al11 Al38 2.944270 1_545
Al11 Al33 2.944270 1_655
Al11 Al59 3.006934 1_555
Al11 Lu1 3.030686 1_645
Al11 Al27 3.108217 1_545
Al11 Al25 3.108217 1_655
Al12 Re7 2.660013 1_555
Al12 Re0 2.660013 1_555
Al12 Al4 2.734777 1_555
Al12 Al6 2.734777 1_555
Al12 Al32 2.873166 1_455
Al12 Al39 2.873166 1_565
Al12 Al23 2.952872 1_555
Al12 Al16 2.952872 1_555
Al12 Lu4 3.174213 1_555
Al13 Re1 2.660013 1_555
Al13 Re6 2.660013 1_555
Al13 Al7 2.734777 1_555
Al13 Al5 2.734777 1_555
Al13 Al38 2.873166 1_545
Al13 Al33 2.873166 1_655
Al13 Al17 2.952872 1_555
Al13 Al22 2.952872 1_555
Al13 Lu5 3.174213 1_555
Al14 Al2 2.616006 1_555
Al14 Re2 2.660013 1_555
Al14 Re5 2.660013 1_555
Al14 Al8 2.664042 1_555
Al14 Al7 2.734777 1_555
Al14 Al5 2.734777 1_555
Al14 Al37 2.873166 1_545
Al14 Al34 2.873166 1_655
Al14 Al18 2.952872 1_555
Al14 Al21 2.952872 1_555
Al14 Lu5 3.174213 1_555
Al15 Al3 2.616006 1_555
Al15 Re3 2.660013 1_555
Al15 Re4 2.660013 1_555
Al15 Al9 2.664042 1_555
Al15 Al4 2.734777 1_555
Al15 Al6 2.734777 1_555
Al15 Al36 2.873166 1_455
Al15 Al35 2.873166 1_565
Al15 Al19 2.952872 1_555
Al15 Al20 2.952872 1_555
Al15 Lu4 3.174213 1_555
Al16 Re0 2.663074 1_555
Al16 Re8 2.688536 1_555
Al16 Al58 2.874201 1_555
Al16 Al29 3.082173 1_555
Al16 Lu0 3.220471 1_455
Al17 Re1 2.663074 1_555
Al17 Re8 2.688536 1_655
Al17 Al59 2.874201 1_555
Al17 Al28 3.082173 1_555
Al17 Lu1 3.220471 1_655
Al18 Re2 2.663074 1_555
Al18 Re9 2.688536 1_655
Al18 Al56 2.874201 1_555
Al18 Al2 2.987509 1_555
Al18 Al31 3.082173 1_554
Al18 Lu2 3.220471 1_655
Al19 Re3 2.663074 1_555
Al19 Re10 2.688536 1_566
Al19 Al57 2.874201 1_555
Al19 Al3 2.987509 1_555
Al19 Al30 3.082173 1_556
Al19 Lu3 3.220471 1_565
Al20 Re4 2.663074 1_555
Al20 Re9 2.688536 1_556
Al20 Al57 2.874201 1_555
Al20 Al3 2.987509 1_555
Al20 Al30 3.082173 1_556
Al20 Lu3 3.220471 1_455
Al21 Re5 2.663074 1_555
Al21 Re10 2.688536 1_555
Al21 Al56 2.874201 1_555
Al21 Al31 3.082173 1_554
Al21 Lu2 3.220471 1_545
Al22 Re6 2.663074 1_555
Al22 Re11 2.688536 1_555
Al22 Al59 2.874201 1_555
Al22 Al28 3.082173 1_555
Al22 Lu1 3.220471 1_545
Al23 Re7 2.663074 1_555
Al23 Re11 2.688536 1_565
Al23 Al58 2.874201 1_555
Al23 Al29 3.082173 1_555
Al23 Lu0 3.220471 1_565
Al24 Al6 2.631036 1_555
Al24 Al26 2.750351 1_665
Al24 Re3 2.774061 1_555
Al24 Re7 2.774061 1_555
Al24 Al32 2.785372 1_555
Al24 Al36 2.785372 1_555
Al24 Al40 2.858403 1_565
Al24 Al43 2.858403 1_565
Al24 Al4 2.887948 1_655
Al24 Al9 3.108217 1_655
Al24 Lu4 3.232440 1_555
Al25 Al7 2.631036 1_555
Al25 Al27 2.750351 1_445
Al25 Re5 2.774061 1_555
Al25 Re6 2.774061 1_555
Al25 Al34 2.785372 1_555
Al25 Al33 2.785372 1_555
Al25 Al42 2.858403 1_545
Al25 Al41 2.858403 1_545
Al25 Al5 2.887948 1_455
Al25 Al8 3.108217 1_455
Al25 Lu5 3.232440 1_555
Al26 Al4 2.631036 1_555
Al26 Re0 2.774061 1_555
Al26 Re4 2.774061 1_555
Al26 Al39 2.785372 1_555
Al26 Al35 2.785372 1_555
Al26 Al43 2.858403 1_455
Al26 Al40 2.858403 1_455
Al26 Al6 2.887948 1_545
Al26 Al9 3.108217 1_545
Al26 Lu4 3.232440 1_555
Al27 Al5 2.631036 1_555
Al27 Re2 2.774061 1_555
Al27 Re1 2.774061 1_555
Al27 Al38 2.785372 1_555
Al27 Al37 2.785372 1_555
Al27 Al42 2.858403 1_655
Al27 Al41 2.858403 1_655
Al27 Al7 2.887948 1_565
Al27 Al8 3.108217 1_565
Al27 Lu5 3.232440 1_555
Al28 Al59 2.644368 1_555
Al28 Re8 2.714042 1_655
Al28 Re11 2.714042 1_555
Al28 Al29 2.780434 1_555
Al28 Al44 2.807335 1_555
Al28 Al51 2.807335 1_555
Al28 Al53 3.052826 1_555
Al28 Al52 3.052826 1_555
Al28 Lu0 3.080567 1_555
Al29 Al58 2.644368 1_555
Al29 Re11 2.714042 1_565
Al29 Re8 2.714042 1_555
Al29 Al50 2.807335 1_555
Al29 Al45 2.807335 1_555
Al29 Al53 3.052826 1_555
Al29 Al52 3.052826 1_555
Al29 Lu1 3.080567 1_555
Al30 Al57 2.644368 1_554
Al30 Re10 2.714042 1_565
Al30 Re9 2.714042 1_555
Al30 Al31 2.780434 1_554
Al30 Al49 2.807335 1_555
Al30 Al46 2.807335 1_555
Al30 Al54 3.052826 1_555
Al30 Al55 3.052826 1_555
Al30 Lu2 3.080567 1_555
Al31 Al56 2.644368 1_556
Al31 Re9 2.714042 1_656
Al31 Re10 2.714042 1_556
Al31 Al48 2.807335 1_555
Al31 Al47 2.807335 1_555
Al31 Al54 3.052826 1_556
Al31 Al55 3.052826 1_556
Al31 Lu3 3.080567 1_555
Al32 Re0 2.586148 1_655
Al32 Re7 2.587454 1_555
Al32 Al4 2.632298 1_655
Al32 Al40 2.717077 1_555
Al32 Lu4 3.213498 1_555
Al32 Lu0 3.346816 1_555
Al33 Re1 2.586148 1_455
Al33 Re6 2.587454 1_555
Al33 Al5 2.632298 1_455
Al33 Al41 2.717077 1_555
Al33 Lu5 3.213498 1_555
Al33 Lu1 3.346816 1_555
Al34 Re2 2.586148 1_455
Al34 Re5 2.587454 1_555
Al34 Al5 2.632298 1_455
Al34 Al42 2.717077 1_555
Al34 Al8 2.944270 1_455
Al34 Lu5 3.213498 1_555
Al34 Lu2 3.346816 1_555
Al35 Re3 2.586148 1_545
Al35 Re4 2.587454 1_555
Al35 Al6 2.632298 1_545
Al35 Al43 2.717077 1_555
Al35 Al9 2.944270 1_545
Al35 Lu4 3.213498 1_555
Al35 Lu3 3.346816 1_555
Al36 Re4 2.586148 1_655
Al36 Re3 2.587454 1_555
Al36 Al4 2.632298 1_655
Al36 Al43 2.717077 1_555
Al36 Al9 2.944270 1_655
Al36 Lu4 3.213498 1_555
Al36 Lu3 3.346816 1_555
Al37 Re5 2.586148 1_565
Al37 Re2 2.587454 1_555
Al37 Al7 2.632298 1_565
Al37 Al42 2.717077 1_555
Al37 Al8 2.944270 1_565
Al37 Lu5 3.213498 1_555
Al37 Lu2 3.346816 1_555
Al38 Re6 2.586148 1_565
Al38 Re1 2.587454 1_555
Al38 Al7 2.632298 1_565
Al38 Al41 2.717077 1_555
Al38 Lu5 3.213498 1_555
Al38 Lu1 3.346816 1_555
Al39 Re7 2.586148 1_545
Al39 Re0 2.587454 1_555
Al39 Al6 2.632298 1_545
Al39 Al40 2.717077 1_555
Al39 Lu4 3.213498 1_555
Al39 Lu0 3.346816 1_555
Al40 Re7 2.681686 1_545
Al40 Re0 2.681686 1_655
Al40 Al43 2.697829 1_555
Al40 Al6 2.988339 1_545
Al40 Lu0 3.081586 1_555
Al40 Lu4 3.260436 1_555
Al41 Re1 2.681686 1_455
Al41 Re6 2.681686 1_565
Al41 Al42 2.697829 1_555
Al41 Al5 2.988339 1_455
Al41 Al7 2.988339 1_565
Al41 Lu1 3.081586 1_555
Al41 Lu5 3.260436 1_555
Al42 Al8 2.655376 1_465
Al42 Re5 2.681686 1_565
Al42 Re2 2.681686 1_455
Al42 Al5 2.988339 1_455
Al42 Al7 2.988339 1_565
Al42 Lu2 3.081586 1_555
Al42 Lu5 3.260436 1_555
Al43 Al9 2.655376 1_645
Al43 Re3 2.681686 1_545
Al43 Re4 2.681686 1_655
Al43 Al6 2.988339 1_545
Al43 Lu3 3.081586 1_555
Al43 Lu4 3.260436 1_555
Al44 Re7 2.525238 1_555
Al44 Re8 2.544586 1_655
Al44 Al58 2.688655 1_655
Al44 Lu0 3.413101 1_555
Al44 Lu0 3.480122 1_565
Al45 Re6 2.525238 1_555
Al45 Re8 2.544586 1_555
Al45 Al59 2.688655 1_455
Al45 Lu1 3.413101 1_555
Al45 Lu1 3.480122 1_545
Al46 Re5 2.525238 1_555
Al46 Re9 2.544586 1_555
Al46 Al56 2.688655 1_455
Al46 Al8 2.857514 1_455
Al46 Lu2 3.413101 1_555
Al46 Lu2 3.480122 1_545
Al47 Re4 2.525238 1_555
Al47 Re10 2.544586 1_556
Al47 Al57 2.688655 1_545
Al47 Al9 2.857514 1_545
Al47 Lu3 3.413101 1_555
Al47 Lu3 3.480122 1_455
Al48 Re3 2.525238 1_555
Al48 Re9 2.544586 1_656
Al48 Al57 2.688655 1_655
Al48 Al9 2.857514 1_655
Al48 Lu3 3.413101 1_555
Al48 Lu3 3.480122 1_565
Al49 Re2 2.525238 1_555
Al49 Re10 2.544586 1_565
Al49 Al56 2.688655 1_565
Al49 Al8 2.857514 1_565
Al49 Lu2 3.413101 1_555
Al49 Lu2 3.480122 1_655
Al50 Re1 2.525238 1_555
Al50 Re11 2.544586 1_565
Al50 Al59 2.688655 1_565
Al50 Lu1 3.413101 1_555
Al50 Lu1 3.480122 1_655
Al51 Re0 2.525238 1_555
Al51 Re11 2.544586 1_555
Al51 Al58 2.688655 1_545
Al51 Lu0 3.413101 1_555
Al51 Lu0 3.480122 1_455
Al52 Re8 2.596575 1_555
Al52 Re11 2.596575 1_555
Al52 Al58 2.696515 1_545
Al52 Al59 2.696515 1_455
Al52 Lu1 3.210673 1_545
Al52 Lu0 3.210673 1_455
Al53 Re11 2.596575 1_565
Al53 Re8 2.596575 1_655
Al53 Al59 2.696515 1_565
Al53 Al58 2.696515 1_655
Al53 Lu1 3.210673 1_655
Al53 Lu0 3.210673 1_565
Al54 Re9 2.596575 1_655
Al54 Re10 2.596575 1_565
Al54 Al56 2.696515 1_565
Al54 Al57 2.696515 1_654
Al54 Lu3 3.210673 1_564
Al54 Lu2 3.210673 1_655
Al55 Re10 2.596575 1_555
Al55 Re9 2.596575 1_555
Al55 Al56 2.696515 1_455
Al55 Al57 2.696515 1_544
Al55 Lu3 3.210673 1_454
Al55 Lu2 3.210673 1_545
Al56 Re10 2.624845 1_555
Al56 Re9 2.624845 1_655
Al56 Al8 3.006934 1_555
Al56 Lu3 3.197132 1_554
Al56 Lu2 3.264769 1_645
Al57 Re9 2.624845 1_556
Al57 Re10 2.624845 1_566
Al57 Al9 3.006934 1_555
Al57 Lu2 3.197132 1_556
Al57 Lu3 3.264769 1_465
Al58 Re8 2.624845 1_555
Al58 Re11 2.624845 1_565
Al58 Lu1 3.197132 1_555
Al58 Lu0 3.264769 1_465
Al59 Re8 2.624845 1_655
Al59 Re11 2.624845 1_555
Al59 Lu0 3.197132 1_555
Al59 Lu1 3.264769 1_645
