# generated using pymatgen
data_CoBrO
_symmetry_space_group_name_H-M   'P 1'
_cell_length_a   5.81800700
_cell_length_b   6.39970288
_cell_length_c   12.65192500
_cell_angle_alpha   90.10101681
_cell_angle_beta   90.71466217
_cell_angle_gamma   90.03002796
_symmetry_Int_Tables_number   1
_chemical_formula_structural   CoBrO
_chemical_formula_sum   'Co8 Br8 O8'
_cell_volume   471.03820664
_cell_formula_units_Z   8
loop_
 _symmetry_equiv_pos_site_id
 _symmetry_equiv_pos_as_xyz
  1  'x, y, z'
loop_
 _atom_site_type_symbol
 _atom_site_label
 _atom_site_symmetry_multiplicity
 _atom_site_fract_x
 _atom_site_fract_y
 _atom_site_fract_z
 _atom_site_occupancy
  Co  Co0  1  0.21082700  0.63152300  0.99600400  1
  Co  Co1  1  0.72367600  0.38067100  0.50454600  1
  Co  Co2  1  0.78946200  0.86786300  0.49892600  1
  Co  Co3  1  0.28821400  0.13113100  0.00414300  1
  Co  Co4  1  0.78911700  0.36877300  0.00387500  1
  Co  Co5  1  0.29078300  0.63180300  0.49374700  1
  Co  Co6  1  0.21495600  0.13234300  0.50103800  1
  Co  Co7  1  0.71172000  0.86902800  0.99556600  1
  Br  Br0  1  0.93085900  0.58299900  0.35957800  1
  Br  Br1  1  0.43398400  0.41120100  0.14223200  1
  Br  Br2  1  0.06466000  0.90946100  0.85826300  1
  Br  Br3  1  0.56009900  0.08478700  0.64239400  1
  Br  Br4  1  0.05837700  0.41266900  0.63906400  1
  Br  Br5  1  0.56550500  0.58886000  0.85774700  1
  Br  Br6  1  0.93487800  0.09053500  0.14185700  1
  Br  Br7  1  0.42968000  0.90796500  0.35657900  1
  O  O0  1  0.88941900  0.64218200  0.04884300  1
  O  O1  1  0.40080700  0.35711100  0.45317300  1
  O  O2  1  0.11400800  0.85900000  0.54585500  1
  O  O3  1  0.60986400  0.14157100  0.95133500  1
  O  O4  1  0.11040900  0.35795300  0.95115300  1
  O  O5  1  0.60770200  0.64248900  0.54944500  1
  O  O6  1  0.88098200  0.13957700  0.45593200  1
  O  O7  1  0.39001400  0.85850100  0.04870000  1
loop_
_geom_bond_atom_site_label_1
_geom_bond_atom_site_label_2
_geom_bond_distance
_geom_bond_site_symmetry_2
Co0 O7 1.902369 1_556
Co0 O4 1.927607 1_555
Co0 O0 1.994856 1_456
Co1 O5 1.895480 1_555
Co1 O6 1.899661 1_555
Co1 O1 1.985619 1_555
Co2 O6 1.900719 1_565
Co2 O5 1.904104 1_555
Co2 O2 1.973158 1_655
Co3 O4 1.901165 1_554
Co3 O7 1.925866 1_545
Co3 O3 1.996012 1_554
Co4 O3 1.902997 1_554
Co4 O0 1.926898 1_555
Co4 O4 1.993743 1_654
Co5 O2 1.903050 1_555
Co5 O1 1.941609 1_555
Co5 O5 1.966794 1_555
Co6 O1 1.903369 1_555
Co6 O2 1.933205 1_545
Co6 O6 2.018870 1_455
Co7 O0 1.902213 1_556
Co7 O3 1.924266 1_565
Co7 O7 1.997770 1_556
Br0 Co1 2.560367 1_555
Br0 Co2 2.671124 1_555
Br0 Co5 2.696817 1_655
Br1 Co3 2.633356 1_555
Br1 Co0 2.654748 1_554
Br1 Co4 2.737900 1_555
Br2 Co0 2.626697 1_555
Br2 Co3 2.653219 1_566
Br2 Co7 2.718663 1_455
Br3 Co2 2.656349 1_545
Br3 Co6 2.690039 1_555
Br3 Co1 2.753937 1_555
Br4 Co1 2.577997 1_455
Br4 Co6 2.669873 1_555
Br4 Co5 2.691530 1_555
Br5 Co7 2.632348 1_555
Br5 Co4 2.654346 1_556
Br5 Co0 2.735209 1_555
Br6 Co4 2.629271 1_555
Br6 Co7 2.655140 1_544
Br6 Co3 2.723895 1_655
Br7 Co5 2.613929 1_555
Br7 Co6 2.648139 1_565
Br7 Co2 2.756634 1_555
