# generated using pymatgen
data_K3(SO4)2
_symmetry_space_group_name_H-M   'P 1'
_cell_length_a   5.68310220
_cell_length_b   7.72646280
_cell_length_c   9.67793369
_cell_angle_alpha   102.37696786
_cell_angle_beta   90.02439275
_cell_angle_gamma   111.57177277
_symmetry_Int_Tables_number   1
_chemical_formula_structural   K3(SO4)2
_chemical_formula_sum   'K6 S4 O16'
_cell_volume   384.53930962
_cell_formula_units_Z   2
loop_
 _symmetry_equiv_pos_site_id
 _symmetry_equiv_pos_as_xyz
  1  'x, y, z'
loop_
 _atom_site_type_symbol
 _atom_site_label
 _atom_site_symmetry_multiplicity
 _atom_site_fract_x
 _atom_site_fract_y
 _atom_site_fract_z
 _atom_site_occupancy
  K  K0  1  0.73229511  -0.00029693  0.75004190  1
  K  K1  1  0.26776320  0.00031126  0.24995436  1
  K  K2  1  0.42002615  0.38075117  0.65152827  1
  K  K3  1  0.57997577  0.61922137  0.34852379  1
  K  K4  1  0.03902390  0.61928466  0.84871871  1
  K  K5  1  0.96097836  0.38068839  0.15123327  1
  S  S0  1  0.39428590  0.22700555  0.96500413  1
  S  S1  1  0.60567229  0.77291772  0.03492521  1
  S  S2  1  0.16722735  0.77290652  0.53492883  1
  S  S3  1  0.83276164  0.22716973  0.46513928  1
  O  O0  1  0.58426817  0.69575651  0.88142955  1
  O  O1  1  0.41570402  0.30416642  0.11851235  1
  O  O2  1  0.88856420  0.30422496  0.61865571  1
  O  O3  1  0.11145667  0.69586688  0.38139527  1
  O  O4  1  0.63538190  0.30936831  0.90477963  1
  O  O5  1  0.36461847  0.69058496  0.09518399  1
  O  O6  1  0.32579980  0.69034284  0.59517705  1
  O  O7  1  0.67420788  0.30971743  0.40486874  1
  O  O8  1  0.18660243  0.25420043  0.89289465  1
  O  O9  1  0.81339769  0.74575797  0.10706135  1
  O  O10  1  0.93245981  0.74588907  0.60699502  1
  O  O11  1  0.06756032  0.25417423  0.39305345  1
  O  O12  1  0.31869585  0.01285803  0.93674597  1
  O  O13  1  0.68128579  0.98707137  0.06315942  1
  O  O14  1  0.30608985  0.98702881  0.56332255  1
  O  O15  1  0.69389647  0.01303334  0.43676657  1
loop_
_geom_bond_atom_site_label_1
_geom_bond_atom_site_label_2
_geom_bond_distance
_geom_bond_site_symmetry_2
K0 O10 2.744877 1_545
K0 O8 2.746338 1_655
K0 O0 2.769116 1_545
K0 O2 2.772821 1_555
K0 O6 2.774413 1_545
K0 O4 2.775662 1_555
K0 O14 2.981265 1_545
K0 O12 2.983420 1_555
K0 O13 3.063200 1_546
K0 O15 3.065978 1_555
K1 O11 2.745489 1_555
K1 O9 2.746812 1_445
K1 O1 2.768868 1_555
K1 O3 2.772666 1_545
K1 O7 2.774591 1_555
K1 O5 2.775991 1_545
K1 O15 2.981329 1_555
K1 O13 2.983725 1_545
K1 O12 3.063903 1_554
K1 O14 3.066739 1_545
K2 O0 2.784194 1_555
K2 O6 2.794097 1_555
K2 O14 2.800016 1_545
K2 O7 2.847930 1_555
K2 O2 2.859841 1_455
K2 O8 2.863633 1_555
K2 O2 2.935790 1_555
K2 O11 2.955137 1_555
K2 O4 2.980361 1_555
K2 O10 3.332695 1_555
K3 O1 2.785071 1_555
K3 O7 2.793434 1_555
K3 O15 2.800705 1_565
K3 O6 2.847998 1_555
K3 O3 2.859756 1_655
K3 O9 2.864418 1_555
K3 O3 2.936155 1_555
K3 O10 2.955098 1_555
K3 O5 2.981027 1_555
K3 O11 3.332239 1_555
K4 O2 2.785443 1_455
K4 O4 2.794506 1_455
K4 O12 2.798830 1_565
K4 O5 2.846104 1_556
K4 O0 2.858663 1_455
K4 O10 2.865623 1_455
K4 O0 2.936634 1_555
K4 O9 2.954141 1_456
K4 O6 2.983537 1_555
K4 O8 3.331595 1_555
K5 O3 2.786569 1_655
K5 O5 2.794366 1_655
K5 O13 2.799156 1_545
K5 O4 2.845986 1_554
K5 O1 2.858702 1_655
K5 O11 2.866074 1_655
K5 O1 2.936726 1_555
K5 O8 2.954139 1_654
K5 O7 2.984197 1_555
K5 O9 3.331481 1_555
O0 S1 1.464193 1_556
O1 S0 1.464300 1_554
O2 S3 1.464230 1_555
O3 S2 1.464359 1_555
O4 S0 1.463070 1_555
O5 S1 1.463006 1_555
O6 S2 1.463148 1_555
O7 S3 1.463079 1_555
O8 S0 1.472676 1_555
O9 S1 1.472863 1_555
O10 S2 1.472593 1_655
O11 S3 1.472849 1_455
O12 S0 1.510065 1_555
O13 S1 1.510106 1_555
O14 S2 1.510045 1_555
O15 S3 1.510152 1_555
