# generated using pymatgen
data_Na2Al2Si3(HO3)4
_symmetry_space_group_name_H-M   'P 1'
_cell_length_a   6.62825832
_cell_length_b   9.91633774
_cell_length_c   9.87782207
_cell_angle_alpha   83.61733394
_cell_angle_beta   70.51936992
_cell_angle_gamma   70.63975069
_symmetry_Int_Tables_number   1
_chemical_formula_structural   Na2Al2Si3(HO3)4
_chemical_formula_sum   'Na4 Al4 Si6 H8 O24'
_cell_volume   577.47150640
_cell_formula_units_Z   2
loop_
 _symmetry_equiv_pos_site_id
 _symmetry_equiv_pos_as_xyz
  1  'x, y, z'
loop_
 _atom_site_type_symbol
 _atom_site_label
 _atom_site_symmetry_multiplicity
 _atom_site_fract_x
 _atom_site_fract_y
 _atom_site_fract_z
 _atom_site_occupancy
  Na  Na0  1  0.12856000  0.05754000  0.43891300  1
  Na  Na1  1  0.43222700  0.43938400  0.94121500  1
  Na  Na2  1  0.81826800  0.55723200  0.06090100  1
  Na  Na3  1  0.62422700  0.93900900  0.55830700  1
  Al  Al0  1  0.24472600  0.19293300  0.07413100  1
  Al  Al1  1  0.56740400  0.69271600  0.42512900  1
  Al  Al2  1  0.67791500  0.08175900  0.80628900  1
  Al  Al3  1  0.73543500  0.58153900  0.69369500  1
  Si  Si0  1  0.00183000  0.99955900  0.99645900  1
  Si  Si1  1  0.99938900  0.42660300  0.31274300  1
  Si  Si2  1  0.24677700  0.50152200  0.50400900  1
  Si  Si3  1  0.56311100  0.92692500  0.18741300  1
  Si  Si4  1  0.68669800  0.31198100  0.57507700  1
  Si  Si5  1  0.51104700  0.81194500  0.92432700  1
  H  H0  1  0.13787700  0.11158200  0.71385900  1
  H  H1  1  0.11497200  0.78378600  0.38541100  1
  H  H2  1  0.10412100  0.61091300  0.78622800  1
  H  H3  1  0.27802800  0.21303300  0.62338200  1
  H  H4  1  0.50781900  0.37498600  0.21347700  1
  H  H5  1  0.15128500  0.71296300  0.87817900  1
  H  H6  1  0.74948500  0.28340500  0.11553600  1
  H  H7  1  0.97232000  0.87595700  0.28638300  1
  O  O0  1  0.02825400  0.13604300  0.05694100  1
  O  O1  1  0.12040400  0.36624800  0.14974800  1
  O  O2  1  0.03137800  0.54206900  0.64885900  1
  O  O3  1  0.36846500  0.07878800  0.19481800  1
  O  O4  1  0.19335900  0.44314000  0.37342800  1
  O  O5  1  0.25059500  0.12246700  0.62089900  1
  O  O6  1  0.12317800  0.62172500  0.87952500  1
  O  O7  1  0.33186800  0.63826200  0.44176200  1
  O  O8  1  0.44495700  0.36343100  0.54020400  1
  O  O9  1  0.62885500  0.37657700  0.12371600  1
  O  O10  1  0.44607900  0.20728700  0.91376300  1
  O  O11  1  0.23470600  0.86051000  0.95954000  1
  O  O12  1  0.55841700  0.81216700  0.07929600  1
  O  O13  1  0.51789100  0.86640000  0.35044900  1
  O  O14  1  0.74049300  0.14439900  0.62483400  1
  O  O15  1  0.61077400  0.70591700  0.58522900  1
  O  O16  1  0.68209400  0.41751200  0.69107500  1
  O  O17  1  0.80960800  0.57719700  0.30487000  1
  O  O18  1  0.61614800  0.64425800  0.87497700  1
  O  O19  1  0.88888700  0.31041700  0.41982100  1
  O  O20  1  0.81941200  0.94102300  0.12805100  1
  O  O21  1  0.61919400  0.91857700  0.80834800  1
  O  O22  1  0.92846100  0.04100000  0.85233200  1
  O  O23  1  0.00299800  0.87731100  0.37645400  1
loop_
_geom_bond_atom_site_label_1
_geom_bond_atom_site_label_2
_geom_bond_distance
_geom_bond_site_symmetry_2
Na0 O23 2.416862 1_545
Na0 O5 2.423368 1_555
Na0 O3 2.436899 1_555
Na0 O19 2.510152 1_455
Na0 O14 2.542231 1_455
Na0 O13 2.576204 1_545
Na1 O10 2.315416 1_555
Na1 O6 2.443102 1_555
Na1 O16 2.458992 1_555
Na1 O9 2.472954 1_556
Na1 O18 2.618428 1_555
Na1 O1 2.619716 1_556
Na2 O17 2.419980 1_555
Na2 O6 2.427043 1_654
Na2 O9 2.427950 1_555
Na2 O12 2.529221 1_555
Na2 O18 2.536627 1_554
Na2 O1 2.579835 1_655
Na3 O15 2.324973 1_555
Na3 O21 2.445535 1_555
Na3 O5 2.463079 1_565
Na3 O23 2.474296 1_655
Na3 O14 2.617238 1_565
Na3 O13 2.619374 1_555
Al0 O10 1.725262 1_554
Al0 O3 1.763989 1_555
Al0 O0 1.768135 1_555
Al0 O1 1.768224 1_555
Al1 O15 1.724795 1_555
Al1 O17 1.764062 1_555
Al1 O13 1.767046 1_555
Al1 O7 1.767493 1_555
Al2 O10 1.724924 1_555
Al2 O22 1.773680 1_555
Al2 O21 1.781952 1_545
Al2 O14 1.788276 1_555
Al3 O15 1.724194 1_555
Al3 O2 1.774043 1_655
Al3 O16 1.779909 1_555
Al3 O18 1.787660 1_555
H0 O5 0.993415 1_555
H1 O23 0.993971 1_555
H2 O6 0.992639 1_555
H3 O5 0.977937 1_555
H4 O9 0.980231 1_555
H5 O6 0.980244 1_555
H6 O9 0.991558 1_555
H7 O23 0.978895 1_655
O0 Si0 1.620518 1_544
O1 Si1 1.621236 1_455
O2 Si2 1.622363 1_555
O3 Si3 1.615880 1_545
O4 Si1 1.647685 1_455
O4 Si2 1.652513 1_555
O7 Si2 1.620238 1_555
O8 Si4 1.653313 1_555
O8 Si2 1.655373 1_555
O11 Si5 1.653890 1_555
O11 Si0 1.655914 1_555
O12 Si3 1.659021 1_555
O12 Si5 1.662401 1_554
O13 Si3 1.620494 1_555
O14 Si4 1.634842 1_555
O16 Si4 1.622045 1_555
O17 Si1 1.616301 1_555
O18 Si5 1.635134 1_555
O19 Si1 1.659657 1_555
O19 Si4 1.663993 1_555
O20 Si3 1.650524 1_555
O20 Si0 1.654631 1_654
O21 Si5 1.621685 1_555
O22 Si0 1.622152 1_645
