# generated using pymatgen
data_In2SnPb
_symmetry_space_group_name_H-M   'P 1'
_cell_length_a   6.60969200
_cell_length_b   6.60969200
_cell_length_c   21.21580600
_cell_angle_alpha   90.00000000
_cell_angle_beta   90.00000000
_cell_angle_gamma   90.00000000
_symmetry_Int_Tables_number   1
_chemical_formula_structural   In2SnPb
_chemical_formula_sum   'In16 Sn8 Pb8'
_cell_volume   926.87673367
_cell_formula_units_Z   8
loop_
 _symmetry_equiv_pos_site_id
 _symmetry_equiv_pos_as_xyz
  1  'x, y, z'
loop_
 _atom_site_type_symbol
 _atom_site_label
 _atom_site_symmetry_multiplicity
 _atom_site_fract_x
 _atom_site_fract_y
 _atom_site_fract_z
 _atom_site_occupancy
  In  In0_0  1  0.00000000  0.00000000  0.24933850  1
  In  In0_1  1  0.00000000  0.00000000  0.74933850  1
  In  In0_2  1  0.00000000  0.50000000  0.24933850  1
  In  In0_3  1  0.00000000  0.50000000  0.74933850  1
  In  In0_4  1  0.50000000  0.00000000  0.24933850  1
  In  In0_5  1  0.50000000  0.00000000  0.74933850  1
  In  In0_6  1  0.50000000  0.50000000  0.24933850  1
  In  In0_7  1  0.50000000  0.50000000  0.74933850  1
  In  In1_0  1  0.25000000  0.25000000  0.37359750  1
  In  In1_1  1  0.25000000  0.25000000  0.87359750  1
  In  In1_2  1  0.25000000  0.75000000  0.37359750  1
  In  In1_3  1  0.25000000  0.75000000  0.87359750  1
  In  In1_4  1  0.75000000  0.25000000  0.37359750  1
  In  In1_5  1  0.75000000  0.25000000  0.87359750  1
  In  In1_6  1  0.75000000  0.75000000  0.37359750  1
  In  In1_7  1  0.75000000  0.75000000  0.87359750  1
  Sn  Sn0_0  1  0.25000000  0.25000000  0.12620400  1
  Sn  Sn0_1  1  0.25000000  0.25000000  0.62620400  1
  Sn  Sn0_2  1  0.25000000  0.75000000  0.12620400  1
  Sn  Sn0_3  1  0.25000000  0.75000000  0.62620400  1
  Sn  Sn0_4  1  0.75000000  0.25000000  0.12620400  1
  Sn  Sn0_5  1  0.75000000  0.25000000  0.62620400  1
  Sn  Sn0_6  1  0.75000000  0.75000000  0.12620400  1
  Sn  Sn0_7  1  0.75000000  0.75000000  0.62620400  1
  Pb  Pb0_0  1  0.00000000  0.00000000  0.00086000  1
  Pb  Pb0_1  1  0.00000000  0.00000000  0.50086000  1
  Pb  Pb0_2  1  0.00000000  0.50000000  0.00086000  1
  Pb  Pb0_3  1  0.00000000  0.50000000  0.50086000  1
  Pb  Pb0_4  1  0.50000000  0.00000000  0.00086000  1
  Pb  Pb0_5  1  0.50000000  0.00000000  0.50086000  1
  Pb  Pb0_6  1  0.50000000  0.50000000  0.00086000  1
  Pb  Pb0_7  1  0.50000000  0.50000000  0.50086000  1
loop_
_geom_bond_atom_site_label_1
_geom_bond_atom_site_label_2
_geom_bond_distance
_geom_bond_site_symmetry_2
In0_0 In0_2 3.304846 1_555
In0_0 In0_4 3.304846 1_455
In0_0 In0_4 3.304846 1_555
In0_0 In0_2 3.304846 1_545
In0_0 Sn0_0 3.505086 1_555
In0_0 Sn0_6 3.505086 1_445
In0_0 Sn0_2 3.505086 1_545
In0_0 Sn0_4 3.505086 1_455
In0_0 In1_2 3.522903 1_545
In0_0 In1_6 3.522903 1_445
In0_0 In1_0 3.522903 1_555
In0_0 In1_4 3.522903 1_455
In0_1 In0_3 3.304846 1_555
In0_1 In0_3 3.304846 1_545
In0_1 In0_5 3.304846 1_455
In0_1 In0_5 3.304846 1_555
In0_1 Sn0_1 3.505086 1_555
In0_1 Sn0_3 3.505086 1_545
In0_1 Sn0_7 3.505086 1_445
In0_1 Sn0_5 3.505086 1_455
In0_1 In1_1 3.522903 1_555
In0_1 In1_5 3.522903 1_455
In0_1 In1_3 3.522903 1_545
In0_1 In1_7 3.522903 1_445
In0_2 In0_6 3.304846 1_455
In0_2 In0_6 3.304846 1_555
In0_2 Sn0_6 3.505086 1_455
In0_2 Sn0_4 3.505086 1_455
In0_2 Sn0_2 3.505086 1_555
In0_2 Sn0_0 3.505086 1_555
In0_2 In1_2 3.522903 1_555
In0_2 In1_0 3.522903 1_555
In0_2 In1_4 3.522903 1_455
In0_2 In1_6 3.522903 1_455
In0_3 In0_7 3.304846 1_455
In0_3 In0_7 3.304846 1_555
In0_3 Sn0_1 3.505086 1_555
In0_3 Sn0_5 3.505086 1_455
In0_3 Sn0_3 3.505086 1_555
In0_3 Sn0_7 3.505086 1_455
In0_3 In1_1 3.522903 1_555
In0_3 In1_5 3.522903 1_455
In0_3 In1_3 3.522903 1_555
In0_3 In1_7 3.522903 1_455
In0_4 In0_6 3.304846 1_555
In0_4 In0_6 3.304846 1_545
In0_4 Sn0_4 3.505086 1_555
In0_4 Sn0_2 3.505086 1_545
In0_4 Sn0_0 3.505086 1_555
In0_4 Sn0_6 3.505086 1_545
In0_4 In1_2 3.522903 1_545
In0_4 In1_0 3.522903 1_555
In0_4 In1_6 3.522903 1_545
In0_4 In1_4 3.522903 1_555
In0_5 In0_7 3.304846 1_555
In0_5 In0_7 3.304846 1_545
In0_5 Sn0_1 3.505086 1_555
In0_5 Sn0_3 3.505086 1_545
In0_5 Sn0_7 3.505086 1_545
In0_5 Sn0_5 3.505086 1_555
In0_5 In1_1 3.522903 1_555
In0_5 In1_5 3.522903 1_555
In0_5 In1_3 3.522903 1_545
In0_5 In1_7 3.522903 1_545
In0_6 Sn0_6 3.505086 1_555
In0_6 Sn0_4 3.505086 1_555
In0_6 Sn0_2 3.505086 1_555
In0_6 Sn0_0 3.505086 1_555
In0_6 In1_2 3.522903 1_555
In0_6 In1_6 3.522903 1_555
In0_6 In1_0 3.522903 1_555
In0_6 In1_4 3.522903 1_555
In0_7 Sn0_1 3.505086 1_555
In0_7 Sn0_5 3.505086 1_555
In0_7 Sn0_3 3.505086 1_555
In0_7 Sn0_7 3.505086 1_555
In0_7 In1_1 3.522903 1_555
In0_7 In1_5 3.522903 1_555
In0_7 In1_3 3.522903 1_555
In0_7 In1_7 3.522903 1_555
In1_0 In1_4 3.304846 1_555
In1_0 In1_2 3.304846 1_545
In1_0 In1_2 3.304846 1_555
In1_0 In1_4 3.304846 1_455
In1_0 Pb0_1 3.570837 1_555
In1_0 Pb0_5 3.570837 1_555
In1_0 Pb0_3 3.570837 1_555
In1_0 Pb0_7 3.570837 1_555
In1_1 In1_5 3.304846 1_455
In1_1 In1_5 3.304846 1_555
In1_1 In1_3 3.304846 1_555
In1_1 In1_3 3.304846 1_545
In1_1 Pb0_2 3.570837 1_556
In1_1 Pb0_6 3.570837 1_556
In1_1 Pb0_0 3.570837 1_556
In1_1 Pb0_4 3.570837 1_556
In1_2 In1_6 3.304846 1_455
In1_2 In1_6 3.304846 1_555
In1_2 Pb0_1 3.570837 1_565
In1_2 Pb0_5 3.570837 1_565
In1_2 Pb0_7 3.570837 1_555
In1_2 Pb0_3 3.570837 1_555
In1_3 In1_7 3.304846 1_555
In1_3 In1_7 3.304846 1_455
In1_3 Pb0_2 3.570837 1_556
In1_3 Pb0_0 3.570837 1_566
In1_3 Pb0_4 3.570837 1_566
In1_3 Pb0_6 3.570837 1_556
In1_4 In1_6 3.304846 1_555
In1_4 In1_6 3.304846 1_545
In1_4 Pb0_5 3.570837 1_555
In1_4 Pb0_3 3.570837 1_655
In1_4 Pb0_7 3.570837 1_555
In1_4 Pb0_1 3.570837 1_655
In1_5 In1_7 3.304846 1_555
In1_5 In1_7 3.304846 1_545
In1_5 Pb0_2 3.570837 1_656
In1_5 Pb0_6 3.570837 1_556
In1_5 Pb0_0 3.570837 1_656
In1_5 Pb0_4 3.570837 1_556
In1_6 Pb0_1 3.570837 1_665
In1_6 Pb0_5 3.570837 1_565
In1_6 Pb0_3 3.570837 1_655
In1_6 Pb0_7 3.570837 1_555
In1_7 Pb0_2 3.570837 1_656
In1_7 Pb0_4 3.570837 1_566
In1_7 Pb0_6 3.570837 1_556
In1_7 Pb0_0 3.570837 1_666
Sn0_0 Sn0_2 3.304846 1_555
Sn0_0 Sn0_4 3.304846 1_555
Sn0_0 Sn0_2 3.304846 1_545
Sn0_0 Sn0_4 3.304846 1_455
Sn0_1 Sn0_3 3.304846 1_545
Sn0_1 Sn0_5 3.304846 1_455
Sn0_1 Sn0_5 3.304846 1_555
Sn0_1 Sn0_3 3.304846 1_555
Sn0_2 Sn0_6 3.304846 1_555
Sn0_2 Sn0_6 3.304846 1_455
Sn0_3 Sn0_7 3.304846 1_555
Sn0_3 Sn0_7 3.304846 1_455
Sn0_4 Sn0_6 3.304846 1_555
Sn0_4 Sn0_6 3.304846 1_545
Sn0_5 Sn0_7 3.304846 1_555
Sn0_5 Sn0_7 3.304846 1_545
Pb0_0 Pb0_4 3.304846 1_455
Pb0_0 Pb0_2 3.304846 1_555
Pb0_0 Pb0_4 3.304846 1_555
Pb0_0 Pb0_2 3.304846 1_545
Pb0_0 Sn0_2 3.540161 1_545
Pb0_0 Sn0_6 3.540161 1_445
Pb0_0 Sn0_4 3.540161 1_455
Pb0_0 Sn0_0 3.540161 1_555
Pb0_1 Pb0_5 3.304846 1_555
Pb0_1 Pb0_3 3.304846 1_555
Pb0_1 Pb0_5 3.304846 1_455
Pb0_1 Pb0_3 3.304846 1_545
Pb0_1 Sn0_1 3.540161 1_555
Pb0_1 Sn0_5 3.540161 1_455
Pb0_1 Sn0_7 3.540161 1_445
Pb0_1 Sn0_3 3.540161 1_545
Pb0_2 Pb0_6 3.304846 1_555
Pb0_2 Pb0_6 3.304846 1_455
Pb0_2 Sn0_2 3.540161 1_555
Pb0_2 Sn0_4 3.540161 1_455
Pb0_2 Sn0_0 3.540161 1_555
Pb0_2 Sn0_6 3.540161 1_455
Pb0_3 Pb0_7 3.304846 1_555
Pb0_3 Pb0_7 3.304846 1_455
Pb0_3 Sn0_1 3.540161 1_555
Pb0_3 Sn0_5 3.540161 1_455
Pb0_3 Sn0_3 3.540161 1_555
Pb0_3 Sn0_7 3.540161 1_455
Pb0_4 Pb0_6 3.304846 1_545
Pb0_4 Pb0_6 3.304846 1_555
Pb0_4 Sn0_4 3.540161 1_555
Pb0_4 Sn0_2 3.540161 1_545
Pb0_4 Sn0_0 3.540161 1_555
Pb0_4 Sn0_6 3.540161 1_545
Pb0_5 Pb0_7 3.304846 1_555
Pb0_5 Pb0_7 3.304846 1_545
Pb0_5 Sn0_1 3.540161 1_555
Pb0_5 Sn0_5 3.540161 1_555
Pb0_5 Sn0_3 3.540161 1_545
Pb0_5 Sn0_7 3.540161 1_545
Pb0_6 Sn0_4 3.540161 1_555
Pb0_6 Sn0_2 3.540161 1_555
Pb0_6 Sn0_0 3.540161 1_555
Pb0_6 Sn0_6 3.540161 1_555
Pb0_7 Sn0_1 3.540161 1_555
Pb0_7 Sn0_5 3.540161 1_555
Pb0_7 Sn0_3 3.540161 1_555
Pb0_7 Sn0_7 3.540161 1_555
