# generated using pymatgen
data_BaSrTbNbO6
_symmetry_space_group_name_H-M   'P 1'
_cell_length_a   8.46542347
_cell_length_b   8.46336369
_cell_length_c   8.46568366
_cell_angle_alpha   90.00000000
_cell_angle_beta   90.00000000
_cell_angle_gamma   90.00000000
_symmetry_Int_Tables_number   1
_chemical_formula_structural   BaSrTbNbO6
_chemical_formula_sum   'Ba4 Sr4 Tb4 Nb4 O24'
_cell_volume   606.53201270
_cell_formula_units_Z   4
loop_
 _symmetry_equiv_pos_site_id
 _symmetry_equiv_pos_as_xyz
  1  'x, y, z'
loop_
 _atom_site_type_symbol
 _atom_site_label
 _atom_site_symmetry_multiplicity
 _atom_site_fract_x
 _atom_site_fract_y
 _atom_site_fract_z
 _atom_site_occupancy
  Ba  Ba0  1  0.00000000  -0.00000000  -0.00000000  1
  Ba  Ba1  1  0.50000000  0.50000000  0.50000000  1
  Ba  Ba2  1  0.50000000  -0.00000000  0.50000000  1
  Ba  Ba3  1  0.50000000  0.50000000  0.00000000  1
  Sr  Sr0  1  0.00000000  0.50000000  0.50000000  1
  Sr  Sr1  1  0.50000000  -0.00000000  -0.00000000  1
  Sr  Sr2  1  0.00000000  0.50000000  -0.00000000  1
  Sr  Sr3  1  0.00000000  -0.00000000  0.50000000  1
  Tb  Tb0  1  0.24736212  0.24959362  0.24928045  1
  Tb  Tb1  1  0.75263788  0.75040638  0.24928045  1
  Tb  Tb2  1  0.75263788  0.24959362  0.75071955  1
  Tb  Tb3  1  0.24736212  0.75040638  0.75071955  1
  Nb  Nb0  1  0.75445024  0.75108359  0.74913564  1
  Nb  Nb1  1  0.24554976  0.24891641  0.74913564  1
  Nb  Nb2  1  0.24554976  0.75108359  0.25086436  1
  Nb  Nb3  1  0.75445024  0.24891641  0.25086436  1
  O  O0  1  0.98648974  0.21123885  0.28155155  1
  O  O1  1  0.01351026  0.78876115  0.28155155  1
  O  O2  1  0.01351026  0.21123885  0.71844845  1
  O  O3  1  0.98648974  0.78876115  0.71844845  1
  O  O4  1  0.27837811  0.98556221  0.21310263  1
  O  O5  1  0.27837811  0.01443779  0.78689737  1
  O  O6  1  0.72162189  0.01443779  0.21310263  1
  O  O7  1  0.72162189  0.98556221  0.78689737  1
  O  O8  1  0.21318123  0.28376292  0.98470951  1
  O  O9  1  0.78681877  0.28376292  0.01529049  1
  O  O10  1  0.21318123  0.71623708  0.01529049  1
  O  O11  1  0.78681877  0.71623708  0.98470951  1
  O  O12  1  0.51481545  0.27386633  0.22902947  1
  O  O13  1  0.48518455  0.72613367  0.22902947  1
  O  O14  1  0.48518455  0.27386633  0.77097053  1
  O  O15  1  0.51481545  0.72613367  0.77097053  1
  O  O16  1  0.21808525  0.51391359  0.27985561  1
  O  O17  1  0.21808525  0.48608641  0.72014439  1
  O  O18  1  0.78191475  0.48608641  0.27985561  1
  O  O19  1  0.78191475  0.51391359  0.72014439  1
  O  O20  1  0.27143185  0.22603827  0.51310089  1
  O  O21  1  0.72856815  0.22603827  0.48689911  1
  O  O22  1  0.27143185  0.77396173  0.48689911  1
  O  O23  1  0.72856815  0.77396173  0.51310089  1
loop_
_geom_bond_atom_site_label_1
_geom_bond_atom_site_label_2
_geom_bond_distance
_geom_bond_site_symmetry_2
Ba0 O5 2.970366 1_554
Ba0 O7 2.970366 1_444
Ba0 O6 2.970366 1_455
Ba0 O4 2.970366 1_545
Ba0 O1 2.981690 1_545
Ba0 O2 2.981690 1_554
Ba0 O0 2.981690 1_455
Ba0 O3 2.981690 1_444
Ba0 O8 3.006862 1_554
Ba0 O9 3.006862 1_455
Ba0 O11 3.006862 1_444
Ba0 O10 3.006862 1_545
Ba1 O13 2.990112 1_555
Ba1 O15 2.990112 1_555
Ba1 O12 2.990112 1_555
Ba1 O14 2.990112 1_555
Ba1 O21 3.021973 1_555
Ba1 O23 3.021973 1_555
Ba1 O22 3.021973 1_555
Ba1 O20 3.021973 1_555
Ba1 O19 3.030290 1_555
Ba1 O17 3.030290 1_555
Ba1 O18 3.030290 1_555
Ba1 O16 3.030290 1_555
Ba2 O23 2.723229 1_545
Ba2 O22 2.723229 1_545
Ba2 O21 2.723229 1_555
Ba2 O20 2.723229 1_555
Ba2 O7 3.071441 1_545
Ba2 O5 3.071441 1_555
Ba2 O6 3.071441 1_555
Ba2 O4 3.071441 1_545
Ba2 O12 3.263476 1_555
Ba2 O14 3.263476 1_555
Ba2 O15 3.263476 1_545
Ba2 O13 3.263476 1_545
Ba3 O13 2.727243 1_555
Ba3 O14 2.727243 1_554
Ba3 O15 2.727243 1_554
Ba3 O12 2.727243 1_555
Ba3 O10 3.043253 1_555
Ba3 O11 3.043253 1_554
Ba3 O8 3.043253 1_554
Ba3 O9 3.043253 1_555
Nb0 O3 2.006912 1_555
Nb0 O23 2.019476 1_555
Nb0 O7 2.029182 1_555
Nb0 O11 2.034519 1_555
Nb0 O19 2.035527 1_555
Nb0 O15 2.047930 1_555
Nb1 O2 2.006912 1_555
Nb1 O20 2.019476 1_555
Nb1 O5 2.029182 1_555
Nb1 O8 2.034519 1_555
Nb1 O17 2.035527 1_555
Nb1 O14 2.047930 1_555
Nb2 O1 2.006912 1_555
Nb2 O22 2.019476 1_555
Nb2 O4 2.029182 1_555
Nb2 O10 2.034519 1_555
Nb2 O16 2.035527 1_555
Nb2 O13 2.047930 1_555
Nb3 O0 2.006912 1_555
Nb3 O21 2.019476 1_555
Nb3 O6 2.029182 1_555
Nb3 O9 2.034519 1_555
Nb3 O18 2.035527 1_555
Nb3 O12 2.047930 1_555
O0 Tb0 2.248781 1_655
O0 Sr3 2.574732 1_655
O0 Sr0 3.066863 1_655
O1 Tb1 2.248781 1_455
O1 Sr3 2.574732 1_565
O1 Sr0 3.066863 1_555
O2 Tb2 2.248781 1_455
O2 Sr3 2.574732 1_555
O2 Sr0 3.066863 1_555
O3 Tb3 2.248781 1_655
O3 Sr3 2.574732 1_665
O3 Sr0 3.066863 1_655
O4 Tb0 2.270716 1_565
O4 Sr1 2.605648 1_565
O5 Tb3 2.270716 1_545
O5 Sr1 2.605648 1_556
O6 Tb1 2.270716 1_545
O6 Sr1 2.605648 1_555
O7 Tb2 2.270716 1_565
O7 Sr1 2.605648 1_566
O8 Tb0 2.276827 1_556
O8 Sr2 2.573486 1_556
O9 Tb2 2.276827 1_554
O9 Sr2 2.573486 1_655
O10 Tb3 2.276827 1_554
O10 Sr2 2.573486 1_555
O11 Tb1 2.276827 1_556
O11 Sr2 2.573486 1_656
O12 Tb0 2.279861 1_555
O12 Sr1 3.024461 1_555
O13 Tb1 2.279861 1_555
O13 Sr1 3.024461 1_565
O14 Tb2 2.279861 1_555
O14 Sr1 3.024461 1_556
O15 Tb3 2.279861 1_555
O15 Sr1 3.024461 1_566
O16 Tb0 2.265558 1_555
O16 Sr0 2.625936 1_555
O16 Sr2 3.005865 1_555
O17 Tb3 2.265558 1_555
O17 Sr0 2.625936 1_555
O17 Sr2 3.005865 1_556
O18 Tb1 2.265558 1_555
O18 Sr0 2.625936 1_655
O18 Sr2 3.005865 1_655
O19 Tb2 2.265558 1_555
O19 Sr0 2.625936 1_655
O19 Sr2 3.005865 1_656
O20 Tb0 2.251539 1_555
O20 Sr3 2.991965 1_555
O21 Tb2 2.251539 1_555
O21 Sr3 2.991965 1_655
O22 Tb3 2.251539 1_555
O22 Sr3 2.991965 1_565
O23 Tb1 2.251539 1_555
O23 Sr3 2.991965 1_665
