# generated using pymatgen
data_SmGaSi
_symmetry_space_group_name_H-M   'P 1'
_cell_length_a   7.66796529
_cell_length_b   7.66796529
_cell_length_c   7.66796529
_cell_angle_alpha   148.49650371
_cell_angle_beta   148.49650371
_cell_angle_gamma   45.15295790
_symmetry_Int_Tables_number   1
_chemical_formula_structural   SmGaSi
_chemical_formula_sum   'Sm2 Ga2 Si2'
_cell_volume   122.72082709
_cell_formula_units_Z   2
loop_
 _symmetry_equiv_pos_site_id
 _symmetry_equiv_pos_as_xyz
  1  'x, y, z'
loop_
 _atom_site_type_symbol
 _atom_site_label
 _atom_site_symmetry_multiplicity
 _atom_site_fract_x
 _atom_site_fract_y
 _atom_site_fract_z
 _atom_site_occupancy
  Sm  Sm0  1  0.62489728  0.12489728  0.50000000  1
  Sm  Sm1  1  0.87489728  0.87489728  -0.00000000  1
  Ga  Ga0  1  0.45831856  0.45831856  -0.00000000  1
  Ga  Ga1  1  0.20831856  0.70831856  0.50000000  1
  Si  Si0  1  0.04178415  0.54178415  0.50000000  1
  Si  Si1  1  0.29178415  0.29178415  0.00000000  1
loop_
_geom_bond_atom_site_label_1
_geom_bond_atom_site_label_2
_geom_bond_distance
_geom_bond_site_symmetry_2
Ga0 Si1 2.358245 1_555
Ga0 Si0 2.393765 1_554
Ga0 Si0 2.393765 1_655
Ga0 Sm0 3.146017 1_565
Ga0 Sm0 3.146017 1_554
Ga0 Sm1 3.172030 1_556
Ga0 Sm1 3.172030 1_545
Ga0 Sm1 3.172030 1_455
Ga0 Sm1 3.172030 1_444
Ga1 Si0 2.358245 1_555
Ga1 Si1 2.393765 1_555
Ga1 Si1 2.393765 1_566
Ga1 Sm1 3.146017 1_455
Ga1 Sm1 3.146017 1_556
Ga1 Sm0 3.172030 1_555
Ga1 Sm0 3.172030 1_465
Ga1 Sm0 3.172030 1_454
Ga1 Sm0 3.172030 1_566
Si0 Sm1 3.149290 1_456
Si0 Sm1 3.149290 1_445
Si0 Sm0 3.170407 1_465
Si0 Sm0 3.170407 1_566
Si0 Sm0 3.170407 1_454
Si0 Sm0 3.170407 1_555
Si1 Sm0 3.149290 1_555
Si1 Sm0 3.149290 1_454
Si1 Sm1 3.170407 1_444
Si1 Sm1 3.170407 1_556
Si1 Sm1 3.170407 1_545
Si1 Sm1 3.170407 1_455
