# generated using pymatgen
data_Ca(WO2)2
_symmetry_space_group_name_H-M   'P 1'
_cell_length_a   5.68621200
_cell_length_b   6.56865300
_cell_length_c   11.16577600
_cell_angle_alpha   90.00000000
_cell_angle_beta   90.00000000
_cell_angle_gamma   90.00000000
_symmetry_Int_Tables_number   1
_chemical_formula_structural   Ca(WO2)2
_chemical_formula_sum   'Ca4 W8 O16'
_cell_volume   417.05014715
_cell_formula_units_Z   4
loop_
 _symmetry_equiv_pos_site_id
 _symmetry_equiv_pos_as_xyz
  1  'x, y, z'
loop_
 _atom_site_type_symbol
 _atom_site_label
 _atom_site_symmetry_multiplicity
 _atom_site_fract_x
 _atom_site_fract_y
 _atom_site_fract_z
 _atom_site_occupancy
  Ca  Ca0  1  0.35350300  0.00000000  0.50000000  1
  Ca  Ca1  1  0.64649700  0.50000000  0.00000000  1
  Ca  Ca2  1  0.03361700  0.00000000  0.00000000  1
  Ca  Ca3  1  0.96638300  0.50000000  0.50000000  1
  W  W0  1  0.01221400  0.50000000  0.23369800  1
  W  W1  1  0.01221400  0.50000000  0.76630200  1
  W  W2  1  0.98778600  0.00000000  0.26630200  1
  W  W3  1  0.98778600  0.00000000  0.73369800  1
  W  W4  1  0.50000000  0.25000000  0.25000000  1
  W  W5  1  0.50000000  0.75000000  0.75000000  1
  W  W6  1  0.50000000  0.75000000  0.25000000  1
  W  W7  1  0.50000000  0.25000000  0.75000000  1
  O  O0  1  0.35609400  0.50000000  0.14653700  1
  O  O1  1  0.35609400  0.50000000  0.85346300  1
  O  O2  1  0.64390600  0.00000000  0.35346300  1
  O  O3  1  0.64390600  0.00000000  0.64653700  1
  O  O4  1  0.69198300  0.50000000  0.33880300  1
  O  O5  1  0.69198300  0.50000000  0.66119700  1
  O  O6  1  0.30801700  0.00000000  0.16119700  1
  O  O7  1  0.30801700  0.00000000  0.83880300  1
  O  O8  1  0.16470700  0.25677800  0.35346800  1
  O  O9  1  0.16470700  0.74322200  0.64653200  1
  O  O10  1  0.83529300  0.75677800  0.14653200  1
  O  O11  1  0.83529300  0.24322200  0.85346800  1
  O  O12  1  0.83529300  0.24322200  0.14653200  1
  O  O13  1  0.83529300  0.75677800  0.85346800  1
  O  O14  1  0.16470700  0.74322200  0.35346800  1
  O  O15  1  0.16470700  0.25677800  0.64653200  1
loop_
_geom_bond_atom_site_label_1
_geom_bond_atom_site_label_2
_geom_bond_distance
_geom_bond_site_symmetry_2
Ca0 O3 2.324633 1_555
Ca0 O2 2.324633 1_555
Ca0 O8 2.583476 1_555
Ca0 O15 2.583476 1_555
Ca0 O9 2.583476 1_545
Ca0 O14 2.583476 1_545
Ca1 O0 2.324633 1_555
Ca1 O1 2.324633 1_554
Ca1 O13 2.583476 1_554
Ca1 O10 2.583476 1_555
Ca1 O12 2.583476 1_555
Ca1 O11 2.583476 1_554
Ca2 O6 2.382043 1_555
Ca2 O7 2.382043 1_554
Ca2 O11 2.549737 1_454
Ca2 O12 2.549737 1_455
Ca2 O13 2.549737 1_444
Ca2 O10 2.549737 1_445
Ca3 O5 2.382043 1_555
Ca3 O4 2.382043 1_555
Ca3 O9 2.549737 1_655
Ca3 O14 2.549737 1_655
Ca3 O8 2.549737 1_655
Ca3 O15 2.549737 1_655
O0 W6 2.168150 1_555
O0 W4 2.168150 1_555
O0 W0 2.184181 1_555
O1 W5 2.168150 1_555
O1 W7 2.168150 1_555
O1 W1 2.184181 1_555
O2 W6 2.168150 1_545
O2 W4 2.168150 1_555
O2 W2 2.184181 1_555
O3 W7 2.168150 1_555
O3 W5 2.168150 1_545
O3 W3 2.184181 1_555
O4 W0 2.166326 1_655
O4 W6 2.207169 1_555
O4 W4 2.207169 1_555
O5 W1 2.166326 1_655
O5 W7 2.207169 1_555
O5 W5 2.207169 1_555
O6 W2 2.166326 1_455
O6 W6 2.207169 1_545
O6 W4 2.207169 1_555
O7 W3 2.166326 1_455
O7 W7 2.207169 1_555
O7 W5 2.207169 1_545
O8 W2 2.191856 1_455
O8 W4 2.229714 1_555
O8 W0 2.256717 1_555
O9 W3 2.191856 1_465
O9 W5 2.229714 1_555
O9 W1 2.256717 1_555
O10 W0 2.191856 1_655
O10 W6 2.229714 1_555
O10 W2 2.256717 1_565
O11 W1 2.191856 1_655
O11 W7 2.229714 1_555
O11 W3 2.256717 1_555
O12 W0 2.191856 1_655
O12 W4 2.229714 1_555
O12 W2 2.256717 1_555
O13 W1 2.191856 1_655
O13 W5 2.229714 1_555
O13 W3 2.256717 1_565
O14 W2 2.191856 1_465
O14 W6 2.229714 1_555
O14 W0 2.256717 1_555
O15 W3 2.191856 1_455
O15 W7 2.229714 1_555
O15 W1 2.256717 1_555
