# generated using pymatgen
data_Ca10Si3S3(ClO12)2
_symmetry_space_group_name_H-M   'P 1'
_cell_length_a   9.84054032
_cell_length_b   9.84054032
_cell_length_c   6.82185300
_cell_angle_alpha   90.00000000
_cell_angle_beta   90.00000000
_cell_angle_gamma   120.00000217
_symmetry_Int_Tables_number   1
_chemical_formula_structural   Ca10Si3S3(ClO12)2
_chemical_formula_sum   'Ca10 Si3 S3 Cl2 O24'
_cell_volume   572.09857966
_cell_formula_units_Z   1
loop_
 _symmetry_equiv_pos_site_id
 _symmetry_equiv_pos_as_xyz
  1  'x, y, z'
loop_
 _atom_site_type_symbol
 _atom_site_label
 _atom_site_symmetry_multiplicity
 _atom_site_fract_x
 _atom_site_fract_y
 _atom_site_fract_z
 _atom_site_occupancy
  Ca  Ca0  1  0.66666700  0.33333300  0.22383400  1
  Ca  Ca1  1  0.33333300  0.66666700  0.76934600  1
  Ca  Ca2  1  0.33333300  0.66666700  0.23065400  1
  Ca  Ca3  1  0.66666700  0.33333300  0.77616600  1
  Ca  Ca4  1  0.73034200  0.97210500  0.00000000  1
  Ca  Ca5  1  0.24176300  0.26965800  0.00000000  1
  Ca  Ca6  1  0.02789500  0.75823700  0.00000000  1
  Ca  Ca7  1  0.24741100  0.99384300  0.50000000  1
  Ca  Ca8  1  0.74643200  0.75258900  0.50000000  1
  Ca  Ca9  1  0.00615700  0.25356800  0.50000000  1
  Si  Si0  1  0.59709600  0.62651100  0.00000000  1
  Si  Si1  1  0.02941500  0.40290400  0.00000000  1
  Si  Si2  1  0.37348900  0.97058500  0.00000000  1
  S  S0  1  0.41145200  0.37801600  0.50000000  1
  S  S1  1  0.96656300  0.58854800  0.50000000  1
  S  S2  1  0.62198400  0.03343700  0.50000000  1
  Cl  Cl0  1  0.00000000  0.00000000  0.25453000  1
  Cl  Cl1  1  0.00000000  0.00000000  0.74547000  1
  O  O0  1  0.40275800  0.53092500  0.00000000  1
  O  O1  1  0.12816700  0.59724200  0.00000000  1
  O  O2  1  0.46907500  0.87183300  0.00000000  1
  O  O3  1  0.58841900  0.46503500  0.50000000  1
  O  O4  1  0.87661600  0.41158100  0.50000000  1
  O  O5  1  0.53496500  0.12338400  0.50000000  1
  O  O6  1  0.64937800  0.74181600  0.19486100  1
  O  O7  1  0.09243800  0.35062200  0.19486100  1
  O  O8  1  0.25818400  0.90756200  0.19486100  1
  O  O9  1  0.35705100  0.27371500  0.67512700  1
  O  O10  1  0.91666400  0.64294900  0.67512700  1
  O  O11  1  0.72628500  0.08333600  0.67512700  1
  O  O12  1  0.35705100  0.27371500  0.32487300  1
  O  O13  1  0.91666400  0.64294900  0.32487300  1
  O  O14  1  0.72628500  0.08333600  0.32487300  1
  O  O15  1  0.64937800  0.74181600  0.80513900  1
  O  O16  1  0.09243800  0.35062200  0.80513900  1
  O  O17  1  0.25818400  0.90756200  0.80513900  1
  O  O18  1  0.67287600  0.51136900  0.00000000  1
  O  O19  1  0.83849300  0.32712400  0.00000000  1
  O  O20  1  0.48863100  0.16150700  0.00000000  1
  O  O21  1  0.35250800  0.49036200  0.50000000  1
  O  O22  1  0.13785400  0.64749200  0.50000000  1
  O  O23  1  0.50963800  0.86214600  0.50000000  1
loop_
_geom_bond_atom_site_label_1
_geom_bond_atom_site_label_2
_geom_bond_distance
_geom_bond_site_symmetry_2
Ca0 O19 2.301667 1_555
Ca0 O20 2.301670 1_555
Ca0 O18 2.301674 1_555
Ca0 O4 2.611473 1_555
Ca0 O5 2.611474 1_555
Ca0 O3 2.611480 1_555
Ca0 O14 2.883519 1_555
Ca0 O13 2.883525 1_555
Ca0 O12 2.883528 1_555
Ca1 O1 2.374749 1_556
Ca1 O2 2.374750 1_556
Ca1 O0 2.374756 1_556
Ca1 O22 2.597908 1_555
Ca1 O23 2.597911 1_555
Ca1 O21 2.597915 1_555
Ca1 O17 2.824706 1_555
Ca1 O16 2.824713 1_555
Ca1 O15 2.824716 1_555
Ca2 O1 2.374749 1_555
Ca2 O2 2.374750 1_555
Ca2 O0 2.374756 1_555
Ca2 O22 2.597908 1_555
Ca2 O23 2.597911 1_555
Ca2 O21 2.597915 1_555
Ca2 O8 2.824706 1_555
Ca2 O7 2.824713 1_555
Ca2 O6 2.824716 1_555
Ca3 O19 2.301667 1_556
Ca3 O20 2.301670 1_556
Ca3 O18 2.301674 1_556
Ca3 O4 2.611473 1_555
Ca3 O5 2.611474 1_555
Ca3 O3 2.611480 1_555
Ca3 O11 2.883519 1_555
Ca3 O10 2.883525 1_555
Ca3 O9 2.883528 1_555
Ca4 O2 2.246515 1_555
Ca4 O15 2.394127 1_554
Ca4 O6 2.394127 1_555
Ca4 O11 2.480944 1_564
Ca4 O14 2.480944 1_565
Ca4 Cl0 3.066496 1_665
Ca4 Cl1 3.066496 1_664
Ca5 O0 2.246515 1_555
Ca5 O16 2.394128 1_554
Ca5 O7 2.394128 1_555
Ca5 O9 2.480944 1_554
Ca5 O12 2.480944 1_555
Ca5 Cl1 3.066496 1_554
Ca5 Cl0 3.066496 1_555
Ca6 O1 2.246515 1_555
Ca6 O17 2.394127 1_554
Ca6 O8 2.394127 1_555
Ca6 O10 2.480944 1_454
Ca6 O13 2.480944 1_455
Ca6 Cl0 3.066496 1_565
Ca6 Cl1 3.066496 1_564
Ca7 O17 2.270518 1_555
Ca7 O8 2.270518 1_555
Ca7 O5 2.454581 1_565
Ca7 O12 2.684200 1_565
Ca7 O9 2.684200 1_565
Ca7 Cl0 2.980418 1_565
Ca7 Cl1 2.980418 1_565
Ca7 O22 3.017318 1_555
Ca8 O6 2.270518 1_555
Ca8 O15 2.270518 1_555
Ca8 O3 2.454581 1_555
Ca8 O13 2.684201 1_555
Ca8 O10 2.684201 1_555
Ca8 Cl0 2.980418 1_665
Ca8 Cl1 2.980418 1_665
Ca8 O23 3.017319 1_555
Ca9 O16 2.270518 1_555
Ca9 O7 2.270518 1_555
Ca9 O4 2.454582 1_455
Ca9 O14 2.684200 1_455
Ca9 O11 2.684200 1_455
Ca9 Cl1 2.980418 1_555
Ca9 Cl0 2.980418 1_555
Ca9 O21 3.017318 1_555
O0 Si0 1.656252 1_555
O1 Si1 1.656252 1_555
O2 Si2 1.656252 1_555
O3 S0 1.508210 1_555
O4 S1 1.508209 1_555
O5 S2 1.508201 1_555
O6 Si0 1.653923 1_555
O7 Si1 1.653923 1_555
O8 Si2 1.653923 1_555
O9 S0 1.489250 1_555
O10 S1 1.489245 1_555
O11 S2 1.489250 1_555
O12 S0 1.489250 1_555
O13 S1 1.489245 1_555
O14 S2 1.489250 1_555
O15 Si0 1.653923 1_556
O16 Si1 1.653923 1_556
O17 Si2 1.653923 1_556
O18 Si0 1.638553 1_555
O19 Si1 1.638553 1_655
O20 Si2 1.638553 1_545
O21 S0 1.483219 1_555
O22 S1 1.483228 1_455
O23 S2 1.483227 1_565
