# generated using pymatgen
data_Li3Cr(CoO3)2
_symmetry_space_group_name_H-M   'P 1'
_cell_length_a   5.86566272
_cell_length_b   5.91400815
_cell_length_c   6.66045815
_cell_angle_alpha   103.33343376
_cell_angle_beta   77.41918971
_cell_angle_gamma   91.90580488
_symmetry_Int_Tables_number   1
_chemical_formula_structural   Li3Cr(CoO3)2
_chemical_formula_sum   'Li6 Cr2 Co4 O12'
_cell_volume   219.38739256
_cell_formula_units_Z   2
loop_
 _symmetry_equiv_pos_site_id
 _symmetry_equiv_pos_as_xyz
  1  'x, y, z'
loop_
 _atom_site_type_symbol
 _atom_site_label
 _atom_site_symmetry_multiplicity
 _atom_site_fract_x
 _atom_site_fract_y
 _atom_site_fract_z
 _atom_site_occupancy
  Li  Li0  1  0.16658200  0.83426100  0.33232800  1
  Li  Li1  1  0.66660900  0.83420300  0.33231800  1
  Li  Li2  1  0.49935600  0.50235400  0.99703900  1
  Li  Li3  1  0.99933900  0.50236200  0.99706000  1
  Li  Li4  1  0.33219500  0.16675900  0.66783500  1
  Li  Li5  1  0.83222500  0.16676600  0.66783400  1
  Cr  Cr0  1  0.66566900  0.33495800  0.33275600  1
  Cr  Cr1  1  0.16569500  0.33501200  0.33272000  1
  Co  Co0  1  0.49577600  0.99838500  0.00217900  1
  Co  Co1  1  0.83546700  0.67141900  0.66345500  1
  Co  Co2  1  0.99578700  0.99838900  0.00219300  1
  Co  Co3  1  0.33547300  0.67142900  0.66347900  1
  O  O0  1  0.23441700  0.23688400  0.01088300  1
  O  O1  1  0.73439200  0.23689000  0.01093600  1
  O  O2  1  0.09675500  0.43299300  0.65503700  1
  O  O3  1  0.59674800  0.43298400  0.65506200  1
  O  O4  1  0.42114200  0.57155200  0.33892500  1
  O  O5  1  0.92114000  0.57155200  0.33892800  1
  O  O6  1  0.41017300  0.09825900  0.32635600  1
  O  O7  1  0.91026400  0.09834900  0.32634800  1
  O  O8  1  0.07324900  0.90351000  0.67469800  1
  O  O9  1  0.57325300  0.90350800  0.67470600  1
  O  O10  1  0.25792000  0.76626900  0.99093600  1
  O  O11  1  0.75792800  0.76626700  0.99091900  1
loop_
_geom_bond_atom_site_label_1
_geom_bond_atom_site_label_2
_geom_bond_distance
_geom_bond_site_symmetry_2
Li0 O6 2.082364 1_565
Li0 O5 2.084139 1_455
Li0 O10 2.163546 1_554
Li0 O8 2.169728 1_555
Li0 O4 2.204474 1_555
Li0 O7 2.216362 1_465
Li1 O7 2.083250 1_565
Li1 O4 2.083989 1_555
Li1 O11 2.163604 1_554
Li1 O9 2.169831 1_555
Li1 O5 2.204132 1_555
Li1 O6 2.216673 1_565
Li2 O11 2.140802 1_555
Li2 O1 2.154196 1_556
Li2 O10 2.155149 1_555
Li2 O4 2.165822 1_556
Li2 O3 2.168047 1_555
Li2 O0 2.174969 1_556
Li3 O10 2.140814 1_655
Li3 O0 2.154252 1_656
Li3 O11 2.155087 1_555
Li3 O5 2.165710 1_556
Li3 O2 2.168344 1_655
Li3 O1 2.175021 1_556
Li4 O8 2.139676 1_545
Li4 O9 2.152371 1_545
Li4 O2 2.156700 1_555
Li4 O6 2.163425 1_555
Li4 O0 2.174718 1_556
Li4 O3 2.176220 1_555
Li5 O9 2.139820 1_545
Li5 O8 2.152241 1_645
Li5 O3 2.156714 1_555
Li5 O7 2.163490 1_555
Li5 O1 2.175073 1_556
Li5 O2 2.176145 1_655
Cr0 O5 2.016400 1_555
Cr0 O6 2.016954 1_555
Cr0 O7 2.024251 1_555
Cr0 O4 2.024364 1_555
Cr0 O1 2.039382 1_555
Cr0 O3 2.042395 1_555
Cr1 O4 2.016091 1_555
Cr1 O7 2.016532 1_455
Cr1 O5 2.024181 1_455
Cr1 O6 2.024442 1_555
Cr1 O0 2.039506 1_555
Cr1 O2 2.042449 1_555
Co0 O10 1.925425 1_554
Co0 O1 1.954040 1_565
Co0 O6 2.054801 1_565
Co0 O11 2.072980 1_554
Co0 O9 2.073482 1_554
Co0 O0 2.100106 1_565
Co1 O8 1.925016 1_655
Co1 O3 1.954130 1_555
Co1 O5 2.056980 1_555
Co1 O9 2.073155 1_555
Co1 O11 2.073419 1_555
Co1 O2 2.100043 1_655
Co2 O11 1.925468 1_554
Co2 O0 1.954048 1_665
Co2 O7 2.054680 1_565
Co2 O10 2.072909 1_654
Co2 O8 2.073621 1_654
Co2 O1 2.100197 1_565
Co3 O9 1.924956 1_555
Co3 O2 1.954136 1_555
Co3 O4 2.057150 1_555
Co3 O8 2.073226 1_555
Co3 O10 2.073374 1_555
Co3 O3 2.100066 1_555
