# generated using pymatgen
data_B3Pb3NO10
_symmetry_space_group_name_H-M   'P 1'
_cell_length_a   8.00912257
_cell_length_b   10.36721178
_cell_length_c   11.09580079
_cell_angle_alpha   90.00000000
_cell_angle_beta   90.00000000
_cell_angle_gamma   90.00000000
_symmetry_Int_Tables_number   1
_chemical_formula_structural   B3Pb3NO10
_chemical_formula_sum   'B12 Pb12 N4 O40'
_cell_volume   921.30952545
_cell_formula_units_Z   4
loop_
 _symmetry_equiv_pos_site_id
 _symmetry_equiv_pos_as_xyz
  1  'x, y, z'
loop_
 _atom_site_type_symbol
 _atom_site_label
 _atom_site_symmetry_multiplicity
 _atom_site_fract_x
 _atom_site_fract_y
 _atom_site_fract_z
 _atom_site_occupancy
  B  B0  1  0.25000000  0.15900939  0.69748331  1
  B  B1  1  0.25000000  0.65900939  0.80251669  1
  B  B2  1  0.75000000  0.84099061  0.30251669  1
  B  B3  1  0.75000000  0.34099061  0.19748331  1
  B  B4  1  0.40176321  0.12287844  0.50388455  1
  B  B5  1  0.09823679  0.62287844  0.99611545  1
  B  B6  1  0.90176321  0.87712156  0.49611545  1
  B  B7  1  0.59823679  0.37712156  0.00388455  1
  B  B8  1  0.59823679  0.87712156  0.49611545  1
  B  B9  1  0.90176321  0.37712156  0.00388455  1
  B  B10  1  0.09823679  0.12287844  0.50388455  1
  B  B11  1  0.40176321  0.62287844  0.99611545  1
  Pb  Pb0  1  0.52056717  0.57879287  0.26972963  1
  Pb  Pb1  1  0.97943283  0.07879287  0.23027037  1
  Pb  Pb2  1  0.02056717  0.42120713  0.73027037  1
  Pb  Pb3  1  0.47943283  0.92120713  0.76972963  1
  Pb  Pb4  1  0.47943283  0.42120713  0.73027037  1
  Pb  Pb5  1  0.02056717  0.92120713  0.76972963  1
  Pb  Pb6  1  0.97943283  0.57879287  0.26972963  1
  Pb  Pb7  1  0.52056717  0.07879287  0.23027037  1
  Pb  Pb8  1  0.75000000  0.27322808  0.46374354  1
  Pb  Pb9  1  0.75000000  0.77322808  0.03625646  1
  Pb  Pb10  1  0.25000000  0.72677192  0.53625646  1
  Pb  Pb11  1  0.25000000  0.22677192  0.96374354  1
  N  N0  1  0.25000000  0.38567137  0.41375779  1
  N  N1  1  0.25000000  0.88567137  0.08624221  1
  N  N2  1  0.75000000  0.61432863  0.58624221  1
  N  N3  1  0.75000000  0.11432863  0.91375779  1
  O  O0  1  0.40396155  0.15112253  0.62437184  1
  O  O1  1  0.09603845  0.65112253  0.87562816  1
  O  O2  1  0.90396155  0.84887747  0.37562816  1
  O  O3  1  0.59603845  0.34887747  0.12437184  1
  O  O4  1  0.59603845  0.84887747  0.37562816  1
  O  O5  1  0.90396155  0.34887747  0.12437184  1
  O  O6  1  0.09603845  0.15112253  0.62437184  1
  O  O7  1  0.40396155  0.65112253  0.87562816  1
  O  O8  1  0.25000000  0.05314450  0.78615660  1
  O  O9  1  0.25000000  0.55314450  0.71384340  1
  O  O10  1  0.75000000  0.94685550  0.21384340  1
  O  O11  1  0.75000000  0.44685550  0.28615660  1
  O  O12  1  0.25000000  0.28232945  0.76280753  1
  O  O13  1  0.25000000  0.78232945  0.73719247  1
  O  O14  1  0.75000000  0.71767055  0.23719247  1
  O  O15  1  0.75000000  0.21767055  0.26280753  1
  O  O16  1  0.54448207  0.12033731  0.43752624  1
  O  O17  1  0.95551793  0.62033731  0.06247376  1
  O  O18  1  0.04448207  0.87966269  0.56247376  1
  O  O19  1  0.45551793  0.37966269  0.93752624  1
  O  O20  1  0.45551793  0.87966269  0.56247376  1
  O  O21  1  0.04448207  0.37966269  0.93752624  1
  O  O22  1  0.95551793  0.12033731  0.43752624  1
  O  O23  1  0.54448207  0.62033731  0.06247376  1
  O  O24  1  0.25000000  0.10434945  0.44459558  1
  O  O25  1  0.25000000  0.60434945  0.05540442  1
  O  O26  1  0.75000000  0.89565055  0.55540442  1
  O  O27  1  0.75000000  0.39565055  0.94459558  1
  O  O28  1  0.25000000  0.37112533  0.30128154  1
  O  O29  1  0.25000000  0.87112533  0.19871846  1
  O  O30  1  0.75000000  0.62887467  0.69871846  1
  O  O31  1  0.75000000  0.12887467  0.80128154  1
  O  O32  1  0.38679592  0.39551817  0.47021862  1
  O  O33  1  0.11320408  0.89551817  0.02978138  1
  O  O34  1  0.88679592  0.60448183  0.52978138  1
  O  O35  1  0.61320408  0.10448183  0.97021862  1
  O  O36  1  0.61320408  0.60448183  0.52978138  1
  O  O37  1  0.88679592  0.10448183  0.97021862  1
  O  O38  1  0.11320408  0.39551817  0.47021862  1
  O  O39  1  0.38679592  0.89551817  0.02978138  1
loop_
_geom_bond_atom_site_label_1
_geom_bond_atom_site_label_2
_geom_bond_distance
_geom_bond_site_symmetry_2
B0 O12 1.469658 1_555
B0 O8 1.473981 1_555
B0 O0 1.478279 1_555
B0 O6 1.478279 1_555
B1 O13 1.469658 1_555
B1 O9 1.473981 1_555
B1 O7 1.478279 1_555
B1 O1 1.478279 1_555
B2 O14 1.469658 1_555
B2 O10 1.473981 1_555
B2 O2 1.478279 1_555
B2 O4 1.478279 1_555
B3 O15 1.469658 1_555
B3 O11 1.473981 1_555
B3 O3 1.478279 1_555
B3 O5 1.478279 1_555
B4 O16 1.359926 1_555
B4 O0 1.368707 1_555
B4 O24 1.395383 1_555
B5 O17 1.359926 1_456
B5 O1 1.368707 1_555
B5 O25 1.395383 1_556
B6 O18 1.359926 1_655
B6 O2 1.368707 1_555
B6 O26 1.395383 1_555
B7 O19 1.359926 1_554
B7 O3 1.368707 1_555
B7 O27 1.395383 1_554
B8 O20 1.359926 1_555
B8 O4 1.368707 1_555
B8 O26 1.395383 1_555
B9 O21 1.359926 1_654
B9 O5 1.368707 1_555
B9 O27 1.395383 1_554
B10 O22 1.359926 1_455
B10 O6 1.368707 1_555
B10 O24 1.395383 1_555
B11 O23 1.359926 1_556
B11 O7 1.368707 1_555
B11 O25 1.395383 1_556
N0 O28 1.257092 1_555
N0 O32 1.266203 1_555
N0 O38 1.266203 1_555
N1 O29 1.257092 1_555
N1 O33 1.266203 1_555
N1 O39 1.266203 1_555
N2 O30 1.257092 1_555
N2 O34 1.266203 1_555
N2 O36 1.266203 1_555
N3 O31 1.257092 1_555
N3 O37 1.266203 1_555
N3 O35 1.266203 1_555
O8 Pb3 2.297993 1_545
O8 Pb5 2.297993 1_545
O8 Pb11 2.668870 1_555
O9 Pb4 2.297993 1_555
O9 Pb2 2.297993 1_555
O9 Pb10 2.668870 1_555
O10 Pb1 2.297993 1_565
O10 Pb7 2.297993 1_565
O10 Pb9 2.668870 1_555
O11 Pb0 2.297993 1_555
O11 Pb6 2.297993 1_555
O11 Pb8 2.668870 1_555
O12 Pb11 2.302743 1_555
O12 Pb4 2.362181 1_555
O12 Pb2 2.362181 1_555
O13 Pb10 2.302743 1_555
O13 Pb5 2.362181 1_555
O13 Pb3 2.362181 1_555
O14 Pb9 2.302743 1_555
O14 Pb6 2.362181 1_555
O14 Pb0 2.362181 1_555
O15 Pb8 2.302743 1_555
O15 Pb1 2.362181 1_555
O15 Pb7 2.362181 1_555
O16 Pb8 2.303560 1_555
O16 Pb7 2.347482 1_555
O17 Pb9 2.303560 1_555
O17 Pb6 2.347482 1_555
O18 Pb10 2.303560 1_555
O18 Pb5 2.347482 1_555
O19 Pb11 2.303560 1_555
O19 Pb4 2.347482 1_555
O20 Pb10 2.303560 1_555
O20 Pb3 2.347482 1_555
O21 Pb11 2.303560 1_555
O21 Pb2 2.347482 1_555
O22 Pb8 2.303560 1_555
O22 Pb1 2.347482 1_555
O23 Pb9 2.303560 1_555
O23 Pb0 2.347482 1_555
