# generated using pymatgen
data_KMg30WO32
_symmetry_space_group_name_H-M   'P 1'
_cell_length_a   8.60643400
_cell_length_b   8.60643400
_cell_length_c   8.68120000
_cell_angle_alpha   90.00000000
_cell_angle_beta   90.00000000
_cell_angle_gamma   90.00000000
_symmetry_Int_Tables_number   1
_chemical_formula_structural   KMg30WO32
_chemical_formula_sum   'K1 Mg30 W1 O32'
_cell_volume   643.02261463
_cell_formula_units_Z   1
loop_
 _symmetry_equiv_pos_site_id
 _symmetry_equiv_pos_as_xyz
  1  'x, y, z'
loop_
 _atom_site_type_symbol
 _atom_site_label
 _atom_site_symmetry_multiplicity
 _atom_site_fract_x
 _atom_site_fract_y
 _atom_site_fract_z
 _atom_site_occupancy
  K  K0  1  0.00000000  0.00000000  0.00000000  1
  Mg  Mg0  1  0.00000000  0.50000000  0.00000000  1
  Mg  Mg1  1  0.00000000  0.50000000  0.50000000  1
  Mg  Mg2  1  0.50000000  0.00000000  0.00000000  1
  Mg  Mg3  1  0.50000000  0.00000000  0.50000000  1
  Mg  Mg4  1  0.50000000  0.50000000  0.00000000  1
  Mg  Mg5  1  0.50000000  0.50000000  0.50000000  1
  Mg  Mg6  1  0.00000000  0.25507500  0.24537100  1
  Mg  Mg7  1  0.00000000  0.25507500  0.75462900  1
  Mg  Mg8  1  0.00000000  0.74492500  0.24537100  1
  Mg  Mg9  1  0.00000000  0.74492500  0.75462900  1
  Mg  Mg10  1  0.50000000  0.25023200  0.24881200  1
  Mg  Mg11  1  0.50000000  0.25023200  0.75118800  1
  Mg  Mg12  1  0.50000000  0.74976800  0.24881200  1
  Mg  Mg13  1  0.50000000  0.74976800  0.75118800  1
  Mg  Mg14  1  0.25507500  0.00000000  0.24537100  1
  Mg  Mg15  1  0.25507500  0.00000000  0.75462900  1
  Mg  Mg16  1  0.25023200  0.50000000  0.24881200  1
  Mg  Mg17  1  0.25023200  0.50000000  0.75118800  1
  Mg  Mg18  1  0.74492500  0.00000000  0.24537100  1
  Mg  Mg19  1  0.74492500  0.00000000  0.75462900  1
  Mg  Mg20  1  0.74976800  0.50000000  0.24881200  1
  Mg  Mg21  1  0.74976800  0.50000000  0.75118800  1
  Mg  Mg22  1  0.25164500  0.25164500  0.00000000  1
  Mg  Mg23  1  0.25358300  0.25358300  0.50000000  1
  Mg  Mg24  1  0.25164500  0.74835500  0.00000000  1
  Mg  Mg25  1  0.25358300  0.74641700  0.50000000  1
  Mg  Mg26  1  0.74835500  0.25164500  0.00000000  1
  Mg  Mg27  1  0.74641700  0.25358300  0.50000000  1
  Mg  Mg28  1  0.74835500  0.74835500  0.00000000  1
  Mg  Mg29  1  0.74641700  0.74641700  0.50000000  1
  W  W0  1  0.00000000  0.00000000  0.50000000  1
  O  O0  1  0.27440800  0.00000000  0.00000000  1
  O  O1  1  0.25481700  0.00000000  0.50000000  1
  O  O2  1  0.25438800  0.50000000  0.00000000  1
  O  O3  1  0.25064300  0.50000000  0.50000000  1
  O  O4  1  0.72559200  0.00000000  0.00000000  1
  O  O5  1  0.74518300  0.00000000  0.50000000  1
  O  O6  1  0.74561200  0.50000000  0.00000000  1
  O  O7  1  0.74935700  0.50000000  0.50000000  1
  O  O8  1  0.24923400  0.24923400  0.25086400  1
  O  O9  1  0.24923400  0.24923400  0.74913600  1
  O  O10  1  0.24923400  0.75076600  0.25086400  1
  O  O11  1  0.24923400  0.75076600  0.74913600  1
  O  O12  1  0.75076600  0.24923400  0.25086400  1
  O  O13  1  0.75076600  0.24923400  0.74913600  1
  O  O14  1  0.75076600  0.75076600  0.25086400  1
  O  O15  1  0.75076600  0.75076600  0.74913600  1
  O  O16  1  0.00000000  0.00000000  0.26214500  1
  O  O17  1  0.00000000  0.00000000  0.73785500  1
  O  O18  1  0.00000000  0.50000000  0.25585200  1
  O  O19  1  0.00000000  0.50000000  0.74414800  1
  O  O20  1  0.50000000  0.00000000  0.25585200  1
  O  O21  1  0.50000000  0.00000000  0.74414800  1
  O  O22  1  0.50000000  0.50000000  0.25206000  1
  O  O23  1  0.50000000  0.50000000  0.74794000  1
  O  O24  1  0.00000000  0.27440800  0.00000000  1
  O  O25  1  0.00000000  0.25481700  0.50000000  1
  O  O26  1  0.00000000  0.72559200  0.00000000  1
  O  O27  1  0.00000000  0.74518300  0.50000000  1
  O  O28  1  0.50000000  0.25438800  0.00000000  1
  O  O29  1  0.50000000  0.25064300  0.50000000  1
  O  O30  1  0.50000000  0.74561200  0.00000000  1
  O  O31  1  0.50000000  0.74935700  0.50000000  1
loop_
_geom_bond_atom_site_label_1
_geom_bond_atom_site_label_2
_geom_bond_distance
_geom_bond_site_symmetry_2
K0 O16 2.275733 1_555
K0 O17 2.275733 1_554
K0 O0 2.361674 1_555
K0 O24 2.361674 1_555
K0 O4 2.361674 1_455
K0 O26 2.361674 1_545
Mg0 O24 1.941543 1_555
Mg0 O26 1.941543 1_555
Mg0 O2 2.189374 1_555
Mg0 O6 2.189374 1_455
Mg0 O18 2.221102 1_555
Mg0 O19 2.221102 1_554
Mg1 O27 2.110151 1_555
Mg1 O25 2.110151 1_555
Mg1 O19 2.119498 1_555
Mg1 O18 2.119498 1_555
Mg1 O3 2.157142 1_555
Mg1 O7 2.157142 1_455
Mg2 O0 1.941543 1_555
Mg2 O4 1.941543 1_555
Mg2 O28 2.189374 1_555
Mg2 O30 2.189374 1_545
Mg2 O20 2.221102 1_555
Mg2 O21 2.221102 1_554
Mg3 O5 2.110151 1_555
Mg3 O1 2.110151 1_555
Mg3 O21 2.119498 1_555
Mg3 O20 2.119498 1_555
Mg3 O29 2.157142 1_555
Mg3 O31 2.157142 1_545
Mg4 O6 2.113843 1_555
Mg4 O30 2.113843 1_555
Mg4 O2 2.113843 1_555
Mg4 O28 2.113843 1_555
Mg4 O23 2.188183 1_554
Mg4 O22 2.188183 1_555
Mg5 O31 2.146075 1_555
Mg5 O7 2.146075 1_555
Mg5 O3 2.146075 1_555
Mg5 O29 2.146075 1_555
Mg5 O22 2.152417 1_555
Mg5 O23 2.152417 1_555
Mg6 O18 2.109894 1_555
Mg6 O24 2.136603 1_555
Mg6 O8 2.146135 1_555
Mg6 O12 2.146135 1_455
Mg6 O16 2.200110 1_555
Mg6 O25 2.210486 1_555
Mg7 O19 2.109894 1_555
Mg7 O24 2.136603 1_556
Mg7 O9 2.146135 1_555
Mg7 O13 2.146135 1_455
Mg7 O17 2.200110 1_555
Mg7 O25 2.210486 1_555
Mg8 O18 2.109894 1_555
Mg8 O26 2.136603 1_555
Mg8 O10 2.146135 1_555
Mg8 O14 2.146135 1_455
Mg8 O16 2.200110 1_565
Mg8 O27 2.210486 1_555
Mg9 O19 2.109894 1_555
Mg9 O26 2.136603 1_556
Mg9 O11 2.146135 1_555
Mg9 O15 2.146135 1_455
Mg9 O17 2.200110 1_565
Mg9 O27 2.210486 1_555
Mg10 O22 2.149797 1_555
Mg10 O20 2.154472 1_555
Mg10 O12 2.158292 1_555
Mg10 O8 2.158292 1_555
Mg10 O28 2.160283 1_555
Mg10 O29 2.180616 1_555
Mg11 O23 2.149797 1_555
Mg11 O21 2.154472 1_555
Mg11 O13 2.158292 1_555
Mg11 O9 2.158292 1_555
Mg11 O28 2.160283 1_556
Mg11 O29 2.180616 1_555
Mg12 O22 2.149797 1_555
Mg12 O20 2.154472 1_565
Mg12 O14 2.158292 1_555
Mg12 O10 2.158292 1_555
Mg12 O30 2.160283 1_555
Mg12 O31 2.180616 1_555
Mg13 O23 2.149797 1_555
Mg13 O21 2.154472 1_565
Mg13 O15 2.158292 1_555
Mg13 O11 2.158292 1_555
Mg13 O30 2.160283 1_556
Mg13 O31 2.180616 1_555
Mg14 O20 2.109894 1_555
Mg14 O0 2.136603 1_555
Mg14 O8 2.146135 1_555
Mg14 O10 2.146135 1_545
Mg14 O16 2.200110 1_555
Mg14 O1 2.210486 1_555
Mg15 O21 2.109894 1_555
Mg15 O0 2.136603 1_556
Mg15 O9 2.146135 1_555
Mg15 O11 2.146135 1_545
Mg15 O17 2.200110 1_555
Mg15 O1 2.210486 1_555
Mg16 O22 2.149797 1_555
Mg16 O18 2.154472 1_555
Mg16 O10 2.158292 1_555
Mg16 O8 2.158292 1_555
Mg16 O2 2.160283 1_555
Mg16 O3 2.180616 1_555
Mg17 O23 2.149797 1_555
Mg17 O19 2.154472 1_555
Mg17 O11 2.158292 1_555
Mg17 O9 2.158292 1_555
Mg17 O2 2.160283 1_556
Mg17 O3 2.180616 1_555
Mg18 O20 2.109894 1_555
Mg18 O4 2.136603 1_555
Mg18 O12 2.146135 1_555
Mg18 O14 2.146135 1_545
Mg18 O16 2.200110 1_655
Mg18 O5 2.210486 1_555
Mg19 O21 2.109894 1_555
Mg19 O4 2.136603 1_556
Mg19 O13 2.146135 1_555
Mg19 O15 2.146135 1_545
Mg19 O17 2.200110 1_655
Mg19 O5 2.210486 1_555
Mg20 O22 2.149797 1_555
Mg20 O18 2.154472 1_655
Mg20 O14 2.158292 1_555
Mg20 O12 2.158292 1_555
Mg20 O6 2.160283 1_555
Mg20 O7 2.180616 1_555
Mg21 O23 2.149797 1_555
Mg21 O19 2.154472 1_655
Mg21 O15 2.158292 1_555
Mg21 O13 2.158292 1_555
Mg21 O6 2.160283 1_556
Mg21 O7 2.180616 1_555
Mg22 O2 2.137581 1_555
Mg22 O28 2.137581 1_555
Mg22 O24 2.174609 1_555
Mg22 O0 2.174609 1_555
Mg22 O8 2.177998 1_555
Mg22 O9 2.177998 1_554
Mg23 O3 2.120923 1_555
Mg23 O29 2.120923 1_555
Mg23 O9 2.163447 1_555
Mg23 O8 2.163447 1_555
Mg23 O25 2.182471 1_555
Mg23 O1 2.182471 1_555
Mg24 O2 2.137581 1_555
Mg24 O30 2.137581 1_555
Mg24 O0 2.174609 1_565
Mg24 O26 2.174609 1_555
Mg24 O10 2.177998 1_555
Mg24 O11 2.177998 1_554
Mg25 O31 2.120923 1_555
Mg25 O3 2.120923 1_555
Mg25 O11 2.163447 1_555
Mg25 O10 2.163447 1_555
Mg25 O27 2.182471 1_555
Mg25 O1 2.182471 1_565
Mg26 O28 2.137581 1_555
Mg26 O6 2.137581 1_555
Mg26 O24 2.174609 1_655
Mg26 O4 2.174609 1_555
Mg26 O12 2.177998 1_555
Mg26 O13 2.177998 1_554
Mg27 O7 2.120923 1_555
Mg27 O29 2.120923 1_555
Mg27 O13 2.163447 1_555
Mg27 O12 2.163447 1_555
Mg27 O25 2.182471 1_655
Mg27 O5 2.182471 1_555
Mg28 O6 2.137581 1_555
Mg28 O30 2.137581 1_555
Mg28 O4 2.174609 1_565
Mg28 O26 2.174609 1_655
Mg28 O14 2.177998 1_555
Mg28 O15 2.177998 1_554
Mg29 O31 2.120923 1_555
Mg29 O7 2.120923 1_555
Mg29 O15 2.163447 1_555
Mg29 O14 2.163447 1_555
Mg29 O27 2.182471 1_655
Mg29 O5 2.182471 1_565
O1 W0 2.193066 1_555
O5 W0 2.193066 1_655
O16 W0 2.064867 1_555
O17 W0 2.064867 1_555
O25 W0 2.193066 1_555
O27 W0 2.193066 1_565
