# generated using pymatgen
data_Ba2BiSbO6
_symmetry_space_group_name_H-M   'P 1'
_cell_length_a   8.48274871
_cell_length_b   6.19958083
_cell_length_c   6.46667583
_cell_angle_alpha   100.79356757
_cell_angle_beta   123.20877296
_cell_angle_gamma   62.78025938
_symmetry_Int_Tables_number   1
_chemical_formula_structural   Ba2BiSbO6
_chemical_formula_sum   'Ba2 Bi1 Sb1 O6'
_cell_volume   252.11175223
_cell_formula_units_Z   1
loop_
 _symmetry_equiv_pos_site_id
 _symmetry_equiv_pos_as_xyz
  1  'x, y, z'
loop_
 _atom_site_type_symbol
 _atom_site_label
 _atom_site_symmetry_multiplicity
 _atom_site_fract_x
 _atom_site_fract_y
 _atom_site_fract_z
 _atom_site_occupancy
  Ba  Ba0  1  0.27500800  0.16818300  0.64346400  1
  Ba  Ba1  1  0.72499200  0.83181700  0.35653600  1
  Bi  Bi0  1  0.00000000  0.00000000  0.00000000  1
  Sb  Sb0  1  0.00000000  0.50000000  0.00000000  1
  O  O0  1  0.69653700  0.01509700  0.97292600  1
  O  O1  1  0.68191100  0.79216300  0.84816400  1
  O  O2  1  0.94031200  0.44210100  0.66020500  1
  O  O3  1  0.30346300  0.98490300  0.02707400  1
  O  O4  1  0.31808900  0.20783700  0.15183600  1
  O  O5  1  0.05968800  0.55789900  0.33979500  1
loop_
_geom_bond_atom_site_label_1
_geom_bond_atom_site_label_2
_geom_bond_distance
_geom_bond_site_symmetry_2
Ba0 O2 2.610258 1_455
Ba0 O5 2.615510 1_555
Ba0 O0 2.744757 1_555
Ba0 O3 2.766235 1_546
Ba0 O1 2.809009 1_545
Ba0 O4 3.076523 1_556
Ba0 O4 3.456711 1_555
Ba1 O5 2.610258 1_655
Ba1 O2 2.615510 1_555
Ba1 O3 2.744757 1_555
Ba1 O0 2.766235 1_564
Ba1 O4 2.809009 1_565
Ba1 O1 3.076523 1_554
Ba1 O1 3.456711 1_555
Bi0 O0 2.440896 1_454
Bi0 O3 2.440896 1_545
O0 O1 1.485290 1_545
O1 Sb0 2.195121 1_656
O2 Sb0 1.966137 1_656
O3 O4 1.485290 1_565
O4 Sb0 2.195121 1_555
O5 Sb0 1.966137 1_555
