# generated using pymatgen
data_Pr2Ni5B4
_symmetry_space_group_name_H-M   'P 1'
_cell_length_a   5.09584434
_cell_length_b   5.50597501
_cell_length_c   6.14015776
_cell_angle_alpha   70.88581081
_cell_angle_beta   65.48317360
_cell_angle_gamma   62.43491292
_symmetry_Int_Tables_number   1
_chemical_formula_structural   Pr2Ni5B4
_chemical_formula_sum   'Pr2 Ni5 B4'
_cell_volume   136.97980403
_cell_formula_units_Z   1
loop_
 _symmetry_equiv_pos_site_id
 _symmetry_equiv_pos_as_xyz
  1  'x, y, z'
loop_
 _atom_site_type_symbol
 _atom_site_label
 _atom_site_symmetry_multiplicity
 _atom_site_fract_x
 _atom_site_fract_y
 _atom_site_fract_z
 _atom_site_occupancy
  Pr  Pr0  1  0.27476006  0.80229249  0.64818739  1
  Pr  Pr1  1  0.72523994  0.19770751  0.35181261  1
  Ni  Ni0  1  0.17709793  0.27912382  0.87279237  1
  Ni  Ni1  1  0.67098488  0.27912382  0.87279237  1
  Ni  Ni2  1  0.82290207  0.72087618  0.12720763  1
  Ni  Ni3  1  0.32901512  0.72087618  0.12720763  1
  Ni  Ni4  1  0.00000000  0.50000000  0.50000000  1
  B  B0  1  0.77922170  0.60087446  0.84068415  1
  B  B1  1  0.22077830  0.39912554  0.15931585  1
  B  B2  1  0.40142866  0.05901735  0.13812634  1
  B  B3  1  0.59857134  0.94098265  0.86187366  1
loop_
_geom_bond_atom_site_label_1
_geom_bond_atom_site_label_2
_geom_bond_distance
_geom_bond_site_symmetry_2
Ni0 Pr0 2.933038 1_555
Ni0 Pr1 2.936847 1_456
Ni0 Pr0 3.104000 1_545
Ni0 Pr1 3.255883 1_555
Ni1 Pr0 2.933036 1_555
Ni1 Pr1 2.936850 1_556
Ni1 Pr0 3.104002 1_645
Ni1 Pr1 3.255881 1_555
Ni2 Pr1 2.933038 1_555
Ni2 Pr0 2.936847 1_654
Ni2 Pr1 3.104000 1_565
Ni2 Pr0 3.255883 1_555
Ni3 Pr1 2.933036 1_555
Ni3 Pr0 2.936850 1_554
Ni3 Pr1 3.104002 1_465
Ni3 Pr0 3.255881 1_555
Ni4 Pr0 3.124818 1_455
Ni4 Pr1 3.124818 1_555
Ni4 Pr1 3.124818 1_455
Ni4 Pr0 3.124818 1_555
Ni4 Pr0 3.366891 1_545
Ni4 Pr1 3.366891 1_465
B0 B3 1.683982 1_555
B0 Ni0 2.016628 1_655
B0 Ni1 2.016638 1_555
B0 Ni4 2.044377 1_655
B0 Ni2 2.191717 1_556
B0 Ni3 2.191719 1_556
B0 Pr0 2.873993 1_655
B0 Pr0 2.874002 1_555
B1 B2 1.683982 1_555
B1 Ni2 2.016628 1_455
B1 Ni3 2.016638 1_555
B1 Ni4 2.044377 1_555
B1 Ni0 2.191717 1_554
B1 Ni1 2.191719 1_554
B1 Pr1 2.873993 1_455
B1 Pr1 2.874002 1_555
B2 B3 1.735592 1_544
B2 Ni2 2.084483 1_545
B2 Ni3 2.084483 1_545
B2 Ni1 2.097655 1_554
B2 Ni0 2.097662 1_554
B2 Pr0 2.913879 1_545
B2 Pr1 2.940512 1_555
B2 Pr1 2.940516 1_455
B3 Ni0 2.084483 1_565
B3 Ni1 2.084483 1_565
B3 Ni3 2.097655 1_556
B3 Ni2 2.097662 1_556
B3 Pr1 2.913879 1_565
B3 Pr0 2.940512 1_555
B3 Pr0 2.940516 1_655
