# generated using pymatgen
data_Mg(C2N3)2
_symmetry_space_group_name_H-M   'P 1'
_cell_length_a   6.74886900
_cell_length_b   7.21005900
_cell_length_c   7.46480900
_cell_angle_alpha   90.00000000
_cell_angle_beta   90.00000000
_cell_angle_gamma   90.00000000
_symmetry_Int_Tables_number   1
_chemical_formula_structural   Mg(C2N3)2
_chemical_formula_sum   'Mg2 C8 N12'
_cell_volume   363.23569251
_cell_formula_units_Z   2
loop_
 _symmetry_equiv_pos_site_id
 _symmetry_equiv_pos_as_xyz
  1  'x, y, z'
loop_
 _atom_site_type_symbol
 _atom_site_label
 _atom_site_symmetry_multiplicity
 _atom_site_fract_x
 _atom_site_fract_y
 _atom_site_fract_z
 _atom_site_occupancy
  Mg  Mg0  1  0.50000000  0.50000000  0.50000000  1
  Mg  Mg1  1  0.00000000  0.00000000  0.00000000  1
  C  C0  1  0.77693600  0.17926700  0.65139000  1
  C  C1  1  0.27693600  0.32073300  0.84861000  1
  C  C2  1  0.77693600  0.17926700  0.34861000  1
  C  C3  1  0.27693600  0.32073300  0.15139000  1
  C  C4  1  0.72306400  0.67926700  0.15139000  1
  C  C5  1  0.22306400  0.82073300  0.34861000  1
  C  C6  1  0.22306400  0.82073300  0.65139000  1
  C  C7  1  0.72306400  0.67926700  0.84861000  1
  N  N0  1  0.78975700  0.74660900  0.00000000  1
  N  N1  1  0.28975700  0.75339100  0.50000000  1
  N  N2  1  0.83029300  0.12591500  0.20819200  1
  N  N3  1  0.33029300  0.37408500  0.29180800  1
  N  N4  1  0.66970700  0.62591500  0.29180800  1
  N  N5  1  0.16970700  0.87408500  0.20819200  1
  N  N6  1  0.16970700  0.87408500  0.79180800  1
  N  N7  1  0.66970700  0.62591500  0.70819200  1
  N  N8  1  0.33029300  0.37408500  0.70819200  1
  N  N9  1  0.83029300  0.12591500  0.79180800  1
  N  N10  1  0.71024300  0.24660900  0.50000000  1
  N  N11  1  0.21024300  0.25339100  0.00000000  1
loop_
_geom_bond_atom_site_label_1
_geom_bond_atom_site_label_2
_geom_bond_distance
_geom_bond_site_symmetry_2
Mg0 N3 2.133366 1_555
Mg0 N4 2.133366 1_555
Mg0 N8 2.133366 1_555
Mg0 N7 2.133366 1_555
Mg0 N10 2.313241 1_555
Mg0 N1 2.313241 1_555
Mg1 N5 2.133366 1_545
Mg1 N6 2.133366 1_544
Mg1 N2 2.133366 1_455
Mg1 N9 2.133366 1_454
Mg1 N11 2.313241 1_555
Mg1 N0 2.313241 1_445
C0 N9 1.173181 1_555
C0 N10 1.309756 1_555
C1 N8 1.173181 1_555
C1 N11 1.309756 1_556
C2 N2 1.173181 1_555
C2 N10 1.309756 1_555
C3 N3 1.173181 1_555
C3 N11 1.309756 1_555
C4 N4 1.173181 1_555
C4 N0 1.309756 1_555
C5 N5 1.173181 1_555
C5 N1 1.309756 1_555
C6 N6 1.173181 1_555
C6 N1 1.309756 1_555
C7 N7 1.173181 1_555
C7 N0 1.309756 1_556
