# generated using pymatgen
data_Cr3B7O13F
_symmetry_space_group_name_H-M   'P 1'
_cell_length_a   8.63831625
_cell_length_b   8.63831625
_cell_length_c   8.63831625
_cell_angle_alpha   60.00000000
_cell_angle_beta   60.00000000
_cell_angle_gamma   60.00000000
_symmetry_Int_Tables_number   1
_chemical_formula_structural   Cr3B7O13F
_chemical_formula_sum   'Cr6 B14 O26 F2'
_cell_volume   455.79788042
_cell_formula_units_Z   2
loop_
 _symmetry_equiv_pos_site_id
 _symmetry_equiv_pos_as_xyz
  1  'x, y, z'
loop_
 _atom_site_type_symbol
 _atom_site_label
 _atom_site_symmetry_multiplicity
 _atom_site_fract_x
 _atom_site_fract_y
 _atom_site_fract_z
 _atom_site_occupancy
  Cr  Cr0  1  0.50000000  0.00000000  0.00000000  1
  Cr  Cr1  1  0.00000000  0.50000000  0.50000000  1
  Cr  Cr2  1  0.00000000  0.50000000  0.00000000  1
  Cr  Cr3  1  0.50000000  0.00000000  0.50000000  1
  Cr  Cr4  1  0.00000000  0.00000000  0.50000000  1
  Cr  Cr5  1  0.50000000  0.50000000  0.00000000  1
  B  B0  1  0.07994600  0.07994600  0.07994600  1
  B  B1  1  0.07994600  0.07994600  0.76016100  1
  B  B2  1  0.07994600  0.76016100  0.07994600  1
  B  B3  1  0.57994600  0.57994600  0.57994600  1
  B  B4  1  0.76016100  0.07994600  0.07994600  1
  B  B5  1  0.57994600  0.57994600  0.26016100  1
  B  B6  1  0.26016100  0.57994600  0.57994600  1
  B  B7  1  0.57994600  0.26016100  0.57994600  1
  B  B8  1  0.75000000  0.25000000  0.25000000  1
  B  B9  1  0.25000000  0.75000000  0.75000000  1
  B  B10  1  0.25000000  0.75000000  0.25000000  1
  B  B11  1  0.75000000  0.25000000  0.75000000  1
  B  B12  1  0.25000000  0.25000000  0.75000000  1
  B  B13  1  0.75000000  0.75000000  0.25000000  1
  O  O0  1  0.25661100  0.10313700  0.93598800  1
  O  O1  1  0.10313700  0.25661100  0.70426400  1
  O  O2  1  0.93598800  0.70426400  0.25661100  1
  O  O3  1  0.93598800  0.25661100  0.10313700  1
  O  O4  1  0.60313700  0.75661100  0.43598800  1
  O  O5  1  0.70426400  0.93598800  0.10313700  1
  O  O6  1  0.70426400  0.10313700  0.25661100  1
  O  O7  1  0.75661100  0.60313700  0.20426400  1
  O  O8  1  0.25661100  0.93598800  0.70426400  1
  O  O9  1  0.20426400  0.43598800  0.75661100  1
  O  O10  1  0.10313700  0.70426400  0.93598800  1
  O  O11  1  0.43598800  0.20426400  0.60313700  1
  O  O12  1  0.10313700  0.93598800  0.25661100  1
  O  O13  1  0.75661100  0.43598800  0.60313700  1
  O  O14  1  0.70426400  0.25661100  0.93598800  1
  O  O15  1  0.43598800  0.75661100  0.20426400  1
  O  O16  1  0.93598800  0.10313700  0.70426400  1
  O  O17  1  0.20426400  0.60313700  0.43598800  1
  O  O18  1  0.25661100  0.70426400  0.10313700  1
  O  O19  1  0.60313700  0.20426400  0.75661100  1
  O  O20  1  0.43598800  0.60313700  0.75661100  1
  O  O21  1  0.20426400  0.75661100  0.60313700  1
  O  O22  1  0.60313700  0.43598800  0.20426400  1
  O  O23  1  0.75661100  0.20426400  0.43598800  1
  O  O24  1  0.00000000  0.00000000  0.00000000  1
  O  O25  1  0.50000000  0.50000000  0.50000000  1
  F  F0  1  0.25000000  0.25000000  0.25000000  1
  F  F1  1  0.75000000  0.75000000  0.75000000  1
loop_
_geom_bond_atom_site_label_1
_geom_bond_atom_site_label_2
_geom_bond_distance
_geom_bond_site_symmetry_2
Cr0 O5 2.077661 1_545
Cr0 O19 2.077661 1_554
Cr0 O15 2.077661 1_545
Cr0 O0 2.077661 1_554
Cr1 O17 2.077661 1_555
Cr1 O1 2.077661 1_555
Cr1 O2 2.077661 1_455
Cr1 O13 2.077661 1_455
Cr2 O10 2.077661 1_554
Cr2 O7 2.077661 1_455
Cr2 O9 2.077661 1_554
Cr2 O3 2.077661 1_455
Cr3 O11 2.077661 1_555
Cr3 O6 2.077661 1_555
Cr3 O8 2.077661 1_545
Cr3 O4 2.077661 1_545
Cr4 O16 2.077661 1_455
Cr4 O21 2.077661 1_545
Cr4 O23 2.077661 1_455
Cr4 O12 2.077661 1_545
Cr5 O22 2.077661 1_555
Cr5 O18 2.077661 1_555
Cr5 O14 2.077661 1_554
Cr5 O20 2.077661 1_554
B0 O3 1.440254 1_455
B0 O12 1.440254 1_545
B0 O0 1.440254 1_554
B0 O24 1.691615 1_555
B1 O16 1.440248 1_455
B1 O8 1.440252 1_545
B1 O1 1.440256 1_555
B1 O24 1.691622 1_556
B2 O10 1.440248 1_554
B2 O2 1.440252 1_455
B2 O18 1.440256 1_555
B2 O24 1.691622 1_565
B3 O4 1.440254 1_555
B3 O13 1.440254 1_555
B3 O20 1.440254 1_555
B3 O25 1.691615 1_555
B4 O5 1.440248 1_545
B4 O14 1.440252 1_554
B4 O6 1.440256 1_555
B4 O24 1.691622 1_655
B5 O22 1.440248 1_555
B5 O15 1.440252 1_555
B5 O7 1.440256 1_555
B5 O25 1.691622 1_555
B6 O17 1.440248 1_555
B6 O9 1.440252 1_555
B6 O21 1.440256 1_555
B6 O25 1.691622 1_555
B7 O11 1.440248 1_555
B7 O23 1.440252 1_555
B7 O19 1.440256 1_555
B7 O25 1.691622 1_555
B8 O23 1.474798 1_555
B8 O3 1.474798 1_555
B8 O22 1.474798 1_555
B8 O6 1.474798 1_555
B9 O8 1.474798 1_555
B9 O10 1.474798 1_555
B9 O20 1.474798 1_555
B9 O21 1.474798 1_555
B10 O15 1.474798 1_555
B10 O12 1.474798 1_555
B10 O17 1.474798 1_555
B10 O18 1.474798 1_555
B11 O14 1.474798 1_555
B11 O16 1.474798 1_555
B11 O13 1.474798 1_555
B11 O19 1.474798 1_555
B12 O9 1.474798 1_555
B12 O0 1.474798 1_555
B12 O11 1.474798 1_555
B12 O1 1.474798 1_555
B13 O2 1.474798 1_555
B13 O5 1.474798 1_555
B13 O4 1.474798 1_555
B13 O7 1.474798 1_555
