# generated using pymatgen
data_GdEr4Al15
_symmetry_space_group_name_H-M   'P 1'
_cell_length_a   12.41446198
_cell_length_b   12.41446198
_cell_length_c   12.41446281
_cell_angle_alpha   28.45355097
_cell_angle_beta   28.45355097
_cell_angle_gamma   28.45354955
_symmetry_Int_Tables_number   1
_chemical_formula_structural   GdEr4Al15
_chemical_formula_sum   'Gd1 Er4 Al15'
_cell_volume   383.85458175
_cell_formula_units_Z   1
loop_
 _symmetry_equiv_pos_site_id
 _symmetry_equiv_pos_as_xyz
  1  'x, y, z'
loop_
 _atom_site_type_symbol
 _atom_site_label
 _atom_site_symmetry_multiplicity
 _atom_site_fract_x
 _atom_site_fract_y
 _atom_site_fract_z
 _atom_site_occupancy
  Gd  Gd0  1  0.00000000  0.00000000  0.00000000  1
  Er  Er0  1  0.86898500  0.86898500  0.86898500  1
  Er  Er1  1  0.13101500  0.13101500  0.13101500  1
  Er  Er2  1  0.59983100  0.59983100  0.59983100  1
  Er  Er3  1  0.40016900  0.40016900  0.40016900  1
  Al  Al0  1  0.50000000  0.50000000  0.00000000  1
  Al  Al1  1  0.00000000  0.50000000  0.50000000  1
  Al  Al2  1  0.50000000  0.00000000  0.50000000  1
  Al  Al3  1  0.36329200  0.87123100  0.36329200  1
  Al  Al4  1  0.36329200  0.36329200  0.87123100  1
  Al  Al5  1  0.87123100  0.36329200  0.36329200  1
  Al  Al6  1  0.63670800  0.12876900  0.63670800  1
  Al  Al7  1  0.63670800  0.63670800  0.12876900  1
  Al  Al8  1  0.12876900  0.63670800  0.63670800  1
  Al  Al9  1  0.11552400  0.56923300  0.11552400  1
  Al  Al10  1  0.11552400  0.11552400  0.56923300  1
  Al  Al11  1  0.56923300  0.11552400  0.11552400  1
  Al  Al12  1  0.88447600  0.43076700  0.88447600  1
  Al  Al13  1  0.88447600  0.88447600  0.43076700  1
  Al  Al14  1  0.43076700  0.88447600  0.88447600  1
loop_
_geom_bond_atom_site_label_1
_geom_bond_atom_site_label_2
_geom_bond_distance
_geom_bond_site_symmetry_2
Al0 Al9 2.914540 1_555
Al0 Al11 2.914540 1_555
Al0 Al14 2.914540 1_554
Al0 Al12 2.914540 1_554
Al0 Er3 2.966464 1_555
Al0 Er2 2.966464 1_554
Al0 Gd0 3.050983 1_565
Al0 Gd0 3.050983 1_655
Al0 Al1 3.050983 1_555
Al0 Al1 3.050983 1_654
Al0 Al2 3.050983 1_555
Al0 Al2 3.050983 1_564
Al1 Al10 2.914540 1_555
Al1 Al13 2.914540 1_455
Al1 Al9 2.914541 1_555
Al1 Al12 2.914541 1_455
Al1 Er3 2.966464 1_555
Al1 Er2 2.966464 1_455
Al1 Al2 3.050983 1_465
Al1 Al2 3.050983 1_555
Al1 Gd0 3.050983 1_565
Al1 Gd0 3.050983 1_556
Al2 Er2 2.966464 1_545
Al2 Er3 2.966464 1_555
Al2 Gd0 3.050983 1_655
Al2 Gd0 3.050983 1_556
Al3 Al8 2.936912 1_555
Al3 Al7 2.936912 1_555
Al3 Er1 2.991151 1_565
Al3 Er2 2.994322 1_555
Al3 Al5 3.002539 1_465
Al3 Al4 3.002540 1_564
Al3 Er0 3.053051 1_554
Al3 Er0 3.053051 1_455
Al3 Al5 3.099427 1_555
Al3 Al4 3.099427 1_555
Al4 Al9 2.932245 1_556
Al4 Al8 2.936912 1_555
Al4 Al6 2.936912 1_555
Al4 Er1 2.991151 1_556
Al4 Er2 2.994322 1_555
Al4 Al5 3.002540 1_456
Al4 Er0 3.053051 1_455
Al4 Er0 3.053051 1_545
Al4 Al5 3.099427 1_555
Al5 Al9 2.932245 1_655
Al5 Al6 2.936912 1_555
Al5 Al7 2.936912 1_555
Al5 Er1 2.991151 1_655
Al5 Er2 2.994322 1_555
Al5 Er0 3.053051 1_554
Al5 Er0 3.053051 1_545
Al6 Er0 2.991151 1_545
Al6 Er3 2.994322 1_555
Al6 Al8 3.002539 1_645
Al6 Al7 3.002540 1_546
Al6 Er1 3.053051 1_556
Al6 Er1 3.053051 1_655
Al6 Al8 3.099427 1_555
Al6 Al7 3.099427 1_555
Al7 Er0 2.991151 1_554
Al7 Er3 2.994322 1_555
Al7 Al8 3.002540 1_654
Al7 Er1 3.053051 1_565
Al7 Er1 3.053051 1_655
Al7 Al8 3.099427 1_555
Al8 Er0 2.991151 1_455
Al8 Er3 2.994322 1_555
Al8 Er1 3.053051 1_556
Al8 Er1 3.053051 1_565
Al9 Er0 3.000046 1_454
Al9 Er2 3.055353 1_455
Al9 Er2 3.055353 1_554
Al9 Gd0 3.058814 1_565
Al10 Al11 2.768517 1_555
Al10 Al9 2.768517 1_555
Al10 Al2 2.914540 1_555
Al10 Al5 2.932245 1_455
Al10 Al3 2.932245 1_545
Al10 Er0 3.000045 1_445
Al10 Er2 3.055353 1_455
Al10 Er2 3.055353 1_545
Al10 Gd0 3.058815 1_556
Al11 Al9 2.768517 1_555
Al11 Al2 2.914541 1_555
Al11 Al3 2.932245 1_545
Al11 Al4 2.932245 1_554
Al11 Er0 3.000046 1_544
Al11 Er2 3.055353 1_545
Al11 Er2 3.055353 1_554
Al11 Gd0 3.058814 1_655
Al12 Al14 2.768517 1_555
Al12 Al13 2.768517 1_555
Al12 Al8 2.932245 1_655
Al12 Al7 2.932245 1_556
Al12 Er1 3.000046 1_656
Al12 Er3 3.055353 1_655
Al12 Er3 3.055353 1_556
Al12 Gd0 3.058814 1_656
Al13 Al14 2.768517 1_555
Al13 Al2 2.914540 1_565
Al13 Al6 2.932245 1_565
Al13 Al8 2.932245 1_655
Al13 Er1 3.000045 1_665
Al13 Er3 3.055353 1_565
Al13 Er3 3.055353 1_655
Al13 Gd0 3.058815 1_665
Al14 Al2 2.914541 1_565
Al14 Al6 2.932245 1_565
Al14 Al7 2.932245 1_556
Al14 Er1 3.000046 1_566
Al14 Er3 3.055353 1_565
Al14 Er3 3.055353 1_556
Al14 Gd0 3.058814 1_566
