# generated using pymatgen
data_Mn5SiC
_symmetry_space_group_name_H-M   'P 1'
_cell_length_a   6.37276748
_cell_length_b   6.37276748
_cell_length_c   7.50478700
_cell_angle_alpha   90.00000000
_cell_angle_beta   90.00000000
_cell_angle_gamma   104.56967191
_symmetry_Int_Tables_number   1
_chemical_formula_structural   Mn5SiC
_chemical_formula_sum   'Mn20 Si4 C4'
_cell_volume   294.98449404
_cell_formula_units_Z   4
loop_
 _symmetry_equiv_pos_site_id
 _symmetry_equiv_pos_as_xyz
  1  'x, y, z'
loop_
 _atom_site_type_symbol
 _atom_site_label
 _atom_site_symmetry_multiplicity
 _atom_site_fract_x
 _atom_site_fract_y
 _atom_site_fract_z
 _atom_site_occupancy
  Mn  Mn0  1  0.51102000  0.81314200  0.87455500  1
  Mn  Mn1  1  0.81314200  0.51102000  0.87455500  1
  Mn  Mn2  1  0.48898000  0.18685800  0.37455500  1
  Mn  Mn3  1  0.18685800  0.48898000  0.37455500  1
  Mn  Mn4  1  0.54041600  0.54041600  0.17692500  1
  Mn  Mn5  1  0.45958400  0.45958400  0.67692500  1
  Mn  Mn6  1  0.86094800  0.86094800  0.69027600  1
  Mn  Mn7  1  0.13905200  0.13905200  0.19027600  1
  Mn  Mn8  1  0.87188900  0.12176400  0.93976800  1
  Mn  Mn9  1  0.12176400  0.87188900  0.93976800  1
  Mn  Mn10  1  0.12811100  0.87823600  0.43976800  1
  Mn  Mn11  1  0.87823600  0.12811100  0.43976800  1
  Mn  Mn12  1  0.70515100  0.93964300  0.19093400  1
  Mn  Mn13  1  0.93964300  0.70515100  0.19093400  1
  Mn  Mn14  1  0.29484900  0.06035700  0.69093400  1
  Mn  Mn15  1  0.06035700  0.29484900  0.69093400  1
  Mn  Mn16  1  0.51561600  0.81674900  0.50210300  1
  Mn  Mn17  1  0.81674900  0.51561600  0.50210300  1
  Mn  Mn18  1  0.48438400  0.18325100  0.00210300  1
  Mn  Mn19  1  0.18325100  0.48438400  0.00210300  1
  Si  Si0  1  0.66424400  0.17352800  0.68853400  1
  Si  Si1  1  0.17352800  0.66424400  0.68853400  1
  Si  Si2  1  0.33575600  0.82647200  0.18853400  1
  Si  Si3  1  0.82647200  0.33575600  0.18853400  1
  C  C0  1  0.79816600  0.79816600  0.97461100  1
  C  C1  1  0.20183400  0.20183400  0.47461100  1
  C  C2  1  0.80723100  0.80723100  0.40779900  1
  C  C3  1  0.19276900  0.19276900  0.90779900  1
loop_
_geom_bond_atom_site_label_1
_geom_bond_atom_site_label_2
_geom_bond_distance
_geom_bond_site_symmetry_2
Mn0 Si1 2.539357 1_555
Mn0 Si2 2.618171 1_556
Mn0 Mn5 2.648078 1_555
Mn0 Si0 2.654953 1_565
Mn1 Si0 2.539357 1_555
Mn1 Si3 2.618171 1_556
Mn1 Mn5 2.648078 1_555
Mn1 Si1 2.654953 1_655
Mn2 Si3 2.539357 1_555
Mn2 Si0 2.618171 1_555
Mn2 Mn4 2.648078 1_555
Mn2 Si2 2.654953 1_545
Mn3 Si2 2.539357 1_555
Mn3 Si1 2.618171 1_555
Mn3 Mn4 2.648078 1_555
Mn3 Si3 2.654953 1_455
Mn4 Si2 2.495613 1_555
Mn4 Si3 2.495613 1_555
Mn5 Si1 2.495613 1_555
Mn5 Si0 2.495613 1_555
Mn6 Si1 2.606900 1_655
Mn6 Si0 2.606900 1_565
Mn7 Si3 2.606900 1_455
Mn7 Si2 2.606900 1_545
Mn8 Si3 2.372243 1_556
Mn8 Si0 2.373698 1_555
Mn9 Si2 2.372243 1_556
Mn9 Si1 2.373698 1_555
Mn10 Si1 2.372243 1_555
Mn10 Si2 2.373698 1_555
Mn11 Si0 2.372243 1_555
Mn11 Si3 2.373698 1_555
Mn12 Si2 2.282089 1_555
Mn12 Si3 2.447128 1_565
Mn12 Mn4 2.498449 1_555
Mn13 Si3 2.282089 1_555
Mn13 Si2 2.447128 1_655
Mn13 Mn4 2.498449 1_555
Mn14 Si0 2.282089 1_555
Mn14 Si1 2.447128 1_545
Mn14 Mn5 2.498449 1_555
Mn15 Si1 2.282089 1_555
Mn15 Si0 2.447128 1_455
Mn15 Mn5 2.498449 1_555
Mn16 Si1 2.566853 1_555
Mn16 Mn5 2.573074 1_555
Mn16 Si2 2.625116 1_555
Mn16 Si0 2.634535 1_565
Mn17 Si0 2.566853 1_555
Mn17 Mn5 2.573074 1_555
Mn17 Si3 2.625116 1_555
Mn17 Si1 2.634535 1_655
Mn18 Si3 2.566853 1_555
Mn18 Mn4 2.573074 1_555
Mn18 Si0 2.625116 1_554
Mn18 Si2 2.634535 1_545
Mn19 Si2 2.566853 1_555
Mn19 Mn4 2.573074 1_555
Mn19 Si1 2.625116 1_554
Mn19 Si3 2.634535 1_455
C0 Mn1 2.002352 1_555
C0 Mn0 2.002352 1_555
C0 Mn9 2.013550 1_655
C0 Mn8 2.013550 1_565
C0 Mn13 2.017114 1_556
C0 Mn12 2.017114 1_556
C0 Mn6 2.189299 1_555
C0 Mn4 2.518732 1_556
C1 Mn2 2.002352 1_555
C1 Mn3 2.002352 1_555
C1 Mn10 2.013550 1_545
C1 Mn11 2.013550 1_455
C1 Mn14 2.017114 1_555
C1 Mn15 2.017114 1_555
C1 Mn7 2.189299 1_555
C1 Mn5 2.518732 1_555
C2 Mn11 1.994585 1_565
C2 Mn10 1.994585 1_655
C2 Mn17 2.003723 1_555
C2 Mn16 2.003723 1_555
C2 Mn13 2.015009 1_555
C2 Mn12 2.015009 1_555
C2 Mn6 2.160907 1_555
C2 Mn4 2.707377 1_555
C3 Mn9 1.994585 1_545
C3 Mn8 1.994585 1_455
C3 Mn18 2.003723 1_556
C3 Mn19 2.003723 1_556
C3 Mn14 2.015009 1_555
C3 Mn15 2.015009 1_555
C3 Mn7 2.160907 1_556
C3 Mn5 2.707377 1_555
