# generated using pymatgen
data_LaNi4Rh
_symmetry_space_group_name_H-M   'P 1'
_cell_length_a   5.14019734
_cell_length_b   5.14019546
_cell_length_c   3.98215954
_cell_angle_alpha   90.00000000
_cell_angle_beta   90.00000000
_cell_angle_gamma   123.31483923
_symmetry_Int_Tables_number   1
_chemical_formula_structural   LaNi4Rh
_chemical_formula_sum   'La1 Ni4 Rh1'
_cell_volume   87.92459309
_cell_formula_units_Z   1
loop_
 _symmetry_equiv_pos_site_id
 _symmetry_equiv_pos_as_xyz
  1  'x, y, z'
loop_
 _atom_site_type_symbol
 _atom_site_label
 _atom_site_symmetry_multiplicity
 _atom_site_fract_x
 _atom_site_fract_y
 _atom_site_fract_z
 _atom_site_occupancy
  La  La0  1  0.50000000  0.50000000  0.00000000  1
  Ni  Ni0  1  0.18084528  0.81915372  -0.00000000  1
  Ni  Ni1  1  0.81915472  0.18084628  0.00000000  1
  Ni  Ni2  1  -0.00000000  0.50000000  0.50000000  1
  Ni  Ni3  1  0.50000000  0.00000000  0.50000000  1
  Rh  Rh0  1  -0.00000000  0.00000000  0.50000000  1
loop_
_geom_bond_atom_site_label_1
_geom_bond_atom_site_label_2
_geom_bond_distance
_geom_bond_site_symmetry_2
La0 Ni0 2.887716 1_555
La0 Ni1 2.887716 1_555
La0 Ni0 2.938091 1_655
La0 Ni1 2.938091 1_455
La0 Ni1 2.938093 1_565
La0 Ni0 2.938093 1_545
La0 Rh0 3.149494 1_664
La0 Rh0 3.149494 1_555
La0 Rh0 3.149494 1_554
La0 Rh0 3.149494 1_665
La0 Ni3 3.251123 1_564
La0 Ni3 3.251123 1_554
La0 Ni3 3.251123 1_565
La0 Ni3 3.251123 1_555
La0 Ni2 3.251124 1_555
La0 Ni2 3.251124 1_654
La0 Ni2 3.251124 1_655
La0 Ni2 3.251124 1_554
Ni0 Ni2 2.417568 1_555
Ni0 Ni2 2.417568 1_554
Ni0 Ni3 2.417570 1_565
Ni0 Ni3 2.417570 1_564
Ni0 Rh0 2.577182 1_564
Ni0 Rh0 2.577182 1_565
Ni0 Ni1 2.742433 1_455
Ni0 Ni1 2.742442 1_565
Ni1 Ni2 2.417568 1_655
Ni1 Ni2 2.417568 1_654
Ni1 Ni3 2.417570 1_555
Ni1 Ni3 2.417570 1_554
Ni1 Rh0 2.577182 1_655
Ni1 Rh0 2.577182 1_654
Ni2 Ni3 2.440269 1_565
Ni2 Ni3 2.440269 1_455
Ni2 Rh0 2.570098 1_555
Ni2 Rh0 2.570098 1_565
Ni3 Rh0 2.570099 1_555
Ni3 Rh0 2.570099 1_655
