# generated using pymatgen
data_Pb
_symmetry_space_group_name_H-M   'P 1'
_cell_length_a   7.04873254
_cell_length_b   7.04873203
_cell_length_c   22.99048362
_cell_angle_alpha   90.00000000
_cell_angle_beta   90.00000000
_cell_angle_gamma   120.00000230
_symmetry_Int_Tables_number   1
_chemical_formula_structural   Pb
_chemical_formula_sum   Pb32
_cell_volume   989.23793189
_cell_formula_units_Z   32
loop_
 _symmetry_equiv_pos_site_id
 _symmetry_equiv_pos_as_xyz
  1  'x, y, z'
loop_
 _atom_site_type_symbol
 _atom_site_label
 _atom_site_symmetry_multiplicity
 _atom_site_fract_x
 _atom_site_fract_y
 _atom_site_fract_z
 _atom_site_occupancy
  Pb  Pb0_0  1  0.00000000  0.00000000  0.00000000  1
  Pb  Pb0_1  1  0.00000000  0.00000000  0.50000000  1
  Pb  Pb0_2  1  0.00000000  0.50000000  0.00000000  1
  Pb  Pb0_3  1  0.00000000  0.50000000  0.50000000  1
  Pb  Pb0_4  1  0.50000000  0.00000000  0.00000000  1
  Pb  Pb0_5  1  0.50000000  0.00000000  0.50000000  1
  Pb  Pb0_6  1  0.50000000  0.50000000  0.00000000  1
  Pb  Pb0_7  1  0.50000000  0.50000000  0.50000000  1
  Pb  Pb1_0  1  0.16666650  0.33333300  0.12500000  1
  Pb  Pb1_1  1  0.16666650  0.33333300  0.62500000  1
  Pb  Pb1_2  1  0.16666650  0.83333300  0.12500000  1
  Pb  Pb1_3  1  0.16666650  0.83333300  0.62500000  1
  Pb  Pb1_4  1  0.66666650  0.33333300  0.12500000  1
  Pb  Pb1_5  1  0.66666650  0.33333300  0.62500000  1
  Pb  Pb1_6  1  0.66666650  0.83333300  0.12500000  1
  Pb  Pb1_7  1  0.66666650  0.83333300  0.62500000  1
  Pb  Pb2_0  1  0.00000000  0.00000000  0.25000000  1
  Pb  Pb2_1  1  0.00000000  0.00000000  0.75000000  1
  Pb  Pb2_2  1  0.00000000  0.50000000  0.25000000  1
  Pb  Pb2_3  1  0.00000000  0.50000000  0.75000000  1
  Pb  Pb2_4  1  0.50000000  0.00000000  0.25000000  1
  Pb  Pb2_5  1  0.50000000  0.00000000  0.75000000  1
  Pb  Pb2_6  1  0.50000000  0.50000000  0.25000000  1
  Pb  Pb2_7  1  0.50000000  0.50000000  0.75000000  1
  Pb  Pb3_0  1  0.33333350  0.16666650  0.37500000  1
  Pb  Pb3_1  1  0.33333350  0.16666650  0.87500000  1
  Pb  Pb3_2  1  0.33333350  0.66666650  0.37500000  1
  Pb  Pb3_3  1  0.33333350  0.66666650  0.87500000  1
  Pb  Pb3_4  1  0.83333350  0.16666650  0.37500000  1
  Pb  Pb3_5  1  0.83333350  0.16666650  0.87500000  1
  Pb  Pb3_6  1  0.83333350  0.66666650  0.37500000  1
  Pb  Pb3_7  1  0.83333350  0.66666650  0.87500000  1
loop_
_geom_bond_atom_site_label_1
_geom_bond_atom_site_label_2
_geom_bond_distance
_geom_bond_site_symmetry_2
Pb0_0 Pb1_0 3.521245 1_555
Pb0_0 Pb3_5 3.521245 1_454
Pb0_0 Pb3_7 3.521246 1_444
Pb0_0 Pb1_2 3.521246 1_545
Pb0_0 Pb1_6 3.521246 1_445
Pb0_0 Pb3_1 3.521246 1_554
Pb0_0 Pb0_2 3.524366 1_545
Pb0_0 Pb0_2 3.524366 1_555
Pb0_0 Pb0_6 3.524366 1_555
Pb0_0 Pb0_6 3.524366 1_445
Pb0_0 Pb0_4 3.524366 1_455
Pb0_0 Pb0_4 3.524366 1_555
Pb0_1 Pb1_1 3.521245 1_555
Pb0_1 Pb3_4 3.521245 1_455
Pb0_1 Pb3_6 3.521246 1_445
Pb0_1 Pb1_3 3.521246 1_545
Pb0_1 Pb1_7 3.521246 1_445
Pb0_1 Pb3_0 3.521246 1_555
Pb0_1 Pb0_3 3.524366 1_555
Pb0_1 Pb0_3 3.524366 1_545
Pb0_1 Pb0_7 3.524366 1_555
Pb0_1 Pb0_7 3.524366 1_445
Pb0_1 Pb0_5 3.524366 1_455
Pb0_1 Pb0_5 3.524366 1_555
Pb0_2 Pb1_2 3.521245 1_555
Pb0_2 Pb3_7 3.521245 1_454
Pb0_2 Pb3_5 3.521246 1_454
Pb0_2 Pb1_0 3.521246 1_555
Pb0_2 Pb1_4 3.521246 1_455
Pb0_2 Pb3_3 3.521246 1_554
Pb0_2 Pb0_4 3.524366 1_565
Pb0_2 Pb0_4 3.524366 1_455
Pb0_2 Pb0_6 3.524366 1_555
Pb0_2 Pb0_6 3.524366 1_455
Pb0_3 Pb1_3 3.521245 1_555
Pb0_3 Pb3_6 3.521245 1_455
Pb0_3 Pb3_4 3.521246 1_455
Pb0_3 Pb1_1 3.521246 1_555
Pb0_3 Pb1_5 3.521246 1_455
Pb0_3 Pb3_2 3.521246 1_555
Pb0_3 Pb0_5 3.524366 1_455
Pb0_3 Pb0_5 3.524366 1_565
Pb0_3 Pb0_7 3.524366 1_555
Pb0_3 Pb0_7 3.524366 1_455
Pb0_4 Pb1_4 3.521245 1_555
Pb0_4 Pb3_1 3.521245 1_554
Pb0_4 Pb3_3 3.521246 1_544
Pb0_4 Pb1_6 3.521246 1_545
Pb0_4 Pb1_2 3.521246 1_545
Pb0_4 Pb3_5 3.521246 1_554
Pb0_4 Pb0_6 3.524366 1_545
Pb0_4 Pb0_6 3.524366 1_555
Pb0_5 Pb1_5 3.521245 1_555
Pb0_5 Pb3_0 3.521245 1_555
Pb0_5 Pb3_2 3.521246 1_545
Pb0_5 Pb1_7 3.521246 1_545
Pb0_5 Pb1_3 3.521246 1_545
Pb0_5 Pb3_4 3.521246 1_555
Pb0_5 Pb0_7 3.524366 1_545
Pb0_5 Pb0_7 3.524366 1_555
Pb0_6 Pb1_6 3.521245 1_555
Pb0_6 Pb3_3 3.521245 1_554
Pb0_6 Pb3_1 3.521246 1_554
Pb0_6 Pb1_4 3.521246 1_555
Pb0_6 Pb1_0 3.521246 1_555
Pb0_6 Pb3_7 3.521246 1_554
Pb0_7 Pb1_7 3.521245 1_555
Pb0_7 Pb3_2 3.521245 1_555
Pb0_7 Pb3_0 3.521246 1_555
Pb0_7 Pb1_5 3.521246 1_555
Pb0_7 Pb1_1 3.521246 1_555
Pb0_7 Pb3_6 3.521246 1_555
Pb1_0 Pb2_0 3.521245 1_555
Pb1_0 Pb2_2 3.521246 1_555
Pb1_0 Pb2_6 3.521246 1_555
Pb1_0 Pb1_2 3.524366 1_545
Pb1_0 Pb1_2 3.524366 1_555
Pb1_0 Pb1_6 3.524366 1_555
Pb1_0 Pb1_6 3.524366 1_445
Pb1_0 Pb1_4 3.524366 1_455
Pb1_0 Pb1_4 3.524366 1_555
Pb1_1 Pb2_1 3.521245 1_555
Pb1_1 Pb2_3 3.521246 1_555
Pb1_1 Pb2_7 3.521246 1_555
Pb1_1 Pb1_3 3.524366 1_545
Pb1_1 Pb1_3 3.524366 1_555
Pb1_1 Pb1_7 3.524366 1_555
Pb1_1 Pb1_7 3.524366 1_445
Pb1_1 Pb1_5 3.524366 1_455
Pb1_1 Pb1_5 3.524366 1_555
Pb1_2 Pb2_2 3.521245 1_555
Pb1_2 Pb2_0 3.521246 1_565
Pb1_2 Pb2_4 3.521246 1_565
Pb1_2 Pb1_4 3.524366 1_455
Pb1_2 Pb1_4 3.524366 1_565
Pb1_2 Pb1_6 3.524366 1_555
Pb1_2 Pb1_6 3.524366 1_455
Pb1_3 Pb2_3 3.521245 1_555
Pb1_3 Pb2_1 3.521246 1_565
Pb1_3 Pb2_5 3.521246 1_565
Pb1_3 Pb1_5 3.524366 1_455
Pb1_3 Pb1_5 3.524366 1_565
Pb1_3 Pb1_7 3.524366 1_555
Pb1_3 Pb1_7 3.524366 1_455
Pb1_4 Pb2_4 3.521245 1_555
Pb1_4 Pb2_6 3.521246 1_555
Pb1_4 Pb2_2 3.521246 1_655
Pb1_4 Pb1_6 3.524366 1_545
Pb1_4 Pb1_6 3.524366 1_555
Pb1_5 Pb2_5 3.521245 1_555
Pb1_5 Pb2_7 3.521246 1_555
Pb1_5 Pb2_3 3.521246 1_655
Pb1_5 Pb1_7 3.524366 1_545
Pb1_5 Pb1_7 3.524366 1_555
Pb1_6 Pb2_6 3.521245 1_555
Pb1_6 Pb2_4 3.521246 1_565
Pb1_6 Pb2_0 3.521246 1_665
Pb1_7 Pb2_7 3.521245 1_555
Pb1_7 Pb2_5 3.521246 1_565
Pb1_7 Pb2_1 3.521246 1_665
Pb2_0 Pb3_4 3.521245 1_455
Pb2_0 Pb3_6 3.521246 1_445
Pb2_0 Pb3_0 3.521246 1_555
Pb2_0 Pb2_2 3.524366 1_545
Pb2_0 Pb2_2 3.524366 1_555
Pb2_0 Pb2_6 3.524366 1_555
Pb2_0 Pb2_6 3.524366 1_445
Pb2_0 Pb2_4 3.524366 1_455
Pb2_0 Pb2_4 3.524366 1_555
Pb2_1 Pb3_5 3.521245 1_455
Pb2_1 Pb3_7 3.521246 1_445
Pb2_1 Pb3_1 3.521246 1_555
Pb2_1 Pb2_3 3.524366 1_555
Pb2_1 Pb2_3 3.524366 1_545
Pb2_1 Pb2_7 3.524366 1_555
Pb2_1 Pb2_7 3.524366 1_445
Pb2_1 Pb2_5 3.524366 1_455
Pb2_1 Pb2_5 3.524366 1_555
Pb2_2 Pb3_6 3.521245 1_455
Pb2_2 Pb3_4 3.521246 1_455
Pb2_2 Pb3_2 3.521246 1_555
Pb2_2 Pb2_4 3.524366 1_455
Pb2_2 Pb2_4 3.524366 1_565
Pb2_2 Pb2_6 3.524366 1_555
Pb2_2 Pb2_6 3.524366 1_455
Pb2_3 Pb3_7 3.521245 1_455
Pb2_3 Pb3_5 3.521246 1_455
Pb2_3 Pb3_3 3.521246 1_555
Pb2_3 Pb2_5 3.524366 1_455
Pb2_3 Pb2_5 3.524366 1_565
Pb2_3 Pb2_7 3.524366 1_555
Pb2_3 Pb2_7 3.524366 1_455
Pb2_4 Pb3_0 3.521245 1_555
Pb2_4 Pb3_2 3.521246 1_545
Pb2_4 Pb3_4 3.521246 1_555
Pb2_4 Pb2_6 3.524366 1_545
Pb2_4 Pb2_6 3.524366 1_555
Pb2_5 Pb3_1 3.521245 1_555
Pb2_5 Pb3_3 3.521246 1_545
Pb2_5 Pb3_5 3.521246 1_555
Pb2_5 Pb2_7 3.524366 1_545
Pb2_5 Pb2_7 3.524366 1_555
Pb2_6 Pb3_2 3.521245 1_555
Pb2_6 Pb3_0 3.521246 1_555
Pb2_6 Pb3_6 3.521246 1_555
Pb2_7 Pb3_3 3.521245 1_555
Pb2_7 Pb3_1 3.521246 1_555
Pb2_7 Pb3_7 3.521246 1_555
Pb3_0 Pb3_2 3.524366 1_545
Pb3_0 Pb3_2 3.524366 1_555
Pb3_0 Pb3_6 3.524366 1_445
Pb3_0 Pb3_6 3.524366 1_555
Pb3_0 Pb3_4 3.524366 1_555
Pb3_0 Pb3_4 3.524366 1_455
Pb3_1 Pb3_3 3.524366 1_545
Pb3_1 Pb3_3 3.524366 1_555
Pb3_1 Pb3_7 3.524366 1_445
Pb3_1 Pb3_7 3.524366 1_555
Pb3_1 Pb3_5 3.524366 1_555
Pb3_1 Pb3_5 3.524366 1_455
Pb3_2 Pb3_4 3.524366 1_565
Pb3_2 Pb3_4 3.524366 1_455
Pb3_2 Pb3_6 3.524366 1_455
Pb3_2 Pb3_6 3.524366 1_555
Pb3_3 Pb3_5 3.524366 1_565
Pb3_3 Pb3_5 3.524366 1_455
Pb3_3 Pb3_7 3.524366 1_455
Pb3_3 Pb3_7 3.524366 1_555
Pb3_4 Pb3_6 3.524366 1_555
Pb3_4 Pb3_6 3.524366 1_545
Pb3_5 Pb3_7 3.524366 1_555
Pb3_5 Pb3_7 3.524366 1_545
