# generated using pymatgen
data_CdCu2SiSe4
_symmetry_space_group_name_H-M   'P 1'
_cell_length_a   6.62962200
_cell_length_b   6.85525400
_cell_length_c   8.10158500
_cell_angle_alpha   90.00000000
_cell_angle_beta   90.00000000
_cell_angle_gamma   90.00000000
_symmetry_Int_Tables_number   1
_chemical_formula_structural   CdCu2SiSe4
_chemical_formula_sum   'Cd2 Cu4 Si2 Se8'
_cell_volume   368.19875082
_cell_formula_units_Z   2
loop_
 _symmetry_equiv_pos_site_id
 _symmetry_equiv_pos_as_xyz
  1  'x, y, z'
loop_
 _atom_site_type_symbol
 _atom_site_label
 _atom_site_symmetry_multiplicity
 _atom_site_fract_x
 _atom_site_fract_y
 _atom_site_fract_z
 _atom_site_occupancy
  Cd  Cd0  1  0.62865500  0.34810200  0.50000000  1
  Cd  Cd1  1  0.12865500  0.65189800  0.00000000  1
  Cu  Cu0  1  0.13078600  0.17573500  0.24901000  1
  Cu  Cu1  1  0.13078600  0.17573500  0.75099000  1
  Cu  Cu2  1  0.63078600  0.82426500  0.25099000  1
  Cu  Cu3  1  0.63078600  0.82426500  0.74901000  1
  Si  Si0  1  0.12105800  0.67724400  0.50000000  1
  Si  Si1  1  0.62105800  0.32275600  0.00000000  1
  Se  Se0  1  0.03242900  0.35047900  0.50000000  1
  Se  Se1  1  0.53242900  0.64952100  0.00000000  1
  Se  Se2  1  0.47080400  0.70541000  0.50000000  1
  Se  Se3  1  0.97080400  0.29459000  0.00000000  1
  Se  Se4  1  0.49524100  0.15679200  0.22777300  1
  Se  Se5  1  0.49524100  0.15679200  0.77222700  1
  Se  Se6  1  0.99524100  0.84320800  0.27222700  1
  Se  Se7  1  0.99524100  0.84320800  0.72777300  1
loop_
_geom_bond_atom_site_label_1
_geom_bond_atom_site_label_2
_geom_bond_distance
_geom_bond_site_symmetry_2
Cd0 Se2 2.663623 1_555
Cd0 Se0 2.676919 1_655
Cd0 Se4 2.714109 1_555
Cd0 Se5 2.714109 1_555
Cd1 Se3 2.663623 1_455
Cd1 Se1 2.676919 1_555
Cd1 Se7 2.714109 1_454
Cd1 Se6 2.714109 1_455
Cu0 Se3 2.420452 1_455
Cu0 Se4 2.425795 1_555
Cu0 Se0 2.448464 1_555
Cu0 Se6 2.457491 1_445
Cu1 Se3 2.420452 1_456
Cu1 Se5 2.425795 1_555
Cu1 Se0 2.448464 1_555
Cu1 Se7 2.457491 1_445
Cu2 Se2 2.420452 1_555
Cu2 Se6 2.425795 1_555
Cu2 Se1 2.448464 1_555
Cu2 Se4 2.457491 1_565
Cu3 Se2 2.420452 1_555
Cu3 Se7 2.425795 1_555
Cu3 Se1 2.448464 1_556
Cu3 Se5 2.457491 1_565
Se0 Si0 2.315837 1_555
Se1 Si1 2.315837 1_555
Se2 Si0 2.326709 1_555
Se3 Si1 2.326709 1_555
Se4 Si1 2.322798 1_555
Se5 Si1 2.322798 1_556
Se6 Si0 2.322798 1_655
Se7 Si0 2.322798 1_655
