# generated using pymatgen
data_Na2VBPO7
_symmetry_space_group_name_H-M   'P 1'
_cell_length_a   8.45577913
_cell_length_b   8.48243856
_cell_length_c   10.43063697
_cell_angle_alpha   107.41810464
_cell_angle_beta   107.49745757
_cell_angle_gamma   99.90607128
_symmetry_Int_Tables_number   1
_chemical_formula_structural   Na2VBPO7
_chemical_formula_sum   'Na8 V4 B4 P4 O28'
_cell_volume   651.97374295
_cell_formula_units_Z   4
loop_
 _symmetry_equiv_pos_site_id
 _symmetry_equiv_pos_as_xyz
  1  'x, y, z'
loop_
 _atom_site_type_symbol
 _atom_site_label
 _atom_site_symmetry_multiplicity
 _atom_site_fract_x
 _atom_site_fract_y
 _atom_site_fract_z
 _atom_site_occupancy
  Na  Na0  1  0.72008600  0.71906100  0.20523300  1
  Na  Na1  1  0.21998400  0.22224400  0.20794900  1
  Na  Na2  1  0.47170300  0.96891000  0.20699000  1
  Na  Na3  1  0.96926400  0.46853600  0.20358200  1
  Na  Na4  1  0.02423800  0.53107200  0.79434400  1
  Na  Na5  1  0.53258800  0.03408000  0.79825700  1
  Na  Na6  1  0.77900500  0.77370600  0.79192400  1
  Na  Na7  1  0.28241900  0.28173400  0.79775700  1
  V  V0  1  0.43696700  0.68650200  0.34419900  1
  V  V1  1  0.06729200  0.81656100  0.66065600  1
  V  V2  1  0.93410900  0.18772500  0.34311900  1
  V  V3  1  0.55905000  0.30960500  0.65369900  1
  B  B0  1  0.78481700  0.03145100  0.08382900  1
  B  B1  1  0.28320500  0.53564800  0.08455700  1
  B  B2  1  0.71509000  0.46555400  0.91373200  1
  B  B3  1  0.22247900  0.97267300  0.91658500  1
  P  P0  1  0.71200900  0.46254900  0.43957500  1
  P  P1  1  0.21201800  0.96313200  0.43866300  1
  P  P2  1  0.78711300  0.03538000  0.56075800  1
  P  P3  1  0.28539000  0.53661500  0.56030700  1
  O  O0  1  0.30957000  0.05980400  0.05471100  1
  O  O1  1  0.81083400  0.56084800  0.04905700  1
  O  O2  1  0.18817800  0.44303800  0.94853500  1
  O  O3  1  0.69278300  0.93721100  0.94766400  1
  O  O4  1  0.92853600  0.17794600  0.15002400  1
  O  O5  1  0.42951000  0.67891800  0.15043100  1
  O  O6  1  0.57075900  0.32095000  0.84979900  1
  O  O7  1  0.07410800  0.82429900  0.84710000  1
  O  O8  1  0.75272200  0.99916200  0.20667500  1
  O  O9  1  0.25137000  0.50321300  0.20766300  1
  O  O10  1  0.74429000  0.49524900  0.78883200  1
  O  O11  1  0.25643600  0.00664400  0.79776700  1
  O  O12  1  0.64438700  0.89095000  0.42314200  1
  O  O13  1  0.14014100  0.39601700  0.42244700  1
  O  O14  1  0.85331800  0.60205800  0.57898400  1
  O  O15  1  0.35686000  0.10661600  0.57806100  1
  O  O16  1  0.59124800  0.34228100  0.48079600  1
  O  O17  1  0.09131000  0.84365800  0.47921900  1
  O  O18  1  0.90482700  0.15250700  0.51640000  1
  O  O19  1  0.40623200  0.65167500  0.51676000  1
  O  O20  1  0.60602400  0.54686100  0.34493600  1
  O  O21  1  0.10869600  0.05155700  0.34696100  1
  O  O22  1  0.79667800  0.35458400  0.34565400  1
  O  O23  1  0.30076600  0.85860600  0.34785400  1
  O  O24  1  0.70280400  0.14036100  0.65502000  1
  O  O25  1  0.20231400  0.65044200  0.65214300  1
  O  O26  1  0.89861500  0.95083300  0.65268500  1
  O  O27  1  0.38786000  0.45097200  0.65496600  1
loop_
_geom_bond_atom_site_label_1
_geom_bond_atom_site_label_2
_geom_bond_distance
_geom_bond_site_symmetry_2
Na0 O1 2.200161 1_555
Na0 O5 2.287098 1_555
Na0 O8 2.339227 1_555
Na0 O20 2.611878 1_555
Na0 O12 2.629397 1_555
Na1 O0 2.189950 1_555
Na1 O4 2.286855 1_455
Na1 O9 2.353227 1_555
Na1 O21 2.587044 1_555
Na1 O13 2.628800 1_555
Na2 O0 2.187304 1_565
Na2 O5 2.286661 1_555
Na2 O8 2.346860 1_555
Na2 O23 2.599666 1_555
Na2 O12 2.626377 1_555
Na3 O1 2.196311 1_555
Na3 O4 2.296589 1_555
Na3 O9 2.338507 1_655
Na3 O13 2.615491 1_655
Na3 O22 2.632998 1_555
Na4 O2 2.190998 1_555
Na4 O7 2.312436 1_555
Na4 O10 2.315035 1_455
Na4 O14 2.579605 1_455
Na4 O25 2.685181 1_555
Na5 O3 2.195194 1_545
Na5 O6 2.270827 1_555
Na5 O11 2.304761 1_555
Na5 O24 2.601840 1_555
Na5 O15 2.640099 1_555
Na6 O3 2.192088 1_555
Na6 O7 2.315633 1_655
Na6 O10 2.318700 1_555
Na6 O14 2.581863 1_555
Na6 O26 2.656408 1_555
Na7 O2 2.195685 1_555
Na7 O6 2.273066 1_555
Na7 O11 2.305852 1_555
Na7 O27 2.590800 1_555
Na7 O15 2.646732 1_555
B0 O3 1.305163 1_544
B0 O4 1.399969 1_555
B0 O8 1.477904 1_545
B1 O2 1.306047 1_554
B1 O5 1.396831 1_555
B1 O9 1.480163 1_555
B2 O1 1.306069 1_556
B2 O6 1.394464 1_555
B2 O10 1.479917 1_555
B3 O0 1.304427 1_566
B3 O7 1.430780 1_555
B3 O11 1.449409 1_565
O4 V2 1.976683 1_555
O5 V0 1.984234 1_555
O6 V3 1.989979 1_555
O7 V1 1.909053 1_555
O8 V2 1.848444 1_565
O9 V0 1.843707 1_555
O10 V3 1.847923 1_555
O11 V1 1.886742 1_545
O12 P2 1.553901 1_565
O12 V0 1.997951 1_555
O13 P3 1.551080 1_555
O13 V2 2.010051 1_455
O14 P0 1.543073 1_555
O14 V1 2.079048 1_655
O15 P1 1.565977 1_545
O15 V3 1.967975 1_555
O16 P0 1.560929 1_555
O16 V3 1.993009 1_555
O17 P1 1.551831 1_555
O17 V1 2.037431 1_555
O18 P2 1.550418 1_555
O18 V2 1.996064 1_555
O19 P3 1.550596 1_555
O19 V0 1.991919 1_555
O20 P0 1.549284 1_555
O20 V0 2.006993 1_555
O21 P1 1.547021 1_545
O21 V2 2.023341 1_455
O22 P0 1.556029 1_555
O22 V2 1.978991 1_555
O23 P1 1.549201 1_555
O23 V0 2.007633 1_555
O24 P2 1.543907 1_555
O24 V3 2.034919 1_555
O25 P3 1.558072 1_555
O25 V1 1.958706 1_555
O26 P2 1.556722 1_565
O26 V1 1.970473 1_655
O27 P3 1.544322 1_555
O27 V3 2.032914 1_555
