# generated using pymatgen
data_Nd12(OsC3)5
_symmetry_space_group_name_H-M   'P 1'
_cell_length_a   10.96362124
_cell_length_b   10.96349127
_cell_length_c   5.33812801
_cell_angle_alpha   89.99999766
_cell_angle_beta   89.99999822
_cell_angle_gamma   119.99966131
_symmetry_Int_Tables_number   1
_chemical_formula_structural   Nd12(OsC3)5
_chemical_formula_sum   'Nd12 Os5 C15'
_cell_volume   555.67901559
_cell_formula_units_Z   1
loop_
 _symmetry_equiv_pos_site_id
 _symmetry_equiv_pos_as_xyz
  1  'x, y, z'
loop_
 _atom_site_type_symbol
 _atom_site_label
 _atom_site_symmetry_multiplicity
 _atom_site_fract_x
 _atom_site_fract_y
 _atom_site_fract_z
 _atom_site_occupancy
  Nd  Nd0  1  0.79348172  -0.00000907  0.49999998  1
  Nd  Nd1  1  0.00001002  0.79348571  0.49999987  1
  Nd  Nd2  1  0.20651463  0.20651416  0.50000001  1
  Nd  Nd3  1  0.27312851  0.45779683  0.00000007  1
  Nd  Nd4  1  0.54220912  0.81533701  0.00000005  1
  Nd  Nd5  1  0.45776161  0.27311753  -0.00000033  1
  Nd  Nd6  1  0.18466264  0.72687014  0.00000002  1
  Nd  Nd7  1  0.81535479  0.54223282  -0.00000007  1
  Nd  Nd8  1  0.72687932  0.18465358  -0.00000005  1
  Nd  Nd9  1  0.42824784  -0.00002303  0.49999995  1
  Nd  Nd10  1  0.00002450  0.42828626  0.49999998  1
  Nd  Nd11  1  0.57172647  0.57174862  0.49999996  1
  Os  Os0  1  0.16076836  -0.00001555  0.00000003  1
  Os  Os1  1  0.00000995  0.16078181  0.00000026  1
  Os  Os2  1  0.83922375  0.83921951  0.99999963  1
  Os  Os3  1  0.33332715  0.66666430  0.50000008  1
  Os  Os4  1  0.66667149  0.33333760  0.49999990  1
  C  C0  1  0.33143928  -0.00001404  0.00000006  1
  C  C1  1  0.00001107  0.33145260  0.00000016  1
  C  C2  1  0.66855023  0.66855734  -0.00000018  1
  C  C3  1  0.80044911  -0.00000311  -0.00000002  1
  C  C4  1  0.00000076  0.80045009  -0.00000013  1
  C  C5  1  0.19955053  0.19954702  0.00000004  1
  C  C6  1  0.45272037  -0.00000395  -0.00000002  1
  C  C7  1  0.00000188  0.45273180  0.00000001  1
  C  C8  1  0.54727261  0.54727265  -0.00000005  1
  C  C9  1  0.28759111  0.47439789  0.50000006  1
  C  C10  1  0.52559282  0.81319807  0.50000002  1
  C  C11  1  0.47439304  0.28759570  0.49999970  1
  C  C12  1  0.18678543  0.71239556  0.50000006  1
  C  C13  1  0.81322297  0.52562271  0.49999993  1
  C  C14  1  0.71241594  0.18680144  0.50000000  1
loop_
_geom_bond_atom_site_label_1
_geom_bond_atom_site_label_2
_geom_bond_distance
_geom_bond_site_symmetry_2
C0 C6 1.329625 1_555
C0 Os0 1.871163 1_555
C0 Nd6 2.595572 1_545
C0 Nd5 2.595730 1_555
C0 Nd9 2.872371 1_555
C0 Nd9 2.872372 1_554
C1 C7 1.329694 1_555
C1 Os1 1.871142 1_555
C1 Nd3 2.595614 1_555
C1 Nd8 2.595759 1_455
C1 Nd10 2.872422 1_555
C1 Nd10 2.872424 1_554
C2 C8 1.329680 1_555
C2 Os2 1.871136 1_554
C2 Nd4 2.595618 1_555
C2 Nd7 2.595710 1_555
C2 Nd11 2.872384 1_554
C2 Nd11 2.872385 1_555
C3 Os2 2.009251 1_544
C3 Os1 2.009367 1_655
C3 Nd8 2.526268 1_555
C3 Nd4 2.526415 1_545
C3 Nd0 2.670156 1_555
C3 Nd0 2.670156 1_554
C4 Os0 2.009105 1_565
C4 Os2 2.009227 1_454
C4 Nd7 2.526181 1_455
C4 Nd6 2.526419 1_555
C4 Nd1 2.670157 1_555
C4 Nd1 2.670157 1_554
C5 Os1 2.009189 1_555
C5 Os0 2.009337 1_555
C5 Nd5 2.526137 1_555
C5 Nd3 2.526491 1_555
C5 Nd2 2.670156 1_555
C5 Nd2 2.670156 1_554
C6 Nd4 2.654712 1_545
C6 Nd8 2.654834 1_555
C6 Nd9 2.682505 1_555
C6 Nd9 2.682506 1_554
C7 Nd6 2.654649 1_555
C7 Nd7 2.654703 1_455
C7 Nd10 2.682498 1_555
C7 Nd10 2.682499 1_554
C8 Nd3 2.654736 1_555
C8 Nd5 2.654739 1_555
C8 Nd11 2.682507 1_554
C8 Nd11 2.682508 1_555
C9 Os3 1.907291 1_555
C9 Nd2 2.608669 1_555
C9 Nd3 2.674568 1_555
C9 Nd3 2.674568 1_556
C9 Nd11 2.741994 1_555
C9 Nd10 2.932864 1_555
C10 Os3 1.907321 1_555
C10 Nd0 2.608710 1_565
C10 Nd4 2.674578 1_555
C10 Nd4 2.674578 1_556
C10 Nd9 2.741852 1_565
C10 Nd11 2.932917 1_555
C11 Os4 1.907427 1_555
C11 Nd2 2.608637 1_555
C11 Nd5 2.674585 1_556
C11 Nd5 2.674585 1_555
C11 Nd11 2.742172 1_555
C11 Nd9 2.933256 1_555
C12 Os3 1.907392 1_555
C12 Nd1 2.608462 1_555
C12 Nd6 2.674569 1_556
C12 Nd6 2.674569 1_555
C12 Nd10 2.741705 1_555
C12 Nd9 2.932982 1_565
C13 Os4 1.907512 1_555
C13 Nd1 2.608468 1_655
C13 Nd7 2.674576 1_555
C13 Nd7 2.674576 1_556
C13 Nd10 2.742027 1_655
C13 Nd11 2.933401 1_555
C14 Os4 1.907417 1_555
C14 Nd0 2.608619 1_555
C14 Nd8 2.674572 1_556
C14 Nd8 2.674572 1_555
C14 Nd9 2.742345 1_555
C14 Nd10 2.933269 1_655
