# generated using pymatgen
data_V5W3O20
_symmetry_space_group_name_H-M   'P 1'
_cell_length_a   4.11790859
_cell_length_b   7.56516704
_cell_length_c   12.82852150
_cell_angle_alpha   72.77484797
_cell_angle_beta   90.68363327
_cell_angle_gamma   89.93567376
_symmetry_Int_Tables_number   1
_chemical_formula_structural   V5W3O20
_chemical_formula_sum   'V5 W3 O20'
_cell_volume   381.68635381
_cell_formula_units_Z   1
loop_
 _symmetry_equiv_pos_site_id
 _symmetry_equiv_pos_as_xyz
  1  'x, y, z'
loop_
 _atom_site_type_symbol
 _atom_site_label
 _atom_site_symmetry_multiplicity
 _atom_site_fract_x
 _atom_site_fract_y
 _atom_site_fract_z
 _atom_site_occupancy
  V  V0  1  0.90470500  0.82846900  0.34505800  1
  V  V1  1  0.08589800  0.17343000  0.66137000  1
  V  V2  1  0.10297800  0.17433200  0.15083900  1
  V  V3  1  0.90661600  0.32148400  0.85868700  1
  V  V4  1  0.89077700  0.82900000  0.84206500  1
  W  W0  1  0.92769800  0.31936900  0.35690600  1
  W  W1  1  0.07448900  0.67383100  0.64828300  1
  W  W2  1  0.08782700  0.67970600  0.14361100  1
  O  O0  1  0.00409400  0.41343600  0.18310500  1
  O  O1  1  0.99081600  0.58504400  0.81419200  1
  O  O2  1  0.00040200  0.10093400  0.81196100  1
  O  O3  1  0.00442700  0.90293700  0.18262700  1
  O  O4  1  0.50977200  0.82297400  0.35635200  1
  O  O5  1  0.47542000  0.17443800  0.64838700  1
  O  O6  1  0.98708800  0.24414000  0.50517900  1
  O  O7  1  0.00319800  0.75094800  0.50257400  1
  O  O8  1  0.51984100  0.67236500  0.15349000  1
  O  O9  1  0.50011900  0.17308200  0.14791700  1
  O  O10  1  0.51039300  0.32219600  0.84700900  1
  O  O11  1  0.49530200  0.83022200  0.85251500  1
  O  O12  1  0.01401000  0.74935800  0.99910300  1
  O  O13  1  0.99138500  0.25161000  0.99560000  1
  O  O14  1  0.01193000  0.58403000  0.31989700  1
  O  O15  1  0.01154000  0.09744500  0.31859800  1
  O  O16  1  0.99635600  0.41104400  0.67183400  1
  O  O17  1  0.99080300  0.91266400  0.67897300  1
  O  O18  1  0.49679900  0.32709000  0.34851200  1
  O  O19  1  0.50532000  0.67442200  0.65535800  1
loop_
_geom_bond_atom_site_label_1
_geom_bond_atom_site_label_2
_geom_bond_distance
_geom_bond_site_symmetry_2
O0 W2 1.958209 1_555
O0 V2 2.013686 1_555
O0 W0 2.157332 1_455
O1 V3 1.937472 1_555
O1 V4 2.023939 1_555
O1 W1 2.066680 1_655
O2 V1 1.883078 1_555
O2 V3 1.971994 1_455
O2 V4 2.029980 1_445
O3 W2 1.929729 1_555
O3 V2 2.014040 1_565
O3 V0 2.038064 1_455
O4 V0 1.633944 1_555
O4 V0 2.493678 1_455
O5 V1 1.614409 1_555
O6 W0 1.830090 1_555
O6 V1 1.952377 1_655
O7 W1 1.805886 1_555
O7 V0 1.967157 1_455
O8 W2 1.781627 1_555
O8 W2 2.343686 1_655
O9 V2 1.636348 1_555
O9 V2 2.482425 1_655
O10 V3 1.636549 1_555
O10 V3 2.492507 1_455
O11 V4 1.635872 1_555
O11 V4 2.491563 1_455
O12 W2 1.792868 1_556
O12 V4 1.983696 1_455
O13 V3 1.709172 1_555
O13 V2 1.951150 1_656
O14 W0 1.948600 1_455
O14 V0 2.018377 1_455
O14 W2 2.187197 1_555
O15 W0 1.915929 1_455
O15 V0 2.011434 1_445
O15 V2 2.095254 1_555
O16 V1 1.878274 1_655
O16 W1 1.948097 1_655
O16 V3 2.324066 1_555
O17 V1 1.958581 1_665
O17 W1 1.990345 1_655
O17 V4 2.045617 1_555
O18 W0 1.776231 1_555
O18 W0 2.347260 1_455
O19 W1 1.775439 1_555
O19 W1 2.346675 1_655
