# generated using pymatgen
data_Ga2Cu3(SeO3)6
_symmetry_space_group_name_H-M   'P 1'
_cell_length_a   7.68996888
_cell_length_b   8.32341100
_cell_length_c   12.48792869
_cell_angle_alpha   90.00000000
_cell_angle_beta   95.91933496
_cell_angle_gamma   90.00000000
_symmetry_Int_Tables_number   1
_chemical_formula_structural   Ga2Cu3(SeO3)6
_chemical_formula_sum   'Ga4 Cu6 Se12 O36'
_cell_volume   795.05012559
_cell_formula_units_Z   2
loop_
 _symmetry_equiv_pos_site_id
 _symmetry_equiv_pos_as_xyz
  1  'x, y, z'
loop_
 _atom_site_type_symbol
 _atom_site_label
 _atom_site_symmetry_multiplicity
 _atom_site_fract_x
 _atom_site_fract_y
 _atom_site_fract_z
 _atom_site_occupancy
  Ga  Ga0  1  0.63537600  0.99407500  0.82685700  1
  Ga  Ga1  1  0.86462400  0.49407500  0.17314300  1
  Ga  Ga2  1  0.36462400  0.00592500  0.17314300  1
  Ga  Ga3  1  0.13537600  0.50592500  0.82685700  1
  Cu  Cu0  1  0.50000000  0.50000000  0.50000000  1
  Cu  Cu1  1  0.00000000  0.00000000  0.50000000  1
  Cu  Cu2  1  0.37132500  0.12293900  0.62010900  1
  Cu  Cu3  1  0.12867500  0.62293900  0.37989100  1
  Cu  Cu4  1  0.62867500  0.87706100  0.37989100  1
  Cu  Cu5  1  0.87132500  0.37706100  0.62010900  1
  Se  Se0  1  0.55298800  0.40255100  0.78540400  1
  Se  Se1  1  0.94701200  0.90255100  0.21459600  1
  Se  Se2  1  0.44701200  0.59744900  0.21459600  1
  Se  Se3  1  0.05298800  0.09744900  0.78540400  1
  Se  Se4  1  0.31166400  0.18759500  0.39192500  1
  Se  Se5  1  0.18833600  0.68759500  0.60807500  1
  Se  Se6  1  0.68833600  0.81240500  0.60807500  1
  Se  Se7  1  0.81166400  0.31240500  0.39192500  1
  Se  Se8  1  0.63724000  0.19730100  0.04415900  1
  Se  Se9  1  0.86276000  0.69730100  0.95584100  1
  Se  Se10  1  0.36276000  0.80269900  0.95584100  1
  Se  Se11  1  0.13724000  0.30269900  0.04415900  1
  O  O0  1  0.34937400  0.48459800  0.74675500  1
  O  O1  1  0.15062600  0.98459800  0.25324500  1
  O  O2  1  0.65062600  0.51540200  0.25324500  1
  O  O3  1  0.84937400  0.01540200  0.74675500  1
  O  O4  1  0.65324600  0.46811600  0.67618700  1
  O  O5  1  0.84675400  0.96811600  0.32381300  1
  O  O6  1  0.34675400  0.53188400  0.32381300  1
  O  O7  1  0.15324600  0.03188400  0.67618700  1
  O  O8  1  0.51239100  0.19794200  0.74992000  1
  O  O9  1  0.98760900  0.69794200  0.25008000  1
  O  O10  1  0.48760900  0.80205800  0.25008000  1
  O  O11  1  0.01239100  0.30205800  0.74992000  1
  O  O12  1  0.45682200  0.26596200  0.50075400  1
  O  O13  1  0.04317800  0.76596200  0.49924600  1
  O  O14  1  0.54317800  0.73403800  0.49924600  1
  O  O15  1  0.95682200  0.23403800  0.50075400  1
  O  O16  1  0.46514500  0.09379700  0.32222500  1
  O  O17  1  0.03485500  0.59379700  0.67777500  1
  O  O18  1  0.53485500  0.90620300  0.67777500  1
  O  O19  1  0.96514500  0.40620300  0.32222500  1
  O  O20  1  0.25520300  0.03626500  0.48378100  1
  O  O21  1  0.24479700  0.53626500  0.51621900  1
  O  O22  1  0.74479700  0.96373500  0.51621900  1
  O  O23  1  0.75520300  0.46373500  0.48378100  1
  O  O24  1  0.75773900  0.10992400  0.94735900  1
  O  O25  1  0.74226100  0.60992400  0.05264100  1
  O  O26  1  0.24226100  0.89007600  0.05264100  1
  O  O27  1  0.25773900  0.39007600  0.94735900  1
  O  O28  1  0.58864500  0.02462800  0.11339100  1
  O  O29  1  0.91135500  0.52462800  0.88660900  1
  O  O30  1  0.41135500  0.97537200  0.88660900  1
  O  O31  1  0.08864500  0.47537200  0.11339100  1
  O  O32  1  0.80930800  0.26669700  0.13269900  1
  O  O33  1  0.69069200  0.76669700  0.86730100  1
  O  O34  1  0.19069200  0.73330300  0.86730100  1
  O  O35  1  0.30930800  0.23330300  0.13269900  1
loop_
_geom_bond_atom_site_label_1
_geom_bond_atom_site_label_2
_geom_bond_distance
_geom_bond_site_symmetry_2
Ga0 O24 1.946187 1_565
Ga0 O30 1.952920 1_555
Ga0 O33 1.993366 1_555
Ga0 O3 2.019846 1_565
Ga0 O18 2.074046 1_555
Ga0 O8 2.123558 1_565
Ga1 O25 1.946187 1_555
Ga1 O31 1.952920 1_655
Ga1 O32 1.993366 1_555
Ga1 O2 2.019846 1_555
Ga1 O19 2.074046 1_555
Ga1 O9 2.123558 1_555
Ga2 O26 1.946187 1_545
Ga2 O28 1.952920 1_555
Ga2 O35 1.993366 1_555
Ga2 O1 2.019846 1_545
Ga2 O16 2.074046 1_555
Ga2 O10 2.123558 1_545
Ga3 O27 1.946187 1_555
Ga3 O29 1.952920 1_455
Ga3 O34 1.993366 1_555
Ga3 O0 2.019846 1_555
Ga3 O17 2.074046 1_555
Ga3 O11 2.123558 1_555
Cu0 O14 1.976275 1_555
Cu0 O12 1.976275 1_555
Cu0 O21 2.016318 1_555
Cu0 O23 2.016318 1_555
Cu0 O4 2.401109 1_555
Cu0 O6 2.401109 1_555
Cu1 O15 1.976275 1_455
Cu1 O13 1.976275 1_545
Cu1 O20 2.016318 1_555
Cu1 O22 2.016318 1_445
Cu1 O7 2.401109 1_555
Cu1 O5 2.401109 1_445
Cu2 O8 1.957464 1_555
Cu2 O20 1.975511 1_555
Cu2 O7 2.029641 1_555
Cu2 O12 2.067151 1_555
Cu2 O18 2.273228 1_545
Cu3 O9 1.957464 1_455
Cu3 O21 1.975511 1_555
Cu3 O6 2.029641 1_555
Cu3 O13 2.067151 1_555
Cu3 O19 2.273228 1_455
Cu4 O10 1.957464 1_555
Cu4 O22 1.975511 1_555
Cu4 O5 2.029641 1_555
Cu4 O14 2.067151 1_555
Cu4 O16 2.273228 1_565
Cu5 O11 1.957464 1_655
Cu5 O23 1.975511 1_555
Cu5 O4 2.029641 1_555
Cu5 O15 2.067151 1_555
Cu5 O17 2.273228 1_655
O0 Se0 1.730643 1_555
O1 Se1 1.730643 1_455
O2 Se2 1.730643 1_555
O3 Se3 1.730643 1_655
O4 Se0 1.723171 1_555
O5 Se1 1.723171 1_555
O6 Se2 1.723171 1_555
O7 Se3 1.723171 1_555
O8 Se0 1.779227 1_555
O9 Se1 1.779227 1_555
O10 Se2 1.779227 1_555
O11 Se3 1.779227 1_555
O12 Se4 1.790424 1_555
O13 Se5 1.790424 1_555
O14 Se6 1.790424 1_555
O15 Se7 1.790424 1_555
O16 Se4 1.723963 1_555
O17 Se5 1.723963 1_555
O18 Se6 1.723963 1_555
O19 Se7 1.723963 1_555
O20 Se4 1.787066 1_555
O21 Se5 1.787066 1_555
O22 Se6 1.787066 1_555
O23 Se7 1.787066 1_555
O24 Se8 1.754961 1_556
O25 Se9 1.754961 1_554
O26 Se10 1.754961 1_554
O27 Se11 1.754961 1_556
O28 Se8 1.737637 1_555
O29 Se9 1.737637 1_555
O30 Se10 1.737637 1_555
O31 Se11 1.737637 1_555
O32 Se8 1.733568 1_555
O33 Se9 1.733568 1_555
O34 Se10 1.733568 1_555
O35 Se11 1.733568 1_555
