# generated using pymatgen
data_Fe2Cu10Sb4S13
_symmetry_space_group_name_H-M   'P 1'
_cell_length_a   9.00252547
_cell_length_b   9.00252547
_cell_length_c   9.00252547
_cell_angle_alpha   109.56864952
_cell_angle_beta   109.56864952
_cell_angle_gamma   109.27653810
_symmetry_Int_Tables_number   1
_chemical_formula_structural   Fe2Cu10Sb4S13
_chemical_formula_sum   'Fe2 Cu10 Sb4 S13'
_cell_volume   561.65215016
_cell_formula_units_Z   1
loop_
 _symmetry_equiv_pos_site_id
 _symmetry_equiv_pos_as_xyz
  1  'x, y, z'
loop_
 _atom_site_type_symbol
 _atom_site_label
 _atom_site_symmetry_multiplicity
 _atom_site_fract_x
 _atom_site_fract_y
 _atom_site_fract_z
 _atom_site_occupancy
  Fe  Fe0  1  0.77629700  0.77629700  0.00000000  1
  Fe  Fe1  1  0.22370300  0.22370300  0.00000000  1
  Cu  Cu0  1  0.50000000  0.75016100  0.25016100  1
  Cu  Cu1  1  0.24983900  0.50000000  0.74983900  1
  Cu  Cu2  1  0.75000000  0.25000000  0.50000000  1
  Cu  Cu3  1  0.75016100  0.50000000  0.25016100  1
  Cu  Cu4  1  0.50000000  0.24983900  0.74983900  1
  Cu  Cu5  1  0.25000000  0.75000000  0.50000000  1
  Cu  Cu6  1  0.00000000  0.77756400  0.77756400  1
  Cu  Cu7  1  0.77756400  0.00000000  0.77756400  1
  Cu  Cu8  1  0.00000000  0.22243600  0.22243600  1
  Cu  Cu9  1  0.22243600  0.00000000  0.22243600  1
  Sb  Sb0  1  0.45716300  0.45716300  0.45216900  1
  Sb  Sb1  1  0.00499400  0.00499400  0.54783100  1
  Sb  Sb2  1  0.99500600  0.54283700  0.00000000  1
  Sb  Sb3  1  0.54283700  0.99500600  0.00000000  1
  S  S0  1  0.00000000  0.00000000  0.00000000  1
  S  S1  1  0.51929900  0.51929900  0.77072000  1
  S  S2  1  0.76837000  0.51871400  0.51797000  1
  S  S3  1  0.51871400  0.76837000  0.51797000  1
  S  S4  1  0.74857900  0.74857900  0.22928000  1
  S  S5  1  0.00074300  0.25039900  0.48203000  1
  S  S6  1  0.25039900  0.00074300  0.48203000  1
  S  S7  1  0.25142000  0.48070100  0.00000000  1
  S  S8  1  0.99925700  0.48128600  0.24965600  1
  S  S9  1  0.74960100  0.23163000  0.75034400  1
  S  S10  1  0.48070100  0.25142000  0.00000000  1
  S  S11  1  0.23163000  0.74960100  0.75034400  1
  S  S12  1  0.48128600  0.99925700  0.24965600  1
loop_
_geom_bond_atom_site_label_1
_geom_bond_atom_site_label_2
_geom_bond_distance
_geom_bond_site_symmetry_2
Fe0 S1 2.243652 1_554
Fe0 S4 2.243652 1_555
Fe0 S0 2.331026 1_665
Fe1 S10 2.243654 1_555
Fe1 S7 2.243654 1_555
Fe1 S0 2.331026 1_555
Cu0 S3 2.304973 1_555
Cu0 S12 2.304982 1_555
Cu0 S4 2.311819 1_555
Cu0 S7 2.311822 1_555
Cu1 S5 2.304978 1_555
Cu1 S11 2.304982 1_555
Cu1 S1 2.311819 1_555
Cu1 S7 2.311822 1_556
Cu2 S5 2.315456 1_655
Cu2 S12 2.315460 1_545
Cu2 S9 2.315460 1_555
Cu2 S2 2.315463 1_555
Cu3 S2 2.304973 1_555
Cu3 S8 2.304982 1_555
Cu3 S4 2.311819 1_555
Cu3 S10 2.311822 1_555
Cu4 S6 2.304978 1_555
Cu4 S9 2.304982 1_555
Cu4 S1 2.311819 1_555
Cu4 S10 2.311822 1_556
Cu5 S6 2.315456 1_565
Cu5 S8 2.315460 1_455
Cu5 S11 2.315460 1_555
Cu5 S3 2.315463 1_555
Cu6 S11 2.262582 1_555
Cu6 S2 2.262585 1_455
Cu6 S0 2.309490 1_566
Cu7 S9 2.262582 1_555
Cu7 S3 2.262585 1_545
Cu7 S0 2.309490 1_656
Cu8 S8 2.262582 1_455
Cu8 S5 2.262591 1_555
Cu8 S0 2.309490 1_555
Cu9 S12 2.262582 1_545
Cu9 S6 2.262591 1_555
Cu9 S0 2.309490 1_555
S1 Sb0 2.548353 1_555
S2 Sb0 2.480033 1_555
S3 Sb0 2.480033 1_555
S4 Sb1 2.548353 1_665
S5 Sb1 2.480027 1_555
S6 Sb1 2.480027 1_555
S7 Sb2 2.548344 1_455
S8 Sb2 2.480031 1_555
S9 Sb2 2.480031 1_556
S10 Sb3 2.548344 1_545
S11 Sb3 2.480031 1_556
S12 Sb3 2.480031 1_555
