# generated using pymatgen
data_NaYMg14O16
_symmetry_space_group_name_H-M   'P 1'
_cell_length_a   4.34572400
_cell_length_b   8.63386900
_cell_length_c   8.72422600
_cell_angle_alpha   90.00000000
_cell_angle_beta   90.00000000
_cell_angle_gamma   90.00000000
_symmetry_Int_Tables_number   1
_chemical_formula_structural   NaYMg14O16
_chemical_formula_sum   'Na1 Y1 Mg14 O16'
_cell_volume   327.33655151
_cell_formula_units_Z   1
loop_
 _symmetry_equiv_pos_site_id
 _symmetry_equiv_pos_as_xyz
  1  'x, y, z'
loop_
 _atom_site_type_symbol
 _atom_site_label
 _atom_site_symmetry_multiplicity
 _atom_site_fract_x
 _atom_site_fract_y
 _atom_site_fract_z
 _atom_site_occupancy
  Na  Na0  1  0.00000000  0.00000000  0.50000000  1
  Y  Y0  1  0.00000000  0.00000000  0.00000000  1
  Mg  Mg0  1  0.00000000  0.50000000  0.00000000  1
  Mg  Mg1  1  0.00000000  0.50000000  0.50000000  1
  Mg  Mg2  1  0.50000000  0.00000000  0.26771100  1
  Mg  Mg3  1  0.50000000  0.00000000  0.73228900  1
  Mg  Mg4  1  0.50000000  0.50000000  0.25337400  1
  Mg  Mg5  1  0.50000000  0.50000000  0.74662600  1
  Mg  Mg6  1  0.50000000  0.26152800  0.00000000  1
  Mg  Mg7  1  0.50000000  0.24783100  0.50000000  1
  Mg  Mg8  1  0.50000000  0.73847200  0.00000000  1
  Mg  Mg9  1  0.50000000  0.75216900  0.50000000  1
  Mg  Mg10  1  0.00000000  0.25419600  0.26048000  1
  Mg  Mg11  1  0.00000000  0.25419600  0.73952000  1
  Mg  Mg12  1  0.00000000  0.74580400  0.26048000  1
  Mg  Mg13  1  0.00000000  0.74580400  0.73952000  1
  O  O0  1  0.00000000  0.26088900  0.00000000  1
  O  O1  1  0.00000000  0.26606500  0.50000000  1
  O  O2  1  0.00000000  0.73911100  0.00000000  1
  O  O3  1  0.00000000  0.73393500  0.50000000  1
  O  O4  1  0.50000000  0.24919700  0.24742900  1
  O  O5  1  0.50000000  0.24919700  0.75257100  1
  O  O6  1  0.50000000  0.75080300  0.24742900  1
  O  O7  1  0.50000000  0.75080300  0.75257100  1
  O  O8  1  0.50000000  0.00000000  0.00000000  1
  O  O9  1  0.50000000  0.00000000  0.50000000  1
  O  O10  1  0.50000000  0.50000000  0.00000000  1
  O  O11  1  0.50000000  0.50000000  0.50000000  1
  O  O12  1  0.00000000  0.00000000  0.24905700  1
  O  O13  1  0.00000000  0.00000000  0.75094300  1
  O  O14  1  0.00000000  0.50000000  0.24714000  1
  O  O15  1  0.00000000  0.50000000  0.75286000  1
loop_
_geom_bond_atom_site_label_1
_geom_bond_atom_site_label_2
_geom_bond_distance
_geom_bond_site_symmetry_2
Na0 O9 2.172862 1_555
Na0 O9 2.172862 1_455
Na0 O13 2.189283 1_555
Na0 O12 2.189283 1_555
Na0 O3 2.297170 1_545
Na0 O1 2.297170 1_555
Mg0 O2 2.064453 1_555
Mg0 O0 2.064453 1_555
Mg0 O14 2.156105 1_555
Mg0 O15 2.156105 1_554
Mg0 O10 2.172862 1_555
Mg0 O10 2.172862 1_455
Mg1 O3 2.019764 1_555
Mg1 O1 2.019764 1_555
Mg1 O11 2.172862 1_455
Mg1 O11 2.172862 1_555
Mg1 O14 2.206008 1_555
Mg1 O15 2.206008 1_555
Mg2 O9 2.026542 1_555
Mg2 O4 2.158798 1_555
Mg2 O6 2.158798 1_545
Mg2 O12 2.178948 1_655
Mg2 O12 2.178948 1_555
Mg2 O8 2.335571 1_555
Mg3 O9 2.026542 1_555
Mg3 O5 2.158798 1_555
Mg3 O7 2.158798 1_545
Mg3 O13 2.178948 1_555
Mg3 O13 2.178948 1_655
Mg3 O8 2.335571 1_556
Mg4 O11 2.151621 1_555
Mg4 O4 2.166021 1_555
Mg4 O6 2.166021 1_555
Mg4 O14 2.173543 1_555
Mg4 O14 2.173543 1_655
Mg4 O10 2.210492 1_555
Mg5 O11 2.151621 1_555
Mg5 O7 2.166021 1_555
Mg5 O5 2.166021 1_555
Mg5 O15 2.173543 1_555
Mg5 O15 2.173543 1_655
Mg5 O10 2.210492 1_556
Mg6 O10 2.058936 1_555
Mg6 O4 2.161250 1_555
Mg6 O5 2.161250 1_554
Mg6 O0 2.172869 1_655
Mg6 O0 2.172869 1_555
Mg6 O8 2.257998 1_555
Mg7 O9 2.139740 1_555
Mg7 O11 2.177194 1_555
Mg7 O1 2.178558 1_655
Mg7 O1 2.178558 1_555
Mg7 O4 2.203518 1_555
Mg7 O5 2.203518 1_555
Mg8 O10 2.058936 1_555
Mg8 O7 2.161250 1_554
Mg8 O6 2.161250 1_555
Mg8 O2 2.172869 1_555
Mg8 O2 2.172869 1_655
Mg8 O8 2.257998 1_565
Mg9 O9 2.139740 1_565
Mg9 O11 2.177194 1_555
Mg9 O3 2.178558 1_555
Mg9 O3 2.178558 1_655
Mg9 O7 2.203518 1_555
Mg9 O6 2.203518 1_555
Mg10 O1 2.092138 1_555
Mg10 O14 2.125428 1_555
Mg10 O4 2.176271 1_455
Mg10 O4 2.176271 1_555
Mg10 O12 2.196956 1_555
Mg10 O0 2.273221 1_555
Mg11 O1 2.092138 1_555
Mg11 O15 2.125428 1_555
Mg11 O5 2.176271 1_455
Mg11 O5 2.176271 1_555
Mg11 O13 2.196956 1_555
Mg11 O0 2.273221 1_556
Mg12 O3 2.092138 1_555
Mg12 O14 2.125428 1_555
Mg12 O6 2.176271 1_555
Mg12 O6 2.176271 1_455
Mg12 O12 2.196956 1_565
Mg12 O2 2.273221 1_555
Mg13 O3 2.092138 1_555
Mg13 O15 2.125428 1_555
Mg13 O7 2.176271 1_555
Mg13 O7 2.176271 1_455
Mg13 O13 2.196956 1_565
Mg13 O2 2.273221 1_556
O0 Y0 2.252481 1_555
O2 Y0 2.252481 1_565
O8 Y0 2.172862 1_555
O8 Y0 2.172862 1_655
O12 Y0 2.172830 1_555
O13 Y0 2.172830 1_556
