# generated using pymatgen
data_TlSe
_symmetry_space_group_name_H-M   'P 1'
_cell_length_a   3.75265400
_cell_length_b   3.75265400
_cell_length_c   3.75265400
_cell_angle_alpha   90.00000000
_cell_angle_beta   90.00000000
_cell_angle_gamma   90.00000000
_symmetry_Int_Tables_number   1
_chemical_formula_structural   TlSe
_chemical_formula_sum   'Tl1 Se1'
_cell_volume   52.84641989
_cell_formula_units_Z   1
loop_
 _symmetry_equiv_pos_site_id
 _symmetry_equiv_pos_as_xyz
  1  'x, y, z'
loop_
 _atom_site_type_symbol
 _atom_site_label
 _atom_site_symmetry_multiplicity
 _atom_site_fract_x
 _atom_site_fract_y
 _atom_site_fract_z
 _atom_site_occupancy
  Tl  Tl0  1  0.50000000  0.50000000  0.50000000  1
  Se  Se0  1  0.00000000  0.00000000  0.00000000  1
loop_
_geom_bond_atom_site_label_1
_geom_bond_atom_site_label_2
_geom_bond_distance
_geom_bond_site_symmetry_2
Se0 Tl0 3.249894 1_445
Se0 Tl0 3.249894 1_555
Se0 Tl0 3.249894 1_454
Se0 Tl0 3.249894 1_545
Se0 Tl0 3.249894 1_544
Se0 Tl0 3.249894 1_444
Se0 Tl0 3.249894 1_554
Se0 Tl0 3.249894 1_455
