# generated using pymatgen
data_CaFe3(SiO3)4
_symmetry_space_group_name_H-M   'P 1'
_cell_length_a   7.67751010
_cell_length_b   7.67574698
_cell_length_c   9.45332972
_cell_angle_alpha   109.93441899
_cell_angle_beta   76.07620032
_cell_angle_gamma   73.47709409
_symmetry_Int_Tables_number   1
_chemical_formula_structural   CaFe3(SiO3)4
_chemical_formula_sum   'Ca2 Fe6 Si8 O24'
_cell_volume   465.53107179
_cell_formula_units_Z   2
loop_
 _symmetry_equiv_pos_site_id
 _symmetry_equiv_pos_as_xyz
  1  'x, y, z'
loop_
 _atom_site_type_symbol
 _atom_site_label
 _atom_site_symmetry_multiplicity
 _atom_site_fract_x
 _atom_site_fract_y
 _atom_site_fract_z
 _atom_site_occupancy
  Ca  Ca0  1  0.67453400  0.70047500  0.62502300  1
  Ca  Ca1  1  0.17246100  0.70250200  0.12490800  1
  Fe  Fe0  1  0.78403300  0.09092600  0.12498500  1
  Fe  Fe1  1  0.86792500  0.25764900  0.87502100  1
  Fe  Fe2  1  0.36719700  0.25727100  0.37503500  1
  Fe  Fe3  1  0.22503400  0.89908800  0.87421700  1
  Fe  Fe4  1  0.72496100  0.90089900  0.37586800  1
  Fe  Fe5  1  0.28394100  0.09109700  0.62493900  1
  Si  Si0  1  0.53792800  0.80087400  0.08121000  1
  Si  Si1  1  0.03723300  0.80112500  0.57931000  1
  Si  Si2  1  0.52818200  0.38341000  0.67069500  1
  Si  Si3  1  0.03020600  0.38100800  0.16884300  1
  Si  Si4  1  0.96227900  0.20816600  0.41943200  1
  Si  Si5  1  0.46297700  0.20723200  0.91996700  1
  Si  Si6  1  0.96153300  0.61802700  0.83042200  1
  Si  Si7  1  0.46258700  0.61723700  0.33008900  1
  O  O0  1  0.71877400  0.68457800  0.89950000  1
  O  O1  1  0.21950400  0.68348200  0.39862400  1
  O  O2  1  0.96432800  0.38209400  0.35056600  1
  O  O3  1  0.46507200  0.38176600  0.85133000  1
  O  O4  1  0.76935800  0.33603000  0.59740000  1
  O  O5  1  0.27130100  0.33397200  0.09793300  1
  O  O6  1  0.01128400  0.63322800  0.65259100  1
  O  O7  1  0.51402100  0.63076000  0.15213400  1
  O  O8  1  0.59010600  0.96514400  0.20863900  1
  O  O9  1  0.08635400  0.96840600  0.70508300  1
  O  O10  1  0.48652700  0.20872400  0.54488400  1
  O  O11  1  0.99354100  0.20118000  0.04140700  1
  O  O12  1  0.92277600  0.03062700  0.29527600  1
  O  O13  1  0.42326100  0.02992200  0.79539200  1
  O  O14  1  0.01483800  0.78165900  0.95464200  1
  O  O15  1  0.51466600  0.78213000  0.45493100  1
  O  O16  1  0.33714300  0.88764700  0.05694800  1
  O  O17  1  0.83711100  0.88445700  0.55137800  1
  O  O18  1  0.41691000  0.61150900  0.69857100  1
  O  O19  1  0.91917700  0.60605000  0.19307500  1
  O  O20  1  0.16756800  0.14658100  0.44804100  1
  O  O21  1  0.66881600  0.14610700  0.94836900  1
  O  O22  1  0.05218000  0.38387400  0.80147300  1
  O  O23  1  0.55237700  0.38308700  0.30184900  1
loop_
_geom_bond_atom_site_label_1
_geom_bond_atom_site_label_2
_geom_bond_distance
_geom_bond_site_symmetry_2
Ca0 O17 2.300385 1_555
Ca0 O18 2.300446 1_555
Ca0 O13 2.379685 1_565
Ca0 O15 2.384158 1_555
Ca0 O6 2.583714 1_655
Ca0 O4 2.583718 1_555
Ca0 O2 2.731232 1_555
Ca0 O0 2.734830 1_555
Ca1 O16 2.298820 1_555
Ca1 O19 2.299111 1_455
Ca1 O14 2.368637 1_554
Ca1 O12 2.369384 1_465
Ca1 O5 2.614707 1_555
Ca1 O7 2.616523 1_555
Ca1 O3 2.740940 1_554
Ca1 O1 2.743067 1_555
Fe0 O8 2.132105 1_545
Fe0 O11 2.132205 1_555
Fe0 O21 2.174708 1_554
Fe0 O23 2.175143 1_555
Fe0 O12 2.234565 1_555
Fe0 O14 2.235121 1_644
Fe1 O22 2.046667 1_655
Fe1 O21 2.046885 1_555
Fe1 O9 2.115618 1_645
Fe1 O11 2.132875 1_556
Fe2 O20 2.044177 1_555
Fe2 O23 2.048357 1_555
Fe2 O10 2.116134 1_555
Fe2 O8 2.132523 1_545
Fe3 O18 2.067282 1_555
Fe3 O16 2.123326 1_556
Fe3 O14 2.167705 1_555
Fe3 O13 2.171117 1_565
Fe3 O11 2.199662 1_466
Fe3 O9 2.247283 1_555
Fe4 O17 2.068476 1_555
Fe4 O19 2.122531 1_555
Fe4 O12 2.167750 1_565
Fe4 O15 2.171986 1_555
Fe4 O8 2.200719 1_555
Fe4 O10 2.246012 1_565
Fe5 O10 2.122555 1_555
Fe5 O9 2.123227 1_545
Fe5 O22 2.177274 1_555
Fe5 O20 2.182751 1_555
Fe5 O15 2.233036 1_545
Fe5 O13 2.240709 1_555
O0 Si0 1.666419 1_556
O0 Si6 1.675211 1_555
O1 Si1 1.664450 1_555
O1 Si7 1.677785 1_555
O2 Si3 1.666344 1_655
O2 Si4 1.675119 1_555
O3 Si2 1.664577 1_555
O3 Si5 1.678084 1_555
O4 Si4 1.683888 1_555
O4 Si2 1.693692 1_555
O5 Si5 1.679449 1_554
O5 Si3 1.692229 1_555
O6 Si6 1.683943 1_455
O6 Si1 1.693758 1_555
O7 Si7 1.679111 1_555
O7 Si0 1.691825 1_555
O8 Si0 1.638684 1_555
O9 Si1 1.629349 1_555
O10 Si2 1.629171 1_555
O11 Si3 1.638940 1_655
O12 Si4 1.625532 1_555
O13 Si5 1.627290 1_555
O14 Si6 1.625396 1_455
O15 Si7 1.628193 1_555
O16 Si0 1.600892 1_555
O17 Si1 1.609635 1_655
O18 Si2 1.609643 1_555
O19 Si3 1.600493 1_655
O20 Si4 1.627654 1_455
O21 Si5 1.630346 1_555
O22 Si6 1.628190 1_455
O23 Si7 1.629793 1_555
