# generated using pymatgen
data_DyOs2
_symmetry_space_group_name_H-M   'P 1'
_cell_length_a   5.26805455
_cell_length_b   5.26805455
_cell_length_c   8.92091104
_cell_angle_alpha   89.99992508
_cell_angle_beta   90.00007492
_cell_angle_gamma   119.99983404
_symmetry_Int_Tables_number   1
_chemical_formula_structural   DyOs2
_chemical_formula_sum   'Dy4 Os8'
_cell_volume   214.40805272
_cell_formula_units_Z   4
loop_
 _symmetry_equiv_pos_site_id
 _symmetry_equiv_pos_as_xyz
  1  'x, y, z'
loop_
 _atom_site_type_symbol
 _atom_site_label
 _atom_site_symmetry_multiplicity
 _atom_site_fract_x
 _atom_site_fract_y
 _atom_site_fract_z
 _atom_site_occupancy
  Dy  Dy0  1  0.66666766  0.33333234  0.56557365  1
  Dy  Dy1  1  0.33333205  0.66666795  0.43442558  1
  Dy  Dy2  1  0.33333211  0.66666789  0.06557436  1
  Dy  Dy3  1  0.66666760  0.33333240  0.93442629  1
  Os  Os0  1  -0.00000013  0.00000013  0.49995641  1
  Os  Os1  1  -0.00000010  0.00000010  0.00004382  1
  Os  Os2  1  0.17116848  0.34233992  0.74998708  1
  Os  Os3  1  0.17115349  0.82884651  0.74998806  1
  Os  Os4  1  0.65766008  0.82883152  0.74998708  1
  Os  Os5  1  0.82884076  0.65767971  0.25001263  1
  Os  Os6  1  0.82885572  0.17114428  0.25001241  1
  Os  Os7  1  0.34232029  0.17115924  0.25001263  1
loop_
_geom_bond_atom_site_label_1
_geom_bond_atom_site_label_2
_geom_bond_distance
_geom_bond_site_symmetry_2
Dy0 Os0 3.097318 1_655
Dy0 Os0 3.097339 1_555
Dy0 Os0 3.097339 1_665
Dy0 Os2 3.105828 1_655
Dy0 Os4 3.105828 1_545
Dy0 Os3 3.105851 1_545
Dy0 Os3 3.105851 1_655
Dy0 Os4 3.105858 1_555
Dy0 Os2 3.105858 1_555
Dy0 Os7 3.180320 1_555
Dy0 Os5 3.180320 1_555
Dy0 Os6 3.180384 1_555
Dy1 Os0 3.097172 1_565
Dy1 Os0 3.097194 1_665
Dy1 Os0 3.097194 1_555
Dy1 Os7 3.105825 1_565
Dy1 Os5 3.105825 1_455
Dy1 Os6 3.105844 1_565
Dy1 Os6 3.105844 1_455
Dy1 Os7 3.105854 1_555
Dy1 Os5 3.105854 1_555
Dy1 Os2 3.180282 1_555
Dy1 Os4 3.180282 1_555
Dy1 Os3 3.180353 1_555
Dy2 Os1 3.097170 1_565
Dy2 Os1 3.097194 1_665
Dy2 Os1 3.097194 1_555
Dy2 Os7 3.105949 1_565
Dy2 Os5 3.105949 1_455
Dy2 Os6 3.105962 1_455
Dy2 Os6 3.105962 1_565
Dy2 Os7 3.105969 1_555
Dy2 Os5 3.105969 1_555
Dy2 Os2 3.180488 1_554
Dy2 Os4 3.180488 1_554
Dy2 Os3 3.180537 1_554
Dy3 Os1 3.097318 1_656
Dy3 Os1 3.097340 1_556
Dy3 Os1 3.097340 1_666
Dy3 Os4 3.105954 1_545
Dy3 Os2 3.105954 1_655
Dy3 Os3 3.105964 1_545
Dy3 Os3 3.105964 1_655
Dy3 Os2 3.105976 1_555
Dy3 Os4 3.105976 1_555
Dy3 Os7 3.180521 1_556
Dy3 Os5 3.180521 1_556
Dy3 Os6 3.180576 1_556
Os0 Os6 2.722187 1_455
Os0 Os7 2.722275 1_555
Os0 Os5 2.722275 1_445
Os0 Os3 2.722877 1_545
Os0 Os2 2.722960 1_555
Os0 Os4 2.722960 1_445
Os1 Os6 2.722371 1_455
Os1 Os5 2.722456 1_445
Os1 Os7 2.722456 1_555
Os1 Os3 2.723057 1_544
Os1 Os2 2.723149 1_554
Os1 Os4 2.723149 1_444
Os2 Os4 2.562871 1_555
Os2 Os3 2.562983 1_555
Os2 Os3 2.705072 1_545
Os2 Os4 2.705197 1_445
Os3 Os4 2.562983 1_555
Os3 Os4 2.705072 1_455
Os5 Os7 2.563023 1_555
Os5 Os6 2.563135 1_555
Os5 Os6 2.704920 1_565
Os5 Os7 2.705045 1_665
Os6 Os7 2.563135 1_555
Os6 Os7 2.704920 1_655
