# generated using pymatgen
data_Cs2Sb8S13
_symmetry_space_group_name_H-M   'P 1'
_cell_length_a   8.46598246
_cell_length_b   11.59426593
_cell_length_c   15.53553278
_cell_angle_alpha   85.57190416
_cell_angle_beta   77.94554759
_cell_angle_gamma   72.67903203
_symmetry_Int_Tables_number   1
_chemical_formula_structural   Cs2Sb8S13
_chemical_formula_sum   'Cs4 Sb16 S26'
_cell_volume   1423.48201150
_cell_formula_units_Z   2
loop_
 _symmetry_equiv_pos_site_id
 _symmetry_equiv_pos_as_xyz
  1  'x, y, z'
loop_
 _atom_site_type_symbol
 _atom_site_label
 _atom_site_symmetry_multiplicity
 _atom_site_fract_x
 _atom_site_fract_y
 _atom_site_fract_z
 _atom_site_occupancy
  Cs  Cs0  1  0.71194205  0.42860488  0.76741059  1
  Cs  Cs1  1  0.28805795  0.57139512  0.23258941  1
  Cs  Cs2  1  0.63545430  0.13010860  0.05660471  1
  Cs  Cs3  1  0.36454570  0.86989140  0.94339529  1
  Sb  Sb0  1  0.83258247  0.62408318  0.06675405  1
  Sb  Sb1  1  0.16741753  0.37591682  0.93324595  1
  Sb  Sb2  1  0.74769713  0.00467450  0.59187783  1
  Sb  Sb3  1  0.25230287  0.99532550  0.40812217  1
  Sb  Sb4  1  0.96562115  0.72811028  0.45230111  1
  Sb  Sb5  1  0.03437885  0.27188972  0.54769889  1
  Sb  Sb6  1  0.51548510  0.77659522  0.57860729  1
  Sb  Sb7  1  0.48451490  0.22340478  0.42139271  1
  Sb  Sb8  1  0.36102671  0.20270452  0.72771973  1
  Sb  Sb9  1  0.63897329  0.79729548  0.27228027  1
  Sb  Sb10  1  0.10307542  0.97360980  0.72999101  1
  Sb  Sb11  1  0.89692458  0.02639020  0.27000899  1
  Sb  Sb12  1  0.01518277  0.67935436  0.81689794  1
  Sb  Sb13  1  -0.01518277  0.32064564  0.18310206  1
  Sb  Sb14  1  0.29730534  0.53023021  0.58527654  1
  Sb  Sb15  1  0.70269466  0.46976979  0.41472346  1
  S  S0  1  0.82948447  0.10564584  0.70549427  1
  S  S1  1  0.17051553  0.89435416  0.29450573  1
  S  S2  1  0.79199019  0.61730760  0.55623110  1
  S  S3  1  0.20800981  0.38269240  0.44376890  1
  S  S4  1  0.44477253  0.63524562  0.43639376  1
  S  S5  1  0.55522747  0.36475438  0.56360624  1
  S  S6  1  0.72796000  0.88896146  0.42147667  1
  S  S7  1  0.27204000  0.11103854  0.57852333  1
  S  S8  1  0.23600509  0.35932703  0.08337160  1
  S  S9  1  0.76399491  0.64067297  0.91662840  1
  S  S10  1  0.44601224  0.24796135  0.87015803  1
  S  S11  1  0.55398776  0.75203865  0.12984197  1
  S  S12  1  0.38740190  0.64825359  0.68989733  1
  S  S13  1  0.61259810  0.35174641  0.31010267  1
  S  S14  1  0.02399141  0.84687345  0.56406586  1
  S  S15  1  0.97600859  0.15312655  0.43593414  1
  S  S16  1  0.78258355  0.42239735  0.08744281  1
  S  S17  1  0.21741645  0.57760265  0.91255719  1
  S  S18  1  0.59537220  0.87927054  0.69608547  1
  S  S19  1  0.40462780  0.12072946  0.30391453  1
  S  S20  1  0.14229961  0.11974242  0.82454439  1
  S  S21  1  0.85770039  0.88025758  0.17545561  1
  S  S22  1  0.15958964  0.40138499  0.71948661  1
  S  S23  1  0.84041036  0.59861501  0.28051339  1
  S  S24  1  0.98137634  0.87958318  0.87280521  1
  S  S25  1  0.01862366  0.12041682  0.12719479  1
loop_
_geom_bond_atom_site_label_1
_geom_bond_atom_site_label_2
_geom_bond_distance
_geom_bond_site_symmetry_2
Cs0 S12 3.496664 1_555
Cs0 S10 3.576824 1_555
Cs0 S22 3.627934 1_655
Cs0 S9 3.683171 1_555
Cs0 S0 3.724810 1_555
Cs0 S2 3.854272 1_555
Cs0 S5 3.877439 1_555
Cs1 S13 3.496664 1_555
Cs1 S11 3.576824 1_555
Cs1 S23 3.627934 1_455
Cs1 S8 3.683171 1_555
Cs1 S1 3.724810 1_555
Cs1 S3 3.854272 1_555
Cs1 S4 3.877439 1_555
Cs2 S21 3.566611 1_545
Cs2 S10 3.585189 1_554
Cs2 S8 3.592178 1_555
Cs2 S25 3.603887 1_655
Cs2 S19 3.939326 1_555
Cs2 S16 4.034715 1_555
Cs3 S20 3.566611 1_565
Cs3 S11 3.585189 1_556
Cs3 S9 3.592178 1_555
Cs3 S24 3.603887 1_455
Cs3 S18 3.939326 1_555
Cs3 S17 4.034715 1_555
S0 Sb10 2.453589 1_645
S0 Sb2 2.505538 1_555
S1 Sb11 2.453589 1_465
S1 Sb3 2.505538 1_555
S2 Sb6 2.489247 1_555
S2 Sb4 2.496188 1_555
S3 Sb7 2.489247 1_555
S3 Sb5 2.496188 1_555
S4 Sb15 2.420821 1_555
S4 Sb14 2.766790 1_555
S4 Sb6 3.101810 1_555
S5 Sb14 2.420821 1_555
S5 Sb15 2.766790 1_555
S5 Sb7 3.101810 1_555
S6 Sb4 2.405381 1_555
S6 Sb9 2.942107 1_555
S6 Sb11 3.081325 1_565
S6 Sb2 3.114892 1_565
S6 Sb6 3.156309 1_555
S7 Sb5 2.405381 1_555
S7 Sb8 2.942107 1_555
S7 Sb10 3.081325 1_545
S7 Sb3 3.114892 1_545
S7 Sb7 3.156309 1_555
S8 Sb13 2.491647 1_555
S8 Sb1 2.498716 1_554
S9 Sb12 2.491647 1_655
S9 Sb0 2.498716 1_556
S10 Sb1 2.428969 1_555
S10 Sb8 2.599772 1_555
S11 Sb0 2.428969 1_555
S11 Sb9 2.599772 1_555
S12 Sb6 2.481885 1_555
S12 Sb14 2.564914 1_555
S13 Sb7 2.481885 1_555
S13 Sb15 2.564914 1_555
S14 Sb2 2.481357 1_465
S14 Sb4 2.507551 1_455
S15 Sb3 2.481357 1_645
S15 Sb5 2.507551 1_655
S16 Sb13 2.474055 1_655
S16 Sb0 2.483364 1_555
S17 Sb12 2.474055 1_555
S17 Sb1 2.483364 1_555
S18 Sb2 2.505780 1_565
S18 Sb6 2.556556 1_555
S19 Sb3 2.505780 1_545
S19 Sb7 2.556556 1_555
S20 Sb10 2.462067 1_545
S20 Sb8 2.508105 1_555
S21 Sb11 2.462067 1_565
S21 Sb9 2.508105 1_555
S22 Sb8 2.436686 1_555
S22 Sb14 2.734786 1_555
S23 Sb9 2.436686 1_555
S23 Sb15 2.734786 1_555
S24 Sb12 2.457148 1_655
S24 Sb10 2.552082 1_655
S25 Sb13 2.457148 1_555
S25 Sb11 2.552082 1_455
