# generated using pymatgen
data_Li9Co7O16
_symmetry_space_group_name_H-M   'P 1'
_cell_length_a   5.61172632
_cell_length_b   6.30303355
_cell_length_c   7.43798369
_cell_angle_alpha   85.85501113
_cell_angle_beta   79.14085008
_cell_angle_gamma   77.14180176
_symmetry_Int_Tables_number   1
_chemical_formula_structural   Li9Co7O16
_chemical_formula_sum   'Li9 Co7 O16'
_cell_volume   251.77138632
_cell_formula_units_Z   1
loop_
 _symmetry_equiv_pos_site_id
 _symmetry_equiv_pos_as_xyz
  1  'x, y, z'
loop_
 _atom_site_type_symbol
 _atom_site_label
 _atom_site_symmetry_multiplicity
 _atom_site_fract_x
 _atom_site_fract_y
 _atom_site_fract_z
 _atom_site_occupancy
  Li  Li0  1  0.93800926  0.87745552  0.37288899  1
  Li  Li1  1  0.68339006  0.36720552  0.87669938  1
  Li  Li2  1  0.43835947  0.87865330  0.36704172  1
  Li  Li3  1  0.80422716  0.63490159  0.12306746  1
  Li  Li4  1  0.56164053  0.12134670  0.63295828  1
  Li  Li5  1  0.31660994  0.63279448  0.12330062  1
  Li  Li6  1  0.19577284  0.36509841  0.87693254  1
  Li  Li7  1  0.06199074  0.12254448  0.62711101  1
  Li  Li8  1  0.50000000  -0.00000000  0.00000000  1
  Co  Co0  1  0.87118919  0.75136157  0.75364756  1
  Co  Co1  1  0.00000000  -0.00000000  0.00000000  1
  Co  Co2  1  0.62409943  0.24881555  0.24628083  1
  Co  Co3  1  0.37590057  0.75118445  0.75371917  1
  Co  Co4  1  0.12881081  0.24863843  0.24635244  1
  Co  Co5  1  0.25002299  0.49960074  0.49969157  1
  Co  Co6  1  0.74997701  0.50039926  0.50030843  1
  O  O0  1  0.15777891  0.79244980  0.57703964  1
  O  O1  1  0.90861928  0.29537806  0.07290251  1
  O  O2  1  0.65617618  0.79616597  0.57699523  1
  O  O3  1  0.03174184  0.54345939  0.32594285  1
  O  O4  1  0.79907491  0.04259155  0.81931076  1
  O  O5  1  0.53337087  0.54520151  0.32519441  1
  O  O6  1  0.40107771  0.31115375  0.08273687  1
  O  O7  1  0.26987148  0.04243111  0.81927454  1
  O  O8  1  0.73012852  0.95756889  0.18072546  1
  O  O9  1  0.46662913  0.45479849  0.67480559  1
  O  O10  1  0.20092509  0.95740845  0.18068924  1
  O  O11  1  0.59892229  0.68884625  0.91726313  1
  O  O12  1  0.34382382  0.20383403  0.42300477  1
  O  O13  1  0.09138072  0.70462194  0.92709749  1
  O  O14  1  0.96825816  0.45654061  0.67405715  1
  O  O15  1  0.84222109  0.20755020  0.42296036  1
loop_
_geom_bond_atom_site_label_1
_geom_bond_atom_site_label_2
_geom_bond_distance
_geom_bond_site_symmetry_2
Li0 O10 1.976498 1_655
Li0 O8 1.980033 1_555
Li0 O15 2.072522 1_565
Li0 O3 2.091564 1_655
Li0 O0 2.099458 1_655
Li0 O2 2.100515 1_555
Li1 O11 2.008119 1_555
Li1 O4 2.054420 1_555
Li1 O6 2.058958 1_556
Li1 O1 2.068089 1_556
Li1 O9 2.075816 1_555
Li1 O14 2.124726 1_555
Li2 O12 2.052278 1_565
Li2 O10 2.060343 1_555
Li2 O8 2.063159 1_555
Li2 O5 2.081304 1_555
Li2 O2 2.126522 1_555
Li2 O0 2.132028 1_555
Li3 O8 2.043428 1_555
Li3 O11 2.049672 1_554
Li3 O13 2.062045 1_654
Li3 O5 2.070946 1_555
Li3 O3 2.124145 1_655
Li3 O1 2.130075 1_555
Li4 O2 2.052278 1_545
Li4 O4 2.060343 1_555
Li4 O7 2.063159 1_555
Li4 O9 2.081304 1_555
Li4 O12 2.126522 1_555
Li4 O15 2.132028 1_555
Li5 O6 2.008119 1_555
Li5 O10 2.054420 1_555
Li5 O11 2.058958 1_554
Li5 O13 2.068089 1_554
Li5 O5 2.075816 1_555
Li5 O3 2.124726 1_555
Li6 O7 2.043428 1_555
Li6 O6 2.049672 1_556
Li6 O1 2.062045 1_456
Li6 O9 2.070946 1_555
Li6 O14 2.124145 1_455
Li6 O13 2.130075 1_555
Li7 O4 1.976498 1_455
Li7 O7 1.980033 1_555
Li7 O0 2.072522 1_545
Li7 O14 2.091564 1_455
Li7 O15 2.099458 1_455
Li7 O12 2.100515 1_555
Li8 O4 1.998392 1_554
Li8 O10 1.998392 1_545
Li8 O8 1.998663 1_545
Li8 O7 1.998663 1_554
Li8 O11 2.023467 1_544
Li8 O6 2.023467 1_555
Co0 O11 1.862459 1_555
Co0 O4 1.869854 1_565
Co0 O2 1.911573 1_555
Co0 O13 1.913565 1_655
Co0 O14 1.920242 1_555
Co0 O0 1.928555 1_655
Co1 O7 1.879700 1_554
Co1 O8 1.879700 1_445
Co1 O10 1.879825 1_545
Co1 O4 1.879825 1_454
Co1 O1 1.907736 1_455
Co1 O13 1.907736 1_544
Co2 O6 1.867115 1_555
Co2 O8 1.869666 1_545
Co2 O12 1.909873 1_555
Co2 O1 1.917414 1_555
Co2 O15 1.925581 1_555
Co2 O5 1.927754 1_555
Co3 O11 1.867115 1_555
Co3 O7 1.869666 1_565
Co3 O2 1.909873 1_555
Co3 O13 1.917414 1_555
Co3 O0 1.925581 1_555
Co3 O9 1.927754 1_555
Co4 O6 1.862459 1_555
Co4 O10 1.869854 1_545
Co4 O12 1.911573 1_555
Co4 O1 1.913565 1_455
Co4 O3 1.920242 1_555
Co4 O15 1.928555 1_455
Co5 O0 1.903180 1_555
Co5 O14 1.903491 1_455
Co5 O3 1.908177 1_555
Co5 O9 1.909021 1_555
Co5 O5 1.915039 1_555
Co5 O12 1.918752 1_555
Co6 O15 1.903180 1_555
Co6 O3 1.903491 1_655
Co6 O14 1.908177 1_555
Co6 O5 1.909021 1_555
Co6 O9 1.915039 1_555
Co6 O2 1.918752 1_555
