# generated using pymatgen
data_Na3N
_symmetry_space_group_name_H-M   'P 1'
_cell_length_a   7.72357821
_cell_length_b   7.72817187
_cell_length_c   7.79762300
_cell_angle_alpha   90.00000000
_cell_angle_beta   90.00000000
_cell_angle_gamma   119.98034274
_symmetry_Int_Tables_number   1
_chemical_formula_structural   Na3N
_chemical_formula_sum   'Na18 N6'
_cell_volume   403.15697410
_cell_formula_units_Z   6
loop_
 _symmetry_equiv_pos_site_id
 _symmetry_equiv_pos_as_xyz
  1  'x, y, z'
loop_
 _atom_site_type_symbol
 _atom_site_label
 _atom_site_symmetry_multiplicity
 _atom_site_fract_x
 _atom_site_fract_y
 _atom_site_fract_z
 _atom_site_occupancy
  Na  Na0  1  0.99995400  0.00000000  0.20549200  1
  Na  Na1  1  0.00004600  0.00000000  0.70549200  1
  Na  Na2  1  0.66663400  0.33330800  0.26681700  1
  Na  Na3  1  0.33332600  0.66669200  0.26681700  1
  Na  Na4  1  0.33336600  0.66669200  0.76681700  1
  Na  Na5  1  0.66667400  0.33330800  0.76681700  1
  Na  Na6  1  0.71568000  0.00000000  0.92297200  1
  Na  Na7  1  0.28426800  0.28430300  0.92294200  1
  Na  Na8  1  0.99996600  0.71569700  0.92294200  1
  Na  Na9  1  0.28432000  0.00000000  0.42297200  1
  Na  Na10  1  0.71573200  0.71569700  0.42294200  1
  Na  Na11  1  0.00003400  0.28430300  0.42294200  1
  Na  Na12  1  0.61973300  0.00000000  0.56529400  1
  Na  Na13  1  0.38022800  0.38027000  0.56531600  1
  Na  Na14  1  0.99995800  0.61973000  0.56531600  1
  Na  Na15  1  0.38026700  0.00000000  0.06529400  1
  Na  Na16  1  0.61977200  0.61973000  0.06531600  1
  Na  Na17  1  0.00004200  0.38027000  0.06531600  1
  N  N0  1  0.67238900  0.00000000  0.24603000  1
  N  N1  1  0.32769700  0.32766400  0.24603100  1
  N  N2  1  0.00003300  0.67233600  0.24603100  1
  N  N3  1  0.32761100  0.00000000  0.74603000  1
  N  N4  1  0.67230300  0.67233600  0.74603100  1
  N  N5  1  0.99996700  0.32766400  0.74603100  1
loop_
_geom_bond_atom_site_label_1
_geom_bond_atom_site_label_2
_geom_bond_distance
_geom_bond_site_symmetry_2
N0 Na12 2.522501 1_555
N0 Na6 2.541178 1_554
N0 Na0 2.549645 1_555
N0 Na3 2.603409 1_545
N0 Na2 2.603409 1_555
N0 Na15 2.660210 1_555
N0 Na11 2.752738 1_655
N0 Na10 2.752742 1_545
N1 Na13 2.522593 1_555
N1 Na7 2.541549 1_554
N1 Na0 2.552200 1_455
N1 Na2 2.601340 1_555
N1 Na3 2.603664 1_555
N1 Na16 2.660924 1_555
N1 Na11 2.751786 1_555
N1 Na9 2.753228 1_555
N2 Na14 2.522593 1_455
N2 Na8 2.541549 1_454
N2 Na0 2.552200 1_465
N2 Na3 2.601340 1_555
N2 Na2 2.603664 1_455
N2 Na17 2.660924 1_555
N2 Na10 2.751779 1_455
N2 Na9 2.753228 1_565
N3 Na15 2.522501 1_556
N3 Na9 2.541178 1_555
N3 Na1 2.549645 1_555
N3 Na5 2.603409 1_555
N3 Na4 2.603409 1_545
N3 Na12 2.660210 1_555
N3 Na8 2.752738 1_445
N3 Na7 2.752742 1_555
N4 Na16 2.522593 1_556
N4 Na10 2.541549 1_555
N4 Na1 2.552200 1_665
N4 Na4 2.601340 1_555
N4 Na5 2.603664 1_555
N4 Na13 2.660924 1_555
N4 Na8 2.751786 1_555
N4 Na6 2.753228 1_565
N5 Na17 2.522593 1_656
N5 Na11 2.541549 1_655
N5 Na1 2.552200 1_655
N5 Na5 2.601340 1_555
N5 Na4 2.603664 1_655
N5 Na14 2.660924 1_555
N5 Na7 2.751779 1_655
N5 Na6 2.753228 1_555
