# generated using pymatgen
data_MoWS4
_symmetry_space_group_name_H-M   'P 1'
_cell_length_a   3.18263671
_cell_length_b   3.18263671
_cell_length_c   34.81060479
_cell_angle_alpha   90.00000000
_cell_angle_beta   90.00000000
_cell_angle_gamma   119.99999240
_symmetry_Int_Tables_number   1
_chemical_formula_structural   MoWS4
_chemical_formula_sum   'Mo2 W2 S8'
_cell_volume   305.36296963
_cell_formula_units_Z   2
loop_
 _symmetry_equiv_pos_site_id
 _symmetry_equiv_pos_as_xyz
  1  'x, y, z'
loop_
 _atom_site_type_symbol
 _atom_site_label
 _atom_site_symmetry_multiplicity
 _atom_site_fract_x
 _atom_site_fract_y
 _atom_site_fract_z
 _atom_site_occupancy
  Mo  Mo0  1  0.00000000  -0.00000000  0.09424752  1
  Mo  Mo1  1  0.33333300  0.66666700  0.28170748  1
  W  W0  1  0.00000000  -0.00000000  0.46934119  1
  W  W1  1  0.33333300  0.66666700  0.65759097  1
  S  S0  1  0.00000000  0.00000000  0.32630245  1
  S  S1  1  0.00000000  0.00000000  0.70240192  1
  S  S2  1  0.33333300  0.66666700  0.04968113  1
  S  S3  1  0.33333300  0.66666700  0.42455261  1
  S  S4  1  0.33333300  0.66666700  0.13883647  1
  S  S5  1  0.33333300  0.66666700  0.51417000  1
  S  S6  1  -0.00000000  -0.00000000  0.23712865  1
  S  S7  1  -0.00000000  0.00000000  0.61278563  1
loop_
_geom_bond_atom_site_label_1
_geom_bond_atom_site_label_2
_geom_bond_distance
_geom_bond_site_symmetry_2
Mo0 S2 2.404823 1_545
Mo0 S2 2.404825 1_555
Mo0 S2 2.404825 1_445
Mo0 S4 2.405330 1_545
Mo0 S4 2.405332 1_555
Mo0 S4 2.405332 1_445
Mo1 S6 2.405103 1_565
Mo1 S6 2.405105 1_665
Mo1 S6 2.405105 1_555
Mo1 S0 2.405465 1_565
Mo1 S0 2.405467 1_665
Mo1 S0 2.405467 1_555
S1 W1 2.410324 1_545
S1 W1 2.410326 1_445
S1 W1 2.410326 1_555
S3 W0 2.409820 1_565
S3 W0 2.409822 1_665
S3 W0 2.409822 1_555
S5 W0 2.410726 1_565
S5 W0 2.410729 1_555
S5 W0 2.410729 1_665
S7 W1 2.410198 1_545
S7 W1 2.410200 1_555
S7 W1 2.410200 1_445
