# generated using pymatgen
data_SmCoGe2
_symmetry_space_group_name_H-M   'P 1'
_cell_length_a   8.51537185
_cell_length_b   8.51537185
_cell_length_c   4.15735291
_cell_angle_alpha   90.00000000
_cell_angle_beta   90.00000000
_cell_angle_gamma   151.43831470
_symmetry_Int_Tables_number   1
_chemical_formula_structural   SmCoGe2
_chemical_formula_sum   'Sm2 Co2 Ge4'
_cell_volume   144.12757353
_cell_formula_units_Z   2
loop_
 _symmetry_equiv_pos_site_id
 _symmetry_equiv_pos_as_xyz
  1  'x, y, z'
loop_
 _atom_site_type_symbol
 _atom_site_label
 _atom_site_symmetry_multiplicity
 _atom_site_fract_x
 _atom_site_fract_y
 _atom_site_fract_z
 _atom_site_occupancy
  Sm  Sm0  1  0.89070173  0.10929827  0.75000000  1
  Sm  Sm1  1  0.10929827  0.89070173  0.25000000  1
  Co  Co0  1  0.68237347  0.31762653  0.75000000  1
  Co  Co1  1  0.31762653  0.68237347  0.25000000  1
  Ge  Ge0  1  0.54546049  0.45453951  0.75000000  1
  Ge  Ge1  1  0.45453951  0.54546049  0.25000000  1
  Ge  Ge2  1  0.25033124  0.74966876  0.75000000  1
  Ge  Ge3  1  0.74966876  0.25033124  0.25000000  1
loop_
_geom_bond_atom_site_label_1
_geom_bond_atom_site_label_2
_geom_bond_distance
_geom_bond_site_symmetry_2
Co0 Ge0 2.259675 1_555
Co0 Ge3 2.356796 1_555
Co0 Ge3 2.356796 1_556
Co0 Ge2 2.381223 1_655
Co0 Ge2 2.381223 1_545
Co0 Sm1 3.191820 1_655
Co0 Sm1 3.191820 1_656
Co0 Sm1 3.191820 1_546
Co0 Sm1 3.191820 1_545
Co1 Ge1 2.259675 1_555
Co1 Ge2 2.356796 1_555
Co1 Ge2 2.356796 1_554
Co1 Ge3 2.381223 1_565
Co1 Ge3 2.381223 1_455
Co1 Sm0 3.191820 1_454
Co1 Sm0 3.191820 1_455
Co1 Sm0 3.191820 1_565
Co1 Sm0 3.191820 1_564
Ge0 Ge1 2.563728 1_555
Ge0 Ge1 2.563728 1_556
Ge0 Sm1 3.137389 1_655
Ge0 Sm1 3.137389 1_656
Ge0 Sm1 3.137389 1_545
Ge0 Sm1 3.137389 1_546
Ge0 Sm0 3.306995 1_565
Ge0 Sm0 3.306995 1_455
Ge1 Sm0 3.137389 1_455
Ge1 Sm0 3.137389 1_565
Ge1 Sm0 3.137389 1_564
Ge1 Sm0 3.137389 1_454
Ge1 Sm1 3.306995 1_545
Ge1 Sm1 3.306995 1_655
Ge2 Sm1 3.120731 1_555
Ge2 Sm1 3.120731 1_556
Ge2 Sm0 3.127220 1_565
Ge2 Sm0 3.127220 1_455
Ge3 Sm0 3.120731 1_554
Ge3 Sm0 3.120731 1_555
Ge3 Sm1 3.127220 1_545
Ge3 Sm1 3.127220 1_655
