# generated using pymatgen
data_KTbRuC6(N3O2)2
_symmetry_space_group_name_H-M   'P 1'
_cell_length_a   7.56270666
_cell_length_b   7.56270666
_cell_length_c   14.28246600
_cell_angle_alpha   90.00000000
_cell_angle_beta   90.00000000
_cell_angle_gamma   122.67807343
_symmetry_Int_Tables_number   1
_chemical_formula_structural   KTbRuC6(N3O2)2
_chemical_formula_sum   'K2 Tb2 Ru2 C12 N12 O8'
_cell_volume   687.58128642
_cell_formula_units_Z   2
loop_
 _symmetry_equiv_pos_site_id
 _symmetry_equiv_pos_as_xyz
  1  'x, y, z'
loop_
 _atom_site_type_symbol
 _atom_site_label
 _atom_site_symmetry_multiplicity
 _atom_site_fract_x
 _atom_site_fract_y
 _atom_site_fract_z
 _atom_site_occupancy
  K  K0  1  0.51863400  0.48136600  0.25000000  1
  K  K1  1  0.48136600  0.51863400  0.75000000  1
  Tb  Tb0  1  0.83091700  0.16908300  0.25000000  1
  Tb  Tb1  1  0.16908300  0.83091700  0.75000000  1
  Ru  Ru0  1  0.50000000  0.50000000  0.50000000  1
  Ru  Ru1  1  0.50000000  0.50000000  0.00000000  1
  C  C0  1  0.62845000  0.37155000  0.07800700  1
  C  C1  1  0.37155000  0.62845000  0.92199300  1
  C  C2  1  0.62845000  0.37155000  0.42199300  1
  C  C3  1  0.37155000  0.62845000  0.57800700  1
  C  C4  1  0.24866000  0.36542800  0.41332900  1
  C  C5  1  0.36542800  0.24866000  0.58667100  1
  C  C6  1  0.24866000  0.36542800  0.08667100  1
  C  C7  1  0.36542800  0.24866000  0.91332900  1
  C  C8  1  0.75134000  0.63457200  0.58667100  1
  C  C9  1  0.63457200  0.75134000  0.41332900  1
  C  C10  1  0.75134000  0.63457200  0.91332900  1
  C  C11  1  0.63457200  0.75134000  0.08667100  1
  N  N0  1  0.69522300  0.30477700  0.13284000  1
  N  N1  1  0.30477700  0.69522300  0.86716000  1
  N  N2  1  0.69522300  0.30477700  0.36716000  1
  N  N3  1  0.30477700  0.69522300  0.63284000  1
  N  N4  1  0.11738300  0.29952800  0.35516300  1
  N  N5  1  0.29952800  0.11738300  0.64483700  1
  N  N6  1  0.11738300  0.29952800  0.14483700  1
  N  N7  1  0.29952800  0.11738300  0.85516300  1
  N  N8  1  0.88261700  0.70047200  0.64483700  1
  N  N9  1  0.70047200  0.88261700  0.35516300  1
  N  N10  1  0.88261700  0.70047200  0.85516300  1
  N  N11  1  0.70047200  0.88261700  0.14483700  1
  O  O0  1  0.34904800  0.93346300  0.25000000  1
  O  O1  1  0.93346300  0.34904800  0.75000000  1
  O  O2  1  0.65095200  0.06653700  0.75000000  1
  O  O3  1  0.06653700  0.65095200  0.25000000  1
  O  O4  1  0.18287400  0.81712600  0.32196600  1
  O  O5  1  0.81712600  0.18287400  0.67803400  1
  O  O6  1  0.18287400  0.81712600  0.17803400  1
  O  O7  1  0.81712600  0.18287400  0.82196600  1
loop_
_geom_bond_atom_site_label_1
_geom_bond_atom_site_label_2
_geom_bond_distance
_geom_bond_site_symmetry_2
K0 N0 2.879765 1_555
K0 N2 2.879765 1_555
K0 N6 2.974783 1_555
K0 N4 2.974783 1_555
K0 N9 2.974783 1_555
K0 N11 2.974783 1_555
K1 N3 2.879765 1_555
K1 N1 2.879765 1_555
K1 N5 2.974783 1_555
K1 N7 2.974783 1_555
K1 N8 2.974783 1_555
K1 N10 2.974783 1_555
C0 N0 1.182672 1_555
C0 Ru1 2.036580 1_555
C0 K0 2.856327 1_555
C1 N1 1.182672 1_555
C1 Ru1 2.036580 1_556
C1 K1 2.856327 1_555
C2 N2 1.182672 1_555
C2 Ru0 2.036580 1_555
C2 K0 2.856327 1_555
C3 N3 1.182672 1_555
C3 Ru0 2.036580 1_555
C3 K1 2.856327 1_555
C4 N4 1.178943 1_555
C4 Ru0 2.022927 1_555
C4 K0 2.906204 1_555
C5 N5 1.178943 1_555
C5 Ru0 2.022927 1_555
C5 K1 2.906204 1_555
C6 N6 1.178943 1_555
C6 Ru1 2.022927 1_555
C6 K0 2.906204 1_555
C7 N7 1.178943 1_555
C7 Ru1 2.022927 1_556
C7 K1 2.906204 1_555
C8 N8 1.178943 1_555
C8 Ru0 2.022927 1_555
C8 K1 2.906204 1_555
C9 N9 1.178943 1_555
C9 Ru0 2.022927 1_555
C9 K0 2.906204 1_555
C10 N10 1.178943 1_555
C10 Ru1 2.022927 1_556
C10 K1 2.906204 1_555
C11 N11 1.178943 1_555
C11 Ru1 2.022927 1_555
C11 K0 2.906204 1_555
N0 Tb0 2.458347 1_555
N1 Tb1 2.458347 1_555
N2 Tb0 2.458347 1_555
N3 Tb1 2.458347 1_555
N4 Tb0 2.369566 1_455
N5 Tb1 2.369566 1_545
N6 Tb0 2.369566 1_455
N7 Tb1 2.369566 1_545
N8 Tb1 2.369566 1_655
N9 Tb0 2.369566 1_565
N10 Tb1 2.369566 1_655
N11 Tb0 2.369566 1_565
O0 O4 1.488609 1_555
O0 O6 1.488609 1_555
O0 Tb0 3.073029 1_565
O1 O7 1.488609 1_555
O1 O5 1.488609 1_555
O1 Tb1 3.073029 1_655
O2 O7 1.488609 1_555
O2 O5 1.488609 1_555
O2 Tb1 3.073029 1_545
O3 O4 1.488609 1_555
O3 O6 1.488609 1_555
O3 Tb0 3.073029 1_455
