# generated using pymatgen
data_MgSi
_symmetry_space_group_name_H-M   'P 1'
_cell_length_a   14.86183468
_cell_length_b   14.86183468
_cell_length_c   4.05803600
_cell_angle_alpha   90.00000000
_cell_angle_beta   90.00000000
_cell_angle_gamma   165.50589329
_symmetry_Int_Tables_number   1
_chemical_formula_structural   MgSi
_chemical_formula_sum   'Mg6 Si6'
_cell_volume   224.33013895
_cell_formula_units_Z   6
loop_
 _symmetry_equiv_pos_site_id
 _symmetry_equiv_pos_as_xyz
  1  'x, y, z'
loop_
 _atom_site_type_symbol
 _atom_site_label
 _atom_site_symmetry_multiplicity
 _atom_site_fract_x
 _atom_site_fract_y
 _atom_site_fract_z
 _atom_site_occupancy
  Mg  Mg0  1  0.11738700  0.88261300  0.75000000  1
  Mg  Mg1  1  0.45095100  0.54904900  0.75000000  1
  Mg  Mg2  1  0.28445500  0.71554500  0.25000000  1
  Mg  Mg3  1  0.54904900  0.45095100  0.25000000  1
  Mg  Mg4  1  0.88261300  0.11738700  0.25000000  1
  Mg  Mg5  1  0.71554500  0.28445500  0.75000000  1
  Si  Si0  1  0.63976900  0.36023100  0.25000000  1
  Si  Si1  1  0.97537700  0.02462300  0.25000000  1
  Si  Si2  1  0.80707200  0.19292800  0.75000000  1
  Si  Si3  1  0.02462300  0.97537700  0.75000000  1
  Si  Si4  1  0.36023100  0.63976900  0.75000000  1
  Si  Si5  1  0.19292800  0.80707200  0.25000000  1
loop_
_geom_bond_atom_site_label_1
_geom_bond_atom_site_label_2
_geom_bond_distance
_geom_bond_site_symmetry_2
Mg0 Si3 2.735260 1_555
Mg0 Si0 2.840299 1_565
Mg0 Si0 2.840299 1_566
Mg0 Si0 2.840299 1_456
Mg0 Si0 2.840299 1_455
Mg0 Si5 3.013023 1_555
Mg0 Si5 3.013023 1_556
Mg1 Si4 2.674990 1_555
Mg1 Si1 2.854905 1_565
Mg1 Si1 2.854905 1_566
Mg1 Si1 2.854905 1_455
Mg1 Si1 2.854905 1_456
Mg1 Si3 2.869453 1_655
Mg1 Si3 2.869453 1_545
Mg2 Si5 2.698785 1_555
Mg2 Si2 2.841917 1_565
Mg2 Si2 2.841917 1_455
Mg2 Si2 2.841917 1_454
Mg2 Si2 2.841917 1_564
Mg2 Si4 3.018149 1_555
Mg2 Si4 3.018149 1_554
Mg3 Si0 2.674990 1_555
Mg3 Si3 2.854905 1_655
Mg3 Si3 2.854905 1_654
Mg3 Si3 2.854905 1_545
Mg3 Si3 2.854905 1_544
Mg3 Si1 2.869453 1_565
Mg3 Si1 2.869453 1_455
Mg4 Si1 2.735260 1_555
Mg4 Si4 2.840299 1_655
Mg4 Si4 2.840299 1_654
Mg4 Si4 2.840299 1_545
Mg4 Si4 2.840299 1_544
Mg4 Si2 3.013023 1_555
Mg4 Si2 3.013023 1_554
Mg5 Si2 2.698785 1_555
Mg5 Si5 2.841917 1_546
Mg5 Si5 2.841917 1_655
Mg5 Si5 2.841917 1_656
Mg5 Si5 2.841917 1_545
Mg5 Si0 3.018149 1_555
Mg5 Si0 3.018149 1_556
Si0 Si5 2.443719 1_545
Si0 Si5 2.443719 1_655
Si1 Si3 2.495084 1_645
Si1 Si3 2.495084 1_644
Si2 Si4 2.443719 1_655
Si2 Si4 2.443719 1_545
