# generated using pymatgen
data_CaLaCrSnO6
_symmetry_space_group_name_H-M   'P 1'
_cell_length_a   5.65092284
_cell_length_b   5.65092284
_cell_length_c   5.65092284
_cell_angle_alpha   60.00000000
_cell_angle_beta   60.00000000
_cell_angle_gamma   60.00000000
_symmetry_Int_Tables_number   1
_chemical_formula_structural   CaLaCrSnO6
_chemical_formula_sum   'Ca1 La1 Cr1 Sn1 O6'
_cell_volume   127.59778459
_cell_formula_units_Z   1
loop_
 _symmetry_equiv_pos_site_id
 _symmetry_equiv_pos_as_xyz
  1  'x, y, z'
loop_
 _atom_site_type_symbol
 _atom_site_label
 _atom_site_symmetry_multiplicity
 _atom_site_fract_x
 _atom_site_fract_y
 _atom_site_fract_z
 _atom_site_occupancy
  Ca  Ca0  1  0.25000000  0.25000000  0.25000000  1
  La  La0  1  0.75000000  0.75000000  0.75000000  1
  Cr  Cr0  1  0.00000000  0.00000000  0.00000000  1
  Sn  Sn0  1  0.50000000  0.50000000  0.50000000  1
  O  O0  1  0.75357786  0.24642214  0.24642214  1
  O  O1  1  0.24642214  0.75357786  0.75357786  1
  O  O2  1  0.75357786  0.24642214  0.75357786  1
  O  O3  1  0.24642214  0.75357786  0.24642214  1
  O  O4  1  0.75357786  0.75357786  0.24642214  1
  O  O5  1  0.24642214  0.24642214  0.75357786  1
loop_
_geom_bond_atom_site_label_1
_geom_bond_atom_site_label_2
_geom_bond_distance
_geom_bond_site_symmetry_2
Ca0 O0 2.825606 1_455
Ca0 O3 2.825606 1_545
Ca0 O5 2.825606 1_554
Ca0 O2 2.825606 1_455
Ca0 O5 2.825606 1_555
Ca0 O2 2.825606 1_554
Ca0 O4 2.825606 1_545
Ca0 O1 2.825606 1_545
Ca0 O4 2.825606 1_455
Ca0 O1 2.825606 1_554
Ca0 O0 2.825606 1_555
Ca0 O3 2.825606 1_555
La0 O4 2.825606 1_556
La0 O0 2.825606 1_565
La0 O5 2.825606 1_655
La0 O5 2.825606 1_565
La0 O1 2.825606 1_655
La0 O3 2.825606 1_556
La0 O0 2.825606 1_556
La0 O2 2.825606 1_555
La0 O2 2.825606 1_565
La0 O1 2.825606 1_555
La0 O3 2.825606 1_655
La0 O4 2.825606 1_555
Cr0 O2 1.969310 1_454
Cr0 O4 1.969310 1_445
Cr0 O1 1.969310 1_544
Cr0 O3 1.969310 1_545
Cr0 O5 1.969310 1_554
Cr0 O0 1.969310 1_455
O0 Sn0 2.026496 1_555
O1 Sn0 2.026496 1_555
O2 Sn0 2.026496 1_555
O3 Sn0 2.026496 1_555
O4 Sn0 2.026496 1_555
O5 Sn0 2.026496 1_555
