# generated using pymatgen
data_CaH(CO2)2
_symmetry_space_group_name_H-M   'P 1'
_cell_length_a   6.33309454
_cell_length_b   9.88204764
_cell_length_c   14.81711500
_cell_angle_alpha   90.00000000
_cell_angle_beta   90.00000000
_cell_angle_gamma   104.37251792
_symmetry_Int_Tables_number   1
_chemical_formula_structural   CaH(CO2)2
_chemical_formula_sum   'Ca8 H8 C16 O32'
_cell_volume   898.29071786
_cell_formula_units_Z   8
loop_
 _symmetry_equiv_pos_site_id
 _symmetry_equiv_pos_as_xyz
  1  'x, y, z'
loop_
 _atom_site_type_symbol
 _atom_site_label
 _atom_site_symmetry_multiplicity
 _atom_site_fract_x
 _atom_site_fract_y
 _atom_site_fract_z
 _atom_site_occupancy
  Ca  Ca0  1  0.01211700  0.56910700  0.62527900  1
  Ca  Ca1  1  0.98788300  0.43089300  0.37472100  1
  Ca  Ca2  1  0.98788300  0.93089300  0.12527900  1
  Ca  Ca3  1  0.01211700  0.06910700  0.87472100  1
  Ca  Ca4  1  0.97175100  0.92789400  0.62443500  1
  Ca  Ca5  1  0.02824900  0.07210600  0.37556500  1
  Ca  Ca6  1  0.02824900  0.57210600  0.12443500  1
  Ca  Ca7  1  0.97175100  0.42789400  0.87556500  1
  H  H0  1  0.40293100  0.60685400  0.85273700  1
  H  H1  1  0.59706900  0.39314600  0.14726300  1
  H  H2  1  0.59706900  0.89314600  0.35273700  1
  H  H3  1  0.40293100  0.10685400  0.64726300  1
  H  H4  1  0.59273800  0.89434500  0.90025900  1
  H  H5  1  0.40726200  0.10565500  0.09974100  1
  H  H6  1  0.40726200  0.60565500  0.40025900  1
  H  H7  1  0.59273800  0.39434500  0.59974100  1
  C  C0  1  0.98667700  0.74806300  0.82207300  1
  C  C1  1  0.01332300  0.25193700  0.17792700  1
  C  C2  1  0.01332300  0.75193700  0.32207300  1
  C  C3  1  0.98667700  0.24806300  0.67792700  1
  C  C4  1  0.52849400  0.67924500  0.62453000  1
  C  C5  1  0.47150600  0.32075500  0.37547000  1
  C  C6  1  0.47150600  0.82075500  0.12453000  1
  C  C7  1  0.52849400  0.17924500  0.87547000  1
  C  C8  1  0.45342800  0.81931000  0.62445000  1
  C  C9  1  0.54657200  0.18069000  0.37555000  1
  C  C10  1  0.54657200  0.68069000  0.12445000  1
  C  C11  1  0.45342800  0.31931000  0.87555000  1
  C  C12  1  0.99633000  0.74949900  0.92751500  1
  C  C13  1  0.00367000  0.25050100  0.07248500  1
  C  C14  1  0.00367000  0.75050100  0.42751500  1
  C  C15  1  0.99633000  0.24949900  0.57248500  1
  O  O0  1  0.73418200  0.69269200  0.62394100  1
  O  O1  1  0.26581800  0.30730800  0.37605900  1
  O  O2  1  0.26581800  0.80730800  0.12394100  1
  O  O3  1  0.73418200  0.19269200  0.87605900  1
  O  O4  1  0.98576600  0.86179600  0.96627900  1
  O  O5  1  0.01423400  0.13820400  0.03372100  1
  O  O6  1  0.01423400  0.63820400  0.46627900  1
  O  O7  1  0.98576600  0.36179600  0.53372100  1
  O  O8  1  0.01440800  0.63806300  0.96575200  1
  O  O9  1  0.98559200  0.36193700  0.03424800  1
  O  O10  1  0.98559200  0.86193700  0.46575200  1
  O  O11  1  0.01440800  0.13806300  0.53424800  1
  O  O12  1  0.38379100  0.56641900  0.62502700  1
  O  O13  1  0.61620900  0.43358200  0.37497300  1
  O  O14  1  0.61620900  0.93358100  0.12502700  1
  O  O15  1  0.38379100  0.06641900  0.87497300  1
  O  O16  1  0.97026400  0.85956000  0.78362700  1
  O  O17  1  0.02973600  0.14044000  0.21637300  1
  O  O18  1  0.02973600  0.64044000  0.28362700  1
  O  O19  1  0.97026400  0.35956000  0.71637300  1
  O  O20  1  0.24777000  0.80551900  0.62715100  1
  O  O21  1  0.75223000  0.19448100  0.37284900  1
  O  O22  1  0.75223000  0.69448100  0.12715100  1
  O  O23  1  0.24777000  0.30551900  0.87284900  1
  O  O24  1  0.59794900  0.93221700  0.62178100  1
  O  O25  1  0.40205100  0.06778300  0.37821900  1
  O  O26  1  0.40205100  0.56778300  0.12178100  1
  O  O27  1  0.59794900  0.43221700  0.87821900  1
  O  O28  1  0.99720600  0.63529400  0.78372000  1
  O  O29  1  0.00279400  0.36470600  0.21628000  1
  O  O30  1  0.00279400  0.86470600  0.28372000  1
  O  O31  1  0.99720600  0.13529400  0.71628000  1
loop_
_geom_bond_atom_site_label_1
_geom_bond_atom_site_label_2
_geom_bond_distance
_geom_bond_site_symmetry_2
Ca0 O12 2.360583 1_555
Ca0 O0 2.378523 1_455
Ca0 O7 2.428075 1_455
Ca0 O19 2.430558 1_455
Ca0 O20 2.440311 1_555
Ca0 O28 2.445156 1_455
Ca0 O6 2.451988 1_555
Ca1 O13 2.360586 1_555
Ca1 O1 2.378523 1_655
Ca1 O6 2.428075 1_655
Ca1 O18 2.430558 1_655
Ca1 O21 2.440311 1_555
Ca1 O29 2.445156 1_655
Ca1 O7 2.451988 1_555
Ca2 O14 2.360583 1_555
Ca2 O2 2.378523 1_655
Ca2 O5 2.428075 1_665
Ca2 O17 2.430558 1_665
Ca2 O22 2.440311 1_555
Ca2 O30 2.445156 1_655
Ca2 O4 2.451988 1_554
Ca3 O15 2.360583 1_555
Ca3 O3 2.378523 1_455
Ca3 O4 2.428075 1_445
Ca3 O16 2.430558 1_445
Ca3 O23 2.440311 1_555
Ca3 O31 2.445156 1_455
Ca3 O5 2.451988 1_556
Ca4 O20 2.359921 1_655
Ca4 O24 2.378613 1_555
Ca4 O11 2.427689 1_665
Ca4 O31 2.431984 1_565
Ca4 O0 2.435139 1_555
Ca4 O10 2.447271 1_555
Ca4 O16 2.452899 1_555
Ca5 O21 2.359921 1_455
Ca5 O25 2.378613 1_555
Ca5 O10 2.427689 1_445
Ca5 O30 2.431984 1_545
Ca5 O1 2.435139 1_555
Ca5 O11 2.447271 1_555
Ca5 O17 2.452899 1_555
Ca6 O22 2.359921 1_455
Ca6 O26 2.378613 1_555
Ca6 O9 2.427689 1_455
Ca6 O29 2.431984 1_555
Ca6 O2 2.435139 1_555
Ca6 O8 2.447271 1_554
Ca6 O18 2.452899 1_555
Ca7 O23 2.359921 1_655
Ca7 O27 2.378613 1_555
Ca7 O8 2.427689 1_655
Ca7 O28 2.431984 1_555
Ca7 O3 2.435139 1_555
Ca7 O9 2.447271 1_556
Ca7 O19 2.452899 1_555
C0 O28 1.267337 1_555
C0 O16 1.267351 1_555
C1 O29 1.267337 1_555
C1 O17 1.267351 1_555
C2 O30 1.267337 1_555
C2 O18 1.267351 1_555
C3 O31 1.267337 1_555
C3 O19 1.267351 1_555
C4 O12 1.255285 1_555
C4 O0 1.276195 1_555
C5 O13 1.255292 1_555
C5 O1 1.276195 1_555
C6 O14 1.255285 1_555
C6 O2 1.276195 1_555
C7 O15 1.255285 1_555
C7 O3 1.276195 1_555
C8 O24 1.255865 1_555
C8 O20 1.276101 1_555
C9 O25 1.255865 1_555
C9 O21 1.276101 1_555
C10 O26 1.255865 1_555
C10 O22 1.276101 1_555
C11 O27 1.255865 1_555
C11 O23 1.276101 1_555
C12 O4 1.265987 1_555
C12 O8 1.268609 1_655
C13 O5 1.265987 1_555
C13 O9 1.268609 1_455
C14 O6 1.265987 1_555
C14 O10 1.268609 1_455
C15 O7 1.265987 1_555
C15 O11 1.268609 1_655
