# generated using pymatgen
data_Ba4Ta10FeO30
_symmetry_space_group_name_H-M   'P 1'
_cell_length_a   10.03342096
_cell_length_b   10.03342096
_cell_length_c   10.03342096
_cell_angle_alpha   133.49182416
_cell_angle_beta   117.80263198
_cell_angle_gamma   81.10185874
_symmetry_Int_Tables_number   1
_chemical_formula_structural   Ba4Ta10FeO30
_chemical_formula_sum   'Ba4 Ta10 Fe1 O30'
_cell_volume   626.02533740
_cell_formula_units_Z   1
loop_
 _symmetry_equiv_pos_site_id
 _symmetry_equiv_pos_as_xyz
  1  'x, y, z'
loop_
 _atom_site_type_symbol
 _atom_site_label
 _atom_site_symmetry_multiplicity
 _atom_site_fract_x
 _atom_site_fract_y
 _atom_site_fract_z
 _atom_site_occupancy
  Ba  Ba0  1  0.25628200  0.75628200  0.50000000  1
  Ba  Ba1  1  0.25417300  0.25417300  0.00000000  1
  Ba  Ba2  1  0.66480900  0.66480900  0.00000000  1
  Ba  Ba3  1  0.65508200  0.15508200  0.50000000  1
  Ta  Ta0  1  0.01457000  0.08278700  0.43720700  1
  Ta  Ta1  1  0.01457000  0.57736300  0.93178300  1
  Ta  Ta2  1  0.64558100  0.08278700  0.06821700  1
  Ta  Ta3  1  0.64558100  0.57736300  0.56279300  1
  Ta  Ta4  1  0.26584000  0.83263500  0.93248400  1
  Ta  Ta5  1  0.26584000  0.33335600  0.43320500  1
  Ta  Ta6  1  0.90015100  0.83263500  0.56679500  1
  Ta  Ta7  1  0.90015100  0.33335600  0.06751600  1
  Ta  Ta8  1  0.45877900  0.20844400  0.74966400  1
  Ta  Ta9  1  0.45877900  0.70911500  0.25033600  1
  Fe  Fe0  1  0.93858400  0.93858400  0.00000000  1
  O  O0  1  0.27924500  0.10256200  0.17668300  1
  O  O1  1  0.26341400  0.58436300  0.67905200  1
  O  O2  1  0.92587900  0.10256200  0.82331700  1
  O  O3  1  0.90531100  0.58436300  0.32094800  1
  O  O4  1  0.42368100  0.80439000  0.11938100  1
  O  O5  1  0.42368100  0.30430000  0.61929100  1
  O  O6  1  0.68500900  0.30430000  0.88061900  1
  O  O7  1  0.68500900  0.80439000  0.38070900  1
  O  O8  1  0.09536400  0.17611700  0.35097900  1
  O  O9  1  0.09536400  0.74438500  0.91924700  1
  O  O10  1  0.82513800  0.74438500  0.64902100  1
  O  O11  1  0.82513800  0.17611700  0.08075300  1
  O  O12  1  0.46291100  0.95112000  0.99278000  1
  O  O13  1  0.46291100  0.47013100  0.51179100  1
  O  O14  1  0.95834000  0.95112000  0.48820900  1
  O  O15  1  0.95834000  0.47013100  0.00722000  1
  O  O16  1  0.13067400  0.87602400  0.74535000  1
  O  O17  1  0.13067400  0.38532400  0.25465000  1
  O  O18  1  0.23335600  0.10503200  0.61000200  1
  O  O19  1  0.23335600  0.62335300  0.12832400  1
  O  O20  1  0.49502900  0.10503200  0.87167600  1
  O  O21  1  0.49502900  0.62335300  0.38999800  1
  O  O22  1  0.78906700  0.51704400  0.72797700  1
  O  O23  1  0.78906700  0.06109000  0.27202300  1
  O  O24  1  0.02372800  0.33605800  0.68767000  1
  O  O25  1  0.97665900  0.82717700  0.14948200  1
  O  O26  1  0.64838900  0.33605800  0.31233000  1
  O  O27  1  0.67769500  0.82717700  0.85051800  1
  O  O28  1  0.46257700  0.96257700  0.50000000  1
  O  O29  1  0.45599300  0.45599300  0.00000000  1
loop_
_geom_bond_atom_site_label_1
_geom_bond_atom_site_label_2
_geom_bond_distance
_geom_bond_site_symmetry_2
Ba0 O17 2.728796 1_555
Ba0 O16 2.728796 1_555
Ba0 O21 2.861271 1_555
Ba0 O19 2.861275 1_555
Ba0 O20 2.861275 1_565
Ba0 O18 2.861280 1_565
Ba1 O17 2.759721 1_555
Ba1 O16 2.759721 1_544
Ba1 O0 2.949136 1_555
Ba1 O2 2.949136 1_454
Ba1 O19 2.978041 1_555
Ba1 O20 2.978041 1_554
Ba1 O21 2.978042 1_555
Ba1 O18 2.978050 1_554
Ba1 O29 3.077221 1_555
Ba2 O22 2.869510 1_554
Ba2 O23 2.869510 1_565
Ba2 O25 2.920529 1_555
Ba2 O27 2.920529 1_554
Ba2 O7 2.931778 1_555
Ba2 O6 2.931778 1_554
Ba2 O4 2.931778 1_555
Ba2 O5 2.931778 1_554
Ba2 O29 3.183892 1_555
Ba2 O13 3.272680 1_554
Ba2 O14 3.272680 1_555
Ba2 O12 3.272680 1_554
Ba2 O15 3.272680 1_555
Ba3 O22 2.726856 1_555
Ba3 O23 2.726856 1_555
Ba3 O6 2.848666 1_555
Ba3 O5 2.848666 1_555
Ba3 O4 2.848666 1_545
Ba3 O7 2.848666 1_545
Ba3 O28 2.935192 1_545
Fe0 O9 2.234983 1_654
Fe0 O8 2.234983 1_665
Fe0 O10 2.234983 1_554
Fe0 O11 2.234983 1_565
Fe0 O25 2.299117 1_555
Fe0 O27 2.299117 1_554
O0 Ta5 2.006828 1_555
O0 Ta4 2.006828 1_544
O1 Ta4 1.978285 1_555
O1 Ta5 1.978293 1_555
O2 Ta6 2.006828 1_545
O2 Ta7 2.006828 1_556
O3 Ta7 1.978289 1_555
O3 Ta6 1.978289 1_555
O4 Ta4 1.981698 1_554
O4 Ta9 1.989315 1_555
O5 Ta5 1.981698 1_555
O5 Ta8 1.989306 1_555
O6 Ta7 1.981698 1_556
O6 Ta8 1.989313 1_555
O7 Ta6 1.981698 1_555
O7 Ta9 1.989315 1_555
O8 Ta5 1.955009 1_555
O8 Ta0 2.070454 1_555
O9 Ta4 1.955009 1_555
O9 Ta1 2.070454 1_555
O10 Ta6 1.955009 1_555
O10 Ta3 2.070446 1_555
O11 Ta7 1.955009 1_555
O11 Ta2 2.070444 1_555
O12 Ta2 1.938004 1_566
O12 Ta4 2.076119 1_555
O13 Ta3 1.938004 1_555
O13 Ta5 2.076119 1_555
O14 Ta0 1.937995 1_665
O14 Ta6 2.076119 1_555
O15 Ta1 1.937995 1_654
O15 Ta7 2.076119 1_555
O16 Ta4 2.030079 1_555
O16 Ta6 2.030079 1_455
O17 Ta7 2.030079 1_455
O17 Ta5 2.030079 1_555
O18 Ta8 1.980859 1_555
O18 Ta0 1.985709 1_555
O19 Ta9 1.980859 1_555
O19 Ta1 1.985712 1_554
O20 Ta8 1.980868 1_555
O20 Ta2 1.985715 1_556
O21 Ta9 1.980868 1_555
O21 Ta3 1.985708 1_555
O22 Ta3 2.017688 1_555
O22 Ta1 2.017690 1_655
O23 Ta2 2.017688 1_555
O23 Ta0 2.017690 1_655
O24 Ta1 1.961557 1_555
O24 Ta0 1.961557 1_555
O25 Ta0 2.035234 1_665
O25 Ta1 2.035234 1_654
O26 Ta2 1.961557 1_555
O26 Ta3 1.961557 1_555
O27 Ta2 2.035229 1_566
O27 Ta3 2.035237 1_555
O28 Ta9 1.978830 1_555
O28 Ta8 1.978834 1_565
O29 Ta8 1.983758 1_554
O29 Ta9 1.983761 1_555
