# generated using pymatgen
data_Dy4CoSn8
_symmetry_space_group_name_H-M   'P 1'
_cell_length_a   4.37825100
_cell_length_b   4.44953400
_cell_length_c   16.74207000
_cell_angle_alpha   90.00000000
_cell_angle_beta   90.00000000
_cell_angle_gamma   90.00000000
_symmetry_Int_Tables_number   1
_chemical_formula_structural   Dy4CoSn8
_chemical_formula_sum   'Dy4 Co1 Sn8'
_cell_volume   326.15522374
_cell_formula_units_Z   1
loop_
 _symmetry_equiv_pos_site_id
 _symmetry_equiv_pos_as_xyz
  1  'x, y, z'
loop_
 _atom_site_type_symbol
 _atom_site_label
 _atom_site_symmetry_multiplicity
 _atom_site_fract_x
 _atom_site_fract_y
 _atom_site_fract_z
 _atom_site_occupancy
  Dy  Dy0  1  0.25000000  0.00000000  0.09821800  1
  Dy  Dy1  1  0.25000000  0.50000000  0.60132400  1
  Dy  Dy2  1  0.75000000  0.50000000  0.39580000  1
  Dy  Dy3  1  0.75000000  0.00000000  0.89968200  1
  Co  Co0  1  0.25000000  0.00000000  0.30659600  1
  Sn  Sn0  1  0.25000000  0.00000000  0.45295800  1
  Sn  Sn1  1  0.25000000  0.50000000  0.93773200  1
  Sn  Sn2  1  0.75000000  0.50000000  0.06221500  1
  Sn  Sn3  1  0.75000000  0.00000000  0.57156100  1
  Sn  Sn4  1  0.25000000  0.50000000  0.23694600  1
  Sn  Sn5  1  0.25000000  0.00000000  0.74602300  1
  Sn  Sn6  1  0.75000000  0.00000000  0.23734700  1
  Sn  Sn7  1  0.75000000  0.50000000  0.75359900  1
loop_
_geom_bond_atom_site_label_1
_geom_bond_atom_site_label_2
_geom_bond_distance
_geom_bond_site_symmetry_2
Dy0 Sn2 3.178865 1_445
Dy0 Sn2 3.178865 1_545
Dy0 Sn2 3.178865 1_555
Dy0 Sn2 3.178865 1_455
Dy0 Sn6 3.196552 1_455
Dy0 Sn6 3.196552 1_555
Dy0 Sn4 3.216214 1_545
Dy0 Sn4 3.216214 1_555
Dy0 Sn1 3.488387 1_554
Dy0 Sn1 3.488387 1_544
Dy1 Sn3 3.160721 1_555
Dy1 Sn3 3.160721 1_455
Dy1 Sn3 3.160721 1_565
Dy1 Sn3 3.160721 1_465
Dy1 Sn5 3.289132 1_565
Dy1 Sn5 3.289132 1_555
Dy1 Sn0 3.334609 1_555
Dy1 Sn0 3.334609 1_565
Dy1 Sn7 3.360313 1_555
Dy1 Sn7 3.360313 1_455
Dy2 Sn0 3.264598 1_655
Dy2 Sn0 3.264598 1_665
Dy2 Sn0 3.264598 1_555
Dy2 Sn0 3.264598 1_565
Dy2 Sn4 3.444626 1_655
Dy2 Sn4 3.444626 1_555
Dy2 Sn6 3.462239 1_565
Dy2 Sn6 3.462239 1_555
Dy2 Sn3 3.688970 1_555
Dy2 Sn3 3.688970 1_565
Dy3 Sn1 3.185541 1_555
Dy3 Sn1 3.185541 1_655
Dy3 Sn1 3.185541 1_545
Dy3 Sn1 3.185541 1_645
Dy3 Sn7 3.306235 1_545
Dy3 Sn7 3.306235 1_555
Dy3 Sn5 3.377926 1_655
Dy3 Sn5 3.377926 1_555
Dy3 Sn2 3.514852 1_546
Dy3 Sn2 3.514852 1_556
Co0 Sn0 2.450403 1_555
Co0 Sn6 2.477178 1_555
Co0 Sn6 2.477178 1_455
Co0 Sn4 2.511841 1_555
Co0 Sn4 2.511841 1_545
Co0 Dy2 3.460098 1_555
Co0 Dy2 3.460098 1_545
Co0 Dy2 3.460098 1_455
Co0 Dy2 3.460098 1_445
Sn0 Sn3 2.955523 1_455
Sn0 Sn3 2.955523 1_555
Sn1 Sn2 3.022541 1_456
Sn1 Sn2 3.022541 1_556
Sn4 Sn6 3.121202 1_565
Sn4 Sn6 3.121202 1_555
Sn4 Sn6 3.121202 1_455
Sn4 Sn6 3.121202 1_465
Sn5 Sn7 3.123771 1_455
Sn5 Sn7 3.123771 1_555
Sn5 Sn7 3.123771 1_445
Sn5 Sn7 3.123771 1_545
