# generated using pymatgen
data_Li3NbV2O6
_symmetry_space_group_name_H-M   'P 1'
_cell_length_a   5.98410479
_cell_length_b   6.75554083
_cell_length_c   6.84181134
_cell_angle_alpha   82.59567821
_cell_angle_beta   115.62784510
_cell_angle_gamma   77.11008835
_symmetry_Int_Tables_number   1
_chemical_formula_structural   Li3NbV2O6
_chemical_formula_sum   'Li6 Nb2 V4 O12'
_cell_volume   234.96522807
_cell_formula_units_Z   2
loop_
 _symmetry_equiv_pos_site_id
 _symmetry_equiv_pos_as_xyz
  1  'x, y, z'
loop_
 _atom_site_type_symbol
 _atom_site_label
 _atom_site_symmetry_multiplicity
 _atom_site_fract_x
 _atom_site_fract_y
 _atom_site_fract_z
 _atom_site_occupancy
  Li  Li0  1  0.74994500  0.33325100  0.16665900  1
  Li  Li1  1  0.25013900  0.33354700  0.16669500  1
  Li  Li2  1  0.74675500  0.99638800  0.49095200  1
  Li  Li3  1  0.24405500  0.98901700  0.48325400  1
  Li  Li4  1  0.75356800  0.67030000  0.84245600  1
  Li  Li5  1  0.25543200  0.67763700  0.85016400  1
  Nb  Nb0  1  0.47358100  0.33194200  0.66650800  1
  Nb  Nb1  1  0.02633500  0.33476700  0.66679400  1
  V  V0  1  0.00254600  0.99702700  0.00822900  1
  V  V1  1  0.00053500  0.66200900  0.33400100  1
  V  V2  1  0.49957200  0.00461600  0.99953900  1
  V  V3  1  0.49790700  0.66965800  0.32509400  1
  O  O0  1  0.62823000  0.01155600  0.75364900  1
  O  O1  1  0.11818400  0.01223500  0.75877500  1
  O  O2  1  0.87240100  0.65495000  0.58009100  1
  O  O3  1  0.38199700  0.65430700  0.57399800  1
  O  O4  1  0.62233800  0.67640900  0.09398800  1
  O  O5  1  0.12460400  0.68082600  0.08793600  1
  O  O6  1  0.87755800  0.99010900  0.23984800  1
  O  O7  1  0.37436700  0.98597600  0.24504300  1
  O  O8  1  0.62943000  0.34758800  0.42852400  1
  O  O9  1  0.11833400  0.32692800  0.39882100  1
  O  O10  1  0.87050100  0.31917100  0.90459300  1
  O  O11  1  0.38169000  0.33978300  0.93438800  1
loop_
_geom_bond_atom_site_label_1
_geom_bond_atom_site_label_2
_geom_bond_distance
_geom_bond_site_symmetry_2
Li0 O11 2.071885 1_554
Li0 O9 2.072686 1_655
Li0 O6 2.188098 1_545
Li0 O4 2.188411 1_555
Li0 O8 2.206963 1_555
Li0 O10 2.208315 1_554
Li1 O9 2.056061 1_555
Li1 O11 2.056104 1_554
Li1 O5 2.212774 1_555
Li1 O7 2.214798 1_545
Li1 O8 2.234344 1_555
Li1 O10 2.237283 1_454
Li2 O7 2.158383 1_555
Li2 O2 2.173628 1_555
Li2 O6 2.175607 1_555
Li2 O0 2.204930 1_565
Li2 O1 2.223272 1_665
Li2 O8 2.245120 1_565
Li3 O7 2.089408 1_555
Li3 O6 2.100833 1_455
Li3 O3 2.131133 1_555
Li3 O9 2.151439 1_565
Li3 O0 2.297934 1_565
Li3 O1 2.323181 1_565
Li4 O5 2.151992 1_656
Li4 O0 2.172499 1_565
Li4 O4 2.180117 1_556
Li4 O2 2.204072 1_555
Li4 O3 2.225932 1_555
Li4 O10 2.244833 1_555
Li5 O5 2.088793 1_556
Li5 O4 2.103217 1_556
Li5 O1 2.130277 1_565
Li5 O11 2.151096 1_555
Li5 O2 2.292924 1_455
Li5 O3 2.330236 1_555
Nb0 O0 2.047658 1_555
Nb0 O3 2.062943 1_555
Nb0 O11 2.132632 1_555
Nb0 O9 2.134181 1_555
Nb0 O10 2.197253 1_555
Nb0 O8 2.201213 1_555
Nb1 O2 2.046137 1_455
Nb1 O1 2.063663 1_555
Nb1 O9 2.133654 1_555
Nb1 O11 2.134319 1_555
Nb1 O8 2.197426 1_455
Nb1 O10 2.199969 1_455
O0 V2 2.131058 1_555
O0 V0 2.131589 1_646
O1 V0 2.100110 1_546
O1 V2 2.144401 1_555
O2 V1 2.130131 1_655
O2 V3 2.132985 1_555
O3 V3 2.097685 1_555
O3 V1 2.142955 1_555
O4 V3 2.017846 1_555
O4 V2 2.089653 1_564
O4 V1 2.115114 1_655
O5 V0 2.013190 1_555
O5 V3 2.094388 1_555
O5 V1 2.114201 1_555
O6 V0 2.023528 1_655
O6 V1 2.088908 1_655
O6 V2 2.114613 1_564
O7 V3 2.013978 1_555
O7 V0 2.087488 1_555
O7 V2 2.115376 1_564
O8 V3 2.052192 1_555
O9 V1 2.139301 1_555
O10 V0 2.052712 1_646
O11 V2 2.139698 1_555
