# generated using pymatgen
data_CuAgF3
_symmetry_space_group_name_H-M   'P 1'
_cell_length_a   5.64557300
_cell_length_b   5.66193972
_cell_length_c   8.03958776
_cell_angle_alpha   89.46093088
_cell_angle_beta   89.74177006
_cell_angle_gamma   88.83931961
_symmetry_Int_Tables_number   1
_chemical_formula_structural   CuAgF3
_chemical_formula_sum   'Cu4 Ag4 F12'
_cell_volume   256.91807603
_cell_formula_units_Z   4
loop_
 _symmetry_equiv_pos_site_id
 _symmetry_equiv_pos_as_xyz
  1  'x, y, z'
loop_
 _atom_site_type_symbol
 _atom_site_label
 _atom_site_symmetry_multiplicity
 _atom_site_fract_x
 _atom_site_fract_y
 _atom_site_fract_z
 _atom_site_occupancy
  Cu  Cu0  1  0.00000000  0.50000000  0.00000000  1
  Cu  Cu1  1  0.50000000  0.00000000  0.00000000  1
  Cu  Cu2  1  0.00000000  0.50000000  0.50000000  1
  Cu  Cu3  1  0.50000000  0.00000000  0.50000000  1
  Ag  Ag0  1  0.47330600  0.50761400  0.74993600  1
  Ag  Ag1  1  0.52669400  0.49238600  0.25006400  1
  Ag  Ag2  1  0.97378900  0.99759700  0.75041000  1
  Ag  Ag3  1  0.02621100  0.00240300  0.24959000  1
  F  F0  1  0.71346800  0.71317600  0.96016300  1
  F  F1  1  0.28653200  0.28682400  0.03983700  1
  F  F2  1  0.79868900  0.22531600  0.03345200  1
  F  F3  1  0.20131100  0.77468400  0.96654800  1
  F  F4  1  0.71561000  0.71656700  0.54177700  1
  F  F5  1  0.28439000  0.28343300  0.45822300  1
  F  F6  1  0.77294800  0.20010000  0.46676000  1
  F  F7  1  0.22705200  0.79990000  0.53324000  1
  F  F8  1  0.01977300  0.42952900  0.73739900  1
  F  F9  1  0.98022700  0.57047100  0.26260100  1
  F  F10  1  0.50496600  0.07448800  0.76221800  1
  F  F11  1  0.49503400  0.92551200  0.23778200  1
loop_
_geom_bond_atom_site_label_1
_geom_bond_atom_site_label_2
_geom_bond_distance
_geom_bond_site_symmetry_2
Cu0 F3 1.960552 1_554
Cu0 F2 1.960552 1_455
Cu0 F0 2.023474 1_454
Cu0 F1 2.023474 1_555
Cu0 F9 2.154244 1_455
Cu0 F8 2.154244 1_554
Cu1 F11 1.953960 1_545
Cu1 F10 1.953960 1_554
Cu1 F1 2.029603 1_555
Cu1 F0 2.029603 1_544
Cu1 F2 2.154300 1_555
Cu1 F3 2.154300 1_544
Cu2 F8 1.949402 1_555
Cu2 F9 1.949402 1_455
Cu2 F4 2.029102 1_455
Cu2 F5 2.029102 1_555
Cu2 F7 2.167392 1_555
Cu2 F6 2.167392 1_455
Cu3 F6 1.947008 1_555
Cu3 F7 1.947008 1_545
Cu3 F5 2.020944 1_555
Cu3 F4 2.020944 1_545
Cu3 F10 2.154202 1_555
Cu3 F11 2.154202 1_545
Ag0 F10 2.456315 1_555
Ag0 F4 2.465617 1_555
Ag0 F0 2.484174 1_555
Ag0 F8 2.609707 1_555
Ag1 F11 2.456315 1_555
Ag1 F5 2.465617 1_555
Ag1 F1 2.484174 1_555
Ag1 F9 2.609707 1_555
Ag2 F8 2.465730 1_665
Ag2 F3 2.485056 1_655
Ag2 F7 2.509006 1_655
Ag2 F10 2.675031 1_565
Ag2 F0 2.760318 1_555
Ag2 F4 2.763326 1_555
Ag2 F6 2.778856 1_565
Ag2 F2 2.793021 1_566
Ag3 F9 2.465730 1_445
Ag3 F2 2.485056 1_455
Ag3 F6 2.509006 1_455
Ag3 F11 2.675031 1_545
Ag3 F1 2.760318 1_555
Ag3 F5 2.763326 1_555
Ag3 F7 2.778856 1_545
Ag3 F3 2.793021 1_544
