# generated using pymatgen
data_Tm5Re2C7
_symmetry_space_group_name_H-M   'P 1'
_cell_length_a   8.17948020
_cell_length_b   8.17948020
_cell_length_c   3.36156404
_cell_angle_alpha   90.00000000
_cell_angle_beta   90.00000000
_cell_angle_gamma   122.09043294
_symmetry_Int_Tables_number   1
_chemical_formula_structural   Tm5Re2C7
_chemical_formula_sum   'Tm5 Re2 C7'
_cell_volume   190.53914054
_cell_formula_units_Z   1
loop_
 _symmetry_equiv_pos_site_id
 _symmetry_equiv_pos_as_xyz
  1  'x, y, z'
loop_
 _atom_site_type_symbol
 _atom_site_label
 _atom_site_symmetry_multiplicity
 _atom_site_fract_x
 _atom_site_fract_y
 _atom_site_fract_z
 _atom_site_occupancy
  Tm  Tm0  1  0.50000000  0.50000000  -0.00000000  1
  Tm  Tm1  1  0.07676027  0.33604632  0.50000000  1
  Tm  Tm2  1  0.92323973  0.66395368  0.50000000  1
  Tm  Tm3  1  0.66395368  0.92323973  0.50000000  1
  Tm  Tm4  1  0.33604632  0.07676027  0.50000000  1
  Re  Re0  1  0.71538221  0.28461779  -0.00000000  1
  Re  Re1  1  0.28461779  0.71538221  -0.00000000  1
  C  C0  1  0.62394895  0.37605105  0.50000000  1
  C  C1  1  0.37605105  0.62394895  0.50000000  1
  C  C2  1  -0.00000000  -0.00000000  -0.00000000  1
  C  C3  1  0.17049401  0.17049401  -0.00000000  1
  C  C4  1  0.82950599  0.82950599  0.00000000  1
  C  C5  1  -0.00000000  0.50000000  -0.00000000  1
  C  C6  1  0.50000000  -0.00000000  -0.00000000  1
loop_
_geom_bond_atom_site_label_1
_geom_bond_atom_site_label_2
_geom_bond_distance
_geom_bond_site_symmetry_2
C0 Re0 2.130247 1_556
C0 Re0 2.130247 1_555
C0 Tm2 2.326622 1_555
C0 Tm4 2.326622 1_555
C0 Tm0 2.443949 1_555
C0 Tm0 2.443949 1_556
C1 Re1 2.130247 1_555
C1 Re1 2.130247 1_556
C1 Tm1 2.326622 1_555
C1 Tm3 2.326622 1_555
C1 Tm0 2.443949 1_555
C1 Tm0 2.443949 1_556
C2 C4 1.350259 1_445
C2 C3 1.350259 1_555
C3 Tm1 2.519846 1_555
C3 Tm4 2.519846 1_555
C3 Tm1 2.519846 1_554
C3 Tm4 2.519846 1_554
C3 Tm0 2.609584 1_555
C4 Tm3 2.519846 1_555
C4 Tm2 2.519846 1_554
C4 Tm2 2.519846 1_555
C4 Tm3 2.519846 1_554
C4 Tm0 2.609584 1_555
C5 Re0 2.040988 1_455
C5 Re1 2.040988 1_555
C5 Tm1 2.431522 1_555
C5 Tm2 2.431522 1_454
C5 Tm1 2.431522 1_554
C5 Tm2 2.431522 1_455
C6 Re1 2.040988 1_545
C6 Re0 2.040988 1_555
C6 Tm4 2.431522 1_555
C6 Tm3 2.431522 1_544
C6 Tm4 2.431522 1_554
C6 Tm3 2.431522 1_545
