# generated using pymatgen
data_SrGdCuSe3
_symmetry_space_group_name_H-M   'P 1'
_cell_length_a   4.14052200
_cell_length_b   10.77981100
_cell_length_c   13.60802900
_cell_angle_alpha   90.00000000
_cell_angle_beta   90.00000000
_cell_angle_gamma   90.00000000
_symmetry_Int_Tables_number   1
_chemical_formula_structural   SrGdCuSe3
_chemical_formula_sum   'Sr4 Gd4 Cu4 Se12'
_cell_volume   607.38137332
_cell_formula_units_Z   4
loop_
 _symmetry_equiv_pos_site_id
 _symmetry_equiv_pos_as_xyz
  1  'x, y, z'
loop_
 _atom_site_type_symbol
 _atom_site_label
 _atom_site_symmetry_multiplicity
 _atom_site_fract_x
 _atom_site_fract_y
 _atom_site_fract_z
 _atom_site_occupancy
  Sr  Sr0  1  0.25000000  0.26916700  0.99951100  1
  Sr  Sr1  1  0.25000000  0.76916700  0.50048900  1
  Sr  Sr2  1  0.75000000  0.73083300  0.00048900  1
  Sr  Sr3  1  0.75000000  0.23083300  0.49951100  1
  Gd  Gd0  1  0.25000000  0.01256800  0.75603600  1
  Gd  Gd1  1  0.25000000  0.51256800  0.74396400  1
  Gd  Gd2  1  0.75000000  0.98743200  0.24396400  1
  Gd  Gd3  1  0.75000000  0.48743200  0.25603600  1
  Cu  Cu0  1  0.25000000  0.23997200  0.27840200  1
  Cu  Cu1  1  0.25000000  0.73997200  0.22159800  1
  Cu  Cu2  1  0.75000000  0.76002800  0.72159800  1
  Cu  Cu3  1  0.75000000  0.26002800  0.77840200  1
  Se  Se0  1  0.25000000  0.25977200  0.67103400  1
  Se  Se1  1  0.25000000  0.75977200  0.82896600  1
  Se  Se2  1  0.75000000  0.74022800  0.32896600  1
  Se  Se3  1  0.75000000  0.24022800  0.17103400  1
  Se  Se4  1  0.25000000  0.05395200  0.38634800  1
  Se  Se5  1  0.25000000  0.55395200  0.11365200  1
  Se  Se6  1  0.75000000  0.94604800  0.61365200  1
  Se  Se7  1  0.75000000  0.44604800  0.88634800  1
  Se  Se8  1  0.25000000  0.41639900  0.39390400  1
  Se  Se9  1  0.25000000  0.91639900  0.10609600  1
  Se  Se10  1  0.75000000  0.58360100  0.60609600  1
  Se  Se11  1  0.75000000  0.08360100  0.89390400  1
loop_
_geom_bond_atom_site_label_1
_geom_bond_atom_site_label_2
_geom_bond_distance
_geom_bond_site_symmetry_2
Gd0 Se11 2.896913 1_455
Gd0 Se11 2.896913 1_555
Gd0 Se1 2.900182 1_545
Gd0 Se0 2.905031 1_555
Gd0 Se6 2.924779 1_445
Gd0 Se6 2.924779 1_545
Gd1 Se10 2.896913 1_455
Gd1 Se10 2.896913 1_555
Gd1 Se0 2.900182 1_555
Gd1 Se1 2.905031 1_555
Gd1 Se7 2.924779 1_555
Gd1 Se7 2.924779 1_455
Gd2 Se9 2.896913 1_555
Gd2 Se9 2.896913 1_655
Gd2 Se3 2.900182 1_565
Gd2 Se2 2.905031 1_555
Gd2 Se4 2.924779 1_565
Gd2 Se4 2.924779 1_665
Gd3 Se8 2.896913 1_555
Gd3 Se8 2.896913 1_655
Gd3 Se2 2.900182 1_555
Gd3 Se3 2.905031 1_555
Gd3 Se5 2.924779 1_655
Gd3 Se5 2.924779 1_555
Cu0 Se8 2.467275 1_555
Cu0 Se4 2.485726 1_555
Cu0 Se3 2.533911 1_455
Cu0 Se3 2.533911 1_555
Cu1 Se9 2.467275 1_555
Cu1 Se5 2.485726 1_555
Cu1 Se2 2.533911 1_555
Cu1 Se2 2.533911 1_455
Cu2 Se10 2.467275 1_555
Cu2 Se6 2.485726 1_555
Cu2 Se1 2.533911 1_655
Cu2 Se1 2.533911 1_555
Cu3 Se11 2.467275 1_555
Cu3 Se7 2.485726 1_555
Cu3 Se0 2.533911 1_555
Cu3 Se0 2.533911 1_655
Se0 Sr3 3.135486 1_555
Se0 Sr3 3.135486 1_455
Se1 Sr2 3.135486 1_556
Se1 Sr2 3.135486 1_456
Se2 Sr1 3.135486 1_655
Se2 Sr1 3.135486 1_555
Se3 Sr0 3.135486 1_554
Se3 Sr0 3.135486 1_654
Se4 Sr3 3.208274 1_555
Se4 Sr3 3.208274 1_455
Se4 Sr1 3.440494 1_545
Se5 Sr2 3.208274 1_455
Se5 Sr2 3.208274 1_555
Se5 Sr0 3.440494 1_554
Se6 Sr1 3.208274 1_655
Se6 Sr1 3.208274 1_555
Se6 Sr3 3.440494 1_565
Se7 Sr0 3.208274 1_655
Se7 Sr0 3.208274 1_555
Se7 Sr2 3.440494 1_556
Se8 Sr3 3.217563 1_555
Se8 Sr3 3.217563 1_455
Se9 Sr2 3.217563 1_555
Se9 Sr2 3.217563 1_455
Se10 Sr1 3.217563 1_655
Se10 Sr1 3.217563 1_555
Se11 Sr0 3.217563 1_655
Se11 Sr0 3.217563 1_555
