# generated using pymatgen
data_LiNd(FeO3)4
_symmetry_space_group_name_H-M   'P 1'
_cell_length_a   5.37491536
_cell_length_b   5.37491536
_cell_length_c   7.70102953
_cell_angle_alpha   90.00000000
_cell_angle_beta   90.00000000
_cell_angle_gamma   90.00000000
_symmetry_Int_Tables_number   1
_chemical_formula_structural   LiNd(FeO3)4
_chemical_formula_sum   'Li1 Nd1 Fe4 O12'
_cell_volume   222.48054931
_cell_formula_units_Z   1
loop_
 _symmetry_equiv_pos_site_id
 _symmetry_equiv_pos_as_xyz
  1  'x, y, z'
loop_
 _atom_site_type_symbol
 _atom_site_label
 _atom_site_symmetry_multiplicity
 _atom_site_fract_x
 _atom_site_fract_y
 _atom_site_fract_z
 _atom_site_occupancy
  Li  Li0  1  0.50000000  0.50000000  0.00000000  1
  Nd  Nd0  1  0.00000000  -0.00000000  0.50000000  1
  Fe  Fe0  1  0.00000000  0.50000000  0.75652782  1
  Fe  Fe1  1  0.00000000  0.50000000  0.24347218  1
  Fe  Fe2  1  0.50000000  -0.00000000  0.24347218  1
  Fe  Fe3  1  0.50000000  0.00000000  0.75652782  1
  O  O0  1  0.24233572  0.24233572  0.25886071  1
  O  O1  1  0.24233572  0.24233572  0.74113929  1
  O  O2  1  0.75766428  0.75766428  0.74113929  1
  O  O3  1  0.75766428  0.75766428  0.25886071  1
  O  O4  1  0.75766428  0.24233572  0.74113929  1
  O  O5  1  0.75766428  0.24233572  0.25886071  1
  O  O6  1  0.24233572  0.75766428  0.74113929  1
  O  O7  1  0.24233572  0.75766428  0.25886071  1
  O  O8  1  0.00000000  0.50000000  0.50000000  1
  O  O9  1  0.00000000  0.50000000  0.00000000  1
  O  O10  1  0.50000000  -0.00000000  0.50000000  1
  O  O11  1  0.50000000  0.00000000  0.00000000  1
loop_
_geom_bond_atom_site_label_1
_geom_bond_atom_site_label_2
_geom_bond_distance
_geom_bond_site_symmetry_2
Li0 O9 2.687458 1_555
Li0 O11 2.687458 1_555
Li0 O9 2.687458 1_655
Li0 O11 2.687458 1_565
Nd0 O0 2.615667 1_555
Nd0 O1 2.615667 1_555
Nd0 O4 2.615667 1_455
Nd0 O3 2.615667 1_445
Nd0 O6 2.615667 1_545
Nd0 O5 2.615667 1_455
Nd0 O7 2.615667 1_545
Nd0 O2 2.615667 1_445
Nd0 O8 2.687458 1_545
Nd0 O8 2.687458 1_555
Nd0 O10 2.687458 1_555
Nd0 O10 2.687458 1_455
Fe0 O9 1.874986 1_556
Fe0 O1 1.904902 1_555
Fe0 O6 1.904902 1_555
Fe0 O2 1.904902 1_455
Fe0 O4 1.904902 1_455
Fe0 O8 1.975528 1_555
Fe1 O9 1.874986 1_555
Fe1 O7 1.904902 1_555
Fe1 O0 1.904902 1_555
Fe1 O5 1.904902 1_455
Fe1 O3 1.904902 1_455
Fe1 O8 1.975528 1_555
Fe2 O11 1.874986 1_555
Fe2 O0 1.904902 1_555
Fe2 O5 1.904902 1_555
Fe2 O3 1.904902 1_545
Fe2 O7 1.904902 1_545
Fe2 O10 1.975528 1_555
Fe3 O11 1.874986 1_556
Fe3 O1 1.904902 1_555
Fe3 O4 1.904902 1_555
Fe3 O6 1.904902 1_545
Fe3 O2 1.904902 1_545
Fe3 O10 1.975528 1_555
