# generated using pymatgen
data_DyGaCo4
_symmetry_space_group_name_H-M   'P 1'
_cell_length_a   4.98480202
_cell_length_b   4.98480202
_cell_length_c   4.01286900
_cell_angle_alpha   90.00000000
_cell_angle_beta   90.00000000
_cell_angle_gamma   121.20691374
_symmetry_Int_Tables_number   1
_chemical_formula_structural   DyGaCo4
_chemical_formula_sum   'Dy1 Ga1 Co4'
_cell_volume   85.28451211
_cell_formula_units_Z   1
loop_
 _symmetry_equiv_pos_site_id
 _symmetry_equiv_pos_as_xyz
  1  'x, y, z'
loop_
 _atom_site_type_symbol
 _atom_site_label
 _atom_site_symmetry_multiplicity
 _atom_site_fract_x
 _atom_site_fract_y
 _atom_site_fract_z
 _atom_site_occupancy
  Dy  Dy0  1  0.50000000  0.50000000  0.00000000  1
  Ga  Ga0  1  0.00000000  0.00000000  0.50000000  1
  Co  Co0  1  0.18396800  0.81603200  0.00000000  1
  Co  Co1  1  0.81603200  0.18396800  0.00000000  1
  Co  Co2  1  0.00000000  0.50000000  0.50000000  1
  Co  Co3  1  0.50000000  0.00000000  0.50000000  1
loop_
_geom_bond_atom_site_label_1
_geom_bond_atom_site_label_2
_geom_bond_distance
_geom_bond_site_symmetry_2
Dy0 Ga0 3.164268 1_554
Dy0 Ga0 3.164268 1_664
Dy0 Ga0 3.164268 1_555
Dy0 Ga0 3.164268 1_665
Co0 Co2 2.418976 1_554
Co0 Co3 2.418976 1_565
Co0 Co3 2.418976 1_564
Co0 Co2 2.418976 1_555
Co0 Ga0 2.564992 1_565
Co0 Ga0 2.564992 1_564
Co0 Co1 2.702342 1_565
Co0 Co1 2.702342 1_455
Co0 Dy0 2.745039 1_555
Co0 Dy0 2.922364 1_565
Co0 Dy0 2.922364 1_455
Co1 Co3 2.418976 1_554
Co1 Co2 2.418976 1_655
Co1 Co3 2.418976 1_555
Co1 Co2 2.418976 1_654
Co1 Ga0 2.564992 1_654
Co1 Ga0 2.564992 1_655
Co1 Dy0 2.745039 1_555
Co1 Dy0 2.922364 1_655
Co1 Dy0 2.922364 1_545
Co2 Co3 2.446796 1_455
Co2 Co3 2.446796 1_565
Co2 Ga0 2.492401 1_555
Co2 Ga0 2.492401 1_565
Co2 Dy0 3.199663 1_555
Co2 Dy0 3.199663 1_456
Co2 Dy0 3.199663 1_556
Co2 Dy0 3.199663 1_455
Co3 Ga0 2.492401 1_555
Co3 Ga0 2.492401 1_655
Co3 Dy0 3.199663 1_555
Co3 Dy0 3.199663 1_545
Co3 Dy0 3.199663 1_546
Co3 Dy0 3.199663 1_556
