# generated using pymatgen
data_UGa3Ni
_symmetry_space_group_name_H-M   'P 1'
_cell_length_a   5.90200104
_cell_length_b   5.90200104
_cell_length_c   5.90200104
_cell_angle_alpha   138.68792662
_cell_angle_beta   138.68792662
_cell_angle_gamma   59.85102376
_symmetry_Int_Tables_number   1
_chemical_formula_structural   UGa3Ni
_chemical_formula_sum   'U1 Ga3 Ni1'
_cell_volume   88.68806150
_cell_formula_units_Z   1
loop_
 _symmetry_equiv_pos_site_id
 _symmetry_equiv_pos_as_xyz
  1  'x, y, z'
loop_
 _atom_site_type_symbol
 _atom_site_label
 _atom_site_symmetry_multiplicity
 _atom_site_fract_x
 _atom_site_fract_y
 _atom_site_fract_z
 _atom_site_occupancy
  U  U0  1  0.99429500  0.99429500  0.00000000  1
  Ga  Ga0  1  0.40963200  0.40963200  0.00000000  1
  Ga  Ga1  1  0.24610400  0.74610400  0.50000000  1
  Ga  Ga2  1  0.74610400  0.24610400  0.50000000  1
  Ni  Ni0  1  0.63386600  0.63386600  0.00000000  1
loop_
_geom_bond_atom_site_label_1
_geom_bond_atom_site_label_2
_geom_bond_distance
_geom_bond_site_symmetry_2
Ga0 Ni0 2.293965 1_555
Ga0 Ga1 2.670824 1_544
Ga0 Ga1 2.670824 1_555
Ga0 Ga2 2.670824 1_454
Ga0 Ga2 2.670824 1_555
Ga0 U0 3.069101 1_455
Ga0 U0 3.069101 1_556
Ga0 U0 3.069101 1_444
Ga0 U0 3.069101 1_545
Ga1 Ni0 2.377608 1_455
Ga1 Ni0 2.377608 1_556
Ga1 U0 3.283502 1_455
Ga1 U0 3.283502 1_556
Ga1 U0 3.312207 1_445
Ga1 U0 3.312207 1_456
Ga2 Ni0 2.377608 1_556
Ga2 Ni0 2.377608 1_545
Ga2 U0 3.283502 1_556
Ga2 U0 3.283502 1_545
Ga2 U0 3.312207 1_445
Ga2 U0 3.312207 1_546
Ni0 U0 3.272301 1_455
Ni0 U0 3.272301 1_556
Ni0 U0 3.272301 1_444
Ni0 U0 3.272301 1_545
