# generated using pymatgen
data_Na3V5H26O27
_symmetry_space_group_name_H-M   'P 1'
_cell_length_a   9.71333300
_cell_length_b   11.82810377
_cell_length_c   12.02832707
_cell_angle_alpha   92.19744875
_cell_angle_beta   113.72683891
_cell_angle_gamma   100.04929141
_symmetry_Int_Tables_number   1
_chemical_formula_structural   Na3V5H26O27
_chemical_formula_sum   'Na6 V10 H52 O54'
_cell_volume   1236.65313050
_cell_formula_units_Z   2
loop_
 _symmetry_equiv_pos_site_id
 _symmetry_equiv_pos_as_xyz
  1  'x, y, z'
loop_
 _atom_site_type_symbol
 _atom_site_label
 _atom_site_symmetry_multiplicity
 _atom_site_fract_x
 _atom_site_fract_y
 _atom_site_fract_z
 _atom_site_occupancy
  Na  Na0  1  0.31801000  0.79492600  0.04057700  1
  Na  Na1  1  0.68199000  0.20507400  0.95942300  1
  Na  Na2  1  0.98999000  0.06767700  0.63012200  1
  Na  Na3  1  0.01001000  0.93232300  0.36987800  1
  Na  Na4  1  0.79331000  0.48157900  0.09329100  1
  Na  Na5  1  0.20669000  0.51842100  0.90670900  1
  V  V0  1  0.67072900  0.50081600  0.50252300  1
  V  V1  1  0.32927100  0.49918400  0.49747700  1
  V  V2  1  0.63350700  0.56916500  0.74887500  1
  V  V3  1  0.36649300  0.43083500  0.25112500  1
  V  V4  1  0.47886300  0.68868500  0.37247900  1
  V  V5  1  0.52113700  0.31131500  0.62752100  1
  V  V6  1  0.77668000  0.75851200  0.62356200  1
  V  V7  1  0.22332000  0.24148800  0.37643800  1
  V  V8  1  0.45079100  0.75726100  0.61871200  1
  V  V9  1  0.54920900  0.24273900  0.38128800  1
  H  H0  1  0.01133500  0.34005600  0.09869200  1
  H  H1  1  0.98866500  0.65994400  0.90130800  1
  H  H2  1  0.94528600  0.35934800  0.95909200  1
  H  H3  1  0.05471400  0.64065200  0.04090800  1
  H  H4  1  0.53457600  0.32587200  0.10316600  1
  H  H5  1  0.46542400  0.67412800  0.89683400  1
  H  H6  1  0.47925700  0.35777100  0.96761800  1
  H  H7  1  0.52074300  0.64222900  0.03238200  1
  H  H8  1  0.81266300  0.39630900  0.33324900  1
  H  H9  1  0.18733700  0.60369100  0.66675100  1
  H  H10  1  0.97097300  0.39164600  0.33022600  1
  H  H11  1  0.02902700  0.60835400  0.66977400  1
  H  H12  1  0.64410900  0.59413600  0.22738000  1
  H  H13  1  0.35589100  0.40586400  0.77262000  1
  H  H14  1  0.73118500  0.69916100  0.18527500  1
  H  H15  1  0.26881500  0.30083900  0.81472500  1
  H  H16  1  0.12545100  0.59243200  0.23919200  1
  H  H17  1  0.87454900  0.40756800  0.76080800  1
  H  H18  1  0.01588900  0.67120200  0.24616500  1
  H  H19  1  0.98411100  0.32879800  0.75383500  1
  H  H20  1  0.24735700  0.96140900  0.61485300  1
  H  H21  1  0.75264300  0.03859100  0.38514700  1
  H  H22  1  0.24796800  0.08763900  0.57488900  1
  H  H23  1  0.75203200  0.91236100  0.42511100  1
  H  H24  1  0.13598700  0.87317800  0.80124500  1
  H  H25  1  0.86401300  0.12682200  0.19875500  1
  H  H26  1  0.21833400  0.77468200  0.79627900  1
  H  H27  1  0.78166600  0.22531800  0.20372100  1
  H  H28  1  0.19666300  0.14980700  0.90191500  1
  H  H29  1  0.80333700  0.85019300  0.09808500  1
  H  H30  1  0.29342600  0.11696500  0.83050000  1
  H  H31  1  0.70657400  0.88303500  0.16950000  1
  H  H32  1  0.70838300  0.99391700  0.64989900  1
  H  H33  1  0.29161700  0.00608300  0.35010100  1
  H  H34  1  0.70610500  0.12614600  0.62512500  1
  H  H35  1  0.29389500  0.87385400  0.37487500  1
  H  H36  1  0.89678400  0.29323200  0.53558400  1
  H  H37  1  0.10321600  0.70676800  0.46441600  1
  H  H38  1  0.07003400  0.30533300  0.56648300  1
  H  H39  1  0.92996600  0.69466700  0.43351700  1
  H  H40  1  0.18481000  0.91580900  0.17447000  1
  H  H41  1  0.81519000  0.08419100  0.82553000  1
  H  H42  1  0.05733900  0.88839700  0.03850400  1
  H  H43  1  0.94266100  0.11160300  0.96149600  1
  H  H44  1  0.60171000  0.03300600  0.12592000  1
  H  H45  1  0.39829000  0.96699400  0.87408000  1
  H  H46  1  0.48631000  0.98790000  0.17987100  1
  H  H47  1  0.51369000  0.01210000  0.82012900  1
  H  H48  1  0.19730500  0.19685700  0.10489000  1
  H  H49  1  0.80269500  0.80314300  0.89511000  1
  H  H50  1  0.17116400  0.06273300  0.06190900  1
  H  H51  1  0.82883600  0.93726700  0.93809100  1
  O  O0  1  0.69153600  0.52745900  0.88527100  1
  O  O1  1  0.30846400  0.47254100  0.11472900  1
  O  O2  1  0.42158500  0.73214200  0.23687100  1
  O  O3  1  0.57841500  0.26785800  0.76312900  1
  O  O4  1  0.93728500  0.85564000  0.66955000  1
  O  O5  1  0.06271500  0.14436000  0.33045000  1
  O  O6  1  0.56432500  0.55080400  0.34377900  1
  O  O7  1  0.43567500  0.44919600  0.65622100  1
  O  O8  1  0.69530500  0.45098600  0.65939600  1
  O  O9  1  0.30469500  0.54901400  0.34060400  1
  O  O10  1  0.67605700  0.77432000  0.45584200  1
  O  O11  1  0.32394300  0.22568000  0.54415800  1
  O  O12  1  0.39445300  0.77264500  0.45098200  1
  O  O13  1  0.60554700  0.22735500  0.54901800  1
  O  O14  1  0.52071500  0.67639700  0.75637300  1
  O  O15  1  0.47928500  0.32360300  0.24362700  1
  O  O16  1  0.80228400  0.67871700  0.76126800  1
  O  O17  1  0.19771600  0.32128300  0.23873200  1
  O  O18  1  0.82856200  0.61689400  0.55789600  1
  O  O19  1  0.17143800  0.38310600  0.44210400  1
  O  O20  1  0.64777200  0.83896800  0.65734200  1
  O  O21  1  0.35222800  0.16103200  0.34265800  1
  O  O22  1  0.54694100  0.60802400  0.55043900  1
  O  O23  1  0.45305900  0.39197600  0.44956100  1
  O  O24  1  0.27236600  0.61420300  0.55063200  1
  O  O25  1  0.72763400  0.38579700  0.44936800  1
  O  O26  1  0.36781800  0.85122700  0.65700600  1
  O  O27  1  0.63218200  0.14877300  0.34299400  1
  O  O28  1  0.91862400  0.35153000  0.02982300  1
  O  O29  1  0.08137600  0.64847000  0.97017700  1
  O  O30  1  0.56563100  0.33442600  0.03514300  1
  O  O31  1  0.43436900  0.66557400  0.96485700  1
  O  O32  1  0.86086500  0.38338200  0.27716200  1
  O  O33  1  0.13913500  0.61661800  0.72283800  1
  O  O34  1  0.67980300  0.61592100  0.16365700  1
  O  O35  1  0.32019700  0.38407900  0.83634300  1
  O  O36  1  0.03309700  0.62123800  0.18788700  1
  O  O37  1  0.96690300  0.37876200  0.81211300  1
  O  O38  1  0.18031400  0.01518400  0.57634100  1
  O  O39  1  0.81968600  0.98481600  0.42365900  1
  O  O40  1  0.23412800  0.84940200  0.84423500  1
  O  O41  1  0.76587200  0.15059800  0.15576500  1
  O  O42  1  0.20386400  0.15050300  0.82170900  1
  O  O43  1  0.79613600  0.84949700  0.17829100  1
  O  O44  1  0.77125100  0.07329800  0.67282800  1
  O  O45  1  0.22874900  0.92670200  0.32717200  1
  O  O46  1  0.98981400  0.26906700  0.59104600  1
  O  O47  1  0.01018600  0.73093300  0.40895400  1
  O  O48  1  0.16837400  0.92181100  0.08744000  1
  O  O49  1  0.83162600  0.07818900  0.91256000  1
  O  O50  1  0.53239500  0.96135600  0.12796500  1
  O  O51  1  0.46760500  0.03864400  0.87203500  1
  O  O52  1  0.15177900  0.13938900  0.03227100  1
  O  O53  1  0.84822100  0.86061100  0.96772900  1
loop_
_geom_bond_atom_site_label_1
_geom_bond_atom_site_label_2
_geom_bond_distance
_geom_bond_site_symmetry_2
Na0 O40 2.325488 1_554
Na0 O2 2.371068 1_555
Na0 O31 2.402679 1_554
Na0 O29 2.435699 1_554
Na0 O50 2.442465 1_555
Na0 O48 2.457327 1_555
Na1 O41 2.325488 1_556
Na1 O3 2.371068 1_555
Na1 O30 2.402679 1_556
Na1 O28 2.435699 1_556
Na1 O51 2.442465 1_555
Na1 O49 2.457327 1_555
Na2 O38 2.356648 1_655
Na2 O44 2.389052 1_555
Na2 O39 2.409532 1_545
Na2 O42 2.418679 1_655
Na2 O46 2.445766 1_555
Na2 O4 2.572072 1_545
Na3 O39 2.356648 1_455
Na3 O45 2.389052 1_555
Na3 O38 2.409532 1_565
Na3 O43 2.418679 1_455
Na3 O47 2.445766 1_555
Na3 O5 2.572072 1_565
Na4 O34 2.390845 1_555
Na4 O30 2.393327 1_555
Na4 O28 2.396199 1_555
Na4 O36 2.414267 1_655
Na4 O0 2.415202 1_554
Na4 O32 2.442568 1_555
Na5 O35 2.390845 1_555
Na5 O31 2.393327 1_555
Na5 O29 2.396199 1_555
Na5 O37 2.414267 1_455
Na5 O1 2.415202 1_556
Na5 O33 2.442568 1_555
H0 O28 0.983123 1_455
H1 O29 0.983123 1_655
H2 O28 0.987131 1_556
H3 O29 0.987131 1_554
H4 O30 0.982345 1_555
H5 O31 0.982345 1_555
H6 O30 0.994730 1_556
H7 O31 0.994730 1_554
H8 O32 0.984372 1_555
H9 O33 0.984372 1_555
H10 O32 0.984978 1_555
H11 O33 0.984978 1_555
H12 O34 0.985861 1_555
H13 O35 0.985861 1_555
H14 O34 0.995251 1_555
H15 O35 0.995251 1_555
H16 O36 0.989411 1_555
H17 O37 0.989411 1_555
H18 O36 0.982636 1_555
H19 O37 0.982636 1_555
H20 O38 0.983674 1_565
H21 O39 0.983674 1_545
H22 O38 0.990174 1_555
H23 O39 0.990174 1_555
H24 O40 0.981444 1_555
H25 O41 0.981444 1_555
H26 O40 0.989816 1_555
H27 O41 0.989816 1_555
H28 O42 0.995190 1_555
H29 O43 0.995190 1_555
H30 O42 0.987408 1_555
H31 O43 0.987408 1_555
H32 O44 0.987451 1_565
H33 O45 0.987451 1_545
H34 O44 0.996867 1_555
H34 O13 1.731381 1_555
H35 O45 0.996867 1_555
H35 O12 1.731381 1_555
H36 O46 0.981286 1_555
H37 O47 0.981286 1_555
H38 O46 0.978158 1_455
H39 O47 0.978158 1_655
H40 O48 1.000766 1_555
H41 O49 1.000766 1_555
H42 O48 0.994179 1_555
H43 O49 0.994179 1_555
H44 O50 0.993949 1_545
H45 O51 0.993949 1_565
H46 O50 0.973492 1_555
H47 O51 0.973492 1_555
H48 O52 0.979432 1_555
H49 O53 0.979432 1_555
H50 O52 1.007466 1_555
H51 O53 1.007466 1_555
O0 V2 1.633275 1_555
O1 V3 1.633275 1_555
O2 V4 1.633445 1_555
O3 V5 1.633445 1_555
O4 V6 1.640367 1_555
O5 V7 1.640367 1_555
O6 V0 1.943036 1_555
O6 V4 2.031730 1_555
O6 V3 2.037613 1_555
O7 V1 1.943036 1_555
O7 V5 2.031730 1_555
O7 V2 2.037613 1_555
O8 V0 1.933064 1_555
O8 V2 2.042060 1_555
O8 V5 2.047520 1_555
O9 V1 1.933064 1_555
O9 V3 2.042060 1_555
O9 V4 2.047520 1_555
O10 V4 1.843804 1_555
O10 V6 1.888393 1_555
O11 V5 1.843804 1_555
O11 V7 1.888393 1_555
O12 V4 1.839940 1_555
O12 V8 1.891387 1_555
O13 V5 1.839940 1_555
O13 V9 1.891387 1_555
O14 V2 1.836534 1_555
O14 V8 1.887069 1_555
O15 V3 1.836534 1_555
O15 V9 1.887069 1_555
O16 V2 1.853658 1_555
O16 V6 1.888523 1_555
O17 V3 1.853658 1_555
O17 V7 1.888523 1_555
O18 V0 1.747167 1_555
O18 V6 2.048698 1_555
O19 V1 1.747167 1_555
O19 V7 2.048698 1_555
O20 V8 1.848123 1_555
O20 V6 1.853148 1_555
O21 V9 1.848123 1_555
O21 V7 1.853148 1_555
O22 V0 2.102304 1_555
O22 V1 2.106345 1_555
O22 V4 2.273146 1_555
O22 V2 2.284564 1_555
O22 V8 2.396645 1_555
O22 V6 2.415758 1_555
O23 V1 2.102304 1_555
O23 V0 2.106345 1_555
O23 V5 2.273146 1_555
O23 V3 2.284564 1_555
O23 V9 2.396645 1_555
O23 V7 2.415758 1_555
O24 V1 1.745073 1_555
O24 V8 2.065336 1_555
O25 V0 1.745073 1_555
O25 V9 2.065336 1_555
O26 V8 1.633740 1_555
O27 V9 1.633740 1_555
