# generated using pymatgen
data_Ba3Y5(CoO5)3
_symmetry_space_group_name_H-M   'P 1'
_cell_length_a   12.01964200
_cell_length_b   7.15005300
_cell_length_c   18.60790855
_cell_angle_alpha   67.41738280
_cell_angle_beta   90.00000000
_cell_angle_gamma   90.00000000
_symmetry_Int_Tables_number   1
_chemical_formula_structural   Ba3Y5(CoO5)3
_chemical_formula_sum   'Ba12 Y20 Co12 O60'
_cell_volume   1476.56911919
_cell_formula_units_Z   4
loop_
 _symmetry_equiv_pos_site_id
 _symmetry_equiv_pos_as_xyz
  1  'x, y, z'
loop_
 _atom_site_type_symbol
 _atom_site_label
 _atom_site_symmetry_multiplicity
 _atom_site_fract_x
 _atom_site_fract_y
 _atom_site_fract_z
 _atom_site_occupancy
  Ba  Ba0  1  0.89275900  0.12592300  0.91666500  1
  Ba  Ba1  1  0.89222700  0.50563200  0.58091100  1
  Ba  Ba2  1  0.89674200  0.82737800  0.25283900  1
  Ba  Ba3  1  0.10325800  0.17262200  0.74716100  1
  Ba  Ba4  1  0.10777300  0.49436800  0.41908900  1
  Ba  Ba5  1  0.10724100  0.87407700  0.08333500  1
  Ba  Ba6  1  0.60325800  0.82737800  0.75283900  1
  Ba  Ba7  1  0.60724100  0.12592300  0.41666500  1
  Ba  Ba8  1  0.60777300  0.50563200  0.08091100  1
  Ba  Ba9  1  0.39222700  0.49436800  0.91908900  1
  Ba  Ba10  1  0.39275900  0.87407700  0.58333500  1
  Ba  Ba11  1  0.39674200  0.17262200  0.24716100  1
  Y  Y0  1  0.29476600  0.96092000  0.91620900  1
  Y  Y1  1  0.29392200  0.63222900  0.24965900  1
  Y  Y2  1  0.70607800  0.36777100  0.75034100  1
  Y  Y3  1  0.70523400  0.03908000  0.08379100  1
  Y  Y4  1  0.20607800  0.63222900  0.74965900  1
  Y  Y5  1  0.20523400  0.96092000  0.41620900  1
  Y  Y6  1  0.79476600  0.03908000  0.58379100  1
  Y  Y7  1  0.79392200  0.36777100  0.25034100  1
  Y  Y8  1  0.06445400  0.68822200  0.92129900  1
  Y  Y9  1  0.08670300  0.01847900  0.58221300  1
  Y  Y10  1  0.07632900  0.35670100  0.24564200  1
  Y  Y11  1  0.92367100  0.64329900  0.75435800  1
  Y  Y12  1  0.91329700  0.98152100  0.41778700  1
  Y  Y13  1  0.93554600  0.31177800  0.07870100  1
  Y  Y14  1  0.42367100  0.35670100  0.74564200  1
  Y  Y15  1  0.43554600  0.68822200  0.42129900  1
  Y  Y16  1  0.41329700  0.01847900  0.08221300  1
  Y  Y17  1  0.58670300  0.98152100  0.91778700  1
  Y  Y18  1  0.56445400  0.31177800  0.57870100  1
  Y  Y19  1  0.57632900  0.64329900  0.25435800  1
  Co  Co0  1  0.66701400  0.42847300  0.91757100  1
  Co  Co1  1  0.65283900  0.71785400  0.58265500  1
  Co  Co2  1  0.65392800  0.04954200  0.25096300  1
  Co  Co3  1  0.34607200  0.95045800  0.74903700  1
  Co  Co4  1  0.34716100  0.28214600  0.41734500  1
  Co  Co5  1  0.33298600  0.57152700  0.08242900  1
  Co  Co6  1  0.84607200  0.04954200  0.75096300  1
  Co  Co7  1  0.83298600  0.42847300  0.41757100  1
  Co  Co8  1  0.84716100  0.71785400  0.08265500  1
  Co  Co9  1  0.15283900  0.28214600  0.91734500  1
  Co  Co10  1  0.16701400  0.57152700  0.58242900  1
  Co  Co11  1  0.15392800  0.95045800  0.24903700  1
  O  O0  1  0.44319000  0.13931400  0.67791100  1
  O  O1  1  0.43188400  0.49047800  0.34016100  1
  O  O2  1  0.43647200  0.82699500  0.00284400  1
  O  O3  1  0.56408100  0.32788500  0.83658300  1
  O  O4  1  0.55761300  0.67281800  0.51169700  1
  O  O5  1  0.56627800  0.00128000  0.17301600  1
  O  O6  1  0.05761300  0.32718200  0.98830300  1
  O  O7  1  0.06408100  0.67211500  0.66341700  1
  O  O8  1  0.06627800  0.99872000  0.32698400  1
  O  O9  1  0.94319000  0.86068600  0.82208900  1
  O  O10  1  0.93647200  0.17300500  0.49715600  1
  O  O11  1  0.93188400  0.50952200  0.15983900  1
  O  O12  1  0.56352800  0.17300500  0.99715600  1
  O  O13  1  0.56811600  0.50952200  0.65983900  1
  O  O14  1  0.55681000  0.86068600  0.32208900  1
  O  O15  1  0.43372200  0.99872000  0.82698400  1
  O  O16  1  0.44238700  0.32718200  0.48830300  1
  O  O17  1  0.43591900  0.67211500  0.16341700  1
  O  O18  1  0.93372200  0.00128000  0.67301600  1
  O  O19  1  0.93591900  0.32788500  0.33658300  1
  O  O20  1  0.94238700  0.67281800  0.01169700  1
  O  O21  1  0.06811600  0.49047800  0.84016100  1
  O  O22  1  0.06352800  0.82699500  0.50284400  1
  O  O23  1  0.05681000  0.13931400  0.17791100  1
  O  O24  1  0.23275600  0.81610100  0.82924100  1
  O  O25  1  0.22867100  0.14264900  0.49191900  1
  O  O26  1  0.22595000  0.49786300  0.16675400  1
  O  O27  1  0.77488300  0.33639800  0.00200600  1
  O  O28  1  0.76832000  0.69305800  0.66437500  1
  O  O29  1  0.77147300  0.03856300  0.32610600  1
  O  O30  1  0.26832000  0.30694200  0.83562500  1
  O  O31  1  0.27488300  0.66360200  0.49799400  1
  O  O32  1  0.27147300  0.96143700  0.17389400  1
  O  O33  1  0.73275600  0.18389900  0.67075900  1
  O  O34  1  0.72595000  0.50213700  0.33324600  1
  O  O35  1  0.72867100  0.85735100  0.00808100  1
  O  O36  1  0.77405000  0.50213700  0.83324600  1
  O  O37  1  0.77132900  0.85735100  0.50808100  1
  O  O38  1  0.76724400  0.18389900  0.17075900  1
  O  O39  1  0.22852700  0.96143700  0.67389400  1
  O  O40  1  0.23168000  0.30694200  0.33562500  1
  O  O41  1  0.22511700  0.66360200  0.99799400  1
  O  O42  1  0.72852700  0.03856300  0.82610600  1
  O  O43  1  0.72511700  0.33639800  0.50200600  1
  O  O44  1  0.73168000  0.69305800  0.16437500  1
  O  O45  1  0.27132900  0.14264900  0.99191900  1
  O  O46  1  0.27405000  0.49786300  0.66675400  1
  O  O47  1  0.26724400  0.81610100  0.32924100  1
  O  O48  1  0.10213400  0.01870200  0.91306400  1
  O  O49  1  0.09364300  0.35374000  0.58314400  1
  O  O50  1  0.10015800  0.67740700  0.25255400  1
  O  O51  1  0.89984200  0.32259300  0.74744600  1
  O  O52  1  0.90635700  0.64626000  0.41685600  1
  O  O53  1  0.89786600  0.98129800  0.08693600  1
  O  O54  1  0.39984200  0.67740700  0.75255400  1
  O  O55  1  0.39786600  0.01870200  0.41306400  1
  O  O56  1  0.40635700  0.35374000  0.08314400  1
  O  O57  1  0.59364300  0.64626000  0.91685600  1
  O  O58  1  0.60213400  0.98129800  0.58693600  1
  O  O59  1  0.60015800  0.32259300  0.24744600  1
loop_
_geom_bond_atom_site_label_1
_geom_bond_atom_site_label_2
_geom_bond_distance
_geom_bond_site_symmetry_2
Ba0 O48 2.639131 1_655
Ba0 O42 2.816894 1_555
Ba0 O35 2.821745 1_546
Ba0 O36 2.911064 1_555
Ba0 O51 2.915293 1_555
Ba0 O53 2.931795 1_546
Ba0 O27 2.937584 1_556
Ba0 O6 3.040937 1_655
Ba0 O20 3.094944 1_546
Ba0 O9 3.102323 1_545
Ba0 O21 3.226992 1_655
Ba1 O49 2.647174 1_655
Ba1 O37 2.766765 1_555
Ba1 O52 2.828692 1_555
Ba1 O28 2.832763 1_555
Ba1 O51 2.865192 1_555
Ba1 O33 2.967706 1_555
Ba1 O43 3.003157 1_555
Ba1 O22 3.010937 1_655
Ba1 O7 3.073173 1_655
Ba2 O50 2.670616 1_655
Ba2 O52 2.823055 1_555
Ba2 O29 2.826119 1_565
Ba2 O53 2.851707 1_555
Ba2 O23 2.869100 1_665
Ba2 O38 2.874612 1_565
Ba2 O44 2.963530 1_555
Ba2 O8 2.975743 1_655
Ba2 O34 3.031249 1_555
Ba3 O51 2.670616 1_455
Ba3 O49 2.823055 1_555
Ba3 O39 2.826119 1_545
Ba3 O48 2.851707 1_555
Ba3 O9 2.869100 1_445
Ba3 O24 2.874612 1_545
Ba3 O30 2.963530 1_555
Ba3 O18 2.975743 1_455
Ba3 O46 3.031249 1_555
Ba4 O52 2.647174 1_455
Ba4 O25 2.766765 1_555
Ba4 O49 2.828692 1_555
Ba4 O40 2.832763 1_555
Ba4 O50 2.865192 1_555
Ba4 O47 2.967706 1_555
Ba4 O31 3.003157 1_555
Ba4 O10 3.010937 1_455
Ba4 O19 3.073173 1_455
Ba5 O53 2.639131 1_455
Ba5 O32 2.816894 1_555
Ba5 O45 2.821745 1_564
Ba5 O26 2.911064 1_555
Ba5 O50 2.915293 1_555
Ba5 O48 2.931795 1_564
Ba5 O41 2.937584 1_554
Ba5 O20 3.040937 1_455
Ba5 O6 3.094944 1_564
Ba5 O23 3.102323 1_565
Ba5 O11 3.226992 1_455
Ba6 O54 2.670616 1_555
Ba6 O57 2.823055 1_555
Ba6 O42 2.826119 1_565
Ba6 O58 2.851707 1_555
Ba6 O0 2.869100 1_565
Ba6 O33 2.874612 1_565
Ba6 O28 2.963530 1_555
Ba6 O15 2.975743 1_555
Ba6 O36 3.031249 1_555
Ba7 O55 2.639131 1_555
Ba7 O29 2.816894 1_555
Ba7 O37 2.821745 1_545
Ba7 O34 2.911064 1_555
Ba7 O59 2.915293 1_555
Ba7 O58 2.931795 1_545
Ba7 O43 2.937584 1_555
Ba7 O16 3.040937 1_555
Ba7 O4 3.094944 1_545
Ba7 O14 3.102323 1_545
Ba7 O1 3.226992 1_555
Ba8 O56 2.647174 1_555
Ba8 O35 2.766765 1_555
Ba8 O57 2.828692 1_554
Ba8 O44 2.832763 1_555
Ba8 O59 2.865192 1_555
Ba8 O38 2.967706 1_555
Ba8 O27 3.003157 1_555
Ba8 O2 3.010937 1_555
Ba8 O17 3.073173 1_555
Ba9 O57 2.647174 1_555
Ba9 O45 2.766765 1_555
Ba9 O56 2.828692 1_556
Ba9 O30 2.832763 1_555
Ba9 O54 2.865192 1_555
Ba9 O24 2.967706 1_555
Ba9 O41 3.003157 1_555
Ba9 O12 3.010937 1_555
Ba9 O3 3.073173 1_555
Ba10 O58 2.639131 1_555
Ba10 O39 2.816894 1_555
Ba10 O25 2.821745 1_565
Ba10 O46 2.911064 1_555
Ba10 O54 2.915293 1_555
Ba10 O55 2.931795 1_565
Ba10 O31 2.937584 1_555
Ba10 O4 3.040937 1_555
Ba10 O16 3.094944 1_565
Ba10 O0 3.102323 1_565
Ba10 O13 3.226992 1_555
Ba11 O59 2.670616 1_555
Ba11 O56 2.823055 1_555
Ba11 O32 2.826119 1_545
Ba11 O55 2.851707 1_555
Ba11 O14 2.869100 1_545
Ba11 O47 2.874612 1_545
Ba11 O40 2.963530 1_555
Ba11 O5 2.975743 1_555
Ba11 O26 3.031249 1_555
Co0 O57 1.785171 1_555
Co0 O36 1.939061 1_555
Co0 O27 1.946424 1_556
Co0 O12 2.235898 1_555
Co0 O3 2.269694 1_555
Co1 O4 1.866470 1_555
Co1 O13 1.917166 1_555
Co1 O37 1.971244 1_555
Co1 O58 2.010254 1_555
Co1 O28 2.015780 1_555
Co2 O14 1.888148 1_545
Co2 O5 1.927989 1_555
Co2 O29 1.968024 1_555
Co2 O38 1.975896 1_555
Co2 O59 2.033578 1_555
Co3 O0 1.888148 1_565
Co3 O15 1.927989 1_555
Co3 O39 1.968024 1_555
Co3 O24 1.975896 1_555
Co3 O54 2.033578 1_555
Co4 O16 1.866470 1_555
Co4 O1 1.917166 1_555
Co4 O25 1.971244 1_555
Co4 O55 2.010254 1_555
Co4 O40 2.015780 1_555
Co5 O56 1.785171 1_555
Co5 O26 1.939061 1_555
Co5 O41 1.946424 1_554
Co5 O2 2.235898 1_555
Co5 O17 2.269694 1_555
Co6 O9 1.888148 1_545
Co6 O18 1.927989 1_555
Co6 O42 1.968024 1_555
Co6 O33 1.975896 1_555
Co6 O51 2.033578 1_555
Co7 O52 1.785171 1_555
Co7 O34 1.939061 1_555
Co7 O43 1.946424 1_555
Co7 O10 2.235898 1_555
Co7 O19 2.269694 1_555
Co8 O20 1.866470 1_555
Co8 O11 1.917166 1_555
Co8 O35 1.971244 1_555
Co8 O53 2.010254 1_555
Co8 O44 2.015780 1_555
Co9 O6 1.866470 1_555
Co9 O21 1.917166 1_555
Co9 O45 1.971244 1_555
Co9 O48 2.010254 1_555
Co9 O30 2.015780 1_555
Co10 O49 1.785171 1_555
Co10 O46 1.939061 1_555
Co10 O31 1.946424 1_555
Co10 O22 2.235898 1_555
Co10 O7 2.269694 1_555
Co11 O23 1.888148 1_565
Co11 O8 1.927989 1_555
Co11 O32 1.968024 1_555
Co11 O47 1.975896 1_555
Co11 O50 2.033578 1_555
O0 Y18 2.303196 1_555
O0 Y14 2.358806 1_555
O1 Y1 2.302646 1_555
O1 Y19 2.327561 1_555
O1 Y15 2.433109 1_555
O2 Y0 2.287197 1_554
O2 Y17 2.375574 1_554
O2 Y16 2.384593 1_565
O3 Y2 2.284331 1_555
O3 Y14 2.342337 1_555
O3 Y17 2.369866 1_545
O4 Y15 2.202735 1_555
O4 Y18 2.398590 1_555
O5 Y3 2.296638 1_555
O5 Y19 2.425192 1_545
O5 Y16 2.468111 1_555
O6 Y13 2.202735 1_456
O6 Y8 2.398590 1_555
O7 Y4 2.284331 1_555
O7 Y11 2.342337 1_455
O7 Y9 2.369866 1_565
O8 Y5 2.296638 1_555
O8 Y10 2.425192 1_565
O8 Y12 2.468111 1_455
O9 Y8 2.303196 1_655
O9 Y11 2.358806 1_555
O10 Y6 2.287197 1_555
O10 Y9 2.375574 1_655
O10 Y12 2.384593 1_545
O11 Y7 2.302646 1_555
O11 Y10 2.327561 1_655
O11 Y13 2.433109 1_555
O12 Y3 2.287197 1_556
O12 Y16 2.375574 1_556
O12 Y17 2.384593 1_545
O13 Y2 2.302646 1_555
O13 Y14 2.327561 1_555
O13 Y18 2.433109 1_555
O14 Y15 2.303196 1_555
O14 Y19 2.358806 1_555
O15 Y0 2.296638 1_555
O15 Y14 2.425192 1_565
O15 Y17 2.468111 1_555
O16 Y18 2.202735 1_555
O16 Y15 2.398590 1_555
O17 Y1 2.284331 1_555
O17 Y19 2.342337 1_555
O17 Y16 2.369866 1_565
O18 Y6 2.296638 1_555
O18 Y11 2.425192 1_545
O18 Y9 2.468111 1_655
O19 Y7 2.284331 1_555
O19 Y10 2.342337 1_655
O19 Y12 2.369866 1_545
O20 Y8 2.202735 1_654
O20 Y13 2.398590 1_555
O21 Y4 2.302646 1_555
O21 Y11 2.327561 1_455
O21 Y8 2.433109 1_555
O22 Y5 2.287197 1_555
O22 Y12 2.375574 1_455
O22 Y9 2.384593 1_565
O23 Y13 2.303196 1_455
O23 Y10 2.358806 1_555
O24 Y4 2.349347 1_555
O24 Y0 2.352352 1_555
O24 Y8 2.580642 1_555
O25 Y5 2.271207 1_545
O25 Y9 2.318919 1_555
O26 Y1 2.260235 1_555
O26 Y10 2.295616 1_555
O27 Y3 2.247512 1_555
O27 Y13 2.367265 1_555
O28 Y6 2.370927 1_565
O28 Y2 2.381292 1_555
O28 Y11 2.441173 1_555
O29 Y7 2.247737 1_555
O29 Y12 2.334154 1_545
O30 Y0 2.370927 1_545
O30 Y4 2.381292 1_555
O30 Y14 2.441173 1_555
O31 Y5 2.247512 1_555
O31 Y15 2.367265 1_555
O32 Y1 2.247737 1_555
O32 Y16 2.334154 1_565
O33 Y2 2.349347 1_555
O33 Y6 2.352352 1_555
O33 Y18 2.580642 1_555
O34 Y7 2.260235 1_555
O34 Y19 2.295616 1_555
O35 Y3 2.271207 1_565
O35 Y17 2.318919 1_554
O36 Y2 2.260235 1_555
O36 Y11 2.295616 1_555
O37 Y6 2.271207 1_565
O37 Y12 2.318919 1_555
O38 Y7 2.349347 1_555
O38 Y3 2.352352 1_555
O38 Y13 2.580642 1_555
O39 Y4 2.247737 1_555
O39 Y9 2.334154 1_565
O40 Y5 2.370927 1_545
O40 Y1 2.381292 1_555
O40 Y10 2.441173 1_555
O41 Y0 2.247512 1_555
O41 Y8 2.367265 1_555
O42 Y2 2.247737 1_555
O42 Y17 2.334154 1_545
O43 Y6 2.247512 1_555
O43 Y18 2.367265 1_555
O44 Y3 2.370927 1_565
O44 Y7 2.381292 1_555
O44 Y19 2.441173 1_555
O45 Y0 2.271207 1_545
O45 Y16 2.318919 1_556
O46 Y4 2.260235 1_555
O46 Y14 2.295616 1_555
O47 Y1 2.349347 1_555
O47 Y5 2.352352 1_555
O47 Y15 2.580642 1_555
O48 Y0 2.348717 1_545
O48 Y8 2.352453 1_545
O49 Y9 2.405287 1_555
O50 Y1 2.354725 1_555
O50 Y10 2.362888 1_555
O51 Y2 2.354725 1_555
O51 Y11 2.362888 1_555
O52 Y12 2.405287 1_555
O53 Y3 2.348717 1_565
O53 Y13 2.352453 1_565
O54 Y4 2.354725 1_555
O54 Y14 2.362888 1_555
O55 Y5 2.348717 1_545
O55 Y15 2.352453 1_545
O56 Y16 2.405287 1_555
O57 Y17 2.405287 1_555
O58 Y6 2.348717 1_565
O58 Y18 2.352453 1_565
O59 Y7 2.354725 1_555
O59 Y19 2.362888 1_555
