# generated using pymatgen
data_KNaMg14
_symmetry_space_group_name_H-M   'P 1'
_cell_length_a   6.61095415
_cell_length_b   6.43434131
_cell_length_c   10.81218033
_cell_angle_alpha   90.00000000
_cell_angle_beta   90.00000000
_cell_angle_gamma   119.12014034
_symmetry_Int_Tables_number   1
_chemical_formula_structural   KNaMg14
_chemical_formula_sum   'K1 Na1 Mg14'
_cell_volume   401.78595317
_cell_formula_units_Z   1
loop_
 _symmetry_equiv_pos_site_id
 _symmetry_equiv_pos_as_xyz
  1  'x, y, z'
loop_
 _atom_site_type_symbol
 _atom_site_label
 _atom_site_symmetry_multiplicity
 _atom_site_fract_x
 _atom_site_fract_y
 _atom_site_fract_z
 _atom_site_occupancy
  K  K0  1  0.16674301  0.33337101  0.12500000  1
  Na  Na0  1  0.16801459  0.83400679  0.12500000  1
  Mg  Mg0  1  0.16563370  0.33281635  0.62500000  1
  Mg  Mg1  1  0.16574363  0.83287132  0.62500000  1
  Mg  Mg2  1  0.66610972  0.33172064  0.12500000  1
  Mg  Mg3  1  0.66678657  0.33352563  0.62500000  1
  Mg  Mg4  1  0.66610972  0.83438807  0.12500000  1
  Mg  Mg5  1  0.66678657  0.83325995  0.62500000  1
  Mg  Mg6  1  0.34173306  0.16669202  0.39353276  1
  Mg  Mg7  1  0.34173306  0.16669202  0.85646724  1
  Mg  Mg8  1  0.34173306  0.67504204  0.39353276  1
  Mg  Mg9  1  0.34173306  0.67504204  0.85646724  1
  Mg  Mg10  1  0.82216375  0.16108238  0.38661220  1
  Mg  Mg11  1  0.82216375  0.16108238  0.86338780  1
  Mg  Mg12  1  0.82840637  0.66420369  0.37675937  1
  Mg  Mg13  1  0.82840637  0.66420369  0.87324063  1
loop_
_geom_bond_atom_site_label_1
_geom_bond_atom_site_label_2
_geom_bond_distance
_geom_bond_site_symmetry_2
K0 Na0 3.217179 1_555
K0 Na0 3.217179 1_545
K0 Mg4 3.304509 1_445
K0 Mg2 3.304509 1_455
K0 Mg4 3.306471 1_555
K0 Mg2 3.306471 1_555
K0 Mg10 3.458513 1_455
K0 Mg11 3.458513 1_454
K0 Mg6 3.482228 1_555
K0 Mg7 3.482228 1_554
K0 Mg8 3.482234 1_555
K0 Mg9 3.482234 1_554
Mg0 Mg7 3.157905 1_555
Mg0 Mg6 3.157905 1_555
Mg0 Mg9 3.157911 1_555
Mg0 Mg8 3.157911 1_555
Mg0 Mg1 3.217171 1_545
Mg0 Mg1 3.217171 1_555
Mg0 Mg11 3.252438 1_455
Mg0 Mg10 3.252438 1_455
Mg0 Mg5 3.300079 1_445
Mg0 Mg3 3.300079 1_455
Mg0 Mg5 3.310880 1_555
Mg0 Mg3 3.310880 1_555
Mg1 Mg9 3.130212 1_555
Mg1 Mg8 3.130212 1_555
Mg1 Mg7 3.130218 1_565
Mg1 Mg6 3.130218 1_565
Mg1 Mg3 3.299800 1_455
Mg1 Mg5 3.299800 1_455
Mg1 Mg3 3.311155 1_565
Mg1 Mg5 3.311156 1_555
Mg1 Mg12 3.316565 1_455
Mg1 Mg13 3.316565 1_455
Mg2 Mg4 3.200008 1_545
Mg2 Mg4 3.234334 1_555
Mg2 Na0 3.291691 1_545
Mg2 Na0 3.319264 1_655
Mg2 Mg6 3.455399 1_555
Mg2 Mg7 3.455399 1_554
Mg3 Mg7 3.128631 1_555
Mg3 Mg6 3.128631 1_555
Mg3 Mg5 3.215461 1_555
Mg3 Mg5 3.218880 1_545
Mg4 Na0 3.291691 1_555
Mg4 Na0 3.319265 1_655
Mg4 Mg8 3.455399 1_555
Mg4 Mg9 3.455399 1_554
Mg5 Mg9 3.128632 1_555
Mg5 Mg8 3.128632 1_555
Mg6 Mg8 3.163444 1_545
Mg6 Mg8 3.270898 1_555
Mg6 Na0 3.455187 1_545
Mg7 Mg9 3.163444 1_545
Mg7 Mg9 3.270898 1_555
Mg7 Na0 3.455187 1_546
Mg8 Na0 3.455181 1_555
Mg9 Na0 3.455181 1_556
Mg10 Mg3 3.168436 1_555
Mg10 Mg5 3.168443 1_545
Mg10 Mg8 3.194702 1_545
Mg10 Mg6 3.194702 1_555
Mg10 Mg12 3.219136 1_555
Mg10 Mg12 3.219136 1_545
Mg10 Mg2 3.372423 1_555
Mg10 Mg4 3.372429 1_545
Mg10 Mg8 3.418248 1_655
Mg10 Mg6 3.418248 1_655
Mg11 Mg3 3.168436 1_555
Mg11 Mg5 3.168443 1_545
Mg11 Mg9 3.194702 1_545
Mg11 Mg7 3.194702 1_555
Mg11 Mg13 3.219136 1_555
Mg11 Mg13 3.219136 1_545
Mg11 Mg2 3.372423 1_556
Mg11 Mg4 3.372429 1_546
Mg11 Mg9 3.418248 1_655
Mg11 Mg7 3.418248 1_655
Mg12 Mg6 3.256936 1_555
Mg12 Mg8 3.256936 1_555
Mg12 Mg5 3.264966 1_555
Mg12 Mg3 3.264973 1_555
Mg12 Mg4 3.302034 1_555
Mg12 Mg2 3.302040 1_555
Mg12 Na0 3.355079 1_655
Mg12 Mg6 3.365084 1_665
Mg12 Mg8 3.365085 1_655
Mg13 Mg7 3.256936 1_555
Mg13 Mg9 3.256936 1_555
Mg13 Mg5 3.264966 1_555
Mg13 Mg3 3.264973 1_555
Mg13 Mg4 3.302034 1_556
Mg13 Mg2 3.302040 1_556
Mg13 Na0 3.355079 1_656
Mg13 Mg7 3.365084 1_665
Mg13 Mg9 3.365085 1_655
