# generated using pymatgen
data_Ti2Al2CrCuS8
_symmetry_space_group_name_H-M   'P 1'
_cell_length_a   7.00601197
_cell_length_b   7.17713914
_cell_length_c   6.98570022
_cell_angle_alpha   90.00000000
_cell_angle_beta   60.09585812
_cell_angle_gamma   119.41516865
_symmetry_Int_Tables_number   1
_chemical_formula_structural   Ti2Al2CrCuS8
_chemical_formula_sum   'Ti2 Al2 Cr1 Cu1 S8'
_cell_volume   250.90949704
_cell_formula_units_Z   1
loop_
 _symmetry_equiv_pos_site_id
 _symmetry_equiv_pos_as_xyz
  1  'x, y, z'
loop_
 _atom_site_type_symbol
 _atom_site_label
 _atom_site_symmetry_multiplicity
 _atom_site_fract_x
 _atom_site_fract_y
 _atom_site_fract_z
 _atom_site_occupancy
  Ti  Ti0  1  0.02057100  0.00681500  0.46530600  1
  Ti  Ti1  1  0.02057100  0.00681500  0.01412300  1
  Al  Al0  1  0.23747500  0.61358700  0.63126200  1
  Al  Al1  1  0.49245900  0.49047800  0.00377100  1
  Cr  Cr0  1  0.48188800  0.00382300  0.00905600  1
  Cu  Cu0  1  0.75396000  0.38202100  0.37302000  1
  S  S0  1  0.01228400  0.75745900  0.24385800  1
  S  S1  1  0.01255100  0.25036900  0.24372500  1
  S  S2  1  0.49549700  0.24874900  0.76861900  1
  S  S3  1  0.49549700  0.24874900  0.23588300  1
  S  S4  1  0.97777500  0.22576300  0.76111200  1
  S  S5  1  0.98294400  0.75490400  0.75852800  1
  S  S6  1  0.50826300  0.75523400  0.22973700  1
  S  S7  1  0.50826300  0.75523400  0.76200000  1
loop_
_geom_bond_atom_site_label_1
_geom_bond_atom_site_label_2
_geom_bond_distance
_geom_bond_site_symmetry_2
Al0 S5 2.279228 1_455
Al0 S4 2.293621 1_455
Al0 S6 2.302154 1_555
Al0 S7 2.302159 1_555
Al1 S3 2.389611 1_555
Al1 S2 2.389621 1_554
Al1 S1 2.402751 1_555
Al1 S5 2.463581 1_554
Al1 S6 2.466242 1_555
Al1 S7 2.466247 1_554
Cr0 S0 2.355038 1_545
Cr0 S3 2.365583 1_555
Cr0 S2 2.365588 1_554
Cr0 S4 2.484228 1_554
Cr0 S6 2.490342 1_545
Cr0 S7 2.490342 1_544
Cu0 S0 2.220770 1_655
Cu0 S1 2.245154 1_655
Cu0 S2 2.267157 1_555
Cu0 S3 2.267163 1_555
S0 Ti1 2.363656 1_565
S0 Ti0 2.363656 1_565
S1 Ti0 2.374431 1_555
S1 Ti1 2.374436 1_555
S2 Ti1 2.379601 1_556
S3 Ti0 2.379601 1_555
S4 Ti0 2.583476 1_655
S4 Ti1 2.583481 1_656
S5 Ti0 2.554909 1_665
S5 Ti1 2.554909 1_666
S6 Ti1 2.579766 1_665
S7 Ti0 2.579766 1_665
