# generated using pymatgen
data_Sb(Br3N)2
_symmetry_space_group_name_H-M   'P 1'
_cell_length_a   10.59230800
_cell_length_b   10.59230800
_cell_length_c   13.02421444
_cell_angle_alpha   113.99387839
_cell_angle_beta   113.99387839
_cell_angle_gamma   90.00000000
_symmetry_Int_Tables_number   1
_chemical_formula_structural   Sb(Br3N)2
_chemical_formula_sum   'Sb4 Br24 N8'
_cell_volume   1195.47282774
_cell_formula_units_Z   4
loop_
 _symmetry_equiv_pos_site_id
 _symmetry_equiv_pos_as_xyz
  1  'x, y, z'
loop_
 _atom_site_type_symbol
 _atom_site_label
 _atom_site_symmetry_multiplicity
 _atom_site_fract_x
 _atom_site_fract_y
 _atom_site_fract_z
 _atom_site_occupancy
  Sb  Sb0  1  0.25000000  0.75000000  0.50000000  1
  Sb  Sb1  1  0.00000000  0.00000000  0.00000000  1
  Sb  Sb2  1  0.75000000  0.25000000  0.50000000  1
  Sb  Sb3  1  0.50000000  0.50000000  0.00000000  1
  Br  Br0  1  0.99979800  0.25585500  0.51170900  1
  Br  Br1  1  0.51191100  0.25585500  0.51170900  1
  Br  Br2  1  0.73808900  0.49414500  0.98829100  1
  Br  Br3  1  0.25020200  0.49414500  0.98829100  1
  Br  Br4  1  0.74414500  0.00020200  0.48829100  1
  Br  Br5  1  0.74414500  0.48808900  0.48829100  1
  Br  Br6  1  0.50585500  0.26191100  0.01170900  1
  Br  Br7  1  0.50585500  0.74979800  0.01170900  1
  Br  Br8  1  0.49368100  0.74958400  0.49916700  1
  Br  Br9  1  0.00548600  0.74958400  0.49916700  1
  Br  Br10  1  0.24451400  0.00041600  0.00083300  1
  Br  Br11  1  0.75631900  0.00041600  0.00083300  1
  Br  Br12  1  0.25041600  0.50631900  0.50083300  1
  Br  Br13  1  0.25041600  0.99451400  0.50083300  1
  Br  Br14  1  0.99958400  0.75548600  0.99916700  1
  Br  Br15  1  0.99958400  0.24368100  0.99916700  1
  Br  Br16  1  0.62869100  0.12869100  0.25738100  1
  Br  Br17  1  0.62130900  0.62130900  0.24261900  1
  Br  Br18  1  0.87130900  0.37130900  0.74261900  1
  Br  Br19  1  0.37869100  0.37869100  0.75738100  1
  Br  Br20  1  0.37129100  0.87129100  0.74258200  1
  Br  Br21  1  0.87870900  0.87870900  0.75741800  1
  Br  Br22  1  0.12870900  0.62870900  0.25741800  1
  Br  Br23  1  0.12129100  0.12129100  0.24258200  1
  N  N0  1  0.62500000  0.65650200  0.75000000  1
  N  N1  1  0.12500000  0.09349800  0.75000000  1
  N  N2  1  0.12500000  0.65650200  0.75000000  1
  N  N3  1  0.62500000  0.09349800  0.75000000  1
  N  N4  1  0.34349800  0.37500000  0.25000000  1
  N  N5  1  0.90650200  0.87500000  0.25000000  1
  N  N6  1  0.34349800  0.87500000  0.25000000  1
  N  N7  1  0.90650200  0.37500000  0.25000000  1
loop_
_geom_bond_atom_site_label_1
_geom_bond_atom_site_label_2
_geom_bond_distance
_geom_bond_site_symmetry_2
Br0 Sb2 2.586935 1_555
Br1 Sb2 2.586935 1_555
Br2 Sb3 2.586935 1_556
Br3 Sb3 2.586935 1_556
Br4 Sb2 2.586935 1_555
Br5 Sb2 2.586935 1_555
Br6 Sb3 2.586935 1_555
Br7 Sb3 2.586935 1_555
Br8 Sb0 2.585571 1_555
Br9 Sb0 2.585571 1_555
Br10 Sb1 2.585571 1_555
Br11 Sb1 2.585571 1_655
Br12 Sb0 2.585571 1_555
Br13 Sb0 2.585571 1_555
Br14 Sb1 2.585571 1_666
Br15 Sb1 2.585571 1_656
Br16 Sb2 2.585136 1_555
Br17 Sb3 2.585136 1_555
Br18 Sb2 2.585136 1_555
Br19 Sb3 2.585136 1_556
Br20 Sb0 2.584741 1_555
Br21 Sb1 2.584741 1_666
Br22 Sb0 2.584741 1_555
Br23 Sb1 2.584741 1_555
