# generated using pymatgen
data_Li4V4(OF3)3
_symmetry_space_group_name_H-M   'P 1'
_cell_length_a   5.14935100
_cell_length_b   5.57850515
_cell_length_c   9.09508470
_cell_angle_alpha   106.38296419
_cell_angle_beta   90.43385421
_cell_angle_gamma   117.14984597
_symmetry_Int_Tables_number   1
_chemical_formula_structural   Li4V4(OF3)3
_chemical_formula_sum   'Li4 V4 O3 F9'
_cell_volume   220.17633980
_cell_formula_units_Z   1
loop_
 _symmetry_equiv_pos_site_id
 _symmetry_equiv_pos_as_xyz
  1  'x, y, z'
loop_
 _atom_site_type_symbol
 _atom_site_label
 _atom_site_symmetry_multiplicity
 _atom_site_fract_x
 _atom_site_fract_y
 _atom_site_fract_z
 _atom_site_occupancy
  Li  Li0  1  0.32198800  0.77051400  0.14742800  1
  Li  Li1  1  0.76857100  0.99482000  0.40122900  1
  Li  Li2  1  0.29802700  0.20178300  0.63192000  1
  Li  Li3  1  0.77937100  0.48514900  0.90830700  1
  V  V0  1  0.98433000  0.51240400  0.50116300  1
  V  V1  1  0.05861000  0.02711900  0.99757200  1
  V  V2  1  0.51140600  0.27173900  0.25462300  1
  V  V3  1  0.49032100  0.77902500  0.76064700  1
  O  O0  1  0.24019000  0.94356500  0.80950900  1
  O  O1  1  0.39346800  0.18752600  0.06799100  1
  O  O2  1  0.61282900  0.28948600  0.43646700  1
  F  F0  1  0.09976400  0.89736300  0.37107400  1
  F  F1  1  0.26212400  0.47041600  0.29884700  1
  F  F2  1  0.39664500  0.69872500  0.56214100  1
  F  F3  1  0.12196300  0.39210700  0.87206100  1
  F  F4  1  0.91869100  0.63033500  0.11535600  1
  F  F5  1  0.62827800  0.80762300  0.95225900  1
  F  F6  1  0.71776200  0.55810500  0.70855500  1
  F  F7  1  0.73576200  0.03802000  0.19249800  1
  F  F8  1  0.89034200  0.12027400  0.62557200  1
loop_
_geom_bond_atom_site_label_1
_geom_bond_atom_site_label_2
_geom_bond_distance
_geom_bond_site_symmetry_2
Li1 O2 2.087522 1_565
Li2 O0 2.387618 1_545
Li2 O2 2.416119 1_555
O0 V3 1.885872 1_555
O0 V1 1.997342 1_565
O1 V1 1.560753 1_554
O1 V2 1.656795 1_555
O2 V2 1.692709 1_555
O2 V0 1.717929 1_555
F0 Li1 2.012071 1_455
F0 Li2 2.379679 1_565
F0 Li0 2.431038 1_555
F0 V0 2.577587 1_455
F0 V2 2.686661 1_565
F1 V2 2.023025 1_555
F1 V0 2.364210 1_455
F1 Li0 2.372814 1_555
F2 V3 1.739627 1_555
F2 V0 1.881140 1_455
F3 Li3 2.058677 1_455
F3 Li2 2.513932 1_555
F4 Li3 1.818158 1_554
F4 Li0 1.841033 1_655
F5 V3 1.813336 1_555
F5 V1 1.950569 1_665
F5 Li3 2.208540 1_555
F5 Li0 2.373397 1_556
F6 Li3 2.023144 1_555
F6 V3 2.027615 1_555
F6 Li2 2.093597 1_555
F6 V0 2.365251 1_555
F7 Li0 1.916924 1_545
F7 Li1 1.995251 1_545
F7 V2 2.079144 1_555
F7 V1 2.446755 1_654
F8 Li2 1.931163 1_655
F8 Li1 1.954702 1_545
