# generated using pymatgen
data_SrMg6CrO8
_symmetry_space_group_name_H-M   'P 1'
_cell_length_a   8.63532346
_cell_length_b   4.54020565
_cell_length_c   4.54020565
_cell_angle_alpha   90.00000000
_cell_angle_beta   90.00000000
_cell_angle_gamma   90.00000000
_symmetry_Int_Tables_number   1
_chemical_formula_structural   SrMg6CrO8
_chemical_formula_sum   'Sr1 Mg6 Cr1 O8'
_cell_volume   178.00395815
_cell_formula_units_Z   1
loop_
 _symmetry_equiv_pos_site_id
 _symmetry_equiv_pos_as_xyz
  1  'x, y, z'
loop_
 _atom_site_type_symbol
 _atom_site_label
 _atom_site_symmetry_multiplicity
 _atom_site_fract_x
 _atom_site_fract_y
 _atom_site_fract_z
 _atom_site_occupancy
  Sr  Sr0  1  -0.00000000  0.00000000  0.00000000  1
  Mg  Mg0  1  0.50000000  0.00000000  0.00000000  1
  Mg  Mg1  1  0.50000000  0.50000000  0.50000000  1
  Mg  Mg2  1  0.25925075  0.00000000  0.50000000  1
  Mg  Mg3  1  0.74074925  0.00000000  0.50000000  1
  Mg  Mg4  1  0.25925075  0.50000000  -0.00000000  1
  Mg  Mg5  1  0.74074925  0.50000000  0.00000000  1
  Cr  Cr0  1  -0.00000000  0.50000000  0.50000000  1
  O  O0  1  0.27358228  -0.00000000  -0.00000000  1
  O  O1  1  0.72641772  0.00000000  0.00000000  1
  O  O2  1  0.25179416  0.50000000  0.50000000  1
  O  O3  1  0.74820584  0.50000000  0.50000000  1
  O  O4  1  -0.00000000  0.00000000  0.50000000  1
  O  O5  1  0.50000000  0.00000000  0.50000000  1
  O  O6  1  -0.00000000  0.50000000  0.00000000  1
  O  O7  1  0.50000000  0.50000000  0.00000000  1
loop_
_geom_bond_atom_site_label_1
_geom_bond_atom_site_label_2
_geom_bond_distance
_geom_bond_site_symmetry_2
Mg0 O0 1.955190 1_555
Mg0 O1 1.955190 1_555
Mg0 O7 2.270103 1_555
Mg0 O5 2.270103 1_554
Mg0 O5 2.270103 1_555
Mg0 O7 2.270103 1_545
Mg1 O2 2.143338 1_555
Mg1 O3 2.143338 1_555
Mg1 O7 2.270103 1_555
Mg1 O7 2.270103 1_556
Mg1 O5 2.270103 1_555
Mg1 O5 2.270103 1_565
Mg2 O5 2.078948 1_555
Mg2 O4 2.238714 1_555
Mg2 O2 2.271016 1_545
Mg2 O2 2.271016 1_555
Mg2 O0 2.273474 1_555
Mg2 O0 2.273474 1_556
Mg3 O5 2.078948 1_555
Mg3 O4 2.238714 1_655
Mg3 O3 2.271016 1_555
Mg3 O3 2.271016 1_545
Mg3 O1 2.273474 1_555
Mg3 O1 2.273474 1_556
Mg4 O7 2.078948 1_555
Mg4 O6 2.238714 1_555
Mg4 O2 2.271016 1_554
Mg4 O2 2.271016 1_555
Mg4 O0 2.273474 1_565
Mg4 O0 2.273474 1_555
Mg5 O7 2.078948 1_555
Mg5 O6 2.238714 1_655
Mg5 O3 2.271016 1_555
Mg5 O3 2.271016 1_554
Mg5 O1 2.273474 1_555
Mg5 O1 2.273474 1_565
Cr0 O2 2.174324 1_555
Cr0 O3 2.174324 1_455
Cr0 O4 2.270103 1_555
Cr0 O4 2.270103 1_565
Cr0 O6 2.270103 1_556
Cr0 O6 2.270103 1_555
O0 Sr0 2.362471 1_555
O1 Sr0 2.362471 1_655
O4 Sr0 2.270103 1_555
O4 Sr0 2.270103 1_556
O6 Sr0 2.270103 1_565
O6 Sr0 2.270103 1_555
