# generated using pymatgen
data_V3(PO4)4
_symmetry_space_group_name_H-M   'P 1'
_cell_length_a   10.07210175
_cell_length_b   10.07210175
_cell_length_c   10.91905190
_cell_angle_alpha   87.98361888
_cell_angle_beta   87.98361888
_cell_angle_gamma   37.17562510
_symmetry_Int_Tables_number   1
_chemical_formula_structural   V3(PO4)4
_chemical_formula_sum   'V6 P8 O32'
_cell_volume   668.88227854
_cell_formula_units_Z   2
loop_
 _symmetry_equiv_pos_site_id
 _symmetry_equiv_pos_as_xyz
  1  'x, y, z'
loop_
 _atom_site_type_symbol
 _atom_site_label
 _atom_site_symmetry_multiplicity
 _atom_site_fract_x
 _atom_site_fract_y
 _atom_site_fract_z
 _atom_site_occupancy
  V  V0  1  0.00000000  0.50000000  0.50000000  1
  V  V1  1  0.66784100  0.63369300  0.25181000  1
  V  V2  1  0.33215900  0.36630700  0.74819000  1
  V  V3  1  0.36630700  0.33215900  0.24819000  1
  V  V4  1  0.63369300  0.66784100  0.75181000  1
  V  V5  1  0.50000000  0.00000000  0.00000000  1
  P  P0  1  0.42172100  0.74531500  0.01180900  1
  P  P1  1  0.78427600  0.81297200  0.74754000  1
  P  P2  1  0.18702800  0.21572400  0.75246000  1
  P  P3  1  0.21572400  0.18702800  0.25246000  1
  P  P4  1  0.74531500  0.42172100  0.51180900  1
  P  P5  1  0.81297200  0.78427600  0.24754000  1
  P  P6  1  0.57827900  0.25468500  0.98819100  1
  P  P7  1  0.25468500  0.57827900  0.48819100  1
  O  O0  1  0.30499500  0.21273400  0.14308600  1
  O  O1  1  0.94825300  0.36345800  0.50809900  1
  O  O2  1  0.33376600  0.98020500  0.73059100  1
  O  O3  1  0.59406500  0.60277400  0.61343700  1
  O  O4  1  0.76563500  0.72213700  0.64137500  1
  O  O5  1  0.36345800  0.94825300  0.00809900  1
  O  O6  1  0.05096500  0.63532300  0.22796200  1
  O  O7  1  0.63532300  0.05096500  0.72796200  1
  O  O8  1  0.63654200  0.05174700  0.99190100  1
  O  O9  1  0.23932700  0.79637500  0.02642900  1
  O  O10  1  0.36467700  0.94903500  0.27203800  1
  O  O11  1  0.94903500  0.36467700  0.77203800  1
  O  O12  1  0.63312900  0.55273700  0.38516900  1
  O  O13  1  0.23436500  0.27786300  0.35862500  1
  O  O14  1  0.36687100  0.44726300  0.61483100  1
  O  O15  1  0.72213700  0.76563500  0.14137500  1
  O  O16  1  0.66623400  0.01979500  0.26940900  1
  O  O17  1  0.44726300  0.36687100  0.11483100  1
  O  O18  1  0.76067300  0.20362500  0.97357100  1
  O  O19  1  0.20362500  0.76067300  0.47357100  1
  O  O20  1  0.27786300  0.23436500  0.85862500  1
  O  O21  1  0.40593500  0.39722600  0.38656300  1
  O  O22  1  0.01979500  0.66623400  0.76940900  1
  O  O23  1  0.39722600  0.40593500  0.88656300  1
  O  O24  1  0.78726600  0.69500500  0.35691400  1
  O  O25  1  0.55273700  0.63312900  0.88516900  1
  O  O26  1  0.21273400  0.30499500  0.64308600  1
  O  O27  1  0.98020500  0.33376600  0.23059100  1
  O  O28  1  0.79637500  0.23932700  0.52642900  1
  O  O29  1  0.05174700  0.63654200  0.49190100  1
  O  O30  1  0.69500500  0.78726600  0.85691400  1
  O  O31  1  0.60277400  0.59406500  0.11343700  1
loop_
_geom_bond_atom_site_label_1
_geom_bond_atom_site_label_2
_geom_bond_distance
_geom_bond_site_symmetry_2
O0 P3 1.604812 1_555
O0 V5 2.050104 1_555
O0 V3 2.115667 1_555
O1 P4 1.615044 1_555
O1 V0 1.816942 1_655
O2 P2 1.515447 1_565
O2 V4 1.982446 1_555
O3 P4 1.572900 1_555
O3 V4 1.844071 1_555
O4 P1 1.606167 1_555
O4 V4 2.125599 1_555
O4 V0 2.128676 1_655
O5 P0 1.615044 1_555
O5 V5 1.816942 1_565
O6 P5 1.515954 1_455
O6 V3 2.001852 1_555
O7 P1 1.515954 1_545
O7 V2 2.001852 1_555
O8 P6 1.615044 1_555
O8 V5 1.816942 1_556
O9 P0 1.464388 1_555
O10 P3 1.515954 1_565
O10 V1 2.001852 1_555
O11 P2 1.515954 1_655
O11 V4 2.001852 1_555
O12 P4 1.592368 1_555
O12 V1 1.800670 1_555
O13 P3 1.606167 1_555
O13 V3 2.125599 1_555
O13 V0 2.128676 1_555
O14 P7 1.592368 1_555
O14 V2 1.800670 1_555
O15 P5 1.606167 1_555
O15 V1 2.125599 1_555
O15 V5 2.128676 1_565
O16 P5 1.515447 1_545
O16 V3 1.982446 1_555
O17 P6 1.592368 1_554
O17 V3 1.800670 1_555
O18 P6 1.464388 1_555
O19 P7 1.464388 1_555
O20 P2 1.606167 1_555
O20 V2 2.125599 1_555
O20 V5 2.128676 1_556
O21 P7 1.572900 1_555
O21 V3 1.844071 1_555
O22 P1 1.515447 1_455
O22 V2 1.982446 1_555
O23 P6 1.572900 1_555
O23 V2 1.844071 1_555
O24 P5 1.604812 1_555
O24 V0 2.050104 1_655
O24 V1 2.115667 1_555
O25 P0 1.592368 1_556
O25 V4 1.800670 1_555
O26 P2 1.604812 1_555
O26 V0 2.050104 1_555
O26 V2 2.115667 1_555
O27 P3 1.515447 1_655
O27 V1 1.982446 1_555
O28 P4 1.464388 1_555
O29 P7 1.615044 1_555
O29 V0 1.816942 1_555
O30 P1 1.604812 1_555
O30 V5 2.050104 1_566
O30 V4 2.115667 1_555
O31 P0 1.572900 1_555
O31 V1 1.844071 1_555
