# generated using pymatgen
data_Li9Mn2Co5O16
_symmetry_space_group_name_H-M   'P 1'
_cell_length_a   5.10263748
_cell_length_b   5.10263748
_cell_length_c   20.75856265
_cell_angle_alpha   81.95151579
_cell_angle_beta   81.95151579
_cell_angle_gamma   32.81132813
_symmetry_Int_Tables_number   1
_chemical_formula_structural   Li9Mn2Co5O16
_chemical_formula_sum   'Li9 Mn2 Co5 O16'
_cell_volume   289.74076407
_cell_formula_units_Z   1
loop_
 _symmetry_equiv_pos_site_id
 _symmetry_equiv_pos_as_xyz
  1  'x, y, z'
loop_
 _atom_site_type_symbol
 _atom_site_label
 _atom_site_symmetry_multiplicity
 _atom_site_fract_x
 _atom_site_fract_y
 _atom_site_fract_z
 _atom_site_occupancy
  Li  Li0  1  0.24334100  0.24334100  0.06780300  1
  Li  Li1  1  0.74836500  0.74836500  0.19448800  1
  Li  Li2  1  0.25768100  0.25768100  0.30842400  1
  Li  Li3  1  0.75754000  0.75754000  0.43766900  1
  Li  Li4  1  0.24963700  0.24963700  0.56126100  1
  Li  Li5  1  0.74999100  0.74999100  0.68392700  1
  Li  Li6  1  0.25421100  0.25421100  0.81346700  1
  Li  Li7  1  0.75207500  0.75207500  0.93286000  1
  Li  Li8  1  0.99752000  0.99752000  0.24927600  1
  Mn  Mn0  1  0.99851700  0.99851700  0.00098000  1
  Mn  Mn1  1  0.48908700  0.48908700  0.13278600  1
  Co  Co0  1  0.51317400  0.51317400  0.36503900  1
  Co  Co1  1  0.99412500  0.99412500  0.49952500  1
  Co  Co2  1  0.50471700  0.50471700  0.62353700  1
  Co  Co3  1  0.00023000  0.00023000  0.74808700  1
  Co  Co4  1  0.50205500  0.50205500  0.87277800  1
  O  O0  1  0.38560400  0.38560400  0.97022200  1
  O  O1  1  0.88069400  0.88069400  0.09972700  1
  O  O2  1  0.38229600  0.38229600  0.21270600  1
  O  O3  1  0.89311000  0.89311000  0.34815500  1
  O  O4  1  0.38097000  0.38097000  0.47162300  1
  O  O5  1  0.88538100  0.88538100  0.59410000  1
  O  O6  1  0.39114900  0.39114900  0.71865300  1
  O  O7  1  0.88346500  0.88346500  0.84526300  1
  O  O8  1  0.10665700  0.10665700  0.15335900  1
  O  O9  1  0.62486800  0.62486800  0.28791300  1
  O  O10  1  0.10709700  0.10709700  0.40527000  1
  O  O11  1  0.61234000  0.61234000  0.53035900  1
  O  O12  1  0.12182500  0.12182500  0.65440000  1
  O  O13  1  0.60812400  0.60812400  0.77898800  1
  O  O14  1  0.11917800  0.11917800  0.90204500  1
  O  O15  1  0.60497800  0.60497800  0.03530900  1
loop_
_geom_bond_atom_site_label_1
_geom_bond_atom_site_label_2
_geom_bond_distance
_geom_bond_site_symmetry_2
Li0 O8 2.061809 1_555
Li0 O1 2.141110 1_545
Li0 O1 2.141110 1_455
Li0 O15 2.152546 1_455
Li0 O15 2.152546 1_545
Li0 O0 2.284597 1_554
Li1 O2 2.020856 1_565
Li1 O2 2.020856 1_655
Li1 O9 2.130355 1_555
Li1 O1 2.191772 1_555
Li1 O8 2.253049 1_655
Li1 O8 2.253049 1_565
Li2 O9 2.027413 1_545
Li2 O9 2.027413 1_455
Li2 O2 2.174567 1_555
Li2 O3 2.198679 1_455
Li2 O3 2.198679 1_545
Li2 O10 2.312951 1_555
Li3 O4 2.069419 1_655
Li3 O4 2.069419 1_565
Li3 O3 2.120001 1_555
Li3 O11 2.219101 1_555
Li3 O10 2.233294 1_565
Li3 O10 2.233294 1_655
Li4 O4 2.101697 1_555
Li4 O11 2.132318 1_455
Li4 O11 2.132318 1_545
Li4 O5 2.138246 1_455
Li4 O5 2.138246 1_545
Li4 O12 2.144203 1_555
Li5 O12 2.061910 1_565
Li5 O12 2.061910 1_655
Li5 O5 2.124232 1_555
Li5 O6 2.190220 1_565
Li5 O6 2.190220 1_655
Li5 O13 2.241185 1_555
Li6 O7 2.087481 1_545
Li6 O7 2.087481 1_455
Li6 O14 2.102141 1_555
Li6 O6 2.213774 1_555
Li6 O13 2.221126 1_545
Li6 O13 2.221126 1_455
Li7 O7 2.068403 1_555
Li7 O14 2.102802 1_655
Li7 O14 2.102802 1_565
Li7 O0 2.164087 1_655
Li7 O0 2.164087 1_565
Li7 O15 2.388009 1_556
Li8 O2 2.043442 1_655
Li8 O2 2.043442 1_565
Li8 O8 2.117788 1_665
Li8 O9 2.136918 1_655
Li8 O9 2.136918 1_565
Li8 O3 2.155334 1_555
Mn0 O15 1.971762 1_655
Mn0 O15 1.971762 1_565
Mn0 O0 1.978019 1_564
Mn0 O0 1.978019 1_654
Mn0 O1 2.200489 1_555
Mn0 O14 2.214737 1_664
Mn1 O2 1.827308 1_555
Mn1 O8 1.930701 1_565
Mn1 O8 1.930701 1_655
Mn1 O1 1.971425 1_455
Mn1 O1 1.971425 1_545
Mn1 O15 2.170608 1_555
Co0 O9 1.802195 1_555
Co0 O3 1.923963 1_455
Co0 O3 1.923963 1_545
Co0 O10 1.960621 1_655
Co0 O10 1.960621 1_565
Co0 O4 2.394677 1_555
Co1 O4 1.956242 1_655
Co1 O4 1.956242 1_565
Co1 O11 2.010530 1_655
Co1 O11 2.010530 1_565
Co1 O5 2.092260 1_555
Co1 O10 2.102327 1_665
Co2 O12 2.004049 1_565
Co2 O12 2.004049 1_655
Co2 O5 2.005899 1_455
Co2 O5 2.005899 1_545
Co2 O11 2.063126 1_555
Co2 O6 2.119870 1_555
Co3 O6 1.944513 1_545
Co3 O6 1.944513 1_455
Co3 O13 1.949847 1_455
Co3 O13 1.949847 1_545
Co3 O12 2.126855 1_555
Co3 O7 2.168596 1_445
Co4 O7 1.986108 1_545
Co4 O7 1.986108 1_455
Co4 O14 1.991013 1_655
Co4 O14 1.991013 1_565
Co4 O13 2.068504 1_555
Co4 O0 2.172148 1_555
