# generated using pymatgen
data_Y(MnAl)6
_symmetry_space_group_name_H-M   'P 1'
_cell_length_a   4.94270400
_cell_length_b   6.63079349
_cell_length_c   6.63079349
_cell_angle_alpha   98.80581403
_cell_angle_beta   111.88274457
_cell_angle_gamma   68.11725543
_symmetry_Int_Tables_number   1
_chemical_formula_structural   Y(MnAl)6
_chemical_formula_sum   'Y1 Mn6 Al6'
_cell_volume   187.10463528
_cell_formula_units_Z   1
loop_
 _symmetry_equiv_pos_site_id
 _symmetry_equiv_pos_as_xyz
  1  'x, y, z'
loop_
 _atom_site_type_symbol
 _atom_site_label
 _atom_site_symmetry_multiplicity
 _atom_site_fract_x
 _atom_site_fract_y
 _atom_site_fract_z
 _atom_site_occupancy
  Y  Y0  1  0.00000000  0.00000000  0.00000000  1
  Mn  Mn0  1  0.50000000  0.00000000  0.50000000  1
  Mn  Mn1  1  0.00000000  0.00000000  0.50000000  1
  Mn  Mn2  1  0.50000000  0.50000000  0.00000000  1
  Mn  Mn3  1  0.00000000  0.50000000  0.00000000  1
  Mn  Mn4  1  0.50000000  0.76211900  0.76211900  1
  Mn  Mn5  1  0.50000000  0.23788100  0.23788100  1
  Al  Al0  1  0.65348500  0.34651500  0.65348500  1
  Al  Al1  1  0.34651500  0.65348500  0.34651500  1
  Al  Al2  1  0.00000000  0.33814800  0.33814800  1
  Al  Al3  1  0.00000000  0.66185200  0.66185200  1
  Al  Al4  1  0.69687100  0.80312900  0.19687100  1
  Al  Al5  1  0.30312900  0.19687100  0.80312900  1
loop_
_geom_bond_atom_site_label_1
_geom_bond_atom_site_label_2
_geom_bond_distance
_geom_bond_site_symmetry_2
Mn0 Mn1 2.471352 1_555
Mn0 Mn1 2.471352 1_655
Mn0 Mn4 2.519567 1_545
Mn0 Mn5 2.519567 1_555
Mn0 Y0 3.315397 1_555
Mn0 Y0 3.315397 1_656
Mn1 Mn4 2.519567 1_545
Mn1 Mn5 2.519567 1_455
Mn1 Y0 3.315397 1_556
Mn1 Y0 3.315397 1_555
Mn2 Mn3 2.471352 1_555
Mn2 Mn3 2.471352 1_655
Mn2 Mn5 2.519567 1_555
Mn2 Mn4 2.519567 1_554
Mn2 Y0 3.315397 1_655
Mn2 Y0 3.315397 1_565
Mn3 Mn4 2.519567 1_454
Mn3 Mn5 2.519567 1_555
Mn3 Y0 3.315397 1_555
Mn3 Y0 3.315397 1_565
Mn4 Y0 3.212760 1_666
Mn4 Y0 3.212760 1_566
Mn5 Y0 3.212760 1_655
Mn5 Y0 3.212760 1_555
Al0 Mn0 2.626485 1_555
Al0 Mn2 2.626485 1_556
Al0 Mn3 2.626485 1_656
Al0 Mn1 2.626485 1_655
Al0 Mn5 2.632475 1_555
Al0 Mn4 2.632475 1_555
Al0 Al1 2.693058 1_555
Al0 Al5 2.798412 1_555
Al0 Al5 2.798412 1_655
Al0 Y0 3.039988 1_656
Al1 Mn2 2.626485 1_555
Al1 Mn0 2.626485 1_565
Al1 Mn1 2.626485 1_565
Al1 Mn3 2.626485 1_555
Al1 Mn5 2.632475 1_555
Al1 Mn4 2.632475 1_555
Al1 Al4 2.798412 1_555
Al1 Al4 2.798412 1_455
Al1 Y0 3.039988 1_565
Al2 Mn5 2.618453 1_455
Al2 Mn5 2.618453 1_555
Al2 Mn1 2.629818 1_555
Al2 Mn3 2.629818 1_555
Al2 Mn0 2.629818 1_555
Al2 Mn2 2.629818 1_455
Al2 Al3 2.793497 1_555
Al2 Y0 2.918146 1_555
Al2 Al4 3.003849 1_455
Al2 Al5 3.003849 1_555
Al3 Mn4 2.618453 1_555
Al3 Mn4 2.618453 1_455
Al3 Mn1 2.629818 1_565
Al3 Mn3 2.629818 1_556
Al3 Mn0 2.629818 1_465
Al3 Mn2 2.629818 1_556
Al3 Y0 2.918146 1_566
Al3 Al4 3.003849 1_455
Al3 Al5 3.003849 1_555
Al4 Mn3 2.529570 1_655
Al4 Mn0 2.529570 1_565
Al4 Mn2 2.529570 1_555
Al4 Mn1 2.529570 1_665
Al4 Mn4 2.682781 1_554
Al4 Mn5 2.682781 1_565
Al4 Y0 3.015070 1_565
Al4 Y0 3.015070 1_665
Al5 Mn1 2.529570 1_555
Al5 Mn0 2.529570 1_555
Al5 Mn2 2.529570 1_556
Al5 Mn3 2.529570 1_556
Al5 Mn4 2.682781 1_545
Al5 Mn5 2.682781 1_556
Al5 Y0 3.015070 1_656
Al5 Y0 3.015070 1_556
