# generated using pymatgen
data_Li2PrGe
_symmetry_space_group_name_H-M   'P 1'
_cell_length_a   4.39336191
_cell_length_b   4.39336191
_cell_length_c   9.63169800
_cell_angle_alpha   90.00000000
_cell_angle_beta   90.00000000
_cell_angle_gamma   119.99999870
_symmetry_Int_Tables_number   1
_chemical_formula_structural   Li2PrGe
_chemical_formula_sum   'Li4 Pr2 Ge2'
_cell_volume   161.00058565
_cell_formula_units_Z   2
loop_
 _symmetry_equiv_pos_site_id
 _symmetry_equiv_pos_as_xyz
  1  'x, y, z'
loop_
 _atom_site_type_symbol
 _atom_site_label
 _atom_site_symmetry_multiplicity
 _atom_site_fract_x
 _atom_site_fract_y
 _atom_site_fract_z
 _atom_site_occupancy
  Li  Li0  1  0.33333300  0.66666700  0.56434200  1
  Li  Li1  1  0.66666700  0.33333300  0.43565800  1
  Li  Li2  1  0.66666700  0.33333300  0.06434200  1
  Li  Li3  1  0.33333300  0.66666700  0.93565800  1
  Pr  Pr0  1  0.33333300  0.66666700  0.25000000  1
  Pr  Pr1  1  0.66666700  0.33333300  0.75000000  1
  Ge  Ge0  1  0.00000000  0.00000000  0.50000000  1
  Ge  Ge1  1  0.00000000  0.00000000  0.00000000  1
loop_
_geom_bond_atom_site_label_1
_geom_bond_atom_site_label_2
_geom_bond_distance
_geom_bond_site_symmetry_2
Li0 Pr0 3.027647 1_555
Li0 Pr1 3.103471 1_455
Li0 Pr1 3.103471 1_565
Li0 Pr1 3.103477 1_555
Li1 Pr1 3.027647 1_555
Li1 Pr0 3.103471 1_655
Li1 Pr0 3.103471 1_545
Li1 Pr0 3.103477 1_555
Li2 Pr1 3.027647 1_554
Li2 Pr0 3.103471 1_655
Li2 Pr0 3.103471 1_545
Li2 Pr0 3.103477 1_555
Li3 Pr0 3.027647 1_556
Li3 Pr1 3.103471 1_455
Li3 Pr1 3.103471 1_565
Li3 Pr1 3.103477 1_555
Ge0 Li0 2.611115 1_545
Ge0 Li1 2.611115 1_455
Ge0 Li1 2.611118 1_445
Ge0 Li0 2.611118 1_555
Ge0 Li1 2.611118 1_555
Ge0 Li0 2.611118 1_445
Ge0 Pr0 3.497422 1_545
Ge0 Pr1 3.497422 1_455
Ge0 Pr0 3.497425 1_555
Ge0 Pr1 3.497425 1_555
Ge0 Pr0 3.497425 1_445
Ge0 Pr1 3.497425 1_445
Ge1 Li3 2.611115 1_544
Ge1 Li2 2.611115 1_455
Ge1 Li2 2.611118 1_555
Ge1 Li2 2.611118 1_445
Ge1 Li3 2.611118 1_444
Ge1 Li3 2.611118 1_554
Ge1 Pr0 3.497422 1_545
Ge1 Pr1 3.497422 1_454
Ge1 Pr0 3.497425 1_555
Ge1 Pr0 3.497425 1_445
Ge1 Pr1 3.497425 1_444
Ge1 Pr1 3.497425 1_554
