# generated using pymatgen
data_Pr4CoI5
_symmetry_space_group_name_H-M   'P 1'
_cell_length_a   10.01233797
_cell_length_b   10.01233797
_cell_length_c   9.21873270
_cell_angle_alpha   76.68900362
_cell_angle_beta   76.68900362
_cell_angle_gamma   24.53499580
_symmetry_Int_Tables_number   1
_chemical_formula_structural   Pr4CoI5
_chemical_formula_sum   'Pr4 Co1 I5'
_cell_volume   372.94799799
_cell_formula_units_Z   1
loop_
 _symmetry_equiv_pos_site_id
 _symmetry_equiv_pos_as_xyz
  1  'x, y, z'
loop_
 _atom_site_type_symbol
 _atom_site_label
 _atom_site_symmetry_multiplicity
 _atom_site_fract_x
 _atom_site_fract_y
 _atom_site_fract_z
 _atom_site_occupancy
  Pr  Pr0  1  0.86083384  0.86083384  0.07323496  1
  Pr  Pr1  1  0.13916616  0.13916616  0.92676504  1
  Pr  Pr2  1  0.50011485  0.50011485  0.20907678  1
  Pr  Pr3  1  0.49988515  0.49988515  0.79092322  1
  Co  Co0  1  0.00000000  0.00000000  -0.00000000  1
  I  I0  1  0.67374330  0.67374330  0.17200371  1
  I  I1  1  0.32625670  0.32625670  0.82799629  1
  I  I2  1  0.66916341  0.66916341  0.65452858  1
  I  I3  1  0.33083659  0.33083659  0.34547142  1
  I  I4  1  0.00000000  0.00000000  0.50000000  1
loop_
_geom_bond_atom_site_label_1
_geom_bond_atom_site_label_2
_geom_bond_distance
_geom_bond_site_symmetry_2
Co0 Pr0 2.646671 1_445
Co0 Pr1 2.646671 1_554
Co0 Pr3 2.871021 1_454
Co0 Pr3 2.871021 1_544
Co0 Pr2 2.871021 1_455
Co0 Pr2 2.871021 1_545
I0 Pr1 3.288693 1_564
I0 Pr1 3.288693 1_654
I0 Pr2 3.333526 1_555
I0 Pr0 3.558138 1_555
I1 Pr0 3.288693 1_546
I1 Pr0 3.288693 1_456
I1 Pr3 3.333526 1_555
I1 Pr1 3.558138 1_555
I2 Pr1 3.236446 1_655
I2 Pr1 3.236446 1_565
I2 Pr3 3.254227 1_555
I3 Pr0 3.236446 1_455
I3 Pr0 3.236446 1_545
I3 Pr2 3.254227 1_555
I4 Pr2 3.422827 1_455
I4 Pr2 3.422827 1_545
I4 Pr3 3.422827 1_455
I4 Pr3 3.422827 1_545
