# generated using pymatgen
data_Li7Co5O12
_symmetry_space_group_name_H-M   'P 1'
_cell_length_a   6.30973944
_cell_length_b   6.30973823
_cell_length_c   4.85366484
_cell_angle_alpha   82.62855467
_cell_angle_beta   82.62853712
_cell_angle_gamma   83.38262948
_symmetry_Int_Tables_number   1
_chemical_formula_structural   Li7Co5O12
_chemical_formula_sum   'Li7 Co5 O12'
_cell_volume   189.09615456
_cell_formula_units_Z   1
loop_
 _symmetry_equiv_pos_site_id
 _symmetry_equiv_pos_as_xyz
  1  'x, y, z'
loop_
 _atom_site_type_symbol
 _atom_site_label
 _atom_site_symmetry_multiplicity
 _atom_site_fract_x
 _atom_site_fract_y
 _atom_site_fract_z
 _atom_site_occupancy
  Li  Li0  1  0.08196940  0.41129757  0.25232980  1
  Li  Li1  1  0.75579925  0.75580119  0.25840051  1
  Li  Li2  1  0.41130183  0.08197673  0.25232840  1
  Li  Li3  1  0.58870231  0.91802984  0.74767072  1
  Li  Li4  1  0.24419906  0.24420072  0.74159881  1
  Li  Li5  1  0.91802361  0.58869831  0.74767210  1
  Li  Li6  1  -0.00000384  0.00000345  0.50000083  1
  Co  Co0  1  0.83627879  0.16372118  0.00000067  1
  Co  Co1  1  0.16371608  0.83628418  0.00000015  1
  Co  Co2  1  0.50000336  0.49999683  0.00000018  1
  Co  Co3  1  0.32876262  0.67123739  0.50000009  1
  Co  Co4  1  0.67124219  0.32875749  0.49999986  1
  O  O0  1  0.70830205  0.06623075  0.35789326  1
  O  O1  1  0.39237285  0.39235281  0.37053311  1
  O  O2  1  0.06621517  0.70830158  0.35789232  1
  O  O3  1  0.22338140  0.55819507  0.86868136  1
  O  O4  1  0.88613458  0.88614681  0.89341170  1
  O  O5  1  0.55820978  0.22338416  0.86866986  1
  O  O6  1  0.44180533  0.77661873  0.13131819  1
  O  O7  1  0.11385277  0.11386472  0.10658756  1
  O  O8  1  0.77661590  0.44179034  0.13133071  1
  O  O9  1  0.93376969  0.29169803  0.64210679  1
  O  O10  1  0.60764719  0.60762704  0.62946642  1
  O  O11  1  0.29169862  0.93378507  0.64210661  1
loop_
_geom_bond_atom_site_label_1
_geom_bond_atom_site_label_2
_geom_bond_distance
_geom_bond_site_symmetry_2
Li0 O2 1.993671 1_555
Li0 O8 2.066404 1_455
Li0 O7 2.068835 1_555
Li0 O9 2.089338 1_455
Li0 O1 2.096711 1_555
Li0 O3 2.108096 1_554
Li1 O4 1.974649 1_554
Li1 O2 2.056592 1_655
Li1 O0 2.056676 1_565
Li1 O10 2.080626 1_555
Li1 O6 2.134422 1_555
Li1 O8 2.134500 1_555
Li2 O0 1.993657 1_555
Li2 O6 2.066448 1_545
Li2 O7 2.068927 1_555
Li2 O11 2.089330 1_545
Li2 O1 2.096556 1_555
Li2 O5 2.108148 1_554
Li3 O11 1.993671 1_555
Li3 O5 2.066409 1_565
Li3 O4 2.068829 1_555
Li3 O0 2.089343 1_565
Li3 O10 2.096709 1_555
Li3 O6 2.108089 1_556
Li4 O7 1.974652 1_556
Li4 O11 2.056591 1_545
Li4 O9 2.056675 1_455
Li4 O1 2.080625 1_555
Li4 O3 2.134425 1_555
Li4 O5 2.134502 1_555
Li5 O9 1.993658 1_555
Li5 O3 2.066446 1_655
Li5 O4 2.068920 1_555
Li5 O2 2.089336 1_655
Li5 O10 2.096560 1_555
Li5 O8 2.108149 1_556
Li6 O4 2.023196 1_445
Li6 O7 2.023205 1_555
Li6 O9 2.027901 1_455
Li6 O0 2.027903 1_455
Li6 O11 2.027944 1_545
Li6 O2 2.027946 1_545
Co0 O7 1.870248 1_655
Co0 O4 1.870253 1_544
Co0 O0 1.878374 1_555
Co0 O9 1.878380 1_554
Co0 O8 1.923445 1_555
Co0 O5 1.923446 1_554
Co1 O7 1.870289 1_565
Co1 O4 1.870297 1_454
Co1 O2 1.878402 1_555
Co1 O11 1.878408 1_554
Co1 O6 1.923540 1_555
Co1 O3 1.923540 1_554
Co2 O1 1.906930 1_555
Co2 O10 1.906933 1_554
Co2 O5 1.914455 1_554
Co2 O8 1.914455 1_555
Co2 O6 1.914481 1_555
Co2 O3 1.914484 1_554
Co3 O11 1.853994 1_555
Co3 O2 1.853996 1_555
Co3 O3 1.905124 1_555
Co3 O6 1.905128 1_555
Co3 O10 1.925802 1_555
Co3 O1 1.925803 1_555
Co4 O0 1.853873 1_555
Co4 O9 1.853878 1_555
Co4 O8 1.905044 1_555
Co4 O5 1.905046 1_555
Co4 O1 1.925707 1_555
Co4 O10 1.925707 1_555
