# generated using pymatgen
data_Li4Nb3V3(FeO8)2
_symmetry_space_group_name_H-M   'P 1'
_cell_length_a   6.08464083
_cell_length_b   6.08464083
_cell_length_c   9.89487337
_cell_angle_alpha   89.37081573
_cell_angle_beta   89.37081573
_cell_angle_gamma   60.60439789
_symmetry_Int_Tables_number   1
_chemical_formula_structural   Li4Nb3V3(FeO8)2
_chemical_formula_sum   'Li4 Nb3 V3 Fe2 O16'
_cell_volume   319.14536306
_cell_formula_units_Z   1
loop_
 _symmetry_equiv_pos_site_id
 _symmetry_equiv_pos_as_xyz
  1  'x, y, z'
loop_
 _atom_site_type_symbol
 _atom_site_label
 _atom_site_symmetry_multiplicity
 _atom_site_fract_x
 _atom_site_fract_y
 _atom_site_fract_z
 _atom_site_occupancy
  Li  Li0  1  0.33186500  0.33186500  0.09898200  1
  Li  Li1  1  0.99272300  0.99272300  0.00096500  1
  Li  Li2  1  0.98756800  0.98756800  0.50591100  1
  Li  Li3  1  0.66554000  0.66554000  0.61441800  1
  Nb  Nb0  1  0.16952800  0.16952800  0.78573900  1
  Nb  Nb1  1  0.83646000  0.34266100  0.28660000  1
  Nb  Nb2  1  0.34266100  0.83646000  0.28660000  1
  V  V0  1  0.66383500  0.16693900  0.78470800  1
  V  V1  1  0.16693900  0.66383500  0.78470800  1
  V  V2  1  0.82693600  0.82693600  0.29027700  1
  Fe  Fe0  1  0.34833900  0.34833900  0.52022900  1
  Fe  Fe1  1  0.67362100  0.67362100  0.99691400  1
  O  O0  1  0.67369700  0.17468500  0.40269800  1
  O  O1  1  0.48140200  0.48140200  0.66287800  1
  O  O2  1  0.32789300  0.32789300  0.89804500  1
  O  O3  1  0.00440500  0.00440500  0.68392600  1
  O  O4  1  0.00273500  0.00273500  0.18803500  1
  O  O5  1  0.17468500  0.67369700  0.40269800  1
  O  O6  1  0.47628400  0.04183100  0.65698200  1
  O  O7  1  0.04183100  0.47628400  0.65698200  1
  O  O8  1  0.84118100  0.84118100  0.88977300  1
  O  O9  1  0.16168000  0.16168000  0.40021600  1
  O  O10  1  0.96930300  0.50158800  0.16426500  1
  O  O11  1  0.50158800  0.96930300  0.16426500  1
  O  O12  1  0.65834700  0.65834700  0.40433300  1
  O  O13  1  0.84692800  0.31647900  0.89416600  1
  O  O14  1  0.51585000  0.51585000  0.17268700  1
  O  O15  1  0.31647900  0.84692800  0.89416600  1
loop_
_geom_bond_atom_site_label_1
_geom_bond_atom_site_label_2
_geom_bond_distance
_geom_bond_site_symmetry_2
Li0 O2 1.989215 1_554
Li0 O11 2.024191 1_545
Li0 O10 2.024191 1_455
Li0 O14 2.074729 1_555
Li1 O4 1.855356 1_665
Li1 O8 1.946837 1_554
Li1 O13 2.010899 1_564
Li1 O15 2.010899 1_654
Li2 O3 1.772534 1_665
Li2 O0 1.967070 1_565
Li2 O5 1.967070 1_655
Li2 O9 2.095611 1_665
Li3 O1 1.987285 1_555
Li3 O6 2.041558 1_565
Li3 O7 2.041558 1_655
Li3 O12 2.081098 1_555
Nb0 O2 2.012571 1_555
Nb0 O15 2.013804 1_545
Nb0 O13 2.013804 1_455
Nb0 O3 2.017231 1_555
Nb0 O6 2.063138 1_555
Nb0 O7 2.063138 1_555
Nb1 O10 1.942645 1_555
Nb1 O14 2.047122 1_555
Nb1 O12 2.049171 1_555
Nb1 O4 2.054545 1_655
Nb1 O9 2.067568 1_655
Nb1 O0 2.070752 1_555
Nb2 O11 1.942645 1_555
Nb2 O14 2.047122 1_555
Nb2 O12 2.049171 1_555
Nb2 O4 2.054545 1_565
Nb2 O9 2.067568 1_565
Nb2 O5 2.070752 1_555
Fe0 O1 1.999263 1_555
Fe0 O0 2.076307 1_555
Fe0 O5 2.076307 1_555
Fe0 O7 2.111327 1_555
Fe0 O6 2.111327 1_555
Fe0 O9 2.305557 1_555
Fe1 O8 2.043474 1_555
Fe1 O15 2.154842 1_555
Fe1 O13 2.154842 1_555
Fe1 O11 2.291991 1_556
Fe1 O10 2.291991 1_556
Fe1 O14 2.387353 1_556
O0 V2 2.162432 1_545
O1 V1 2.059172 1_555
O1 V0 2.059172 1_555
O2 V1 2.098491 1_555
O2 V0 2.098491 1_555
O3 V0 2.056980 1_455
O3 V1 2.056980 1_545
O4 V2 2.094656 1_445
O5 V2 2.162432 1_455
O6 V0 2.093954 1_555
O7 V1 2.093954 1_555
O8 V0 2.013382 1_565
O8 V1 2.013382 1_655
O10 V2 2.138004 1_555
O11 V2 2.138004 1_555
O12 V2 2.088146 1_555
O13 V0 2.070102 1_555
O15 V1 2.070102 1_555
