# generated using pymatgen
data_Li2Mn3SbO8
_symmetry_space_group_name_H-M   'P 1'
_cell_length_a   6.00880412
_cell_length_b   10.83342542
_cell_length_c   6.00879746
_cell_angle_alpha   73.89997528
_cell_angle_beta   59.99326572
_cell_angle_gamma   73.89993770
_symmetry_Int_Tables_number   1
_chemical_formula_structural   Li2Mn3SbO8
_chemical_formula_sum   'Li4 Mn6 Sb2 O16'
_cell_volume   320.88704283
_cell_formula_units_Z   2
loop_
 _symmetry_equiv_pos_site_id
 _symmetry_equiv_pos_as_xyz
  1  'x, y, z'
loop_
 _atom_site_type_symbol
 _atom_site_label
 _atom_site_symmetry_multiplicity
 _atom_site_fract_x
 _atom_site_fract_y
 _atom_site_fract_z
 _atom_site_occupancy
  Li  Li0  1  0.43557800  0.69333200  0.43557000  1
  Li  Li1  1  0.93559200  0.19329500  0.93558300  1
  Li  Li2  1  0.06441100  0.80671500  0.06440100  1
  Li  Li3  1  0.56442200  0.30667600  0.56441500  1
  Mn  Mn0  1  0.50001300  0.99997400  0.49991800  1
  Mn  Mn1  1  0.49991300  0.00001200  0.00012000  1
  Mn  Mn2  1  0.00014000  0.99995900  0.49994800  1
  Mn  Mn3  1  0.99999900  0.49998100  0.99997500  1
  Mn  Mn4  1  0.99997800  0.50000000  0.50004200  1
  Mn  Mn5  1  0.49997800  0.50001600  0.00000700  1
  Sb  Sb0  1  0.25001900  0.24998100  0.25001700  1
  Sb  Sb1  1  0.75001000  0.75002900  0.75000600  1
  O  O0  1  0.36292700  0.91125500  0.36289700  1
  O  O1  1  0.86285600  0.41125500  0.86294400  1
  O  O2  1  0.13703800  0.58873500  0.13712500  1
  O  O3  1  0.63711000  0.08874500  0.63707900  1
  O  O4  1  0.59618900  0.12817300  0.13783800  1
  O  O5  1  0.09616800  0.62814900  0.63786200  1
  O  O6  1  0.13785300  0.12817300  0.59617000  1
  O  O7  1  0.63785400  0.62815700  0.09616800  1
  O  O8  1  0.13786200  0.12815500  0.13784000  1
  O  O9  1  0.63785100  0.62814200  0.63786700  1
  O  O10  1  0.36212500  0.37187500  0.36214100  1
  O  O11  1  0.86215800  0.87185500  0.86214600  1
  O  O12  1  0.36213900  0.37185100  0.90382000  1
  O  O13  1  0.86217500  0.87183300  0.40380200  1
  O  O14  1  0.90381800  0.37184300  0.36214900  1
  O  O15  1  0.40382100  0.87183400  0.86214900  1
loop_
_geom_bond_atom_site_label_1
_geom_bond_atom_site_label_2
_geom_bond_distance
_geom_bond_site_symmetry_2
Li0 O7 1.994584 1_555
Li0 O5 1.994667 1_555
Li0 O9 1.994769 1_555
Li0 O0 2.236549 1_555
Li1 O4 1.994323 1_556
Li1 O6 1.994369 1_655
Li1 O8 1.994550 1_656
Li1 O1 2.236929 1_555
Li2 O13 1.994290 1_455
Li2 O15 1.994342 1_554
Li2 O11 1.994457 1_454
Li2 O2 2.237134 1_555
Li3 O14 1.994517 1_555
Li3 O12 1.994599 1_555
Li3 O10 1.994776 1_555
Li3 O3 2.236631 1_555
Mn0 O0 1.958699 1_555
Mn0 O3 1.959802 1_565
Mn0 O4 2.123213 1_565
Mn0 O13 2.123304 1_555
Mn0 O6 2.123527 1_565
Mn0 O15 2.123565 1_555
Mn1 O0 1.958484 1_545
Mn1 O3 1.959623 1_554
Mn1 O8 2.122788 1_555
Mn1 O4 2.123374 1_555
Mn1 O11 2.123706 1_544
Mn1 O15 2.123887 1_544
Mn2 O0 1.958359 1_555
Mn2 O3 1.959744 1_465
Mn2 O11 2.123252 1_455
Mn2 O8 2.123285 1_565
Mn2 O13 2.123600 1_455
Mn2 O6 2.123624 1_565
Mn3 O1 1.959062 1_555
Mn3 O2 1.959351 1_656
Mn3 O12 2.123144 1_655
Mn3 O5 2.123206 1_655
Mn3 O14 2.123317 1_556
Mn3 O7 2.123373 1_556
Mn4 O1 1.959021 1_555
Mn4 O2 1.959058 1_655
Mn4 O9 2.123116 1_555
Mn4 O10 2.123133 1_655
Mn4 O5 2.123364 1_655
Mn4 O14 2.123630 1_555
Mn5 O1 1.958963 1_554
Mn5 O2 1.959113 1_555
Mn5 O9 2.123101 1_554
Mn5 O10 2.123148 1_555
Mn5 O7 2.123416 1_555
Mn5 O12 2.123578 1_554
O4 Sb0 2.022611 1_555
O5 Sb1 2.022921 1_455
O6 Sb0 2.022541 1_555
O7 Sb1 2.022897 1_554
O8 Sb0 2.022733 1_555
O9 Sb1 2.023139 1_555
O10 Sb0 2.022924 1_555
O11 Sb1 2.022544 1_555
O12 Sb0 2.023030 1_556
O13 Sb1 2.022730 1_555
O14 Sb0 2.023007 1_655
O15 Sb1 2.022674 1_555
