# generated using pymatgen
data_KBaSmMnO6
_symmetry_space_group_name_H-M   'P 1'
_cell_length_a   8.46609624
_cell_length_b   8.44122696
_cell_length_c   8.46439221
_cell_angle_alpha   90.00000000
_cell_angle_beta   90.00000000
_cell_angle_gamma   90.00000000
_symmetry_Int_Tables_number   1
_chemical_formula_structural   KBaSmMnO6
_chemical_formula_sum   'K4 Ba4 Sm4 Mn4 O24'
_cell_volume   604.90135489
_cell_formula_units_Z   4
loop_
 _symmetry_equiv_pos_site_id
 _symmetry_equiv_pos_as_xyz
  1  'x, y, z'
loop_
 _atom_site_type_symbol
 _atom_site_label
 _atom_site_symmetry_multiplicity
 _atom_site_fract_x
 _atom_site_fract_y
 _atom_site_fract_z
 _atom_site_occupancy
  K  K0  1  0.50000000  0.00000000  0.50000000  1
  K  K1  1  0.50000000  0.50000000  -0.00000000  1
  K  K2  1  0.00000000  0.50000000  -0.00000000  1
  K  K3  1  0.00000000  0.00000000  0.50000000  1
  Ba  Ba0  1  0.00000000  0.50000000  0.50000000  1
  Ba  Ba1  1  0.50000000  0.00000000  -0.00000000  1
  Ba  Ba2  1  0.00000000  0.00000000  -0.00000000  1
  Ba  Ba3  1  0.50000000  0.50000000  0.50000000  1
  Sm  Sm0  1  0.25000000  0.25000000  0.25000000  1
  Sm  Sm1  1  0.75000000  0.75000000  0.25000000  1
  Sm  Sm2  1  0.75000000  0.25000000  0.75000000  1
  Sm  Sm3  1  0.25000000  0.75000000  0.75000000  1
  Mn  Mn0  1  0.75000000  0.75000000  0.75000000  1
  Mn  Mn1  1  0.25000000  0.25000000  0.75000000  1
  Mn  Mn2  1  0.25000000  0.75000000  0.25000000  1
  Mn  Mn3  1  0.75000000  0.25000000  0.25000000  1
  O  O0  1  0.97743650  0.24412932  0.25785841  1
  O  O1  1  0.02256350  0.75587068  0.25785841  1
  O  O2  1  0.02256350  0.24412932  0.74214159  1
  O  O3  1  0.97743650  0.75587068  0.74214159  1
  O  O4  1  0.25562072  0.97766065  0.23410962  1
  O  O5  1  0.25562072  0.02233935  0.76589038  1
  O  O6  1  0.74437928  0.02233935  0.23410962  1
  O  O7  1  0.74437928  0.97766065  0.76589038  1
  O  O8  1  0.24170367  0.25067185  0.97779172  1
  O  O9  1  0.75829633  0.25067185  0.02220828  1
  O  O10  1  0.24170367  0.74932815  0.02220828  1
  O  O11  1  0.75829633  0.74932815  0.97779172  1
  O  O12  1  0.52256350  0.25587068  0.24214159  1
  O  O13  1  0.47743650  0.74412932  0.24214159  1
  O  O14  1  0.47743650  0.25587068  0.75785841  1
  O  O15  1  0.52256350  0.74412932  0.75785841  1
  O  O16  1  0.24437928  0.52233935  0.26589038  1
  O  O17  1  0.24437928  0.47766065  0.73410962  1
  O  O18  1  0.75562072  0.47766065  0.26589038  1
  O  O19  1  0.75562072  0.52233935  0.73410962  1
  O  O20  1  0.25829633  0.24932815  0.52220828  1
  O  O21  1  0.74170367  0.24932815  0.47779172  1
  O  O22  1  0.25829633  0.75067185  0.47779172  1
  O  O23  1  0.74170367  0.75067185  0.52220828  1
loop_
_geom_bond_atom_site_label_1
_geom_bond_atom_site_label_2
_geom_bond_distance
_geom_bond_site_symmetry_2
K0 O22 2.941448 1_545
K0 O20 2.941448 1_555
K0 O23 2.941448 1_545
K0 O21 2.941448 1_555
K0 O5 3.062886 1_555
K0 O6 3.062886 1_555
K0 O7 3.062886 1_545
K0 O4 3.062886 1_545
K0 O14 3.076573 1_555
K0 O12 3.076573 1_555
K0 O13 3.076573 1_545
K0 O15 3.076573 1_545
K1 O14 2.912725 1_554
K1 O15 2.912725 1_554
K1 O12 2.912725 1_555
K1 O13 2.912725 1_555
K1 O11 3.040847 1_554
K1 O8 3.040847 1_554
K1 O10 3.040847 1_555
K1 O9 3.040847 1_555
K1 O19 3.127960 1_554
K1 O16 3.127960 1_555
K1 O17 3.127960 1_554
K1 O18 3.127960 1_555
K2 O10 2.941448 1_555
K2 O11 2.941448 1_454
K2 O8 2.941448 1_554
K2 O9 2.941448 1_455
K2 O18 3.062886 1_455
K2 O19 3.062886 1_454
K2 O16 3.062886 1_555
K2 O17 3.062886 1_554
K2 O2 3.076573 1_554
K2 O1 3.076573 1_555
K2 O0 3.076573 1_455
K2 O3 3.076573 1_454
K3 O2 2.912725 1_555
K3 O1 2.912725 1_545
K3 O0 2.912725 1_455
K3 O3 2.912725 1_445
K3 O22 3.040847 1_545
K3 O23 3.040847 1_445
K3 O21 3.040847 1_455
K3 O20 3.040847 1_555
K3 O5 3.127960 1_555
K3 O7 3.127960 1_445
K3 O6 3.127960 1_455
K3 O4 3.127960 1_545
Ba0 O18 2.871025 1_455
Ba0 O19 2.871025 1_455
Ba0 O16 2.871025 1_555
Ba0 O17 2.871025 1_555
Ba0 O2 2.983669 1_555
Ba0 O1 2.983669 1_555
Ba0 O3 2.983669 1_455
Ba0 O0 2.983669 1_455
Ba0 O21 3.048709 1_455
Ba0 O23 3.048709 1_455
Ba0 O22 3.048709 1_555
Ba0 O20 3.048709 1_555
Ba1 O7 2.871025 1_544
Ba1 O6 2.871025 1_555
Ba1 O4 2.871025 1_545
Ba1 O5 2.871025 1_554
Ba1 O15 2.983669 1_544
Ba1 O13 2.983669 1_545
Ba1 O12 2.983669 1_555
Ba1 O14 2.983669 1_554
Ba1 O8 3.048709 1_554
Ba1 O11 3.048709 1_544
Ba1 O10 3.048709 1_545
Ba1 O9 3.048709 1_555
Ba2 O7 2.940349 1_444
Ba2 O6 2.940349 1_455
Ba2 O4 2.940349 1_545
Ba2 O5 2.940349 1_554
Ba2 O10 2.949574 1_545
Ba2 O8 2.949574 1_554
Ba2 O9 2.949574 1_455
Ba2 O11 2.949574 1_444
Ba2 O2 3.007822 1_554
Ba2 O1 3.007822 1_545
Ba2 O0 3.007822 1_455
Ba2 O3 3.007822 1_444
Ba3 O18 2.940349 1_555
Ba3 O19 2.940349 1_555
Ba3 O16 2.940349 1_555
Ba3 O17 2.940349 1_555
Ba3 O22 2.949574 1_555
Ba3 O20 2.949574 1_555
Ba3 O23 2.949574 1_555
Ba3 O21 2.949574 1_555
Ba3 O14 3.007822 1_555
Ba3 O15 3.007822 1_555
Ba3 O13 3.007822 1_555
Ba3 O12 3.007822 1_555
Mn0 O7 1.927024 1_555
Mn0 O19 1.927024 1_555
Mn0 O3 1.927285 1_555
Mn0 O15 1.927285 1_555
Mn0 O23 1.929406 1_555
Mn0 O11 1.929406 1_555
Mn1 O5 1.927024 1_555
Mn1 O17 1.927024 1_555
Mn1 O2 1.927285 1_555
Mn1 O14 1.927285 1_555
Mn1 O20 1.929406 1_555
Mn1 O8 1.929406 1_555
Mn2 O4 1.927024 1_555
Mn2 O16 1.927024 1_555
Mn2 O13 1.927285 1_555
Mn2 O1 1.927285 1_555
Mn2 O10 1.929406 1_555
Mn2 O22 1.929406 1_555
Mn3 O6 1.927024 1_555
Mn3 O18 1.927024 1_555
Mn3 O0 1.927285 1_555
Mn3 O12 1.927285 1_555
Mn3 O9 1.929406 1_555
Mn3 O21 1.929406 1_555
O0 Sm0 2.309039 1_655
O1 Sm1 2.309039 1_455
O2 Sm2 2.309039 1_455
O3 Sm3 2.309039 1_655
O4 Sm0 2.303301 1_565
O5 Sm3 2.303301 1_545
O6 Sm1 2.303301 1_545
O7 Sm2 2.303301 1_565
O8 Sm0 2.305155 1_556
O9 Sm2 2.305155 1_554
O10 Sm3 2.305155 1_554
O11 Sm1 2.305155 1_556
O12 Sm0 2.309039 1_555
O13 Sm1 2.309039 1_555
O14 Sm2 2.309039 1_555
O15 Sm3 2.309039 1_555
O16 Sm0 2.303301 1_555
O17 Sm3 2.303301 1_555
O18 Sm1 2.303301 1_555
O19 Sm2 2.303301 1_555
O20 Sm0 2.305155 1_555
O21 Sm2 2.305155 1_555
O22 Sm3 2.305155 1_555
O23 Sm1 2.305155 1_555
