# generated using pymatgen
data_VIn3
_symmetry_space_group_name_H-M   'P 1'
_cell_length_a   6.17558792
_cell_length_b   6.17558792
_cell_length_c   5.29748700
_cell_angle_alpha   90.00000000
_cell_angle_beta   90.00000000
_cell_angle_gamma   119.99999915
_symmetry_Int_Tables_number   1
_chemical_formula_structural   VIn3
_chemical_formula_sum   'V2 In6'
_cell_volume   174.96740601
_cell_formula_units_Z   2
loop_
 _symmetry_equiv_pos_site_id
 _symmetry_equiv_pos_as_xyz
  1  'x, y, z'
loop_
 _atom_site_type_symbol
 _atom_site_label
 _atom_site_symmetry_multiplicity
 _atom_site_fract_x
 _atom_site_fract_y
 _atom_site_fract_z
 _atom_site_occupancy
  V  V0  1  0.33333300  0.66666700  0.75000000  1
  V  V1  1  0.66666700  0.33333300  0.25000000  1
  In  In0  1  0.16987000  0.33974000  0.25000000  1
  In  In1  1  0.66026000  0.83013000  0.25000000  1
  In  In2  1  0.16987000  0.83013000  0.25000000  1
  In  In3  1  0.83013000  0.66026000  0.75000000  1
  In  In4  1  0.33974000  0.16987000  0.75000000  1
  In  In5  1  0.83013000  0.16987000  0.75000000  1
loop_
_geom_bond_atom_site_label_1
_geom_bond_atom_site_label_2
_geom_bond_distance
_geom_bond_site_symmetry_2
In0 In2 3.028447 1_555
In0 In1 3.028447 1_555
In0 V1 3.087981 1_455
In0 V1 3.087987 1_555
In0 In2 3.147141 1_545
In0 In1 3.147141 1_445
In0 V0 3.173801 1_555
In0 V0 3.173801 1_554
In0 In4 3.212062 1_554
In0 In4 3.212062 1_555
In0 In5 3.212062 1_455
In0 In5 3.212062 1_454
In1 In2 3.028447 1_555
In1 V1 3.087981 1_565
In1 V1 3.087987 1_555
In1 In2 3.147141 1_655
In1 V0 3.173801 1_555
In1 V0 3.173801 1_554
In1 In3 3.212062 1_555
In1 In3 3.212062 1_554
In1 In5 3.212062 1_565
In1 In5 3.212062 1_564
In2 V1 3.087984 1_565
In2 V1 3.087984 1_455
In2 V0 3.173798 1_555
In2 V0 3.173798 1_554
In2 In3 3.212062 1_454
In2 In4 3.212062 1_564
In2 In4 3.212062 1_565
In2 In3 3.212062 1_455
In3 In5 3.028447 1_555
In3 In4 3.028447 1_555
In3 V0 3.087981 1_655
In3 V0 3.087987 1_555
In3 In5 3.147141 1_565
In3 In4 3.147141 1_665
In3 V1 3.173801 1_555
In3 V1 3.173801 1_556
In4 In5 3.028447 1_555
In4 V0 3.087981 1_545
In4 V0 3.087987 1_555
In4 In5 3.147141 1_455
In4 V1 3.173801 1_555
In4 V1 3.173801 1_556
In5 V0 3.087984 1_655
In5 V0 3.087984 1_545
In5 V1 3.173798 1_555
In5 V1 3.173798 1_556
