# generated using pymatgen
data_La4As2(S2O)3
_symmetry_space_group_name_H-M   'P 1'
_cell_length_a   11.74071398
_cell_length_b   11.74071398
_cell_length_c   11.74071398
_cell_angle_alpha   150.86017057
_cell_angle_beta   117.65607404
_cell_angle_gamma   70.26945897
_symmetry_Int_Tables_number   1
_chemical_formula_structural   La4As2(S2O)3
_chemical_formula_sum   'La8 As4 S12 O6'
_cell_volume   689.34418430
_cell_formula_units_Z   2
loop_
 _symmetry_equiv_pos_site_id
 _symmetry_equiv_pos_as_xyz
  1  'x, y, z'
loop_
 _atom_site_type_symbol
 _atom_site_label
 _atom_site_symmetry_multiplicity
 _atom_site_fract_x
 _atom_site_fract_y
 _atom_site_fract_z
 _atom_site_occupancy
  La  La0  1  0.17066000  0.77653300  0.39018400  1
  La  La1  1  0.82934000  0.21952400  0.60587200  1
  La  La2  1  0.61365200  0.71952400  0.89018400  1
  La  La3  1  0.38634800  0.27653300  0.10587200  1
  La  La4  1  0.47349500  0.07221100  0.39678300  1
  La  La5  1  0.52650500  0.92328800  0.59871700  1
  La  La6  1  0.32457100  0.42328800  0.89678300  1
  La  La7  1  0.67542900  0.57221100  0.09871700  1
  As  As0  1  0.77094200  0.51150300  0.49211800  1
  As  As1  1  0.22905800  0.72117700  0.74056100  1
  As  As2  1  0.01938500  0.01150300  0.24056100  1
  As  As3  1  0.98061500  0.22117700  0.99211800  1
  S  S0  1  0.64712500  0.28297100  0.37195500  1
  S  S1  1  0.35287500  0.72483000  0.63584600  1
  S  S2  1  0.08898400  0.22483000  0.87195500  1
  S  S3  1  0.91101600  0.78297100  0.13584600  1
  S  S4  1  0.96455300  0.60976200  0.32801300  1
  S  S5  1  0.03544700  0.36346000  0.64520900  1
  S  S6  1  0.71825100  0.86346000  0.82801300  1
  S  S7  1  0.28174900  0.10976200  0.14520900  1
  S  S8  1  0.22224100  0.92608400  0.29968900  1
  S  S9  1  0.77775900  0.07744700  0.70384300  1
  S  S10  1  0.37360400  0.57744700  0.79968900  1
  S  S11  1  0.62639600  0.42608400  0.20384300  1
  O  O0  1  0.34365200  0.09704600  0.75331300  1
  O  O1  1  0.65634800  0.40966100  0.75339400  1
  O  O2  1  0.65626700  0.90966100  0.25331300  1
  O  O3  1  0.34373300  0.59704600  0.25339400  1
  O  O4  1  0.50000000  0.25450100  0.75450100  1
  O  O5  1  0.50000000  0.75450100  0.25450100  1
loop_
_geom_bond_atom_site_label_1
_geom_bond_atom_site_label_2
_geom_bond_distance
_geom_bond_site_symmetry_2
La0 O3 2.318473 1_555
La0 O0 2.357655 1_565
La0 S8 3.025338 1_555
La0 S4 3.047130 1_455
La0 S1 3.117311 1_555
La0 S2 3.134920 1_554
La0 S3 3.162849 1_455
La0 S2 3.199610 1_565
La1 O2 2.318473 1_545
La1 O1 2.357659 1_555
La1 S9 3.025361 1_555
La1 S5 3.047122 1_655
La1 S0 3.117302 1_555
La1 S3 3.134915 1_545
La1 S2 3.162855 1_655
La1 S3 3.199610 1_556
La2 O1 2.318473 1_555
La2 O2 2.357659 1_556
La2 S10 3.025367 1_555
La2 S6 3.047122 1_555
La2 S3 3.117302 1_556
La2 S0 3.134915 1_555
La2 S1 3.162855 1_555
La2 S0 3.199610 1_566
La3 O0 2.318466 1_554
La3 O3 2.357649 1_555
La3 S11 3.025354 1_555
La3 S7 3.047132 1_555
La3 S2 3.117300 1_554
La3 S1 3.134921 1_544
La3 S0 3.162861 1_555
La3 S1 3.199612 1_555
La4 O5 2.369628 1_545
La4 O4 2.418825 1_555
La4 O2 2.461523 1_545
La4 O1 2.501410 1_555
La4 S7 3.068934 1_555
La4 S8 3.134292 1_545
La4 S10 3.177170 1_544
La4 S10 3.220978 1_555
La5 O5 2.369639 1_555
La5 O4 2.418832 1_565
La5 O3 2.461522 1_555
La5 O0 2.501405 1_565
La5 S6 3.068926 1_555
La5 S9 3.134292 1_565
La5 S11 3.177175 1_555
La5 S11 3.220973 1_566
La6 O4 2.369639 1_555
La6 O5 2.418832 1_556
La6 O0 2.461522 1_555
La6 O3 2.501405 1_556
La6 S5 3.068926 1_555
La6 S10 3.134281 1_555
La6 S8 3.177170 1_545
La6 S8 3.220973 1_556
La7 O4 2.369634 1_554
La7 O5 2.418831 1_555
La7 O1 2.461529 1_554
La7 O2 2.501416 1_555
La7 S4 3.068923 1_555
La7 S11 3.134281 1_555
La7 S9 3.177170 1_554
La7 S9 3.220973 1_565
As0 S6 2.254352 1_555
As0 S11 2.286621 1_555
As0 S0 2.328078 1_555
As1 S7 2.254349 1_566
As1 S10 2.286637 1_555
As1 S1 2.328070 1_555
As2 S5 2.254352 1_555
As2 S8 2.286624 1_545
As2 S3 2.328078 1_445
As3 S4 2.254347 1_556
As3 S9 2.286619 1_555
As3 S2 2.328069 1_655
