# generated using pymatgen
data_Ca(FeS2)2
_symmetry_space_group_name_H-M   'P 1'
_cell_length_a   7.23581448
_cell_length_b   7.23581448
_cell_length_c   7.23581448
_cell_angle_alpha   120.38425664
_cell_angle_beta   119.79142668
_cell_angle_gamma   89.84868978
_symmetry_Int_Tables_number   1
_chemical_formula_structural   Ca(FeS2)2
_chemical_formula_sum   'Ca2 Fe4 S8'
_cell_volume   267.51863952
_cell_formula_units_Z   2
loop_
 _symmetry_equiv_pos_site_id
 _symmetry_equiv_pos_as_xyz
  1  'x, y, z'
loop_
 _atom_site_type_symbol
 _atom_site_label
 _atom_site_symmetry_multiplicity
 _atom_site_fract_x
 _atom_site_fract_y
 _atom_site_fract_z
 _atom_site_occupancy
  Ca  Ca0  1  0.50000000  0.00000000  0.50000000  1
  Ca  Ca1  1  0.00000000  0.00000000  0.00000000  1
  Fe  Fe0  1  0.87012900  0.62012900  0.25000000  1
  Fe  Fe1  1  0.12987100  0.37987100  0.75000000  1
  Fe  Fe2  1  0.50000000  0.00000000  0.00000000  1
  Fe  Fe3  1  0.50000000  0.50000000  0.50000000  1
  S  S0  1  0.29994600  0.26245600  0.03749000  1
  S  S1  1  0.72496700  0.26245600  0.46251000  1
  S  S2  1  0.27278100  0.29397500  0.52119300  1
  S  S3  1  0.70005400  0.73754400  0.96251000  1
  S  S4  1  0.72721900  0.24841200  0.02119300  1
  S  S5  1  0.27503300  0.73754400  0.53749000  1
  S  S6  1  0.27278100  0.75158800  0.97880700  1
  S  S7  1  0.72721900  0.70602500  0.47880700  1
loop_
_geom_bond_atom_site_label_1
_geom_bond_atom_site_label_2
_geom_bond_distance
_geom_bond_site_symmetry_2
Ca0 S4 2.674592 1_556
Ca0 S6 2.674592 1_544
Ca0 S7 2.674598 1_545
Ca0 S2 2.674598 1_555
Ca0 S5 2.702991 1_545
Ca0 S1 2.702991 1_555
Ca1 S6 2.674592 1_544
Ca1 S4 2.674592 1_455
Ca1 S7 2.674593 1_444
Ca1 S2 2.674593 1_555
Ca1 S0 2.702986 1_555
Ca1 S3 2.702986 1_444
Fe0 S4 2.203066 1_555
Fe0 S7 2.203067 1_555
Fe0 S5 2.408744 1_655
Fe0 S3 2.408750 1_554
Fe1 S6 2.203066 1_555
Fe1 S2 2.203067 1_555
Fe1 S1 2.408744 1_455
Fe1 S0 2.408750 1_556
Fe2 S4 2.333184 1_555
Fe2 S6 2.333184 1_544
Fe2 S5 2.372774 1_544
Fe2 S1 2.372774 1_555
Fe2 S3 2.372774 1_544
Fe2 S0 2.372774 1_555
Fe3 S2 2.333179 1_555
Fe3 S7 2.333179 1_555
Fe3 S0 2.372774 1_555
Fe3 S3 2.372774 1_555
Fe3 S5 2.372780 1_555
Fe3 S1 2.372780 1_555
