# generated using pymatgen
data_Na6Fe2P4HO17
_symmetry_space_group_name_H-M   'P 1'
_cell_length_a   5.28093100
_cell_length_b   9.38103352
_cell_length_c   15.13170690
_cell_angle_alpha   80.34375097
_cell_angle_beta   81.40901456
_cell_angle_gamma   79.15927962
_symmetry_Int_Tables_number   1
_chemical_formula_structural   Na6Fe2P4HO17
_chemical_formula_sum   'Na12 Fe4 P8 H2 O34'
_cell_volume   720.42936264
_cell_formula_units_Z   2
loop_
 _symmetry_equiv_pos_site_id
 _symmetry_equiv_pos_as_xyz
  1  'x, y, z'
loop_
 _atom_site_type_symbol
 _atom_site_label
 _atom_site_symmetry_multiplicity
 _atom_site_fract_x
 _atom_site_fract_y
 _atom_site_fract_z
 _atom_site_occupancy
  Na  Na0  1  0.29957100  0.36288800  0.02030800  1
  Na  Na1  1  0.70038800  0.63664800  0.98017200  1
  Na  Na2  1  0.87894600  0.84354300  0.49257400  1
  Na  Na3  1  0.11988100  0.15942400  0.50632200  1
  Na  Na4  1  0.12073100  0.62357600  0.13279600  1
  Na  Na5  1  0.87926100  0.37607700  0.86759800  1
  Na  Na6  1  0.00009400  0.00005700  0.00023400  1
  Na  Na7  1  0.43504500  0.86440200  0.35469200  1
  Na  Na8  1  0.56521400  0.13740400  0.64406800  1
  Na  Na9  1  0.60481100  0.49934500  0.27259000  1
  Na  Na10  1  0.39349600  0.49966300  0.73005400  1
  Na  Na11  1  0.49108100  0.52356100  0.50904800  1
  Fe  Fe0  1  0.95872000  0.96986000  0.22721300  1
  Fe  Fe1  1  0.04052200  0.03061100  0.77289700  1
  Fe  Fe2  1  0.19009900  0.29202900  0.26937100  1
  Fe  Fe3  1  0.80988300  0.70775100  0.73085400  1
  P  P0  1  0.77313600  0.29973000  0.12315200  1
  P  P1  1  0.22677300  0.70057100  0.87690400  1
  P  P2  1  0.52767000  0.82516800  0.12926800  1
  P  P3  1  0.47194200  0.17459100  0.87094000  1
  P  P4  1  0.99818300  0.62931700  0.35409700  1
  P  P5  1  0.00080700  0.37107800  0.64623700  1
  P  P6  1  0.67391600  0.16945400  0.39069700  1
  P  P7  1  0.32593200  0.83070400  0.60936300  1
  H  H0  1  0.50095600  0.99903300  0.00031300  1
  H  H1  1  0.00131800  0.49971000  0.49939200  1
  O  O0  1  0.06964400  0.78435200  0.31908800  1
  O  O1  1  0.93130800  0.21549400  0.68126500  1
  O  O2  1  0.70224500  0.11034100  0.49013900  1
  O  O3  1  0.29839400  0.88824700  0.50967600  1
  O  O4  1  0.11538100  0.58271900  0.44661200  1
  O  O5  1  0.88317900  0.41728000  0.55400600  1
  O  O6  1  0.85447400  0.13109000  0.12875000  1
  O  O7  1  0.14529800  0.86913200  0.87118300  1
  O  O8  1  0.73157500  0.03813700  0.33507600  1
  O  O9  1  0.26895000  0.96146700  0.66493500  1
  O  O10  1  0.70411200  0.63414500  0.37340800  1
  O  O11  1  0.29465700  0.36756400  0.62775700  1
  O  O12  1  0.39227700  0.25150300  0.37910900  1
  O  O13  1  0.60760400  0.74703400  0.62022300  1
  O  O14  1  0.76430600  0.36995200  0.02384700  1
  O  O15  1  0.23568800  0.63016400  0.97608100  1
  O  O16  1  0.50061100  0.33679300  0.17855100  1
  O  O17  1  0.49919600  0.66353200  0.82135900  1
  O  O18  1  0.63545800  0.89062200  0.03110700  1
  O  O19  1  0.36391600  0.10946400  0.96882200  1
  O  O20  1  0.97873400  0.36512800  0.16228200  1
  O  O21  1  0.02161100  0.63493800  0.83759700  1
  O  O22  1  0.64461000  0.88344600  0.20186400  1
  O  O23  1  0.35597600  0.11648800  0.79793100  1
  O  O24  1  0.22536800  0.86918500  0.13694200  1
  O  O25  1  0.77449700  0.13082400  0.86313000  1
  O  O26  1  0.21236300  0.07991000  0.26085700  1
  O  O27  1  0.78770700  0.91981700  0.73906300  1
  O  O28  1  0.86325100  0.28052000  0.35323300  1
  O  O29  1  0.13781900  0.71842100  0.64634300  1
  O  O30  1  0.60908100  0.65865400  0.13654500  1
  O  O31  1  0.39087000  0.34120400  0.86347700  1
  O  O32  1  0.12940600  0.52248400  0.28518100  1
  O  O33  1  0.86815700  0.47775700  0.71530900  1
loop_
_geom_bond_atom_site_label_1
_geom_bond_atom_site_label_2
_geom_bond_distance
_geom_bond_site_symmetry_2
Na0 O31 2.385112 1_554
Na0 O15 2.456565 1_554
Na0 O14 2.476319 1_555
Na0 O20 2.529956 1_455
Na0 O19 2.571523 1_554
Na0 O16 2.717673 1_555
Na0 O14 2.807665 1_455
Na1 O30 2.378978 1_556
Na1 O14 2.450391 1_556
Na1 O15 2.476426 1_555
Na1 O21 2.537768 1_655
Na1 O18 2.572521 1_556
Na1 O17 2.725090 1_555
Na1 O15 2.807685 1_655
Na2 O13 2.382917 1_555
Na2 O3 2.388826 1_655
Na2 O2 2.497427 1_565
Na2 O4 2.681747 1_655
Na2 O0 2.775373 1_655
Na2 O29 2.844491 1_655
Na2 O8 2.859727 1_565
Na2 O3 2.992999 1_555
Na3 O12 2.367104 1_555
Na3 O2 2.391112 1_455
Na3 O3 2.536080 1_545
Na3 O5 2.667050 1_455
Na3 O1 2.785402 1_455
Na3 O28 2.823005 1_455
Na3 O9 2.889304 1_545
Na3 O2 3.001728 1_555
Na4 O32 2.345209 1_555
Na4 O15 2.351721 1_554
Na4 O24 2.481083 1_555
Na4 O20 2.619287 1_455
Na4 O30 2.652971 1_455
Na4 O30 2.670514 1_555
Na5 O14 2.345326 1_556
Na5 O33 2.346370 1_555
Na5 O25 2.479146 1_555
Na5 O21 2.623575 1_655
Na5 O31 2.652266 1_655
Na5 O31 2.671190 1_555
Na6 O19 2.296967 1_554
Na6 O18 2.300901 1_445
Na6 O6 2.425626 1_455
Na6 O7 2.431615 1_544
Na6 O24 2.556484 1_545
Na6 O25 2.561863 1_454
Na7 O10 2.350641 1_555
Na7 O0 2.359906 1_555
Na7 O3 2.383336 1_555
Na7 O22 2.403277 1_555
Na7 O8 2.419812 1_565
Na7 O26 2.475429 1_565
Na8 O11 2.351678 1_555
Na8 O1 2.363757 1_555
Na8 O2 2.374666 1_555
Na8 O23 2.416554 1_555
Na8 O9 2.433204 1_545
Na8 O27 2.496270 1_545
Na9 O10 2.310205 1_555
Na9 O30 2.332061 1_555
Na9 O16 2.435262 1_555
Na9 O32 2.460165 1_555
Na9 O28 2.483764 1_555
Na9 O20 2.656266 1_555
Na9 O32 2.855876 1_655
Na9 O12 2.906426 1_555
Na10 O31 2.297503 1_555
Na10 O11 2.309203 1_555
Na10 O17 2.418524 1_555
Na10 O33 2.455574 1_555
Na10 O29 2.497125 1_555
Na10 O21 2.629821 1_555
Na10 O33 2.864158 1_455
Na10 O13 2.925306 1_555
Na11 O4 2.259854 1_555
Na11 O5 2.271816 1_555
Na11 O11 2.361492 1_555
Na11 O10 2.364168 1_555
Fe0 O6 1.996604 1_565
Fe0 O8 1.997458 1_565
Fe0 O26 2.004841 1_665
Fe0 O24 2.024486 1_655
Fe0 O0 2.086282 1_655
Fe0 O22 2.087129 1_555
Fe1 O7 1.996880 1_545
Fe1 O9 2.004277 1_545
Fe1 O27 2.007379 1_445
Fe1 O25 2.020502 1_455
Fe1 O1 2.078260 1_455
Fe1 O23 2.088886 1_555
Fe2 O28 1.992737 1_455
Fe2 O26 1.995890 1_555
Fe2 O16 2.036179 1_555
Fe2 O12 2.051107 1_555
Fe2 O20 2.054667 1_455
Fe2 O32 2.173419 1_555
Fe3 O27 1.994434 1_555
Fe3 O29 2.001279 1_655
Fe3 O17 2.033145 1_555
Fe3 O21 2.051291 1_655
Fe3 O13 2.063618 1_555
Fe3 O33 2.168885 1_555
H0 O18 1.193367 1_555
H0 O19 1.216314 1_564
H1 O4 1.196307 1_555
H1 O5 1.217863 1_455
O0 P4 1.557741 1_455
O1 P5 1.558766 1_655
O2 P6 1.533042 1_555
O3 P7 1.533220 1_555
O4 P4 1.576604 1_455
O5 P5 1.573615 1_655
O6 P0 1.550728 1_555
O7 P1 1.549947 1_555
O8 P6 1.564860 1_555
O9 P7 1.560139 1_555
O10 P4 1.530215 1_555
O11 P5 1.530221 1_555
O12 P6 1.561190 1_555
O13 P7 1.564063 1_555
O14 P0 1.539936 1_555
O15 P1 1.538669 1_555
O16 P0 1.563322 1_555
O17 P1 1.563825 1_555
O18 P2 1.574864 1_555
O19 P3 1.570839 1_555
O20 P0 1.571722 1_555
O21 P1 1.572585 1_555
O22 P2 1.555027 1_555
O23 P3 1.556379 1_555
O24 P2 1.563756 1_555
O25 P3 1.564774 1_555
O28 P6 1.559187 1_555
O29 P7 1.561824 1_555
O30 P2 1.529986 1_555
O31 P3 1.530537 1_555
O32 P4 1.563830 1_455
O33 P5 1.566233 1_655
