# generated using pymatgen
data_HfAu
_symmetry_space_group_name_H-M   'P 1'
_cell_length_a   5.61874000
_cell_length_b   5.61874000
_cell_length_c   23.11109000
_cell_angle_alpha   90.00000000
_cell_angle_beta   90.00000000
_cell_angle_gamma   90.00000000
_symmetry_Int_Tables_number   1
_chemical_formula_structural   HfAu
_chemical_formula_sum   'Hf16 Au16'
_cell_volume   729.62263919
_cell_formula_units_Z   16
loop_
 _symmetry_equiv_pos_site_id
 _symmetry_equiv_pos_as_xyz
  1  'x, y, z'
loop_
 _atom_site_type_symbol
 _atom_site_label
 _atom_site_symmetry_multiplicity
 _atom_site_fract_x
 _atom_site_fract_y
 _atom_site_fract_z
 _atom_site_occupancy
  Hf  Hf0_0  1  0.25000000  0.25000000  0.06828700  1
  Hf  Hf0_1  1  0.25000000  0.25000000  0.56828700  1
  Hf  Hf0_2  1  0.25000000  0.75000000  0.06828700  1
  Hf  Hf0_3  1  0.25000000  0.75000000  0.56828700  1
  Hf  Hf0_4  1  0.75000000  0.25000000  0.06828700  1
  Hf  Hf0_5  1  0.75000000  0.25000000  0.56828700  1
  Hf  Hf0_6  1  0.75000000  0.75000000  0.06828700  1
  Hf  Hf0_7  1  0.75000000  0.75000000  0.56828700  1
  Hf  Hf1_0  1  0.25000000  0.25000000  0.43171300  1
  Hf  Hf1_1  1  0.25000000  0.25000000  0.93171300  1
  Hf  Hf1_2  1  0.25000000  0.75000000  0.43171300  1
  Hf  Hf1_3  1  0.25000000  0.75000000  0.93171300  1
  Hf  Hf1_4  1  0.75000000  0.25000000  0.43171300  1
  Hf  Hf1_5  1  0.75000000  0.25000000  0.93171300  1
  Hf  Hf1_6  1  0.75000000  0.75000000  0.43171300  1
  Hf  Hf1_7  1  0.75000000  0.75000000  0.93171300  1
  Au  Au0_0  1  0.25000000  0.25000000  0.31495600  1
  Au  Au0_1  1  0.25000000  0.25000000  0.81495600  1
  Au  Au0_2  1  0.25000000  0.75000000  0.31495600  1
  Au  Au0_3  1  0.25000000  0.75000000  0.81495600  1
  Au  Au0_4  1  0.75000000  0.25000000  0.31495600  1
  Au  Au0_5  1  0.75000000  0.25000000  0.81495600  1
  Au  Au0_6  1  0.75000000  0.75000000  0.31495600  1
  Au  Au0_7  1  0.75000000  0.75000000  0.81495600  1
  Au  Au1_0  1  0.25000000  0.25000000  0.18504400  1
  Au  Au1_1  1  0.25000000  0.25000000  0.68504400  1
  Au  Au1_2  1  0.25000000  0.75000000  0.18504400  1
  Au  Au1_3  1  0.25000000  0.75000000  0.68504400  1
  Au  Au1_4  1  0.75000000  0.25000000  0.18504400  1
  Au  Au1_5  1  0.75000000  0.25000000  0.68504400  1
  Au  Au1_6  1  0.75000000  0.75000000  0.18504400  1
  Au  Au1_7  1  0.75000000  0.75000000  0.68504400  1
loop_
_geom_bond_atom_site_label_1
_geom_bond_atom_site_label_2
_geom_bond_distance
_geom_bond_site_symmetry_2
Hf0_0 Hf0_4 2.809370 1_455
Hf0_0 Hf0_2 2.809370 1_545
Hf0_0 Hf0_2 2.809370 1_555
Hf0_0 Hf0_4 2.809370 1_555
Hf0_0 Hf1_1 3.156374 1_554
Hf0_1 Hf0_3 2.809370 1_545
Hf0_1 Hf0_5 2.809370 1_455
Hf0_1 Hf0_3 2.809370 1_555
Hf0_1 Hf0_5 2.809370 1_555
Hf0_1 Hf1_0 3.156374 1_555
Hf0_2 Hf0_6 2.809370 1_455
Hf0_2 Hf0_6 2.809370 1_555
Hf0_2 Hf1_3 3.156374 1_554
Hf0_3 Hf0_7 2.809370 1_455
Hf0_3 Hf0_7 2.809370 1_555
Hf0_3 Hf1_2 3.156374 1_555
Hf0_4 Hf0_6 2.809370 1_545
Hf0_4 Hf0_6 2.809370 1_555
Hf0_4 Hf1_5 3.156374 1_554
Hf0_5 Hf0_7 2.809370 1_545
Hf0_5 Hf0_7 2.809370 1_555
Hf0_5 Hf1_4 3.156374 1_555
Hf0_6 Hf1_7 3.156374 1_554
Hf0_7 Hf1_6 3.156374 1_555
Hf1_0 Hf1_2 2.809370 1_545
Hf1_0 Hf1_4 2.809370 1_455
Hf1_0 Hf1_2 2.809370 1_555
Hf1_0 Hf1_4 2.809370 1_555
Hf1_1 Hf1_3 2.809370 1_545
Hf1_1 Hf1_5 2.809370 1_455
Hf1_1 Hf1_5 2.809370 1_555
Hf1_1 Hf1_3 2.809370 1_555
Hf1_2 Hf1_6 2.809370 1_455
Hf1_2 Hf1_6 2.809370 1_555
Hf1_3 Hf1_7 2.809370 1_455
Hf1_3 Hf1_7 2.809370 1_555
Hf1_4 Hf1_6 2.809370 1_545
Hf1_4 Hf1_6 2.809370 1_555
Hf1_5 Hf1_7 2.809370 1_545
Hf1_5 Hf1_7 2.809370 1_555
Au0_0 Hf1_0 2.698382 1_555
Au0_0 Au0_2 2.809370 1_545
Au0_0 Au0_4 2.809370 1_455
Au0_0 Au0_4 2.809370 1_555
Au0_0 Au0_2 2.809370 1_555
Au0_0 Au1_0 3.002408 1_555
Au0_1 Hf1_1 2.698382 1_555
Au0_1 Au0_5 2.809370 1_455
Au0_1 Au0_3 2.809370 1_545
Au0_1 Au0_3 2.809370 1_555
Au0_1 Au0_5 2.809370 1_555
Au0_1 Au1_1 3.002408 1_555
Au0_2 Hf1_2 2.698382 1_555
Au0_2 Au0_6 2.809370 1_455
Au0_2 Au0_6 2.809370 1_555
Au0_2 Au1_2 3.002408 1_555
Au0_3 Hf1_3 2.698382 1_555
Au0_3 Au0_7 2.809370 1_455
Au0_3 Au0_7 2.809370 1_555
Au0_3 Au1_3 3.002408 1_555
Au0_4 Hf1_4 2.698382 1_555
Au0_4 Au0_6 2.809370 1_545
Au0_4 Au0_6 2.809370 1_555
Au0_4 Au1_4 3.002408 1_555
Au0_5 Hf1_5 2.698382 1_555
Au0_5 Au0_7 2.809370 1_545
Au0_5 Au0_7 2.809370 1_555
Au0_5 Au1_5 3.002408 1_555
Au0_6 Hf1_6 2.698382 1_555
Au0_6 Au1_6 3.002408 1_555
Au0_7 Hf1_7 2.698382 1_555
Au0_7 Au1_7 3.002408 1_555
Au1_0 Hf0_0 2.698382 1_555
Au1_0 Au1_2 2.809370 1_545
Au1_0 Au1_4 2.809370 1_455
Au1_0 Au1_4 2.809370 1_555
Au1_0 Au1_2 2.809370 1_555
Au1_1 Hf0_1 2.698382 1_555
Au1_1 Au1_3 2.809370 1_545
Au1_1 Au1_5 2.809370 1_455
Au1_1 Au1_5 2.809370 1_555
Au1_1 Au1_3 2.809370 1_555
Au1_2 Hf0_2 2.698382 1_555
Au1_2 Au1_6 2.809370 1_455
Au1_2 Au1_6 2.809370 1_555
Au1_3 Hf0_3 2.698382 1_555
Au1_3 Au1_7 2.809370 1_455
Au1_3 Au1_7 2.809370 1_555
Au1_4 Hf0_4 2.698382 1_555
Au1_4 Au1_6 2.809370 1_545
Au1_4 Au1_6 2.809370 1_555
Au1_5 Hf0_5 2.698382 1_555
Au1_5 Au1_7 2.809370 1_545
Au1_5 Au1_7 2.809370 1_555
Au1_6 Hf0_6 2.698382 1_555
Au1_7 Hf0_7 2.698382 1_555
