# generated using pymatgen
data_Ba4Cu3ReO12
_symmetry_space_group_name_H-M   'P 1'
_cell_length_a   7.07439871
_cell_length_b   7.07439871
_cell_length_c   7.07439871
_cell_angle_alpha   109.47122063
_cell_angle_beta   109.47122063
_cell_angle_gamma   109.47122063
_symmetry_Int_Tables_number   1
_chemical_formula_structural   Ba4Cu3ReO12
_chemical_formula_sum   'Ba4 Cu3 Re1 O12'
_cell_volume   272.55032726
_cell_formula_units_Z   1
loop_
 _symmetry_equiv_pos_site_id
 _symmetry_equiv_pos_as_xyz
  1  'x, y, z'
loop_
 _atom_site_type_symbol
 _atom_site_label
 _atom_site_symmetry_multiplicity
 _atom_site_fract_x
 _atom_site_fract_y
 _atom_site_fract_z
 _atom_site_occupancy
  Ba  Ba0  1  0.00000000  0.50000000  0.00000000  1
  Ba  Ba1  1  0.50000000  0.00000000  0.00000000  1
  Ba  Ba2  1  0.00000000  0.00000000  0.50000000  1
  Ba  Ba3  1  0.50000000  0.50000000  0.50000000  1
  Cu  Cu0  1  0.50000000  0.00000000  0.50000000  1
  Cu  Cu1  1  0.00000000  0.50000000  0.50000000  1
  Cu  Cu2  1  0.50000000  0.50000000  0.00000000  1
  Re  Re0  1  0.00000000  0.00000000  0.00000000  1
  O  O0  1  0.25000000  0.75000000  0.50000000  1
  O  O1  1  0.76805100  0.00000000  0.76805100  1
  O  O2  1  0.00000000  0.76805100  0.76805100  1
  O  O3  1  0.00000000  0.23194900  0.23194900  1
  O  O4  1  0.23194900  0.23194900  0.00000000  1
  O  O5  1  0.23194900  0.00000000  0.23194900  1
  O  O6  1  0.76805100  0.76805100  0.00000000  1
  O  O7  1  0.75000000  0.25000000  0.50000000  1
  O  O8  1  0.50000000  0.25000000  0.75000000  1
  O  O9  1  0.50000000  0.75000000  0.25000000  1
  O  O10  1  0.25000000  0.50000000  0.75000000  1
  O  O11  1  0.75000000  0.50000000  0.25000000  1
loop_
_geom_bond_atom_site_label_1
_geom_bond_atom_site_label_2
_geom_bond_distance
_geom_bond_site_symmetry_2
Ba0 O8 2.888111 1_454
Ba0 O9 2.888111 1_555
Ba0 O11 2.888111 1_455
Ba0 O7 2.888111 1_454
Ba0 O0 2.888111 1_555
Ba0 O10 2.888111 1_554
Ba0 O2 2.891873 1_554
Ba0 O4 2.891873 1_555
Ba0 O1 2.891873 1_454
Ba0 O6 2.891873 1_455
Ba0 O3 2.891873 1_555
Ba0 O5 2.891873 1_565
Ba1 O10 2.888111 1_544
Ba1 O11 2.888111 1_555
Ba1 O0 2.888111 1_544
Ba1 O9 2.888111 1_545
Ba1 O8 2.888111 1_554
Ba1 O7 2.888111 1_555
Ba1 O2 2.891873 1_544
Ba1 O3 2.891873 1_655
Ba1 O4 2.891873 1_555
Ba1 O1 2.891873 1_554
Ba1 O6 2.891873 1_545
Ba1 O5 2.891873 1_555
Ba2 O11 2.888111 1_445
Ba2 O8 2.888111 1_555
Ba2 O9 2.888111 1_445
Ba2 O10 2.888111 1_555
Ba2 O0 2.888111 1_545
Ba2 O7 2.888111 1_455
Ba2 O2 2.891873 1_545
Ba2 O1 2.891873 1_455
Ba2 O6 2.891873 1_445
Ba2 O4 2.891873 1_556
Ba2 O5 2.891873 1_555
Ba2 O3 2.891873 1_555
Ba3 O8 2.888111 1_555
Ba3 O11 2.888111 1_555
Ba3 O10 2.888111 1_555
Ba3 O0 2.888111 1_555
Ba3 O9 2.888111 1_555
Ba3 O7 2.888111 1_555
Ba3 O6 2.891873 1_556
Ba3 O2 2.891873 1_655
Ba3 O4 2.891873 1_555
Ba3 O1 2.891873 1_565
Ba3 O5 2.891873 1_555
Ba3 O3 2.891873 1_555
Cu0 O7 2.042203 1_555
Cu0 O0 2.042203 1_545
Cu0 O9 2.042203 1_545
Cu0 O8 2.042203 1_555
Cu0 O5 2.189658 1_555
Cu0 O1 2.189658 1_555
Cu1 O10 2.042203 1_555
Cu1 O0 2.042203 1_555
Cu1 O7 2.042203 1_455
Cu1 O11 2.042203 1_455
Cu1 O2 2.189658 1_555
Cu1 O3 2.189658 1_555
Cu2 O9 2.042203 1_555
Cu2 O10 2.042203 1_554
Cu2 O8 2.042203 1_554
Cu2 O11 2.042203 1_555
Cu2 O6 2.189658 1_555
Cu2 O4 2.189658 1_555
O1 Re0 1.894748 1_656
O2 Re0 1.894748 1_566
O3 Re0 1.894748 1_555
O4 Re0 1.894748 1_555
O5 Re0 1.894748 1_555
O6 Re0 1.894748 1_665
