# generated using pymatgen
data_FeGeS3
_symmetry_space_group_name_H-M   'P 1'
_cell_length_a   6.04105334
_cell_length_b   7.71783707
_cell_length_c   7.71783692
_cell_angle_alpha   83.75699699
_cell_angle_beta   83.83293520
_cell_angle_gamma   83.83293161
_symmetry_Int_Tables_number   1
_chemical_formula_structural   FeGeS3
_chemical_formula_sum   'Fe4 Ge4 S12'
_cell_volume   353.95859274
_cell_formula_units_Z   4
loop_
 _symmetry_equiv_pos_site_id
 _symmetry_equiv_pos_as_xyz
  1  'x, y, z'
loop_
 _atom_site_type_symbol
 _atom_site_label
 _atom_site_symmetry_multiplicity
 _atom_site_fract_x
 _atom_site_fract_y
 _atom_site_fract_z
 _atom_site_occupancy
  Fe  Fe0  1  0.75000000  0.08525300  0.91474700  1
  Fe  Fe1  1  0.75000000  0.74451700  0.25548300  1
  Fe  Fe2  1  0.25000000  0.25548300  0.74451700  1
  Fe  Fe3  1  0.25000000  0.91474700  0.08525300  1
  Ge  Ge0  1  0.71561800  0.59531300  0.79532600  1
  Ge  Ge1  1  0.21561800  0.79532600  0.59531300  1
  Ge  Ge2  1  0.78438200  0.20467400  0.40468700  1
  Ge  Ge3  1  0.28438200  0.40468700  0.20467400  1
  S  S0  1  0.61146100  0.81998600  0.99540100  1
  S  S1  1  0.11146100  0.99540100  0.81998600  1
  S  S2  1  0.87869900  0.71803600  0.52933800  1
  S  S3  1  0.91635000  0.33743600  0.89689900  1
  S  S4  1  0.37869900  0.52933800  0.71803600  1
  S  S5  1  0.41635000  0.89689900  0.33743600  1
  S  S6  1  0.58365000  0.10310100  0.66256400  1
  S  S7  1  0.62130100  0.47066200  0.28196400  1
  S  S8  1  0.08365000  0.66256400  0.10310100  1
  S  S9  1  0.12130100  0.28196400  0.47066200  1
  S  S10  1  0.88853900  0.00459900  0.18001400  1
  S  S11  1  0.38853900  0.18001400  0.00459900  1
loop_
_geom_bond_atom_site_label_1
_geom_bond_atom_site_label_2
_geom_bond_distance
_geom_bond_site_symmetry_2
Fe0 S6 2.269175 1_555
Fe0 S3 2.269175 1_555
Fe0 S11 2.285986 1_556
Fe0 S1 2.285986 1_645
Fe0 S10 2.293106 1_556
Fe0 S0 2.293106 1_545
Fe1 S0 2.251834 1_554
Fe1 S10 2.251834 1_565
Fe1 S5 2.285688 1_555
Fe1 S8 2.285688 1_655
Fe1 S2 2.310495 1_555
Fe1 S7 2.310495 1_555
Fe2 S11 2.251834 1_556
Fe2 S1 2.251834 1_545
Fe2 S6 2.285688 1_555
Fe2 S3 2.285688 1_455
Fe2 S9 2.310495 1_555
Fe2 S4 2.310495 1_555
Fe3 S5 2.269175 1_555
Fe3 S8 2.269175 1_555
Fe3 S0 2.285986 1_554
Fe3 S10 2.285986 1_465
Fe3 S1 2.293106 1_554
Fe3 S11 2.293106 1_565
Ge0 S4 2.303761 1_555
Ge0 S3 2.322174 1_555
Ge0 S2 2.329154 1_555
Ge0 S0 2.434376 1_555
Ge1 S2 2.303761 1_455
Ge1 S5 2.322174 1_555
Ge1 S4 2.329154 1_555
Ge1 S1 2.434376 1_555
Ge2 S9 2.303761 1_655
Ge2 S6 2.322174 1_555
Ge2 S7 2.329154 1_555
Ge2 S10 2.434376 1_555
Ge3 S7 2.303761 1_555
Ge3 S8 2.322174 1_555
Ge3 S9 2.329154 1_555
Ge3 S11 2.434376 1_555
