# generated using pymatgen
data_Y2CrFeO6
_symmetry_space_group_name_H-M   'P 1'
_cell_length_a   5.26960742
_cell_length_b   5.57383038
_cell_length_c   7.58101485
_cell_angle_alpha   89.99983898
_cell_angle_beta   90.07192768
_cell_angle_gamma   90.00007167
_symmetry_Int_Tables_number   1
_chemical_formula_structural   Y2CrFeO6
_chemical_formula_sum   'Y4 Cr2 Fe2 O12'
_cell_volume   222.66861861
_cell_formula_units_Z   2
loop_
 _symmetry_equiv_pos_site_id
 _symmetry_equiv_pos_as_xyz
  1  'x, y, z'
loop_
 _atom_site_type_symbol
 _atom_site_label
 _atom_site_symmetry_multiplicity
 _atom_site_fract_x
 _atom_site_fract_y
 _atom_site_fract_z
 _atom_site_occupancy
  Y  Y0  1  0.51820740  0.56910257  0.25007587  1
  Y  Y1  1  0.98179372  0.06910144  0.24992383  1
  Y  Y2  1  0.48179548  0.43089707  0.74992420  1
  Y  Y3  1  0.01820500  0.93089739  0.75007727  1
  Cr  Cr0  1  0.00000099  0.50000430  0.49999836  1
  Cr  Cr1  1  0.49999957  0.00000125  -0.00000180  1
  Fe  Fe0  1  0.00000195  0.49999904  0.00000140  1
  Fe  Fe1  1  0.49999858  0.99999873  0.49999962  1
  O  O0  1  0.39023618  0.96219703  0.24902930  1
  O  O1  1  0.10976474  0.46219872  0.25097335  1
  O  O2  1  0.60976439  0.03780385  0.75097033  1
  O  O3  1  0.89023579  0.53780231  0.74902766  1
  O  O4  1  0.80631740  0.80459865  0.05624800  1
  O  O5  1  0.69367803  0.30459204  0.44375144  1
  O  O6  1  0.19368365  0.19540246  0.94375200  1
  O  O7  1  0.30631840  0.69540551  0.55624948  1
  O  O8  1  0.19106977  0.19757458  0.55611180  1
  O  O9  1  0.30893376  0.69757934  0.94389075  1
  O  O10  1  0.80892808  0.80242273  0.44388731  1
  O  O11  1  0.69106812  0.30242099  0.05611083  1
loop_
_geom_bond_atom_site_label_1
_geom_bond_atom_site_label_2
_geom_bond_distance
_geom_bond_site_symmetry_2
Cr0 O1 1.986387 1_555
Cr0 O3 1.986415 1_455
Cr0 O7 1.992959 1_555
Cr0 O5 1.993010 1_455
Cr0 O10 2.008737 1_455
Cr0 O8 2.008782 1_555
Cr1 O2 1.986406 1_554
Cr1 O0 1.986428 1_545
Cr1 O6 1.992946 1_554
Cr1 O4 1.992964 1_545
Cr1 O9 2.008728 1_544
Cr1 O11 2.008734 1_555
Fe0 O1 1.999038 1_555
Fe0 O3 1.999057 1_454
Fe0 O11 2.011395 1_455
Fe0 O9 2.011395 1_554
Fe0 O6 2.026584 1_554
Fe0 O4 2.026601 1_455
Fe1 O0 1.999027 1_555
Fe1 O2 1.999037 1_565
Fe1 O8 2.011375 1_565
Fe1 O10 2.011378 1_555
Fe1 O5 2.026556 1_565
Fe1 O7 2.026561 1_555
O0 Y1 2.233310 1_465
O0 Y0 2.292483 1_555
O1 Y0 2.233309 1_555
O1 Y1 2.292496 1_455
O2 Y3 2.233304 1_645
O2 Y2 2.292472 1_555
O3 Y2 2.233299 1_555
O3 Y3 2.292481 1_655
O4 Y1 2.276177 1_565
O4 Y0 2.488519 1_555
O4 Y3 2.671370 1_654
O5 Y0 2.276188 1_555
O5 Y1 2.488527 1_555
O5 Y2 2.671386 1_555
O6 Y3 2.276185 1_545
O6 Y2 2.488520 1_555
O6 Y1 2.671386 1_456
O7 Y2 2.276190 1_555
O7 Y3 2.488524 1_555
O7 Y0 2.671402 1_555
O8 Y3 2.281404 1_545
O8 Y2 2.488280 1_555
O8 Y1 2.666566 1_455
O9 Y2 2.281428 1_555
O9 Y3 2.488279 1_555
O9 Y0 2.666545 1_556
O10 Y1 2.281401 1_565
O10 Y0 2.488253 1_555
O10 Y3 2.666584 1_655
O11 Y0 2.281416 1_555
O11 Y1 2.488271 1_555
O11 Y2 2.666552 1_554
