# generated using pymatgen
data_MgW4O9
_symmetry_space_group_name_H-M   'P 1'
_cell_length_a   9.72019600
_cell_length_b   9.72019600
_cell_length_c   3.90967200
_cell_angle_alpha   90.00000000
_cell_angle_beta   90.00000000
_cell_angle_gamma   90.00000000
_symmetry_Int_Tables_number   1
_chemical_formula_structural   MgW4O9
_chemical_formula_sum   'Mg2 W8 O18'
_cell_volume   369.39445202
_cell_formula_units_Z   2
loop_
 _symmetry_equiv_pos_site_id
 _symmetry_equiv_pos_as_xyz
  1  'x, y, z'
loop_
 _atom_site_type_symbol
 _atom_site_label
 _atom_site_symmetry_multiplicity
 _atom_site_fract_x
 _atom_site_fract_y
 _atom_site_fract_z
 _atom_site_occupancy
  Mg  Mg0  1  0.50000000  0.00000000  0.02427100  1
  Mg  Mg1  1  0.00000000  0.50000000  0.97572900  1
  W  W0  1  0.58568900  0.28080700  0.52282600  1
  W  W1  1  0.71919300  0.58568900  0.47717400  1
  W  W2  1  0.21919300  0.08568900  0.52282600  1
  W  W3  1  0.08568900  0.78080700  0.47717400  1
  W  W4  1  0.41431100  0.71919300  0.52282600  1
  W  W5  1  0.78080700  0.91431100  0.52282600  1
  W  W6  1  0.91431100  0.21919300  0.47717400  1
  W  W7  1  0.28080700  0.41431100  0.47717400  1
  O  O0  1  0.50000000  0.50000000  0.50000000  1
  O  O1  1  0.00000000  0.00000000  0.50000000  1
  O  O2  1  0.21910300  0.43734100  0.98088100  1
  O  O3  1  0.93734100  0.28089700  0.98088100  1
  O  O4  1  0.06265900  0.71910300  0.98088100  1
  O  O5  1  0.78089700  0.56265900  0.98088100  1
  O  O6  1  0.28089700  0.06265900  0.01911900  1
  O  O7  1  0.56265900  0.21910300  0.01911900  1
  O  O8  1  0.43734100  0.78089700  0.01911900  1
  O  O9  1  0.71910300  0.93734100  0.01911900  1
  O  O10  1  0.62260400  0.76749400  0.51624100  1
  O  O11  1  0.26749400  0.87739600  0.51624100  1
  O  O12  1  0.73250600  0.12260400  0.51624100  1
  O  O13  1  0.37739600  0.23250600  0.51624100  1
  O  O14  1  0.12260400  0.26749400  0.48375900  1
  O  O15  1  0.23250600  0.62260400  0.48375900  1
  O  O16  1  0.76749400  0.37739600  0.48375900  1
  O  O17  1  0.87739600  0.73250600  0.48375900  1
loop_
_geom_bond_atom_site_label_1
_geom_bond_atom_site_label_2
_geom_bond_distance
_geom_bond_site_symmetry_2
Mg0 O9 2.215193 1_545
Mg0 O6 2.215193 1_555
Mg0 O8 2.215193 1_545
Mg0 O7 2.215193 1_555
Mg1 O4 2.215193 1_555
Mg1 O3 2.215193 1_455
Mg1 O2 2.215193 1_555
Mg1 O5 2.215193 1_455
O0 W4 2.289358 1_555
O0 W1 2.289358 1_555
O0 W0 2.289358 1_555
O0 W7 2.289358 1_555
O1 W6 2.289358 1_455
O1 W2 2.289358 1_555
O1 W3 2.289358 1_545
O1 W5 2.289358 1_445
O2 W7 2.043226 1_556
O2 W7 2.070773 1_555
O3 W6 2.043226 1_556
O3 W6 2.070773 1_555
O4 W3 2.043226 1_556
O4 W3 2.070773 1_555
O5 W1 2.043226 1_556
O5 W1 2.070773 1_555
O6 W2 2.043226 1_554
O6 W2 2.070773 1_555
O7 W0 2.043226 1_554
O7 W0 2.070773 1_555
O8 W4 2.043226 1_554
O8 W4 2.070773 1_555
O9 W5 2.043226 1_554
O9 W5 2.070773 1_555
O10 W1 2.006918 1_555
O10 W4 2.078531 1_555
O10 W5 2.098087 1_555
O11 W3 2.006918 1_555
O11 W2 2.078531 1_565
O11 W4 2.098087 1_555
O12 W6 2.006918 1_555
O12 W5 2.078531 1_545
O12 W0 2.098087 1_555
O13 W7 2.006918 1_555
O13 W0 2.078531 1_555
O13 W2 2.098087 1_555
O14 W2 2.006918 1_555
O14 W6 2.078531 1_455
O14 W7 2.098087 1_555
O15 W4 2.006918 1_555
O15 W7 2.078531 1_555
O15 W3 2.098087 1_555
O16 W0 2.006918 1_555
O16 W1 2.078531 1_555
O16 W6 2.098087 1_555
O17 W5 2.006918 1_555
O17 W3 2.078531 1_655
O17 W1 2.098087 1_555
