# generated using pymatgen
data_LaSbRh
_symmetry_space_group_name_H-M   'P 1'
_cell_length_a   4.68572562
_cell_length_b   7.59621474
_cell_length_c   7.91758118
_cell_angle_alpha   90.00000000
_cell_angle_beta   90.00000000
_cell_angle_gamma   90.00000000
_symmetry_Int_Tables_number   1
_chemical_formula_structural   LaSbRh
_chemical_formula_sum   'La4 Sb4 Rh4'
_cell_volume   281.81662699
_cell_formula_units_Z   4
loop_
 _symmetry_equiv_pos_site_id
 _symmetry_equiv_pos_as_xyz
  1  'x, y, z'
loop_
 _atom_site_type_symbol
 _atom_site_label
 _atom_site_symmetry_multiplicity
 _atom_site_fract_x
 _atom_site_fract_y
 _atom_site_fract_z
 _atom_site_occupancy
  La  La0  1  0.25000000  0.51731426  0.19701937  1
  La  La1  1  0.75000000  0.48268574  0.80298063  1
  La  La2  1  0.75000000  0.98268574  0.69701937  1
  La  La3  1  0.25000000  0.01731426  0.30298063  1
  Sb  Sb0  1  0.25000000  0.68387907  0.58828658  1
  Sb  Sb1  1  0.75000000  0.31612093  0.41171342  1
  Sb  Sb2  1  0.75000000  0.81612093  0.08828658  1
  Sb  Sb3  1  0.25000000  0.18387907  0.91171342  1
  Rh  Rh0  1  0.25000000  0.80632928  0.91387327  1
  Rh  Rh1  1  0.75000000  0.19367072  0.08612673  1
  Rh  Rh2  1  0.75000000  0.69367072  0.41387327  1
  Rh  Rh3  1  0.25000000  0.30632928  0.58612673  1
loop_
_geom_bond_atom_site_label_1
_geom_bond_atom_site_label_2
_geom_bond_distance
_geom_bond_site_symmetry_2
La0 Rh0 3.137783 1_554
La0 Rh2 3.198686 1_555
La0 Rh2 3.198686 1_455
La0 Sb1 3.273262 1_555
La0 Sb1 3.273262 1_455
La0 Sb0 3.346313 1_555
La0 Sb2 3.373744 1_555
La0 Sb2 3.373744 1_455
La0 Sb3 3.393830 1_554
La0 Rh3 3.472732 1_555
La0 Rh1 3.507698 1_555
La0 Rh1 3.507698 1_455
La1 Rh1 3.137783 1_556
La1 Rh3 3.198686 1_655
La1 Rh3 3.198686 1_555
La1 Sb0 3.273262 1_555
La1 Sb0 3.273262 1_655
La1 Sb1 3.346313 1_555
La1 Sb3 3.373744 1_655
La1 Sb3 3.373744 1_555
La1 Sb2 3.393830 1_556
La1 Rh2 3.472732 1_555
La1 Rh0 3.507698 1_555
La1 Rh0 3.507698 1_655
La2 Rh2 3.137783 1_555
La2 Rh0 3.198686 1_555
La2 Rh0 3.198686 1_655
La2 Sb3 3.273262 1_665
La2 Sb3 3.273262 1_565
La2 Sb2 3.346313 1_556
La2 Sb0 3.373744 1_555
La2 Sb0 3.373744 1_655
La2 Sb1 3.393830 1_565
La2 Rh1 3.472732 1_566
La2 Rh3 3.507698 1_565
La2 Rh3 3.507698 1_665
La3 Rh3 3.137783 1_555
La3 Rh1 3.198686 1_455
La3 Rh1 3.198686 1_555
La3 Sb2 3.273262 1_545
La3 Sb2 3.273262 1_445
La3 Sb3 3.346313 1_554
La3 Sb1 3.373744 1_555
La3 Sb1 3.373744 1_455
La3 Sb0 3.393830 1_545
La3 Rh0 3.472732 1_544
La3 Rh2 3.507698 1_445
La3 Rh2 3.507698 1_545
Rh0 Sb2 2.720572 1_456
Rh0 Sb2 2.720572 1_556
Rh0 Sb0 2.740539 1_555
Rh0 Sb3 2.868000 1_565
Rh1 Sb3 2.720572 1_654
Rh1 Sb3 2.720572 1_554
Rh1 Sb1 2.740539 1_555
Rh1 Sb2 2.868000 1_545
Rh2 Sb0 2.720572 1_655
Rh2 Sb0 2.720572 1_555
Rh2 Sb2 2.740539 1_555
Rh2 Sb1 2.868000 1_555
Rh3 Sb1 2.720572 1_455
Rh3 Sb1 2.720572 1_555
Rh3 Sb3 2.740539 1_555
Rh3 Sb0 2.868000 1_555
