# generated using pymatgen
data_La2MgCoO6
_symmetry_space_group_name_H-M   'P 1'
_cell_length_a   5.61251012
_cell_length_b   5.61252433
_cell_length_c   9.51435043
_cell_angle_alpha   107.15491046
_cell_angle_beta   89.99979355
_cell_angle_gamma   59.99993512
_symmetry_Int_Tables_number   1
_chemical_formula_structural   La2MgCoO6
_chemical_formula_sum   'La4 Mg2 Co2 O12'
_cell_volume   244.03430905
_cell_formula_units_Z   2
loop_
 _symmetry_equiv_pos_site_id
 _symmetry_equiv_pos_as_xyz
  1  'x, y, z'
loop_
 _atom_site_type_symbol
 _atom_site_label
 _atom_site_symmetry_multiplicity
 _atom_site_fract_x
 _atom_site_fract_y
 _atom_site_fract_z
 _atom_site_occupancy
  La  La0  1  0.62462400  0.75075100  0.12612900  1
  La  La1  1  0.12462900  0.75074200  0.62611600  1
  La  La2  1  0.87537200  0.24925800  0.37388400  1
  La  La3  1  0.37537600  0.24924900  0.87387100  1
  Mg  Mg0  1  0.75000000  0.50000000  0.75000000  1
  Mg  Mg1  1  0.25000000  0.50000000  0.25000000  1
  Co  Co0  1  0.50000000  0.00000000  0.50000000  1
  Co  Co1  1  0.00000000  0.00000000  0.00000000  1
  O  O0  1  0.13595000  0.16945100  0.62330500  1
  O  O1  1  0.63592700  0.16947200  0.12332900  1
  O  O2  1  0.54614900  0.31790000  0.62330600  1
  O  O3  1  0.04614600  0.31792600  0.12333000  1
  O  O4  1  0.69459600  0.75926000  0.62330600  1
  O  O5  1  0.19459800  0.75926100  0.12333000  1
  O  O6  1  0.36407300  0.83052800  0.87667100  1
  O  O7  1  0.86405000  0.83054900  0.37669500  1
  O  O8  1  0.80540200  0.24073900  0.87667000  1
  O  O9  1  0.30540400  0.24074000  0.37669400  1
  O  O10  1  0.95385400  0.68207400  0.87667000  1
  O  O11  1  0.45385100  0.68210000  0.37669400  1
loop_
_geom_bond_atom_site_label_1
_geom_bond_atom_site_label_2
_geom_bond_distance
_geom_bond_site_symmetry_2
La0 O5 2.390307 1_555
La0 O1 2.390321 1_565
La0 O3 2.390324 1_655
La0 O9 2.767934 1_565
La0 O11 2.767950 1_555
La0 O7 2.767972 1_555
La0 O8 2.818547 1_554
La0 O10 2.818551 1_554
La0 O6 2.818558 1_554
La1 O4 2.390327 1_455
La1 O0 2.390338 1_565
La1 O2 2.390338 1_555
La1 O8 2.767899 1_465
La1 O10 2.767915 1_455
La1 O6 2.767934 1_555
La1 O9 2.818326 1_555
La1 O11 2.818329 1_555
La1 O7 2.818339 1_455
La2 O9 2.390321 1_655
La2 O11 2.390341 1_555
La2 O7 2.390341 1_545
La2 O5 2.767898 1_645
La2 O3 2.767912 1_655
La2 O1 2.767937 1_555
La2 O4 2.818325 1_555
La2 O2 2.818332 1_555
La2 O0 2.818336 1_655
La3 O8 2.390307 1_555
La3 O6 2.390321 1_545
La3 O10 2.390324 1_455
La3 O4 2.767934 1_545
La3 O2 2.767950 1_555
La3 O0 2.767972 1_555
La3 O5 2.818547 1_556
La3 O3 2.818551 1_556
La3 O1 2.818558 1_556
Mg0 O6 2.061168 1_555
Mg0 O10 2.061177 1_555
Mg0 O8 2.061201 1_555
Mg0 O0 2.061342 1_655
Mg0 O2 2.061351 1_555
Mg0 O4 2.061375 1_555
Mg1 O1 2.061168 1_555
Mg1 O3 2.061177 1_555
Mg1 O5 2.061201 1_555
Mg1 O7 2.061342 1_455
Mg1 O11 2.061351 1_555
Mg1 O9 2.061375 1_555
Co0 O0 1.963211 1_555
Co0 O7 1.963211 1_545
Co0 O11 1.963213 1_545
Co0 O2 1.963213 1_555
Co0 O4 1.963217 1_545
Co0 O9 1.963217 1_555
Co1 O1 1.963393 1_455
Co1 O6 1.963393 1_544
Co1 O3 1.963395 1_555
Co1 O10 1.963395 1_444
Co1 O5 1.963399 1_545
Co1 O8 1.963399 1_454
