# generated using pymatgen
data_LiU
_symmetry_space_group_name_H-M   'P 1'
_cell_length_a   5.69112800
_cell_length_b   5.69112194
_cell_length_c   11.25319800
_cell_angle_alpha   90.00000882
_cell_angle_beta   90.00000000
_cell_angle_gamma   119.99837266
_symmetry_Int_Tables_number   1
_chemical_formula_structural   LiU
_chemical_formula_sum   'Li8 U8'
_cell_volume   315.65302695
_cell_formula_units_Z   8
loop_
 _symmetry_equiv_pos_site_id
 _symmetry_equiv_pos_as_xyz
  1  'x, y, z'
loop_
 _atom_site_type_symbol
 _atom_site_label
 _atom_site_symmetry_multiplicity
 _atom_site_fract_x
 _atom_site_fract_y
 _atom_site_fract_z
 _atom_site_occupancy
  Li  Li0_0  1  0.33333150  0.16666900  0.37500000  1
  Li  Li0_1  1  0.33333150  0.16666900  0.87500000  1
  Li  Li0_2  1  0.33333150  0.66666900  0.37500000  1
  Li  Li0_3  1  0.33333150  0.66666900  0.87500000  1
  Li  Li0_4  1  0.83333150  0.16666900  0.37500000  1
  Li  Li0_5  1  0.83333150  0.16666900  0.87500000  1
  Li  Li0_6  1  0.83333150  0.66666900  0.37500000  1
  Li  Li0_7  1  0.83333150  0.66666900  0.87500000  1
  U  U0_0  1  0.16666800  0.33333150  0.12500000  1
  U  U0_1  1  0.16666800  0.33333150  0.62500000  1
  U  U0_2  1  0.16666800  0.83333150  0.12500000  1
  U  U0_3  1  0.16666800  0.83333150  0.62500000  1
  U  U0_4  1  0.66666800  0.33333150  0.12500000  1
  U  U0_5  1  0.66666800  0.33333150  0.62500000  1
  U  U0_6  1  0.66666800  0.83333150  0.12500000  1
  U  U0_7  1  0.66666800  0.83333150  0.62500000  1
loop_
_geom_bond_atom_site_label_1
_geom_bond_atom_site_label_2
_geom_bond_distance
_geom_bond_site_symmetry_2
Li0_0 Li0_2 2.845561 1_545
Li0_0 Li0_2 2.845561 1_555
Li0_0 Li0_4 2.845564 1_555
Li0_0 Li0_4 2.845564 1_455
Li0_0 Li0_6 2.845632 1_555
Li0_0 Li0_6 2.845632 1_445
Li0_0 U0_1 3.257847 1_555
Li0_0 U0_0 3.257847 1_555
Li0_0 U0_5 3.257894 1_555
Li0_0 U0_4 3.257894 1_555
Li0_0 U0_2 3.257895 1_545
Li0_0 U0_3 3.257896 1_545
Li0_1 Li0_3 2.845561 1_545
Li0_1 Li0_3 2.845561 1_555
Li0_1 Li0_5 2.845564 1_555
Li0_1 Li0_5 2.845564 1_455
Li0_1 Li0_7 2.845632 1_555
Li0_1 Li0_7 2.845632 1_445
Li0_1 U0_0 3.257847 1_556
Li0_1 U0_1 3.257847 1_555
Li0_1 U0_4 3.257894 1_556
Li0_1 U0_5 3.257894 1_555
Li0_1 U0_3 3.257895 1_545
Li0_1 U0_2 3.257896 1_546
Li0_2 Li0_6 2.845564 1_555
Li0_2 Li0_6 2.845564 1_455
Li0_2 Li0_4 2.845632 1_565
Li0_2 Li0_4 2.845632 1_455
Li0_2 U0_3 3.257847 1_555
Li0_2 U0_2 3.257847 1_555
Li0_2 U0_7 3.257894 1_555
Li0_2 U0_6 3.257894 1_555
Li0_2 U0_0 3.257895 1_555
Li0_2 U0_1 3.257896 1_555
Li0_3 Li0_7 2.845564 1_555
Li0_3 Li0_7 2.845564 1_455
Li0_3 Li0_5 2.845632 1_565
Li0_3 Li0_5 2.845632 1_455
Li0_3 U0_2 3.257847 1_556
Li0_3 U0_3 3.257847 1_555
Li0_3 U0_6 3.257894 1_556
Li0_3 U0_7 3.257894 1_555
Li0_3 U0_1 3.257895 1_555
Li0_3 U0_0 3.257896 1_556
Li0_4 Li0_6 2.845561 1_555
Li0_4 Li0_6 2.845561 1_545
Li0_4 U0_5 3.257847 1_555
Li0_4 U0_4 3.257847 1_555
Li0_4 U0_1 3.257894 1_655
Li0_4 U0_0 3.257894 1_655
Li0_4 U0_6 3.257895 1_545
Li0_4 U0_7 3.257896 1_545
Li0_5 Li0_7 2.845561 1_555
Li0_5 Li0_7 2.845561 1_545
Li0_5 U0_4 3.257847 1_556
Li0_5 U0_5 3.257847 1_555
Li0_5 U0_0 3.257894 1_656
Li0_5 U0_1 3.257894 1_655
Li0_5 U0_7 3.257895 1_545
Li0_5 U0_6 3.257896 1_546
Li0_6 U0_7 3.257847 1_555
Li0_6 U0_6 3.257847 1_555
Li0_6 U0_3 3.257894 1_655
Li0_6 U0_2 3.257894 1_655
Li0_6 U0_4 3.257895 1_555
Li0_6 U0_5 3.257896 1_555
Li0_7 U0_6 3.257847 1_556
Li0_7 U0_7 3.257847 1_555
Li0_7 U0_2 3.257894 1_656
Li0_7 U0_3 3.257894 1_655
Li0_7 U0_5 3.257895 1_555
Li0_7 U0_4 3.257896 1_556
U0_0 U0_2 2.845561 1_555
U0_0 U0_2 2.845561 1_545
U0_0 U0_4 2.845564 1_555
U0_0 U0_4 2.845564 1_455
U0_0 U0_6 2.845632 1_555
U0_0 U0_6 2.845632 1_445
U0_1 U0_3 2.845561 1_545
U0_1 U0_3 2.845561 1_555
U0_1 U0_5 2.845564 1_555
U0_1 U0_5 2.845564 1_455
U0_1 U0_7 2.845632 1_555
U0_1 U0_7 2.845632 1_445
U0_2 U0_6 2.845564 1_555
U0_2 U0_6 2.845564 1_455
U0_2 U0_4 2.845632 1_565
U0_2 U0_4 2.845632 1_455
U0_3 U0_7 2.845564 1_555
U0_3 U0_7 2.845564 1_455
U0_3 U0_5 2.845632 1_455
U0_3 U0_5 2.845632 1_565
U0_4 U0_6 2.845561 1_545
U0_4 U0_6 2.845561 1_555
U0_5 U0_7 2.845561 1_545
U0_5 U0_7 2.845561 1_555
