# generated using pymatgen
data_K2UH6C4SeO15
_symmetry_space_group_name_H-M   'P 1'
_cell_length_a   7.33482500
_cell_length_b   9.03135968
_cell_length_c   12.62703576
_cell_angle_alpha   84.77435938
_cell_angle_beta   89.16895073
_cell_angle_gamma   86.03812993
_symmetry_Int_Tables_number   1
_chemical_formula_structural   K2UH6C4SeO15
_chemical_formula_sum   'K4 U2 H12 C8 Se2 O30'
_cell_volume   830.96278062
_cell_formula_units_Z   2
loop_
 _symmetry_equiv_pos_site_id
 _symmetry_equiv_pos_as_xyz
  1  'x, y, z'
loop_
 _atom_site_type_symbol
 _atom_site_label
 _atom_site_symmetry_multiplicity
 _atom_site_fract_x
 _atom_site_fract_y
 _atom_site_fract_z
 _atom_site_occupancy
  K  K0  1  0.17842400  0.99504100  0.75727300  1
  K  K1  1  0.82157600  0.00495900  0.24272700  1
  K  K2  1  0.20768100  0.48996900  0.65975900  1
  K  K3  1  0.79231900  0.51003100  0.34024100  1
  U  U0  1  0.30022500  0.75372700  0.27585900  1
  U  U1  1  0.69977500  0.24627300  0.72414100  1
  H  H0  1  0.18338900  0.23771400  0.46134100  1
  H  H1  1  0.81661100  0.76228600  0.53865900  1
  H  H2  1  0.31158600  0.58279000  0.90407800  1
  H  H3  1  0.68841400  0.41721000  0.09592200  1
  H  H4  1  0.42209100  0.42653100  0.89753100  1
  H  H5  1  0.57790900  0.57346900  0.10246900  1
  H  H6  1  0.18039600  0.38900700  0.97521400  1
  H  H7  1  0.81960400  0.61099300  0.02478600  1
  H  H8  1  0.10959900  0.33556400  0.10485000  1
  H  H9  1  0.89040100  0.66443600  0.89515000  1
  H  H10  1  0.15427200  0.20664300  0.01034000  1
  H  H11  1  0.84572800  0.79335700  0.98966000  1
  C  C0  1  0.25108200  0.95729300  0.04616400  1
  C  C1  1  0.74891800  0.04270700  0.95383600  1
  C  C2  1  0.32002700  0.80151400  0.01293100  1
  C  C3  1  0.67997300  0.19848600  0.98706900  1
  C  C4  1  0.28393500  0.80851700  0.52768000  1
  C  C5  1  0.71606500  0.19148300  0.47232000  1
  C  C6  1  0.23906500  0.96703000  0.47165200  1
  C  C7  1  0.76093500  0.03297000  0.52834800  1
  Se  Se0  1  0.27744500  0.33338300  0.29534000  1
  Se  Se1  1  0.72255500  0.66661700  0.70466000  1
  O  O0  1  0.05481300  0.72825700  0.27159100  1
  O  O1  1  0.94518700  0.27174300  0.72840900  1
  O  O2  1  0.54392600  0.78511400  0.27947000  1
  O  O3  1  0.45607400  0.21488600  0.72053000  1
  O  O4  1  0.23118400  0.96660200  0.14589500  1
  O  O5  1  0.76881600  0.03339800  0.85410500  1
  O  O6  1  0.36015300  0.70597400  0.09227100  1
  O  O7  1  0.63984700  0.29402600  0.90772900  1
  O  O8  1  0.21798700  0.06200000  0.97427300  1
  O  O9  1  0.78201300  0.93800000  0.02572700  1
  O  O10  1  0.32957400  0.77823500  0.91693200  1
  O  O11  1  0.67042600  0.22176500  0.08306800  1
  O  O12  1  0.23341100  0.97244200  0.36981200  1
  O  O13  1  0.76658900  0.02755800  0.63018800  1
  O  O14  1  0.30225300  0.70588400  0.46292400  1
  O  O15  1  0.69774700  0.29411600  0.53707600  1
  O  O16  1  0.29733500  0.78800900  0.62633300  1
  O  O17  1  0.70266500  0.21199100  0.37366700  1
  O  O18  1  0.21136500  0.07549900  0.52654800  1
  O  O19  1  0.78863500  0.92450100  0.47345200  1
  O  O20  1  0.16941400  0.34334600  0.42371800  1
  O  O21  1  0.83058600  0.65665400  0.57628200  1
  O  O22  1  0.09033900  0.36437700  0.21735700  1
  O  O23  1  0.90966100  0.63562300  0.78264300  1
  O  O24  1  0.37260100  0.50334900  0.28800200  1
  O  O25  1  0.62739900  0.49665100  0.71199800  1
  O  O26  1  0.29782300  0.47593700  0.89308000  1
  O  O27  1  0.70217700  0.52406300  0.10692000  1
  O  O28  1  0.10629900  0.31652100  0.02406500  1
  O  O29  1  0.89370100  0.68347900  0.97593500  1
loop_
_geom_bond_atom_site_label_1
_geom_bond_atom_site_label_2
_geom_bond_distance
_geom_bond_site_symmetry_2
K0 O16 2.699337 1_555
K0 O10 2.858887 1_555
K0 O8 2.882191 1_565
K0 O1 2.926756 1_465
K0 O3 2.944214 1_565
K0 O18 2.948279 1_565
K0 O5 3.235462 1_465
K1 O17 2.699337 1_555
K1 O11 2.858887 1_555
K1 O9 2.882191 1_545
K1 O0 2.926756 1_645
K1 O2 2.944214 1_545
K1 O19 2.948279 1_545
K1 O4 3.235462 1_645
K2 O16 2.808106 1_555
K2 O1 2.916759 1_455
K2 O23 2.965199 1_455
K2 O26 3.018269 1_555
K2 O3 3.024592 1_555
K2 O14 3.116919 1_555
K2 O25 3.163557 1_555
K2 O21 3.201213 1_455
K2 O20 3.392673 1_555
K3 O17 2.808106 1_555
K3 O0 2.916759 1_655
K3 O22 2.965199 1_655
K3 O27 3.018269 1_555
K3 O2 3.024592 1_555
K3 O15 3.116919 1_555
K3 O24 3.163557 1_555
K3 O20 3.201213 1_655
K3 O21 3.392673 1_555
H0 O20 1.025503 1_555
H0 O18 1.615540 1_555
H1 O21 1.025503 1_555
H1 O19 1.615540 1_555
H2 O26 0.999518 1_555
H3 O27 0.999518 1_555
H4 O26 0.986801 1_555
H5 O27 0.986801 1_555
H6 O28 1.034563 1_556
H6 O26 1.533960 1_555
H7 O29 1.034563 1_554
H7 O27 1.533960 1_555
H8 O28 1.050698 1_555
H8 O22 1.470476 1_555
H9 O29 1.050698 1_555
H9 O23 1.470476 1_555
H10 O28 1.058258 1_555
H10 O8 1.466331 1_554
H11 O29 1.058258 1_555
H11 O9 1.466331 1_556
C0 O8 1.263140 1_564
C0 O4 1.275336 1_555
C1 O9 1.263140 1_546
C1 O5 1.275336 1_555
C2 O10 1.249167 1_554
C2 O6 1.284836 1_555
C3 O11 1.249167 1_556
C3 O7 1.284836 1_555
C4 O16 1.246888 1_555
C4 O14 1.289761 1_555
C5 O17 1.246888 1_555
C5 O15 1.289761 1_555
C6 O18 1.254406 1_565
C6 O12 1.283574 1_555
C7 O19 1.254406 1_545
C7 O13 1.283574 1_555
O0 U0 1.832567 1_555
O1 U1 1.832567 1_555
O2 U0 1.830940 1_555
O3 U1 1.830940 1_555
O4 U0 2.441432 1_555
O5 U1 2.441432 1_555
O6 U0 2.424767 1_555
O7 U1 2.424767 1_555
O12 U0 2.413629 1_555
O13 U1 2.413629 1_555
O14 U0 2.362317 1_555
O15 U1 2.362317 1_555
O20 Se0 1.800884 1_555
O21 Se1 1.800884 1_555
O22 Se0 1.693322 1_555
O23 Se1 1.693322 1_555
O24 Se0 1.724032 1_555
O24 U0 2.278579 1_555
O25 Se1 1.724032 1_555
O25 U1 2.278579 1_555
