# generated using pymatgen
data_K2SiO3
_symmetry_space_group_name_H-M   'P 1'
_cell_length_a   12.75416335
_cell_length_b   6.26777253
_cell_length_c   15.72808792
_cell_angle_alpha   72.62456750
_cell_angle_beta   90.00000000
_cell_angle_gamma   90.00000000
_symmetry_Int_Tables_number   1
_chemical_formula_structural   K2SiO3
_chemical_formula_sum   'K24 Si12 O36'
_cell_volume   1199.93358861
_cell_formula_units_Z   12
loop_
 _symmetry_equiv_pos_site_id
 _symmetry_equiv_pos_as_xyz
  1  'x, y, z'
loop_
 _atom_site_type_symbol
 _atom_site_label
 _atom_site_symmetry_multiplicity
 _atom_site_fract_x
 _atom_site_fract_y
 _atom_site_fract_z
 _atom_site_occupancy
  K  K0  1  0.64119186  0.91865286  0.50174114  1
  K  K1  1  0.61539803  0.47433774  0.41865999  1
  K  K2  1  0.88460197  0.47433774  0.91865999  1
  K  K3  1  0.38460197  0.52566226  0.58134001  1
  K  K4  1  0.35880814  0.08134714  0.49825886  1
  K  K5  1  0.85880814  0.91865286  0.00174114  1
  K  K6  1  0.11539803  0.52566226  0.08134001  1
  K  K7  1  0.14119186  0.08134714  0.99825886  1
  K  K8  1  0.41526369  0.22814255  0.02869763  1
  K  K9  1  0.91526369  0.77185745  0.47130237  1
  K  K10  1  0.58473631  0.77185745  0.97130237  1
  K  K11  1  0.08473631  0.22814255  0.52869763  1
  K  K12  1  0.19821749  0.38671053  0.30076328  1
  K  K13  1  0.69821749  0.61328947  0.19923672  1
  K  K14  1  0.80178251  0.61328947  0.69923672  1
  K  K15  1  0.30178251  0.38671053  0.80076328  1
  K  K16  1  0.49593853  0.15783398  0.27906316  1
  K  K17  1  0.99593853  0.84216602  0.22093684  1
  K  K18  1  0.50406147  0.84216602  0.72093684  1
  K  K19  1  0.00406147  0.15783398  0.77906316  1
  K  K20  1  0.38352014  0.61138073  0.14049602  1
  K  K21  1  0.88352014  0.38861927  0.35950398  1
  K  K22  1  0.61647986  0.38861927  0.85950398  1
  K  K23  1  0.11647986  0.61138073  0.64049602  1
  Si  Si0  1  0.24646688  0.97136421  0.21379931  1
  Si  Si1  1  0.74646688  0.02863579  0.28620069  1
  Si  Si2  1  0.75353312  0.02863579  0.78620069  1
  Si  Si3  1  0.25353312  0.97136421  0.71379931  1
  Si  Si4  1  0.38268307  0.67470453  0.36384842  1
  Si  Si5  1  0.88268307  0.32529547  0.13615158  1
  Si  Si6  1  0.61731693  0.32529547  0.63615158  1
  Si  Si7  1  0.11731693  0.67470453  0.86384842  1
  Si  Si8  1  0.15237894  0.77334455  0.39847403  1
  Si  Si9  1  0.65237894  0.22665545  0.10152597  1
  Si  Si10  1  0.84762106  0.22665545  0.60152597  1
  Si  Si11  1  0.34762106  0.77334455  0.89847403  1
  O  O0  1  0.26884239  0.22601321  0.15743035  1
  O  O1  1  0.76884239  0.77398679  0.34256965  1
  O  O2  1  0.73115761  0.77398679  0.84256965  1
  O  O3  1  0.23115761  0.22601321  0.65743035  1
  O  O4  1  0.26634846  0.63320417  0.41623117  1
  O  O5  1  0.76634846  0.36679583  0.08376883  1
  O  O6  1  0.73365154  0.36679583  0.58376883  1
  O  O7  1  0.23365154  0.63320417  0.91623117  1
  O  O8  1  0.13131872  0.89317278  0.47315834  1
  O  O9  1  0.63131872  0.10682722  0.02684166  1
  O  O10  1  0.86868128  0.10682722  0.52684166  1
  O  O11  1  0.36868128  0.89317278  0.97315834  1
  O  O12  1  0.41659521  0.44022451  0.35084140  1
  O  O13  1  0.91659521  0.55977549  0.14915860  1
  O  O14  1  0.58340479  0.55977549  0.64915860  1
  O  O15  1  0.08340479  0.44022451  0.85084140  1
  O  O16  1  0.35778400  0.85344570  0.26292411  1
  O  O17  1  0.03830532  0.78665783  0.91769228  1
  O  O18  1  0.64221600  0.14655430  0.73707589  1
  O  O19  1  0.14221600  0.85344570  0.76292411  1
  O  O20  1  0.17040171  0.97112234  0.30072056  1
  O  O21  1  0.67040171  0.02887766  0.19927944  1
  O  O22  1  0.82959829  0.02887766  0.69927944  1
  O  O23  1  0.32959829  0.97112234  0.80072056  1
  O  O24  1  0.06381313  0.60094191  0.38653695  1
  O  O25  1  0.56381313  0.39905809  0.11346305  1
  O  O26  1  0.93618687  0.39905809  0.61346305  1
  O  O27  1  0.43618687  0.60094191  0.88653695  1
  O  O28  1  0.19623581  0.80886583  0.16277300  1
  O  O29  1  0.69623581  0.19113417  0.33722700  1
  O  O30  1  0.80376419  0.19113417  0.83722700  1
  O  O31  1  0.30376419  0.80886583  0.66277300  1
  O  O32  1  0.46169468  0.78665783  0.41769228  1
  O  O33  1  0.96169468  0.21334217  0.08230772  1
  O  O34  1  0.53830532  0.21334217  0.58230772  1
  O  O35  1  0.85778400  0.14655430  0.23707589  1
loop_
_geom_bond_atom_site_label_1
_geom_bond_atom_site_label_2
_geom_bond_distance
_geom_bond_site_symmetry_2
K0 O29 2.732288 1_565
K0 O14 2.804242 1_555
K0 O34 2.852563 1_565
K0 O32 2.885516 1_555
K0 O10 3.200524 1_565
K1 O29 2.685533 1_555
K1 O1 2.728959 1_555
K1 O32 2.767209 1_555
K1 O12 2.783662 1_555
K1 O34 2.784393 1_555
K1 O6 2.902972 1_555
K2 O30 2.685533 1_555
K2 O2 2.728959 1_555
K2 O17 2.767209 1_655
K2 O15 2.783662 1_655
K2 O33 2.784393 1_556
K2 O5 2.902972 1_556
K3 O31 2.685533 1_555
K3 O3 2.728959 1_555
K3 O34 2.767209 1_555
K3 O14 2.783662 1_555
K3 O32 2.784393 1_555
K3 O4 2.902972 1_555
K4 O31 2.732288 1_545
K4 O12 2.804242 1_555
K4 O32 2.852563 1_545
K4 O34 2.885516 1_555
K4 O8 3.200524 1_545
K5 O30 2.732288 1_564
K5 O13 2.804242 1_555
K5 O33 2.852563 1_565
K5 O17 2.885516 1_654
K5 O9 3.200524 1_565
K6 O28 2.685533 1_555
K6 O0 2.728959 1_555
K6 O33 2.767209 1_455
K6 O13 2.783662 1_455
K6 O17 2.784393 1_554
K6 O7 2.902972 1_554
K7 O28 2.732288 1_546
K7 O15 2.804242 1_555
K7 O17 2.852563 1_545
K7 O33 2.885516 1_456
K7 O11 3.200524 1_545
K8 O11 2.572811 1_544
K8 O25 2.714337 1_555
K8 O27 2.722120 1_554
K8 O0 2.751548 1_555
K8 O9 2.861052 1_555
K9 O10 2.572811 1_565
K9 O24 2.714337 1_655
K9 O26 2.722120 1_555
K9 O1 2.751548 1_555
K9 O8 2.861052 1_655
K10 O9 2.572811 1_566
K10 O27 2.714337 1_555
K10 O25 2.722120 1_556
K10 O2 2.751548 1_555
K10 O11 2.861052 1_555
K11 O8 2.572811 1_545
K11 O26 2.714337 1_455
K11 O24 2.722120 1_555
K11 O3 2.751548 1_555
K11 O10 2.861052 1_455
K12 O20 2.629059 1_545
K12 O24 2.764667 1_555
K12 O4 2.848856 1_555
K12 O0 2.874737 1_555
K12 O28 2.877892 1_555
K12 O12 2.940771 1_555
K13 O21 2.629059 1_565
K13 O25 2.764667 1_555
K13 O5 2.848856 1_555
K13 O1 2.874737 1_555
K13 O29 2.877892 1_555
K13 O13 2.940771 1_555
K14 O22 2.629059 1_565
K14 O26 2.764667 1_555
K14 O6 2.848856 1_555
K14 O2 2.874737 1_555
K14 O30 2.877892 1_555
K14 O14 2.940771 1_555
K15 O23 2.629059 1_545
K15 O27 2.764667 1_555
K15 O7 2.848856 1_555
K15 O3 2.874737 1_555
K15 O31 2.877892 1_555
K15 O15 2.940771 1_555
K16 O12 2.573857 1_555
K16 O16 2.664267 1_545
K16 O32 2.706935 1_545
K16 O25 2.732613 1_555
K16 O29 2.742367 1_555
K16 O21 2.790148 1_555
K17 O13 2.573857 1_555
K17 O35 2.664267 1_565
K17 O33 2.706935 1_565
K17 O24 2.732613 1_655
K17 O28 2.742367 1_655
K17 O20 2.790148 1_655
K18 O14 2.573857 1_555
K18 O18 2.664267 1_565
K18 O34 2.706935 1_565
K18 O27 2.732613 1_555
K18 O31 2.742367 1_555
K18 O23 2.790148 1_555
K19 O15 2.573857 1_555
K19 O19 2.664267 1_545
K19 O17 2.706935 1_545
K19 O26 2.732613 1_455
K19 O30 2.742367 1_455
K19 O22 2.790148 1_455
K20 O11 2.702933 1_554
K20 O25 2.752700 1_555
K20 O28 2.760361 1_555
K20 O0 2.767688 1_555
K20 O16 2.803985 1_555
K20 O12 3.186551 1_555
K21 O10 2.702933 1_555
K21 O24 2.752700 1_655
K21 O29 2.760361 1_555
K21 O1 2.767688 1_555
K21 O35 2.803985 1_555
K21 O13 3.186551 1_555
K22 O9 2.702933 1_556
K22 O27 2.752700 1_555
K22 O30 2.760361 1_555
K22 O2 2.767688 1_555
K22 O18 2.803985 1_555
K22 O14 3.186551 1_555
K23 O8 2.702933 1_555
K23 O26 2.752700 1_455
K23 O31 2.760361 1_555
K23 O3 2.767688 1_555
K23 O19 2.803985 1_555
K23 O15 3.186551 1_555
O0 Si0 1.603054 1_545
O1 Si1 1.603054 1_565
O2 Si2 1.603054 1_565
O3 Si3 1.603054 1_545
O4 Si8 1.678072 1_555
O4 Si4 1.679273 1_555
O5 Si9 1.678072 1_555
O5 Si5 1.679273 1_555
O6 Si10 1.678072 1_555
O6 Si6 1.679273 1_555
O7 Si11 1.678072 1_555
O7 Si7 1.679273 1_555
O8 Si8 1.594658 1_555
O9 Si9 1.594658 1_555
O10 Si10 1.594658 1_555
O11 Si11 1.594658 1_555
O12 Si4 1.602629 1_555
O13 Si5 1.602629 1_555
O14 Si6 1.602629 1_555
O15 Si7 1.602629 1_555
O16 Si4 1.677345 1_555
O16 Si0 1.678649 1_555
O17 Si7 1.606233 1_555
O18 Si6 1.677345 1_555
O18 Si2 1.678649 1_555
O19 Si7 1.677345 1_555
O19 Si3 1.678649 1_555
O20 Si0 1.675985 1_555
O20 Si8 1.677802 1_555
O21 Si1 1.675985 1_555
O21 Si9 1.677802 1_555
O22 Si2 1.675985 1_555
O22 Si10 1.677802 1_555
O23 Si3 1.675985 1_555
O23 Si11 1.677802 1_555
O24 Si8 1.612461 1_555
O25 Si9 1.612461 1_555
O26 Si10 1.612461 1_555
O27 Si11 1.612461 1_555
O28 Si0 1.606259 1_555
O29 Si1 1.606259 1_555
O30 Si2 1.606259 1_555
O31 Si3 1.606259 1_555
O32 Si4 1.606233 1_555
O33 Si5 1.606233 1_555
O34 Si6 1.606233 1_555
O35 Si5 1.677345 1_555
O35 Si1 1.678649 1_555
