# generated using pymatgen
data_Lu3Co4Ge13
_symmetry_space_group_name_H-M   'P 1'
_cell_length_a   8.74173400
_cell_length_b   8.74173400
_cell_length_c   8.74173400
_cell_angle_alpha   90.00000000
_cell_angle_beta   90.00000000
_cell_angle_gamma   90.00000000
_symmetry_Int_Tables_number   1
_chemical_formula_structural   Lu3Co4Ge13
_chemical_formula_sum   'Lu6 Co8 Ge26'
_cell_volume   668.02507114
_cell_formula_units_Z   2
loop_
 _symmetry_equiv_pos_site_id
 _symmetry_equiv_pos_as_xyz
  1  'x, y, z'
loop_
 _atom_site_type_symbol
 _atom_site_label
 _atom_site_symmetry_multiplicity
 _atom_site_fract_x
 _atom_site_fract_y
 _atom_site_fract_z
 _atom_site_occupancy
  Lu  Lu0  1  0.00000000  0.50000000  0.75000000  1
  Lu  Lu1  1  0.50000000  0.25000000  0.00000000  1
  Lu  Lu2  1  0.75000000  0.00000000  0.50000000  1
  Lu  Lu3  1  0.00000000  0.50000000  0.25000000  1
  Lu  Lu4  1  0.50000000  0.75000000  0.00000000  1
  Lu  Lu5  1  0.25000000  0.00000000  0.50000000  1
  Co  Co0  1  0.75000000  0.25000000  0.75000000  1
  Co  Co1  1  0.25000000  0.75000000  0.25000000  1
  Co  Co2  1  0.75000000  0.75000000  0.25000000  1
  Co  Co3  1  0.25000000  0.25000000  0.75000000  1
  Co  Co4  1  0.25000000  0.75000000  0.75000000  1
  Co  Co5  1  0.75000000  0.25000000  0.25000000  1
  Co  Co6  1  0.25000000  0.25000000  0.25000000  1
  Co  Co7  1  0.75000000  0.75000000  0.75000000  1
  Ge  Ge0  1  0.50000000  0.50000000  0.50000000  1
  Ge  Ge1  1  0.00000000  0.00000000  0.00000000  1
  Ge  Ge2  1  0.80572800  0.34693100  0.50000000  1
  Ge  Ge3  1  0.65306900  0.50000000  0.80572800  1
  Ge  Ge4  1  0.50000000  0.19427200  0.65306900  1
  Ge  Ge5  1  0.19427200  0.65306900  0.50000000  1
  Ge  Ge6  1  0.34693100  0.50000000  0.19427200  1
  Ge  Ge7  1  0.50000000  0.80572800  0.34693100  1
  Ge  Ge8  1  0.80572800  0.65306900  0.50000000  1
  Ge  Ge9  1  0.65306900  0.50000000  0.19427200  1
  Ge  Ge10  1  0.19427200  0.34693100  0.50000000  1
  Ge  Ge11  1  0.34693100  0.50000000  0.80572800  1
  Ge  Ge12  1  0.50000000  0.80572800  0.65306900  1
  Ge  Ge13  1  0.50000000  0.19427200  0.34693100  1
  Ge  Ge14  1  0.30572800  0.00000000  0.84693100  1
  Ge  Ge15  1  0.15306900  0.30572800  0.00000000  1
  Ge  Ge16  1  0.00000000  0.15306900  0.69427200  1
  Ge  Ge17  1  0.69427200  0.00000000  0.15306900  1
  Ge  Ge18  1  0.84693100  0.69427200  0.00000000  1
  Ge  Ge19  1  0.00000000  0.84693100  0.30572800  1
  Ge  Ge20  1  0.30572800  0.00000000  0.15306900  1
  Ge  Ge21  1  0.15306900  0.69427200  0.00000000  1
  Ge  Ge22  1  0.69427200  0.00000000  0.84693100  1
  Ge  Ge23  1  0.84693100  0.30572800  0.00000000  1
  Ge  Ge24  1  0.00000000  0.15306900  0.30572800  1
  Ge  Ge25  1  0.00000000  0.84693100  0.69427200  1
loop_
_geom_bond_atom_site_label_1
_geom_bond_atom_site_label_2
_geom_bond_distance
_geom_bond_site_symmetry_2
Co0 Ge22 2.394042 1_555
Co0 Ge23 2.394042 1_556
Co0 Ge4 2.394042 1_555
Co0 Ge3 2.394042 1_555
Co0 Ge2 2.394042 1_555
Co0 Ge16 2.394042 1_655
Co0 Lu2 3.090670 1_555
Co0 Lu0 3.090670 1_655
Co0 Lu1 3.090670 1_556
Co1 Ge7 2.394042 1_555
Co1 Ge19 2.394042 1_555
Co1 Ge6 2.394042 1_555
Co1 Ge5 2.394042 1_555
Co1 Ge20 2.394042 1_565
Co1 Ge21 2.394042 1_555
Co1 Lu5 3.090670 1_565
Co1 Lu3 3.090670 1_555
Co1 Lu4 3.090670 1_555
Co2 Ge9 2.394042 1_555
Co2 Ge7 2.394042 1_555
Co2 Ge19 2.394042 1_655
Co2 Ge18 2.394042 1_555
Co2 Ge8 2.394042 1_555
Co2 Ge17 2.394042 1_565
Co2 Lu2 3.090670 1_565
Co2 Lu4 3.090670 1_555
Co2 Lu3 3.090670 1_655
Co3 Ge10 2.394042 1_555
Co3 Ge11 2.394042 1_555
Co3 Ge4 2.394042 1_555
Co3 Ge14 2.394042 1_555
Co3 Ge16 2.394042 1_555
Co3 Ge15 2.394042 1_556
Co3 Lu5 3.090670 1_555
Co3 Lu0 3.090670 1_555
Co3 Lu1 3.090670 1_556
Co4 Ge25 2.394042 1_555
Co4 Ge11 2.394042 1_555
Co4 Ge12 2.394042 1_555
Co4 Ge5 2.394042 1_555
Co4 Ge14 2.394042 1_565
Co4 Ge21 2.394042 1_556
Co4 Lu5 3.090670 1_565
Co4 Lu0 3.090670 1_555
Co4 Lu4 3.090670 1_556
Co5 Ge9 2.394042 1_555
Co5 Ge23 2.394042 1_555
Co5 Ge13 2.394042 1_555
Co5 Ge2 2.394042 1_555
Co5 Ge17 2.394042 1_555
Co5 Ge24 2.394042 1_655
Co5 Lu2 3.090670 1_555
Co5 Lu3 3.090670 1_655
Co5 Lu1 3.090670 1_555
Co6 Ge10 2.394042 1_555
Co6 Ge13 2.394042 1_555
Co6 Ge6 2.394042 1_555
Co6 Ge24 2.394042 1_555
Co6 Ge20 2.394042 1_555
Co6 Ge15 2.394042 1_555
Co6 Lu5 3.090670 1_555
Co6 Lu3 3.090670 1_555
Co6 Lu1 3.090670 1_555
Co7 Ge18 2.394042 1_556
Co7 Ge22 2.394042 1_565
Co7 Ge25 2.394042 1_655
Co7 Ge8 2.394042 1_555
Co7 Ge12 2.394042 1_555
Co7 Ge3 2.394042 1_555
Co7 Lu2 3.090670 1_565
Co7 Lu0 3.090670 1_655
Co7 Lu4 3.090670 1_556
Ge0 Ge6 2.988852 1_555
Ge0 Ge8 2.988852 1_555
Ge0 Ge2 2.988852 1_555
Ge0 Ge12 2.988852 1_555
Ge0 Ge3 2.988852 1_555
Ge0 Ge5 2.988852 1_555
Ge0 Ge9 2.988852 1_555
Ge0 Ge10 2.988852 1_555
Ge0 Ge7 2.988852 1_555
Ge0 Ge11 2.988852 1_555
Ge0 Ge4 2.988852 1_555
Ge0 Ge13 2.988852 1_555
Ge1 Ge24 2.988852 1_555
Ge1 Ge15 2.988852 1_555
Ge1 Ge20 2.988852 1_555
Ge1 Ge21 2.988852 1_545
Ge1 Ge16 2.988852 1_554
Ge1 Ge17 2.988852 1_455
Ge1 Ge19 2.988852 1_545
Ge1 Ge25 2.988852 1_544
Ge1 Ge22 2.988852 1_454
Ge1 Ge18 2.988852 1_445
Ge1 Ge23 2.988852 1_455
Ge1 Ge14 2.988852 1_554
Ge2 Ge8 2.676177 1_555
Ge2 Ge24 2.939429 1_655
Ge2 Lu2 3.071656 1_555
Ge2 Lu0 3.074205 1_655
Ge2 Lu3 3.074205 1_655
Ge3 Lu0 3.071656 1_655
Ge3 Lu4 3.074205 1_556
Ge3 Lu1 3.074205 1_556
Ge4 Lu1 3.071656 1_556
Ge4 Lu5 3.074205 1_555
Ge4 Lu2 3.074205 1_555
Ge5 Lu5 3.071656 1_565
Ge5 Lu3 3.074205 1_555
Ge5 Lu0 3.074205 1_555
Ge6 Ge9 2.676177 1_555
Ge6 Lu3 3.071656 1_555
Ge6 Lu4 3.074205 1_555
Ge6 Lu1 3.074205 1_555
Ge7 Lu4 3.071656 1_555
Ge7 Lu2 3.074205 1_565
Ge7 Lu5 3.074205 1_565
Ge8 Lu2 3.071656 1_565
Ge8 Lu0 3.074205 1_655
Ge8 Lu3 3.074205 1_655
Ge9 Lu3 3.071656 1_655
Ge9 Lu4 3.074205 1_555
Ge9 Lu1 3.074205 1_555
Ge10 Ge5 2.676177 1_555
Ge10 Ge24 2.939429 1_555
Ge10 Ge16 2.939429 1_555
Ge10 Lu5 3.071656 1_555
Ge10 Lu3 3.074205 1_555
Ge10 Lu0 3.074205 1_555
Ge11 Ge3 2.676177 1_555
Ge11 Ge15 2.939429 1_556
Ge11 Ge21 2.939429 1_556
Ge11 Lu0 3.071656 1_555
Ge11 Lu4 3.074205 1_556
Ge11 Lu1 3.074205 1_556
Ge12 Ge7 2.676177 1_555
Ge12 Ge14 2.939429 1_565
Ge12 Ge22 2.939429 1_565
Ge12 Lu4 3.071656 1_556
Ge12 Lu2 3.074205 1_565
Ge12 Lu5 3.074205 1_565
Ge13 Ge4 2.676177 1_555
Ge13 Ge17 2.939429 1_555
Ge13 Ge20 2.939429 1_555
Ge13 Lu1 3.071656 1_555
Ge13 Lu5 3.074205 1_555
Ge13 Lu2 3.074205 1_555
Ge14 Ge20 2.676177 1_556
Ge14 Ge4 2.939429 1_555
Ge14 Lu5 3.071656 1_555
Ge14 Lu4 3.074205 1_546
Ge14 Lu1 3.074205 1_556
Ge15 Ge23 2.676177 1_455
Ge15 Ge6 2.939429 1_555
Ge15 Lu1 3.071656 1_555
Ge15 Lu0 3.074205 1_554
Ge15 Lu3 3.074205 1_555
Ge16 Ge25 2.676177 1_545
Ge16 Ge2 2.939429 1_455
Ge16 Lu0 3.071656 1_555
Ge16 Lu2 3.074205 1_455
Ge16 Lu5 3.074205 1_555
Ge17 Ge22 2.676177 1_554
Ge17 Ge7 2.939429 1_545
Ge17 Lu2 3.071656 1_555
Ge17 Lu4 3.074205 1_545
Ge17 Lu1 3.074205 1_555
Ge18 Ge21 2.676177 1_655
Ge18 Ge3 2.939429 1_554
Ge18 Ge9 2.939429 1_555
Ge18 Lu4 3.071656 1_555
Ge18 Lu0 3.074205 1_654
Ge18 Lu3 3.074205 1_655
Ge19 Ge24 2.676177 1_565
Ge19 Ge8 2.939429 1_455
Ge19 Ge5 2.939429 1_555
Ge19 Lu3 3.071656 1_555
Ge19 Lu2 3.074205 1_465
Ge19 Lu5 3.074205 1_565
Ge20 Ge7 2.939429 1_545
Ge20 Lu5 3.071656 1_555
Ge20 Lu4 3.074205 1_545
Ge20 Lu1 3.074205 1_555
Ge21 Ge6 2.939429 1_555
Ge21 Lu4 3.071656 1_555
Ge21 Lu0 3.074205 1_554
Ge21 Lu3 3.074205 1_555
Ge22 Ge4 2.939429 1_555
Ge22 Lu2 3.071656 1_555
Ge22 Lu4 3.074205 1_546
Ge22 Lu1 3.074205 1_556
Ge23 Ge3 2.939429 1_554
Ge23 Ge9 2.939429 1_555
Ge23 Lu1 3.071656 1_555
Ge23 Lu0 3.074205 1_654
Ge23 Lu3 3.074205 1_655
Ge24 Lu3 3.071656 1_555
Ge24 Lu2 3.074205 1_455
Ge24 Lu5 3.074205 1_555
Ge25 Ge8 2.939429 1_455
Ge25 Ge5 2.939429 1_555
Ge25 Lu0 3.071656 1_555
Ge25 Lu2 3.074205 1_465
Ge25 Lu5 3.074205 1_565
