# generated using pymatgen
data_MnTl2H12(SO7)2
_symmetry_space_group_name_H-M   'P 1'
_cell_length_a   6.33954381
_cell_length_b   9.41103749
_cell_length_c   12.84319000
_cell_angle_alpha   90.00000000
_cell_angle_beta   90.00000000
_cell_angle_gamma   105.50473125
_symmetry_Int_Tables_number   1
_chemical_formula_structural   MnTl2H12(SO7)2
_chemical_formula_sum   'Mn2 Tl4 H24 S4 O28'
_cell_volume   738.36140582
_cell_formula_units_Z   2
loop_
 _symmetry_equiv_pos_site_id
 _symmetry_equiv_pos_as_xyz
  1  'x, y, z'
loop_
 _atom_site_type_symbol
 _atom_site_label
 _atom_site_symmetry_multiplicity
 _atom_site_fract_x
 _atom_site_fract_y
 _atom_site_fract_z
 _atom_site_occupancy
  Mn  Mn0  1  0.00000000  0.50000000  0.50000000  1
  Mn  Mn1  1  0.00000000  0.00000000  0.00000000  1
  Tl  Tl0  1  0.34414700  0.61872600  0.13662800  1
  Tl  Tl1  1  0.65585300  0.88127400  0.63662800  1
  Tl  Tl2  1  0.65585300  0.38127400  0.86337200  1
  Tl  Tl3  1  0.34414700  0.11872600  0.36337200  1
  H  H0  1  0.32727400  0.72170400  0.40086400  1
  H  H1  1  0.67272600  0.77829600  0.90086400  1
  H  H2  1  0.67272600  0.27829600  0.59913600  1
  H  H3  1  0.32727400  0.22170400  0.09913600  1
  H  H4  1  0.09502600  0.74856300  0.36871300  1
  H  H5  1  0.90497400  0.75143700  0.86871300  1
  H  H6  1  0.90497400  0.25143700  0.63128700  1
  H  H7  1  0.09502600  0.24856300  0.13128700  1
  H  H8  1  0.92764800  0.22406400  0.39567400  1
  H  H9  1  0.07235200  0.27593600  0.89567400  1
  H  H10  1  0.07235200  0.77593600  0.60432600  1
  H  H11  1  0.92764800  0.72406400  0.10432600  1
  H  H12  1  0.99124200  0.34871400  0.30916100  1
  H  H13  1  0.00875800  0.15128600  0.80916100  1
  H  H14  1  0.00875800  0.65128600  0.69083900  1
  H  H15  1  0.99124200  0.84871400  0.19083900  1
  H  H16  1  0.34928100  0.40094000  0.56593900  1
  H  H17  1  0.65071900  0.09906000  0.06593900  1
  H  H18  1  0.65071900  0.59906000  0.43406100  1
  H  H19  1  0.34928100  0.90094000  0.93406100  1
  H  H20  1  0.33416000  0.52447600  0.64662200  1
  H  H21  1  0.66584000  0.97552400  0.14662200  1
  H  H22  1  0.66584000  0.47552400  0.35337800  1
  H  H23  1  0.33416000  0.02447600  0.85337800  1
  S  S0  1  0.73487100  0.90503300  0.35996700  1
  S  S1  1  0.26512900  0.59496700  0.85996700  1
  S  S2  1  0.26512900  0.09496700  0.64003300  1
  S  S3  1  0.73487100  0.40503300  0.14003300  1
  O  O0  1  0.59417700  0.91600700  0.26881700  1
  O  O1  1  0.40582300  0.58399300  0.76881700  1
  O  O2  1  0.40582300  0.08399300  0.73118300  1
  O  O3  1  0.59417700  0.41600700  0.23118300  1
  O  O4  1  0.78149200  0.04279800  0.42348300  1
  O  O5  1  0.21850800  0.45720200  0.92348300  1
  O  O6  1  0.21850800  0.95720200  0.57651700  1
  O  O7  1  0.78149200  0.54279800  0.07651700  1
  O  O8  1  0.61232400  0.77940300  0.42744000  1
  O  O9  1  0.38767600  0.72059700  0.92744000  1
  O  O10  1  0.38767600  0.22059700  0.57256000  1
  O  O11  1  0.61232400  0.27940300  0.07256000  1
  O  O12  1  0.94578300  0.87782500  0.32316100  1
  O  O13  1  0.05421700  0.62217500  0.82316100  1
  O  O14  1  0.05421700  0.12217500  0.67683900  1
  O  O15  1  0.94578300  0.37782500  0.17683900  1
  O  O16  1  0.17044400  0.67246000  0.38696500  1
  O  O17  1  0.82955600  0.82754000  0.88696500  1
  O  O18  1  0.82955600  0.32754000  0.61303500  1
  O  O19  1  0.17044400  0.17246000  0.11303500  1
  O  O20  1  0.01955800  0.32611300  0.38263300  1
  O  O21  1  0.98044200  0.17388700  0.88263300  1
  O  O22  1  0.98044200  0.67388700  0.61736700  1
  O  O23  1  0.01955800  0.82611300  0.11736700  1
  O  O24  1  0.30703400  0.49450900  0.57238600  1
  O  O25  1  0.69296600  0.00549100  0.07238600  1
  O  O26  1  0.69296600  0.50549100  0.42761400  1
  O  O27  1  0.30703400  0.99450900  0.92761400  1
loop_
_geom_bond_atom_site_label_1
_geom_bond_atom_site_label_2
_geom_bond_distance
_geom_bond_site_symmetry_2
Mn0 O24 2.170119 1_555
Mn0 O26 2.170119 1_455
Mn0 O16 2.229728 1_555
Mn0 O18 2.229728 1_455
Mn0 O20 2.252554 1_555
Mn0 O22 2.252554 1_455
Mn1 O27 2.170119 1_544
Mn1 O25 2.170119 1_455
Mn1 O19 2.229728 1_555
Mn1 O17 2.229728 1_444
Mn1 O23 2.252554 1_545
Mn1 O21 2.252554 1_454
H0 O16 0.994381 1_555
H1 O17 0.994381 1_555
H2 O18 0.994381 1_555
H3 O19 0.994381 1_555
H4 O16 0.989734 1_555
H5 O17 0.989734 1_555
H6 O18 0.989734 1_555
H7 O19 0.989734 1_555
H8 O20 0.995350 1_655
H9 O21 0.995350 1_455
H10 O22 0.995350 1_455
H11 O23 0.995350 1_655
H12 O20 0.994126 1_655
H13 O21 0.994126 1_455
H14 O22 0.994126 1_455
H15 O23 0.994126 1_655
H16 O24 0.990000 1_555
H17 O25 0.990000 1_555
H18 O26 0.990000 1_555
H19 O27 0.990000 1_555
H20 O24 0.996094 1_555
H20 O1 1.687310 1_555
H21 O25 0.996094 1_565
H21 O0 1.687310 1_555
H22 O26 0.996094 1_555
H22 O3 1.687310 1_555
H23 O27 0.996094 1_545
H23 O2 1.687310 1_555
O0 S0 1.491946 1_555
O1 S1 1.491946 1_555
O2 S2 1.491946 1_555
O3 S3 1.491946 1_555
O4 S0 1.492941 1_545
O5 S1 1.492941 1_555
O6 S2 1.492941 1_565
O7 S3 1.492941 1_555
O8 S0 1.503755 1_555
O8 Tl1 2.841105 1_555
O9 S1 1.503755 1_555
O9 Tl0 2.841105 1_556
O10 S2 1.503755 1_555
O10 Tl3 2.841105 1_555
O11 S3 1.503755 1_555
O11 Tl2 2.841105 1_554
O12 S0 1.503282 1_555
O13 S1 1.503282 1_555
O14 S2 1.503282 1_555
O15 S3 1.503282 1_555
