# generated using pymatgen
data_Ti(NiN)4
_symmetry_space_group_name_H-M   'P 1'
_cell_length_a   5.40208947
_cell_length_b   5.47690688
_cell_length_c   7.52119908
_cell_angle_alpha   68.49675778
_cell_angle_beta   83.77878204
_cell_angle_gamma   62.94374223
_symmetry_Int_Tables_number   1
_chemical_formula_structural   Ti(NiN)4
_chemical_formula_sum   'Ti2 Ni8 N8'
_cell_volume   183.92283282
_cell_formula_units_Z   2
loop_
 _symmetry_equiv_pos_site_id
 _symmetry_equiv_pos_as_xyz
  1  'x, y, z'
loop_
 _atom_site_type_symbol
 _atom_site_label
 _atom_site_symmetry_multiplicity
 _atom_site_fract_x
 _atom_site_fract_y
 _atom_site_fract_z
 _atom_site_occupancy
  Ti  Ti0  1  0.73491300  0.80164400  0.77598900  1
  Ti  Ti1  1  0.26508700  0.19835600  0.22401100  1
  Ni  Ni0  1  0.67874300  0.62803700  0.18928000  1
  Ni  Ni1  1  0.32125700  0.37196300  0.81072000  1
  Ni  Ni2  1  0.79902300  0.19727000  0.92804800  1
  Ni  Ni3  1  0.20097700  0.80273000  0.07195300  1
  Ni  Ni4  1  0.75041900  0.47903500  0.54825100  1
  Ni  Ni5  1  0.24958100  0.52096500  0.45174900  1
  Ni  Ni6  1  0.21981400  0.94960400  0.62744200  1
  Ni  Ni7  1  0.78018600  0.05039600  0.37255800  1
  N  N0  1  0.02997000  0.74248000  0.59905800  1
  N  N1  1  0.97003000  0.25752000  0.40094200  1
  N  N2  1  0.87037800  0.80325300  0.01389900  1
  N  N3  1  0.12962300  0.19674700  0.98610100  1
  N  N4  1  0.56162900  0.56394500  0.75961200  1
  N  N5  1  0.43837100  0.43605500  0.24038800  1
  N  N6  1  0.59217500  0.84260200  0.35661000  1
  N  N7  1  0.40782500  0.15739800  0.64339000  1
loop_
_geom_bond_atom_site_label_1
_geom_bond_atom_site_label_2
_geom_bond_distance
_geom_bond_site_symmetry_2
N0 Ni5 1.870303 1_555
N0 Ni6 1.915086 1_555
N0 Ti0 1.950124 1_455
N0 Ni7 1.971995 1_465
N0 Ni1 2.097154 1_555
N1 Ni4 1.870303 1_555
N1 Ni7 1.915086 1_555
N1 Ti1 1.950124 1_655
N1 Ni6 1.971995 1_645
N1 Ni0 2.097154 1_555
N2 Ni0 1.847264 1_555
N2 Ni2 1.870328 1_564
N2 Ni3 1.882452 1_655
N2 Ti0 2.009644 1_554
N3 Ni1 1.847260 1_555
N3 Ni3 1.870329 1_546
N3 Ni2 1.882455 1_455
N3 Ti1 2.009642 1_556
N4 Ni2 1.851108 1_555
N4 Ni4 1.882182 1_555
N4 Ni1 1.943471 1_555
N4 Ti0 1.958948 1_555
N4 Ni6 2.041966 1_555
N5 Ni3 1.851105 1_555
N5 Ni5 1.882182 1_555
N5 Ni0 1.943471 1_555
N5 Ti1 1.958948 1_555
N5 Ni7 2.041966 1_555
N6 Ni4 1.840573 1_555
N6 Ni7 1.875942 1_565
N6 Ni0 1.907952 1_555
N6 Ti1 1.933519 1_565
N7 Ni5 1.840573 1_555
N7 Ni6 1.875942 1_545
N7 Ni1 1.907952 1_555
N7 Ti0 1.933519 1_545
