# generated using pymatgen
data_Tb(CoGe)6
_symmetry_space_group_name_H-M   'P 1'
_cell_length_a   5.09890900
_cell_length_b   5.09890949
_cell_length_c   7.87833800
_cell_angle_alpha   90.00000000
_cell_angle_beta   90.00000000
_cell_angle_gamma   120.00000332
_symmetry_Int_Tables_number   1
_chemical_formula_structural   Tb(CoGe)6
_chemical_formula_sum   'Tb1 Co6 Ge6'
_cell_volume   177.38618365
_cell_formula_units_Z   1
loop_
 _symmetry_equiv_pos_site_id
 _symmetry_equiv_pos_as_xyz
  1  'x, y, z'
loop_
 _atom_site_type_symbol
 _atom_site_label
 _atom_site_symmetry_multiplicity
 _atom_site_fract_x
 _atom_site_fract_y
 _atom_site_fract_z
 _atom_site_occupancy
  Tb  Tb0  1  0.00000000  0.00000000  0.00000000  1
  Co  Co0  1  0.50000000  0.50000000  0.74908600  1
  Co  Co1  1  0.50000000  0.00000000  0.74908600  1
  Co  Co2  1  0.00000000  0.50000000  0.74908600  1
  Co  Co3  1  0.50000000  0.50000000  0.25091400  1
  Co  Co4  1  0.50000000  0.00000000  0.25091400  1
  Co  Co5  1  0.00000000  0.50000000  0.25091400  1
  Ge  Ge0  1  0.66666700  0.33333300  0.00000000  1
  Ge  Ge1  1  0.33333300  0.66666700  0.00000000  1
  Ge  Ge2  1  0.66666700  0.33333300  0.50000000  1
  Ge  Ge3  1  0.33333300  0.66666700  0.50000000  1
  Ge  Ge4  1  0.00000000  0.00000000  0.65511200  1
  Ge  Ge5  1  0.00000000  0.00000000  0.34488800  1
loop_
_geom_bond_atom_site_label_1
_geom_bond_atom_site_label_2
_geom_bond_distance
_geom_bond_site_symmetry_2
Co0 Ge2 2.453066 1_555
Co0 Ge3 2.453066 1_555
Co0 Ge0 2.464602 1_556
Co0 Ge1 2.464602 1_556
Co0 Co2 2.549454 1_555
Co0 Co2 2.549454 1_655
Co0 Co1 2.549455 1_565
Co0 Co1 2.549455 1_555
Co0 Ge4 2.654779 1_665
Co0 Ge4 2.654779 1_555
Co0 Tb0 3.226050 1_556
Co0 Tb0 3.226050 1_666
Co1 Ge2 2.453063 1_555
Co1 Ge3 2.453063 1_545
Co1 Ge1 2.464599 1_546
Co1 Ge0 2.464599 1_556
Co1 Co2 2.549454 1_655
Co1 Co2 2.549454 1_545
Co1 Ge4 2.654779 1_655
Co1 Ge4 2.654779 1_555
Co1 Tb0 3.226050 1_556
Co1 Tb0 3.226050 1_656
Co2 Ge2 2.453063 1_455
Co2 Ge3 2.453063 1_555
Co2 Ge1 2.464599 1_556
Co2 Ge0 2.464599 1_456
Co2 Ge4 2.654779 1_555
Co2 Ge4 2.654779 1_565
Co2 Tb0 3.226050 1_566
Co2 Tb0 3.226050 1_556
Co3 Ge3 2.453066 1_555
Co3 Ge2 2.453066 1_555
Co3 Ge1 2.464602 1_555
Co3 Ge0 2.464602 1_555
Co3 Co5 2.549454 1_655
Co3 Co5 2.549454 1_555
Co3 Co4 2.549455 1_555
Co3 Co4 2.549455 1_565
Co3 Ge5 2.654779 1_555
Co3 Ge5 2.654779 1_665
Co3 Tb0 3.226050 1_555
Co3 Tb0 3.226050 1_665
Co4 Ge2 2.453063 1_555
Co4 Ge3 2.453063 1_545
Co4 Ge0 2.464599 1_555
Co4 Ge1 2.464599 1_545
Co4 Co5 2.549454 1_655
Co4 Co5 2.549454 1_545
Co4 Ge5 2.654779 1_655
Co4 Ge5 2.654779 1_555
Co4 Tb0 3.226050 1_555
Co4 Tb0 3.226050 1_655
Co5 Ge3 2.453063 1_555
Co5 Ge2 2.453063 1_455
Co5 Ge1 2.464599 1_555
Co5 Ge0 2.464599 1_455
Co5 Ge5 2.654779 1_565
Co5 Ge5 2.654779 1_555
Co5 Tb0 3.226050 1_565
Co5 Tb0 3.226050 1_555
Ge0 Tb0 2.943854 1_655
Ge0 Tb0 2.943858 1_555
Ge0 Tb0 2.943858 1_665
Ge1 Tb0 2.943854 1_565
Ge1 Tb0 2.943858 1_665
Ge1 Tb0 2.943858 1_555
Ge4 Ge5 2.444050 1_555
Ge4 Tb0 2.717144 1_556
Ge5 Tb0 2.717144 1_555
