# generated using pymatgen
data_CsPrCdSe3
_symmetry_space_group_name_H-M   'P 1'
_cell_length_a   8.48594976
_cell_length_b   8.48594976
_cell_length_c   11.55323900
_cell_angle_alpha   90.00000000
_cell_angle_beta   90.00000000
_cell_angle_gamma   149.70878597
_symmetry_Int_Tables_number   1
_chemical_formula_structural   CsPrCdSe3
_chemical_formula_sum   'Cs2 Pr2 Cd2 Se6'
_cell_volume   419.63879690
_cell_formula_units_Z   2
loop_
 _symmetry_equiv_pos_site_id
 _symmetry_equiv_pos_as_xyz
  1  'x, y, z'
loop_
 _atom_site_type_symbol
 _atom_site_label
 _atom_site_symmetry_multiplicity
 _atom_site_fract_x
 _atom_site_fract_y
 _atom_site_fract_z
 _atom_site_occupancy
  Cs  Cs0  1  0.74493500  0.25506500  0.25000000  1
  Cs  Cs1  1  0.25506500  0.74493500  0.75000000  1
  Pr  Pr0  1  0.00000000  0.00000000  0.50000000  1
  Pr  Pr1  1  0.00000000  0.00000000  0.00000000  1
  Cd  Cd0  1  0.53665300  0.46334700  0.75000000  1
  Cd  Cd1  1  0.46334700  0.53665300  0.25000000  1
  Se  Se0  1  0.61946500  0.38053500  0.55419600  1
  Se  Se1  1  0.38053500  0.61946500  0.44580400  1
  Se  Se2  1  0.38053500  0.61946500  0.05419600  1
  Se  Se3  1  0.93811700  0.06188300  0.75000000  1
  Se  Se4  1  0.06188300  0.93811700  0.25000000  1
  Se  Se5  1  0.61946500  0.38053500  0.94580400  1
loop_
_geom_bond_atom_site_label_1
_geom_bond_atom_site_label_2
_geom_bond_distance
_geom_bond_site_symmetry_2
Cs0 Se4 3.729439 1_545
Cs0 Se4 3.729439 1_655
Cs0 Se1 3.868851 1_655
Cs0 Se1 3.868851 1_545
Cs0 Se2 3.868851 1_655
Cs0 Se2 3.868851 1_545
Cs0 Se0 4.071415 1_555
Cs0 Se5 4.071415 1_554
Cs1 Se3 3.729439 1_455
Cs1 Se3 3.729439 1_565
Cs1 Se5 3.868851 1_565
Cs1 Se0 3.868851 1_565
Cs1 Se0 3.868851 1_455
Cs1 Se5 3.868851 1_455
Cs1 Se2 4.071415 1_556
Cs1 Se1 4.071415 1_555
Pr0 Se1 3.022933 1_555
Pr0 Se0 3.022933 1_555
Pr0 Se1 3.022933 1_445
Pr0 Se0 3.022933 1_445
Pr0 Se4 3.061063 1_545
Pr0 Se3 3.061063 1_455
Pr1 Se2 3.022933 1_555
Pr1 Se5 3.022933 1_554
Pr1 Se2 3.022933 1_445
Pr1 Se5 3.022933 1_444
Pr1 Se4 3.061063 1_545
Pr1 Se3 3.061063 1_454
Cd0 Se0 2.637790 1_555
Cd0 Se5 2.637790 1_555
Cd0 Se3 2.742547 1_455
Cd0 Se3 2.742547 1_565
Cd1 Se1 2.637790 1_555
Cd1 Se2 2.637790 1_555
Cd1 Se4 2.742547 1_545
Cd1 Se4 2.742547 1_655
