# generated using pymatgen
data_TmMg5
_symmetry_space_group_name_H-M   'P 1'
_cell_length_a   17.25848873
_cell_length_b   17.25848873
_cell_length_c   10.52570744
_cell_angle_alpha   90.00000000
_cell_angle_beta   90.00000000
_cell_angle_gamma   158.36474131
_symmetry_Int_Tables_number   1
_chemical_formula_structural   TmMg5
_chemical_formula_sum   'Tm8 Mg40'
_cell_volume   1155.91529883
_cell_formula_units_Z   8
loop_
 _symmetry_equiv_pos_site_id
 _symmetry_equiv_pos_as_xyz
  1  'x, y, z'
loop_
 _atom_site_type_symbol
 _atom_site_label
 _atom_site_symmetry_multiplicity
 _atom_site_fract_x
 _atom_site_fract_y
 _atom_site_fract_z
 _atom_site_occupancy
  Tm  Tm0_0  1  0.11022649  0.38977351  0.25000000  1
  Tm  Tm0_1  1  0.11022649  0.38977351  0.75000000  1
  Tm  Tm0_2  1  0.11022649  0.88977351  0.25000000  1
  Tm  Tm0_3  1  0.11022649  0.88977351  0.75000000  1
  Tm  Tm0_4  1  0.61022649  0.38977351  0.25000000  1
  Tm  Tm0_5  1  0.61022649  0.38977351  0.75000000  1
  Tm  Tm0_6  1  0.61022649  0.88977351  0.25000000  1
  Tm  Tm0_7  1  0.61022649  0.88977351  0.75000000  1
  Mg  Mg0_0  1  0.00105973  0.49894027  0.00000000  1
  Mg  Mg0_1  1  0.00105973  0.49894027  0.50000000  1
  Mg  Mg0_2  1  0.00105973  0.99894027  0.00000000  1
  Mg  Mg0_3  1  0.00105973  0.99894027  0.50000000  1
  Mg  Mg0_4  1  0.50105973  0.49894027  0.00000000  1
  Mg  Mg0_5  1  0.50105973  0.49894027  0.50000000  1
  Mg  Mg0_6  1  0.50105973  0.99894027  0.00000000  1
  Mg  Mg0_7  1  0.50105973  0.99894027  0.50000000  1
  Mg  Mg1_0  1  0.33213922  0.16786078  0.00000000  1
  Mg  Mg1_1  1  0.33213922  0.16786078  0.50000000  1
  Mg  Mg1_2  1  0.33213922  0.66786078  0.00000000  1
  Mg  Mg1_3  1  0.33213922  0.66786078  0.50000000  1
  Mg  Mg1_4  1  0.83213922  0.16786078  0.00000000  1
  Mg  Mg1_5  1  0.83213922  0.16786078  0.50000000  1
  Mg  Mg1_6  1  0.83213922  0.66786078  0.00000000  1
  Mg  Mg1_7  1  0.83213922  0.66786078  0.50000000  1
  Mg  Mg2_0  1  0.16714298  0.33285702  0.00000000  1
  Mg  Mg2_1  1  0.16714298  0.33285702  0.50000000  1
  Mg  Mg2_2  1  0.16714298  0.83285702  0.00000000  1
  Mg  Mg2_3  1  0.16714298  0.83285702  0.50000000  1
  Mg  Mg2_4  1  0.66714298  0.33285702  0.00000000  1
  Mg  Mg2_5  1  0.66714298  0.33285702  0.50000000  1
  Mg  Mg2_6  1  0.66714298  0.83285702  0.00000000  1
  Mg  Mg2_7  1  0.66714298  0.83285702  0.50000000  1
  Mg  Mg3_0  1  0.27665625  0.22334376  0.25000000  1
  Mg  Mg3_1  1  0.27665625  0.22334376  0.75000000  1
  Mg  Mg3_2  1  0.27665625  0.72334376  0.25000000  1
  Mg  Mg3_3  1  0.27665625  0.72334376  0.75000000  1
  Mg  Mg3_4  1  0.77665625  0.22334376  0.25000000  1
  Mg  Mg3_5  1  0.77665625  0.22334376  0.75000000  1
  Mg  Mg3_6  1  0.77665624  0.72334376  0.25000000  1
  Mg  Mg3_7  1  0.77665624  0.72334376  0.75000000  1
  Mg  Mg4_0  1  0.44611183  0.05388817  0.25000000  1
  Mg  Mg4_1  1  0.44611183  0.05388817  0.75000000  1
  Mg  Mg4_2  1  0.44611183  0.55388817  0.25000000  1
  Mg  Mg4_3  1  0.44611183  0.55388817  0.75000000  1
  Mg  Mg4_4  1  0.94611183  0.05388817  0.25000000  1
  Mg  Mg4_5  1  0.94611183  0.05388817  0.75000000  1
  Mg  Mg4_6  1  0.94611183  0.55388817  0.25000000  1
  Mg  Mg4_7  1  0.94611183  0.55388817  0.75000000  1
loop_
_geom_bond_atom_site_label_1
_geom_bond_atom_site_label_2
_geom_bond_distance
_geom_bond_site_symmetry_2
Tm0_0 Tm0_6 3.239134 1_555
Tm0_0 Tm0_6 3.239134 1_445
Tm0_1 Tm0_7 3.239134 1_555
Tm0_1 Tm0_7 3.239134 1_445
Tm0_2 Tm0_4 3.239134 1_565
Tm0_2 Tm0_4 3.239134 1_455
Tm0_3 Tm0_5 3.239134 1_565
Tm0_3 Tm0_5 3.239134 1_455
Mg0_0 Mg1_4 3.190513 1_455
Mg0_0 Mg1_2 3.190513 1_555
Mg0_0 Mg3_5 3.209440 1_454
Mg0_0 Mg3_4 3.209440 1_455
Mg0_0 Mg3_3 3.209440 1_554
Mg0_0 Mg3_2 3.209440 1_555
Mg0_0 Mg4_6 3.224115 1_455
Mg0_0 Mg4_7 3.224115 1_454
Mg0_0 Mg0_6 3.239134 1_445
Mg0_0 Mg0_6 3.239134 1_555
Mg0_0 Mg2_4 3.273756 1_455
Mg0_0 Mg2_2 3.273756 1_555
Mg0_1 Mg1_5 3.190513 1_455
Mg0_1 Mg1_3 3.190513 1_555
Mg0_1 Mg3_5 3.209440 1_455
Mg0_1 Mg3_4 3.209440 1_455
Mg0_1 Mg3_3 3.209440 1_555
Mg0_1 Mg3_2 3.209440 1_555
Mg0_1 Mg4_6 3.224115 1_455
Mg0_1 Mg4_7 3.224115 1_455
Mg0_1 Mg0_7 3.239134 1_445
Mg0_1 Mg0_7 3.239134 1_555
Mg0_1 Mg2_5 3.273756 1_455
Mg0_1 Mg2_3 3.273756 1_555
Mg0_2 Mg1_6 3.190513 1_455
Mg0_2 Mg1_0 3.190513 1_565
Mg0_2 Mg3_0 3.209440 1_565
Mg0_2 Mg3_7 3.209440 1_454
Mg0_2 Mg3_6 3.209440 1_455
Mg0_2 Mg3_1 3.209440 1_564
Mg0_2 Mg4_5 3.224115 1_464
Mg0_2 Mg4_4 3.224115 1_465
Mg0_2 Mg0_4 3.239134 1_455
Mg0_2 Mg0_4 3.239134 1_565
Mg0_2 Mg2_6 3.273756 1_455
Mg0_2 Mg2_0 3.273756 1_565
Mg0_3 Mg1_7 3.190513 1_455
Mg0_3 Mg1_1 3.190513 1_565
Mg0_3 Mg3_0 3.209440 1_565
Mg0_3 Mg3_7 3.209440 1_455
Mg0_3 Mg3_1 3.209440 1_565
Mg0_3 Mg3_6 3.209440 1_455
Mg0_3 Mg4_5 3.224115 1_465
Mg0_3 Mg4_4 3.224115 1_465
Mg0_3 Mg0_5 3.239134 1_455
Mg0_3 Mg0_5 3.239134 1_565
Mg0_3 Mg2_1 3.273756 1_565
Mg0_3 Mg2_7 3.273756 1_455
Mg0_4 Mg1_6 3.190513 1_555
Mg0_4 Mg1_0 3.190513 1_555
Mg0_4 Mg3_6 3.209440 1_555
Mg0_4 Mg3_7 3.209440 1_554
Mg0_4 Mg3_1 3.209440 1_554
Mg0_4 Mg3_0 3.209440 1_555
Mg0_4 Mg4_3 3.224115 1_554
Mg0_4 Mg4_2 3.224115 1_555
Mg0_4 Mg2_0 3.273756 1_555
Mg0_4 Mg2_6 3.273756 1_555
Mg0_5 Mg1_7 3.190513 1_555
Mg0_5 Mg1_1 3.190513 1_555
Mg0_5 Mg3_6 3.209440 1_555
Mg0_5 Mg3_7 3.209440 1_555
Mg0_5 Mg3_1 3.209440 1_555
Mg0_5 Mg3_0 3.209440 1_555
Mg0_5 Mg4_2 3.224115 1_555
Mg0_5 Mg4_3 3.224115 1_555
Mg0_5 Mg2_1 3.273756 1_555
Mg0_5 Mg2_7 3.273756 1_555
Mg0_6 Mg1_4 3.190513 1_565
Mg0_6 Mg1_2 3.190513 1_555
Mg0_6 Mg3_3 3.209440 1_554
Mg0_6 Mg3_2 3.209440 1_555
Mg0_6 Mg3_5 3.209440 1_564
Mg0_6 Mg3_4 3.209440 1_565
Mg0_6 Mg4_1 3.224115 1_564
Mg0_6 Mg4_0 3.224115 1_565
Mg0_6 Mg2_4 3.273756 1_565
Mg0_6 Mg2_2 3.273756 1_555
Mg0_7 Mg1_5 3.190513 1_565
Mg0_7 Mg1_3 3.190513 1_555
Mg0_7 Mg3_2 3.209440 1_555
Mg0_7 Mg3_3 3.209440 1_555
Mg0_7 Mg3_5 3.209440 1_565
Mg0_7 Mg3_4 3.209440 1_565
Mg0_7 Mg4_1 3.224115 1_565
Mg0_7 Mg4_0 3.224115 1_565
Mg0_7 Mg2_5 3.273756 1_565
Mg0_7 Mg2_3 3.273756 1_555
Mg1_0 Tm0_2 3.233296 1_545
Mg1_0 Tm0_3 3.233296 1_544
Mg1_0 Tm0_5 3.233296 1_554
Mg1_0 Tm0_4 3.233296 1_555
Mg1_0 Mg3_1 3.234631 1_554
Mg1_0 Mg3_0 3.234631 1_555
Mg1_0 Mg1_6 3.239134 1_555
Mg1_0 Mg1_6 3.239134 1_445
Mg1_0 Mg2_2 3.305834 1_545
Mg1_0 Mg2_4 3.305834 1_555
Mg1_1 Tm0_2 3.233296 1_545
Mg1_1 Tm0_3 3.233296 1_545
Mg1_1 Tm0_5 3.233296 1_555
Mg1_1 Tm0_4 3.233296 1_555
Mg1_1 Mg3_1 3.234631 1_555
Mg1_1 Mg3_0 3.234631 1_555
Mg1_1 Mg1_7 3.239134 1_555
Mg1_1 Mg1_7 3.239134 1_445
Mg1_1 Mg2_3 3.305834 1_545
Mg1_1 Mg2_5 3.305834 1_555
Mg1_2 Tm0_7 3.233296 1_554
Mg1_2 Tm0_6 3.233296 1_555
Mg1_2 Tm0_0 3.233296 1_555
Mg1_2 Tm0_1 3.233296 1_554
Mg1_2 Mg3_2 3.234631 1_555
Mg1_2 Mg3_3 3.234631 1_554
Mg1_2 Mg1_4 3.239134 1_565
Mg1_2 Mg1_4 3.239134 1_455
Mg1_2 Mg2_6 3.305834 1_555
Mg1_2 Mg2_0 3.305834 1_555
Mg1_3 Tm0_6 3.233296 1_555
Mg1_3 Tm0_7 3.233296 1_555
Mg1_3 Tm0_0 3.233296 1_555
Mg1_3 Tm0_1 3.233296 1_555
Mg1_3 Mg3_3 3.234631 1_555
Mg1_3 Mg3_2 3.234631 1_555
Mg1_3 Mg1_5 3.239134 1_565
Mg1_3 Mg1_5 3.239134 1_455
Mg1_3 Mg2_7 3.305834 1_555
Mg1_3 Mg2_1 3.305834 1_555
Mg1_4 Tm0_6 3.233296 1_545
Mg1_4 Tm0_7 3.233296 1_544
Mg1_4 Tm0_1 3.233296 1_654
Mg1_4 Tm0_0 3.233296 1_655
Mg1_4 Mg3_5 3.234631 1_554
Mg1_4 Mg3_4 3.234631 1_555
Mg1_4 Mg2_6 3.305834 1_545
Mg1_4 Mg2_0 3.305834 1_655
Mg1_5 Tm0_6 3.233296 1_545
Mg1_5 Tm0_7 3.233296 1_545
Mg1_5 Tm0_1 3.233296 1_655
Mg1_5 Tm0_0 3.233296 1_655
Mg1_5 Mg3_4 3.234631 1_555
Mg1_5 Mg3_5 3.234631 1_555
Mg1_5 Mg2_7 3.305834 1_545
Mg1_5 Mg2_1 3.305834 1_655
Mg1_6 Tm0_4 3.233296 1_555
Mg1_6 Tm0_5 3.233296 1_554
Mg1_6 Tm0_3 3.233296 1_654
Mg1_6 Tm0_2 3.233296 1_655
Mg1_6 Mg3_7 3.234631 1_554
Mg1_6 Mg3_6 3.234631 1_555
Mg1_6 Mg2_2 3.305834 1_655
Mg1_6 Mg2_4 3.305834 1_555
Mg1_7 Tm0_4 3.233296 1_555
Mg1_7 Tm0_5 3.233296 1_555
Mg1_7 Tm0_3 3.233296 1_655
Mg1_7 Tm0_2 3.233296 1_655
Mg1_7 Mg3_7 3.234631 1_555
Mg1_7 Mg3_6 3.234631 1_555
Mg1_7 Mg2_3 3.305834 1_655
Mg1_7 Mg2_5 3.305834 1_555
Mg2_0 Mg2_6 3.239134 1_555
Mg2_0 Mg2_6 3.239134 1_445
Mg2_0 Mg4_5 3.242225 1_454
Mg2_0 Mg4_3 3.242225 1_554
Mg2_0 Mg4_4 3.242225 1_455
Mg2_0 Mg4_2 3.242225 1_555
Mg2_0 Tm0_0 3.263135 1_555
Mg2_0 Tm0_1 3.263135 1_554
Mg2_1 Mg2_7 3.239134 1_555
Mg2_1 Mg2_7 3.239134 1_445
Mg2_1 Mg4_4 3.242225 1_455
Mg2_1 Mg4_2 3.242225 1_555
Mg2_1 Mg4_3 3.242225 1_555
Mg2_1 Mg4_5 3.242225 1_455
Mg2_1 Tm0_1 3.263135 1_555
Mg2_1 Tm0_0 3.263135 1_555
Mg2_2 Mg2_4 3.239134 1_455
Mg2_2 Mg2_4 3.239134 1_565
Mg2_2 Mg4_7 3.242225 1_454
Mg2_2 Mg4_1 3.242225 1_564
Mg2_2 Mg4_0 3.242225 1_565
Mg2_2 Mg4_6 3.242225 1_455
Mg2_2 Tm0_2 3.263135 1_555
Mg2_2 Tm0_3 3.263135 1_554
Mg2_3 Mg2_5 3.239134 1_455
Mg2_3 Mg2_5 3.239134 1_565
Mg2_3 Mg4_7 3.242225 1_455
Mg2_3 Mg4_1 3.242225 1_565
Mg2_3 Mg4_0 3.242225 1_565
Mg2_3 Mg4_6 3.242225 1_455
Mg2_3 Tm0_2 3.263135 1_555
Mg2_3 Tm0_3 3.263135 1_555
Mg2_4 Mg4_7 3.242225 1_554
Mg2_4 Mg4_6 3.242225 1_555
Mg2_4 Mg4_0 3.242225 1_555
Mg2_4 Mg4_1 3.242225 1_554
Mg2_4 Tm0_4 3.263135 1_555
Mg2_4 Tm0_5 3.263135 1_554
Mg2_5 Mg4_6 3.242225 1_555
Mg2_5 Mg4_0 3.242225 1_555
Mg2_5 Mg4_1 3.242225 1_555
Mg2_5 Mg4_7 3.242225 1_555
Mg2_5 Tm0_4 3.263135 1_555
Mg2_5 Tm0_5 3.263135 1_555
Mg2_6 Mg4_2 3.242225 1_555
Mg2_6 Mg4_4 3.242225 1_565
Mg2_6 Mg4_5 3.242225 1_564
Mg2_6 Mg4_3 3.242225 1_554
Mg2_6 Tm0_6 3.263135 1_555
Mg2_6 Tm0_7 3.263135 1_554
Mg2_7 Mg4_3 3.242225 1_555
Mg2_7 Mg4_5 3.242225 1_565
Mg2_7 Mg4_4 3.242225 1_565
Mg2_7 Mg4_2 3.242225 1_555
Mg2_7 Tm0_7 3.263135 1_555
Mg2_7 Tm0_6 3.263135 1_555
Mg3_0 Mg4_4 3.174896 1_455
Mg3_0 Mg4_2 3.174896 1_555
Mg3_0 Mg3_6 3.239134 1_555
Mg3_0 Mg3_6 3.239134 1_445
Mg3_0 Tm0_4 3.263551 1_555
Mg3_0 Tm0_2 3.263551 1_545
Mg3_1 Mg4_3 3.174896 1_555
Mg3_1 Mg4_5 3.174896 1_455
Mg3_1 Mg3_7 3.239134 1_555
Mg3_1 Mg3_7 3.239134 1_445
Mg3_1 Tm0_5 3.263551 1_555
Mg3_1 Tm0_3 3.263551 1_545
Mg3_2 Mg4_0 3.174896 1_565
Mg3_2 Mg4_6 3.174896 1_455
Mg3_2 Mg3_4 3.239134 1_565
Mg3_2 Mg3_4 3.239134 1_455
Mg3_2 Tm0_6 3.263551 1_555
Mg3_2 Tm0_0 3.263551 1_555
Mg3_3 Mg4_1 3.174896 1_565
Mg3_3 Mg4_7 3.174896 1_455
Mg3_3 Mg3_5 3.239134 1_565
Mg3_3 Mg3_5 3.239134 1_455
Mg3_3 Tm0_7 3.263551 1_555
Mg3_3 Tm0_1 3.263551 1_555
Mg3_4 Mg4_6 3.174896 1_555
Mg3_4 Mg4_0 3.174896 1_555
Mg3_4 Tm0_6 3.263551 1_545
Mg3_4 Tm0_0 3.263551 1_655
Mg3_5 Mg4_7 3.174896 1_555
Mg3_5 Mg4_1 3.174896 1_555
Mg3_5 Tm0_7 3.263551 1_545
Mg3_5 Tm0_1 3.263551 1_655
Mg3_6 Mg4_4 3.174896 1_565
Mg3_6 Mg4_2 3.174896 1_555
Mg3_6 Tm0_4 3.263551 1_555
Mg3_6 Tm0_2 3.263551 1_655
Mg3_7 Mg4_5 3.174896 1_565
Mg3_7 Mg4_3 3.174896 1_555
Mg3_7 Tm0_5 3.263551 1_555
Mg3_7 Tm0_3 3.263551 1_655
Mg4_0 Mg4_6 3.239134 1_555
Mg4_0 Mg4_6 3.239134 1_445
Mg4_0 Tm0_4 3.331922 1_555
Mg4_0 Tm0_2 3.331922 1_545
Mg4_1 Mg4_7 3.239134 1_445
Mg4_1 Mg4_7 3.239134 1_555
Mg4_1 Tm0_5 3.331922 1_555
Mg4_1 Tm0_3 3.331922 1_545
Mg4_2 Mg4_4 3.239134 1_565
Mg4_2 Mg4_4 3.239134 1_455
Mg4_2 Tm0_0 3.331922 1_555
Mg4_2 Tm0_6 3.331922 1_555
Mg4_3 Mg4_5 3.239134 1_455
Mg4_3 Mg4_5 3.239134 1_565
Mg4_3 Tm0_1 3.331922 1_555
Mg4_3 Tm0_7 3.331922 1_555
Mg4_4 Tm0_0 3.331922 1_655
Mg4_4 Tm0_6 3.331922 1_545
Mg4_5 Tm0_1 3.331922 1_655
Mg4_5 Tm0_7 3.331922 1_545
Mg4_6 Tm0_2 3.331922 1_655
Mg4_6 Tm0_4 3.331922 1_555
Mg4_7 Tm0_3 3.331922 1_655
Mg4_7 Tm0_5 3.331922 1_555
