# generated using pymatgen
data_SrCaSmSbO6
_symmetry_space_group_name_H-M   'P 1'
_cell_length_a   8.38423876
_cell_length_b   8.37159840
_cell_length_c   8.38649864
_cell_angle_alpha   90.00000000
_cell_angle_beta   90.00000000
_cell_angle_gamma   90.00000000
_symmetry_Int_Tables_number   1
_chemical_formula_structural   SrCaSmSbO6
_chemical_formula_sum   'Sr4 Ca4 Sm4 Sb4 O24'
_cell_volume   588.64397679
_cell_formula_units_Z   4
loop_
 _symmetry_equiv_pos_site_id
 _symmetry_equiv_pos_as_xyz
  1  'x, y, z'
loop_
 _atom_site_type_symbol
 _atom_site_label
 _atom_site_symmetry_multiplicity
 _atom_site_fract_x
 _atom_site_fract_y
 _atom_site_fract_z
 _atom_site_occupancy
  Sr  Sr0  1  -0.00000000  0.50000000  0.50000000  1
  Sr  Sr1  1  0.50000000  0.00000000  0.00000000  1
  Sr  Sr2  1  -0.00000000  0.50000000  0.00000000  1
  Sr  Sr3  1  -0.00000000  0.00000000  0.50000000  1
  Ca  Ca0  1  0.50000000  0.00000000  0.50000000  1
  Ca  Ca1  1  0.50000000  0.50000000  0.00000000  1
  Ca  Ca2  1  -0.00000000  0.00000000  0.00000000  1
  Ca  Ca3  1  0.50000000  0.50000000  0.50000000  1
  Sm  Sm0  1  0.25212668  0.25035111  0.25007398  1
  Sm  Sm1  1  0.74787332  0.74964889  0.25007398  1
  Sm  Sm2  1  0.74787332  0.25035111  0.74992602  1
  Sm  Sm3  1  0.25212668  0.74964889  0.74992602  1
  Sb  Sb0  1  0.74745213  0.74968031  0.75048600  1
  Sb  Sb1  1  0.25254787  0.25031969  0.75048600  1
  Sb  Sb2  1  0.25254787  0.74968031  0.24951400  1
  Sb  Sb3  1  0.74745213  0.25031969  0.24951400  1
  O  O0  1  0.98202618  0.20899295  0.28409087  1
  O  O1  1  0.01797382  0.79100705  0.28409087  1
  O  O2  1  0.01797382  0.20899295  0.71590913  1
  O  O3  1  0.98202618  0.79100705  0.71590913  1
  O  O4  1  0.28461495  0.98312271  0.20697312  1
  O  O5  1  0.28461495  0.01687729  0.79302688  1
  O  O6  1  0.71538505  0.01687729  0.20697312  1
  O  O7  1  0.71538505  0.98312271  0.79302688  1
  O  O8  1  0.20657271  0.28190683  0.98344930  1
  O  O9  1  0.79342729  0.28190683  0.01655070  1
  O  O10  1  0.20657271  0.71809317  0.01655070  1
  O  O11  1  0.79342729  0.71809317  0.98344930  1
  O  O12  1  0.51705170  0.30198602  0.20687904  1
  O  O13  1  0.48294830  0.69801398  0.20687904  1
  O  O14  1  0.48294830  0.30198602  0.79312096  1
  O  O15  1  0.51705170  0.69801398  0.79312096  1
  O  O16  1  0.21739320  0.51752192  0.29631024  1
  O  O17  1  0.21739320  0.48247808  0.70368976  1
  O  O18  1  0.78260680  0.48247808  0.29631024  1
  O  O19  1  0.78260680  0.51752192  0.70368976  1
  O  O20  1  0.30397804  0.20940768  0.51856316  1
  O  O21  1  0.69602196  0.20940768  0.48143684  1
  O  O22  1  0.30397804  0.79059232  0.48143684  1
  O  O23  1  0.69602196  0.79059232  0.51856316  1
loop_
_geom_bond_atom_site_label_1
_geom_bond_atom_site_label_2
_geom_bond_distance
_geom_bond_site_symmetry_2
Ca0 O22 2.408026 1_545
Ca0 O21 2.408026 1_555
Ca0 O20 2.408026 1_555
Ca0 O23 2.408026 1_545
Ca1 O13 2.403868 1_555
Ca1 O12 2.403868 1_555
Ca1 O14 2.403868 1_554
Ca1 O15 2.403868 1_554
Ca2 O10 2.930629 1_545
Ca2 O8 2.930629 1_554
Ca2 O9 2.930629 1_455
Ca2 O11 2.930629 1_444
Ca2 O6 2.954188 1_455
Ca2 O4 2.954188 1_545
Ca2 O5 2.954188 1_554
Ca2 O7 2.954188 1_444
Ca2 O3 2.959775 1_444
Ca2 O0 2.959775 1_455
Ca2 O2 2.959775 1_554
Ca2 O1 2.959775 1_545
Ca3 O18 2.924701 1_555
Ca3 O19 2.924701 1_555
Ca3 O16 2.924701 1_555
Ca3 O17 2.924701 1_555
Ca3 O20 2.939974 1_555
Ca3 O22 2.939974 1_555
Ca3 O23 2.939974 1_555
Ca3 O21 2.939974 1_555
Ca3 O12 2.968404 1_555
Ca3 O14 2.968404 1_555
Ca3 O13 2.968404 1_555
Ca3 O15 2.968404 1_555
O0 Sb3 2.017868 1_555
O0 Sm0 2.308597 1_655
O0 Sr3 2.522408 1_655
O0 Sr0 3.039155 1_655
O1 Sb2 2.017868 1_555
O1 Sm1 2.308597 1_455
O1 Sr3 2.522408 1_565
O1 Sr0 3.039155 1_555
O2 Sb1 2.017868 1_555
O2 Sm2 2.308597 1_455
O2 Sr3 2.522408 1_555
O2 Sr0 3.039155 1_555
O3 Sb0 2.017868 1_555
O3 Sm3 2.308597 1_655
O3 Sr3 2.522408 1_665
O3 Sr0 3.039155 1_655
O4 Sb2 2.004695 1_555
O4 Sm0 2.282455 1_565
O4 Sr1 2.508775 1_565
O5 Sb1 2.004695 1_555
O5 Sm3 2.282455 1_545
O5 Sr1 2.508775 1_556
O6 Sb3 2.004695 1_555
O6 Sm1 2.282455 1_545
O6 Sr1 2.508775 1_555
O7 Sb0 2.004695 1_555
O7 Sm2 2.282455 1_565
O7 Sr1 2.508775 1_566
O8 Sb1 2.008889 1_555
O8 Sm0 2.283762 1_556
O8 Sr2 2.520404 1_556
O9 Sb3 2.008889 1_555
O9 Sm2 2.283762 1_554
O9 Sr2 2.520404 1_655
O10 Sb2 2.008889 1_555
O10 Sm3 2.283762 1_554
O10 Sr2 2.520404 1_555
O11 Sb0 2.008889 1_555
O11 Sm1 2.283762 1_556
O11 Sr2 2.520404 1_656
O12 Sb3 2.011596 1_555
O12 Sm0 2.291678 1_555
O12 Sr1 3.069520 1_555
O13 Sb2 2.011596 1_555
O13 Sm1 2.291678 1_555
O13 Sr1 3.069520 1_565
O14 Sb1 2.011596 1_555
O14 Sm2 2.291678 1_555
O14 Sr1 3.069520 1_556
O15 Sb0 2.011596 1_555
O15 Sm3 2.291678 1_555
O15 Sr1 3.069520 1_566
O16 Sb2 2.004553 1_555
O16 Sm0 2.288614 1_555
O16 Sr0 2.502352 1_555
O16 Sr2 3.085274 1_555
O17 Sb1 2.004553 1_555
O17 Sm3 2.288614 1_555
O17 Sr0 2.502352 1_555
O17 Sr2 3.085274 1_556
O18 Sb3 2.004553 1_555
O18 Sm1 2.288614 1_555
O18 Sr0 2.502352 1_655
O18 Sr2 3.085274 1_655
O19 Sb0 2.004553 1_555
O19 Sm2 2.288614 1_555
O19 Sr0 2.502352 1_655
O19 Sr2 3.085274 1_656
O20 Sb1 2.021471 1_555
O20 Sm0 2.318741 1_555
O21 Sb3 2.021471 1_555
O21 Sm2 2.318741 1_555
O22 Sb2 2.021471 1_555
O22 Sm3 2.318741 1_555
O23 Sb0 2.021471 1_555
O23 Sm1 2.318741 1_555
