# generated using pymatgen
data_KNaCuP4H18N4O15
_symmetry_space_group_name_H-M   'P 1'
_cell_length_a   6.50448330
_cell_length_b   14.76259023
_cell_length_c   19.47266482
_cell_angle_alpha   90.00000000
_cell_angle_beta   90.00000000
_cell_angle_gamma   90.00000000
_symmetry_Int_Tables_number   1
_chemical_formula_structural   KNaCuP4H18N4O15
_chemical_formula_sum   'K4 Na4 Cu4 P16 H72 N16 O60'
_cell_volume   1869.82411493
_cell_formula_units_Z   4
loop_
 _symmetry_equiv_pos_site_id
 _symmetry_equiv_pos_as_xyz
  1  'x, y, z'
loop_
 _atom_site_type_symbol
 _atom_site_label
 _atom_site_symmetry_multiplicity
 _atom_site_fract_x
 _atom_site_fract_y
 _atom_site_fract_z
 _atom_site_occupancy
  K  K0  1  0.16303517  0.25000000  0.15911814  1
  K  K1  1  0.83696483  0.75000000  0.84088186  1
  K  K2  1  0.33696483  0.75000000  0.65911814  1
  K  K3  1  0.66303517  0.25000000  0.34088186  1
  Na  Na0  1  0.20373725  0.25000000  0.75307621  1
  Na  Na1  1  0.79626275  0.75000000  0.24692379  1
  Na  Na2  1  0.29626275  0.75000000  0.25307621  1
  Na  Na3  1  0.70373725  0.25000000  0.74692379  1
  Cu  Cu0  1  0.00619145  0.25000000  0.47418372  1
  Cu  Cu1  1  0.99380855  0.75000000  0.52581628  1
  Cu  Cu2  1  0.49380855  0.75000000  0.97418372  1
  Cu  Cu3  1  0.50619145  0.25000000  0.02581628  1
  P  P0  1  0.22665432  0.08084591  0.53819418  1
  P  P1  1  0.77334568  0.91915409  0.46180582  1
  P  P2  1  0.27334568  0.91915409  0.03819418  1
  P  P3  1  0.77334568  0.58084591  0.46180582  1
  P  P4  1  0.72665432  0.08084591  0.96180582  1
  P  P5  1  0.22665432  0.41915409  0.53819418  1
  P  P6  1  0.72665432  0.41915409  0.96180582  1
  P  P7  1  0.27334568  0.58084591  0.03819418  1
  P  P8  1  0.05122222  0.06004347  0.39569784  1
  P  P9  1  0.94877778  0.93995653  0.60430216  1
  P  P10  1  0.44877778  0.93995653  0.89569784  1
  P  P11  1  0.94877778  0.56004347  0.60430216  1
  P  P12  1  0.55122222  0.06004347  0.10430216  1
  P  P13  1  0.05122222  0.43995653  0.39569784  1
  P  P14  1  0.55122222  0.43995653  0.10430216  1
  P  P15  1  0.44877778  0.56004347  0.89569784  1
  H  H0  1  0.04828241  0.69727204  0.12538309  1
  H  H1  1  0.95171759  0.30272796  0.87461691  1
  H  H2  1  0.45171759  0.30272796  0.62538309  1
  H  H3  1  0.95171759  0.19727204  0.87461691  1
  H  H4  1  0.54828241  0.69727204  0.37461691  1
  H  H5  1  0.04828241  0.80272796  0.12538309  1
  H  H6  1  0.54828241  0.80272796  0.37461691  1
  H  H7  1  0.45171759  0.19727204  0.62538309  1
  H  H8  1  0.41521192  0.05598783  0.31489834  1
  H  H9  1  0.58478808  0.94401217  0.68510166  1
  H  H10  1  0.08478808  0.94401217  0.81489834  1
  H  H11  1  0.58478808  0.55598783  0.68510166  1
  H  H12  1  0.91521192  0.05598783  0.18510166  1
  H  H13  1  0.41521192  0.44401217  0.31489834  1
  H  H14  1  0.91521192  0.44401217  0.18510166  1
  H  H15  1  0.08478808  0.55598783  0.81489834  1
  H  H16  1  0.08347505  0.19690569  0.99548975  1
  H  H17  1  0.91652495  0.80309431  0.00451025  1
  H  H18  1  0.41652495  0.80309431  0.49548975  1
  H  H19  1  0.91652495  0.69690569  0.00451025  1
  H  H20  1  0.58347505  0.19690569  0.50451025  1
  H  H21  1  0.08347505  0.30309431  0.99548975  1
  H  H22  1  0.58347505  0.30309431  0.50451025  1
  H  H23  1  0.41652495  0.69690569  0.49548975  1
  H  H24  1  0.19714808  0.19856672  0.31584871  1
  H  H25  1  0.80285192  0.80143328  0.68415129  1
  H  H26  1  0.30285192  0.80143328  0.81584871  1
  H  H27  1  0.80285192  0.69856672  0.68415129  1
  H  H28  1  0.69714808  0.19856672  0.18415129  1
  H  H29  1  0.19714808  0.30143328  0.31584871  1
  H  H30  1  0.69714808  0.30143328  0.18415129  1
  H  H31  1  0.30285192  0.69856672  0.81584871  1
  H  H32  1  0.07713087  0.58672052  0.30873296  1
  H  H33  1  0.92286913  0.41327948  0.69126704  1
  H  H34  1  0.42286913  0.41327948  0.80873296  1
  H  H35  1  0.92286913  0.08672052  0.69126704  1
  H  H36  1  0.57713087  0.58672052  0.19126704  1
  H  H37  1  0.07713087  0.91327948  0.30873296  1
  H  H38  1  0.57713087  0.91327948  0.19126704  1
  H  H39  1  0.42286913  0.08672052  0.80873296  1
  H  H40  1  0.02166839  0.66491375  0.35765597  1
  H  H41  1  0.97833161  0.33508625  0.64234403  1
  H  H42  1  0.47833161  0.33508625  0.85765597  1
  H  H43  1  0.97833161  0.16491375  0.64234403  1
  H  H44  1  0.52166839  0.66491375  0.14234403  1
  H  H45  1  0.02166839  0.83508625  0.35765597  1
  H  H46  1  0.52166839  0.83508625  0.14234403  1
  H  H47  1  0.47833161  0.16491375  0.85765597  1
  H  H48  1  0.31711543  0.51646160  0.44947759  1
  H  H49  1  0.68288457  0.48353840  0.55052241  1
  H  H50  1  0.18288457  0.48353840  0.94947759  1
  H  H51  1  0.68288457  0.01646160  0.55052241  1
  H  H52  1  0.81711543  0.51646160  0.05052241  1
  H  H53  1  0.31711543  0.98353840  0.44947759  1
  H  H54  1  0.81711543  0.98353840  0.05052241  1
  H  H55  1  0.18288457  0.01646160  0.94947759  1
  H  H56  1  0.08522766  0.05840452  0.24261812  1
  H  H57  1  0.91477234  0.94159548  0.75738188  1
  H  H58  1  0.41477234  0.94159548  0.74261812  1
  H  H59  1  0.91477234  0.55840452  0.75738188  1
  H  H60  1  0.58522766  0.05840452  0.25738188  1
  H  H61  1  0.08522766  0.44159548  0.24261812  1
  H  H62  1  0.58522766  0.44159548  0.25738188  1
  H  H63  1  0.41477234  0.55840452  0.74261812  1
  H  H64  1  0.21963414  0.01837798  0.12971338  1
  H  H65  1  0.78036586  0.98162202  0.87028662  1
  H  H66  1  0.28036586  0.98162202  0.62971338  1
  H  H67  1  0.78036586  0.51837798  0.87028662  1
  H  H68  1  0.71963414  0.01837798  0.37028662  1
  H  H69  1  0.21963414  0.48162202  0.12971338  1
  H  H70  1  0.71963414  0.48162202  0.37028662  1
  H  H71  1  0.28036586  0.51837798  0.62971338  1
  N  N0  1  0.21246207  0.03476558  0.45899929  1
  N  N1  1  0.78753793  0.96523442  0.54100071  1
  N  N2  1  0.28753793  0.96523442  0.95899929  1
  N  N3  1  0.78753793  0.53476558  0.54100071  1
  N  N4  1  0.71246207  0.03476558  0.04100071  1
  N  N5  1  0.21246207  0.46523442  0.45899929  1
  N  N6  1  0.71246207  0.46523442  0.04100071  1
  N  N7  1  0.28753793  0.53476558  0.95899929  1
  N  N8  1  0.33285711  0.00105786  0.09372093  1
  N  N9  1  0.66714289  0.99894214  0.90627907  1
  N  N10  1  0.16714289  0.99894214  0.59372093  1
  N  N11  1  0.66714289  0.50105786  0.90627907  1
  N  N12  1  0.83285711  0.00105786  0.40627907  1
  N  N13  1  0.33285711  0.49894214  0.09372093  1
  N  N14  1  0.83285711  0.49894214  0.40627907  1
  N  N15  1  0.16714289  0.50105786  0.59372093  1
  O  O0  1  0.06221110  0.07001434  0.19311350  1
  O  O1  1  0.93778890  0.92998566  0.80688650  1
  O  O2  1  0.43778890  0.92998566  0.69311350  1
  O  O3  1  0.93778890  0.57001434  0.80688650  1
  O  O4  1  0.56221110  0.07001434  0.30688650  1
  O  O5  1  0.06221110  0.42998566  0.19311350  1
  O  O6  1  0.56221110  0.42998566  0.30688650  1
  O  O7  1  0.43778890  0.57001434  0.69311350  1
  O  O8  1  0.26815007  0.25000000  0.29469824  1
  O  O9  1  0.73184993  0.75000000  0.70530176  1
  O  O10  1  0.23184993  0.75000000  0.79469824  1
  O  O11  1  0.76815007  0.25000000  0.20530176  1
  O  O12  1  0.15035545  0.03261061  0.32798490  1
  O  O13  1  0.84964455  0.96738939  0.67201510  1
  O  O14  1  0.34964455  0.96738939  0.82798490  1
  O  O15  1  0.84964455  0.53261061  0.67201510  1
  O  O16  1  0.65035545  0.03261061  0.17201510  1
  O  O17  1  0.15035545  0.46738939  0.32798490  1
  O  O18  1  0.65035545  0.46738939  0.17201510  1
  O  O19  1  0.34964455  0.53261061  0.82798490  1
  O  O20  1  0.05445076  0.60950016  0.05314409  1
  O  O21  1  0.94554924  0.39049984  0.94685591  1
  O  O22  1  0.44554924  0.39049984  0.55314409  1
  O  O23  1  0.94554924  0.10950016  0.94685591  1
  O  O24  1  0.55445076  0.60950016  0.44685591  1
  O  O25  1  0.05445076  0.89049984  0.05314409  1
  O  O26  1  0.55445076  0.89049984  0.44685591  1
  O  O27  1  0.44554924  0.10950016  0.55314409  1
  O  O28  1  0.05829021  0.15372318  0.54211946  1
  O  O29  1  0.94170979  0.84627682  0.45788054  1
  O  O30  1  0.44170979  0.84627682  0.04211946  1
  O  O31  1  0.94170979  0.65372318  0.45788054  1
  O  O32  1  0.55829021  0.15372318  0.95788054  1
  O  O33  1  0.05829021  0.34627682  0.54211946  1
  O  O34  1  0.55829021  0.34627682  0.95788054  1
  O  O35  1  0.44170979  0.65372318  0.04211946  1
  O  O36  1  0.45279233  0.25000000  0.65664290  1
  O  O37  1  0.54720767  0.75000000  0.34335710  1
  O  O38  1  0.04720767  0.75000000  0.15664290  1
  O  O39  1  0.95279233  0.25000000  0.84335710  1
  O  O40  1  0.50014647  0.16119747  0.10232304  1
  O  O41  1  0.49985353  0.83880253  0.89767696  1
  O  O42  1  -0.00014647  0.83880253  0.60232304  1
  O  O43  1  0.49985353  0.66119747  0.89767696  1
  O  O44  1  0.00014647  0.16119747  0.39767696  1
  O  O45  1  0.50014647  0.33880253  0.10232304  1
  O  O46  1  0.00014647  0.33880253  0.39767696  1
  O  O47  1  -0.00014647  0.66119747  0.60232304  1
  O  O48  1  0.14602851  0.25000000  0.01850226  1
  O  O49  1  0.85397149  0.75000000  0.98149774  1
  O  O50  1  0.35397149  0.75000000  0.51850226  1
  O  O51  1  0.64602851  0.25000000  0.48149774  1
  O  O52  1  0.04541993  0.65225920  0.30876816  1
  O  O53  1  0.95458007  0.34774080  0.69123184  1
  O  O54  1  0.45458007  0.34774080  0.80876816  1
  O  O55  1  0.95458007  0.15225920  0.69123184  1
  O  O56  1  0.54541993  0.65225920  0.19123184  1
  O  O57  1  0.04541993  0.84774080  0.30876816  1
  O  O58  1  0.54541993  0.84774080  0.19123184  1
  O  O59  1  0.45458007  0.15225920  0.80876816  1
loop_
_geom_bond_atom_site_label_1
_geom_bond_atom_site_label_2
_geom_bond_distance
_geom_bond_site_symmetry_2
K0 O11 2.721413 1_455
K0 O8 2.727202 1_555
K0 O48 2.740399 1_555
K0 O40 2.783850 1_555
K0 O45 2.783850 1_555
K0 O5 2.815713 1_555
K0 O0 2.815713 1_555
K1 O10 2.721413 1_655
K1 O9 2.727202 1_555
K1 O49 2.740399 1_555
K1 O41 2.783850 1_555
K1 O43 2.783850 1_555
K1 O3 2.815713 1_555
K1 O1 2.815713 1_555
K2 O9 2.721413 1_555
K2 O10 2.727202 1_555
K2 O50 2.740399 1_555
K2 O47 2.783850 1_555
K2 O42 2.783850 1_555
K2 O7 2.815713 1_555
K2 O2 2.815713 1_555
K3 O8 2.721413 1_555
K3 O11 2.727202 1_555
K3 O51 2.740399 1_555
K3 O46 2.783850 1_655
K3 O44 2.783850 1_655
K3 O6 2.815713 1_555
K3 O4 2.815713 1_555
Na0 O39 2.398936 1_455
Na0 O59 2.433143 1_555
Na0 O54 2.433143 1_555
Na0 O36 2.480020 1_555
Na0 O53 2.481679 1_455
Na0 O55 2.481679 1_455
Na1 O38 2.398936 1_655
Na1 O56 2.433143 1_555
Na1 O58 2.433143 1_555
Na1 O37 2.480020 1_555
Na1 O52 2.481679 1_655
Na1 O57 2.481679 1_655
Na2 O37 2.398936 1_555
Na2 O52 2.433143 1_555
Na2 O57 2.433143 1_555
Na2 O38 2.480020 1_555
Na2 O56 2.481679 1_555
Na2 O58 2.481679 1_555
Na3 O36 2.398936 1_555
Na3 O55 2.433143 1_555
Na3 O53 2.433143 1_555
Na3 O39 2.480020 1_555
Na3 O59 2.481679 1_555
Na3 O54 2.481679 1_555
Cu0 O33 1.971029 1_555
Cu0 O28 1.971029 1_555
Cu0 O46 1.984849 1_555
Cu0 O44 1.984849 1_555
Cu0 O51 2.346999 1_455
Cu1 O29 1.971029 1_555
Cu1 O31 1.971029 1_555
Cu1 O47 1.984849 1_655
Cu1 O42 1.984849 1_655
Cu1 O50 2.346999 1_655
Cu2 O35 1.971029 1_556
Cu2 O30 1.971029 1_556
Cu2 O41 1.984849 1_555
Cu2 O43 1.984849 1_555
Cu2 O49 2.346999 1_555
Cu3 O34 1.971029 1_554
Cu3 O32 1.971029 1_554
Cu3 O45 1.984849 1_555
Cu3 O40 1.984849 1_555
Cu3 O48 2.346999 1_555
H0 O38 0.988174 1_555
H1 O39 0.988174 1_555
H2 O36 0.988174 1_555
H3 O39 0.988174 1_555
H4 O37 0.988174 1_555
H5 O38 0.988174 1_555
H6 O37 0.988174 1_555
H7 O36 0.988174 1_555
H8 O4 0.990680 1_555
H9 O2 0.990680 1_555
H10 O1 0.990680 1_455
H11 O7 0.990680 1_555
H12 O0 0.990680 1_655
H13 O6 0.990680 1_555
H14 O5 0.990680 1_655
H15 O3 0.990680 1_455
H16 O48 0.990310 1_556
H17 O49 0.990310 1_554
H18 O50 0.990310 1_555
H19 O49 0.990310 1_554
H20 O51 0.990310 1_555
H21 O48 0.990310 1_556
H22 O51 0.990310 1_555
H23 O50 0.990310 1_555
H24 O8 0.979506 1_555
H25 O9 0.979506 1_555
H26 O10 0.979506 1_555
H27 O9 0.979506 1_555
H28 O11 0.979506 1_555
H29 O8 0.979506 1_555
H30 O11 0.979506 1_555
H31 O10 0.979506 1_555
H32 O52 0.989263 1_555
H33 O53 0.989263 1_555
H34 O54 0.989263 1_555
H35 O55 0.989263 1_555
H36 O56 0.989263 1_555
H37 O57 0.989263 1_555
H38 O58 0.989263 1_555
H39 O59 0.989263 1_555
H40 O52 0.982357 1_555
H41 O53 0.982357 1_555
H42 O54 0.982357 1_555
H43 O55 0.982357 1_555
H44 O56 0.982357 1_555
H45 O57 0.982357 1_555
H46 O58 0.982357 1_555
H47 O59 0.982357 1_555
H48 N5 1.034244 1_555
H49 N3 1.034244 1_555
H50 N7 1.034244 1_555
H51 N1 1.034244 1_545
H52 N6 1.034244 1_555
H53 N0 1.034244 1_565
H54 N4 1.034244 1_565
H55 N2 1.034244 1_545
H56 O0 0.990484 1_555
H57 O1 0.990484 1_555
H58 O2 0.990484 1_555
H59 O3 0.990484 1_555
H60 O4 0.990484 1_555
H61 O5 0.990484 1_555
H62 O6 0.990484 1_555
H63 O7 0.990484 1_555
H64 N8 1.048315 1_555
H65 N9 1.048315 1_555
H66 N10 1.048315 1_555
H67 N11 1.048315 1_555
H68 N12 1.048315 1_555
H69 N13 1.048315 1_555
H70 N14 1.048315 1_555
H71 N15 1.048315 1_555
N0 P8 1.660909 1_555
N0 P0 1.688036 1_555
N1 P9 1.660909 1_555
N1 P1 1.688036 1_555
N2 P10 1.660909 1_555
N2 P2 1.688036 1_556
N3 P11 1.660909 1_555
N3 P3 1.688036 1_555
N4 P12 1.660909 1_555
N4 P4 1.688036 1_554
N5 P13 1.660909 1_555
N5 P5 1.688036 1_555
N6 P14 1.660909 1_555
N6 P6 1.688036 1_554
N7 P15 1.660909 1_555
N7 P7 1.688036 1_556
N8 P2 1.667603 1_545
N8 P12 1.678724 1_555
N9 P4 1.667603 1_565
N9 P10 1.678724 1_555
N10 P0 1.667603 1_565
N10 P9 1.678724 1_455
N11 P6 1.667603 1_555
N11 P15 1.678724 1_555
N12 P1 1.667603 1_545
N12 P8 1.678724 1_655
N13 P7 1.667603 1_555
N13 P14 1.678724 1_555
N14 P3 1.667603 1_555
N14 P13 1.678724 1_655
N15 P5 1.667603 1_555
N15 P11 1.678724 1_455
O12 P8 1.522619 1_555
O13 P9 1.522619 1_555
O14 P10 1.522619 1_555
O15 P11 1.522619 1_555
O16 P12 1.522619 1_555
O17 P13 1.522619 1_555
O18 P14 1.522619 1_555
O19 P15 1.522619 1_555
O20 P7 1.513568 1_555
O21 P6 1.513568 1_555
O22 P5 1.513568 1_555
O23 P4 1.513568 1_555
O24 P3 1.513568 1_555
O25 P2 1.513568 1_555
O26 P1 1.513568 1_555
O27 P0 1.513568 1_555
O28 P0 1.537076 1_555
O29 P1 1.537076 1_555
O30 P2 1.537076 1_555
O31 P3 1.537076 1_555
O32 P4 1.537076 1_555
O33 P5 1.537076 1_555
O34 P6 1.537076 1_555
O35 P7 1.537076 1_555
O40 P12 1.530290 1_555
O41 P10 1.530290 1_555
O42 P9 1.530290 1_455
O43 P15 1.530290 1_555
O44 P8 1.530290 1_555
O45 P14 1.530290 1_555
O46 P13 1.530290 1_555
O47 P11 1.530290 1_455
