# generated using pymatgen
data_U3Cu3Sn4
_symmetry_space_group_name_H-M   'P 1'
_cell_length_a   8.26589725
_cell_length_b   8.26589725
_cell_length_c   8.26589725
_cell_angle_alpha   109.47122063
_cell_angle_beta   109.47122063
_cell_angle_gamma   109.47122063
_symmetry_Int_Tables_number   1
_chemical_formula_structural   U3Cu3Sn4
_chemical_formula_sum   'U6 Cu6 Sn8'
_cell_volume   434.75853427
_cell_formula_units_Z   2
loop_
 _symmetry_equiv_pos_site_id
 _symmetry_equiv_pos_as_xyz
  1  'x, y, z'
loop_
 _atom_site_type_symbol
 _atom_site_label
 _atom_site_symmetry_multiplicity
 _atom_site_fract_x
 _atom_site_fract_y
 _atom_site_fract_z
 _atom_site_occupancy
  U  U0  1  0.87500000  0.25000000  0.12500000  1
  U  U1  1  0.62500000  0.75000000  0.37500000  1
  U  U2  1  0.25000000  0.12500000  0.87500000  1
  U  U3  1  0.75000000  0.37500000  0.62500000  1
  U  U4  1  0.12500000  0.87500000  0.25000000  1
  U  U5  1  0.37500000  0.62500000  0.75000000  1
  Cu  Cu0  1  0.37500000  0.25000000  0.62500000  1
  Cu  Cu1  1  0.12500000  0.75000000  0.87500000  1
  Cu  Cu2  1  0.25000000  0.62500000  0.37500000  1
  Cu  Cu3  1  0.75000000  0.87500000  0.12500000  1
  Cu  Cu4  1  0.62500000  0.37500000  0.25000000  1
  Cu  Cu5  1  0.87500000  0.12500000  0.75000000  1
  Sn  Sn0  1  0.66617800  0.50000000  0.00000000  1
  Sn  Sn1  1  0.50000000  0.00000000  0.66617800  1
  Sn  Sn2  1  0.00000000  0.66617800  0.50000000  1
  Sn  Sn3  1  0.83382200  0.83382200  0.83382200  1
  Sn  Sn4  1  0.50000000  0.00000000  0.16617800  1
  Sn  Sn5  1  0.16617800  0.50000000  0.00000000  1
  Sn  Sn6  1  0.00000000  0.16617800  0.50000000  1
  Sn  Sn7  1  0.33382200  0.33382200  0.33382200  1
loop_
_geom_bond_atom_site_label_1
_geom_bond_atom_site_label_2
_geom_bond_distance
_geom_bond_site_symmetry_2
Cu0 Sn0 2.666767 1_556
Cu0 Sn1 2.666767 1_555
Cu0 Sn6 2.666767 1_555
Cu0 Sn7 2.666767 1_555
Cu0 U2 2.922436 1_555
Cu0 U3 2.922436 1_555
Cu0 U4 2.922436 1_545
Cu0 U5 2.922436 1_555
Cu1 Sn4 2.666767 1_566
Cu1 Sn2 2.666767 1_555
Cu1 Sn5 2.666767 1_556
Cu1 Sn3 2.666767 1_455
Cu1 U3 2.922436 1_455
Cu1 U2 2.922436 1_565
Cu1 U4 2.922436 1_556
Cu1 U5 2.922436 1_555
Cu2 Sn5 2.666767 1_555
Cu2 Sn2 2.666767 1_555
Cu2 Sn7 2.666767 1_555
Cu2 Sn1 2.666767 1_565
Cu2 U1 2.922436 1_555
Cu2 U4 2.922436 1_555
Cu2 U5 2.922436 1_555
Cu2 U0 2.922436 1_455
Cu3 Sn6 2.666767 1_665
Cu3 Sn4 2.666767 1_565
Cu3 Sn3 2.666767 1_554
Cu3 Sn0 2.666767 1_555
Cu3 U4 2.922436 1_655
Cu3 U1 2.922436 1_555
Cu3 U0 2.922436 1_565
Cu3 U5 2.922436 1_554
Cu4 Sn2 2.666767 1_655
Cu4 Sn0 2.666767 1_555
Cu4 Sn7 2.666767 1_555
Cu4 Sn4 2.666767 1_555
Cu4 U3 2.922436 1_555
Cu4 U2 2.922436 1_554
Cu4 U1 2.922436 1_555
Cu4 U0 2.922436 1_555
Cu5 Sn6 2.666767 1_655
Cu5 Sn5 2.666767 1_656
Cu5 Sn1 2.666767 1_555
Cu5 Sn3 2.666767 1_545
Cu5 U3 2.922436 1_555
Cu5 U0 2.922436 1_556
Cu5 U2 2.922436 1_655
Cu5 U1 2.922436 1_545
Sn0 U2 3.300962 1_554
Sn0 U1 3.300962 1_555
Sn0 U5 3.300962 1_554
Sn0 U0 3.306016 1_555
Sn0 U3 3.306016 1_554
Sn0 U4 3.306016 1_655
Sn1 U3 3.300962 1_555
Sn1 U4 3.300962 1_545
Sn1 U1 3.300962 1_545
Sn1 U2 3.306016 1_555
Sn1 U0 3.306016 1_556
Sn1 U5 3.306016 1_545
Sn2 U0 3.300962 1_455
Sn2 U5 3.300962 1_555
Sn2 U3 3.300962 1_455
Sn2 U2 3.306016 1_565
Sn2 U4 3.306016 1_555
Sn2 U1 3.306016 1_455
Sn3 U0 3.300962 1_566
Sn3 U2 3.300962 1_665
Sn3 U4 3.300962 1_656
Sn3 U3 3.306016 1_555
Sn3 U1 3.306016 1_555
Sn3 U5 3.306016 1_555
Sn4 U5 3.300962 1_544
Sn4 U2 3.300962 1_554
Sn4 U0 3.300962 1_555
Sn4 U3 3.306016 1_555
Sn4 U1 3.306016 1_545
Sn4 U4 3.306016 1_545
Sn5 U4 3.300962 1_555
Sn5 U3 3.300962 1_454
Sn5 U0 3.300962 1_455
Sn5 U2 3.306016 1_554
Sn5 U1 3.306016 1_555
Sn5 U5 3.306016 1_554
Sn6 U2 3.300962 1_555
Sn6 U4 3.300962 1_545
Sn6 U1 3.300962 1_445
Sn6 U0 3.306016 1_455
Sn6 U3 3.306016 1_455
Sn6 U5 3.306016 1_555
Sn7 U3 3.300962 1_555
Sn7 U1 3.300962 1_555
Sn7 U5 3.300962 1_555
Sn7 U2 3.306016 1_554
Sn7 U4 3.306016 1_545
Sn7 U0 3.306016 1_455
