# generated using pymatgen
data_Mn3Fe5O12
_symmetry_space_group_name_H-M   'P 1'
_cell_length_a   8.24588700
_cell_length_b   8.26383709
_cell_length_c   8.33134443
_cell_angle_alpha   109.72185013
_cell_angle_beta   108.81272460
_cell_angle_gamma   109.40086384
_symmetry_Int_Tables_number   1
_chemical_formula_structural   Mn3Fe5O12
_chemical_formula_sum   'Mn6 Fe10 O24'
_cell_volume   439.57011398
_cell_formula_units_Z   2
loop_
 _symmetry_equiv_pos_site_id
 _symmetry_equiv_pos_as_xyz
  1  'x, y, z'
loop_
 _atom_site_type_symbol
 _atom_site_label
 _atom_site_symmetry_multiplicity
 _atom_site_fract_x
 _atom_site_fract_y
 _atom_site_fract_z
 _atom_site_occupancy
  Mn  Mn0  1  0.46657900  0.21393300  0.75040000  1
  Mn  Mn1  1  0.00340700  0.99975200  0.99643100  1
  Mn  Mn2  1  0.00006100  0.49827000  0.49838100  1
  Mn  Mn3  1  0.75347500  0.02857100  0.71874100  1
  Mn  Mn4  1  0.49638800  0.49883700  0.00160300  1
  Mn  Mn5  1  0.25232400  0.46988000  0.77857800  1
  Fe  Fe0  1  0.20933600  0.74711900  0.04297300  1
  Fe  Fe1  1  0.71361500  0.75194700  0.53436100  1
  Fe  Fe2  1  0.96152800  0.71181300  0.75009700  1
  Fe  Fe3  1  0.03776900  0.28761900  0.24932700  1
  Fe  Fe4  1  0.29072400  0.25201700  0.45817800  1
  Fe  Fe5  1  0.78798100  0.24958300  0.96289500  1
  Fe  Fe6  1  0.49861900  0.00249400  0.50298400  1
  Fe  Fe7  1  0.74794800  0.53911300  0.20974600  1
  Fe  Fe8  1  0.24801900  0.96054500  0.29124600  1
  Fe  Fe9  1  0.53867700  0.79030300  0.25077000  1
  O  O0  1  0.43858800  0.95684000  0.77628200  1
  O  O1  1  0.72067500  0.26062600  0.74235300  1
  O  O2  1  0.77521200  0.99423800  0.95403800  1
  O  O3  1  0.95189500  0.50826400  0.26512200  1
  O  O4  1  0.45036700  0.72336200  0.54024200  1
  O  O5  1  0.73531700  0.77403200  0.76943500  1
  O  O6  1  0.50194200  0.45873500  0.75359300  1
  O  O7  1  0.99663800  0.77864500  0.95189700  1
  O  O8  1  0.76571900  0.03384600  0.47039300  1
  O  O9  1  0.22139500  0.19861300  0.73546000  1
  O  O10  1  0.05639300  0.28988800  0.50258900  1
  O  O11  1  0.72043900  0.45453900  0.99983700  1
  O  O12  1  0.94986500  0.71500700  0.50297700  1
  O  O13  1  0.78465200  0.79014600  0.26344900  1
  O  O14  1  0.28988400  0.55654000  0.99630500  1
  O  O15  1  0.49586400  0.54555000  0.24245700  1
  O  O16  1  0.22108700  0.95178300  0.54678600  1
  O  O17  1  0.00665500  0.22484000  0.03087300  1
  O  O18  1  0.28267600  0.22513700  0.22733700  1
  O  O19  1  0.04546900  0.50643800  0.73840100  1
  O  O20  1  0.55042300  0.27517800  0.44255200  1
  O  O21  1  0.20137100  0.98952300  0.06501700  1
  O  O22  1  0.28094400  0.73745800  0.25985200  1
  O  O23  1  0.55007500  0.04897800  0.22604900  1
loop_
_geom_bond_atom_site_label_1
_geom_bond_atom_site_label_2
_geom_bond_distance
_geom_bond_site_symmetry_2
Mn0 O6 1.935214 1_555
Mn0 O9 1.943206 1_555
Mn0 O16 2.014988 1_545
Mn0 O1 2.028395 1_555
Mn0 O11 2.072318 1_555
Mn0 O0 2.151534 1_545
Mn1 O21 1.587776 1_556
Mn1 O7 1.714861 1_455
Mn1 O17 1.773332 1_566
Mn1 O2 1.780744 1_455
Mn1 O5 2.031308 1_455
Mn1 O18 2.085184 1_566
Mn2 O19 1.884866 1_555
Mn2 O3 1.890378 1_455
Mn2 O10 1.934956 1_555
Mn2 O12 1.958878 1_455
Mn3 O1 1.978275 1_555
Mn3 O2 2.034233 1_545
Mn3 O8 2.117979 1_555
Mn3 O5 2.248669 1_545
Mn3 O4 2.388148 1_545
Mn4 O14 1.906321 1_554
Mn4 O15 1.912991 1_555
Mn4 O6 1.997576 1_554
Mn4 O11 2.002670 1_554
Mn5 O14 1.585179 1_555
Mn5 O19 1.776260 1_555
Mn5 O10 1.951669 1_555
Mn5 O9 2.058381 1_555
Mn5 O6 2.162831 1_555
Fe0 O22 1.749418 1_555
Fe0 O7 1.816150 1_454
Fe0 O14 1.876404 1_554
Fe0 O21 1.974257 1_555
Fe0 O19 2.194894 1_554
Fe1 O5 1.847163 1_555
Fe1 O15 2.096934 1_555
Fe1 O4 2.122721 1_555
Fe1 O12 2.150893 1_555
Fe1 O8 2.493221 1_565
Fe2 O7 1.472636 1_555
Fe2 O19 2.020236 1_655
Fe2 O12 2.039470 1_555
Fe2 O5 2.131851 1_555
Fe3 O17 1.618822 1_555
Fe3 O10 2.058758 1_555
Fe3 O3 2.144611 1_455
Fe4 O18 1.836320 1_555
Fe4 O6 2.104827 1_555
Fe4 O20 2.136283 1_555
Fe4 O10 2.180184 1_555
Fe5 O1 1.783690 1_555
Fe5 O17 1.810639 1_656
Fe5 O11 1.912859 1_555
Fe5 O2 2.052187 1_545
Fe5 Mn3 2.080504 1_555
Fe5 O3 2.233703 1_556
Fe5 O0 2.551931 1_545
Fe6 O1 2.014716 1_555
Fe6 O22 2.042298 1_545
Fe6 Fe8 2.064584 1_545
Fe6 Mn3 2.166869 1_555
Fe6 O8 2.246294 1_555
Fe6 O4 2.351319 1_545
Fe6 O16 2.355996 1_545
Fe6 Mn0 2.366206 1_555
Fe6 O20 2.403909 1_555
Fe6 O0 2.598934 1_545
Fe6 O23 2.602349 1_555
Fe7 O11 1.553132 1_554
Fe7 O3 1.723321 1_555
Fe7 O13 1.861299 1_555
Fe7 O12 2.055588 1_555
Fe7 Mn4 2.062183 1_555
Fe7 O15 2.197031 1_555
Fe8 O22 1.895705 1_555
Fe8 O21 1.912060 1_555
Fe8 O16 2.232814 1_555
Fe8 O20 2.453713 1_565
Fe9 O15 1.906738 1_555
Fe9 O8 1.924993 1_565
Fe9 O13 1.997184 1_555
Fe9 O22 2.054872 1_555
Fe9 O14 2.057436 1_554
Fe9 O23 2.190192 1_565
O2 O5 1.781064 1_555
