# generated using pymatgen
data_MoOs
_symmetry_space_group_name_H-M   'P 1'
_cell_length_a   5.56351137
_cell_length_b   5.56351137
_cell_length_c   9.01411000
_cell_angle_alpha   90.00000000
_cell_angle_beta   90.00000000
_cell_angle_gamma   119.99999252
_symmetry_Int_Tables_number   1
_chemical_formula_structural   MoOs
_chemical_formula_sum   'Mo8 Os8'
_cell_volume   241.63034722
_cell_formula_units_Z   8
loop_
 _symmetry_equiv_pos_site_id
 _symmetry_equiv_pos_as_xyz
  1  'x, y, z'
loop_
 _atom_site_type_symbol
 _atom_site_label
 _atom_site_symmetry_multiplicity
 _atom_site_fract_x
 _atom_site_fract_y
 _atom_site_fract_z
 _atom_site_occupancy
  Mo  Mo0_0  1  0.33333350  0.16666650  0.25000000  1
  Mo  Mo0_1  1  0.33333350  0.16666650  0.75000000  1
  Mo  Mo0_2  1  0.33333350  0.66666650  0.25000000  1
  Mo  Mo0_3  1  0.33333350  0.66666650  0.75000000  1
  Mo  Mo0_4  1  0.83333350  0.16666650  0.25000000  1
  Mo  Mo0_5  1  0.83333350  0.16666650  0.75000000  1
  Mo  Mo0_6  1  0.83333350  0.66666650  0.25000000  1
  Mo  Mo0_7  1  0.83333350  0.66666650  0.75000000  1
  Os  Os0_0  1  0.16666650  0.33333350  0.00000000  1
  Os  Os0_1  1  0.16666650  0.33333350  0.50000000  1
  Os  Os0_2  1  0.16666650  0.83333350  0.00000000  1
  Os  Os0_3  1  0.16666650  0.83333350  0.50000000  1
  Os  Os0_4  1  0.66666650  0.33333350  0.00000000  1
  Os  Os0_5  1  0.66666650  0.33333350  0.50000000  1
  Os  Os0_6  1  0.66666650  0.83333350  0.00000000  1
  Os  Os0_7  1  0.66666650  0.83333350  0.50000000  1
loop_
_geom_bond_atom_site_label_1
_geom_bond_atom_site_label_2
_geom_bond_distance
_geom_bond_site_symmetry_2
Mo0_0 Os0_3 2.767268 1_545
Mo0_0 Os0_4 2.767268 1_555
Mo0_0 Os0_2 2.767268 1_545
Mo0_0 Os0_5 2.767268 1_555
Mo0_0 Os0_1 2.767270 1_555
Mo0_0 Os0_0 2.767270 1_555
Mo0_0 Mo0_4 2.781756 1_555
Mo0_0 Mo0_2 2.781756 1_545
Mo0_0 Mo0_2 2.781756 1_555
Mo0_0 Mo0_4 2.781756 1_455
Mo0_0 Mo0_6 2.781756 1_445
Mo0_0 Mo0_6 2.781756 1_555
Mo0_1 Os0_3 2.767268 1_545
Mo0_1 Os0_2 2.767268 1_546
Mo0_1 Os0_4 2.767268 1_556
Mo0_1 Os0_5 2.767268 1_555
Mo0_1 Os0_1 2.767270 1_555
Mo0_1 Os0_0 2.767270 1_556
Mo0_1 Mo0_5 2.781756 1_555
Mo0_1 Mo0_5 2.781756 1_455
Mo0_1 Mo0_3 2.781756 1_545
Mo0_1 Mo0_3 2.781756 1_555
Mo0_1 Mo0_7 2.781756 1_445
Mo0_1 Mo0_7 2.781756 1_555
Mo0_2 Os0_0 2.767268 1_555
Mo0_2 Os0_1 2.767268 1_555
Mo0_2 Os0_6 2.767268 1_555
Mo0_2 Os0_7 2.767268 1_555
Mo0_2 Os0_2 2.767270 1_555
Mo0_2 Os0_3 2.767270 1_555
Mo0_2 Mo0_6 2.781756 1_555
Mo0_2 Mo0_6 2.781756 1_455
Mo0_2 Mo0_4 2.781756 1_565
Mo0_2 Mo0_4 2.781756 1_455
Mo0_3 Os0_0 2.767268 1_556
Mo0_3 Os0_1 2.767268 1_555
Mo0_3 Os0_6 2.767268 1_556
Mo0_3 Os0_7 2.767268 1_555
Mo0_3 Os0_3 2.767270 1_555
Mo0_3 Os0_2 2.767270 1_556
Mo0_3 Mo0_7 2.781756 1_455
Mo0_3 Mo0_7 2.781756 1_555
Mo0_3 Mo0_5 2.781756 1_565
Mo0_3 Mo0_5 2.781756 1_455
Mo0_4 Os0_6 2.767268 1_545
Mo0_4 Os0_7 2.767268 1_545
Mo0_4 Os0_0 2.767268 1_655
Mo0_4 Os0_1 2.767268 1_655
Mo0_4 Os0_4 2.767270 1_555
Mo0_4 Os0_5 2.767270 1_555
Mo0_4 Mo0_6 2.781756 1_545
Mo0_4 Mo0_6 2.781756 1_555
Mo0_5 Os0_6 2.767268 1_546
Mo0_5 Os0_7 2.767268 1_545
Mo0_5 Os0_0 2.767268 1_656
Mo0_5 Os0_1 2.767268 1_655
Mo0_5 Os0_4 2.767270 1_556
Mo0_5 Os0_5 2.767270 1_555
Mo0_5 Mo0_7 2.781756 1_545
Mo0_5 Mo0_7 2.781756 1_555
Mo0_6 Os0_2 2.767268 1_655
Mo0_6 Os0_3 2.767268 1_655
Mo0_6 Os0_5 2.767268 1_555
Mo0_6 Os0_4 2.767268 1_555
Mo0_6 Os0_6 2.767270 1_555
Mo0_6 Os0_7 2.767270 1_555
Mo0_7 Os0_3 2.767268 1_655
Mo0_7 Os0_2 2.767268 1_656
Mo0_7 Os0_5 2.767268 1_555
Mo0_7 Os0_4 2.767268 1_556
Mo0_7 Os0_6 2.767270 1_556
Mo0_7 Os0_7 2.767270 1_555
Os0_0 Os0_2 2.781756 1_545
Os0_0 Os0_4 2.781756 1_455
Os0_0 Os0_4 2.781756 1_555
Os0_0 Os0_2 2.781756 1_555
Os0_0 Os0_6 2.781756 1_445
Os0_0 Os0_6 2.781756 1_555
Os0_1 Os0_5 2.781756 1_555
Os0_1 Os0_3 2.781756 1_545
Os0_1 Os0_5 2.781756 1_455
Os0_1 Os0_3 2.781756 1_555
Os0_1 Os0_7 2.781756 1_445
Os0_1 Os0_7 2.781756 1_555
Os0_2 Os0_6 2.781756 1_455
Os0_2 Os0_6 2.781756 1_555
Os0_2 Os0_4 2.781756 1_455
Os0_2 Os0_4 2.781756 1_565
Os0_3 Os0_7 2.781756 1_455
Os0_3 Os0_7 2.781756 1_555
Os0_3 Os0_5 2.781756 1_455
Os0_3 Os0_5 2.781756 1_565
Os0_4 Os0_6 2.781756 1_555
Os0_4 Os0_6 2.781756 1_545
Os0_5 Os0_7 2.781756 1_555
Os0_5 Os0_7 2.781756 1_545
