# generated using pymatgen
data_U2Co(AsO12)2
_symmetry_space_group_name_H-M   'P 1'
_cell_length_a   7.18376963
_cell_length_b   7.10603968
_cell_length_c   11.00750058
_cell_angle_alpha   79.61067698
_cell_angle_beta   78.20729252
_cell_angle_gamma   91.39452836
_symmetry_Int_Tables_number   1
_chemical_formula_structural   U2Co(AsO12)2
_chemical_formula_sum   'U2 Co1 As2 O24'
_cell_volume   539.94070497
_cell_formula_units_Z   1
loop_
 _symmetry_equiv_pos_site_id
 _symmetry_equiv_pos_as_xyz
  1  'x, y, z'
loop_
 _atom_site_type_symbol
 _atom_site_label
 _atom_site_symmetry_multiplicity
 _atom_site_fract_x
 _atom_site_fract_y
 _atom_site_fract_z
 _atom_site_occupancy
  U  U0  1  0.77974200  0.27676200  0.89737000  1
  U  U1  1  0.22025800  0.72323800  0.10263000  1
  Co  Co0  1  0.00000000  0.00000000  0.50000000  1
  As  As0  1  0.24902600  0.25323800  0.99735000  1
  As  As1  1  0.75097400  0.74676200  0.00265000  1
  O  O0  1  0.46775200  0.24233900  0.90088300  1
  O  O1  1  0.53224800  0.75766100  0.09911700  1
  O  O2  1  0.08938000  0.31934700  0.90352200  1
  O  O3  1  0.91062000  0.68065300  0.09647800  1
  O  O4  1  0.18083400  0.03491700  0.09600100  1
  O  O5  1  0.81916600  0.96508300  0.90399900  1
  O  O6  1  0.26032800  0.41412500  0.09590000  1
  O  O7  1  0.73967200  0.58587500  0.90410000  1
  O  O8  1  0.72310400  0.22438400  0.06917900  1
  O  O9  1  0.27689600  0.77561600  0.93082100  1
  O  O10  1  0.83785700  0.32560100  0.72341600  1
  O  O11  1  0.16214300  0.67439900  0.27658400  1
  O  O12  1  0.16577400  0.11398300  0.58728800  1
  O  O13  1  0.83422600  0.88601700  0.41271200  1
  O  O14  1  0.82399100  0.15149800  0.54610700  1
  O  O15  1  0.17600900  0.84850200  0.45389300  1
  O  O16  1  0.46748700  0.92201600  0.68754800  1
  O  O17  1  0.53251300  0.07798400  0.31245200  1
  O  O18  1  0.52961900  0.25231600  0.32967700  1
  O  O19  1  0.47038100  0.74768400  0.67032300  1
  O  O20  1  0.31105700  0.65300000  0.68332600  1
  O  O21  1  0.68894300  0.34700000  0.31667400  1
  O  O22  1  0.07244100  0.96467400  0.66066800  1
  O  O23  1  0.92755900  0.03532600  0.33933200  1
loop_
_geom_bond_atom_site_label_1
_geom_bond_atom_site_label_2
_geom_bond_distance
_geom_bond_site_symmetry_2
Co0 O15 1.736746 1_545
Co0 O14 1.736746 1_455
Co0 O22 1.919384 1_545
Co0 O23 1.919384 1_455
Co0 O12 1.923242 1_555
Co0 O13 1.923242 1_445
As0 O2 1.714076 1_555
As0 O0 1.719321 1_555
As0 O4 1.721615 1_556
As0 O6 1.723141 1_556
As1 O3 1.714076 1_555
As1 O1 1.719321 1_555
As1 O5 1.721615 1_554
As1 O7 1.723141 1_554
O0 U0 2.240329 1_555
O1 U1 2.240329 1_555
O2 U0 2.253923 1_455
O3 U1 2.253923 1_655
O4 U1 2.229703 1_545
O5 U0 2.229703 1_565
O6 U1 2.234729 1_555
O7 U0 2.234729 1_555
O8 U0 1.817940 1_554
O9 U1 1.817940 1_556
O10 U0 1.840574 1_555
O11 U1 1.840574 1_555
O12 O22 1.289420 1_545
O13 O23 1.289420 1_565
O16 O19 1.286620 1_555
O17 O18 1.286620 1_555
O18 O21 1.282184 1_555
O19 O20 1.282184 1_555
