# generated using pymatgen
data_Li2CrCuO4
_symmetry_space_group_name_H-M   'P 1'
_cell_length_a   5.12531967
_cell_length_b   5.76306100
_cell_length_c   5.13163984
_cell_angle_alpha   89.99995705
_cell_angle_beta   68.36267544
_cell_angle_gamma   90.00003252
_symmetry_Int_Tables_number   1
_chemical_formula_structural   Li2CrCuO4
_chemical_formula_sum   'Li4 Cr2 Cu2 O8'
_cell_volume   140.89538895
_cell_formula_units_Z   2
loop_
 _symmetry_equiv_pos_site_id
 _symmetry_equiv_pos_as_xyz
  1  'x, y, z'
loop_
 _atom_site_type_symbol
 _atom_site_label
 _atom_site_symmetry_multiplicity
 _atom_site_fract_x
 _atom_site_fract_y
 _atom_site_fract_z
 _atom_site_occupancy
  Li  Li0  1  0.49999900  0.24990600  0.00000200  1
  Li  Li1  1  0.00000100  0.74997000  0.49999800  1
  Li  Li2  1  0.50000000  0.00009700  0.49999800  1
  Li  Li3  1  0.00000000  0.50000600  0.00000100  1
  Cr  Cr0  1  0.49999700  0.50074100  0.50000300  1
  Cr  Cr1  1  0.00000800  0.00074700  0.00000400  1
  Cu  Cu0  1  0.99999500  0.24975500  0.49999800  1
  Cu  Cu1  1  0.50000300  0.74972000  0.99999900  1
  O  O0  1  0.76788200  0.24981800  0.26726100  1
  O  O1  1  0.26799700  0.74981000  0.76739200  1
  O  O2  1  0.23211600  0.24981900  0.73273400  1
  O  O3  1  0.73200300  0.74981200  0.23260700  1
  O  O4  1  0.23567900  0.99987800  0.23595500  1
  O  O5  1  0.73559100  0.50002100  0.73605700  1
  O  O6  1  0.26440600  0.50002000  0.26394300  1
  O  O7  1  0.76432200  0.99988000  0.76404800  1
loop_
_geom_bond_atom_site_label_1
_geom_bond_atom_site_label_2
_geom_bond_distance
_geom_bond_site_symmetry_2
Li0 O6 2.040628 1_555
Li0 O5 2.040637 1_554
Li0 O4 2.041558 1_545
Li0 O7 2.041561 1_544
Li0 O0 2.270395 1_555
Li0 O2 2.270433 1_554
Li1 O4 2.040172 1_555
Li1 O7 2.040200 1_455
Li1 O6 2.041620 1_555
Li1 O5 2.041632 1_455
Li1 O3 2.271443 1_455
Li1 O1 2.271447 1_555
Li2 O0 2.042885 1_555
Li2 O2 2.042894 1_555
Li2 O3 2.043046 1_545
Li2 O1 2.043058 1_545
Li2 O4 2.241639 1_545
Li2 O7 2.241673 1_545
Li3 O0 2.042539 1_455
Li3 O2 2.042550 1_554
Li3 O1 2.043270 1_554
Li3 O3 2.043275 1_455
Li3 O6 2.241571 1_555
Li3 O5 2.241592 1_454
Cr0 O5 2.001023 1_555
Cr0 O6 2.001035 1_555
Cr0 O1 2.038094 1_555
Cr0 O3 2.038127 1_555
Cr0 O2 2.047754 1_555
Cr0 O0 2.047789 1_555
Cr1 O4 2.000913 1_545
Cr1 O7 2.000998 1_444
Cr1 O0 2.038009 1_455
Cr1 O2 2.038010 1_554
Cr1 O1 2.047864 1_544
Cr1 O3 2.047876 1_445
Cu0 O0 1.972178 1_555
Cu0 O2 1.972208 1_655
Cu0 O7 2.040045 1_545
Cu0 O4 2.040059 1_645
Cu0 O5 2.042910 1_555
Cu0 O6 2.042912 1_655
Cu1 O3 1.971151 1_556
Cu1 O1 1.971173 1_555
Cu1 O5 2.038933 1_555
Cu1 O6 2.038955 1_556
Cu1 O7 2.042089 1_555
Cu1 O4 2.042104 1_556
