# generated using pymatgen
data_CaC2
_symmetry_space_group_name_H-M   'P 1'
_cell_length_a   5.09389872
_cell_length_b   5.09389872
_cell_length_c   5.09389872
_cell_angle_alpha   149.44031303
_cell_angle_beta   100.64258077
_cell_angle_gamma   87.37598088
_symmetry_Int_Tables_number   1
_chemical_formula_structural   CaC2
_chemical_formula_sum   'Ca2 C4'
_cell_volume   64.32816787
_cell_formula_units_Z   2
loop_
 _symmetry_equiv_pos_site_id
 _symmetry_equiv_pos_as_xyz
  1  'x, y, z'
loop_
 _atom_site_type_symbol
 _atom_site_label
 _atom_site_symmetry_multiplicity
 _atom_site_fract_x
 _atom_site_fract_y
 _atom_site_fract_z
 _atom_site_occupancy
  Ca  Ca0  1  0.70600100  0.70600100  0.00000000  1
  Ca  Ca1  1  0.29399900  0.29399900  0.00000000  1
  C  C0  1  0.23246700  0.00000000  0.23246700  1
  C  C1  1  0.76753300  0.00000000  0.76753300  1
  C  C2  1  0.88781000  0.50000000  0.38781000  1
  C  C3  1  0.11219000  0.50000000  0.61219000  1
loop_
_geom_bond_atom_site_label_1
_geom_bond_atom_site_label_2
_geom_bond_distance
_geom_bond_site_symmetry_2
C0 C3 1.553762 1_555
C0 C3 1.553762 1_544
C0 Ca0 2.641501 1_445
C0 Ca1 2.641501 1_555
C0 Ca0 2.670872 1_556
C0 Ca0 2.670872 1_545
C0 Ca1 2.670872 1_545
C0 Ca1 2.670872 1_556
C1 C2 1.553762 1_556
C1 C2 1.553762 1_545
C1 Ca0 2.641501 1_546
C1 Ca1 2.641501 1_656
C1 Ca0 2.670872 1_556
C1 Ca1 2.670872 1_556
C1 Ca0 2.670872 1_545
C1 Ca1 2.670872 1_545
C2 C3 1.459530 1_655
C2 Ca1 2.650587 1_655
C2 Ca1 2.650587 1_666
C2 Ca0 2.650587 1_545
C2 Ca0 2.650587 1_556
C3 Ca1 2.650587 1_566
C3 Ca1 2.650587 1_555
C3 Ca0 2.650587 1_456
C3 Ca0 2.650587 1_445
