# generated using pymatgen
data_Ag5BS4
_symmetry_space_group_name_H-M   'P 1'
_cell_length_a   8.19667008
_cell_length_b   8.19667008
_cell_length_c   8.19667008
_cell_angle_alpha   60.00000000
_cell_angle_beta   60.00000000
_cell_angle_gamma   60.00000000
_symmetry_Int_Tables_number   1
_chemical_formula_structural   Ag5BS4
_chemical_formula_sum   'Ag10 B2 S8'
_cell_volume   389.40127352
_cell_formula_units_Z   2
loop_
 _symmetry_equiv_pos_site_id
 _symmetry_equiv_pos_as_xyz
  1  'x, y, z'
loop_
 _atom_site_type_symbol
 _atom_site_label
 _atom_site_symmetry_multiplicity
 _atom_site_fract_x
 _atom_site_fract_y
 _atom_site_fract_z
 _atom_site_occupancy
  Ag  Ag0  1  0.22133000  0.22133000  0.77867000  1
  Ag  Ag1  1  0.77867000  0.77867000  0.22133000  1
  Ag  Ag2  1  0.22133000  0.77867000  0.22133000  1
  Ag  Ag3  1  0.77867000  0.22133000  0.77867000  1
  Ag  Ag4  1  0.77867000  0.22133000  0.22133000  1
  Ag  Ag5  1  0.22133000  0.77867000  0.77867000  1
  Ag  Ag6  1  0.50844200  0.16385300  0.16385300  1
  Ag  Ag7  1  0.16385300  0.50844200  0.16385300  1
  Ag  Ag8  1  0.16385300  0.16385300  0.50844200  1
  Ag  Ag9  1  0.16385300  0.16385300  0.16385300  1
  B  B0  1  0.75000000  0.75000000  0.75000000  1
  B  B1  1  0.50000000  0.50000000  0.50000000  1
  S  S0  1  0.45261700  0.84912800  0.84912800  1
  S  S1  1  0.84912800  0.45261700  0.84912800  1
  S  S2  1  0.84912800  0.84912800  0.45261700  1
  S  S3  1  0.84912800  0.84912800  0.84912800  1
  S  S4  1  0.79679600  0.40106800  0.40106800  1
  S  S5  1  0.40106800  0.79679600  0.40106800  1
  S  S6  1  0.40106800  0.40106800  0.79679600  1
  S  S7  1  0.40106800  0.40106800  0.40106800  1
loop_
_geom_bond_atom_site_label_1
_geom_bond_atom_site_label_2
_geom_bond_distance
_geom_bond_site_symmetry_2
Ag0 S0 2.604662 1_545
Ag0 S1 2.604662 1_455
Ag0 S6 2.640316 1_555
Ag0 S7 2.640316 1_555
Ag0 Ag8 2.767487 1_555
Ag0 Ag9 2.767495 1_556
Ag1 S3 2.604660 1_554
Ag1 S2 2.604668 1_555
Ag1 S4 2.640316 1_555
Ag1 S5 2.640316 1_555
Ag1 Ag6 2.767493 1_565
Ag1 Ag7 2.767493 1_655
Ag2 S0 2.604662 1_554
Ag2 S2 2.604662 1_455
Ag2 S5 2.640316 1_555
Ag2 S7 2.640316 1_555
Ag2 Ag7 2.767487 1_555
Ag2 Ag9 2.767495 1_565
Ag3 S3 2.604660 1_545
Ag3 S1 2.604668 1_555
Ag3 S4 2.640316 1_555
Ag3 S6 2.640316 1_555
Ag3 Ag8 2.767493 1_655
Ag3 Ag6 2.767493 1_556
Ag4 S2 2.604662 1_545
Ag4 S1 2.604662 1_554
Ag4 S4 2.640316 1_555
Ag4 S7 2.640316 1_555
Ag4 Ag6 2.767487 1_555
Ag4 Ag9 2.767495 1_655
Ag5 S3 2.604660 1_455
Ag5 S0 2.604668 1_555
Ag5 S5 2.640316 1_555
Ag5 S6 2.640316 1_555
Ag5 Ag8 2.767493 1_565
Ag5 Ag7 2.767493 1_556
Ag6 Ag8 2.824482 1_555
Ag6 Ag7 2.824482 1_555
Ag6 Ag9 2.824482 1_555
Ag6 S7 2.948530 1_555
Ag6 S6 2.948537 1_554
Ag6 S5 2.948537 1_545
Ag7 Ag8 2.824482 1_555
Ag7 Ag9 2.824482 1_555
Ag7 S7 2.948530 1_555
Ag7 S6 2.948537 1_554
Ag7 S4 2.948537 1_455
Ag8 Ag9 2.824482 1_555
Ag8 S7 2.948530 1_555
Ag8 S5 2.948537 1_545
Ag8 S4 2.948537 1_455
Ag9 S6 2.948533 1_554
Ag9 S5 2.948533 1_545
Ag9 S4 2.948533 1_455
B0 S0 1.990252 1_555
B0 S2 1.990252 1_555
B0 S1 1.990252 1_555
B0 S3 1.990258 1_555
B1 S5 1.986323 1_555
B1 S4 1.986323 1_555
B1 S6 1.986323 1_555
B1 S7 1.986323 1_555
