# generated using pymatgen
data_TaAlFe
_symmetry_space_group_name_H-M   'P 1'
_cell_length_a   4.90181612
_cell_length_b   4.95050001
_cell_length_c   8.04999300
_cell_angle_alpha   90.00000000
_cell_angle_beta   90.00000000
_cell_angle_gamma   120.33139865
_symmetry_Int_Tables_number   1
_chemical_formula_structural   TaAlFe
_chemical_formula_sum   'Ta4 Al4 Fe4'
_cell_volume   168.60569041
_cell_formula_units_Z   4
loop_
 _symmetry_equiv_pos_site_id
 _symmetry_equiv_pos_as_xyz
  1  'x, y, z'
loop_
 _atom_site_type_symbol
 _atom_site_label
 _atom_site_symmetry_multiplicity
 _atom_site_fract_x
 _atom_site_fract_y
 _atom_site_fract_z
 _atom_site_occupancy
  Ta  Ta0  1  0.66976200  0.33487400  0.55343800  1
  Ta  Ta1  1  0.33378500  0.66689700  0.43016300  1
  Ta  Ta2  1  0.33378500  0.66689700  0.06983700  1
  Ta  Ta3  1  0.66976200  0.33487400  0.94656200  1
  Al  Al0  1  0.98726100  0.99362100  0.49207100  1
  Al  Al1  1  0.98726100  0.99362100  0.00792900  1
  Al  Al2  1  0.17950600  0.34736500  0.75000000  1
  Al  Al3  1  0.17950000  0.83213000  0.75000000  1
  Fe  Fe0  1  0.67030200  0.83518000  0.75000000  1
  Fe  Fe1  1  0.82406600  0.65213800  0.25000000  1
  Fe  Fe2  1  0.82404600  0.17190100  0.25000000  1
  Fe  Fe3  1  0.34096300  0.17050200  0.25000000  1
loop_
_geom_bond_atom_site_label_1
_geom_bond_atom_site_label_2
_geom_bond_distance
_geom_bond_site_symmetry_2
Ta0 Ta1 2.979498 1_655
Ta0 Ta1 3.021863 1_545
Ta0 Ta1 3.022050 1_555
Ta0 Ta3 3.164645 1_555
Ta1 Ta2 2.900622 1_555
Ta2 Ta3 2.979498 1_454
Ta2 Ta3 3.021863 1_564
Ta2 Ta3 3.022050 1_554
Al0 Fe1 2.434998 1_555
Al0 Fe2 2.435056 1_565
Al0 Fe3 2.456971 1_665
Al0 Fe0 2.471726 1_555
Al0 Al3 2.568875 1_655
Al0 Al2 2.568878 1_665
Al0 Ta1 2.809316 1_555
Al0 Ta0 2.859196 1_555
Al0 Ta0 2.859311 1_565
Al0 Ta1 2.919691 1_655
Al0 Ta1 2.919709 1_665
Al0 Ta0 2.929512 1_665
Al1 Fe1 2.434998 1_555
Al1 Fe2 2.435056 1_565
Al1 Fe3 2.456971 1_665
Al1 Fe0 2.471726 1_554
Al1 Al3 2.568875 1_654
Al1 Al2 2.568878 1_664
Al1 Ta2 2.809316 1_555
Al1 Ta3 2.859196 1_554
Al1 Ta3 2.859311 1_564
Al1 Ta2 2.919691 1_655
Al1 Ta2 2.919709 1_665
Al1 Ta3 2.929512 1_664
Al2 Fe0 2.398289 1_555
Al2 Al3 2.399844 1_555
Al2 Fe0 2.503421 1_445
Al2 Al3 2.550656 1_545
Al2 Ta3 2.903922 1_555
Al2 Ta0 2.903922 1_555
Al2 Ta2 2.914604 1_556
Al2 Ta1 2.914604 1_555
Al2 Ta0 2.931701 1_455
Al2 Ta3 2.931701 1_455
Al3 Fe0 2.398232 1_555
Al3 Fe0 2.503654 1_455
Al3 Ta0 2.903854 1_565
Al3 Ta3 2.903854 1_565
Al3 Ta2 2.914596 1_556
Al3 Ta1 2.914596 1_555
Al3 Ta3 2.931624 1_455
Al3 Ta0 2.931624 1_455
Fe0 Ta0 2.937640 1_565
Fe0 Ta3 2.937640 1_565
Fe0 Ta3 2.937941 1_555
Fe0 Ta0 2.937941 1_555
Fe0 Ta2 2.942121 1_556
Fe0 Ta1 2.942121 1_555
Fe1 Fe3 2.364340 1_555
Fe1 Fe2 2.377364 1_555
Fe1 Fe3 2.537320 1_665
Fe1 Fe2 2.573136 1_565
Fe1 Ta0 2.793875 1_555
Fe1 Ta3 2.793875 1_554
Fe1 Ta1 2.839328 1_555
Fe1 Ta2 2.839328 1_555
Fe1 Ta1 2.857815 1_655
Fe1 Ta2 2.857815 1_655
Fe2 Fe3 2.364494 1_555
Fe2 Fe3 2.537337 1_655
Fe2 Ta3 2.793884 1_554
Fe2 Ta0 2.793884 1_555
Fe2 Ta2 2.839132 1_545
Fe2 Ta1 2.839132 1_545
Fe2 Ta1 2.857860 1_655
Fe2 Ta2 2.857860 1_655
Fe3 Ta3 2.811016 1_554
Fe3 Ta0 2.811016 1_555
Fe3 Ta2 2.868937 1_555
Fe3 Ta1 2.868937 1_555
Fe3 Ta2 2.869072 1_545
Fe3 Ta1 2.869072 1_545
