# generated using pymatgen
data_LaTh3Ru8
_symmetry_space_group_name_H-M   'P 1'
_cell_length_a   9.39327285
_cell_length_b   9.39327285
_cell_length_c   9.39327308
_cell_angle_alpha   33.78976364
_cell_angle_beta   33.78976364
_cell_angle_gamma   33.78976164
_symmetry_Int_Tables_number   1
_chemical_formula_structural   LaTh3Ru8
_chemical_formula_sum   'La1 Th3 Ru8'
_cell_volume   228.42293339
_cell_formula_units_Z   1
loop_
 _symmetry_equiv_pos_site_id
 _symmetry_equiv_pos_as_xyz
  1  'x, y, z'
loop_
 _atom_site_type_symbol
 _atom_site_label
 _atom_site_symmetry_multiplicity
 _atom_site_fract_x
 _atom_site_fract_y
 _atom_site_fract_z
 _atom_site_occupancy
  La  La0  1  0.12480200  0.12480200  0.12480200  1
  Th  Th0  1  0.62494800  0.62494800  0.62494800  1
  Th  Th1  1  0.00137700  0.00137700  0.00137700  1
  Th  Th2  1  0.49887100  0.49887100  0.49887100  1
  Ru  Ru0  1  0.56228800  0.56228800  0.06052900  1
  Ru  Ru1  1  0.06256100  0.06256100  0.56471900  1
  Ru  Ru2  1  0.56228800  0.06052900  0.56228800  1
  Ru  Ru3  1  0.06256100  0.56471900  0.06256100  1
  Ru  Ru4  1  0.81254900  0.81254900  0.81254900  1
  Ru  Ru5  1  0.31250800  0.31250800  0.31250800  1
  Ru  Ru6  1  0.06052900  0.56228800  0.56228800  1
  Ru  Ru7  1  0.56471900  0.06256100  0.06256100  1
loop_
_geom_bond_atom_site_label_1
_geom_bond_atom_site_label_2
_geom_bond_distance
_geom_bond_site_symmetry_2
La0 Ru4 3.201436 1_454
La0 Ru4 3.201436 1_544
La0 Ru4 3.201437 1_445
La0 Ru0 3.202788 1_545
La0 Ru0 3.202788 1_455
La0 Ru6 3.202788 1_545
La0 Ru2 3.202788 1_455
La0 Ru6 3.202788 1_554
La0 Ru2 3.202788 1_554
La0 Ru3 3.208745 1_555
La0 Ru7 3.208745 1_555
La0 Ru1 3.208745 1_555
La0 Th1 3.276411 1_555
La0 Th2 3.332475 1_455
La0 Th2 3.332475 1_545
La0 Th2 3.332475 1_554
Th0 Th2 3.346811 1_555
Th0 Th1 3.353327 1_566
Th0 Th1 3.353327 1_656
Th0 Th1 3.353327 1_665
Ru0 Ru5 2.702013 1_555
Ru0 Ru2 2.720239 1_564
Ru0 Ru6 2.720239 1_654
Ru0 Ru4 2.731334 1_554
Ru0 Ru2 2.739446 1_555
Ru0 Ru6 2.739446 1_555
Ru0 Th0 3.162852 1_554
Ru0 Th1 3.164875 1_655
Ru0 Th1 3.164875 1_565
Ru0 Th2 3.177939 1_555
Ru1 Ru5 2.703481 1_555
Ru1 Ru3 2.718060 1_546
Ru1 Ru7 2.718060 1_456
Ru1 Ru4 2.728091 1_445
Ru1 Ru7 2.741624 1_555
Ru1 Ru3 2.741624 1_555
Ru1 Th0 3.183065 1_455
Ru1 Th0 3.183065 1_545
Ru1 Th1 3.193228 1_556
Ru1 Th2 3.221100 1_455
Ru1 Th2 3.221100 1_545
Ru2 Ru5 2.702013 1_555
Ru2 Ru6 2.720238 1_645
Ru2 Ru4 2.731334 1_545
Ru2 Ru6 2.739446 1_555
Ru2 Th0 3.162852 1_545
Ru2 Th1 3.164876 1_556
Ru2 Th1 3.164876 1_655
Ru2 Th2 3.177939 1_555
Ru3 Ru5 2.703481 1_555
Ru3 Ru7 2.718060 1_465
Ru3 Ru4 2.728091 1_454
Ru3 Ru7 2.741624 1_555
Ru3 Th0 3.183065 1_554
Ru3 Th0 3.183065 1_455
Ru3 Th1 3.193228 1_565
Ru3 Th2 3.221100 1_455
Ru3 Th2 3.221100 1_554
Ru4 Ru7 2.728091 1_566
Ru4 Ru6 2.731334 1_655
Ru4 Th2 3.195041 1_655
Ru4 Th2 3.195041 1_565
Ru4 Th2 3.195042 1_556
Ru5 Ru6 2.702013 1_555
Ru5 Ru7 2.703481 1_555
Ru5 Th0 3.200572 1_545
Ru5 Th0 3.200572 1_455
Ru5 Th0 3.200573 1_554
Ru5 Th1 3.206777 1_655
Ru5 Th1 3.206777 1_565
Ru5 Th1 3.206777 1_556
Ru6 Th0 3.162852 1_455
Ru6 Th1 3.164876 1_556
Ru6 Th1 3.164876 1_565
Ru6 Th2 3.177939 1_555
Ru7 Th0 3.183065 1_554
Ru7 Th0 3.183065 1_545
Ru7 Th1 3.193228 1_655
Ru7 Th2 3.221100 1_545
Ru7 Th2 3.221100 1_554
