# generated using pymatgen
data_Dy5Si3C
_symmetry_space_group_name_H-M   'P 1'
_cell_length_a   8.46429000
_cell_length_b   8.46428986
_cell_length_c   6.38243000
_cell_angle_alpha   90.00000000
_cell_angle_beta   90.00000000
_cell_angle_gamma   120.00000056
_symmetry_Int_Tables_number   1
_chemical_formula_structural   Dy5Si3C
_chemical_formula_sum   'Dy10 Si6 C2'
_cell_volume   396.00233925
_cell_formula_units_Z   2
loop_
 _symmetry_equiv_pos_site_id
 _symmetry_equiv_pos_as_xyz
  1  'x, y, z'
loop_
 _atom_site_type_symbol
 _atom_site_label
 _atom_site_symmetry_multiplicity
 _atom_site_fract_x
 _atom_site_fract_y
 _atom_site_fract_z
 _atom_site_occupancy
  Dy  Dy0  1  0.66666700  0.33333300  0.00000000  1
  Dy  Dy1  1  0.33333300  0.66666700  0.00000000  1
  Dy  Dy2  1  0.33333300  0.66666700  0.50000000  1
  Dy  Dy3  1  0.66666700  0.33333300  0.50000000  1
  Dy  Dy4  1  0.77600300  0.77600300  0.75000000  1
  Dy  Dy5  1  0.22399700  0.00000000  0.75000000  1
  Dy  Dy6  1  0.00000000  0.22399700  0.75000000  1
  Dy  Dy7  1  0.22399700  0.22399700  0.25000000  1
  Dy  Dy8  1  0.77600300  0.00000000  0.25000000  1
  Dy  Dy9  1  0.00000000  0.77600300  0.25000000  1
  Si  Si0  1  0.40716700  0.40716700  0.75000000  1
  Si  Si1  1  0.59283300  0.00000000  0.75000000  1
  Si  Si2  1  0.00000000  0.59283300  0.75000000  1
  Si  Si3  1  0.59283300  0.59283300  0.25000000  1
  Si  Si4  1  0.40716700  0.00000000  0.25000000  1
  Si  Si5  1  0.00000000  0.40716700  0.25000000  1
  C  C0  1  0.00000000  0.00000000  0.00000000  1
  C  C1  1  0.00000000  0.00000000  0.50000000  1
loop_
_geom_bond_atom_site_label_1
_geom_bond_atom_site_label_2
_geom_bond_distance
_geom_bond_site_symmetry_2
Dy0 Si1 3.022205 1_554
Dy0 Si5 3.022205 1_655
Dy0 Si4 3.022207 1_555
Dy0 Si2 3.022207 1_654
Dy0 Si3 3.022212 1_555
Dy0 Si0 3.022212 1_554
Dy1 Si4 3.022205 1_565
Dy1 Si2 3.022205 1_554
Dy1 Si1 3.022207 1_564
Dy1 Si5 3.022207 1_555
Dy1 Si0 3.022212 1_554
Dy1 Si3 3.022212 1_555
Dy2 Si4 3.022205 1_565
Dy2 Si2 3.022205 1_555
Dy2 Si1 3.022207 1_565
Dy2 Si5 3.022207 1_555
Dy2 Si0 3.022212 1_555
Dy2 Si3 3.022212 1_555
Dy3 Si1 3.022205 1_555
Dy3 Si5 3.022205 1_655
Dy3 Si4 3.022207 1_555
Dy3 Si2 3.022207 1_655
Dy3 Si3 3.022212 1_555
Dy3 Si0 3.022212 1_555
Dy4 Si1 2.989649 1_565
Dy4 Si2 2.989649 1_655
Dy4 Si0 3.121935 1_555
Dy4 Si3 3.547902 1_555
Dy4 Si3 3.547902 1_556
Dy5 Si0 2.989649 1_555
Dy5 Si2 2.989649 1_545
Dy5 Si1 3.121935 1_555
Dy5 Si4 3.547902 1_556
Dy5 Si4 3.547902 1_555
Dy6 Si1 2.989649 1_455
Dy6 Si0 2.989649 1_555
Dy6 Si2 3.121935 1_555
Dy6 Si5 3.547902 1_555
Dy6 Si5 3.547902 1_556
Dy7 Si4 2.989649 1_555
Dy7 Si5 2.989649 1_555
Dy7 Si3 3.121935 1_555
Dy7 Si0 3.547902 1_554
Dy7 Si0 3.547902 1_555
Dy8 Si5 2.989649 1_655
Dy8 Si3 2.989649 1_545
Dy8 Si4 3.121935 1_555
Dy8 Si1 3.547902 1_554
Dy8 Si1 3.547902 1_555
Dy9 Si4 2.989649 1_565
Dy9 Si3 2.989649 1_455
Dy9 Si5 3.121935 1_555
Dy9 Si2 3.547902 1_555
Dy9 Si2 3.547902 1_554
C0 Dy9 2.478041 1_545
C0 Dy7 2.478041 1_555
C0 Dy4 2.478041 1_444
C0 Dy6 2.478041 1_554
C0 Dy5 2.478041 1_554
C0 Dy8 2.478041 1_455
C1 Dy6 2.478041 1_555
C1 Dy9 2.478041 1_545
C1 Dy7 2.478041 1_555
C1 Dy4 2.478041 1_445
C1 Dy5 2.478041 1_555
C1 Dy8 2.478041 1_455
