# generated using pymatgen
data_TbB2Os
_symmetry_space_group_name_H-M   'P 1'
_cell_length_a   5.31623027
_cell_length_b   5.90238056
_cell_length_c   6.38454881
_cell_angle_alpha   90.00000000
_cell_angle_beta   90.00000000
_cell_angle_gamma   90.00000000
_symmetry_Int_Tables_number   1
_chemical_formula_structural   TbB2Os
_chemical_formula_sum   'Tb4 B8 Os4'
_cell_volume   200.33701703
_cell_formula_units_Z   4
loop_
 _symmetry_equiv_pos_site_id
 _symmetry_equiv_pos_as_xyz
  1  'x, y, z'
loop_
 _atom_site_type_symbol
 _atom_site_label
 _atom_site_symmetry_multiplicity
 _atom_site_fract_x
 _atom_site_fract_y
 _atom_site_fract_z
 _atom_site_occupancy
  Tb  Tb0  1  0.25000000  0.00941539  0.33594528  1
  Tb  Tb1  1  0.25000000  0.50941539  0.16405472  1
  Tb  Tb2  1  0.75000000  0.99058461  0.66405472  1
  Tb  Tb3  1  0.75000000  0.49058461  0.83594528  1
  B  B0  1  0.08272009  0.36375834  0.54017747  1
  B  B1  1  0.41727991  0.86375834  0.95982253  1
  B  B2  1  0.58272009  0.63624166  0.45982253  1
  B  B3  1  0.91727991  0.13624166  0.04017747  1
  B  B4  1  0.91727991  0.63624166  0.45982253  1
  B  B5  1  0.58272009  0.13624166  0.04017747  1
  B  B6  1  0.41727991  0.36375834  0.54017747  1
  B  B7  1  0.08272009  0.86375834  0.95982253  1
  Os  Os0  1  0.25000000  0.17652997  0.81938448  1
  Os  Os1  1  0.25000000  0.67652997  0.68061552  1
  Os  Os2  1  0.75000000  0.82347003  0.18061552  1
  Os  Os3  1  0.75000000  0.32347003  0.31938448  1
loop_
_geom_bond_atom_site_label_1
_geom_bond_atom_site_label_2
_geom_bond_distance
_geom_bond_site_symmetry_2
B0 B6 1.778597 1_555
B0 B4 1.903518 1_455
B0 Os1 2.236712 1_555
B0 Os3 2.274294 1_455
B0 Os0 2.278110 1_555
B0 Tb0 2.620176 1_555
B0 Tb3 2.693496 1_455
B0 Tb1 2.701217 1_555
B0 Tb2 2.933554 1_445
B1 B7 1.778597 1_555
B1 B5 1.903518 1_566
B1 Os0 2.236712 1_565
B1 Os2 2.274294 1_556
B1 Os1 2.278110 1_555
B1 Tb1 2.620176 1_556
B1 Tb2 2.693496 1_555
B1 Tb0 2.701217 1_566
B1 Tb3 2.933554 1_555
B2 B4 1.778597 1_555
B2 B6 1.903518 1_555
B2 Os3 2.236712 1_555
B2 Os1 2.274294 1_555
B2 Os2 2.278110 1_555
B2 Tb2 2.620176 1_555
B2 Tb1 2.693496 1_555
B2 Tb3 2.701217 1_555
B2 Tb0 2.933554 1_565
B3 B5 1.778597 1_555
B3 B7 1.903518 1_644
B3 Os2 2.236712 1_545
B3 Os0 2.274294 1_654
B3 Os3 2.278110 1_555
B3 Tb3 2.620176 1_554
B3 Tb0 2.693496 1_655
B3 Tb2 2.701217 1_544
B3 Tb1 2.933554 1_655
B4 Os3 2.236712 1_555
B4 Os1 2.274294 1_655
B4 Os2 2.278110 1_555
B4 Tb2 2.620176 1_555
B4 Tb1 2.693496 1_655
B4 Tb3 2.701217 1_555
B4 Tb0 2.933554 1_665
B5 Os2 2.236712 1_545
B5 Os0 2.274294 1_554
B5 Os3 2.278110 1_555
B5 Tb3 2.620176 1_554
B5 Tb0 2.693496 1_555
B5 Tb2 2.701217 1_544
B5 Tb1 2.933554 1_555
B6 Os1 2.236712 1_555
B6 Os3 2.274294 1_555
B6 Os0 2.278110 1_555
B6 Tb0 2.620176 1_555
B6 Tb3 2.693496 1_555
B6 Tb1 2.701217 1_555
B6 Tb2 2.933554 1_545
B7 Os0 2.236712 1_565
B7 Os2 2.274294 1_456
B7 Os1 2.278110 1_555
B7 Tb1 2.620176 1_556
B7 Tb2 2.693496 1_455
B7 Tb0 2.701217 1_566
B7 Tb3 2.933554 1_455
Os0 Tb1 2.950082 1_556
Os1 Tb0 2.950082 1_565
Os2 Tb3 2.950082 1_554
Os3 Tb2 2.950082 1_545
