# generated using pymatgen
data_Ba7Sn3S13
_symmetry_space_group_name_H-M   'P 1'
_cell_length_a   9.03606400
_cell_length_b   12.47045700
_cell_length_c   24.41472800
_cell_angle_alpha   90.00000000
_cell_angle_beta   90.00000000
_cell_angle_gamma   90.00000000
_symmetry_Int_Tables_number   1
_chemical_formula_structural   Ba7Sn3S13
_chemical_formula_sum   'Ba28 Sn12 S52'
_cell_volume   2751.14548820
_cell_formula_units_Z   4
loop_
 _symmetry_equiv_pos_site_id
 _symmetry_equiv_pos_as_xyz
  1  'x, y, z'
loop_
 _atom_site_type_symbol
 _atom_site_label
 _atom_site_symmetry_multiplicity
 _atom_site_fract_x
 _atom_site_fract_y
 _atom_site_fract_z
 _atom_site_occupancy
  Ba  Ba0  1  0.11825700  0.68805400  0.53290800  1
  Ba  Ba1  1  0.38174300  0.18805400  0.96709200  1
  Ba  Ba2  1  0.88174300  0.31194600  0.03290800  1
  Ba  Ba3  1  0.61825700  0.81194600  0.46709200  1
  Ba  Ba4  1  0.88174300  0.31194600  0.46709200  1
  Ba  Ba5  1  0.61825700  0.81194600  0.03290800  1
  Ba  Ba6  1  0.11825700  0.68805400  0.96709200  1
  Ba  Ba7  1  0.38174300  0.18805400  0.53290800  1
  Ba  Ba8  1  0.60310300  0.84277300  0.65502900  1
  Ba  Ba9  1  0.89689700  0.34277300  0.84497100  1
  Ba  Ba10  1  0.39689700  0.15722700  0.15502900  1
  Ba  Ba11  1  0.10310300  0.65722700  0.34497100  1
  Ba  Ba12  1  0.39689700  0.15722700  0.34497100  1
  Ba  Ba13  1  0.10310300  0.65722700  0.15502900  1
  Ba  Ba14  1  0.60310300  0.84277300  0.84497100  1
  Ba  Ba15  1  0.89689700  0.34277300  0.65502900  1
  Ba  Ba16  1  0.89592500  0.64434400  0.75000000  1
  Ba  Ba17  1  0.60407500  0.14434400  0.75000000  1
  Ba  Ba18  1  0.10407500  0.35565600  0.25000000  1
  Ba  Ba19  1  0.39592500  0.85565600  0.25000000  1
  Ba  Ba20  1  0.40978200  0.47777700  0.65808800  1
  Ba  Ba21  1  0.09021800  0.97777700  0.84191200  1
  Ba  Ba22  1  0.59021800  0.52222300  0.15808800  1
  Ba  Ba23  1  0.90978200  0.02222300  0.34191200  1
  Ba  Ba24  1  0.59021800  0.52222300  0.34191200  1
  Ba  Ba25  1  0.90978200  0.02222300  0.15808800  1
  Ba  Ba26  1  0.40978200  0.47777700  0.84191200  1
  Ba  Ba27  1  0.09021800  0.97777700  0.65808800  1
  Sn  Sn0  1  0.30571800  0.75732600  0.75000000  1
  Sn  Sn1  1  0.19428200  0.25732600  0.75000000  1
  Sn  Sn2  1  0.69428200  0.24267400  0.25000000  1
  Sn  Sn3  1  0.80571800  0.74267400  0.25000000  1
  Sn  Sn4  1  0.69925200  0.54858500  0.55165600  1
  Sn  Sn5  1  0.80074800  0.04858500  0.94834400  1
  Sn  Sn6  1  0.30074800  0.45141500  0.05165600  1
  Sn  Sn7  1  0.19925200  0.95141500  0.44834400  1
  Sn  Sn8  1  0.30074800  0.45141500  0.44834400  1
  Sn  Sn9  1  0.19925200  0.95141500  0.05165600  1
  Sn  Sn10  1  0.69925200  0.54858500  0.94834400  1
  Sn  Sn11  1  0.80074800  0.04858500  0.55165600  1
  S  S0  1  0.14136200  0.44898100  0.75000000  1
  S  S1  1  0.35863800  0.94898100  0.75000000  1
  S  S2  1  0.85863800  0.55101900  0.25000000  1
  S  S3  1  0.64136200  0.05101900  0.25000000  1
  S  S4  1  0.35940900  0.63722100  0.42838100  1
  S  S5  1  0.14059100  0.13722100  0.07161900  1
  S  S6  1  0.64059100  0.36277900  0.92838100  1
  S  S7  1  0.85940900  0.86277900  0.57161900  1
  S  S8  1  0.64059100  0.36277900  0.57161900  1
  S  S9  1  0.85940900  0.86277900  0.92838100  1
  S  S10  1  0.35940900  0.63722100  0.07161900  1
  S  S11  1  0.14059100  0.13722100  0.42838100  1
  S  S12  1  0.49076100  0.66314400  0.57076200  1
  S  S13  1  0.00923900  0.16314400  0.92923800  1
  S  S14  1  0.50923900  0.33685600  0.07076200  1
  S  S15  1  0.99076100  0.83685600  0.42923800  1
  S  S16  1  0.50923900  0.33685600  0.42923800  1
  S  S17  1  0.99076100  0.83685600  0.07076200  1
  S  S18  1  0.49076100  0.66314400  0.92923800  1
  S  S19  1  0.00923900  0.16314400  0.57076200  1
  S  S20  1  0.53083000  0.65251300  0.75000000  1
  S  S21  1  0.96917000  0.15251300  0.75000000  1
  S  S22  1  0.46917000  0.34748700  0.25000000  1
  S  S23  1  0.03083000  0.84748700  0.25000000  1
  S  S24  1  0.17321700  0.72010800  0.66852800  1
  S  S25  1  0.32678300  0.22010800  0.83147200  1
  S  S26  1  0.82678300  0.27989200  0.16852800  1
  S  S27  1  0.67321700  0.77989200  0.33147200  1
  S  S28  1  0.82678300  0.27989200  0.33147200  1
  S  S29  1  0.67321700  0.77989200  0.16852800  1
  S  S30  1  0.17321700  0.72010800  0.83147200  1
  S  S31  1  0.32678300  0.22010800  0.66852800  1
  S  S32  1  0.88314000  0.58926900  0.62043800  1
  S  S33  1  0.61686000  0.08926900  0.87956200  1
  S  S34  1  0.11686000  0.41073100  0.12043800  1
  S  S35  1  0.38314000  0.91073100  0.37956200  1
  S  S36  1  0.11686000  0.41073100  0.37956200  1
  S  S37  1  0.38314000  0.91073100  0.12043800  1
  S  S38  1  0.88314000  0.58926900  0.87956200  1
  S  S39  1  0.61686000  0.08926900  0.62043800  1
  S  S40  1  0.80981400  0.57764400  0.46296500  1
  S  S41  1  0.69018600  0.07764400  0.03703500  1
  S  S42  1  0.19018600  0.42235600  0.96296500  1
  S  S43  1  0.30981400  0.92235600  0.53703500  1
  S  S44  1  0.19018600  0.42235600  0.53703500  1
  S  S45  1  0.30981400  0.92235600  0.96296500  1
  S  S46  1  0.80981400  0.57764400  0.03703500  1
  S  S47  1  0.69018600  0.07764400  0.46296500  1
  S  S48  1  0.67252300  0.39428000  0.75000000  1
  S  S49  1  0.82747700  0.89428000  0.75000000  1
  S  S50  1  0.32747700  0.60572000  0.25000000  1
  S  S51  1  0.17252300  0.10572000  0.25000000  1
loop_
_geom_bond_atom_site_label_1
_geom_bond_atom_site_label_2
_geom_bond_distance
_geom_bond_site_symmetry_2
Ba0 S32 3.255466 1_455
Ba0 S7 3.333410 1_455
Ba0 S15 3.343194 1_455
Ba0 S24 3.371938 1_555
Ba0 S44 3.378025 1_555
Ba0 S43 3.397568 1_555
Ba0 S4 3.415093 1_555
Ba0 S12 3.504338 1_555
Ba0 S40 3.546797 1_455
Ba1 S33 3.255466 1_555
Ba1 S6 3.333410 1_555
Ba1 S14 3.343194 1_556
Ba1 S25 3.371938 1_555
Ba1 S45 3.378025 1_545
Ba1 S42 3.397568 1_555
Ba1 S5 3.415093 1_556
Ba1 S13 3.504338 1_555
Ba1 S41 3.546797 1_556
Ba2 S34 3.255466 1_655
Ba2 S5 3.333410 1_655
Ba2 S13 3.343194 1_654
Ba2 S26 3.371938 1_555
Ba2 S46 3.378025 1_555
Ba2 S41 3.397568 1_555
Ba2 S6 3.415093 1_554
Ba2 S14 3.504338 1_555
Ba2 S42 3.546797 1_654
Ba3 S35 3.255466 1_555
Ba3 S4 3.333410 1_555
Ba3 S12 3.343194 1_555
Ba3 S27 3.371938 1_555
Ba3 S47 3.378025 1_565
Ba3 S40 3.397568 1_555
Ba3 S7 3.415093 1_555
Ba3 S15 3.504338 1_555
Ba3 S43 3.546797 1_555
Ba4 S36 3.255466 1_655
Ba4 S11 3.333410 1_655
Ba4 S19 3.343194 1_655
Ba4 S28 3.371938 1_555
Ba4 S40 3.378025 1_555
Ba4 S47 3.397568 1_555
Ba4 S8 3.415093 1_555
Ba4 S16 3.504338 1_555
Ba4 S44 3.546797 1_655
Ba5 S37 3.255466 1_555
Ba5 S10 3.333410 1_555
Ba5 S18 3.343194 1_554
Ba5 S29 3.371938 1_555
Ba5 S41 3.378025 1_565
Ba5 S46 3.397568 1_555
Ba5 S9 3.415093 1_554
Ba5 S17 3.504338 1_555
Ba5 S45 3.546797 1_554
Ba6 S38 3.255466 1_455
Ba6 S9 3.333410 1_455
Ba6 S17 3.343194 1_456
Ba6 S30 3.371938 1_555
Ba6 S42 3.378025 1_555
Ba6 S45 3.397568 1_555
Ba6 S10 3.415093 1_556
Ba6 S18 3.504338 1_555
Ba6 S46 3.546797 1_456
Ba7 S39 3.255466 1_555
Ba7 S8 3.333410 1_555
Ba7 S16 3.343194 1_555
Ba7 S31 3.371938 1_555
Ba7 S43 3.378025 1_545
Ba7 S44 3.397568 1_555
Ba7 S11 3.415093 1_555
Ba7 S19 3.504338 1_555
Ba7 S47 3.546797 1_555
Ba8 S7 3.094050 1_555
Ba8 S49 3.146344 1_555
Ba8 S39 3.190244 1_565
Ba8 S12 3.206408 1_555
Ba8 S20 3.381152 1_555
Ba8 S1 3.465576 1_555
Ba9 S6 3.094050 1_555
Ba9 S48 3.146344 1_555
Ba9 S38 3.190244 1_555
Ba9 S13 3.206408 1_655
Ba9 S21 3.381152 1_555
Ba9 S0 3.465576 1_655
Ba10 S5 3.094050 1_555
Ba10 S51 3.146344 1_555
Ba10 S37 3.190244 1_545
Ba10 S14 3.206408 1_555
Ba10 S22 3.381152 1_555
Ba10 S3 3.465576 1_555
Ba11 S4 3.094050 1_555
Ba11 S50 3.146344 1_555
Ba11 S36 3.190244 1_555
Ba11 S15 3.206408 1_455
Ba11 S23 3.381152 1_555
Ba11 S2 3.465576 1_455
Ba12 S11 3.094050 1_555
Ba12 S51 3.146344 1_555
Ba12 S35 3.190244 1_545
Ba12 S16 3.206408 1_555
Ba12 S22 3.381152 1_555
Ba12 S3 3.465576 1_555
Ba13 S10 3.094050 1_555
Ba13 S50 3.146344 1_555
Ba13 S34 3.190244 1_555
Ba13 S17 3.206408 1_455
Ba13 S23 3.381152 1_555
Ba13 S2 3.465576 1_455
Ba14 S9 3.094050 1_555
Ba14 S49 3.146344 1_555
Ba14 S33 3.190244 1_565
Ba14 S18 3.206408 1_555
Ba14 S20 3.381152 1_555
Ba14 S1 3.465576 1_555
Ba15 S8 3.094050 1_555
Ba15 S48 3.146344 1_555
Ba15 S32 3.190244 1_555
Ba15 S19 3.206408 1_655
Ba15 S21 3.381152 1_555
Ba15 S0 3.465576 1_655
Ba16 S49 3.177591 1_555
Ba16 S38 3.238985 1_555
Ba16 S32 3.238985 1_555
Ba16 S0 3.294535 1_655
Ba16 S20 3.300594 1_555
Ba16 S24 3.335780 1_655
Ba16 S30 3.335780 1_655
Ba16 S48 3.714774 1_555
Ba17 S48 3.177591 1_555
Ba17 S33 3.238985 1_555
Ba17 S39 3.238985 1_555
Ba17 S1 3.294535 1_545
Ba17 S21 3.300594 1_555
Ba17 S31 3.335780 1_555
Ba17 S25 3.335780 1_555
Ba17 S49 3.714774 1_545
Ba18 S51 3.177591 1_555
Ba18 S36 3.238985 1_555
Ba18 S34 3.238985 1_555
Ba18 S2 3.294535 1_455
Ba18 S22 3.300594 1_555
Ba18 S28 3.335780 1_455
Ba18 S26 3.335780 1_455
Ba18 S50 3.714774 1_555
Ba19 S50 3.177591 1_555
Ba19 S35 3.238985 1_555
Ba19 S37 3.238985 1_555
Ba19 S3 3.294535 1_565
Ba19 S23 3.300594 1_555
Ba19 S27 3.335780 1_555
Ba19 S29 3.335780 1_555
Ba19 S51 3.714774 1_565
Ba20 S12 3.228711 1_555
Ba20 S8 3.295928 1_555
Ba20 S31 3.309444 1_555
Ba20 S20 3.313633 1_555
Ba20 S0 3.323759 1_555
Ba20 S48 3.428749 1_555
Ba20 S44 3.626275 1_555
Ba20 S24 3.710354 1_555
Ba21 S13 3.228711 1_565
Ba21 S9 3.295928 1_455
Ba21 S30 3.309444 1_555
Ba21 S21 3.313633 1_465
Ba21 S1 3.323759 1_555
Ba21 S49 3.428749 1_455
Ba21 S45 3.626275 1_555
Ba21 S25 3.710354 1_565
Ba22 S14 3.228711 1_555
Ba22 S10 3.295928 1_555
Ba22 S29 3.309444 1_555
Ba22 S22 3.313633 1_555
Ba22 S2 3.323759 1_555
Ba22 S50 3.428749 1_555
Ba22 S46 3.626275 1_555
Ba22 S26 3.710354 1_555
Ba23 S15 3.228711 1_545
Ba23 S11 3.295928 1_655
Ba23 S28 3.309444 1_555
Ba23 S23 3.313633 1_645
Ba23 S3 3.323759 1_555
Ba23 S51 3.428749 1_655
Ba23 S47 3.626275 1_555
Ba23 S27 3.710354 1_545
Ba24 S16 3.228711 1_555
Ba24 S4 3.295928 1_555
Ba24 S27 3.309444 1_555
Ba24 S22 3.313633 1_555
Ba24 S2 3.323759 1_555
Ba24 S50 3.428749 1_555
Ba24 S40 3.626275 1_555
Ba24 S28 3.710354 1_555
Ba25 S17 3.228711 1_545
Ba25 S5 3.295928 1_655
Ba25 S26 3.309444 1_555
Ba25 S23 3.313633 1_645
Ba25 S3 3.323759 1_555
Ba25 S51 3.428749 1_655
Ba25 S41 3.626275 1_555
Ba25 S29 3.710354 1_545
Ba26 S18 3.228711 1_555
Ba26 S6 3.295928 1_555
Ba26 S25 3.309444 1_555
Ba26 S20 3.313633 1_555
Ba26 S0 3.323759 1_555
Ba26 S48 3.428749 1_555
Ba26 S42 3.626275 1_555
Ba26 S30 3.710354 1_555
Ba27 S19 3.228711 1_565
Ba27 S7 3.295928 1_455
Ba27 S24 3.309444 1_555
Ba27 S21 3.313633 1_465
Ba27 S1 3.323759 1_555
Ba27 S49 3.428749 1_455
Ba27 S43 3.626275 1_555
Ba27 S31 3.710354 1_565
S0 Sn1 2.437393 1_555
S1 Sn0 2.437393 1_555
S2 Sn3 2.437393 1_555
S3 Sn2 2.437393 1_555
S4 Sn8 2.426398 1_555
S5 Sn9 2.426398 1_545
S6 Sn10 2.426398 1_555
S7 Sn11 2.426398 1_565
S8 Sn4 2.426398 1_555
S9 Sn5 2.426398 1_565
S10 Sn6 2.426398 1_555
S11 Sn7 2.426398 1_545
S12 Sn4 2.409921 1_555
S13 Sn5 2.409921 1_455
S14 Sn6 2.409921 1_555
S15 Sn7 2.409921 1_655
S16 Sn8 2.409921 1_555
S17 Sn9 2.409921 1_655
S18 Sn10 2.409921 1_555
S19 Sn11 2.409921 1_455
S20 Sn0 2.417869 1_555
S21 Sn1 2.417869 1_655
S22 Sn2 2.417869 1_555
S23 Sn3 2.417869 1_455
S24 Sn0 2.367593 1_555
S25 Sn1 2.367593 1_555
S26 Sn2 2.367593 1_555
S27 Sn3 2.367593 1_555
S28 Sn2 2.367593 1_555
S29 Sn3 2.367593 1_555
S30 Sn0 2.367593 1_555
S31 Sn1 2.367593 1_555
S32 Sn4 2.416283 1_555
S33 Sn5 2.416283 1_555
S34 Sn6 2.416283 1_555
S35 Sn7 2.416283 1_555
S36 Sn8 2.416283 1_555
S37 Sn9 2.416283 1_555
S38 Sn10 2.416283 1_555
S39 Sn11 2.416283 1_555
S40 Sn4 2.412099 1_555
S41 Sn5 2.412099 1_554
S42 Sn6 2.412099 1_556
S43 Sn7 2.412099 1_555
S44 Sn8 2.412099 1_555
S45 Sn9 2.412099 1_556
S46 Sn10 2.412099 1_554
S47 Sn11 2.412099 1_555
