# generated using pymatgen
data_NbRh2
_symmetry_space_group_name_H-M   'P 1'
_cell_length_a   5.70668000
_cell_length_b   9.65787000
_cell_length_c   13.97543945
_cell_angle_alpha   75.16473677
_cell_angle_beta   90.00000000
_cell_angle_gamma   90.00000000
_symmetry_Int_Tables_number   1
_chemical_formula_structural   NbRh2
_chemical_formula_sum   'Nb16 Rh32'
_cell_volume   744.57214914
_cell_formula_units_Z   16
loop_
 _symmetry_equiv_pos_site_id
 _symmetry_equiv_pos_as_xyz
  1  'x, y, z'
loop_
 _atom_site_type_symbol
 _atom_site_label
 _atom_site_symmetry_multiplicity
 _atom_site_fract_x
 _atom_site_fract_y
 _atom_site_fract_z
 _atom_site_occupancy
  Nb  Nb0_0  1  0.25000000  0.13454450  0.32681700  1
  Nb  Nb0_1  1  0.25000000  0.13454450  0.82681700  1
  Nb  Nb0_2  1  0.25000000  0.63454450  0.32681700  1
  Nb  Nb0_3  1  0.25000000  0.63454450  0.82681700  1
  Nb  Nb0_4  1  0.75000000  0.13454450  0.32681700  1
  Nb  Nb0_5  1  0.75000000  0.13454450  0.82681700  1
  Nb  Nb0_6  1  0.75000000  0.63454450  0.32681700  1
  Nb  Nb0_7  1  0.75000000  0.63454450  0.82681700  1
  Nb  Nb1_0  1  0.25000000  0.25914650  0.00725950  1
  Nb  Nb1_1  1  0.25000000  0.25914650  0.50725950  1
  Nb  Nb1_2  1  0.25000000  0.75914650  0.00725950  1
  Nb  Nb1_3  1  0.25000000  0.75914650  0.50725950  1
  Nb  Nb1_4  1  0.75000000  0.25914650  0.00725950  1
  Nb  Nb1_5  1  0.75000000  0.25914650  0.50725950  1
  Nb  Nb1_6  1  0.75000000  0.75914650  0.00725950  1
  Nb  Nb1_7  1  0.75000000  0.75914650  0.50725950  1
  Rh  Rh0_0  1  0.00000000  0.38014000  0.33486950  1
  Rh  Rh0_1  1  0.00000000  0.38014000  0.83486950  1
  Rh  Rh0_2  1  0.00000000  0.88014000  0.33486950  1
  Rh  Rh0_3  1  0.00000000  0.88014000  0.83486950  1
  Rh  Rh0_4  1  0.50000000  0.38014000  0.33486950  1
  Rh  Rh0_5  1  0.50000000  0.38014000  0.83486950  1
  Rh  Rh0_6  1  0.50000000  0.88014000  0.33486950  1
  Rh  Rh0_7  1  0.50000000  0.88014000  0.83486950  1
  Rh  Rh1_0  1  0.00000000  0.10621450  0.16628000  1
  Rh  Rh1_1  1  0.00000000  0.10621450  0.66628000  1
  Rh  Rh1_2  1  0.00000000  0.60621450  0.16628000  1
  Rh  Rh1_3  1  0.00000000  0.60621450  0.66628000  1
  Rh  Rh1_4  1  0.50000000  0.10621450  0.16628000  1
  Rh  Rh1_5  1  0.50000000  0.10621450  0.66628000  1
  Rh  Rh1_6  1  0.50000000  0.60621450  0.16628000  1
  Rh  Rh1_7  1  0.50000000  0.60621450  0.66628000  1
  Rh  Rh2_0  1  0.00000000  0.00728650  0.49686500  1
  Rh  Rh2_1  1  0.00000000  0.00728650  0.99686500  1
  Rh  Rh2_2  1  0.00000000  0.50728650  0.49686500  1
  Rh  Rh2_3  1  0.00000000  0.50728650  0.99686500  1
  Rh  Rh2_4  1  0.50000000  0.00728650  0.49686500  1
  Rh  Rh2_5  1  0.50000000  0.00728650  0.99686500  1
  Rh  Rh2_6  1  0.50000000  0.50728650  0.49686500  1
  Rh  Rh2_7  1  0.50000000  0.50728650  0.99686500  1
  Rh  Rh3_0  1  0.25000000  0.36266800  0.16790900  1
  Rh  Rh3_1  1  0.25000000  0.36266800  0.66790900  1
  Rh  Rh3_2  1  0.25000000  0.86266800  0.16790900  1
  Rh  Rh3_3  1  0.25000000  0.86266800  0.66790900  1
  Rh  Rh3_4  1  0.75000000  0.36266800  0.16790900  1
  Rh  Rh3_5  1  0.75000000  0.36266800  0.66790900  1
  Rh  Rh3_6  1  0.75000000  0.86266800  0.16790900  1
  Rh  Rh3_7  1  0.75000000  0.86266800  0.66790900  1
loop_
_geom_bond_atom_site_label_1
_geom_bond_atom_site_label_2
_geom_bond_distance
_geom_bond_site_symmetry_2
Nb0_0 Rh3_0 2.698237 1_555
Nb0_0 Rh1_4 2.730975 1_555
Nb0_0 Rh1_0 2.730975 1_555
Nb0_0 Rh2_4 2.774521 1_555
Nb0_0 Rh2_0 2.774521 1_555
Nb0_0 Rh0_4 2.794779 1_555
Nb0_0 Rh0_0 2.794779 1_555
Nb0_0 Rh0_2 2.818392 1_545
Nb0_0 Rh0_6 2.818392 1_545
Nb0_0 Nb0_4 2.853340 1_455
Nb0_0 Nb0_4 2.853340 1_555
Nb0_0 Nb1_1 3.059646 1_555
Nb0_1 Rh3_1 2.698237 1_555
Nb0_1 Rh1_5 2.730975 1_555
Nb0_1 Rh1_1 2.730975 1_555
Nb0_1 Rh2_5 2.774521 1_555
Nb0_1 Rh2_1 2.774521 1_555
Nb0_1 Rh0_5 2.794779 1_555
Nb0_1 Rh0_1 2.794779 1_555
Nb0_1 Rh0_7 2.818392 1_545
Nb0_1 Rh0_3 2.818392 1_545
Nb0_1 Nb0_5 2.853340 1_455
Nb0_1 Nb0_5 2.853340 1_555
Nb0_1 Nb1_0 3.059646 1_556
Nb0_2 Rh3_2 2.698237 1_555
Nb0_2 Rh1_6 2.730975 1_555
Nb0_2 Rh1_2 2.730975 1_555
Nb0_2 Rh2_2 2.774521 1_555
Nb0_2 Rh2_6 2.774521 1_555
Nb0_2 Rh0_6 2.794779 1_555
Nb0_2 Rh0_2 2.794779 1_555
Nb0_2 Rh0_0 2.818392 1_555
Nb0_2 Rh0_4 2.818392 1_555
Nb0_2 Nb0_6 2.853340 1_455
Nb0_2 Nb0_6 2.853340 1_555
Nb0_2 Nb1_3 3.059646 1_555
Nb0_3 Rh3_3 2.698237 1_555
Nb0_3 Rh1_3 2.730975 1_555
Nb0_3 Rh1_7 2.730975 1_555
Nb0_3 Rh2_3 2.774521 1_555
Nb0_3 Rh2_7 2.774521 1_555
Nb0_3 Rh0_3 2.794779 1_555
Nb0_3 Rh0_7 2.794779 1_555
Nb0_3 Rh0_1 2.818392 1_555
Nb0_3 Rh0_5 2.818392 1_555
Nb0_3 Nb0_7 2.853340 1_455
Nb0_3 Nb0_7 2.853340 1_555
Nb0_3 Nb1_2 3.059646 1_556
Nb0_4 Rh3_4 2.698237 1_555
Nb0_4 Rh1_0 2.730975 1_655
Nb0_4 Rh1_4 2.730975 1_555
Nb0_4 Rh2_0 2.774521 1_655
Nb0_4 Rh2_4 2.774521 1_555
Nb0_4 Rh0_0 2.794779 1_655
Nb0_4 Rh0_4 2.794779 1_555
Nb0_4 Rh0_2 2.818392 1_645
Nb0_4 Rh0_6 2.818392 1_545
Nb0_4 Nb1_5 3.059646 1_555
Nb0_5 Rh3_5 2.698237 1_555
Nb0_5 Rh1_1 2.730975 1_655
Nb0_5 Rh1_5 2.730975 1_555
Nb0_5 Rh2_1 2.774521 1_655
Nb0_5 Rh2_5 2.774521 1_555
Nb0_5 Rh0_1 2.794779 1_655
Nb0_5 Rh0_5 2.794779 1_555
Nb0_5 Rh0_3 2.818392 1_645
Nb0_5 Rh0_7 2.818392 1_545
Nb0_5 Nb1_4 3.059646 1_556
Nb0_6 Rh3_6 2.698237 1_555
Nb0_6 Rh1_2 2.730975 1_655
Nb0_6 Rh1_6 2.730975 1_555
Nb0_6 Rh2_2 2.774521 1_655
Nb0_6 Rh2_6 2.774521 1_555
Nb0_6 Rh0_2 2.794779 1_655
Nb0_6 Rh0_6 2.794779 1_555
Nb0_6 Rh0_0 2.818392 1_655
Nb0_6 Rh0_4 2.818392 1_555
Nb0_6 Nb1_7 3.059646 1_555
Nb0_7 Rh3_7 2.698237 1_555
Nb0_7 Rh1_3 2.730975 1_655
Nb0_7 Rh1_7 2.730975 1_555
Nb0_7 Rh2_3 2.774521 1_655
Nb0_7 Rh2_7 2.774521 1_555
Nb0_7 Rh0_3 2.794779 1_655
Nb0_7 Rh0_7 2.794779 1_555
Nb0_7 Rh0_1 2.818392 1_655
Nb0_7 Rh0_5 2.818392 1_555
Nb0_7 Nb1_6 3.059646 1_556
Nb1_0 Rh3_0 2.681370 1_555
Nb1_0 Rh1_0 2.734046 1_555
Nb1_0 Rh1_4 2.734046 1_555
Nb1_0 Rh2_3 2.760697 1_554
Nb1_0 Rh2_7 2.760697 1_554
Nb1_0 Rh0_1 2.786322 1_554
Nb1_0 Rh0_5 2.786322 1_554
Nb1_0 Nb1_4 2.853340 1_455
Nb1_0 Nb1_4 2.853340 1_555
Nb1_0 Rh2_1 2.855548 1_554
Nb1_0 Rh2_5 2.855548 1_554
Nb1_1 Rh3_1 2.681370 1_555
Nb1_1 Rh1_5 2.734046 1_555
Nb1_1 Rh1_1 2.734046 1_555
Nb1_1 Rh2_2 2.760697 1_555
Nb1_1 Rh2_6 2.760697 1_555
Nb1_1 Rh0_4 2.786322 1_555
Nb1_1 Rh0_0 2.786322 1_555
Nb1_1 Nb1_5 2.853340 1_455
Nb1_1 Nb1_5 2.853340 1_555
Nb1_1 Rh2_0 2.855548 1_555
Nb1_1 Rh2_4 2.855548 1_555
Nb1_2 Rh3_2 2.681370 1_555
Nb1_2 Rh1_2 2.734046 1_555
Nb1_2 Rh1_6 2.734046 1_555
Nb1_2 Rh2_5 2.760697 1_564
Nb1_2 Rh2_1 2.760697 1_564
Nb1_2 Rh0_7 2.786322 1_554
Nb1_2 Rh0_3 2.786322 1_554
Nb1_2 Nb1_6 2.853340 1_455
Nb1_2 Nb1_6 2.853340 1_555
Nb1_2 Rh2_3 2.855548 1_554
Nb1_2 Rh2_7 2.855548 1_554
Nb1_3 Rh3_3 2.681370 1_555
Nb1_3 Rh1_3 2.734046 1_555
Nb1_3 Rh1_7 2.734046 1_555
Nb1_3 Rh2_4 2.760697 1_565
Nb1_3 Rh2_0 2.760697 1_565
Nb1_3 Rh0_2 2.786322 1_555
Nb1_3 Rh0_6 2.786322 1_555
Nb1_3 Nb1_7 2.853340 1_455
Nb1_3 Nb1_7 2.853340 1_555
Nb1_3 Rh2_2 2.855548 1_555
Nb1_3 Rh2_6 2.855548 1_555
Nb1_4 Rh3_4 2.681370 1_555
Nb1_4 Rh1_0 2.734046 1_655
Nb1_4 Rh1_4 2.734046 1_555
Nb1_4 Rh2_3 2.760697 1_654
Nb1_4 Rh2_7 2.760697 1_554
Nb1_4 Rh0_1 2.786322 1_654
Nb1_4 Rh0_5 2.786322 1_554
Nb1_4 Rh2_1 2.855548 1_654
Nb1_4 Rh2_5 2.855548 1_554
Nb1_5 Rh3_5 2.681370 1_555
Nb1_5 Rh1_1 2.734046 1_655
Nb1_5 Rh1_5 2.734046 1_555
Nb1_5 Rh2_2 2.760697 1_655
Nb1_5 Rh2_6 2.760697 1_555
Nb1_5 Rh0_0 2.786322 1_655
Nb1_5 Rh0_4 2.786322 1_555
Nb1_5 Rh2_0 2.855548 1_655
Nb1_5 Rh2_4 2.855548 1_555
Nb1_6 Rh3_6 2.681370 1_555
Nb1_6 Rh1_2 2.734046 1_655
Nb1_6 Rh1_6 2.734046 1_555
Nb1_6 Rh2_1 2.760697 1_664
Nb1_6 Rh2_5 2.760697 1_564
Nb1_6 Rh0_3 2.786322 1_654
Nb1_6 Rh0_7 2.786322 1_554
Nb1_6 Rh2_3 2.855548 1_654
Nb1_6 Rh2_7 2.855548 1_554
Nb1_7 Rh3_7 2.681370 1_555
Nb1_7 Rh1_3 2.734046 1_655
Nb1_7 Rh1_7 2.734046 1_555
Nb1_7 Rh2_0 2.760697 1_665
Nb1_7 Rh2_4 2.760697 1_565
Nb1_7 Rh0_2 2.786322 1_655
Nb1_7 Rh0_6 2.786322 1_555
Nb1_7 Rh2_2 2.855548 1_655
Nb1_7 Rh2_6 2.855548 1_555
Rh0_0 Rh1_2 2.772035 1_555
Rh0_0 Rh3_4 2.776687 1_455
Rh0_0 Rh3_0 2.776687 1_555
Rh0_0 Rh2_2 2.838489 1_555
Rh0_0 Rh0_4 2.853340 1_455
Rh0_0 Rh0_4 2.853340 1_555
Rh0_1 Rh1_3 2.772035 1_555
Rh0_1 Rh3_5 2.776687 1_455
Rh0_1 Rh3_1 2.776687 1_555
Rh0_1 Rh2_3 2.838489 1_555
Rh0_1 Rh0_5 2.853340 1_555
Rh0_1 Rh0_5 2.853340 1_455
Rh0_2 Rh1_0 2.772035 1_565
Rh0_2 Rh3_6 2.776687 1_455
Rh0_2 Rh3_2 2.776687 1_555
Rh0_2 Rh2_0 2.838489 1_565
Rh0_2 Rh0_6 2.853340 1_555
Rh0_2 Rh0_6 2.853340 1_455
Rh0_3 Rh1_1 2.772035 1_565
Rh0_3 Rh3_7 2.776687 1_455
Rh0_3 Rh3_3 2.776687 1_555
Rh0_3 Rh2_1 2.838489 1_565
Rh0_3 Rh0_7 2.853340 1_455
Rh0_3 Rh0_7 2.853340 1_555
Rh0_4 Rh1_6 2.772035 1_555
Rh0_4 Rh3_0 2.776687 1_555
Rh0_4 Rh3_4 2.776687 1_555
Rh0_4 Rh2_6 2.838489 1_555
Rh0_5 Rh1_7 2.772035 1_555
Rh0_5 Rh3_1 2.776687 1_555
Rh0_5 Rh3_5 2.776687 1_555
Rh0_5 Rh2_7 2.838489 1_555
Rh0_6 Rh1_4 2.772035 1_565
Rh0_6 Rh3_2 2.776687 1_555
Rh0_6 Rh3_6 2.776687 1_555
Rh0_6 Rh2_4 2.838489 1_565
Rh0_7 Rh1_5 2.772035 1_565
Rh0_7 Rh3_3 2.776687 1_555
Rh0_7 Rh3_7 2.776687 1_555
Rh0_7 Rh2_5 2.838489 1_565
Rh1_0 Rh3_6 2.746097 1_445
Rh1_0 Rh3_2 2.746097 1_545
Rh1_0 Rh2_1 2.770742 1_554
Rh1_0 Rh1_4 2.853340 1_455
Rh1_0 Rh1_4 2.853340 1_555
Rh1_0 Rh3_4 2.863440 1_455
Rh1_0 Rh3_0 2.863440 1_555
Rh1_1 Rh3_7 2.746097 1_445
Rh1_1 Rh3_3 2.746097 1_545
Rh1_1 Rh2_0 2.770742 1_555
Rh1_1 Rh1_5 2.853340 1_555
Rh1_1 Rh1_5 2.853340 1_455
Rh1_1 Rh3_5 2.863440 1_455
Rh1_1 Rh3_1 2.863440 1_555
Rh1_2 Rh3_4 2.746097 1_455
Rh1_2 Rh3_0 2.746097 1_555
Rh1_2 Rh2_3 2.770742 1_554
Rh1_2 Rh1_6 2.853340 1_455
Rh1_2 Rh1_6 2.853340 1_555
Rh1_2 Rh3_6 2.863440 1_455
Rh1_2 Rh3_2 2.863440 1_555
Rh1_3 Rh3_5 2.746097 1_455
Rh1_3 Rh3_1 2.746097 1_555
Rh1_3 Rh2_2 2.770742 1_555
Rh1_3 Rh1_7 2.853340 1_455
Rh1_3 Rh1_7 2.853340 1_555
Rh1_3 Rh3_7 2.863440 1_455
Rh1_3 Rh3_3 2.863440 1_555
Rh1_4 Rh3_2 2.746097 1_545
Rh1_4 Rh3_6 2.746097 1_545
Rh1_4 Rh2_5 2.770742 1_554
Rh1_4 Rh3_0 2.863440 1_555
Rh1_4 Rh3_4 2.863440 1_555
Rh1_5 Rh3_7 2.746097 1_545
Rh1_5 Rh3_3 2.746097 1_545
Rh1_5 Rh2_4 2.770742 1_555
Rh1_5 Rh3_1 2.863440 1_555
Rh1_5 Rh3_5 2.863440 1_555
Rh1_6 Rh3_0 2.746097 1_555
Rh1_6 Rh3_4 2.746097 1_555
Rh1_6 Rh2_7 2.770742 1_554
Rh1_6 Rh3_2 2.863440 1_555
Rh1_6 Rh3_6 2.863440 1_555
Rh1_7 Rh3_1 2.746097 1_555
Rh1_7 Rh3_5 2.746097 1_555
Rh1_7 Rh2_6 2.770742 1_555
Rh1_7 Rh3_3 2.863440 1_555
Rh1_7 Rh3_7 2.863440 1_555
Rh2_0 Rh3_7 2.826760 1_445
Rh2_0 Rh3_3 2.826760 1_545
Rh2_0 Rh2_4 2.853340 1_455
Rh2_0 Rh2_4 2.853340 1_555
Rh2_1 Rh3_6 2.826760 1_446
Rh2_1 Rh3_2 2.826760 1_546
Rh2_1 Rh2_5 2.853340 1_455
Rh2_1 Rh2_5 2.853340 1_555
Rh2_2 Rh3_5 2.826760 1_455
Rh2_2 Rh3_1 2.826760 1_555
Rh2_2 Rh2_6 2.853340 1_555
Rh2_2 Rh2_6 2.853340 1_455
Rh2_3 Rh3_4 2.826760 1_456
Rh2_3 Rh3_0 2.826760 1_556
Rh2_3 Rh2_7 2.853340 1_455
Rh2_3 Rh2_7 2.853340 1_555
Rh2_4 Rh3_3 2.826760 1_545
Rh2_4 Rh3_7 2.826760 1_545
Rh2_5 Rh3_2 2.826760 1_546
Rh2_5 Rh3_6 2.826760 1_546
Rh2_6 Rh3_1 2.826760 1_555
Rh2_6 Rh3_5 2.826760 1_555
Rh2_7 Rh3_0 2.826760 1_556
Rh2_7 Rh3_4 2.826760 1_556
Rh3_0 Rh3_4 2.853340 1_455
Rh3_0 Rh3_4 2.853340 1_555
Rh3_1 Rh3_5 2.853340 1_455
Rh3_1 Rh3_5 2.853340 1_555
Rh3_2 Rh3_6 2.853340 1_455
Rh3_2 Rh3_6 2.853340 1_555
Rh3_3 Rh3_7 2.853340 1_455
Rh3_3 Rh3_7 2.853340 1_555
