# generated using pymatgen
data_Y5Ni2Bi
_symmetry_space_group_name_H-M   'P 1'
_cell_length_a   8.73795926
_cell_length_b   8.73795926
_cell_length_c   8.73795926
_cell_angle_alpha   127.61656150
_cell_angle_beta   127.61656150
_cell_angle_gamma   77.24701174
_symmetry_Int_Tables_number   1
_chemical_formula_structural   Y5Ni2Bi
_chemical_formula_sum   'Y10 Ni4 Bi2'
_cell_volume   406.16815521
_cell_formula_units_Z   2
loop_
 _symmetry_equiv_pos_site_id
 _symmetry_equiv_pos_as_xyz
  1  'x, y, z'
loop_
 _atom_site_type_symbol
 _atom_site_label
 _atom_site_symmetry_multiplicity
 _atom_site_fract_x
 _atom_site_fract_y
 _atom_site_fract_z
 _atom_site_occupancy
  Y  Y0  1  0.00000000  0.00000000  0.00000000  1
  Y  Y1  1  0.50000000  0.50000000  0.00000000  1
  Y  Y2  1  0.01876000  0.51876000  0.80994500  1
  Y  Y3  1  0.70881400  0.20881400  0.19005500  1
  Y  Y4  1  0.51876000  0.70881400  0.50000000  1
  Y  Y5  1  0.20881400  0.01876000  0.50000000  1
  Y  Y6  1  0.98124000  0.48124000  0.19005500  1
  Y  Y7  1  0.29118600  0.79118600  0.80994500  1
  Y  Y8  1  0.48124000  0.29118600  0.50000000  1
  Y  Y9  1  0.79118600  0.98124000  0.50000000  1
  Ni  Ni0  1  0.36805800  0.86805800  0.23611500  1
  Ni  Ni1  1  0.63194200  0.13194200  0.76388500  1
  Ni  Ni2  1  0.86805800  0.63194200  0.50000000  1
  Ni  Ni3  1  0.13194200  0.36805800  0.50000000  1
  Bi  Bi0  1  0.75000000  0.75000000  0.00000000  1
  Bi  Bi1  1  0.25000000  0.25000000  0.00000000  1
loop_
_geom_bond_atom_site_label_1
_geom_bond_atom_site_label_2
_geom_bond_distance
_geom_bond_site_symmetry_2
Ni0 Y8 2.896220 1_565
Ni0 Y9 2.896220 1_555
Ni0 Y4 2.896229 1_555
Ni0 Y5 2.896229 1_565
Ni0 Y7 2.976858 1_554
Ni0 Y2 2.976858 1_554
Ni0 Y0 3.015903 1_565
Ni0 Y1 3.015903 1_555
Ni1 Y4 2.896220 1_545
Ni1 Y5 2.896220 1_555
Ni1 Y9 2.896229 1_545
Ni1 Y8 2.896229 1_555
Ni1 Y6 2.976858 1_556
Ni1 Y3 2.976858 1_556
Ni1 Y1 3.015903 1_556
Ni1 Y0 3.015903 1_656
Ni2 Y6 2.896214 1_555
Ni2 Y2 2.896214 1_655
Ni2 Y7 2.896223 1_655
Ni2 Y3 2.896223 1_555
Ni2 Y9 2.976858 1_555
Ni2 Y4 2.976858 1_555
Ni2 Y0 3.015905 1_666
Ni2 Y1 3.015905 1_555
Ni3 Y2 2.896214 1_555
Ni3 Y6 2.896214 1_455
Ni3 Y7 2.896223 1_555
Ni3 Y3 2.896223 1_455
Ni3 Y5 2.976858 1_555
Ni3 Y8 2.976858 1_555
Ni3 Y0 3.015905 1_555
Ni3 Y1 3.015905 1_556
Bi0 Y7 3.305341 1_554
Bi0 Y3 3.305341 1_565
Bi0 Y5 3.305342 1_665
Bi0 Y4 3.305342 1_554
Bi0 Y9 3.305342 1_555
Bi0 Y8 3.305342 1_554
Bi0 Y2 3.305347 1_654
Bi0 Y6 3.305347 1_555
Bi0 Y1 3.413328 1_555
Bi0 Y0 3.413328 1_665
Bi1 Y3 3.305341 1_555
Bi1 Y7 3.305341 1_544
Bi1 Y8 3.305342 1_555
Bi1 Y9 3.305342 1_444
Bi1 Y5 3.305342 1_554
Bi1 Y4 3.305342 1_555
Bi1 Y2 3.305347 1_554
Bi1 Y6 3.305347 1_455
Bi1 Y1 3.413328 1_555
Bi1 Y0 3.413328 1_555
