# generated using pymatgen
data_Ce3Sb4Pt3
_symmetry_space_group_name_H-M   'P 1'
_cell_length_a   8.51509259
_cell_length_b   8.51509259
_cell_length_c   8.51509259
_cell_angle_alpha   109.47122063
_cell_angle_beta   109.47122063
_cell_angle_gamma   109.47122063
_symmetry_Int_Tables_number   1
_chemical_formula_structural   Ce3Sb4Pt3
_chemical_formula_sum   'Ce6 Sb8 Pt6'
_cell_volume   475.27638223
_cell_formula_units_Z   2
loop_
 _symmetry_equiv_pos_site_id
 _symmetry_equiv_pos_as_xyz
  1  'x, y, z'
loop_
 _atom_site_type_symbol
 _atom_site_label
 _atom_site_symmetry_multiplicity
 _atom_site_fract_x
 _atom_site_fract_y
 _atom_site_fract_z
 _atom_site_occupancy
  Ce  Ce0  1  0.87500000  0.25000000  0.12500000  1
  Ce  Ce1  1  0.62500000  0.75000000  0.37500000  1
  Ce  Ce2  1  0.25000000  0.12500000  0.87500000  1
  Ce  Ce3  1  0.75000000  0.37500000  0.62500000  1
  Ce  Ce4  1  0.12500000  0.87500000  0.25000000  1
  Ce  Ce5  1  0.37500000  0.62500000  0.75000000  1
  Sb  Sb0  1  0.66759537  0.50000000  -0.00000000  1
  Sb  Sb1  1  0.50000000  0.00000000  0.66759537  1
  Sb  Sb2  1  -0.00000000  0.66759537  0.50000000  1
  Sb  Sb3  1  0.83240463  0.83240463  0.83240463  1
  Sb  Sb4  1  0.50000000  0.00000000  0.16759537  1
  Sb  Sb5  1  0.16759537  0.50000000  0.00000000  1
  Sb  Sb6  1  -0.00000000  0.16759537  0.50000000  1
  Sb  Sb7  1  0.33240463  0.33240463  0.33240463  1
  Pt  Pt0  1  0.37500000  0.25000000  0.62500000  1
  Pt  Pt1  1  0.12500000  0.75000000  0.87500000  1
  Pt  Pt2  1  0.25000000  0.62500000  0.37500000  1
  Pt  Pt3  1  0.75000000  0.87500000  0.12500000  1
  Pt  Pt4  1  0.62500000  0.37500000  0.25000000  1
  Pt  Pt5  1  0.87500000  0.12500000  0.75000000  1
loop_
_geom_bond_atom_site_label_1
_geom_bond_atom_site_label_2
_geom_bond_distance
_geom_bond_site_symmetry_2
Ce0 Pt4 3.010540 1_555
Ce0 Pt5 3.010540 1_554
Ce0 Pt3 3.010540 1_545
Ce0 Pt2 3.010540 1_655
Ce0 Sb6 3.398138 1_655
Ce0 Sb1 3.398138 1_554
Ce0 Sb0 3.398138 1_555
Ce0 Sb7 3.398138 1_655
Ce0 Sb5 3.408032 1_655
Ce0 Sb2 3.408032 1_655
Ce0 Sb3 3.408032 1_544
Ce0 Sb4 3.408032 1_555
Ce1 Pt4 3.010540 1_555
Ce1 Pt2 3.010540 1_555
Ce1 Pt3 3.010540 1_555
Ce1 Pt5 3.010540 1_565
Ce1 Sb4 3.398138 1_565
Ce1 Sb2 3.398138 1_655
Ce1 Sb3 3.398138 1_555
Ce1 Sb5 3.398138 1_555
Ce1 Sb6 3.408032 1_665
Ce1 Sb7 3.408032 1_555
Ce1 Sb1 3.408032 1_565
Ce1 Sb0 3.408032 1_555
Ce2 Pt0 3.010540 1_555
Ce2 Pt5 3.010540 1_455
Ce2 Pt1 3.010540 1_545
Ce2 Pt4 3.010540 1_556
Ce2 Sb1 3.398138 1_555
Ce2 Sb2 3.398138 1_545
Ce2 Sb5 3.398138 1_556
Ce2 Sb7 3.398138 1_556
Ce2 Sb4 3.408032 1_556
Ce2 Sb0 3.408032 1_556
Ce2 Sb3 3.408032 1_445
Ce2 Sb6 3.408032 1_555
Ce3 Pt4 3.010540 1_555
Ce3 Pt0 3.010540 1_555
Ce3 Pt1 3.010540 1_655
Ce3 Pt5 3.010540 1_555
Ce3 Sb0 3.398138 1_556
Ce3 Sb3 3.398138 1_555
Ce3 Sb4 3.398138 1_555
Ce3 Sb6 3.398138 1_655
Ce3 Sb5 3.408032 1_656
Ce3 Sb2 3.408032 1_655
Ce3 Sb7 3.408032 1_555
Ce3 Sb1 3.408032 1_555
Ce4 Pt1 3.010540 1_554
Ce4 Pt3 3.010540 1_455
Ce4 Pt2 3.010540 1_555
Ce4 Pt0 3.010540 1_565
Ce4 Sb2 3.398138 1_555
Ce4 Sb0 3.398138 1_455
Ce4 Sb4 3.398138 1_565
Ce4 Sb7 3.398138 1_565
Ce4 Sb6 3.408032 1_565
Ce4 Sb5 3.408032 1_555
Ce4 Sb3 3.408032 1_454
Ce4 Sb1 3.408032 1_565
Ce5 Pt1 3.010540 1_555
Ce5 Pt0 3.010540 1_555
Ce5 Pt2 3.010540 1_555
Ce5 Pt3 3.010540 1_556
Ce5 Sb5 3.398138 1_556
Ce5 Sb6 3.398138 1_555
Ce5 Sb1 3.398138 1_565
Ce5 Sb3 3.398138 1_555
Ce5 Sb2 3.408032 1_555
Ce5 Sb4 3.408032 1_566
Ce5 Sb0 3.408032 1_556
Ce5 Sb7 3.408032 1_555
Pt0 Sb1 2.750287 1_555
Pt0 Sb6 2.750287 1_555
Pt0 Sb0 2.750287 1_556
Pt0 Sb7 2.750287 1_555
Pt1 Sb5 2.750287 1_556
Pt1 Sb4 2.750287 1_566
Pt1 Sb2 2.750287 1_555
Pt1 Sb3 2.750287 1_455
Pt2 Sb5 2.750287 1_555
Pt2 Sb7 2.750287 1_555
Pt2 Sb2 2.750287 1_555
Pt2 Sb1 2.750287 1_565
Pt3 Sb4 2.750287 1_565
Pt3 Sb6 2.750287 1_665
Pt3 Sb0 2.750287 1_555
Pt3 Sb3 2.750287 1_554
Pt4 Sb4 2.750287 1_555
Pt4 Sb0 2.750287 1_555
Pt4 Sb2 2.750287 1_655
Pt4 Sb7 2.750287 1_555
Pt5 Sb5 2.750287 1_656
Pt5 Sb6 2.750287 1_655
Pt5 Sb1 2.750287 1_555
Pt5 Sb3 2.750287 1_545
