# generated using pymatgen
data_Sc2BC2
_symmetry_space_group_name_H-M   'P 1'
_cell_length_a   3.34021172
_cell_length_b   3.34021105
_cell_length_c   5.83416016
_cell_angle_alpha   106.63438935
_cell_angle_beta   106.63438329
_cell_angle_gamma   89.99999240
_symmetry_Int_Tables_number   1
_chemical_formula_structural   Sc2BC2
_chemical_formula_sum   'Sc2 B1 C2'
_cell_volume   59.51919502
_cell_formula_units_Z   1
loop_
 _symmetry_equiv_pos_site_id
 _symmetry_equiv_pos_as_xyz
  1  'x, y, z'
loop_
 _atom_site_type_symbol
 _atom_site_label
 _atom_site_symmetry_multiplicity
 _atom_site_fract_x
 _atom_site_fract_y
 _atom_site_fract_z
 _atom_site_occupancy
  Sc  Sc0  1  0.65230959  0.65230959  0.30461918  1
  Sc  Sc1  1  0.34769041  0.34769041  0.69538082  1
  B  B0  1  0.00000000  0.00000000  -0.00000000  1
  C  C0  1  0.86153242  0.86153242  0.72306585  1
  C  C1  1  0.13846758  0.13846758  0.27693415  1
loop_
_geom_bond_atom_site_label_1
_geom_bond_atom_site_label_2
_geom_bond_distance
_geom_bond_site_symmetry_2
B0 C0 1.477358 1_444
B0 C1 1.477358 1_555
C0 Sc0 2.232283 1_555
C0 Sc1 2.366497 1_555
C0 Sc1 2.366499 1_655
C0 Sc1 2.366499 1_565
C0 Sc1 2.366502 1_665
C1 Sc1 2.232283 1_555
C1 Sc0 2.366497 1_555
C1 Sc0 2.366499 1_455
C1 Sc0 2.366499 1_545
C1 Sc0 2.366502 1_445
