# generated using pymatgen
data_BaMn5(SO4)6
_symmetry_space_group_name_H-M   'P 1'
_cell_length_a   14.88334040
_cell_length_b   14.88334040
_cell_length_c   7.71577700
_cell_angle_alpha   90.00000000
_cell_angle_beta   90.00000000
_cell_angle_gamma   120.00000180
_symmetry_Int_Tables_number   1
_chemical_formula_structural   BaMn5(SO4)6
_chemical_formula_sum   'Ba3 Mn15 S18 O72'
_cell_volume   1480.16837444
_cell_formula_units_Z   3
loop_
 _symmetry_equiv_pos_site_id
 _symmetry_equiv_pos_as_xyz
  1  'x, y, z'
loop_
 _atom_site_type_symbol
 _atom_site_label
 _atom_site_symmetry_multiplicity
 _atom_site_fract_x
 _atom_site_fract_y
 _atom_site_fract_z
 _atom_site_occupancy
  Ba  Ba0  1  0.66666700  0.33333300  0.99780400  1
  Ba  Ba1  1  0.33333300  0.66666700  0.00219600  1
  Ba  Ba2  1  0.00000000  0.00000000  0.50000000  1
  Mn  Mn0  1  0.99658100  0.34500900  0.96326400  1
  Mn  Mn1  1  0.00341900  0.65499100  0.03673600  1
  Mn  Mn2  1  0.34842800  0.00341900  0.96326400  1
  Mn  Mn3  1  0.65157200  0.99658100  0.03673600  1
  Mn  Mn4  1  0.65499100  0.65157200  0.96326400  1
  Mn  Mn5  1  0.34500900  0.34842800  0.03673600  1
  Mn  Mn6  1  0.67839500  0.68138100  0.54699500  1
  Mn  Mn7  1  0.32160500  0.31861900  0.45300500  1
  Mn  Mn8  1  0.00298600  0.32160500  0.54699500  1
  Mn  Mn9  1  0.99701400  0.67839500  0.45300500  1
  Mn  Mn10  1  0.31861900  0.99701400  0.54699500  1
  Mn  Mn11  1  0.68138100  0.00298600  0.45300500  1
  Mn  Mn12  1  0.66666700  0.33333300  0.49714900  1
  Mn  Mn13  1  0.33333300  0.66666700  0.50285100  1
  Mn  Mn14  1  0.00000000  0.00000000  0.00000000  1
  S  S0  1  0.86916400  0.09712200  0.76011100  1
  S  S1  1  0.13083600  0.90287800  0.23988900  1
  S  S2  1  0.22795800  0.13083600  0.76011100  1
  S  S3  1  0.77204200  0.86916400  0.23988900  1
  S  S4  1  0.90287800  0.77204200  0.76011100  1
  S  S5  1  0.09712200  0.22795800  0.23988900  1
  S  S6  1  0.56016100  0.79425000  0.74172500  1
  S  S7  1  0.43983900  0.20575000  0.25827500  1
  S  S8  1  0.23409000  0.43983900  0.74172500  1
  S  S9  1  0.76591000  0.56016100  0.25827500  1
  S  S10  1  0.20575000  0.76591000  0.74172500  1
  S  S11  1  0.79425000  0.23409000  0.25827500  1
  S  S12  1  0.89355900  0.46238600  0.73775300  1
  S  S13  1  0.10644100  0.53761400  0.26224700  1
  S  S14  1  0.56882800  0.10644100  0.73775300  1
  S  S15  1  0.43117200  0.89355900  0.26224700  1
  S  S16  1  0.53761400  0.43117200  0.73775300  1
  S  S17  1  0.46238600  0.56882800  0.26224700  1
  O  O0  1  0.45472100  0.70431500  0.70683300  1
  O  O1  1  0.54527900  0.29568500  0.29316700  1
  O  O2  1  0.24959400  0.54527900  0.70683300  1
  O  O3  1  0.75040600  0.45472100  0.29316700  1
  O  O4  1  0.29568500  0.75040600  0.70683300  1
  O  O5  1  0.70431500  0.24959400  0.29316700  1
  O  O6  1  0.89217700  0.50508600  0.91274200  1
  O  O7  1  0.10782300  0.49491400  0.08725800  1
  O  O8  1  0.61291000  0.10782300  0.91274200  1
  O  O9  1  0.38709000  0.89217700  0.08725800  1
  O  O10  1  0.49491400  0.38709000  0.91274200  1
  O  O11  1  0.50508600  0.61291000  0.08725800  1
  O  O12  1  0.83325500  0.05666600  0.58067900  1
  O  O13  1  0.16674500  0.94333400  0.41932100  1
  O  O14  1  0.22341100  0.16674500  0.58067900  1
  O  O15  1  0.77658900  0.83325500  0.41932100  1
  O  O16  1  0.94333400  0.77658900  0.58067900  1
  O  O17  1  0.05666600  0.22341100  0.41932100  1
  O  O18  1  0.61923400  0.07830500  0.60208700  1
  O  O19  1  0.38076600  0.92169500  0.39791300  1
  O  O20  1  0.45907100  0.38076600  0.60208700  1
  O  O21  1  0.54092900  0.61923400  0.39791300  1
  O  O22  1  0.92169500  0.54092900  0.60208700  1
  O  O23  1  0.07830500  0.45907100  0.39791300  1
  O  O24  1  0.95735400  0.08027800  0.80260500  1
  O  O25  1  0.04264600  0.91972200  0.19739500  1
  O  O26  1  0.12292400  0.04264600  0.80260500  1
  O  O27  1  0.87707600  0.95735400  0.19739500  1
  O  O28  1  0.91972200  0.87707600  0.80260500  1
  O  O29  1  0.08027800  0.12292400  0.19739500  1
  O  O30  1  0.96955700  0.42369300  0.74375200  1
  O  O31  1  0.03044300  0.57630700  0.25624800  1
  O  O32  1  0.45413600  0.03044300  0.74375200  1
  O  O33  1  0.54586400  0.96955700  0.25624800  1
  O  O34  1  0.57630700  0.54586400  0.74375200  1
  O  O35  1  0.42369300  0.45413600  0.25624800  1
  O  O36  1  0.90851400  0.21187200  0.76146700  1
  O  O37  1  0.09148600  0.78812800  0.23853300  1
  O  O38  1  0.30335700  0.09148600  0.76146700  1
  O  O39  1  0.69664300  0.90851400  0.23853300  1
  O  O40  1  0.78812800  0.69664300  0.76146700  1
  O  O41  1  0.21187200  0.30335700  0.23853300  1
  O  O42  1  0.55621600  0.84340100  0.90800200  1
  O  O43  1  0.44378400  0.15659900  0.09199800  1
  O  O44  1  0.28718500  0.44378400  0.90800200  1
  O  O45  1  0.71281500  0.55621600  0.09199800  1
  O  O46  1  0.15659900  0.71281500  0.90800200  1
  O  O47  1  0.84340100  0.28718500  0.09199800  1
  O  O48  1  0.59200200  0.86689400  0.59574500  1
  O  O49  1  0.40799800  0.13310600  0.40425500  1
  O  O50  1  0.27489100  0.40799800  0.59574500  1
  O  O51  1  0.72510900  0.59200200  0.40425500  1
  O  O52  1  0.13310600  0.72510900  0.59574500  1
  O  O53  1  0.86689400  0.27489100  0.40425500  1
  O  O54  1  0.78832200  0.37254900  0.70180100  1
  O  O55  1  0.21167800  0.62745100  0.29819900  1
  O  O56  1  0.58422700  0.21167800  0.70180100  1
  O  O57  1  0.41577300  0.78832200  0.29819900  1
  O  O58  1  0.62745100  0.41577300  0.70180100  1
  O  O59  1  0.37254900  0.58422700  0.29819900  1
  O  O60  1  0.63491900  0.75443000  0.76013400  1
  O  O61  1  0.36508100  0.24557000  0.23986600  1
  O  O62  1  0.11951100  0.36508100  0.76013400  1
  O  O63  1  0.88048900  0.63491900  0.23986600  1
  O  O64  1  0.24557000  0.88048900  0.76013400  1
  O  O65  1  0.75443000  0.11951100  0.23986600  1
  O  O66  1  0.78490300  0.04316600  0.88565700  1
  O  O67  1  0.21509700  0.95683400  0.11434300  1
  O  O68  1  0.25826300  0.21509700  0.88565700  1
  O  O69  1  0.74173700  0.78490300  0.11434300  1
  O  O70  1  0.95683400  0.74173700  0.88565700  1
  O  O71  1  0.04316600  0.25826300  0.11434300  1
loop_
_geom_bond_atom_site_label_1
_geom_bond_atom_site_label_2
_geom_bond_distance
_geom_bond_site_symmetry_2
Ba0 O5 2.785544 1_556
Ba0 O3 2.785550 1_556
Ba0 O1 2.785552 1_556
Ba0 O54 2.788982 1_555
Ba0 O56 2.788984 1_555
Ba0 O58 2.788990 1_555
Ba0 O6 3.106536 1_555
Ba0 O8 3.106536 1_555
Ba0 O10 3.106536 1_555
Ba0 O47 3.118584 1_556
Ba0 O43 3.118593 1_556
Ba0 O45 3.118598 1_556
Ba1 O4 2.785544 1_554
Ba1 O2 2.785550 1_554
Ba1 O0 2.785552 1_554
Ba1 O55 2.788982 1_555
Ba1 O57 2.788984 1_555
Ba1 O59 2.788990 1_555
Ba1 O7 3.106536 1_555
Ba1 O9 3.106536 1_555
Ba1 O11 3.106536 1_555
Ba1 O46 3.118584 1_554
Ba1 O42 3.118593 1_554
Ba1 O44 3.118598 1_554
Ba2 O29 2.835529 1_555
Ba2 O28 2.835529 1_445
Ba2 O26 2.835529 1_555
Ba2 O27 2.835529 1_445
Ba2 O25 2.835529 1_545
Ba2 O24 2.835529 1_455
Ba2 O14 3.057904 1_555
Ba2 O15 3.057904 1_445
Ba2 O17 3.057904 1_555
Ba2 O16 3.057904 1_445
Ba2 O13 3.057904 1_545
Ba2 O12 3.057904 1_455
Mn0 O71 2.097992 1_656
Mn0 O30 2.207455 1_555
Mn0 O7 2.222684 1_656
Mn0 O47 2.227743 1_556
Mn0 O62 2.312269 1_655
Mn0 O36 2.339128 1_555
Mn1 O70 2.097992 1_454
Mn1 O31 2.207455 1_555
Mn1 O6 2.222684 1_454
Mn1 O46 2.227743 1_554
Mn1 O63 2.312269 1_455
Mn1 O37 2.339128 1_555
Mn2 O67 2.097992 1_546
Mn2 O32 2.207455 1_555
Mn2 O9 2.222675 1_546
Mn2 O43 2.227743 1_556
Mn2 O64 2.312269 1_545
Mn2 O38 2.339136 1_555
Mn3 O66 2.097992 1_564
Mn3 O33 2.207455 1_555
Mn3 O8 2.222675 1_564
Mn3 O42 2.227743 1_554
Mn3 O65 2.312269 1_565
Mn3 O39 2.339136 1_555
Mn4 O69 2.097992 1_556
Mn4 O34 2.207455 1_555
Mn4 O11 2.222688 1_556
Mn4 O45 2.227743 1_556
Mn4 O60 2.312269 1_555
Mn4 O40 2.339126 1_555
Mn5 O68 2.097992 1_554
Mn5 O35 2.207455 1_555
Mn5 O10 2.222688 1_554
Mn5 O44 2.227743 1_554
Mn5 O61 2.312269 1_555
Mn5 O41 2.339126 1_555
Mn6 O51 2.095429 1_555
Mn6 O21 2.114759 1_555
Mn6 O15 2.216347 1_555
Mn6 O60 2.238017 1_555
Mn6 O40 2.255296 1_555
Mn6 O34 2.369987 1_555
Mn7 O50 2.095429 1_555
Mn7 O20 2.114759 1_555
Mn7 O14 2.216347 1_555
Mn7 O61 2.238017 1_555
Mn7 O41 2.255296 1_555
Mn7 O35 2.369987 1_555
Mn8 O53 2.095417 1_455
Mn8 O23 2.114759 1_555
Mn8 O17 2.216347 1_555
Mn8 O62 2.238017 1_555
Mn8 O36 2.255300 1_455
Mn8 O30 2.369987 1_455
Mn9 O52 2.095417 1_655
Mn9 O22 2.114759 1_555
Mn9 O16 2.216347 1_555
Mn9 O63 2.238017 1_555
Mn9 O37 2.255300 1_655
Mn9 O31 2.369987 1_655
Mn10 O49 2.095419 1_565
Mn10 O19 2.114759 1_555
Mn10 O13 2.216347 1_555
Mn10 O64 2.238017 1_555
Mn10 O38 2.255306 1_565
Mn10 O32 2.369987 1_565
Mn11 O48 2.095419 1_545
Mn11 O18 2.114759 1_555
Mn11 O12 2.216347 1_555
Mn11 O65 2.238017 1_555
Mn11 O39 2.255306 1_545
Mn11 O33 2.369987 1_545
Mn12 O5 2.245599 1_555
Mn12 O3 2.245607 1_555
Mn12 O1 2.245609 1_555
Mn12 O54 2.248477 1_555
Mn12 O56 2.248479 1_555
Mn12 O58 2.248487 1_555
Mn13 O4 2.245599 1_555
Mn13 O2 2.245607 1_555
Mn13 O0 2.245609 1_555
Mn13 O55 2.248477 1_555
Mn13 O57 2.248479 1_555
Mn13 O59 2.248487 1_555
Mn14 O28 2.215509 1_444
Mn14 O29 2.215509 1_555
Mn14 O26 2.215509 1_554
Mn14 O27 2.215509 1_445
Mn14 O25 2.215509 1_545
Mn14 O24 2.215509 1_454
O0 S6 1.492076 1_555
O1 S7 1.492076 1_555
O2 S8 1.492082 1_555
O3 S9 1.492082 1_555
O4 S10 1.492067 1_555
O5 S11 1.492067 1_555
O6 S12 1.496781 1_555
O7 S13 1.496781 1_555
O8 S14 1.496781 1_555
O9 S15 1.496781 1_555
O10 S16 1.496781 1_555
O11 S17 1.496781 1_555
O12 S0 1.497699 1_555
O13 S1 1.497699 1_555
O14 S2 1.497699 1_555
O15 S3 1.497699 1_555
O16 S4 1.497699 1_555
O17 S5 1.497699 1_555
O18 S14 1.465624 1_555
O19 S15 1.465624 1_555
O20 S16 1.465632 1_555
O21 S17 1.465632 1_555
O22 S12 1.465634 1_555
O23 S13 1.465634 1_555
O24 S0 1.490711 1_555
O25 S1 1.490711 1_555
O26 S2 1.490711 1_555
O27 S3 1.490711 1_555
O28 S4 1.490711 1_555
O29 S5 1.490711 1_555
O30 S12 1.504845 1_555
O31 S13 1.504845 1_555
O32 S14 1.504857 1_555
O33 S15 1.504857 1_555
O34 S16 1.504859 1_555
O35 S17 1.504859 1_555
O36 S0 1.503222 1_555
O37 S1 1.503222 1_555
O38 S2 1.503208 1_555
O39 S3 1.503208 1_555
O40 S4 1.503220 1_555
O41 S5 1.503220 1_555
O42 S6 1.492486 1_555
O43 S7 1.492486 1_555
O44 S8 1.492478 1_555
O45 S9 1.492478 1_555
O46 S10 1.492481 1_555
O47 S11 1.492481 1_555
O48 S6 1.466230 1_555
O49 S7 1.466230 1_555
O50 S8 1.466213 1_555
O51 S9 1.466213 1_555
O52 S10 1.466229 1_555
O53 S11 1.466229 1_555
O54 S12 1.491212 1_555
O55 S13 1.491212 1_555
O56 S14 1.491218 1_555
O57 S15 1.491218 1_555
O58 S16 1.491203 1_555
O59 S17 1.491203 1_555
O60 S6 1.506260 1_555
O61 S7 1.506260 1_555
O62 S8 1.506271 1_555
O63 S9 1.506271 1_555
O64 S10 1.506274 1_555
O65 S11 1.506274 1_555
O66 S0 1.465904 1_555
O67 S1 1.465904 1_555
O68 S2 1.465904 1_555
O69 S3 1.465904 1_555
O70 S4 1.465904 1_555
O71 S5 1.465904 1_555
