# generated using pymatgen
data_Cs3ReO5
_symmetry_space_group_name_H-M   'P 1'
_cell_length_a   9.02874400
_cell_length_b   9.53175000
_cell_length_c   9.65883300
_cell_angle_alpha   90.00000000
_cell_angle_beta   90.00000000
_cell_angle_gamma   90.00000000
_symmetry_Int_Tables_number   1
_chemical_formula_structural   Cs3ReO5
_chemical_formula_sum   'Cs12 Re4 O20'
_cell_volume   831.23656610
_cell_formula_units_Z   4
loop_
 _symmetry_equiv_pos_site_id
 _symmetry_equiv_pos_as_xyz
  1  'x, y, z'
loop_
 _atom_site_type_symbol
 _atom_site_label
 _atom_site_symmetry_multiplicity
 _atom_site_fract_x
 _atom_site_fract_y
 _atom_site_fract_z
 _atom_site_occupancy
  Cs  Cs0  1  0.25000000  0.00000000  0.47766900  1
  Cs  Cs1  1  0.75000000  0.00000000  0.52233100  1
  Cs  Cs2  1  0.25000000  0.50000000  0.02233100  1
  Cs  Cs3  1  0.75000000  0.50000000  0.97766900  1
  Cs  Cs4  1  0.25000000  0.00000000  0.01832500  1
  Cs  Cs5  1  0.75000000  0.00000000  0.98167500  1
  Cs  Cs6  1  0.25000000  0.50000000  0.48167500  1
  Cs  Cs7  1  0.75000000  0.50000000  0.51832500  1
  Cs  Cs8  1  0.54587900  0.25000000  0.25000000  1
  Cs  Cs9  1  0.45412100  0.75000000  0.75000000  1
  Cs  Cs10  1  0.95412100  0.75000000  0.25000000  1
  Cs  Cs11  1  0.04587900  0.25000000  0.75000000  1
  Re  Re0  1  0.02486200  0.25000000  0.25000000  1
  Re  Re1  1  0.97513800  0.75000000  0.75000000  1
  Re  Re2  1  0.47513800  0.75000000  0.25000000  1
  Re  Re3  1  0.52486200  0.25000000  0.75000000  1
  O  O0  1  0.22376100  0.25000000  0.25000000  1
  O  O1  1  0.77623900  0.75000000  0.75000000  1
  O  O2  1  0.27623900  0.75000000  0.25000000  1
  O  O3  1  0.72376100  0.25000000  0.75000000  1
  O  O4  1  0.53077600  0.56506400  0.21935100  1
  O  O5  1  0.46922400  0.43493600  0.78064900  1
  O  O6  1  0.96922400  0.43493600  0.21935100  1
  O  O7  1  0.96922400  0.06506400  0.28064900  1
  O  O8  1  0.03077600  0.56506400  0.78064900  1
  O  O9  1  0.03077600  0.93493600  0.71935100  1
  O  O10  1  0.53077600  0.93493600  0.28064900  1
  O  O11  1  0.46922400  0.06506400  0.71935100  1
  O  O12  1  0.47828700  0.28118000  0.56499500  1
  O  O13  1  0.52171300  0.71882000  0.43500500  1
  O  O14  1  0.02171300  0.71882000  0.56499500  1
  O  O15  1  0.02171300  0.78118000  0.93500500  1
  O  O16  1  0.97828700  0.28118000  0.43500500  1
  O  O17  1  0.97828700  0.21882000  0.06499500  1
  O  O18  1  0.47828700  0.21882000  0.93500500  1
  O  O19  1  0.52171300  0.78118000  0.06499500  1
loop_
_geom_bond_atom_site_label_1
_geom_bond_atom_site_label_2
_geom_bond_distance
_geom_bond_site_symmetry_2
Cs0 O11 3.122752 1_555
Cs0 O9 3.122752 1_545
Cs0 O10 3.229932 1_545
Cs0 O7 3.229932 1_455
Cs0 O0 3.251183 1_555
Cs0 O2 3.251183 1_545
Cs0 O14 3.484665 1_545
Cs0 O12 3.484665 1_555
Cs0 O16 3.656675 1_455
Cs0 O13 3.656675 1_545
Cs1 O7 3.122752 1_555
Cs1 O10 3.122752 1_545
Cs1 O9 3.229932 1_645
Cs1 O11 3.229932 1_555
Cs1 O1 3.251183 1_545
Cs1 O3 3.251183 1_555
Cs1 O13 3.484665 1_545
Cs1 O16 3.484665 1_555
Cs1 O12 3.656675 1_555
Cs1 O14 3.656675 1_645
Cs2 O5 3.122752 1_554
Cs2 O8 3.122752 1_554
Cs2 O4 3.229932 1_555
Cs2 O6 3.229932 1_455
Cs2 O0 3.251183 1_555
Cs2 O2 3.251183 1_555
Cs2 O18 3.484665 1_554
Cs2 O15 3.484665 1_554
Cs2 O17 3.656675 1_455
Cs2 O19 3.656675 1_555
Cs3 O6 3.122752 1_556
Cs3 O4 3.122752 1_556
Cs3 O8 3.229932 1_655
Cs3 O5 3.229932 1_555
Cs3 O3 3.251183 1_555
Cs3 O1 3.251183 1_555
Cs3 O17 3.484665 1_556
Cs3 O19 3.484665 1_556
Cs3 O18 3.656675 1_555
Cs3 O15 3.656675 1_655
Cs4 O18 3.040770 1_554
Cs4 O15 3.040770 1_544
Cs4 O17 3.251434 1_455
Cs4 O19 3.251434 1_545
Cs4 O0 3.277478 1_555
Cs4 O2 3.277478 1_545
Cs4 O11 3.555468 1_554
Cs4 O9 3.555468 1_544
Cs4 O10 3.637441 1_545
Cs4 O7 3.637441 1_455
Cs5 O17 3.040770 1_556
Cs5 O19 3.040770 1_546
Cs5 O18 3.251434 1_555
Cs5 O15 3.251434 1_645
Cs5 O1 3.277478 1_545
Cs5 O3 3.277478 1_555
Cs5 O10 3.555468 1_546
Cs5 O7 3.555468 1_556
Cs5 O9 3.637441 1_645
Cs5 O11 3.637441 1_555
Cs6 O14 3.040770 1_555
Cs6 O12 3.040770 1_555
Cs6 O16 3.251434 1_455
Cs6 O13 3.251434 1_555
Cs6 O0 3.277478 1_555
Cs6 O2 3.277478 1_555
Cs6 O5 3.555468 1_555
Cs6 O8 3.555468 1_555
Cs6 O6 3.637441 1_455
Cs6 O4 3.637441 1_555
Cs7 O13 3.040770 1_555
Cs7 O16 3.040770 1_555
Cs7 O12 3.251434 1_555
Cs7 O14 3.251434 1_655
Cs7 O3 3.277478 1_555
Cs7 O1 3.277478 1_555
Cs7 O4 3.555468 1_555
Cs7 O6 3.555468 1_555
Cs7 O8 3.637441 1_655
Cs7 O5 3.637441 1_555
Cs8 O0 2.908321 1_555
Cs8 O4 3.020746 1_555
Cs8 O10 3.020746 1_545
Cs8 O18 3.117285 1_554
Cs8 O12 3.117285 1_555
Cs9 O1 2.908321 1_555
Cs9 O11 3.020746 1_565
Cs9 O5 3.020746 1_555
Cs9 O19 3.117285 1_556
Cs9 O13 3.117285 1_555
Cs10 O2 2.908321 1_655
Cs10 O7 3.020746 1_565
Cs10 O6 3.020746 1_555
Cs10 O15 3.117285 1_654
Cs10 O14 3.117285 1_655
Cs11 O3 2.908321 1_455
Cs11 O9 3.020746 1_545
Cs11 O8 3.020746 1_555
Cs11 O17 3.117285 1_456
Cs11 O16 3.117285 1_455
O0 Re0 1.795808 1_555
O1 Re1 1.795808 1_555
O2 Re2 1.795808 1_555
O3 Re3 1.795808 1_555
O4 Re2 1.856696 1_555
O5 Re3 1.856696 1_555
O6 Re0 1.856696 1_655
O7 Re0 1.856696 1_655
O8 Re1 1.856696 1_455
O9 Re1 1.856696 1_455
O10 Re2 1.856696 1_555
O11 Re3 1.856696 1_555
O12 Re3 1.859647 1_555
O13 Re2 1.859647 1_555
O14 Re1 1.859647 1_455
O15 Re1 1.859647 1_455
O16 Re0 1.859647 1_655
O17 Re0 1.859647 1_655
O18 Re3 1.859647 1_555
O19 Re2 1.859647 1_555
