# generated using pymatgen
data_Hf6Zn16Cu7
_symmetry_space_group_name_H-M   'P 1'
_cell_length_a   8.52997052
_cell_length_b   8.52997052
_cell_length_c   8.52997052
_cell_angle_alpha   60.00000000
_cell_angle_beta   60.00000000
_cell_angle_gamma   60.00000000
_symmetry_Int_Tables_number   1
_chemical_formula_structural   Hf6Zn16Cu7
_chemical_formula_sum   'Hf6 Zn16 Cu7'
_cell_volume   438.86161127
_cell_formula_units_Z   1
loop_
 _symmetry_equiv_pos_site_id
 _symmetry_equiv_pos_as_xyz
  1  'x, y, z'
loop_
 _atom_site_type_symbol
 _atom_site_label
 _atom_site_symmetry_multiplicity
 _atom_site_fract_x
 _atom_site_fract_y
 _atom_site_fract_z
 _atom_site_occupancy
  Hf  Hf0  1  0.69231800  0.30768200  0.30768200  1
  Hf  Hf1  1  0.69231800  0.30768200  0.69231800  1
  Hf  Hf2  1  0.69231800  0.69231800  0.30768200  1
  Hf  Hf3  1  0.30768200  0.69231800  0.69231800  1
  Hf  Hf4  1  0.30768200  0.69231800  0.30768200  1
  Hf  Hf5  1  0.30768200  0.30768200  0.69231800  1
  Zn  Zn0  1  0.64109700  0.11963400  0.11963400  1
  Zn  Zn1  1  0.11963400  0.64109700  0.11963400  1
  Zn  Zn2  1  0.11963400  0.11963400  0.64109700  1
  Zn  Zn3  1  0.11963400  0.11963400  0.11963400  1
  Zn  Zn4  1  0.35890300  0.88036600  0.88036600  1
  Zn  Zn5  1  0.88036600  0.35890300  0.88036600  1
  Zn  Zn6  1  0.88036600  0.88036600  0.35890300  1
  Zn  Zn7  1  0.88036600  0.88036600  0.88036600  1
  Zn  Zn8  1  0.99840000  0.33386700  0.33386700  1
  Zn  Zn9  1  0.33386700  0.99840000  0.33386700  1
  Zn  Zn10  1  0.33386700  0.33386700  0.99840000  1
  Zn  Zn11  1  0.33386700  0.33386700  0.33386700  1
  Zn  Zn12  1  0.00160000  0.66613300  0.66613300  1
  Zn  Zn13  1  0.66613300  0.00160000  0.66613300  1
  Zn  Zn14  1  0.66613300  0.66613300  0.00160000  1
  Zn  Zn15  1  0.66613300  0.66613300  0.66613300  1
  Cu  Cu0  1  0.00000000  0.00000000  0.00000000  1
  Cu  Cu1  1  0.50000000  0.00000000  0.00000000  1
  Cu  Cu2  1  0.50000000  0.00000000  0.50000000  1
  Cu  Cu3  1  0.50000000  0.50000000  0.00000000  1
  Cu  Cu4  1  0.00000000  0.50000000  0.50000000  1
  Cu  Cu5  1  0.00000000  0.50000000  0.00000000  1
  Cu  Cu6  1  0.00000000  0.00000000  0.50000000  1
loop_
_geom_bond_atom_site_label_1
_geom_bond_atom_site_label_2
_geom_bond_distance
_geom_bond_site_symmetry_2
Hf0 Zn11 2.851767 1_555
Hf0 Zn13 2.851771 1_555
Hf0 Zn14 2.851771 1_555
Hf0 Zn8 2.851776 1_555
Hf0 Zn6 3.051455 1_545
Hf0 Zn5 3.051455 1_554
Hf0 Zn3 3.051456 1_655
Hf0 Zn0 3.051462 1_555
Hf1 Zn15 2.851767 1_555
Hf1 Zn8 2.851771 1_555
Hf1 Zn10 2.851771 1_555
Hf1 Zn13 2.851776 1_555
Hf1 Zn2 3.051455 1_655
Hf1 Zn0 3.051455 1_556
Hf1 Zn7 3.051456 1_545
Hf1 Zn5 3.051462 1_555
Hf2 Zn15 2.851767 1_555
Hf2 Zn8 2.851771 1_555
Hf2 Zn9 2.851771 1_555
Hf2 Zn14 2.851776 1_555
Hf2 Zn0 3.051455 1_565
Hf2 Zn1 3.051455 1_655
Hf2 Zn7 3.051456 1_554
Hf2 Zn6 3.051462 1_555
Hf3 Zn15 2.851767 1_555
Hf3 Zn9 2.851771 1_555
Hf3 Zn10 2.851771 1_555
Hf3 Zn12 2.851776 1_555
Hf3 Zn2 3.051455 1_565
Hf3 Zn1 3.051455 1_556
Hf3 Zn7 3.051456 1_455
Hf3 Zn4 3.051462 1_555
Hf4 Zn11 2.851767 1_555
Hf4 Zn12 2.851771 1_555
Hf4 Zn14 2.851771 1_555
Hf4 Zn9 2.851776 1_555
Hf4 Zn6 3.051455 1_455
Hf4 Zn4 3.051455 1_554
Hf4 Zn3 3.051456 1_565
Hf4 Zn1 3.051462 1_555
Hf5 Zn11 2.851767 1_555
Hf5 Zn13 2.851771 1_555
Hf5 Zn12 2.851771 1_555
Hf5 Zn10 2.851776 1_555
Hf5 Zn5 3.051455 1_455
Hf5 Zn4 3.051455 1_545
Hf5 Zn3 3.051456 1_556
Hf5 Zn2 3.051462 1_555
Zn0 Zn9 2.703332 1_545
Zn0 Zn10 2.703332 1_554
Zn0 Zn11 2.703341 1_555
Zn0 Zn7 2.886338 1_544
Zn0 Zn5 2.886350 1_554
Zn0 Zn6 2.886350 1_545
Zn1 Zn10 2.703332 1_554
Zn1 Zn8 2.703332 1_455
Zn1 Zn11 2.703341 1_555
Zn1 Zn7 2.886338 1_454
Zn1 Zn4 2.886350 1_554
Zn1 Zn6 2.886350 1_455
Zn2 Zn9 2.703332 1_545
Zn2 Zn8 2.703332 1_455
Zn2 Zn7 2.886338 1_445
Zn2 Zn4 2.886350 1_545
Zn2 Zn5 2.886350 1_455
Zn3 Zn9 2.703346 1_545
Zn3 Zn8 2.703346 1_455
Zn3 Zn6 2.886338 1_445
Zn3 Zn5 2.886338 1_454
Zn3 Zn4 2.886338 1_544
Zn10 Zn3 2.703346 1_556
Zn11 Zn2 2.703341 1_555
Zn12 Zn6 2.703332 1_455
Zn12 Zn5 2.703332 1_455
Zn12 Zn7 2.703346 1_455
Zn13 Zn6 2.703332 1_545
Zn13 Zn4 2.703332 1_545
Zn13 Zn7 2.703346 1_545
Zn14 Zn5 2.703332 1_554
Zn14 Zn4 2.703332 1_554
Zn14 Zn7 2.703346 1_554
Zn15 Zn5 2.703341 1_555
Zn15 Zn6 2.703341 1_555
Zn15 Zn4 2.703341 1_555
Cu0 Zn3 2.499642 1_555
Cu0 Zn7 2.499642 1_444
Cu0 Zn1 2.499649 1_545
Cu0 Zn0 2.499649 1_455
Cu0 Zn2 2.499649 1_554
Cu0 Zn4 2.499649 1_544
Cu0 Zn5 2.499649 1_454
Cu0 Zn6 2.499649 1_445
Cu1 Zn10 2.462418 1_554
Cu1 Zn9 2.462418 1_545
Cu1 Zn13 2.462418 1_554
Cu1 Zn14 2.462418 1_545
Cu1 Zn4 2.651233 1_544
Cu1 Zn0 2.651233 1_555
Cu1 Zn7 2.651240 1_544
Cu1 Zn3 2.651240 1_555
Cu1 Hf2 3.095033 1_545
Cu1 Hf5 3.095033 1_554
Cu1 Hf4 3.095033 1_545
Cu1 Hf1 3.095033 1_554
Cu2 Zn9 2.462411 1_545
Cu2 Zn13 2.462411 1_555
Cu2 Zn11 2.462416 1_555
Cu2 Zn15 2.462416 1_545
Cu2 Zn0 2.651240 1_555
Cu2 Zn2 2.651240 1_555
Cu2 Zn6 2.651240 1_545
Cu2 Zn4 2.651240 1_545
Cu2 Hf2 3.095033 1_545
Cu2 Hf5 3.095033 1_555
Cu2 Hf0 3.095033 1_555
Cu2 Hf3 3.095033 1_545
Cu3 Zn14 2.462411 1_555
Cu3 Zn10 2.462411 1_554
Cu3 Zn15 2.462416 1_554
Cu3 Zn11 2.462416 1_555
Cu3 Zn4 2.651240 1_554
Cu3 Zn0 2.651240 1_555
Cu3 Zn5 2.651240 1_554
Cu3 Zn1 2.651240 1_555
Cu3 Hf1 3.095033 1_554
Cu3 Hf4 3.095033 1_555
Cu3 Hf3 3.095033 1_554
Cu3 Hf0 3.095033 1_555
Cu4 Zn12 2.462411 1_555
Cu4 Zn8 2.462411 1_455
Cu4 Zn15 2.462416 1_455
Cu4 Zn11 2.462416 1_555
Cu4 Zn1 2.651240 1_555
Cu4 Zn6 2.651240 1_455
Cu4 Zn2 2.651240 1_555
Cu4 Zn5 2.651240 1_455
Cu4 Hf2 3.095033 1_455
Cu4 Hf5 3.095033 1_555
Cu4 Hf4 3.095033 1_555
Cu4 Hf1 3.095033 1_455
Cu5 Zn8 2.462418 1_455
Cu5 Zn12 2.462418 1_554
Cu5 Zn10 2.462418 1_554
Cu5 Zn14 2.462418 1_455
Cu5 Zn5 2.651233 1_454
Cu5 Zn1 2.651233 1_555
Cu5 Zn3 2.651240 1_555
Cu5 Zn7 2.651240 1_454
Cu5 Hf2 3.095033 1_455
Cu5 Hf5 3.095033 1_554
Cu5 Hf0 3.095033 1_455
Cu5 Hf3 3.095033 1_554
Cu6 Zn9 2.462418 1_545
Cu6 Zn8 2.462418 1_455
Cu6 Zn13 2.462418 1_455
Cu6 Zn12 2.462418 1_545
Cu6 Zn6 2.651233 1_445
Cu6 Zn2 2.651233 1_555
Cu6 Zn7 2.651240 1_445
Cu6 Zn3 2.651240 1_555
Cu6 Hf1 3.095033 1_455
Cu6 Hf4 3.095033 1_545
Cu6 Hf0 3.095033 1_455
Cu6 Hf3 3.095033 1_545
