# generated using pymatgen
data_La2MgCo2Sb2(PbO6)2
_symmetry_space_group_name_H-M   'P 1'
_cell_length_a   5.78353703
_cell_length_b   6.49557766
_cell_length_c   8.62654792
_cell_angle_alpha   81.65766816
_cell_angle_beta   92.42313193
_cell_angle_gamma   89.25100552
_symmetry_Int_Tables_number   1
_chemical_formula_structural   La2MgCo2Sb2(PbO6)2
_chemical_formula_sum   'La2 Mg1 Co2 Sb2 Pb2 O12'
_cell_volume   320.30081155
_cell_formula_units_Z   1
loop_
 _symmetry_equiv_pos_site_id
 _symmetry_equiv_pos_as_xyz
  1  'x, y, z'
loop_
 _atom_site_type_symbol
 _atom_site_label
 _atom_site_symmetry_multiplicity
 _atom_site_fract_x
 _atom_site_fract_y
 _atom_site_fract_z
 _atom_site_occupancy
  La  La0  1  0.48897400  0.43279500  0.78925400  1
  La  La1  1  0.01604600  0.08168300  0.22762100  1
  Mg  Mg0  1  0.97726300  0.76271000  0.58359300  1
  Co  Co0  1  0.04428000  0.35212300  0.48412700  1
  Co  Co1  1  0.51982900  0.00073800  0.03130100  1
  Sb  Sb0  1  0.95837100  0.58176900  0.03052800  1
  Sb  Sb1  1  0.51165500  0.99942300  0.49399500  1
  Pb  Pb0  1  0.48439700  0.59957200  0.27785800  1
  Pb  Pb1  1  0.03568600  0.08482900  0.82347800  1
  O  O0  1  0.61903400  0.95117800  0.27175300  1
  O  O1  1  0.09311100  0.47217900  0.67380300  1
  O  O2  1  0.45765900  0.09842300  0.69841400  1
  O  O3  1  0.91202800  0.46133600  0.25711600  1
  O  O4  1  0.22687700  0.83872200  0.44172000  1
  O  O5  1  0.63544300  0.70608100  0.99508400  1
  O  O6  1  0.84897400  0.09284700  0.50570300  1
  O  O7  1  0.27799800  0.22753300  0.99113000  1
  O  O8  1  0.32348500  0.24876100  0.38857500  1
  O  O9  1  0.76650100  0.21326800  0.97289600  1
  O  O10  1  0.64200000  0.71180900  0.58655700  1
  O  O11  1  0.14848400  0.82180500  0.08382600  1
loop_
_geom_bond_atom_site_label_1
_geom_bond_atom_site_label_2
_geom_bond_distance
_geom_bond_site_symmetry_2
La0 O7 2.418219 1_555
La0 O2 2.419994 1_555
La0 O1 2.452968 1_555
La0 O9 2.487766 1_555
La0 O10 2.525599 1_555
La0 O5 2.801475 1_555
La1 O11 2.372575 1_545
La1 O0 2.483330 1_445
La1 O4 2.510393 1_545
La1 O8 2.558556 1_555
La1 O3 2.581543 1_455
La1 O9 2.607042 1_454
La1 O6 2.634054 1_455
La1 O7 2.663237 1_554
Mg0 O4 1.954091 1_655
Mg0 O10 1.971856 1_555
Mg0 O1 2.027958 1_655
Mg0 O6 2.258032 1_565
Co0 O1 1.924099 1_555
Co0 O8 1.995637 1_555
Co0 O6 2.030629 1_455
Co0 O3 2.092691 1_455
Co1 O7 2.000876 1_554
Co1 O9 2.026172 1_554
Co1 O5 2.089428 1_544
Co1 O0 2.106229 1_545
Co1 O11 2.482636 1_545
O0 Sb1 2.104613 1_555
O0 Pb0 2.416671 1_555
O1 Pb1 2.687645 1_555
O2 Sb1 1.997777 1_545
O3 Sb0 2.027467 1_555
O3 Pb0 2.642173 1_555
O4 Sb1 2.030861 1_555
O4 Pb0 2.717393 1_555
O5 Sb0 2.018497 1_556
O5 Pb0 2.626510 1_556
O6 Sb1 2.053420 1_545
O7 Pb1 2.272984 1_555
O8 Sb1 2.019239 1_545
O8 Pb0 2.543609 1_555
O9 Pb1 2.286696 1_655
O10 Sb1 2.043413 1_555
O11 Sb0 2.015307 1_455
O11 Pb1 2.668738 1_564
O11 Pb0 2.758695 1_555
