# generated using pymatgen
data_Li2CoSn(PO4)2
_symmetry_space_group_name_H-M   'P 1'
_cell_length_a   5.92636593
_cell_length_b   9.87674385
_cell_length_c   12.03188189
_cell_angle_alpha   80.37622060
_cell_angle_beta   89.76073540
_cell_angle_gamma   90.08944150
_symmetry_Int_Tables_number   1
_chemical_formula_structural   Li2CoSn(PO4)2
_chemical_formula_sum   'Li8 Co4 Sn4 P8 O32'
_cell_volume   694.34535248
_cell_formula_units_Z   4
loop_
 _symmetry_equiv_pos_site_id
 _symmetry_equiv_pos_as_xyz
  1  'x, y, z'
loop_
 _atom_site_type_symbol
 _atom_site_label
 _atom_site_symmetry_multiplicity
 _atom_site_fract_x
 _atom_site_fract_y
 _atom_site_fract_z
 _atom_site_occupancy
  Li  Li0  1  0.99219900  0.00673700  0.00083200  1
  Li  Li1  1  0.00828700  0.49339400  0.00307700  1
  Li  Li2  1  0.49346500  0.99453400  0.00217400  1
  Li  Li3  1  0.50827900  0.50913700  0.99985800  1
  Li  Li4  1  0.00407600  0.25211200  0.50141000  1
  Li  Li5  1  0.99636400  0.74568100  0.49689800  1
  Li  Li6  1  0.49862700  0.25328400  0.50253100  1
  Li  Li7  1  0.50097200  0.74828200  0.49872100  1
  Co  Co0  1  0.24866500  0.01633800  0.31602400  1
  Co  Co1  1  0.75133400  0.48095100  0.68913200  1
  Co  Co2  1  0.25722100  0.51703500  0.31465300  1
  Co  Co3  1  0.74799800  0.98280100  0.68329800  1
  Sn  Sn0  1  0.75016400  0.26717400  0.22087700  1
  Sn  Sn1  1  0.74587600  0.76875000  0.21859300  1
  Sn  Sn2  1  0.24986700  0.23169900  0.78133100  1
  Sn  Sn3  1  0.25028100  0.73177200  0.77943800  1
  P  P0  1  0.24797100  0.19746700  0.10639300  1
  P  P1  1  0.24603700  0.69788800  0.10594700  1
  P  P2  1  0.75070900  0.30324900  0.89540700  1
  P  P3  1  0.74884600  0.80284700  0.89312000  1
  P  P4  1  0.75485000  0.46503100  0.41975600  1
  P  P5  1  0.74953300  0.96401800  0.41929800  1
  P  P6  1  0.24941600  0.03537100  0.58075600  1
  P  P7  1  0.25153700  0.53450700  0.57844400  1
  O  O0  1  0.74609200  0.36356700  0.00578800  1
  O  O1  1  0.75401700  0.86251300  0.00407400  1
  O  O2  1  0.25282600  0.13913200  0.99463200  1
  O  O3  1  0.24404500  0.63898800  0.99463000  1
  O  O4  1  0.24319500  0.35386300  0.08991400  1
  O  O5  1  0.25759800  0.85415900  0.08934600  1
  O  O6  1  0.75402600  0.14697800  0.91287400  1
  O  O7  1  0.74238100  0.64636400  0.91088400  1
  O  O8  1  0.75136400  0.12209000  0.40602300  1
  O  O9  1  0.75234800  0.62343100  0.40498600  1
  O  O10  1  0.25180500  0.37616800  0.59133000  1
  O  O11  1  0.25032500  0.87724300  0.59451500  1
  O  O12  1  0.24957500  0.11281300  0.45637100  1
  O  O13  1  0.25002500  0.61312300  0.45399000  1
  O  O14  1  0.75544600  0.38921500  0.54442200  1
  O  O15  1  0.75064900  0.88593600  0.54354000  1
  O  O16  1  0.04142300  0.12775000  0.17976000  1
  O  O17  1  0.03795800  0.63630500  0.18135000  1
  O  O18  1  0.45251200  0.13228600  0.18232400  1
  O  O19  1  0.44890900  0.62555000  0.18048100  1
  O  O20  1  0.54667500  0.36792300  0.81809600  1
  O  O21  1  0.54337800  0.87184000  0.81952000  1
  O  O22  1  0.95764500  0.37120800  0.82063500  1
  O  O23  1  0.95439200  0.86626100  0.81601700  1
  O  O24  1  0.54058000  0.40776000  0.36631800  1
  O  O25  1  0.53374400  0.90890800  0.36568200  1
  O  O26  1  0.96919600  0.40921400  0.36427400  1
  O  O27  1  0.96296900  0.90761600  0.36360500  1
  O  O28  1  0.03464900  0.09106400  0.63568100  1
  O  O29  1  0.03728400  0.58944900  0.63367800  1
  O  O30  1  0.46392100  0.09177200  0.63499100  1
  O  O31  1  0.46647500  0.58945000  0.63229900  1
loop_
_geom_bond_atom_site_label_1
_geom_bond_atom_site_label_2
_geom_bond_distance
_geom_bond_site_symmetry_2
Li0 O1 1.999446 1_545
Li0 O2 2.015262 1_654
Li0 O6 2.135265 1_554
Li0 O5 2.315991 1_645
Li1 O3 1.993482 1_554
Li1 O0 2.009761 1_455
Li1 O4 2.113201 1_555
Li1 O7 2.336259 1_454
Li2 O2 2.011412 1_564
Li2 O1 2.020326 1_555
Li2 O5 2.114650 1_555
Li2 O6 2.289955 1_564
Li3 O0 2.007840 1_556
Li3 O3 2.020170 1_555
Li3 O7 2.098669 1_555
Li3 O4 2.327369 1_556
Li4 O28 2.077745 1_555
Li4 O26 2.078629 1_455
Li4 O14 2.122919 1_455
Li4 O12 2.133606 1_555
Li4 O10 2.297412 1_555
Li4 O8 2.389660 1_455
Li5 O29 2.074529 1_655
Li5 O27 2.077326 1_555
Li5 O13 2.113333 1_655
Li5 O15 2.147975 1_555
Li5 O9 2.286153 1_555
Li5 O11 2.419112 1_655
Li6 O24 2.057907 1_555
Li6 O30 2.067174 1_555
Li6 O14 2.144592 1_555
Li6 O12 2.160999 1_555
Li6 O10 2.276026 1_555
Li6 O8 2.401123 1_555
Li7 O31 2.058902 1_555
Li7 O25 2.064996 1_555
Li7 O13 2.127012 1_555
Li7 O15 2.138738 1_555
Li7 O9 2.338500 1_555
Li7 O11 2.374815 1_555
Co0 O27 2.031806 1_445
Co0 O25 2.034511 1_545
Co0 O12 2.073046 1_555
Co0 O18 2.173058 1_555
Co0 O16 2.196619 1_555
Co1 O29 2.052112 1_655
Co1 O31 2.058199 1_555
Co1 O14 2.092905 1_555
Co1 O20 2.127419 1_555
Co1 O22 2.149443 1_555
Co2 O24 2.039935 1_555
Co2 O26 2.043866 1_455
Co2 O13 2.060243 1_555
Co2 O19 2.108958 1_555
Co2 O17 2.244798 1_555
Co3 O30 2.033516 1_565
Co3 O28 2.034428 1_665
Co3 O15 2.069029 1_555
Co3 O21 2.176375 1_555
Co3 O23 2.185664 1_555
O0 P2 1.543949 1_554
O0 Sn0 2.604061 1_555
O1 P3 1.547170 1_554
O1 Sn1 2.592580 1_555
O2 P0 1.549118 1_556
O2 Sn2 2.576540 1_555
O3 P1 1.546950 1_556
O3 Sn3 2.598210 1_555
O4 P0 1.524447 1_555
O5 P1 1.524238 1_555
O6 P2 1.522649 1_555
O7 P3 1.524844 1_555
O8 P5 1.542610 1_545
O8 Sn0 2.439000 1_555
O9 P4 1.544837 1_555
O9 Sn1 2.452685 1_555
O10 P7 1.545536 1_555
O10 Sn2 2.484214 1_555
O11 P6 1.542792 1_565
O11 Sn3 2.438434 1_555
O12 P6 1.562706 1_555
O13 P7 1.567360 1_555
O14 P4 1.560494 1_555
O15 P5 1.563346 1_555
O16 P0 1.592750 1_555
O16 Sn0 2.312691 1_455
O17 P1 1.586668 1_555
O17 Sn1 2.259398 1_455
O18 P0 1.591705 1_555
O18 Sn0 2.303882 1_555
O19 P1 1.599265 1_555
O19 Sn1 2.350288 1_555
O20 P2 1.596417 1_555
O20 Sn2 2.301754 1_555
O21 P3 1.594086 1_555
O21 Sn3 2.320808 1_555
O22 P2 1.596938 1_555
O22 Sn2 2.310820 1_655
O23 P3 1.590809 1_555
O23 Sn3 2.286774 1_655
O24 P4 1.572271 1_555
O24 Sn0 2.707891 1_555
O25 P5 1.571620 1_555
O25 Sn1 2.726684 1_555
O26 P4 1.575228 1_555
O26 Sn0 2.729867 1_555
O27 P5 1.574564 1_555
O27 Sn1 2.719187 1_555
O28 P6 1.573527 1_555
O28 Sn2 2.730245 1_555
O29 P7 1.569727 1_555
O29 Sn3 2.735375 1_555
O30 P6 1.574303 1_555
O30 Sn2 2.723949 1_555
O31 P7 1.568192 1_555
O31 Sn3 2.751442 1_555
