# generated using pymatgen
data_Y2Nb3Ge4
_symmetry_space_group_name_H-M   'P 1'
_cell_length_a   7.00263502
_cell_length_b   7.19234139
_cell_length_c   13.56611414
_cell_angle_alpha   90.00000000
_cell_angle_beta   90.00000000
_cell_angle_gamma   90.00000000
_symmetry_Int_Tables_number   1
_chemical_formula_structural   Y2Nb3Ge4
_chemical_formula_sum   'Y8 Nb12 Ge16'
_cell_volume   683.26197411
_cell_formula_units_Z   4
loop_
 _symmetry_equiv_pos_site_id
 _symmetry_equiv_pos_as_xyz
  1  'x, y, z'
loop_
 _atom_site_type_symbol
 _atom_site_label
 _atom_site_symmetry_multiplicity
 _atom_site_fract_x
 _atom_site_fract_y
 _atom_site_fract_z
 _atom_site_occupancy
  Y  Y0  1  0.49725981  0.32588608  0.09548113  1
  Y  Y1  1  0.99725981  0.17411392  0.40451887  1
  Y  Y2  1  0.50274019  0.67411392  0.59548113  1
  Y  Y3  1  0.00274019  0.82588608  0.90451887  1
  Y  Y4  1  0.50274019  0.67411392  0.90451887  1
  Y  Y5  1  0.00274019  0.82588608  0.59548113  1
  Y  Y6  1  0.49725981  0.32588608  0.40451887  1
  Y  Y7  1  0.99725981  0.17411392  0.09548113  1
  Nb  Nb0  1  0.66445786  0.01342051  0.75000000  1
  Nb  Nb1  1  0.16445786  0.48657949  0.75000000  1
  Nb  Nb2  1  0.33554214  0.98657949  0.25000000  1
  Nb  Nb3  1  0.83554214  0.51342051  0.25000000  1
  Nb  Nb4  1  0.84027960  0.32793928  0.62675443  1
  Nb  Nb5  1  0.34027960  0.17206072  0.87324557  1
  Nb  Nb6  1  0.15972040  0.67206072  0.12675443  1
  Nb  Nb7  1  0.65972040  0.82793928  0.37324557  1
  Nb  Nb8  1  0.15972040  0.67206072  0.37324557  1
  Nb  Nb9  1  0.65972040  0.82793928  0.12675443  1
  Nb  Nb10  1  0.84027960  0.32793928  0.87324557  1
  Nb  Nb11  1  0.34027960  0.17206072  0.62675443  1
  Ge  Ge0  1  0.80462037  0.63568802  0.75000000  1
  Ge  Ge1  1  0.30462037  0.86431198  0.75000000  1
  Ge  Ge2  1  0.19537963  0.36431198  0.25000000  1
  Ge  Ge3  1  0.69537963  0.13568802  0.25000000  1
  Ge  Ge4  1  0.54012109  0.37884195  0.75000000  1
  Ge  Ge5  1  0.04012109  0.12115805  0.75000000  1
  Ge  Ge6  1  0.45987891  0.62115805  0.25000000  1
  Ge  Ge7  1  0.95987891  0.87884195  0.25000000  1
  Ge  Ge8  1  0.67365017  0.03893138  0.54153604  1
  Ge  Ge9  1  0.17365017  0.46106862  0.95846396  1
  Ge  Ge10  1  0.32634983  0.96106862  0.04153604  1
  Ge  Ge11  1  0.82634983  0.53893138  0.45846396  1
  Ge  Ge12  1  0.32634983  0.96106862  0.45846396  1
  Ge  Ge13  1  0.82634983  0.53893138  0.04153604  1
  Ge  Ge14  1  0.67365017  0.03893138  0.95846396  1
  Ge  Ge15  1  0.17365017  0.46106862  0.54153604  1
loop_
_geom_bond_atom_site_label_1
_geom_bond_atom_site_label_2
_geom_bond_distance
_geom_bond_site_symmetry_2
Ge0 Ge4 2.615955 1_555
Ge0 Nb1 2.738535 1_655
Ge0 Nb4 2.785158 1_555
Ge0 Nb10 2.785158 1_555
Ge0 Y5 2.861861 1_655
Ge0 Y3 2.861861 1_655
Ge0 Nb0 2.888642 1_565
Ge0 Y4 2.989872 1_555
Ge0 Y2 2.989872 1_555
Ge1 Ge5 2.615955 1_565
Ge1 Nb0 2.738535 1_565
Ge1 Nb11 2.785158 1_565
Ge1 Nb5 2.785158 1_565
Ge1 Y4 2.861861 1_555
Ge1 Y2 2.861861 1_555
Ge1 Nb1 2.888642 1_555
Ge1 Y3 2.989872 1_555
Ge1 Y5 2.989872 1_555
Ge2 Ge6 2.615955 1_555
Ge2 Nb3 2.738535 1_455
Ge2 Nb6 2.785158 1_555
Ge2 Nb8 2.785158 1_555
Ge2 Y1 2.861861 1_455
Ge2 Y7 2.861861 1_455
Ge2 Nb2 2.888642 1_545
Ge2 Y6 2.989872 1_555
Ge2 Y0 2.989872 1_555
Ge3 Ge7 2.615955 1_545
Ge3 Nb2 2.738535 1_545
Ge3 Nb7 2.785158 1_545
Ge3 Nb9 2.785158 1_545
Ge3 Y6 2.861861 1_555
Ge3 Y0 2.861861 1_555
Ge3 Nb3 2.888642 1_555
Ge3 Y7 2.989872 1_555
Ge3 Y1 2.989872 1_555
Ge4 Nb11 2.639264 1_555
Ge4 Nb5 2.639264 1_555
Ge4 Nb10 2.710624 1_555
Ge4 Nb4 2.710624 1_555
Ge4 Nb1 2.742385 1_555
Ge4 Nb0 2.768703 1_555
Ge4 Y4 2.995455 1_555
Ge4 Y2 2.995455 1_555
Ge5 Nb4 2.639264 1_455
Ge5 Nb10 2.639264 1_455
Ge5 Nb5 2.710624 1_555
Ge5 Nb11 2.710624 1_555
Ge5 Nb0 2.742385 1_455
Ge5 Nb1 2.768703 1_555
Ge5 Y5 2.995455 1_545
Ge5 Y3 2.995455 1_545
Ge6 Nb9 2.639264 1_555
Ge6 Nb7 2.639264 1_555
Ge6 Nb8 2.710624 1_555
Ge6 Nb6 2.710624 1_555
Ge6 Nb3 2.742385 1_555
Ge6 Nb2 2.768703 1_555
Ge6 Y6 2.995455 1_555
Ge6 Y0 2.995455 1_555
Ge7 Nb8 2.639264 1_655
Ge7 Nb6 2.639264 1_655
Ge7 Nb9 2.710624 1_555
Ge7 Nb7 2.710624 1_555
Ge7 Nb2 2.742385 1_655
Ge7 Nb3 2.768703 1_555
Ge7 Y7 2.995455 1_565
Ge7 Y1 2.995455 1_565
Ge8 Nb4 2.649304 1_555
Ge8 Nb7 2.743121 1_545
Ge8 Nb11 2.775449 1_555
Ge8 Nb0 2.834723 1_555
Ge8 Y5 2.862552 1_645
Ge8 Y2 2.975358 1_545
Ge8 Y6 3.039803 1_555
Ge8 Y1 3.087998 1_555
Ge9 Nb5 2.649304 1_555
Ge9 Nb6 2.743121 1_556
Ge9 Nb10 2.775449 1_455
Ge9 Nb1 2.834723 1_555
Ge9 Y4 2.862552 1_555
Ge9 Y3 2.975358 1_555
Ge9 Y7 3.039803 1_456
Ge9 Y0 3.087998 1_556
Ge10 Nb6 2.649304 1_555
Ge10 Ge14 2.738317 1_564
Ge10 Nb5 2.743121 1_564
Ge10 Nb9 2.775449 1_555
Ge10 Nb2 2.834723 1_555
Ge10 Y7 2.862552 1_465
Ge10 Y0 2.975358 1_565
Ge10 Y4 3.039803 1_554
Ge10 Y3 3.087998 1_554
Ge11 Nb7 2.649304 1_555
Ge11 Ge15 2.738317 1_655
Ge11 Nb4 2.743121 1_555
Ge11 Nb8 2.775449 1_655
Ge11 Nb3 2.834723 1_555
Ge11 Y6 2.862552 1_555
Ge11 Y1 2.975358 1_555
Ge11 Y5 3.039803 1_655
Ge11 Y2 3.087998 1_555
Ge12 Nb8 2.649304 1_555
Ge12 Ge8 2.738317 1_565
Ge12 Nb11 2.743121 1_565
Ge12 Nb7 2.775449 1_555
Ge12 Nb2 2.834723 1_555
Ge12 Y1 2.862552 1_465
Ge12 Y6 2.975358 1_565
Ge12 Y2 3.039803 1_555
Ge12 Y5 3.087998 1_555
Ge13 Nb9 2.649304 1_555
Ge13 Ge9 2.738317 1_654
Ge13 Nb10 2.743121 1_554
Ge13 Nb6 2.775449 1_655
Ge13 Nb3 2.834723 1_555
Ge13 Y0 2.862552 1_555
Ge13 Y7 2.975358 1_555
Ge13 Y3 3.039803 1_654
Ge13 Y4 3.087998 1_554
Ge14 Nb10 2.649304 1_555
Ge14 Nb9 2.743121 1_546
Ge14 Nb5 2.775449 1_555
Ge14 Nb0 2.834723 1_555
Ge14 Y3 2.862552 1_645
Ge14 Y4 2.975358 1_545
Ge14 Y0 3.039803 1_556
Ge14 Y7 3.087998 1_556
Ge15 Nb11 2.649304 1_555
Ge15 Nb8 2.743121 1_555
Ge15 Nb4 2.775449 1_455
Ge15 Nb1 2.834723 1_555
Ge15 Y2 2.862552 1_555
Ge15 Y5 2.975358 1_555
Ge15 Y1 3.039803 1_455
Ge15 Y6 3.087998 1_555
