# generated using pymatgen
data_Sr3(Cu2Sn)4
_symmetry_space_group_name_H-M   'P 1'
_cell_length_a   9.38151448
_cell_length_b   9.38151448
_cell_length_c   7.97597800
_cell_angle_alpha   90.00000000
_cell_angle_beta   90.00000000
_cell_angle_gamma   120.00000336
_symmetry_Int_Tables_number   1
_chemical_formula_structural   Sr3(Cu2Sn)4
_chemical_formula_sum   'Sr6 Cu16 Sn8'
_cell_volume   607.93965193
_cell_formula_units_Z   2
loop_
 _symmetry_equiv_pos_site_id
 _symmetry_equiv_pos_as_xyz
  1  'x, y, z'
loop_
 _atom_site_type_symbol
 _atom_site_label
 _atom_site_symmetry_multiplicity
 _atom_site_fract_x
 _atom_site_fract_y
 _atom_site_fract_z
 _atom_site_occupancy
  Sr  Sr0  1  0.47441100  0.94882200  0.49943800  1
  Sr  Sr1  1  0.05117800  0.52558900  0.49943800  1
  Sr  Sr2  1  0.47441100  0.52558900  0.49943800  1
  Sr  Sr3  1  0.52558900  0.05117800  0.99943800  1
  Sr  Sr4  1  0.94882200  0.47441100  0.99943800  1
  Sr  Sr5  1  0.52558900  0.47441100  0.99943800  1
  Cu  Cu0  1  0.83902800  0.67805700  0.67267700  1
  Cu  Cu1  1  0.32194300  0.16097200  0.67267700  1
  Cu  Cu2  1  0.83902800  0.16097200  0.67267700  1
  Cu  Cu3  1  0.16097200  0.32194300  0.17267700  1
  Cu  Cu4  1  0.67805700  0.83902800  0.17267700  1
  Cu  Cu5  1  0.16097200  0.83902800  0.17267700  1
  Cu  Cu6  1  0.90204400  0.80408700  0.97968000  1
  Cu  Cu7  1  0.19591300  0.09795600  0.97968000  1
  Cu  Cu8  1  0.90204400  0.09795600  0.97968000  1
  Cu  Cu9  1  0.09795600  0.19591300  0.47968000  1
  Cu  Cu10  1  0.80408700  0.90204400  0.47968000  1
  Cu  Cu11  1  0.09795600  0.90204400  0.47968000  1
  Cu  Cu12  1  0.66666700  0.33333300  0.33521500  1
  Cu  Cu13  1  0.33333300  0.66666700  0.83521500  1
  Cu  Cu14  1  0.00000000  0.00000000  0.22635200  1
  Cu  Cu15  1  0.00000000  0.00000000  0.72635200  1
  Sn  Sn0  1  0.83460200  0.66920400  0.29469400  1
  Sn  Sn1  1  0.33079600  0.16539800  0.29469400  1
  Sn  Sn2  1  0.83460200  0.16539800  0.29469400  1
  Sn  Sn3  1  0.16539800  0.33079600  0.79469400  1
  Sn  Sn4  1  0.66920400  0.83460200  0.79469400  1
  Sn  Sn5  1  0.16539800  0.83460200  0.79469400  1
  Sn  Sn6  1  0.66666700  0.33333300  0.68168400  1
  Sn  Sn7  1  0.33333300  0.66666700  0.18168400  1
loop_
_geom_bond_atom_site_label_1
_geom_bond_atom_site_label_2
_geom_bond_distance
_geom_bond_site_symmetry_2
Cu0 Cu15 2.650471 1_665
Cu0 Cu6 2.654120 1_555
Cu0 Cu11 2.753444 1_655
Cu0 Cu10 2.753444 1_555
Cu0 Sn6 2.801676 1_555
Cu0 Sn4 2.825267 1_555
Cu0 Sn5 2.825275 1_655
Cu0 Sn0 3.015642 1_555
Cu0 Sr2 3.280745 1_555
Cu0 Sr1 3.280753 1_655
Cu0 Sr5 3.670332 1_555
Cu0 Sr4 3.670338 1_555
Cu1 Cu15 2.650471 1_555
Cu1 Cu7 2.654120 1_555
Cu1 Cu11 2.753444 1_545
Cu1 Cu9 2.753444 1_555
Cu1 Sn6 2.801676 1_555
Cu1 Sn3 2.825267 1_555
Cu1 Sn5 2.825275 1_545
Cu1 Sn1 3.015642 1_555
Cu1 Sr2 3.280745 1_555
Cu1 Sr0 3.280753 1_545
Cu1 Sr5 3.670332 1_555
Cu1 Sr3 3.670338 1_555
Cu2 Cu8 2.654126 1_555
Cu2 Cu9 2.753444 1_655
Cu2 Sn6 2.801660 1_555
Cu2 Sn3 2.825275 1_655
Cu2 Sn4 2.825275 1_545
Cu2 Sn2 3.015642 1_555
Cu2 Sr1 3.280746 1_655
Cu2 Sr0 3.280746 1_545
Cu2 Sr4 3.670331 1_555
Cu2 Sr3 3.670331 1_555
Cu3 Cu9 2.654120 1_555
Cu3 Cu8 2.753444 1_454
Cu3 Cu7 2.753444 1_554
Cu3 Sn7 2.801676 1_555
Cu3 Sn1 2.825267 1_555
Cu3 Sn2 2.825275 1_455
Cu3 Sn3 3.015642 1_554
Cu3 Sr5 3.280745 1_554
Cu3 Sr4 3.280753 1_454
Cu3 Sr2 3.670332 1_555
Cu3 Sr1 3.670338 1_555
Cu4 Cu8 2.753444 1_564
Cu4 Cu6 2.753444 1_554
Cu4 Sn7 2.801676 1_555
Cu4 Sn0 2.825267 1_555
Cu4 Sn2 2.825275 1_565
Cu4 Sn4 3.015642 1_554
Cu4 Sr5 3.280745 1_554
Cu4 Sr3 3.280753 1_564
Cu4 Sr2 3.670332 1_555
Cu4 Sr0 3.670338 1_555
Cu5 Cu7 2.753444 1_564
Cu5 Cu6 2.753444 1_454
Cu5 Sn7 2.801660 1_555
Cu5 Sn1 2.825275 1_565
Cu5 Sn0 2.825275 1_455
Cu5 Sn5 3.015642 1_554
Cu5 Sr3 3.280746 1_564
Cu5 Sr4 3.280746 1_454
Cu5 Sr0 3.670331 1_555
Cu5 Sr1 3.670331 1_555
Cu6 Sn0 2.741135 1_556
Cu6 Cu7 2.756936 1_665
Cu6 Cu8 2.756936 1_565
Cu6 Sn5 2.766904 1_655
Cu6 Sn4 2.766911 1_555
Cu6 Sr4 3.337739 1_555
Cu6 Sr5 3.337745 1_555
Cu7 Sn1 2.741135 1_556
Cu7 Cu8 2.756936 1_455
Cu7 Sn5 2.766904 1_545
Cu7 Sn3 2.766911 1_555
Cu7 Sr3 3.337739 1_555
Cu7 Sr5 3.337745 1_555
Cu8 Sn2 2.741138 1_556
Cu8 Sn3 2.766907 1_655
Cu8 Sn4 2.766907 1_545
Cu8 Sr4 3.337749 1_555
Cu8 Sr3 3.337749 1_555
Cu9 Sn3 2.741135 1_555
Cu9 Sn2 2.766904 1_455
Cu9 Sn1 2.766911 1_555
Cu9 Sr1 3.337739 1_555
Cu9 Sr2 3.337745 1_555
Cu10 Cu15 2.530699 1_665
Cu10 Cu14 2.572188 1_665
Cu10 Cu4 2.654120 1_555
Cu10 Sn4 2.741135 1_555
Cu10 Cu2 2.753444 1_565
Cu10 Cu9 2.756936 1_665
Cu10 Cu11 2.756936 1_655
Cu10 Sn2 2.766904 1_565
Cu10 Sn0 2.766911 1_555
Cu10 Sr0 3.337739 1_555
Cu10 Sr2 3.337745 1_555
Cu11 Cu15 2.530694 1_565
Cu11 Cu14 2.572183 1_565
Cu11 Cu5 2.654126 1_555
Cu11 Sn5 2.741138 1_555
Cu11 Cu9 2.756936 1_565
Cu11 Sn0 2.766907 1_455
Cu11 Sn1 2.766907 1_565
Cu11 Sr0 3.337749 1_555
Cu11 Sr1 3.337749 1_555
Cu12 Sn2 2.747892 1_555
Cu12 Sn0 2.747900 1_555
Cu12 Sn1 2.747900 1_555
Cu12 Sn6 2.763429 1_555
Cu12 Sr1 3.387494 1_655
Cu12 Sr0 3.387494 1_545
Cu12 Sr2 3.387501 1_555
Cu12 Sr4 3.525281 1_554
Cu12 Sr3 3.525281 1_554
Cu12 Sr5 3.525287 1_554
Cu13 Sn5 2.747892 1_555
Cu13 Sn4 2.747900 1_555
Cu13 Sn3 2.747900 1_555
Cu13 Sn7 2.763429 1_556
Cu13 Sr3 3.387494 1_565
Cu13 Sr4 3.387494 1_455
Cu13 Sr5 3.387501 1_555
Cu13 Sr0 3.525281 1_555
Cu13 Sr1 3.525281 1_555
Cu13 Sr2 3.525287 1_555
Cu14 Cu8 2.530694 1_454
Cu14 Cu6 2.530699 1_444
Cu14 Cu7 2.530699 1_554
Cu14 Cu9 2.572188 1_555
Cu14 Cu4 2.650471 1_445
Cu14 Cu3 2.650471 1_555
Cu14 Cu5 2.650479 1_545
Cu14 Sn0 2.742316 1_445
Cu14 Sn1 2.742316 1_555
Cu14 Sn2 2.742316 1_455
Cu15 Cu9 2.530699 1_555
Cu15 Cu8 2.572183 1_455
Cu15 Cu6 2.572188 1_445
Cu15 Cu7 2.572188 1_555
Cu15 Cu2 2.650479 1_455
Cu15 Sn3 2.742316 1_555
Cu15 Sn4 2.742316 1_445
Cu15 Sn5 2.742316 1_545
Sn0 Sr2 3.368658 1_555
Sn0 Sr1 3.368658 1_655
Sn0 Sr5 3.462926 1_554
Sn0 Sr4 3.462926 1_554
Sn1 Sr2 3.368658 1_555
Sn1 Sr0 3.368658 1_545
Sn1 Sr5 3.462926 1_554
Sn1 Sr3 3.462926 1_554
Sn2 Sr1 3.368658 1_655
Sn2 Sr0 3.368658 1_545
Sn2 Sr4 3.462926 1_554
Sn2 Sr3 3.462926 1_554
Sn3 Sr5 3.368658 1_555
Sn3 Sr4 3.368658 1_455
Sn3 Sr2 3.462926 1_555
Sn3 Sr1 3.462926 1_555
Sn4 Sr5 3.368658 1_555
Sn4 Sr3 3.368658 1_565
Sn4 Sr2 3.462926 1_555
Sn4 Sr0 3.462926 1_555
Sn5 Sr3 3.368658 1_565
Sn5 Sr4 3.368658 1_455
Sn5 Sr0 3.462926 1_555
Sn5 Sr1 3.462926 1_555
Sn6 Sr4 3.417352 1_555
Sn6 Sr3 3.417352 1_555
Sn6 Sr5 3.417358 1_555
Sn6 Sr1 3.445629 1_655
Sn6 Sr0 3.445629 1_545
Sn6 Sr2 3.445637 1_555
Sn7 Sr0 3.417352 1_555
Sn7 Sr1 3.417352 1_555
Sn7 Sr2 3.417358 1_555
Sn7 Sr3 3.445629 1_564
Sn7 Sr4 3.445629 1_454
Sn7 Sr5 3.445637 1_554
