# generated using pymatgen
data_NaMgN
_symmetry_space_group_name_H-M   'P 1'
_cell_length_a   6.63797500
_cell_length_b   3.74510300
_cell_length_c   6.20707200
_cell_angle_alpha   90.00000000
_cell_angle_beta   90.00000000
_cell_angle_gamma   90.00000000
_symmetry_Int_Tables_number   1
_chemical_formula_structural   NaMgN
_chemical_formula_sum   'Na4 Mg4 N4'
_cell_volume   154.30718975
_cell_formula_units_Z   4
loop_
 _symmetry_equiv_pos_site_id
 _symmetry_equiv_pos_as_xyz
  1  'x, y, z'
loop_
 _atom_site_type_symbol
 _atom_site_label
 _atom_site_symmetry_multiplicity
 _atom_site_fract_x
 _atom_site_fract_y
 _atom_site_fract_z
 _atom_site_occupancy
  Na  Na0  1  0.54319100  0.25000000  0.84514800  1
  Na  Na1  1  0.04319100  0.25000000  0.65485200  1
  Na  Na2  1  0.45680900  0.75000000  0.15485200  1
  Na  Na3  1  0.95680900  0.75000000  0.34514800  1
  Mg  Mg0  1  0.64489000  0.25000000  0.41633400  1
  Mg  Mg1  1  0.14489000  0.25000000  0.08366600  1
  Mg  Mg2  1  0.35511000  0.75000000  0.58366600  1
  Mg  Mg3  1  0.85511000  0.75000000  0.91633400  1
  N  N0  1  0.81426600  0.25000000  0.11117700  1
  N  N1  1  0.31426600  0.25000000  0.38882300  1
  N  N2  1  0.18573400  0.75000000  0.88882300  1
  N  N3  1  0.68573400  0.75000000  0.61117700  1
loop_
_geom_bond_atom_site_label_1
_geom_bond_atom_site_label_2
_geom_bond_distance
_geom_bond_site_symmetry_2
Mg0 N1 2.201307 1_555
Mg0 N0 2.202684 1_555
Mg0 N3 2.245577 1_545
Mg0 N3 2.245577 1_555
Mg1 N0 2.201307 1_455
Mg1 N1 2.202684 1_555
Mg1 N2 2.245577 1_544
Mg1 N2 2.245577 1_554
Mg2 N3 2.201307 1_555
Mg2 N2 2.202684 1_555
Mg2 N1 2.245577 1_565
Mg2 N1 2.245577 1_555
Mg3 N2 2.201307 1_655
Mg3 N3 2.202684 1_555
Mg3 N0 2.245577 1_556
Mg3 N0 2.245577 1_566
N0 Na0 2.442225 1_554
N0 Na3 2.551635 1_545
N0 Na3 2.551635 1_555
N1 Na1 2.442225 1_555
N1 Na2 2.551635 1_555
N1 Na2 2.551635 1_545
N2 Na2 2.442225 1_556
N2 Na1 2.551635 1_565
N2 Na1 2.551635 1_555
N3 Na3 2.442225 1_555
N3 Na0 2.551635 1_555
N3 Na0 2.551635 1_565
