# generated using pymatgen
data_Tb2MgSe4
_symmetry_space_group_name_H-M   'P 1'
_cell_length_a   4.03399300
_cell_length_b   13.19714300
_cell_length_c   14.25288900
_cell_angle_alpha   90.00000000
_cell_angle_beta   90.00000000
_cell_angle_gamma   90.00000000
_symmetry_Int_Tables_number   1
_chemical_formula_structural   Tb2MgSe4
_chemical_formula_sum   'Tb8 Mg4 Se16'
_cell_volume   758.78365259
_cell_formula_units_Z   4
loop_
 _symmetry_equiv_pos_site_id
 _symmetry_equiv_pos_as_xyz
  1  'x, y, z'
loop_
 _atom_site_type_symbol
 _atom_site_label
 _atom_site_symmetry_multiplicity
 _atom_site_fract_x
 _atom_site_fract_y
 _atom_site_fract_z
 _atom_site_occupancy
  Tb  Tb0  1  0.25000000  0.11681100  0.07261200  1
  Tb  Tb1  1  0.75000000  0.88318900  0.92738800  1
  Tb  Tb2  1  0.75000000  0.38318900  0.57261200  1
  Tb  Tb3  1  0.25000000  0.61681100  0.42738800  1
  Tb  Tb4  1  0.25000000  0.14038300  0.70267900  1
  Tb  Tb5  1  0.75000000  0.85961700  0.29732100  1
  Tb  Tb6  1  0.75000000  0.35961700  0.20267900  1
  Tb  Tb7  1  0.25000000  0.64038300  0.79732100  1
  Mg  Mg0  1  0.75000000  0.10937600  0.45629800  1
  Mg  Mg1  1  0.25000000  0.89062400  0.54370200  1
  Mg  Mg2  1  0.25000000  0.39062400  0.95629800  1
  Mg  Mg3  1  0.75000000  0.60937600  0.04370200  1
  Se  Se0  1  0.75000000  0.00636500  0.61689800  1
  Se  Se1  1  0.25000000  0.99363500  0.38310200  1
  Se  Se2  1  0.25000000  0.49363500  0.11689800  1
  Se  Se3  1  0.75000000  0.50636500  0.88310200  1
  Se  Se4  1  0.25000000  0.02846200  0.88179200  1
  Se  Se5  1  0.75000000  0.97153800  0.11820800  1
  Se  Se6  1  0.75000000  0.47153800  0.38179200  1
  Se  Se7  1  0.25000000  0.52846200  0.61820800  1
  Se  Se8  1  0.25000000  0.22287200  0.24606400  1
  Se  Se9  1  0.75000000  0.77712800  0.75393600  1
  Se  Se10  1  0.75000000  0.27712800  0.74606400  1
  Se  Se11  1  0.25000000  0.72287200  0.25393600  1
  Se  Se12  1  0.75000000  0.26252000  0.01383300  1
  Se  Se13  1  0.25000000  0.73748000  0.98616700  1
  Se  Se14  1  0.25000000  0.23748000  0.51383300  1
  Se  Se15  1  0.75000000  0.76252000  0.48616700  1
loop_
_geom_bond_atom_site_label_1
_geom_bond_atom_site_label_2
_geom_bond_distance
_geom_bond_site_symmetry_2
Mg0 Se0 2.662272 1_555
Mg0 Se1 2.736743 1_645
Mg0 Se1 2.736743 1_545
Mg0 Se14 2.756609 1_655
Mg0 Se14 2.756609 1_555
Mg1 Se1 2.662272 1_555
Mg1 Se0 2.736743 1_465
Mg1 Se0 2.736743 1_565
Mg1 Se15 2.756609 1_455
Mg1 Se15 2.756609 1_555
Mg2 Se2 2.662272 1_556
Mg2 Se3 2.736743 1_555
Mg2 Se3 2.736743 1_455
Mg2 Se12 2.756609 1_556
Mg2 Se12 2.756609 1_456
Mg3 Se3 2.662272 1_554
Mg3 Se2 2.736743 1_655
Mg3 Se2 2.736743 1_555
Mg3 Se13 2.756609 1_554
Mg3 Se13 2.756609 1_654
Se0 Tb4 2.948089 1_555
Se0 Tb4 2.948089 1_655
Se1 Tb5 2.948089 1_455
Se1 Tb5 2.948089 1_555
Se2 Tb6 2.948089 1_555
Se2 Tb6 2.948089 1_455
Se3 Tb7 2.948089 1_555
Se3 Tb7 2.948089 1_655
Se4 Tb1 2.857661 1_445
Se4 Tb1 2.857661 1_545
Se4 Tb4 2.949377 1_555
Se4 Tb0 2.959124 1_556
Se5 Tb0 2.857661 1_665
Se5 Tb0 2.857661 1_565
Se5 Tb5 2.949377 1_555
Se5 Tb1 2.959124 1_554
Se6 Tb3 2.857661 1_555
Se6 Tb3 2.857661 1_655
Se6 Tb6 2.949377 1_555
Se6 Tb2 2.959124 1_555
Se7 Tb2 2.857661 1_555
Se7 Tb2 2.857661 1_455
Se7 Tb7 2.949377 1_555
Se7 Tb3 2.959124 1_555
Se8 Tb6 2.776217 1_455
Se8 Tb6 2.776217 1_555
Se8 Tb0 2.840933 1_555
Se9 Tb7 2.776217 1_555
Se9 Tb7 2.776217 1_655
Se9 Tb1 2.840933 1_555
Se10 Tb4 2.776217 1_655
Se10 Tb4 2.776217 1_555
Se10 Tb2 2.840933 1_555
Se11 Tb5 2.776217 1_555
Se11 Tb5 2.776217 1_455
Se11 Tb3 2.840933 1_555
Se12 Tb0 2.909956 1_555
Se12 Tb0 2.909956 1_655
Se12 Tb6 2.981059 1_555
Se13 Tb1 2.909956 1_555
Se13 Tb1 2.909956 1_455
Se13 Tb7 2.981059 1_555
Se14 Tb2 2.909956 1_455
Se14 Tb2 2.909956 1_555
Se14 Tb4 2.981059 1_555
Se15 Tb3 2.909956 1_555
Se15 Tb3 2.909956 1_655
Se15 Tb5 2.981059 1_555
