# generated using pymatgen
data_Cr4FeNiS8
_symmetry_space_group_name_H-M   'P 1'
_cell_length_a   6.93223588
_cell_length_b   6.93223588
_cell_length_c   6.93223588
_cell_angle_alpha   90.00000000
_cell_angle_beta   60.00000000
_cell_angle_gamma   120.00000000
_symmetry_Int_Tables_number   1
_chemical_formula_structural   Cr4FeNiS8
_chemical_formula_sum   'Cr4 Fe1 Ni1 S8'
_cell_volume   235.56187244
_cell_formula_units_Z   1
loop_
 _symmetry_equiv_pos_site_id
 _symmetry_equiv_pos_as_xyz
  1  'x, y, z'
loop_
 _atom_site_type_symbol
 _atom_site_label
 _atom_site_symmetry_multiplicity
 _atom_site_fract_x
 _atom_site_fract_y
 _atom_site_fract_z
 _atom_site_occupancy
  Cr  Cr0  1  0.50694000  0.51041000  0.99653000  1
  Cr  Cr1  1  0.50694000  0.99653000  0.99653000  1
  Cr  Cr2  1  0.99306000  0.99653000  0.51041000  1
  Cr  Cr3  1  0.99306000  0.99653000  0.99653000  1
  Fe  Fe0  1  0.75000000  0.37500000  0.37500000  1
  Ni  Ni0  1  0.25000000  0.62500000  0.62500000  1
  S  S0  1  0.01524000  0.77286100  0.24238000  1
  S  S1  1  0.01524000  0.24238000  0.24238000  1
  S  S2  1  0.48476000  0.24238000  0.77286100  1
  S  S3  1  0.48476000  0.24238000  0.24238000  1
  S  S4  1  0.99096900  0.23645300  0.75451600  1
  S  S5  1  0.99096900  0.75451600  0.75451600  1
  S  S6  1  0.50903100  0.75451600  0.23645300  1
  S  S7  1  0.50903100  0.75451600  0.75451600  1
loop_
_geom_bond_atom_site_label_1
_geom_bond_atom_site_label_2
_geom_bond_distance
_geom_bond_site_symmetry_2
Cr0 S7 2.372673 1_555
Cr0 S6 2.372673 1_556
Cr0 S5 2.372673 1_555
Cr0 S2 2.415125 1_555
Cr0 S1 2.415130 1_556
Cr0 S3 2.415130 1_556
Cr1 S6 2.372668 1_556
Cr1 S7 2.372668 1_555
Cr1 S4 2.372673 1_565
Cr1 S2 2.415125 1_565
Cr1 S3 2.415130 1_566
Cr1 S0 2.415130 1_556
Cr2 S5 2.372673 1_555
Cr2 S4 2.372673 1_565
Cr2 S7 2.372673 1_555
Cr2 S0 2.415125 1_655
Cr2 S3 2.415130 1_665
Cr2 S1 2.415130 1_665
Cr3 S4 2.372668 1_565
Cr3 S5 2.372668 1_555
Cr3 S6 2.372673 1_556
Cr3 S0 2.415125 1_656
Cr3 S1 2.415130 1_666
Cr3 S2 2.415130 1_665
Fe0 S3 2.251946 1_555
Fe0 S1 2.251946 1_655
Fe0 S0 2.251952 1_655
Fe0 S2 2.251952 1_555
Ni0 S4 2.199233 1_455
Ni0 S5 2.199233 1_455
Ni0 S6 2.199233 1_555
Ni0 S7 2.199233 1_555
