# generated using pymatgen
data_Sb2Os(OF7)2
_symmetry_space_group_name_H-M   'P 1'
_cell_length_a   7.40900146
_cell_length_b   8.59376451
_cell_length_c   10.06296097
_cell_angle_alpha   96.98649581
_cell_angle_beta   111.41485424
_cell_angle_gamma   111.52351481
_symmetry_Int_Tables_number   1
_chemical_formula_structural   Sb2Os(OF7)2
_chemical_formula_sum   'Sb4 Os2 O4 F28'
_cell_volume   530.17591835
_cell_formula_units_Z   2
loop_
 _symmetry_equiv_pos_site_id
 _symmetry_equiv_pos_as_xyz
  1  'x, y, z'
loop_
 _atom_site_type_symbol
 _atom_site_label
 _atom_site_symmetry_multiplicity
 _atom_site_fract_x
 _atom_site_fract_y
 _atom_site_fract_z
 _atom_site_occupancy
  Sb  Sb0  1  0.91397494  0.19739985  0.86419642  1
  Sb  Sb1  1  0.08602506  0.80260015  0.13580358  1
  Sb  Sb2  1  0.44368292  0.34984467  0.68046237  1
  Sb  Sb3  1  0.55631708  0.65015533  0.31953763  1
  Os  Os0  1  0.82409234  0.23976907  0.25309629  1
  Os  Os1  1  0.17590766  0.76023093  0.74690371  1
  O  O0  1  0.01424187  0.44778023  0.30071860  1
  O  O1  1  0.98575813  0.55221977  0.69928140  1
  O  O2  1  0.77049795  0.23643147  0.40073079  1
  O  O3  1  0.22950205  0.76356853  0.59926921  1
  F  F0  1  0.10734576  0.43511784  0.93906141  1
  F  F1  1  0.89265424  0.56488216  0.06093859  1
  F  F2  1  0.66376731  0.58102456  0.76358988  1
  F  F3  1  0.33623269  0.41897544  0.23641012  1
  F  F4  1  0.12280374  0.12252302  0.95088368  1
  F  F5  1  0.87719626  0.87747698  0.04911632  1
  F  F6  1  0.92052512  0.18369328  0.67948700  1
  F  F7  1  0.07947488  0.81630672  0.32051300  1
  F  F8  1  0.02599203  0.15383228  0.30352951  1
  F  F9  1  0.97400797  0.84616772  0.69647049  1
  F  F10  1  0.87229491  0.22403031  0.04587511  1
  F  F11  1  0.12770509  0.77596969  0.95412489  1
  F  F12  1  0.51536062  0.32725179  0.52099286  1
  F  F13  1  0.48463938  0.67274821  0.47900714  1
  F  F14  1  0.40557008  0.36191521  0.85425250  1
  F  F15  1  0.59442992  0.63808479  0.14574750  1
  F  F16  1  0.68333447  0.27942161  0.79017974  1
  F  F17  1  0.31666553  0.72057839  0.20982026  1
  F  F18  1  0.25772089  0.10883115  0.60751558  1
  F  F19  1  0.74227911  0.89116885  0.39248442  1
  F  F20  1  0.68096812  0.97473762  0.78944331  1
  F  F21  1  0.31903188  0.02526238  0.21055669  1
  F  F22  1  0.60371463  0.28261007  0.13274373  1
  F  F23  1  0.39628537  0.71738993  0.86725627  1
  F  F24  1  0.63813751  0.00827287  0.13437456  1
  F  F25  1  0.36186249  0.99172713  0.86562544  1
  F  F26  1  0.22482345  0.41683615  0.58457963  1
  F  F27  1  0.77517655  0.58316385  0.41542037  1
loop_
_geom_bond_atom_site_label_1
_geom_bond_atom_site_label_2
_geom_bond_distance
_geom_bond_site_symmetry_2
O0 Os0 1.691333 1_455
O1 Os1 1.691333 1_655
O2 Os0 1.672846 1_555
O3 Os1 1.672846 1_555
F0 Sb0 1.866381 1_455
F1 Sb1 1.866381 1_655
F2 Sb2 1.878355 1_555
F3 Sb3 1.878355 1_555
F4 Sb0 1.857521 1_455
F5 Sb1 1.857521 1_655
F6 Sb0 1.867588 1_555
F7 Sb1 1.867588 1_555
F8 Os0 1.840664 1_455
F9 Os1 1.840664 1_655
F10 Sb0 1.962775 1_554
F10 Os0 2.237139 1_555
F11 Sb1 1.962775 1_556
F11 Os1 2.237139 1_555
F12 Sb2 1.875387 1_555
F13 Sb3 1.875387 1_555
F14 Sb2 1.867332 1_555
F15 Sb3 1.867332 1_555
F16 Sb0 2.013402 1_555
F16 Sb2 2.063356 1_555
F17 Sb1 2.013402 1_555
F17 Sb3 2.063356 1_555
F18 Sb2 1.877423 1_555
F19 Sb3 1.877423 1_555
F20 Sb0 1.866888 1_565
F21 Sb1 1.866888 1_545
F22 Os0 1.836799 1_555
F23 Os1 1.836799 1_555
F24 Os0 1.868672 1_555
F25 Os1 1.868672 1_555
F26 Sb2 1.889284 1_555
F27 Sb3 1.889284 1_555
