# generated using pymatgen
data_RbCu4Se3
_symmetry_space_group_name_H-M   'P 1'
_cell_length_a   4.00914466
_cell_length_b   4.00914466
_cell_length_c   10.02417497
_cell_angle_alpha   90.00000000
_cell_angle_beta   90.00000000
_cell_angle_gamma   90.00000000
_symmetry_Int_Tables_number   1
_chemical_formula_structural   RbCu4Se3
_chemical_formula_sum   'Rb1 Cu4 Se3'
_cell_volume   161.12097916
_cell_formula_units_Z   1
loop_
 _symmetry_equiv_pos_site_id
 _symmetry_equiv_pos_as_xyz
  1  'x, y, z'
loop_
 _atom_site_type_symbol
 _atom_site_label
 _atom_site_symmetry_multiplicity
 _atom_site_fract_x
 _atom_site_fract_y
 _atom_site_fract_z
 _atom_site_occupancy
  Rb  Rb0  1  -0.00000000  0.00000000  0.50000000  1
  Cu  Cu0  1  0.00000000  0.50000000  0.84384229  1
  Cu  Cu1  1  0.50000000  0.00000000  0.84384229  1
  Cu  Cu2  1  -0.00000000  0.50000000  0.15615771  1
  Cu  Cu3  1  0.50000000  -0.00000000  0.15615771  1
  Se  Se0  1  -0.00000000  0.00000000  0.00000000  1
  Se  Se1  1  0.50000000  0.50000000  0.70968553  1
  Se  Se2  1  0.50000000  0.50000000  0.29031447  1
loop_
_geom_bond_atom_site_label_1
_geom_bond_atom_site_label_2
_geom_bond_distance
_geom_bond_site_symmetry_2
Rb0 Se2 3.529123 1_445
Rb0 Se2 3.529123 1_555
Rb0 Se2 3.529123 1_545
Rb0 Se1 3.529123 1_445
Rb0 Se1 3.529123 1_455
Rb0 Se2 3.529123 1_455
Rb0 Se1 3.529123 1_545
Rb0 Se1 3.529123 1_555
Cu0 Se1 2.413882 1_455
Cu0 Se1 2.413882 1_555
Cu0 Se0 2.543352 1_566
Cu0 Se0 2.543352 1_556
Cu1 Se1 2.413882 1_545
Cu1 Se1 2.413882 1_555
Cu1 Se0 2.543352 1_556
Cu1 Se0 2.543352 1_656
Cu2 Se2 2.413882 1_555
Cu2 Se2 2.413882 1_455
Cu2 Se0 2.543352 1_555
Cu2 Se0 2.543352 1_565
Cu3 Se2 2.413882 1_545
Cu3 Se2 2.413882 1_555
Cu3 Se0 2.543352 1_655
Cu3 Se0 2.543352 1_555
