# generated using pymatgen
data_AcMg5
_symmetry_space_group_name_H-M   'P 1'
_cell_length_a   4.96799329
_cell_length_b   6.17018243
_cell_length_c   6.17018291
_cell_angle_alpha   59.99994812
_cell_angle_beta   90.00000000
_cell_angle_gamma   90.00000000
_symmetry_Int_Tables_number   1
_chemical_formula_structural   AcMg5
_chemical_formula_sum   'Ac1 Mg5'
_cell_volume   163.79756767
_cell_formula_units_Z   1
loop_
 _symmetry_equiv_pos_site_id
 _symmetry_equiv_pos_as_xyz
  1  'x, y, z'
loop_
 _atom_site_type_symbol
 _atom_site_label
 _atom_site_symmetry_multiplicity
 _atom_site_fract_x
 _atom_site_fract_y
 _atom_site_fract_z
 _atom_site_occupancy
  Ac  Ac0  1  0.50000000  0.66666700  0.33333300  1
  Mg  Mg0  1  0.00000000  0.16678045  0.83321955  1
  Mg  Mg1  1  0.50000000  0.33333300  -0.00000000  1
  Mg  Mg2  1  0.00000000  0.16655155  0.33333400  1
  Mg  Mg3  1  0.50000000  0.00000000  0.66666600  1
  Mg  Mg4  1  -0.00000000  0.66666700  0.83344745  1
loop_
_geom_bond_atom_site_label_1
_geom_bond_atom_site_label_2
_geom_bond_distance
_geom_bond_site_symmetry_2
Ac0 Mg1 3.562351 1_565
Ac0 Mg3 3.562354 1_565
Ac0 Mg3 3.562356 1_555
Ac0 Mg1 3.562357 1_556
Ac0 Mg3 3.562357 1_564
Ac0 Mg1 3.562359 1_555
Ac0 Mg2 3.960259 1_565
Ac0 Mg2 3.960259 1_665
Ac0 Mg4 3.960262 1_554
Ac0 Mg4 3.960262 1_654
Ac0 Mg0 3.960264 1_655
Ac0 Mg0 3.960264 1_555
Ac0 Mg0 3.961355 1_564
Ac0 Mg0 3.961355 1_664
Ac0 Mg4 3.961362 1_555
Ac0 Mg4 3.961362 1_655
Ac0 Mg2 3.961364 1_555
Ac0 Mg2 3.961364 1_655
Mg0 Mg1 3.056605 1_456
Mg0 Mg1 3.056605 1_556
Mg0 Mg3 3.056608 1_455
Mg0 Mg3 3.056608 1_555
Mg0 Mg4 3.085088 1_545
Mg0 Mg2 3.085092 1_556
Mg0 Mg2 3.085092 1_555
Mg0 Mg4 3.085095 1_555
Mg1 Mg4 3.056607 1_554
Mg1 Mg4 3.056607 1_654
Mg1 Mg2 3.056607 1_555
Mg1 Mg2 3.056607 1_655
Mg2 Mg3 3.056601 1_455
Mg2 Mg3 3.056601 1_555
Mg2 Mg4 3.085083 1_545
Mg2 Mg4 3.085095 1_554
Mg3 Mg4 3.056604 1_545
Mg3 Mg4 3.056604 1_645
