# generated using pymatgen
data_BaSr2Mg(SiO4)2
_symmetry_space_group_name_H-M   'P 1'
_cell_length_a   5.56375237
_cell_length_b   5.56375237
_cell_length_c   7.08880500
_cell_angle_alpha   90.00000000
_cell_angle_beta   90.00000000
_cell_angle_gamma   120.00000440
_symmetry_Int_Tables_number   1
_chemical_formula_structural   BaSr2Mg(SiO4)2
_chemical_formula_sum   'Ba1 Sr2 Mg1 Si2 O8'
_cell_volume   190.03746430
_cell_formula_units_Z   1
loop_
 _symmetry_equiv_pos_site_id
 _symmetry_equiv_pos_as_xyz
  1  'x, y, z'
loop_
 _atom_site_type_symbol
 _atom_site_label
 _atom_site_symmetry_multiplicity
 _atom_site_fract_x
 _atom_site_fract_y
 _atom_site_fract_z
 _atom_site_occupancy
  Ba  Ba0  1  0.00000000  0.00000000  0.50000000  1
  Sr  Sr0  1  0.66666700  0.33333300  0.16460600  1
  Sr  Sr1  1  0.33333300  0.66666700  0.83539400  1
  Mg  Mg0  1  0.00000000  0.00000000  0.00000000  1
  Si  Si0  1  0.66666700  0.33333300  0.72998500  1
  Si  Si1  1  0.33333300  0.66666700  0.27001500  1
  O  O0  1  0.66666700  0.33333300  0.50169600  1
  O  O1  1  0.33333300  0.66666700  0.49830400  1
  O  O2  1  0.35032900  0.17516400  0.82264300  1
  O  O3  1  0.82483600  0.64967100  0.82264300  1
  O  O4  1  0.82483600  0.17516400  0.82264300  1
  O  O5  1  0.64967100  0.82483600  0.17735700  1
  O  O6  1  0.17516400  0.35032900  0.17735700  1
  O  O7  1  0.17516400  0.82483600  0.17735700  1
loop_
_geom_bond_atom_site_label_1
_geom_bond_atom_site_label_2
_geom_bond_distance
_geom_bond_site_symmetry_2
Ba0 O7 2.842609 1_545
Ba0 O4 2.842609 1_455
Ba0 O5 2.842612 1_445
Ba0 O2 2.842612 1_555
Ba0 O3 2.842612 1_445
Ba0 O6 2.842612 1_555
Ba0 O0 3.212253 1_455
Ba0 O1 3.212253 1_545
Ba0 O1 3.212258 1_555
Ba0 O0 3.212258 1_555
Ba0 O0 3.212258 1_445
Ba0 O1 3.212258 1_445
Mg0 O7 2.104764 1_545
Mg0 O4 2.104764 1_454
Mg0 O3 2.104768 1_444
Mg0 O2 2.104768 1_554
Mg0 O5 2.104768 1_445
Mg0 O6 2.104768 1_555
O0 Si0 1.618296 1_555
O0 Sr0 2.389565 1_555
O1 Si1 1.618296 1_555
O1 Sr1 2.389565 1_555
O2 Si0 1.659729 1_555
O2 Sr1 2.784543 1_545
O2 Sr1 2.784554 1_555
O2 Sr0 2.863490 1_556
O3 Si0 1.659729 1_555
O3 Sr1 2.784543 1_655
O3 Sr1 2.784554 1_555
O3 Sr0 2.863490 1_556
O4 Si0 1.659729 1_555
O4 Sr1 2.784548 1_545
O4 Sr1 2.784548 1_655
O4 Sr0 2.863490 1_556
O5 Si1 1.659729 1_555
O5 Sr0 2.784543 1_565
O5 Sr0 2.784554 1_555
O5 Sr1 2.863490 1_554
O6 Si1 1.659729 1_555
O6 Sr0 2.784543 1_455
O6 Sr0 2.784554 1_555
O6 Sr1 2.863490 1_554
O7 Si1 1.659729 1_555
O7 Sr0 2.784548 1_455
O7 Sr0 2.784548 1_565
O7 Sr1 2.863490 1_554
