# generated using pymatgen
data_Al(SO6)2
_symmetry_space_group_name_H-M   'P 1'
_cell_length_a   5.35960700
_cell_length_b   9.35462900
_cell_length_c   17.75692600
_cell_angle_alpha   90.00000000
_cell_angle_beta   90.00000000
_cell_angle_gamma   90.00000000
_symmetry_Int_Tables_number   1
_chemical_formula_structural   Al(SO6)2
_chemical_formula_sum   'Al4 S8 O48'
_cell_volume   890.28139730
_cell_formula_units_Z   4
loop_
 _symmetry_equiv_pos_site_id
 _symmetry_equiv_pos_as_xyz
  1  'x, y, z'
loop_
 _atom_site_type_symbol
 _atom_site_label
 _atom_site_symmetry_multiplicity
 _atom_site_fract_x
 _atom_site_fract_y
 _atom_site_fract_z
 _atom_site_occupancy
  Al  Al0  1  0.00000000  0.00000000  0.50000000  1
  Al  Al1  1  0.50000000  0.50000000  0.00000000  1
  Al  Al2  1  0.00000000  0.00000000  0.00000000  1
  Al  Al3  1  0.50000000  0.50000000  0.50000000  1
  S  S0  1  0.28950100  0.24093100  0.59149500  1
  S  S1  1  0.21049900  0.74093100  0.90850500  1
  S  S2  1  0.71049900  0.75906900  0.09149500  1
  S  S3  1  0.78950100  0.25906900  0.40850500  1
  S  S4  1  0.71049900  0.75906900  0.40850500  1
  S  S5  1  0.78950100  0.25906900  0.09149500  1
  S  S6  1  0.28950100  0.24093100  0.90850500  1
  S  S7  1  0.21049900  0.74093100  0.59149500  1
  O  O0  1  0.51577400  0.23516000  0.63859000  1
  O  O1  1  0.98422600  0.73516000  0.86141000  1
  O  O2  1  0.48422600  0.76484000  0.13859000  1
  O  O3  1  0.01577400  0.26484000  0.36141000  1
  O  O4  1  0.48422600  0.76484000  0.36141000  1
  O  O5  1  0.01577400  0.26484000  0.13859000  1
  O  O6  1  0.51577400  0.23516000  0.86141000  1
  O  O7  1  0.98422600  0.73516000  0.63859000  1
  O  O8  1  0.23172200  0.09090700  0.56477900  1
  O  O9  1  0.26827800  0.59090700  0.93522100  1
  O  O10  1  0.76827800  0.90909300  0.06477900  1
  O  O11  1  0.73172200  0.40909300  0.43522100  1
  O  O12  1  0.76827800  0.90909300  0.43522100  1
  O  O13  1  0.73172200  0.40909300  0.06477900  1
  O  O14  1  0.23172200  0.09090700  0.93522100  1
  O  O15  1  0.26827800  0.59090700  0.56477900  1
  O  O16  1  0.08175100  0.30049600  0.63456100  1
  O  O17  1  0.41824900  0.80049600  0.86543900  1
  O  O18  1  0.91824900  0.69950400  0.13456100  1
  O  O19  1  0.58175100  0.19950400  0.36543900  1
  O  O20  1  0.91824900  0.69950400  0.36543900  1
  O  O21  1  0.58175100  0.19950400  0.13456100  1
  O  O22  1  0.08175100  0.30049600  0.86543900  1
  O  O23  1  0.41824900  0.80049600  0.63456100  1
  O  O24  1  0.34129800  0.32449200  0.52046400  1
  O  O25  1  0.15870200  0.82449200  0.97953600  1
  O  O26  1  0.65870200  0.67550800  0.02046400  1
  O  O27  1  0.84129800  0.17550800  0.47953600  1
  O  O28  1  0.65870200  0.67550800  0.47953600  1
  O  O29  1  0.84129800  0.17550800  0.02046400  1
  O  O30  1  0.34129800  0.32449200  0.97953600  1
  O  O31  1  0.15870200  0.82449200  0.52046400  1
  O  O32  1  0.79979400  0.98351600  0.58897600  1
  O  O33  1  0.70020600  0.48351600  0.91102400  1
  O  O34  1  0.20020600  0.01648400  0.08897600  1
  O  O35  1  0.29979400  0.51648400  0.41102400  1
  O  O36  1  0.20020600  0.01648400  0.41102400  1
  O  O37  1  0.29979400  0.51648400  0.08897600  1
  O  O38  1  0.79979400  0.98351600  0.91102400  1
  O  O39  1  0.70020600  0.48351600  0.58897600  1
  O  O40  1  0.94407500  0.08124300  0.75000000  1
  O  O41  1  0.55592500  0.58124300  0.75000000  1
  O  O42  1  0.05592500  0.91875700  0.25000000  1
  O  O43  1  0.44407500  0.41875700  0.25000000  1
  O  O44  1  0.57607800  0.45332700  0.75000000  1
  O  O45  1  0.92392200  0.95332700  0.75000000  1
  O  O46  1  0.42392200  0.54667300  0.25000000  1
  O  O47  1  0.07607800  0.04667300  0.25000000  1
loop_
_geom_bond_atom_site_label_1
_geom_bond_atom_site_label_2
_geom_bond_distance
_geom_bond_site_symmetry_2
Al0 O31 1.884430 1_545
Al0 O27 1.884430 1_455
Al0 O8 1.894394 1_555
Al0 O12 1.894394 1_445
Al0 O32 1.916083 1_445
Al0 O36 1.916083 1_555
Al1 O26 1.884430 1_555
Al1 O30 1.884430 1_554
Al1 O13 1.894394 1_555
Al1 O9 1.894394 1_554
Al1 O37 1.916083 1_555
Al1 O33 1.916083 1_554
Al2 O25 1.884430 1_544
Al2 O29 1.884430 1_455
Al2 O14 1.894394 1_554
Al2 O10 1.894394 1_445
Al2 O34 1.916083 1_555
Al2 O38 1.916083 1_444
Al3 O24 1.884430 1_555
Al3 O28 1.884430 1_555
Al3 O15 1.894394 1_555
Al3 O11 1.894394 1_555
Al3 O39 1.916083 1_555
Al3 O35 1.916083 1_555
O0 S0 1.474101 1_555
O1 S1 1.474101 1_655
O2 S2 1.474101 1_555
O3 S3 1.474101 1_455
O4 S4 1.474101 1_555
O5 S5 1.474101 1_455
O6 S6 1.474101 1_555
O7 S7 1.474101 1_655
O8 S0 1.513450 1_555
O9 S1 1.513450 1_555
O10 S2 1.513450 1_555
O11 S3 1.513450 1_555
O12 S4 1.513450 1_555
O13 S5 1.513450 1_555
O14 S6 1.513450 1_555
O15 S7 1.513450 1_555
O16 S0 1.461187 1_555
O17 S1 1.461187 1_555
O18 S2 1.461187 1_555
O19 S3 1.461187 1_555
O20 S4 1.461187 1_555
O21 S5 1.461187 1_555
O22 S6 1.461187 1_555
O23 S7 1.461187 1_555
O24 S0 1.509620 1_555
O25 S1 1.509620 1_555
O26 S2 1.509620 1_555
O27 S3 1.509620 1_555
O28 S4 1.509620 1_555
O29 S5 1.509620 1_555
O30 S6 1.509620 1_555
O31 S7 1.509620 1_555
O40 O45 1.201472 1_545
O41 O44 1.201472 1_555
O42 O47 1.201472 1_565
O43 O46 1.201472 1_555
