# generated using pymatgen
data_Mg5Fe6(S3O5)2
_symmetry_space_group_name_H-M   'P 1'
_cell_length_a   5.66091600
_cell_length_b   8.91480644
_cell_length_c   10.44320082
_cell_angle_alpha   87.12783167
_cell_angle_beta   89.31752267
_cell_angle_gamma   76.48834182
_symmetry_Int_Tables_number   1
_chemical_formula_structural   Mg5Fe6(S3O5)2
_chemical_formula_sum   'Mg5 Fe6 S6 O10'
_cell_volume   511.79571197
_cell_formula_units_Z   1
loop_
 _symmetry_equiv_pos_site_id
 _symmetry_equiv_pos_as_xyz
  1  'x, y, z'
loop_
 _atom_site_type_symbol
 _atom_site_label
 _atom_site_symmetry_multiplicity
 _atom_site_fract_x
 _atom_site_fract_y
 _atom_site_fract_z
 _atom_site_occupancy
  Mg  Mg0  1  0.42925700  0.40780900  0.09611800  1
  Mg  Mg1  1  0.82926800  0.60802800  0.10002600  1
  Mg  Mg2  1  0.03169900  0.20822200  0.09431000  1
  Mg  Mg3  1  0.23111900  0.80792700  0.10289500  1
  Mg  Mg4  1  0.63337100  0.00864100  0.09788000  1
  Fe  Fe0  1  0.82841400  0.94157300  0.58545900  1
  Fe  Fe1  1  0.32743000  0.94140300  0.60810500  1
  Fe  Fe2  1  0.16047900  0.27680800  0.58492700  1
  Fe  Fe3  1  0.66016700  0.27419400  0.61252900  1
  Fe  Fe4  1  0.00920700  0.60772300  0.61000500  1
  Fe  Fe5  1  0.50905500  0.60864500  0.58551600  1
  S  S0  1  0.66589900  0.76770100  0.72729700  1
  S  S1  1  0.83186000  0.44919500  0.46730500  1
  S  S2  1  0.50085600  0.11742500  0.46752700  1
  S  S3  1  0.16613400  0.78228000  0.46672100  1
  S  S4  1  0.00200400  0.10040900  0.72814100  1
  S  S5  1  0.33215000  0.43451800  0.72974700  1
  O  O0  1  0.87048900  0.82356700  0.17694900  1
  O  O1  1  0.07060700  0.42147600  0.17179500  1
  O  O2  1  0.78900800  0.39348100  0.01949300  1
  O  O3  1  0.39180100  0.19249900  0.01996100  1
  O  O4  1  0.47083300  0.62082700  0.17519600  1
  O  O5  1  0.27330400  0.02629400  0.17423300  1
  O  O6  1  0.99359300  0.99110600  0.02365000  1
  O  O7  1  0.58980200  0.79334800  0.02531500  1
  O  O8  1  0.18831100  0.59494200  0.02391200  1
  O  O9  1  0.67288500  0.22395900  0.17098500  1
loop_
_geom_bond_atom_site_label_1
_geom_bond_atom_site_label_2
_geom_bond_distance
_geom_bond_site_symmetry_2
Mg0 O9 2.010136 1_555
Mg0 O8 2.011779 1_555
Mg0 O1 2.148799 1_555
Mg0 O2 2.157298 1_555
Mg0 O3 2.170014 1_555
Mg0 O4 2.171241 1_555
Mg1 O7 2.006314 1_555
Mg1 O1 2.007941 1_655
Mg1 O4 2.146914 1_555
Mg1 O8 2.153264 1_655
Mg1 O0 2.181874 1_555
Mg1 O2 2.187907 1_555
Mg2 O5 2.013122 1_555
Mg2 O2 2.015328 1_455
Mg2 O3 2.148884 1_555
Mg2 O9 2.150824 1_455
Mg2 O1 2.161396 1_555
Mg2 O6 2.163199 1_445
Mg3 O6 2.006139 1_455
Mg3 O4 2.008527 1_555
Mg3 O0 2.150679 1_455
Mg3 O7 2.155032 1_555
Mg3 O8 2.172772 1_555
Mg3 O5 2.183690 1_565
Mg4 O0 2.015136 1_545
Mg4 O3 2.015985 1_555
Mg4 O6 2.146900 1_545
Mg4 O5 2.153888 1_555
Mg4 O9 2.160789 1_555
Mg4 O7 2.165691 1_545
Fe0 S0 2.418028 1_555
Fe0 S2 2.432148 1_565
Fe0 S3 2.461820 1_655
Fe0 S4 2.467286 1_665
Fe1 S3 2.423497 1_555
Fe1 S4 2.424313 1_565
Fe1 S2 2.456864 1_565
Fe1 S0 2.468953 1_555
Fe2 S1 2.420865 1_455
Fe2 S4 2.430266 1_555
Fe2 S2 2.464492 1_555
Fe2 S5 2.468807 1_555
Fe3 S5 2.422869 1_555
Fe3 S2 2.427583 1_555
Fe3 S4 2.463708 1_655
Fe3 S1 2.472851 1_555
Fe4 S3 2.414693 1_555
Fe4 S5 2.414946 1_555
Fe4 S0 2.476792 1_455
Fe4 S1 2.477035 1_455
Fe5 S1 2.406692 1_555
Fe5 S0 2.412729 1_555
Fe5 S5 2.477390 1_555
Fe5 S3 2.482814 1_555
