# generated using pymatgen
data_CrN2
_symmetry_space_group_name_H-M   'P 1'
_cell_length_a   5.09446727
_cell_length_b   5.09446727
_cell_length_c   3.82438736
_cell_angle_alpha   70.46890376
_cell_angle_beta   70.46890376
_cell_angle_gamma   42.75333264
_symmetry_Int_Tables_number   1
_chemical_formula_structural   CrN2
_chemical_formula_sum   'Cr2 N4'
_cell_volume   62.88755633
_cell_formula_units_Z   2
loop_
 _symmetry_equiv_pos_site_id
 _symmetry_equiv_pos_as_xyz
  1  'x, y, z'
loop_
 _atom_site_type_symbol
 _atom_site_label
 _atom_site_symmetry_multiplicity
 _atom_site_fract_x
 _atom_site_fract_y
 _atom_site_fract_z
 _atom_site_occupancy
  Cr  Cr0  1  0.35203600  0.35203600  0.96689600  1
  Cr  Cr1  1  0.64796400  0.64796400  0.03310400  1
  N  N0  1  0.14506200  0.14506200  0.13187000  1
  N  N1  1  0.85493800  0.85493800  0.86813000  1
  N  N2  1  0.39906500  0.39906500  0.34114000  1
  N  N3  1  0.60093500  0.60093500  0.65886000  1
loop_
_geom_bond_atom_site_label_1
_geom_bond_atom_site_label_2
_geom_bond_distance
_geom_bond_site_symmetry_2
Cr0 N2 1.645040 1_556
Cr0 N0 1.834340 1_556
Cr0 N1 1.893177 1_545
Cr0 N1 1.893177 1_455
Cr0 N3 2.228705 1_555
Cr0 N2 2.271441 1_555
Cr1 N3 1.645040 1_554
Cr1 N1 1.834340 1_554
Cr1 N0 1.893177 1_565
Cr1 N0 1.893177 1_655
Cr1 N2 2.228705 1_555
Cr1 N3 2.271441 1_555
