# generated using pymatgen
data_Cu
_symmetry_space_group_name_H-M   'P 1'
_cell_length_a   4.87385476
_cell_length_b   4.95099105
_cell_length_c   8.31774870
_cell_angle_alpha   89.99257795
_cell_angle_beta   107.03640099
_cell_angle_gamma   90.00000000
_symmetry_Int_Tables_number   1
_chemical_formula_structural   Cu
_chemical_formula_sum   Cu16
_cell_volume   191.90327184
_cell_formula_units_Z   16
loop_
 _symmetry_equiv_pos_site_id
 _symmetry_equiv_pos_as_xyz
  1  'x, y, z'
loop_
 _atom_site_type_symbol
 _atom_site_label
 _atom_site_symmetry_multiplicity
 _atom_site_fract_x
 _atom_site_fract_y
 _atom_site_fract_z
 _atom_site_occupancy
  Cu  Cu0_0  1  0.43306768  0.37479820  0.36613436  1
  Cu  Cu0_1  1  0.43306768  0.37479820  0.86613436  1
  Cu  Cu0_2  1  0.43306768  0.87479820  0.36613436  1
  Cu  Cu0_3  1  0.43306768  0.87479820  0.86613436  1
  Cu  Cu0_4  1  0.93306768  0.37479820  0.36613436  1
  Cu  Cu0_5  1  0.93306768  0.37479820  0.86613436  1
  Cu  Cu0_6  1  0.93306768  0.87479820  0.36613436  1
  Cu  Cu0_7  1  0.93306768  0.87479820  0.86613436  1
  Cu  Cu1_0  1  0.06693232  0.12520181  0.13386565  1
  Cu  Cu1_1  1  0.06693232  0.12520181  0.63386565  1
  Cu  Cu1_2  1  0.06693232  0.62520181  0.13386565  1
  Cu  Cu1_3  1  0.06693232  0.62520181  0.63386564  1
  Cu  Cu1_4  1  0.56693232  0.12520181  0.13386565  1
  Cu  Cu1_5  1  0.56693232  0.12520181  0.63386565  1
  Cu  Cu1_6  1  0.56693232  0.62520181  0.13386565  1
  Cu  Cu1_7  1  0.56693232  0.62520181  0.63386564  1
loop_
_geom_bond_atom_site_label_1
_geom_bond_atom_site_label_2
_geom_bond_distance
_geom_bond_site_symmetry_2
Cu0_0 Cu0_4 2.436927 1_455
Cu0_0 Cu0_4 2.436927 1_555
Cu0_0 Cu1_5 2.461679 1_555
Cu0_0 Cu1_7 2.463977 1_555
Cu0_0 Cu0_2 2.475496 1_545
Cu0_0 Cu0_2 2.475496 1_555
Cu0_0 Cu1_4 2.534640 1_555
Cu0_0 Cu1_0 2.534644 1_555
Cu0_0 Cu1_6 2.536346 1_555
Cu0_0 Cu1_2 2.536351 1_555
Cu0_1 Cu0_5 2.436927 1_455
Cu0_1 Cu0_5 2.436927 1_555
Cu0_1 Cu1_4 2.461679 1_556
Cu0_1 Cu1_6 2.463977 1_556
Cu0_1 Cu0_3 2.475496 1_545
Cu0_1 Cu0_3 2.475496 1_555
Cu0_1 Cu1_5 2.534640 1_555
Cu0_1 Cu1_1 2.534644 1_555
Cu0_1 Cu1_7 2.536346 1_555
Cu0_1 Cu1_3 2.536351 1_555
Cu0_2 Cu0_6 2.436927 1_555
Cu0_2 Cu0_6 2.436927 1_455
Cu0_2 Cu1_7 2.461679 1_555
Cu0_2 Cu1_5 2.463977 1_565
Cu0_2 Cu1_6 2.534640 1_555
Cu0_2 Cu1_2 2.534644 1_555
Cu0_2 Cu1_4 2.536346 1_565
Cu0_2 Cu1_0 2.536351 1_565
Cu0_3 Cu0_7 2.436927 1_455
Cu0_3 Cu0_7 2.436927 1_555
Cu0_3 Cu1_6 2.461679 1_556
Cu0_3 Cu1_4 2.463977 1_566
Cu0_3 Cu1_7 2.534640 1_555
Cu0_3 Cu1_3 2.534644 1_555
Cu0_3 Cu1_5 2.536346 1_565
Cu0_3 Cu1_1 2.536351 1_565
Cu0_4 Cu1_1 2.461679 1_655
Cu0_4 Cu1_3 2.463977 1_655
Cu0_4 Cu0_6 2.475496 1_545
Cu0_4 Cu0_6 2.475496 1_555
Cu0_4 Cu1_0 2.534640 1_655
Cu0_4 Cu1_4 2.534644 1_555
Cu0_4 Cu1_2 2.536346 1_655
Cu0_4 Cu1_6 2.536351 1_555
Cu0_5 Cu1_0 2.461679 1_656
Cu0_5 Cu1_2 2.463977 1_656
Cu0_5 Cu0_7 2.475496 1_545
Cu0_5 Cu0_7 2.475496 1_555
Cu0_5 Cu1_1 2.534640 1_655
Cu0_5 Cu1_5 2.534644 1_555
Cu0_5 Cu1_3 2.536346 1_655
Cu0_5 Cu1_7 2.536351 1_555
Cu0_6 Cu1_3 2.461679 1_655
Cu0_6 Cu1_1 2.463977 1_665
Cu0_6 Cu1_2 2.534640 1_655
Cu0_6 Cu1_6 2.534644 1_555
Cu0_6 Cu1_0 2.536346 1_665
Cu0_6 Cu1_4 2.536351 1_565
Cu0_7 Cu1_2 2.461679 1_656
Cu0_7 Cu1_0 2.463977 1_666
Cu0_7 Cu1_3 2.534640 1_655
Cu0_7 Cu1_7 2.534644 1_555
Cu0_7 Cu1_1 2.536346 1_665
Cu0_7 Cu1_5 2.536351 1_565
Cu1_0 Cu1_4 2.436927 1_455
Cu1_0 Cu1_4 2.436927 1_555
Cu1_0 Cu1_2 2.475496 1_545
Cu1_0 Cu1_2 2.475496 1_555
Cu1_1 Cu1_5 2.436927 1_455
Cu1_1 Cu1_5 2.436927 1_555
Cu1_1 Cu1_3 2.475496 1_545
Cu1_1 Cu1_3 2.475496 1_555
Cu1_2 Cu1_6 2.436927 1_455
Cu1_2 Cu1_6 2.436927 1_555
Cu1_3 Cu1_7 2.436927 1_555
Cu1_3 Cu1_7 2.436927 1_455
Cu1_4 Cu1_6 2.475496 1_545
Cu1_4 Cu1_6 2.475496 1_555
Cu1_5 Cu1_7 2.475496 1_545
Cu1_5 Cu1_7 2.475496 1_555
