# generated using pymatgen
data_Na2U2O7
_symmetry_space_group_name_H-M   'P 1'
_cell_length_a   3.98335000
_cell_length_b   6.49755800
_cell_length_c   6.90841927
_cell_angle_alpha   69.55054485
_cell_angle_beta   90.00000000
_cell_angle_gamma   90.00000000
_symmetry_Int_Tables_number   1
_chemical_formula_structural   Na2U2O7
_chemical_formula_sum   'Na2 U2 O7'
_cell_volume   167.53594389
_cell_formula_units_Z   1
loop_
 _symmetry_equiv_pos_site_id
 _symmetry_equiv_pos_as_xyz
  1  'x, y, z'
loop_
 _atom_site_type_symbol
 _atom_site_label
 _atom_site_symmetry_multiplicity
 _atom_site_fract_x
 _atom_site_fract_y
 _atom_site_fract_z
 _atom_site_occupancy
  Na  Na0  1  0.00000000  0.50912100  0.49850500  1
  Na  Na1  1  0.50000000  0.50121200  0.99606300  1
  U  U0  1  0.00000000  0.99891500  0.01512700  1
  U  U1  1  0.50000000  0.98657500  0.49002400  1
  O  O0  1  0.50000000  0.29734400  0.41108300  1
  O  O1  1  0.00000000  0.30406000  0.88577800  1
  O  O2  1  0.50000000  0.67393100  0.59330400  1
  O  O3  1  0.00000000  0.69217300  0.11662100  1
  O  O4  1  0.50000000  0.04301000  0.14758800  1
  O  O5  1  0.00000000  0.95958700  0.38754900  1
  O  O6  1  0.50000000  0.96307200  0.81535800  1
loop_
_geom_bond_atom_site_label_1
_geom_bond_atom_site_label_2
_geom_bond_distance
_geom_bond_site_symmetry_2
Na0 O2 2.456111 1_555
Na0 O2 2.456111 1_455
Na0 O3 2.486404 1_555
Na0 O1 2.538182 1_555
Na0 O0 2.608773 1_455
Na0 O0 2.608773 1_555
Na0 O5 2.754406 1_555
Na1 O2 2.611400 1_555
Na1 O1 2.621110 1_555
Na1 O1 2.621110 1_655
Na1 O3 2.630983 1_556
Na1 O3 2.630983 1_656
Na1 O0 2.705786 1_556
Na1 O4 2.789581 1_556
Na1 O6 2.818941 1_555
O0 U1 1.898753 1_545
O1 U0 1.868578 1_546
O2 U1 1.903408 1_555
O3 U0 1.867478 1_555
O4 U0 2.251547 1_545
O4 U0 2.251547 1_645
O4 U1 2.263802 1_545
O5 U1 2.141365 1_555
O5 U1 2.141365 1_455
O5 U0 2.495083 1_555
O6 U1 2.198850 1_555
O6 U0 2.479968 1_556
O6 U0 2.479968 1_656
