# generated using pymatgen
data_In7SiN6
_symmetry_space_group_name_H-M   'P 1'
_cell_length_a   10.60426300
_cell_length_b   7.44171700
_cell_length_c   12.20572200
_cell_angle_alpha   90.00000000
_cell_angle_beta   90.00000000
_cell_angle_gamma   90.00000000
_symmetry_Int_Tables_number   1
_chemical_formula_structural   In7SiN6
_chemical_formula_sum   'In28 Si4 N24'
_cell_volume   963.20142120
_cell_formula_units_Z   4
loop_
 _symmetry_equiv_pos_site_id
 _symmetry_equiv_pos_as_xyz
  1  'x, y, z'
loop_
 _atom_site_type_symbol
 _atom_site_label
 _atom_site_symmetry_multiplicity
 _atom_site_fract_x
 _atom_site_fract_y
 _atom_site_fract_z
 _atom_site_occupancy
  In  In0  1  0.02426200  0.76809300  0.98011600  1
  In  In1  1  0.47573800  0.73190700  0.48011600  1
  In  In2  1  0.52426200  0.73190700  0.01988400  1
  In  In3  1  0.97573800  0.76809300  0.51988400  1
  In  In4  1  0.97573800  0.23190700  0.01988400  1
  In  In5  1  0.52426200  0.26809300  0.51988400  1
  In  In6  1  0.47573800  0.26809300  0.98011600  1
  In  In7  1  0.02426200  0.23190700  0.48011600  1
  In  In8  1  0.22200400  0.64486100  0.58763300  1
  In  In9  1  0.27799600  0.85513900  0.08763300  1
  In  In10  1  0.72200400  0.85513900  0.41236700  1
  In  In11  1  0.77799600  0.64486100  0.91236700  1
  In  In12  1  0.77799600  0.35513900  0.41236700  1
  In  In13  1  0.72200400  0.14486100  0.91236700  1
  In  In14  1  0.27799600  0.14486100  0.58763300  1
  In  In15  1  0.22200400  0.35513900  0.08763300  1
  In  In16  1  0.21835600  0.56198500  0.83090800  1
  In  In17  1  0.28164400  0.93801500  0.33090800  1
  In  In18  1  0.71835600  0.93801500  0.16909200  1
  In  In19  1  0.78164400  0.56198500  0.66909200  1
  In  In20  1  0.78164400  0.43801500  0.16909200  1
  In  In21  1  0.71835600  0.06198500  0.66909200  1
  In  In22  1  0.28164400  0.06198500  0.83090800  1
  In  In23  1  0.21835600  0.43801500  0.33090800  1
  In  In24  1  0.00000000  0.37033700  0.75000000  1
  In  In25  1  0.50000000  0.12966300  0.25000000  1
  In  In26  1  0.00000000  0.62966300  0.25000000  1
  In  In27  1  0.50000000  0.87033700  0.75000000  1
  Si  Si0  1  0.00000000  0.97996900  0.75000000  1
  Si  Si1  1  0.50000000  0.52003100  0.25000000  1
  Si  Si2  1  0.00000000  0.02003100  0.25000000  1
  Si  Si3  1  0.50000000  0.47996900  0.75000000  1
  N  N0  1  0.11849300  0.86828300  0.82395900  1
  N  N1  1  0.38150700  0.63171700  0.32395900  1
  N  N2  1  0.61849300  0.63171700  0.17604100  1
  N  N3  1  0.88150700  0.86828300  0.67604100  1
  N  N4  1  0.88150700  0.13171700  0.17604100  1
  N  N5  1  0.61849300  0.36828300  0.67604100  1
  N  N6  1  0.38150700  0.36828300  0.82395900  1
  N  N7  1  0.11849300  0.13171700  0.32395900  1
  N  N8  1  0.20152900  0.38815900  0.50315900  1
  N  N9  1  0.29847100  0.11184100  0.00315900  1
  N  N10  1  0.70152900  0.11184100  0.49684100  1
  N  N11  1  0.79847100  0.38815900  0.99684100  1
  N  N12  1  0.79847100  0.61184100  0.49684100  1
  N  N13  1  0.70152900  0.88815900  0.99684100  1
  N  N14  1  0.29847100  0.88815900  0.50315900  1
  N  N15  1  0.20152900  0.61184100  0.00315900  1
  N  N16  1  0.42434300  0.62929300  0.65321700  1
  N  N17  1  0.07565700  0.87070700  0.15321700  1
  N  N18  1  0.92434300  0.87070700  0.34678300  1
  N  N19  1  0.57565700  0.62929300  0.84678300  1
  N  N20  1  0.57565700  0.37070700  0.34678300  1
  N  N21  1  0.92434300  0.12929300  0.84678300  1
  N  N22  1  0.07565700  0.12929300  0.65321700  1
  N  N23  1  0.42434300  0.37070700  0.15321700  1
loop_
_geom_bond_atom_site_label_1
_geom_bond_atom_site_label_2
_geom_bond_distance
_geom_bond_site_symmetry_2
In0 N15 2.228175 1_556
In0 N0 2.277558 1_555
In0 N17 2.311747 1_556
In1 N14 2.228175 1_555
In1 N1 2.277558 1_555
In1 N16 2.311747 1_555
In2 N13 2.228175 1_554
In2 N2 2.277558 1_555
In2 N19 2.311747 1_554
In3 N12 2.228175 1_555
In3 N3 2.277558 1_555
In3 N18 2.311747 1_555
In4 N11 2.228175 1_554
In4 N4 2.277558 1_555
In4 N21 2.311747 1_554
In5 N10 2.228175 1_555
In5 N5 2.277558 1_555
In5 N20 2.311747 1_555
In6 N9 2.228175 1_556
In6 N6 2.277558 1_555
In6 N23 2.311747 1_556
In7 N8 2.228175 1_555
In7 N7 2.277558 1_555
In7 N22 2.311747 1_555
In8 N8 2.181628 1_555
In8 N14 2.235783 1_555
In8 N16 2.293046 1_555
In9 N9 2.181628 1_565
In9 N15 2.235783 1_555
In9 N17 2.293046 1_555
In10 N10 2.181628 1_565
In10 N12 2.235783 1_555
In10 N18 2.293046 1_555
In11 N11 2.181628 1_555
In11 N13 2.235783 1_555
In11 N19 2.293046 1_555
In12 N12 2.181628 1_555
In12 N10 2.235783 1_555
In12 N20 2.293046 1_555
In13 N13 2.181628 1_545
In13 N11 2.235783 1_555
In13 N21 2.293046 1_555
In14 N14 2.181628 1_545
In14 N8 2.235783 1_555
In14 N22 2.293046 1_555
In15 N15 2.181628 1_555
In15 N9 2.235783 1_555
In15 N23 2.293046 1_555
In16 N15 2.142377 1_556
In16 N6 2.253504 1_555
In16 N0 2.514797 1_555
In17 N14 2.142377 1_555
In17 N7 2.253504 1_565
In17 N1 2.514797 1_555
In18 N13 2.142377 1_554
In18 N4 2.253504 1_565
In18 N2 2.514797 1_555
In19 N12 2.142377 1_555
In19 N5 2.253504 1_555
In19 N3 2.514797 1_555
In20 N11 2.142377 1_554
In20 N2 2.253504 1_555
In20 N4 2.514797 1_555
In21 N10 2.142377 1_555
In21 N3 2.253504 1_545
In21 N5 2.514797 1_555
In22 N9 2.142377 1_556
In22 N0 2.253504 1_545
In22 N6 2.514797 1_555
In23 N8 2.142377 1_555
In23 N1 2.253504 1_555
In23 N7 2.514797 1_555
In24 N21 2.292771 1_455
In24 N22 2.292771 1_555
In25 N20 2.292771 1_555
In25 N23 2.292771 1_555
In26 N17 2.292771 1_555
In26 N18 2.292771 1_455
In27 N19 2.292771 1_555
In27 N16 2.292771 1_555
N0 Si0 1.756293 1_555
N1 Si1 1.756293 1_555
N2 Si1 1.756293 1_555
N3 Si0 1.756293 1_655
N4 Si2 1.756293 1_655
N5 Si3 1.756293 1_555
N6 Si3 1.756293 1_555
N7 Si2 1.756293 1_555
N16 Si3 1.809413 1_555
N17 Si2 1.809413 1_565
N18 Si2 1.809413 1_665
N19 Si3 1.809413 1_555
N20 Si1 1.809413 1_555
N21 Si0 1.809413 1_645
N22 Si0 1.809413 1_545
N23 Si1 1.809413 1_555
