# generated using pymatgen
data_Th2Si3Ru
_symmetry_space_group_name_H-M   'P 1'
_cell_length_a   7.76427079
_cell_length_b   7.76427079
_cell_length_c   7.76427079
_cell_angle_alpha   149.67285371
_cell_angle_beta   148.40592147
_cell_angle_gamma   44.36192307
_symmetry_Int_Tables_number   1
_chemical_formula_structural   Th2Si3Ru
_chemical_formula_sum   'Th2 Si3 Ru1'
_cell_volume   123.45401263
_cell_formula_units_Z   1
loop_
 _symmetry_equiv_pos_site_id
 _symmetry_equiv_pos_as_xyz
  1  'x, y, z'
loop_
 _atom_site_type_symbol
 _atom_site_label
 _atom_site_symmetry_multiplicity
 _atom_site_fract_x
 _atom_site_fract_y
 _atom_site_fract_z
 _atom_site_occupancy
  Th  Th0  1  0.74776180  0.24776180  0.50000000  1
  Th  Th1  1  0.00324927  0.00324927  0.00000000  1
  Si  Si0  1  0.58339960  0.58339960  -0.00000000  1
  Si  Si1  1  0.33044167  0.83044167  0.50000000  1
  Si  Si2  1  0.41853520  0.41853520  0.00000000  1
  Ru  Ru0  1  0.16661247  0.66661247  0.50000000  1
loop_
_geom_bond_atom_site_label_1
_geom_bond_atom_site_label_2
_geom_bond_distance
_geom_bond_site_symmetry_2
Si0 Si2 2.370646 1_555
Si0 Th0 3.116169 1_554
Si0 Th0 3.116169 1_565
Si0 Th1 3.149702 1_666
Si0 Th1 3.149702 1_554
Si0 Th1 3.149702 1_565
Si0 Th1 3.149702 1_655
Si1 Si2 2.393603 1_566
Si1 Si2 2.393603 1_555
Si1 Th0 3.163192 1_454
Si1 Th0 3.163192 1_555
Si1 Th0 3.163192 1_566
Si1 Th0 3.163192 1_465
Si1 Th1 3.262232 1_666
Si1 Th1 3.262232 1_565
Si2 Th1 3.174302 1_666
Si2 Th1 3.174302 1_655
Si2 Th1 3.174302 1_565
Si2 Th1 3.174302 1_554
Si2 Th0 3.240007 1_555
Si2 Th0 3.240007 1_454
Ru0 Si1 2.355760 1_555
Ru0 Si0 2.428855 1_455
Ru0 Si0 2.428855 1_556
Ru0 Th1 3.105288 1_555
Ru0 Th1 3.105288 1_566
Ru0 Th0 3.154986 1_454
Ru0 Th0 3.154986 1_555
Ru0 Th0 3.154986 1_465
Ru0 Th0 3.154986 1_566
