# generated using pymatgen
data_Mg6NiSn
_symmetry_space_group_name_H-M   'P 1'
_cell_length_a   4.87279800
_cell_length_b   6.26882900
_cell_length_c   10.67469500
_cell_angle_alpha   90.00000000
_cell_angle_beta   90.00000000
_cell_angle_gamma   90.00000000
_symmetry_Int_Tables_number   1
_chemical_formula_structural   Mg6NiSn
_chemical_formula_sum   'Mg12 Ni2 Sn2'
_cell_volume   326.07710513
_cell_formula_units_Z   2
loop_
 _symmetry_equiv_pos_site_id
 _symmetry_equiv_pos_as_xyz
  1  'x, y, z'
loop_
 _atom_site_type_symbol
 _atom_site_label
 _atom_site_symmetry_multiplicity
 _atom_site_fract_x
 _atom_site_fract_y
 _atom_site_fract_z
 _atom_site_occupancy
  Mg  Mg0  1  0.50000000  0.24827900  0.58432300  1
  Mg  Mg1  1  0.50000000  0.75172100  0.58432300  1
  Mg  Mg2  1  0.00000000  0.26610300  0.41331400  1
  Mg  Mg3  1  0.00000000  0.73389700  0.41331400  1
  Mg  Mg4  1  0.00000000  0.00000000  0.67460300  1
  Mg  Mg5  1  0.00000000  0.00000000  0.16446000  1
  Mg  Mg6  1  0.50000000  0.74827900  0.08432300  1
  Mg  Mg7  1  0.50000000  0.25172100  0.08432300  1
  Mg  Mg8  1  0.00000000  0.76610300  0.91331400  1
  Mg  Mg9  1  0.00000000  0.23389700  0.91331400  1
  Mg  Mg10  1  0.00000000  0.50000000  0.17460300  1
  Mg  Mg11  1  0.00000000  0.50000000  0.66446000  1
  Ni  Ni0  1  0.50000000  0.00000000  0.83317300  1
  Ni  Ni1  1  0.50000000  0.50000000  0.33317300  1
  Sn  Sn0  1  0.50000000  0.00000000  0.33249500  1
  Sn  Sn1  1  0.50000000  0.50000000  0.83249500  1
loop_
_geom_bond_atom_site_label_1
_geom_bond_atom_site_label_2
_geom_bond_distance
_geom_bond_site_symmetry_2
Mg0 Mg11 3.026200 1_555
Mg0 Mg11 3.026200 1_655
Mg0 Mg2 3.046451 1_655
Mg0 Mg2 3.046451 1_555
Mg0 Mg4 3.047494 1_655
Mg0 Mg4 3.047494 1_555
Mg0 Ni0 3.078780 1_555
Mg0 Sn1 3.083524 1_555
Mg0 Sn0 3.106250 1_555
Mg0 Ni1 3.110878 1_555
Mg0 Mg1 3.112837 1_545
Mg0 Mg1 3.155992 1_555
Mg1 Mg11 3.026200 1_555
Mg1 Mg11 3.026200 1_655
Mg1 Mg3 3.046451 1_555
Mg1 Mg3 3.046451 1_655
Mg1 Mg4 3.047494 1_565
Mg1 Mg4 3.047494 1_665
Mg1 Ni0 3.078780 1_565
Mg1 Sn1 3.083524 1_555
Mg1 Sn0 3.106250 1_565
Mg1 Ni1 3.110878 1_555
Mg2 Ni1 2.969479 1_455
Mg2 Ni1 2.969479 1_555
Mg2 Sn0 3.076209 1_455
Mg2 Sn0 3.076209 1_555
Mg3 Ni1 2.969479 1_455
Mg3 Ni1 2.969479 1_555
Mg3 Sn0 3.076209 1_465
Mg3 Sn0 3.076209 1_565
Mg4 Ni0 2.966686 1_455
Mg4 Ni0 2.966686 1_555
Mg5 Sn0 3.025472 1_555
Mg5 Sn0 3.025472 1_455
Mg5 Mg7 3.026200 1_455
Mg5 Mg7 3.026200 1_555
Mg5 Mg6 3.026200 1_445
Mg5 Mg6 3.026200 1_545
Mg6 Mg8 3.046451 1_554
Mg6 Mg8 3.046451 1_654
Mg6 Ni1 3.078780 1_555
Mg6 Sn0 3.083524 1_565
Mg6 Sn1 3.106250 1_554
Mg6 Ni0 3.110878 1_564
Mg6 Mg7 3.112837 1_555
Mg6 Mg7 3.155992 1_565
Mg7 Mg9 3.046451 1_554
Mg7 Mg9 3.046451 1_654
Mg7 Ni1 3.078780 1_555
Mg7 Sn0 3.083524 1_555
Mg7 Sn1 3.106250 1_554
Mg7 Ni0 3.110878 1_554
Mg8 Ni0 2.969479 1_465
Mg8 Ni0 2.969479 1_565
Mg8 Sn1 3.076209 1_555
Mg8 Sn1 3.076209 1_455
Mg9 Ni0 2.969479 1_455
Mg9 Ni0 2.969479 1_555
Mg9 Sn1 3.076209 1_555
Mg9 Sn1 3.076209 1_455
Mg10 Ni1 2.966686 1_455
Mg10 Ni1 2.966686 1_555
Mg10 Mg6 3.047494 1_555
Mg10 Mg6 3.047494 1_455
Mg10 Mg7 3.047494 1_555
Mg10 Mg7 3.047494 1_455
Mg11 Sn1 3.025472 1_455
Mg11 Sn1 3.025472 1_555
Ni0 Sn1 3.134423 1_545
Ni0 Sn1 3.134423 1_555
Ni1 Sn0 3.134423 1_555
Ni1 Sn0 3.134423 1_565
