# generated using pymatgen
data_K2Si4SbO11
_symmetry_space_group_name_H-M   'P 1'
_cell_length_a   10.97120700
_cell_length_b   6.51300000
_cell_length_c   15.69692185
_cell_angle_alpha   78.84531605
_cell_angle_beta   90.00000000
_cell_angle_gamma   90.00000000
_symmetry_Int_Tables_number   1
_chemical_formula_structural   K2Si4SbO11
_chemical_formula_sum   'K8 Si16 Sb4 O44'
_cell_volume   1100.44162379
_cell_formula_units_Z   4
loop_
 _symmetry_equiv_pos_site_id
 _symmetry_equiv_pos_as_xyz
  1  'x, y, z'
loop_
 _atom_site_type_symbol
 _atom_site_label
 _atom_site_symmetry_multiplicity
 _atom_site_fract_x
 _atom_site_fract_y
 _atom_site_fract_z
 _atom_site_occupancy
  K  K0  1  0.52719500  0.29190300  0.93010800  1
  K  K1  1  0.97280500  0.29190300  0.43010800  1
  K  K2  1  0.47280500  0.70809700  0.06989200  1
  K  K3  1  0.02719500  0.70809700  0.56989200  1
  K  K4  1  0.90860200  0.30408600  0.91966100  1
  K  K5  1  0.59139800  0.30408600  0.41966100  1
  K  K6  1  0.09139800  0.69591400  0.08033900  1
  K  K7  1  0.40860200  0.69591400  0.58033900  1
  Si  Si0  1  0.29004200  0.52805400  0.28827700  1
  Si  Si1  1  0.20995800  0.52805400  0.78827700  1
  Si  Si2  1  0.70995800  0.47194600  0.71172300  1
  Si  Si3  1  0.79004200  0.47194600  0.21172300  1
  Si  Si4  1  0.07845800  0.84212800  0.31801500  1
  Si  Si5  1  0.42154200  0.84212800  0.81801500  1
  Si  Si6  1  0.92154200  0.15787200  0.68198500  1
  Si  Si7  1  0.57845800  0.15787200  0.18198500  1
  Si  Si8  1  0.26600100  0.09046600  0.41001900  1
  Si  Si9  1  0.23399900  0.09046600  0.91001900  1
  Si  Si10  1  0.73399900  0.90953400  0.58998100  1
  Si  Si11  1  0.76600100  0.90953400  0.08998100  1
  Si  Si12  1  0.47547500  0.84930100  0.34424600  1
  Si  Si13  1  0.02452500  0.84930100  0.84424600  1
  Si  Si14  1  0.52452500  0.15069900  0.65575400  1
  Si  Si15  1  0.97547500  0.15069900  0.15575400  1
  Sb  Sb0  1  0.28171600  0.27218300  0.09811000  1
  Sb  Sb1  1  0.21828400  0.27218300  0.59811000  1
  Sb  Sb2  1  0.71828400  0.72781700  0.90189000  1
  Sb  Sb3  1  0.78171600  0.72781700  0.40189000  1
  O  O0  1  0.40336000  0.69462900  0.29043800  1
  O  O1  1  0.09664000  0.69462900  0.79043800  1
  O  O2  1  0.59664000  0.30537100  0.70956200  1
  O  O3  1  0.90336000  0.30537100  0.20956200  1
  O  O4  1  0.31607100  0.32448300  0.36616500  1
  O  O5  1  0.18392900  0.32448300  0.86616500  1
  O  O6  1  0.68392900  0.67551700  0.63383500  1
  O  O7  1  0.81607100  0.67551700  0.13383500  1
  O  O8  1  0.28491600  0.47184300  0.19303700  1
  O  O9  1  0.21508400  0.47184300  0.69303700  1
  O  O10  1  0.71508400  0.52815700  0.80696300  1
  O  O11  1  0.78491600  0.52815700  0.30696300  1
  O  O12  1  0.16124100  0.64088500  0.30688400  1
  O  O13  1  0.33875900  0.64088500  0.80688400  1
  O  O14  1  0.83875900  0.35911500  0.69311600  1
  O  O15  1  0.66124100  0.35911500  0.19311600  1
  O  O16  1  0.97368300  0.77478900  0.39043500  1
  O  O17  1  0.52631700  0.77478900  0.89043500  1
  O  O18  1  0.02631700  0.22521100  0.60956500  1
  O  O19  1  0.47368300  0.22521100  0.10956500  1
  O  O20  1  0.02139000  0.93789500  0.22170400  1
  O  O21  1  0.47861000  0.93789500  0.72170400  1
  O  O22  1  0.97861000  0.06210500  0.77829600  1
  O  O23  1  0.52139000  0.06210500  0.27829600  1
  O  O24  1  0.16183600  0.03117800  0.34357100  1
  O  O25  1  0.33816400  0.03117800  0.84357100  1
  O  O26  1  0.83816400  0.96882200  0.65642900  1
  O  O27  1  0.66183600  0.96882200  0.15642900  1
  O  O28  1  0.21052500  0.06321400  0.50734300  1
  O  O29  1  0.28947500  0.06321400  0.00734300  1
  O  O30  1  0.78947500  0.93678600  0.49265700  1
  O  O31  1  0.71052500  0.93678600  0.99265700  1
  O  O32  1  0.38303900  0.93079500  0.41349300  1
  O  O33  1  0.11696100  0.93079500  0.91349300  1
  O  O34  1  0.61696100  0.06920500  0.58650700  1
  O  O35  1  0.88303900  0.06920500  0.08650700  1
  O  O36  1  0.58567900  0.72867200  0.40141800  1
  O  O37  1  0.91432100  0.72867200  0.90141800  1
  O  O38  1  0.41432100  0.27132800  0.59858200  1
  O  O39  1  0.08567900  0.27132800  0.09858200  1
  O  O40  1  0.70746700  0.48642200  0.98783700  1
  O  O41  1  0.79253300  0.48642200  0.48783700  1
  O  O42  1  0.29253300  0.51357800  0.01216300  1
  O  O43  1  0.20746700  0.51357800  0.51216300  1
loop_
_geom_bond_atom_site_label_1
_geom_bond_atom_site_label_2
_geom_bond_distance
_geom_bond_site_symmetry_2
K0 O40 2.604241 1_555
K0 O19 2.827540 1_556
K0 O10 3.033573 1_555
K0 O31 3.079008 1_545
K0 O17 3.085670 1_555
K0 O29 3.129161 1_556
K0 O25 3.149958 1_555
K0 O42 3.330335 1_556
K0 O13 3.388278 1_555
K1 O41 2.604241 1_555
K1 O18 2.827540 1_655
K1 O11 3.033573 1_555
K1 O30 3.079008 1_545
K1 O16 3.085670 1_555
K1 O28 3.129161 1_655
K1 O24 3.149958 1_655
K1 O43 3.330335 1_655
K1 O12 3.388278 1_655
K2 O42 2.604241 1_555
K2 O17 2.827540 1_554
K2 O8 3.033573 1_555
K2 O29 3.079008 1_565
K2 O19 3.085670 1_555
K2 O31 3.129161 1_554
K2 O27 3.149958 1_555
K2 O40 3.330335 1_554
K2 O15 3.388278 1_555
K3 O43 2.604241 1_555
K3 O16 2.827540 1_455
K3 O9 3.033573 1_555
K3 O28 3.079008 1_565
K3 O18 3.085670 1_555
K3 O30 3.129161 1_455
K3 O26 3.149958 1_455
K3 O41 3.330335 1_455
K3 O14 3.388278 1_455
K4 O37 2.725177 1_555
K4 O35 2.779877 1_556
K4 O40 2.813668 1_555
K4 O10 2.961073 1_555
K4 O22 3.057915 1_555
K4 O5 3.131144 1_655
K4 O31 3.270722 1_545
K4 O33 3.352158 1_645
K4 O39 3.387576 1_656
K5 O36 2.725177 1_555
K5 O34 2.779877 1_555
K5 O41 2.813668 1_555
K5 O11 2.961073 1_555
K5 O23 3.057915 1_555
K5 O4 3.131144 1_555
K5 O30 3.270722 1_545
K5 O32 3.352158 1_545
K5 O38 3.387576 1_555
K6 O39 2.725177 1_555
K6 O33 2.779877 1_554
K6 O42 2.813668 1_555
K6 O8 2.961073 1_555
K6 O20 3.057915 1_555
K6 O7 3.131144 1_455
K6 O29 3.270722 1_565
K6 O35 3.352158 1_465
K6 O37 3.387576 1_454
K7 O38 2.725177 1_555
K7 O32 2.779877 1_555
K7 O43 2.813668 1_555
K7 O9 2.961073 1_555
K7 O21 3.057915 1_555
K7 O6 3.131144 1_555
K7 O28 3.270722 1_565
K7 O34 3.352158 1_565
K7 O36 3.387576 1_555
O0 Si12 1.638104 1_555
O0 Si0 1.654702 1_555
O1 Si13 1.638104 1_555
O1 Si1 1.654702 1_555
O2 Si14 1.638104 1_555
O2 Si2 1.654702 1_555
O3 Si15 1.638104 1_555
O3 Si3 1.654702 1_555
O4 Si8 1.640949 1_555
O4 Si0 1.645300 1_555
O5 Si9 1.640949 1_555
O5 Si1 1.645300 1_555
O6 Si10 1.640949 1_555
O6 Si2 1.645300 1_555
O7 Si11 1.640949 1_555
O7 Si3 1.645300 1_555
O8 Si0 1.607454 1_555
O8 Sb0 2.159220 1_555
O9 Si1 1.607454 1_555
O9 Sb1 2.159220 1_555
O10 Si2 1.607454 1_555
O10 Sb2 2.159220 1_555
O11 Si3 1.607454 1_555
O11 Sb3 2.159220 1_555
O12 Si4 1.631545 1_555
O12 Si0 1.644762 1_555
O13 Si5 1.631545 1_555
O13 Si1 1.644762 1_555
O14 Si6 1.631545 1_555
O14 Si2 1.644762 1_555
O15 Si7 1.631545 1_555
O15 Si3 1.644762 1_555
O16 Si4 1.616498 1_655
O16 Sb3 2.130807 1_555
O17 Si5 1.616498 1_555
O17 Sb2 2.130807 1_555
O18 Si6 1.616498 1_455
O18 Sb1 2.130807 1_555
O19 Si7 1.616498 1_555
O19 Sb0 2.130807 1_555
O20 Si15 1.640503 1_465
O20 Si4 1.643686 1_555
O21 Si14 1.640503 1_565
O21 Si5 1.643686 1_555
O22 Si13 1.640503 1_645
O22 Si6 1.643686 1_555
O23 Si12 1.640503 1_545
O23 Si7 1.643686 1_555
O24 Si8 1.642826 1_555
O24 Si4 1.644649 1_545
O25 Si9 1.642826 1_555
O25 Si5 1.644649 1_545
O26 Si10 1.642826 1_555
O26 Si6 1.644649 1_565
O27 Si11 1.642826 1_555
O27 Si7 1.644649 1_565
O28 Si8 1.621992 1_555
O28 Sb1 2.154028 1_555
O29 Si9 1.621992 1_554
O29 Sb0 2.154028 1_555
O30 Si10 1.621992 1_555
O30 Sb3 2.154028 1_555
O31 Si11 1.621992 1_556
O31 Sb2 2.154028 1_555
O32 Si8 1.646597 1_565
O32 Si12 1.647696 1_555
O33 Si9 1.646597 1_565
O33 Si13 1.647696 1_555
O34 Si10 1.646597 1_545
O34 Si14 1.647696 1_555
O35 Si11 1.646597 1_545
O35 Si15 1.647696 1_555
O36 Si12 1.616068 1_555
O36 Sb3 2.150779 1_555
O37 Si13 1.616068 1_655
O37 Sb2 2.150779 1_555
O38 Si14 1.616068 1_555
O38 Sb1 2.150779 1_555
O39 Si15 1.616068 1_455
O39 Sb0 2.150779 1_555
O40 Sb2 1.866900 1_555
O41 Sb3 1.866900 1_555
O42 Sb0 1.866900 1_555
O43 Sb1 1.866900 1_555
