# generated using pymatgen
data_Fe3Ni3P2
_symmetry_space_group_name_H-M   'P 1'
_cell_length_a   6.70690630
_cell_length_b   6.70690630
_cell_length_c   8.96278194
_cell_angle_alpha   48.19494231
_cell_angle_beta   48.19494231
_cell_angle_gamma   38.27745373
_symmetry_Int_Tables_number   1
_chemical_formula_structural   Fe3Ni3P2
_chemical_formula_sum   'Fe6 Ni6 P4'
_cell_volume   176.97672410
_cell_formula_units_Z   2
loop_
 _symmetry_equiv_pos_site_id
 _symmetry_equiv_pos_as_xyz
  1  'x, y, z'
loop_
 _atom_site_type_symbol
 _atom_site_label
 _atom_site_symmetry_multiplicity
 _atom_site_fract_x
 _atom_site_fract_y
 _atom_site_fract_z
 _atom_site_occupancy
  Fe  Fe0  1  0.66295000  0.12491200  0.02820700  1
  Fe  Fe1  1  0.87508800  0.33705000  0.97179300  1
  Fe  Fe2  1  0.15350300  0.69532600  0.18339700  1
  Fe  Fe3  1  0.30467400  0.84649700  0.81660300  1
  Fe  Fe4  1  0.98968800  0.94425300  0.67010300  1
  Fe  Fe5  1  0.05574700  0.01031200  0.32989700  1
  Ni  Ni0  1  0.03197800  0.52772300  0.05051400  1
  Ni  Ni1  1  0.47227700  0.96802200  0.94948600  1
  Ni  Ni2  1  0.57783400  0.08189200  0.38985100  1
  Ni  Ni3  1  0.91810800  0.42216600  0.61014900  1
  Ni  Ni4  1  0.61598600  0.65741900  0.39418000  1
  Ni  Ni5  1  0.34258100  0.38401400  0.60582000  1
  P  P0  1  0.46966000  0.43677900  0.75700600  1
  P  P1  1  0.56322100  0.53034000  0.24299400  1
  P  P2  1  0.19206600  0.22535800  0.33955300  1
  P  P3  1  0.77464200  0.80793400  0.66044700  1
loop_
_geom_bond_atom_site_label_1
_geom_bond_atom_site_label_2
_geom_bond_distance
_geom_bond_site_symmetry_2
Fe0 P0 2.264842 1_554
Fe0 P2 2.373061 1_555
Fe0 Ni0 2.497210 1_645
Fe0 Ni0 2.624775 1_555
Fe0 Ni2 2.731348 1_555
Fe0 Ni1 2.746973 1_544
Fe0 Ni3 2.791356 1_554
Fe1 P1 2.264842 1_556
Fe1 P3 2.373061 1_555
Fe1 Ni1 2.497210 1_645
Fe1 Ni1 2.624775 1_555
Fe1 Ni3 2.731348 1_555
Fe1 Ni0 2.746973 1_656
Fe1 Ni2 2.791356 1_556
Fe2 P2 2.298310 1_555
Fe2 P1 2.335760 1_555
Fe2 Ni2 2.491527 1_465
Fe2 Ni2 2.634028 1_555
Fe2 Ni1 2.713460 1_554
Fe2 Ni3 2.761696 1_455
Fe2 Ni0 2.804271 1_555
Fe3 P3 2.298310 1_555
Fe3 P0 2.335760 1_555
Fe3 Ni3 2.491527 1_465
Fe3 Ni3 2.634028 1_555
Fe3 Ni0 2.713460 1_556
Fe3 Ni2 2.761696 1_565
Fe3 Ni1 2.804271 1_555
Fe4 P0 2.271571 1_655
Fe4 P3 2.294745 1_555
Fe4 P2 2.320356 1_665
Fe4 P0 2.324401 1_565
Fe4 Ni1 2.533143 1_555
Fe4 Ni3 2.534746 1_565
Fe4 Ni0 2.618459 1_656
Fe5 P1 2.271571 1_545
Fe5 P2 2.294745 1_555
Fe5 P3 2.320356 1_445
Fe5 P1 2.324401 1_455
Fe5 Ni0 2.533143 1_555
Fe5 Ni2 2.534746 1_455
Fe5 Ni1 2.618459 1_544
Ni0 P0 2.223112 1_554
Ni0 P2 2.293951 1_555
Ni0 P1 2.362936 1_455
Ni0 Ni4 2.516541 1_455
Ni0 Ni1 2.682203 1_454
Ni0 Ni1 2.682203 1_544
Ni1 P1 2.223112 1_556
Ni1 P3 2.293951 1_555
Ni1 P0 2.362936 1_565
Ni1 Ni5 2.516541 1_565
Ni2 P2 2.211625 1_555
Ni2 P1 2.284639 1_555
Ni2 P3 2.349362 1_545
Ni2 Ni5 2.545590 1_555
Ni2 Ni4 2.625656 1_545
Ni2 Ni3 2.681573 1_455
Ni2 Ni3 2.681573 1_545
Ni3 P3 2.211625 1_555
Ni3 P0 2.284639 1_555
Ni3 P2 2.349362 1_655
Ni3 Ni4 2.545590 1_555
Ni3 Ni5 2.625656 1_655
Ni4 P2 2.280066 1_565
Ni4 P0 2.310346 1_555
Ni4 P1 2.310936 1_555
Ni4 P2 2.314337 1_655
Ni5 P3 2.280066 1_455
Ni5 P1 2.310346 1_555
Ni5 P0 2.310936 1_555
Ni5 P3 2.314337 1_545
