# generated using pymatgen
data_RbP2H5O8
_symmetry_space_group_name_H-M   'P 1'
_cell_length_a   6.54622723
_cell_length_b   6.54622723
_cell_length_c   9.66418685
_cell_angle_alpha   81.44088233
_cell_angle_beta   81.44088233
_cell_angle_gamma   72.77290690
_symmetry_Int_Tables_number   1
_chemical_formula_structural   RbP2H5O8
_chemical_formula_sum   'Rb2 P4 H10 O16'
_cell_volume   388.74270556
_cell_formula_units_Z   2
loop_
 _symmetry_equiv_pos_site_id
 _symmetry_equiv_pos_as_xyz
  1  'x, y, z'
loop_
 _atom_site_type_symbol
 _atom_site_label
 _atom_site_symmetry_multiplicity
 _atom_site_fract_x
 _atom_site_fract_y
 _atom_site_fract_z
 _atom_site_occupancy
  Rb  Rb0  1  0.00000000  0.00000000  0.50000000  1
  Rb  Rb1  1  0.00000000  0.00000000  0.00000000  1
  P  P0  1  0.26827700  0.36849900  0.70079500  1
  P  P1  1  0.63150100  0.73172300  0.79920500  1
  P  P2  1  0.73172300  0.63150100  0.29920500  1
  P  P3  1  0.36849900  0.26827700  0.20079500  1
  H  H0  1  0.30785000  0.69215000  0.75000000  1
  H  H1  1  0.69215000  0.30785000  0.25000000  1
  H  H2  1  0.92290500  0.44284900  0.67283800  1
  H  H3  1  0.55715100  0.07709500  0.82716200  1
  H  H4  1  0.07709500  0.55715100  0.32716200  1
  H  H5  1  0.44284900  0.92290500  0.17283800  1
  H  H6  1  0.38928700  0.29187200  0.48704300  1
  H  H7  1  0.70812800  0.61071300  0.01295700  1
  H  H8  1  0.61071300  0.70812800  0.51295700  1
  H  H9  1  0.29187200  0.38928700  0.98704300  1
  O  O0  1  0.35345400  0.26927200  0.84112000  1
  O  O1  1  0.73072800  0.64654600  0.65888000  1
  O  O2  1  0.64654600  0.73072800  0.15888000  1
  O  O3  1  0.26927200  0.35345400  0.34112000  1
  O  O4  1  0.21879900  0.61599200  0.67904500  1
  O  O5  1  0.38400800  0.78120100  0.82095500  1
  O  O6  1  0.78120100  0.38400800  0.32095500  1
  O  O7  1  0.61599200  0.21879900  0.17904500  1
  O  O8  1  0.44328700  0.25755400  0.58290000  1
  O  O9  1  0.74244600  0.55671300  0.91710000  1
  O  O10  1  0.55671300  0.74244600  0.41710000  1
  O  O11  1  0.25755400  0.44328700  0.08290000  1
  O  O12  1  0.05585500  0.31053300  0.68138500  1
  O  O13  1  0.68946700  0.94414500  0.81861500  1
  O  O14  1  0.94414500  0.68946700  0.31861500  1
  O  O15  1  0.31053300  0.05585500  0.18138500  1
loop_
_geom_bond_atom_site_label_1
_geom_bond_atom_site_label_2
_geom_bond_distance
_geom_bond_site_symmetry_2
H0 O5 1.204775 1_555
H0 O4 1.204775 1_555
H1 O6 1.204775 1_555
H1 O7 1.204775 1_555
H2 O12 1.033497 1_655
H2 O1 1.543460 1_555
H3 O13 1.033497 1_545
H3 O0 1.543460 1_555
H4 O14 1.033497 1_455
H4 O3 1.543460 1_555
H5 O15 1.033497 1_565
H5 O2 1.543460 1_555
H6 O8 1.010989 1_555
H6 O3 1.655736 1_555
H7 O9 1.010989 1_554
H7 O2 1.655736 1_555
H8 O10 1.010989 1_555
H8 O1 1.655736 1_555
H9 O11 1.010989 1_556
H9 O0 1.655736 1_555
O0 P0 1.523239 1_555
O1 P1 1.523239 1_555
O2 P2 1.523239 1_555
O3 P3 1.523239 1_555
O4 P0 1.543384 1_555
O4 Rb0 2.945343 1_565
O5 P1 1.543384 1_555
O5 Rb1 2.945343 1_566
O6 P2 1.543384 1_555
O6 Rb0 2.945343 1_655
O7 P3 1.543384 1_555
O7 Rb1 2.945343 1_655
O8 P0 1.582107 1_555
O9 P1 1.582107 1_555
O10 P2 1.582107 1_555
O11 P3 1.582107 1_555
O12 P0 1.588778 1_555
O12 Rb0 3.005090 1_555
O13 P1 1.588778 1_555
O13 Rb1 3.005090 1_666
O14 P2 1.588778 1_555
O14 Rb0 3.005090 1_665
O15 P3 1.588778 1_555
O15 Rb1 3.005090 1_555
