# generated using pymatgen
data_MgP2(WO5)2
_symmetry_space_group_name_H-M   'P 1'
_cell_length_a   9.94117668
_cell_length_b   8.70356294
_cell_length_c   7.19769682
_cell_angle_alpha   76.74292540
_cell_angle_beta   58.44901760
_cell_angle_gamma   44.80805700
_symmetry_Int_Tables_number   1
_chemical_formula_structural   MgP2(WO5)2
_chemical_formula_sum   'Mg2 P4 W4 O20'
_cell_volume   363.41679078
_cell_formula_units_Z   2
loop_
 _symmetry_equiv_pos_site_id
 _symmetry_equiv_pos_as_xyz
  1  'x, y, z'
loop_
 _atom_site_type_symbol
 _atom_site_label
 _atom_site_symmetry_multiplicity
 _atom_site_fract_x
 _atom_site_fract_y
 _atom_site_fract_z
 _atom_site_occupancy
  Mg  Mg0  1  0.50043700  0.99956300  0.99956300  1
  Mg  Mg1  1  0.25043700  0.74956300  0.74956300  1
  P  P0  1  0.04359700  0.55573700  0.95530400  1
  P  P1  1  0.69426300  0.20640300  0.80463800  1
  P  P2  1  0.44536200  0.95530400  0.55573700  1
  P  P3  1  0.29469600  0.80463800  0.20640300  1
  W  W0  1  0.87172500  0.37965700  0.38038800  1
  W  W1  1  0.36823000  0.38038800  0.37965700  1
  W  W2  1  0.87034300  0.37827500  0.88177000  1
  W  W3  1  0.86961200  0.88177000  0.37827500  1
  O  O0  1  0.55924000  0.72000400  0.47407400  1
  O  O1  1  0.66206000  0.17586200  0.33544300  1
  O  O2  1  0.30703000  0.67601300  0.39855100  1
  O  O3  1  0.77592600  0.00331900  0.69076000  1
  O  O4  1  0.21139000  0.06364800  0.75803900  1
  O  O5  1  0.43011400  0.08605400  0.36586500  1
  O  O6  1  0.07413800  0.58794000  0.42336400  1
  O  O7  1  0.82663600  0.33544300  0.17586200  1
  O  O8  1  0.91455700  0.42336400  0.58794000  1
  O  O9  1  0.18635200  0.03861000  0.28307600  1
  O  O10  1  0.24668100  0.47407400  0.72000400  1
  O  O11  1  0.49196100  0.28307600  0.03861000  1
  O  O12  1  0.96692400  0.75803900  0.06364800  1
  O  O13  1  0.16394600  0.81988600  0.13203200  1
  O  O14  1  0.11796800  0.36586500  0.08605400  1
  O  O15  1  0.88413500  0.13203200  0.81988600  1
  O  O16  1  0.85144900  0.63159400  0.94297000  1
  O  O17  1  0.61840600  0.39855100  0.67601300  1
  O  O18  1  0.52999600  0.69076000  0.00331900  1
  O  O19  1  0.57398700  0.94297000  0.63159400  1
loop_
_geom_bond_atom_site_label_1
_geom_bond_atom_site_label_2
_geom_bond_distance
_geom_bond_site_symmetry_2
Mg0 O19 2.419220 1_555
Mg0 O16 2.419220 1_555
Mg0 O18 2.482956 1_556
Mg0 O3 2.482963 1_565
Mg0 O11 2.484606 1_566
Mg0 O9 2.484613 1_566
Mg0 O14 2.498260 1_566
Mg0 O5 2.498265 1_566
Mg1 O2 2.419220 1_555
Mg1 O17 2.419220 1_555
Mg1 O0 2.482958 1_555
Mg1 O10 2.482965 1_555
Mg1 O12 2.484608 1_456
Mg1 O4 2.484614 1_565
Mg1 O13 2.498258 1_556
Mg1 O15 2.498262 1_465
O0 P2 1.545047 1_555
O0 W0 2.132225 1_555
O1 W1 1.926469 1_555
O1 W3 1.927155 1_545
O2 P3 1.566411 1_555
O2 W1 2.204903 1_555
O3 P1 1.545039 1_555
O3 W3 2.132228 1_545
O4 P2 1.546835 1_545
O4 W2 2.138122 1_455
O5 P2 1.563472 1_545
O5 W1 2.183436 1_555
O6 W3 1.926466 1_455
O6 W1 1.927158 1_555
O7 W0 1.926461 1_555
O7 W2 1.927157 1_554
O8 W2 1.926468 1_555
O8 W0 1.927150 1_555
O9 P3 1.546833 1_545
O9 W0 2.138121 1_455
O10 P0 1.545043 1_555
O10 W1 2.132222 1_555
O11 P1 1.546837 1_554
O11 W1 2.138124 1_555
O12 P0 1.546840 1_654
O12 W3 2.138118 1_555
O13 P3 1.563478 1_555
O13 W3 2.183437 1_455
O14 P0 1.563473 1_554
O14 W0 2.183442 1_455
O15 P1 1.563468 1_555
O15 W2 2.183445 1_555
O16 P0 1.566411 1_655
O16 W2 2.204903 1_555
O17 P1 1.566411 1_555
O17 W0 2.204903 1_555
O18 P3 1.545045 1_555
O18 W2 2.132224 1_554
O19 P2 1.566411 1_555
O19 W3 2.204903 1_555
