# generated using pymatgen
data_NaB3H8
_symmetry_space_group_name_H-M   'P 1'
_cell_length_a   4.71388500
_cell_length_b   5.98412100
_cell_length_c   8.43179400
_cell_angle_alpha   90.00000000
_cell_angle_beta   90.00000000
_cell_angle_gamma   90.00000000
_symmetry_Int_Tables_number   1
_chemical_formula_structural   NaB3H8
_chemical_formula_sum   'Na2 B6 H16'
_cell_volume   237.84790877
_cell_formula_units_Z   2
loop_
 _symmetry_equiv_pos_site_id
 _symmetry_equiv_pos_as_xyz
  1  'x, y, z'
loop_
 _atom_site_type_symbol
 _atom_site_label
 _atom_site_symmetry_multiplicity
 _atom_site_fract_x
 _atom_site_fract_y
 _atom_site_fract_z
 _atom_site_occupancy
  Na  Na0  1  0.50000000  0.05022800  0.50000000  1
  Na  Na1  1  0.00000000  0.94977200  0.00000000  1
  B  B0  1  0.00000000  0.51015600  0.50000000  1
  B  B1  1  0.50000000  0.48984400  0.00000000  1
  B  B2  1  0.50000000  0.23241200  0.89437800  1
  B  B3  1  0.00000000  0.76758800  0.39437800  1
  B  B4  1  0.00000000  0.76758800  0.60562200  1
  B  B5  1  0.50000000  0.23241200  0.10562200  1
  H  H0  1  0.50000000  0.42697700  0.83460100  1
  H  H1  1  0.00000000  0.57302300  0.33460100  1
  H  H2  1  0.00000000  0.57302300  0.66539900  1
  H  H3  1  0.50000000  0.42697700  0.16539900  1
  H  H4  1  0.78226800  0.40237300  0.50000000  1
  H  H5  1  0.21773200  0.40237300  0.50000000  1
  H  H6  1  0.28226800  0.59762700  0.00000000  1
  H  H7  1  0.71773200  0.59762700  0.00000000  1
  H  H8  1  0.21584700  0.84351500  0.66277200  1
  H  H9  1  0.78415300  0.84351500  0.66277200  1
  H  H10  1  0.71584700  0.15648500  0.16277200  1
  H  H11  1  0.28415300  0.15648500  0.83722800  1
  H  H12  1  0.78415300  0.84351500  0.33722800  1
  H  H13  1  0.21584700  0.84351500  0.33722800  1
  H  H14  1  0.71584700  0.15648500  0.83722800  1
  H  H15  1  0.28415300  0.15648500  0.16277200  1
loop_
_geom_bond_atom_site_label_1
_geom_bond_atom_site_label_2
_geom_bond_distance
_geom_bond_site_symmetry_2
B0 H4 1.212200 1_455
B0 H5 1.212200 1_555
B0 H2 1.444461 1_555
B0 H1 1.444461 1_555
B1 H6 1.212200 1_555
B1 H7 1.212200 1_555
B1 H0 1.444461 1_554
B1 H3 1.444461 1_555
B2 H14 1.214046 1_555
B2 H11 1.214046 1_555
B2 H0 1.268716 1_555
B3 H13 1.214046 1_555
B3 H12 1.214046 1_455
B3 H1 1.268716 1_555
B4 H8 1.214046 1_555
B4 H9 1.214046 1_455
B4 H2 1.268716 1_555
B5 H10 1.214046 1_555
B5 H15 1.214046 1_555
B5 H3 1.268716 1_555
H4 Na0 2.492200 1_555
H5 Na0 2.492200 1_555
H6 Na1 2.492200 1_555
H7 Na1 2.492200 1_655
H8 Na0 2.282098 1_565
H9 Na0 2.282098 1_565
H10 Na1 2.282098 1_645
H11 Na1 2.282098 1_546
H12 Na0 2.282098 1_565
H13 Na0 2.282098 1_565
H14 Na1 2.282098 1_646
H15 Na1 2.282098 1_545
