# generated using pymatgen
data_UPCl5O2
_symmetry_space_group_name_H-M   'P 1'
_cell_length_a   8.58825000
_cell_length_b   9.23929900
_cell_length_c   24.71595100
_cell_angle_alpha   90.00000000
_cell_angle_beta   90.00000000
_cell_angle_gamma   90.00000000
_symmetry_Int_Tables_number   1
_chemical_formula_structural   UPCl5O2
_chemical_formula_sum   'U8 P8 Cl40 O16'
_cell_volume   1961.19612046
_cell_formula_units_Z   8
loop_
 _symmetry_equiv_pos_site_id
 _symmetry_equiv_pos_as_xyz
  1  'x, y, z'
loop_
 _atom_site_type_symbol
 _atom_site_label
 _atom_site_symmetry_multiplicity
 _atom_site_fract_x
 _atom_site_fract_y
 _atom_site_fract_z
 _atom_site_occupancy
  U  U0  1  0.50000000  0.60586200  0.38787200  1
  U  U1  1  0.50000000  0.39413800  0.61212800  1
  U  U2  1  0.50000000  0.10586200  0.11212800  1
  U  U3  1  0.50000000  0.89413800  0.88787200  1
  U  U4  1  0.00000000  0.73938900  0.35802400  1
  U  U5  1  0.00000000  0.26061100  0.64197600  1
  U  U6  1  0.00000000  0.23938900  0.14197600  1
  U  U7  1  0.00000000  0.76061100  0.85802400  1
  P  P0  1  0.50000000  0.76031300  0.02790700  1
  P  P1  1  0.50000000  0.23968700  0.97209300  1
  P  P2  1  0.50000000  0.26031300  0.47209300  1
  P  P3  1  0.50000000  0.73968700  0.52790700  1
  P  P4  1  0.00000000  0.59194300  0.22068600  1
  P  P5  1  0.00000000  0.40805700  0.77931400  1
  P  P6  1  0.00000000  0.09194300  0.27931400  1
  P  P7  1  0.00000000  0.90805700  0.72068600  1
  Cl  Cl0  1  0.19017500  0.53706500  0.40908800  1
  Cl  Cl1  1  0.19017500  0.46293500  0.59091200  1
  Cl  Cl2  1  0.80982500  0.03706500  0.09091200  1
  Cl  Cl3  1  0.80982500  0.96293500  0.90908800  1
  Cl  Cl4  1  0.80982500  0.46293500  0.59091200  1
  Cl  Cl5  1  0.80982500  0.53706500  0.40908800  1
  Cl  Cl6  1  0.19017500  0.96293500  0.90908800  1
  Cl  Cl7  1  0.19017500  0.03706500  0.09091200  1
  Cl  Cl8  1  0.31563800  0.64402300  0.05016100  1
  Cl  Cl9  1  0.31563800  0.35597700  0.94983900  1
  Cl  Cl10  1  0.68436200  0.14402300  0.44983900  1
  Cl  Cl11  1  0.68436200  0.85597700  0.55016100  1
  Cl  Cl12  1  0.68436200  0.35597700  0.94983900  1
  Cl  Cl13  1  0.68436200  0.64402300  0.05016100  1
  Cl  Cl14  1  0.31563800  0.85597700  0.55016100  1
  Cl  Cl15  1  0.31563800  0.14402300  0.44983900  1
  Cl  Cl16  1  0.18463700  0.69839500  0.19237500  1
  Cl  Cl17  1  0.18463700  0.30160500  0.80762500  1
  Cl  Cl18  1  0.81536300  0.19839500  0.30762500  1
  Cl  Cl19  1  0.81536300  0.80160500  0.69237500  1
  Cl  Cl20  1  0.81536300  0.30160500  0.80762500  1
  Cl  Cl21  1  0.81536300  0.69839500  0.19237500  1
  Cl  Cl22  1  0.18463700  0.80160500  0.69237500  1
  Cl  Cl23  1  0.18463700  0.19839500  0.30762500  1
  Cl  Cl24  1  0.30949200  0.81339000  0.34049200  1
  Cl  Cl25  1  0.30949200  0.18661000  0.65950800  1
  Cl  Cl26  1  0.69050800  0.31339000  0.15950800  1
  Cl  Cl27  1  0.69050800  0.68661000  0.84049200  1
  Cl  Cl28  1  0.69050800  0.18661000  0.65950800  1
  Cl  Cl29  1  0.69050800  0.81339000  0.34049200  1
  Cl  Cl30  1  0.30949200  0.68661000  0.84049200  1
  Cl  Cl31  1  0.30949200  0.31339000  0.15950800  1
  Cl  Cl32  1  0.50000000  0.95334900  0.19723200  1
  Cl  Cl33  1  0.50000000  0.04665100  0.80276800  1
  Cl  Cl34  1  0.50000000  0.45334900  0.30276800  1
  Cl  Cl35  1  0.50000000  0.54665100  0.69723200  1
  Cl  Cl36  1  0.00000000  0.90761700  0.43875900  1
  Cl  Cl37  1  0.00000000  0.09238300  0.56124100  1
  Cl  Cl38  1  0.00000000  0.40761700  0.06124100  1
  Cl  Cl39  1  0.00000000  0.59238300  0.93875900  1
  O  O0  1  0.50000000  0.72847200  0.46628700  1
  O  O1  1  0.50000000  0.27152800  0.53371300  1
  O  O2  1  0.50000000  0.22847200  0.03371300  1
  O  O3  1  0.50000000  0.77152800  0.96628700  1
  O  O4  1  0.50000000  0.90296300  0.05782100  1
  O  O5  1  0.50000000  0.09703700  0.94217900  1
  O  O6  1  0.50000000  0.40296300  0.44217900  1
  O  O7  1  0.50000000  0.59703700  0.55782100  1
  O  O8  1  0.00000000  0.60640900  0.28234800  1
  O  O9  1  0.00000000  0.39359100  0.71765200  1
  O  O10  1  0.00000000  0.10640900  0.21765200  1
  O  O11  1  0.00000000  0.89359100  0.78234800  1
  O  O12  1  0.00000000  0.93765100  0.29966200  1
  O  O13  1  0.00000000  0.06234900  0.70033800  1
  O  O14  1  0.00000000  0.43765100  0.20033800  1
  O  O15  1  0.00000000  0.56234900  0.79966200  1
loop_
_geom_bond_atom_site_label_1
_geom_bond_atom_site_label_2
_geom_bond_distance
_geom_bond_site_symmetry_2
Cl0 U4 2.784755 1_555
Cl0 U0 2.785525 1_555
Cl1 U5 2.784755 1_555
Cl1 U1 2.785525 1_555
Cl2 U6 2.784755 1_655
Cl2 U2 2.785525 1_555
Cl3 U7 2.784755 1_655
Cl3 U3 2.785525 1_555
Cl4 U5 2.784755 1_655
Cl4 U1 2.785525 1_555
Cl5 U4 2.784755 1_655
Cl5 U0 2.785525 1_555
Cl6 U7 2.784755 1_555
Cl6 U3 2.785525 1_555
Cl7 U6 2.784755 1_555
Cl7 U2 2.785525 1_555
Cl8 P0 1.990964 1_555
Cl9 P1 1.990964 1_555
Cl10 P2 1.990964 1_555
Cl11 P3 1.990964 1_555
Cl12 P1 1.990964 1_555
Cl13 P0 1.990964 1_555
Cl14 P3 1.990964 1_555
Cl15 P2 1.990964 1_555
Cl16 P4 1.992851 1_555
Cl17 P5 1.992851 1_555
Cl18 P6 1.992851 1_655
Cl19 P7 1.992851 1_655
Cl20 P5 1.992851 1_655
Cl21 P4 1.992851 1_655
Cl22 P7 1.992851 1_555
Cl23 P6 1.992851 1_555
Cl24 U4 2.778520 1_555
Cl24 U0 2.779341 1_555
Cl25 U5 2.778520 1_555
Cl25 U1 2.779341 1_555
Cl26 U6 2.778520 1_655
Cl26 U2 2.779341 1_555
Cl27 U7 2.778520 1_655
Cl27 U3 2.779341 1_555
Cl28 U5 2.778520 1_655
Cl28 U1 2.779341 1_555
Cl29 U4 2.778520 1_655
Cl29 U0 2.779341 1_555
Cl30 U7 2.778520 1_555
Cl30 U3 2.779341 1_555
Cl31 U6 2.778520 1_555
Cl31 U2 2.779341 1_555
Cl32 U2 2.531798 1_565
Cl33 U3 2.531798 1_545
Cl34 U0 2.531798 1_555
Cl35 U1 2.531798 1_555
Cl36 U4 2.529361 1_555
Cl37 U5 2.529361 1_555
Cl38 U6 2.529361 1_555
Cl39 U7 2.529361 1_555
O0 P3 1.526518 1_555
O0 U0 2.244892 1_555
O1 P2 1.526518 1_555
O1 U1 2.244892 1_555
O2 P1 1.526518 1_554
O2 U2 2.244892 1_555
O3 P0 1.526518 1_556
O3 U3 2.244892 1_555
O4 P0 1.511201 1_555
O4 U2 2.305629 1_565
O5 P1 1.511201 1_555
O5 U3 2.305629 1_545
O6 P2 1.511201 1_555
O6 U0 2.305629 1_555
O7 P3 1.511201 1_555
O7 U1 2.305629 1_555
O8 P4 1.529884 1_555
O8 U4 2.237850 1_555
O9 P5 1.529884 1_555
O9 U5 2.237850 1_555
O10 P6 1.529884 1_555
O10 U6 2.237850 1_555
O11 P7 1.529884 1_555
O11 U7 2.237850 1_555
O12 P6 1.511662 1_565
O12 U4 2.331571 1_555
O13 P7 1.511662 1_545
O13 U5 2.331571 1_555
O14 P4 1.511662 1_555
O14 U6 2.331571 1_555
O15 P5 1.511662 1_555
O15 U7 2.331571 1_555
