# generated using pymatgen
data_Mo3W(Se3S)2
_symmetry_space_group_name_H-M   'P 1'
_cell_length_a   3.28739338
_cell_length_b   3.28739338
_cell_length_c   37.32825900
_cell_angle_alpha   90.00000000
_cell_angle_beta   90.00000000
_cell_angle_gamma   119.99998752
_symmetry_Int_Tables_number   1
_chemical_formula_structural   Mo3W(Se3S)2
_chemical_formula_sum   'Mo3 W1 Se6 S2'
_cell_volume   349.35886949
_cell_formula_units_Z   1
loop_
 _symmetry_equiv_pos_site_id
 _symmetry_equiv_pos_as_xyz
  1  'x, y, z'
loop_
 _atom_site_type_symbol
 _atom_site_label
 _atom_site_symmetry_multiplicity
 _atom_site_fract_x
 _atom_site_fract_y
 _atom_site_fract_z
 _atom_site_occupancy
  Mo  Mo0  1  0.33333300  0.66666700  0.09390700  1
  Mo  Mo1  1  0.33333300  0.66666700  0.46965500  1
  Mo  Mo2  1  0.66666700  0.33333300  0.28180200  1
  W  W0  1  0.66666700  0.33333300  0.65754000  1
  Se  Se0  1  0.33333300  0.66666700  0.32695900  1
  Se  Se1  1  0.33333300  0.66666700  0.70297100  1
  Se  Se2  1  0.66666700  0.33333300  0.04876900  1
  Se  Se3  1  0.66666700  0.33333300  0.13906800  1
  Se  Se4  1  0.33333300  0.66666700  0.23666000  1
  Se  Se5  1  0.33333300  0.66666700  0.61209900  1
  S  S0  1  0.66666700  0.33333300  0.42854500  1
  S  S1  1  0.66666700  0.33333300  0.51077100  1
loop_
_geom_bond_atom_site_label_1
_geom_bond_atom_site_label_2
_geom_bond_distance
_geom_bond_site_symmetry_2
Mo0 Se2 2.537967 1_455
Mo0 Se2 2.537967 1_565
Mo0 Se2 2.537971 1_555
Mo0 Se3 2.538537 1_565
Mo0 Se3 2.538537 1_455
Mo0 Se3 2.538541 1_555
Mo1 S0 2.440738 1_455
Mo1 S0 2.440738 1_565
Mo1 S0 2.440742 1_555
Mo1 S1 2.440879 1_455
Mo1 S1 2.440879 1_565
Mo1 S1 2.440883 1_555
Mo2 Se4 2.538066 1_545
Mo2 Se4 2.538066 1_655
Mo2 Se4 2.538070 1_555
Mo2 Se0 2.538438 1_545
Mo2 Se0 2.538438 1_655
Mo2 Se0 2.538442 1_555
Se1 W0 2.545241 1_455
Se1 W0 2.545241 1_565
Se1 W0 2.545245 1_555
Se5 W0 2.545490 1_455
Se5 W0 2.545490 1_565
Se5 W0 2.545494 1_555
