# generated using pymatgen
data_Zr3Se
_symmetry_space_group_name_H-M   'P 1'
_cell_length_a   6.05434649
_cell_length_b   6.05434649
_cell_length_c   5.21986000
_cell_angle_alpha   90.00000000
_cell_angle_beta   90.00000000
_cell_angle_gamma   120.00000531
_symmetry_Int_Tables_number   1
_chemical_formula_structural   Zr3Se
_chemical_formula_sum   'Zr6 Se2'
_cell_volume   165.70057173
_cell_formula_units_Z   2
loop_
 _symmetry_equiv_pos_site_id
 _symmetry_equiv_pos_as_xyz
  1  'x, y, z'
loop_
 _atom_site_type_symbol
 _atom_site_label
 _atom_site_symmetry_multiplicity
 _atom_site_fract_x
 _atom_site_fract_y
 _atom_site_fract_z
 _atom_site_occupancy
  Zr  Zr0  1  0.16547700  0.33095400  0.25000000  1
  Zr  Zr1  1  0.66904600  0.83452300  0.25000000  1
  Zr  Zr2  1  0.16547700  0.83452300  0.25000000  1
  Zr  Zr3  1  0.83452300  0.66904600  0.75000000  1
  Zr  Zr4  1  0.33095400  0.16547700  0.75000000  1
  Zr  Zr5  1  0.83452300  0.16547700  0.75000000  1
  Se  Se0  1  0.33333300  0.66666700  0.75000000  1
  Se  Se1  1  0.66666700  0.33333300  0.25000000  1
loop_
_geom_bond_atom_site_label_1
_geom_bond_atom_site_label_2
_geom_bond_distance
_geom_bond_site_symmetry_2
Se0 Zr4 3.027196 1_565
Se0 Zr3 3.027196 1_455
Se0 Zr5 3.027199 1_565
Se0 Zr5 3.027199 1_455
Se0 Zr4 3.027202 1_555
Se0 Zr3 3.027202 1_555
Se0 Zr2 3.148028 1_556
Se0 Zr2 3.148028 1_555
Se0 Zr1 3.148031 1_555
Se0 Zr1 3.148031 1_556
Se0 Zr0 3.148031 1_556
Se0 Zr0 3.148031 1_555
Se1 Zr0 3.027196 1_655
Se1 Zr1 3.027196 1_545
Se1 Zr2 3.027199 1_655
Se1 Zr2 3.027199 1_545
Se1 Zr0 3.027202 1_555
Se1 Zr1 3.027202 1_555
Se1 Zr5 3.148028 1_555
Se1 Zr5 3.148028 1_554
Se1 Zr3 3.148031 1_554
Se1 Zr3 3.148031 1_555
Se1 Zr4 3.148031 1_554
Se1 Zr4 3.148031 1_555
