# generated using pymatgen
data_Ga2P2N2O8F3
_symmetry_space_group_name_H-M   'P 1'
_cell_length_a   7.71992400
_cell_length_b   10.04539100
_cell_length_c   12.53215500
_cell_angle_alpha   90.00000000
_cell_angle_beta   90.00000000
_cell_angle_gamma   90.00000000
_symmetry_Int_Tables_number   1
_chemical_formula_structural   Ga2P2N2O8F3
_chemical_formula_sum   'Ga8 P8 N8 O32 F12'
_cell_volume   971.86429754
_cell_formula_units_Z   4
loop_
 _symmetry_equiv_pos_site_id
 _symmetry_equiv_pos_as_xyz
  1  'x, y, z'
loop_
 _atom_site_type_symbol
 _atom_site_label
 _atom_site_symmetry_multiplicity
 _atom_site_fract_x
 _atom_site_fract_y
 _atom_site_fract_z
 _atom_site_occupancy
  Ga  Ga0  1  0.50761500  0.16448100  0.38046100  1
  Ga  Ga1  1  0.49238500  0.66448100  0.61953900  1
  Ga  Ga2  1  0.00761500  0.66448100  0.11953900  1
  Ga  Ga3  1  0.99238500  0.16448100  0.88046100  1
  Ga  Ga4  1  0.21691000  0.38258800  0.24233000  1
  Ga  Ga5  1  0.78309000  0.88258800  0.75767000  1
  Ga  Ga6  1  0.71691000  0.88258800  0.25767000  1
  Ga  Ga7  1  0.28309000  0.38258800  0.74233000  1
  P  P0  1  0.41550100  0.66751100  0.18734100  1
  P  P1  1  0.58449900  0.16751100  0.81265900  1
  P  P2  1  0.91550100  0.16751100  0.31265900  1
  P  P3  1  0.08449900  0.66751100  0.68734100  1
  P  P4  1  0.32759800  0.41997000  0.48615100  1
  P  P5  1  0.67240200  0.91997000  0.51384900  1
  P  P6  1  0.82759800  0.91997000  0.01384900  1
  P  P7  1  0.17240200  0.41997000  0.98615100  1
  N  N0  1  0.73616600  0.51485300  0.37231600  1
  N  N1  1  0.26383400  0.01485300  0.62768400  1
  N  N2  1  0.23616600  0.01485300  0.12768400  1
  N  N3  1  0.76383400  0.51485300  0.87231600  1
  N  N4  1  0.34570800  0.80027500  0.91208200  1
  N  N5  1  0.65429200  0.30027500  0.08791800  1
  N  N6  1  0.84570800  0.30027500  0.58791800  1
  N  N7  1  0.15429200  0.80027500  0.41208200  1
  O  O0  1  0.40193500  0.52346100  0.22956400  1
  O  O1  1  0.59806500  0.02346100  0.77043600  1
  O  O2  1  0.90193500  0.02346100  0.27043600  1
  O  O3  1  0.09806500  0.52346100  0.72956400  1
  O  O4  1  0.53816000  0.74488600  0.25865900  1
  O  O5  1  0.46184000  0.24488600  0.74134100  1
  O  O6  1  0.03816000  0.24488600  0.24134100  1
  O  O7  1  0.96184000  0.74488600  0.75865900  1
  O  O8  1  0.49371800  0.33486000  0.46618300  1
  O  O9  1  0.50628200  0.83486000  0.53381700  1
  O  O10  1  0.99371800  0.83486000  0.03381700  1
  O  O11  1  0.00628200  0.33486000  0.96618300  1
  O  O12  1  0.48334600  0.65741700  0.06846200  1
  O  O13  1  0.51665400  0.15741700  0.93153800  1
  O  O14  1  0.98334600  0.15741700  0.43153800  1
  O  O15  1  0.01665400  0.65741700  0.56846200  1
  O  O16  1  0.37301200  0.56735200  0.50537200  1
  O  O17  1  0.62698800  0.06735200  0.49462800  1
  O  O18  1  0.87301200  0.06735200  0.99462800  1
  O  O19  1  0.12698800  0.56735200  0.00537200  1
  O  O20  1  0.23730600  0.73540600  0.17405800  1
  O  O21  1  0.76269400  0.23540600  0.82594200  1
  O  O22  1  0.73730600  0.23540600  0.32594200  1
  O  O23  1  0.26269400  0.73540600  0.67405800  1
  O  O24  1  0.19742800  0.41159000  0.39400600  1
  O  O25  1  0.80257200  0.91159000  0.60599400  1
  O  O26  1  0.69742800  0.91159000  0.10599400  1
  O  O27  1  0.30257200  0.41159000  0.89400600  1
  O  O28  1  0.25377500  0.35612600  0.08708300  1
  O  O29  1  0.74622500  0.85612600  0.91291700  1
  O  O30  1  0.75377500  0.85612600  0.41291700  1
  O  O31  1  0.24622500  0.35612600  0.58708300  1
  F  F0  1  0.40093300  0.25460400  0.26003300  1
  F  F1  1  0.59906700  0.75460400  0.73996700  1
  F  F2  1  0.90093300  0.75460400  0.23996700  1
  F  F3  1  0.09906700  0.25460400  0.76003300  1
  F  F4  1  0.03941000  0.51408000  0.21767400  1
  F  F5  1  0.96059000  0.01408000  0.78232600  1
  F  F6  1  0.53941000  0.01408000  0.28232600  1
  F  F7  1  0.46059000  0.51408000  0.71767400  1
  F  F8  1  0.29613900  0.09914000  0.42682000  1
  F  F9  1  0.70386100  0.59914000  0.57318000  1
  F  F10  1  0.79613900  0.59914000  0.07318000  1
  F  F11  1  0.20386100  0.09914000  0.92682000  1
loop_
_geom_bond_atom_site_label_1
_geom_bond_atom_site_label_2
_geom_bond_distance
_geom_bond_site_symmetry_2
Ga0 O17 1.961712 1_555
Ga0 O8 2.023587 1_555
Ga0 O22 2.029448 1_555
Ga1 O16 1.961712 1_555
Ga1 O9 2.023587 1_555
Ga1 O23 2.029448 1_555
Ga2 O19 1.961712 1_555
Ga2 O10 2.023587 1_455
Ga2 O20 2.029448 1_555
Ga3 O18 1.961712 1_555
Ga3 O11 2.023587 1_655
Ga3 O21 2.029448 1_555
Ga4 O24 1.928896 1_555
Ga4 O6 1.953923 1_555
Ga4 O28 1.984171 1_555
Ga4 O0 2.017037 1_555
Ga5 O25 1.928896 1_555
Ga5 O7 1.953923 1_555
Ga5 O29 1.984171 1_555
Ga5 O1 2.017037 1_565
Ga6 O26 1.928896 1_555
Ga6 O4 1.953923 1_555
Ga6 O30 1.984171 1_555
Ga6 O2 2.017037 1_565
Ga7 O27 1.928896 1_555
Ga7 O5 1.953923 1_555
Ga7 O31 1.984171 1_555
Ga7 O3 2.017037 1_555
O0 P0 1.544307 1_555
O1 P1 1.544307 1_555
O2 P2 1.544307 1_555
O3 P3 1.544307 1_555
O4 P0 1.516447 1_555
O5 P1 1.516447 1_555
O6 P2 1.516447 1_455
O7 P3 1.516447 1_655
O8 P4 1.561480 1_555
O9 P5 1.561480 1_555
O10 P6 1.561480 1_555
O11 P7 1.561480 1_555
O12 P0 1.582447 1_555
O13 P1 1.582447 1_555
O14 P2 1.582447 1_555
O15 P3 1.582447 1_555
O16 P4 1.540405 1_555
O17 P5 1.540405 1_545
O18 P6 1.540405 1_546
O19 P7 1.540405 1_554
O20 P0 1.544440 1_555
O21 P1 1.544440 1_555
O22 P2 1.544440 1_555
O23 P3 1.544440 1_555
O24 P4 1.533108 1_555
O25 P5 1.533108 1_555
O26 P6 1.533108 1_555
O27 P7 1.533108 1_555
O28 P7 1.551097 1_554
O29 P6 1.551097 1_556
O30 P5 1.551097 1_555
O31 P4 1.551097 1_555
F0 Ga4 1.928819 1_555
F0 Ga0 1.943100 1_555
F1 Ga5 1.928819 1_555
F1 Ga1 1.943100 1_555
F2 Ga6 1.928819 1_555
F2 Ga2 1.943100 1_655
F3 Ga7 1.928819 1_555
F3 Ga3 1.943100 1_455
F4 Ga4 1.928188 1_555
F4 Ga2 1.963515 1_555
F5 Ga5 1.928188 1_545
F5 Ga3 1.963515 1_555
F6 Ga6 1.928188 1_545
F6 Ga0 1.963515 1_555
F7 Ga7 1.928188 1_555
F7 Ga1 1.963515 1_555
F8 Ga0 1.853019 1_555
F9 Ga1 1.853019 1_555
F10 Ga2 1.853019 1_655
F11 Ga3 1.853019 1_455
