# generated using pymatgen
data_LaMg11Al
_symmetry_space_group_name_H-M   'P 1'
_cell_length_a   7.81845885
_cell_length_b   7.81845885
_cell_length_c   7.68798729
_cell_angle_alpha   81.53941553
_cell_angle_beta   81.53941553
_cell_angle_gamma   134.76526460
_symmetry_Int_Tables_number   1
_chemical_formula_structural   LaMg11Al
_chemical_formula_sum   'La1 Mg11 Al1'
_cell_volume   308.28211886
_cell_formula_units_Z   1
loop_
 _symmetry_equiv_pos_site_id
 _symmetry_equiv_pos_as_xyz
  1  'x, y, z'
loop_
 _atom_site_type_symbol
 _atom_site_label
 _atom_site_symmetry_multiplicity
 _atom_site_fract_x
 _atom_site_fract_y
 _atom_site_fract_z
 _atom_site_occupancy
  La  La0  1  0.00000000  0.00000000  0.00000000  1
  Mg  Mg0  1  0.71327200  0.50082400  0.78232200  1
  Mg  Mg1  1  0.28672800  0.49917600  0.21767800  1
  Mg  Mg2  1  0.49917600  0.28672800  0.21767800  1
  Mg  Mg3  1  0.50082400  0.71327200  0.78232200  1
  Mg  Mg4  1  0.64954200  0.99579700  0.35237100  1
  Mg  Mg5  1  0.35045800  0.00420300  0.64762900  1
  Mg  Mg6  1  0.00420300  0.35045800  0.64762900  1
  Mg  Mg7  1  0.99579700  0.64954200  0.35237100  1
  Mg  Mg8  1  0.00000000  0.00000000  0.50000000  1
  Mg  Mg9  1  0.50000000  0.00000000  0.00000000  1
  Mg  Mg10  1  0.00000000  0.50000000  0.00000000  1
  Al  Al0  1  0.50000000  0.50000000  0.50000000  1
loop_
_geom_bond_atom_site_label_1
_geom_bond_atom_site_label_2
_geom_bond_distance
_geom_bond_site_symmetry_2
La0 Mg7 3.537015 1_445
La0 Mg5 3.537015 1_554
La0 Mg6 3.537015 1_554
La0 Mg4 3.537015 1_445
La0 Mg2 3.709632 1_555
La0 Mg3 3.709632 1_444
La0 Mg0 3.709632 1_444
La0 Mg1 3.709632 1_555
La0 Mg0 3.715299 1_554
La0 Mg2 3.715299 1_445
La0 Mg1 3.715299 1_445
La0 Mg3 3.715299 1_554
La0 Mg8 3.843994 1_554
La0 Mg8 3.843994 1_555
La0 Mg10 3.909229 1_545
La0 Mg10 3.909229 1_555
La0 Mg9 3.909229 1_455
La0 Mg9 3.909229 1_555
Mg0 Mg8 2.953218 1_665
Mg0 Mg10 2.991206 1_656
Mg0 Mg9 2.994720 1_556
Mg0 Mg7 3.203200 1_555
Mg0 Mg5 3.275688 1_555
Mg0 Mg5 3.323954 1_665
Mg0 Mg6 3.325619 1_655
Mg1 Mg8 2.953218 1_555
Mg1 Mg10 2.991206 1_555
Mg1 Mg9 2.994720 1_565
Mg1 Mg6 3.203200 1_555
Mg1 Mg4 3.275688 1_555
Mg1 Mg4 3.323954 1_445
Mg1 Mg7 3.325619 1_455
Mg2 Mg8 2.953218 1_555
Mg2 Mg9 2.991206 1_555
Mg2 Mg5 3.203200 1_555
Mg2 Mg7 3.275688 1_555
Mg2 Mg7 3.323954 1_445
Mg2 Mg4 3.325619 1_545
Mg3 Mg8 2.953218 1_665
Mg3 Mg9 2.991206 1_566
Mg3 Mg4 3.203200 1_555
Mg3 Mg6 3.275688 1_555
Mg3 Mg6 3.323954 1_665
Mg3 Mg5 3.325619 1_565
Mg4 Mg5 3.053421 1_565
Mg4 Mg8 3.097794 1_665
Mg4 Mg9 3.109152 1_565
Mg5 Mg8 3.097794 1_555
Mg5 Mg9 3.109152 1_556
Mg6 Mg7 3.053421 1_455
Mg6 Mg8 3.097794 1_555
Mg6 Mg9 3.138014 1_456
Mg7 Mg8 3.097794 1_665
Mg7 Mg9 3.138014 1_665
Mg10 Mg2 2.994720 1_455
Mg10 Mg3 2.994720 1_554
Mg10 Mg9 3.006785 1_565
Mg10 Mg9 3.006785 1_455
Mg10 Mg6 3.109152 1_554
Mg10 Mg7 3.109152 1_455
Mg10 Mg4 3.138014 1_445
Mg10 Mg5 3.138014 1_564
Al0 Mg3 2.923258 1_555
Al0 Mg2 2.923258 1_555
Al0 Mg0 2.923258 1_555
Al0 Mg1 2.923258 1_555
Al0 Mg8 3.006785 1_665
Al0 Mg8 3.006785 1_555
Al0 Mg6 3.100502 1_555
Al0 Mg5 3.100502 1_555
Al0 Mg7 3.100502 1_555
Al0 Mg4 3.100502 1_555
Al0 La0 3.869545 1_556
Al0 La0 3.869545 1_665
