# generated using pymatgen
data_Li2SiNiO4
_symmetry_space_group_name_H-M   'P 1'
_cell_length_a   4.97497634
_cell_length_b   8.75253624
_cell_length_c   12.35880084
_cell_angle_alpha   109.11053277
_cell_angle_beta   100.27994009
_cell_angle_gamma   90.67705154
_symmetry_Int_Tables_number   1
_chemical_formula_structural   Li2SiNiO4
_chemical_formula_sum   'Li12 Si6 Ni6 O24'
_cell_volume   498.89696737
_cell_formula_units_Z   6
loop_
 _symmetry_equiv_pos_site_id
 _symmetry_equiv_pos_as_xyz
  1  'x, y, z'
loop_
 _atom_site_type_symbol
 _atom_site_label
 _atom_site_symmetry_multiplicity
 _atom_site_fract_x
 _atom_site_fract_y
 _atom_site_fract_z
 _atom_site_occupancy
  Li  Li0  1  0.19480500  0.51313600  0.58662700  1
  Li  Li1  1  0.69386900  0.01369700  0.58644300  1
  Li  Li2  1  0.67732500  0.80094700  0.92618000  1
  Li  Li3  1  0.17684700  0.30108900  0.92639200  1
  Li  Li4  1  0.00570400  0.55878100  0.24305600  1
  Li  Li5  1  0.50501300  0.05832900  0.24301500  1
  Li  Li6  1  0.24603400  0.70546900  0.07334500  1
  Li  Li7  1  0.74566900  0.20620900  0.07318800  1
  Li  Li8  1  0.27204100  0.93562500  0.74624800  1
  Li  Li9  1  0.77150500  0.43584300  0.74659800  1
  Li  Li10  1  0.10805500  0.98253300  0.42229900  1
  Li  Li11  1  0.60934800  0.48314800  0.42250800  1
  Si  Si0  1  0.24719400  0.24189900  0.66799300  1
  Si  Si1  1  0.74815000  0.74182100  0.66801000  1
  Si  Si2  1  0.56695100  0.76092500  0.33323700  1
  Si  Si3  1  0.06626200  0.26098900  0.33286800  1
  Si  Si4  1  0.67383700  0.50281100  0.00006600  1
  Si  Si5  1  0.17445500  0.00282300  0.99993600  1
  Ni  Ni0  1  0.37744500  0.35109700  0.18502100  1
  Ni  Ni1  1  0.71217700  0.22454300  0.48419500  1
  Ni  Ni2  1  0.70201600  0.14982300  0.82316300  1
  Ni  Ni3  1  0.87612200  0.85111300  0.18375800  1
  Ni  Ni4  1  0.21262500  0.72398100  0.48416200  1
  Ni  Ni5  1  0.20219800  0.64995600  0.82289900  1
  O  O0  1  0.46186100  0.62261800  0.95515500  1
  O  O1  1  0.96182800  0.12250400  0.95523500  1
  O  O2  1  0.41451900  0.57954200  0.30824000  1
  O  O3  1  0.91462400  0.07932700  0.30755500  1
  O  O4  1  0.04694700  0.74114600  0.62552900  1
  O  O5  1  0.54564900  0.24220700  0.62532900  1
  O  O6  1  0.51452900  0.62147600  0.56056300  1
  O  O7  1  0.01367700  0.12154700  0.56048900  1
  O  O8  1  0.99569600  0.32533200  0.22036800  1
  O  O9  1  0.49707100  0.82492800  0.22053600  1
  O  O10  1  0.31246500  0.88852700  0.89200300  1
  O  O11  1  0.81215700  0.38831400  0.89224300  1
  O  O12  1  0.64945500  0.92742300  0.70601200  1
  O  O13  1  0.14687500  0.42708700  0.70625100  1
  O  O14  1  0.90515000  0.75702200  0.36167500  1
  O  O15  1  0.40483100  0.25772900  0.36086200  1
  O  O16  1  0.00279700  0.88616700  0.04990300  1
  O  O17  1  0.50124400  0.38714500  0.05043200  1
  O  O18  1  0.91944000  0.61499500  0.10594200  1
  O  O19  1  0.41992000  0.11493200  0.10594100  1
  O  O20  1  0.45209000  0.88407500  0.44530300  1
  O  O21  1  0.95223400  0.38384900  0.44525600  1
  O  O22  1  0.29464100  0.17269500  0.77891000  1
  O  O23  1  0.79461600  0.67280100  0.77898600  1
loop_
_geom_bond_atom_site_label_1
_geom_bond_atom_site_label_2
_geom_bond_distance
_geom_bond_site_symmetry_2
Li0 O13 1.913227 1_555
Li0 O21 1.926154 1_455
Li0 O6 1.969832 1_555
Li0 O4 2.070651 1_555
Li1 O12 1.909437 1_545
Li1 O20 1.923466 1_545
Li1 O7 1.967298 1_655
Li1 O5 2.075293 1_555
Li2 O16 1.963986 1_656
Li2 O23 1.991509 1_555
Li2 O10 2.008006 1_555
Li2 O0 2.043746 1_555
Li3 O17 1.963195 1_556
Li3 O22 1.996029 1_555
Li3 O11 2.005777 1_455
Li3 O1 2.043517 1_455
Li4 O18 1.894508 1_455
Li4 O8 1.968128 1_455
Li4 O14 2.006666 1_455
Li4 O2 2.032032 1_555
Li5 O19 1.895538 1_555
Li5 O9 1.968386 1_545
Li5 O15 2.007692 1_555
Li5 O3 2.034127 1_555
Li6 O0 1.922754 1_554
Li6 O18 1.959958 1_455
Li6 O9 1.968498 1_555
Li6 O16 2.066337 1_555
Li7 O1 1.922782 1_554
Li7 O19 1.960539 1_555
Li7 O8 1.965440 1_555
Li7 O17 2.069008 1_555
Li8 O10 1.952983 1_555
Li8 O22 1.977602 1_565
Li8 O4 2.018202 1_555
Li8 O12 2.022614 1_555
Li9 O11 1.953537 1_555
Li9 O23 1.977172 1_555
Li9 O13 2.013114 1_655
Li9 O5 2.017888 1_555
Li10 O7 1.885932 1_565
Li10 O20 1.942811 1_555
Li10 O3 1.993401 1_465
Li10 O14 2.047157 1_455
Li11 O6 1.883514 1_555
Li11 O21 1.941182 1_555
Li11 O2 1.989116 1_555
Li11 O15 2.049392 1_555
Ni0 O17 1.987543 1_555
Ni0 O19 2.008419 1_555
Ni0 O8 2.049175 1_455
Ni0 O2 2.061129 1_555
Ni1 O7 2.008812 1_655
Ni1 O5 2.023582 1_555
Ni1 O21 2.051144 1_555
Ni1 O15 2.052855 1_555
Ni2 O1 1.975341 1_555
Ni2 O12 1.990276 1_545
Ni2 O11 2.006359 1_555
Ni2 O22 2.032804 1_555
Ni3 O16 1.981874 1_655
Ni3 O18 2.006343 1_555
Ni3 O9 2.044303 1_555
Ni3 O3 2.062195 1_565
Ni4 O6 2.008172 1_555
Ni4 O4 2.024707 1_555
Ni4 O14 2.045910 1_455
Ni4 O20 2.053957 1_555
Ni5 O0 1.976735 1_555
Ni5 O13 1.990856 1_555
Ni5 O10 2.007115 1_555
Ni5 O23 2.033222 1_455
O0 Si4 1.648672 1_556
O1 Si5 1.648632 1_655
O2 Si2 1.660623 1_555
O3 Si3 1.660365 1_655
O4 Si1 1.661959 1_455
O5 Si0 1.662211 1_555
O6 Si1 1.651680 1_555
O7 Si0 1.651748 1_555
O8 Si3 1.648233 1_655
O9 Si2 1.648447 1_555
O10 Si5 1.649509 1_565
O11 Si4 1.650067 1_556
O12 Si1 1.643841 1_555
O13 Si0 1.643587 1_555
O14 Si2 1.659447 1_555
O15 Si3 1.660491 1_555
O16 Si5 1.653373 1_564
O17 Si4 1.653018 1_555
O18 Si4 1.651965 1_555
O19 Si5 1.652088 1_554
O20 Si2 1.651093 1_555
O21 Si3 1.650782 1_655
O22 Si0 1.653258 1_555
O23 Si1 1.652914 1_555
