# generated using pymatgen
data_Li2Al2FeO6
_symmetry_space_group_name_H-M   'P 1'
_cell_length_a   5.00089485
_cell_length_b   4.92571751
_cell_length_c   19.72716783
_cell_angle_alpha   92.85674070
_cell_angle_beta   95.65375068
_cell_angle_gamma   59.53199440
_symmetry_Int_Tables_number   1
_chemical_formula_structural   Li2Al2FeO6
_chemical_formula_sum   'Li8 Al8 Fe4 O24'
_cell_volume   416.79959875
_cell_formula_units_Z   4
loop_
 _symmetry_equiv_pos_site_id
 _symmetry_equiv_pos_as_xyz
  1  'x, y, z'
loop_
 _atom_site_type_symbol
 _atom_site_label
 _atom_site_symmetry_multiplicity
 _atom_site_fract_x
 _atom_site_fract_y
 _atom_site_fract_z
 _atom_site_occupancy
  Li  Li0  1  0.35964200  0.00178500  0.12478200  1
  Li  Li1  1  0.12418800  0.00144800  0.37493000  1
  Li  Li2  1  0.87525000  0.00131900  0.62511200  1
  Li  Li3  1  0.63798400  0.00238800  0.87522200  1
  Li  Li4  1  0.03560700  0.69102100  0.12429700  1
  Li  Li5  1  0.77442700  0.70175300  0.37493200  1
  Li  Li6  1  0.52445000  0.70076200  0.62511600  1
  Li  Li7  1  0.27463800  0.69089600  0.87557200  1
  Al  Al0  1  0.41752500  0.66407800  0.24999700  1
  Al  Al1  1  0.16787300  0.66439300  0.50004200  1
  Al  Al2  1  0.91807600  0.66430400  0.75002800  1
  Al  Al3  1  0.67038800  0.65848600  0.00003500  1
  Al  Al4  1  0.33462500  0.33045600  0.99999400  1
  Al  Al5  1  0.08990000  0.32019800  0.24993500  1
  Al  Al6  1  0.83998100  0.32029500  0.50002800  1
  Al  Al7  1  0.58983100  0.32028900  0.75004200  1
  Fe  Fe0  1  0.25040600  0.99971100  0.75042400  1
  Fe  Fe1  1  0.99967700  0.99997800  0.99997300  1
  Fe  Fe2  1  0.74993800  0.99921800  0.24951800  1
  Fe  Fe3  1  0.49987400  0.00003200  0.50003800  1
  O  O0  1  0.34628100  0.67116900  0.05215200  1
  O  O1  1  0.09173700  0.66825800  0.30180500  1
  O  O2  1  0.84197000  0.66875400  0.55204400  1
  O  O3  1  0.59178100  0.66926300  0.80228800  1
  O  O4  1  0.73873000  0.66924500  0.19768900  1
  O  O5  1  0.48936600  0.66896600  0.44805000  1
  O  O6  1  0.23965600  0.66857600  0.69818100  1
  O  O7  1  0.98275700  0.67187200  0.94776900  1
  O  O8  1  0.09139800  0.98607400  0.19571800  1
  O  O9  1  0.84170900  0.98649400  0.44583500  1
  O  O10  1  0.59166300  0.98632000  0.69595200  1
  O  O11  1  0.31959200  0.98907000  0.94896800  1
  O  O12  1  0.69106600  0.98940400  0.05097600  1
  O  O13  1  0.42204300  0.98608500  0.30403700  1
  O  O14  1  0.17205400  0.98638300  0.55425100  1
  O  O15  1  0.92241400  0.98618200  0.80425500  1
  O  O16  1  0.02770100  0.33454300  0.05034700  1
  O  O17  1  0.77466500  0.33334600  0.29939700  1
  O  O18  1  0.52499000  0.33392300  0.54974700  1
  O  O19  1  0.27531500  0.33400900  0.80000200  1
  O  O20  1  0.39047600  0.33406300  0.19995700  1
  O  O21  1  0.14133200  0.33400100  0.45035200  1
  O  O22  1  0.89164100  0.33376000  0.70056200  1
  O  O23  1  0.63649900  0.33520800  0.94964900  1
loop_
_geom_bond_atom_site_label_1
_geom_bond_atom_site_label_2
_geom_bond_distance
_geom_bond_site_symmetry_2
Li0 O8 2.061473 1_545
Li0 O0 2.137363 1_545
Li0 O16 2.144458 1_555
Li0 O20 2.206987 1_555
Li0 O4 2.212252 1_545
Li0 O12 2.287959 1_545
Li1 O9 2.112495 1_445
Li1 O13 2.113268 1_545
Li1 O21 2.186020 1_555
Li1 O17 2.186305 1_455
Li1 O5 2.186605 1_545
Li1 O1 2.188334 1_545
Li2 O14 2.109604 1_645
Li2 O10 2.115819 1_545
Li2 O22 2.184645 1_555
Li2 O6 2.184945 1_645
Li2 O18 2.186800 1_555
Li2 O2 2.186938 1_545
Li3 O15 2.062915 1_545
Li3 O7 2.137958 1_545
Li3 O23 2.143176 1_555
Li3 O19 2.206007 1_555
Li3 O3 2.213509 1_545
Li3 O11 2.286446 1_545
Li4 O8 2.074804 1_555
Li4 O12 2.091357 1_455
Li4 O0 2.171788 1_555
Li4 O4 2.216385 1_455
Li4 O16 2.239790 1_555
Li4 O20 2.245882 1_555
Li5 O9 2.055986 1_555
Li5 O13 2.056616 1_555
Li5 O1 2.188181 1_655
Li5 O5 2.191049 1_555
Li5 O21 2.285112 1_655
Li5 O17 2.289547 1_555
Li6 O10 2.057946 1_555
Li6 O14 2.058060 1_555
Li6 O6 2.187995 1_555
Li6 O2 2.190577 1_555
Li6 O18 2.281169 1_555
Li6 O22 2.284368 1_555
Li7 O15 2.077274 1_455
Li7 O11 2.088737 1_555
Li7 O7 2.174742 1_455
Li7 O3 2.209475 1_555
Li7 O23 2.235780 1_555
Li7 O19 2.246436 1_555
Al0 O13 1.875047 1_555
Al0 O8 1.877232 1_555
Al0 O17 1.912630 1_555
Al0 O20 1.916230 1_555
Al0 O1 1.997829 1_555
Al0 O4 2.004083 1_555
Al1 O14 1.876084 1_555
Al1 O9 1.876779 1_455
Al1 O21 1.913475 1_555
Al1 O18 1.914833 1_555
Al1 O2 2.000208 1_455
Al1 O5 2.000320 1_555
Al2 O10 1.875718 1_555
Al2 O15 1.876119 1_555
Al2 O22 1.911839 1_555
Al2 O19 1.917221 1_655
Al2 O6 1.998342 1_655
Al2 O3 2.003654 1_555
Al3 O23 1.906590 1_554
Al3 O16 1.908160 1_655
Al3 O11 1.913723 1_554
Al3 O12 1.914334 1_555
Al3 O0 1.976678 1_555
Al3 O7 1.983997 1_554
Al4 O23 1.897236 1_555
Al4 O16 1.900019 1_556
Al4 O12 1.946650 1_546
Al4 O11 1.947086 1_545
Al4 O0 1.947794 1_556
Al4 O7 1.949480 1_455
Al5 O17 1.906498 1_455
Al5 O20 1.907613 1_555
Al5 O13 1.913146 1_545
Al5 O8 1.914749 1_545
Al5 O1 1.955939 1_555
Al5 O4 1.964789 1_455
Al6 O21 1.907033 1_655
Al6 O18 1.907485 1_555
Al6 O9 1.912752 1_545
Al6 O14 1.913802 1_645
Al6 O2 1.959298 1_555
Al6 O5 1.960319 1_555
Al7 O22 1.906179 1_555
Al7 O19 1.908090 1_555
Al7 O10 1.912194 1_545
Al7 O15 1.915092 1_545
Al7 O6 1.957488 1_555
Al7 O3 1.963561 1_555
Fe0 O3 1.901185 1_555
Fe0 O6 1.906804 1_555
Fe0 O19 1.925364 1_565
Fe0 O22 1.927107 1_465
Fe0 O15 2.069705 1_455
Fe0 O10 2.076447 1_555
Fe1 O7 1.906646 1_555
Fe1 O0 1.911759 1_656
Fe1 O16 1.940748 1_666
Fe1 O23 1.943605 1_565
Fe1 O12 1.946692 1_556
Fe1 O11 1.949221 1_655
Fe2 O4 1.898881 1_555
Fe2 O1 1.907253 1_655
Fe2 O17 1.926969 1_565
Fe2 O20 1.927538 1_565
Fe2 O8 2.069935 1_655
Fe2 O13 2.076470 1_555
Fe3 O5 1.903537 1_545
Fe3 O2 1.905794 1_545
Fe3 O21 1.924847 1_555
Fe3 O18 1.925287 1_555
Fe3 O14 2.073714 1_545
Fe3 O9 2.075466 1_545
