# generated using pymatgen
data_CeAl7Au3
_symmetry_space_group_name_H-M   'P 1'
_cell_length_a   8.49398332
_cell_length_b   8.49398332
_cell_length_c   8.49398392
_cell_angle_alpha   57.48517071
_cell_angle_beta   57.48517071
_cell_angle_gamma   57.48517311
_symmetry_Int_Tables_number   1
_chemical_formula_structural   CeAl7Au3
_chemical_formula_sum   'Ce2 Al14 Au6'
_cell_volume   408.26485237
_cell_formula_units_Z   2
loop_
 _symmetry_equiv_pos_site_id
 _symmetry_equiv_pos_as_xyz
  1  'x, y, z'
loop_
 _atom_site_type_symbol
 _atom_site_label
 _atom_site_symmetry_multiplicity
 _atom_site_fract_x
 _atom_site_fract_y
 _atom_site_fract_z
 _atom_site_occupancy
  Ce  Ce0  1  0.50000000  0.50000000  0.50000000  1
  Ce  Ce1  1  0.00000000  0.00000000  0.00000000  1
  Al  Al0  1  0.43095600  0.64740500  0.83072200  1
  Al  Al1  1  0.83072200  0.43095600  0.64740500  1
  Al  Al2  1  0.64740500  0.83072200  0.43095600  1
  Al  Al3  1  0.06904400  0.66927800  0.85259500  1
  Al  Al4  1  0.85259500  0.06904400  0.66927800  1
  Al  Al5  1  0.66927800  0.85259500  0.06904400  1
  Al  Al6  1  0.56904400  0.35259500  0.16927800  1
  Al  Al7  1  0.16927800  0.56904400  0.35259500  1
  Al  Al8  1  0.25000000  0.25000000  0.25000000  1
  Al  Al9  1  0.75000000  0.75000000  0.75000000  1
  Al  Al10  1  0.33072200  0.14740500  0.93095600  1
  Al  Al11  1  0.14740500  0.93095600  0.33072200  1
  Al  Al12  1  0.93095600  0.33072200  0.14740500  1
  Al  Al13  1  0.35259500  0.16927800  0.56904400  1
  Au  Au0  1  0.75000000  0.07029500  0.42970500  1
  Au  Au1  1  0.42970500  0.75000000  0.07029500  1
  Au  Au2  1  0.07029500  0.42970500  0.75000000  1
  Au  Au3  1  0.25000000  0.92970500  0.57029500  1
  Au  Au4  1  0.57029500  0.25000000  0.92970500  1
  Au  Au5  1  0.92970500  0.57029500  0.25000000  1
loop_
_geom_bond_atom_site_label_1
_geom_bond_atom_site_label_2
_geom_bond_distance
_geom_bond_site_symmetry_2
Al0 Au1 2.602622 1_556
Al0 Au3 2.645034 1_555
Al0 Au4 2.688098 1_555
Al0 Ce0 3.320176 1_555
Al0 Ce1 3.409109 1_566
Al1 Au2 2.602621 1_655
Al1 Au4 2.645033 1_555
Al1 Au5 2.688098 1_555
Al1 Ce0 3.320176 1_555
Al1 Ce1 3.409109 1_656
Al2 Au0 2.602621 1_565
Al2 Au5 2.645034 1_555
Al2 Au3 2.688098 1_555
Al2 Ce0 3.320176 1_555
Al2 Ce1 3.409109 1_665
Al3 Au2 2.602621 1_555
Al3 Au3 2.645033 1_555
Al3 Au5 2.688098 1_456
Al3 Ce1 3.320176 1_566
Al3 Ce0 3.409109 1_555
Al4 Au0 2.602622 1_555
Al4 Au4 2.645034 1_555
Al4 Au3 2.688098 1_645
Al4 Ce1 3.320176 1_656
Al4 Ce0 3.409109 1_555
Al5 Au1 2.602621 1_555
Al5 Au5 2.645034 1_555
Al5 Au4 2.688098 1_564
Al5 Ce1 3.320176 1_665
Al5 Ce0 3.409109 1_555
Al6 Au4 2.602622 1_554
Al6 Au0 2.645034 1_555
Al6 Au1 2.688098 1_555
Al6 Ce0 3.320176 1_555
Al6 Ce1 3.409109 1_655
Al7 Au5 2.602621 1_455
Al7 Au1 2.645033 1_555
Al7 Au2 2.688098 1_555
Al7 Ce0 3.320176 1_555
Al7 Ce1 3.409109 1_565
Al8 Au3 2.616520 1_545
Al8 Au4 2.616520 1_554
Al8 Au5 2.616520 1_455
Al9 Au1 2.616520 1_556
Al9 Au0 2.616520 1_565
Al9 Au2 2.616520 1_655
Al10 Au4 2.602621 1_555
Al10 Au2 2.645034 1_555
Al10 Au1 2.688098 1_546
Al10 Ce1 3.320176 1_556
Al10 Ce0 3.409109 1_555
Al11 Au3 2.602622 1_555
Al11 Au1 2.645034 1_555
Al11 Au0 2.688098 1_465
Al11 Ce1 3.320176 1_565
Al11 Ce0 3.409109 1_555
Al12 Au5 2.602621 1_555
Al12 Au0 2.645033 1_555
Al12 Au2 2.688098 1_654
Al12 Ce1 3.320176 1_655
Al12 Ce0 3.409109 1_555
Al13 Au3 2.602621 1_545
Al13 Au2 2.645034 1_555
Al13 Au0 2.688098 1_555
Al13 Ce0 3.320176 1_555
Al13 Ce1 3.409109 1_556
Au0 Ce0 3.291689 1_555
Au0 Ce1 3.291690 1_655
Au1 Ce1 3.291689 1_565
Au1 Ce0 3.291690 1_555
Au2 Ce1 3.291689 1_556
Au2 Ce0 3.291689 1_555
Au3 Ce0 3.291689 1_555
Au3 Ce1 3.291690 1_566
Au4 Ce1 3.291689 1_656
Au4 Ce0 3.291690 1_555
Au5 Ce1 3.291689 1_665
Au5 Ce0 3.291689 1_555
