# generated using pymatgen
data_Cs2WS4
_symmetry_space_group_name_H-M   'P 1'
_cell_length_a   7.32813509
_cell_length_b   10.22410355
_cell_length_c   12.96988337
_cell_angle_alpha   90.00000000
_cell_angle_beta   90.00000000
_cell_angle_gamma   90.00000000
_symmetry_Int_Tables_number   1
_chemical_formula_structural   Cs2WS4
_chemical_formula_sum   'Cs8 W4 S16'
_cell_volume   971.75050915
_cell_formula_units_Z   4
loop_
 _symmetry_equiv_pos_site_id
 _symmetry_equiv_pos_as_xyz
  1  'x, y, z'
loop_
 _atom_site_type_symbol
 _atom_site_label
 _atom_site_symmetry_multiplicity
 _atom_site_fract_x
 _atom_site_fract_y
 _atom_site_fract_z
 _atom_site_occupancy
  Cs  Cs0  1  0.25000000  0.84461664  0.10388376  1
  Cs  Cs1  1  0.75000000  0.15538336  0.89611624  1
  Cs  Cs2  1  0.25000000  0.34461664  0.39611624  1
  Cs  Cs3  1  0.75000000  0.65538336  0.60388376  1
  Cs  Cs4  1  0.25000000  0.53532289  0.82811399  1
  Cs  Cs5  1  0.75000000  0.46467711  0.17188601  1
  Cs  Cs6  1  0.25000000  0.03532289  0.67188601  1
  Cs  Cs7  1  0.75000000  0.96467711  0.32811399  1
  W  W0  1  0.25000000  0.75350295  0.42356813  1
  W  W1  1  0.75000000  0.24649705  0.57643187  1
  W  W2  1  0.25000000  0.25350295  0.07643187  1
  W  W3  1  0.75000000  0.74649705  0.92356813  1
  S  S0  1  0.50667500  0.33395389  0.64633470  1
  S  S1  1  0.00667500  0.66604611  0.35366530  1
  S  S2  1  0.99332500  0.83395389  0.85366530  1
  S  S3  1  0.49332500  0.16604611  0.14633470  1
  S  S4  1  0.49332500  0.66604611  0.35366530  1
  S  S5  1  0.99332500  0.33395389  0.64633470  1
  S  S6  1  0.00667500  0.16604611  0.14633470  1
  S  S7  1  0.50667500  0.83395389  0.85366530  1
  S  S8  1  0.25000000  0.96589115  0.39617933  1
  S  S9  1  0.75000000  0.03410885  0.60382067  1
  S  S10  1  0.25000000  0.46589115  0.10382067  1
  S  S11  1  0.75000000  0.53410885  0.89617933  1
  S  S12  1  0.75000000  0.78830024  0.08962184  1
  S  S13  1  0.25000000  0.21169976  0.91037816  1
  S  S14  1  0.75000000  0.28830024  0.41037816  1
  S  S15  1  0.25000000  0.71169976  0.58962184  1
loop_
_geom_bond_atom_site_label_1
_geom_bond_atom_site_label_2
_geom_bond_distance
_geom_bond_site_symmetry_2
Cs0 S12 3.713642 1_455
Cs0 S12 3.713642 1_555
Cs0 S7 3.752580 1_554
Cs0 S2 3.752580 1_454
Cs0 S6 3.779234 1_565
Cs0 S3 3.779234 1_565
Cs0 S10 3.872129 1_555
Cs0 S8 3.988658 1_555
Cs0 S4 4.124079 1_555
Cs0 S1 4.124079 1_555
Cs1 S13 3.713642 1_555
Cs1 S13 3.713642 1_655
Cs1 S3 3.752580 1_556
Cs1 S6 3.752580 1_656
Cs1 S7 3.779234 1_545
Cs1 S2 3.779234 1_545
Cs1 S11 3.872129 1_555
Cs1 S9 3.988658 1_555
Cs1 S0 4.124079 1_555
Cs1 S5 4.124079 1_555
Cs2 S14 3.713642 1_555
Cs2 S14 3.713642 1_455
Cs2 S5 3.752580 1_455
Cs2 S0 3.752580 1_555
Cs2 S4 3.779234 1_555
Cs2 S1 3.779234 1_555
Cs2 S8 3.872129 1_545
Cs2 S10 3.988658 1_555
Cs2 S6 4.124079 1_555
Cs2 S3 4.124079 1_555
Cs3 S15 3.713642 1_655
Cs3 S15 3.713642 1_555
Cs3 S4 3.752580 1_555
Cs3 S1 3.752580 1_655
Cs3 S5 3.779234 1_555
Cs3 S0 3.779234 1_555
Cs3 S9 3.872129 1_565
Cs3 S11 3.988658 1_555
Cs3 S7 4.124079 1_555
Cs3 S2 4.124079 1_555
Cs4 S13 3.476531 1_555
Cs4 S15 3.580483 1_555
Cs4 S7 3.601393 1_555
Cs4 S2 3.601393 1_455
Cs4 S10 3.645664 1_556
Cs4 S0 3.651745 1_555
Cs4 S5 3.651745 1_455
Cs4 S11 3.768936 1_455
Cs4 S11 3.768936 1_555
Cs5 S12 3.476531 1_555
Cs5 S14 3.580483 1_555
Cs5 S3 3.601393 1_555
Cs5 S6 3.601393 1_655
Cs5 S11 3.645664 1_554
Cs5 S4 3.651745 1_555
Cs5 S1 3.651745 1_655
Cs5 S10 3.768936 1_555
Cs5 S10 3.768936 1_655
Cs6 S15 3.476531 1_545
Cs6 S13 3.580483 1_555
Cs6 S5 3.601393 1_455
Cs6 S0 3.601393 1_555
Cs6 S8 3.645664 1_545
Cs6 S7 3.651745 1_545
Cs6 S2 3.651745 1_445
Cs6 S9 3.768936 1_455
Cs6 S9 3.768936 1_555
Cs7 S14 3.476531 1_565
Cs7 S12 3.580483 1_555
Cs7 S4 3.601393 1_555
Cs7 S1 3.601393 1_655
Cs7 S9 3.645664 1_565
Cs7 S6 3.651745 1_665
Cs7 S3 3.651745 1_565
Cs7 S8 3.768936 1_555
Cs7 S8 3.768936 1_655
S0 W1 2.191125 1_555
S1 W0 2.191125 1_555
S2 W3 2.191125 1_555
S3 W2 2.191125 1_555
S4 W0 2.191125 1_555
S5 W1 2.191125 1_555
S6 W2 2.191125 1_555
S7 W3 2.191125 1_555
S8 W0 2.200343 1_555
S9 W1 2.200343 1_555
S10 W2 2.200343 1_555
S11 W3 2.200343 1_555
S12 W3 2.195696 1_554
S13 W2 2.195696 1_556
S14 W1 2.195696 1_555
S15 W0 2.195696 1_555
