# generated using pymatgen
data_USnIr
_symmetry_space_group_name_H-M   'P 1'
_cell_length_a   7.39044986
_cell_length_b   7.38988082
_cell_length_c   4.07219169
_cell_angle_alpha   90.00000000
_cell_angle_beta   90.00000000
_cell_angle_gamma   120.00229007
_symmetry_Int_Tables_number   1
_chemical_formula_structural   USnIr
_chemical_formula_sum   'U3 Sn3 Ir3'
_cell_volume   192.60037650
_cell_formula_units_Z   3
loop_
 _symmetry_equiv_pos_site_id
 _symmetry_equiv_pos_as_xyz
  1  'x, y, z'
loop_
 _atom_site_type_symbol
 _atom_site_label
 _atom_site_symmetry_multiplicity
 _atom_site_fract_x
 _atom_site_fract_y
 _atom_site_fract_z
 _atom_site_occupancy
  U  U0  1  0.42344432  0.42350108  0.50000000  1
  U  U1  1  0.57653518  0.00000610  0.50000000  1
  U  U2  1  -0.00005094  0.57650028  0.50000000  1
  Sn  Sn0  1  0.75047146  0.75045170  0.00000000  1
  Sn  Sn1  1  0.24953544  0.00000602  0.00000000  1
  Sn  Sn2  1  0.00003080  0.24953320  -0.00000000  1
  Ir  Ir0  1  0.66664893  0.33332926  -0.00000000  1
  Ir  Ir1  1  0.33334547  0.66667391  -0.00000000  1
  Ir  Ir2  1  0.00003934  0.99999945  0.50000000  1
loop_
_geom_bond_atom_site_label_1
_geom_bond_atom_site_label_2
_geom_bond_distance
_geom_bond_site_symmetry_2
Sn0 U0 3.159868 1_555
Sn0 U0 3.159868 1_554
Sn0 Sn2 3.193960 1_665
Sn0 Sn1 3.194094 1_665
Sn0 U2 3.401152 1_655
Sn0 U2 3.401152 1_654
Sn0 U1 3.401455 1_565
Sn0 U1 3.401455 1_564
Sn1 U1 3.160064 1_554
Sn1 U1 3.160064 1_555
Sn1 Sn2 3.193876 1_555
Sn1 U0 3.401358 1_555
Sn1 U0 3.401358 1_554
Sn1 U2 3.401411 1_544
Sn1 U2 3.401411 1_545
Sn2 U2 3.159968 1_555
Sn2 U2 3.159968 1_554
Sn2 U0 3.401066 1_555
Sn2 U0 3.401066 1_554
Sn2 U1 3.401471 1_454
Sn2 U1 3.401471 1_455
Ir0 Sn0 2.824144 1_555
Ir0 Sn1 2.824258 1_555
Ir0 Sn2 2.824854 1_655
Ir0 U2 3.002615 1_655
Ir0 U2 3.002615 1_654
Ir0 U1 3.002681 1_555
Ir0 U1 3.002681 1_554
Ir0 U0 3.003020 1_555
Ir0 U0 3.003020 1_554
Ir1 Sn2 2.824276 1_555
Ir1 Sn1 2.824406 1_565
Ir1 Sn0 2.824526 1_555
Ir1 U0 3.002501 1_555
Ir1 U0 3.002501 1_554
Ir1 U1 3.002692 1_565
Ir1 U1 3.002692 1_564
Ir1 U2 3.003126 1_555
Ir1 U2 3.003126 1_554
Ir2 Sn1 2.746911 1_566
Ir2 Sn1 2.746911 1_565
Ir2 Sn2 2.747040 1_565
Ir2 Sn2 2.747040 1_566
Ir2 Sn0 2.747143 1_455
Ir2 Sn0 2.747143 1_456
Ir2 U2 3.129275 1_555
Ir2 U0 3.129282 1_565
Ir2 U1 3.129911 1_465
