# generated using pymatgen
data_Sr14Nb6O29
_symmetry_space_group_name_H-M   'P 1'
_cell_length_a   6.04881600
_cell_length_b   6.07196660
_cell_length_c   24.90252391
_cell_angle_alpha   86.91233356
_cell_angle_beta   84.92621587
_cell_angle_gamma   61.35957060
_symmetry_Int_Tables_number   1
_chemical_formula_structural   Sr14Nb6O29
_chemical_formula_sum   'Sr14 Nb6 O29'
_cell_volume   799.50191230
_cell_formula_units_Z   1
loop_
 _symmetry_equiv_pos_site_id
 _symmetry_equiv_pos_as_xyz
  1  'x, y, z'
loop_
 _atom_site_type_symbol
 _atom_site_label
 _atom_site_symmetry_multiplicity
 _atom_site_fract_x
 _atom_site_fract_y
 _atom_site_fract_z
 _atom_site_occupancy
  Sr  Sr0  1  0.07269200  0.42692400  0.06958100  1
  Sr  Sr1  1  0.43240800  0.71587100  0.23832300  1
  Sr  Sr2  1  0.42370900  0.78987400  0.10034900  1
  Sr  Sr3  1  0.77780000  0.08756900  0.16467500  1
  Sr  Sr4  1  0.75661100  0.16412500  0.46632700  1
  Sr  Sr5  1  0.77347300  0.04557900  0.30702600  1
  Sr  Sr6  1  0.10197600  0.41094800  0.34563500  1
  Sr  Sr7  1  0.74623000  0.66930300  0.68092900  1
  Sr  Sr8  1  0.95801600  0.03991200  0.84296600  1
  Sr  Sr9  1  0.05557300  0.00914600  0.70052500  1
  Sr  Sr10  1  0.36653600  0.91501500  0.54677800  1
  Sr  Sr11  1  0.32930300  0.36902900  0.77718900  1
  Sr  Sr12  1  0.30533400  0.34666200  0.91627300  1
  Sr  Sr13  1  0.64876400  0.68757800  0.94135300  1
  Nb  Nb0  1  0.94325500  0.98703300  0.00129900  1
  Nb  Nb1  1  0.12328700  0.54959300  0.50345600  1
  Nb  Nb2  1  0.10314700  0.40332700  0.20544200  1
  Nb  Nb3  1  0.40812200  0.35455300  0.62115700  1
  Nb  Nb4  1  0.39969000  0.71461100  0.39419300  1
  Nb  Nb5  1  0.65649400  0.69487700  0.80964700  1
  O  O0  1  0.99694400  0.28120100  0.97794000  1
  O  O1  1  0.34141200  0.16245600  0.14489000  1
  O  O2  1  0.79276200  0.52016100  0.15769300  1
  O  O3  1  0.73390000  0.83238400  0.03438600  1
  O  O4  1  0.86845800  0.64389800  0.26399700  1
  O  O5  1  0.97597100  0.07574100  0.07422500  1
  O  O6  1  0.40524700  0.29377000  0.25148600  1
  O  O7  1  0.17764500  0.66384400  0.16675100  1
  O  O8  1  0.69303400  0.40255900  0.37520900  1
  O  O9  1  0.22396300  0.75738500  0.33057800  1
  O  O10  1  0.02979000  0.13138500  0.23626700  1
  O  O11  1  0.45401000  0.99587200  0.38336700  1
  O  O12  1  0.07453100  0.27296100  0.48862600  1
  O  O13  1  0.79632500  0.79220600  0.52108100  1
  O  O14  1  0.43928700  0.27177400  0.54172000  1
  O  O15  1  0.06655200  0.70397300  0.42487500  1
  O  O16  1  0.15624500  0.66969000  0.58258700  1
  O  O17  1  0.42123100  0.63067700  0.47368200  1
  O  O18  1  0.72174500  0.32673300  0.63478900  1
  O  O19  1  0.90485400  0.38026700  0.76408200  1
  O  O20  1  0.39311500  0.75977100  0.75875200  1
  O  O21  1  0.39779900  0.04464900  0.63941200  1
  O  O22  1  0.75100600  0.93092900  0.76212300  1
  O  O23  1  0.20419000  0.53440500  0.68347700  1
  O  O24  1  0.95415300  0.61521200  0.85581300  1
  O  O25  1  0.25593800  0.68464600  0.98964300  1
  O  O26  1  0.74717900  0.05004700  0.93890300  1
  O  O27  1  0.56195300  0.46872800  0.85579000  1
  O  O28  1  0.40786400  0.98748700  0.85715100  1
loop_
_geom_bond_atom_site_label_1
_geom_bond_atom_site_label_2
_geom_bond_distance
_geom_bond_site_symmetry_2
Nb0 O25 1.914160 1_654
Nb0 O26 1.947897 1_564
Nb0 O5 1.974441 1_565
Nb0 O3 2.009061 1_555
Nb0 O0 2.011217 1_564
Nb1 O13 1.843203 1_455
Nb1 O12 1.898873 1_555
Nb1 O15 2.106795 1_555
Nb1 O14 2.113097 1_555
Nb1 O17 2.148256 1_555
Nb1 O16 2.195057 1_555
Nb2 O10 2.004556 1_555
Nb2 O7 2.018909 1_555
Nb2 O4 2.037332 1_455
Nb2 O6 2.054160 1_555
Nb2 O1 2.079060 1_555
Nb2 O2 2.114055 1_455
Nb3 O18 1.882313 1_555
Nb3 O23 1.917107 1_555
Nb3 O21 1.940854 1_555
Nb3 O14 2.037572 1_555
Nb3 O16 2.042400 1_555
Nb4 O11 1.889417 1_555
Nb4 O8 1.920227 1_555
Nb4 O9 1.922440 1_555
Nb4 O17 2.017009 1_555
Nb4 O15 2.120302 1_555
Nb5 O27 1.999889 1_555
Nb5 O20 2.000309 1_555
Nb5 O28 2.041612 1_555
Nb5 O22 2.065153 1_555
Nb5 O24 2.066094 1_555
Nb5 O19 2.091542 1_555
O0 Sr12 2.476748 1_655
O0 Sr13 2.543571 1_555
O0 Sr0 2.644222 1_656
O1 Sr2 2.385205 1_545
O1 Sr0 2.539763 1_555
O1 Sr3 2.544102 1_555
O2 Sr2 2.551836 1_555
O2 Sr0 2.561225 1_655
O2 Sr3 2.667170 1_555
O2 Sr1 2.682311 1_555
O3 Sr2 2.481695 1_555
O3 Sr0 2.505526 1_655
O3 Sr13 2.696327 1_554
O4 Sr5 2.501257 1_565
O4 Sr6 2.532156 1_655
O4 Sr1 2.592259 1_555
O5 Sr3 2.443937 1_555
O5 Sr0 2.461717 1_655
O5 Sr2 2.540565 1_645
O6 Sr5 2.499527 1_555
O6 Sr1 2.647064 1_555
O6 Sr6 2.745187 1_555
O6 Sr3 2.836282 1_555
O7 Sr2 2.460786 1_555
O7 Sr3 2.552329 1_465
O7 Sr1 2.581538 1_555
O7 Sr0 3.138475 1_555
O8 Sr6 2.541313 1_655
O8 Sr4 2.580563 1_555
O8 Sr5 2.656577 1_555
O9 Sr1 2.485277 1_555
O9 Sr5 2.536228 1_465
O9 Sr6 2.542445 1_555
O10 Sr5 2.443848 1_455
O10 Sr1 2.533193 1_545
O10 Sr3 2.548145 1_455
O11 Sr6 2.592938 1_565
O11 Sr5 2.699405 1_565
O12 Sr4 2.426897 1_455
O12 Sr10 2.524671 1_545
O13 Sr10 2.371255 1_555
O13 Sr4 2.494570 1_565
O14 Sr10 2.403474 1_545
O14 Sr4 2.434846 1_555
O15 Sr6 2.653938 1_555
O15 Sr4 2.708118 1_465
O16 Sr10 2.470788 1_555
O17 Sr10 2.467408 1_555
O17 Sr4 2.579778 1_555
O18 Sr7 2.500348 1_555
O18 Sr9 2.643413 1_655
O19 Sr9 2.563934 1_655
O19 Sr7 2.575707 1_555
O19 Sr11 2.584702 1_655
O19 Sr8 2.696401 1_555
O20 Sr9 2.426399 1_565
O20 Sr11 2.591926 1_555
O20 Sr7 2.622499 1_555
O20 Sr8 3.055240 1_465
O21 Sr7 2.496405 1_545
O21 Sr10 2.528284 1_545
O21 Sr9 2.546159 1_555
O22 Sr9 2.496583 1_665
O22 Sr7 2.648208 1_555
O22 Sr11 2.675292 1_565
O22 Sr8 2.728093 1_565
O23 Sr7 2.489753 1_455
O23 Sr11 2.521606 1_555
O23 Sr9 2.622597 1_565
O24 Sr12 2.533547 1_655
O24 Sr8 2.592390 1_565
O24 Sr13 2.601865 1_555
O24 Sr11 2.737708 1_655
O25 Sr13 2.573959 1_555
O25 Sr12 2.712705 1_555
O25 Sr0 2.928664 1_556
O25 Sr2 3.216295 1_556
O26 Sr12 2.499406 1_555
O26 Sr13 2.537152 1_545
O26 Sr8 2.596069 1_555
O27 Sr12 2.407586 1_555
O27 Sr8 2.568166 1_555
O27 Sr11 2.758557 1_555
O27 Sr13 2.784500 1_555
O28 Sr12 2.489253 1_565
O28 Sr8 2.637760 1_465
O28 Sr13 2.724258 1_555
O28 Sr11 2.858866 1_565
