# generated using pymatgen
data_Li7Mn2(CoO4)3
_symmetry_space_group_name_H-M   'P 1'
_cell_length_a   2.92144400
_cell_length_b   5.11362900
_cell_length_c   14.36303047
_cell_angle_alpha   88.89574063
_cell_angle_beta   90.00000000
_cell_angle_gamma   90.00000000
_symmetry_Int_Tables_number   1
_chemical_formula_structural   Li7Mn2(CoO4)3
_chemical_formula_sum   'Li7 Mn2 Co3 O12'
_cell_volume   214.53205864
_cell_formula_units_Z   1
loop_
 _symmetry_equiv_pos_site_id
 _symmetry_equiv_pos_as_xyz
  1  'x, y, z'
loop_
 _atom_site_type_symbol
 _atom_site_label
 _atom_site_symmetry_multiplicity
 _atom_site_fract_x
 _atom_site_fract_y
 _atom_site_fract_z
 _atom_site_occupancy
  Li  Li0  1  0.50000000  0.15129800  0.84624000  1
  Li  Li1  1  0.50000000  0.84870200  0.15376000  1
  Li  Li2  1  0.50000000  0.50000000  0.50000000  1
  Li  Li3  1  0.00000000  0.65970700  0.84510900  1
  Li  Li4  1  0.00000000  0.34029300  0.15489100  1
  Li  Li5  1  0.00000000  0.00000000  0.50000000  1
  Li  Li6  1  0.00000000  0.00000000  0.00000000  1
  Mn  Mn0  1  0.00000000  0.32910800  0.66807800  1
  Mn  Mn1  1  0.00000000  0.67089200  0.33192200  1
  Co  Co0  1  0.50000000  0.82927000  0.66985100  1
  Co  Co1  1  0.50000000  0.50000000  0.00000000  1
  Co  Co2  1  0.50000000  0.17073000  0.33014900  1
  O  O0  1  0.50000000  0.46513000  0.74272500  1
  O  O1  1  0.50000000  0.21184800  0.07453700  1
  O  O2  1  0.50000000  0.81176700  0.40961600  1
  O  O3  1  0.00000000  0.01355300  0.74344000  1
  O  O4  1  0.00000000  0.65455300  0.07382600  1
  O  O5  1  0.00000000  0.35037500  0.40660200  1
  O  O6  1  0.50000000  0.78815200  0.92546300  1
  O  O7  1  0.50000000  0.53487000  0.25727500  1
  O  O8  1  0.50000000  0.18823300  0.59038400  1
  O  O9  1  0.00000000  0.34544700  0.92617400  1
  O  O10  1  0.00000000  0.98644700  0.25656000  1
  O  O11  1  0.00000000  0.64962500  0.59339800  1
loop_
_geom_bond_atom_site_label_1
_geom_bond_atom_site_label_2
_geom_bond_distance
_geom_bond_site_symmetry_2
Li0 O9 2.116938 1_655
Li0 O9 2.116938 1_555
Li0 O6 2.159111 1_545
Li0 O0 2.166570 1_555
Li0 O3 2.202283 1_555
Li0 O3 2.202283 1_655
Li1 O4 2.116938 1_555
Li1 O4 2.116938 1_655
Li1 O1 2.159111 1_565
Li1 O7 2.166570 1_555
Li1 O10 2.202283 1_555
Li1 O10 2.202283 1_655
Li2 O2 2.036465 1_555
Li2 O8 2.036465 1_555
Li2 O5 2.135007 1_655
Li2 O5 2.135007 1_555
Li2 O11 2.135007 1_655
Li2 O11 2.135007 1_555
Li3 O9 1.966226 1_555
Li3 O6 1.981502 1_555
Li3 O6 1.981502 1_455
Li3 O3 2.303177 1_565
Li3 O0 2.311411 1_455
Li3 O0 2.311411 1_555
Li4 O4 1.966226 1_555
Li4 O1 1.981502 1_455
Li4 O1 1.981502 1_555
Li4 O10 2.303177 1_545
Li4 O7 2.311411 1_455
Li4 O7 2.311411 1_555
Li5 O2 2.189446 1_545
Li5 O8 2.189446 1_455
Li5 O8 2.189446 1_555
Li5 O2 2.189446 1_445
Li5 O5 2.217447 1_555
Li5 O11 2.217447 1_545
Li6 O4 2.042708 1_545
Li6 O9 2.042708 1_554
Li6 O6 2.120875 1_444
Li6 O6 2.120875 1_544
Li6 O1 2.120875 1_555
Li6 O1 2.120875 1_455
Mn0 O3 1.925651 1_555
Mn0 O11 1.941421 1_555
Mn0 O0 1.948278 1_555
Mn0 O0 1.948278 1_455
Mn0 O8 1.982152 1_455
Mn0 O8 1.982152 1_555
Mn1 O10 1.925651 1_555
Mn1 O5 1.941421 1_555
Mn1 O7 1.948278 1_555
Mn1 O7 1.948278 1_455
Mn1 O2 1.982152 1_455
Mn1 O2 1.982152 1_555
Co0 O3 2.043844 1_565
Co0 O3 2.043844 1_665
Co0 O11 2.054824 1_555
Co0 O11 2.054824 1_655
Co0 O0 2.118436 1_555
Co0 O8 2.142767 1_565
Co1 O6 1.804589 1_554
Co1 O1 1.804589 1_555
Co1 O9 1.978636 1_654
Co1 O9 1.978636 1_554
Co1 O4 1.978636 1_555
Co1 O4 1.978636 1_655
Co2 O10 2.043844 1_545
Co2 O10 2.043844 1_645
Co2 O5 2.054824 1_655
Co2 O5 2.054824 1_555
Co2 O7 2.118436 1_555
Co2 O2 2.142767 1_545
