# generated using pymatgen
data_KNaMg14O15
_symmetry_space_group_name_H-M   'P 1'
_cell_length_a   8.64272590
_cell_length_b   8.77859061
_cell_length_c   4.41136530
_cell_angle_alpha   90.00000000
_cell_angle_beta   90.00000000
_cell_angle_gamma   90.00000000
_symmetry_Int_Tables_number   1
_chemical_formula_structural   KNaMg14O15
_chemical_formula_sum   'K1 Na1 Mg14 O15'
_cell_volume   334.69448683
_cell_formula_units_Z   1
loop_
 _symmetry_equiv_pos_site_id
 _symmetry_equiv_pos_as_xyz
  1  'x, y, z'
loop_
 _atom_site_type_symbol
 _atom_site_label
 _atom_site_symmetry_multiplicity
 _atom_site_fract_x
 _atom_site_fract_y
 _atom_site_fract_z
 _atom_site_occupancy
  K  K0  1  0.98695080  0.00000000  0.00000000  1
  Na  Na0  1  0.99213498  0.50000000  0.00000000  1
  Mg  Mg0  1  0.49797697  0.00000000  0.00000000  1
  Mg  Mg1  1  0.51619434  0.50000000  0.00000000  1
  Mg  Mg2  1  0.00644301  0.25274403  0.50000000  1
  Mg  Mg3  1  0.00644301  0.74725597  0.50000000  1
  Mg  Mg4  1  0.49748156  0.25312701  0.50000000  1
  Mg  Mg5  1  0.49748156  0.74687299  0.50000000  1
  Mg  Mg6  1  0.24947165  0.00000000  0.50000000  1
  Mg  Mg7  1  0.24187439  0.50000000  0.50000000  1
  Mg  Mg8  1  0.74652030  0.00000000  0.50000000  1
  Mg  Mg9  1  0.76557923  0.50000000  0.50000000  1
  Mg  Mg10  1  0.24536455  0.22397027  0.00000000  1
  Mg  Mg11  1  0.24536455  0.77602973  0.00000000  1
  Mg  Mg12  1  0.75638112  0.25397596  -0.00000000  1
  Mg  Mg13  1  0.75638112  0.74602404  -0.00000000  1
  O  O0  1  0.27371858  0.00000000  0.00000000  1
  O  O1  1  0.71856585  0.00000000  0.00000000  1
  O  O2  1  0.73882390  0.50000000  0.00000000  1
  O  O3  1  0.25300686  0.25823874  0.50000000  1
  O  O4  1  0.25300686  0.74176126  0.50000000  1
  O  O5  1  0.74967854  0.25329666  0.50000000  1
  O  O6  1  0.74967854  0.74670334  0.50000000  1
  O  O7  1  0.01302493  0.00000000  0.50000000  1
  O  O8  1  0.01128206  0.50000000  0.50000000  1
  O  O9  1  0.49600053  0.00000000  0.50000000  1
  O  O10  1  0.48195866  0.50000000  0.50000000  1
  O  O11  1  0.01538358  0.26543326  0.00000000  1
  O  O12  1  0.01538358  0.73456674  0.00000000  1
  O  O13  1  0.48622220  0.26610268  0.00000000  1
  O  O14  1  0.48622220  0.73389732  0.00000000  1
loop_
_geom_bond_atom_site_label_1
_geom_bond_atom_site_label_2
_geom_bond_distance
_geom_bond_site_symmetry_2
K0 O7 2.217165 1_654
K0 O7 2.217165 1_655
K0 O1 2.319578 1_555
K0 O12 2.343052 1_645
K0 O11 2.343052 1_655
K0 O0 2.478455 1_655
Na0 O11 2.068945 1_655
Na0 O12 2.068945 1_655
Na0 O2 2.189298 1_555
Na0 O8 2.211882 1_655
Na0 O8 2.211882 1_654
Mg0 O1 1.906489 1_555
Mg0 O0 1.938204 1_555
Mg0 O9 2.205749 1_554
Mg0 O9 2.205749 1_555
Mg0 O13 2.338215 1_555
Mg0 O14 2.338215 1_545
Mg1 O2 1.924126 1_555
Mg1 O14 2.069564 1_555
Mg1 O13 2.069564 1_555
Mg1 O10 2.225441 1_554
Mg1 O10 2.225441 1_555
Mg2 O3 2.131530 1_555
Mg2 O8 2.170962 1_555
Mg2 O11 2.209845 1_556
Mg2 O11 2.209845 1_555
Mg2 O5 2.219150 1_455
Mg2 O7 2.219465 1_555
Mg3 O4 2.131530 1_555
Mg3 O8 2.170962 1_555
Mg3 O12 2.209845 1_556
Mg3 O12 2.209845 1_555
Mg3 O6 2.219150 1_455
Mg3 O7 2.219465 1_565
Mg4 O3 2.113404 1_555
Mg4 O10 2.171346 1_555
Mg4 O5 2.179670 1_555
Mg4 O13 2.210765 1_555
Mg4 O13 2.210765 1_556
Mg4 O9 2.222135 1_555
Mg5 O4 2.113404 1_555
Mg5 O10 2.171346 1_555
Mg5 O6 2.179670 1_555
Mg5 O14 2.210765 1_556
Mg5 O14 2.210765 1_555
Mg5 O9 2.222135 1_565
Mg6 O7 2.043544 1_555
Mg6 O9 2.130682 1_555
Mg6 O0 2.215615 1_555
Mg6 O0 2.215615 1_556
Mg6 O4 2.267178 1_545
Mg6 O3 2.267178 1_555
Mg7 O8 1.992946 1_555
Mg7 O10 2.074983 1_555
Mg7 O3 2.124503 1_555
Mg7 O4 2.124503 1_555
Mg8 O9 2.165174 1_555
Mg8 O1 2.218875 1_555
Mg8 O1 2.218875 1_556
Mg8 O6 2.223755 1_545
Mg8 O5 2.223755 1_555
Mg8 O7 2.303326 1_655
Mg9 O8 2.123542 1_655
Mg9 O5 2.170063 1_555
Mg9 O6 2.170063 1_555
Mg9 O2 2.217771 1_556
Mg9 O2 2.217771 1_555
Mg9 O10 2.451255 1_555
Mg10 O0 1.981356 1_555
Mg10 O11 2.020715 1_555
Mg10 O13 2.114269 1_555
Mg10 O3 2.227083 1_554
Mg10 O3 2.227083 1_555
Mg11 O0 1.981356 1_565
Mg11 O12 2.020715 1_555
Mg11 O14 2.114269 1_555
Mg11 O4 2.227083 1_554
Mg11 O4 2.227083 1_555
Mg12 O2 2.165068 1_555
Mg12 O5 2.206451 1_555
Mg12 O5 2.206451 1_554
Mg12 O11 2.240746 1_655
Mg12 O1 2.253378 1_555
Mg12 O13 2.337335 1_555
Mg13 O2 2.165068 1_555
Mg13 O6 2.206451 1_555
Mg13 O6 2.206451 1_554
Mg13 O12 2.240746 1_655
Mg13 O1 2.253378 1_565
Mg13 O14 2.337335 1_555
