# generated using pymatgen
data_Sr2V11NiO22
_symmetry_space_group_name_H-M   'P 1'
_cell_length_a   5.91043333
_cell_length_b   5.91043333
_cell_length_c   13.22695500
_cell_angle_alpha   90.00000000
_cell_angle_beta   90.00000000
_cell_angle_gamma   119.39593290
_symmetry_Int_Tables_number   1
_chemical_formula_structural   Sr2V11NiO22
_chemical_formula_sum   'Sr2 V11 Ni1 O22'
_cell_volume   402.56929090
_cell_formula_units_Z   1
loop_
 _symmetry_equiv_pos_site_id
 _symmetry_equiv_pos_as_xyz
  1  'x, y, z'
loop_
 _atom_site_type_symbol
 _atom_site_label
 _atom_site_symmetry_multiplicity
 _atom_site_fract_x
 _atom_site_fract_y
 _atom_site_fract_z
 _atom_site_occupancy
  Sr  Sr0  1  0.33444200  0.66555800  0.00000000  1
  Sr  Sr1  1  0.66452000  0.33548000  0.50000000  1
  V  V0  1  0.00013600  0.50165600  0.24913700  1
  V  V1  1  0.49740300  0.50259700  0.25143500  1
  V  V2  1  0.49834400  0.99986400  0.24913700  1
  V  V3  1  0.00013600  0.50165600  0.75086300  1
  V  V4  1  0.49740300  0.50259700  0.74856500  1
  V  V5  1  0.49834400  0.99986400  0.75086300  1
  V  V6  1  0.00317900  0.99682100  0.10692600  1
  V  V7  1  0.99493200  0.00506800  0.39900100  1
  V  V8  1  0.99493200  0.00506800  0.60099900  1
  V  V9  1  0.00317900  0.99682100  0.89307400  1
  V  V10  1  0.66885800  0.33114200  0.00000000  1
  Ni  Ni0  1  0.33392500  0.66607500  0.50000000  1
  O  O0  1  0.33939700  0.66060300  0.66518400  1
  O  O1  1  0.66207900  0.33792100  0.83947800  1
  O  O2  1  0.66207900  0.33792100  0.16052200  1
  O  O3  1  0.33939700  0.66060300  0.33481600  1
  O  O4  1  0.64754600  0.81860500  0.16873800  1
  O  O5  1  0.17544900  0.82455100  0.16684600  1
  O  O6  1  0.18139500  0.35245400  0.16873800  1
  O  O7  1  0.34717800  0.17812900  0.33164700  1
  O  O8  1  0.83316800  0.16683200  0.33343200  1
  O  O9  1  0.82187100  0.65282200  0.33164700  1
  O  O10  1  0.34717800  0.17812900  0.66835300  1
  O  O11  1  0.83316800  0.16683200  0.66656800  1
  O  O12  1  0.82187100  0.65282200  0.66835300  1
  O  O13  1  0.64754600  0.81860500  0.83126200  1
  O  O14  1  0.17544900  0.82455100  0.83315400  1
  O  O15  1  0.18139500  0.35245400  0.83126200  1
  O  O16  1  0.71142000  0.85340600  0.50000000  1
  O  O17  1  0.14099600  0.85900400  0.50000000  1
  O  O18  1  0.14659400  0.28858000  0.50000000  1
  O  O19  1  0.30827600  0.15931600  0.00000000  1
  O  O20  1  0.84612800  0.15387200  0.00000000  1
  O  O21  1  0.84068400  0.69172400  0.00000000  1
loop_
_geom_bond_atom_site_label_1
_geom_bond_atom_site_label_2
_geom_bond_distance
_geom_bond_site_symmetry_2
Ni0 O18 1.943932 1_555
Ni0 O16 1.943932 1_555
Ni0 O17 1.969009 1_555
Ni0 O0 2.185595 1_555
Ni0 O3 2.185595 1_555
O0 V4 1.953658 1_555
O0 V3 2.082872 1_555
O0 V5 2.082872 1_555
O1 V4 2.066552 1_555
O1 V5 2.098672 1_545
O1 V3 2.098672 1_655
O1 V10 2.124344 1_556
O2 V1 2.066552 1_555
O2 V2 2.098672 1_545
O2 V0 2.098672 1_655
O2 V10 2.124344 1_555
O3 V1 1.953658 1_555
O3 V0 2.082872 1_555
O3 V2 2.082872 1_555
O4 V1 1.960952 1_555
O4 V2 1.995923 1_555
O4 V6 2.005650 1_655
O4 Sr0 2.753345 1_555
O5 V6 1.928548 1_555
O5 V0 1.989803 1_555
O5 V2 1.989803 1_555
O5 Sr0 2.739212 1_555
O6 V1 1.960952 1_555
O6 V0 1.995923 1_555
O6 V6 2.005650 1_545
O6 Sr0 2.753345 1_555
O7 V1 1.979944 1_555
O7 V2 2.005884 1_545
O7 V7 2.020848 1_455
O7 Sr1 2.762087 1_555
O8 V7 1.864882 1_555
O8 V2 2.053320 1_545
O8 V0 2.053320 1_655
O8 Sr1 2.795812 1_555
O9 V1 1.979944 1_555
O9 V0 2.005884 1_655
O9 V7 2.020848 1_565
O9 Sr1 2.762087 1_555
O10 V4 1.979944 1_555
O10 V5 2.005884 1_545
O10 V8 2.020848 1_455
O10 Sr1 2.762087 1_555
O11 V8 1.864882 1_555
O11 V5 2.053320 1_545
O11 V3 2.053320 1_655
O11 Sr1 2.795812 1_555
O12 V4 1.979944 1_555
O12 V3 2.005884 1_655
O12 V8 2.020848 1_565
O12 Sr1 2.762087 1_555
O13 V4 1.960952 1_555
O13 V5 1.995923 1_555
O13 V9 2.005650 1_655
O13 Sr0 2.753345 1_556
O14 V9 1.928548 1_555
O14 V3 1.989803 1_555
O14 V5 1.989803 1_555
O14 Sr0 2.739212 1_556
O15 V4 1.960952 1_555
O15 V3 1.995923 1_555
O15 V9 2.005650 1_545
O15 Sr0 2.753345 1_556
O16 V8 1.980282 1_565
O16 V7 1.980282 1_565
O16 Sr1 2.935059 1_555
O16 Sr1 2.995080 1_565
O17 V8 2.001717 1_465
O17 V7 2.001717 1_465
O17 Sr1 2.991807 1_455
O17 Sr1 2.991807 1_565
O18 V8 1.980282 1_455
O18 V7 1.980282 1_455
O18 Sr1 2.935059 1_555
O18 Sr1 2.995080 1_455
O19 V10 1.857052 1_555
O19 V6 2.115239 1_545
O19 V9 2.115239 1_544
O19 Sr0 2.919311 1_555
O19 Sr0 2.997264 1_545
O20 V10 1.809195 1_555
O20 V6 2.137607 1_645
O20 V9 2.137607 1_644
O20 Sr0 2.984542 1_655
O20 Sr0 2.984542 1_545
O21 V10 1.857052 1_555
O21 V6 2.115239 1_655
O21 V9 2.115239 1_654
O21 Sr0 2.919311 1_555
O21 Sr0 2.997264 1_655
