# generated using pymatgen
data_LaMgAg
_symmetry_space_group_name_H-M   'P 1'
_cell_length_a   7.87265519
_cell_length_b   7.87265519
_cell_length_c   4.38341233
_cell_angle_alpha   90.00000000
_cell_angle_beta   90.00000000
_cell_angle_gamma   120.00000124
_symmetry_Int_Tables_number   1
_chemical_formula_structural   LaMgAg
_chemical_formula_sum   'La3 Mg3 Ag3'
_cell_volume   235.28021685
_cell_formula_units_Z   3
loop_
 _symmetry_equiv_pos_site_id
 _symmetry_equiv_pos_as_xyz
  1  'x, y, z'
loop_
 _atom_site_type_symbol
 _atom_site_label
 _atom_site_symmetry_multiplicity
 _atom_site_fract_x
 _atom_site_fract_y
 _atom_site_fract_z
 _atom_site_occupancy
  La  La0  1  0.41832832  0.41832832  0.50000000  1
  La  La1  1  0.58167168  0.00000000  0.50000000  1
  La  La2  1  0.00000000  0.58167168  0.50000000  1
  Mg  Mg0  1  0.76597877  0.76597877  -0.00000000  1
  Mg  Mg1  1  0.23402123  0.00000000  0.00000000  1
  Mg  Mg2  1  0.00000000  0.23402123  -0.00000000  1
  Ag  Ag0  1  0.66666700  0.33333300  -0.00000000  1
  Ag  Ag1  1  0.33333300  0.66666700  0.00000000  1
  Ag  Ag2  1  -0.00000000  -0.00000000  0.50000000  1
loop_
_geom_bond_atom_site_label_1
_geom_bond_atom_site_label_2
_geom_bond_distance
_geom_bond_site_symmetry_2
Ag0 Mg2 3.090231 1_655
Ag0 Mg1 3.090237 1_555
Ag0 Mg0 3.090239 1_555
Ag0 La1 3.222090 1_554
Ag0 La1 3.222090 1_555
Ag0 La2 3.222092 1_655
Ag0 La2 3.222092 1_654
Ag0 La0 3.222096 1_554
Ag0 La0 3.222096 1_555
Ag1 Mg1 3.090231 1_565
Ag1 Mg2 3.090237 1_555
Ag1 Mg0 3.090239 1_555
Ag1 La2 3.222090 1_555
Ag1 La2 3.222090 1_554
Ag1 La1 3.222092 1_565
Ag1 La1 3.222092 1_564
Ag1 La0 3.222096 1_554
Ag1 La0 3.222096 1_555
Ag2 Mg0 2.863197 1_446
Ag2 Mg0 2.863197 1_445
Ag2 Mg1 2.863197 1_556
Ag2 Mg2 2.863197 1_556
Ag2 Mg2 2.863197 1_555
Ag2 Mg1 2.863197 1_555
Ag2 La0 3.293355 1_555
Ag2 La1 3.293355 1_455
Ag2 La2 3.293355 1_545
