# generated using pymatgen
data_Ca3Fe2O7
_symmetry_space_group_name_H-M   'P 1'
_cell_length_a   5.28716875
_cell_length_b   5.32380688
_cell_length_c   10.00261259
_cell_angle_alpha   105.43043187
_cell_angle_beta   90.00021772
_cell_angle_gamma   90.00003472
_symmetry_Int_Tables_number   1
_chemical_formula_structural   Ca3Fe2O7
_chemical_formula_sum   'Ca6 Fe4 O14'
_cell_volume   271.40342442
_cell_formula_units_Z   2
loop_
 _symmetry_equiv_pos_site_id
 _symmetry_equiv_pos_as_xyz
  1  'x, y, z'
loop_
 _atom_site_type_symbol
 _atom_site_label
 _atom_site_symmetry_multiplicity
 _atom_site_fract_x
 _atom_site_fract_y
 _atom_site_fract_z
 _atom_site_occupancy
  Ca  Ca0  1  0.72685411  0.75335463  0.00000036  1
  Ca  Ca1  1  0.22685013  0.24663818  0.99999275  1
  Ca  Ca2  1  0.76891719  0.57582739  0.62976161  1
  Ca  Ca3  1  0.26893264  0.42417550  0.37025053  1
  Ca  Ca4  1  0.76896120  0.94600502  0.37023710  1
  Ca  Ca5  1  0.26894250  0.05400313  0.62977754  1
  Fe  Fe0  1  0.75126902  0.35026544  0.19698239  1
  Fe  Fe1  1  0.25126223  0.64973194  0.80302123  1
  Fe  Fe2  1  0.25128313  0.84675310  0.19718453  1
  Fe  Fe3  1  0.75127941  0.15325304  0.80281914  1
  O  O0  1  0.74589236  0.01085273  0.60587874  1
  O  O1  1  0.24588851  0.98915830  0.39413575  1
  O  O2  1  0.24594164  0.59510362  0.60605033  1
  O  O3  1  0.74593852  0.40489830  0.39396046  1
  O  O4  1  0.02687802  0.36760988  0.78668139  1
  O  O5  1  0.52690059  0.63239532  0.21331154  1
  O  O6  1  0.52679110  0.41923285  0.78670691  1
  O  O7  1  0.02680721  0.58074570  0.21328369  1
  O  O8  1  0.97521799  0.88734312  0.82586672  1
  O  O9  1  0.47521960  0.11266958  0.17412767  1
  O  O10  1  0.75684054  0.30239033  0.00008962  1
  O  O11  1  0.25683610  0.69759687  0.99988809  1
  O  O12  1  0.97514500  0.06161027  0.17411858  1
  O  O13  1  0.47515228  0.93838476  0.82587633  1
loop_
_geom_bond_atom_site_label_1
_geom_bond_atom_site_label_2
_geom_bond_distance
_geom_bond_site_symmetry_2
Ca0 O10 2.406313 1_555
Ca0 O8 2.434789 1_554
Ca0 O12 2.434923 1_565
Ca0 O11 2.502696 1_554
Ca0 O13 2.586082 1_554
Ca0 O9 2.586504 1_565
Ca0 O6 2.610609 1_554
Ca0 O5 2.610758 1_555
Ca0 O11 2.817752 1_654
Ca0 O10 2.927019 1_565
Ca0 O7 2.992339 1_655
Ca0 O4 2.992457 1_654
Ca1 O11 2.406324 1_555
Ca1 O9 2.434757 1_556
Ca1 O13 2.434948 1_545
Ca1 O10 2.502653 1_456
Ca1 O12 2.586104 1_456
Ca1 O8 2.586424 1_445
Ca1 O7 2.610523 1_556
Ca1 O4 2.610823 1_555
Ca1 O10 2.817798 1_556
Ca1 O11 2.927008 1_545
Ca1 O6 2.992295 1_555
Ca1 O5 2.992553 1_556
Ca2 O3 2.294303 1_555
Ca2 O6 2.344090 1_555
Ca2 O0 2.393766 1_565
Ca2 O8 2.461052 1_555
Ca2 O2 2.537868 1_655
Ca2 O4 2.545290 1_655
Ca2 O2 2.779440 1_555
Ca2 O13 2.823344 1_555
Ca2 O0 2.955754 1_555
Ca3 O2 2.294295 1_555
Ca3 O7 2.344178 1_555
Ca3 O1 2.393737 1_545
Ca3 O9 2.461112 1_555
Ca3 O3 2.537767 1_555
Ca3 O5 2.545464 1_555
Ca3 O3 2.779538 1_455
Ca3 O12 2.823510 1_455
Ca3 O1 2.955797 1_555
Ca4 O0 2.292738 1_565
Ca4 O5 2.344086 1_555
Ca4 O3 2.393986 1_565
Ca4 O12 2.461284 1_565
Ca4 O1 2.537546 1_655
Ca4 O7 2.545599 1_655
Ca4 O1 2.780126 1_555
Ca4 O9 2.823713 1_565
Ca4 O3 2.955266 1_555
Ca5 O1 2.292737 1_545
Ca5 O4 2.343992 1_555
Ca5 O2 2.394007 1_545
Ca5 O13 2.461200 1_545
Ca5 O0 2.537665 1_555
Ca5 O6 2.545405 1_555
Ca5 O0 2.780005 1_455
Ca5 O8 2.823501 1_445
Ca5 O2 2.955241 1_555
Fe0 O7 1.883624 1_655
Fe0 O5 1.886637 1_555
Fe0 O12 1.904717 1_555
Fe0 O9 1.904885 1_555
Fe0 O3 1.913767 1_555
Fe0 O10 1.917660 1_555
Fe1 O6 1.883640 1_555
Fe1 O4 1.886642 1_555
Fe1 O13 1.904759 1_555
Fe1 O8 1.904923 1_455
Fe1 O2 1.913698 1_555
Fe1 O11 1.917410 1_555
Fe2 O5 1.884106 1_555
Fe2 O7 1.887173 1_555
Fe2 O9 1.906026 1_565
Fe2 O12 1.906213 1_465
Fe2 O1 1.913588 1_555
Fe2 O11 1.921493 1_554
Fe3 O4 1.884052 1_655
Fe3 O6 1.887138 1_555
Fe3 O8 1.905976 1_545
Fe3 O13 1.906181 1_545
Fe3 O0 1.913484 1_555
Fe3 O10 1.921241 1_556
