# generated using pymatgen
data_Yb2In5Au3
_symmetry_space_group_name_H-M   'P 1'
_cell_length_a   3.82049700
_cell_length_b   8.23548600
_cell_length_c   15.17508973
_cell_angle_alpha   90.00000000
_cell_angle_beta   97.23161063
_cell_angle_gamma   90.00000000
_symmetry_Int_Tables_number   1
_chemical_formula_structural   Yb2In5Au3
_chemical_formula_sum   'Yb4 In10 Au6'
_cell_volume   473.66567368
_cell_formula_units_Z   2
loop_
 _symmetry_equiv_pos_site_id
 _symmetry_equiv_pos_as_xyz
  1  'x, y, z'
loop_
 _atom_site_type_symbol
 _atom_site_label
 _atom_site_symmetry_multiplicity
 _atom_site_fract_x
 _atom_site_fract_y
 _atom_site_fract_z
 _atom_site_occupancy
  Yb  Yb0  1  0.82494600  0.28491900  0.64989100  1
  Yb  Yb1  1  0.17505400  0.78491900  0.35010900  1
  Yb  Yb2  1  0.52534500  0.19719400  0.05069000  1
  Yb  Yb3  1  0.47465500  0.69719400  0.94931000  1
  In  In0  1  0.12135500  0.25262300  0.24271000  1
  In  In1  1  0.87864500  0.75262300  0.75729000  1
  In  In2  1  0.70441600  0.07848500  0.40883200  1
  In  In3  1  0.29558400  0.57848500  0.59116800  1
  In  In4  1  0.40067100  0.08957100  0.80134200  1
  In  In5  1  0.59932900  0.58957100  0.19865800  1
  In  In6  1  0.05168900  0.86867800  0.10337800  1
  In  In7  1  0.94831100  0.36867800  0.89662200  1
  In  In8  1  0.70146300  0.48382100  0.40292600  1
  In  In9  1  0.29853700  0.98382100  0.59707400  1
  Au  Au0  1  0.96455700  0.99680800  0.92911300  1
  Au  Au1  1  0.03544300  0.49680800  0.07088700  1
  Au  Au2  1  0.24307600  0.28347000  0.48615300  1
  Au  Au3  1  0.75692400  0.78347000  0.51384700  1
  Au  Au4  1  0.61327200  0.97839300  0.22654500  1
  Au  Au5  1  0.38672800  0.47839300  0.77345500  1
loop_
_geom_bond_atom_site_label_1
_geom_bond_atom_site_label_2
_geom_bond_distance
_geom_bond_site_symmetry_2
In0 Yb2 3.494827 1_455
In0 Yb2 3.494827 1_555
In1 Yb3 3.494827 1_655
In1 Yb3 3.494827 1_555
In2 Yb1 3.205564 1_645
In2 Yb1 3.205566 1_545
In3 Yb0 3.205564 1_455
In3 Yb0 3.205566 1_555
In4 Yb0 3.381662 1_455
In4 Yb0 3.381664 1_555
In5 Yb1 3.381662 1_655
In5 Yb1 3.381664 1_555
In6 Yb3 3.320108 1_454
In6 Yb3 3.320108 1_554
In6 Yb2 3.405563 1_465
In6 Yb2 3.405563 1_565
In7 Yb2 3.320108 1_656
In7 Yb2 3.320108 1_556
In7 Yb3 3.405563 1_655
In7 Yb3 3.405563 1_555
In8 Yb1 3.229570 1_655
In8 Yb1 3.229572 1_555
In9 Yb0 3.229570 1_465
In9 Yb0 3.229572 1_565
Au0 In4 2.816480 1_665
Au0 In4 2.816483 1_565
Au0 In6 2.827715 1_656
Au0 In7 3.101345 1_565
Au0 Yb2 3.118065 1_666
Au0 Yb2 3.118067 1_566
Au0 Yb3 3.135264 1_655
Au0 Yb3 3.135267 1_555
Au0 In1 3.276432 1_555
Au1 In5 2.816480 1_455
Au1 In5 2.816483 1_555
Au1 In7 2.827715 1_454
Au1 In6 3.101345 1_555
Au1 Yb3 3.118065 1_454
Au1 Yb3 3.118067 1_554
Au1 Yb2 3.135264 1_455
Au1 Yb2 3.135267 1_555
Au1 In0 3.276432 1_555
Au2 In2 2.802470 1_455
Au2 In2 2.802473 1_555
Au2 In8 2.818038 1_455
Au2 In8 2.818040 1_555
Au2 In3 2.898668 1_555
Au2 In9 2.979631 1_545
Au2 Yb0 3.118537 1_455
Au2 Yb0 3.118542 1_555
Au3 In3 2.802470 1_655
Au3 In3 2.802473 1_555
Au3 In9 2.818038 1_655
Au3 In9 2.818040 1_555
Au3 In2 2.898668 1_565
Au3 In8 2.979631 1_555
Au3 Yb1 3.118537 1_655
Au3 Yb1 3.118542 1_555
Au4 In6 2.811321 1_555
Au4 In6 2.811323 1_655
Au4 In2 2.865346 1_565
Au4 In0 2.967947 1_565
Au4 In0 2.967950 1_665
Au4 Yb1 3.106137 1_655
Au4 Yb1 3.106137 1_555
Au4 Yb2 3.202440 1_565
Au4 In5 3.229542 1_555
Au5 In7 2.811321 1_555
Au5 In7 2.811323 1_455
Au5 In3 2.865346 1_555
Au5 In1 2.967947 1_555
Au5 In1 2.967950 1_455
Au5 Yb0 3.106137 1_455
Au5 Yb0 3.106137 1_555
Au5 Yb3 3.202440 1_555
Au5 In4 3.229542 1_555
