# generated using pymatgen
data_Sr4Cu2MoWO12
_symmetry_space_group_name_H-M   'P 1'
_cell_length_a   5.50830000
_cell_length_b   5.50830000
_cell_length_c   8.51596700
_cell_angle_alpha   90.00000000
_cell_angle_beta   90.00000000
_cell_angle_gamma   90.00000000
_symmetry_Int_Tables_number   1
_chemical_formula_structural   Sr4Cu2MoWO12
_chemical_formula_sum   'Sr4 Cu2 Mo1 W1 O12'
_cell_volume   258.38609620
_cell_formula_units_Z   1
loop_
 _symmetry_equiv_pos_site_id
 _symmetry_equiv_pos_as_xyz
  1  'x, y, z'
loop_
 _atom_site_type_symbol
 _atom_site_label
 _atom_site_symmetry_multiplicity
 _atom_site_fract_x
 _atom_site_fract_y
 _atom_site_fract_z
 _atom_site_occupancy
  Sr  Sr0  1  0.50000000  0.00000000  0.25105200  1
  Sr  Sr1  1  0.00000000  0.50000000  0.74894800  1
  Sr  Sr2  1  0.00000000  0.50000000  0.25105200  1
  Sr  Sr3  1  0.50000000  0.00000000  0.74894800  1
  Cu  Cu0  1  0.50000000  0.50000000  0.00000000  1
  Cu  Cu1  1  0.00000000  0.00000000  0.50000000  1
  Mo  Mo0  1  0.50000000  0.50000000  0.50000000  1
  W  W0  1  0.00000000  0.00000000  0.00000000  1
  O  O0  1  0.00000000  0.00000000  0.22935800  1
  O  O1  1  0.50000000  0.50000000  0.72892000  1
  O  O2  1  0.50000000  0.50000000  0.27108000  1
  O  O3  1  0.00000000  0.00000000  0.77064200  1
  O  O4  1  0.70347200  0.78995200  0.50000000  1
  O  O5  1  0.20290600  0.29030100  0.00000000  1
  O  O6  1  0.79709400  0.70969900  0.00000000  1
  O  O7  1  0.29652800  0.21004800  0.50000000  1
  O  O8  1  0.70969900  0.20290600  0.00000000  1
  O  O9  1  0.21004800  0.70347200  0.50000000  1
  O  O10  1  0.78995200  0.29652800  0.50000000  1
  O  O11  1  0.29030100  0.79709400  0.00000000  1
loop_
_geom_bond_atom_site_label_1
_geom_bond_atom_site_label_2
_geom_bond_distance
_geom_bond_site_symmetry_2
Cu0 O6 2.003072 1_555
Cu0 O8 2.003072 1_555
Cu0 O5 2.003072 1_555
Cu0 O11 2.003072 1_555
Cu0 O1 2.308508 1_554
Cu0 O2 2.308508 1_555
Cu1 O4 2.001636 1_445
Cu1 O10 2.001636 1_455
Cu1 O7 2.001636 1_555
Cu1 O9 2.001636 1_545
Cu1 O0 2.304778 1_555
Cu1 O3 2.304778 1_555
Mo0 O2 1.949475 1_555
Mo0 O1 1.949475 1_555
Mo0 O7 1.951159 1_555
Mo0 O4 1.951159 1_555
Mo0 O10 1.951159 1_555
Mo0 O9 1.951159 1_555
O0 W0 1.953205 1_555
O0 Sr2 2.760339 1_545
O0 Sr2 2.760339 1_555
O0 Sr0 2.760339 1_455
O0 Sr0 2.760339 1_555
O1 Sr1 2.759426 1_655
O1 Sr1 2.759426 1_555
O1 Sr3 2.759426 1_565
O1 Sr3 2.759426 1_555
O2 Sr0 2.759426 1_565
O2 Sr2 2.759426 1_555
O2 Sr2 2.759426 1_655
O2 Sr0 2.759426 1_555
O3 W0 1.953205 1_556
O3 Sr1 2.760339 1_555
O3 Sr3 2.760339 1_555
O3 Sr3 2.760339 1_455
O3 Sr1 2.760339 1_545
O4 Sr3 2.662586 1_565
O4 Sr0 2.662586 1_565
O5 W0 1.950946 1_555
O5 Sr2 2.674740 1_555
O5 Sr1 2.674740 1_554
O6 W0 1.950946 1_665
O6 Sr2 2.674740 1_655
O6 Sr1 2.674740 1_654
O7 Sr3 2.662586 1_555
O7 Sr0 2.662586 1_555
O8 W0 1.950946 1_655
O8 Sr0 2.674740 1_555
O8 Sr3 2.674740 1_554
O9 Sr1 2.662586 1_555
O9 Sr2 2.662586 1_555
O10 Sr1 2.662586 1_655
O10 Sr2 2.662586 1_655
O11 W0 1.950946 1_565
O11 Sr0 2.674740 1_565
O11 Sr3 2.674740 1_564
