# generated using pymatgen
data_Yb(Al4Co)2
_symmetry_space_group_name_H-M   'P 1'
_cell_length_a   3.96464500
_cell_length_b   12.42794500
_cell_length_c   14.41908000
_cell_angle_alpha   90.00000000
_cell_angle_beta   90.00000000
_cell_angle_gamma   90.00000000
_symmetry_Int_Tables_number   1
_chemical_formula_structural   Yb(Al4Co)2
_chemical_formula_sum   'Yb4 Al32 Co8'
_cell_volume   710.46253327
_cell_formula_units_Z   4
loop_
 _symmetry_equiv_pos_site_id
 _symmetry_equiv_pos_as_xyz
  1  'x, y, z'
loop_
 _atom_site_type_symbol
 _atom_site_label
 _atom_site_symmetry_multiplicity
 _atom_site_fract_x
 _atom_site_fract_y
 _atom_site_fract_z
 _atom_site_occupancy
  Yb  Yb0  1  0.00000000  0.15914300  0.81876900  1
  Yb  Yb1  1  0.00000000  0.84085700  0.18123100  1
  Yb  Yb2  1  0.00000000  0.65914300  0.68123100  1
  Yb  Yb3  1  0.00000000  0.34085700  0.31876900  1
  Al  Al0  1  0.50000000  0.02455800  0.13273000  1
  Al  Al1  1  0.50000000  0.97544200  0.86727000  1
  Al  Al2  1  0.50000000  0.52455800  0.36727000  1
  Al  Al3  1  0.50000000  0.47544200  0.63273000  1
  Al  Al4  1  0.50000000  0.16810100  0.99227500  1
  Al  Al5  1  0.50000000  0.83189900  0.00772500  1
  Al  Al6  1  0.50000000  0.66810100  0.50772500  1
  Al  Al7  1  0.50000000  0.33189900  0.49227500  1
  Al  Al8  1  0.50000000  0.16077800  0.38000700  1
  Al  Al9  1  0.50000000  0.83922200  0.61999300  1
  Al  Al10  1  0.50000000  0.66077800  0.11999300  1
  Al  Al11  1  0.50000000  0.33922200  0.88000700  1
  Al  Al12  1  0.50000000  0.23571200  0.17411100  1
  Al  Al13  1  0.50000000  0.76428800  0.82588900  1
  Al  Al14  1  0.50000000  0.73571200  0.32588900  1
  Al  Al15  1  0.50000000  0.26428800  0.67411100  1
  Al  Al16  1  0.50000000  0.45148700  0.18002100  1
  Al  Al17  1  0.50000000  0.54851300  0.81997900  1
  Al  Al18  1  0.50000000  0.95148700  0.31997900  1
  Al  Al19  1  0.50000000  0.04851300  0.68002100  1
  Al  Al20  1  0.00000000  0.00000000  0.00000000  1
  Al  Al21  1  0.50000000  0.50000000  0.00000000  1
  Al  Al22  1  0.00000000  0.50000000  0.50000000  1
  Al  Al23  1  0.50000000  0.00000000  0.50000000  1
  Al  Al24  1  0.00000000  0.09589300  0.25418200  1
  Al  Al25  1  0.00000000  0.90410700  0.74581800  1
  Al  Al26  1  0.00000000  0.59589300  0.24581800  1
  Al  Al27  1  0.00000000  0.40410700  0.75418200  1
  Al  Al28  1  0.00000000  0.16168500  0.54504500  1
  Al  Al29  1  0.00000000  0.83831500  0.45495500  1
  Al  Al30  1  0.00000000  0.66168500  0.95495500  1
  Al  Al31  1  0.00000000  0.33831500  0.04504600  1
  Co  Co0  1  0.00000000  0.53420900  0.09296500  1
  Co  Co1  1  0.00000000  0.03420900  0.40703500  1
  Co  Co2  1  0.00000000  0.96579100  0.59296500  1
  Co  Co3  1  0.00000000  0.46579100  0.90703500  1
  Co  Co4  1  0.00000000  0.35024200  0.59804000  1
  Co  Co5  1  0.00000000  0.64975800  0.40196000  1
  Co  Co6  1  0.00000000  0.85024200  0.90196000  1
  Co  Co7  1  0.00000000  0.14975800  0.09804000  1
loop_
_geom_bond_atom_site_label_1
_geom_bond_atom_site_label_2
_geom_bond_distance
_geom_bond_site_symmetry_2
Al0 Co7 2.569216 1_555
Al0 Co7 2.569216 1_655
Al0 Al12 2.691190 1_555
Al0 Al4 2.698893 1_554
Al0 Al20 2.772283 1_655
Al0 Al20 2.772283 1_555
Al0 Al24 2.789688 1_655
Al0 Al24 2.789688 1_555
Al0 Al18 2.848589 1_545
Al0 Al5 2.996963 1_545
Al0 Yb1 3.103367 1_545
Al0 Yb1 3.103367 1_645
Al1 Co6 2.569216 1_655
Al1 Co6 2.569216 1_555
Al1 Al13 2.691190 1_555
Al1 Al5 2.698893 1_556
Al1 Al20 2.772283 1_666
Al1 Al20 2.772283 1_566
Al1 Al25 2.789688 1_555
Al1 Al25 2.789688 1_655
Al1 Al19 2.848589 1_565
Al1 Al4 2.996963 1_565
Al1 Yb0 3.103367 1_565
Al1 Yb0 3.103367 1_665
Al2 Co5 2.569216 1_555
Al2 Co5 2.569216 1_655
Al2 Al6 2.698893 1_555
Al2 Al22 2.772283 1_555
Al2 Al22 2.772283 1_655
Al2 Al26 2.789688 1_555
Al2 Al26 2.789688 1_655
Al2 Al7 2.996963 1_555
Al2 Yb3 3.103367 1_655
Al2 Yb3 3.103367 1_555
Al3 Co4 2.569216 1_555
Al3 Co4 2.569216 1_655
Al3 Al7 2.698893 1_555
Al3 Al6 2.996963 1_555
Al3 Yb2 3.103367 1_555
Al3 Yb2 3.103367 1_655
Al4 Co7 2.511434 1_656
Al4 Co7 2.511434 1_556
Al4 Yb0 3.193898 1_655
Al4 Yb0 3.193898 1_555
Al5 Co6 2.511434 1_554
Al5 Co6 2.511434 1_654
Al5 Yb1 3.193898 1_655
Al5 Yb1 3.193898 1_555
Al6 Co5 2.511434 1_555
Al6 Co5 2.511434 1_655
Al6 Al9 2.672694 1_555
Al6 Yb2 3.193898 1_555
Al6 Yb2 3.193898 1_655
Al7 Co4 2.511434 1_655
Al7 Co4 2.511434 1_555
Al7 Al8 2.672694 1_555
Al7 Yb3 3.193898 1_555
Al7 Yb3 3.193898 1_655
Al8 Co1 2.560427 1_655
Al8 Co1 2.560427 1_555
Al8 Yb3 3.117368 1_555
Al8 Yb3 3.117368 1_655
Al9 Co2 2.560427 1_555
Al9 Co2 2.560427 1_655
Al9 Yb2 3.117368 1_555
Al9 Yb2 3.117368 1_655
Al10 Co0 2.560427 1_555
Al10 Co0 2.560427 1_655
Al10 Al21 2.643126 1_555
Al10 Al5 2.672694 1_555
Al10 Al16 2.741290 1_555
Al10 Al26 2.805615 1_555
Al10 Al26 2.805615 1_655
Al10 Yb1 3.117368 1_655
Al10 Yb1 3.117368 1_555
Al11 Co3 2.560427 1_555
Al11 Co3 2.560427 1_655
Al11 Al21 2.643126 1_556
Al11 Al4 2.672694 1_555
Al11 Al17 2.741290 1_555
Al11 Al27 2.805615 1_555
Al11 Al27 2.805615 1_655
Al11 Yb0 3.117368 1_655
Al11 Yb0 3.117368 1_555
Al12 Co7 2.504766 1_655
Al12 Co7 2.504766 1_555
Al12 Al16 2.682993 1_555
Al12 Al4 2.753261 1_554
Al12 Yb3 3.160359 1_555
Al12 Yb3 3.160359 1_655
Al13 Co6 2.504766 1_555
Al13 Co6 2.504766 1_655
Al13 Al17 2.682993 1_555
Al13 Al5 2.753261 1_556
Al13 Yb2 3.160359 1_655
Al13 Yb2 3.160359 1_555
Al14 Co5 2.504766 1_555
Al14 Co5 2.504766 1_655
Al14 Al18 2.682993 1_555
Al14 Al2 2.691190 1_555
Al14 Al6 2.753261 1_555
Al14 Yb1 3.160359 1_555
Al14 Yb1 3.160359 1_655
Al15 Co4 2.504766 1_655
Al15 Co4 2.504766 1_555
Al15 Al19 2.682993 1_555
Al15 Al3 2.691190 1_555
Al15 Al7 2.753261 1_555
Al15 Yb0 3.160359 1_655
Al15 Yb0 3.160359 1_555
Al16 Co0 2.561682 1_655
Al16 Co0 2.561682 1_555
Al16 Al21 2.664838 1_555
Al16 Al26 2.837346 1_655
Al16 Al26 2.837346 1_555
Al16 Al2 2.848589 1_555
Al16 Yb3 3.134077 1_655
Al16 Yb3 3.134077 1_555
Al17 Co3 2.561682 1_655
Al17 Co3 2.561682 1_555
Al17 Al21 2.664838 1_556
Al17 Al27 2.837346 1_555
Al17 Al27 2.837346 1_655
Al17 Al3 2.848589 1_555
Al17 Yb2 3.134077 1_655
Al17 Yb2 3.134077 1_555
Al18 Co1 2.561682 1_665
Al18 Co1 2.561682 1_565
Al18 Al23 2.664838 1_565
Al18 Al8 2.741290 1_565
Al18 Al24 2.837346 1_665
Al18 Al24 2.837346 1_565
Al18 Yb1 3.134077 1_555
Al18 Yb1 3.134077 1_655
Al19 Co2 2.561682 1_645
Al19 Co2 2.561682 1_545
Al19 Al23 2.664838 1_555
Al19 Al9 2.741290 1_545
Al19 Al25 2.837346 1_645
Al19 Al25 2.837346 1_545
Al19 Yb0 3.134077 1_555
Al19 Yb0 3.134077 1_655
Al20 Co7 2.337178 1_555
Al20 Co6 2.337178 1_544
Al20 Al5 2.882110 1_545
Al20 Al5 2.882110 1_445
Al20 Al4 2.882110 1_454
Al20 Al4 2.882110 1_554
Al20 Yb0 3.277271 1_554
Al20 Yb1 3.277271 1_545
Al21 Co3 2.430476 1_554
Al21 Co3 2.430476 1_654
Al21 Co0 2.430476 1_555
Al21 Co0 2.430476 1_655
Al22 Co5 2.337178 1_555
Al22 Co4 2.337178 1_555
Al22 Al3 2.772283 1_555
Al22 Al3 2.772283 1_455
Al22 Al6 2.882110 1_555
Al22 Al6 2.882110 1_455
Al22 Al7 2.882110 1_555
Al22 Al7 2.882110 1_455
Al22 Yb3 3.277271 1_555
Al22 Yb2 3.277271 1_555
Al23 Co1 2.430476 1_555
Al23 Co2 2.430476 1_645
Al23 Co2 2.430476 1_545
Al23 Co1 2.430476 1_655
Al23 Al9 2.643126 1_545
Al23 Al8 2.643126 1_555
Al24 Co1 2.333516 1_555
Al24 Co7 2.348840 1_555
Al24 Al8 2.805615 1_555
Al24 Al8 2.805615 1_455
Al24 Yb3 3.183655 1_555
Al24 Yb1 3.339560 1_545
Al25 Co2 2.333516 1_555
Al25 Co6 2.348840 1_555
Al25 Al9 2.805615 1_455
Al25 Al9 2.805615 1_555
Al25 Yb2 3.183655 1_555
Al25 Yb0 3.339560 1_565
Al26 Co0 2.333516 1_555
Al26 Co5 2.348840 1_555
Al26 Yb1 3.183655 1_555
Al26 Yb3 3.339560 1_555
Al27 Co3 2.333516 1_555
Al27 Co4 2.348840 1_555
Al27 Al3 2.789688 1_555
Al27 Al3 2.789688 1_455
Al27 Yb0 3.183655 1_555
Al27 Yb2 3.339560 1_555
Al28 Co4 2.464816 1_555
Al28 Co2 2.530713 1_545
Al28 Co1 2.543601 1_555
Al28 Al7 2.997253 1_555
Al28 Al7 2.997253 1_455
Al29 Co5 2.464816 1_555
Al29 Co1 2.530713 1_565
Al29 Co2 2.543601 1_555
Al29 Al6 2.997253 1_555
Al29 Al6 2.997253 1_455
Al30 Co6 2.464816 1_555
Al30 Co3 2.530713 1_555
Al30 Co0 2.543601 1_556
Al30 Al5 2.997253 1_456
Al30 Al5 2.997253 1_556
Al31 Co7 2.464812 1_555
Al31 Co0 2.530710 1_555
Al31 Co3 2.543612 1_554
Al31 Al4 2.997256 1_554
Al31 Al4 2.997256 1_454
