# generated using pymatgen
data_LiMn2Fe2(PO4)4
_symmetry_space_group_name_H-M   'P 1'
_cell_length_a   9.93420826
_cell_length_b   5.98951500
_cell_length_c   4.97982632
_cell_angle_alpha   90.00055404
_cell_angle_beta   89.53356240
_cell_angle_gamma   90.00024663
_symmetry_Int_Tables_number   1
_chemical_formula_structural   LiMn2Fe2(PO4)4
_chemical_formula_sum   'Li1 Mn2 Fe2 P4 O16'
_cell_volume   296.29527206
_cell_formula_units_Z   1
loop_
 _symmetry_equiv_pos_site_id
 _symmetry_equiv_pos_as_xyz
  1  'x, y, z'
loop_
 _atom_site_type_symbol
 _atom_site_label
 _atom_site_symmetry_multiplicity
 _atom_site_fract_x
 _atom_site_fract_y
 _atom_site_fract_z
 _atom_site_occupancy
  Li  Li0  1  0.94180600  0.24999900  0.93508200  1
  Mn  Mn0  1  0.21759000  0.75000100  0.42754300  1
  Mn  Mn1  1  0.28867700  0.25000000  0.92038400  1
  Fe  Fe0  1  0.72257100  0.74999800  0.05451600  1
  Fe  Fe1  1  0.76215700  0.24998800  0.51923300  1
  P  P0  1  0.10049600  0.25000000  0.40733900  1
  P  P1  1  0.40180400  0.74999900  0.90761800  1
  P  P2  1  0.59230200  0.25000300  0.07226800  1
  P  P3  1  0.90554500  0.74999900  0.61948300  1
  O  O0  1  0.06003800  0.75000000  0.65284800  1
  O  O1  1  0.11644700  0.25000000  0.71821700  1
  O  O2  1  0.17263400  0.04849600  0.26932800  1
  O  O3  1  0.17263400  0.45150500  0.26932900  1
  O  O4  1  0.32959700  0.54935500  0.76575600  1
  O  O5  1  0.32959700  0.95064500  0.76575400  1
  O  O6  1  0.37794600  0.75000100  0.21466200  1
  O  O7  1  0.44015800  0.24999900  0.14880300  1
  O  O8  1  0.55318400  0.75000200  0.85188500  1
  O  O9  1  0.60818700  0.25000400  0.77019800  1
  O  O10  1  0.66399100  0.04727300  0.21346100  1
  O  O11  1  0.66399000  0.45273800  0.21345600  1
  O  O12  1  0.84299500  0.54585400  0.77698800  1
  O  O13  1  0.84299500  0.95414300  0.77698500  1
  O  O14  1  0.86718900  0.75000300  0.32325600  1
  O  O15  1  0.95047200  0.24999900  0.33541500  1
loop_
_geom_bond_atom_site_label_1
_geom_bond_atom_site_label_2
_geom_bond_distance
_geom_bond_site_symmetry_2
Li0 O15 1.996147 1_556
Li0 O1 2.036108 1_655
Li0 O13 2.176243 1_545
Li0 O12 2.176252 1_555
Mn0 O6 1.906310 1_555
Mn0 O0 1.918321 1_555
Mn0 O3 2.005566 1_555
Mn0 O2 2.005580 1_565
Mn0 O5 2.355723 1_555
Mn0 O4 2.355758 1_555
Mn1 O7 1.893753 1_556
Mn1 O5 1.991958 1_545
Mn1 O4 1.991964 1_555
Mn1 O1 1.992239 1_555
Mn1 O3 2.402601 1_556
Mn1 O2 2.402607 1_556
Fe0 O8 1.969119 1_554
Fe0 O14 1.971370 1_555
Fe0 O11 2.031657 1_555
Fe0 O10 2.031734 1_565
Fe0 O12 2.193018 1_554
Fe0 O13 2.193039 1_554
Fe1 O9 1.967325 1_555
Fe1 O15 2.076003 1_555
Fe1 O10 2.183560 1_555
Fe1 O11 2.183719 1_555
Fe1 O13 2.334340 1_545
Fe1 O12 2.334420 1_555
O0 P3 1.545077 1_455
O1 P0 1.557490 1_555
O2 P0 1.560292 1_555
O3 P0 1.560300 1_555
O4 P1 1.570373 1_555
O5 P1 1.570402 1_555
O6 P1 1.545378 1_554
O7 P2 1.555732 1_555
O8 P1 1.527013 1_555
O9 P2 1.511233 1_556
O10 P2 1.576120 1_555
O11 P2 1.576112 1_555
O12 P3 1.577487 1_555
O13 P3 1.577467 1_555
O14 P3 1.526576 1_555
O15 P0 1.535636 1_655
