# generated using pymatgen
data_Gd(BC)2
_symmetry_space_group_name_H-M   'P 1'
_cell_length_a   5.34757243
_cell_length_b   5.34757243
_cell_length_c   3.66517808
_cell_angle_alpha   90.00000000
_cell_angle_beta   90.00000000
_cell_angle_gamma   90.00000000
_symmetry_Int_Tables_number   1
_chemical_formula_structural   Gd(BC)2
_chemical_formula_sum   'Gd2 B4 C4'
_cell_volume   104.81137820
_cell_formula_units_Z   2
loop_
 _symmetry_equiv_pos_site_id
 _symmetry_equiv_pos_as_xyz
  1  'x, y, z'
loop_
 _atom_site_type_symbol
 _atom_site_label
 _atom_site_symmetry_multiplicity
 _atom_site_fract_x
 _atom_site_fract_y
 _atom_site_fract_z
 _atom_site_occupancy
  Gd  Gd0  1  0.50000000  0.50000000  0.00000000  1
  Gd  Gd1  1  -0.00000000  -0.00000000  0.00000000  1
  B  B0  1  0.86332442  0.36332442  0.50000000  1
  B  B1  1  0.13667558  0.63667558  0.50000000  1
  B  B2  1  0.36332442  0.13667558  0.50000000  1
  B  B3  1  0.63667558  0.86332442  0.50000000  1
  C  C0  1  0.66201525  0.16201525  0.50000000  1
  C  C1  1  0.33798475  0.83798475  0.50000000  1
  C  C2  1  0.16201525  0.33798475  0.50000000  1
  C  C3  1  0.83798475  0.66201525  0.50000000  1
loop_
_geom_bond_atom_site_label_1
_geom_bond_atom_site_label_2
_geom_bond_distance
_geom_bond_site_symmetry_2
B0 C0 1.522423 1_555
B0 C2 1.603008 1_655
B0 C3 1.603008 1_555
B0 Gd1 2.769015 1_655
B0 Gd1 2.769015 1_656
B0 Gd0 2.769015 1_556
B0 Gd0 2.769015 1_555
B1 C1 1.522423 1_555
B1 C3 1.603008 1_455
B1 C2 1.603008 1_555
B1 Gd1 2.769015 1_565
B1 Gd1 2.769015 1_566
B1 Gd0 2.769015 1_556
B1 Gd0 2.769015 1_555
B2 C2 1.522423 1_555
B2 C1 1.603008 1_545
B2 C0 1.603008 1_555
B2 Gd1 2.769015 1_555
B2 Gd0 2.769015 1_555
B2 Gd0 2.769015 1_556
B2 Gd1 2.769015 1_556
B3 C3 1.522423 1_555
B3 C1 1.603008 1_555
B3 C0 1.603008 1_565
B3 Gd0 2.769015 1_555
B3 Gd0 2.769015 1_556
B3 Gd1 2.769015 1_665
B3 Gd1 2.769015 1_666
C0 Gd1 2.715824 1_656
C0 Gd1 2.715824 1_655
C0 Gd0 2.715824 1_555
C0 Gd0 2.715824 1_556
C1 Gd1 2.715824 1_565
C1 Gd1 2.715824 1_566
C1 Gd0 2.715824 1_555
C1 Gd0 2.715824 1_556
C2 Gd1 2.715824 1_556
C2 Gd1 2.715824 1_555
C2 Gd0 2.715824 1_555
C2 Gd0 2.715824 1_556
C3 Gd1 2.715824 1_665
C3 Gd1 2.715824 1_666
C3 Gd0 2.715824 1_555
C3 Gd0 2.715824 1_556
