# generated using pymatgen
data_SbAsRh
_symmetry_space_group_name_H-M   'P 1'
_cell_length_a   6.35134668
_cell_length_b   6.38353381
_cell_length_c   6.43334439
_cell_angle_alpha   114.76479297
_cell_angle_beta   90.00000000
_cell_angle_gamma   90.00000000
_symmetry_Int_Tables_number   1
_chemical_formula_structural   SbAsRh
_chemical_formula_sum   'Sb4 As4 Rh4'
_cell_volume   236.84618634
_cell_formula_units_Z   4
loop_
 _symmetry_equiv_pos_site_id
 _symmetry_equiv_pos_as_xyz
  1  'x, y, z'
loop_
 _atom_site_type_symbol
 _atom_site_label
 _atom_site_symmetry_multiplicity
 _atom_site_fract_x
 _atom_site_fract_y
 _atom_site_fract_z
 _atom_site_occupancy
  Sb  Sb0  1  0.12904442  0.84474202  0.13367539  1
  Sb  Sb1  1  0.62904442  0.15525798  0.36632461  1
  Sb  Sb2  1  0.87095558  0.15525798  0.86632461  1
  Sb  Sb3  1  0.37095558  0.84474202  0.63367539  1
  As  As0  1  0.86323463  0.65221383  0.32507224  1
  As  As1  1  0.36323463  0.34778617  0.17492776  1
  As  As2  1  0.13676537  0.34778617  0.67492776  1
  As  As3  1  0.63676537  0.65221383  0.82507224  1
  Rh  Rh0  1  0.50804624  0.71517479  0.20597285  1
  Rh  Rh1  1  0.00804624  0.28482521  0.29402715  1
  Rh  Rh2  1  0.49195376  0.28482521  0.79402715  1
  Rh  Rh3  1  0.99195376  0.71517479  0.70597285  1
loop_
_geom_bond_atom_site_label_1
_geom_bond_atom_site_label_2
_geom_bond_distance
_geom_bond_site_symmetry_2
As0 Rh1 2.448172 1_655
As0 Rh3 2.451442 1_555
As0 Rh0 2.468967 1_555
As0 Sb0 2.672946 1_655
As1 Rh0 2.448172 1_555
As1 Rh2 2.451442 1_554
As1 Rh1 2.468967 1_555
As1 Sb1 2.672946 1_555
As2 Rh3 2.448172 1_455
As2 Rh1 2.451442 1_555
As2 Rh2 2.468967 1_555
As2 Sb2 2.672946 1_455
As3 Rh2 2.448172 1_555
As3 Rh0 2.451442 1_556
As3 Rh3 2.468967 1_555
As3 Sb3 2.672946 1_555
Rh0 Sb0 2.648998 1_555
Rh0 Sb3 2.665831 1_555
Rh0 Sb1 2.668131 1_565
Rh1 Sb1 2.648998 1_455
Rh1 Sb2 2.665831 1_454
Rh1 Sb0 2.668131 1_545
Rh2 Sb2 2.648998 1_555
Rh2 Sb1 2.665831 1_555
Rh2 Sb3 2.668131 1_545
Rh3 Sb3 2.648998 1_655
Rh3 Sb0 2.665831 1_656
Rh3 Sb2 2.668131 1_565
