# generated using pymatgen
data_ErAlNi
_symmetry_space_group_name_H-M   'P 1'
_cell_length_a   6.85189058
_cell_length_b   6.85189058
_cell_length_c   3.85833838
_cell_angle_alpha   90.00000000
_cell_angle_beta   90.00000000
_cell_angle_gamma   120.00000115
_symmetry_Int_Tables_number   1
_chemical_formula_structural   ErAlNi
_chemical_formula_sum   'Er3 Al3 Ni3'
_cell_volume   156.87429154
_cell_formula_units_Z   3
loop_
 _symmetry_equiv_pos_site_id
 _symmetry_equiv_pos_as_xyz
  1  'x, y, z'
loop_
 _atom_site_type_symbol
 _atom_site_label
 _atom_site_symmetry_multiplicity
 _atom_site_fract_x
 _atom_site_fract_y
 _atom_site_fract_z
 _atom_site_occupancy
  Er  Er0  1  0.41696816  -0.00000000  0.50000000  1
  Er  Er1  1  -0.00000000  0.41696816  0.50000000  1
  Er  Er2  1  0.58303184  0.58303184  0.50000000  1
  Al  Al0  1  0.76535156  -0.00000000  0.00000000  1
  Al  Al1  1  -0.00000000  0.76535156  -0.00000000  1
  Al  Al2  1  0.23464844  0.23464844  -0.00000000  1
  Ni  Ni0  1  0.33333300  0.66666700  -0.00000000  1
  Ni  Ni1  1  0.66666700  0.33333300  -0.00000000  1
  Ni  Ni2  1  -0.00000000  -0.00000000  0.50000000  1
loop_
_geom_bond_atom_site_label_1
_geom_bond_atom_site_label_2
_geom_bond_distance
_geom_bond_site_symmetry_2
Er0 Ni0 2.820944 1_545
Er0 Ni0 2.820944 1_546
Er0 Ni1 2.820945 1_555
Er0 Ni1 2.820945 1_556
Er0 Ni2 2.857020 1_555
Er1 Ni1 2.820944 1_456
Er1 Ni1 2.820944 1_455
Er1 Ni0 2.820945 1_556
Er1 Ni0 2.820945 1_555
Er1 Ni2 2.857020 1_555
Er2 Ni1 2.820949 1_556
Er2 Ni1 2.820949 1_555
Er2 Ni0 2.820949 1_556
Er2 Ni0 2.820949 1_555
Er2 Ni2 2.857020 1_665
Al0 Ni2 2.511308 1_655
Al0 Ni2 2.511308 1_654
Al0 Ni1 2.686643 1_555
Al0 Ni0 2.686648 1_545
Al0 Al2 2.784766 1_655
Al0 Al1 2.784766 1_645
Al0 Er0 3.069180 1_555
Al0 Er0 3.069180 1_554
Al0 Er1 3.142572 1_655
Al0 Er1 3.142572 1_654
Al0 Er2 3.142572 1_545
Al0 Er2 3.142572 1_544
Al1 Ni2 2.511308 1_565
Al1 Ni2 2.511308 1_564
Al1 Ni0 2.686643 1_555
Al1 Ni1 2.686648 1_455
Al1 Al2 2.784766 1_565
Al1 Er1 3.069180 1_555
Al1 Er1 3.069180 1_554
Al1 Er0 3.142572 1_565
Al1 Er0 3.142572 1_564
Al1 Er2 3.142572 1_455
Al1 Er2 3.142572 1_454
Al2 Ni2 2.511308 1_555
Al2 Ni2 2.511308 1_554
Al2 Ni0 2.686650 1_555
Al2 Ni1 2.686650 1_555
Al2 Er2 3.069180 1_555
Al2 Er2 3.069180 1_554
Al2 Er0 3.142572 1_555
Al2 Er0 3.142572 1_554
Al2 Er1 3.142572 1_554
Al2 Er1 3.142572 1_555
