# generated using pymatgen
data_Y3Sn
_symmetry_space_group_name_H-M   'P 1'
_cell_length_a   5.43914880
_cell_length_b   5.43914880
_cell_length_c   5.43914880
_cell_angle_alpha   60.00000000
_cell_angle_beta   60.00000000
_cell_angle_gamma   60.00000000
_symmetry_Int_Tables_number   1
_chemical_formula_structural   Y3Sn
_chemical_formula_sum   'Y3 Sn1'
_cell_volume   113.78311582
_cell_formula_units_Z   1
loop_
 _symmetry_equiv_pos_site_id
 _symmetry_equiv_pos_as_xyz
  1  'x, y, z'
loop_
 _atom_site_type_symbol
 _atom_site_label
 _atom_site_symmetry_multiplicity
 _atom_site_fract_x
 _atom_site_fract_y
 _atom_site_fract_z
 _atom_site_occupancy
  Y  Y0  1  0.00000000  0.00000000  0.00000000  1
  Y  Y1  1  0.25000000  0.25000000  0.25000000  1
  Y  Y2  1  0.75000000  0.75000000  0.75000000  1
  Sn  Sn0  1  0.50000000  0.50000000  0.50000000  1
loop_
_geom_bond_atom_site_label_1
_geom_bond_atom_site_label_2
_geom_bond_distance
_geom_bond_site_symmetry_2
Y0 Y1 3.330785 1_545
Y0 Y2 3.330785 1_444
Y0 Y2 3.330785 1_454
Y0 Y1 3.330785 1_555
Y0 Y2 3.330785 1_544
Y0 Y1 3.330785 1_554
Y0 Y2 3.330785 1_445
Y0 Y1 3.330785 1_455
Sn0 Y2 3.330785 1_455
Sn0 Y1 3.330785 1_555
Sn0 Y1 3.330785 1_655
Sn0 Y2 3.330785 1_545
Sn0 Y2 3.330785 1_555
Sn0 Y2 3.330785 1_554
Sn0 Y1 3.330785 1_556
Sn0 Y1 3.330785 1_565
