# generated using pymatgen
data_Rb2V3P4O17
_symmetry_space_group_name_H-M   'P 1'
_cell_length_a   7.39590700
_cell_length_b   11.71256200
_cell_length_c   17.80335500
_cell_angle_alpha   90.00000000
_cell_angle_beta   90.00000000
_cell_angle_gamma   90.00000000
_symmetry_Int_Tables_number   1
_chemical_formula_structural   Rb2V3P4O17
_chemical_formula_sum   'Rb8 V12 P16 O68'
_cell_volume   1542.21597019
_cell_formula_units_Z   4
loop_
 _symmetry_equiv_pos_site_id
 _symmetry_equiv_pos_as_xyz
  1  'x, y, z'
loop_
 _atom_site_type_symbol
 _atom_site_label
 _atom_site_symmetry_multiplicity
 _atom_site_fract_x
 _atom_site_fract_y
 _atom_site_fract_z
 _atom_site_occupancy
  Rb  Rb0  1  0.25005300  0.03437100  0.86188600  1
  Rb  Rb1  1  0.25005300  0.46562900  0.36188600  1
  Rb  Rb2  1  0.75005300  0.96562900  0.13811400  1
  Rb  Rb3  1  0.75005300  0.53437100  0.63811400  1
  Rb  Rb4  1  0.25009500  0.64476800  0.82005100  1
  Rb  Rb5  1  0.25009500  0.85523200  0.32005100  1
  Rb  Rb6  1  0.75009500  0.35523200  0.17994900  1
  Rb  Rb7  1  0.75009500  0.14476800  0.67994900  1
  V  V0  1  0.75005100  0.83791300  0.80976100  1
  V  V1  1  0.75005100  0.66208700  0.30976100  1
  V  V2  1  0.25005100  0.16208700  0.19023900  1
  V  V3  1  0.25005100  0.33791300  0.69023900  1
  V  V4  1  0.75000300  0.16181500  0.90115400  1
  V  V5  1  0.75000300  0.33818500  0.40115400  1
  V  V6  1  0.25000300  0.83818500  0.09884600  1
  V  V7  1  0.25000300  0.66181500  0.59884600  1
  V  V8  1  0.52494500  0.50144100  0.99890500  1
  V  V9  1  0.02494500  0.49855900  0.00109500  1
  V  V10  1  0.02494500  0.00144100  0.50109500  1
  V  V11  1  0.52494500  0.99855900  0.49890500  1
  P  P0  1  0.54794200  0.78742900  0.97094000  1
  P  P1  1  0.95298200  0.71300200  0.47090800  1
  P  P2  1  0.04794200  0.21257100  0.02906000  1
  P  P3  1  0.45298200  0.28699800  0.52909200  1
  P  P4  1  0.45298200  0.21300200  0.02909200  1
  P  P5  1  0.04794200  0.28742900  0.52906000  1
  P  P6  1  0.95298200  0.78699800  0.97090800  1
  P  P7  1  0.54794200  0.71257100  0.47094000  1
  P  P8  1  0.04935000  0.88676700  0.67131900  1
  P  P9  1  0.45122300  0.61324400  0.17117800  1
  P  P10  1  0.54935000  0.11323300  0.32868100  1
  P  P11  1  0.95122300  0.38675600  0.82882200  1
  P  P12  1  0.95122300  0.11324400  0.32882200  1
  P  P13  1  0.54935000  0.38676700  0.82868100  1
  P  P14  1  0.45122300  0.88675600  0.67117800  1
  P  P15  1  0.04935000  0.61323300  0.17131900  1
  O  O0  1  0.94499000  0.90519400  0.74388900  1
  O  O1  1  0.55487500  0.59494000  0.24400000  1
  O  O2  1  0.44499000  0.09480600  0.25611100  1
  O  O3  1  0.05487500  0.40506000  0.75600000  1
  O  O4  1  0.05487500  0.09494000  0.25600000  1
  O  O5  1  0.44499000  0.40519400  0.75611100  1
  O  O6  1  0.55487500  0.90506000  0.74400000  1
  O  O7  1  0.94499000  0.59480600  0.24388900  1
  O  O8  1  0.75032500  0.78922500  0.00683500  1
  O  O9  1  0.75032500  0.71077500  0.50683500  1
  O  O10  1  0.25032500  0.21077500  0.99316500  1
  O  O11  1  0.25032500  0.28922500  0.49316500  1
  O  O12  1  0.75004800  0.04548000  0.84943900  1
  O  O13  1  0.75004800  0.45452000  0.34943900  1
  O  O14  1  0.25004800  0.95452000  0.15056100  1
  O  O15  1  0.25004800  0.54548000  0.65056100  1
  O  O16  1  0.75000500  0.70591200  0.78024800  1
  O  O17  1  0.75000500  0.79408800  0.28024800  1
  O  O18  1  0.25000500  0.29408800  0.21975200  1
  O  O19  1  0.25000500  0.20591200  0.71975200  1
  O  O20  1  0.75193200  0.51112700  0.98995200  1
  O  O21  1  0.75193200  0.98887300  0.48995200  1
  O  O22  1  0.25193200  0.48887300  0.01004800  1
  O  O23  1  0.25193200  0.01112700  0.51004800  1
  O  O24  1  0.25024600  0.93161800  0.69297900  1
  O  O25  1  0.25024600  0.56838200  0.19297900  1
  O  O26  1  0.75024600  0.06838200  0.30702100  1
  O  O27  1  0.75024600  0.43161800  0.80702100  1
  O  O28  1  0.47315500  0.66637600  0.97391200  1
  O  O29  1  0.02787000  0.83364900  0.47355300  1
  O  O30  1  0.97315500  0.33362400  0.02608800  1
  O  O31  1  0.52787000  0.16635100  0.52644700  1
  O  O32  1  0.52787000  0.33364900  0.02644700  1
  O  O33  1  0.97315500  0.16637600  0.52608800  1
  O  O34  1  0.02787000  0.66635100  0.97355300  1
  O  O35  1  0.47315500  0.83362400  0.47391200  1
  O  O36  1  0.47669200  0.46437700  0.89031700  1
  O  O37  1  0.02345900  0.03553700  0.39022600  1
  O  O38  1  0.97669200  0.53562300  0.10968300  1
  O  O39  1  0.52345900  0.96446300  0.60977400  1
  O  O40  1  0.52345900  0.53553700  0.10977400  1
  O  O41  1  0.97669200  0.96437700  0.60968300  1
  O  O42  1  0.02345900  0.46446300  0.89022600  1
  O  O43  1  0.47669200  0.03562300  0.39031700  1
  O  O44  1  0.93779800  0.13138900  0.97935600  1
  O  O45  1  0.56211200  0.36864800  0.47923600  1
  O  O46  1  0.43779800  0.86861100  0.02064400  1
  O  O47  1  0.06211200  0.63135200  0.52076400  1
  O  O48  1  0.06211200  0.86864800  0.02076400  1
  O  O49  1  0.43779800  0.63138900  0.52064400  1
  O  O50  1  0.56211200  0.13135200  0.97923600  1
  O  O51  1  0.93779800  0.36861100  0.47935600  1
  O  O52  1  0.94247200  0.83373800  0.89064100  1
  O  O53  1  0.55752600  0.66614000  0.39059100  1
  O  O54  1  0.44247200  0.16626200  0.10935900  1
  O  O55  1  0.05752600  0.33386000  0.60940900  1
  O  O56  1  0.05752600  0.16614000  0.10940900  1
  O  O57  1  0.44247200  0.33373800  0.60935900  1
  O  O58  1  0.55752600  0.83386000  0.89059100  1
  O  O59  1  0.94247200  0.66626200  0.39064100  1
  O  O60  1  0.93405400  0.26063000  0.85144000  1
  O  O61  1  0.56609900  0.23934700  0.35137000  1
  O  O62  1  0.43405400  0.73937000  0.14856000  1
  O  O63  1  0.06609900  0.76065300  0.64863000  1
  O  O64  1  0.06609900  0.73934700  0.14863000  1
  O  O65  1  0.43405400  0.76063000  0.64856000  1
  O  O66  1  0.56609900  0.26065300  0.85137000  1
  O  O67  1  0.93405400  0.23937000  0.35144000  1
loop_
_geom_bond_atom_site_label_1
_geom_bond_atom_site_label_2
_geom_bond_distance
_geom_bond_site_symmetry_2
O0 P8 1.520378 1_655
O0 V0 2.018655 1_555
O0 Rb7 3.353702 1_565
O0 Rb0 3.434063 1_665
O1 P9 1.521344 1_555
O1 V1 2.018148 1_555
O1 Rb6 3.356720 1_555
O1 Rb1 3.432375 1_555
O2 P10 1.520378 1_555
O2 V2 2.018655 1_555
O2 Rb5 3.353702 1_545
O2 Rb2 3.434063 1_545
O3 P11 1.521344 1_455
O3 V3 2.018148 1_555
O3 Rb4 3.356720 1_555
O3 Rb3 3.432375 1_455
O4 P12 1.521344 1_455
O4 V2 2.018148 1_555
O4 Rb5 3.356720 1_545
O4 Rb2 3.432375 1_445
O5 P13 1.520378 1_555
O5 V3 2.018655 1_555
O5 Rb4 3.353702 1_555
O5 Rb3 3.434063 1_555
O6 P14 1.521344 1_555
O6 V0 2.018148 1_555
O6 Rb7 3.356720 1_565
O6 Rb0 3.432375 1_565
O7 P15 1.520378 1_655
O7 V1 2.018655 1_555
O7 Rb6 3.353702 1_555
O7 Rb1 3.434063 1_655
O8 P0 1.627654 1_554
O8 P6 1.629814 1_554
O8 Rb2 3.119533 1_555
O9 P7 1.627654 1_555
O9 P1 1.629814 1_555
O9 Rb3 3.119533 1_555
O10 P2 1.627654 1_556
O10 P4 1.629814 1_556
O10 Rb0 3.119533 1_555
O11 P5 1.627654 1_555
O11 P3 1.629814 1_555
O11 Rb1 3.119533 1_555
O12 V4 1.644481 1_555
O12 V0 2.531689 1_545
O12 Rb7 3.233825 1_555
O13 V5 1.644481 1_555
O13 V1 2.531689 1_555
O13 Rb6 3.233825 1_555
O14 V6 1.644481 1_555
O14 V2 2.531689 1_565
O14 Rb5 3.233825 1_555
O15 V7 1.644481 1_555
O15 V3 2.531689 1_555
O15 Rb4 3.233825 1_555
O16 V0 1.632914 1_555
O16 Rb3 3.231108 1_555
O17 V1 1.632914 1_555
O17 Rb2 3.231108 1_555
O18 V2 1.632914 1_555
O18 Rb1 3.231108 1_555
O19 V3 1.632914 1_555
O19 Rb0 3.231108 1_555
O20 V8 1.690136 1_555
O20 V9 2.034234 1_656
O21 V11 1.690136 1_555
O21 V10 2.034234 1_665
O22 V9 1.690136 1_555
O22 V8 2.034234 1_554
O23 V10 1.690136 1_555
O23 V11 2.034234 1_545
O24 P8 1.622433 1_555
O24 P14 1.623622 1_555
O24 Rb0 3.239002 1_565
O25 P15 1.622433 1_555
O25 P9 1.623622 1_555
O25 Rb1 3.239002 1_555
O26 P10 1.622433 1_555
O26 P12 1.623622 1_555
O26 Rb2 3.239002 1_545
O27 P13 1.622433 1_555
O27 P11 1.623622 1_555
O27 Rb3 3.239002 1_555
O28 P0 1.522830 1_555
O28 V8 2.019059 1_555
O28 Rb4 3.207664 1_555
O29 P1 1.518484 1_455
O29 V10 2.025637 1_565
O29 Rb5 3.199008 1_555
O30 P2 1.522830 1_655
O30 V9 2.019059 1_655
O30 Rb6 3.207664 1_555
O31 P3 1.518484 1_555
O31 V11 2.025637 1_545
O31 Rb7 3.199008 1_555
O32 P4 1.518484 1_555
O32 V8 2.025637 1_554
O32 Rb6 3.199008 1_555
O33 P5 1.522830 1_655
O33 V10 2.019059 1_655
O33 Rb7 3.207664 1_555
O34 P6 1.518484 1_455
O34 V9 2.025637 1_556
O34 Rb4 3.199008 1_555
O35 P7 1.522830 1_555
O35 V11 2.019059 1_555
O35 Rb5 3.207664 1_555
O36 P13 1.522892 1_555
O36 V8 2.013255 1_555
O36 Rb4 2.972815 1_555
O37 P12 1.519498 1_455
O37 V10 2.013864 1_555
O37 Rb5 2.971581 1_545
O38 P15 1.522892 1_655
O38 V9 2.013255 1_655
O38 Rb6 2.972815 1_555
O39 P14 1.519498 1_555
O39 V11 2.013864 1_555
O39 Rb7 2.971581 1_565
O40 P9 1.519498 1_555
O40 V8 2.013864 1_554
O40 Rb6 2.971581 1_555
O41 P8 1.522892 1_655
O41 V10 2.013255 1_665
O41 Rb7 2.972815 1_565
O42 P11 1.519498 1_455
O42 V9 2.013864 1_556
O42 Rb4 2.971581 1_555
O43 P10 1.522892 1_555
O43 V11 2.013255 1_545
O43 Rb5 2.972815 1_545
O44 P2 1.533217 1_656
O44 V4 1.998615 1_555
O44 Rb0 3.316384 1_655
O45 P3 1.534224 1_555
O45 V5 1.997699 1_555
O45 Rb1 3.313879 1_555
O46 P0 1.533217 1_554
O46 V6 1.998615 1_555
O46 Rb2 3.316384 1_555
O47 P1 1.534224 1_455
O47 V7 1.997699 1_555
O47 Rb3 3.313879 1_455
O48 P6 1.534224 1_454
O48 V6 1.997699 1_555
O48 Rb2 3.313879 1_455
O49 P7 1.533217 1_555
O49 V7 1.998615 1_555
O49 Rb3 3.316384 1_555
O50 P4 1.534224 1_556
O50 V4 1.997699 1_555
O50 Rb0 3.313879 1_555
O51 P5 1.533217 1_655
O51 V5 1.998615 1_555
O51 Rb1 3.316384 1_655
O52 P6 1.532267 1_555
O52 V0 2.025117 1_555
O52 Rb0 3.310458 1_665
O52 Rb4 3.413869 1_655
O53 P7 1.532008 1_555
O53 V1 2.024991 1_555
O53 Rb1 3.308757 1_555
O53 Rb5 3.413522 1_555
O54 P4 1.532267 1_555
O54 V2 2.025117 1_555
O54 Rb2 3.310458 1_545
O54 Rb6 3.413869 1_555
O55 P5 1.532008 1_555
O55 V3 2.024991 1_555
O55 Rb3 3.308757 1_455
O55 Rb7 3.413522 1_455
O56 P2 1.532008 1_555
O56 V2 2.024991 1_555
O56 Rb2 3.308757 1_445
O56 Rb6 3.413522 1_455
O57 P3 1.532267 1_555
O57 V3 2.025117 1_555
O57 Rb3 3.310458 1_555
O57 Rb7 3.413869 1_555
O58 P0 1.532008 1_555
O58 V0 2.024991 1_555
O58 Rb0 3.308757 1_565
O58 Rb4 3.413522 1_555
O59 P1 1.532267 1_555
O59 V1 2.025117 1_555
O59 Rb1 3.310458 1_655
O59 Rb5 3.413869 1_655
O60 P11 1.536413 1_555
O60 V4 1.993944 1_555
O60 Rb0 3.538291 1_655
O61 P10 1.536356 1_555
O61 V5 1.993912 1_555
O61 Rb1 3.538788 1_555
O62 P9 1.536413 1_555
O62 V6 1.993944 1_555
O62 Rb2 3.538291 1_555
O63 P8 1.536356 1_555
O63 V7 1.993912 1_555
O63 Rb3 3.538788 1_455
O64 P15 1.536356 1_555
O64 V6 1.993912 1_555
O64 Rb2 3.538788 1_455
O65 P14 1.536413 1_555
O65 V7 1.993944 1_555
O65 Rb3 3.538291 1_555
O66 P13 1.536356 1_555
O66 V4 1.993912 1_555
O66 Rb0 3.538788 1_555
O67 P12 1.536413 1_555
O67 V5 1.993944 1_555
O67 Rb1 3.538291 1_655
