# generated using pymatgen
data_Rb3Na3Sc2(MoO4)6
_symmetry_space_group_name_H-M   'P 1'
_cell_length_a   11.00190830
_cell_length_b   12.70952639
_cell_length_c   18.98795837
_cell_angle_alpha   90.04394540
_cell_angle_beta   90.00000000
_cell_angle_gamma   90.00000000
_symmetry_Int_Tables_number   1
_chemical_formula_structural   Rb3Na3Sc2(MoO4)6
_chemical_formula_sum   'Rb12 Na12 Sc8 Mo24 O96'
_cell_volume   2655.06728429
_cell_formula_units_Z   4
loop_
 _symmetry_equiv_pos_site_id
 _symmetry_equiv_pos_as_xyz
  1  'x, y, z'
loop_
 _atom_site_type_symbol
 _atom_site_label
 _atom_site_symmetry_multiplicity
 _atom_site_fract_x
 _atom_site_fract_y
 _atom_site_fract_z
 _atom_site_occupancy
  Rb  Rb0  1  0.77591977  0.34196461  0.03740523  1
  Rb  Rb1  1  0.71494275  0.65936524  0.03478033  1
  Rb  Rb2  1  0.27591977  0.65803539  0.46259477  1
  Rb  Rb3  1  0.21494275  0.34063476  0.46521967  1
  Rb  Rb4  1  0.22408023  0.65803539  0.96259477  1
  Rb  Rb5  1  0.28505725  0.34063476  0.96521967  1
  Rb  Rb6  1  0.72408023  0.34196461  0.53740523  1
  Rb  Rb7  1  0.78505725  0.65936524  0.53478033  1
  Rb  Rb8  1  0.74385544  0.00011896  0.06667005  1
  Rb  Rb9  1  0.24385544  0.99988104  0.43332995  1
  Rb  Rb10  1  0.25614456  0.99988104  0.93332995  1
  Rb  Rb11  1  0.75614456  0.00011896  0.56667005  1
  Na  Na0  1  0.49955387  0.32898424  0.75003110  1
  Na  Na1  1  0.99955387  0.67101576  0.74996890  1
  Na  Na2  1  0.50044613  0.67101576  0.24996890  1
  Na  Na3  1  0.00044613  0.32898424  0.25003110  1
  Na  Na4  1  0.49842707  0.99234015  0.24732133  1
  Na  Na5  1  0.99842707  0.00765985  0.25267867  1
  Na  Na6  1  0.50157293  0.00765985  0.75267867  1
  Na  Na7  1  0.00157293  0.99234015  0.74732133  1
  Na  Na8  1  0.57104639  0.83755880  0.90032269  1
  Na  Na9  1  0.07104639  0.16244120  0.59967731  1
  Na  Na10  1  0.42895361  0.16244120  0.09967731  1
  Na  Na11  1  0.92895361  0.83755880  0.40032269  1
  Sc  Sc0  1  0.25005572  0.49897875  0.78425191  1
  Sc  Sc1  1  0.75005572  0.50102125  0.71574809  1
  Sc  Sc2  1  0.74994428  0.50102125  0.21574809  1
  Sc  Sc3  1  0.24994428  0.49897875  0.28425191  1
  Sc  Sc4  1  0.92523459  0.16173517  0.89918272  1
  Sc  Sc5  1  0.42523459  0.83826483  0.60081728  1
  Sc  Sc6  1  0.07476541  0.83826483  0.10081728  1
  Sc  Sc7  1  0.57476541  0.16173517  0.39918272  1
  Mo  Mo0  1  0.58521667  0.14318277  0.91080442  1
  Mo  Mo1  1  0.92330609  0.86192870  0.91545932  1
  Mo  Mo2  1  0.08521667  0.85681723  0.58919558  1
  Mo  Mo3  1  0.42330609  0.13807130  0.58454068  1
  Mo  Mo4  1  0.41478333  0.85681723  0.08919558  1
  Mo  Mo5  1  0.07669391  0.13807130  0.08454068  1
  Mo  Mo6  1  0.91478333  0.14318277  0.41080442  1
  Mo  Mo7  1  0.57669391  0.86192870  0.41545932  1
  Mo  Mo8  1  0.21272986  0.19819843  0.79016513  1
  Mo  Mo9  1  0.28259487  0.80148047  0.78527543  1
  Mo  Mo10  1  0.71272986  0.80180157  0.70983487  1
  Mo  Mo11  1  0.78259487  0.19851953  0.71472457  1
  Mo  Mo12  1  0.78727014  0.80180157  0.20983487  1
  Mo  Mo13  1  0.71740513  0.19851953  0.21472457  1
  Mo  Mo14  1  0.28727014  0.19819843  0.29016513  1
  Mo  Mo15  1  0.21740513  0.80148047  0.28527543  1
  Mo  Mo16  1  0.45332414  0.53334584  0.62096714  1
  Mo  Mo17  1  0.04644082  0.47212156  0.62145306  1
  Mo  Mo18  1  0.95332414  0.46665416  0.87903286  1
  Mo  Mo19  1  0.54644082  0.52787844  0.87854694  1
  Mo  Mo20  1  0.54667586  0.46665416  0.37903286  1
  Mo  Mo21  1  0.95355918  0.52787844  0.37854694  1
  Mo  Mo22  1  0.04667586  0.53334584  0.12096714  1
  Mo  Mo23  1  0.45355918  0.47212156  0.12145306  1
  O  O0  1  0.40030610  0.45169123  0.55328240  1
  O  O1  1  0.10108457  0.55309774  0.55316232  1
  O  O2  1  0.90030610  0.54830877  0.94671760  1
  O  O3  1  0.60108457  0.44690226  0.94683768  1
  O  O4  1  0.59969390  0.54830877  0.44671760  1
  O  O5  1  0.89891543  0.44690226  0.44683768  1
  O  O6  1  0.09969390  0.45169123  0.05328240  1
  O  O7  1  0.39891543  0.55309774  0.05316232  1
  O  O8  1  0.48371520  0.16587503  0.98215917  1
  O  O9  1  0.02195552  0.83732993  0.99142194  1
  O  O10  1  0.98371520  0.83412497  0.51784083  1
  O  O11  1  0.52195552  0.16267007  0.50857806  1
  O  O12  1  0.51628480  0.83412497  0.01784083  1
  O  O13  1  0.97804448  0.16267007  0.00857806  1
  O  O14  1  0.01628480  0.16587503  0.48215917  1
  O  O15  1  0.47804448  0.83732993  0.49142194  1
  O  O16  1  0.74842032  0.15134833  0.93890205  1
  O  O17  1  0.77229077  0.85028220  0.94572545  1
  O  O18  1  0.24842032  0.84865167  0.56109795  1
  O  O19  1  0.27229077  0.14971780  0.55427455  1
  O  O20  1  0.25157968  0.84865167  0.06109795  1
  O  O21  1  0.22770923  0.14971780  0.05427455  1
  O  O22  1  0.75157968  0.15134833  0.43890205  1
  O  O23  1  0.72770923  0.85028220  0.44572545  1
  O  O24  1  0.61642856  0.51381942  0.63228401  1
  O  O25  1  0.88032228  0.48679003  0.63353108  1
  O  O26  1  0.11642856  0.48618058  0.86771599  1
  O  O27  1  0.38032228  0.51320997  0.86646892  1
  O  O28  1  0.38357144  0.48618058  0.36771599  1
  O  O29  1  0.11967772  0.51320997  0.36646892  1
  O  O30  1  0.88357144  0.51381942  0.13228401  1
  O  O31  1  0.61967772  0.48679003  0.13353108  1
  O  O32  1  0.41924367  0.66803743  0.59768254  1
  O  O33  1  0.08256609  0.34290138  0.59720370  1
  O  O34  1  0.91924367  0.33196257  0.90231746  1
  O  O35  1  0.58256609  0.65709862  0.90279630  1
  O  O36  1  0.58075633  0.33196257  0.40231746  1
  O  O37  1  0.91743391  0.65709862  0.40279630  1
  O  O38  1  0.08075633  0.66803743  0.09768254  1
  O  O39  1  0.41743391  0.34290138  0.09720370  1
  O  O40  1  0.55120584  0.01575293  0.87769755  1
  O  O41  1  0.94846130  0.99742569  0.88418706  1
  O  O42  1  0.05120584  0.98424707  0.62230245  1
  O  O43  1  0.44846130  0.00257431  0.61581294  1
  O  O44  1  0.44879416  0.98424707  0.12230245  1
  O  O45  1  0.05153870  0.00257431  0.11581294  1
  O  O46  1  0.94879416  0.01575293  0.37769755  1
  O  O47  1  0.55153870  0.99742569  0.38418706  1
  O  O48  1  0.38341059  0.49782738  0.70407029  1
  O  O49  1  0.11765572  0.50423005  0.70611336  1
  O  O50  1  0.88341059  0.50217262  0.79592971  1
  O  O51  1  0.61765572  0.49576995  0.79388664  1
  O  O52  1  0.61658941  0.50217262  0.29592971  1
  O  O53  1  0.88234428  0.49576995  0.29388664  1
  O  O54  1  0.11658941  0.49782738  0.20407029  1
  O  O55  1  0.38234428  0.50423005  0.20611336  1
  O  O56  1  0.11701630  0.18028513  0.86847954  1
  O  O57  1  0.36678391  0.81764572  0.86378573  1
  O  O58  1  0.61701630  0.81971487  0.63152046  1
  O  O59  1  0.86678391  0.18235428  0.63621427  1
  O  O60  1  0.88298370  0.81971487  0.13152046  1
  O  O61  1  0.63321609  0.18235428  0.13621427  1
  O  O62  1  0.38298370  0.18028513  0.36847954  1
  O  O63  1  0.13321609  0.81764572  0.36378573  1
  O  O64  1  0.33413297  0.10760332  0.79568394  1
  O  O65  1  0.16187741  0.89185901  0.79374655  1
  O  O66  1  0.83413297  0.89239668  0.70431606  1
  O  O67  1  0.66187741  0.10814099  0.70625345  1
  O  O68  1  0.66586703  0.89239668  0.20431606  1
  O  O69  1  0.83812259  0.10814099  0.20625345  1
  O  O70  1  0.16586703  0.10760332  0.29568394  1
  O  O71  1  0.33812259  0.89185901  0.29374655  1
  O  O72  1  0.12557258  0.16533669  0.71629538  1
  O  O73  1  0.37499585  0.83391830  0.70798445  1
  O  O74  1  0.62557258  0.83466331  0.78370462  1
  O  O75  1  0.87499585  0.16608170  0.79201555  1
  O  O76  1  0.87442742  0.83466331  0.28370462  1
  O  O77  1  0.62500415  0.16608170  0.29201555  1
  O  O78  1  0.37442742  0.16533669  0.21629538  1
  O  O79  1  0.12500415  0.83391830  0.20798445  1
  O  O80  1  0.27265041  0.33410757  0.78729812  1
  O  O81  1  0.22455851  0.66611722  0.78652663  1
  O  O82  1  0.77265041  0.66589243  0.71270188  1
  O  O83  1  0.72455851  0.33388278  0.71347337  1
  O  O84  1  0.72734959  0.66589243  0.21270188  1
  O  O85  1  0.77544149  0.33388278  0.21347337  1
  O  O86  1  0.22734959  0.33410757  0.28729812  1
  O  O87  1  0.27544149  0.66611722  0.28652663  1
  O  O88  1  0.55510494  0.23707561  0.84461638  1
  O  O89  1  0.94750047  0.76805485  0.84859813  1
  O  O90  1  0.05510494  0.76292439  0.65538362  1
  O  O91  1  0.44750047  0.23194515  0.65140187  1
  O  O92  1  0.44489506  0.76292439  0.15538362  1
  O  O93  1  0.05249953  0.23194515  0.15140187  1
  O  O94  1  0.94489506  0.23707561  0.34461638  1
  O  O95  1  0.55249953  0.76805485  0.34859813  1
loop_
_geom_bond_atom_site_label_1
_geom_bond_atom_site_label_2
_geom_bond_distance
_geom_bond_site_symmetry_2
Na0 O88 2.228629 1_555
Na0 O91 2.313605 1_555
Na0 O83 2.571731 1_555
Na0 O80 2.595529 1_555
Na0 O51 2.621534 1_555
Na0 O48 2.646168 1_555
Na1 O90 2.228629 1_655
Na1 O89 2.313605 1_555
Na1 O81 2.571731 1_655
Na1 O82 2.595529 1_555
Na1 O49 2.621534 1_655
Na1 O50 2.646168 1_555
Na2 O92 2.228629 1_555
Na2 O95 2.313605 1_555
Na2 O87 2.571731 1_555
Na2 O84 2.595529 1_555
Na2 O55 2.621534 1_555
Na2 O52 2.646168 1_555
Na3 O94 2.228629 1_455
Na3 O93 2.313605 1_555
Na3 O85 2.571731 1_455
Na3 O86 2.595529 1_555
Na3 O53 2.621534 1_455
Na3 O54 2.646168 1_555
Na4 O71 2.349508 1_555
Na4 O68 2.381651 1_555
Na4 O44 2.437942 1_555
Na4 O78 2.654144 1_565
Na4 O47 2.664419 1_555
Na4 O77 2.744571 1_565
Na5 O69 2.349508 1_555
Na5 O70 2.381651 1_655
Na5 O46 2.437942 1_555
Na5 O76 2.654144 1_545
Na5 O45 2.664419 1_655
Na5 O79 2.744571 1_645
Na6 O67 2.349508 1_555
Na6 O64 2.381651 1_555
Na6 O40 2.437942 1_555
Na6 O74 2.654144 1_545
Na6 O43 2.664419 1_555
Na6 O73 2.744571 1_545
Na7 O65 2.349508 1_555
Na7 O66 2.381651 1_455
Na7 O42 2.437942 1_555
Na7 O72 2.654144 1_565
Na7 O41 2.664419 1_455
Na7 O75 2.744571 1_465
Na8 O74 2.294427 1_555
Na8 O35 2.297579 1_555
Na8 O12 2.311778 1_556
Na8 O40 2.315783 1_565
Na8 O57 2.365448 1_555
Na8 O17 2.381444 1_555
Na9 O72 2.294427 1_555
Na9 O33 2.297579 1_555
Na9 O14 2.311778 1_555
Na9 O42 2.315783 1_545
Na9 O59 2.365448 1_455
Na9 O19 2.381444 1_555
Na10 O78 2.294427 1_555
Na10 O39 2.297579 1_555
Na10 O8 2.311778 1_554
Na10 O44 2.315783 1_545
Na10 O61 2.365448 1_555
Na10 O21 2.381444 1_555
Na11 O76 2.294427 1_555
Na11 O37 2.297579 1_555
Na11 O10 2.311778 1_555
Na11 O46 2.315783 1_565
Na11 O63 2.365448 1_655
Na11 O23 2.381444 1_555
Mo0 O88 1.765101 1_555
Mo0 O40 1.776695 1_555
Mo0 O8 1.779136 1_555
Mo0 O16 1.875988 1_555
Mo1 O89 1.761754 1_555
Mo1 O17 1.764299 1_555
Mo1 O9 1.832164 1_655
Mo1 O41 1.842931 1_555
Mo2 O90 1.765101 1_555
Mo2 O42 1.776695 1_555
Mo2 O10 1.779136 1_455
Mo2 O18 1.875988 1_555
Mo3 O91 1.761754 1_555
Mo3 O19 1.764299 1_555
Mo3 O11 1.832164 1_555
Mo3 O43 1.842931 1_555
Mo4 O92 1.765101 1_555
Mo4 O44 1.776695 1_555
Mo4 O12 1.779136 1_555
Mo4 O20 1.875988 1_555
Mo5 O93 1.761754 1_555
Mo5 O21 1.764299 1_555
Mo5 O13 1.832164 1_455
Mo5 O45 1.842931 1_555
Mo6 O94 1.765101 1_555
Mo6 O46 1.776695 1_555
Mo6 O14 1.779136 1_655
Mo6 O22 1.875988 1_555
Mo7 O95 1.761754 1_555
Mo7 O23 1.764299 1_555
Mo7 O15 1.832164 1_555
Mo7 O47 1.842931 1_555
Mo8 O72 1.749402 1_555
Mo8 O64 1.766618 1_555
Mo8 O56 1.836434 1_555
Mo8 O80 1.849706 1_555
Mo9 O65 1.763218 1_555
Mo9 O57 1.766918 1_555
Mo9 O73 1.832536 1_555
Mo9 O81 1.835241 1_555
Mo10 O74 1.749402 1_555
Mo10 O66 1.766618 1_555
Mo10 O58 1.836434 1_555
Mo10 O82 1.849706 1_555
Mo11 O67 1.763218 1_555
Mo11 O59 1.766918 1_555
Mo11 O75 1.832536 1_555
Mo11 O83 1.835241 1_555
Mo12 O76 1.749402 1_555
Mo12 O68 1.766618 1_555
Mo12 O60 1.836434 1_555
Mo12 O84 1.849706 1_555
Mo13 O69 1.763218 1_555
Mo13 O61 1.766918 1_555
Mo13 O77 1.832536 1_555
Mo13 O85 1.835241 1_555
Mo14 O78 1.749402 1_555
Mo14 O70 1.766618 1_555
Mo14 O62 1.836434 1_555
Mo14 O86 1.849706 1_555
Mo15 O71 1.763218 1_555
Mo15 O63 1.766918 1_555
Mo15 O79 1.832536 1_555
Mo15 O87 1.835241 1_555
Mo16 O0 1.751265 1_555
Mo16 O32 1.807681 1_555
Mo16 O48 1.812863 1_555
Mo16 O24 1.824262 1_555
Mo17 O33 1.751015 1_555
Mo17 O1 1.761844 1_555
Mo17 O49 1.833995 1_555
Mo17 O25 1.851347 1_455
Mo18 O2 1.751265 1_555
Mo18 O34 1.807681 1_555
Mo18 O50 1.812863 1_555
Mo18 O26 1.824262 1_655
Mo19 O35 1.751015 1_555
Mo19 O3 1.761844 1_555
Mo19 O51 1.833995 1_555
Mo19 O27 1.851347 1_555
Mo20 O4 1.751265 1_555
Mo20 O36 1.807681 1_555
Mo20 O52 1.812863 1_555
Mo20 O28 1.824262 1_555
Mo21 O37 1.751015 1_555
Mo21 O5 1.761844 1_555
Mo21 O53 1.833995 1_555
Mo21 O29 1.851347 1_655
Mo22 O6 1.751265 1_555
Mo22 O38 1.807681 1_555
Mo22 O54 1.812863 1_555
Mo22 O30 1.824262 1_455
Mo23 O39 1.751015 1_555
Mo23 O7 1.761844 1_555
Mo23 O55 1.833995 1_555
Mo23 O31 1.851347 1_555
O0 Rb3 2.990588 1_555
O0 Rb2 3.423824 1_555
O1 Rb2 2.905094 1_555
O1 Rb3 3.412078 1_555
O2 Rb1 2.990588 1_556
O2 Rb0 3.423824 1_556
O3 Rb0 2.905094 1_556
O3 Rb1 3.412078 1_556
O4 Rb7 2.990588 1_555
O4 Rb6 3.423824 1_555
O5 Rb6 2.905094 1_555
O5 Rb7 3.412078 1_555
O6 Rb5 2.990588 1_554
O6 Rb4 3.423824 1_554
O7 Rb4 2.905094 1_554
O7 Rb5 3.412078 1_554
O8 Rb5 3.132861 1_555
O8 Rb10 3.402362 1_545
O9 Sc6 2.156945 1_556
O9 Rb4 3.230401 1_555
O9 Rb10 3.482361 1_555
O10 Rb7 3.132861 1_555
O10 Rb11 3.402362 1_565
O11 Sc7 2.156945 1_555
O11 Rb6 3.230401 1_555
O11 Rb11 3.482361 1_555
O12 Rb1 3.132861 1_555
O12 Rb8 3.402362 1_565
O13 Sc4 2.156945 1_554
O13 Rb0 3.230401 1_555
O13 Rb8 3.482361 1_555
O14 Rb3 3.132861 1_555
O14 Rb9 3.402362 1_545
O15 Sc5 2.156945 1_555
O15 Rb2 3.230401 1_555
O15 Rb9 3.482361 1_555
O16 Sc4 2.090586 1_555
O16 Rb0 3.074424 1_556
O16 Rb8 3.096724 1_556
O17 Rb8 2.998599 1_566
O17 Rb1 3.025142 1_556
O18 Sc5 2.090586 1_555
O18 Rb2 3.074424 1_555
O18 Rb9 3.096724 1_555
O19 Rb9 2.998599 1_545
O19 Rb3 3.025142 1_555
O20 Sc6 2.090586 1_555
O20 Rb4 3.074424 1_554
O20 Rb10 3.096724 1_554
O21 Rb10 2.998599 1_544
O21 Rb5 3.025142 1_554
O22 Sc7 2.090586 1_555
O22 Rb6 3.074424 1_555
O22 Rb11 3.096724 1_555
O23 Rb11 2.998599 1_565
O23 Rb7 3.025142 1_555
O24 Sc1 2.167911 1_555
O24 Rb6 3.068062 1_555
O24 Rb7 3.208840 1_555
O25 Sc1 2.126835 1_555
O25 Rb7 3.071075 1_555
O25 Rb6 3.109532 1_555
O26 Sc0 2.167911 1_555
O26 Rb4 3.068062 1_555
O26 Rb5 3.208840 1_555
O27 Sc0 2.126835 1_555
O27 Rb5 3.071075 1_555
O27 Rb4 3.109532 1_555
O28 Sc3 2.167911 1_555
O28 Rb2 3.068062 1_555
O28 Rb3 3.208840 1_555
O29 Sc3 2.126835 1_555
O29 Rb3 3.071075 1_555
O29 Rb2 3.109532 1_555
O30 Sc2 2.167911 1_555
O30 Rb0 3.068062 1_555
O30 Rb1 3.208840 1_555
O31 Sc2 2.126835 1_555
O31 Rb1 3.071075 1_555
O31 Rb0 3.109532 1_555
O32 Sc5 2.165286 1_555
O32 Rb2 3.013554 1_555
O33 Rb3 2.898686 1_555
O34 Sc4 2.165286 1_555
O34 Rb0 3.013554 1_556
O35 Rb1 2.898686 1_556
O36 Sc7 2.165286 1_555
O36 Rb6 3.013554 1_555
O37 Rb7 2.898686 1_555
O38 Sc6 2.165286 1_555
O38 Rb4 3.013554 1_554
O39 Rb5 2.898686 1_554
O40 Rb10 3.419787 1_545
O41 Sc4 2.122838 1_565
O41 Rb10 3.511491 1_655
O42 Rb11 3.419787 1_465
O43 Sc5 2.122838 1_545
O43 Rb11 3.511491 1_555
O44 Rb8 3.419787 1_565
O45 Sc6 2.122838 1_545
O45 Rb8 3.511491 1_455
O46 Rb9 3.419787 1_645
O47 Sc7 2.122838 1_565
O47 Rb9 3.511491 1_555
O48 Sc0 2.114402 1_555
O49 Sc0 2.080333 1_555
O50 Sc1 2.114402 1_555
O51 Sc1 2.080333 1_555
O52 Sc2 2.114402 1_555
O53 Sc2 2.080333 1_555
O54 Sc3 2.114402 1_555
O55 Sc3 2.080333 1_555
O56 Sc4 2.201732 1_455
O56 Rb10 3.020059 1_545
O56 Rb5 3.307524 1_555
O57 Rb10 2.930043 1_555
O57 Rb4 3.178984 1_555
O58 Sc5 2.201732 1_555
O58 Rb11 3.020059 1_565
O58 Rb7 3.307524 1_555
O59 Rb11 2.930043 1_555
O59 Rb6 3.178984 1_555
O60 Sc6 2.201732 1_655
O60 Rb8 3.020059 1_565
O60 Rb1 3.307524 1_555
O61 Rb8 2.930043 1_555
O61 Rb0 3.178984 1_555
O62 Sc7 2.201732 1_555
O62 Rb9 3.020059 1_545
O62 Rb3 3.307524 1_555
O63 Rb9 2.930043 1_555
O63 Rb2 3.178984 1_555
O64 Rb10 3.073616 1_545
O65 Rb10 3.159043 1_555
O66 Rb11 3.073616 1_565
O67 Rb11 3.159043 1_555
O68 Rb8 3.073616 1_565
O69 Rb8 3.159043 1_555
O70 Rb9 3.073616 1_545
O71 Rb9 3.159043 1_555
O73 Sc5 2.109380 1_555
O75 Sc4 2.109380 1_555
O77 Sc7 2.109380 1_555
O79 Sc6 2.109380 1_555
O80 Sc0 2.110965 1_555
O80 Rb5 3.382077 1_555
O81 Sc0 2.143095 1_555
O81 Rb4 3.344835 1_555
O82 Sc1 2.110965 1_555
O82 Rb7 3.382077 1_555
O83 Sc1 2.143095 1_555
O83 Rb6 3.344835 1_555
O84 Sc2 2.110965 1_555
O84 Rb1 3.382077 1_555
O85 Sc2 2.143095 1_555
O85 Rb0 3.344835 1_555
O86 Sc3 2.110965 1_555
O86 Rb3 3.382077 1_555
O87 Sc3 2.143095 1_555
O87 Rb2 3.344835 1_555
