# generated using pymatgen
data_MnCr8Cu3S16
_symmetry_space_group_name_H-M   'P 1'
_cell_length_a   7.00838000
_cell_length_b   7.00838000
_cell_length_c   9.91132600
_cell_angle_alpha   90.00000000
_cell_angle_beta   90.00000000
_cell_angle_gamma   90.00000000
_symmetry_Int_Tables_number   1
_chemical_formula_structural   MnCr8Cu3S16
_chemical_formula_sum   'Mn1 Cr8 Cu3 S16'
_cell_volume   486.81846678
_cell_formula_units_Z   1
loop_
 _symmetry_equiv_pos_site_id
 _symmetry_equiv_pos_as_xyz
  1  'x, y, z'
loop_
 _atom_site_type_symbol
 _atom_site_label
 _atom_site_symmetry_multiplicity
 _atom_site_fract_x
 _atom_site_fract_y
 _atom_site_fract_z
 _atom_site_occupancy
  Mn  Mn0  1  0.50000000  0.50000000  0.50000000  1
  Cr  Cr0  1  0.75616800  0.00000000  0.62538600  1
  Cr  Cr1  1  0.25005700  0.50000000  0.12127900  1
  Cr  Cr2  1  0.24383200  0.00000000  0.62538600  1
  Cr  Cr3  1  0.74994300  0.50000000  0.12127900  1
  Cr  Cr4  1  0.00000000  0.24383200  0.37461400  1
  Cr  Cr5  1  0.50000000  0.74994300  0.87872100  1
  Cr  Cr6  1  0.50000000  0.25005700  0.87872100  1
  Cr  Cr7  1  0.00000000  0.75616800  0.37461400  1
  Cu  Cu0  1  0.00000000  0.00000000  0.00000000  1
  Cu  Cu1  1  0.50000000  0.00000000  0.24976400  1
  Cu  Cu2  1  0.00000000  0.50000000  0.75023600  1
  S  S0  1  0.76894700  0.50000000  0.36501500  1
  S  S1  1  0.26609500  0.00000000  0.86668700  1
  S  S2  1  0.23105300  0.50000000  0.36501500  1
  S  S3  1  0.73390500  0.00000000  0.86668700  1
  S  S4  1  0.50000000  0.23105300  0.63498500  1
  S  S5  1  0.00000000  0.73390500  0.13331300  1
  S  S6  1  0.50000000  0.76894700  0.63498500  1
  S  S7  1  0.00000000  0.26609500  0.13331300  1
  S  S8  1  0.23404200  0.00000000  0.38299600  1
  S  S9  1  0.73440300  0.50000000  0.88330300  1
  S  S10  1  0.76595800  0.00000000  0.38299600  1
  S  S11  1  0.26559700  0.50000000  0.88330300  1
  S  S12  1  0.50000000  0.26559700  0.11669700  1
  S  S13  1  0.00000000  0.76595800  0.61700400  1
  S  S14  1  0.50000000  0.73440300  0.11669700  1
  S  S15  1  0.00000000  0.23404200  0.61700400  1
loop_
_geom_bond_atom_site_label_1
_geom_bond_atom_site_label_2
_geom_bond_distance
_geom_bond_site_symmetry_2
Mn0 S4 2.311430 1_555
Mn0 S2 2.311430 1_555
Mn0 S0 2.311430 1_555
Mn0 S6 2.311430 1_555
Cr0 S13 2.370141 1_645
Cr0 S15 2.370141 1_655
Cr0 S3 2.396697 1_555
Cr0 S10 2.403386 1_555
Cr0 S4 2.419585 1_555
Cr0 S6 2.419585 1_545
Cr1 S11 2.361171 1_554
Cr1 S14 2.401925 1_555
Cr1 S12 2.401925 1_555
Cr1 S7 2.402655 1_555
Cr1 S5 2.402655 1_555
Cr1 S2 2.419416 1_555
Cr2 S13 2.370141 1_545
Cr2 S15 2.370141 1_555
Cr2 S1 2.396697 1_555
Cr2 S8 2.403386 1_555
Cr2 S4 2.419585 1_555
Cr2 S6 2.419585 1_545
Cr3 S9 2.361171 1_554
Cr3 S14 2.401925 1_555
Cr3 S12 2.401925 1_555
Cr3 S7 2.402655 1_655
Cr3 S5 2.402655 1_655
Cr3 S0 2.419416 1_555
Cr4 S10 2.370141 1_455
Cr4 S8 2.370141 1_555
Cr4 S7 2.396697 1_555
Cr4 S15 2.403386 1_555
Cr4 S2 2.419585 1_555
Cr4 S0 2.419585 1_455
Cr5 S14 2.361171 1_556
Cr5 S11 2.401925 1_555
Cr5 S9 2.401925 1_555
Cr5 S1 2.402655 1_565
Cr5 S3 2.402655 1_565
Cr5 S6 2.419416 1_555
Cr6 S12 2.361171 1_556
Cr6 S11 2.401925 1_555
Cr6 S9 2.401925 1_555
Cr6 S1 2.402655 1_555
Cr6 S3 2.402655 1_555
Cr6 S4 2.419416 1_555
Cr7 S8 2.370141 1_565
Cr7 S10 2.370141 1_465
Cr7 S5 2.396697 1_555
Cr7 S13 2.403386 1_555
Cr7 S2 2.419585 1_555
Cr7 S0 2.419585 1_455
Cu0 S5 2.285539 1_545
Cu0 S7 2.285539 1_555
Cu0 S3 2.285539 1_454
Cu0 S1 2.285539 1_554
Cu1 S14 2.281282 1_545
Cu1 S12 2.281282 1_555
Cu1 S8 2.284292 1_555
Cu1 S10 2.284292 1_555
Cu2 S11 2.281282 1_555
Cu2 S9 2.281282 1_455
Cu2 S13 2.284292 1_555
Cu2 S15 2.284292 1_555
