# generated using pymatgen
data_Ba(FeO2)2
_symmetry_space_group_name_H-M   'P 1'
_cell_length_a   10.50038519
_cell_length_b   10.50043286
_cell_length_c   5.41463758
_cell_angle_alpha   89.99990968
_cell_angle_beta   90.00010398
_cell_angle_gamma   132.18728936
_symmetry_Int_Tables_number   1
_chemical_formula_structural   Ba(FeO2)2
_chemical_formula_sum   'Ba4 Fe8 O16'
_cell_volume   442.35692971
_cell_formula_units_Z   4
loop_
 _symmetry_equiv_pos_site_id
 _symmetry_equiv_pos_as_xyz
  1  'x, y, z'
loop_
 _atom_site_type_symbol
 _atom_site_label
 _atom_site_symmetry_multiplicity
 _atom_site_fract_x
 _atom_site_fract_y
 _atom_site_fract_z
 _atom_site_occupancy
  Ba  Ba0  1  0.61735650  0.38264514  0.27534416  1
  Ba  Ba1  1  0.38264335  0.61735439  0.77534233  1
  Ba  Ba2  1  0.13203773  0.86796079  0.23501549  1
  Ba  Ba3  1  0.86796338  0.13204068  0.73501437  1
  Fe  Fe0  1  0.91858542  0.49883988  0.74727718  1
  Fe  Fe1  1  0.08141682  0.50116205  0.24727771  1
  Fe  Fe2  1  0.50116589  0.08142034  0.74727661  1
  Fe  Fe3  1  0.49883728  0.91858118  0.24727520  1
  Fe  Fe4  1  0.76459590  0.67668812  0.76851590  1
  Fe  Fe5  1  0.23540305  0.32331220  0.26851475  1
  Fe  Fe6  1  0.32331164  0.23540553  0.76851605  1
  Fe  Fe7  1  0.67668724  0.76459384  0.26851746  1
  O  O0  1  0.28305021  0.71696036  0.14163351  1
  O  O1  1  0.71695179  0.28303760  0.64163217  1
  O  O2  1  0.45002638  0.54997507  0.25886148  1
  O  O3  1  0.54997172  0.45002329  0.75886093  1
  O  O4  1  0.92077240  0.50335427  0.09564747  1
  O  O5  1  0.07922818  0.49664891  0.59564888  1
  O  O6  1  0.49664211  0.07922884  0.09565484  1
  O  O7  1  0.50335426  0.92077138  0.59565223  1
  O  O8  1  0.92176901  0.66869675  0.62115963  1
  O  O9  1  0.07822869  0.33130109  0.12115864  1
  O  O10  1  0.33130117  0.07822504  0.62115681  1
  O  O11  1  0.66869800  0.92177359  0.12115835  1
  O  O12  1  0.73843404  0.81629155  0.60447172  1
  O  O13  1  0.26156699  0.18370855  0.10447074  1
  O  O14  1  0.18370932  0.26156295  0.60447228  1
  O  O15  1  0.81629152  0.73843661  0.10447110  1
loop_
_geom_bond_atom_site_label_1
_geom_bond_atom_site_label_2
_geom_bond_distance
_geom_bond_site_symmetry_2
Ba0 O6 2.698128 1_555
Ba0 O4 2.698142 1_555
Ba0 O1 2.755045 1_555
Ba0 O3 2.920251 1_555
Ba0 O13 2.948735 1_555
Ba0 O15 2.948768 1_555
Ba0 O3 3.081292 1_554
Ba0 O8 3.138488 1_555
Ba0 O10 3.138522 1_555
Ba0 O2 3.213831 1_555
Ba1 O5 2.698139 1_555
Ba1 O7 2.698145 1_555
Ba1 O0 2.755038 1_556
Ba1 O2 2.920256 1_556
Ba1 O12 2.948741 1_555
Ba1 O14 2.948766 1_555
Ba1 O2 3.081282 1_555
Ba1 O9 3.138505 1_556
Ba1 O11 3.138527 1_556
Ba1 O3 3.213826 1_555
Ba2 O15 2.699122 1_455
Ba2 O13 2.699136 1_565
Ba2 O10 2.723861 1_565
Ba2 O8 2.723888 1_455
Ba2 O0 2.942956 1_555
Ba2 O6 2.956485 1_565
Ba2 O4 2.956531 1_455
Ba3 O14 2.699125 1_655
Ba3 O12 2.699147 1_545
Ba3 O9 2.723868 1_656
Ba3 O11 2.723886 1_546
Ba3 O1 2.942913 1_555
Ba3 O7 2.956523 1_545
Ba3 O5 2.956541 1_655
Fe0 O1 1.871067 1_555
Fe0 O4 1.886647 1_556
Fe0 O8 1.889043 1_555
Fe0 O5 1.889986 1_655
Fe1 O0 1.871046 1_555
Fe1 O5 1.886651 1_555
Fe1 O9 1.889059 1_555
Fe1 O4 1.890012 1_455
Fe2 O1 1.870933 1_555
Fe2 O6 1.886691 1_556
Fe2 O10 1.889041 1_555
Fe2 O7 1.890026 1_545
Fe3 O0 1.870945 1_555
Fe3 O7 1.886683 1_555
Fe3 O11 1.889017 1_555
Fe3 O6 1.890045 1_565
Fe4 O3 1.882061 1_555
Fe4 O15 1.884510 1_556
Fe4 O8 1.885050 1_555
Fe4 O12 1.885245 1_555
Fe5 O2 1.882049 1_555
Fe5 O14 1.884522 1_555
Fe5 O9 1.885042 1_555
Fe5 O13 1.885264 1_555
Fe6 O3 1.882014 1_555
Fe6 O13 1.884502 1_556
Fe6 O10 1.885121 1_555
Fe6 O14 1.885197 1_555
Fe7 O2 1.882021 1_555
Fe7 O12 1.884503 1_555
Fe7 O11 1.885109 1_555
Fe7 O15 1.885224 1_555
