# generated using pymatgen
data_Fe2B(PO4)3
_symmetry_space_group_name_H-M   'P 1'
_cell_length_a   8.12703992
_cell_length_b   8.12703992
_cell_length_c   7.51286800
_cell_angle_alpha   90.00000000
_cell_angle_beta   90.00000000
_cell_angle_gamma   119.99999931
_symmetry_Int_Tables_number   1
_chemical_formula_structural   Fe2B(PO4)3
_chemical_formula_sum   'Fe4 B2 P6 O24'
_cell_volume   429.73544744
_cell_formula_units_Z   2
loop_
 _symmetry_equiv_pos_site_id
 _symmetry_equiv_pos_as_xyz
  1  'x, y, z'
loop_
 _atom_site_type_symbol
 _atom_site_label
 _atom_site_symmetry_multiplicity
 _atom_site_fract_x
 _atom_site_fract_y
 _atom_site_fract_z
 _atom_site_occupancy
  Fe  Fe0  1  0.66666700  0.33333300  0.45162500  1
  Fe  Fe1  1  0.33333300  0.66666700  0.95162500  1
  Fe  Fe2  1  0.33333300  0.66666700  0.54837500  1
  Fe  Fe3  1  0.66666700  0.33333300  0.04837500  1
  B  B0  1  0.00000000  0.00000000  0.75000000  1
  B  B1  1  0.00000000  0.00000000  0.25000000  1
  P  P0  1  0.68481300  0.63980100  0.75000000  1
  P  P1  1  0.36019900  0.04501300  0.75000000  1
  P  P2  1  0.95498700  0.31518700  0.75000000  1
  P  P3  1  0.31518700  0.36019900  0.25000000  1
  P  P4  1  0.63980100  0.95498700  0.25000000  1
  P  P5  1  0.04501300  0.68481300  0.25000000  1
  O  O0  1  0.81055700  0.86662500  0.75000000  1
  O  O1  1  0.13337500  0.94393200  0.75000000  1
  O  O2  1  0.05606800  0.18944300  0.75000000  1
  O  O3  1  0.18944300  0.13337500  0.25000000  1
  O  O4  1  0.86662500  0.05606800  0.25000000  1
  O  O5  1  0.94393200  0.81055700  0.25000000  1
  O  O6  1  0.72791700  0.56586100  0.58010600  1
  O  O7  1  0.43413900  0.16205600  0.58010600  1
  O  O8  1  0.83794400  0.27208300  0.58010600  1
  O  O9  1  0.27208300  0.43413900  0.08010600  1
  O  O10  1  0.56586100  0.83794400  0.08010600  1
  O  O11  1  0.16205600  0.72791700  0.08010600  1
  O  O12  1  0.27208300  0.43413900  0.41989400  1
  O  O13  1  0.56586100  0.83794400  0.41989400  1
  O  O14  1  0.16205600  0.72791700  0.41989400  1
  O  O15  1  0.72791700  0.56586100  0.91989400  1
  O  O16  1  0.43413900  0.16205600  0.91989400  1
  O  O17  1  0.83794400  0.27208300  0.91989400  1
  O  O18  1  0.47897800  0.60524700  0.75000000  1
  O  O19  1  0.39475300  0.87373100  0.75000000  1
  O  O20  1  0.12626900  0.52102200  0.75000000  1
  O  O21  1  0.52102200  0.39475300  0.25000000  1
  O  O22  1  0.60524700  0.12626900  0.25000000  1
  O  O23  1  0.87373100  0.47897800  0.25000000  1
loop_
_geom_bond_atom_site_label_1
_geom_bond_atom_site_label_2
_geom_bond_distance
_geom_bond_site_symmetry_2
Fe0 O8 1.951924 1_555
Fe0 O7 1.951929 1_555
Fe0 O6 1.951931 1_555
Fe0 O22 2.129695 1_555
Fe0 O23 2.129697 1_555
Fe0 O21 2.129701 1_555
Fe1 O11 1.951924 1_556
Fe1 O10 1.951929 1_556
Fe1 O9 1.951931 1_556
Fe1 O19 2.129695 1_555
Fe1 O20 2.129697 1_555
Fe1 O18 2.129701 1_555
Fe2 O14 1.951924 1_555
Fe2 O13 1.951929 1_555
Fe2 O12 1.951931 1_555
Fe2 O19 2.129695 1_555
Fe2 O20 2.129697 1_555
Fe2 O18 2.129701 1_555
Fe3 O17 1.951924 1_554
Fe3 O16 1.951929 1_554
Fe3 O15 1.951931 1_554
Fe3 O22 2.129695 1_555
Fe3 O23 2.129697 1_555
Fe3 O21 2.129701 1_555
B0 O1 1.369848 1_545
B0 O2 1.369848 1_555
B0 O0 1.369848 1_445
B1 O4 1.369848 1_455
B1 O5 1.369848 1_445
B1 O3 1.369848 1_555
O0 P0 1.599581 1_555
O1 P1 1.599580 1_565
O2 P2 1.599588 1_455
O3 P3 1.599581 1_555
O4 P4 1.599580 1_545
O5 P5 1.599588 1_655
O6 P0 1.524300 1_555
O7 P1 1.524297 1_555
O8 P2 1.524296 1_555
O9 P3 1.524300 1_555
O10 P4 1.524297 1_555
O11 P5 1.524296 1_555
O12 P3 1.524300 1_555
O13 P4 1.524297 1_555
O14 P5 1.524296 1_555
O15 P0 1.524300 1_555
O16 P1 1.524297 1_555
O17 P2 1.524296 1_555
O18 P0 1.551597 1_555
O19 P1 1.551605 1_565
O20 P2 1.551599 1_455
O21 P3 1.551597 1_555
O22 P4 1.551605 1_545
O23 P5 1.551599 1_655
