# generated using pymatgen
data_H4I3NO9
_symmetry_space_group_name_H-M   'P 1'
_cell_length_a   8.25556100
_cell_length_b   8.26123818
_cell_length_c   8.57921906
_cell_angle_alpha   116.17391523
_cell_angle_beta   84.28288437
_cell_angle_gamma   115.07241283
_symmetry_Int_Tables_number   1
_chemical_formula_structural   H4I3NO9
_chemical_formula_sum   'H8 I6 N2 O18'
_cell_volume   472.88369805
_cell_formula_units_Z   2
loop_
 _symmetry_equiv_pos_site_id
 _symmetry_equiv_pos_as_xyz
  1  'x, y, z'
loop_
 _atom_site_type_symbol
 _atom_site_label
 _atom_site_symmetry_multiplicity
 _atom_site_fract_x
 _atom_site_fract_y
 _atom_site_fract_z
 _atom_site_occupancy
  H  H0  1  0.20855000  0.85506900  0.77252000  1
  H  H1  1  0.79145000  0.14493100  0.22748000  1
  H  H2  1  0.33762100  0.47362500  0.88041600  1
  H  H3  1  0.66237900  0.52637500  0.11958400  1
  H  H4  1  0.18402400  0.83245600  0.58455700  1
  H  H5  1  0.81597600  0.16754400  0.41544300  1
  H  H6  1  0.40292500  0.93909800  0.67644700  1
  H  H7  1  0.59707500  0.06090200  0.32355300  1
  I  I0  1  0.76356400  0.73289500  0.82493900  1
  I  I1  1  0.23643600  0.26710500  0.17506100  1
  I  I2  1  0.28883300  0.74734300  0.25935100  1
  I  I3  1  0.71116700  0.25265700  0.74064900  1
  I  I4  1  0.79378500  0.78201500  0.29555700  1
  I  I5  1  0.20621500  0.21798500  0.70444300  1
  N  N0  1  0.26088600  0.91641100  0.65396100  1
  N  N1  1  0.73911400  0.08358900  0.34603900  1
  O  O0  1  0.52679500  0.60310400  0.79938600  1
  O  O1  1  0.47320500  0.39689600  0.20061400  1
  O  O2  1  0.86588100  0.58434700  0.81446600  1
  O  O3  1  0.13411900  0.41565300  0.18553400  1
  O  O4  1  0.48362000  0.78967900  0.17060300  1
  O  O5  1  0.51638000  0.21032100  0.82939700  1
  O  O6  1  0.31802700  0.56589400  0.48515600  1
  O  O7  1  0.68197300  0.43410600  0.51484400  1
  O  O8  1  0.76139900  0.89445600  0.45129900  1
  O  O9  1  0.23860100  0.10554400  0.54870100  1
  O  O10  1  0.78688300  0.62689100  0.08593300  1
  O  O11  1  0.21311700  0.37310900  0.91406700  1
  O  O12  1  0.01742900  0.77767700  0.40210400  1
  O  O13  1  0.98257100  0.22232300  0.59789600  1
  O  O14  1  0.37687500  0.97674900  0.29020800  1
  O  O15  1  0.62312500  0.02325100  0.70979200  1
  O  O16  1  0.86067600  0.03514500  0.11969400  1
  O  O17  1  0.13932400  0.96485500  0.88030600  1
loop_
_geom_bond_atom_site_label_1
_geom_bond_atom_site_label_2
_geom_bond_distance
_geom_bond_site_symmetry_2
H0 O17 1.264290 1_555
H0 N0 1.288280 1_555
H1 O16 1.264290 1_555
H1 N1 1.288280 1_555
H2 O11 1.121766 1_555
H2 O0 1.757936 1_555
H2 I5 1.867627 1_555
H3 O10 1.121766 1_555
H3 O1 1.757936 1_555
H3 I4 1.867627 1_555
H4 N0 0.759063 1_555
H5 N1 0.759063 1_555
H6 N0 1.128835 1_555
H6 O15 1.651325 1_565
H7 N1 1.128835 1_555
H7 O14 1.651325 1_545
I0 O2 1.730232 1_555
I0 O0 1.766397 1_555
I0 O7 2.603621 1_555
I1 O3 1.730232 1_555
I1 O1 1.766397 1_555
I1 O6 2.603621 1_555
I2 O14 1.618131 1_555
I2 O4 1.673997 1_555
I2 O3 2.281441 1_555
I2 O12 2.498274 1_555
I3 O15 1.618131 1_555
I3 O5 1.673997 1_555
I3 O2 2.281441 1_555
I3 O13 2.498274 1_555
I4 O8 1.328159 1_555
I4 O10 1.674859 1_555
I4 O12 2.160305 1_655
I5 O9 1.328159 1_555
I5 O11 1.674859 1_555
I5 O13 2.160305 1_455
