# generated using pymatgen
data_MgZn
_symmetry_space_group_name_H-M   'P 1'
_cell_length_a   5.11189579
_cell_length_b   5.11189579
_cell_length_c   4.82237200
_cell_angle_alpha   90.00000000
_cell_angle_beta   90.00000000
_cell_angle_gamma   119.80188174
_symmetry_Int_Tables_number   1
_chemical_formula_structural   MgZn
_chemical_formula_sum   'Mg3 Zn3'
_cell_volume   109.35002321
_cell_formula_units_Z   3
loop_
 _symmetry_equiv_pos_site_id
 _symmetry_equiv_pos_as_xyz
  1  'x, y, z'
loop_
 _atom_site_type_symbol
 _atom_site_label
 _atom_site_symmetry_multiplicity
 _atom_site_fract_x
 _atom_site_fract_y
 _atom_site_fract_z
 _atom_site_occupancy
  Mg  Mg0  1  0.98169500  0.32778500  0.00000000  1
  Mg  Mg1  1  0.32778500  0.98169500  0.00000000  1
  Mg  Mg2  1  0.35547000  0.35547000  0.50000000  1
  Zn  Zn0  1  0.67176900  0.67176900  0.00000000  1
  Zn  Zn1  1  0.99010200  0.67317900  0.50000000  1
  Zn  Zn2  1  0.67317900  0.99010200  0.50000000  1
loop_
_geom_bond_atom_site_label_1
_geom_bond_atom_site_label_2
_geom_bond_distance
_geom_bond_site_symmetry_2
Mg0 Zn0 2.893304 1_555
Mg0 Mg1 2.902646 1_545
Mg0 Mg1 2.902646 1_655
Mg0 Zn0 2.911150 1_545
Mg0 Zn2 2.928270 1_544
Mg0 Zn2 2.928270 1_545
Mg0 Zn1 2.976180 1_555
Mg0 Zn1 2.976180 1_554
Mg0 Mg2 3.035759 1_654
Mg0 Mg2 3.035759 1_655
Mg0 Zn0 3.061064 1_655
Mg0 Mg1 3.061239 1_645
Mg1 Zn0 2.893304 1_555
Mg1 Zn0 2.911150 1_455
Mg1 Zn1 2.928270 1_454
Mg1 Zn1 2.928270 1_455
Mg1 Zn2 2.976180 1_554
Mg1 Zn2 2.976180 1_555
Mg1 Mg2 3.035759 1_565
Mg1 Mg2 3.035759 1_564
Mg1 Zn0 3.061064 1_565
Mg2 Zn1 2.815152 1_555
Mg2 Zn2 2.815152 1_555
Mg2 Zn0 2.905825 1_555
Mg2 Zn0 2.905825 1_556
Mg2 Zn2 3.023450 1_545
Mg2 Zn1 3.023450 1_455
Mg2 Zn1 3.029513 1_445
Mg2 Zn2 3.029513 1_445
Zn0 Zn2 2.906934 1_554
Zn0 Zn1 2.906934 1_555
Zn0 Zn1 2.906934 1_554
Zn0 Zn2 2.906934 1_555
Zn1 Zn2 2.803251 1_555
Zn1 Zn2 3.032218 1_545
Zn1 Zn2 3.032218 1_655
