# generated using pymatgen
data_Y6Mn14Fe9
_symmetry_space_group_name_H-M   'P 1'
_cell_length_a   8.48224082
_cell_length_b   8.48224082
_cell_length_c   8.48224082
_cell_angle_alpha   60.00000000
_cell_angle_beta   60.00000000
_cell_angle_gamma   60.00000000
_symmetry_Int_Tables_number   1
_chemical_formula_structural   Y6Mn14Fe9
_chemical_formula_sum   'Y6 Mn14 Fe9'
_cell_volume   431.53576639
_cell_formula_units_Z   1
loop_
 _symmetry_equiv_pos_site_id
 _symmetry_equiv_pos_as_xyz
  1  'x, y, z'
loop_
 _atom_site_type_symbol
 _atom_site_label
 _atom_site_symmetry_multiplicity
 _atom_site_fract_x
 _atom_site_fract_y
 _atom_site_fract_z
 _atom_site_occupancy
  Y  Y0  1  0.70639300  0.70639300  0.29360700  1
  Y  Y1  1  0.29360700  0.70639300  0.29360700  1
  Y  Y2  1  0.70639300  0.29360700  0.29360700  1
  Y  Y3  1  0.29360700  0.29360700  0.70639300  1
  Y  Y4  1  0.70639300  0.29360700  0.70639300  1
  Y  Y5  1  0.29360700  0.70639300  0.70639300  1
  Mn  Mn0  1  0.00000000  0.00000000  0.50000000  1
  Mn  Mn1  1  0.50000000  0.00000000  0.50000000  1
  Mn  Mn2  1  0.00000000  0.50000000  0.50000000  1
  Mn  Mn3  1  0.50000000  0.50000000  0.00000000  1
  Mn  Mn4  1  0.00000000  0.50000000  0.00000000  1
  Mn  Mn5  1  0.50000000  0.00000000  0.00000000  1
  Mn  Mn6  1  0.88035300  0.88035300  0.35894200  1
  Mn  Mn7  1  0.88035300  0.35894200  0.88035300  1
  Mn  Mn8  1  0.35894200  0.88035300  0.88035300  1
  Mn  Mn9  1  0.88035300  0.88035300  0.88035300  1
  Mn  Mn10  1  0.11964700  0.11964700  0.64105800  1
  Mn  Mn11  1  0.11964700  0.64105800  0.11964700  1
  Mn  Mn12  1  0.64105800  0.11964700  0.11964700  1
  Mn  Mn13  1  0.11964700  0.11964700  0.11964700  1
  Fe  Fe0  1  0.00000000  0.00000000  0.00000000  1
  Fe  Fe1  1  0.67990000  0.67990000  0.96029900  1
  Fe  Fe2  1  0.67990000  0.96029900  0.67990000  1
  Fe  Fe3  1  0.96029900  0.67990000  0.67990000  1
  Fe  Fe4  1  0.67990000  0.67990000  0.67990000  1
  Fe  Fe5  1  0.32010000  0.32010000  0.03970100  1
  Fe  Fe6  1  0.32010000  0.03970100  0.32010000  1
  Fe  Fe7  1  0.03970100  0.32010000  0.32010000  1
  Fe  Fe8  1  0.32010000  0.32010000  0.32010000  1
loop_
_geom_bond_atom_site_label_1
_geom_bond_atom_site_label_2
_geom_bond_distance
_geom_bond_site_symmetry_2
Mn0 Mn6 2.636298 1_445
Mn0 Mn10 2.636298 1_555
Mn0 Mn13 2.636305 1_555
Mn0 Mn9 2.636305 1_445
Mn0 Y1 3.044205 1_545
Mn0 Y2 3.044205 1_455
Mn0 Y5 3.044205 1_545
Mn0 Y4 3.044205 1_455
Mn1 Mn12 2.636305 1_555
Mn1 Mn10 2.636305 1_555
Mn1 Mn6 2.636305 1_545
Mn1 Mn8 2.636305 1_545
Mn1 Y0 3.044205 1_545
Mn1 Y5 3.044205 1_545
Mn1 Y2 3.044205 1_555
Mn1 Y3 3.044205 1_555
Mn2 Mn7 2.636305 1_455
Mn2 Mn6 2.636305 1_455
Mn2 Y4 3.044205 1_455
Mn2 Y0 3.044205 1_455
Mn2 Y3 3.044205 1_555
Mn2 Y1 3.044205 1_555
Mn3 Mn7 2.636305 1_554
Mn3 Mn8 2.636305 1_554
Mn3 Y4 3.044205 1_554
Mn3 Y5 3.044205 1_554
Mn3 Y1 3.044205 1_555
Mn3 Y2 3.044205 1_555
Mn4 Mn7 2.636298 1_454
Mn4 Mn9 2.636305 1_454
Mn4 Y2 3.044205 1_455
Mn4 Y3 3.044205 1_554
Mn4 Y5 3.044205 1_554
Mn4 Y0 3.044205 1_455
Mn5 Mn8 2.636298 1_544
Mn5 Mn9 2.636305 1_544
Mn5 Y1 3.044205 1_545
Mn5 Y3 3.044205 1_554
Mn5 Y0 3.044205 1_545
Mn5 Y4 3.044205 1_554
Mn6 Y2 2.911098 1_565
Mn6 Y1 2.911098 1_655
Mn6 Y0 2.911105 1_555
Mn7 Y2 2.911098 1_556
Mn7 Y3 2.911098 1_655
Mn7 Y4 2.911105 1_555
Mn8 Y1 2.911098 1_556
Mn8 Y3 2.911098 1_565
Mn8 Y5 2.911105 1_555
Mn9 Y0 2.911099 1_556
Mn9 Y4 2.911099 1_565
Mn9 Y5 2.911099 1_655
Mn10 Mn2 2.636305 1_555
Mn10 Mn9 2.870499 1_445
Mn10 Mn7 2.870511 1_455
Mn10 Mn8 2.870511 1_545
Mn10 Y4 2.911098 1_455
Mn10 Y5 2.911098 1_545
Mn10 Y3 2.911105 1_555
Mn11 Mn4 2.636298 1_555
Mn11 Mn2 2.636305 1_555
Mn11 Mn3 2.636305 1_555
Mn11 Mn9 2.870499 1_454
Mn11 Mn6 2.870511 1_455
Mn11 Mn8 2.870511 1_554
Mn11 Y5 2.911098 1_554
Mn11 Y0 2.911098 1_455
Mn11 Y1 2.911105 1_555
Mn12 Mn5 2.636298 1_555
Mn12 Mn3 2.636305 1_555
Mn12 Mn9 2.870499 1_544
Mn12 Mn6 2.870511 1_545
Mn12 Mn7 2.870511 1_554
Mn12 Y4 2.911098 1_554
Mn12 Y0 2.911098 1_545
Mn12 Y2 2.911105 1_555
Mn13 Mn5 2.636305 1_555
Mn13 Mn4 2.636305 1_555
Mn13 Mn6 2.870499 1_445
Mn13 Mn7 2.870499 1_454
Mn13 Mn8 2.870499 1_544
Mn13 Y1 2.911099 1_545
Mn13 Y2 2.911099 1_455
Mn13 Y3 2.911099 1_554
Fe0 Mn9 2.485925 1_444
Fe0 Mn13 2.485925 1_555
Fe0 Mn11 2.485932 1_545
Fe0 Mn12 2.485932 1_455
Fe0 Mn6 2.485932 1_445
Fe0 Mn7 2.485932 1_454
Fe0 Mn10 2.485932 1_554
Fe0 Mn8 2.485932 1_544
Fe1 Fe3 2.378412 1_555
Fe1 Fe4 2.378412 1_555
Fe1 Fe2 2.378412 1_555
Fe1 Mn3 2.463996 1_556
Fe1 Mn5 2.464004 1_566
Fe1 Mn4 2.464004 1_656
Fe1 Mn8 2.612801 1_555
Fe1 Mn7 2.612801 1_555
Fe1 Mn9 2.612816 1_555
Fe1 Y2 3.068416 1_556
Fe1 Y1 3.068416 1_556
Fe1 Y0 3.068421 1_556
Fe2 Fe3 2.378412 1_555
Fe2 Fe4 2.378412 1_555
Fe2 Mn1 2.463996 1_565
Fe2 Mn5 2.464004 1_566
Fe2 Mn0 2.464004 1_665
Fe2 Mn8 2.612801 1_555
Fe2 Mn6 2.612801 1_555
Fe2 Mn9 2.612816 1_555
Fe2 Y3 3.068416 1_565
Fe2 Y2 3.068416 1_565
Fe2 Y4 3.068421 1_565
Fe3 Fe4 2.378412 1_555
Fe3 Mn2 2.463996 1_655
Fe3 Mn4 2.464004 1_656
Fe3 Mn0 2.464004 1_665
Fe3 Mn7 2.612801 1_555
Fe3 Mn6 2.612801 1_555
Fe3 Mn9 2.612816 1_555
Fe3 Y1 3.068416 1_655
Fe3 Y3 3.068416 1_655
Fe3 Y5 3.068421 1_655
Fe4 Mn2 2.464001 1_655
Fe4 Mn1 2.464001 1_565
Fe4 Mn3 2.464001 1_556
Fe4 Mn7 2.612809 1_555
Fe4 Mn8 2.612809 1_555
Fe4 Mn6 2.612809 1_555
Fe4 Y0 3.068412 1_555
Fe4 Y5 3.068412 1_555
Fe4 Y4 3.068412 1_555
Fe5 Fe7 2.378412 1_555
Fe5 Fe8 2.378412 1_555
Fe5 Fe6 2.378412 1_555
Fe5 Mn3 2.463996 1_555
Fe5 Mn5 2.464004 1_555
Fe5 Mn4 2.464004 1_555
Fe5 Mn12 2.612801 1_555
Fe5 Mn11 2.612801 1_555
Fe5 Mn13 2.612816 1_555
Fe5 Y4 3.068416 1_554
Fe5 Y5 3.068416 1_554
Fe5 Y3 3.068421 1_554
Fe6 Fe7 2.378412 1_555
Fe6 Fe8 2.378412 1_555
Fe6 Mn1 2.463996 1_555
Fe6 Mn5 2.464004 1_555
Fe6 Mn0 2.464004 1_555
Fe6 Mn12 2.612801 1_555
Fe6 Mn10 2.612801 1_555
Fe6 Mn13 2.612816 1_555
Fe6 Y0 3.068416 1_545
Fe6 Y5 3.068416 1_545
Fe6 Y1 3.068421 1_545
Fe7 Fe8 2.378412 1_555
Fe7 Mn2 2.463996 1_555
Fe7 Mn0 2.464004 1_555
Fe7 Mn4 2.464004 1_555
Fe7 Mn10 2.612801 1_555
Fe7 Mn11 2.612801 1_555
Fe7 Mn13 2.612816 1_555
Fe7 Y0 3.068416 1_455
Fe7 Y4 3.068416 1_455
Fe7 Y2 3.068421 1_455
Fe8 Mn3 2.464001 1_555
Fe8 Mn2 2.464001 1_555
Fe8 Mn1 2.464001 1_555
Fe8 Mn12 2.612809 1_555
Fe8 Mn10 2.612809 1_555
Fe8 Mn11 2.612809 1_555
Fe8 Y2 3.068412 1_555
Fe8 Y1 3.068412 1_555
Fe8 Y3 3.068412 1_555
