# generated using pymatgen
data_BaZnCr4O8
_symmetry_space_group_name_H-M   'P 1'
_cell_length_a   5.41936409
_cell_length_b   5.41936409
_cell_length_c   7.34840000
_cell_angle_alpha   90.00000000
_cell_angle_beta   90.00000000
_cell_angle_gamma   120.00000110
_symmetry_Int_Tables_number   1
_chemical_formula_structural   BaZnCr4O8
_chemical_formula_sum   'Ba1 Zn1 Cr4 O8'
_cell_volume   186.90463604
_cell_formula_units_Z   1
loop_
 _symmetry_equiv_pos_site_id
 _symmetry_equiv_pos_as_xyz
  1  'x, y, z'
loop_
 _atom_site_type_symbol
 _atom_site_label
 _atom_site_symmetry_multiplicity
 _atom_site_fract_x
 _atom_site_fract_y
 _atom_site_fract_z
 _atom_site_occupancy
  Ba  Ba0  1  0.00000000  0.00000000  0.00000000  1
  Zn  Zn0  1  0.00000000  0.00000000  0.50000000  1
  Cr  Cr0  1  0.33333300  0.66666700  0.74173700  1
  Cr  Cr1  1  0.66666700  0.33333300  0.74173700  1
  Cr  Cr2  1  0.33333300  0.66666700  0.25826300  1
  Cr  Cr3  1  0.66666700  0.33333300  0.25826300  1
  O  O0  1  0.31420400  0.31420400  0.67910900  1
  O  O1  1  0.68579600  0.00000000  0.67910900  1
  O  O2  1  0.00000000  0.68579600  0.67910900  1
  O  O3  1  0.68579600  0.68579600  0.32089100  1
  O  O4  1  0.00000000  0.31420400  0.32089100  1
  O  O5  1  0.31420400  0.00000000  0.32089100  1
  O  O6  1  0.33333300  0.66666700  0.00000000  1
  O  O7  1  0.66666700  0.33333300  0.00000000  1
loop_
_geom_bond_atom_site_label_1
_geom_bond_atom_site_label_2
_geom_bond_distance
_geom_bond_site_symmetry_2
Ba0 O3 2.908575 1_445
Ba0 O0 2.908575 1_554
Ba0 O4 2.908575 1_555
Ba0 O5 2.908575 1_555
Ba0 O1 2.908575 1_454
Ba0 O2 2.908575 1_544
Ba0 O6 3.128868 1_545
Ba0 O7 3.128868 1_455
Ba0 O6 3.128873 1_555
Ba0 O6 3.128873 1_445
Ba0 O7 3.128873 1_555
Ba0 O7 3.128873 1_445
Cr0 O6 1.897820 1_556
Cr0 O2 1.916530 1_555
Cr0 O1 1.916533 1_565
Cr0 O0 1.916535 1_555
Cr1 O7 1.897820 1_556
Cr1 O1 1.916530 1_555
Cr1 O2 1.916533 1_655
Cr1 O0 1.916535 1_555
Cr2 O6 1.897820 1_555
Cr2 O5 1.916530 1_565
Cr2 O4 1.916533 1_555
Cr2 O3 1.916535 1_555
Cr3 O7 1.897820 1_555
Cr3 O4 1.916530 1_655
Cr3 O5 1.916533 1_555
Cr3 O3 1.916535 1_555
O0 Zn0 2.152154 1_555
O1 Zn0 2.152154 1_655
O2 Zn0 2.152154 1_565
O3 Zn0 2.152154 1_665
O4 Zn0 2.152154 1_555
O5 Zn0 2.152154 1_555
