# generated using pymatgen
data_SmTl3
_symmetry_space_group_name_H-M   'P 1'
_cell_length_a   4.76240186
_cell_length_b   4.76240186
_cell_length_c   4.76240186
_cell_angle_alpha   90.00000000
_cell_angle_beta   90.00000000
_cell_angle_gamma   90.00000000
_symmetry_Int_Tables_number   1
_chemical_formula_structural   SmTl3
_chemical_formula_sum   'Sm1 Tl3'
_cell_volume   108.01351954
_cell_formula_units_Z   1
loop_
 _symmetry_equiv_pos_site_id
 _symmetry_equiv_pos_as_xyz
  1  'x, y, z'
loop_
 _atom_site_type_symbol
 _atom_site_label
 _atom_site_symmetry_multiplicity
 _atom_site_fract_x
 _atom_site_fract_y
 _atom_site_fract_z
 _atom_site_occupancy
  Sm  Sm0  1  -0.00000000  0.00000000  0.00000000  1
  Tl  Tl0  1  0.00000000  0.50000000  0.50000000  1
  Tl  Tl1  1  0.50000000  0.50000000  0.00000000  1
  Tl  Tl2  1  0.50000000  0.00000000  0.50000000  1
loop_
_geom_bond_atom_site_label_1
_geom_bond_atom_site_label_2
_geom_bond_distance
_geom_bond_site_symmetry_2
Sm0 Tl2 3.367527 1_554
Sm0 Tl0 3.367527 1_555
Sm0 Tl2 3.367527 1_455
Sm0 Tl1 3.367527 1_455
Sm0 Tl1 3.367527 1_545
Sm0 Tl0 3.367527 1_544
Sm0 Tl0 3.367527 1_545
Sm0 Tl1 3.367527 1_555
Sm0 Tl0 3.367527 1_554
Sm0 Tl1 3.367527 1_445
Sm0 Tl2 3.367527 1_555
Sm0 Tl2 3.367527 1_454
Tl0 Tl2 3.367527 1_465
Tl0 Tl2 3.367527 1_565
Tl0 Tl1 3.367527 1_456
Tl0 Tl1 3.367527 1_555
Tl0 Tl1 3.367527 1_455
Tl0 Tl1 3.367527 1_556
Tl0 Tl2 3.367527 1_455
Tl0 Tl2 3.367527 1_555
Tl1 Tl2 3.367527 1_554
Tl1 Tl2 3.367527 1_565
Tl1 Tl2 3.367527 1_564
Tl1 Tl2 3.367527 1_555
