# generated using pymatgen
data_Mg3Al12FeSi4(BO9)4
_symmetry_space_group_name_H-M   'P 1'
_cell_length_a   5.82672200
_cell_length_b   10.43835400
_cell_length_c   11.12389673
_cell_angle_alpha   89.96809145
_cell_angle_beta   90.00000000
_cell_angle_gamma   90.00000000
_symmetry_Int_Tables_number   1
_chemical_formula_structural   Mg3Al12FeSi4(BO9)4
_chemical_formula_sum   'Mg3 Al12 Fe1 Si4 B4 O36'
_cell_volume   676.57072158
_cell_formula_units_Z   1
loop_
 _symmetry_equiv_pos_site_id
 _symmetry_equiv_pos_as_xyz
  1  'x, y, z'
loop_
 _atom_site_type_symbol
 _atom_site_label
 _atom_site_symmetry_multiplicity
 _atom_site_fract_x
 _atom_site_fract_y
 _atom_site_fract_z
 _atom_site_occupancy
  Mg  Mg0  1  0.50000000  0.90756600  0.21905200  1
  Mg  Mg1  1  0.00000000  0.40758900  0.28081200  1
  Mg  Mg2  1  0.00000000  0.09216700  0.78096700  1
  Al  Al0  1  0.25007200  0.50000000  0.49921000  1
  Al  Al1  1  0.74989900  0.99988400  0.99998100  1
  Al  Al2  1  0.74992800  0.50000000  0.49921000  1
  Al  Al3  1  0.25010100  0.99988400  0.99998100  1
  Al  Al4  1  0.50000000  0.72646200  0.94781200  1
  Al  Al5  1  0.50000000  0.77388400  0.44784400  1
  Al  Al6  1  0.00000000  0.27340000  0.05221600  1
  Al  Al7  1  0.00000000  0.22632300  0.55191300  1
  Al  Al8  1  0.25003200  0.99991300  0.49999400  1
  Al  Al9  1  0.75005100  0.50000500  0.00064400  1
  Al  Al10  1  0.74996800  0.99991300  0.49999400  1
  Al  Al11  1  0.24994900  0.50000500  0.00064400  1
  Fe  Fe0  1  0.50000000  0.59275100  0.71821500  1
  Si  Si0  1  0.50000000  0.93501900  0.76374100  1
  Si  Si1  1  0.50000000  0.56619500  0.26386400  1
  Si  Si2  1  0.00000000  0.06596500  0.23622000  1
  Si  Si3  1  0.00000000  0.43280900  0.73714000  1
  B  B0  1  0.00000000  0.75113500  0.50030800  1
  B  B1  1  0.00000000  0.74902000  0.00025400  1
  B  B2  1  0.50000000  0.24903400  0.49976000  1
  B  B3  1  0.50000000  0.25095200  0.99972300  1
  O  O0  1  0.00000000  0.04716200  0.59983300  1
  O  O1  1  0.00000000  0.45291600  0.09973700  1
  O  O2  1  0.50000000  0.95297200  0.40021400  1
  O  O3  1  0.50000000  0.54646600  0.90314600  1
  O  O4  1  0.20410900  0.68078000  0.00095600  1
  O  O5  1  0.79575300  0.81915200  0.50102100  1
  O  O6  1  0.70444200  0.31915600  0.99894600  1
  O  O7  1  0.29573000  0.18086500  0.49899100  1
  O  O8  1  0.29555800  0.31915600  0.99894600  1
  O  O9  1  0.70427000  0.18086500  0.49899100  1
  O  O10  1  0.79589100  0.68078000  0.00095600  1
  O  O11  1  0.20424700  0.81915200  0.50102100  1
  O  O12  1  0.50000000  0.77753800  0.79037400  1
  O  O13  1  0.50000000  0.72483900  0.28841000  1
  O  O14  1  0.00000000  0.22482900  0.21158000  1
  O  O15  1  0.00000000  0.27484500  0.71165300  1
  O  O16  1  0.50000000  0.61796000  0.51964800  1
  O  O17  1  0.50000000  0.88161600  0.02264300  1
  O  O18  1  0.00000000  0.38157900  0.47763800  1
  O  O19  1  0.00000000  0.11846500  0.97756700  1
  O  O20  1  0.50000000  0.97376000  0.62005700  1
  O  O21  1  0.50000000  0.52627000  0.12067700  1
  O  O22  1  0.00000000  0.02643700  0.37982200  1
  O  O23  1  0.00000000  0.47376500  0.87989600  1
  O  O24  1  0.00000000  0.62142700  0.49657900  1
  O  O25  1  0.00000000  0.87848900  0.99649500  1
  O  O26  1  0.50000000  0.37847900  0.50374700  1
  O  O27  1  0.50000000  0.12161500  0.00350700  1
  O  O28  1  0.22488300  0.49208800  0.66971400  1
  O  O29  1  0.77233800  0.00705500  0.17087500  1
  O  O30  1  0.72783500  0.50691700  0.32900000  1
  O  O31  1  0.27201900  0.99333600  0.82913600  1
  O  O32  1  0.27216500  0.50691700  0.32900000  1
  O  O33  1  0.72798100  0.99333600  0.82913600  1
  O  O34  1  0.77511700  0.49208800  0.66971400  1
  O  O35  1  0.22766200  0.00705500  0.17087500  1
loop_
_geom_bond_atom_site_label_1
_geom_bond_atom_site_label_2
_geom_bond_distance
_geom_bond_site_symmetry_2
Mg0 O35 1.970565 1_565
Mg0 O29 1.970565 1_565
Mg0 O13 2.057104 1_555
Mg0 O2 2.070470 1_555
Mg0 O17 2.201711 1_555
Mg1 O30 1.969216 1_455
Mg1 O32 1.969216 1_555
Mg1 O14 2.057695 1_555
Mg1 O1 2.068826 1_555
Mg1 O18 2.206091 1_555
Mg2 O33 1.965431 1_445
Mg2 O31 1.965431 1_545
Mg2 O15 2.056447 1_555
Mg2 O0 2.069210 1_555
Mg2 O19 2.204271 1_555
Al0 O32 1.899102 1_555
Al0 O28 1.904085 1_555
Al0 O16 1.920629 1_555
Al0 O18 1.925889 1_555
Al0 O24 1.931452 1_555
Al0 O26 1.931893 1_555
Al1 O33 1.906012 1_555
Al1 O29 1.907009 1_566
Al1 O17 1.925475 1_556
Al1 O19 1.928103 1_665
Al1 O25 1.931553 1_655
Al1 O27 1.932978 1_566
Al2 O30 1.899102 1_555
Al2 O34 1.904085 1_555
Al2 O16 1.920629 1_555
Al2 O18 1.925889 1_655
Al2 O24 1.931452 1_655
Al2 O26 1.931893 1_555
Al3 O31 1.906012 1_555
Al3 O35 1.907009 1_566
Al3 O17 1.925475 1_556
Al3 O19 1.928103 1_565
Al3 O25 1.931553 1_555
Al3 O27 1.932978 1_566
Al4 O17 1.821363 1_556
Al4 O12 1.830395 1_555
Al4 O10 1.883874 1_556
Al4 O4 1.883874 1_556
Al4 O3 1.943716 1_555
Al5 O16 1.812619 1_555
Al5 O13 1.846213 1_555
Al5 O11 1.882330 1_555
Al5 O5 1.882330 1_555
Al5 O2 1.942734 1_555
Al6 O19 1.818403 1_554
Al6 O14 1.843553 1_555
Al6 O8 1.882734 1_554
Al6 O6 1.882734 1_454
Al6 O1 1.947270 1_555
Al7 O18 1.818670 1_555
Al7 O15 1.847977 1_555
Al7 O7 1.881817 1_555
Al7 O9 1.881817 1_455
Al7 O0 1.944347 1_555
Al8 O2 1.895795 1_555
Al8 O0 1.897300 1_565
Al8 O11 1.905641 1_555
Al8 O7 1.907543 1_565
Al8 O20 1.994803 1_555
Al8 O22 1.996419 1_565
Al9 O3 1.879805 1_554
Al9 O1 1.891327 1_655
Al9 O10 1.905808 1_555
Al9 O6 1.906484 1_554
Al9 O21 1.995297 1_555
Al9 O23 2.000160 1_654
Al10 O2 1.895795 1_555
Al10 O0 1.897300 1_665
Al10 O5 1.905641 1_555
Al10 O9 1.907543 1_565
Al10 O20 1.994803 1_555
Al10 O22 1.996419 1_665
Al11 O3 1.879805 1_554
Al11 O1 1.891327 1_555
Al11 O4 1.905808 1_555
Al11 O8 1.906484 1_554
Al11 O21 1.995297 1_555
Al11 O23 2.000160 1_554
Fe0 O34 1.991358 1_555
Fe0 O28 1.991358 1_555
Fe0 O12 2.089637 1_555
Fe0 O3 2.112864 1_555
Fe0 O16 2.224312 1_555
B0 O24 1.354596 1_555
B0 O5 1.385808 1_455
B0 O11 1.385808 1_555
B1 O25 1.352067 1_554
B1 O10 1.386307 1_455
B1 O4 1.386307 1_555
B2 O26 1.351945 1_555
B2 O9 1.386741 1_555
B2 O7 1.386741 1_555
B3 O27 1.350698 1_556
B3 O8 1.387784 1_555
B3 O6 1.387784 1_555
O12 Si0 1.670164 1_555
O13 Si1 1.678492 1_555
O14 Si2 1.680627 1_555
O15 Si3 1.673236 1_555
O20 Si0 1.648472 1_555
O21 Si1 1.646640 1_555
O22 Si2 1.649619 1_555
O23 Si3 1.644773 1_555
O28 Si3 1.631531 1_555
O29 Si2 1.632992 1_655
O30 Si1 1.633923 1_555
O31 Si0 1.632430 1_555
O32 Si1 1.633923 1_555
O33 Si0 1.632430 1_555
O34 Si3 1.631531 1_655
O35 Si2 1.632992 1_555
