# generated using pymatgen
data_Ba2Sr6Ti7MnO22
_symmetry_space_group_name_H-M   'P 1'
_cell_length_a   8.00556368
_cell_length_b   7.86315400
_cell_length_c   8.00591868
_cell_angle_alpha   90.00000000
_cell_angle_beta   90.18715851
_cell_angle_gamma   90.00000000
_symmetry_Int_Tables_number   1
_chemical_formula_structural   Ba2Sr6Ti7MnO22
_chemical_formula_sum   'Ba2 Sr6 Ti7 Mn1 O22'
_cell_volume   503.96172648
_cell_formula_units_Z   1
loop_
 _symmetry_equiv_pos_site_id
 _symmetry_equiv_pos_as_xyz
  1  'x, y, z'
loop_
 _atom_site_type_symbol
 _atom_site_label
 _atom_site_symmetry_multiplicity
 _atom_site_fract_x
 _atom_site_fract_y
 _atom_site_fract_z
 _atom_site_occupancy
  Ba  Ba0  1  0.25117100  0.75287200  0.25118400  1
  Ba  Ba1  1  0.74882900  0.75287200  0.74881500  1
  Sr  Sr0  1  0.25675100  0.24597700  0.25676000  1
  Sr  Sr1  1  0.25630900  0.24601100  0.74367800  1
  Sr  Sr2  1  0.25754500  0.75434800  0.74244400  1
  Sr  Sr3  1  0.74369100  0.24601100  0.25632200  1
  Sr  Sr4  1  0.74324900  0.24597700  0.74324000  1
  Sr  Sr5  1  0.74245500  0.75434800  0.25755600  1
  Ti  Ti0  1  0.00000000  0.00295300  0.50000000  1
  Ti  Ti1  1  0.00000000  0.49114600  0.00000000  1
  Ti  Ti2  1  0.00000000  0.49696300  0.50000000  1
  Ti  Ti3  1  0.50000000  0.00294800  0.00000000  1
  Ti  Ti4  1  0.50000000  0.00207100  0.50000000  1
  Ti  Ti5  1  0.50000000  0.49696300  0.00000000  1
  Ti  Ti6  1  0.50000000  0.49791900  0.50000000  1
  Mn  Mn0  1  0.00000000  0.01010500  0.00000000  1
  O  O0  1  0.25858200  0.00628000  0.99754400  1
  O  O1  1  0.25251500  0.00439300  0.50172400  1
  O  O2  1  0.24389600  0.49310900  0.99833000  1
  O  O3  1  0.25043400  0.49601500  0.50192400  1
  O  O4  1  0.74141800  0.00628000  0.00245600  1
  O  O5  1  0.74748500  0.00439300  0.49827600  1
  O  O6  1  0.75610400  0.49310900  0.00167000  1
  O  O7  1  0.74956600  0.49601500  0.49807600  1
  O  O8  1  0.00000000  0.25415200  0.50000000  1
  O  O9  1  0.00000000  0.74574900  0.50000000  1
  O  O10  1  0.50000000  0.25415200  0.00000000  1
  O  O11  1  0.50000000  0.25077400  0.50000000  1
  O  O12  1  0.50000000  0.74574900  0.00000000  1
  O  O13  1  0.50000000  0.74959900  0.50000000  1
  O  O14  1  0.99753700  0.00628500  0.25859600  1
  O  O15  1  0.00246300  0.00628500  0.74140400  1
  O  O16  1  0.99832400  0.49310300  0.24389300  1
  O  O17  1  0.00167600  0.49310300  0.75610700  1
  O  O18  1  0.50173300  0.00439700  0.25252100  1
  O  O19  1  0.49826700  0.00439700  0.74747900  1
  O  O20  1  0.50193000  0.49600700  0.25044500  1
  O  O21  1  0.49807100  0.49600700  0.74955500  1
loop_
_geom_bond_atom_site_label_1
_geom_bond_atom_site_label_2
_geom_bond_distance
_geom_bond_site_symmetry_2
Ba0 O13 2.812638 1_555
Ba0 O1 2.816861 1_565
Ba0 O18 2.816946 1_565
Ba0 O9 2.835586 1_555
Ba0 O12 2.835735 1_555
Ba0 O14 2.845650 1_465
Ba0 O0 2.845721 1_564
Ba0 O3 2.847630 1_555
Ba0 O20 2.847719 1_555
Ba0 O16 2.876140 1_455
Ba0 O2 2.876207 1_554
Ba1 O13 2.812633 1_555
Ba1 O5 2.816856 1_565
Ba1 O19 2.816946 1_565
Ba1 O9 2.835581 1_655
Ba1 O12 2.835740 1_556
Ba1 O15 2.845650 1_665
Ba1 O4 2.845727 1_566
Ba1 O7 2.847624 1_555
Ba1 O21 2.847713 1_555
Ba1 O17 2.876140 1_655
Ba1 O6 2.876212 1_556
Mn0 O0 2.070471 1_554
Mn0 O4 2.070471 1_455
Mn0 O14 2.070675 1_455
Mn0 O15 2.070675 1_554
O0 Ti3 1.932901 1_556
O0 Sr1 2.772047 1_555
O0 Sr0 2.803480 1_556
O0 Sr2 2.845219 1_545
O1 Ti4 1.981434 1_555
O1 Ti0 2.021559 1_555
O1 Sr1 2.713355 1_555
O1 Sr0 2.730617 1_555
O1 Sr2 2.753338 1_545
O2 Ti1 1.952675 1_556
O2 Ti5 2.050481 1_556
O2 Sr1 2.818283 1_555
O2 Sr0 2.840071 1_556
O2 Sr2 2.903404 1_555
O3 Ti6 1.998082 1_555
O3 Ti2 2.004888 1_555
O3 Sr1 2.759000 1_555
O3 Sr0 2.778695 1_555
O3 Sr2 2.799397 1_555
O4 Ti3 1.932901 1_555
O4 Sr3 2.772047 1_555
O4 Sr4 2.803480 1_554
O4 Sr5 2.845219 1_545
O5 Ti4 1.981434 1_555
O5 Ti0 2.021559 1_655
O5 Sr3 2.713355 1_555
O5 Sr4 2.730617 1_555
O5 Sr5 2.753338 1_545
O6 Ti1 1.952675 1_655
O6 Ti5 2.050481 1_555
O6 Sr3 2.818283 1_555
O6 Sr4 2.840071 1_554
O6 Sr5 2.903404 1_555
O7 Ti6 1.998082 1_555
O7 Ti2 2.004888 1_655
O7 Sr3 2.759000 1_555
O7 Sr4 2.778695 1_555
O7 Sr5 2.799397 1_555
O8 Ti2 1.909260 1_555
O8 Ti0 1.975216 1_555
O8 Sr1 2.827386 1_555
O8 Sr3 2.827386 1_455
O8 Sr4 2.836778 1_455
O8 Sr0 2.836778 1_555
O9 Ti2 1.956243 1_555
O9 Ti0 2.022435 1_565
O9 Sr5 2.827870 1_455
O9 Sr2 2.827870 1_555
O10 Ti5 1.909260 1_555
O10 Ti3 1.975256 1_555
O10 Sr1 2.827539 1_554
O10 Sr3 2.827539 1_555
O10 Sr0 2.836887 1_555
O10 Sr4 2.836887 1_554
O11 Ti6 1.943339 1_555
O11 Ti4 1.955590 1_555
O11 Sr0 2.749729 1_555
O11 Sr4 2.749729 1_555
O11 Sr3 2.763710 1_555
O11 Sr1 2.763710 1_555
O12 Ti5 1.956243 1_555
O12 Ti3 2.022395 1_565
O12 Sr2 2.828002 1_554
O12 Sr5 2.828002 1_555
O13 Ti6 1.978999 1_555
O13 Ti4 1.985226 1_565
O13 Sr2 2.749705 1_555
O13 Sr5 2.749705 1_555
O14 Ti0 1.932875 1_655
O14 Sr3 2.771837 1_555
O14 Sr0 2.803374 1_655
O14 Sr5 2.845078 1_545
O15 Ti0 1.932875 1_555
O15 Sr1 2.771837 1_555
O15 Sr4 2.803374 1_455
O15 Sr2 2.845078 1_545
O16 Ti1 1.952738 1_655
O16 Ti2 2.050597 1_655
O16 Sr3 2.818081 1_555
O16 Sr0 2.839958 1_655
O16 Sr5 2.903282 1_555
O17 Ti1 1.952738 1_556
O17 Ti2 2.050597 1_555
O17 Sr1 2.818081 1_555
O17 Sr4 2.839958 1_455
O17 Sr2 2.903282 1_555
O18 Ti4 1.981475 1_555
O18 Ti3 2.021697 1_555
O18 Sr3 2.713295 1_555
O18 Sr0 2.730636 1_555
O18 Sr5 2.753313 1_545
O19 Ti4 1.981475 1_555
O19 Ti3 2.021697 1_556
O19 Sr1 2.713295 1_555
O19 Sr4 2.730636 1_555
O19 Sr2 2.753313 1_545
O20 Ti6 1.998084 1_555
O20 Ti5 2.005065 1_555
O20 Sr3 2.758935 1_555
O20 Sr0 2.778673 1_555
O20 Sr5 2.799412 1_555
O21 Ti6 1.998084 1_555
O21 Ti5 2.005065 1_556
O21 Sr1 2.758940 1_555
O21 Sr4 2.778668 1_555
O21 Sr2 2.799417 1_555
