# generated using pymatgen
data_YMg6BiO8
_symmetry_space_group_name_H-M   'P 1'
_cell_length_a   9.43153398
_cell_length_b   4.60655418
_cell_length_c   4.60655418
_cell_angle_alpha   90.00000000
_cell_angle_beta   90.00000000
_cell_angle_gamma   90.00000000
_symmetry_Int_Tables_number   1
_chemical_formula_structural   YMg6BiO8
_chemical_formula_sum   'Y1 Mg6 Bi1 O8'
_cell_volume   200.14037111
_cell_formula_units_Z   1
loop_
 _symmetry_equiv_pos_site_id
 _symmetry_equiv_pos_as_xyz
  1  'x, y, z'
loop_
 _atom_site_type_symbol
 _atom_site_label
 _atom_site_symmetry_multiplicity
 _atom_site_fract_x
 _atom_site_fract_y
 _atom_site_fract_z
 _atom_site_occupancy
  Y  Y0  1  -0.00000000  -0.00000000  -0.00000000  1
  Mg  Mg0  1  -0.00000000  0.50000000  0.50000000  1
  Mg  Mg1  1  0.50000000  0.50000000  0.50000000  1
  Mg  Mg2  1  0.25446390  -0.00000000  0.50000000  1
  Mg  Mg3  1  0.74553610  0.00000000  0.50000000  1
  Mg  Mg4  1  0.25446390  0.50000000  0.00000000  1
  Mg  Mg5  1  0.74553610  0.50000000  -0.00000000  1
  Bi  Bi0  1  0.50000000  -0.00000000  -0.00000000  1
  O  O0  1  0.23164709  -0.00000000  0.00000000  1
  O  O1  1  0.76835291  0.00000000  -0.00000000  1
  O  O2  1  0.24842971  0.50000000  0.50000000  1
  O  O3  1  0.75157029  0.50000000  0.50000000  1
  O  O4  1  -0.00000000  -0.00000000  0.50000000  1
  O  O5  1  0.50000000  -0.00000000  0.50000000  1
  O  O6  1  -0.00000000  0.50000000  -0.00000000  1
  O  O7  1  0.50000000  0.50000000  -0.00000000  1
loop_
_geom_bond_atom_site_label_1
_geom_bond_atom_site_label_2
_geom_bond_distance
_geom_bond_site_symmetry_2
Mg0 O4 2.303277 1_555
Mg0 O4 2.303277 1_565
Mg0 O6 2.303277 1_556
Mg0 O6 2.303277 1_555
Mg0 O2 2.343073 1_555
Mg0 O3 2.343073 1_455
Mg1 O7 2.303277 1_556
Mg1 O5 2.303277 1_555
Mg1 O5 2.303277 1_565
Mg1 O7 2.303277 1_555
Mg1 O2 2.372694 1_555
Mg1 O3 2.372694 1_555
Mg2 O2 2.303980 1_555
Mg2 O2 2.303980 1_545
Mg2 O0 2.313308 1_555
Mg2 O0 2.313308 1_556
Mg2 O5 2.315782 1_555
Mg2 O4 2.399985 1_555
Mg3 O3 2.303980 1_555
Mg3 O3 2.303980 1_545
Mg3 O1 2.313308 1_555
Mg3 O1 2.313308 1_556
Mg3 O5 2.315782 1_555
Mg3 O4 2.399985 1_655
Mg4 O2 2.303980 1_555
Mg4 O2 2.303980 1_554
Mg4 O0 2.313308 1_555
Mg4 O0 2.313308 1_565
Mg4 O7 2.315782 1_555
Mg4 O6 2.399985 1_555
Mg5 O3 2.303980 1_555
Mg5 O3 2.303980 1_554
Mg5 O1 2.313308 1_555
Mg5 O1 2.313308 1_565
Mg5 O7 2.315782 1_555
Mg5 O6 2.399985 1_655
Bi0 O5 2.303277 1_554
Bi0 O5 2.303277 1_555
Bi0 O7 2.303277 1_545
Bi0 O7 2.303277 1_555
Bi0 O1 2.530980 1_555
Bi0 O0 2.530980 1_555
O0 Y0 2.184787 1_555
O1 Y0 2.184787 1_655
O4 Y0 2.303277 1_556
O4 Y0 2.303277 1_555
O6 Y0 2.303277 1_555
O6 Y0 2.303277 1_565
