# generated using pymatgen
data_EuAl
_symmetry_space_group_name_H-M   'P 1'
_cell_length_a   6.58068202
_cell_length_b   6.58068202
_cell_length_c   4.62599912
_cell_angle_alpha   90.00000000
_cell_angle_beta   90.00000000
_cell_angle_gamma   146.23280079
_symmetry_Int_Tables_number   1
_chemical_formula_structural   EuAl
_chemical_formula_sum   'Eu2 Al2'
_cell_volume   111.34773137
_cell_formula_units_Z   2
loop_
 _symmetry_equiv_pos_site_id
 _symmetry_equiv_pos_as_xyz
  1  'x, y, z'
loop_
 _atom_site_type_symbol
 _atom_site_label
 _atom_site_symmetry_multiplicity
 _atom_site_fract_x
 _atom_site_fract_y
 _atom_site_fract_z
 _atom_site_occupancy
  Eu  Eu0  1  0.34158404  0.65841596  0.75000000  1
  Eu  Eu1  1  0.65841596  0.34158404  0.25000000  1
  Al  Al0  1  0.05729586  0.94270414  0.75000000  1
  Al  Al1  1  0.94270414  0.05729586  0.25000000  1
loop_
_geom_bond_atom_site_label_1
_geom_bond_atom_site_label_2
_geom_bond_distance
_geom_bond_site_symmetry_2
Al0 Al1 2.726302 1_466
Al0 Al1 2.726302 1_465
Al0 Eu1 3.259532 1_566
Al0 Eu1 3.259532 1_456
Al0 Eu1 3.259532 1_565
Al0 Eu1 3.259532 1_455
Al0 Eu0 3.321618 1_455
Al0 Eu0 3.321618 1_565
Al0 Eu0 3.580344 1_555
Al1 Eu0 3.259532 1_655
Al1 Eu0 3.259532 1_544
Al1 Eu0 3.259532 1_654
Al1 Eu0 3.259532 1_545
Al1 Eu1 3.321618 1_545
Al1 Eu1 3.321618 1_655
Al1 Eu1 3.580344 1_555
