# generated using pymatgen
data_LiMnO2
_symmetry_space_group_name_H-M   'P 1'
_cell_length_a   5.14729131
_cell_length_b   5.21506637
_cell_length_c   5.67499500
_cell_angle_alpha   90.00002107
_cell_angle_beta   89.99995961
_cell_angle_gamma   89.99821457
_symmetry_Int_Tables_number   1
_chemical_formula_structural   LiMnO2
_chemical_formula_sum   'Li4 Mn4 O8'
_cell_volume   152.33653420
_cell_formula_units_Z   4
loop_
 _symmetry_equiv_pos_site_id
 _symmetry_equiv_pos_as_xyz
  1  'x, y, z'
loop_
 _atom_site_type_symbol
 _atom_site_label
 _atom_site_symmetry_multiplicity
 _atom_site_fract_x
 _atom_site_fract_y
 _atom_site_fract_z
 _atom_site_occupancy
  Li  Li0  1  0.00000600  0.50002100  0.25010000  1
  Li  Li1  1  0.00000400  0.50002100  0.75011100  1
  Li  Li2  1  0.49999600  0.99998900  0.99988700  1
  Li  Li3  1  0.49999600  0.99998900  0.49990000  1
  Mn  Mn0  1  0.50001100  0.49999900  0.74970000  1
  Mn  Mn1  1  0.00001300  0.00001000  0.00029800  1
  Mn  Mn2  1  0.49999900  0.50000800  0.24966500  1
  Mn  Mn3  1  0.00000500  0.00000100  0.50031300  1
  O  O0  1  0.28791600  0.34799000  0.99894100  1
  O  O1  1  0.28791500  0.34799100  0.49894400  1
  O  O2  1  0.21207800  0.84797700  0.25106200  1
  O  O3  1  0.21207600  0.84797800  0.75106700  1
  O  O4  1  0.71208000  0.65201500  0.99894000  1
  O  O5  1  0.71208100  0.65201400  0.49894400  1
  O  O6  1  0.78791300  0.15204800  0.25106300  1
  O  O7  1  0.78791600  0.15204700  0.75106700  1
loop_
_geom_bond_atom_site_label_1
_geom_bond_atom_site_label_2
_geom_bond_distance
_geom_bond_site_symmetry_2
Li0 O2 2.117678 1_555
Li0 O6 2.117809 1_455
Li0 O5 2.195205 1_455
Li0 O1 2.195220 1_555
Li0 O4 2.203690 1_454
Li0 O0 2.203698 1_554
Li1 O3 2.117682 1_555
Li1 O7 2.117800 1_455
Li1 O4 2.195148 1_455
Li1 O0 2.195182 1_555
Li1 O5 2.203703 1_455
Li1 O1 2.203729 1_555
Li2 O4 2.117731 1_555
Li2 O0 2.117841 1_565
Li2 O3 2.195168 1_555
Li2 O7 2.195256 1_565
Li2 O2 2.203783 1_556
Li2 O6 2.203872 1_566
Li3 O5 2.117739 1_555
Li3 O1 2.117849 1_565
Li3 O2 2.195229 1_555
Li3 O6 2.195309 1_565
Li3 O3 2.203758 1_555
Li3 O7 2.203848 1_565
Mn0 O4 1.954667 1_555
Mn0 O0 1.954730 1_555
Mn0 O5 1.960901 1_555
Mn0 O1 1.960962 1_555
Mn0 O7 2.342810 1_555
Mn0 O3 2.343017 1_555
Mn1 O3 1.954618 1_544
Mn1 O7 1.954728 1_454
Mn1 O2 1.960932 1_545
Mn1 O6 1.961045 1_455
Mn1 O0 2.342988 1_554
Mn1 O4 2.343146 1_444
Mn2 O5 1.954843 1_555
Mn2 O1 1.954872 1_555
Mn2 O4 1.960788 1_554
Mn2 O0 1.960814 1_554
Mn2 O6 2.342872 1_555
Mn2 O2 2.342931 1_555
Mn3 O2 1.954712 1_545
Mn3 O6 1.954812 1_455
Mn3 O3 1.960887 1_545
Mn3 O7 1.960985 1_455
Mn3 O1 2.343051 1_555
Mn3 O5 2.343085 1_445
