# generated using pymatgen
data_ErB2Ru
_symmetry_space_group_name_H-M   'P 1'
_cell_length_a   5.27046687
_cell_length_b   5.84956533
_cell_length_c   6.30695687
_cell_angle_alpha   89.99996130
_cell_angle_beta   90.00000000
_cell_angle_gamma   90.00000000
_symmetry_Int_Tables_number   1
_chemical_formula_structural   ErB2Ru
_chemical_formula_sum   'Er4 B8 Ru4'
_cell_volume   194.44310362
_cell_formula_units_Z   4
loop_
 _symmetry_equiv_pos_site_id
 _symmetry_equiv_pos_as_xyz
  1  'x, y, z'
loop_
 _atom_site_type_symbol
 _atom_site_label
 _atom_site_symmetry_multiplicity
 _atom_site_fract_x
 _atom_site_fract_y
 _atom_site_fract_z
 _atom_site_occupancy
  Er  Er0  1  0.25000000  0.51013596  0.83575263  1
  Er  Er1  1  0.25000000  0.01013696  0.66424637  1
  Er  Er2  1  0.75000000  0.48986204  0.16424737  1
  Er  Er3  1  0.75000000  0.98986304  0.33575363  1
  B  B0  1  0.08381289  0.86688804  0.03796110  1
  B  B1  1  0.41618711  0.36688804  0.46203890  1
  B  B2  1  0.58381489  0.13311296  0.96203890  1
  B  B3  1  0.91618511  0.63311196  0.53796110  1
  B  B4  1  0.91618511  0.13311296  0.96203890  1
  B  B5  1  0.58381489  0.63311196  0.53796110  1
  B  B6  1  0.41618711  0.86688804  0.03796110  1
  B  B7  1  0.08381289  0.36688804  0.46203890  1
  Ru  Ru0  1  0.25000000  0.68104998  0.31840257  1
  Ru  Ru1  1  0.25000000  0.18104998  0.18159843  1
  Ru  Ru2  1  0.75000000  0.31895102  0.68159643  1
  Ru  Ru3  1  0.75000000  0.81894902  0.81840257  1
loop_
_geom_bond_atom_site_label_1
_geom_bond_atom_site_label_2
_geom_bond_distance
_geom_bond_site_symmetry_2
Er0 Ru1 2.909199 1_556
Er1 Ru0 2.909196 1_545
Er2 Ru3 2.909199 1_554
Er3 Ru2 2.909195 1_565
B0 B6 1.751767 1_555
B0 B4 1.853375 1_464
B0 Ru1 2.228236 1_565
B0 Ru0 2.253288 1_555
B0 Ru3 2.256429 1_454
B0 Er0 2.597795 1_554
B0 Er1 2.650430 1_564
B0 Er3 2.672130 1_455
B0 Er2 2.931493 1_455
B1 B7 1.751767 1_555
B1 B5 1.853371 1_555
B1 Ru0 2.228233 1_555
B1 Ru1 2.253285 1_555
B1 Ru2 2.256423 1_555
B1 Er1 2.597786 1_555
B1 Er0 2.650424 1_555
B1 Er2 2.672124 1_555
B1 Er3 2.931488 1_545
B2 B4 1.751746 1_555
B2 B6 1.853375 1_546
B2 Ru3 2.228239 1_545
B2 Ru2 2.253289 1_555
B2 Ru1 2.256439 1_556
B2 Er2 2.597777 1_556
B2 Er3 2.650429 1_546
B2 Er1 2.672139 1_555
B2 Er0 2.931486 1_555
B3 B5 1.751746 1_555
B3 B7 1.853371 1_655
B3 Ru2 2.228221 1_555
B3 Ru3 2.253283 1_555
B3 Ru0 2.256436 1_655
B3 Er3 2.597782 1_555
B3 Er2 2.650424 1_555
B3 Er0 2.672134 1_655
B3 Er1 2.931494 1_665
B4 Ru3 2.228239 1_545
B4 Ru2 2.253289 1_555
B4 Ru1 2.256439 1_656
B4 Er2 2.597777 1_556
B4 Er3 2.650429 1_546
B4 Er1 2.672139 1_655
B4 Er0 2.931486 1_655
B5 Ru2 2.228221 1_555
B5 Ru3 2.253283 1_555
B5 Ru0 2.256436 1_555
B5 Er3 2.597782 1_555
B5 Er2 2.650424 1_555
B5 Er0 2.672134 1_555
B5 Er1 2.931494 1_565
B6 Ru1 2.228236 1_565
B6 Ru0 2.253288 1_555
B6 Ru3 2.256429 1_554
B6 Er0 2.597795 1_554
B6 Er1 2.650430 1_564
B6 Er3 2.672130 1_555
B6 Er2 2.931493 1_555
B7 Ru0 2.228233 1_555
B7 Ru1 2.253285 1_555
B7 Ru2 2.256423 1_455
B7 Er1 2.597786 1_555
B7 Er0 2.650424 1_555
B7 Er2 2.672124 1_455
B7 Er3 2.931488 1_445
