# generated using pymatgen
data_Tb2CoTe2(SO7)2
_symmetry_space_group_name_H-M   'P 1'
_cell_length_a   5.25125987
_cell_length_b   7.80643167
_cell_length_c   8.06338333
_cell_angle_alpha   115.91720619
_cell_angle_beta   107.18991066
_cell_angle_gamma   85.71198350
_symmetry_Int_Tables_number   1
_chemical_formula_structural   Tb2CoTe2(SO7)2
_chemical_formula_sum   'Tb2 Co1 Te2 S2 O14'
_cell_volume   283.45263204
_cell_formula_units_Z   1
loop_
 _symmetry_equiv_pos_site_id
 _symmetry_equiv_pos_as_xyz
  1  'x, y, z'
loop_
 _atom_site_type_symbol
 _atom_site_label
 _atom_site_symmetry_multiplicity
 _atom_site_fract_x
 _atom_site_fract_y
 _atom_site_fract_z
 _atom_site_occupancy
  Tb  Tb0  1  0.07800741  0.25149857  0.98265947  1
  Tb  Tb1  1  0.92199259  0.74850143  0.01734053  1
  Co  Co0  1  0.00000000  0.00000000  0.50000000  1
  Te  Te0  1  0.51114415  0.27141271  0.65776272  1
  Te  Te1  1  0.48885585  0.72858729  0.34223728  1
  S  S0  1  0.76315502  0.24628729  0.25179355  1
  S  S1  1  0.23684498  0.75371271  0.74820645  1
  O  O0  1  0.89948245  0.40831933  0.25914968  1
  O  O1  1  0.10051755  0.59168067  0.74085032  1
  O  O2  1  0.86820422  0.22551803  0.43148505  1
  O  O3  1  0.13179578  0.77448197  0.56851495  1
  O  O4  1  0.47509774  0.26978562  0.21695761  1
  O  O5  1  0.52490226  0.73021438  0.78304239  1
  O  O6  1  0.81891583  0.07619878  0.08745977  1
  O  O7  1  0.18108417  0.92380122  0.91254023  1
  O  O8  1  0.74819392  0.43880732  0.89393972  1
  O  O9  1  0.25180608  0.56119268  0.10606028  1
  O  O10  1  0.27544940  0.19277534  0.75050683  1
  O  O11  1  0.72455060  0.80722466  0.24949317  1
  O  O12  1  0.74446006  0.07514953  0.66597806  1
  O  O13  1  0.25553994  0.92485047  0.33402194  1
loop_
_geom_bond_atom_site_label_1
_geom_bond_atom_site_label_2
_geom_bond_distance
_geom_bond_site_symmetry_2
Co0 O13 2.047811 1_545
Co0 O12 2.047811 1_455
Co0 O3 2.079790 1_545
Co0 O2 2.079790 1_455
Co0 O10 2.092458 1_555
Co0 O11 2.092458 1_445
O0 S0 1.469931 1_555
O0 Tb0 2.454782 1_654
O1 S1 1.469931 1_555
O1 Tb1 2.454782 1_456
O2 S0 1.466119 1_555
O3 S1 1.466119 1_555
O4 S0 1.467345 1_555
O4 Tb0 2.327652 1_554
O5 S1 1.467345 1_555
O5 Tb1 2.327652 1_556
O6 S0 1.495932 1_555
O6 Tb1 2.422038 1_545
O6 Tb0 2.531165 1_654
O7 S1 1.495932 1_555
O7 Tb0 2.422038 1_565
O7 Tb1 2.531165 1_456
O8 Te0 1.884282 1_555
O8 Tb1 2.314779 1_556
O8 Tb0 2.335119 1_655
O9 Te1 1.884282 1_555
O9 Tb0 2.314779 1_554
O9 Tb1 2.335119 1_455
O10 Te0 1.878829 1_555
O10 Tb0 2.261699 1_555
O11 Te1 1.878829 1_555
O11 Tb1 2.261699 1_555
O12 Te0 1.900769 1_555
O12 Tb0 2.475396 1_655
O13 Te1 1.900769 1_555
O13 Tb1 2.475396 1_455
