# generated using pymatgen
data_PrH3CSO7
_symmetry_space_group_name_H-M   'P 1'
_cell_length_a   7.04453700
_cell_length_b   7.04453700
_cell_length_c   12.01095200
_cell_angle_alpha   90.00000000
_cell_angle_beta   90.00000000
_cell_angle_gamma   90.00000000
_symmetry_Int_Tables_number   1
_chemical_formula_structural   PrH3CSO7
_chemical_formula_sum   'Pr4 H12 C4 S4 O28'
_cell_volume   596.04951703
_cell_formula_units_Z   4
loop_
 _symmetry_equiv_pos_site_id
 _symmetry_equiv_pos_as_xyz
  1  'x, y, z'
loop_
 _atom_site_type_symbol
 _atom_site_label
 _atom_site_symmetry_multiplicity
 _atom_site_fract_x
 _atom_site_fract_y
 _atom_site_fract_z
 _atom_site_occupancy
  Pr  Pr0  1  0.13062300  0.38519700  0.47901400  1
  Pr  Pr1  1  0.86937700  0.61480300  0.97901400  1
  Pr  Pr2  1  0.38519700  0.86937700  0.72901400  1
  Pr  Pr3  1  0.61480300  0.13062300  0.22901400  1
  H  H0  1  0.63950500  0.47987200  0.51547600  1
  H  H1  1  0.36049500  0.52012800  0.01547600  1
  H  H2  1  0.47987200  0.36049500  0.76547600  1
  H  H3  1  0.52012800  0.63950500  0.26547600  1
  H  H4  1  0.89567100  0.32545000  0.69563800  1
  H  H5  1  0.10432900  0.67455000  0.19563800  1
  H  H6  1  0.32545000  0.10432900  0.94563800  1
  H  H7  1  0.67455000  0.89567100  0.44563800  1
  H  H8  1  0.95909300  0.11735300  0.66146000  1
  H  H9  1  0.04090700  0.88264700  0.16146000  1
  H  H10  1  0.11735300  0.04090700  0.91146000  1
  H  H11  1  0.88264700  0.95909300  0.41146000  1
  C  C0  1  0.63540800  0.39122500  0.44008900  1
  C  C1  1  0.36459200  0.60877500  0.94008900  1
  C  C2  1  0.39122500  0.36459200  0.69008900  1
  C  C3  1  0.60877500  0.63540800  0.19008900  1
  S  S0  1  0.11330500  0.26494500  0.17275000  1
  S  S1  1  0.88669500  0.73505500  0.67275000  1
  S  S2  1  0.26494500  0.88669500  0.42275000  1
  S  S3  1  0.73505500  0.11330500  0.92275000  1
  O  O0  1  0.29491400  0.16883500  0.14698000  1
  O  O1  1  0.70508600  0.83116500  0.64698000  1
  O  O2  1  0.16883500  0.70508600  0.39698000  1
  O  O3  1  0.83116500  0.29491400  0.89698000  1
  O  O4  1  0.13320600  0.38900600  0.27199400  1
  O  O5  1  0.86679400  0.61099400  0.77199400  1
  O  O6  1  0.38900600  0.86679400  0.52199400  1
  O  O7  1  0.61099400  0.13320600  0.02199400  1
  O  O8  1  0.05979500  0.38217400  0.07567300  1
  O  O9  1  0.94020500  0.61782600  0.57567300  1
  O  O10  1  0.38217400  0.94020500  0.32567300  1
  O  O11  1  0.61782600  0.05979500  0.82567300  1
  O  O12  1  0.96230400  0.11761300  0.19331400  1
  O  O13  1  0.03769600  0.88238700  0.69331400  1
  O  O14  1  0.11761300  0.03769600  0.44331400  1
  O  O15  1  0.88238700  0.96230400  0.94331400  1
  O  O16  1  0.47448600  0.33982200  0.40054200  1
  O  O17  1  0.52551400  0.66017800  0.90054200  1
  O  O18  1  0.33982200  0.52551400  0.65054200  1
  O  O19  1  0.66017800  0.47448600  0.15054200  1
  O  O20  1  0.79050200  0.34538000  0.39325300  1
  O  O21  1  0.20949800  0.65462000  0.89325300  1
  O  O22  1  0.34538000  0.20949800  0.64325300  1
  O  O23  1  0.65462000  0.79050200  0.14325300  1
  O  O24  1  0.92903000  0.24497500  0.63195700  1
  O  O25  1  0.07097000  0.75502500  0.13195700  1
  O  O26  1  0.24497500  0.07097000  0.88195700  1
  O  O27  1  0.75502500  0.92903000  0.38195700  1
loop_
_geom_bond_atom_site_label_1
_geom_bond_atom_site_label_2
_geom_bond_distance
_geom_bond_site_symmetry_2
H4 O24 0.980630 1_555
H5 O25 0.980630 1_555
H6 O26 0.980630 1_555
H7 O27 0.980630 1_555
H8 O24 0.989288 1_555
H9 O25 0.989288 1_555
H10 O26 0.989288 1_555
H11 O27 0.989288 1_555
C0 H0 1.100309 1_555
C0 O20 1.270613 1_555
C0 O16 1.281344 1_555
C1 H1 1.100309 1_556
C1 O21 1.270613 1_555
C1 O17 1.281344 1_555
C2 H2 1.100309 1_555
C2 O22 1.270613 1_555
C2 O18 1.281344 1_555
C3 H3 1.100309 1_555
C3 O23 1.270613 1_555
C3 O19 1.281344 1_555
O0 S0 1.480183 1_555
O0 Pr3 2.474150 1_555
O1 S1 1.480183 1_555
O1 Pr2 2.474150 1_555
O2 S2 1.480183 1_555
O2 Pr0 2.474150 1_555
O3 S3 1.480183 1_555
O3 Pr1 2.474150 1_555
O4 S0 1.484704 1_555
O4 Pr0 2.486719 1_555
O5 S1 1.484704 1_555
O5 Pr1 2.486719 1_555
O6 S2 1.484704 1_555
O6 Pr2 2.486719 1_555
O7 S3 1.484704 1_554
O7 Pr3 2.486719 1_555
O8 S0 1.477703 1_555
O8 Pr1 2.415111 1_454
O9 S1 1.477703 1_555
O9 Pr0 2.415111 1_655
O10 S2 1.477703 1_555
O10 Pr3 2.415111 1_565
O11 S3 1.477703 1_555
O11 Pr2 2.415111 1_545
O12 S0 1.506565 1_655
O12 Pr3 2.486943 1_555
O13 S1 1.506565 1_455
O13 Pr2 2.486943 1_555
O14 S2 1.506565 1_545
O14 Pr0 2.486943 1_555
O15 S3 1.506565 1_565
O15 Pr1 2.486943 1_555
O16 Pr0 2.618841 1_555
O16 Pr3 2.719076 1_555
O17 Pr1 2.618841 1_555
O17 Pr2 2.719076 1_555
O18 Pr2 2.618841 1_555
O18 Pr0 2.719076 1_555
O19 Pr3 2.618841 1_555
O19 Pr1 2.719076 1_554
O20 Pr0 2.623074 1_655
O20 Pr3 2.777070 1_555
O21 Pr1 2.623074 1_455
O21 Pr2 2.777070 1_555
O22 Pr2 2.623074 1_545
O22 Pr0 2.777070 1_555
O23 Pr3 2.623074 1_565
O23 Pr1 2.777070 1_554
O24 Pr0 2.523301 1_655
O25 Pr1 2.523301 1_454
O26 Pr2 2.523301 1_545
O27 Pr3 2.523301 1_565
