# generated using pymatgen
data_KPr(PO3)4
_symmetry_space_group_name_H-M   'P 1'
_cell_length_a   7.27328304
_cell_length_b   8.02510809
_cell_length_c   8.46397835
_cell_angle_alpha   90.00000000
_cell_angle_beta   90.00000000
_cell_angle_gamma   92.05334449
_symmetry_Int_Tables_number   1
_chemical_formula_structural   KPr(PO3)4
_chemical_formula_sum   'K2 Pr2 P8 O24'
_cell_volume   493.71574019
_cell_formula_units_Z   2
loop_
 _symmetry_equiv_pos_site_id
 _symmetry_equiv_pos_as_xyz
  1  'x, y, z'
loop_
 _atom_site_type_symbol
 _atom_site_label
 _atom_site_symmetry_multiplicity
 _atom_site_fract_x
 _atom_site_fract_y
 _atom_site_fract_z
 _atom_site_occupancy
  K  K0  1  0.77056204  0.72075010  0.19414190  1
  K  K1  1  0.22943796  0.27924990  0.69414190  1
  Pr  Pr0  1  0.26548031  0.75709158  0.37992620  1
  Pr  Pr1  1  0.73451969  0.24290842  0.87992620  1
  P  P0  1  0.50312452  0.38037177  0.23293824  1
  P  P1  1  0.49687548  0.61962823  0.73293824  1
  P  P2  1  0.93399626  0.09937602  0.25680032  1
  P  P3  1  0.06600374  0.90062398  0.75680032  1
  P  P4  1  0.12298325  0.39634130  0.12569210  1
  P  P5  1  0.87701675  0.60365870  0.62569110  1
  P  P6  1  0.60324343  0.10467564  0.45881251  1
  P  P7  1  0.39675657  0.89532436  0.95881251  1
  O  O0  1  0.04359898  0.27438111  0.26040847  1
  O  O1  1  0.95640102  0.72561889  0.76040847  1
  O  O2  1  0.81387171  0.12866488  0.41131218  1
  O  O3  1  0.18612829  0.87133512  0.91131218  1
  O  O4  1  0.95963816  0.65136323  0.47163121  1
  O  O5  1  0.04036184  0.34863677  0.97163121  1
  O  O6  1  0.11040719  0.56975988  0.18312184  1
  O  O7  1  0.88959281  0.43024012  0.68312184  1
  O  O8  1  0.33215756  0.34528834  0.11993658  1
  O  O9  1  0.66784244  0.65471166  0.61993658  1
  O  O10  1  0.67147757  0.38793374  0.13373015  1
  O  O11  1  0.32852243  0.61206626  0.63373015  1
  O  O12  1  0.18552286  0.92617841  0.61636725  1
  O  O13  1  0.81447714  0.07382159  0.11636725  1
  O  O14  1  0.41648442  0.82247064  0.11827160  1
  O  O15  1  0.58351558  0.17752936  0.61827160  1
  O  O16  1  0.54055072  0.92951251  0.42877585  1
  O  O17  1  0.45944928  0.07048749  0.92877585  1
  O  O18  1  0.49320844  0.21459748  0.33532688  1
  O  O19  1  0.50679156  0.78540252  0.83532688  1
  O  O20  1  0.06387177  0.96486187  0.28806401  1
  O  O21  1  0.93612823  0.03513813  0.78806401  1
  O  O22  1  0.47164805  0.52738553  0.33464671  1
  O  O23  1  0.52835195  0.47261447  0.83464671  1
loop_
_geom_bond_atom_site_label_1
_geom_bond_atom_site_label_2
_geom_bond_distance
_geom_bond_site_symmetry_2
K0 O4 2.787893 1_555
K0 O10 2.788642 1_555
K0 O6 2.793085 1_655
K0 O14 2.803855 1_555
K0 O22 2.882213 1_555
K0 O13 2.915282 1_565
K0 O20 2.953187 1_655
K0 O16 3.122543 1_555
K1 O5 2.787893 1_555
K1 O11 2.788642 1_555
K1 O7 2.793085 1_455
K1 O15 2.803855 1_555
K1 O23 2.882213 1_555
K1 O12 2.915282 1_545
K1 O21 2.953187 1_455
K1 O17 3.122543 1_555
O0 P2 1.590165 1_455
O0 P4 1.597171 1_555
O1 P3 1.590165 1_655
O1 P5 1.597177 1_555
O2 P6 1.588856 1_555
O2 P2 1.594872 1_555
O3 P7 1.588856 1_555
O3 P3 1.594872 1_555
O4 P5 1.480372 1_555
O4 Pr0 2.476981 1_655
O5 P4 1.480380 1_556
O5 Pr1 2.476981 1_455
O6 P4 1.480069 1_555
O6 Pr0 2.487052 1_555
O7 P5 1.480071 1_555
O7 Pr1 2.487052 1_555
O8 P0 1.585949 1_555
O8 P4 1.590443 1_555
O9 P1 1.585949 1_555
O9 P5 1.590442 1_555
O10 P0 1.484182 1_555
O10 Pr1 2.493540 1_554
O11 P1 1.484182 1_555
O11 Pr0 2.493540 1_555
O12 P3 1.482492 1_555
O12 Pr0 2.498193 1_555
O13 P2 1.482492 1_555
O13 Pr1 2.498193 1_554
O14 P7 1.479866 1_554
O14 Pr0 2.518902 1_555
O15 P6 1.479866 1_555
O15 Pr1 2.518902 1_555
O16 P6 1.484123 1_565
O16 Pr0 2.426901 1_555
O17 P7 1.484123 1_545
O17 Pr1 2.426901 1_555
O18 P0 1.587198 1_555
O18 P6 1.600518 1_555
O19 P1 1.587198 1_555
O19 P7 1.600518 1_555
O20 P2 1.483477 1_465
O20 Pr0 2.389581 1_555
O21 P3 1.483477 1_645
O21 Pr1 2.389581 1_555
O22 P0 1.484849 1_555
O22 Pr0 2.447793 1_555
O23 P1 1.484849 1_555
O23 Pr1 2.447793 1_555
