# generated using pymatgen
data_NdMoO2
_symmetry_space_group_name_H-M   'P 1'
_cell_length_a   7.63330738
_cell_length_b   7.63330738
_cell_length_c   7.63330738
_cell_angle_alpha   129.93531083
_cell_angle_beta   129.93531083
_cell_angle_gamma   73.51020212
_symmetry_Int_Tables_number   1
_chemical_formula_structural   NdMoO2
_chemical_formula_sum   'Nd4 Mo4 O8'
_cell_volume   255.20357304
_cell_formula_units_Z   4
loop_
 _symmetry_equiv_pos_site_id
 _symmetry_equiv_pos_as_xyz
  1  'x, y, z'
loop_
 _atom_site_type_symbol
 _atom_site_label
 _atom_site_symmetry_multiplicity
 _atom_site_fract_x
 _atom_site_fract_y
 _atom_site_fract_z
 _atom_site_occupancy
  Nd  Nd0  1  0.87500000  0.62500000  0.25000000  1
  Nd  Nd1  1  0.37500000  0.62500000  0.75000000  1
  Nd  Nd2  1  0.37500000  0.62500000  0.25000000  1
  Nd  Nd3  1  0.37500000  0.12500000  0.75000000  1
  Mo  Mo0  1  0.37500000  0.12500000  0.25000000  1
  Mo  Mo1  1  0.87500000  0.12500000  0.75000000  1
  Mo  Mo2  1  0.87500000  0.12500000  0.25000000  1
  Mo  Mo3  1  0.87500000  0.62500000  0.75000000  1
  O  O0  1  0.17261600  0.39531400  0.22269700  1
  O  O1  1  0.17261600  0.94991900  0.77730300  1
  O  O2  1  0.14531400  0.42261600  0.72269700  1
  O  O3  1  0.57738400  0.85468600  0.27730300  1
  O  O4  1  0.69991900  0.42261600  0.27730300  1
  O  O5  1  0.57738400  0.30008100  0.72269700  1
  O  O6  1  0.60468600  0.82738400  0.77730300  1
  O  O7  1  0.05008100  0.82738400  0.22269700  1
loop_
_geom_bond_atom_site_label_1
_geom_bond_atom_site_label_2
_geom_bond_distance
_geom_bond_site_symmetry_2
Nd0 O3 2.481134 1_555
Nd0 O0 2.481134 1_655
Nd0 O1 2.481137 1_655
Nd0 O5 2.481137 1_554
Nd0 O4 2.481759 1_555
Nd0 O7 2.481759 1_655
Nd1 O5 2.481137 1_555
Nd1 O1 2.481137 1_555
Nd1 O3 2.481138 1_556
Nd1 O0 2.481138 1_555
Nd1 O2 2.481753 1_555
Nd1 O6 2.481753 1_555
Nd2 O7 2.481137 1_555
Nd2 O4 2.481137 1_555
Nd2 O6 2.481138 1_555
Nd2 O2 2.481138 1_554
Nd2 O0 2.481753 1_555
Nd2 O3 2.481753 1_555
Nd3 O6 2.481134 1_545
Nd3 O2 2.481134 1_555
Nd3 O4 2.481137 1_556
Nd3 O7 2.481137 1_545
Nd3 O1 2.481759 1_545
Nd3 O5 2.481759 1_555
Mo0 O5 2.239805 1_555
Mo0 O1 2.239805 1_544
Mo0 O3 2.239811 1_545
Mo0 O0 2.239811 1_555
Mo1 O5 2.239805 1_555
Mo1 O1 2.239805 1_645
Mo1 O0 2.239806 1_656
Mo1 O3 2.239806 1_545
Mo2 O7 2.239805 1_645
Mo2 O4 2.239805 1_555
Mo2 O2 2.239806 1_655
Mo2 O6 2.239806 1_544
Mo3 O7 2.239805 1_656
Mo3 O4 2.239805 1_555
Mo3 O6 2.239811 1_555
Mo3 O2 2.239811 1_655
