# generated using pymatgen
data_La(YS2)3
_symmetry_space_group_name_H-M   'P 1'
_cell_length_a   4.01976066
_cell_length_b   11.12210759
_cell_length_c   11.39007249
_cell_angle_alpha   71.22513547
_cell_angle_beta   90.00000000
_cell_angle_gamma   90.00000000
_symmetry_Int_Tables_number   1
_chemical_formula_structural   La(YS2)3
_chemical_formula_sum   'La2 Y6 S12'
_cell_volume   482.13392162
_cell_formula_units_Z   2
loop_
 _symmetry_equiv_pos_site_id
 _symmetry_equiv_pos_as_xyz
  1  'x, y, z'
loop_
 _atom_site_type_symbol
 _atom_site_label
 _atom_site_symmetry_multiplicity
 _atom_site_fract_x
 _atom_site_fract_y
 _atom_site_fract_z
 _atom_site_occupancy
  La  La0  1  0.25000000  0.94934382  0.69490123  1
  La  La1  1  0.75000000  0.05065618  0.30509877  1
  Y  Y0  1  0.25000000  0.55601268  0.83318397  1
  Y  Y1  1  0.75000000  0.44398732  0.16681603  1
  Y  Y2  1  0.25000000  0.32064734  0.50138755  1
  Y  Y3  1  0.75000000  0.67935266  0.49861245  1
  Y  Y4  1  0.25000000  0.83859037  0.08776529  1
  Y  Y5  1  0.75000000  0.16140963  0.91223471  1
  S  S0  1  0.25000000  0.52207911  0.61116551  1
  S  S1  1  0.75000000  0.47792089  0.38883449  1
  S  S2  1  0.25000000  0.08223231  0.09247303  1
  S  S3  1  0.75000000  0.91776769  0.90752697  1
  S  S4  1  0.25000000  0.60650575  0.05689624  1
  S  S5  1  0.75000000  0.39349425  0.94310376  1
  S  S6  1  0.25000000  0.26868317  0.27060680  1
  S  S7  1  0.75000000  0.73131683  0.72939320  1
  S  S8  1  0.25000000  0.88045225  0.46296151  1
  S  S9  1  0.75000000  0.11954775  0.53703849  1
  S  S10  1  0.25000000  0.19676628  0.75116952  1
  S  S11  1  0.75000000  0.80323372  0.24883048  1
loop_
_geom_bond_atom_site_label_1
_geom_bond_atom_site_label_2
_geom_bond_distance
_geom_bond_site_symmetry_2
La0 S9 2.943670 1_465
La0 S9 2.943670 1_565
La0 S8 2.978126 1_555
La0 S10 3.019728 1_565
La0 S7 3.075868 1_455
La0 S7 3.075868 1_555
La0 S3 3.079074 1_555
La0 S3 3.079074 1_455
La1 S8 2.943670 1_645
La1 S8 2.943670 1_545
La1 S9 2.978126 1_555
La1 S11 3.019728 1_545
La1 S6 3.075868 1_555
La1 S6 3.075868 1_655
La1 S2 3.079074 1_555
La1 S2 3.079074 1_655
S0 Y0 2.674257 1_555
S0 Y3 2.701736 1_455
S0 Y3 2.701736 1_555
S0 Y2 2.895822 1_555
S1 Y1 2.674257 1_555
S1 Y2 2.701736 1_655
S1 Y2 2.701736 1_555
S1 Y3 2.895822 1_555
S2 Y4 2.727542 1_545
S2 Y5 2.804623 1_454
S2 Y5 2.804623 1_554
S3 Y5 2.727542 1_565
S3 Y4 2.804623 1_656
S3 Y4 2.804623 1_556
S4 Y4 2.714919 1_555
S4 Y1 2.723530 1_555
S4 Y1 2.723530 1_455
S4 Y0 2.780165 1_554
S5 Y5 2.714919 1_555
S5 Y0 2.723530 1_555
S5 Y0 2.723530 1_655
S5 Y1 2.780165 1_556
S6 Y1 2.784780 1_455
S6 Y1 2.784780 1_555
S6 Y2 2.867321 1_555
S7 Y0 2.784780 1_555
S7 Y0 2.784780 1_655
S7 Y3 2.867321 1_555
S8 Y3 2.936408 1_555
S8 Y3 2.936408 1_455
S9 Y2 2.936408 1_555
S9 Y2 2.936408 1_655
S10 Y5 2.663725 1_555
S10 Y5 2.663725 1_455
S10 Y2 2.733009 1_555
S11 Y4 2.663725 1_655
S11 Y4 2.663725 1_555
S11 Y3 2.733009 1_555
