# generated using pymatgen
data_CaV4(PdO4)3
_symmetry_space_group_name_H-M   'P 1'
_cell_length_a   6.52448297
_cell_length_b   6.52448297
_cell_length_c   6.52448297
_cell_angle_alpha   109.47122063
_cell_angle_beta   109.47122063
_cell_angle_gamma   109.47122063
_symmetry_Int_Tables_number   1
_chemical_formula_structural   CaV4(PdO4)3
_chemical_formula_sum   'Ca1 V4 Pd3 O12'
_cell_volume   213.80429006
_cell_formula_units_Z   1
loop_
 _symmetry_equiv_pos_site_id
 _symmetry_equiv_pos_as_xyz
  1  'x, y, z'
loop_
 _atom_site_type_symbol
 _atom_site_label
 _atom_site_symmetry_multiplicity
 _atom_site_fract_x
 _atom_site_fract_y
 _atom_site_fract_z
 _atom_site_occupancy
  Ca  Ca0  1  0.00000000  0.00000000  0.00000000  1
  V  V0  1  0.00000000  0.00000000  0.50000000  1
  V  V1  1  0.50000000  0.00000000  0.00000000  1
  V  V2  1  0.00000000  0.50000000  0.00000000  1
  V  V3  1  0.50000000  0.50000000  0.50000000  1
  Pd  Pd0  1  0.50000000  0.00000000  0.50000000  1
  Pd  Pd1  1  0.00000000  0.50000000  0.50000000  1
  Pd  Pd2  1  0.50000000  0.50000000  0.00000000  1
  O  O0  1  0.18120700  0.88547400  0.70426700  1
  O  O1  1  0.81879300  0.11452600  0.29573300  1
  O  O2  1  0.81879300  0.52306000  0.70426700  1
  O  O3  1  0.18120700  0.47694000  0.29573300  1
  O  O4  1  0.88547400  0.70426700  0.18120700  1
  O  O5  1  0.11452600  0.29573300  0.81879300  1
  O  O6  1  0.52306000  0.70426700  0.81879300  1
  O  O7  1  0.47694000  0.29573300  0.18120700  1
  O  O8  1  0.70426700  0.18120700  0.88547400  1
  O  O9  1  0.29573300  0.81879300  0.11452600  1
  O  O10  1  0.70426700  0.81879300  0.52306000  1
  O  O11  1  0.29573300  0.18120700  0.47694000  1
loop_
_geom_bond_atom_site_label_1
_geom_bond_atom_site_label_2
_geom_bond_distance
_geom_bond_site_symmetry_2
Ca0 O11 2.612988 1_555
Ca0 O3 2.612988 1_555
Ca0 O2 2.612988 1_444
Ca0 O7 2.612988 1_555
Ca0 O1 2.612988 1_455
Ca0 O10 2.612988 1_444
Ca0 O0 2.612988 1_544
Ca0 O6 2.612988 1_444
Ca0 O9 2.612988 1_545
Ca0 O4 2.612988 1_445
Ca0 O5 2.612988 1_554
Ca0 O8 2.612988 1_454
O0 V0 1.983614 1_565
O0 V1 1.983614 1_566
O0 Pd1 2.057175 1_555
O1 V1 1.983614 1_555
O1 V0 1.983614 1_655
O1 Pd1 2.057175 1_655
O2 V3 1.983614 1_555
O2 V2 1.983614 1_656
O2 Pd1 2.057175 1_655
O3 V3 1.983614 1_555
O3 V2 1.983614 1_555
O3 Pd1 2.057175 1_555
O4 V0 1.983614 1_665
O4 V2 1.983614 1_655
O4 Pd2 2.057175 1_555
O5 V2 1.983614 1_556
O5 V0 1.983614 1_555
O5 Pd2 2.057175 1_556
O6 V3 1.983614 1_555
O6 V1 1.983614 1_566
O6 Pd2 2.057175 1_556
O7 V3 1.983614 1_555
O7 V1 1.983614 1_555
O7 Pd2 2.057175 1_555
O8 V1 1.983614 1_556
O8 V2 1.983614 1_656
O8 Pd0 2.057175 1_555
O9 V1 1.983614 1_565
O9 V2 1.983614 1_555
O9 Pd0 2.057175 1_565
O10 V3 1.983614 1_555
O10 V0 1.983614 1_665
O10 Pd0 2.057175 1_565
O11 V3 1.983614 1_555
O11 V0 1.983614 1_555
O11 Pd0 2.057175 1_555
