# generated using pymatgen
data_In3Pb3N5
_symmetry_space_group_name_H-M   'P 1'
_cell_length_a   6.31336044
_cell_length_b   6.96518907
_cell_length_c   9.96378211
_cell_angle_alpha   103.72674574
_cell_angle_beta   93.14233112
_cell_angle_gamma   86.40578173
_symmetry_Int_Tables_number   1
_chemical_formula_structural   In3Pb3N5
_chemical_formula_sum   'In6 Pb6 N10'
_cell_volume   424.43295616
_cell_formula_units_Z   2
loop_
 _symmetry_equiv_pos_site_id
 _symmetry_equiv_pos_as_xyz
  1  'x, y, z'
loop_
 _atom_site_type_symbol
 _atom_site_label
 _atom_site_symmetry_multiplicity
 _atom_site_fract_x
 _atom_site_fract_y
 _atom_site_fract_z
 _atom_site_occupancy
  In  In0  1  0.86324900  0.30814100  0.94428000  1
  In  In1  1  0.13675100  0.69185900  0.05572000  1
  In  In2  1  0.71635400  0.96142600  0.58607300  1
  In  In3  1  0.28364600  0.03857400  0.41392700  1
  In  In4  1  0.15333600  0.91496200  0.74852400  1
  In  In5  1  0.84666400  0.08503800  0.25147600  1
  Pb  Pb0  1  0.78336100  0.42076100  0.57062500  1
  Pb  Pb1  1  0.21663900  0.57923900  0.42937500  1
  Pb  Pb2  1  0.64416600  0.81108700  0.89202300  1
  Pb  Pb3  1  0.35583400  0.18891400  0.10797700  1
  Pb  Pb4  1  0.72941300  0.64361800  0.26119900  1
  Pb  Pb5  1  0.27058700  0.35638200  0.73880100  1
  N  N0  1  0.92097500  0.18842800  0.72410800  1
  N  N1  1  0.07902500  0.81157200  0.27589200  1
  N  N2  1  0.95839700  0.71646100  0.59630000  1
  N  N3  1  0.04160300  0.28353900  0.40370000  1
  N  N4  1  0.78657500  0.62194300  0.03162900  1
  N  N5  1  0.21342500  0.37805700  0.96837100  1
  N  N6  1  0.38100300  0.02643100  0.63188900  1
  N  N7  1  0.61899700  0.97356900  0.36811100  1
  N  N8  1  0.27922200  0.88560100  0.94915700  1
  N  N9  1  0.72077800  0.11439900  0.05084300  1
loop_
_geom_bond_atom_site_label_1
_geom_bond_atom_site_label_2
_geom_bond_distance
_geom_bond_site_symmetry_2
In0 N9 2.166631 1_556
In0 N4 2.186272 1_556
In0 N0 2.195916 1_555
In0 N5 2.281157 1_655
In1 N8 2.166631 1_554
In1 N5 2.186272 1_554
In1 N1 2.195916 1_555
In1 N4 2.281157 1_455
In2 N6 2.187139 1_565
In2 N2 2.235003 1_555
In2 N7 2.244026 1_555
In2 N0 2.256026 1_565
In3 N7 2.187139 1_545
In3 N3 2.235003 1_555
In3 N6 2.244026 1_555
In3 N1 2.256026 1_545
In4 N8 2.160829 1_555
In4 N2 2.177198 1_455
In4 N6 2.184158 1_565
In4 N0 2.381113 1_465
In5 N9 2.160829 1_555
In5 N3 2.177198 1_655
In5 N7 2.184158 1_545
In5 N1 2.381113 1_645
N0 Pb5 2.543388 1_655
N0 Pb0 2.562174 1_555
N1 Pb4 2.543388 1_455
N1 Pb1 2.562174 1_555
N2 Pb0 2.352214 1_555
N2 Pb1 2.384401 1_655
N3 Pb1 2.352214 1_555
N3 Pb0 2.384401 1_455
N4 Pb2 2.250092 1_554
N4 Pb4 2.303246 1_555
N5 Pb3 2.250088 1_556
N5 Pb5 2.303246 1_555
N6 Pb5 2.370864 1_555
N7 Pb4 2.370864 1_555
N8 Pb3 2.378847 1_566
N8 Pb2 2.399085 1_555
N9 Pb2 2.378842 1_544
N9 Pb3 2.399085 1_555
