# generated using pymatgen
data_Sr4Li2B12O23
_symmetry_space_group_name_H-M   'P 1'
_cell_length_a   8.62523400
_cell_length_b   6.53248400
_cell_length_c   15.50294934
_cell_angle_alpha   77.88058623
_cell_angle_beta   90.00000000
_cell_angle_gamma   90.00000000
_symmetry_Int_Tables_number   1
_chemical_formula_structural   Sr4Li2B12O23
_chemical_formula_sum   'Sr8 Li4 B24 O46'
_cell_volume   854.03286366
_cell_formula_units_Z   2
loop_
 _symmetry_equiv_pos_site_id
 _symmetry_equiv_pos_as_xyz
  1  'x, y, z'
loop_
 _atom_site_type_symbol
 _atom_site_label
 _atom_site_symmetry_multiplicity
 _atom_site_fract_x
 _atom_site_fract_y
 _atom_site_fract_z
 _atom_site_occupancy
  Sr  Sr0  1  0.82398600  0.96972000  0.22735600  1
  Sr  Sr1  1  0.32398600  0.03028000  0.27264400  1
  Sr  Sr2  1  0.17601400  0.03028000  0.77264400  1
  Sr  Sr3  1  0.67601400  0.96972000  0.72735600  1
  Sr  Sr4  1  0.98428600  0.39065200  0.38611700  1
  Sr  Sr5  1  0.48428600  0.60934800  0.11388300  1
  Sr  Sr6  1  0.01571400  0.60934800  0.61388300  1
  Sr  Sr7  1  0.51571400  0.39065200  0.88611700  1
  Li  Li0  1  0.80448000  0.34165700  0.02458900  1
  Li  Li1  1  0.30448000  0.65834300  0.47541100  1
  Li  Li2  1  0.19552000  0.65834300  0.97541100  1
  Li  Li3  1  0.69552000  0.34165700  0.52458900  1
  B  B0  1  0.65448500  0.06414500  0.42200700  1
  B  B1  1  0.15448500  0.93585500  0.07799300  1
  B  B2  1  0.34551500  0.93585500  0.57799300  1
  B  B3  1  0.84551500  0.06414500  0.92200700  1
  B  B4  1  0.83055900  0.75215000  0.03780500  1
  B  B5  1  0.33055900  0.24785000  0.46219500  1
  B  B6  1  0.16944100  0.24785000  0.96219500  1
  B  B7  1  0.66944100  0.75215000  0.53780500  1
  B  B8  1  0.88027000  0.47709800  0.18308600  1
  B  B9  1  0.38027000  0.52290200  0.31691400  1
  B  B10  1  0.11973000  0.52290200  0.81691400  1
  B  B11  1  0.61973000  0.47709800  0.68308600  1
  B  B12  1  0.60216400  0.71474600  0.38187000  1
  B  B13  1  0.10216400  0.28525400  0.11813000  1
  B  B14  1  0.39783600  0.28525400  0.61813000  1
  B  B15  1  0.89783600  0.71474600  0.88187000  1
  B  B16  1  0.66286300  0.42549600  0.30714200  1
  B  B17  1  0.16286300  0.57450400  0.19285800  1
  B  B18  1  0.33713700  0.57450400  0.69285800  1
  B  B19  1  0.83713700  0.42549600  0.80714200  1
  B  B20  1  0.03900000  0.90313200  0.42723500  1
  B  B21  1  0.53900000  0.09686800  0.07276500  1
  B  B22  1  0.96100000  0.09686800  0.57276500  1
  B  B23  1  0.46100000  0.90313200  0.92723500  1
  O  O0  1  0.93817400  0.32868100  0.13096200  1
  O  O1  1  0.43817400  0.67131900  0.36903800  1
  O  O2  1  0.06182600  0.67131900  0.86903800  1
  O  O3  1  0.56182600  0.32868100  0.63096200  1
  O  O4  1  0.52900800  0.97695100  0.15596400  1
  O  O5  1  0.02900800  0.02304900  0.34403600  1
  O  O6  1  0.47099200  0.02304900  0.84403600  1
  O  O7  1  0.97099200  0.97695100  0.65596400  1
  O  O8  1  0.67796900  0.27439800  0.40067900  1
  O  O9  1  0.17796900  0.72560200  0.09932100  1
  O  O10  1  0.32203100  0.72560200  0.59932100  1
  O  O11  1  0.82203100  0.27439800  0.90067900  1
  O  O12  1  0.83529300  0.97119800  0.01262500  1
  O  O13  1  0.33529300  0.02880200  0.48737500  1
  O  O14  1  0.16470700  0.02880200  0.98737500  1
  O  O15  1  0.66470700  0.97119800  0.51262500  1
  O  O16  1  0.70709200  0.62966300  0.32515700  1
  O  O17  1  0.20709200  0.37033700  0.17484300  1
  O  O18  1  0.29290800  0.37033700  0.67484300  1
  O  O19  1  0.79290800  0.62966300  0.82515700  1
  O  O20  1  0.08344200  0.69742400  0.44891100  1
  O  O21  1  0.58344200  0.30257600  0.05108900  1
  O  O22  1  0.91655800  0.30257600  0.55108900  1
  O  O23  1  0.41655800  0.69742400  0.94891100  1
  O  O24  1  0.85336500  0.63491500  0.97628000  1
  O  O25  1  0.35336500  0.36508500  0.52372000  1
  O  O26  1  0.14663500  0.36508500  0.02372000  1
  O  O27  1  0.64663500  0.63491500  0.47628000  1
  O  O28  1  0.77396500  0.35722900  0.24879000  1
  O  O29  1  0.27396500  0.64277100  0.25121000  1
  O  O30  1  0.22603500  0.64277100  0.75121000  1
  O  O31  1  0.72603500  0.35722900  0.74879000  1
  O  O32  1  0.00422700  0.57716600  0.22453900  1
  O  O33  1  0.50422700  0.42283400  0.27546100  1
  O  O34  1  0.99577300  0.42283400  0.77546100  1
  O  O35  1  0.49577300  0.57716600  0.72453900  1
  O  O36  1  0.00000000  0.00000000  0.50000000  1
  O  O37  1  0.50000000  0.00000000  0.00000000  1
  O  O38  1  0.79256900  0.66359200  0.12365600  1
  O  O39  1  0.29256900  0.33640800  0.37634400  1
  O  O40  1  0.20743100  0.33640800  0.87634400  1
  O  O41  1  0.70743100  0.66359200  0.62365600  1
  O  O42  1  0.62290800  0.94896300  0.35998600  1
  O  O43  1  0.12290800  0.05103700  0.14001400  1
  O  O44  1  0.37709200  0.05103700  0.64001400  1
  O  O45  1  0.87709200  0.94896300  0.85998600  1
loop_
_geom_bond_atom_site_label_1
_geom_bond_atom_site_label_2
_geom_bond_distance
_geom_bond_site_symmetry_2
Li0 O24 1.950938 1_554
Li0 O21 1.955678 1_555
Li0 O0 1.999435 1_555
Li0 O11 2.064095 1_554
Li0 O12 2.479918 1_545
Li1 O25 1.950938 1_555
Li1 O20 1.955678 1_555
Li1 O1 1.999435 1_555
Li1 O10 2.064095 1_555
Li1 O13 2.479918 1_565
Li2 O26 1.950938 1_556
Li2 O23 1.955678 1_555
Li2 O2 1.999435 1_555
Li2 O9 2.064095 1_556
Li2 O14 2.479918 1_565
Li3 O27 1.950938 1_555
Li3 O22 1.955678 1_555
Li3 O3 1.999435 1_555
Li3 O8 2.064095 1_555
Li3 O15 2.479918 1_545
B0 O8 1.358711 1_555
B0 O42 1.366968 1_545
B0 O15 1.411332 1_545
B1 O9 1.358711 1_555
B1 O43 1.366968 1_565
B1 O14 1.411332 1_564
B2 O10 1.358711 1_555
B2 O44 1.366968 1_565
B2 O13 1.411332 1_565
B3 O11 1.358711 1_555
B3 O45 1.366968 1_545
B3 O12 1.411332 1_546
B4 O24 1.357090 1_554
B4 O38 1.374825 1_555
B4 O12 1.402518 1_555
B5 O25 1.357090 1_555
B5 O39 1.374825 1_555
B5 O13 1.402518 1_555
B6 O26 1.357090 1_556
B6 O40 1.374825 1_555
B6 O14 1.402518 1_555
B7 O27 1.357090 1_555
B7 O41 1.374825 1_555
B7 O15 1.402518 1_555
B8 O28 1.468507 1_555
B8 O32 1.469626 1_655
B8 O0 1.473563 1_555
B8 O38 1.560109 1_555
B9 O29 1.468507 1_555
B9 O33 1.469626 1_555
B9 O1 1.473563 1_555
B9 O39 1.560109 1_555
B10 O30 1.468507 1_555
B10 O34 1.469626 1_455
B10 O2 1.473563 1_555
B10 O40 1.560109 1_555
B11 O31 1.468507 1_555
B11 O35 1.469626 1_555
B11 O3 1.473563 1_555
B11 O41 1.560109 1_555
B12 O16 1.451280 1_555
B12 O1 1.464385 1_555
B12 O27 1.496933 1_555
B12 O42 1.506688 1_555
B13 O17 1.451280 1_555
B13 O0 1.464385 1_455
B13 O26 1.496933 1_555
B13 O43 1.506688 1_555
B14 O18 1.451280 1_555
B14 O3 1.464385 1_555
B14 O25 1.496933 1_555
B14 O44 1.506688 1_555
B15 O19 1.451280 1_555
B15 O2 1.464385 1_655
B15 O24 1.496933 1_555
B15 O45 1.506688 1_555
B16 O28 1.450836 1_555
B16 O33 1.455090 1_555
B16 O16 1.469266 1_555
B16 O8 1.578928 1_555
B17 O29 1.450836 1_555
B17 O32 1.455090 1_555
B17 O17 1.469266 1_555
B17 O9 1.578928 1_555
B18 O30 1.450836 1_555
B18 O35 1.455090 1_555
B18 O18 1.469266 1_555
B18 O10 1.578928 1_555
B19 O31 1.450836 1_555
B19 O34 1.455090 1_555
B19 O19 1.469266 1_555
B19 O11 1.578928 1_555
B20 O5 1.363991 1_565
B20 O20 1.369673 1_555
B20 O36 1.444251 1_565
B21 O4 1.363991 1_545
B21 O21 1.369673 1_555
B21 O37 1.444251 1_555
B22 O7 1.363991 1_545
B22 O22 1.369673 1_555
B22 O36 1.444251 1_655
B23 O6 1.363991 1_565
B23 O23 1.369673 1_555
B23 O37 1.444251 1_566
O0 Sr0 2.688941 1_545
O1 Sr1 2.688941 1_565
O2 Sr2 2.688941 1_565
O3 Sr3 2.688941 1_545
O4 Sr1 2.604829 1_565
O4 Sr5 2.645513 1_555
O4 Sr0 2.771008 1_555
O5 Sr0 2.604829 1_445
O5 Sr4 2.645513 1_455
O5 Sr1 2.771008 1_555
O6 Sr3 2.604829 1_545
O6 Sr7 2.645513 1_555
O6 Sr2 2.771008 1_555
O7 Sr2 2.604829 1_665
O7 Sr6 2.645513 1_655
O7 Sr3 2.771008 1_555
O8 Sr4 2.745208 1_555
O9 Sr5 2.745208 1_555
O10 Sr6 2.745208 1_555
O11 Sr7 2.745208 1_555
O16 Sr0 2.614544 1_555
O16 Sr4 2.903024 1_555
O17 Sr1 2.614544 1_555
O17 Sr5 2.903024 1_555
O18 Sr2 2.614544 1_555
O18 Sr6 2.903024 1_555
O19 Sr3 2.614544 1_555
O19 Sr7 2.903024 1_555
O20 Sr4 2.552302 1_455
O20 Sr6 2.568167 1_555
O21 Sr5 2.552302 1_555
O21 Sr7 2.568167 1_554
O22 Sr6 2.552302 1_655
O22 Sr4 2.568167 1_555
O23 Sr7 2.552302 1_555
O23 Sr5 2.568167 1_556
O28 Sr0 2.656639 1_545
O28 Sr4 2.840110 1_555
O29 Sr1 2.656639 1_565
O29 Sr5 2.840110 1_555
O30 Sr2 2.656639 1_565
O30 Sr6 2.840110 1_555
O31 Sr3 2.656639 1_545
O31 Sr7 2.840110 1_555
O32 Sr4 2.550930 1_455
O32 Sr0 3.006939 1_455
O33 Sr5 2.550930 1_555
O33 Sr1 3.006939 1_555
O34 Sr6 2.550930 1_655
O34 Sr2 3.006939 1_655
O35 Sr7 2.550930 1_555
O35 Sr3 3.006939 1_555
O36 Sr4 2.784946 1_455
O36 Sr6 2.784946 1_545
O37 Sr7 2.784946 1_554
O37 Sr5 2.784946 1_545
O38 Sr5 2.690987 1_555
O38 Sr0 2.829673 1_555
O39 Sr4 2.690987 1_455
O39 Sr1 2.829673 1_555
O40 Sr7 2.690987 1_555
O40 Sr2 2.829673 1_555
O41 Sr6 2.690987 1_655
O41 Sr3 2.829673 1_555
O42 Sr0 2.671525 1_555
O42 Sr1 2.908799 1_565
O43 Sr1 2.671525 1_555
O43 Sr0 2.908799 1_445
O44 Sr2 2.671525 1_555
O44 Sr3 2.908799 1_545
O45 Sr3 2.671525 1_555
O45 Sr2 2.908799 1_665
