# generated using pymatgen
data_Hg3(SCl)2
_symmetry_space_group_name_H-M   'P 1'
_cell_length_a   18.47595446
_cell_length_b   18.47595446
_cell_length_c   18.47595446
_cell_angle_alpha   90.00000000
_cell_angle_beta   90.00000000
_cell_angle_gamma   90.00000000
_symmetry_Int_Tables_number   1
_chemical_formula_structural   Hg3(SCl)2
_chemical_formula_sum   'Hg96 S64 Cl64'
_cell_volume   6306.96831734
_cell_formula_units_Z   32
loop_
 _symmetry_equiv_pos_site_id
 _symmetry_equiv_pos_as_xyz
  1  'x, y, z'
loop_
 _atom_site_type_symbol
 _atom_site_label
 _atom_site_symmetry_multiplicity
 _atom_site_fract_x
 _atom_site_fract_y
 _atom_site_fract_z
 _atom_site_occupancy
  Hg  Hg0  1  0.85695047  0.35695047  0.75000000  1
  Hg  Hg1  1  0.64304953  0.25000000  0.85695047  1
  Hg  Hg2  1  0.75000000  0.14304953  0.64304953  1
  Hg  Hg3  1  0.14304953  0.64304953  0.25000000  1
  Hg  Hg4  1  0.35695047  0.75000000  0.14304953  1
  Hg  Hg5  1  0.25000000  0.85695047  0.35695047  1
  Hg  Hg6  1  0.85695047  0.64304953  0.25000000  1
  Hg  Hg7  1  0.64304953  0.75000000  0.14304953  1
  Hg  Hg8  1  0.75000000  0.85695047  0.35695047  1
  Hg  Hg9  1  0.14304953  0.35695047  0.75000000  1
  Hg  Hg10  1  0.35695047  0.25000000  0.85695047  1
  Hg  Hg11  1  0.25000000  0.14304953  0.64304953  1
  Hg  Hg12  1  0.14304953  0.64304953  0.75000000  1
  Hg  Hg13  1  0.35695047  0.75000000  0.85695047  1
  Hg  Hg14  1  0.25000000  0.85695047  0.64304953  1
  Hg  Hg15  1  0.85695047  0.35695047  0.25000000  1
  Hg  Hg16  1  0.64304953  0.25000000  0.14304953  1
  Hg  Hg17  1  0.75000000  0.14304953  0.35695047  1
  Hg  Hg18  1  0.14304953  0.35695047  0.25000000  1
  Hg  Hg19  1  0.35695047  0.25000000  0.14304953  1
  Hg  Hg20  1  0.25000000  0.14304953  0.35695047  1
  Hg  Hg21  1  0.85695047  0.64304953  0.75000000  1
  Hg  Hg22  1  0.64304953  0.75000000  0.85695047  1
  Hg  Hg23  1  0.75000000  0.85695047  0.64304953  1
  Hg  Hg24  1  0.64123714  0.38401761  0.00000000  1
  Hg  Hg25  1  0.61598239  0.00000000  0.64123714  1
  Hg  Hg26  1  -0.00000000  0.35876286  0.61598239  1
  Hg  Hg27  1  0.35876286  0.61598239  0.00000000  1
  Hg  Hg28  1  0.38401761  -0.00000000  0.35876286  1
  Hg  Hg29  1  -0.00000000  0.64123714  0.38401761  1
  Hg  Hg30  1  0.64123714  0.61598239  0.00000000  1
  Hg  Hg31  1  0.61598239  -0.00000000  0.35876286  1
  Hg  Hg32  1  0.35876286  0.38401761  0.00000000  1
  Hg  Hg33  1  0.38401761  0.00000000  0.64123714  1
  Hg  Hg34  1  -0.00000000  0.64123714  0.61598239  1
  Hg  Hg35  1  -0.00000000  0.35876286  0.38401761  1
  Hg  Hg36  1  0.14123714  0.50000000  0.88401761  1
  Hg  Hg37  1  0.11598239  0.14123714  0.50000000  1
  Hg  Hg38  1  0.50000000  0.11598239  0.85876286  1
  Hg  Hg39  1  0.85876286  0.50000000  0.11598239  1
  Hg  Hg40  1  0.88401761  0.85876286  0.50000000  1
  Hg  Hg41  1  0.50000000  0.88401761  0.14123714  1
  Hg  Hg42  1  0.14123714  0.50000000  0.11598239  1
  Hg  Hg43  1  0.11598239  0.85876286  0.50000000  1
  Hg  Hg44  1  0.85876286  0.50000000  0.88401761  1
  Hg  Hg45  1  0.88401761  0.14123714  0.50000000  1
  Hg  Hg46  1  0.50000000  0.11598239  0.14123714  1
  Hg  Hg47  1  0.50000000  0.88401761  0.85876286  1
  Hg  Hg48  1  0.63516796  0.50000000  0.64475643  1
  Hg  Hg49  1  0.50000000  0.35524357  0.63516796  1
  Hg  Hg50  1  0.64475643  0.36483204  0.50000000  1
  Hg  Hg51  1  0.36483204  0.50000000  0.35524357  1
  Hg  Hg52  1  0.50000000  0.64475643  0.36483204  1
  Hg  Hg53  1  0.35524357  0.63516796  0.50000000  1
  Hg  Hg54  1  0.63516796  0.50000000  0.35524357  1
  Hg  Hg55  1  0.64475643  0.63516796  0.50000000  1
  Hg  Hg56  1  0.36483204  0.50000000  0.64475643  1
  Hg  Hg57  1  0.35524357  0.36483204  0.50000000  1
  Hg  Hg58  1  0.50000000  0.64475643  0.63516796  1
  Hg  Hg59  1  0.50000000  0.35524357  0.36483204  1
  Hg  Hg60  1  0.13516796  0.14475643  0.00000000  1
  Hg  Hg61  1  -0.00000000  0.13516796  0.85524357  1
  Hg  Hg62  1  0.14475643  0.00000000  0.86483204  1
  Hg  Hg63  1  0.86483204  0.85524357  0.00000000  1
  Hg  Hg64  1  -0.00000000  0.86483204  0.14475643  1
  Hg  Hg65  1  0.85524357  0.00000000  0.13516796  1
  Hg  Hg66  1  0.13516796  0.85524357  0.00000000  1
  Hg  Hg67  1  0.14475643  -0.00000000  0.13516796  1
  Hg  Hg68  1  0.86483204  0.14475643  0.00000000  1
  Hg  Hg69  1  0.85524357  -0.00000000  0.86483204  1
  Hg  Hg70  1  -0.00000000  0.13516796  0.14475643  1
  Hg  Hg71  1  -0.00000000  0.86483204  0.85524357  1
  Hg  Hg72  1  0.86329867  0.50000000  0.61592079  1
  Hg  Hg73  1  0.50000000  0.38407921  0.86329867  1
  Hg  Hg74  1  0.61592079  0.13670133  0.50000000  1
  Hg  Hg75  1  0.13670133  0.50000000  0.38407921  1
  Hg  Hg76  1  0.50000000  0.61592079  0.13670133  1
  Hg  Hg77  1  0.38407921  0.86329867  0.50000000  1
  Hg  Hg78  1  0.86329867  0.50000000  0.38407921  1
  Hg  Hg79  1  0.61592079  0.86329867  0.50000000  1
  Hg  Hg80  1  0.13670133  0.50000000  0.61592079  1
  Hg  Hg81  1  0.38407921  0.13670133  0.50000000  1
  Hg  Hg82  1  0.50000000  0.61592079  0.86329867  1
  Hg  Hg83  1  0.50000000  0.38407921  0.13670133  1
  Hg  Hg84  1  0.36329867  0.11592079  0.00000000  1
  Hg  Hg85  1  -0.00000000  0.36329867  0.88407921  1
  Hg  Hg86  1  0.11592079  -0.00000000  0.63670133  1
  Hg  Hg87  1  0.63670133  0.88407921  0.00000000  1
  Hg  Hg88  1  -0.00000000  0.63670133  0.11592079  1
  Hg  Hg89  1  0.88407921  0.00000000  0.36329867  1
  Hg  Hg90  1  0.36329867  0.88407921  0.00000000  1
  Hg  Hg91  1  0.11592079  -0.00000000  0.36329867  1
  Hg  Hg92  1  0.63670133  0.11592079  0.00000000  1
  Hg  Hg93  1  0.88407921  0.00000000  0.63670133  1
  Hg  Hg94  1  -0.00000000  0.36329867  0.11592079  1
  Hg  Hg95  1  -0.00000000  0.63670133  0.88407921  1
  S  S0  1  0.63165350  0.36834650  0.63165350  1
  S  S1  1  0.36834650  0.63165350  0.36834650  1
  S  S2  1  0.63165350  0.63165350  0.36834650  1
  S  S3  1  0.36834650  0.36834650  0.63165350  1
  S  S4  1  0.36834650  0.63165350  0.63165350  1
  S  S5  1  0.63165350  0.36834650  0.36834650  1
  S  S6  1  0.36834650  0.36834650  0.36834650  1
  S  S7  1  0.63165350  0.63165350  0.63165350  1
  S  S8  1  0.13165350  0.13165350  0.86834650  1
  S  S9  1  0.86834650  0.86834650  0.13165350  1
  S  S10  1  0.13165350  0.86834650  0.13165350  1
  S  S11  1  0.86834650  0.13165350  0.86834650  1
  S  S12  1  0.86834650  0.13165350  0.13165350  1
  S  S13  1  0.13165350  0.86834650  0.86834650  1
  S  S14  1  0.86834650  0.86834650  0.86834650  1
  S  S15  1  0.13165350  0.13165350  0.13165350  1
  S  S16  1  0.86813886  0.36872807  0.88182361  1
  S  S17  1  0.63127193  0.11817639  0.86813886  1
  S  S18  1  0.88182361  0.13186114  0.63127193  1
  S  S19  1  0.13186114  0.63127193  0.11817639  1
  S  S20  1  0.36872807  0.88182361  0.13186114  1
  S  S21  1  0.11817639  0.86813886  0.36872807  1
  S  S22  1  0.86813886  0.63127193  0.11817639  1
  S  S23  1  0.63127193  0.88182361  0.13186114  1
  S  S24  1  0.88182361  0.86813886  0.36872807  1
  S  S25  1  0.13186114  0.36872807  0.88182361  1
  S  S26  1  0.36872807  0.11817639  0.86813886  1
  S  S27  1  0.11817639  0.13186114  0.63127193  1
  S  S28  1  0.13186114  0.63127193  0.88182361  1
  S  S29  1  0.36872807  0.88182361  0.86813886  1
  S  S30  1  0.11817639  0.86813886  0.63127193  1
  S  S31  1  0.86813886  0.36872807  0.11817639  1
  S  S32  1  0.63127193  0.11817639  0.13186114  1
  S  S33  1  0.88182361  0.13186114  0.36872807  1
  S  S34  1  0.13186114  0.36872807  0.11817639  1
  S  S35  1  0.36872807  0.11817639  0.13186114  1
  S  S36  1  0.11817639  0.13186114  0.36872807  1
  S  S37  1  0.86813886  0.63127193  0.88182361  1
  S  S38  1  0.63127193  0.88182361  0.86813886  1
  S  S39  1  0.88182361  0.86813886  0.63127193  1
  S  S40  1  0.36813886  0.38182361  0.86872807  1
  S  S41  1  0.13127193  0.36813886  0.61817639  1
  S  S42  1  0.38182361  0.13127193  0.63186114  1
  S  S43  1  0.63186114  0.61817639  0.13127193  1
  S  S44  1  0.86872807  0.63186114  0.38182361  1
  S  S45  1  0.61817639  0.86872807  0.36813886  1
  S  S46  1  0.36813886  0.61817639  0.13127193  1
  S  S47  1  0.13127193  0.63186114  0.38182361  1
  S  S48  1  0.38182361  0.86872807  0.36813886  1
  S  S49  1  0.63186114  0.38182361  0.86872807  1
  S  S50  1  0.86872807  0.36813886  0.61817639  1
  S  S51  1  0.61817639  0.13127193  0.63186114  1
  S  S52  1  0.63186114  0.38182361  0.13127193  1
  S  S53  1  0.86872807  0.36813886  0.38182361  1
  S  S54  1  0.61817639  0.13127193  0.36813886  1
  S  S55  1  0.36813886  0.61817639  0.86872807  1
  S  S56  1  0.13127193  0.63186114  0.61817639  1
  S  S57  1  0.38182361  0.86872807  0.63186114  1
  S  S58  1  0.63186114  0.61817639  0.86872807  1
  S  S59  1  0.86872807  0.63186114  0.61817639  1
  S  S60  1  0.61817639  0.86872807  0.63186114  1
  S  S61  1  0.36813886  0.38182361  0.13127193  1
  S  S62  1  0.13127193  0.36813886  0.38182361  1
  S  S63  1  0.38182361  0.13127193  0.36813886  1
  Cl  Cl0  1  0.50000000  0.50000000  0.50000000  1
  Cl  Cl1  1  -0.00000000  -0.00000000  0.00000000  1
  Cl  Cl2  1  0.75000000  0.50000000  0.00000000  1
  Cl  Cl3  1  0.50000000  -0.00000000  0.75000000  1
  Cl  Cl4  1  -0.00000000  0.25000000  0.50000000  1
  Cl  Cl5  1  0.25000000  0.50000000  0.00000000  1
  Cl  Cl6  1  0.50000000  0.00000000  0.25000000  1
  Cl  Cl7  1  -0.00000000  0.75000000  0.50000000  1
  Cl  Cl8  1  -0.00000000  0.50000000  0.00000000  1
  Cl  Cl9  1  0.50000000  0.00000000  0.00000000  1
  Cl  Cl10  1  -0.00000000  -0.00000000  0.50000000  1
  Cl  Cl11  1  0.50000000  0.50000000  0.00000000  1
  Cl  Cl12  1  -0.00000000  0.50000000  0.50000000  1
  Cl  Cl13  1  0.50000000  -0.00000000  0.50000000  1
  Cl  Cl14  1  -0.00000000  0.50000000  0.75000000  1
  Cl  Cl15  1  0.50000000  0.25000000  0.00000000  1
  Cl  Cl16  1  0.75000000  0.00000000  0.50000000  1
  Cl  Cl17  1  -0.00000000  0.50000000  0.25000000  1
  Cl  Cl18  1  0.50000000  0.75000000  0.00000000  1
  Cl  Cl19  1  0.25000000  0.00000000  0.50000000  1
  Cl  Cl20  1  0.75000000  0.25000000  0.75000000  1
  Cl  Cl21  1  0.25000000  0.75000000  0.25000000  1
  Cl  Cl22  1  0.75000000  0.75000000  0.25000000  1
  Cl  Cl23  1  0.25000000  0.25000000  0.75000000  1
  Cl  Cl24  1  0.25000000  0.75000000  0.75000000  1
  Cl  Cl25  1  0.75000000  0.25000000  0.25000000  1
  Cl  Cl26  1  0.25000000  0.25000000  0.25000000  1
  Cl  Cl27  1  0.75000000  0.75000000  0.75000000  1
  Cl  Cl28  1  0.74406114  0.50000000  0.50000000  1
  Cl  Cl29  1  0.50000000  0.50000000  0.74406114  1
  Cl  Cl30  1  0.50000000  0.25593886  0.50000000  1
  Cl  Cl31  1  0.25593886  0.50000000  0.50000000  1
  Cl  Cl32  1  0.50000000  0.50000000  0.25593886  1
  Cl  Cl33  1  0.50000000  0.74406114  0.50000000  1
  Cl  Cl34  1  0.24406114  0.00000000  0.00000000  1
  Cl  Cl35  1  -0.00000000  0.24406114  0.00000000  1
  Cl  Cl36  1  -0.00000000  -0.00000000  0.75593886  1
  Cl  Cl37  1  0.75593886  -0.00000000  0.00000000  1
  Cl  Cl38  1  -0.00000000  0.75593886  0.00000000  1
  Cl  Cl39  1  -0.00000000  0.00000000  0.24406114  1
  Cl  Cl40  1  -0.00000000  0.25895069  0.75504409  1
  Cl  Cl41  1  0.74104931  0.24495591  0.00000000  1
  Cl  Cl42  1  0.75504409  -0.00000000  0.74104931  1
  Cl  Cl43  1  -0.00000000  0.74104931  0.24495591  1
  Cl  Cl44  1  0.25895069  0.75504409  0.00000000  1
  Cl  Cl45  1  0.24495591  0.00000000  0.25895069  1
  Cl  Cl46  1  0.74104931  0.75504409  0.00000000  1
  Cl  Cl47  1  0.75504409  0.00000000  0.25895069  1
  Cl  Cl48  1  0.25895069  0.24495591  0.00000000  1
  Cl  Cl49  1  0.24495591  -0.00000000  0.74104931  1
  Cl  Cl50  1  -0.00000000  0.74104931  0.75504409  1
  Cl  Cl51  1  -0.00000000  0.25895069  0.24495591  1
  Cl  Cl52  1  0.50000000  0.25504409  0.75895069  1
  Cl  Cl53  1  0.24104931  0.50000000  0.74495591  1
  Cl  Cl54  1  0.25504409  0.24104931  0.50000000  1
  Cl  Cl55  1  0.50000000  0.74495591  0.24104931  1
  Cl  Cl56  1  0.75895069  0.50000000  0.25504409  1
  Cl  Cl57  1  0.74495591  0.75895069  0.50000000  1
  Cl  Cl58  1  0.24104931  0.50000000  0.25504409  1
  Cl  Cl59  1  0.25504409  0.75895069  0.50000000  1
  Cl  Cl60  1  0.75895069  0.50000000  0.74495591  1
  Cl  Cl61  1  0.74495591  0.24104931  0.50000000  1
  Cl  Cl62  1  0.50000000  0.25504409  0.24104931  1
  Cl  Cl63  1  0.50000000  0.74495591  0.75895069  1
loop_
_geom_bond_atom_site_label_1
_geom_bond_atom_site_label_2
_geom_bond_distance
_geom_bond_site_symmetry_2
Hg0 S16 2.453990 1_555
Hg0 S50 2.453990 1_555
Hg1 S17 2.453990 1_555
Hg1 S49 2.453990 1_555
Hg2 S51 2.453990 1_555
Hg2 S18 2.453990 1_555
Hg3 S19 2.453990 1_555
Hg3 S47 2.453990 1_555
Hg4 S46 2.453990 1_555
Hg4 S20 2.453990 1_555
Hg5 S21 2.453990 1_555
Hg5 S48 2.453990 1_555
Hg6 S22 2.453990 1_555
Hg6 S44 2.453990 1_555
Hg7 S23 2.453990 1_555
Hg7 S43 2.453990 1_555
Hg8 S24 2.453990 1_555
Hg8 S45 2.453990 1_555
Hg9 S41 2.453990 1_555
Hg9 S25 2.453990 1_555
Hg10 S26 2.453990 1_555
Hg10 S40 2.453990 1_555
Hg11 S27 2.453990 1_555
Hg11 S42 2.453990 1_555
Hg12 S28 2.453990 1_555
Hg12 S56 2.453990 1_555
Hg13 S29 2.453990 1_555
Hg13 S55 2.453990 1_555
Hg14 S30 2.453990 1_555
Hg14 S57 2.453990 1_555
Hg15 S31 2.453990 1_555
Hg15 S53 2.453990 1_555
Hg16 S32 2.453990 1_555
Hg16 S52 2.453990 1_555
Hg17 S33 2.453990 1_555
Hg17 S54 2.453990 1_555
Hg18 S34 2.453990 1_555
Hg18 S62 2.453990 1_555
Hg19 S35 2.453990 1_555
Hg19 S61 2.453990 1_555
Hg20 S36 2.453990 1_555
Hg20 S63 2.453990 1_555
Hg21 S59 2.453990 1_555
Hg21 S37 2.453990 1_555
Hg22 S58 2.453990 1_555
Hg22 S38 2.453990 1_555
Hg23 S60 2.453990 1_555
Hg23 S39 2.453990 1_555
Hg24 S52 2.431891 1_555
Hg24 S49 2.431891 1_554
Hg25 S51 2.431891 1_555
Hg25 S60 2.431891 1_545
Hg26 S41 2.431891 1_555
Hg26 S50 2.431891 1_455
Hg27 S46 2.431891 1_555
Hg27 S55 2.431891 1_554
Hg28 S63 2.431891 1_555
Hg28 S48 2.431891 1_545
Hg29 S47 2.431891 1_555
Hg29 S44 2.431891 1_455
Hg30 S43 2.431891 1_555
Hg30 S58 2.431891 1_554
Hg31 S54 2.431891 1_555
Hg31 S45 2.431891 1_545
Hg32 S61 2.431891 1_555
Hg32 S40 2.431891 1_554
Hg33 S42 2.431891 1_555
Hg33 S57 2.431891 1_545
Hg34 S56 2.431891 1_555
Hg34 S59 2.431891 1_455
Hg35 S62 2.431891 1_555
Hg35 S53 2.431891 1_455
Hg36 S25 2.431891 1_555
Hg36 S28 2.431891 1_555
Hg37 S36 2.431891 1_555
Hg37 S27 2.431891 1_555
Hg38 S26 2.431891 1_555
Hg38 S17 2.431891 1_555
Hg39 S31 2.431891 1_555
Hg39 S22 2.431891 1_555
Hg40 S24 2.431891 1_555
Hg40 S39 2.431891 1_555
Hg41 S20 2.431891 1_555
Hg41 S23 2.431891 1_555
Hg42 S34 2.431891 1_555
Hg42 S19 2.431891 1_555
Hg43 S21 2.431891 1_555
Hg43 S30 2.431891 1_555
Hg44 S16 2.431891 1_555
Hg44 S37 2.431891 1_555
Hg45 S33 2.431891 1_555
Hg45 S18 2.431891 1_555
Hg46 S35 2.431891 1_555
Hg46 S32 2.431891 1_555
Hg47 S29 2.431891 1_555
Hg47 S38 2.431891 1_555
Hg48 S7 2.445304 1_555
Hg48 S0 2.445304 1_555
Hg49 S0 2.445304 1_555
Hg49 S3 2.445304 1_555
Hg50 S0 2.445304 1_555
Hg50 S5 2.445304 1_555
Hg51 S1 2.445304 1_555
Hg51 S6 2.445304 1_555
Hg52 S2 2.445304 1_555
Hg52 S1 2.445304 1_555
Hg53 S4 2.445304 1_555
Hg53 S1 2.445304 1_555
Hg54 S2 2.445304 1_555
Hg54 S5 2.445304 1_555
Hg55 S7 2.445304 1_555
Hg55 S2 2.445304 1_555
Hg56 S4 2.445304 1_555
Hg56 S3 2.445304 1_555
Hg57 S3 2.445304 1_555
Hg57 S6 2.445304 1_555
Hg58 S7 2.445304 1_555
Hg58 S4 2.445304 1_555
Hg59 S5 2.445304 1_555
Hg59 S6 2.445304 1_555
Hg60 S15 2.445304 1_555
Hg60 S8 2.445304 1_554
Hg61 S8 2.445304 1_555
Hg61 S11 2.445304 1_455
Hg62 S8 2.445304 1_555
Hg62 S13 2.445304 1_545
Hg63 S9 2.445304 1_555
Hg63 S14 2.445304 1_554
Hg64 S10 2.445304 1_555
Hg64 S9 2.445304 1_455
Hg65 S12 2.445304 1_555
Hg65 S9 2.445304 1_545
Hg66 S10 2.445304 1_555
Hg66 S13 2.445304 1_554
Hg67 S15 2.445304 1_555
Hg67 S10 2.445304 1_545
Hg68 S12 2.445304 1_555
Hg68 S11 2.445304 1_554
Hg69 S11 2.445304 1_555
Hg69 S14 2.445304 1_545
Hg70 S15 2.445304 1_555
Hg70 S12 2.445304 1_455
Hg71 S13 2.445304 1_555
Hg71 S14 2.445304 1_455
Hg72 S50 2.438681 1_555
Hg72 S59 2.438681 1_555
Hg73 S40 2.438681 1_555
Hg73 S49 2.438681 1_555
Hg74 S54 2.438681 1_555
Hg74 S51 2.438681 1_555
Hg75 S62 2.438681 1_555
Hg75 S47 2.438681 1_555
Hg76 S46 2.438681 1_555
Hg76 S43 2.438681 1_555
Hg77 S48 2.438681 1_555
Hg77 S57 2.438681 1_555
Hg78 S53 2.438681 1_555
Hg78 S44 2.438681 1_555
Hg79 S45 2.438681 1_555
Hg79 S60 2.438681 1_555
Hg80 S41 2.438681 1_555
Hg80 S56 2.438681 1_555
Hg81 S63 2.438681 1_555
Hg81 S42 2.438681 1_555
Hg82 S55 2.438681 1_555
Hg82 S58 2.438681 1_555
Hg83 S61 2.438681 1_555
Hg83 S52 2.438681 1_555
Hg84 S26 2.438681 1_554
Hg84 S35 2.438681 1_555
Hg85 S16 2.438681 1_455
Hg85 S25 2.438681 1_555
Hg86 S30 2.438681 1_545
Hg86 S27 2.438681 1_555
Hg87 S38 2.438681 1_554
Hg87 S23 2.438681 1_555
Hg88 S22 2.438681 1_455
Hg88 S19 2.438681 1_555
Hg89 S24 2.438681 1_545
Hg89 S33 2.438681 1_555
Hg90 S29 2.438681 1_554
Hg90 S20 2.438681 1_555
Hg91 S21 2.438681 1_545
Hg91 S36 2.438681 1_555
Hg92 S17 2.438681 1_554
Hg92 S32 2.438681 1_555
Hg93 S39 2.438681 1_545
Hg93 S18 2.438681 1_555
Hg94 S31 2.438681 1_455
Hg94 S34 2.438681 1_555
Hg95 S37 2.438681 1_455
Hg95 S28 2.438681 1_555
Cl2 Hg30 2.937693 1_555
Cl2 Hg24 2.937693 1_555
Cl2 Hg44 2.937693 1_554
Cl2 Hg39 2.937693 1_555
Cl3 Hg33 2.937693 1_555
Cl3 Hg25 2.937693 1_555
Cl3 Hg47 2.937693 1_545
Cl3 Hg38 2.937693 1_555
Cl4 Hg45 2.937693 1_455
Cl4 Hg37 2.937693 1_555
Cl4 Hg35 2.937693 1_555
Cl4 Hg26 2.937693 1_555
Cl5 Hg36 2.937693 1_554
Cl5 Hg27 2.937693 1_555
Cl5 Hg32 2.937693 1_555
Cl5 Hg42 2.937693 1_555
Cl6 Hg41 2.937693 1_545
Cl6 Hg28 2.937693 1_555
Cl6 Hg46 2.937693 1_555
Cl6 Hg31 2.937693 1_555
Cl7 Hg40 2.937693 1_455
Cl7 Hg34 2.937693 1_555
Cl7 Hg29 2.937693 1_555
Cl7 Hg43 2.937693 1_555
Cl20 Hg2 2.794503 1_555
Cl20 Hg1 2.794503 1_555
Cl20 Hg0 2.794503 1_555
Cl21 Hg3 2.794503 1_555
Cl21 Hg4 2.794503 1_555
Cl21 Hg5 2.794503 1_555
Cl22 Hg7 2.794503 1_555
Cl22 Hg8 2.794503 1_555
Cl22 Hg6 2.794503 1_555
Cl23 Hg9 2.794503 1_555
Cl23 Hg11 2.794503 1_555
Cl23 Hg10 2.794503 1_555
Cl24 Hg12 2.794503 1_555
Cl24 Hg14 2.794503 1_555
Cl24 Hg13 2.794503 1_555
Cl25 Hg16 2.794503 1_555
Cl25 Hg17 2.794503 1_555
Cl25 Hg15 2.794503 1_555
Cl26 Hg20 2.794503 1_555
Cl26 Hg18 2.794503 1_555
Cl26 Hg19 2.794503 1_555
Cl27 Hg21 2.794503 1_555
Cl27 Hg23 2.794503 1_555
Cl27 Hg22 2.794503 1_555
Cl28 Hg72 3.072525 1_555
Cl28 Hg78 3.072525 1_555
Cl28 Hg55 3.098886 1_555
Cl28 Hg50 3.098886 1_555
Cl29 Hg73 3.072525 1_555
Cl29 Hg82 3.072525 1_555
Cl29 Hg48 3.098886 1_555
Cl29 Hg56 3.098886 1_555
Cl30 Hg74 3.072525 1_555
Cl30 Hg81 3.072525 1_555
Cl30 Hg49 3.098886 1_555
Cl30 Hg59 3.098886 1_555
Cl31 Hg80 3.072525 1_555
Cl31 Hg75 3.072525 1_555
Cl31 Hg57 3.098886 1_555
Cl31 Hg53 3.098886 1_555
Cl32 Hg83 3.072525 1_555
Cl32 Hg76 3.072525 1_555
Cl32 Hg51 3.098886 1_555
Cl32 Hg54 3.098886 1_555
Cl33 Hg79 3.072525 1_555
Cl33 Hg77 3.072525 1_555
Cl33 Hg52 3.098886 1_555
Cl33 Hg58 3.098886 1_555
Cl34 Hg90 3.072525 1_545
Cl34 Hg84 3.072525 1_555
Cl34 Hg67 3.098886 1_555
Cl34 Hg62 3.098886 1_554
Cl35 Hg85 3.072525 1_554
Cl35 Hg94 3.072525 1_555
Cl35 Hg68 3.098886 1_455
Cl35 Hg60 3.098886 1_555
Cl36 Hg86 3.072525 1_555
Cl36 Hg93 3.072525 1_455
Cl36 Hg71 3.098886 1_545
Cl36 Hg61 3.098886 1_555
Cl37 Hg92 3.072525 1_555
Cl37 Hg87 3.072525 1_545
Cl37 Hg69 3.098886 1_554
Cl37 Hg65 3.098886 1_555
Cl38 Hg95 3.072525 1_554
Cl38 Hg88 3.072525 1_555
Cl38 Hg63 3.098886 1_455
Cl38 Hg66 3.098886 1_555
Cl39 Hg89 3.072525 1_455
Cl39 Hg91 3.072525 1_555
Cl39 Hg70 3.098886 1_555
Cl39 Hg64 3.098886 1_545
Cl40 Hg61 2.942385 1_555
Cl40 Hg85 3.066038 1_555
Cl41 Hg68 2.942385 1_555
Cl41 Hg92 3.066038 1_555
Cl42 Hg69 2.942385 1_555
Cl42 Hg93 3.066038 1_555
Cl43 Hg64 2.942385 1_555
Cl43 Hg88 3.066038 1_555
Cl44 Hg66 2.942385 1_555
Cl44 Hg90 3.066038 1_555
Cl45 Hg67 2.942385 1_555
Cl45 Hg91 3.066038 1_555
Cl46 Hg63 2.942385 1_555
Cl46 Hg87 3.066038 1_555
Cl47 Hg65 2.942385 1_555
Cl47 Hg89 3.066038 1_555
Cl48 Hg60 2.942385 1_555
Cl48 Hg84 3.066038 1_555
Cl49 Hg62 2.942385 1_555
Cl49 Hg86 3.066038 1_555
Cl50 Hg71 2.942385 1_555
Cl50 Hg95 3.066038 1_555
Cl51 Hg70 2.942385 1_555
Cl51 Hg94 3.066038 1_555
Cl52 Hg49 2.942385 1_555
Cl52 Hg73 3.066038 1_555
Cl53 Hg56 2.942385 1_555
Cl53 Hg80 3.066038 1_555
Cl54 Hg57 2.942385 1_555
Cl54 Hg81 3.066038 1_555
Cl55 Hg52 2.942385 1_555
Cl55 Hg76 3.066038 1_555
Cl56 Hg54 2.942385 1_555
Cl56 Hg78 3.066038 1_555
Cl57 Hg55 2.942385 1_555
Cl57 Hg79 3.066038 1_555
Cl58 Hg51 2.942385 1_555
Cl58 Hg75 3.066038 1_555
Cl59 Hg53 2.942385 1_555
Cl59 Hg77 3.066038 1_555
Cl60 Hg48 2.942385 1_555
Cl60 Hg72 3.066038 1_555
Cl61 Hg50 2.942385 1_555
Cl61 Hg74 3.066038 1_555
Cl62 Hg59 2.942385 1_555
Cl62 Hg83 3.066038 1_555
Cl63 Hg58 2.942385 1_555
Cl63 Hg82 3.066038 1_555
