# generated using pymatgen
data_Mg4Si3
_symmetry_space_group_name_H-M   'P 1'
_cell_length_a   6.70616900
_cell_length_b   7.07572777
_cell_length_c   7.10504266
_cell_angle_alpha   60.82069474
_cell_angle_beta   74.55796071
_cell_angle_gamma   68.09592439
_symmetry_Int_Tables_number   1
_chemical_formula_structural   Mg4Si3
_chemical_formula_sum   'Mg8 Si6'
_cell_volume   271.62215817
_cell_formula_units_Z   2
loop_
 _symmetry_equiv_pos_site_id
 _symmetry_equiv_pos_as_xyz
  1  'x, y, z'
loop_
 _atom_site_type_symbol
 _atom_site_label
 _atom_site_symmetry_multiplicity
 _atom_site_fract_x
 _atom_site_fract_y
 _atom_site_fract_z
 _atom_site_occupancy
  Mg  Mg0  1  0.10702400  0.32976700  0.27317200  1
  Mg  Mg1  1  0.78492700  0.02742100  0.61376000  1
  Mg  Mg2  1  0.45181400  0.86468900  0.55003400  1
  Mg  Mg3  1  0.80544700  0.41140900  0.67512400  1
  Mg  Mg4  1  0.47498700  0.51057100  0.33584500  1
  Mg  Mg5  1  0.46120900  0.03789100  0.01755600  1
  Mg  Mg6  1  0.77103800  0.18683900  0.15133100  1
  Mg  Mg7  1  0.11432400  0.86049300  0.95317200  1
  Si  Si0  1  0.42123400  0.48672400  0.93138000  1
  Si  Si1  1  0.13541600  0.55383200  0.73613500  1
  Si  Si2  1  0.80920000  0.74544500  0.27694700  1
  Si  Si3  1  0.24615000  0.22197200  0.65531200  1
  Si  Si4  1  0.78874700  0.64077500  0.97343900  1
  Si  Si5  1  0.12836200  0.87226000  0.35688600  1
loop_
_geom_bond_atom_site_label_1
_geom_bond_atom_site_label_2
_geom_bond_distance
_geom_bond_site_symmetry_2
Mg0 Si3 2.760955 1_555
Mg0 Si0 2.821707 1_554
Mg0 Si4 2.877516 1_454
Mg0 Si2 2.882019 1_455
Mg0 Si5 2.945488 1_545
Mg1 Si4 2.679800 1_545
Mg1 Si5 2.769394 1_645
Mg2 Si3 2.746953 1_565
Mg2 Si0 2.753775 1_555
Mg2 Si2 2.798556 1_555
Mg2 Si5 2.831617 1_555
Mg3 Si2 2.660265 1_555
Mg3 Si3 2.749148 1_655
Mg3 Si0 2.767896 1_555
Mg3 Si1 2.949685 1_655
Mg3 Si4 3.198603 1_555
Mg4 Si3 2.764176 1_555
Mg4 Si5 2.779350 1_555
Mg4 Si4 2.855571 1_554
Mg4 Si0 3.080042 1_554
Mg4 Si2 3.092236 1_555
Mg5 Si3 2.776162 1_554
Mg5 Si0 2.844068 1_554
Mg5 Si2 2.844877 1_545
Mg5 Si5 2.915373 1_545
Mg5 Si4 2.950533 1_544
Mg6 Si2 2.724628 1_545
Mg6 Si0 2.729952 1_554
Mg6 Si5 2.746613 1_645
Mg6 Si4 2.859064 1_554
Mg7 Si2 2.655514 1_456
Mg7 Si3 2.686061 1_565
Mg7 Si0 2.724483 1_555
Mg7 Si5 2.937017 1_556
Mg7 Si4 3.058058 1_455
Si0 Si1 2.432770 1_555
Si1 Si3 2.486315 1_555
Si1 Si5 2.531387 1_555
Si1 Si4 2.546165 1_455
Si2 Si4 2.647293 1_554
Si2 Si5 2.878564 1_655
