# generated using pymatgen
data_Zn3Cu3(AsO4)4
_symmetry_space_group_name_H-M   'P 1'
_cell_length_a   5.12770900
_cell_length_b   8.71199800
_cell_length_c   15.66791260
_cell_angle_alpha   68.12610079
_cell_angle_beta   90.00000000
_cell_angle_gamma   90.00000000
_symmetry_Int_Tables_number   1
_chemical_formula_structural   Zn3Cu3(AsO4)4
_chemical_formula_sum   'Zn6 Cu6 As8 O32'
_cell_volume   649.53580348
_cell_formula_units_Z   2
loop_
 _symmetry_equiv_pos_site_id
 _symmetry_equiv_pos_as_xyz
  1  'x, y, z'
loop_
 _atom_site_type_symbol
 _atom_site_label
 _atom_site_symmetry_multiplicity
 _atom_site_fract_x
 _atom_site_fract_y
 _atom_site_fract_z
 _atom_site_occupancy
  Zn  Zn0  1  0.52170100  0.27867900  0.23053400  1
  Zn  Zn1  1  0.02170100  0.72132100  0.26946600  1
  Zn  Zn2  1  0.47829900  0.72132100  0.76946600  1
  Zn  Zn3  1  0.97829900  0.27867900  0.73053400  1
  Zn  Zn4  1  0.50000000  0.00000000  0.50000000  1
  Zn  Zn5  1  0.00000000  0.00000000  0.00000000  1
  Cu  Cu0  1  0.49503600  0.21244200  0.62073400  1
  Cu  Cu1  1  0.50496400  0.78755800  0.37926600  1
  Cu  Cu2  1  0.99503600  0.78755800  0.87926600  1
  Cu  Cu3  1  0.00496400  0.21244200  0.12073400  1
  Cu  Cu4  1  0.00000000  0.50000000  0.50000000  1
  Cu  Cu5  1  0.50000000  0.50000000  0.00000000  1
  As  As0  1  0.99229600  0.04096600  0.34870100  1
  As  As1  1  0.50564900  0.41892900  0.39977600  1
  As  As2  1  0.00564900  0.58107100  0.10022400  1
  As  As3  1  0.99435100  0.41892900  0.89977600  1
  As  As4  1  0.00770400  0.95903400  0.65129900  1
  As  As5  1  0.49435100  0.58107100  0.60022400  1
  As  As6  1  0.50770400  0.04096600  0.84870100  1
  As  As7  1  0.49229600  0.95903400  0.15129900  1
  O  O0  1  0.39999000  0.80542500  0.25713800  1
  O  O1  1  0.93412700  0.75993300  0.00645100  1
  O  O2  1  0.40342100  0.40776700  0.30004600  1
  O  O3  1  0.39127000  0.15009600  0.15355600  1
  O  O4  1  0.59657900  0.59223300  0.69995400  1
  O  O5  1  0.10001000  0.80542500  0.75713800  1
  O  O6  1  0.90342100  0.59223300  0.19995400  1
  O  O7  1  0.67850400  0.49443800  0.89308700  1
  O  O8  1  0.67444000  0.09454700  0.92619500  1
  O  O9  1  0.60001000  0.19457500  0.74286200  1
  O  O10  1  0.10873000  0.15009600  0.65355600  1
  O  O11  1  0.32149600  0.50556200  0.10691300  1
  O  O12  1  0.30785800  0.57049700  0.41986200  1
  O  O13  1  0.32556000  0.90545300  0.07380500  1
  O  O14  1  0.67258600  0.96073600  0.64023000  1
  O  O15  1  0.17258600  0.03926400  0.85977000  1
  O  O16  1  0.80785800  0.42950300  0.08013800  1
  O  O17  1  0.09657900  0.40776700  0.80004600  1
  O  O18  1  0.17444000  0.90545300  0.57380500  1
  O  O19  1  0.17850400  0.50556200  0.60691300  1
  O  O20  1  0.82741400  0.96073600  0.14023000  1
  O  O21  1  0.32741400  0.03926400  0.35977000  1
  O  O22  1  0.06587300  0.24006700  0.99354900  1
  O  O23  1  0.43412700  0.24006700  0.49354900  1
  O  O24  1  0.69214200  0.42950300  0.58013800  1
  O  O25  1  0.89999000  0.19457500  0.24286200  1
  O  O26  1  0.60873000  0.84990400  0.84644400  1
  O  O27  1  0.82556000  0.09454700  0.42619500  1
  O  O28  1  0.56587300  0.75993300  0.50645100  1
  O  O29  1  0.82149600  0.49443800  0.39308700  1
  O  O30  1  0.19214200  0.57049700  0.91986200  1
  O  O31  1  0.89127000  0.84990400  0.34644400  1
loop_
_geom_bond_atom_site_label_1
_geom_bond_atom_site_label_2
_geom_bond_distance
_geom_bond_site_symmetry_2
Cu0 O9 1.937390 1_555
Cu0 O23 1.941407 1_555
Cu0 O24 2.026291 1_555
Cu0 O10 2.067649 1_555
Cu0 O14 2.287293 1_545
Cu1 O0 1.937390 1_555
Cu1 O28 1.941407 1_555
Cu1 O12 2.026291 1_555
Cu1 O31 2.067649 1_555
Cu1 O21 2.287293 1_565
Cu2 O5 1.937390 1_655
Cu2 O1 1.941407 1_556
Cu2 O30 2.026291 1_655
Cu2 O26 2.067649 1_555
Cu2 O15 2.287293 1_665
Cu3 O25 1.937390 1_455
Cu3 O22 1.941407 1_554
Cu3 O16 2.026291 1_455
Cu3 O3 2.067649 1_555
Cu3 O20 2.287293 1_445
Cu4 O29 1.925255 1_455
Cu4 O19 1.925255 1_555
Cu4 O12 1.967515 1_555
Cu4 O24 1.967515 1_455
Cu5 O11 1.925255 1_555
Cu5 O7 1.925255 1_554
Cu5 O16 1.967515 1_555
Cu5 O30 1.967515 1_554
As0 O27 1.686833 1_555
As0 O21 1.726626 1_655
As0 O31 1.756170 1_545
As0 O25 1.763867 1_555
As1 O2 1.684950 1_555
As1 O23 1.736475 1_555
As1 O29 1.736482 1_555
As1 O12 1.783516 1_555
As2 O6 1.684950 1_455
As2 O1 1.736475 1_455
As2 O11 1.736482 1_555
As2 O16 1.783516 1_455
As3 O17 1.684950 1_655
As3 O22 1.736475 1_655
As3 O7 1.736482 1_555
As3 O30 1.783516 1_655
As4 O18 1.686833 1_555
As4 O14 1.726626 1_455
As4 O10 1.756170 1_565
As4 O5 1.763867 1_555
As5 O4 1.684950 1_555
As5 O28 1.736475 1_555
As5 O19 1.736482 1_555
As5 O24 1.783516 1_555
As6 O8 1.686833 1_555
As6 O15 1.726626 1_555
As6 O26 1.756170 1_545
As6 O9 1.763867 1_555
As7 O13 1.686833 1_555
As7 O20 1.726626 1_555
As7 O3 1.756170 1_565
As7 O0 1.763867 1_555
O0 Zn1 2.057031 1_555
O1 Zn5 2.083510 1_665
O2 Zn0 1.931688 1_555
O3 Zn0 2.040480 1_555
O4 Zn2 1.931688 1_555
O5 Zn2 2.057031 1_555
O6 Zn1 1.931688 1_655
O7 Zn2 2.420677 1_555
O8 Zn5 2.023055 1_656
O9 Zn3 2.057031 1_555
O10 Zn3 2.040480 1_455
O11 Zn0 2.420677 1_555
O13 Zn5 2.023055 1_565
O14 Zn4 2.273207 1_565
O14 Zn2 2.509194 1_555
O15 Zn5 2.273207 1_556
O15 Zn3 2.509194 1_455
O17 Zn3 1.931688 1_455
O18 Zn4 2.023055 1_565
O19 Zn3 2.420677 1_455
O20 Zn5 2.273207 1_665
O20 Zn1 2.509194 1_655
O21 Zn4 2.273207 1_555
O21 Zn0 2.509194 1_555
O22 Zn5 2.083510 1_556
O23 Zn4 2.083510 1_555
O25 Zn0 2.057031 1_555
O26 Zn2 2.040480 1_555
O27 Zn4 2.023055 1_555
O28 Zn4 2.083510 1_565
O29 Zn1 2.420677 1_655
O31 Zn1 2.040480 1_655
