# generated using pymatgen
data_B2O3
_symmetry_space_group_name_H-M   'P 1'
_cell_length_a   11.09176306
_cell_length_b   11.79815528
_cell_length_c   10.89186317
_cell_angle_alpha   89.33212846
_cell_angle_beta   91.04670944
_cell_angle_gamma   92.12954424
_symmetry_Int_Tables_number   1
_chemical_formula_structural   B2O3
_chemical_formula_sum   'B40 O60'
_cell_volume   1424.02671762
_cell_formula_units_Z   20
loop_
 _symmetry_equiv_pos_site_id
 _symmetry_equiv_pos_as_xyz
  1  'x, y, z'
loop_
 _atom_site_type_symbol
 _atom_site_label
 _atom_site_symmetry_multiplicity
 _atom_site_fract_x
 _atom_site_fract_y
 _atom_site_fract_z
 _atom_site_occupancy
  B  B0  1  0.76897215  0.49752128  0.86692737  1
  B  B1  1  0.34833594  0.76694840  0.01281393  1
  B  B2  1  0.86122797  0.34611002  0.01241197  1
  B  B3  1  0.86336044  0.30790927  0.52259130  1
  B  B4  1  0.35847552  0.16656491  0.89258620  1
  B  B5  1  0.67578189  0.81359698  0.49109980  1
  B  B6  1  0.61241045  0.61140617  0.54571139  1
  B  B7  1  0.82413263  0.84199353  0.32078587  1
  B  B8  1  0.04103029  0.46841783  0.03865400  1
  B  B9  1  0.39646717  0.52103888  0.28753218  1
  B  B10  1  0.41009984  0.11507674  0.05449000  1
  B  B11  1  0.82373144  0.16650486  0.14120016  1
  B  B12  1  0.92996476  0.95317878  0.77389970  1
  B  B13  1  0.47775822  0.03503497  0.27102975  1
  B  B14  1  0.78688263  0.62960954  0.26384188  1
  B  B15  1  0.85959782  0.02906678  0.21432534  1
  B  B16  1  0.61267918  0.68211958  0.12988932  1
  B  B17  1  0.45751407  0.79412478  0.80493121  1
  B  B18  1  0.50831177  0.33111828  0.98926562  1
  B  B19  1  0.72732301  0.01927718  0.84831779  1
  B  B20  1  0.80130747  0.56751600  0.66475413  1
  B  B21  1  0.52495597  0.36569641  0.75801816  1
  B  B22  1  0.41875972  0.50833898  0.60162999  1
  B  B23  1  0.65515420  0.24967500  0.61579208  1
  B  B24  1  0.52146921  0.09832466  0.48897446  1
  B  B25  1  0.11513869  0.05662180  0.42160329  1
  B  B26  1  0.04602914  0.31289871  0.90344019  1
  B  B27  1  0.14498824  0.66757855  0.02812211  1
  B  B28  1  0.78080111  0.42528755  0.33348610  1
  B  B29  1  0.19035335  0.55389291  0.57770724  1
  B  B30  1  0.57954505  0.41122708  0.21011777  1
  B  B31  1  0.51705403  0.91508312  0.62007751  1
  B  B32  1  0.02301574  0.77311342  0.86683507  1
  B  B33  1  0.20000262  0.23822957  0.75201003  1
  B  B34  1  0.60295157  0.65711224  0.89765099  1
  B  B35  1  0.03539926  0.90926911  0.57989069  1
  B  B36  1  0.19166749  0.12441841  0.21949887  1
  B  B37  1  0.98290483  0.70190093  0.65235782  1
  B  B38  1  0.48078541  0.83630333  0.19559223  1
  B  B39  1  0.08067154  0.23690862  0.55366654  1
  O  O0  1  0.93779918  0.12034970  0.17952945  1
  O  O1  1  0.81990645  0.53695097  0.33143011  1
  O  O2  1  0.16493110  0.04832305  0.30404846  1
  O  O3  1  0.69304643  0.59026080  0.87012389  1
  O  O4  1  0.48854575  0.58728379  0.54120013  1
  O  O5  1  0.39735259  0.83682473  0.10378085  1
  O  O6  1  0.75351071  0.87503468  0.41647577  1
  O  O7  1  0.99048813  0.98010326  0.66786474  1
  O  O8  1  0.37092103  0.79022966  0.89210475  1
  O  O9  1  0.31935732  0.21308185  0.78916091  1
  O  O10  1  0.83705882  0.49853996  0.76070551  1
  O  O11  1  0.65430609  0.70008794  0.47441752  1
  O  O12  1  0.59848355  0.28469642  0.72034051  1
  O  O13  1  0.18196914  0.25379331  0.62893211  1
  O  O14  1  0.54978717  0.71812033  0.80264577  1
  O  O15  1  0.62431764  0.01972266  0.88771806  1
  O  O16  1  0.95662167  0.87177280  0.85685121  1
  O  O17  1  0.77021086  0.41974402  0.95583258  1
  O  O18  1  0.09633952  0.95663383  0.48112162  1
  O  O19  1  0.79219257  0.25964770  0.08469597  1
  O  O20  1  0.88895345  0.92653769  0.25907865  1
  O  O21  1  0.23685464  0.18808170  0.14073300  1
  O  O22  1  0.50465660  0.48215535  0.27411444  1
  O  O23  1  0.51519358  0.38916123  0.88232854  1
  O  O24  1  0.08315144  0.57500611  0.07157755  1
  O  O25  1  0.02280134  0.69557242  0.77549583  1
  O  O26  1  0.68651563  0.54301950  0.61219952  1
  O  O27  1  0.29396903  0.50841003  0.57870440  1
  O  O28  1  0.59622994  0.18432683  0.53009976  1
  O  O29  1  0.56129219  0.67624692  0.01465379  1
  O  O30  1  0.53729402  0.36743018  0.10168383  1
  O  O31  1  0.33785580  0.06824677  0.95941235  1
  O  O32  1  0.74670006  0.07246175  0.18267128  1
  O  O33  1  0.26740032  0.68186589  0.04607880  1
  O  O34  1  0.62218931  0.86757298  0.58577452  1
  O  O35  1  0.44739316  0.22033763  0.98009729  1
  O  O36  1  0.10292609  0.41152307  0.94802952  1
  O  O37  1  0.68357320  0.38278329  0.26575513  1
  O  O38  1  0.08819599  0.59146170  0.58484008  1
  O  O39  1  0.45620789  0.42737436  0.67901009  1
  O  O40  1  0.84186203  0.35287272  0.40924046  1
  O  O41  1  0.44438578  0.87191495  0.71112030  1
  O  O42  1  0.47965439  0.01246085  0.56347616  1
  O  O43  1  0.11534620  0.23946356  0.83768793  1
  O  O44  1  0.48702163  0.92102567  0.28319151  1
  O  O45  1  0.83952237  0.73323932  0.28773444  1
  O  O46  1  0.29854654  0.55988719  0.30964758  1
  O  O47  1  0.83283663  0.02177825  0.79690050  1
  O  O48  1  0.77401706  0.27880687  0.60336853  1
  O  O49  1  0.70585113  0.61640863  0.16571985  1
  O  O50  1  0.46254570  0.08549812  0.15651508  1
  O  O51  1  0.94046658  0.42071304  0.08996713  1
  O  O52  1  0.56630714  0.75519115  0.21291693  1
  O  O53  1  0.08397567  0.75718900  0.97440781  1
  O  O54  1  0.48504435  0.10744108  0.36733841  1
  O  O55  1  0.92989298  0.28425300  0.92226596  1
  O  O56  1  0.09012870  0.16172385  0.45935116  1
  O  O57  1  0.97998601  0.29589037  0.56613703  1
  O  O58  1  0.86961906  0.65482234  0.61799038  1
  O  O59  1  0.01906588  0.79585400  0.58058246  1
loop_
_geom_bond_atom_site_label_1
_geom_bond_atom_site_label_2
_geom_bond_distance
_geom_bond_site_symmetry_2
B0 O17 1.326520 1_555
B0 O10 1.392817 1_555
B0 O3 1.406429 1_555
B1 O8 1.365747 1_554
B1 O33 1.371588 1_555
B1 O5 1.386715 1_555
B2 O55 1.470389 1_554
B2 O17 1.477711 1_554
B2 O19 1.480552 1_555
B2 O51 1.481027 1_555
B3 O40 1.358637 1_555
B3 O48 1.368767 1_555
B3 O57 1.381329 1_555
B4 O9 1.320558 1_555
B4 O31 1.376339 1_555
B4 O35 1.488941 1_555
B5 O11 1.365134 1_555
B5 O34 1.374070 1_555
B5 O6 1.376507 1_555
B6 O26 1.365633 1_555
B6 O11 1.368117 1_555
B6 O4 1.392750 1_555
B7 O45 1.354388 1_555
B7 O20 1.382867 1_555
B7 O6 1.383407 1_555
B8 O51 1.357243 1_455
B8 O24 1.374414 1_555
B8 O36 1.403805 1_554
B9 O46 1.223464 1_555
B9 O22 1.311764 1_555
B10 O50 1.295171 1_555
B10 O31 1.403530 1_554
B10 O35 1.523331 1_554
B11 O19 1.309078 1_555
B11 O32 1.448132 1_555
B11 O0 1.448511 1_555
B12 O16 1.348068 1_555
B12 O7 1.374528 1_555
B12 O47 1.399219 1_565
B13 O44 1.357577 1_545
B13 O54 1.359894 1_555
B13 O50 1.386040 1_555
B14 O45 1.360987 1_555
B14 O1 1.368334 1_555
B14 O49 1.390193 1_555
B15 O20 1.347818 1_545
B15 O32 1.406002 1_555
B15 O0 1.410297 1_555
B16 O49 1.363488 1_555
B16 O29 1.370392 1_555
B16 O52 1.376123 1_555
B17 O8 1.362039 1_555
B17 O41 1.374840 1_555
B17 O14 1.386313 1_555
B18 O30 1.331823 1_556
B18 O23 1.346170 1_555
B18 O35 1.452497 1_555
B19 O15 1.227980 1_555
B19 O47 1.305824 1_555
B20 O58 1.355880 1_555
B20 O10 1.378669 1_555
B20 O26 1.407914 1_555
B21 O12 1.351331 1_555
B21 O39 1.361688 1_555
B21 O23 1.392095 1_555
B22 O39 1.339128 1_555
B22 O4 1.360377 1_555
B22 O27 1.402025 1_555
B23 O48 1.358813 1_555
B23 O28 1.360059 1_555
B23 O12 1.385264 1_555
B24 O28 1.360994 1_555
B24 O42 1.363631 1_555
B24 O54 1.382157 1_555
B25 O18 1.350624 1_545
B25 O56 1.351013 1_555
B25 O2 1.409533 1_555
B26 O55 1.338390 1_455
B26 O36 1.391212 1_555
B26 O43 1.392392 1_555
B27 O24 1.353313 1_555
B27 O33 1.372680 1_555
B27 O53 1.393662 1_554
B28 O40 1.369520 1_555
B28 O1 1.371656 1_555
B28 O37 1.377707 1_555
B29 O38 1.236031 1_555
B29 O27 1.286142 1_555
B30 O37 1.345258 1_555
B30 O30 1.362904 1_555
B30 O22 1.400901 1_555
B31 O41 1.370875 1_555
B31 O42 1.371725 1_565
B31 O34 1.372240 1_555
B32 O53 1.356706 1_555
B32 O25 1.359281 1_555
B32 O16 1.402452 1_455
B33 O43 1.336453 1_555
B33 O13 1.363081 1_555
B33 O9 1.418159 1_555
B34 O3 1.336277 1_555
B34 O29 1.387261 1_556
B34 O14 1.388698 1_555
B35 O59 1.343562 1_555
B35 O18 1.382369 1_555
B35 O7 1.389877 1_455
B36 O21 1.234539 1_555
B36 O2 1.308793 1_555
B37 O59 1.399628 1_655
B37 O58 1.401184 1_555
B37 O25 1.406649 1_655
B37 O38 1.941461 1_655
B38 O5 1.350147 1_555
B38 O52 1.381281 1_555
B38 O44 1.388865 1_555
B39 O57 1.347364 1_455
B39 O56 1.373035 1_555
B39 O13 1.388400 1_555
