# generated using pymatgen
data_Rb4Na2Mn2H12C10N11O6
_symmetry_space_group_name_H-M   'P 1'
_cell_length_a   9.45131600
_cell_length_b   12.59489734
_cell_length_c   12.59489734
_cell_angle_alpha   92.08405284
_cell_angle_beta   90.00000000
_cell_angle_gamma   90.00000000
_symmetry_Int_Tables_number   1
_chemical_formula_structural   Rb4Na2Mn2H12C10N11O6
_chemical_formula_sum   'Rb8 Na4 Mn4 H24 C20 N22 O12'
_cell_volume   1498.28416882
_cell_formula_units_Z   2
loop_
 _symmetry_equiv_pos_site_id
 _symmetry_equiv_pos_as_xyz
  1  'x, y, z'
loop_
 _atom_site_type_symbol
 _atom_site_label
 _atom_site_symmetry_multiplicity
 _atom_site_fract_x
 _atom_site_fract_y
 _atom_site_fract_z
 _atom_site_occupancy
  Rb  Rb0  1  0.72442000  0.30480800  0.30480800  1
  Rb  Rb1  1  0.27558000  0.69519200  0.69519200  1
  Rb  Rb2  1  0.22442000  0.19519200  0.19519200  1
  Rb  Rb3  1  0.77558000  0.80480800  0.80480800  1
  Rb  Rb4  1  0.50000000  0.27143400  0.72856600  1
  Rb  Rb5  1  0.00000000  0.77143400  0.22856600  1
  Rb  Rb6  1  0.50000000  0.72856600  0.27143400  1
  Rb  Rb7  1  0.00000000  0.22856600  0.77143400  1
  Na  Na0  1  0.50000000  0.00000000  0.50000000  1
  Na  Na1  1  0.50000000  0.50000000  0.00000000  1
  Na  Na2  1  0.00000000  0.00000000  0.50000000  1
  Na  Na3  1  0.00000000  0.50000000  0.00000000  1
  Mn  Mn0  1  0.67297900  0.55165100  0.55165100  1
  Mn  Mn1  1  0.32702100  0.44834900  0.44834900  1
  Mn  Mn2  1  0.17297900  0.94834900  0.94834900  1
  Mn  Mn3  1  0.82702100  0.05165100  0.05165100  1
  H  H0  1  0.74067300  0.05952200  0.64353100  1
  H  H1  1  0.25932700  0.35646900  0.94047800  1
  H  H2  1  0.24067300  0.85646900  0.44047800  1
  H  H3  1  0.75932700  0.55952200  0.14353100  1
  H  H4  1  0.25932700  0.94047800  0.35646900  1
  H  H5  1  0.74067300  0.64353100  0.05952200  1
  H  H6  1  0.75932700  0.14353100  0.55952200  1
  H  H7  1  0.24067300  0.44047800  0.85646900  1
  H  H8  1  0.69601900  0.97631900  0.32011600  1
  H  H9  1  0.30398100  0.67988400  0.02368100  1
  H  H10  1  0.19601900  0.17988400  0.52368100  1
  H  H11  1  0.80398100  0.47631900  0.82011600  1
  H  H12  1  0.30398100  0.02368100  0.67988400  1
  H  H13  1  0.69601900  0.32011600  0.97631900  1
  H  H14  1  0.80398100  0.82011600  0.47631900  1
  H  H15  1  0.19601900  0.52368100  0.17988400  1
  H  H16  1  0.55045600  0.98945400  0.26692700  1
  H  H17  1  0.44954400  0.73307300  0.01054600  1
  H  H18  1  0.05045600  0.23307300  0.51054600  1
  H  H19  1  0.94954400  0.48945400  0.76692700  1
  H  H20  1  0.44954400  0.01054600  0.73307300  1
  H  H21  1  0.55045600  0.26692700  0.98945400  1
  H  H22  1  0.94954400  0.76692700  0.48945400  1
  H  H23  1  0.05045600  0.51054600  0.23307300  1
  C  C0  1  0.87170700  0.61427600  0.61427600  1
  C  C1  1  0.12829300  0.38572400  0.38572400  1
  C  C2  1  0.37170700  0.88572400  0.88572400  1
  C  C3  1  0.62829300  0.11427600  0.11427600  1
  C  C4  1  0.74959900  0.38113700  0.56538500  1
  C  C5  1  0.25040100  0.43461500  0.61886300  1
  C  C6  1  0.24959900  0.93461500  0.11886300  1
  C  C7  1  0.75040100  0.88113700  0.06538500  1
  C  C8  1  0.25040100  0.61886300  0.43461500  1
  C  C9  1  0.74959900  0.56538500  0.38113700  1
  C  C10  1  0.75040100  0.06538500  0.88113700  1
  C  C11  1  0.24959900  0.11886300  0.93461500  1
  C  C12  1  0.59650900  0.72414600  0.54595800  1
  C  C13  1  0.40349100  0.45404200  0.27585400  1
  C  C14  1  0.09650900  0.95404200  0.77585400  1
  C  C15  1  0.90349100  0.22414600  0.04595800  1
  C  C16  1  0.40349100  0.27585400  0.45404200  1
  C  C17  1  0.59650900  0.54595800  0.72414600  1
  C  C18  1  0.90349100  0.04595800  0.22414600  1
  C  C19  1  0.09650900  0.77585400  0.95404200  1
  N  N0  1  0.50000000  0.50000000  0.50000000  1
  N  N1  1  0.00000000  0.00000000  0.00000000  1
  N  N2  1  0.97028400  0.65541500  0.65541500  1
  N  N3  1  0.02971600  0.34458500  0.34458500  1
  N  N4  1  0.47028400  0.84458500  0.84458500  1
  N  N5  1  0.52971600  0.15541500  0.15541500  1
  N  N6  1  0.77932800  0.29145700  0.57639300  1
  N  N7  1  0.22067200  0.42360700  0.70854300  1
  N  N8  1  0.27932800  0.92360700  0.20854300  1
  N  N9  1  0.72067200  0.79145700  0.07639300  1
  N  N10  1  0.22067200  0.70854300  0.42360700  1
  N  N11  1  0.77932800  0.57639300  0.29145700  1
  N  N12  1  0.72067200  0.07639300  0.79145700  1
  N  N13  1  0.27932800  0.20854300  0.92360700  1
  N  N14  1  0.57173900  0.81549600  0.54063500  1
  N  N15  1  0.42826100  0.45936500  0.18450400  1
  N  N16  1  0.07173900  0.95936500  0.68450400  1
  N  N17  1  0.92826100  0.31549600  0.04063500  1
  N  N18  1  0.42826100  0.18450400  0.45936500  1
  N  N19  1  0.57173900  0.54063500  0.81549600  1
  N  N20  1  0.92826100  0.04063500  0.31549600  1
  N  N21  1  0.07173900  0.68450400  0.95936500  1
  O  O0  1  0.75000000  0.06553900  0.56553900  1
  O  O1  1  0.25000000  0.43446100  0.93446100  1
  O  O2  1  0.25000000  0.93446100  0.43446100  1
  O  O3  1  0.75000000  0.56553900  0.06553900  1
  O  O4  1  0.59715900  0.95341900  0.32482300  1
  O  O5  1  0.40284100  0.67517700  0.04658100  1
  O  O6  1  0.09715900  0.17517700  0.54658100  1
  O  O7  1  0.90284100  0.45341900  0.82482300  1
  O  O8  1  0.40284100  0.04658100  0.67517700  1
  O  O9  1  0.59715900  0.32482300  0.95341900  1
  O  O10  1  0.90284100  0.82482300  0.45341900  1
  O  O11  1  0.09715900  0.54658100  0.17517700  1
loop_
_geom_bond_atom_site_label_1
_geom_bond_atom_site_label_2
_geom_bond_distance
_geom_bond_site_symmetry_2
Na0 O4 2.441559 1_545
Na0 O8 2.441559 1_555
Na0 O2 2.626054 1_545
Na0 O0 2.626054 1_555
Na1 O9 2.441559 1_554
Na1 O5 2.441559 1_555
Na1 O1 2.626054 1_554
Na1 O3 2.626054 1_555
Na2 O6 2.441559 1_555
Na2 O10 2.441559 1_445
Na2 O0 2.626054 1_455
Na2 O2 2.626054 1_545
Na3 O7 2.441559 1_454
Na3 O11 2.441559 1_555
Na3 O3 2.626054 1_455
Na3 O1 2.626054 1_554
Mn0 N0 1.867740 1_555
Mn1 N0 1.867740 1_555
Mn2 N1 1.867740 1_566
Mn3 N1 1.867740 1_655
H0 O0 0.991889 1_555
H1 O1 0.991889 1_555
H2 O2 0.991889 1_555
H3 O3 0.991889 1_555
H4 O2 0.991889 1_555
H5 O3 0.991889 1_555
H6 O0 0.991889 1_555
H7 O1 0.991889 1_555
H8 O4 0.980290 1_555
H9 O5 0.980290 1_555
H10 O6 0.980290 1_555
H11 O7 0.980290 1_555
H12 O8 0.980290 1_555
H13 O9 0.980290 1_555
H14 O10 0.980290 1_555
H15 O11 0.980290 1_555
H16 O4 0.978069 1_555
H17 O5 0.978069 1_555
H18 O6 0.978069 1_555
H19 O7 0.978069 1_555
H20 O8 0.978069 1_555
H21 O9 0.978069 1_555
H22 O10 0.978069 1_555
H23 O11 0.978069 1_555
C0 N2 1.177050 1_555
C0 Mn0 2.174123 1_555
C1 N3 1.177050 1_555
C1 Mn1 2.174123 1_555
C2 N4 1.177050 1_555
C2 Mn2 2.174123 1_555
C3 N5 1.177050 1_555
C3 Mn3 2.174123 1_555
C4 N6 1.177011 1_555
C4 Mn0 2.278939 1_555
C5 N7 1.177011 1_555
C5 Mn1 2.278939 1_555
C6 N8 1.177011 1_555
C6 Mn2 2.278939 1_554
C7 N9 1.177011 1_555
C7 Mn3 2.278939 1_565
C8 N10 1.177011 1_555
C8 Mn1 2.278939 1_555
C9 N11 1.177011 1_555
C9 Mn0 2.278939 1_555
C10 N12 1.177011 1_555
C10 Mn3 2.278939 1_556
C11 N13 1.177011 1_555
C11 Mn2 2.278939 1_545
C12 N14 1.178416 1_555
C12 Mn0 2.293214 1_555
C13 N15 1.178416 1_555
C13 Mn1 2.293214 1_555
C14 N16 1.178416 1_555
C14 Mn2 2.293214 1_555
C15 N17 1.178416 1_555
C15 Mn3 2.293214 1_555
C16 N18 1.178416 1_555
C16 Mn1 2.293214 1_555
C17 N19 1.178416 1_555
C17 Mn0 2.293214 1_555
C18 N20 1.178416 1_555
C18 Mn3 2.293214 1_555
C19 N21 1.178416 1_555
C19 Mn2 2.293214 1_555
N2 Rb1 2.968087 1_655
N2 Rb3 3.195251 1_555
N3 Rb0 2.968087 1_455
N3 Rb2 3.195251 1_555
N4 Rb3 2.968087 1_555
N4 Rb1 3.195251 1_555
N5 Rb2 2.968087 1_555
N5 Rb0 3.195251 1_555
N6 Rb4 3.277470 1_555
N6 Rb7 3.339663 1_655
N7 Rb4 3.277470 1_555
N7 Rb7 3.339663 1_555
N8 Rb5 3.277470 1_555
N8 Rb6 3.339663 1_555
N9 Rb5 3.277470 1_655
N9 Rb6 3.339663 1_555
N10 Rb6 3.277470 1_555
N10 Rb5 3.339663 1_555
N11 Rb6 3.277470 1_555
N11 Rb5 3.339663 1_655
N12 Rb7 3.277470 1_655
N12 Rb4 3.339663 1_555
N13 Rb7 3.277470 1_555
N13 Rb4 3.339663 1_555
N14 Na0 2.491635 1_565
N15 Na1 2.491635 1_555
N16 Na2 2.491635 1_565
N17 Na3 2.491635 1_655
N18 Na0 2.491635 1_555
N19 Na1 2.491635 1_556
N20 Na2 2.491635 1_655
N21 Na3 2.491635 1_556
O4 Rb6 3.029377 1_555
O5 Rb6 3.029377 1_555
O6 Rb7 3.029377 1_555
O7 Rb7 3.029377 1_655
O8 Rb4 3.029377 1_555
O9 Rb4 3.029377 1_555
O10 Rb5 3.029377 1_655
O11 Rb5 3.029377 1_555
