# generated using pymatgen
data_ZrHg4(PCl3)2
_symmetry_space_group_name_H-M   'P 1'
_cell_length_a   13.31685200
_cell_length_b   13.61771200
_cell_length_c   16.53000400
_cell_angle_alpha   90.00000000
_cell_angle_beta   90.00000000
_cell_angle_gamma   90.00000000
_symmetry_Int_Tables_number   1
_chemical_formula_structural   ZrHg4(PCl3)2
_chemical_formula_sum   'Zr8 Hg32 P16 Cl48'
_cell_volume   2997.63448920
_cell_formula_units_Z   8
loop_
 _symmetry_equiv_pos_site_id
 _symmetry_equiv_pos_as_xyz
  1  'x, y, z'
loop_
 _atom_site_type_symbol
 _atom_site_label
 _atom_site_symmetry_multiplicity
 _atom_site_fract_x
 _atom_site_fract_y
 _atom_site_fract_z
 _atom_site_occupancy
  Zr  Zr0  1  0.30183300  0.01046200  0.88689600  1
  Zr  Zr1  1  0.80183300  0.48953800  0.11310400  1
  Zr  Zr2  1  0.69816700  0.51046200  0.61310400  1
  Zr  Zr3  1  0.19816700  0.98953800  0.38689600  1
  Zr  Zr4  1  0.69816700  0.98953800  0.11310400  1
  Zr  Zr5  1  0.19816700  0.51046200  0.88689600  1
  Zr  Zr6  1  0.30183300  0.48953800  0.38689600  1
  Zr  Zr7  1  0.80183300  0.01046200  0.61310400  1
  Hg  Hg0  1  0.73067100  0.23747000  0.87216400  1
  Hg  Hg1  1  0.23067100  0.26253000  0.12783600  1
  Hg  Hg2  1  0.26932900  0.73747000  0.62783600  1
  Hg  Hg3  1  0.76932900  0.76253000  0.37216400  1
  Hg  Hg4  1  0.26932900  0.76253000  0.12783600  1
  Hg  Hg5  1  0.76932900  0.73747000  0.87216400  1
  Hg  Hg6  1  0.73067100  0.26253000  0.37216400  1
  Hg  Hg7  1  0.23067100  0.23747000  0.62783600  1
  Hg  Hg8  1  0.47894200  0.29365100  0.99529900  1
  Hg  Hg9  1  0.97894200  0.20634900  0.00470100  1
  Hg  Hg10  1  0.52105800  0.79365100  0.50470100  1
  Hg  Hg11  1  0.02105800  0.70634900  0.49529900  1
  Hg  Hg12  1  0.52105800  0.70634900  0.00470100  1
  Hg  Hg13  1  0.02105800  0.79365100  0.99529900  1
  Hg  Hg14  1  0.47894200  0.20634900  0.49529900  1
  Hg  Hg15  1  0.97894200  0.29365100  0.50470100  1
  Hg  Hg16  1  0.47968100  0.24584800  0.74595300  1
  Hg  Hg17  1  0.97968100  0.25415200  0.25404700  1
  Hg  Hg18  1  0.52031900  0.74584800  0.75404700  1
  Hg  Hg19  1  0.02031900  0.75415200  0.24595300  1
  Hg  Hg20  1  0.52031900  0.75415200  0.25404700  1
  Hg  Hg21  1  0.02031900  0.74584800  0.74595300  1
  Hg  Hg22  1  0.47968100  0.25415200  0.24595300  1
  Hg  Hg23  1  0.97968100  0.24584800  0.75404700  1
  Hg  Hg24  1  0.58947100  0.49217700  0.85510400  1
  Hg  Hg25  1  0.08947100  0.00782300  0.14489600  1
  Hg  Hg26  1  0.41052900  0.99217700  0.64489600  1
  Hg  Hg27  1  0.91052900  0.50782300  0.35510400  1
  Hg  Hg28  1  0.41052900  0.50782300  0.14489600  1
  Hg  Hg29  1  0.91052900  0.99217700  0.85510400  1
  Hg  Hg30  1  0.58947100  0.00782300  0.35510400  1
  Hg  Hg31  1  0.08947100  0.49217700  0.64489600  1
  P  P0  1  0.90103800  0.17187800  0.87299700  1
  P  P1  1  0.40103800  0.32812200  0.12700300  1
  P  P2  1  0.09896200  0.67187800  0.62700300  1
  P  P3  1  0.59896200  0.82812200  0.37299700  1
  P  P4  1  0.09896200  0.82812200  0.12700300  1
  P  P5  1  0.59896200  0.67187800  0.87299700  1
  P  P6  1  0.90103800  0.32812200  0.37299700  1
  P  P7  1  0.40103800  0.17187800  0.62700300  1
  P  P8  1  0.56478500  0.31315000  0.86461200  1
  P  P9  1  0.06478500  0.18685000  0.13538800  1
  P  P10  1  0.43521500  0.81315000  0.63538800  1
  P  P11  1  0.93521500  0.68685000  0.36461200  1
  P  P12  1  0.43521500  0.68685000  0.13538800  1
  P  P13  1  0.93521500  0.81315000  0.86461200  1
  P  P14  1  0.56478500  0.18685000  0.36461200  1
  P  P15  1  0.06478500  0.31315000  0.63538800  1
  Cl  Cl0  1  0.35961100  0.09800600  0.01027000  1
  Cl  Cl1  1  0.85961100  0.40199400  0.98973000  1
  Cl  Cl2  1  0.64038900  0.59800600  0.48973000  1
  Cl  Cl3  1  0.14038900  0.90199400  0.51027000  1
  Cl  Cl4  1  0.64038900  0.90199400  0.98973000  1
  Cl  Cl5  1  0.14038900  0.59800600  0.01027000  1
  Cl  Cl6  1  0.35961100  0.40199400  0.51027000  1
  Cl  Cl7  1  0.85961100  0.09800600  0.48973000  1
  Cl  Cl8  1  0.12711000  0.01187400  0.94755500  1
  Cl  Cl9  1  0.62711000  0.48812600  0.05244500  1
  Cl  Cl10  1  0.87289000  0.51187400  0.55244500  1
  Cl  Cl11  1  0.37289000  0.98812600  0.44755500  1
  Cl  Cl12  1  0.87289000  0.98812600  0.05244500  1
  Cl  Cl13  1  0.37289000  0.51187400  0.94755500  1
  Cl  Cl14  1  0.12711000  0.48812600  0.44755500  1
  Cl  Cl15  1  0.62711000  0.01187400  0.55244500  1
  Cl  Cl16  1  0.26582200  0.17018500  0.82103600  1
  Cl  Cl17  1  0.76582200  0.32981500  0.17896400  1
  Cl  Cl18  1  0.73417800  0.67018500  0.67896400  1
  Cl  Cl19  1  0.23417800  0.82981500  0.32103600  1
  Cl  Cl20  1  0.73417800  0.82981500  0.17896400  1
  Cl  Cl21  1  0.23417800  0.67018500  0.82103600  1
  Cl  Cl22  1  0.26582200  0.32981500  0.32103600  1
  Cl  Cl23  1  0.76582200  0.17018500  0.67896400  1
  Cl  Cl24  1  0.22856800  0.92891600  0.76543100  1
  Cl  Cl25  1  0.72856800  0.57108400  0.23456900  1
  Cl  Cl26  1  0.77143200  0.42891600  0.73456900  1
  Cl  Cl27  1  0.27143200  0.07108400  0.26543100  1
  Cl  Cl28  1  0.77143200  0.07108400  0.23456900  1
  Cl  Cl29  1  0.27143200  0.42891600  0.76543100  1
  Cl  Cl30  1  0.22856800  0.57108400  0.26543100  1
  Cl  Cl31  1  0.72856800  0.92891600  0.73456900  1
  Cl  Cl32  1  0.33568100  0.85001900  0.95304800  1
  Cl  Cl33  1  0.83568100  0.64998100  0.04695200  1
  Cl  Cl34  1  0.66431900  0.35001900  0.54695200  1
  Cl  Cl35  1  0.16431900  0.14998100  0.45304800  1
  Cl  Cl36  1  0.66431900  0.14998100  0.04695200  1
  Cl  Cl37  1  0.16431900  0.35001900  0.95304800  1
  Cl  Cl38  1  0.33568100  0.64998100  0.45304800  1
  Cl  Cl39  1  0.83568100  0.85001900  0.54695200  1
  Cl  Cl40  1  0.47294200  0.01189800  0.82708600  1
  Cl  Cl41  1  0.97294200  0.48810200  0.17291400  1
  Cl  Cl42  1  0.52705800  0.51189800  0.67291400  1
  Cl  Cl43  1  0.02705800  0.98810200  0.32708600  1
  Cl  Cl44  1  0.52705800  0.98810200  0.17291400  1
  Cl  Cl45  1  0.02705800  0.51189800  0.82708600  1
  Cl  Cl46  1  0.47294200  0.48810200  0.32708600  1
  Cl  Cl47  1  0.97294200  0.01189800  0.67291400  1
loop_
_geom_bond_atom_site_label_1
_geom_bond_atom_site_label_2
_geom_bond_distance
_geom_bond_site_symmetry_2
Hg0 P0 2.438289 1_555
Hg0 P8 2.440846 1_555
Hg1 P1 2.438289 1_555
Hg1 P9 2.440846 1_555
Hg2 P2 2.438289 1_555
Hg2 P10 2.440846 1_555
Hg3 P3 2.438289 1_555
Hg3 P11 2.440846 1_555
Hg4 P4 2.438289 1_555
Hg4 P12 2.440846 1_555
Hg5 P5 2.438289 1_555
Hg5 P13 2.440846 1_555
Hg6 P6 2.438289 1_555
Hg6 P14 2.440846 1_555
Hg7 P7 2.438289 1_555
Hg7 P15 2.440846 1_555
Hg8 P1 2.456878 1_556
Hg8 P8 2.458460 1_555
Hg9 P0 2.456878 1_554
Hg9 P9 2.458460 1_655
Hg10 P3 2.456878 1_555
Hg10 P10 2.458460 1_555
Hg11 P2 2.456878 1_555
Hg11 P11 2.458460 1_455
Hg12 P5 2.456878 1_554
Hg12 P12 2.458460 1_555
Hg13 P4 2.456878 1_556
Hg13 P13 2.458460 1_455
Hg14 P7 2.456878 1_555
Hg14 P14 2.458460 1_555
Hg15 P6 2.456878 1_555
Hg15 P15 2.458460 1_655
Hg16 P8 2.443686 1_555
Hg16 P7 2.444905 1_555
Hg17 P9 2.443686 1_655
Hg17 P6 2.444905 1_555
Hg18 P10 2.443686 1_555
Hg18 P5 2.444905 1_555
Hg19 P11 2.443686 1_455
Hg19 P4 2.444905 1_555
Hg20 P12 2.443686 1_555
Hg20 P3 2.444905 1_555
Hg21 P13 2.443686 1_455
Hg21 P2 2.444905 1_555
Hg22 P14 2.443686 1_555
Hg22 P1 2.444905 1_555
Hg23 P15 2.443686 1_655
Hg23 P0 2.444905 1_555
Hg24 P8 2.465018 1_555
Hg24 P5 2.468164 1_555
Hg25 P9 2.465018 1_555
Hg25 P4 2.468164 1_545
Hg26 P10 2.465018 1_555
Hg26 P7 2.468164 1_565
Hg27 P11 2.465018 1_555
Hg27 P6 2.468164 1_555
Hg28 P12 2.465018 1_555
Hg28 P1 2.468164 1_555
Hg29 P13 2.465018 1_555
Hg29 P0 2.468164 1_565
Hg30 P14 2.465018 1_555
Hg30 P3 2.468164 1_545
Hg31 P15 2.465018 1_555
Hg31 P2 2.468164 1_555
Cl0 Zr0 2.484405 1_554
Cl1 Zr1 2.484405 1_556
Cl2 Zr2 2.484405 1_555
Cl3 Zr3 2.484405 1_555
Cl4 Zr4 2.484405 1_556
Cl5 Zr5 2.484405 1_554
Cl6 Zr6 2.484405 1_555
Cl7 Zr7 2.484405 1_555
Cl8 Zr0 2.533689 1_555
Cl9 Zr1 2.533689 1_555
Cl10 Zr2 2.533689 1_555
Cl11 Zr3 2.533689 1_555
Cl12 Zr4 2.533689 1_555
Cl13 Zr5 2.533689 1_555
Cl14 Zr6 2.533689 1_555
Cl15 Zr7 2.533689 1_555
Cl16 Zr0 2.479125 1_555
Cl17 Zr1 2.479125 1_555
Cl18 Zr2 2.479125 1_555
Cl19 Zr3 2.479125 1_555
Cl20 Zr4 2.479125 1_555
Cl21 Zr5 2.479125 1_555
Cl22 Zr6 2.479125 1_555
Cl23 Zr7 2.479125 1_555
Cl24 Zr0 2.493268 1_565
Cl25 Zr1 2.493268 1_555
Cl26 Zr2 2.493268 1_555
Cl27 Zr3 2.493268 1_545
Cl28 Zr4 2.493268 1_545
Cl29 Zr5 2.493268 1_555
Cl30 Zr6 2.493268 1_555
Cl31 Zr7 2.493268 1_565
Cl32 Zr0 2.484460 1_565
Cl33 Zr1 2.484460 1_555
Cl34 Zr2 2.484460 1_555
Cl35 Zr3 2.484460 1_545
Cl36 Zr4 2.484460 1_545
Cl37 Zr5 2.484460 1_555
Cl38 Zr6 2.484460 1_555
Cl39 Zr7 2.484460 1_565
Cl40 Zr0 2.483948 1_555
Cl41 Zr1 2.483948 1_555
Cl42 Zr2 2.483948 1_555
Cl43 Zr3 2.483948 1_555
Cl44 Zr4 2.483948 1_555
Cl45 Zr5 2.483948 1_555
Cl46 Zr6 2.483948 1_555
Cl47 Zr7 2.483948 1_555
