# generated using pymatgen
data_Li2V3TeO8
_symmetry_space_group_name_H-M   'P 1'
_cell_length_a   6.05453928
_cell_length_b   10.46236279
_cell_length_c   6.22766073
_cell_angle_alpha   106.00404867
_cell_angle_beta   60.87582664
_cell_angle_gamma   89.90388377
_symmetry_Int_Tables_number   1
_chemical_formula_structural   Li2V3TeO8
_chemical_formula_sum   'Li4 V6 Te2 O16'
_cell_volume   326.89209709
_cell_formula_units_Z   2
loop_
 _symmetry_equiv_pos_site_id
 _symmetry_equiv_pos_as_xyz
  1  'x, y, z'
loop_
 _atom_site_type_symbol
 _atom_site_label
 _atom_site_symmetry_multiplicity
 _atom_site_fract_x
 _atom_site_fract_y
 _atom_site_fract_z
 _atom_site_occupancy
  Li  Li0  1  0.30350800  0.56437700  0.38820800  1
  Li  Li1  1  0.80839800  0.06460800  0.38780600  1
  Li  Li2  1  0.19499100  0.93559500  0.61108200  1
  Li  Li3  1  0.69439800  0.43526100  0.61184300  1
  V  V0  1  0.24874100  0.74968500  0.99904700  1
  V  V1  1  0.25160300  0.24980500  0.99907600  1
  V  V2  1  0.00014300  0.50055300  0.00097600  1
  V  V3  1  0.75055600  0.25022700  0.00132100  1
  V  V4  1  0.74788400  0.75035200  0.00122300  1
  V  V5  1  0.50037000  0.00048900  0.00004200  1
  Te  Te0  1  0.74642600  0.75010700  0.50044500  1
  Te  Te1  1  0.25213900  0.25049800  0.50093400  1
  O  O0  1  0.09783800  0.63350900  0.79843500  1
  O  O1  1  0.60522700  0.13349800  0.79819200  1
  O  O2  1  0.39740500  0.86623900  0.20118500  1
  O  O3  1  0.90145800  0.36644600  0.20189300  1
  O  O4  1  0.88738000  0.85944800  0.23530200  1
  O  O5  1  0.38108400  0.36004000  0.23655200  1
  O  O6  1  0.10995200  0.62568900  0.23300300  1
  O  O7  1  0.61153600  0.13283300  0.24119200  1
  O  O8  1  0.64844800  0.63244300  0.23883900  1
  O  O9  1  0.15882800  0.12483200  0.22763400  1
  O  O10  1  0.84331500  0.87165900  0.77028500  1
  O  O11  1  0.35150800  0.36871000  0.75723800  1
  O  O12  1  0.39130700  0.86956700  0.75676600  1
  O  O13  1  0.88377100  0.37281100  0.77328100  1
  O  O14  1  0.61031400  0.64050400  0.76432900  1
  O  O15  1  0.12147200  0.14021600  0.76387200  1
loop_
_geom_bond_atom_site_label_1
_geom_bond_atom_site_label_2
_geom_bond_distance
_geom_bond_site_symmetry_2
Li0 O5 2.033340 1_555
Li0 O6 2.039856 1_555
Li0 O8 2.052628 1_555
Li0 O0 2.117055 1_555
Li1 O4 2.041651 1_545
Li1 O7 2.044432 1_555
Li1 O9 2.045613 1_655
Li1 O1 2.117908 1_555
Li2 O12 2.026249 1_555
Li2 O15 2.036643 1_565
Li2 O10 2.068734 1_455
Li2 O2 2.115455 1_555
Li3 O11 2.034039 1_555
Li3 O14 2.042867 1_555
Li3 O13 2.057690 1_555
Li3 O3 2.115628 1_555
O0 V4 2.028300 1_456
O0 V2 2.029748 1_556
O0 V0 2.037273 1_555
O1 V3 2.025139 1_556
O1 V5 2.027428 1_556
O1 V1 2.043128 1_555
O2 V4 2.027367 1_555
O2 V0 2.035201 1_554
O2 V5 2.035573 1_565
O3 V1 2.028241 1_654
O3 V2 2.033313 1_655
O3 V3 2.037295 1_555
O4 V0 2.048604 1_654
O4 V4 2.103665 1_555
O4 Te0 2.106337 1_555
O5 V1 2.079182 1_554
O5 V3 2.084114 1_555
O5 Te1 2.103840 1_555
O6 V2 2.034442 1_555
O6 V0 2.089512 1_554
O6 Te0 2.130575 1_455
O7 V3 2.059070 1_555
O7 Te1 2.081756 1_555
O7 V5 2.113300 1_555
O8 V4 2.053266 1_555
O8 Te0 2.087806 1_555
O8 V2 2.103611 1_655
O9 V5 2.024521 1_555
O9 V1 2.074017 1_554
O9 Te1 2.156204 1_555
O10 V5 2.051973 1_566
O10 V4 2.052585 1_556
O10 Te0 2.137534 1_555
O11 Te1 2.070768 1_555
O11 V1 2.081022 1_555
O11 V2 2.103510 1_556
O12 Te0 2.069554 1_555
O12 V0 2.091463 1_555
O12 V5 2.107166 1_566
O13 V3 2.050622 1_556
O13 V2 2.055249 1_656
O13 Te1 2.144750 1_655
O14 V0 2.046935 1_555
O14 Te0 2.102087 1_555
O14 V4 2.110805 1_556
O15 V1 2.069120 1_555
O15 V3 2.091649 1_456
O15 Te1 2.102947 1_555
