# generated using pymatgen
data_Al2ZnS4
_symmetry_space_group_name_H-M   'P 1'
_cell_length_a   3.68801790
_cell_length_b   3.68801790
_cell_length_c   12.44488735
_cell_angle_alpha   81.47887681
_cell_angle_beta   81.47887681
_cell_angle_gamma   60.00000181
_symmetry_Int_Tables_number   1
_chemical_formula_structural   Al2ZnS4
_chemical_formula_sum   'Al2 Zn1 S4'
_cell_volume   144.42952020
_cell_formula_units_Z   1
loop_
 _symmetry_equiv_pos_site_id
 _symmetry_equiv_pos_as_xyz
  1  'x, y, z'
loop_
 _atom_site_type_symbol
 _atom_site_label
 _atom_site_symmetry_multiplicity
 _atom_site_fract_x
 _atom_site_fract_y
 _atom_site_fract_z
 _atom_site_occupancy
  Al  Al0  1  0.00075800  0.00075800  0.99772600  1
  Al  Al1  1  0.23469000  0.23469000  0.29593000  1
  Zn  Zn0  1  0.76917600  0.76917600  0.69247200  1
  S  S0  1  0.12151800  0.12151800  0.63544600  1
  S  S1  1  0.87653000  0.87653000  0.37041000  1
  S  S2  1  0.69782900  0.69782900  0.90651300  1
  S  S3  1  0.29550000  0.29550000  0.11350000  1
loop_
_geom_bond_atom_site_label_1
_geom_bond_atom_site_label_2
_geom_bond_distance
_geom_bond_site_symmetry_2
Al0 S2 2.405127 1_445
Al0 S2 2.405127 1_545
Al0 S2 2.405127 1_455
Al0 S3 2.559090 1_556
Al0 S3 2.559091 1_546
Al0 S3 2.559091 1_456
Al1 S3 2.236843 1_555
Al1 S1 2.316853 1_445
Al1 S1 2.316853 1_545
Al1 S1 2.316853 1_455
S0 Zn0 2.241145 1_445
S0 Zn0 2.241145 1_545
S0 Zn0 2.241145 1_455
S2 Zn0 2.624438 1_555
