# generated using pymatgen
data_Sr2Mg
_symmetry_space_group_name_H-M   'P 1'
_cell_length_a   14.79963036
_cell_length_b   5.93211192
_cell_length_c   5.92605866
_cell_angle_alpha   90.00000000
_cell_angle_beta   90.00000000
_cell_angle_gamma   90.00000000
_symmetry_Int_Tables_number   1
_chemical_formula_structural   Sr2Mg
_chemical_formula_sum   'Sr8 Mg4'
_cell_volume   520.26684525
_cell_formula_units_Z   4
loop_
 _symmetry_equiv_pos_site_id
 _symmetry_equiv_pos_as_xyz
  1  'x, y, z'
loop_
 _atom_site_type_symbol
 _atom_site_label
 _atom_site_symmetry_multiplicity
 _atom_site_fract_x
 _atom_site_fract_y
 _atom_site_fract_z
 _atom_site_occupancy
  Sr  Sr0  1  0.14103601  0.24709272  0.75000000  1
  Sr  Sr1  1  0.35896399  0.74709272  0.75000000  1
  Sr  Sr2  1  0.14103601  0.75290728  0.25000000  1
  Sr  Sr3  1  0.35896399  0.25290728  0.25000000  1
  Sr  Sr4  1  0.64103601  0.74709272  0.75000000  1
  Sr  Sr5  1  0.85896399  0.24709272  0.75000000  1
  Sr  Sr6  1  0.64103601  0.25290728  0.25000000  1
  Sr  Sr7  1  0.85896399  0.75290728  0.25000000  1
  Mg  Mg0  1  -0.00000000  0.74144563  0.75000000  1
  Mg  Mg1  1  -0.00000000  0.25855437  0.25000000  1
  Mg  Mg2  1  0.50000000  0.24144563  0.75000000  1
  Mg  Mg3  1  0.50000000  0.75855437  0.25000000  1
loop_
_geom_bond_atom_site_label_1
_geom_bond_atom_site_label_2
_geom_bond_distance
_geom_bond_site_symmetry_2
Mg0 Sr5 3.599532 1_455
Mg0 Sr0 3.599532 1_555
Mg0 Sr2 3.625039 1_556
Mg0 Sr2 3.625039 1_555
Mg0 Sr7 3.625039 1_455
Mg0 Sr7 3.625039 1_456
Mg0 Sr5 3.654322 1_465
Mg0 Sr0 3.654322 1_565
Mg1 Sr2 3.599532 1_555
Mg1 Sr7 3.599532 1_455
Mg1 Sr5 3.625039 1_454
Mg1 Sr0 3.625039 1_555
Mg1 Sr0 3.625039 1_554
Mg1 Sr5 3.625039 1_455
Mg1 Sr7 3.654322 1_445
Mg1 Sr2 3.654322 1_545
Mg2 Sr4 3.599532 1_545
Mg2 Sr1 3.599532 1_545
Mg2 Sr3 3.625039 1_555
Mg2 Sr6 3.625039 1_556
Mg2 Sr6 3.625039 1_555
Mg2 Sr3 3.625039 1_556
Mg2 Sr4 3.654322 1_555
Mg2 Sr1 3.654322 1_555
Mg3 Sr6 3.599532 1_565
Mg3 Sr3 3.599532 1_565
Mg3 Sr4 3.625039 1_555
Mg3 Sr4 3.625039 1_554
Mg3 Sr1 3.625039 1_554
Mg3 Sr1 3.625039 1_555
Mg3 Sr6 3.654322 1_555
Mg3 Sr3 3.654322 1_555
