# generated using pymatgen
data_CaTeO4
_symmetry_space_group_name_H-M   'P 1'
_cell_length_a   4.99969311
_cell_length_b   5.24117144
_cell_length_c   12.69058637
_cell_angle_alpha   90.00000000
_cell_angle_beta   90.00000000
_cell_angle_gamma   90.00000000
_symmetry_Int_Tables_number   1
_chemical_formula_structural   CaTeO4
_chemical_formula_sum   'Ca4 Te4 O16'
_cell_volume   332.54728186
_cell_formula_units_Z   4
loop_
 _symmetry_equiv_pos_site_id
 _symmetry_equiv_pos_as_xyz
  1  'x, y, z'
loop_
 _atom_site_type_symbol
 _atom_site_label
 _atom_site_symmetry_multiplicity
 _atom_site_fract_x
 _atom_site_fract_y
 _atom_site_fract_z
 _atom_site_occupancy
  Ca  Ca0  1  0.75000000  0.00000000  0.66935510  1
  Ca  Ca1  1  0.25000000  0.50000000  0.83064490  1
  Ca  Ca2  1  0.25000000  0.00000000  0.33064490  1
  Ca  Ca3  1  0.75000000  0.50000000  0.16935510  1
  Te  Te0  1  0.75000000  0.50000000  0.42788623  1
  Te  Te1  1  0.25000000  0.00000000  0.07211377  1
  Te  Te2  1  0.25000000  0.50000000  0.57211377  1
  Te  Te3  1  0.75000000  0.00000000  0.92788623  1
  O  O0  1  0.11595532  0.28054924  0.67294022  1
  O  O1  1  0.61595532  0.21945076  0.82705978  1
  O  O2  1  0.88404468  0.78054924  0.82705978  1
  O  O3  1  0.38404468  0.71945076  0.67294022  1
  O  O4  1  0.88404468  0.71945076  0.32705978  1
  O  O5  1  0.38404468  0.78054924  0.17294022  1
  O  O6  1  0.11595532  0.21945076  0.17294022  1
  O  O7  1  0.61595532  0.28054924  0.32705978  1
  O  O8  1  0.57169792  0.29852150  0.54377979  1
  O  O9  1  0.07169792  0.20147850  0.95622021  1
  O  O10  1  0.42830208  0.79852150  0.95622021  1
  O  O11  1  0.92830208  0.70147850  0.54377979  1
  O  O12  1  0.42830208  0.70147850  0.45622021  1
  O  O13  1  0.92830208  0.79852150  0.04377979  1
  O  O14  1  0.57169792  0.20147850  0.04377979  1
  O  O15  1  0.07169792  0.29852150  0.45622021  1
loop_
_geom_bond_atom_site_label_1
_geom_bond_atom_site_label_2
_geom_bond_distance
_geom_bond_site_symmetry_2
Ca0 O0 2.347730 1_655
Ca0 O3 2.347730 1_545
Ca0 O2 2.403647 1_545
Ca0 O1 2.403647 1_555
Ca0 O8 2.404644 1_555
Ca0 O11 2.404644 1_545
Ca1 O2 2.347730 1_455
Ca1 O1 2.347730 1_555
Ca1 O3 2.403647 1_555
Ca1 O0 2.403647 1_555
Ca1 O10 2.404644 1_555
Ca1 O9 2.404644 1_555
Ca2 O7 2.347730 1_555
Ca2 O4 2.347730 1_445
Ca2 O6 2.403647 1_555
Ca2 O5 2.403647 1_545
Ca2 O15 2.404644 1_555
Ca2 O12 2.404644 1_545
Ca3 O5 2.347730 1_555
Ca3 O6 2.347730 1_655
Ca3 O4 2.403647 1_555
Ca3 O7 2.403647 1_555
Ca3 O13 2.404644 1_555
Ca3 O14 2.404644 1_555
O0 Te2 1.846428 1_555
O1 Te3 1.846428 1_555
O2 Te3 1.846428 1_565
O3 Te2 1.846428 1_555
O4 Te0 1.846428 1_555
O5 Te1 1.846428 1_565
O6 Te1 1.846428 1_555
O7 Te0 1.846428 1_555
O8 Te2 1.957375 1_555
O8 Te0 2.018148 1_555
O9 Te3 1.957375 1_455
O9 Te1 2.018148 1_556
O10 Te3 1.957375 1_565
O10 Te1 2.018148 1_566
O11 Te2 1.957375 1_655
O11 Te0 2.018148 1_555
O12 Te0 1.957375 1_555
O12 Te2 2.018148 1_555
O13 Te1 1.957375 1_665
O13 Te3 2.018148 1_564
O14 Te1 1.957375 1_555
O14 Te3 2.018148 1_554
O15 Te0 1.957375 1_455
O15 Te2 2.018148 1_555
