# generated using pymatgen
data_Mn(CO)6
_symmetry_space_group_name_H-M   'P 1'
_cell_length_a   8.80691773
_cell_length_b   8.80691773
_cell_length_c   19.95569068
_cell_angle_alpha   88.94909935
_cell_angle_beta   88.94909935
_cell_angle_gamma   116.05957245
_symmetry_Int_Tables_number   1
_chemical_formula_structural   Mn(CO)6
_chemical_formula_sum   'Mn2 C12 O12'
_cell_volume   1389.61213387
_cell_formula_units_Z   2
loop_
 _symmetry_equiv_pos_site_id
 _symmetry_equiv_pos_as_xyz
  1  'x, y, z'
loop_
 _atom_site_type_symbol
 _atom_site_label
 _atom_site_symmetry_multiplicity
 _atom_site_fract_x
 _atom_site_fract_y
 _atom_site_fract_z
 _atom_site_occupancy
  Mn  Mn0  1  0.50000000  0.00000000  0.50000000  1
  Mn  Mn1  1  0.00000000  0.50000000  0.00000000  1
  C  C0  1  0.48397200  0.10843500  0.74457300  1
  C  C1  1  0.51602800  0.89156500  0.25542700  1
  C  C2  1  0.72896100  0.02781300  0.49943900  1
  C  C3  1  0.89156500  0.51602800  0.75542700  1
  C  C4  1  0.27103900  0.97218700  0.50056100  1
  C  C5  1  0.10843500  0.48397200  0.24457300  1
  C  C6  1  0.10673300  0.89387900  0.50036400  1
  C  C7  1  0.97218700  0.27103900  0.00056100  1
  C  C8  1  0.89326700  0.10612100  0.49963600  1
  C  C9  1  0.02781300  0.72896100  0.99943900  1
  C  C10  1  0.10612100  0.89326700  0.99963600  1
  C  C11  1  0.89387900  0.10673300  0.00036400  1
  O  O0  1  0.47024500  0.66186300  0.74805100  1
  O  O1  1  0.52975500  0.33813700  0.25194900  1
  O  O2  1  0.95671900  0.81536200  0.50015400  1
  O  O3  1  0.33813700  0.52975500  0.75194900  1
  O  O4  1  0.04328100  0.18463800  0.49984600  1
  O  O5  1  0.66186300  0.47024500  0.24805100  1
  O  O6  1  0.37479000  0.04153400  0.78259100  1
  O  O7  1  0.18463800  0.04328100  0.99984600  1
  O  O8  1  0.62521000  0.95846600  0.21740900  1
  O  O9  1  0.81536200  0.95671900  0.00015400  1
  O  O10  1  0.95846600  0.62521000  0.71740900  1
  O  O11  1  0.04153400  0.37479000  0.28259100  1
loop_
_geom_bond_atom_site_label_1
_geom_bond_atom_site_label_2
_geom_bond_distance
_geom_bond_site_symmetry_2
C0 O6 1.142979 1_555
C1 O8 1.142979 1_555
C2 C8 1.301165 1_555
C2 Mn0 1.921266 1_555
C3 O10 1.142979 1_555
C4 C6 1.301165 1_555
C4 Mn0 1.921266 1_565
C5 O11 1.142979 1_555
C6 O2 1.192175 1_455
C7 Mn1 1.921266 1_655
C8 O4 1.192175 1_655
C9 Mn1 1.921266 1_556
C10 O7 1.192175 1_565
C10 C9 1.301165 1_555
C11 O9 1.192175 1_545
C11 C7 1.301165 1_555
O0 O3 1.231819 1_555
O1 O5 1.231819 1_555
