# generated using pymatgen
data_K4NaCl5
_symmetry_space_group_name_H-M   'P 1'
_cell_length_a   7.55213546
_cell_length_b   7.55213546
_cell_length_c   10.69501312
_cell_angle_alpha   61.77957504
_cell_angle_beta   61.77957504
_cell_angle_gamma   33.45344869
_symmetry_Int_Tables_number   1
_chemical_formula_structural   K4NaCl5
_chemical_formula_sum   'K4 Na1 Cl5'
_cell_volume   292.41281795
_cell_formula_units_Z   1
loop_
 _symmetry_equiv_pos_site_id
 _symmetry_equiv_pos_as_xyz
  1  'x, y, z'
loop_
 _atom_site_type_symbol
 _atom_site_label
 _atom_site_symmetry_multiplicity
 _atom_site_fract_x
 _atom_site_fract_y
 _atom_site_fract_z
 _atom_site_occupancy
  K  K0  1  0.60411267  0.60411267  0.59955865  1
  K  K1  1  0.19644847  0.19644847  0.19302231  1
  K  K2  1  0.80355153  0.80355153  0.80697769  1
  K  K3  1  0.39588733  0.39588733  0.40044135  1
  Na  Na0  1  -0.00000000  -0.00000000  0.00000000  1
  Cl  Cl0  1  -0.00000000  -0.00000000  0.50000000  1
  Cl  Cl1  1  0.58896177  0.58896177  0.09127575  1
  Cl  Cl2  1  0.19431296  0.19431296  0.71608301  1
  Cl  Cl3  1  0.80568704  0.80568704  0.28391699  1
  Cl  Cl4  1  0.41103823  0.41103823  0.90872425  1
loop_
_geom_bond_atom_site_label_1
_geom_bond_atom_site_label_2
_geom_bond_distance
_geom_bond_site_symmetry_2
Cl0 K2 3.104987 1_445
Cl0 K1 3.104987 1_555
Cl0 K3 3.116044 1_545
Cl0 K3 3.116044 1_455
Cl0 K0 3.116044 1_455
Cl0 K0 3.116044 1_545
Cl1 Na0 2.928110 1_565
Cl1 Na0 2.928110 1_655
Cl1 K2 3.091936 1_554
Cl1 K3 3.100619 1_555
Cl1 K1 3.161762 1_565
Cl1 K1 3.161762 1_655
Cl2 Na0 2.948292 1_556
Cl2 K0 3.096060 1_545
Cl2 K0 3.096060 1_455
Cl2 K2 3.111782 1_545
Cl2 K2 3.111782 1_455
Cl2 K3 3.190245 1_555
Cl3 Na0 2.948292 1_665
Cl3 K3 3.096060 1_565
Cl3 K3 3.096060 1_655
Cl3 K1 3.111782 1_565
Cl3 K1 3.111782 1_655
Cl3 K0 3.190245 1_555
Cl4 Na0 2.928110 1_656
Cl4 Na0 2.928110 1_566
Cl4 K1 3.091936 1_556
Cl4 K0 3.100619 1_555
Cl4 K2 3.161762 1_455
Cl4 K2 3.161762 1_545
