# generated using pymatgen
data_Li7Mn2(CoO4)3
_symmetry_space_group_name_H-M   'P 1'
_cell_length_a   2.91409500
_cell_length_b   8.15299900
_cell_length_c   9.73789277
_cell_angle_alpha   66.58915569
_cell_angle_beta   90.00000000
_cell_angle_gamma   90.00000000
_symmetry_Int_Tables_number   1
_chemical_formula_structural   Li7Mn2(CoO4)3
_chemical_formula_sum   'Li7 Mn2 Co3 O12'
_cell_volume   212.31324359
_cell_formula_units_Z   1
loop_
 _symmetry_equiv_pos_site_id
 _symmetry_equiv_pos_as_xyz
  1  'x, y, z'
loop_
 _atom_site_type_symbol
 _atom_site_label
 _atom_site_symmetry_multiplicity
 _atom_site_fract_x
 _atom_site_fract_y
 _atom_site_fract_z
 _atom_site_occupancy
  Li  Li0  1  0.00000000  0.14771600  0.67776400  1
  Li  Li1  1  0.00000000  0.52529600  0.97916000  1
  Li  Li2  1  0.00000000  0.83077900  0.33911700  1
  Li  Li3  1  0.50000000  0.67138800  0.15890800  1
  Li  Li4  1  0.50000000  0.98898000  0.50901900  1
  Li  Li5  1  0.50000000  0.34103500  0.82814400  1
  Li  Li6  1  0.50000000  0.82941200  0.83744700  1
  Mn  Mn0  1  0.00000000  0.99441600  0.00012500  1
  Mn  Mn1  1  0.00000000  0.33301100  0.33023400  1
  Co  Co0  1  0.00000000  0.68126200  0.67837900  1
  Co  Co1  1  0.50000000  0.50740600  0.50963300  1
  Co  Co2  1  0.50000000  0.16799900  0.16414800  1
  O  O0  1  0.00000000  0.76812300  0.00614400  1
  O  O1  1  0.00000000  0.10366200  0.31084000  1
  O  O2  1  0.00000000  0.41406200  0.65894300  1
  O  O3  1  0.50000000  0.26060500  0.47444800  1
  O  O4  1  0.50000000  0.58482600  0.82557600  1
  O  O5  1  0.50000000  0.93899000  0.15159100  1
  O  O6  1  0.00000000  0.55928600  0.34110200  1
  O  O7  1  0.00000000  0.91054400  0.65944200  1
  O  O8  1  0.00000000  0.23101300  0.02142500  1
  O  O9  1  0.50000000  0.07439200  0.85808200  1
  O  O10  1  0.50000000  0.39690900  0.18258200  1
  O  O11  1  0.50000000  0.73888800  0.49774500  1
loop_
_geom_bond_atom_site_label_1
_geom_bond_atom_site_label_2
_geom_bond_distance
_geom_bond_site_symmetry_2
Li0 O7 2.011228 1_545
Li0 O2 2.105427 1_555
Li0 O9 2.174734 1_455
Li0 O9 2.174734 1_555
Li0 O3 2.332798 1_555
Li0 O3 2.332798 1_455
Li1 O4 2.004622 1_555
Li1 O4 2.004622 1_455
Li1 O0 2.098075 1_556
Li1 O8 2.267440 1_556
Li1 O10 2.344129 1_456
Li1 O10 2.344129 1_556
Li2 O11 2.037341 1_455
Li2 O11 2.037341 1_555
Li2 O1 2.130448 1_565
Li2 O6 2.205873 1_555
Li2 O5 2.226159 1_555
Li2 O5 2.226159 1_455
Li3 O0 2.006402 1_555
Li3 O0 2.006402 1_655
Li3 O5 2.154441 1_555
Li3 O10 2.156632 1_555
Li3 O6 2.194882 1_655
Li3 O6 2.194882 1_555
Li4 O7 1.983234 1_655
Li4 O7 1.983234 1_555
Li4 O11 2.085055 1_555
Li4 O3 2.103609 1_565
Li4 O1 2.299491 1_565
Li4 O1 2.299491 1_665
Li5 O4 1.977825 1_555
Li5 O9 2.075423 1_555
Li5 O2 2.100647 1_555
Li5 O2 2.100647 1_655
Li5 O8 2.264619 1_556
Li5 O8 2.264619 1_656
Li6 O4 2.042795 1_555
Li6 O9 2.085329 1_565
Li6 O0 2.102146 1_556
Li6 O0 2.102146 1_656
Li6 O7 2.157326 1_555
Li6 O7 2.157326 1_655
Mn0 O0 1.822473 1_555
Mn0 O9 1.935122 1_464
Mn0 O9 1.935122 1_564
Mn0 O5 1.993252 1_455
Mn0 O5 1.993252 1_555
Mn0 O8 2.020373 1_565
Mn1 O6 1.889367 1_555
Mn1 O3 1.945474 1_555
Mn1 O3 1.945474 1_455
Mn1 O1 1.952625 1_555
Mn1 O10 1.966338 1_455
Mn1 O10 1.966338 1_555
Co0 O7 1.804022 1_555
Co0 O4 1.974895 1_455
Co0 O4 1.974895 1_555
Co0 O11 2.186567 1_555
Co0 O11 2.186567 1_455
Co0 O2 2.260363 1_555
Co1 O11 1.844339 1_555
Co1 O2 1.984159 1_555
Co1 O2 1.984159 1_655
Co1 O6 2.107988 1_655
Co1 O6 2.107988 1_555
Co1 O3 2.171189 1_555
Co2 O5 1.918978 1_545
Co2 O8 1.936785 1_555
Co2 O8 1.936785 1_655
Co2 O10 1.944615 1_555
Co2 O1 1.960418 1_555
Co2 O1 1.960418 1_655
