# generated using pymatgen
data_Li
_symmetry_space_group_name_H-M   'P 1'
_cell_length_a   6.02959276
_cell_length_b   6.02959285
_cell_length_c   10.21664440
_cell_angle_alpha   90.00000000
_cell_angle_beta   90.00000000
_cell_angle_gamma   119.99998873
_symmetry_Int_Tables_number   1
_chemical_formula_structural   Li
_chemical_formula_sum   Li16
_cell_volume   321.67323527
_cell_formula_units_Z   16
loop_
 _symmetry_equiv_pos_site_id
 _symmetry_equiv_pos_as_xyz
  1  'x, y, z'
loop_
 _atom_site_type_symbol
 _atom_site_label
 _atom_site_symmetry_multiplicity
 _atom_site_fract_x
 _atom_site_fract_y
 _atom_site_fract_z
 _atom_site_occupancy
  Li  Li0_0  1  0.16666650  0.33333350  0.12500000  1
  Li  Li0_1  1  0.16666650  0.33333350  0.62500000  1
  Li  Li0_2  1  0.16666650  0.83333350  0.12500000  1
  Li  Li0_3  1  0.16666650  0.83333350  0.62500000  1
  Li  Li0_4  1  0.66666650  0.33333350  0.12500000  1
  Li  Li0_5  1  0.66666650  0.33333350  0.62500000  1
  Li  Li0_6  1  0.66666650  0.83333350  0.12500000  1
  Li  Li0_7  1  0.66666650  0.83333350  0.62500000  1
  Li  Li1_0  1  0.33333350  0.16666650  0.37500000  1
  Li  Li1_1  1  0.33333350  0.16666650  0.87500000  1
  Li  Li1_2  1  0.33333350  0.66666650  0.37500000  1
  Li  Li1_3  1  0.33333350  0.66666650  0.87500000  1
  Li  Li1_4  1  0.83333350  0.16666650  0.37500000  1
  Li  Li1_5  1  0.83333350  0.16666650  0.87500000  1
  Li  Li1_6  1  0.83333350  0.66666650  0.37500000  1
  Li  Li1_7  1  0.83333350  0.66666650  0.87500000  1
loop_
_geom_bond_atom_site_label_1
_geom_bond_atom_site_label_2
_geom_bond_distance
_geom_bond_site_symmetry_2
Li0_0 Li0_4 3.014796 1_555
Li0_0 Li0_4 3.014796 1_455
Li0_0 Li0_2 3.014796 1_555
Li0_0 Li0_2 3.014796 1_545
Li0_0 Li0_6 3.014797 1_555
Li0_0 Li0_6 3.014797 1_445
Li0_0 Li1_4 3.090857 1_455
Li0_0 Li1_5 3.090857 1_454
Li0_0 Li1_2 3.090857 1_555
Li0_0 Li1_3 3.090857 1_554
Li0_0 Li1_0 3.090860 1_555
Li0_0 Li1_1 3.090860 1_554
Li0_1 Li0_5 3.014796 1_555
Li0_1 Li0_5 3.014796 1_455
Li0_1 Li0_3 3.014796 1_555
Li0_1 Li0_3 3.014796 1_545
Li0_1 Li0_7 3.014797 1_555
Li0_1 Li0_7 3.014797 1_445
Li0_1 Li1_4 3.090857 1_455
Li0_1 Li1_5 3.090857 1_455
Li0_1 Li1_3 3.090857 1_555
Li0_1 Li1_2 3.090857 1_555
Li0_1 Li1_1 3.090860 1_555
Li0_1 Li1_0 3.090860 1_555
Li0_2 Li0_6 3.014796 1_555
Li0_2 Li0_6 3.014796 1_455
Li0_2 Li0_4 3.014797 1_455
Li0_2 Li0_4 3.014797 1_565
Li0_2 Li1_7 3.090857 1_454
Li0_2 Li1_6 3.090857 1_455
Li0_2 Li1_1 3.090857 1_564
Li0_2 Li1_0 3.090857 1_565
Li0_2 Li1_3 3.090860 1_554
Li0_2 Li1_2 3.090860 1_555
Li0_3 Li0_7 3.014796 1_455
Li0_3 Li0_7 3.014796 1_555
Li0_3 Li0_5 3.014797 1_455
Li0_3 Li0_5 3.014797 1_565
Li0_3 Li1_6 3.090857 1_455
Li0_3 Li1_7 3.090857 1_455
Li0_3 Li1_1 3.090857 1_565
Li0_3 Li1_0 3.090857 1_565
Li0_3 Li1_2 3.090860 1_555
Li0_3 Li1_3 3.090860 1_555
Li0_4 Li0_6 3.014796 1_555
Li0_4 Li0_6 3.014796 1_545
Li0_4 Li1_1 3.090857 1_554
Li0_4 Li1_0 3.090857 1_555
Li0_4 Li1_7 3.090857 1_554
Li0_4 Li1_6 3.090857 1_555
Li0_4 Li1_5 3.090860 1_554
Li0_4 Li1_4 3.090860 1_555
Li0_5 Li0_7 3.014796 1_555
Li0_5 Li0_7 3.014796 1_545
Li0_5 Li1_1 3.090857 1_555
Li0_5 Li1_0 3.090857 1_555
Li0_5 Li1_7 3.090857 1_555
Li0_5 Li1_6 3.090857 1_555
Li0_5 Li1_5 3.090860 1_555
Li0_5 Li1_4 3.090860 1_555
Li0_6 Li1_3 3.090857 1_554
Li0_6 Li1_2 3.090857 1_555
Li0_6 Li1_4 3.090857 1_565
Li0_6 Li1_5 3.090857 1_564
Li0_6 Li1_7 3.090860 1_554
Li0_6 Li1_6 3.090860 1_555
Li0_7 Li1_3 3.090857 1_555
Li0_7 Li1_2 3.090857 1_555
Li0_7 Li1_5 3.090857 1_565
Li0_7 Li1_4 3.090857 1_565
Li0_7 Li1_7 3.090860 1_555
Li0_7 Li1_6 3.090860 1_555
Li1_0 Li1_4 3.014796 1_455
Li1_0 Li1_4 3.014796 1_555
Li1_0 Li1_2 3.014796 1_545
Li1_0 Li1_2 3.014796 1_555
Li1_0 Li1_6 3.014797 1_555
Li1_0 Li1_6 3.014797 1_445
Li1_1 Li1_5 3.014796 1_455
Li1_1 Li1_5 3.014796 1_555
Li1_1 Li1_3 3.014796 1_555
Li1_1 Li1_3 3.014796 1_545
Li1_1 Li1_7 3.014797 1_555
Li1_1 Li1_7 3.014797 1_445
Li1_2 Li1_6 3.014796 1_555
Li1_2 Li1_6 3.014796 1_455
Li1_2 Li1_4 3.014797 1_455
Li1_2 Li1_4 3.014797 1_565
Li1_3 Li1_7 3.014796 1_555
Li1_3 Li1_7 3.014796 1_455
Li1_3 Li1_5 3.014797 1_455
Li1_3 Li1_5 3.014797 1_565
Li1_4 Li1_6 3.014796 1_545
Li1_4 Li1_6 3.014796 1_555
Li1_5 Li1_7 3.014796 1_545
Li1_5 Li1_7 3.014796 1_555
