# generated using pymatgen
data_BaMgCoF7
_symmetry_space_group_name_H-M   'P 1'
_cell_length_a   9.92850400
_cell_length_b   5.66141900
_cell_length_c   9.60242696
_cell_angle_alpha   86.80529438
_cell_angle_beta   90.00000000
_cell_angle_gamma   90.00000000
_symmetry_Int_Tables_number   1
_chemical_formula_structural   BaMgCoF7
_chemical_formula_sum   'Ba4 Mg4 Co4 F28'
_cell_volume   538.90805047
_cell_formula_units_Z   4
loop_
 _symmetry_equiv_pos_site_id
 _symmetry_equiv_pos_as_xyz
  1  'x, y, z'
loop_
 _atom_site_type_symbol
 _atom_site_label
 _atom_site_symmetry_multiplicity
 _atom_site_fract_x
 _atom_site_fract_y
 _atom_site_fract_z
 _atom_site_occupancy
  Ba  Ba0  1  0.31581300  0.73357700  0.50009200  1
  Ba  Ba1  1  0.81581300  0.26642300  0.99990800  1
  Ba  Ba2  1  0.68418700  0.26642300  0.49990800  1
  Ba  Ba3  1  0.18418700  0.73357700  0.00009200  1
  Mg  Mg0  1  0.39634100  0.30365000  0.80979800  1
  Mg  Mg1  1  0.89634100  0.69635000  0.69020200  1
  Mg  Mg2  1  0.10365900  0.30365000  0.30979800  1
  Mg  Mg3  1  0.60365900  0.69635000  0.19020200  1
  Co  Co0  1  0.61152500  0.80640800  0.81091100  1
  Co  Co1  1  0.38847500  0.19359200  0.18908900  1
  Co  Co2  1  0.88847500  0.80640800  0.31091100  1
  Co  Co3  1  0.11152500  0.19359200  0.68908900  1
  F  F0  1  0.44690200  0.88653100  0.12565500  1
  F  F1  1  0.04930400  0.62773500  0.36947100  1
  F  F2  1  0.71385100  0.52729300  0.74938900  1
  F  F3  1  0.28614900  0.47270700  0.25061100  1
  F  F4  1  0.45540400  0.11447400  0.36385200  1
  F  F5  1  0.81169500  0.74220100  0.49374700  1
  F  F6  1  0.78133000  0.97423500  0.75056100  1
  F  F7  1  0.95540400  0.88552600  0.13614800  1
  F  F8  1  0.45069600  0.62773500  0.86947100  1
  F  F9  1  0.21385100  0.47270700  0.75061100  1
  F  F10  1  0.05309800  0.88653100  0.62565500  1
  F  F11  1  0.55309800  0.11346900  0.87434500  1
  F  F12  1  0.28133000  0.02576500  0.74943900  1
  F  F13  1  0.95868900  0.61683600  0.87630000  1
  F  F14  1  0.54459600  0.88552600  0.63614800  1
  F  F15  1  0.04459600  0.11447400  0.86385200  1
  F  F16  1  0.21867000  0.02576500  0.24943900  1
  F  F17  1  0.94690200  0.11346900  0.37434500  1
  F  F18  1  0.45868900  0.38316400  0.62370000  1
  F  F19  1  0.95069600  0.37226500  0.63052900  1
  F  F20  1  0.04131100  0.38316400  0.12370000  1
  F  F21  1  0.71867000  0.97423500  0.25056100  1
  F  F22  1  0.54131100  0.61683600  0.37630000  1
  F  F23  1  0.31169500  0.25779900  0.00625300  1
  F  F24  1  0.18830500  0.25779900  0.50625300  1
  F  F25  1  0.68830500  0.74220100  0.99374700  1
  F  F26  1  0.54930400  0.37226500  0.13052900  1
  F  F27  1  0.78614900  0.52729300  0.24938900  1
loop_
_geom_bond_atom_site_label_1
_geom_bond_atom_site_label_2
_geom_bond_distance
_geom_bond_site_symmetry_2
Ba0 F22 2.636263 1_555
Ba0 F18 2.663501 1_555
Ba0 F14 2.780600 1_555
Ba0 F4 2.822761 1_565
Ba0 F3 2.898503 1_555
Ba0 F9 2.932048 1_555
Ba0 F24 2.973847 1_555
Ba0 F16 3.002648 1_565
Ba0 F1 3.002924 1_555
Ba0 F12 3.004644 1_565
Ba0 F10 3.020518 1_555
Ba0 F24 3.230141 1_565
Ba1 F20 2.636263 1_656
Ba1 F13 2.663501 1_555
Ba1 F15 2.780600 1_655
Ba1 F7 2.822761 1_546
Ba1 F27 2.898503 1_556
Ba1 F2 2.932048 1_555
Ba1 F25 2.973847 1_555
Ba1 F21 3.002648 1_546
Ba1 F26 3.002924 1_556
Ba1 F6 3.004644 1_545
Ba1 F11 3.020518 1_555
Ba1 F25 3.230141 1_545
Ba2 F18 2.636263 1_555
Ba2 F22 2.663501 1_555
Ba2 F4 2.780600 1_555
Ba2 F14 2.822761 1_545
Ba2 F2 2.898503 1_555
Ba2 F27 2.932048 1_555
Ba2 F5 2.973847 1_555
Ba2 F6 3.002648 1_545
Ba2 F19 3.002924 1_555
Ba2 F21 3.004644 1_545
Ba2 F17 3.020518 1_555
Ba2 F5 3.230141 1_545
Ba3 F13 2.636263 1_454
Ba3 F20 2.663501 1_555
Ba3 F7 2.780600 1_455
Ba3 F15 2.822761 1_564
Ba3 F9 2.898503 1_554
Ba3 F3 2.932048 1_555
Ba3 F23 2.973847 1_555
Ba3 F12 3.002648 1_564
Ba3 F8 3.002924 1_554
Ba3 F16 3.004644 1_565
Ba3 F0 3.020518 1_555
Ba3 F23 3.230141 1_565
Co0 F14 1.837009 1_555
Co0 F25 1.929895 1_555
Co0 F8 1.955956 1_555
Co0 F11 1.961529 1_565
Co0 F2 1.995540 1_555
Co0 F6 2.004872 1_555
Co1 F4 1.837009 1_555
Co1 F23 1.929895 1_555
Co1 F26 1.955956 1_555
Co1 F0 1.961529 1_545
Co1 F3 1.995540 1_555
Co1 F16 2.004872 1_555
Co2 F7 1.837009 1_555
Co2 F5 1.929895 1_555
Co2 F1 1.955956 1_655
Co2 F17 1.961529 1_565
Co2 F27 1.995540 1_555
Co2 F21 2.004872 1_555
Co3 F15 1.837009 1_555
Co3 F24 1.929895 1_555
Co3 F19 1.955956 1_455
Co3 F10 1.961529 1_545
Co3 F9 1.995540 1_555
Co3 F12 2.004872 1_555
F0 Mg3 1.972642 1_555
F1 Mg2 2.025629 1_555
F2 Mg1 2.112164 1_555
F3 Mg2 2.112164 1_555
F5 Mg1 2.068275 1_555
F6 Mg1 2.053411 1_555
F8 Mg0 2.025629 1_555
F9 Mg0 2.112164 1_555
F10 Mg1 1.972642 1_455
F11 Mg0 1.972642 1_555
F12 Mg0 2.053411 1_555
F13 Mg1 1.920811 1_555
F16 Mg2 2.053411 1_555
F17 Mg2 1.972642 1_655
F18 Mg0 1.920811 1_555
F19 Mg1 2.025629 1_555
F20 Mg2 1.920811 1_555
F21 Mg3 2.053411 1_555
F22 Mg3 1.920811 1_555
F23 Mg0 2.068275 1_554
F24 Mg2 2.068275 1_555
F25 Mg3 2.068275 1_556
F26 Mg3 2.025629 1_555
F27 Mg3 2.112164 1_555
