# generated using pymatgen
data_Tb2Nb2S7O30
_symmetry_space_group_name_H-M   'P 1'
_cell_length_a   12.85528400
_cell_length_b   12.85528400
_cell_length_c   7.15580600
_cell_angle_alpha   90.00000000
_cell_angle_beta   90.00000000
_cell_angle_gamma   90.00000000
_symmetry_Int_Tables_number   1
_chemical_formula_structural   Tb2Nb2S7O30
_chemical_formula_sum   'Tb4 Nb4 S14 O60'
_cell_volume   1182.55652590
_cell_formula_units_Z   2
loop_
 _symmetry_equiv_pos_site_id
 _symmetry_equiv_pos_as_xyz
  1  'x, y, z'
loop_
 _atom_site_type_symbol
 _atom_site_label
 _atom_site_symmetry_multiplicity
 _atom_site_fract_x
 _atom_site_fract_y
 _atom_site_fract_z
 _atom_site_occupancy
  Tb  Tb0  1  0.19877500  0.30122500  0.40750200  1
  Tb  Tb1  1  0.30122500  0.80122500  0.59249800  1
  Tb  Tb2  1  0.80122500  0.69877500  0.40750200  1
  Tb  Tb3  1  0.69877500  0.19877500  0.59249800  1
  Nb  Nb0  1  0.36112400  0.13887600  0.01903200  1
  Nb  Nb1  1  0.13887600  0.63887600  0.98096800  1
  Nb  Nb2  1  0.63887600  0.86112400  0.01903200  1
  Nb  Nb3  1  0.86112400  0.36112400  0.98096800  1
  S  S0  1  0.50000000  0.00000000  0.65384900  1
  S  S1  1  0.00000000  0.50000000  0.34615100  1
  S  S2  1  0.62366600  0.12366600  0.10558500  1
  S  S3  1  0.87633400  0.62366600  0.89441500  1
  S  S4  1  0.37633400  0.87633400  0.10558500  1
  S  S5  1  0.12366600  0.37633400  0.89441500  1
  S  S6  1  0.43574400  0.32357800  0.70086400  1
  S  S7  1  0.06425600  0.82357800  0.29913600  1
  S  S8  1  0.56425600  0.67642200  0.70086400  1
  S  S9  1  0.93574400  0.17642200  0.29913600  1
  S  S10  1  0.32357800  0.56425600  0.29913600  1
  S  S11  1  0.17642200  0.06425600  0.70086400  1
  S  S12  1  0.67642200  0.43574400  0.29913600  1
  S  S13  1  0.82357800  0.93574400  0.70086400  1
  O  O0  1  0.29801800  0.20198200  0.20900000  1
  O  O1  1  0.20198200  0.70198200  0.79100000  1
  O  O2  1  0.70198200  0.79801800  0.20900000  1
  O  O3  1  0.79801800  0.29801800  0.79100000  1
  O  O4  1  0.43247800  0.93247800  0.53995000  1
  O  O5  1  0.06752200  0.43247800  0.46005000  1
  O  O6  1  0.56752200  0.06752200  0.53995000  1
  O  O7  1  0.93247800  0.56752200  0.46005000  1
  O  O8  1  0.43359800  0.06640200  0.77558600  1
  O  O9  1  0.06640200  0.56640200  0.22441400  1
  O  O10  1  0.56640200  0.93359800  0.77558600  1
  O  O11  1  0.93359800  0.43359800  0.22441400  1
  O  O12  1  0.65654700  0.15654700  0.92091700  1
  O  O13  1  0.84345300  0.65654700  0.07908300  1
  O  O14  1  0.34345300  0.84345300  0.92091700  1
  O  O15  1  0.15654700  0.34345300  0.07908300  1
  O  O16  1  0.67629300  0.17629300  0.25954900  1
  O  O17  1  0.82370700  0.67629300  0.74045100  1
  O  O18  1  0.32370700  0.82370700  0.25954900  1
  O  O19  1  0.17629300  0.32370700  0.74045100  1
  O  O20  1  0.50855800  0.14214900  0.12958200  1
  O  O21  1  0.99144200  0.64214900  0.87041800  1
  O  O22  1  0.49144200  0.85785100  0.12958200  1
  O  O23  1  0.00855800  0.35785100  0.87041800  1
  O  O24  1  0.14214900  0.49144200  0.87041800  1
  O  O25  1  0.35785100  0.99144200  0.12958200  1
  O  O26  1  0.85785100  0.50855800  0.87041800  1
  O  O27  1  0.64214900  0.00855800  0.12958200  1
  O  O28  1  0.36870300  0.28943000  0.54561700  1
  O  O29  1  0.13129700  0.78943000  0.45438300  1
  O  O30  1  0.63129700  0.71057000  0.54561700  1
  O  O31  1  0.86870300  0.21057000  0.45438300  1
  O  O32  1  0.28943000  0.63129700  0.45438300  1
  O  O33  1  0.21057000  0.13129700  0.54561700  1
  O  O34  1  0.71057000  0.36870300  0.45438300  1
  O  O35  1  0.78943000  0.86870300  0.54561700  1
  O  O36  1  0.54383600  0.29048400  0.67374900  1
  O  O37  1  0.95616400  0.79048400  0.32625100  1
  O  O38  1  0.45616400  0.70951600  0.67374900  1
  O  O39  1  0.04383600  0.20951600  0.32625100  1
  O  O40  1  0.29048400  0.45616400  0.32625100  1
  O  O41  1  0.20951600  0.95616400  0.67374900  1
  O  O42  1  0.70951600  0.54383600  0.32625100  1
  O  O43  1  0.79048400  0.04383600  0.67374900  1
  O  O44  1  0.42521200  0.43573900  0.73066000  1
  O  O45  1  0.07478800  0.93573900  0.26934000  1
  O  O46  1  0.57478800  0.56426100  0.73066000  1
  O  O47  1  0.92521200  0.06426100  0.26934000  1
  O  O48  1  0.43573900  0.57478800  0.26934000  1
  O  O49  1  0.06426100  0.07478800  0.73066000  1
  O  O50  1  0.56426100  0.42521200  0.26934000  1
  O  O51  1  0.93573900  0.92521200  0.73066000  1
  O  O52  1  0.39463900  0.26996100  0.87919800  1
  O  O53  1  0.10536100  0.76996100  0.12080200  1
  O  O54  1  0.60536100  0.73003900  0.87919800  1
  O  O55  1  0.89463900  0.23003900  0.12080200  1
  O  O56  1  0.26996100  0.60536100  0.12080200  1
  O  O57  1  0.23003900  0.10536100  0.87919800  1
  O  O58  1  0.73003900  0.39463900  0.12080200  1
  O  O59  1  0.76996100  0.89463900  0.87919800  1
loop_
_geom_bond_atom_site_label_1
_geom_bond_atom_site_label_2
_geom_bond_distance
_geom_bond_site_symmetry_2
Nb0 O0 1.778802 1_555
Nb0 O57 2.006628 1_554
Nb0 O52 2.006628 1_554
Nb0 O25 2.054204 1_545
Nb0 O20 2.054204 1_555
Nb0 O8 2.184211 1_554
Nb1 O1 1.778802 1_555
Nb1 O56 2.006628 1_556
Nb1 O53 2.006628 1_556
Nb1 O21 2.054204 1_455
Nb1 O24 2.054204 1_555
Nb1 O9 2.184211 1_556
Nb2 O2 1.778802 1_555
Nb2 O59 2.006628 1_554
Nb2 O54 2.006628 1_554
Nb2 O22 2.054204 1_555
Nb2 O27 2.054204 1_565
Nb2 O10 2.184211 1_554
Nb3 O3 1.778802 1_555
Nb3 O55 2.006628 1_556
Nb3 O58 2.006628 1_556
Nb3 O26 2.054204 1_555
Nb3 O23 2.054204 1_655
Nb3 O11 2.184211 1_556
O0 Tb0 2.296295 1_555
O1 Tb1 2.296295 1_555
O2 Tb2 2.296295 1_555
O3 Tb3 2.296295 1_555
O4 S0 1.473495 1_565
O4 Tb1 2.415641 1_555
O5 S1 1.473495 1_555
O5 Tb0 2.415641 1_555
O6 S0 1.473495 1_555
O6 Tb3 2.415641 1_555
O7 S1 1.473495 1_655
O7 Tb2 2.415641 1_555
O8 S0 1.488685 1_555
O9 S1 1.488685 1_555
O10 S0 1.488685 1_565
O11 S1 1.488685 1_655
O12 S2 1.450368 1_556
O12 Tb3 2.472319 1_555
O13 S3 1.450368 1_554
O13 Tb2 2.472319 1_555
O14 S4 1.450368 1_556
O14 Tb1 2.472319 1_555
O15 S5 1.450368 1_554
O15 Tb0 2.472319 1_555
O16 S2 1.459186 1_555
O16 Tb3 2.417323 1_555
O17 S3 1.459186 1_555
O17 Tb2 2.417323 1_555
O18 S4 1.459186 1_555
O18 Tb1 2.417323 1_555
O19 S5 1.459186 1_555
O19 Tb0 2.417323 1_555
O20 S2 1.508506 1_555
O21 S3 1.508506 1_555
O22 S4 1.508506 1_555
O23 S5 1.508506 1_555
O24 S5 1.508506 1_555
O25 S4 1.508506 1_555
O26 S3 1.508506 1_555
O27 S2 1.508506 1_555
O28 S6 1.472955 1_555
O28 Tb0 2.402436 1_555
O29 S7 1.472955 1_555
O29 Tb1 2.402436 1_555
O30 S8 1.472955 1_555
O30 Tb2 2.402436 1_555
O31 S9 1.472955 1_555
O31 Tb3 2.402436 1_555
O32 S10 1.472955 1_555
O32 Tb1 2.402436 1_555
O33 S11 1.472955 1_555
O33 Tb0 2.402436 1_555
O34 S12 1.472955 1_555
O34 Tb3 2.402436 1_555
O35 S13 1.472955 1_555
O35 Tb2 2.402436 1_555
O36 S6 1.466117 1_555
O36 Tb3 2.386454 1_555
O37 S7 1.466117 1_655
O37 Tb2 2.386454 1_555
O38 S8 1.466117 1_555
O38 Tb1 2.386454 1_555
O39 S9 1.466117 1_455
O39 Tb0 2.386454 1_555
O40 S10 1.466117 1_555
O40 Tb0 2.386454 1_555
O41 S11 1.466117 1_565
O41 Tb1 2.386454 1_555
O42 S12 1.466117 1_555
O42 Tb2 2.386454 1_555
O43 S13 1.466117 1_545
O43 Tb3 2.386454 1_555
O44 S6 1.463816 1_555
O45 S7 1.463816 1_555
O46 S8 1.463816 1_555
O47 S9 1.463816 1_555
O48 S10 1.463816 1_555
O49 S11 1.463816 1_555
O50 S12 1.463816 1_555
O51 S13 1.463816 1_555
O52 S6 1.543631 1_555
O53 S7 1.543631 1_555
O54 S8 1.543631 1_555
O55 S9 1.543631 1_555
O56 S10 1.543631 1_555
O57 S11 1.543631 1_555
O58 S12 1.543631 1_555
O59 S13 1.543631 1_555
