# generated using pymatgen
data_ErSbPd
_symmetry_space_group_name_H-M   'P 1'
_cell_length_a   4.61297066
_cell_length_b   4.61297071
_cell_length_c   4.61297053
_cell_angle_alpha   60.00000119
_cell_angle_beta   60.00000084
_cell_angle_gamma   60.00000087
_symmetry_Int_Tables_number   1
_chemical_formula_structural   ErSbPd
_chemical_formula_sum   'Er1 Sb1 Pd1'
_cell_volume   69.41080490
_cell_formula_units_Z   1
loop_
 _symmetry_equiv_pos_site_id
 _symmetry_equiv_pos_as_xyz
  1  'x, y, z'
loop_
 _atom_site_type_symbol
 _atom_site_label
 _atom_site_symmetry_multiplicity
 _atom_site_fract_x
 _atom_site_fract_y
 _atom_site_fract_z
 _atom_site_occupancy
  Er  Er0  1  0.00000000  0.00000000  -0.00000000  1
  Sb  Sb0  1  0.50000000  0.50000000  0.50000000  1
  Pd  Pd0  1  0.25000000  0.25000000  0.25000000  1
loop_
_geom_bond_atom_site_label_1
_geom_bond_atom_site_label_2
_geom_bond_distance
_geom_bond_site_symmetry_2
Er0 Pd0 2.824856 1_554
Er0 Pd0 2.824856 1_555
Er0 Pd0 2.824856 1_455
Er0 Pd0 2.824856 1_545
Er0 Sb0 3.261863 1_454
Er0 Sb0 3.261863 1_455
Er0 Sb0 3.261863 1_545
Er0 Sb0 3.261863 1_544
Er0 Sb0 3.261863 1_554
Er0 Sb0 3.261863 1_445
Pd0 Sb0 2.824856 1_554
Pd0 Sb0 2.824856 1_555
Pd0 Sb0 2.824856 1_455
Pd0 Sb0 2.824856 1_545
