# generated using pymatgen
data_NdInCo2
_symmetry_space_group_name_H-M   'P 1'
_cell_length_a   4.07459700
_cell_length_b   5.09759600
_cell_length_c   7.23243900
_cell_angle_alpha   90.00000000
_cell_angle_beta   90.00000000
_cell_angle_gamma   90.00000000
_symmetry_Int_Tables_number   1
_chemical_formula_structural   NdInCo2
_chemical_formula_sum   'Nd2 In2 Co4'
_cell_volume   150.22245455
_cell_formula_units_Z   2
loop_
 _symmetry_equiv_pos_site_id
 _symmetry_equiv_pos_as_xyz
  1  'x, y, z'
loop_
 _atom_site_type_symbol
 _atom_site_label
 _atom_site_symmetry_multiplicity
 _atom_site_fract_x
 _atom_site_fract_y
 _atom_site_fract_z
 _atom_site_occupancy
  Nd  Nd0  1  0.50000000  0.75000000  0.71694000  1
  Nd  Nd1  1  0.50000000  0.25000000  0.28306000  1
  In  In0  1  0.00000000  0.75000000  0.34122400  1
  In  In1  1  0.00000000  0.25000000  0.65877600  1
  Co  Co0  1  0.00000000  0.00000000  0.00000000  1
  Co  Co1  1  0.00000000  0.50000000  0.00000000  1
  Co  Co2  1  0.50000000  0.75000000  0.09131700  1
  Co  Co3  1  0.50000000  0.25000000  0.90868300  1
loop_
_geom_bond_atom_site_label_1
_geom_bond_atom_site_label_2
_geom_bond_distance
_geom_bond_site_symmetry_2
In0 Nd1 3.289972 1_555
In0 Nd1 3.289972 1_565
In0 Nd1 3.289972 1_465
In0 Nd1 3.289972 1_455
In0 Nd0 3.396254 1_555
In0 Nd0 3.396254 1_455
In0 In1 3.430902 1_555
In0 In1 3.430902 1_565
In1 Nd0 3.289972 1_555
In1 Nd0 3.289972 1_545
In1 Nd0 3.289972 1_455
In1 Nd0 3.289972 1_445
In1 Nd1 3.396254 1_555
In1 Nd1 3.396254 1_455
Co0 Co2 2.492161 1_445
Co0 Co2 2.492161 1_545
Co0 Co3 2.492161 1_554
Co0 Co3 2.492161 1_454
Co0 Co1 2.548798 1_555
Co0 Co1 2.548798 1_545
Co0 In0 2.777505 1_545
Co0 In1 2.777505 1_554
Co0 Nd0 3.156860 1_444
Co0 Nd0 3.156860 1_544
Co0 Nd1 3.156860 1_555
Co0 Nd1 3.156860 1_455
Co1 Co2 2.492161 1_455
Co1 Co2 2.492161 1_555
Co1 Co3 2.492161 1_554
Co1 Co3 2.492161 1_454
Co1 In0 2.777505 1_555
Co1 In1 2.777505 1_554
Co1 Nd0 3.156860 1_554
Co1 Nd0 3.156860 1_454
Co1 Nd1 3.156860 1_555
Co1 Nd1 3.156860 1_455
Co2 Nd0 2.707659 1_554
Co2 In0 2.723493 1_655
Co2 In0 2.723493 1_555
Co2 Co3 2.870735 1_554
Co2 Co3 2.870735 1_564
Co2 Nd1 2.901638 1_555
Co2 Nd1 2.901638 1_565
Co3 Nd1 2.707659 1_556
Co3 In1 2.723493 1_655
Co3 In1 2.723493 1_555
Co3 Nd0 2.901638 1_555
Co3 Nd0 2.901638 1_545
