# generated using pymatgen
data_ZrTi4Be5
_symmetry_space_group_name_H-M   'P 1'
_cell_length_a   5.96283200
_cell_length_b   5.96283200
_cell_length_c   29.74674200
_cell_angle_alpha   90.00000000
_cell_angle_beta   90.00000000
_cell_angle_gamma   90.00000000
_symmetry_Int_Tables_number   1
_chemical_formula_structural   ZrTi4Be5
_chemical_formula_sum   'Zr8 Ti32 Be40'
_cell_volume   1057.65628306
_cell_formula_units_Z   8
loop_
 _symmetry_equiv_pos_site_id
 _symmetry_equiv_pos_as_xyz
  1  'x, y, z'
loop_
 _atom_site_type_symbol
 _atom_site_label
 _atom_site_symmetry_multiplicity
 _atom_site_fract_x
 _atom_site_fract_y
 _atom_site_fract_z
 _atom_site_occupancy
  Zr  Zr0_0  1  0.25000000  0.25000000  0.00000000  1
  Zr  Zr0_1  1  0.25000000  0.25000000  0.50000000  1
  Zr  Zr0_2  1  0.25000000  0.75000000  0.00000000  1
  Zr  Zr0_3  1  0.25000000  0.75000000  0.50000000  1
  Zr  Zr0_4  1  0.75000000  0.25000000  0.00000000  1
  Zr  Zr0_5  1  0.75000000  0.25000000  0.50000000  1
  Zr  Zr0_6  1  0.75000000  0.75000000  0.00000000  1
  Zr  Zr0_7  1  0.75000000  0.75000000  0.50000000  1
  Ti  Ti0_0  1  0.25000000  0.25000000  0.10454200  1
  Ti  Ti0_1  1  0.25000000  0.25000000  0.60454200  1
  Ti  Ti0_2  1  0.25000000  0.75000000  0.10454200  1
  Ti  Ti0_3  1  0.25000000  0.75000000  0.60454200  1
  Ti  Ti0_4  1  0.75000000  0.25000000  0.10454200  1
  Ti  Ti0_5  1  0.75000000  0.25000000  0.60454200  1
  Ti  Ti0_6  1  0.75000000  0.75000000  0.10454200  1
  Ti  Ti0_7  1  0.75000000  0.75000000  0.60454200  1
  Ti  Ti1_0  1  0.25000000  0.25000000  0.20177050  1
  Ti  Ti1_1  1  0.25000000  0.25000000  0.70177050  1
  Ti  Ti1_2  1  0.25000000  0.75000000  0.20177050  1
  Ti  Ti1_3  1  0.25000000  0.75000000  0.70177050  1
  Ti  Ti1_4  1  0.75000000  0.25000000  0.20177050  1
  Ti  Ti1_5  1  0.75000000  0.25000000  0.70177050  1
  Ti  Ti1_6  1  0.75000000  0.75000000  0.20177050  1
  Ti  Ti1_7  1  0.75000000  0.75000000  0.70177050  1
  Ti  Ti2_0  1  0.25000000  0.25000000  0.29822950  1
  Ti  Ti2_1  1  0.25000000  0.25000000  0.79822950  1
  Ti  Ti2_2  1  0.25000000  0.75000000  0.29822950  1
  Ti  Ti2_3  1  0.25000000  0.75000000  0.79822950  1
  Ti  Ti2_4  1  0.75000000  0.25000000  0.29822950  1
  Ti  Ti2_5  1  0.75000000  0.25000000  0.79822950  1
  Ti  Ti2_6  1  0.75000000  0.75000000  0.29822950  1
  Ti  Ti2_7  1  0.75000000  0.75000000  0.79822950  1
  Ti  Ti3_0  1  0.25000000  0.25000000  0.39545800  1
  Ti  Ti3_1  1  0.25000000  0.25000000  0.89545800  1
  Ti  Ti3_2  1  0.25000000  0.75000000  0.39545800  1
  Ti  Ti3_3  1  0.25000000  0.75000000  0.89545800  1
  Ti  Ti3_4  1  0.75000000  0.25000000  0.39545800  1
  Ti  Ti3_5  1  0.75000000  0.25000000  0.89545800  1
  Ti  Ti3_6  1  0.75000000  0.75000000  0.39545800  1
  Ti  Ti3_7  1  0.75000000  0.75000000  0.89545800  1
  Be  Be0_0  1  0.00000000  0.00000000  0.44184850  1
  Be  Be0_1  1  0.00000000  0.00000000  0.94184850  1
  Be  Be0_2  1  0.00000000  0.50000000  0.44184850  1
  Be  Be0_3  1  0.00000000  0.50000000  0.94184850  1
  Be  Be0_4  1  0.50000000  0.00000000  0.44184850  1
  Be  Be0_5  1  0.50000000  0.00000000  0.94184850  1
  Be  Be0_6  1  0.50000000  0.50000000  0.44184850  1
  Be  Be0_7  1  0.50000000  0.50000000  0.94184850  1
  Be  Be1_0  1  0.00000000  0.00000000  0.05815150  1
  Be  Be1_1  1  0.00000000  0.00000000  0.55815150  1
  Be  Be1_2  1  0.00000000  0.50000000  0.05815150  1
  Be  Be1_3  1  0.00000000  0.50000000  0.55815150  1
  Be  Be1_4  1  0.50000000  0.00000000  0.05815150  1
  Be  Be1_5  1  0.50000000  0.00000000  0.55815150  1
  Be  Be1_6  1  0.50000000  0.50000000  0.05815150  1
  Be  Be1_7  1  0.50000000  0.50000000  0.55815150  1
  Be  Be2_0  1  0.00000000  0.00000000  0.15314300  1
  Be  Be2_1  1  0.00000000  0.00000000  0.65314300  1
  Be  Be2_2  1  0.00000000  0.50000000  0.15314300  1
  Be  Be2_3  1  0.00000000  0.50000000  0.65314300  1
  Be  Be2_4  1  0.50000000  0.00000000  0.15314300  1
  Be  Be2_5  1  0.50000000  0.00000000  0.65314300  1
  Be  Be2_6  1  0.50000000  0.50000000  0.15314300  1
  Be  Be2_7  1  0.50000000  0.50000000  0.65314300  1
  Be  Be3_0  1  0.00000000  0.00000000  0.25000000  1
  Be  Be3_1  1  0.00000000  0.00000000  0.75000000  1
  Be  Be3_2  1  0.00000000  0.50000000  0.25000000  1
  Be  Be3_3  1  0.00000000  0.50000000  0.75000000  1
  Be  Be3_4  1  0.50000000  0.00000000  0.25000000  1
  Be  Be3_5  1  0.50000000  0.00000000  0.75000000  1
  Be  Be3_6  1  0.50000000  0.50000000  0.25000000  1
  Be  Be3_7  1  0.50000000  0.50000000  0.75000000  1
  Be  Be4_0  1  0.00000000  0.00000000  0.34685700  1
  Be  Be4_1  1  0.00000000  0.00000000  0.84685700  1
  Be  Be4_2  1  0.00000000  0.50000000  0.34685700  1
  Be  Be4_3  1  0.00000000  0.50000000  0.84685700  1
  Be  Be4_4  1  0.50000000  0.00000000  0.34685700  1
  Be  Be4_5  1  0.50000000  0.00000000  0.84685700  1
  Be  Be4_6  1  0.50000000  0.50000000  0.34685700  1
  Be  Be4_7  1  0.50000000  0.50000000  0.84685700  1
loop_
_geom_bond_atom_site_label_1
_geom_bond_atom_site_label_2
_geom_bond_distance
_geom_bond_site_symmetry_2
Zr0_0 Zr0_2 2.981416 1_555
Zr0_0 Zr0_2 2.981416 1_545
Zr0_0 Zr0_4 2.981416 1_455
Zr0_0 Zr0_4 2.981416 1_555
Zr0_1 Zr0_5 2.981416 1_555
Zr0_1 Zr0_3 2.981416 1_555
Zr0_1 Zr0_5 2.981416 1_455
Zr0_1 Zr0_3 2.981416 1_545
Zr0_2 Zr0_6 2.981416 1_455
Zr0_2 Zr0_6 2.981416 1_555
Zr0_3 Zr0_7 2.981416 1_455
Zr0_3 Zr0_7 2.981416 1_555
Zr0_4 Zr0_6 2.981416 1_545
Zr0_4 Zr0_6 2.981416 1_555
Zr0_5 Zr0_7 2.981416 1_545
Zr0_5 Zr0_7 2.981416 1_555
Ti0_0 Zr0_0 3.109784 1_555
Ti0_1 Zr0_1 3.109784 1_555
Ti0_2 Zr0_2 3.109784 1_555
Ti0_3 Zr0_3 3.109784 1_555
Ti0_4 Zr0_4 3.109784 1_555
Ti0_5 Zr0_5 3.109784 1_555
Ti0_6 Zr0_6 3.109784 1_555
Ti0_7 Zr0_7 3.109784 1_555
Ti3_0 Zr0_1 3.109784 1_555
Ti3_1 Zr0_0 3.109784 1_556
Ti3_2 Zr0_3 3.109784 1_555
Ti3_3 Zr0_2 3.109784 1_556
Ti3_4 Zr0_5 3.109784 1_555
Ti3_5 Zr0_4 3.109784 1_556
Ti3_6 Zr0_7 3.109784 1_555
Ti3_7 Zr0_6 3.109784 1_556
Be0_0 Ti3_0 2.519668 1_555
Be0_0 Ti3_2 2.519668 1_545
Be0_0 Ti3_6 2.519668 1_445
Be0_0 Ti3_4 2.519668 1_455
Be0_0 Zr0_1 2.727029 1_555
Be0_0 Zr0_3 2.727029 1_545
Be0_0 Zr0_5 2.727029 1_455
Be0_0 Zr0_7 2.727029 1_445
Be0_1 Ti3_7 2.519668 1_445
Be0_1 Ti3_5 2.519668 1_455
Be0_1 Ti3_1 2.519668 1_555
Be0_1 Ti3_3 2.519668 1_545
Be0_1 Zr0_0 2.727029 1_556
Be0_1 Zr0_4 2.727029 1_456
Be0_1 Zr0_6 2.727029 1_446
Be0_1 Zr0_2 2.727029 1_546
Be0_2 Ti3_6 2.519668 1_455
Be0_2 Ti3_0 2.519668 1_555
Be0_2 Ti3_2 2.519668 1_555
Be0_2 Ti3_4 2.519668 1_455
Be0_2 Zr0_1 2.727029 1_555
Be0_2 Zr0_3 2.727029 1_555
Be0_2 Zr0_7 2.727029 1_455
Be0_2 Zr0_5 2.727029 1_455
Be0_3 Ti3_7 2.519668 1_455
Be0_3 Ti3_3 2.519668 1_555
Be0_3 Ti3_5 2.519668 1_455
Be0_3 Ti3_1 2.519668 1_555
Be0_3 Zr0_6 2.727029 1_456
Be0_3 Zr0_0 2.727029 1_556
Be0_3 Zr0_4 2.727029 1_456
Be0_3 Zr0_2 2.727029 1_556
Be0_4 Ti3_0 2.519668 1_555
Be0_4 Ti3_4 2.519668 1_555
Be0_4 Ti3_2 2.519668 1_545
Be0_4 Ti3_6 2.519668 1_545
Be0_4 Zr0_1 2.727029 1_555
Be0_4 Zr0_3 2.727029 1_545
Be0_4 Zr0_5 2.727029 1_555
Be0_4 Zr0_7 2.727029 1_545
Be0_5 Ti3_5 2.519668 1_555
Be0_5 Ti3_7 2.519668 1_545
Be0_5 Ti3_1 2.519668 1_555
Be0_5 Ti3_3 2.519668 1_545
Be0_5 Zr0_0 2.727029 1_556
Be0_5 Zr0_4 2.727029 1_556
Be0_5 Zr0_2 2.727029 1_546
Be0_5 Zr0_6 2.727029 1_546
Be0_6 Ti3_0 2.519668 1_555
Be0_6 Ti3_4 2.519668 1_555
Be0_6 Ti3_2 2.519668 1_555
Be0_6 Ti3_6 2.519668 1_555
Be0_6 Zr0_1 2.727029 1_555
Be0_6 Zr0_3 2.727029 1_555
Be0_6 Zr0_7 2.727029 1_555
Be0_6 Zr0_5 2.727029 1_555
Be0_7 Ti3_5 2.519668 1_555
Be0_7 Ti3_7 2.519668 1_555
Be0_7 Ti3_3 2.519668 1_555
Be0_7 Ti3_1 2.519668 1_555
Be0_7 Zr0_0 2.727029 1_556
Be0_7 Zr0_6 2.727029 1_556
Be0_7 Zr0_4 2.727029 1_556
Be0_7 Zr0_2 2.727029 1_556
Be1_0 Ti0_4 2.519668 1_455
Be1_0 Ti0_6 2.519668 1_445
Be1_0 Ti0_2 2.519668 1_545
Be1_0 Ti0_0 2.519668 1_555
Be1_0 Zr0_2 2.727029 1_545
Be1_0 Zr0_0 2.727029 1_555
Be1_0 Zr0_4 2.727029 1_455
Be1_0 Zr0_6 2.727029 1_445
Be1_1 Ti0_7 2.519668 1_445
Be1_1 Ti0_1 2.519668 1_555
Be1_1 Ti0_3 2.519668 1_545
Be1_1 Ti0_5 2.519668 1_455
Be1_1 Zr0_1 2.727029 1_555
Be1_1 Zr0_5 2.727029 1_455
Be1_1 Zr0_3 2.727029 1_545
Be1_1 Zr0_7 2.727029 1_445
Be1_2 Ti0_6 2.519668 1_455
Be1_2 Ti0_4 2.519668 1_455
Be1_2 Ti0_2 2.519668 1_555
Be1_2 Ti0_0 2.519668 1_555
Be1_2 Zr0_0 2.727029 1_555
Be1_2 Zr0_4 2.727029 1_455
Be1_2 Zr0_6 2.727029 1_455
Be1_2 Zr0_2 2.727029 1_555
Be1_3 Ti0_3 2.519668 1_555
Be1_3 Ti0_7 2.519668 1_455
Be1_3 Ti0_1 2.519668 1_555
Be1_3 Ti0_5 2.519668 1_455
Be1_3 Zr0_3 2.727029 1_555
Be1_3 Zr0_7 2.727029 1_455
Be1_3 Zr0_1 2.727029 1_555
Be1_3 Zr0_5 2.727029 1_455
Be1_4 Ti0_6 2.519668 1_545
Be1_4 Ti0_4 2.519668 1_555
Be1_4 Ti0_2 2.519668 1_545
Be1_4 Ti0_0 2.519668 1_555
Be1_4 Zr0_2 2.727029 1_545
Be1_4 Zr0_6 2.727029 1_545
Be1_4 Zr0_0 2.727029 1_555
Be1_4 Zr0_4 2.727029 1_555
Be1_5 Ti0_1 2.519668 1_555
Be1_5 Ti0_3 2.519668 1_545
Be1_5 Ti0_5 2.519668 1_555
Be1_5 Ti0_7 2.519668 1_545
Be1_5 Zr0_5 2.727029 1_555
Be1_5 Zr0_1 2.727029 1_555
Be1_5 Zr0_3 2.727029 1_545
Be1_5 Zr0_7 2.727029 1_545
Be1_6 Ti0_4 2.519668 1_555
Be1_6 Ti0_2 2.519668 1_555
Be1_6 Ti0_6 2.519668 1_555
Be1_6 Ti0_0 2.519668 1_555
Be1_6 Zr0_0 2.727029 1_555
Be1_6 Zr0_4 2.727029 1_555
Be1_6 Zr0_6 2.727029 1_555
Be1_6 Zr0_2 2.727029 1_555
Be1_7 Ti0_3 2.519668 1_555
Be1_7 Ti0_7 2.519668 1_555
Be1_7 Ti0_1 2.519668 1_555
Be1_7 Ti0_5 2.519668 1_555
Be1_7 Zr0_5 2.727029 1_555
Be1_7 Zr0_3 2.727029 1_555
Be1_7 Zr0_1 2.727029 1_555
Be1_7 Zr0_7 2.727029 1_555
Be2_0 Ti0_0 2.556273 1_555
Be2_0 Ti0_4 2.556273 1_455
Be2_0 Ti0_6 2.556273 1_445
Be2_0 Ti0_2 2.556273 1_545
Be2_0 Ti1_6 2.556719 1_445
Be2_0 Ti1_0 2.556719 1_555
Be2_0 Ti1_4 2.556719 1_455
Be2_0 Ti1_2 2.556719 1_545
Be2_1 Ti0_3 2.556273 1_545
Be2_1 Ti0_5 2.556273 1_455
Be2_1 Ti0_7 2.556273 1_445
Be2_1 Ti0_1 2.556273 1_555
Be2_1 Ti1_1 2.556719 1_555
Be2_1 Ti1_5 2.556719 1_455
Be2_1 Ti1_3 2.556719 1_545
Be2_1 Ti1_7 2.556719 1_445
Be2_2 Ti0_2 2.556273 1_555
Be2_2 Ti0_6 2.556273 1_455
Be2_2 Ti0_0 2.556273 1_555
Be2_2 Ti0_4 2.556273 1_455
Be2_2 Ti1_6 2.556719 1_455
Be2_2 Ti1_0 2.556719 1_555
Be2_2 Ti1_4 2.556719 1_455
Be2_2 Ti1_2 2.556719 1_555
Be2_3 Ti0_5 2.556273 1_455
Be2_3 Ti0_3 2.556273 1_555
Be2_3 Ti0_7 2.556273 1_455
Be2_3 Ti0_1 2.556273 1_555
Be2_3 Ti1_1 2.556719 1_555
Be2_3 Ti1_7 2.556719 1_455
Be2_3 Ti1_5 2.556719 1_455
Be2_3 Ti1_3 2.556719 1_555
Be2_4 Ti0_0 2.556273 1_555
Be2_4 Ti0_6 2.556273 1_545
Be2_4 Ti0_4 2.556273 1_555
Be2_4 Ti0_2 2.556273 1_545
Be2_4 Ti1_0 2.556719 1_555
Be2_4 Ti1_6 2.556719 1_545
Be2_4 Ti1_4 2.556719 1_555
Be2_4 Ti1_2 2.556719 1_545
Be2_5 Ti0_3 2.556273 1_545
Be2_5 Ti0_7 2.556273 1_545
Be2_5 Ti0_5 2.556273 1_555
Be2_5 Ti0_1 2.556273 1_555
Be2_5 Ti1_1 2.556719 1_555
Be2_5 Ti1_7 2.556719 1_545
Be2_5 Ti1_5 2.556719 1_555
Be2_5 Ti1_3 2.556719 1_545
Be2_6 Ti0_2 2.556273 1_555
Be2_6 Ti0_6 2.556273 1_555
Be2_6 Ti0_0 2.556273 1_555
Be2_6 Ti0_4 2.556273 1_555
Be2_6 Ti1_0 2.556719 1_555
Be2_6 Ti1_6 2.556719 1_555
Be2_6 Ti1_4 2.556719 1_555
Be2_6 Ti1_2 2.556719 1_555
Be2_7 Ti0_5 2.556273 1_555
Be2_7 Ti0_3 2.556273 1_555
Be2_7 Ti0_1 2.556273 1_555
Be2_7 Ti0_7 2.556273 1_555
Be2_7 Ti1_1 2.556719 1_555
Be2_7 Ti1_7 2.556719 1_555
Be2_7 Ti1_5 2.556719 1_555
Be2_7 Ti1_3 2.556719 1_555
Be3_0 Ti2_4 2.550039 1_455
Be3_0 Ti2_2 2.550039 1_545
Be3_0 Ti2_0 2.550039 1_555
Be3_0 Ti2_6 2.550039 1_445
Be3_0 Ti1_0 2.550039 1_555
Be3_0 Ti1_4 2.550039 1_455
Be3_0 Ti1_2 2.550039 1_545
Be3_0 Ti1_6 2.550039 1_445
Be3_1 Ti2_7 2.550039 1_445
Be3_1 Ti2_5 2.550039 1_455
Be3_1 Ti2_1 2.550039 1_555
Be3_1 Ti2_3 2.550039 1_545
Be3_1 Ti1_5 2.550039 1_455
Be3_1 Ti1_3 2.550039 1_545
Be3_1 Ti1_7 2.550039 1_445
Be3_1 Ti1_1 2.550039 1_555
Be3_2 Ti2_4 2.550039 1_455
Be3_2 Ti2_0 2.550039 1_555
Be3_2 Ti2_6 2.550039 1_455
Be3_2 Ti2_2 2.550039 1_555
Be3_2 Ti1_6 2.550039 1_455
Be3_2 Ti1_0 2.550039 1_555
Be3_2 Ti1_4 2.550039 1_455
Be3_2 Ti1_2 2.550039 1_555
Be3_3 Ti2_7 2.550039 1_455
Be3_3 Ti2_3 2.550039 1_555
Be3_3 Ti2_5 2.550039 1_455
Be3_3 Ti2_1 2.550039 1_555
Be3_3 Ti1_5 2.550039 1_455
Be3_3 Ti1_7 2.550039 1_455
Be3_3 Ti1_3 2.550039 1_555
Be3_3 Ti1_1 2.550039 1_555
Be3_4 Ti2_2 2.550039 1_545
Be3_4 Ti2_0 2.550039 1_555
Be3_4 Ti2_6 2.550039 1_545
Be3_4 Ti2_4 2.550039 1_555
Be3_4 Ti1_0 2.550039 1_555
Be3_4 Ti1_6 2.550039 1_545
Be3_4 Ti1_4 2.550039 1_555
Be3_4 Ti1_2 2.550039 1_545
Be3_5 Ti2_5 2.550039 1_555
Be3_5 Ti2_1 2.550039 1_555
Be3_5 Ti2_3 2.550039 1_545
Be3_5 Ti2_7 2.550039 1_545
Be3_5 Ti1_7 2.550039 1_545
Be3_5 Ti1_5 2.550039 1_555
Be3_5 Ti1_3 2.550039 1_545
Be3_5 Ti1_1 2.550039 1_555
Be3_6 Ti2_0 2.550039 1_555
Be3_6 Ti2_6 2.550039 1_555
Be3_6 Ti2_4 2.550039 1_555
Be3_6 Ti2_2 2.550039 1_555
Be3_6 Ti1_6 2.550039 1_555
Be3_6 Ti1_0 2.550039 1_555
Be3_6 Ti1_4 2.550039 1_555
Be3_6 Ti1_2 2.550039 1_555
Be3_7 Ti2_5 2.550039 1_555
Be3_7 Ti2_3 2.550039 1_555
Be3_7 Ti2_1 2.550039 1_555
Be3_7 Ti2_7 2.550039 1_555
Be3_7 Ti1_5 2.550039 1_555
Be3_7 Ti1_3 2.550039 1_555
Be3_7 Ti1_7 2.550039 1_555
Be3_7 Ti1_1 2.550039 1_555
Be4_0 Ti3_2 2.556273 1_545
Be4_0 Ti3_6 2.556273 1_445
Be4_0 Ti3_4 2.556273 1_455
Be4_0 Ti3_0 2.556273 1_555
Be4_0 Ti2_4 2.556719 1_455
Be4_0 Ti2_2 2.556719 1_545
Be4_0 Ti2_0 2.556719 1_555
Be4_0 Ti2_6 2.556719 1_445
Be4_1 Ti3_7 2.556273 1_445
Be4_1 Ti3_5 2.556273 1_455
Be4_1 Ti3_3 2.556273 1_545
Be4_1 Ti3_1 2.556273 1_555
Be4_1 Ti2_1 2.556719 1_555
Be4_1 Ti2_3 2.556719 1_545
Be4_1 Ti2_5 2.556719 1_455
Be4_1 Ti2_7 2.556719 1_445
Be4_2 Ti3_2 2.556273 1_555
Be4_2 Ti3_4 2.556273 1_455
Be4_2 Ti3_6 2.556273 1_455
Be4_2 Ti3_0 2.556273 1_555
Be4_2 Ti2_6 2.556719 1_455
Be4_2 Ti2_2 2.556719 1_555
Be4_2 Ti2_4 2.556719 1_455
Be4_2 Ti2_0 2.556719 1_555
Be4_3 Ti3_3 2.556273 1_555
Be4_3 Ti3_7 2.556273 1_455
Be4_3 Ti3_5 2.556273 1_455
Be4_3 Ti3_1 2.556273 1_555
Be4_3 Ti2_7 2.556719 1_455
Be4_3 Ti2_3 2.556719 1_555
Be4_3 Ti2_1 2.556719 1_555
Be4_3 Ti2_5 2.556719 1_455
Be4_4 Ti3_4 2.556273 1_555
Be4_4 Ti3_2 2.556273 1_545
Be4_4 Ti3_6 2.556273 1_545
Be4_4 Ti3_0 2.556273 1_555
Be4_4 Ti2_2 2.556719 1_545
Be4_4 Ti2_0 2.556719 1_555
Be4_4 Ti2_6 2.556719 1_545
Be4_4 Ti2_4 2.556719 1_555
Be4_5 Ti3_5 2.556273 1_555
Be4_5 Ti3_7 2.556273 1_545
Be4_5 Ti3_3 2.556273 1_545
Be4_5 Ti3_1 2.556273 1_555
Be4_5 Ti2_5 2.556719 1_555
Be4_5 Ti2_1 2.556719 1_555
Be4_5 Ti2_3 2.556719 1_545
Be4_5 Ti2_7 2.556719 1_545
Be4_6 Ti3_4 2.556273 1_555
Be4_6 Ti3_2 2.556273 1_555
Be4_6 Ti3_6 2.556273 1_555
Be4_6 Ti3_0 2.556273 1_555
Be4_6 Ti2_2 2.556719 1_555
Be4_6 Ti2_0 2.556719 1_555
Be4_6 Ti2_6 2.556719 1_555
Be4_6 Ti2_4 2.556719 1_555
Be4_7 Ti3_5 2.556273 1_555
Be4_7 Ti3_3 2.556273 1_555
Be4_7 Ti3_7 2.556273 1_555
Be4_7 Ti3_1 2.556273 1_555
Be4_7 Ti2_5 2.556719 1_555
Be4_7 Ti2_3 2.556719 1_555
Be4_7 Ti2_1 2.556719 1_555
Be4_7 Ti2_7 2.556719 1_555
