# generated using pymatgen
data_BaYCrCuO5
_symmetry_space_group_name_H-M   'P 1'
_cell_length_a   3.91612609
_cell_length_b   3.91618009
_cell_length_c   7.77018100
_cell_angle_alpha   89.99861184
_cell_angle_beta   89.99986759
_cell_angle_gamma   89.97609355
_symmetry_Int_Tables_number   1
_chemical_formula_structural   BaYCrCuO5
_chemical_formula_sum   'Ba1 Y1 Cr1 Cu1 O5'
_cell_volume   119.16546671
_cell_formula_units_Z   1
loop_
 _symmetry_equiv_pos_site_id
 _symmetry_equiv_pos_as_xyz
  1  'x, y, z'
loop_
 _atom_site_type_symbol
 _atom_site_label
 _atom_site_symmetry_multiplicity
 _atom_site_fract_x
 _atom_site_fract_y
 _atom_site_fract_z
 _atom_site_occupancy
  Ba  Ba0  1  0.99999700  0.99999600  0.98528400  1
  Y  Y0  1  0.99999900  0.99999500  0.46263900  1
  Cr  Cr0  1  0.50000400  0.49999200  0.69957000  1
  Cu  Cu0  1  0.49998700  0.49997200  0.24800700  1
  O  O0  1  0.00000000  0.49998000  0.64543800  1
  O  O1  1  0.49999900  0.99998000  0.64543900  1
  O  O2  1  0.00001400  0.50000400  0.27870000  1
  O  O3  1  0.49999700  0.00008700  0.27869800  1
  O  O4  1  0.49999600  0.49998600  0.94414300  1
loop_
_geom_bond_atom_site_label_1
_geom_bond_atom_site_label_2
_geom_bond_distance
_geom_bond_site_symmetry_2
Ba0 O4 2.786925 1_565
Ba0 O4 2.786985 1_655
Ba0 O4 2.788067 1_665
Ba0 O4 2.788139 1_555
Ba0 O2 3.005279 1_656
Ba0 O3 3.005302 1_566
Ba0 O3 3.005309 1_666
Ba0 O2 3.005392 1_666
Ba0 O0 3.287359 1_665
Ba0 O1 3.287412 1_555
Ba0 O1 3.287414 1_655
Ba0 O0 3.287510 1_655
Cr0 O4 1.900376 1_555
Cr0 O1 2.002699 1_555
Cr0 O0 2.002714 1_655
Cr0 O0 2.002746 1_555
Cr0 O1 2.002811 1_545
Cu0 O3 1.972106 1_555
Cu0 O2 1.972428 1_555
Cu0 O2 1.972639 1_655
Cu0 O3 1.973011 1_565
Cu0 O4 2.361078 1_554
O0 Y0 2.418988 1_445
O0 Y0 2.419028 1_455
O1 Y0 2.418988 1_555
O1 Y0 2.418993 1_455
O2 Y0 2.424219 1_455
O2 Y0 2.424220 1_445
O3 Y0 2.424198 1_445
O3 Y0 2.424216 1_545
