# generated using pymatgen
data_V2FeSi
_symmetry_space_group_name_H-M   'P 1'
_cell_length_a   4.57576399
_cell_length_b   4.57584796
_cell_length_c   4.51337363
_cell_angle_alpha   90.00000000
_cell_angle_beta   90.00000000
_cell_angle_gamma   89.95248044
_symmetry_Int_Tables_number   1
_chemical_formula_structural   V2FeSi
_chemical_formula_sum   'V4 Fe2 Si2'
_cell_volume   94.50098608
_cell_formula_units_Z   2
loop_
 _symmetry_equiv_pos_site_id
 _symmetry_equiv_pos_as_xyz
  1  'x, y, z'
loop_
 _atom_site_type_symbol
 _atom_site_label
 _atom_site_symmetry_multiplicity
 _atom_site_fract_x
 _atom_site_fract_y
 _atom_site_fract_z
 _atom_site_occupancy
  V  V0  1  0.49755909  0.49754378  0.50001277  1
  V  V1  1  0.23984964  0.00629132  0.75000000  1
  V  V2  1  0.00627618  0.23984157  0.25000000  1
  V  V3  1  0.49755909  0.49754378  -0.00001277  1
  Fe  Fe0  1  0.74714153  0.00568887  0.75000000  1
  Fe  Fe1  1  0.00567622  0.74715213  0.25000000  1
  Si  Si0  1  0.51057131  0.99537336  0.25000000  1
  Si  Si1  1  0.99536395  0.51056519  0.75000000  1
loop_
_geom_bond_atom_site_label_1
_geom_bond_atom_site_label_2
_geom_bond_distance
_geom_bond_site_symmetry_2
V0 V3 2.256572 1_556
V0 V3 2.256802 1_555
V0 V1 2.778672 1_555
V0 V2 2.778793 1_555
V0 V2 2.842142 1_655
V0 V1 2.842250 1_565
V1 V3 2.778672 1_556
V1 V3 2.842250 1_546
V2 V3 2.778793 1_555
V2 V3 2.842142 1_455
Fe0 V1 2.254520 1_655
Fe0 V1 2.321247 1_555
Fe0 Si0 2.503344 1_546
Fe0 Si0 2.503344 1_545
Fe0 Si1 2.533531 1_545
Fe0 Si1 2.575191 1_555
Fe0 V0 2.763773 1_555
Fe0 V3 2.763773 1_556
Fe0 V0 2.826340 1_545
Fe0 V3 2.826340 1_546
Fe1 V2 2.254476 1_565
Fe1 V2 2.321375 1_555
Fe1 Si1 2.503385 1_455
Fe1 Si1 2.503385 1_454
Fe1 Si0 2.533424 1_455
Fe1 Si0 2.575236 1_555
Fe1 V3 2.763948 1_555
Fe1 V0 2.763948 1_555
Fe1 V0 2.826302 1_455
Fe1 V3 2.826302 1_455
Si0 V2 2.529910 1_665
Si0 V0 2.542894 1_555
Si0 V3 2.542894 1_555
Si0 V3 2.560615 1_565
Si0 V0 2.560615 1_565
Si0 V2 2.563555 1_565
Si0 V1 2.574791 1_565
Si0 V1 2.574791 1_564
Si1 V1 2.530061 1_665
Si1 V3 2.542705 1_556
Si1 V0 2.542705 1_555
Si1 V0 2.560628 1_655
Si1 V3 2.560628 1_656
Si1 V1 2.563532 1_655
Si1 V2 2.574806 1_655
Si1 V2 2.574806 1_656
