# generated using pymatgen
data_SrHoMn2O6
_symmetry_space_group_name_H-M   'P 1'
_cell_length_a   5.44771800
_cell_length_b   5.57790900
_cell_length_c   7.66150200
_cell_angle_alpha   90.00000000
_cell_angle_beta   90.00000000
_cell_angle_gamma   90.00000000
_symmetry_Int_Tables_number   1
_chemical_formula_structural   SrHoMn2O6
_chemical_formula_sum   'Sr2 Ho2 Mn4 O12'
_cell_volume   232.80910559
_cell_formula_units_Z   2
loop_
 _symmetry_equiv_pos_site_id
 _symmetry_equiv_pos_as_xyz
  1  'x, y, z'
loop_
 _atom_site_type_symbol
 _atom_site_label
 _atom_site_symmetry_multiplicity
 _atom_site_fract_x
 _atom_site_fract_y
 _atom_site_fract_z
 _atom_site_occupancy
  Sr  Sr0  1  0.50355800  0.27767000  0.50000000  1
  Sr  Sr1  1  0.00355800  0.72233000  0.00000000  1
  Ho  Ho0  1  0.98316400  0.81157800  0.50000000  1
  Ho  Ho1  1  0.48316400  0.18842200  0.00000000  1
  Mn  Mn0  1  0.99959600  0.25633400  0.75093100  1
  Mn  Mn1  1  0.49959600  0.74366600  0.25093100  1
  Mn  Mn2  1  0.99959600  0.25633400  0.24906900  1
  Mn  Mn3  1  0.49959600  0.74366600  0.74906900  1
  O  O0  1  0.22588600  0.97788100  0.78628300  1
  O  O1  1  0.30348000  0.44936500  0.20064400  1
  O  O2  1  0.80348000  0.55063500  0.29935600  1
  O  O3  1  0.72588600  0.02211900  0.71371700  1
  O  O4  1  0.80348000  0.55063500  0.70064400  1
  O  O5  1  0.72588600  0.02211900  0.28628300  1
  O  O6  1  0.22588600  0.97788100  0.21371700  1
  O  O7  1  0.30348000  0.44936500  0.79935600  1
  O  O8  1  0.05735800  0.21793200  0.50000000  1
  O  O9  1  0.39799600  0.73638900  0.50000000  1
  O  O10  1  0.89799600  0.26361100  0.00000000  1
  O  O11  1  0.55735800  0.78206800  0.00000000  1
loop_
_geom_bond_atom_site_label_1
_geom_bond_atom_site_label_2
_geom_bond_distance
_geom_bond_site_symmetry_2
Ho0 O9 2.298475 1_655
Ho0 O8 2.302362 1_665
Ho0 O4 2.332338 1_555
Ho0 O2 2.332338 1_555
Ho0 O3 2.454515 1_565
Ho0 O5 2.454515 1_565
Ho0 O0 2.723918 1_655
Ho0 O6 2.723918 1_655
Ho1 O10 2.298475 1_555
Ho1 O11 2.302362 1_545
Ho1 O7 2.332338 1_554
Ho1 O1 2.332338 1_555
Ho1 O6 2.454515 1_545
Ho1 O0 2.454515 1_544
Ho1 O5 2.723918 1_555
Ho1 O3 2.723918 1_554
Mn0 O8 1.959831 1_655
Mn0 O10 1.987306 1_556
Mn0 O4 1.996166 1_555
Mn0 O0 2.001363 1_645
Mn0 O3 2.002851 1_555
Mn0 O7 2.009364 1_655
Mn1 O11 1.959831 1_555
Mn1 O9 1.987306 1_555
Mn1 O1 1.996166 1_555
Mn1 O5 2.001363 1_565
Mn1 O6 2.002851 1_555
Mn1 O2 2.009364 1_555
Mn2 O8 1.959831 1_655
Mn2 O10 1.987306 1_555
Mn2 O2 1.996166 1_555
Mn2 O6 2.001363 1_645
Mn2 O5 2.002851 1_555
Mn2 O1 2.009364 1_655
Mn3 O11 1.959831 1_556
Mn3 O9 1.987306 1_555
Mn3 O7 1.996166 1_555
Mn3 O3 2.001363 1_565
Mn3 O0 2.002851 1_555
Mn3 O4 2.009364 1_555
O0 Sr1 2.485939 1_556
O1 Sr1 2.711258 1_555
O1 Sr0 2.713934 1_555
O2 Sr0 2.711258 1_555
O2 Sr1 2.713934 1_655
O3 Sr0 2.485939 1_555
O4 Sr0 2.711258 1_555
O4 Sr1 2.713934 1_656
O5 Sr0 2.485939 1_555
O6 Sr1 2.485939 1_555
O7 Sr1 2.711258 1_556
O7 Sr0 2.713934 1_555
O8 Sr0 2.453504 1_555
O9 Sr0 2.622521 1_555
O10 Sr1 2.622521 1_655
O11 Sr1 2.453504 1_655
