# generated using pymatgen
data_Na3Sm(PO4)2
_symmetry_space_group_name_H-M   'P 1'
_cell_length_a   5.37020633
_cell_length_b   14.02238954
_cell_length_c   18.72349106
_cell_angle_alpha   90.00000000
_cell_angle_beta   90.00000000
_cell_angle_gamma   90.00000000
_symmetry_Int_Tables_number   1
_chemical_formula_structural   Na3Sm(PO4)2
_chemical_formula_sum   'Na24 Sm8 P16 O64'
_cell_volume   1409.93738903
_cell_formula_units_Z   8
loop_
 _symmetry_equiv_pos_site_id
 _symmetry_equiv_pos_as_xyz
  1  'x, y, z'
loop_
 _atom_site_type_symbol
 _atom_site_label
 _atom_site_symmetry_multiplicity
 _atom_site_fract_x
 _atom_site_fract_y
 _atom_site_fract_z
 _atom_site_occupancy
  Na  Na0  1  0.98868136  0.21641535  0.99280509  1
  Na  Na1  1  0.01131864  0.78358465  0.49280509  1
  Na  Na2  1  0.01131864  0.71641535  0.99280509  1
  Na  Na3  1  0.98868136  0.28358465  0.49280509  1
  Na  Na4  1  0.99131243  0.95222598  0.64827014  1
  Na  Na5  1  0.00868757  0.04777402  0.14827014  1
  Na  Na6  1  0.00868757  0.45222598  0.64827014  1
  Na  Na7  1  0.99131243  0.54777402  0.14827014  1
  Na  Na8  1  0.99462391  0.86231370  0.82816219  1
  Na  Na9  1  0.00537609  0.13768630  0.32816219  1
  Na  Na10  1  0.00537609  0.36231370  0.82816219  1
  Na  Na11  1  0.99462391  0.63768630  0.32816219  1
  Na  Na12  1  0.47754468  0.79693835  0.72998202  1
  Na  Na13  1  0.52245532  0.20306165  0.22998202  1
  Na  Na14  1  0.52245532  0.29693835  0.72998202  1
  Na  Na15  1  0.47754468  0.70306165  0.22998202  1
  Na  Na16  1  0.53849346  0.96820720  0.88778170  1
  Na  Na17  1  0.46150654  0.03179280  0.38778170  1
  Na  Na18  1  0.46150654  0.46820720  0.88778170  1
  Na  Na19  1  0.53849346  0.53179280  0.38778170  1
  Na  Na20  1  0.49929927  0.88684642  0.54957710  1
  Na  Na21  1  0.50070073  0.11315358  0.04957710  1
  Na  Na22  1  0.50070073  0.38684642  0.54957710  1
  Na  Na23  1  0.49929927  0.61315358  0.04957710  1
  Sm  Sm0  1  0.92894211  0.61294820  0.80276959  1
  Sm  Sm1  1  0.07105789  0.38705180  0.30276959  1
  Sm  Sm2  1  0.07105789  0.11294820  0.80276959  1
  Sm  Sm3  1  0.92894211  0.88705180  0.30276959  1
  Sm  Sm4  1  0.55652646  0.63682752  0.57420721  1
  Sm  Sm5  1  0.44347354  0.36317248  0.07420721  1
  Sm  Sm6  1  0.44347354  0.13682752  0.57420721  1
  Sm  Sm7  1  0.55652646  0.86317248  0.07420721  1
  P  P0  1  0.96920193  0.47544580  0.98069043  1
  P  P1  1  0.03079807  0.52455420  0.48069043  1
  P  P2  1  0.03079807  0.97544580  0.98069043  1
  P  P3  1  0.96920193  0.02455420  0.48069043  1
  P  P4  1  0.98933994  0.22633107  0.65305231  1
  P  P5  1  0.01066006  0.77366893  0.15305231  1
  P  P6  1  0.01066006  0.72633107  0.65305231  1
  P  P7  1  0.98933994  0.27366893  0.15305231  1
  P  P8  1  0.47740104  0.52280072  0.72449564  1
  P  P9  1  0.52259896  0.47719928  0.22449564  1
  P  P10  1  0.52259896  0.02280072  0.72449564  1
  P  P11  1  0.47740104  0.97719928  0.22449564  1
  P  P12  1  0.46171758  0.72647910  0.89639731  1
  P  P13  1  0.53828242  0.27352090  0.39639731  1
  P  P14  1  0.53828242  0.22647910  0.89639731  1
  P  P15  1  0.46171758  0.77352090  0.39639731  1
  O  O0  1  0.57984583  0.80616245  0.85091299  1
  O  O1  1  0.42015417  0.19383755  0.35091299  1
  O  O2  1  0.42015417  0.30616245  0.85091299  1
  O  O3  1  0.57984583  0.69383755  0.35091299  1
  O  O4  1  0.69521191  0.47071636  0.76343939  1
  O  O5  1  0.30478809  0.52928364  0.26343939  1
  O  O6  1  0.30478809  0.97071636  0.76343939  1
  O  O7  1  0.69521191  0.02928364  0.26343939  1
  O  O8  1  0.88955347  0.87974309  0.99419425  1
  O  O9  1  0.11044653  0.12025691  0.49419425  1
  O  O10  1  0.11044653  0.37974309  0.99419425  1
  O  O11  1  0.88955347  0.62025691  0.49419425  1
  O  O12  1  0.79604201  0.77728462  0.61175699  1
  O  O13  1  0.20395799  0.22271538  0.11175699  1
  O  O14  1  0.20395799  0.27728462  0.61175699  1
  O  O15  1  0.79604201  0.72271538  0.11175699  1
  O  O16  1  0.68640500  0.46299965  0.99932992  1
  O  O17  1  0.31359500  0.53700035  0.49932992  1
  O  O18  1  0.31359500  0.96299965  0.99932992  1
  O  O19  1  0.68640500  0.03700035  0.49932992  1
  O  O20  1  0.91399192  0.44509192  0.52713540  1
  O  O21  1  0.08600808  0.55490808  0.02713540  1
  O  O22  1  0.08600808  0.94509192  0.52713540  1
  O  O23  1  0.91399192  0.05490808  0.02713540  1
  O  O24  1  0.77217888  0.99598871  0.76108150  1
  O  O25  1  0.22782112  0.00401129  0.26108150  1
  O  O26  1  0.22782112  0.49598871  0.76108150  1
  O  O27  1  0.77217888  0.50401129  0.26108150  1
  O  O28  1  0.60475581  0.63082662  0.88450193  1
  O  O29  1  0.39524419  0.36917338  0.38450193  1
  O  O30  1  0.39524419  0.13082662  0.88450193  1
  O  O31  1  0.60475581  0.86917338  0.38450193  1
  O  O32  1  0.52779452  0.63174604  0.72827108  1
  O  O33  1  0.47220548  0.36825396  0.22827108  1
  O  O34  1  0.47220548  0.13174604  0.72827108  1
  O  O35  1  0.52779452  0.86825396  0.22827108  1
  O  O36  1  0.96245520  0.61741654  0.65004941  1
  O  O37  1  0.03754480  0.38258346  0.15004941  1
  O  O38  1  0.03754480  0.11741654  0.65004941  1
  O  O39  1  0.96245520  0.88258346  0.15004941  1
  O  O40  1  0.81887708  0.21286267  0.87503467  1
  O  O41  1  0.18112292  0.78713733  0.37503467  1
  O  O42  1  0.18112292  0.71286267  0.87503467  1
  O  O43  1  0.81887708  0.28713733  0.37503467  1
  O  O44  1  0.99124028  0.25872323  0.73248135  1
  O  O45  1  0.00875972  0.74127677  0.23248135  1
  O  O46  1  0.00875972  0.75872323  0.73248135  1
  O  O47  1  0.99124028  0.24127677  0.23248135  1
  O  O48  1  0.52798261  0.99253208  0.64457750  1
  O  O49  1  0.47201739  0.00746792  0.14457750  1
  O  O50  1  0.47201739  0.49253208  0.64457750  1
  O  O51  1  0.52798261  0.50746792  0.14457750  1
  O  O52  1  0.00245791  0.99847832  0.89960236  1
  O  O53  1  0.99754209  0.00152168  0.39960236  1
  O  O54  1  0.99754209  0.49847832  0.89960236  1
  O  O55  1  0.00245791  0.50152168  0.39960236  1
  O  O56  1  0.26297562  0.75345883  0.61815926  1
  O  O57  1  0.73702438  0.24654117  0.11815926  1
  O  O58  1  0.73702438  0.25345883  0.61815926  1
  O  O59  1  0.26297562  0.74654117  0.11815926  1
  O  O60  1  0.47137190  0.74921726  0.97788128  1
  O  O61  1  0.52862810  0.25078274  0.47788128  1
  O  O62  1  0.52862810  0.24921726  0.97788128  1
  O  O63  1  0.47137190  0.75078274  0.47788128  1
loop_
_geom_bond_atom_site_label_1
_geom_bond_atom_site_label_2
_geom_bond_distance
_geom_bond_site_symmetry_2
Na0 O10 2.381909 1_655
Na0 O40 2.386705 1_555
Na0 O23 2.388095 1_556
Na0 O13 2.510921 1_656
Na0 O62 2.528520 1_555
Na0 O57 2.741094 1_556
Na0 O62 2.949147 1_655
Na1 O11 2.381909 1_455
Na1 O41 2.386705 1_555
Na1 O22 2.388095 1_555
Na1 O12 2.510921 1_455
Na1 O63 2.528520 1_555
Na1 O56 2.741094 1_555
Na1 O63 2.949147 1_455
Na2 O8 2.381909 1_455
Na2 O42 2.386705 1_555
Na2 O21 2.388095 1_556
Na2 O15 2.510921 1_456
Na2 O60 2.528520 1_555
Na2 O59 2.741094 1_556
Na2 O60 2.949147 1_455
Na3 O9 2.381909 1_655
Na3 O43 2.386705 1_555
Na3 O20 2.388095 1_555
Na3 O14 2.510921 1_655
Na3 O61 2.528520 1_555
Na3 O58 2.741094 1_555
Na3 O61 2.949147 1_655
Na4 O22 2.326529 1_655
Na4 O38 2.329872 1_665
Na4 O24 2.494574 1_555
Na4 O48 2.552497 1_555
Na4 O6 2.747925 1_655
Na4 O12 2.754036 1_555
Na4 O48 2.937739 1_655
Na5 O23 2.326529 1_455
Na5 O39 2.329872 1_445
Na5 O25 2.494574 1_555
Na5 O49 2.552497 1_555
Na5 O7 2.747925 1_455
Na5 O13 2.754036 1_555
Na5 O49 2.937739 1_455
Na6 O20 2.326529 1_455
Na6 O36 2.329872 1_455
Na6 O26 2.494574 1_555
Na6 O50 2.552497 1_555
Na6 O4 2.747925 1_455
Na6 O14 2.754036 1_555
Na6 O50 2.937739 1_455
Na7 O21 2.326529 1_655
Na7 O37 2.329872 1_655
Na7 O27 2.494574 1_555
Na7 O51 2.552497 1_555
Na7 O5 2.747925 1_655
Na7 O15 2.754036 1_555
Na7 O51 2.937739 1_655
Na8 O46 2.307632 1_655
Na8 O52 2.331652 1_655
Na8 O0 2.400608 1_555
Na8 O42 2.482958 1_655
Na8 O24 2.553046 1_555
Na8 O6 2.559984 1_655
Na9 O47 2.307632 1_455
Na9 O53 2.331652 1_455
Na9 O1 2.400608 1_555
Na9 O43 2.482958 1_455
Na9 O25 2.553046 1_555
Na9 O7 2.559984 1_455
Na10 O44 2.307632 1_455
Na10 O54 2.331652 1_455
Na10 O2 2.400608 1_555
Na10 O40 2.482958 1_455
Na10 O26 2.553046 1_555
Na10 O4 2.559984 1_455
Na11 O45 2.307632 1_655
Na11 O55 2.331652 1_655
Na11 O3 2.400608 1_555
Na11 O41 2.482958 1_655
Na11 O27 2.553046 1_555
Na11 O5 2.559984 1_655
Na12 O32 2.332276 1_555
Na12 O0 2.333533 1_555
Na12 O56 2.466394 1_555
Na12 O46 2.574298 1_555
Na12 O6 2.681611 1_555
Na12 O12 2.810937 1_555
Na12 O46 2.903005 1_655
Na13 O33 2.332276 1_555
Na13 O1 2.333533 1_555
Na13 O57 2.466394 1_555
Na13 O47 2.574298 1_555
Na13 O7 2.681611 1_555
Na13 O13 2.810937 1_555
Na13 O47 2.903005 1_455
Na14 O34 2.332276 1_555
Na14 O2 2.333533 1_555
Na14 O58 2.466394 1_555
Na14 O44 2.574298 1_555
Na14 O4 2.681611 1_555
Na14 O14 2.810937 1_555
Na14 O44 2.903005 1_455
Na15 O35 2.332276 1_555
Na15 O3 2.333533 1_555
Na15 O59 2.466394 1_555
Na15 O45 2.574298 1_555
Na15 O5 2.681611 1_555
Na15 O15 2.810937 1_555
Na15 O45 2.903005 1_655
Na16 O0 2.385159 1_555
Na16 O30 2.407361 1_565
Na16 O18 2.413737 1_555
Na16 O52 2.537155 1_655
Na16 O6 2.645096 1_555
Na16 O24 2.711881 1_555
Na17 O1 2.385159 1_555
Na17 O31 2.407361 1_545
Na17 O19 2.413737 1_555
Na17 O53 2.537155 1_455
Na17 O7 2.645096 1_555
Na17 O25 2.711881 1_555
Na18 O2 2.385159 1_555
Na18 O28 2.407361 1_555
Na18 O16 2.413737 1_555
Na18 O54 2.537155 1_455
Na18 O4 2.645096 1_555
Na18 O26 2.711881 1_555
Na19 O3 2.385159 1_555
Na19 O29 2.407361 1_555
Na19 O17 2.413737 1_555
Na19 O55 2.537155 1_655
Na19 O5 2.645096 1_555
Na19 O27 2.711881 1_555
Na20 O48 2.320315 1_555
Na20 O63 2.337680 1_555
Na20 O22 2.402004 1_555
Na20 O12 2.501031 1_555
Na20 O19 2.515537 1_565
Na20 O56 2.599612 1_555
Na21 O49 2.320315 1_555
Na21 O62 2.337680 1_554
Na21 O23 2.402004 1_555
Na21 O13 2.501031 1_555
Na21 O18 2.515537 1_544
Na21 O57 2.599612 1_555
Na22 O50 2.320315 1_555
Na22 O61 2.337680 1_555
Na22 O20 2.402004 1_555
Na22 O14 2.501031 1_555
Na22 O17 2.515537 1_555
Na22 O58 2.599612 1_555
Na23 O51 2.320315 1_555
Na23 O60 2.337680 1_554
Na23 O21 2.402004 1_555
Na23 O15 2.501031 1_555
Na23 O16 2.515537 1_554
Na23 O59 2.599612 1_555
O0 P12 1.541482 1_555
O1 P13 1.541482 1_555
O2 P14 1.541482 1_555
O3 P15 1.541482 1_555
O4 P8 1.559891 1_555
O4 Sm0 2.468909 1_555
O5 P9 1.559891 1_555
O5 Sm1 2.468909 1_555
O6 P10 1.559891 1_565
O6 Sm2 2.468909 1_565
O7 P11 1.559891 1_545
O7 Sm3 2.468909 1_545
O8 P2 1.562108 1_655
O8 Sm7 2.344530 1_556
O9 P3 1.562108 1_455
O9 Sm6 2.344530 1_555
O10 P0 1.562108 1_455
O10 Sm5 2.344530 1_556
O11 P1 1.562108 1_655
O11 Sm4 2.344530 1_555
O12 P6 1.560987 1_655
O12 Sm4 2.455165 1_555
O13 P7 1.560987 1_455
O13 Sm5 2.455165 1_555
O14 P4 1.560987 1_455
O14 Sm6 2.455165 1_555
O15 P5 1.560987 1_655
O15 Sm7 2.455165 1_555
O16 P0 1.568005 1_555
O16 Sm5 2.372119 1_556
O17 P1 1.568005 1_555
O17 Sm4 2.372119 1_555
O18 P2 1.568005 1_555
O18 Sm7 2.372119 1_556
O19 P3 1.568005 1_555
O19 Sm6 2.372119 1_555
O20 P1 1.546367 1_655
O21 P0 1.546367 1_454
O22 P3 1.546367 1_465
O23 P2 1.546367 1_644
O24 P10 1.551448 1_565
O24 Sm2 2.423877 1_665
O25 P11 1.551448 1_545
O25 Sm3 2.423877 1_445
O26 P8 1.551448 1_555
O26 Sm0 2.423877 1_455
O27 P9 1.551448 1_555
O27 Sm1 2.423877 1_655
O28 P12 1.561626 1_555
O28 Sm0 2.331440 1_555
O29 P13 1.561626 1_555
O29 Sm1 2.331440 1_555
O30 P14 1.561626 1_555
O30 Sm2 2.331440 1_555
O31 P15 1.561626 1_555
O31 Sm3 2.331440 1_555
O32 P8 1.553068 1_555
O32 Sm0 2.579907 1_555
O32 Sm4 2.889616 1_555
O33 P9 1.553068 1_555
O33 Sm1 2.579907 1_555
O33 Sm5 2.889616 1_555
O34 P10 1.553068 1_555
O34 Sm2 2.579907 1_555
O34 Sm6 2.889616 1_555
O35 P11 1.553068 1_555
O35 Sm3 2.579907 1_555
O35 Sm7 2.889616 1_555
O36 P6 1.550046 1_655
O36 Sm4 2.615842 1_555
O36 Sm0 2.865798 1_555
O37 P7 1.550046 1_455
O37 Sm5 2.615842 1_555
O37 Sm1 2.865798 1_555
O38 P4 1.550046 1_455
O38 Sm6 2.615842 1_555
O38 Sm2 2.865798 1_555
O39 P5 1.550046 1_655
O39 Sm7 2.615842 1_555
O39 Sm3 2.865798 1_555
O40 P14 1.570682 1_555
O40 Sm2 2.372277 1_655
O41 P15 1.570682 1_555
O41 Sm3 2.372277 1_455
O42 P12 1.570682 1_555
O42 Sm0 2.372277 1_455
O43 P13 1.570682 1_555
O43 Sm1 2.372277 1_655
O44 P4 1.555039 1_555
O44 Sm2 2.468623 1_655
O45 P5 1.555039 1_555
O45 Sm3 2.468623 1_455
O46 P6 1.555039 1_555
O46 Sm0 2.468623 1_455
O47 P7 1.555039 1_555
O47 Sm1 2.468623 1_655
O48 P10 1.555647 1_565
O48 Sm6 2.456825 1_565
O49 P11 1.555647 1_545
O49 Sm7 2.456825 1_545
O50 P8 1.555647 1_555
O50 Sm4 2.456825 1_555
O51 P9 1.555647 1_555
O51 Sm5 2.456825 1_555
O52 P2 1.559667 1_555
O52 Sm2 2.449354 1_565
O53 P3 1.559667 1_555
O53 Sm3 2.449354 1_545
O54 P0 1.559667 1_555
O54 Sm0 2.449354 1_555
O55 P1 1.559667 1_555
O55 Sm1 2.449354 1_555
O56 P6 1.551617 1_555
O56 Sm4 2.415998 1_555
O57 P7 1.551617 1_555
O57 Sm5 2.415998 1_555
O58 P4 1.551617 1_555
O58 Sm6 2.415998 1_555
O59 P5 1.551617 1_555
O59 Sm7 2.415998 1_555
O60 P12 1.559487 1_555
O60 Sm7 2.452612 1_556
O61 P13 1.559487 1_555
O61 Sm6 2.452612 1_555
O62 P14 1.559487 1_555
O62 Sm5 2.452612 1_556
O63 P15 1.559487 1_555
O63 Sm4 2.452612 1_555
