# generated using pymatgen
data_KNaMg6
_symmetry_space_group_name_H-M   'P 1'
_cell_length_a   5.46553700
_cell_length_b   6.45770600
_cell_length_c   12.69555000
_cell_angle_alpha   90.00000000
_cell_angle_beta   90.00000000
_cell_angle_gamma   90.00000000
_symmetry_Int_Tables_number   1
_chemical_formula_structural   KNaMg6
_chemical_formula_sum   'K2 Na2 Mg12'
_cell_volume   448.08729269
_cell_formula_units_Z   2
loop_
 _symmetry_equiv_pos_site_id
 _symmetry_equiv_pos_as_xyz
  1  'x, y, z'
loop_
 _atom_site_type_symbol
 _atom_site_label
 _atom_site_symmetry_multiplicity
 _atom_site_fract_x
 _atom_site_fract_y
 _atom_site_fract_z
 _atom_site_occupancy
  K  K0  1  0.50000000  0.50000000  0.67676200  1
  K  K1  1  0.50000000  0.00000000  0.17676200  1
  Na  Na0  1  0.50000000  0.00000000  0.67244100  1
  Na  Na1  1  0.50000000  0.50000000  0.17244100  1
  Mg  Mg0  1  0.50000000  0.74981200  0.92306200  1
  Mg  Mg1  1  0.50000000  0.25018800  0.92306200  1
  Mg  Mg2  1  0.00000000  0.24430000  0.56225100  1
  Mg  Mg3  1  0.00000000  0.75570000  0.56225100  1
  Mg  Mg4  1  0.00000000  0.50000000  0.84577900  1
  Mg  Mg5  1  0.00000000  0.00000000  0.83438700  1
  Mg  Mg6  1  0.50000000  0.24981200  0.42306200  1
  Mg  Mg7  1  0.50000000  0.75018800  0.42306200  1
  Mg  Mg8  1  0.00000000  0.74430000  0.06225100  1
  Mg  Mg9  1  0.00000000  0.25570000  0.06225100  1
  Mg  Mg10  1  0.00000000  0.00000000  0.34577900  1
  Mg  Mg11  1  0.00000000  0.50000000  0.33438700  1
loop_
_geom_bond_atom_site_label_1
_geom_bond_atom_site_label_2
_geom_bond_distance
_geom_bond_site_symmetry_2
K0 Na0 3.229319 1_565
K0 Na0 3.229319 1_555
K0 Mg4 3.474525 1_655
K0 Mg4 3.474525 1_555
K0 Mg3 3.508287 1_655
K0 Mg2 3.508287 1_555
K0 Mg3 3.508287 1_555
K0 Mg2 3.508287 1_655
K0 Mg0 3.518529 1_555
K0 Mg1 3.518529 1_555
K0 Mg6 3.603365 1_555
K0 Mg7 3.603365 1_555
K1 Na1 3.229319 1_545
K1 Na1 3.229319 1_555
K1 Mg10 3.474525 1_555
K1 Mg10 3.474525 1_655
K1 Mg9 3.508287 1_555
K1 Mg9 3.508287 1_655
K1 Mg8 3.508287 1_545
K1 Mg8 3.508287 1_645
K1 Mg7 3.518529 1_545
K1 Mg6 3.518529 1_555
K1 Mg0 3.603365 1_544
K1 Mg1 3.603365 1_554
Mg0 Mg1 3.226425 1_555
Mg0 Mg1 3.231281 1_565
Mg0 Mg8 3.254515 1_656
Mg0 Mg8 3.254515 1_556
Mg0 Mg4 3.321616 1_555
Mg0 Mg4 3.321616 1_655
Mg0 Mg5 3.368337 1_665
Mg0 Mg5 3.368337 1_565
Mg0 Na1 3.553313 1_556
Mg0 Na0 3.568468 1_565
Mg1 Mg9 3.254515 1_556
Mg1 Mg9 3.254515 1_656
Mg1 Mg4 3.321616 1_655
Mg1 Mg4 3.321616 1_555
Mg1 Mg5 3.368337 1_655
Mg1 Mg5 3.368337 1_555
Mg1 Na1 3.553313 1_556
Mg1 Na0 3.568468 1_555
Mg2 Mg3 3.155235 1_545
Mg2 Mg6 3.254515 1_455
Mg2 Mg6 3.254515 1_555
Mg2 Mg3 3.302471 1_555
Mg2 Na0 3.451650 1_455
Mg2 Na0 3.451650 1_555
Mg3 Mg7 3.254515 1_455
Mg3 Mg7 3.254515 1_555
Mg3 Na0 3.451650 1_565
Mg3 Na0 3.451650 1_465
Mg4 Mg8 3.168856 1_556
Mg4 Mg9 3.168856 1_556
Mg4 Mg5 3.232090 1_555
Mg4 Mg5 3.232090 1_565
Mg5 Mg9 3.330947 1_556
Mg5 Mg8 3.330947 1_546
Mg5 Na0 3.419815 1_455
Mg5 Na0 3.419815 1_555
Mg6 Mg7 3.226425 1_545
Mg6 Mg7 3.231281 1_555
Mg6 Na0 3.553313 1_555
Mg6 Na1 3.568468 1_555
Mg7 Na0 3.553313 1_565
Mg7 Na1 3.568468 1_555
Mg8 Mg9 3.155235 1_555
Mg8 Mg9 3.302471 1_565
Mg8 Na1 3.451650 1_455
Mg8 Na1 3.451650 1_555
Mg9 Na1 3.451650 1_555
Mg9 Na1 3.451650 1_455
Mg10 Mg3 3.168856 1_545
Mg10 Mg2 3.168856 1_555
Mg10 Mg11 3.232090 1_555
Mg10 Mg11 3.232090 1_545
Mg10 Mg6 3.321616 1_555
Mg10 Mg7 3.321616 1_445
Mg10 Mg7 3.321616 1_545
Mg10 Mg6 3.321616 1_455
Mg11 Mg3 3.330947 1_555
Mg11 Mg2 3.330947 1_555
Mg11 Mg7 3.368337 1_555
Mg11 Mg6 3.368337 1_455
Mg11 Mg6 3.368337 1_555
Mg11 Mg7 3.368337 1_455
Mg11 Na1 3.419815 1_555
Mg11 Na1 3.419815 1_455
