# generated using pymatgen
data_Li3Co2O5
_symmetry_space_group_name_H-M   'P 1'
_cell_length_a   5.16439243
_cell_length_b   5.16439243
_cell_length_c   12.26122235
_cell_angle_alpha   79.86772981
_cell_angle_beta   79.86772981
_cell_angle_gamma   33.75431306
_symmetry_Int_Tables_number   1
_chemical_formula_structural   Li3Co2O5
_chemical_formula_sum   'Li6 Co4 O10'
_cell_volume   178.60530408
_cell_formula_units_Z   2
loop_
 _symmetry_equiv_pos_site_id
 _symmetry_equiv_pos_as_xyz
  1  'x, y, z'
loop_
 _atom_site_type_symbol
 _atom_site_label
 _atom_site_symmetry_multiplicity
 _atom_site_fract_x
 _atom_site_fract_y
 _atom_site_fract_z
 _atom_site_occupancy
  Li  Li0  1  0.30431500  0.30431500  0.39927900  1
  Li  Li1  1  0.69568500  0.69568500  0.60072100  1
  Li  Li2  1  0.09840900  0.09840900  0.79933900  1
  Li  Li3  1  0.50000000  0.50000000  0.00000000  1
  Li  Li4  1  0.90159100  0.90159100  0.20066100  1
  Li  Li5  1  0.00000000  0.00000000  0.50000000  1
  Co  Co0  1  0.59618600  0.59618600  0.30798200  1
  Co  Co1  1  0.40381400  0.40381400  0.69201800  1
  Co  Co2  1  0.79944100  0.79944100  0.89821700  1
  Co  Co3  1  0.20055900  0.20055900  0.10178300  1
  O  O0  1  0.24213000  0.24213000  0.24561500  1
  O  O1  1  0.65054500  0.65054500  0.43453200  1
  O  O2  1  0.03586000  0.03586000  0.65386800  1
  O  O3  1  0.43983900  0.43983900  0.84072700  1
  O  O4  1  0.84455300  0.84455300  0.04480700  1
  O  O5  1  0.34945500  0.34945500  0.56546800  1
  O  O6  1  0.75787000  0.75787000  0.75438500  1
  O  O7  1  0.15544700  0.15544700  0.95519300  1
  O  O8  1  0.56016100  0.56016100  0.15927300  1
  O  O9  1  0.96414000  0.96414000  0.34613200  1
loop_
_geom_bond_atom_site_label_1
_geom_bond_atom_site_label_2
_geom_bond_distance
_geom_bond_site_symmetry_2
Li0 O0 2.086485 1_555
Li0 O1 2.122080 1_545
Li0 O1 2.122080 1_455
Li0 O5 2.164594 1_555
Li0 O9 2.188513 1_545
Li0 O9 2.188513 1_455
Li1 O6 2.086485 1_555
Li1 O5 2.122080 1_565
Li1 O5 2.122080 1_655
Li1 O1 2.164594 1_555
Li1 O2 2.188513 1_565
Li1 O2 2.188513 1_655
Li2 O2 1.992251 1_555
Li2 O7 2.089426 1_555
Li2 O3 2.160900 1_545
Li2 O3 2.160900 1_455
Li2 O6 2.171745 1_545
Li2 O6 2.171745 1_455
Li3 O3 2.143429 1_554
Li3 O8 2.143429 1_555
Li3 O4 2.144776 1_455
Li3 O4 2.144776 1_545
Li3 O7 2.144776 1_654
Li3 O7 2.144776 1_564
Li4 O9 1.992251 1_555
Li4 O4 2.089426 1_555
Li4 O8 2.160900 1_565
Li4 O8 2.160900 1_655
Li4 O0 2.171745 1_565
Li4 O0 2.171745 1_655
Li5 O2 1.982620 1_555
Li5 O9 1.982620 1_445
Li5 O5 2.160382 1_545
Li5 O5 2.160382 1_455
Li5 O1 2.160382 1_545
Li5 O1 2.160382 1_455
Co0 O1 1.732869 1_555
Co0 O8 1.920967 1_555
Co0 O9 1.986378 1_545
Co0 O9 1.986378 1_455
Co0 O0 2.123199 1_565
Co0 O0 2.123199 1_655
Co1 O5 1.732869 1_555
Co1 O3 1.920967 1_555
Co1 O2 1.986378 1_655
Co1 O2 1.986378 1_565
Co1 O6 2.123199 1_545
Co1 O6 2.123199 1_455
Co2 O6 1.882919 1_555
Co2 O4 1.929773 1_556
Co2 O3 2.076266 1_565
Co2 O3 2.076266 1_655
Co2 O7 2.096671 1_655
Co2 O7 2.096671 1_565
Co3 O0 1.882919 1_555
Co3 O7 1.929773 1_554
Co3 O8 2.076266 1_455
Co3 O8 2.076266 1_545
Co3 O4 2.096671 1_545
Co3 O4 2.096671 1_455
