# generated using pymatgen
data_Ag3Te(PO7)2
_symmetry_space_group_name_H-M   'P 1'
_cell_length_a   7.85925433
_cell_length_b   7.85925433
_cell_length_c   10.17340400
_cell_angle_alpha   90.00000000
_cell_angle_beta   90.00000000
_cell_angle_gamma   120.00000278
_symmetry_Int_Tables_number   1
_chemical_formula_structural   Ag3Te(PO7)2
_chemical_formula_sum   'Ag6 Te2 P4 O28'
_cell_volume   544.20132753
_cell_formula_units_Z   2
loop_
 _symmetry_equiv_pos_site_id
 _symmetry_equiv_pos_as_xyz
  1  'x, y, z'
loop_
 _atom_site_type_symbol
 _atom_site_label
 _atom_site_symmetry_multiplicity
 _atom_site_fract_x
 _atom_site_fract_y
 _atom_site_fract_z
 _atom_site_occupancy
  Ag  Ag0  1  0.52310100  0.04620200  0.25000000  1
  Ag  Ag1  1  0.95379800  0.47689900  0.25000000  1
  Ag  Ag2  1  0.47689900  0.95379800  0.75000000  1
  Ag  Ag3  1  0.04620200  0.52310100  0.75000000  1
  Ag  Ag4  1  0.52310100  0.47689900  0.25000000  1
  Ag  Ag5  1  0.47689900  0.52310100  0.75000000  1
  Te  Te0  1  0.00000000  0.00000000  0.25000000  1
  Te  Te1  1  0.00000000  0.00000000  0.75000000  1
  P  P0  1  0.33333300  0.66666700  0.04262000  1
  P  P1  1  0.66666700  0.33333300  0.54262000  1
  P  P2  1  0.66666700  0.33333300  0.95738000  1
  P  P3  1  0.33333300  0.66666700  0.45738000  1
  O  O0  1  0.33333300  0.66666700  0.61291900  1
  O  O1  1  0.66666700  0.33333300  0.11291900  1
  O  O2  1  0.66666700  0.33333300  0.38708100  1
  O  O3  1  0.33333300  0.66666700  0.88708100  1
  O  O4  1  0.23364000  0.19887600  0.15824400  1
  O  O5  1  0.80112400  0.03476400  0.15824400  1
  O  O6  1  0.76636000  0.80112400  0.65824400  1
  O  O7  1  0.19887600  0.23364000  0.84175600  1
  O  O8  1  0.96523600  0.76636000  0.15824400  1
  O  O9  1  0.19887600  0.96523600  0.65824400  1
  O  O10  1  0.03476400  0.80112400  0.84175600  1
  O  O11  1  0.80112400  0.76636000  0.34175600  1
  O  O12  1  0.03476400  0.23364000  0.65824400  1
  O  O13  1  0.96523600  0.19887600  0.34175600  1
  O  O14  1  0.76636000  0.96523600  0.84175600  1
  O  O15  1  0.23364000  0.03476400  0.34175600  1
  O  O16  1  0.14222100  0.48677700  0.09198800  1
  O  O17  1  0.51322300  0.65544300  0.09198800  1
  O  O18  1  0.85777900  0.51322300  0.59198800  1
  O  O19  1  0.48677700  0.14222100  0.90801200  1
  O  O20  1  0.34455700  0.85777900  0.09198800  1
  O  O21  1  0.48677700  0.34455700  0.59198800  1
  O  O22  1  0.65544300  0.51322300  0.90801200  1
  O  O23  1  0.51322300  0.85777900  0.40801200  1
  O  O24  1  0.65544300  0.14222100  0.59198800  1
  O  O25  1  0.34455700  0.48677700  0.40801200  1
  O  O26  1  0.85777900  0.34455700  0.90801200  1
  O  O27  1  0.14222100  0.65544300  0.40801200  1
loop_
_geom_bond_atom_site_label_1
_geom_bond_atom_site_label_2
_geom_bond_distance
_geom_bond_site_symmetry_2
Ag0 O20 2.160586 1_545
Ag0 O23 2.160588 1_545
Ag0 O2 2.400866 1_555
Ag0 O1 2.400866 1_555
Ag0 O15 2.418746 1_555
Ag0 O5 2.418746 1_555
Ag1 O27 2.160586 1_655
Ag1 O16 2.160588 1_655
Ag1 O2 2.400866 1_555
Ag1 O1 2.400866 1_555
Ag1 O8 2.418746 1_555
Ag1 O13 2.418746 1_555
Ag2 O24 2.160586 1_565
Ag2 O19 2.160588 1_565
Ag2 O3 2.400866 1_555
Ag2 O0 2.400866 1_555
Ag2 O14 2.418746 1_555
Ag2 O9 2.418746 1_555
Ag3 O26 2.160586 1_455
Ag3 O18 2.160588 1_455
Ag3 O3 2.400866 1_555
Ag3 O0 2.400866 1_555
Ag3 O12 2.418746 1_555
Ag3 O10 2.418746 1_555
Ag4 O25 2.160583 1_555
Ag4 O17 2.160583 1_555
Ag4 O2 2.400872 1_555
Ag4 O1 2.400872 1_555
Ag4 O4 2.418746 1_555
Ag4 O11 2.418746 1_555
Ag5 O21 2.160583 1_555
Ag5 O22 2.160583 1_555
Ag5 O0 2.400872 1_555
Ag5 O3 2.400872 1_555
Ag5 O7 2.418746 1_555
Ag5 O6 2.418746 1_555
O0 P3 1.582361 1_555
O1 P2 1.582361 1_554
O2 P1 1.582361 1_555
O3 P0 1.582361 1_556
O4 Te0 1.953480 1_555
O5 Te0 1.953480 1_655
O6 Te1 1.953480 1_665
O7 Te1 1.953480 1_555
O8 Te0 1.953480 1_665
O9 Te1 1.953480 1_565
O10 Te1 1.953480 1_565
O11 Te0 1.953480 1_665
O12 Te1 1.953480 1_555
O13 Te0 1.953480 1_655
O14 Te1 1.953480 1_665
O15 Te0 1.953480 1_555
O16 P0 1.543875 1_555
O17 P0 1.543883 1_555
O18 P1 1.543875 1_555
O19 P2 1.543875 1_555
O20 P0 1.543868 1_555
O21 P1 1.543883 1_555
O22 P2 1.543883 1_555
O23 P3 1.543875 1_555
O24 P1 1.543868 1_555
O25 P3 1.543883 1_555
O26 P2 1.543868 1_555
O27 P3 1.543868 1_555
