# generated using pymatgen
data_Li7Mn4CoO12
_symmetry_space_group_name_H-M   'P 1'
_cell_length_a   5.89669200
_cell_length_b   5.95218376
_cell_length_c   6.54230453
_cell_angle_alpha   103.26375342
_cell_angle_beta   104.11227547
_cell_angle_gamma   88.39996846
_symmetry_Int_Tables_number   1
_chemical_formula_structural   Li7Mn4CoO12
_chemical_formula_sum   'Li7 Mn4 Co1 O12'
_cell_volume   216.65698591
_cell_formula_units_Z   1
loop_
 _symmetry_equiv_pos_site_id
 _symmetry_equiv_pos_as_xyz
  1  'x, y, z'
loop_
 _atom_site_type_symbol
 _atom_site_label
 _atom_site_symmetry_multiplicity
 _atom_site_fract_x
 _atom_site_fract_y
 _atom_site_fract_z
 _atom_site_occupancy
  Li  Li0  1  0.16847000  0.15567000  0.64934200  1
  Li  Li1  1  0.83271100  0.33561100  0.33675600  1
  Li  Li2  1  0.49913300  0.51322000  0.01340100  1
  Li  Li3  1  0.16994900  0.67495200  0.65853100  1
  Li  Li4  1  0.82894100  0.82692500  0.33639200  1
  Li  Li5  1  0.50071700  0.99022900  0.00421600  1
  Li  Li6  1  0.33623300  0.83359000  0.33592800  1
  Mn  Mn0  1  0.00237500  0.99623400  0.99823700  1
  Mn  Mn1  1  0.33725600  0.33732800  0.33266600  1
  Mn  Mn2  1  0.66128300  0.16279800  0.66391500  1
  Mn  Mn3  1  0.00195600  0.50503800  0.00318800  1
  Co  Co0  1  0.65645100  0.66897000  0.66273800  1
  O  O0  1  0.90909700  0.93762200  0.67583600  1
  O  O1  1  0.57802400  0.10182900  0.35166000  1
  O  O2  1  0.25099700  0.27856800  0.01892400  1
  O  O3  1  0.90144200  0.40565300  0.68905700  1
  O  O4  1  0.56750400  0.56343500  0.34069000  1
  O  O5  1  0.21512200  0.73771300  0.98829400  1
  O  O6  1  0.41667600  0.39064300  0.64610200  1
  O  O7  1  0.09276400  0.56648800  0.31823100  1
  O  O8  1  0.76090600  0.72793400  0.00537700  1
  O  O9  1  0.44229400  0.93881100  0.67788800  1
  O  O10  1  0.09758100  0.09851600  0.30907700  1
  O  O11  1  0.77211600  0.25221900  0.98355300  1
loop_
_geom_bond_atom_site_label_1
_geom_bond_atom_site_label_2
_geom_bond_distance
_geom_bond_site_symmetry_2
Li0 O9 2.038454 1_545
Li0 O6 2.059537 1_555
Li0 O0 2.096912 1_445
Li0 O10 2.110148 1_555
Li0 O3 2.156864 1_455
Li0 O2 2.291883 1_556
Li1 O4 2.042138 1_555
Li1 O10 2.088380 1_655
Li1 O1 2.109887 1_555
Li1 O7 2.130583 1_655
Li1 O3 2.182529 1_555
Li1 O11 2.189664 1_554
Li2 O4 2.031947 1_555
Li2 O8 2.049204 1_555
Li2 O2 2.063012 1_555
Li2 O5 2.111582 1_554
Li2 O11 2.217460 1_554
Li2 O6 2.277852 1_554
Li3 O5 2.054368 1_555
Li3 O7 2.107914 1_555
Li3 O0 2.166235 1_455
Li3 O6 2.200924 1_555
Li3 O9 2.238763 1_555
Li3 O3 2.357730 1_455
Li4 O8 2.049869 1_555
Li4 O0 2.103178 1_555
Li4 O7 2.169847 1_655
Li4 O1 2.176790 1_565
Li4 O4 2.239073 1_555
Li4 O10 2.359691 1_665
Li5 O9 2.029214 1_554
Li5 O1 2.152840 1_565
Li5 O8 2.158106 1_555
Li5 O2 2.230531 1_565
Li5 O5 2.256096 1_554
Li5 O11 2.313607 1_564
Li6 O4 2.079964 1_555
Li6 O10 2.092951 1_565
Li6 O9 2.117807 1_555
Li6 O7 2.136367 1_555
Li6 O1 2.138392 1_565
Li6 O5 2.154855 1_554
Mn0 O10 1.927596 1_566
Mn0 O5 1.957516 1_555
Mn0 O0 1.995113 1_455
Mn0 O11 2.015529 1_465
Mn0 O8 2.184845 1_456
Mn0 O2 2.219948 1_566
Mn1 O4 1.921519 1_555
Mn1 O2 1.940512 1_555
Mn1 O6 1.940711 1_555
Mn1 O7 1.957243 1_555
Mn1 O1 1.969443 1_555
Mn1 O10 1.986681 1_555
Mn2 O9 1.913877 1_545
Mn2 O1 1.930471 1_555
Mn2 O6 1.953086 1_555
Mn2 O0 1.954692 1_545
Mn2 O11 1.981323 1_555
Mn2 O3 2.003413 1_555
Mn3 O8 1.917460 1_455
Mn3 O5 1.930378 1_554
Mn3 O3 1.947450 1_454
Mn3 O7 1.948201 1_555
Mn3 O2 1.965613 1_555
Mn3 O11 2.014477 1_454
Co0 O4 1.995261 1_555
Co0 O9 2.014683 1_555
Co0 O3 2.109308 1_555
Co0 O8 2.122571 1_556
Co0 O6 2.174495 1_555
Co0 O0 2.188993 1_555
