# generated using pymatgen
data_Rb5Mo3O3F14
_symmetry_space_group_name_H-M   'P 1'
_cell_length_a   8.31481092
_cell_length_b   20.80907226
_cell_length_c   20.80903303
_cell_angle_alpha   120.00048022
_cell_angle_beta   90.00004822
_cell_angle_gamma   90.00021293
_symmetry_Int_Tables_number   1
_chemical_formula_structural   Rb5Mo3O3F14
_chemical_formula_sum   'Rb30 Mo18 O18 F84'
_cell_volume   3118.06759387
_cell_formula_units_Z   6
loop_
 _symmetry_equiv_pos_site_id
 _symmetry_equiv_pos_as_xyz
  1  'x, y, z'
loop_
 _atom_site_type_symbol
 _atom_site_label
 _atom_site_symmetry_multiplicity
 _atom_site_fract_x
 _atom_site_fract_y
 _atom_site_fract_z
 _atom_site_occupancy
  Rb  Rb0  1  0.99999811  0.99999814  0.65700789  1
  Rb  Rb1  1  0.00000662  0.34299384  0.34299555  1
  Rb  Rb2  1  0.99999695  0.65700382  0.99999512  1
  Rb  Rb3  1  0.00000189  0.00000186  0.34299211  1
  Rb  Rb4  1  0.99999338  0.65700616  0.65700445  1
  Rb  Rb5  1  0.00000305  0.34299618  0.00000488  1
  Rb  Rb6  1  0.49999497  0.00000314  0.67503568  1
  Rb  Rb7  1  0.50000410  0.32496938  0.32497079  1
  Rb  Rb8  1  0.49999081  0.67502604  0.99999127  1
  Rb  Rb9  1  0.50000503  0.99999686  0.32496432  1
  Rb  Rb10  1  0.49999590  0.67503062  0.67502921  1
  Rb  Rb11  1  0.50000919  0.32497396  0.00000873  1
  Rb  Rb12  1  0.73629133  0.09216988  0.90782869  1
  Rb  Rb13  1  0.73628909  0.09217543  0.18435140  1
  Rb  Rb14  1  0.73629055  0.81564912  0.90782915  1
  Rb  Rb15  1  0.26370867  0.90783012  0.09217131  1
  Rb  Rb16  1  0.26371091  0.90782457  0.81564860  1
  Rb  Rb17  1  0.26370945  0.18435088  0.09217085  1
  Rb  Rb18  1  0.79495296  0.74192933  0.48387877  1
  Rb  Rb19  1  0.79497744  0.51612208  0.25806110  1
  Rb  Rb20  1  0.79495207  0.74193265  0.25804996  1
  Rb  Rb21  1  0.20504704  0.25807067  0.51612123  1
  Rb  Rb22  1  0.20502256  0.48387792  0.74193890  1
  Rb  Rb23  1  0.20504793  0.25806735  0.74195004  1
  Rb  Rb24  1  0.25013798  0.85217302  0.42608634  1
  Rb  Rb25  1  0.25012267  0.57391568  0.42607533  1
  Rb  Rb26  1  0.25010477  0.57392039  0.14784308  1
  Rb  Rb27  1  0.74986202  0.14782698  0.57391366  1
  Rb  Rb28  1  0.74987733  0.42608432  0.57392467  1
  Rb  Rb29  1  0.74989523  0.42607961  0.85215692  1
  Mo  Mo0  1  0.78960581  0.53676830  0.46322684  1
  Mo  Mo1  1  0.78961480  0.53676916  0.07354130  1
  Mo  Mo2  1  0.78961905  0.92645327  0.46322734  1
  Mo  Mo3  1  0.21039419  0.46323170  0.53677316  1
  Mo  Mo4  1  0.21038520  0.46323084  0.92645870  1
  Mo  Mo5  1  0.21038095  0.07354673  0.53677266  1
  Mo  Mo6  1  0.74867192  0.86163716  0.72326291  1
  Mo  Mo7  1  0.74866658  0.27673501  0.13837637  1
  Mo  Mo8  1  0.74867549  0.86162503  0.13836301  1
  Mo  Mo9  1  0.25132808  0.13836284  0.27673709  1
  Mo  Mo10  1  0.25133342  0.72326499  0.86162363  1
  Mo  Mo11  1  0.25132451  0.13837497  0.86163699  1
  Mo  Mo12  1  0.30780206  0.79572674  0.59145993  1
  Mo  Mo13  1  0.30780534  0.40853682  0.20427083  1
  Mo  Mo14  1  0.30780311  0.79572815  0.20426752  1
  Mo  Mo15  1  0.69219794  0.20427326  0.40854007  1
  Mo  Mo16  1  0.69219466  0.59146318  0.79572917  1
  Mo  Mo17  1  0.69219689  0.20427185  0.79573248  1
  O  O0  1  0.14986177  0.76492436  0.52984006  1
  O  O1  1  0.14985743  0.47015528  0.23508065  1
  O  O2  1  0.14986046  0.76492057  0.23507772  1
  O  O3  1  0.85013823  0.23507564  0.47015994  1
  O  O4  1  0.85014257  0.52984472  0.76491935  1
  O  O5  1  0.85013954  0.23507943  0.76492228  1
  O  O6  1  0.93452512  0.88245797  0.76488289  1
  O  O7  1  0.93452614  0.23510911  0.11756949  1
  O  O8  1  0.93452907  0.88242676  0.11754538  1
  O  O9  1  0.06547488  0.11754203  0.23511711  1
  O  O10  1  0.06547386  0.76489089  0.88243051  1
  O  O11  1  0.06547093  0.11757324  0.88245462  1
  O  O12  1  0.63196120  0.56740992  0.43258724  1
  O  O13  1  0.63195439  0.56741381  0.13482650  1
  O  O14  1  0.63196022  0.86517018  0.43258447  1
  O  O15  1  0.36803880  0.43259008  0.56741276  1
  O  O16  1  0.36804561  0.43258619  0.86517350  1
  O  O17  1  0.36803978  0.13482982  0.56741553  1
  F  F0  1  0.23135025  0.76374152  0.66240655  1
  F  F1  1  0.23136328  0.33758471  0.10133671  1
  F  F2  1  0.23136088  0.89866145  0.23624757  1
  F  F3  1  0.23136878  0.76374657  0.10133391  1
  F  F4  1  0.23137265  0.89866108  0.66241404  1
  F  F5  1  0.23136566  0.33758518  0.23625252  1
  F  F6  1  0.76864975  0.23625848  0.33759345  1
  F  F7  1  0.76863672  0.66241529  0.89866329  1
  F  F8  1  0.76863912  0.10133855  0.76375243  1
  F  F9  1  0.76863122  0.23625343  0.89866609  1
  F  F10  1  0.76862735  0.10133892  0.33758596  1
  F  F11  1  0.76863434  0.66241482  0.76374748  1
  F  F12  1  0.92917868  0.49572419  0.37347910  1
  F  F13  1  0.92917237  0.62652177  0.12224926  1
  F  F14  1  0.92917739  0.87774195  0.50426607  1
  F  F15  1  0.92918098  0.49573053  0.12225074  1
  F  F16  1  0.92918063  0.87774527  0.37347817  1
  F  F17  1  0.92917564  0.62651795  0.50426830  1
  F  F18  1  0.07082132  0.50427581  0.62652090  1
  F  F19  1  0.07082763  0.37347823  0.87775074  1
  F  F20  1  0.07082261  0.12225805  0.49573393  1
  F  F21  1  0.07081902  0.50426947  0.87774926  1
  F  F22  1  0.07081937  0.12225473  0.62652183  1
  F  F23  1  0.07082436  0.37348205  0.49573170  1
  F  F24  1  0.50716502  0.83528573  0.67059219  1
  F  F25  1  0.50716656  0.32940548  0.16470054  1
  F  F26  1  0.50717323  0.83530097  0.16471188  1
  F  F27  1  0.49283498  0.16471427  0.32940781  1
  F  F28  1  0.49283344  0.67059452  0.83529946  1
  F  F29  1  0.49282677  0.16469903  0.83528812  1
  F  F30  1  0.71927976  0.43410814  0.43412008  1
  F  F31  1  0.71927909  0.56587732  -0.00000895  1
  F  F32  1  0.71928186  0.00000318  0.56588814  1
  F  F33  1  0.71928314  0.43410874  -0.00000774  1
  F  F34  1  0.71928466  0.00000398  0.43411773  1
  F  F35  1  0.71927703  0.56588030  0.56588867  1
  F  F36  1  0.28072024  0.56589186  0.56587992  1
  F  F37  1  0.28072091  0.43412268  0.00000895  1
  F  F38  1  0.28071814  -0.00000318  0.43411186  1
  F  F39  1  0.28071686  0.56589126  0.00000774  1
  F  F40  1  0.28071534  -0.00000398  0.56588227  1
  F  F41  1  0.28072297  0.43411970  0.43411133  1
  F  F42  1  0.78341449  0.75601634  0.64689631  1
  F  F43  1  0.78342237  0.35310037  0.10912532  1
  F  F44  1  0.78342231  0.89087962  0.24398257  1
  F  F45  1  0.78338649  0.75600217  0.10910565  1
  F  F46  1  0.78338141  0.89089149  0.64689571  1
  F  F47  1  0.78338280  0.35309502  0.24400053  1
  F  F48  1  0.21658551  0.24398366  0.35310369  1
  F  F49  1  0.21657763  0.64689963  0.89087468  1
  F  F50  1  0.21657769  0.10912038  0.75601743  1
  F  F51  1  0.21661351  0.24399783  0.89089435  1
  F  F52  1  0.21661859  0.10910851  0.35310429  1
  F  F53  1  0.21661720  0.64690498  0.75599947  1
  F  F54  1  0.00000000  0.50000000  0.50000000  1
  F  F55  1  0.00000000  0.50000000  0.00000000  1
  F  F56  1  0.00000000  0.00000000  0.50000000  1
  F  F57  1  0.00000000  0.00000000  0.00000000  1
  F  F58  1  0.43974688  0.70389863  0.54171616  1
  F  F59  1  0.43974774  0.45828135  0.16218731  1
  F  F60  1  0.43974879  0.83781642  0.29609689  1
  F  F61  1  0.43975225  0.70390146  0.16218110  1
  F  F62  1  0.43975815  0.83781207  0.54172089  1
  F  F63  1  0.43974986  0.45827970  0.29609944  1
  F  F64  1  0.56025312  0.29610137  0.45828384  1
  F  F65  1  0.56025226  0.54171865  0.83781269  1
  F  F66  1  0.56025121  0.16218358  0.70390311  1
  F  F67  1  0.56024775  0.29609854  0.83781890  1
  F  F68  1  0.56024185  0.16218793  0.45827911  1
  F  F69  1  0.56025014  0.54172030  0.70390056  1
  F  F70  1  0.64160575  0.82659226  0.78538908  1
  F  F71  1  0.64159840  0.21461343  0.04120505  1
  F  F72  1  0.64160865  0.95879692  0.17341367  1
  F  F73  1  0.64155908  0.82658440  0.04120267  1
  F  F74  1  0.64155529  0.95879783  0.78538071  1
  F  F75  1  0.64155761  0.21461269  0.17341562  1
  F  F76  1  0.35839425  0.17340774  0.21461092  1
  F  F77  1  0.35840160  0.78538657  0.95879495  1
  F  F78  1  0.35839135  0.04120308  0.82658633  1
  F  F79  1  0.35844092  0.17341560  0.95879733  1
  F  F80  1  0.35844471  0.04120217  0.21461929  1
  F  F81  1  0.35844239  0.78538731  0.82658438  1
  F  F82  1  0.87535203  0.66662029  0.33330676  1
  F  F83  1  0.12464797  0.33337971  0.66669324  1
loop_
_geom_bond_atom_site_label_1
_geom_bond_atom_site_label_2
_geom_bond_distance
_geom_bond_site_symmetry_2
Mo0 O12 1.713995 1_555
Mo1 O13 1.714137 1_555
Mo2 O14 1.714097 1_555
Mo3 O15 1.713995 1_555
Mo4 O16 1.714137 1_555
Mo5 O17 1.714097 1_555
Mo6 O6 1.717733 1_555
Mo7 O7 1.717833 1_555
Mo8 O8 1.717734 1_555
Mo9 O9 1.717733 1_555
Mo10 O10 1.717833 1_555
Mo11 O11 1.717734 1_555
Mo12 O0 1.719800 1_555
Mo13 O1 1.719840 1_555
Mo14 O2 1.719798 1_555
Mo15 O3 1.719800 1_555
Mo16 O4 1.719840 1_555
Mo17 O5 1.719798 1_555
O0 Rb18 3.065031 1_455
O1 Rb19 3.064834 1_455
O2 Rb20 3.065025 1_455
O3 Rb21 3.065031 1_655
O4 Rb22 3.064834 1_655
O5 Rb23 3.065025 1_655
O6 Rb16 2.885958 1_655
O7 Rb17 2.885903 1_655
O8 Rb15 2.885979 1_655
O9 Rb13 2.885958 1_455
O10 Rb14 2.885903 1_455
O11 Rb12 2.885979 1_455
O12 Rb25 3.183571 1_555
O12 Rb18 3.505441 1_555
O12 Rb19 3.505662 1_555
O13 Rb26 3.183662 1_555
O13 Rb20 3.505419 1_555
O13 Rb19 3.505683 1_555
O14 Rb24 3.183407 1_555
O14 Rb20 3.505689 1_555
O14 Rb18 3.505742 1_555
O15 Rb28 3.183571 1_555
O15 Rb21 3.505441 1_555
O15 Rb22 3.505662 1_555
O16 Rb29 3.183662 1_555
O16 Rb23 3.505419 1_555
O16 Rb22 3.505683 1_555
O17 Rb27 3.183407 1_555
O17 Rb23 3.505689 1_555
O17 Rb21 3.505742 1_555
F0 Mo12 2.002318 1_555
F0 Rb4 2.897694 1_455
F0 Rb10 2.991852 1_555
F0 Rb16 3.109566 1_555
F1 Mo13 2.002331 1_555
F1 Rb5 2.897771 1_555
F1 Rb11 2.991834 1_555
F1 Rb17 3.109348 1_555
F2 Mo14 2.002339 1_555
F2 Rb3 2.897833 1_565
F2 Rb9 2.991867 1_555
F2 Rb15 3.109549 1_555
F3 Mo14 2.002310 1_555
F3 Rb2 2.897864 1_454
F3 Rb8 2.991823 1_554
F3 Rb15 3.109630 1_555
F4 Mo12 2.002317 1_555
F4 Rb0 2.897896 1_455
F4 Rb6 2.991816 1_565
F4 Rb16 3.109372 1_555
F5 Mo13 2.002329 1_555
F5 Rb1 2.897782 1_555
F5 Rb7 2.991844 1_555
F5 Rb17 3.109457 1_555
F6 Mo15 2.002318 1_555
F6 Rb1 2.897694 1_655
F6 Rb7 2.991852 1_555
F6 Rb13 3.109566 1_555
F7 Mo16 2.002331 1_555
F7 Rb2 2.897771 1_555
F7 Rb8 2.991834 1_555
F7 Rb14 3.109348 1_555
F8 Mo17 2.002339 1_555
F8 Rb0 2.897833 1_545
F8 Rb6 2.991867 1_555
F8 Rb12 3.109549 1_555
F9 Mo17 2.002310 1_555
F9 Rb5 2.897864 1_656
F9 Rb11 2.991823 1_556
F9 Rb12 3.109630 1_555
F10 Mo15 2.002317 1_555
F10 Rb3 2.897896 1_655
F10 Rb9 2.991816 1_545
F10 Rb13 3.109372 1_555
F11 Mo16 2.002329 1_555
F11 Rb4 2.897782 1_555
F11 Rb10 2.991844 1_555
F11 Rb14 3.109457 1_555
F12 Mo0 1.992234 1_555
F12 Rb19 2.865851 1_555
F12 Rb1 2.972201 1_655
F12 Rb25 3.030808 1_655
F13 Mo1 1.992227 1_555
F13 Rb20 2.865669 1_555
F13 Rb2 2.972324 1_554
F13 Rb26 3.030775 1_655
F14 Mo2 1.992212 1_555
F14 Rb18 2.865935 1_555
F14 Rb0 2.972381 1_555
F14 Rb24 3.030880 1_655
F15 Mo1 1.992220 1_555
F15 Rb19 2.865795 1_555
F15 Rb5 2.972222 1_655
F15 Rb26 3.030653 1_655
F16 Mo2 1.992203 1_555
F16 Rb20 2.865953 1_555
F16 Rb3 2.972423 1_665
F16 Rb24 3.030859 1_655
F17 Mo0 1.992245 1_555
F17 Rb18 2.865704 1_555
F17 Rb4 2.972259 1_555
F17 Rb25 3.030863 1_655
F18 Mo3 1.992234 1_555
F18 Rb22 2.865851 1_555
F18 Rb4 2.972201 1_455
F18 Rb28 3.030808 1_455
F19 Mo4 1.992227 1_555
F19 Rb23 2.865669 1_555
F19 Rb5 2.972324 1_556
F19 Rb29 3.030775 1_455
F20 Mo5 1.992212 1_555
F20 Rb21 2.865935 1_555
F20 Rb3 2.972381 1_555
F20 Rb27 3.030880 1_455
F21 Mo4 1.992220 1_555
F21 Rb22 2.865795 1_555
F21 Rb2 2.972222 1_455
F21 Rb29 3.030653 1_455
F22 Mo5 1.992203 1_555
F22 Rb23 2.865953 1_555
F22 Rb0 2.972423 1_445
F22 Rb27 3.030859 1_455
F23 Mo3 1.992245 1_555
F23 Rb21 2.865704 1_555
F23 Rb1 2.972259 1_555
F23 Rb28 3.030863 1_455
F24 Mo12 2.186653 1_555
F24 Mo6 2.221112 1_555
F24 Rb16 3.306220 1_555
F25 Mo13 2.186641 1_555
F25 Mo7 2.221066 1_555
F25 Rb17 3.306200 1_555
F26 Mo14 2.186663 1_555
F26 Mo8 2.221099 1_555
F26 Rb15 3.306477 1_555
F27 Mo15 2.186653 1_555
F27 Mo9 2.221112 1_555
F27 Rb13 3.306220 1_555
F28 Mo16 2.186641 1_555
F28 Mo10 2.221066 1_555
F28 Rb14 3.306200 1_555
F29 Mo17 2.186663 1_555
F29 Mo11 2.221099 1_555
F29 Rb12 3.306477 1_555
F30 Mo0 1.994611 1_555
F30 Rb7 2.912448 1_555
F30 Rb28 3.006957 1_555
F30 Rb1 3.007268 1_655
F31 Mo1 1.994602 1_555
F31 Rb8 2.912614 1_554
F31 Rb29 3.006950 1_554
F31 Rb2 3.007274 1_554
F32 Mo2 1.994625 1_545
F32 Rb6 2.912582 1_555
F32 Rb27 3.006835 1_555
F32 Rb0 3.007237 1_545
F33 Mo1 1.994599 1_555
F33 Rb11 2.912438 1_555
F33 Rb29 3.007058 1_554
F33 Rb5 3.007225 1_655
F34 Mo2 1.994632 1_545
F34 Rb9 2.912579 1_545
F34 Rb27 3.006779 1_555
F34 Rb3 3.007276 1_655
F35 Mo0 1.994624 1_555
F35 Rb10 2.912512 1_555
F35 Rb28 3.006923 1_555
F35 Rb4 3.007206 1_555
F36 Mo3 1.994611 1_555
F36 Rb10 2.912448 1_555
F36 Rb25 3.006957 1_555
F36 Rb4 3.007268 1_455
F37 Mo4 1.994602 1_554
F37 Rb11 2.912614 1_555
F37 Rb26 3.006950 1_555
F37 Rb5 3.007274 1_555
F38 Mo5 1.994625 1_555
F38 Rb9 2.912582 1_545
F38 Rb24 3.006835 1_545
F38 Rb3 3.007237 1_555
F39 Mo4 1.994599 1_554
F39 Rb8 2.912438 1_554
F39 Rb26 3.007058 1_555
F39 Rb2 3.007225 1_454
F40 Mo5 1.994632 1_555
F40 Rb6 2.912579 1_555
F40 Rb24 3.006779 1_545
F40 Rb0 3.007276 1_445
F41 Mo3 1.994624 1_555
F41 Rb7 2.912512 1_555
F41 Rb25 3.006923 1_555
F41 Rb1 3.007206 1_555
F42 Mo6 1.986620 1_555
F42 Rb4 2.822312 1_555
F42 Rb10 3.118129 1_555
F42 Rb18 3.256993 1_555
F43 Mo7 1.986579 1_555
F43 Rb5 2.822374 1_655
F43 Rb11 3.118086 1_555
F43 Rb19 3.257075 1_555
F44 Mo8 1.986601 1_555
F44 Rb3 2.822322 1_665
F44 Rb9 3.118094 1_555
F44 Rb20 3.257111 1_555
F45 Mo8 1.986615 1_555
F45 Rb2 2.822314 1_554
F45 Rb8 3.117895 1_554
F45 Rb20 3.257084 1_555
F46 Mo6 1.986606 1_555
F46 Rb0 2.822287 1_555
F46 Rb6 3.117815 1_565
F46 Rb18 3.257259 1_555
F47 Mo7 1.986599 1_555
F47 Rb1 2.822237 1_655
F47 Rb7 3.117607 1_555
F47 Rb19 3.257447 1_555
F48 Mo9 1.986620 1_555
F48 Rb1 2.822312 1_555
F48 Rb7 3.118129 1_555
F48 Rb21 3.256993 1_555
F49 Mo10 1.986579 1_555
F49 Rb2 2.822374 1_455
F49 Rb8 3.118086 1_555
F49 Rb22 3.257075 1_555
F50 Mo11 1.986601 1_555
F50 Rb0 2.822322 1_445
F50 Rb6 3.118094 1_555
F50 Rb23 3.257111 1_555
F51 Mo11 1.986615 1_555
F51 Rb5 2.822314 1_556
F51 Rb11 3.117895 1_556
F51 Rb23 3.257084 1_555
F52 Mo9 1.986606 1_555
F52 Rb3 2.822287 1_555
F52 Rb9 3.117815 1_545
F52 Rb21 3.257259 1_555
F53 Mo10 1.986599 1_555
F53 Rb4 2.822237 1_455
F53 Rb10 3.117607 1_555
F53 Rb22 3.257447 1_555
F54 Mo0 2.194721 1_455
F54 Mo3 2.194721 1_555
F55 Mo1 2.194655 1_455
F55 Mo4 2.194655 1_554
F56 Mo2 2.194679 1_445
F56 Mo5 2.194679 1_555
F58 Mo12 1.987081 1_555
F58 Rb25 3.013919 1_555
F58 Rb10 3.158167 1_555
F58 Rb18 3.427864 1_555
F59 Mo13 1.987073 1_555
F59 Rb26 3.014021 1_555
F59 Rb11 3.158088 1_555
F59 Rb19 3.428075 1_555
F60 Mo14 1.987093 1_555
F60 Rb24 3.013889 1_555
F60 Rb9 3.158163 1_555
F60 Rb20 3.427981 1_555
F61 Mo14 1.987079 1_555
F61 Rb26 3.014034 1_555
F61 Rb8 3.158269 1_554
F61 Rb20 3.427818 1_555
F62 Mo12 1.987078 1_555
F62 Rb24 3.014007 1_555
F62 Rb6 3.158270 1_565
F62 Rb18 3.427916 1_555
F63 Mo13 1.987077 1_555
F63 Rb25 3.013835 1_555
F63 Rb7 3.158168 1_555
F63 Rb19 3.428130 1_555
F64 Mo15 1.987081 1_555
F64 Rb28 3.013919 1_555
F64 Rb7 3.158167 1_555
F64 Rb21 3.427864 1_555
F65 Mo16 1.987073 1_555
F65 Rb29 3.014021 1_555
F65 Rb8 3.158088 1_555
F65 Rb22 3.428075 1_555
F66 Mo17 1.987093 1_555
F66 Rb27 3.013889 1_555
F66 Rb6 3.158163 1_555
F66 Rb23 3.427981 1_555
F67 Mo17 1.987079 1_555
F67 Rb29 3.014034 1_555
F67 Rb11 3.158269 1_556
F67 Rb23 3.427818 1_555
F68 Mo15 1.987078 1_555
F68 Rb27 3.014007 1_555
F68 Rb9 3.158270 1_545
F68 Rb21 3.427916 1_555
F69 Mo16 1.987077 1_555
F69 Rb28 3.013835 1_555
F69 Rb10 3.158168 1_555
F69 Rb22 3.428130 1_555
F70 Mo6 1.984540 1_555
F70 Rb14 2.782707 1_555
F70 Rb10 3.060088 1_555
F71 Mo7 1.984521 1_555
F71 Rb12 2.782665 1_554
F71 Rb11 3.059990 1_555
F72 Mo8 1.984537 1_555
F72 Rb13 2.782649 1_565
F72 Rb9 3.059888 1_555
F73 Mo8 1.984542 1_555
F73 Rb14 2.782690 1_554
F73 Rb8 3.059860 1_554
F74 Mo6 1.984547 1_555
F74 Rb12 2.782750 1_565
F74 Rb6 3.059728 1_565
F75 Mo7 1.984551 1_555
F75 Rb13 2.782686 1_555
F75 Rb7 3.059811 1_555
F76 Mo9 1.984540 1_555
F76 Rb17 2.782707 1_555
F76 Rb7 3.060088 1_555
F77 Mo10 1.984521 1_555
F77 Rb15 2.782665 1_556
F77 Rb8 3.059990 1_555
F78 Mo11 1.984537 1_555
F78 Rb16 2.782649 1_545
F78 Rb6 3.059888 1_555
F79 Mo11 1.984542 1_555
F79 Rb17 2.782690 1_556
F79 Rb11 3.059860 1_556
F80 Mo9 1.984547 1_555
F80 Rb15 2.782750 1_545
F80 Rb9 3.059728 1_545
F81 Mo10 1.984551 1_555
F81 Rb16 2.782686 1_555
F81 Rb10 3.059811 1_555
F82 Rb19 2.793264 1_555
F82 Rb20 2.794577 1_555
F82 Rb18 2.794605 1_555
F83 Rb22 2.793264 1_555
F83 Rb23 2.794577 1_555
F83 Rb21 2.794605 1_555
