# generated using pymatgen
data_Sr2MgWO6
_symmetry_space_group_name_H-M   'P 1'
_cell_length_a   5.60954906
_cell_length_b   5.60954906
_cell_length_c   5.60954906
_cell_angle_alpha   120.38451769
_cell_angle_beta   120.38451769
_cell_angle_gamma   89.33527617
_symmetry_Int_Tables_number   1
_chemical_formula_structural   Sr2MgWO6
_chemical_formula_sum   'Sr2 Mg1 W1 O6'
_cell_volume   124.08111756
_cell_formula_units_Z   1
loop_
 _symmetry_equiv_pos_site_id
 _symmetry_equiv_pos_as_xyz
  1  'x, y, z'
loop_
 _atom_site_type_symbol
 _atom_site_label
 _atom_site_symmetry_multiplicity
 _atom_site_fract_x
 _atom_site_fract_y
 _atom_site_fract_z
 _atom_site_occupancy
  Sr  Sr0  1  0.75000000  0.25000000  0.50000000  1
  Sr  Sr1  1  0.25000000  0.75000000  0.50000000  1
  Mg  Mg0  1  0.00000000  -0.00000000  0.00000000  1
  W  W0  1  0.50000000  0.50000000  0.00000000  1
  O  O0  1  0.74152682  0.74152682  0.00000000  1
  O  O1  1  0.25847318  0.25847318  0.00000000  1
  O  O2  1  0.70593706  0.77656699  0.48250304  1
  O  O3  1  0.77656699  0.29406294  0.07062993  1
  O  O4  1  0.29406294  0.22343301  0.51749696  1
  O  O5  1  0.22343301  0.70593706  0.92937007  1
loop_
_geom_bond_atom_site_label_1
_geom_bond_atom_site_label_2
_geom_bond_distance
_geom_bond_site_symmetry_2
Mg0 O3 2.059652 1_455
Mg0 O5 2.059652 1_544
Mg0 O2 2.059656 1_444
Mg0 O4 2.059656 1_555
Mg0 O0 2.062354 1_445
Mg0 O1 2.062354 1_555
O0 W0 1.927139 1_555
O0 Sr0 2.789277 1_554
O0 Sr1 2.789277 1_554
O0 Sr0 2.789277 1_565
O0 Sr1 2.789277 1_655
O1 W0 1.927139 1_555
O1 Sr0 2.789277 1_555
O1 Sr0 2.789277 1_454
O1 Sr1 2.789277 1_555
O1 Sr1 2.789277 1_544
O2 W0 1.923016 1_555
O2 Sr0 2.617387 1_565
O2 Sr1 2.617394 1_555
O2 Sr1 3.007898 1_655
O2 Sr0 3.007903 1_555
O3 W0 1.923020 1_555
O3 Sr0 2.617390 1_555
O3 Sr1 2.617390 1_655
O3 Sr1 3.007900 1_544
O3 Sr0 3.007900 1_554
O4 W0 1.923016 1_556
O4 Sr1 2.617387 1_545
O4 Sr0 2.617394 1_555
O4 Sr0 3.007898 1_455
O4 Sr1 3.007903 1_555
O5 W0 1.923020 1_556
O5 Sr0 2.617390 1_455
O5 Sr1 2.617390 1_555
O5 Sr0 3.007900 1_566
O5 Sr1 3.007900 1_556
