# generated using pymatgen
data_Ba2U(PO5)2
_symmetry_space_group_name_H-M   'P 1'
_cell_length_a   5.53334700
_cell_length_b   7.00171886
_cell_length_c   7.14410146
_cell_angle_alpha   101.47412284
_cell_angle_beta   90.00000000
_cell_angle_gamma   113.27483770
_symmetry_Int_Tables_number   1
_chemical_formula_structural   Ba2U(PO5)2
_chemical_formula_sum   'Ba2 U1 P2 O10'
_cell_volume   248.22579265
_cell_formula_units_Z   1
loop_
 _symmetry_equiv_pos_site_id
 _symmetry_equiv_pos_as_xyz
  1  'x, y, z'
loop_
 _atom_site_type_symbol
 _atom_site_label
 _atom_site_symmetry_multiplicity
 _atom_site_fract_x
 _atom_site_fract_y
 _atom_site_fract_z
 _atom_site_occupancy
  Ba  Ba0  1  0.16113600  0.32227200  0.20293700  1
  Ba  Ba1  1  0.83886400  0.67772800  0.79706300  1
  U  U0  1  0.50000000  0.00000000  0.50000000  1
  P  P0  1  0.14370100  0.28740200  0.72263800  1
  P  P1  1  0.85629900  0.71259800  0.27736200  1
  O  O0  1  0.46777600  0.93555200  0.73610800  1
  O  O1  1  0.53222400  0.06444800  0.26389200  1
  O  O2  1  0.91209800  0.27408000  0.58352400  1
  O  O3  1  0.36198300  0.27408000  0.58352400  1
  O  O4  1  0.08790200  0.72592000  0.41647600  1
  O  O5  1  0.63801700  0.72592000  0.41647600  1
  O  O6  1  0.25161500  0.50323100  0.86542400  1
  O  O7  1  0.74838500  0.49676900  0.13457600  1
  O  O8  1  0.05006400  0.10012800  0.82238500  1
  O  O9  1  0.94993600  0.89987200  0.17761500  1
loop_
_geom_bond_atom_site_label_1
_geom_bond_atom_site_label_2
_geom_bond_distance
_geom_bond_site_symmetry_2
Ba0 O9 2.683486 1_445
Ba0 O8 2.783968 1_554
Ba0 O6 2.895544 1_554
Ba0 O7 3.064318 1_455
Ba0 O7 3.064323 1_555
Ba0 O2 3.066435 1_455
Ba0 O3 3.066437 1_555
Ba0 O5 3.109468 1_555
Ba0 O4 3.109471 1_555
Ba0 O1 3.302550 1_455
Ba0 O1 3.302551 1_555
Ba1 O8 2.683486 1_665
Ba1 O9 2.783968 1_556
Ba1 O7 2.895544 1_556
Ba1 O6 3.064318 1_655
Ba1 O6 3.064323 1_555
Ba1 O4 3.066435 1_655
Ba1 O5 3.066437 1_555
Ba1 O3 3.109468 1_555
Ba1 O2 3.109471 1_555
Ba1 O0 3.302550 1_655
Ba1 O0 3.302551 1_555
O0 U0 1.822054 1_565
O1 U0 1.822054 1_555
O2 P0 1.583484 1_655
O2 U0 2.307512 1_555
O3 P0 1.583488 1_555
O3 U0 2.307509 1_555
O4 P1 1.583484 1_455
O4 U0 2.307512 1_565
O5 P1 1.583488 1_555
O5 U0 2.307509 1_565
O6 P0 1.534389 1_555
O7 P1 1.534389 1_555
O8 P0 1.526580 1_555
O9 P1 1.526580 1_555
