# generated using pymatgen
data_Cs2CuP2O7
_symmetry_space_group_name_H-M   'P 1'
_cell_length_a   7.58078414
_cell_length_b   7.58078414
_cell_length_c   10.10376819
_cell_angle_alpha   79.26887343
_cell_angle_beta   79.26887343
_cell_angle_gamma   120.20160336
_symmetry_Int_Tables_number   1
_chemical_formula_structural   Cs2CuP2O7
_chemical_formula_sum   'Cs4 Cu2 P4 O14'
_cell_volume   465.50441861
_cell_formula_units_Z   2
loop_
 _symmetry_equiv_pos_site_id
 _symmetry_equiv_pos_as_xyz
  1  'x, y, z'
loop_
 _atom_site_type_symbol
 _atom_site_label
 _atom_site_symmetry_multiplicity
 _atom_site_fract_x
 _atom_site_fract_y
 _atom_site_fract_z
 _atom_site_occupancy
  Cs  Cs0  1  0.38154800  0.47030700  0.13130200  1
  Cs  Cs1  1  0.47030700  0.38154800  0.63130200  1
  Cs  Cs2  1  0.60069600  0.01920100  0.31193200  1
  Cs  Cs3  1  0.01920100  0.60069600  0.81193200  1
  Cu  Cu0  1  0.01375800  0.77836000  0.28903100  1
  Cu  Cu1  1  0.77836000  0.01375800  0.78903100  1
  P  P0  1  0.38646600  0.98534400  0.99816500  1
  P  P1  1  0.98534400  0.38646600  0.49816500  1
  P  P2  1  0.02428300  0.03613700  0.99325600  1
  P  P3  1  0.03613700  0.02428300  0.49325600  1
  O  O0  1  0.27220200  0.11401900  0.42282600  1
  O  O1  1  0.11401900  0.27220200  0.92282600  1
  O  O2  1  0.99095300  0.20834400  0.42836000  1
  O  O3  1  0.20834400  0.99095300  0.92836000  1
  O  O4  1  0.54613000  0.20773700  0.00113600  1
  O  O5  1  0.20773700  0.54613000  0.50113600  1
  O  O6  1  0.97759400  0.97321500  0.15643200  1
  O  O7  1  0.97321500  0.97759400  0.65643200  1
  O  O8  1  0.82655100  0.87958800  0.95524500  1
  O  O9  1  0.87958800  0.82655100  0.45524500  1
  O  O10  1  0.47913900  0.89766700  0.89969700  1
  O  O11  1  0.89766700  0.47913900  0.39969700  1
  O  O12  1  0.24917000  0.80837100  0.14756700  1
  O  O13  1  0.80837100  0.24917000  0.64756700  1
loop_
_geom_bond_atom_site_label_1
_geom_bond_atom_site_label_2
_geom_bond_distance
_geom_bond_site_symmetry_2
Cs0 O8 3.057873 1_554
Cs0 O4 3.179739 1_555
Cs0 O2 3.205382 1_455
Cs0 O12 3.207006 1_555
Cs0 O1 3.241912 1_554
Cs0 O0 3.245564 1_555
Cs0 O10 3.261866 1_554
Cs0 O6 3.374407 1_445
Cs1 O9 3.057873 1_555
Cs1 O5 3.179739 1_555
Cs1 O3 3.205382 1_545
Cs1 O13 3.207006 1_555
Cs1 O0 3.241912 1_555
Cs1 O1 3.245564 1_555
Cs1 O11 3.261866 1_555
Cs1 O7 3.374407 1_445
Cs2 O0 3.005844 1_555
Cs2 O2 3.138243 1_555
Cs2 O5 3.157163 1_545
Cs2 O6 3.207468 1_545
Cs2 O12 3.281041 1_545
Cs2 O4 3.388502 1_555
Cs2 O11 3.465421 1_555
Cs2 O9 3.486910 1_545
Cs3 O1 3.005844 1_555
Cs3 O3 3.138243 1_555
Cs3 O4 3.157163 1_456
Cs3 O7 3.207468 1_455
Cs3 O13 3.281041 1_455
Cs3 O5 3.388502 1_555
Cs3 O10 3.465421 1_555
Cs3 O8 3.486910 1_455
Cu0 O12 1.949371 1_555
Cu0 O11 1.962312 1_455
Cu0 O6 1.964509 1_455
Cu0 O9 1.988601 1_455
Cu1 O13 1.949371 1_555
Cu1 O10 1.962312 1_545
Cu1 O7 1.964509 1_545
Cu1 O8 1.988601 1_545
O0 P3 1.514056 1_555
O1 P2 1.514056 1_555
O2 P3 1.648629 1_655
O2 P1 1.650402 1_555
O3 P2 1.648629 1_565
O3 P0 1.650402 1_555
O4 P0 1.512475 1_544
O5 P1 1.512475 1_455
O6 P2 1.546272 1_664
O7 P3 1.546272 1_665
O8 P2 1.548280 1_665
O9 P3 1.548280 1_665
O10 P0 1.543019 1_555
O11 P1 1.543019 1_555
O12 P0 1.554899 1_554
O13 P1 1.554899 1_555
