# generated using pymatgen
data_CsNdTe4
_symmetry_space_group_name_H-M   'P 1'
_cell_length_a   8.09809799
_cell_length_b   8.09809799
_cell_length_c   12.35256700
_cell_angle_alpha   90.00000000
_cell_angle_beta   90.00000000
_cell_angle_gamma   90.00000000
_symmetry_Int_Tables_number   1
_chemical_formula_structural   CsNdTe4
_chemical_formula_sum   'Cs2 Nd2 Te8'
_cell_volume   810.07135035
_cell_formula_units_Z   2
loop_
 _symmetry_equiv_pos_site_id
 _symmetry_equiv_pos_as_xyz
  1  'x, y, z'
loop_
 _atom_site_type_symbol
 _atom_site_label
 _atom_site_symmetry_multiplicity
 _atom_site_fract_x
 _atom_site_fract_y
 _atom_site_fract_z
 _atom_site_occupancy
  Cs  Cs0  1  0.50000000  0.00000000  0.50000000  1
  Cs  Cs1  1  0.00000000  0.50000000  0.50000000  1
  Nd  Nd0  1  0.50000000  0.00000000  0.00000000  1
  Nd  Nd1  1  0.00000000  0.50000000  0.00000000  1
  Te  Te0  1  0.00000000  0.31372900  0.78501800  1
  Te  Te1  1  0.00000000  0.68627100  0.78501800  1
  Te  Te2  1  0.31372900  0.00000000  0.78501800  1
  Te  Te3  1  0.68627100  0.00000000  0.21498200  1
  Te  Te4  1  0.00000000  0.68627100  0.21498200  1
  Te  Te5  1  0.68627100  0.00000000  0.78501800  1
  Te  Te6  1  0.31372900  0.00000000  0.21498200  1
  Te  Te7  1  0.00000000  0.31372900  0.21498200  1
loop_
_geom_bond_atom_site_label_1
_geom_bond_atom_site_label_2
_geom_bond_distance
_geom_bond_site_symmetry_2
Cs0 Te6 3.830241 1_555
Cs0 Te5 3.830241 1_555
Cs0 Te2 3.830241 1_555
Cs0 Te3 3.830241 1_555
Cs1 Te7 3.830241 1_555
Cs1 Te4 3.830241 1_555
Cs1 Te1 3.830241 1_555
Cs1 Te0 3.830241 1_555
Nd0 Te3 3.054095 1_555
Nd0 Te5 3.054095 1_554
Nd0 Te2 3.054095 1_554
Nd0 Te6 3.054095 1_555
Nd1 Te4 3.054095 1_555
Nd1 Te1 3.054095 1_554
Nd1 Te7 3.054095 1_555
Nd1 Te0 3.054095 1_554
