# generated using pymatgen
data_Cs2Na6Al6Ge7O30
_symmetry_space_group_name_H-M   'P 1'
_cell_length_a   13.02408794
_cell_length_b   13.02408794
_cell_length_c   5.24565200
_cell_angle_alpha   90.00000000
_cell_angle_beta   90.00000000
_cell_angle_gamma   119.99999970
_symmetry_Int_Tables_number   1
_chemical_formula_structural   Cs2Na6Al6Ge7O30
_chemical_formula_sum   'Cs2 Na6 Al6 Ge7 O30'
_cell_volume   770.59244849
_cell_formula_units_Z   1
loop_
 _symmetry_equiv_pos_site_id
 _symmetry_equiv_pos_as_xyz
  1  'x, y, z'
loop_
 _atom_site_type_symbol
 _atom_site_label
 _atom_site_symmetry_multiplicity
 _atom_site_fract_x
 _atom_site_fract_y
 _atom_site_fract_z
 _atom_site_occupancy
  Cs  Cs0  1  0.66666700  0.33333300  0.76098700  1
  Cs  Cs1  1  0.00000000  0.00000000  0.26039000  1
  Na  Na0  1  0.05601500  0.52847200  0.76805800  1
  Na  Na1  1  0.47245700  0.94398500  0.76805800  1
  Na  Na2  1  0.47152800  0.52754300  0.76805800  1
  Na  Na3  1  0.59989900  0.79882400  0.25319200  1
  Na  Na4  1  0.19892500  0.40010100  0.25319200  1
  Na  Na5  1  0.20117600  0.80107500  0.25319200  1
  Al  Al0  1  0.91587500  0.33063400  0.25229000  1
  Al  Al1  1  0.41475900  0.08412500  0.25229000  1
  Al  Al2  1  0.66936600  0.58524100  0.25229000  1
  Al  Al3  1  0.75064300  0.00246500  0.75197200  1
  Al  Al4  1  0.25182300  0.24935700  0.75197200  1
  Al  Al5  1  0.99753500  0.74817700  0.75197200  1
  Ge  Ge0  1  0.91580500  0.58252800  0.25232700  1
  Ge  Ge1  1  0.66672200  0.08419500  0.25232700  1
  Ge  Ge2  1  0.41747200  0.33327800  0.25232700  1
  Ge  Ge3  1  0.75084200  0.75092400  0.75231700  1
  Ge  Ge4  1  0.00008200  0.24915800  0.75231700  1
  Ge  Ge5  1  0.24907600  0.99991800  0.75231700  1
  Ge  Ge6  1  0.33333300  0.66666700  0.67058900  1
  O  O0  1  0.95482200  0.61586100  0.57735600  1
  O  O1  1  0.66103900  0.04517800  0.57735600  1
  O  O2  1  0.38413900  0.33896100  0.57735600  1
  O  O3  1  0.71261700  0.71755200  0.07756000  1
  O  O4  1  0.00493500  0.28738300  0.07756000  1
  O  O5  1  0.28244800  0.99506500  0.07756000  1
  O  O6  1  0.94849700  0.47302300  0.14965300  1
  O  O7  1  0.52452600  0.05150300  0.14965300  1
  O  O8  1  0.52697700  0.47547400  0.14965300  1
  O  O9  1  0.71629900  0.85923900  0.64932900  1
  O  O10  1  0.14294100  0.28370100  0.64932900  1
  O  O11  1  0.14076100  0.85705900  0.64932900  1
  O  O12  1  0.96012700  0.33995800  0.57529100  1
  O  O13  1  0.37983100  0.03987300  0.57529100  1
  O  O14  1  0.66004200  0.62016900  0.57529100  1
  O  O15  1  0.70636100  0.99356000  0.07494500  1
  O  O16  1  0.28720000  0.29363900  0.07494500  1
  O  O17  1  0.00644000  0.71280000  0.07494500  1
  O  O18  1  0.29666700  0.75517500  0.89365200  1
  O  O19  1  0.45850800  0.70333300  0.89365200  1
  O  O20  1  0.24482500  0.54149200  0.89365200  1
  O  O21  1  0.36624400  0.58256000  0.42300700  1
  O  O22  1  0.21631600  0.63375600  0.42300700  1
  O  O23  1  0.41744000  0.78368400  0.42300700  1
  O  O24  1  0.76300700  0.23644500  0.20445600  1
  O  O25  1  0.47343800  0.23699300  0.20445600  1
  O  O26  1  0.76355500  0.52656200  0.20445600  1
  O  O27  1  0.90371600  0.09700800  0.70338700  1
  O  O28  1  0.19329200  0.09628400  0.70338700  1
  O  O29  1  0.90299200  0.80670800  0.70338700  1
loop_
_geom_bond_atom_site_label_1
_geom_bond_atom_site_label_2
_geom_bond_distance
_geom_bond_site_symmetry_2
Cs0 O24 3.187732 1_556
Cs0 O26 3.187740 1_556
Cs0 O25 3.187740 1_556
Cs0 O24 3.643178 1_555
Cs0 O26 3.643185 1_555
Cs0 O25 3.643185 1_555
Cs1 O27 3.186421 1_455
Cs1 O28 3.186421 1_555
Cs1 O29 3.186421 1_445
Cs1 O27 3.645596 1_454
Cs1 O28 3.645596 1_554
Cs1 O29 3.645596 1_444
Na0 O6 2.340518 1_456
Na0 O0 2.352264 1_455
Na0 O12 2.354579 1_455
Na0 O20 2.468374 1_555
Na0 O22 2.579228 1_555
Na1 O7 2.340518 1_566
Na1 O1 2.352264 1_565
Na1 O13 2.354579 1_565
Na1 O18 2.468374 1_555
Na1 O23 2.579228 1_555
Na2 O8 2.340518 1_556
Na2 O2 2.352264 1_555
Na2 O14 2.354579 1_555
Na2 O19 2.468374 1_555
Na2 O21 2.579228 1_555
Na3 O3 2.382918 1_555
Na3 O15 2.390136 1_555
Na3 O23 2.451714 1_555
Na3 O9 2.458171 1_555
Na3 O19 2.490919 1_554
Na4 O4 2.382918 1_555
Na4 O16 2.390146 1_555
Na4 O21 2.451714 1_555
Na4 O10 2.458171 1_555
Na4 O20 2.490919 1_554
Na5 O5 2.382918 1_555
Na5 O17 2.390135 1_555
Na5 O22 2.451714 1_555
Na5 O11 2.458165 1_555
Na5 O18 2.490919 1_554
Al0 O24 1.757667 1_555
Al0 O6 1.766802 1_555
Al0 O12 1.774191 1_555
Al0 O4 1.776580 1_655
Al1 O25 1.757667 1_555
Al1 O7 1.766802 1_555
Al1 O13 1.774191 1_555
Al1 O5 1.776580 1_545
Al2 O26 1.757667 1_555
Al2 O8 1.766802 1_555
Al2 O14 1.774191 1_555
Al2 O3 1.776580 1_555
Al3 O27 1.760935 1_555
Al3 O9 1.770669 1_545
Al3 O15 1.774686 1_546
Al3 O1 1.777525 1_555
Al4 O28 1.760933 1_555
Al4 O10 1.770669 1_555
Al4 O16 1.774686 1_556
Al4 O2 1.777517 1_555
Al5 O29 1.760945 1_555
Al5 O11 1.770669 1_655
Al5 O17 1.774686 1_656
Al5 O0 1.777515 1_555
Ge0 O26 1.755267 1_555
Ge0 O6 1.764279 1_555
Ge0 O0 1.770050 1_555
Ge0 O17 1.770627 1_655
Ge1 O24 1.755269 1_555
Ge1 O7 1.764267 1_555
Ge1 O1 1.770051 1_555
Ge1 O15 1.770643 1_545
Ge2 O25 1.755279 1_555
Ge2 O8 1.764271 1_555
Ge2 O2 1.770048 1_555
Ge2 O16 1.770622 1_555
Ge3 O29 1.755226 1_555
Ge3 O9 1.766072 1_555
Ge3 O3 1.769518 1_556
Ge3 O14 1.773986 1_555
Ge4 O27 1.755226 1_455
Ge4 O10 1.766084 1_555
Ge4 O4 1.769518 1_556
Ge4 O12 1.773986 1_455
Ge5 O28 1.755226 1_565
Ge5 O11 1.766080 1_555
Ge5 O5 1.769518 1_556
Ge5 O13 1.773986 1_565
Ge6 O18 1.864533 1_555
Ge6 O20 1.864541 1_555
Ge6 O19 1.864543 1_555
Ge6 O22 1.881453 1_555
Ge6 O23 1.881455 1_555
Ge6 O21 1.881462 1_555
