# generated using pymatgen
data_Cs3B3Se10
_symmetry_space_group_name_H-M   'P 1'
_cell_length_a   7.88005700
_cell_length_b   8.77252584
_cell_length_c   15.59561781
_cell_angle_alpha   105.79809590
_cell_angle_beta   88.91961073
_cell_angle_gamma   102.29980234
_symmetry_Int_Tables_number   1
_chemical_formula_structural   Cs3B3Se10
_chemical_formula_sum   'Cs6 B6 Se20'
_cell_volume   1012.68084053
_cell_formula_units_Z   2
loop_
 _symmetry_equiv_pos_site_id
 _symmetry_equiv_pos_as_xyz
  1  'x, y, z'
loop_
 _atom_site_type_symbol
 _atom_site_label
 _atom_site_symmetry_multiplicity
 _atom_site_fract_x
 _atom_site_fract_y
 _atom_site_fract_z
 _atom_site_occupancy
  Cs  Cs0  1  0.66364700  0.82856400  0.51566800  1
  Cs  Cs1  1  0.33635300  0.17143600  0.48433200  1
  Cs  Cs2  1  0.25570400  0.52200000  0.85767900  1
  Cs  Cs3  1  0.74429600  0.47800000  0.14232100  1
  Cs  Cs4  1  0.04080100  0.93733900  0.78370600  1
  Cs  Cs5  1  0.95919900  0.06266100  0.21629400  1
  B  B0  1  0.61227300  0.10247800  0.90665500  1
  B  B1  1  0.38772700  0.89752200  0.09334500  1
  B  B2  1  0.72932600  0.30488600  0.76310600  1
  B  B3  1  0.27067400  0.69511400  0.23689400  1
  B  B4  1  0.90339500  0.39899200  0.59252700  1
  B  B5  1  0.09660500  0.60100800  0.40747300  1
  Se  Se0  1  0.76434800  0.01581700  0.98012600  1
  Se  Se1  1  0.23565200  0.98418300  0.01987400  1
  Se  Se2  1  0.42009700  0.20444800  0.97446600  1
  Se  Se3  1  0.57990300  0.79555200  0.02553400  1
  Se  Se4  1  0.53826600  0.94196600  0.78266900  1
  Se  Se5  1  0.46173400  0.05803400  0.21733100  1
  Se  Se6  1  0.79378400  0.30200500  0.89058700  1
  Se  Se7  1  0.20621600  0.69799500  0.10941300  1
  Se  Se8  1  0.49079200  0.14890200  0.71867400  1
  Se  Se9  1  0.50920800  0.85109800  0.28132600  1
  Se  Se10  1  0.71091700  0.54033600  0.77858700  1
  Se  Se11  1  0.28908300  0.45966400  0.22141300  1
  Se  Se12  1  0.92253200  0.24803900  0.67201400  1
  Se  Se13  1  0.07746800  0.75196100  0.32798600  1
  Se  Se14  1  0.69556000  0.50954100  0.62189800  1
  Se  Se15  1  0.30444000  0.49045900  0.37810200  1
  Se  Se16  1  0.85695400  0.25173700  0.46390400  1
  Se  Se17  1  0.14304600  0.74826300  0.53609600  1
  Se  Se18  1  0.14435100  0.55224200  0.62080100  1
  Se  Se19  1  0.85564900  0.44775800  0.37919900  1
loop_
_geom_bond_atom_site_label_1
_geom_bond_atom_site_label_2
_geom_bond_distance
_geom_bond_site_symmetry_2
Cs0 Se14 3.671580 1_555
Cs0 Se15 3.820934 1_555
Cs0 Se9 3.942161 1_555
Cs0 Se12 3.968884 1_565
Cs0 Se16 3.991163 1_565
Cs0 Se19 4.017379 1_555
Cs0 Se17 4.021203 1_655
Cs0 Se17 4.033461 1_555
Cs0 Se8 4.049667 1_565
Cs0 Se4 4.160909 1_555
Cs1 Se15 3.671580 1_555
Cs1 Se14 3.820934 1_555
Cs1 Se8 3.942161 1_555
Cs1 Se13 3.968884 1_545
Cs1 Se17 3.991163 1_545
Cs1 Se18 4.017379 1_555
Cs1 Se16 4.021203 1_455
Cs1 Se16 4.033461 1_555
Cs1 Se9 4.049667 1_545
Cs1 Se5 4.160909 1_555
Cs2 Se3 3.654837 1_556
Cs2 Se10 3.756332 1_555
Cs2 Se6 3.835773 1_455
Cs2 Se7 3.853210 1_556
Cs2 Se12 3.855167 1_455
Cs2 Se18 3.904223 1_555
Cs2 Se2 4.140650 1_555
Cs2 Se8 4.172820 1_555
Cs2 Se1 4.187611 1_556
Cs2 Se4 4.318887 1_555
Cs3 Se2 3.654837 1_554
Cs3 Se11 3.756332 1_555
Cs3 Se7 3.835773 1_655
Cs3 Se6 3.853210 1_554
Cs3 Se13 3.855167 1_655
Cs3 Se19 3.904223 1_555
Cs3 Se3 4.140650 1_555
Cs3 Se9 4.172820 1_555
Cs3 Se0 4.187611 1_554
Cs3 Se5 4.318887 1_555
Cs4 Se0 3.720545 1_465
Cs4 Se10 3.859061 1_455
Cs4 Se18 3.867321 1_555
Cs4 Se12 3.880779 1_465
Cs4 Se8 3.890032 1_565
Cs4 Se1 3.900333 1_556
Cs4 Se17 3.908578 1_555
Cs4 Se4 3.911380 1_555
Cs4 Se4 3.969232 1_455
Cs4 Se6 4.053200 1_465
Cs4 Se2 4.102493 1_565
Cs5 Se1 3.720545 1_645
Cs5 Se11 3.859061 1_655
Cs5 Se19 3.867321 1_555
Cs5 Se13 3.880779 1_645
Cs5 Se9 3.890032 1_545
Cs5 Se0 3.900333 1_554
Cs5 Se16 3.908578 1_555
Cs5 Se5 3.911380 1_555
Cs5 Se5 3.969232 1_655
Cs5 Se7 4.053200 1_645
Cs5 Se3 4.102493 1_545
B0 Se2 2.052693 1_555
B0 Se0 2.059413 1_555
B0 Se4 2.066863 1_545
B0 Se6 2.081107 1_555
B1 Se3 2.052693 1_555
B1 Se1 2.059413 1_555
B1 Se5 2.066863 1_565
B1 Se7 2.081107 1_555
B2 Se10 2.049486 1_555
B2 Se6 2.069364 1_555
B2 Se8 2.079116 1_555
B2 Se12 2.107366 1_555
B3 Se11 2.049486 1_555
B3 Se7 2.069364 1_555
B3 Se9 2.079116 1_555
B3 Se13 2.107366 1_555
B4 Se18 2.056279 1_655
B4 Se14 2.058901 1_555
B4 Se16 2.059574 1_555
B4 Se12 2.073415 1_555
B5 Se19 2.056279 1_455
B5 Se15 2.058901 1_555
B5 Se17 2.059574 1_555
B5 Se13 2.073415 1_555
