# generated using pymatgen
data_KSi2HO5
_symmetry_space_group_name_H-M   'P 1'
_cell_length_a   4.81117100
_cell_length_b   8.26638200
_cell_length_c   12.66688600
_cell_angle_alpha   90.00000000
_cell_angle_beta   90.00000000
_cell_angle_gamma   90.00000000
_symmetry_Int_Tables_number   1
_chemical_formula_structural   KSi2HO5
_chemical_formula_sum   'K4 Si8 H4 O20'
_cell_volume   503.77443624
_cell_formula_units_Z   4
loop_
 _symmetry_equiv_pos_site_id
 _symmetry_equiv_pos_as_xyz
  1  'x, y, z'
loop_
 _atom_site_type_symbol
 _atom_site_label
 _atom_site_symmetry_multiplicity
 _atom_site_fract_x
 _atom_site_fract_y
 _atom_site_fract_z
 _atom_site_occupancy
  K  K0  1  0.96296600  0.25000000  0.53846100  1
  K  K1  1  0.53703400  0.25000000  0.03846100  1
  K  K2  1  0.03703400  0.75000000  0.46153900  1
  K  K3  1  0.46296600  0.75000000  0.96153900  1
  Si  Si0  1  0.47406100  0.56192000  0.68667000  1
  Si  Si1  1  0.02593900  0.93808000  0.18667000  1
  Si  Si2  1  0.52593900  0.06192000  0.31333000  1
  Si  Si3  1  0.97406100  0.43808000  0.81333000  1
  Si  Si4  1  0.52593900  0.43808000  0.31333000  1
  Si  Si5  1  0.97406100  0.06192000  0.81333000  1
  Si  Si6  1  0.47406100  0.93808000  0.68667000  1
  Si  Si7  1  0.02593900  0.56192000  0.18667000  1
  H  H0  1  0.50000000  0.00000000  0.50000000  1
  H  H1  1  0.00000000  0.50000000  0.00000000  1
  H  H2  1  0.50000000  0.50000000  0.50000000  1
  H  H3  1  0.00000000  0.00000000  0.00000000  1
  O  O0  1  0.24648300  0.55043100  0.78350900  1
  O  O1  1  0.25351700  0.94956900  0.28350900  1
  O  O2  1  0.75351700  0.05043100  0.21649100  1
  O  O3  1  0.74648300  0.44956900  0.71649100  1
  O  O4  1  0.75351700  0.44956900  0.21649100  1
  O  O5  1  0.74648300  0.05043100  0.71649100  1
  O  O6  1  0.24648300  0.94956900  0.78350900  1
  O  O7  1  0.25351700  0.55043100  0.28350900  1
  O  O8  1  0.34451900  0.50583000  0.57514500  1
  O  O9  1  0.15548100  0.99417000  0.07514500  1
  O  O10  1  0.65548100  0.00583000  0.42485500  1
  O  O11  1  0.84451900  0.49417000  0.92485500  1
  O  O12  1  0.65548100  0.49417000  0.42485500  1
  O  O13  1  0.84451900  0.00583000  0.92485500  1
  O  O14  1  0.34451900  0.99417000  0.57514500  1
  O  O15  1  0.15548100  0.50583000  0.07514500  1
  O  O16  1  0.08802300  0.25000000  0.81589200  1
  O  O17  1  0.41197700  0.25000000  0.31589200  1
  O  O18  1  0.91197700  0.75000000  0.18410800  1
  O  O19  1  0.58802300  0.75000000  0.68410800  1
loop_
_geom_bond_atom_site_label_1
_geom_bond_atom_site_label_2
_geom_bond_distance
_geom_bond_site_symmetry_2
K0 O14 2.838680 1_645
K0 O8 2.838680 1_655
K0 O12 2.886743 1_555
K0 O10 2.886743 1_555
K0 O5 2.981906 1_555
K0 O3 2.981906 1_555
K1 O9 2.838680 1_545
K1 O15 2.838680 1_555
K1 O11 2.886743 1_554
K1 O13 2.886743 1_554
K1 O4 2.981906 1_555
K1 O2 2.981906 1_555
K2 O12 2.838680 1_455
K2 O10 2.838680 1_465
K2 O14 2.886743 1_555
K2 O8 2.886743 1_555
K2 O7 2.981906 1_555
K2 O1 2.981906 1_555
K3 O11 2.838680 1_555
K3 O13 2.838680 1_565
K3 O9 2.886743 1_556
K3 O15 2.886743 1_556
K3 O6 2.981906 1_555
K3 O0 2.981906 1_555
H0 O10 1.211577 1_555
H0 O14 1.211577 1_545
H1 O15 1.211577 1_555
H1 O11 1.211577 1_454
H2 O8 1.211577 1_555
H2 O12 1.211577 1_555
H3 O9 1.211577 1_545
H3 O13 1.211577 1_454
O0 Si0 1.646976 1_555
O0 Si3 1.650179 1_455
O1 Si1 1.646976 1_555
O1 Si2 1.650179 1_565
O2 Si2 1.646976 1_555
O2 Si1 1.650179 1_645
O3 Si3 1.646976 1_555
O3 Si0 1.650179 1_555
O4 Si4 1.646976 1_555
O4 Si7 1.650179 1_655
O5 Si5 1.646976 1_555
O5 Si6 1.650179 1_545
O6 Si6 1.646976 1_555
O6 Si5 1.650179 1_465
O7 Si7 1.646976 1_555
O7 Si4 1.650179 1_555
O8 Si0 1.612163 1_555
O9 Si1 1.612163 1_555
O10 Si2 1.612163 1_555
O11 Si3 1.612163 1_555
O12 Si4 1.612163 1_555
O13 Si5 1.612163 1_555
O14 Si6 1.612163 1_555
O15 Si7 1.612163 1_555
O16 Si5 1.648907 1_455
O16 Si3 1.648907 1_455
O17 Si2 1.648907 1_555
O17 Si4 1.648907 1_555
O18 Si7 1.648907 1_655
O18 Si1 1.648907 1_655
O19 Si6 1.648907 1_555
O19 Si0 1.648907 1_555
