# generated using pymatgen
data_Li4Zn(PS4)2
_symmetry_space_group_name_H-M   'P 1'
_cell_length_a   10.24751500
_cell_length_b   10.27820416
_cell_length_c   10.28135402
_cell_angle_alpha   77.30619264
_cell_angle_beta   65.77770271
_cell_angle_gamma   75.16856066
_symmetry_Int_Tables_number   1
_chemical_formula_structural   Li4Zn(PS4)2
_chemical_formula_sum   'Li12 Zn3 P6 S24'
_cell_volume   946.53714702
_cell_formula_units_Z   3
loop_
 _symmetry_equiv_pos_site_id
 _symmetry_equiv_pos_as_xyz
  1  'x, y, z'
loop_
 _atom_site_type_symbol
 _atom_site_label
 _atom_site_symmetry_multiplicity
 _atom_site_fract_x
 _atom_site_fract_y
 _atom_site_fract_z
 _atom_site_occupancy
  Li  Li0  1  0.59702400  0.23857300  0.31527500  1
  Li  Li1  1  0.42304900  0.75459400  0.66575200  1
  Li  Li2  1  0.24052600  0.25013400  0.99727000  1
  Li  Li3  1  0.91233400  0.25469000  0.68320100  1
  Li  Li4  1  0.83161300  0.49908500  0.33398900  1
  Li  Li5  1  0.50305600  0.49763800  0.99513500  1
  Li  Li6  1  0.34841500  0.99087000  0.32095300  1
  Li  Li7  1  0.99414800  0.00683300  0.01061500  1
  Li  Li8  1  0.16626500  0.51033300  0.66795400  1
  Li  Li9  1  0.54287800  0.37499600  0.65615000  1
  Li  Li10  1  0.20834300  0.36380300  0.33225500  1
  Li  Li11  1  0.04883200  0.88528700  0.67774900  1
  Zn  Zn0  1  0.08422600  0.75268900  0.33235100  1
  Zn  Zn1  1  0.74048200  0.74982600  0.01172000  1
  Zn  Zn2  1  0.65996700  0.00022500  0.66804100  1
  P  P0  1  0.46138400  0.62250600  0.33223000  1
  P  P1  1  0.29672800  0.13158900  0.65960300  1
  P  P2  1  0.11948900  0.63021700  0.00550700  1
  P  P3  1  0.95753900  0.12238800  0.34378000  1
  P  P4  1  0.61371800  0.12311100  0.99658900  1
  P  P5  1  0.79799700  0.62150000  0.66355600  1
  S  S0  1  0.36077800  0.16846200  0.43937000  1
  S  S1  1  0.19030500  0.68025300  0.78468700  1
  S  S2  1  0.01199500  0.17214700  0.13052200  1
  S  S3  1  0.85580900  0.68110500  0.44479800  1
  S  S4  1  0.51852700  0.67289500  0.11204000  1
  S  S5  1  0.68696500  0.16978700  0.76979000  1
  S  S6  1  0.46483100  0.78140900  0.41448700  1
  S  S7  1  0.30067700  0.29707700  0.73894200  1
  S  S8  1  0.13328100  0.79370800  0.08316300  1
  S  S9  1  0.96231300  0.28497300  0.42814000  1
  S  S10  1  0.63920600  0.28308700  0.06272700  1
  S  S11  1  0.79576800  0.79391400  0.75086500  1
  S  S12  1  0.59144600  0.45091600  0.39021000  1
  S  S13  1  0.42445900  0.96466200  0.73205500  1
  S  S14  1  0.25361300  0.46068200  0.06142600  1
  S  S15  1  0.09624300  0.95186900  0.40689300  1
  S  S16  1  0.75716300  0.95838400  0.05258400  1
  S  S17  1  0.92892300  0.46708900  0.73243600  1
  S  S18  1  0.59273100  0.57909600  0.73830000  1
  S  S19  1  0.41455500  0.07564100  0.07064700  1
  S  S20  1  0.25113700  0.57490500  0.40596100  1
  S  S21  1  0.09125000  0.08405900  0.75079100  1
  S  S22  1  0.75528800  0.06880400  0.41939100  1
  S  S23  1  0.91639200  0.57919200  0.07677000  1
loop_
_geom_bond_atom_site_label_1
_geom_bond_atom_site_label_2
_geom_bond_distance
_geom_bond_site_symmetry_2
Li0 S10 2.407562 1_555
Li0 S0 2.441842 1_555
Li0 S22 2.444537 1_555
Li0 S12 2.449313 1_555
Li1 S18 2.387627 1_555
Li1 S6 2.402675 1_555
Li1 S13 2.407823 1_555
Li1 S1 2.428331 1_555
Li2 S19 2.416193 1_556
Li2 S2 2.418585 1_556
Li2 S7 2.431582 1_555
Li2 S14 2.446365 1_556
Li3 S21 2.404967 1_655
Li3 S17 2.407747 1_555
Li3 S9 2.420093 1_555
Li3 S5 2.427139 1_555
Li4 S23 2.439345 1_555
Li4 S12 2.442751 1_555
Li4 S9 2.488486 1_555
Li4 S3 2.503082 1_555
Li5 S10 2.416485 1_556
Li5 S18 2.439137 1_555
Li5 S4 2.443084 1_556
Li5 S14 2.469120 1_556
Li6 S6 2.387364 1_555
Li6 S19 2.393116 1_565
Li6 S0 2.460033 1_565
Li6 S15 2.473915 1_555
Li7 S2 2.388511 1_655
Li7 S8 2.437883 1_645
Li7 S16 2.448803 1_545
Li7 S21 2.459182 1_654
Li8 S17 2.377676 1_455
Li8 S7 2.410491 1_555
Li8 S1 2.436253 1_555
Li8 S20 2.457663 1_555
Li9 S12 2.545017 1_555
Li9 S7 2.551572 1_555
Li9 S5 2.594626 1_555
Li9 S18 2.656396 1_555
Li10 S0 2.553085 1_555
Li10 S9 2.576830 1_455
Li10 S14 2.630230 1_555
Li10 S20 2.637575 1_555
Li11 S21 2.514677 1_565
Li11 S1 2.545034 1_555
Li11 S15 2.584916 1_555
Li11 S11 2.740281 1_455
P0 S6 2.011225 1_555
P0 S12 2.056370 1_555
P0 S4 2.070836 1_555
P0 S20 2.119533 1_555
P1 S0 2.057226 1_555
P1 S7 2.057241 1_555
P1 S21 2.063204 1_555
P1 S13 2.073766 1_545
P2 S14 2.058636 1_555
P2 S1 2.066767 1_554
P2 S23 2.069322 1_455
P2 S8 2.070015 1_555
P3 S2 2.007409 1_655
P3 S9 2.064177 1_555
P3 S22 2.068174 1_555
P3 S15 2.120075 1_645
P4 S19 2.013597 1_556
P4 S10 2.022669 1_556
P4 S16 2.085828 1_546
P4 S5 2.118346 1_555
P5 S17 2.003986 1_555
P5 S18 2.049593 1_555
P5 S3 2.066827 1_555
P5 S11 2.146676 1_555
S3 Zn0 2.375745 1_655
S4 Zn1 2.345137 1_555
S5 Zn2 2.343888 1_555
S8 Zn0 2.360350 1_555
S11 Zn2 2.413784 1_565
S11 Zn1 2.463670 1_556
S13 Zn2 2.331026 1_565
S15 Zn0 2.385297 1_555
S16 Zn1 2.333042 1_555
S20 Zn0 2.385721 1_555
S22 Zn2 2.344774 1_555
S23 Zn1 2.372321 1_555
