# generated using pymatgen
data_LiNdTi2O6
_symmetry_space_group_name_H-M   'P 1'
_cell_length_a   5.51541109
_cell_length_b   5.44464321
_cell_length_c   7.71616500
_cell_angle_alpha   90.00000000
_cell_angle_beta   90.00000000
_cell_angle_gamma   89.13493173
_symmetry_Int_Tables_number   1
_chemical_formula_structural   LiNdTi2O6
_chemical_formula_sum   'Li2 Nd2 Ti4 O12'
_cell_volume   231.68574653
_cell_formula_units_Z   2
loop_
 _symmetry_equiv_pos_site_id
 _symmetry_equiv_pos_as_xyz
  1  'x, y, z'
loop_
 _atom_site_type_symbol
 _atom_site_label
 _atom_site_symmetry_multiplicity
 _atom_site_fract_x
 _atom_site_fract_y
 _atom_site_fract_z
 _atom_site_occupancy
  Li  Li0  1  0.16779600  0.85163700  0.50000000  1
  Li  Li1  1  0.87081000  0.29668600  0.50000000  1
  Nd  Nd0  1  0.78719700  0.26695100  0.00000000  1
  Nd  Nd1  1  0.27245400  0.75313600  0.00000000  1
  Ti  Ti0  1  0.26930200  0.26702100  0.73828100  1
  Ti  Ti1  1  0.26930200  0.26702100  0.26171900  1
  Ti  Ti2  1  0.75460000  0.77133100  0.73132100  1
  Ti  Ti3  1  0.75460000  0.77133100  0.26867900  1
  O  O0  1  0.45624900  0.96798300  0.72537400  1
  O  O1  1  0.45624900  0.96798300  0.27462600  1
  O  O2  1  0.51459200  0.48189800  0.80442100  1
  O  O3  1  0.51459200  0.48189800  0.19557900  1
  O  O4  1  0.96159100  0.03326700  0.70360500  1
  O  O5  1  0.96159100  0.03326700  0.29639500  1
  O  O6  1  0.01429900  0.52279900  0.79866100  1
  O  O7  1  0.01429900  0.52279900  0.20133900  1
  O  O8  1  0.22299900  0.17914300  0.00000000  1
  O  O9  1  0.24486100  0.33373700  0.50000000  1
  O  O10  1  0.75061600  0.83233200  0.00000000  1
  O  O11  1  0.77200300  0.65607700  0.50000000  1
loop_
_geom_bond_atom_site_label_1
_geom_bond_atom_site_label_2
_geom_bond_distance
_geom_bond_site_symmetry_2
Li0 O5 2.169250 1_465
Li0 O4 2.169250 1_465
Li0 O11 2.443196 1_455
Li0 O0 2.446832 1_555
Li0 O1 2.446832 1_555
Li1 O11 2.023284 1_555
Li1 O9 2.075913 1_655
Li1 O5 2.180413 1_555
Li1 O4 2.180413 1_555
Nd0 O10 2.377964 1_545
Nd0 O2 2.419614 1_554
Nd0 O3 2.419614 1_555
Nd0 O8 2.443622 1_655
Nd0 O7 2.444506 1_655
Nd0 O6 2.444506 1_654
Nd1 O8 2.331346 1_565
Nd1 O7 2.463240 1_555
Nd1 O6 2.463240 1_554
Nd1 O2 2.486432 1_554
Nd1 O3 2.486432 1_555
Nd1 O1 2.631001 1_555
Nd1 O0 2.631001 1_554
Nd1 O10 2.678695 1_555
Nd1 O10 2.903826 1_455
O0 Ti0 1.916576 1_565
O0 Ti2 1.950146 1_555
O1 Ti1 1.916576 1_565
O1 Ti3 1.950146 1_555
O2 Ti0 1.872766 1_555
O2 Ti2 2.148667 1_555
O3 Ti1 1.872766 1_555
O3 Ti3 2.148667 1_555
O4 Ti2 1.852604 1_545
O4 Ti0 2.153352 1_655
O5 Ti3 1.852604 1_545
O5 Ti1 2.153352 1_655
O6 Ti0 2.018763 1_555
O6 Ti2 2.023400 1_455
O7 Ti1 2.018763 1_555
O7 Ti3 2.023400 1_455
O8 Ti1 2.091909 1_555
O8 Ti0 2.091909 1_554
O9 Ti0 1.878602 1_555
O9 Ti1 1.878602 1_555
O10 Ti2 2.099669 1_554
O10 Ti3 2.099669 1_555
O11 Ti3 1.893959 1_555
O11 Ti2 1.893959 1_555
