# generated using pymatgen
data_Si4Bi2AsH38(C7Cl)2
_symmetry_space_group_name_H-M   'P 1'
_cell_length_a   9.84810300
_cell_length_b   13.18996345
_cell_length_c   14.38038137
_cell_angle_alpha   96.08166532
_cell_angle_beta   103.02806941
_cell_angle_gamma   93.78265021
_symmetry_Int_Tables_number   1
_chemical_formula_structural   Si4Bi2AsH38(C7Cl)2
_chemical_formula_sum   'Si8 Bi4 As2 H76 C28 Cl4'
_cell_volume   1801.83091761
_cell_formula_units_Z   2
loop_
 _symmetry_equiv_pos_site_id
 _symmetry_equiv_pos_as_xyz
  1  'x, y, z'
loop_
 _atom_site_type_symbol
 _atom_site_label
 _atom_site_symmetry_multiplicity
 _atom_site_fract_x
 _atom_site_fract_y
 _atom_site_fract_z
 _atom_site_occupancy
  Si  Si0  1  0.01000600  0.72752000  0.11602500  1
  Si  Si1  1  0.98999400  0.27248000  0.88397500  1
  Si  Si2  1  0.62031500  0.10442000  0.36944200  1
  Si  Si3  1  0.37968500  0.89558000  0.63055800  1
  Si  Si4  1  0.71273400  0.66638800  0.16457300  1
  Si  Si5  1  0.28726600  0.33361200  0.83542700  1
  Si  Si6  1  0.88597300  0.26771900  0.37777600  1
  Si  Si7  1  0.11402700  0.73228100  0.62222400  1
  Bi  Bi0  1  0.76415100  0.88539900  0.02994700  1
  Bi  Bi1  1  0.23584900  0.11460100  0.97005300  1
  Bi  Bi2  1  0.69344300  0.16316700  0.14489000  1
  Bi  Bi3  1  0.30655700  0.83683300  0.85511000  1
  As  As0  1  0.53474300  0.97278000  0.08259800  1
  As  As1  1  0.46525700  0.02722000  0.91740200  1
  H  H0  1  0.86776900  0.82415300  0.20767000  1
  H  H1  1  0.13223100  0.17584700  0.79233000  1
  H  H2  1  0.80495100  0.50987800  0.09430600  1
  H  H3  1  0.19504900  0.49012200  0.90569400  1
  H  H4  1  0.62726200  0.48579300  0.09988000  1
  H  H5  1  0.37273800  0.51420700  0.90012000  1
  H  H6  1  0.66893300  0.55380500  0.00814900  1
  H  H7  1  0.33106700  0.44619500  0.99185100  1
  H  H8  1  0.77419100  0.71244500  0.34249400  1
  H  H9  1  0.22580900  0.28755500  0.65750600  1
  H  H10  1  0.69990200  0.58346200  0.30981700  1
  H  H11  1  0.30009800  0.41653800  0.69018300  1
  H  H12  1  0.87876900  0.61574400  0.31051800  1
  H  H13  1  0.12123100  0.38425600  0.68948200  1
  H  H14  1  0.48191400  0.71981300  0.07980000  1
  H  H15  1  0.51808600  0.28018700  0.92020000  1
  H  H16  1  0.46586600  0.63784400  0.16828900  1
  H  H17  1  0.53413400  0.36215600  0.83171100  1
  H  H18  1  0.52477100  0.76985100  0.20415300  1
  H  H19  1  0.47522900  0.23014900  0.79584700  1
  H  H20  1  0.02750100  0.56555900  0.19640800  1
  H  H21  1  0.97249900  0.43444100  0.80359200  1
  H  H22  1  0.19216400  0.61910200  0.18444100  1
  H  H23  1  0.80783600  0.38089800  0.81555900  1
  H  H24  1  0.11627100  0.67391200  0.27673200  1
  H  H25  1  0.88372900  0.32608800  0.72326800  1
  H  H26  1  0.16618200  0.88363000  0.20326200  1
  H  H27  1  0.83381800  0.11637000  0.79673800  1
  H  H28  1  0.24003000  0.81368500  0.11706000  1
  H  H29  1  0.75997000  0.18631500  0.88294000  1
  H  H30  1  0.10752200  0.89560100  0.07907900  1
  H  H31  1  0.89247800  0.10439900  0.92092100  1
  H  H32  1  0.08695600  0.64134300  0.97777500  1
  H  H33  1  0.91304400  0.35865700  0.02222500  1
  H  H34  1  0.91194900  0.59351000  0.97325600  1
  H  H35  1  0.08805100  0.40649000  0.02674400  1
  H  H36  1  0.94650500  0.71493800  0.93631200  1
  H  H37  1  0.05349500  0.28506200  0.06368800  1
  H  H38  1  0.63911200  0.26552000  0.30360900  1
  H  H39  1  0.36088800  0.73448000  0.69639100  1
  H  H40  1  0.02887900  0.11838300  0.37843000  1
  H  H41  1  0.97112100  0.88161700  0.62157000  1
  H  H42  1  0.10968900  0.21842500  0.47155800  1
  H  H43  1  0.89031100  0.78157500  0.52844200  1
  H  H44  1  0.96795500  0.13615900  0.48633300  1
  H  H45  1  0.03204500  0.86384100  0.51366700  1
  H  H46  1  0.81096100  0.33418900  0.52843700  1
  H  H47  1  0.18903900  0.66581100  0.47156300  1
  H  H48  1  0.96457800  0.40434800  0.51520300  1
  H  H49  1  0.03542200  0.59565200  0.48479700  1
  H  H50  1  0.79780300  0.42623100  0.44583200  1
  H  H51  1  0.20219700  0.57376900  0.55416800  1
  H  H52  1  0.91017000  0.40019600  0.26896300  1
  H  H53  1  0.08983000  0.59980400  0.73103700  1
  H  H54  1  0.07495900  0.37654600  0.33983800  1
  H  H55  1  0.92504100  0.62345400  0.66016200  1
  H  H56  1  0.99326200  0.28995800  0.23638000  1
  H  H57  1  0.00673800  0.71004200  0.76362000  1
  H  H58  1  0.80552300  0.98225400  0.39170700  1
  H  H59  1  0.19447700  0.01774600  0.60829300  1
  H  H60  1  0.63793800  0.92098100  0.38999900  1
  H  H61  1  0.36206200  0.07901900  0.61000100  1
  H  H62  1  0.68052400  0.94739900  0.28063900  1
  H  H63  1  0.31947600  0.05260100  0.71936100  1
  H  H64  1  0.59783100  0.21835300  0.51598700  1
  H  H65  1  0.40216900  0.78164700  0.48401300  1
  H  H66  1  0.58807700  0.08721000  0.53342100  1
  H  H67  1  0.41192300  0.91279000  0.46657900  1
  H  H68  1  0.75336700  0.15455200  0.54184300  1
  H  H69  1  0.24663300  0.84544800  0.45815700  1
  H  H70  1  0.40383500  0.06398100  0.23702000  1
  H  H71  1  0.59616500  0.93601900  0.76298000  1
  H  H72  1  0.37689400  0.02969100  0.34812300  1
  H  H73  1  0.62310600  0.97030900  0.65187700  1
  H  H74  1  0.37860300  0.16015800  0.32640300  1
  H  H75  1  0.62139700  0.83984200  0.67359700  1
  C  C0  1  0.83877200  0.77032200  0.14031300  1
  C  C1  1  0.16122800  0.22967800  0.85968700  1
  C  C2  1  0.70362700  0.54248800  0.08414800  1
  C  C3  1  0.29637300  0.45751200  0.91585200  1
  C  C4  1  0.77391500  0.64201100  0.29389200  1
  C  C5  1  0.22608500  0.35798900  0.70610800  1
  C  C6  1  0.52911700  0.70295700  0.15252300  1
  C  C7  1  0.47088300  0.29704300  0.84747700  1
  C  C8  1  0.09234900  0.63768600  0.20156800  1
  C  C9  1  0.90765100  0.36231400  0.79843200  1
  C  C10  1  0.14206300  0.84127800  0.13061900  1
  C  C11  1  0.85793700  0.15872200  0.86938100  1
  C  C12  1  0.98504700  0.66278500  0.98919300  1
  C  C13  1  0.01495300  0.33721500  0.01080700  1
  C  C14  1  0.70812500  0.20220500  0.30972900  1
  C  C15  1  0.29187500  0.79779500  0.69027100  1
  C  C16  1  0.00891500  0.17600400  0.43377900  1
  C  C17  1  0.99108500  0.82399600  0.56622100  1
  C  C18  1  0.86116600  0.36663500  0.47620000  1
  C  C19  1  0.13883400  0.63336500  0.52380000  1
  C  C20  1  0.97307100  0.33957700  0.29726500  1
  C  C21  1  0.02692900  0.66042300  0.70273500  1
  C  C22  1  0.69369600  0.97698700  0.35692200  1
  C  C23  1  0.30630400  0.02301300  0.64307800  1
  C  C24  1  0.64297500  0.14587300  0.50249600  1
  C  C25  1  0.35702500  0.85412700  0.49750400  1
  C  C26  1  0.42703900  0.08847400  0.31489300  1
  C  C27  1  0.57296100  0.91152600  0.68510700  1
  Cl  Cl0  1  0.57395400  0.74880700  0.90187500  1
  Cl  Cl1  1  0.42604600  0.25119300  0.09812500  1
  Cl  Cl2  1  0.92626800  0.05871600  0.16154600  1
  Cl  Cl3  1  0.07373200  0.94128400  0.83845400  1
loop_
_geom_bond_atom_site_label_1
_geom_bond_atom_site_label_2
_geom_bond_distance
_geom_bond_site_symmetry_2
Bi0 C0 2.344062 1_555
Bi0 Cl0 2.728119 1_554
Bi0 Cl2 2.931867 1_565
Bi1 C1 2.344062 1_555
Bi1 Cl1 2.728119 1_556
Bi1 Cl3 2.931867 1_545
Bi2 C14 2.341385 1_555
Bi2 Cl2 2.729812 1_555
Bi2 Cl1 2.916383 1_555
Bi3 C15 2.341385 1_555
Bi3 Cl3 2.729812 1_555
Bi3 Cl0 2.916383 1_555
As0 As1 2.514087 1_564
As0 Bi2 2.815223 1_565
As0 Bi0 2.817029 1_555
As1 Bi3 2.815223 1_545
As1 Bi1 2.817029 1_555
C0 H0 1.107575 1_555
C0 Si4 1.900989 1_555
C0 Si0 1.906254 1_655
C1 H1 1.107575 1_555
C1 Si5 1.900989 1_555
C1 Si1 1.906254 1_455
C2 H2 1.098305 1_555
C2 H6 1.098354 1_555
C2 H4 1.101964 1_555
C2 Si4 1.884083 1_555
C3 H3 1.098305 1_555
C3 H7 1.098354 1_555
C3 H5 1.101964 1_555
C3 Si5 1.884083 1_555
C4 H12 1.094045 1_555
C4 H8 1.101272 1_555
C4 H10 1.103887 1_555
C4 Si4 1.889925 1_555
C5 H13 1.094045 1_555
C5 H9 1.101272 1_555
C5 H11 1.103887 1_555
C5 Si5 1.889925 1_555
C6 H14 1.096774 1_555
C6 H16 1.100617 1_555
C6 H18 1.100947 1_555
C6 Si4 1.877252 1_555
C7 H15 1.096774 1_555
C7 H17 1.100617 1_555
C7 H19 1.100947 1_555
C7 Si5 1.877252 1_555
C8 H20 1.096330 1_555
C8 H24 1.101378 1_555
C8 H22 1.102345 1_555
C8 Si0 1.886990 1_555
C9 H21 1.096330 1_555
C9 H25 1.101378 1_555
C9 H23 1.102345 1_555
C9 Si1 1.886990 1_555
C10 H26 1.098503 1_555
C10 H30 1.099751 1_555
C10 H28 1.103360 1_555
C10 Si0 1.881360 1_555
C11 H27 1.098503 1_555
C11 H31 1.099751 1_555
C11 H29 1.103360 1_555
C11 Si1 1.881360 1_555
C12 H34 1.095496 1_555
C12 H36 1.100323 1_555
C12 H32 1.102764 1_655
C12 Si0 1.885806 1_656
C13 H35 1.095496 1_555
C13 H37 1.100323 1_555
C13 H33 1.102764 1_455
C13 Si1 1.885806 1_454
C14 H38 1.109320 1_555
C14 Si2 1.889712 1_555
C14 Si6 1.902711 1_555
C15 H39 1.109320 1_555
C15 Si3 1.889712 1_555
C15 Si7 1.902711 1_555
C16 H44 1.097136 1_455
C16 H40 1.100860 1_555
C16 H42 1.101082 1_555
C16 Si6 1.880949 1_455
C17 H45 1.097136 1_655
C17 H41 1.100860 1_555
C17 H43 1.101082 1_555
C17 Si7 1.880949 1_655
C18 H46 1.095235 1_555
C18 H50 1.101178 1_555
C18 H48 1.102586 1_555
C18 Si6 1.889940 1_555
C19 H47 1.095235 1_555
C19 H51 1.101178 1_555
C19 H49 1.102586 1_555
C19 Si7 1.889940 1_555
C20 H56 1.099411 1_555
C20 H52 1.099684 1_555
C20 H54 1.102101 1_655
C20 Si6 1.883484 1_555
C21 H57 1.099411 1_555
C21 H53 1.099684 1_555
C21 H55 1.102101 1_455
C21 Si7 1.883484 1_555
C22 H58 1.096378 1_555
C22 H62 1.100430 1_555
C22 H60 1.100986 1_555
C22 Si2 1.880074 1_565
C23 H59 1.096378 1_555
C23 H63 1.100430 1_555
C23 H61 1.100986 1_555
C23 Si3 1.880074 1_545
C24 H64 1.097684 1_555
C24 H68 1.098944 1_555
C24 H66 1.102220 1_555
C24 Si2 1.891942 1_555
C25 H65 1.097684 1_555
C25 H69 1.098944 1_555
C25 H67 1.102220 1_555
C25 Si3 1.891942 1_555
C26 H72 1.098983 1_555
C26 H70 1.099484 1_555
C26 H74 1.100390 1_555
C26 Si2 1.876582 1_555
C27 H73 1.098983 1_555
C27 H71 1.099484 1_555
C27 H75 1.100390 1_555
C27 Si3 1.876582 1_555
