# generated using pymatgen
data_CsAlH24(SO10)2
_symmetry_space_group_name_H-M   'P 1'
_cell_length_a   12.48055746
_cell_length_b   12.48055746
_cell_length_c   12.48055746
_cell_angle_alpha   90.00000000
_cell_angle_beta   90.00000000
_cell_angle_gamma   90.00000000
_symmetry_Int_Tables_number   1
_chemical_formula_structural   CsAlH24(SO10)2
_chemical_formula_sum   'Cs4 Al4 H96 S8 O80'
_cell_volume   1944.02547749
_cell_formula_units_Z   4
loop_
 _symmetry_equiv_pos_site_id
 _symmetry_equiv_pos_as_xyz
  1  'x, y, z'
loop_
 _atom_site_type_symbol
 _atom_site_label
 _atom_site_symmetry_multiplicity
 _atom_site_fract_x
 _atom_site_fract_y
 _atom_site_fract_z
 _atom_site_occupancy
  Cs  Cs0  1  -0.00000000  -0.00000000  0.50000000  1
  Cs  Cs1  1  -0.00000000  0.50000000  0.00000000  1
  Cs  Cs2  1  0.50000000  -0.00000000  0.00000000  1
  Cs  Cs3  1  0.50000000  0.50000000  0.50000000  1
  Al  Al0  1  0.50000000  0.50000000  0.00000000  1
  Al  Al1  1  0.50000000  -0.00000000  0.50000000  1
  Al  Al2  1  -0.00000000  0.50000000  0.50000000  1
  Al  Al3  1  -0.00000000  -0.00000000  0.00000000  1
  H  H0  1  0.22245551  0.50451772  0.23398028  1
  H  H1  1  0.77754449  0.00451772  0.26601972  1
  H  H2  1  0.27754449  0.49548228  0.73398028  1
  H  H3  1  0.72245551  0.99548228  0.76601972  1
  H  H4  1  0.23398028  0.22245551  0.50451772  1
  H  H5  1  0.26601972  0.77754449  0.00451772  1
  H  H6  1  0.73398028  0.27754449  0.49548228  1
  H  H7  1  0.76601972  0.72245551  0.99548228  1
  H  H8  1  0.50451772  0.23398028  0.22245551  1
  H  H9  1  0.00451772  0.26601972  0.77754449  1
  H  H10  1  0.49548228  0.73398028  0.27754449  1
  H  H11  1  0.99548228  0.76601972  0.72245551  1
  H  H12  1  0.77754449  0.49548228  0.76601972  1
  H  H13  1  0.22245551  0.99548228  0.73398028  1
  H  H14  1  0.72245551  0.50451772  0.26601972  1
  H  H15  1  0.27754449  0.00451772  0.23398028  1
  H  H16  1  0.76601972  0.77754449  0.49548228  1
  H  H17  1  0.73398028  0.22245551  0.99548228  1
  H  H18  1  0.26601972  0.72245551  0.50451772  1
  H  H19  1  0.23398028  0.27754449  0.00451772  1
  H  H20  1  0.49548228  0.76601972  0.77754449  1
  H  H21  1  0.99548228  0.73398028  0.22245551  1
  H  H22  1  0.50451772  0.26601972  0.72245551  1
  H  H23  1  0.00451772  0.23398028  0.27754449  1
  H  H24  1  0.17850243  0.62161273  0.22531712  1
  H  H25  1  0.82149757  0.12161273  0.27468288  1
  H  H26  1  0.32149757  0.37838727  0.72531712  1
  H  H27  1  0.67850243  0.87838727  0.77468288  1
  H  H28  1  0.22531712  0.17850243  0.62161273  1
  H  H29  1  0.27468288  0.82149757  0.12161273  1
  H  H30  1  0.72531712  0.32149757  0.37838727  1
  H  H31  1  0.77468288  0.67850243  0.87838727  1
  H  H32  1  0.62161273  0.22531712  0.17850243  1
  H  H33  1  0.12161273  0.27468288  0.82149757  1
  H  H34  1  0.37838727  0.72531712  0.32149757  1
  H  H35  1  0.87838727  0.77468288  0.67850243  1
  H  H36  1  0.82149757  0.37838727  0.77468288  1
  H  H37  1  0.17850243  0.87838727  0.72531712  1
  H  H38  1  0.67850243  0.62161273  0.27468288  1
  H  H39  1  0.32149757  0.12161273  0.22531712  1
  H  H40  1  0.77468288  0.82149757  0.37838727  1
  H  H41  1  0.72531712  0.17850243  0.87838727  1
  H  H42  1  0.27468288  0.67850243  0.62161273  1
  H  H43  1  0.22531712  0.32149757  0.12161273  1
  H  H44  1  0.37838727  0.77468288  0.82149757  1
  H  H45  1  0.87838727  0.72531712  0.17850243  1
  H  H46  1  0.62161273  0.27468288  0.67850243  1
  H  H47  1  0.12161273  0.22531712  0.32149757  1
  H  H48  1  0.48069438  0.70136818  0.93502045  1
  H  H49  1  0.51930562  0.20136818  0.56497955  1
  H  H50  1  0.01930562  0.29863182  0.43502045  1
  H  H51  1  0.98069438  0.79863182  0.06497955  1
  H  H52  1  0.93502045  0.48069438  0.70136818  1
  H  H53  1  0.56497955  0.51930562  0.20136818  1
  H  H54  1  0.43502045  0.01930562  0.29863182  1
  H  H55  1  0.06497955  0.98069438  0.79863182  1
  H  H56  1  0.70136818  0.93502045  0.48069438  1
  H  H57  1  0.20136818  0.56497955  0.51930562  1
  H  H58  1  0.29863182  0.43502045  0.01930562  1
  H  H59  1  0.79863182  0.06497955  0.98069438  1
  H  H60  1  0.51930562  0.29863182  0.06497955  1
  H  H61  1  0.48069438  0.79863182  0.43502045  1
  H  H62  1  0.98069438  0.70136818  0.56497955  1
  H  H63  1  0.01930562  0.20136818  0.93502045  1
  H  H64  1  0.06497955  0.51930562  0.29863182  1
  H  H65  1  0.43502045  0.48069438  0.79863182  1
  H  H66  1  0.56497955  0.98069438  0.70136818  1
  H  H67  1  0.93502045  0.01930562  0.20136818  1
  H  H68  1  0.29863182  0.06497955  0.51930562  1
  H  H69  1  0.79863182  0.43502045  0.48069438  1
  H  H70  1  0.70136818  0.56497955  0.98069438  1
  H  H71  1  0.20136818  0.93502045  0.01930562  1
  H  H72  1  0.52373906  0.69524941  0.05975901  1
  H  H73  1  0.47626094  0.19524941  0.44024099  1
  H  H74  1  0.97626094  0.30475059  0.55975901  1
  H  H75  1  0.02373906  0.80475059  0.94024099  1
  H  H76  1  0.05975901  0.52373906  0.69524941  1
  H  H77  1  0.44024099  0.47626094  0.19524941  1
  H  H78  1  0.55975901  0.97626094  0.30475059  1
  H  H79  1  0.94024099  0.02373906  0.80475059  1
  H  H80  1  0.69524941  0.05975901  0.52373906  1
  H  H81  1  0.19524941  0.44024099  0.47626094  1
  H  H82  1  0.30475059  0.55975901  0.97626094  1
  H  H83  1  0.80475059  0.94024099  0.02373906  1
  H  H84  1  0.47626094  0.30475059  0.94024099  1
  H  H85  1  0.52373906  0.80475059  0.55975901  1
  H  H86  1  0.02373906  0.69524941  0.44024099  1
  H  H87  1  0.97626094  0.19524941  0.05975901  1
  H  H88  1  0.94024099  0.47626094  0.30475059  1
  H  H89  1  0.55975901  0.52373906  0.80475059  1
  H  H90  1  0.44024099  0.02373906  0.69524941  1
  H  H91  1  0.05975901  0.97626094  0.19524941  1
  H  H92  1  0.30475059  0.94024099  0.47626094  1
  H  H93  1  0.80475059  0.55975901  0.52373906  1
  H  H94  1  0.69524941  0.44024099  0.02373906  1
  H  H95  1  0.19524941  0.05975901  0.97626094  1
  S  S0  1  0.17225550  0.82774450  0.32774450  1
  S  S1  1  0.82774450  0.32774450  0.17225550  1
  S  S2  1  0.32774450  0.17225550  0.82774450  1
  S  S3  1  0.67225550  0.67225550  0.67225550  1
  S  S4  1  0.82774450  0.17225550  0.67225550  1
  S  S5  1  0.17225550  0.67225550  0.82774450  1
  S  S6  1  0.67225550  0.82774450  0.17225550  1
  S  S7  1  0.32774450  0.32774450  0.32774450  1
  O  O0  1  0.24140481  0.75859519  0.25859519  1
  O  O1  1  0.75859519  0.25859519  0.24140481  1
  O  O2  1  0.25859519  0.24140481  0.75859519  1
  O  O3  1  0.74140481  0.74140481  0.74140481  1
  O  O4  1  0.75859519  0.24140481  0.74140481  1
  O  O5  1  0.24140481  0.74140481  0.75859519  1
  O  O6  1  0.74140481  0.75859519  0.24140481  1
  O  O7  1  0.25859519  0.25859519  0.25859519  1
  O  O8  1  0.06398732  0.77771416  0.34016537  1
  O  O9  1  0.93601268  0.27771416  0.15983463  1
  O  O10  1  0.43601268  0.22228584  0.84016537  1
  O  O11  1  0.56398732  0.72228584  0.65983463  1
  O  O12  1  0.34016537  0.06398732  0.77771416  1
  O  O13  1  0.15983463  0.93601268  0.27771416  1
  O  O14  1  0.84016537  0.43601268  0.22228584  1
  O  O15  1  0.65983463  0.56398732  0.72228584  1
  O  O16  1  0.77771416  0.34016537  0.06398732  1
  O  O17  1  0.27771416  0.15983463  0.93601268  1
  O  O18  1  0.22228584  0.84016537  0.43601268  1
  O  O19  1  0.72228584  0.65983463  0.56398732  1
  O  O20  1  0.93601268  0.22228584  0.65983463  1
  O  O21  1  0.06398732  0.72228584  0.84016537  1
  O  O22  1  0.56398732  0.77771416  0.15983463  1
  O  O23  1  0.43601268  0.27771416  0.34016537  1
  O  O24  1  0.65983463  0.93601268  0.22228584  1
  O  O25  1  0.84016537  0.06398732  0.72228584  1
  O  O26  1  0.15983463  0.56398732  0.77771416  1
  O  O27  1  0.34016537  0.43601268  0.27771416  1
  O  O28  1  0.22228584  0.65983463  0.93601268  1
  O  O29  1  0.72228584  0.84016537  0.06398732  1
  O  O30  1  0.77771416  0.15983463  0.56398732  1
  O  O31  1  0.27771416  0.34016537  0.43601268  1
  O  O32  1  0.15699903  0.54607711  0.21593164  1
  O  O33  1  0.84300097  0.04607711  0.28406836  1
  O  O34  1  0.34300097  0.45392289  0.71593164  1
  O  O35  1  0.65699903  0.95392289  0.78406836  1
  O  O36  1  0.21593164  0.15699903  0.54607711  1
  O  O37  1  0.28406836  0.84300097  0.04607711  1
  O  O38  1  0.71593164  0.34300097  0.45392289  1
  O  O39  1  0.78406836  0.65699903  0.95392289  1
  O  O40  1  0.54607711  0.21593164  0.15699903  1
  O  O41  1  0.04607711  0.28406836  0.84300097  1
  O  O42  1  0.45392289  0.71593164  0.34300097  1
  O  O43  1  0.95392289  0.78406836  0.65699903  1
  O  O44  1  0.84300097  0.45392289  0.78406836  1
  O  O45  1  0.15699903  0.95392289  0.71593164  1
  O  O46  1  0.65699903  0.54607711  0.28406836  1
  O  O47  1  0.34300097  0.04607711  0.21593164  1
  O  O48  1  0.78406836  0.84300097  0.45392289  1
  O  O49  1  0.71593164  0.15699903  0.95392289  1
  O  O50  1  0.28406836  0.65699903  0.54607711  1
  O  O51  1  0.21593164  0.34300097  0.04607711  1
  O  O52  1  0.45392289  0.78406836  0.84300097  1
  O  O53  1  0.95392289  0.71593164  0.15699903  1
  O  O54  1  0.54607711  0.28406836  0.65699903  1
  O  O55  1  0.04607711  0.21593164  0.34300097  1
  O  O56  1  0.49842343  0.65199643  0.99793666  1
  O  O57  1  0.50157657  0.15199643  0.50206334  1
  O  O58  1  0.00157657  0.34800357  0.49793666  1
  O  O59  1  0.99842343  0.84800357  0.00206334  1
  O  O60  1  0.99793666  0.49842343  0.65199643  1
  O  O61  1  0.50206334  0.50157657  0.15199643  1
  O  O62  1  0.49793666  0.00157657  0.34800357  1
  O  O63  1  0.00206334  0.99842343  0.84800357  1
  O  O64  1  0.65199643  0.99793666  0.49842343  1
  O  O65  1  0.15199643  0.50206334  0.50157657  1
  O  O66  1  0.34800357  0.49793666  0.00157657  1
  O  O67  1  0.84800357  0.00206334  0.99842343  1
  O  O68  1  0.50157657  0.34800357  0.00206334  1
  O  O69  1  0.49842343  0.84800357  0.49793666  1
  O  O70  1  0.99842343  0.65199643  0.50206334  1
  O  O71  1  0.00157657  0.15199643  0.99793666  1
  O  O72  1  0.00206334  0.50157657  0.34800357  1
  O  O73  1  0.49793666  0.49842343  0.84800357  1
  O  O74  1  0.50206334  0.99842343  0.65199643  1
  O  O75  1  0.99793666  0.00157657  0.15199643  1
  O  O76  1  0.34800357  0.00206334  0.50157657  1
  O  O77  1  0.84800357  0.49793666  0.49842343  1
  O  O78  1  0.65199643  0.50206334  0.99842343  1
  O  O79  1  0.15199643  0.99793666  0.00157657  1
loop_
_geom_bond_atom_site_label_1
_geom_bond_atom_site_label_2
_geom_bond_distance
_geom_bond_site_symmetry_2
Cs0 O48 3.381247 1_445
Cs0 O33 3.381247 1_455
Cs0 O43 3.381247 1_445
Cs0 O55 3.381247 1_555
Cs0 O45 3.381247 1_545
Cs0 O36 3.381247 1_555
Cs0 O8 3.509068 1_545
Cs0 O30 3.509068 1_455
Cs0 O20 3.509068 1_455
Cs0 O13 3.509068 1_545
Cs0 O25 3.509068 1_455
Cs0 O18 3.509068 1_545
Cs1 O44 3.381247 1_454
Cs1 O41 3.381247 1_554
Cs1 O53 3.381247 1_455
Cs1 O51 3.381247 1_555
Cs1 O39 3.381247 1_454
Cs1 O32 3.381247 1_555
Cs1 O26 3.509068 1_554
Cs1 O16 3.509068 1_455
Cs1 O14 3.509068 1_455
Cs1 O28 3.509068 1_554
Cs1 O9 3.509068 1_455
Cs1 O21 3.509068 1_554
Cs2 O37 3.381247 1_545
Cs2 O52 3.381247 1_544
Cs2 O49 3.381247 1_554
Cs2 O47 3.381247 1_555
Cs2 O35 3.381247 1_544
Cs2 O40 3.381247 1_555
Cs2 O12 3.509068 1_554
Cs2 O22 3.509068 1_545
Cs2 O10 3.509068 1_554
Cs2 O24 3.509068 1_545
Cs2 O17 3.509068 1_554
Cs2 O29 3.509068 1_545
Cs3 O34 3.381247 1_555
Cs3 O38 3.381247 1_555
Cs3 O42 3.381247 1_555
Cs3 O46 3.381247 1_555
Cs3 O50 3.381247 1_555
Cs3 O54 3.381247 1_555
Cs3 O23 3.509068 1_555
Cs3 O27 3.509068 1_555
Cs3 O15 3.509068 1_555
Cs3 O31 3.509068 1_555
Cs3 O19 3.509068 1_555
Cs3 O11 3.509068 1_555
Al0 O78 1.897277 1_554
Al0 O56 1.897277 1_554
Al0 O73 1.897277 1_554
Al0 O61 1.897277 1_555
Al0 O68 1.897277 1_555
Al0 O66 1.897277 1_555
Al1 O64 1.897277 1_545
Al1 O74 1.897277 1_545
Al1 O69 1.897277 1_545
Al1 O57 1.897277 1_555
Al1 O76 1.897277 1_555
Al1 O62 1.897277 1_555
Al2 O70 1.897277 1_455
Al2 O77 1.897277 1_455
Al2 O60 1.897277 1_455
Al2 O72 1.897277 1_555
Al2 O65 1.897277 1_555
Al2 O58 1.897277 1_555
Al3 O67 1.897277 1_454
Al3 O59 1.897277 1_445
Al3 O63 1.897277 1_544
Al3 O71 1.897277 1_554
Al3 O79 1.897277 1_545
Al3 O75 1.897277 1_455
H0 O32 0.993556 1_555
H1 O33 0.993556 1_555
H2 O34 0.993556 1_555
H3 O35 0.993556 1_555
H4 O36 0.993556 1_555
H5 O37 0.993556 1_555
H6 O38 0.993556 1_555
H7 O39 0.993556 1_555
H8 O40 0.993556 1_555
H9 O41 0.993556 1_555
H10 O42 0.993556 1_555
H11 O43 0.993556 1_555
H12 O44 0.993556 1_555
H13 O45 0.993556 1_555
H14 O46 0.993556 1_555
H15 O47 0.993556 1_555
H16 O48 0.993556 1_555
H17 O49 0.993556 1_555
H18 O50 0.993556 1_555
H19 O51 0.993556 1_555
H20 O52 0.993556 1_555
H21 O53 0.993556 1_555
H22 O54 0.993556 1_555
H23 O55 0.993556 1_555
H24 O32 0.987157 1_555
H25 O33 0.987157 1_555
H26 O34 0.987157 1_555
H27 O35 0.987157 1_555
H28 O36 0.987157 1_555
H29 O37 0.987157 1_555
H30 O38 0.987157 1_555
H31 O39 0.987157 1_555
H32 O40 0.987157 1_555
H33 O41 0.987157 1_555
H34 O42 0.987157 1_555
H35 O43 0.987157 1_555
H36 O44 0.987157 1_555
H37 O45 0.987157 1_555
H38 O46 0.987157 1_555
H39 O47 0.987157 1_555
H40 O48 0.987157 1_555
H41 O49 0.987157 1_555
H42 O50 0.987157 1_555
H43 O51 0.987157 1_555
H44 O52 0.987157 1_555
H45 O53 0.987157 1_555
H46 O54 0.987157 1_555
H47 O55 0.987157 1_555
H48 O56 1.022366 1_555
H48 O52 1.579844 1_555
H49 O57 1.022366 1_555
H49 O54 1.579844 1_555
H50 O58 1.022366 1_555
H50 O55 1.579844 1_555
H51 O59 1.022366 1_555
H51 O53 1.579844 1_555
H52 O60 1.022366 1_555
H52 O44 1.579844 1_555
H53 O61 1.022366 1_555
H53 O46 1.579844 1_555
H54 O62 1.022366 1_555
H54 O47 1.579844 1_555
H55 O63 1.022366 1_555
H55 O45 1.579844 1_555
H56 O64 1.022366 1_555
H56 O48 1.579844 1_555
H57 O65 1.022366 1_555
H57 O50 1.579844 1_555
H58 O66 1.022366 1_555
H58 O51 1.579844 1_555
H59 O67 1.022366 1_555
H59 O49 1.579844 1_555
H60 O68 1.022366 1_555
H60 O40 1.579844 1_555
H61 O69 1.022366 1_555
H61 O42 1.579844 1_555
H62 O70 1.022366 1_555
H62 O43 1.579844 1_555
H63 O71 1.022366 1_555
H63 O41 1.579844 1_555
H64 O72 1.022366 1_555
H64 O32 1.579844 1_555
H65 O73 1.022366 1_555
H65 O34 1.579844 1_555
H66 O74 1.022366 1_555
H66 O35 1.579844 1_555
H67 O75 1.022366 1_555
H67 O33 1.579844 1_555
H68 O76 1.022366 1_555
H68 O36 1.579844 1_555
H69 O77 1.022366 1_555
H69 O38 1.579844 1_555
H70 O78 1.022366 1_555
H70 O39 1.579844 1_555
H71 O79 1.022366 1_555
H71 O37 1.579844 1_555
H72 O56 0.993260 1_554
H73 O57 0.993260 1_555
H74 O58 0.993260 1_655
H75 O59 0.993260 1_456
H76 O60 0.993260 1_455
H77 O61 0.993260 1_555
H78 O62 0.993260 1_565
H79 O63 0.993260 1_645
H80 O64 0.993260 1_545
H81 O65 0.993260 1_555
H82 O66 0.993260 1_556
H83 O67 0.993260 1_564
H84 O68 0.993260 1_556
H85 O69 0.993260 1_555
H86 O70 0.993260 1_455
H87 O71 0.993260 1_654
H88 O72 0.993260 1_655
H89 O73 0.993260 1_555
H90 O74 0.993260 1_545
H91 O75 0.993260 1_465
H92 O76 0.993260 1_565
H93 O77 0.993260 1_555
H94 O78 0.993260 1_554
H95 O79 0.993260 1_546
O0 S0 1.494798 1_555
O1 S1 1.494798 1_555
O2 S2 1.494798 1_555
O3 S3 1.494798 1_555
O4 S4 1.494798 1_555
O5 S5 1.494798 1_555
O6 S6 1.494798 1_555
O7 S7 1.494798 1_555
O8 S0 1.496591 1_555
O9 S1 1.496591 1_555
O10 S2 1.496591 1_555
O11 S3 1.496591 1_555
O12 S2 1.496591 1_555
O13 S0 1.496591 1_555
O14 S1 1.496591 1_555
O15 S3 1.496591 1_555
O16 S1 1.496591 1_555
O17 S2 1.496591 1_555
O18 S0 1.496591 1_555
O19 S3 1.496591 1_555
O20 S4 1.496591 1_555
O21 S5 1.496591 1_555
O22 S6 1.496591 1_555
O23 S7 1.496591 1_555
O24 S6 1.496591 1_555
O25 S4 1.496591 1_555
O26 S5 1.496591 1_555
O27 S7 1.496591 1_555
O28 S5 1.496591 1_555
O29 S6 1.496591 1_555
O30 S4 1.496591 1_555
O31 S7 1.496591 1_555
