# generated using pymatgen
data_PrAl
_symmetry_space_group_name_H-M   'P 1'
_cell_length_a   6.03047900
_cell_length_b   11.84445600
_cell_length_c   5.81625500
_cell_angle_alpha   90.00000000
_cell_angle_beta   90.00000000
_cell_angle_gamma   90.00000000
_symmetry_Int_Tables_number   1
_chemical_formula_structural   PrAl
_chemical_formula_sum   'Pr8 Al8'
_cell_volume   415.44196838
_cell_formula_units_Z   8
loop_
 _symmetry_equiv_pos_site_id
 _symmetry_equiv_pos_as_xyz
  1  'x, y, z'
loop_
 _atom_site_type_symbol
 _atom_site_label
 _atom_site_symmetry_multiplicity
 _atom_site_fract_x
 _atom_site_fract_y
 _atom_site_fract_z
 _atom_site_occupancy
  Pr  Pr0  1  0.16561100  0.48809200  0.75000000  1
  Pr  Pr1  1  0.83438900  0.51190800  0.25000000  1
  Pr  Pr2  1  0.16561100  0.01190800  0.25000000  1
  Pr  Pr3  1  0.83438900  0.98809200  0.75000000  1
  Pr  Pr4  1  0.40386300  0.16535200  0.75000000  1
  Pr  Pr5  1  0.59613700  0.83464800  0.25000000  1
  Pr  Pr6  1  0.40386300  0.33464800  0.25000000  1
  Pr  Pr7  1  0.59613700  0.66535200  0.75000000  1
  Al  Al0  1  0.92723300  0.25000000  0.50000000  1
  Al  Al1  1  0.07276700  0.75000000  0.00000000  1
  Al  Al2  1  0.07276700  0.75000000  0.50000000  1
  Al  Al3  1  0.92723300  0.25000000  0.00000000  1
  Al  Al4  1  0.66760000  0.39727400  0.75000000  1
  Al  Al5  1  0.33240000  0.60272600  0.25000000  1
  Al  Al6  1  0.66760000  0.10272600  0.25000000  1
  Al  Al7  1  0.33240000  0.89727400  0.75000000  1
loop_
_geom_bond_atom_site_label_1
_geom_bond_atom_site_label_2
_geom_bond_distance
_geom_bond_site_symmetry_2
Pr0 Pr7 3.338976 1_555
Pr0 Pr1 3.539279 1_455
Pr0 Pr1 3.539279 1_456
Pr0 Pr6 3.718156 1_555
Pr0 Pr6 3.718156 1_556
Pr0 Pr7 4.025151 1_455
Pr0 Pr4 4.083773 1_555
Pr1 Pr6 3.338976 1_555
Pr1 Pr7 3.718156 1_554
Pr1 Pr7 3.718156 1_555
Pr1 Pr6 4.025151 1_655
Pr1 Pr5 4.083773 1_555
Pr2 Pr5 3.338976 1_545
Pr2 Pr3 3.539279 1_444
Pr2 Pr3 3.539279 1_445
Pr2 Pr4 3.718156 1_555
Pr2 Pr4 3.718156 1_554
Pr2 Pr5 4.025151 1_445
Pr2 Pr6 4.083773 1_555
Pr3 Pr4 3.338976 1_565
Pr3 Pr5 3.718156 1_555
Pr3 Pr5 3.718156 1_556
Pr3 Pr4 4.025151 1_665
Pr3 Pr7 4.083773 1_555
Pr4 Pr6 3.532437 1_556
Pr4 Pr6 3.532437 1_555
Pr5 Pr7 3.532437 1_555
Pr5 Pr7 3.532437 1_554
Al0 Al4 2.758372 1_555
Al0 Al6 2.758372 1_555
Al0 Al3 2.908127 1_556
Al0 Al3 2.908127 1_555
Al0 Pr6 3.373599 1_655
Al0 Pr4 3.373599 1_655
Al0 Pr1 3.471479 1_555
Al0 Pr3 3.471479 1_545
Al0 Pr0 3.483332 1_655
Al0 Pr2 3.483332 1_655
Al0 Pr4 3.616759 1_555
Al0 Pr6 3.616759 1_555
Al1 Al7 2.758372 1_554
Al1 Al5 2.758372 1_555
Al1 Al2 2.908127 1_555
Al1 Al2 2.908127 1_554
Al1 Pr5 3.373599 1_455
Al1 Pr7 3.373599 1_454
Al1 Pr2 3.471479 1_565
Al1 Pr0 3.471479 1_554
Al1 Pr3 3.483332 1_454
Al1 Pr1 3.483332 1_455
Al1 Pr5 3.616759 1_555
Al1 Pr7 3.616759 1_554
Al2 Al7 2.758372 1_555
Al2 Al5 2.758372 1_555
Al2 Pr5 3.373599 1_455
Al2 Pr7 3.373599 1_455
Al2 Pr2 3.471479 1_565
Al2 Pr0 3.471479 1_555
Al2 Pr3 3.483332 1_455
Al2 Pr1 3.483332 1_455
Al2 Pr5 3.616759 1_555
Al2 Pr7 3.616759 1_555
Al3 Al4 2.758372 1_554
Al3 Al6 2.758372 1_555
Al3 Pr6 3.373599 1_655
Al3 Pr4 3.373599 1_654
Al3 Pr1 3.471479 1_555
Al3 Pr3 3.471479 1_544
Al3 Pr0 3.483332 1_654
Al3 Pr2 3.483332 1_655
Al3 Pr6 3.616759 1_555
Al3 Pr4 3.616759 1_554
Al4 Pr4 3.174196 1_555
Al4 Pr0 3.190077 1_655
Al4 Pr7 3.204350 1_555
Al4 Pr0 3.212671 1_555
Al4 Pr1 3.363396 1_556
Al4 Pr1 3.363396 1_555
Al4 Pr6 3.396615 1_556
Al4 Pr6 3.396615 1_555
Al5 Pr5 3.174196 1_555
Al5 Pr1 3.190077 1_455
Al5 Pr6 3.204350 1_555
Al5 Pr1 3.212671 1_555
Al5 Pr0 3.363396 1_555
Al5 Pr0 3.363396 1_554
Al5 Pr7 3.396615 1_554
Al5 Pr7 3.396615 1_555
Al6 Pr6 3.174196 1_555
Al6 Pr2 3.190077 1_655
Al6 Pr5 3.204350 1_545
Al6 Pr2 3.212671 1_555
Al6 Pr3 3.363396 1_545
Al6 Pr3 3.363396 1_544
Al6 Pr4 3.396615 1_554
Al6 Pr4 3.396615 1_555
Al7 Pr7 3.174196 1_555
Al7 Pr3 3.190077 1_455
Al7 Pr4 3.204350 1_565
Al7 Pr3 3.212671 1_555
Al7 Pr2 3.363396 1_566
Al7 Pr2 3.363396 1_565
Al7 Pr5 3.396615 1_555
Al7 Pr5 3.396615 1_556
