# generated using pymatgen
data_Mg6CoW
_symmetry_space_group_name_H-M   'P 1'
_cell_length_a   4.77881400
_cell_length_b   5.70703200
_cell_length_c   10.67334300
_cell_angle_alpha   90.00000000
_cell_angle_beta   90.00000000
_cell_angle_gamma   90.00000000
_symmetry_Int_Tables_number   1
_chemical_formula_structural   Mg6CoW
_chemical_formula_sum   'Mg12 Co2 W2'
_cell_volume   291.09242308
_cell_formula_units_Z   2
loop_
 _symmetry_equiv_pos_site_id
 _symmetry_equiv_pos_as_xyz
  1  'x, y, z'
loop_
 _atom_site_type_symbol
 _atom_site_label
 _atom_site_symmetry_multiplicity
 _atom_site_fract_x
 _atom_site_fract_y
 _atom_site_fract_z
 _atom_site_occupancy
  Mg  Mg0  1  0.50000000  0.25072500  0.42474100  1
  Mg  Mg1  1  0.50000000  0.74927500  0.42474100  1
  Mg  Mg2  1  0.00000000  0.74775900  0.08489800  1
  Mg  Mg3  1  0.00000000  0.25224100  0.08489800  1
  Mg  Mg4  1  0.00000000  0.00000000  0.31314500  1
  Mg  Mg5  1  0.00000000  0.50000000  0.32025400  1
  Mg  Mg6  1  0.50000000  0.75072500  0.92474100  1
  Mg  Mg7  1  0.50000000  0.24927500  0.92474100  1
  Mg  Mg8  1  0.00000000  0.24775900  0.58489800  1
  Mg  Mg9  1  0.00000000  0.75224100  0.58489800  1
  Mg  Mg10  1  0.00000000  0.50000000  0.81314500  1
  Mg  Mg11  1  0.00000000  0.00000000  0.82025400  1
  Co  Co0  1  0.50000000  0.00000000  0.17066900  1
  Co  Co1  1  0.50000000  0.50000000  0.67066900  1
  W  W0  1  0.50000000  0.50000000  0.17664900  1
  W  W1  1  0.50000000  0.00000000  0.67664900  1
loop_
_geom_bond_atom_site_label_1
_geom_bond_atom_site_label_2
_geom_bond_distance
_geom_bond_site_symmetry_2
Mg0 Mg1 2.845241 1_555
Mg0 Mg1 2.861791 1_545
Mg0 Mg8 2.937965 1_655
Mg0 Mg8 2.937965 1_555
Mg0 Mg5 2.996138 1_555
Mg0 Mg5 2.996138 1_655
Mg0 W0 3.005927 1_555
Mg0 Mg4 3.029101 1_655
Mg0 Mg4 3.029101 1_555
Mg0 W1 3.045747 1_555
Mg1 Mg9 2.937965 1_555
Mg1 Mg9 2.937965 1_655
Mg1 Mg5 2.996138 1_655
Mg1 Mg5 2.996138 1_555
Mg1 W0 3.005927 1_555
Mg1 Mg4 3.029101 1_665
Mg1 Mg4 3.029101 1_565
Mg1 W1 3.045747 1_565
Mg2 Mg6 2.937965 1_554
Mg2 Mg6 2.937965 1_454
Mg2 W0 2.944076 1_455
Mg2 W0 2.944076 1_555
Mg3 Mg7 2.937965 1_454
Mg3 Mg7 2.937965 1_554
Mg3 W0 2.944076 1_455
Mg3 W0 2.944076 1_555
Mg5 W0 2.838763 1_455
Mg5 W0 2.838763 1_555
Mg6 Mg7 2.845241 1_565
Mg6 Mg7 2.861791 1_555
Mg6 W1 3.005927 1_565
Mg6 W0 3.045747 1_556
Mg7 W1 3.005927 1_555
Mg7 W0 3.045747 1_556
Mg8 W1 2.944076 1_555
Mg8 W1 2.944076 1_455
Mg9 W1 2.944076 1_565
Mg9 W1 2.944076 1_465
Mg10 Mg6 3.029101 1_455
Mg10 Mg6 3.029101 1_555
Mg10 Mg7 3.029101 1_455
Mg10 Mg7 3.029101 1_555
Mg11 W1 2.838763 1_455
Mg11 W1 2.838763 1_555
Mg11 Mg7 2.996138 1_455
Mg11 Mg6 2.996138 1_545
Mg11 Mg7 2.996138 1_555
Mg11 Mg6 2.996138 1_445
Co0 Mg4 2.832275 1_655
Co0 Mg4 2.832275 1_555
Co0 W0 2.854230 1_545
Co0 W0 2.854230 1_555
Co0 Mg3 2.935922 1_655
Co0 Mg2 2.935922 1_645
Co0 Mg2 2.935922 1_545
Co0 Mg3 2.935922 1_555
Co0 Mg6 2.985601 1_544
Co0 Mg7 2.985601 1_554
Co0 Mg0 3.066155 1_555
Co0 Mg1 3.066155 1_545
Co1 Mg10 2.832275 1_555
Co1 Mg10 2.832275 1_655
Co1 W1 2.854230 1_565
Co1 W1 2.854230 1_555
Co1 Mg9 2.935922 1_555
Co1 Mg9 2.935922 1_655
Co1 Mg8 2.935922 1_655
Co1 Mg8 2.935922 1_555
Co1 Mg1 2.985601 1_555
Co1 Mg0 2.985601 1_555
Co1 Mg6 3.066155 1_555
Co1 Mg7 3.066155 1_555
