# generated using pymatgen
data_Ce5CuBi3
_symmetry_space_group_name_H-M   'P 1'
_cell_length_a   6.49483200
_cell_length_b   9.61615344
_cell_length_c   9.61604711
_cell_angle_alpha   120.00036652
_cell_angle_beta   90.00000000
_cell_angle_gamma   90.00000000
_symmetry_Int_Tables_number   1
_chemical_formula_structural   Ce5CuBi3
_chemical_formula_sum   'Ce10 Cu2 Bi6'
_cell_volume   520.10965535
_cell_formula_units_Z   2
loop_
 _symmetry_equiv_pos_site_id
 _symmetry_equiv_pos_as_xyz
  1  'x, y, z'
loop_
 _atom_site_type_symbol
 _atom_site_label
 _atom_site_symmetry_multiplicity
 _atom_site_fract_x
 _atom_site_fract_y
 _atom_site_fract_z
 _atom_site_occupancy
  Ce  Ce0  1  0.50000100  0.33346300  0.66691900  1
  Ce  Ce1  1  0.50000100  0.66654400  0.33308100  1
  Ce  Ce2  1  0.00000100  0.66653700  0.33308100  1
  Ce  Ce3  1  0.00000100  0.33345600  0.66691900  1
  Ce  Ce4  1  0.74999800  0.25738100  0.00000000  1
  Ce  Ce5  1  0.75000600  0.74261600  0.74284600  1
  Ce  Ce6  1  0.75000600  0.99977000  0.25715400  1
  Ce  Ce7  1  0.24999800  0.74261900  0.00000000  1
  Ce  Ce8  1  0.25000600  0.25738400  0.25715400  1
  Ce  Ce9  1  0.25000600  0.00023000  0.74284600  1
  Cu  Cu0  1  0.49995700  0.99999900  0.00000000  1
  Cu  Cu1  1  0.99995700  0.00000100  0.00000000  1
  Bi  Bi0  1  0.75001400  0.61526700  0.00000000  1
  Bi  Bi1  1  0.75000900  0.38457100  0.38461400  1
  Bi  Bi2  1  0.75000900  0.99995800  0.61538600  1
  Bi  Bi3  1  0.25001400  0.38473300  0.00000000  1
  Bi  Bi4  1  0.25000900  0.61542900  0.61538600  1
  Bi  Bi5  1  0.25000900  0.00004200  0.38461400  1
loop_
_geom_bond_atom_site_label_1
_geom_bond_atom_site_label_2
_geom_bond_distance
_geom_bond_site_symmetry_2
Ce0 Ce3 3.247416 1_655
Ce0 Ce3 3.247416 1_555
Ce1 Ce2 3.247416 1_655
Ce1 Ce2 3.247416 1_555
Ce4 Cu1 2.959935 1_555
Ce4 Cu0 2.960243 1_545
Ce5 Cu1 2.958996 1_566
Ce5 Cu0 2.959337 1_556
Ce6 Cu1 2.958996 1_565
Ce6 Cu0 2.959337 1_555
Ce7 Cu0 2.959935 1_555
Ce7 Cu1 2.960243 1_465
Ce8 Cu0 2.958996 1_545
Ce8 Cu1 2.959337 1_455
Ce9 Cu0 2.958996 1_546
Ce9 Cu1 2.959337 1_456
Cu0 Cu1 3.247416 1_465
Cu0 Cu1 3.247416 1_565
Bi0 Ce6 3.262312 1_555
Bi0 Ce5 3.262312 1_554
Bi0 Ce3 3.399825 1_654
Bi0 Ce2 3.399825 1_655
Bi0 Ce0 3.399884 1_554
Bi0 Ce1 3.399884 1_555
Bi0 Ce4 3.441487 1_555
Bi0 Ce7 3.470558 1_655
Bi0 Ce7 3.470752 1_555
Bi1 Ce4 3.263588 1_555
Bi1 Ce6 3.264833 1_545
Bi1 Ce2 3.402545 1_655
Bi1 Ce1 3.402653 1_555
Bi1 Ce3 3.403172 1_655
Bi1 Ce0 3.403185 1_555
Bi1 Ce5 3.443877 1_555
Bi1 Ce8 3.470536 1_655
Bi1 Ce8 3.470572 1_555
Bi2 Ce4 3.263587 1_566
Bi2 Ce5 3.264842 1_555
Bi2 Ce3 3.402537 1_665
Bi2 Ce0 3.402645 1_565
Bi2 Ce2 3.403177 1_655
Bi2 Ce1 3.403190 1_555
Bi2 Ce6 3.443872 1_555
Bi2 Ce9 3.470538 1_665
Bi2 Ce9 3.470574 1_565
Bi3 Ce9 3.262312 1_554
Bi3 Ce8 3.262312 1_555
Bi3 Ce1 3.399825 1_555
Bi3 Ce0 3.399825 1_554
Bi3 Ce2 3.399884 1_555
Bi3 Ce3 3.399884 1_554
Bi3 Ce7 3.441487 1_555
Bi3 Ce4 3.470558 1_555
Bi3 Ce4 3.470752 1_455
Bi4 Ce7 3.263588 1_556
Bi4 Ce9 3.264833 1_565
Bi4 Ce0 3.402545 1_555
Bi4 Ce3 3.402653 1_555
Bi4 Ce1 3.403172 1_555
Bi4 Ce2 3.403185 1_555
Bi4 Ce8 3.443877 1_555
Bi4 Ce5 3.470536 1_555
Bi4 Ce5 3.470572 1_455
Bi5 Ce7 3.263587 1_545
Bi5 Ce8 3.264842 1_555
Bi5 Ce1 3.402537 1_545
Bi5 Ce2 3.402645 1_545
Bi5 Ce0 3.403177 1_555
Bi5 Ce3 3.403190 1_555
Bi5 Ce9 3.443872 1_555
Bi5 Ce6 3.470538 1_545
Bi5 Ce6 3.470574 1_445
