# generated using pymatgen
data_InTe14(IrBr8)2
_symmetry_space_group_name_H-M   'P 1'
_cell_length_a   11.49612400
_cell_length_b   13.26466033
_cell_length_c   17.86194699
_cell_angle_alpha   78.68473964
_cell_angle_beta   85.40046641
_cell_angle_gamma   66.02109748
_symmetry_Int_Tables_number   1
_chemical_formula_structural   InTe14(IrBr8)2
_chemical_formula_sum   'In2 Te28 Ir4 Br32'
_cell_volume   2440.35434650
_cell_formula_units_Z   2
loop_
 _symmetry_equiv_pos_site_id
 _symmetry_equiv_pos_as_xyz
  1  'x, y, z'
loop_
 _atom_site_type_symbol
 _atom_site_label
 _atom_site_symmetry_multiplicity
 _atom_site_fract_x
 _atom_site_fract_y
 _atom_site_fract_z
 _atom_site_occupancy
  In  In0  1  0.95367900  0.07407900  0.79004800  1
  In  In1  1  0.04632100  0.92592100  0.20995200  1
  Te  Te0  1  0.08630200  0.27165500  0.91810500  1
  Te  Te1  1  0.91369800  0.72834500  0.08189500  1
  Te  Te2  1  0.02099100  0.76697000  0.93792800  1
  Te  Te3  1  0.97900900  0.23303000  0.06207200  1
  Te  Te4  1  0.16880100  0.56920500  0.13032200  1
  Te  Te5  1  0.83119900  0.43079500  0.86967800  1
  Te  Te6  1  0.25605200  0.56732100  0.97942300  1
  Te  Te7  1  0.74394800  0.43267900  0.02057700  1
  Te  Te8  1  0.93514600  0.59129800  0.90910700  1
  Te  Te9  1  0.06485400  0.40870200  0.09089300  1
  Te  Te10  1  0.39721800  0.25550300  0.98528400  1
  Te  Te11  1  0.60278200  0.74449700  0.01471600  1
  Te  Te12  1  0.26829600  0.43396900  0.80834200  1
  Te  Te13  1  0.73170400  0.56603100  0.19165800  1
  Te  Te14  1  0.57899800  0.16224100  0.35255600  1
  Te  Te15  1  0.42100200  0.83775900  0.64744400  1
  Te  Te16  1  0.51028200  0.97631800  0.70442500  1
  Te  Te17  1  0.48971800  0.02368200  0.29557500  1
  Te  Te18  1  0.79987000  0.95791800  0.40666100  1
  Te  Te19  1  0.20013000  0.04208200  0.59333900  1
  Te  Te20  1  0.32421900  0.17758000  0.61757000  1
  Te  Te21  1  0.67578100  0.82242000  0.38243000  1
  Te  Te22  1  0.64538800  0.97210100  0.55063400  1
  Te  Te23  1  0.35461200  0.02789900  0.44936600  1
  Te  Te24  1  0.26688000  0.35879300  0.42267700  1
  Te  Te25  1  0.73312000  0.64120700  0.57732300  1
  Te  Te26  1  0.55307000  0.30179500  0.51950700  1
  Te  Te27  1  0.44693000  0.69820500  0.48049300  1
  Ir  Ir0  1  0.17094100  0.42010500  0.94824900  1
  Ir  Ir1  1  0.82905900  0.57989500  0.05175100  1
  Ir  Ir2  1  0.45259600  0.16957300  0.48524400  1
  Ir  Ir3  1  0.54740400  0.83042700  0.51475600  1
  Br  Br0  1  0.44665400  0.31705100  0.10890500  1
  Br  Br1  1  0.55334600  0.68294900  0.89109500  1
  Br  Br2  1  0.38325700  0.18376500  0.84262100  1
  Br  Br3  1  0.61674300  0.81623500  0.15737900  1
  Br  Br4  1  0.31871800  0.10470900  0.06500900  1
  Br  Br5  1  0.68128200  0.89529100  0.93499100  1
  Br  Br6  1  0.50541100  0.39959700  0.87990500  1
  Br  Br7  1  0.49458900  0.60040300  0.12009500  1
  Br  Br8  1  0.19429100  0.65424100  0.77480500  1
  Br  Br9  1  0.80570900  0.34575900  0.22519500  1
  Br  Br10  1  0.07623800  0.42873400  0.73642000  1
  Br  Br11  1  0.92376200  0.57126600  0.26358000  1
  Br  Br12  1  0.07103500  0.31990100  0.49239600  1
  Br  Br13  1  0.92896500  0.68009900  0.50760400  1
  Br  Br14  1  0.29578400  0.45647800  0.55043800  1
  Br  Br15  1  0.70421600  0.54352200  0.44956200  1
  Br  Br16  1  0.46868400  0.43386900  0.36083100  1
  Br  Br17  1  0.53131600  0.56613100  0.63916900  1
  Br  Br18  1  0.24211600  0.29497000  0.29424400  1
  Br  Br19  1  0.75788400  0.70503000  0.70575600  1
  Br  Br20  1  0.58247500  0.22430100  0.66746600  1
  Br  Br21  1  0.41752500  0.77569900  0.33253400  1
  Br  Br22  1  0.79593100  0.18333700  0.48138800  1
  Br  Br23  1  0.20406900  0.81666300  0.51861200  1
  Br  Br24  1  0.84032200  0.10851900  0.91733100  1
  Br  Br25  1  0.15967800  0.89148100  0.08266900  1
  Br  Br26  1  0.19236700  0.97731300  0.82172600  1
  Br  Br27  1  0.80763300  0.02268700  0.17827400  1
  Br  Br28  1  0.90018400  0.93694300  0.73275500  1
  Br  Br29  1  0.09981600  0.06305700  0.26724500  1
  Br  Br30  1  0.90830300  0.25730800  0.69688100  1
  Br  Br31  1  0.09169700  0.74269200  0.30311900  1
loop_
_geom_bond_atom_site_label_1
_geom_bond_atom_site_label_2
_geom_bond_distance
_geom_bond_site_symmetry_2
Te0 Te3 2.807955 1_456
Te0 Te5 2.909205 1_455
Te1 Te2 2.807955 1_654
Te1 Te4 2.909205 1_655
Te2 Te6 2.932461 1_555
Te2 Te8 3.015016 1_455
Te3 Te7 2.932461 1_555
Te3 Te9 3.015016 1_655
Te4 Te6 2.800732 1_554
Te4 Te9 3.041049 1_555
Te5 Te7 2.800732 1_556
Te5 Te8 3.041049 1_555
Te14 Te17 2.811093 1_555
Te14 Te18 2.915322 1_545
Te15 Te16 2.811093 1_555
Te15 Te19 2.915322 1_565
Te16 Te20 2.893928 1_565
Te16 Te22 3.044172 1_555
Te17 Te21 2.893928 1_545
Te17 Te23 3.044172 1_555
Te18 Te21 2.817987 1_555
Te18 Te22 2.998083 1_555
Te19 Te20 2.817987 1_555
Te19 Te23 2.998083 1_555
Ir0 Te10 2.657887 1_555
Ir0 Te12 2.658924 1_555
Ir0 Te6 2.673538 1_555
Ir0 Te0 2.677984 1_555
Ir0 Te9 2.739052 1_556
Ir0 Te8 2.769687 1_455
Ir1 Te11 2.657887 1_555
Ir1 Te13 2.658924 1_555
Ir1 Te7 2.673538 1_555
Ir1 Te1 2.677984 1_555
Ir1 Te8 2.739052 1_554
Ir1 Te9 2.769687 1_655
Ir2 Te26 2.639318 1_555
Ir2 Te24 2.652052 1_555
Ir2 Te14 2.676097 1_555
Ir2 Te20 2.680976 1_555
Ir2 Te23 2.742283 1_555
Ir2 Te22 2.762894 1_545
Ir3 Te27 2.639318 1_555
Ir3 Te25 2.652052 1_555
Ir3 Te15 2.676097 1_555
Ir3 Te21 2.680976 1_555
Ir3 Te22 2.742283 1_555
Ir3 Te23 2.762894 1_565
Br0 Te10 2.674152 1_554
Br1 Te11 2.674152 1_556
Br2 Te10 2.926784 1_555
Br2 Te12 2.983900 1_555
Br3 Te11 2.926784 1_555
Br3 Te13 2.983900 1_555
Br4 Te10 2.643208 1_554
Br5 Te11 2.643208 1_556
Br6 Te12 2.931266 1_555
Br6 Te10 2.981329 1_555
Br7 Te13 2.931266 1_555
Br7 Te11 2.981329 1_555
Br8 Te12 2.644654 1_555
Br9 Te13 2.644654 1_555
Br10 Te12 2.672948 1_555
Br11 Te13 2.672948 1_555
Br12 Te24 2.669890 1_555
Br13 Te25 2.669890 1_555
Br14 Te26 2.917828 1_555
Br14 Te24 2.937541 1_555
Br15 Te27 2.917828 1_555
Br15 Te25 2.937541 1_555
Br16 Te24 2.937589 1_555
Br16 Te26 3.025634 1_555
Br16 Te14 3.328227 1_555
Br17 Te25 2.937589 1_555
Br17 Te27 3.025634 1_555
Br17 Te15 3.328227 1_555
Br18 Te24 2.668943 1_555
Br19 Te25 2.668943 1_555
Br20 Te26 2.636340 1_555
Br21 Te27 2.636340 1_555
Br22 Te26 2.697557 1_555
Br23 Te27 2.697557 1_555
Br24 In0 2.554281 1_555
Br25 In1 2.554281 1_555
Br26 In0 2.568740 1_465
Br27 In1 2.568740 1_645
Br28 In0 2.544639 1_565
Br29 In1 2.544639 1_545
Br30 In0 2.543662 1_555
Br31 In1 2.543662 1_555
