# generated using pymatgen
data_Al(Bi3O5)4
_symmetry_space_group_name_H-M   'P 1'
_cell_length_a   8.82810881
_cell_length_b   8.82810881
_cell_length_c   8.82810881
_cell_angle_alpha   109.47122063
_cell_angle_beta   109.47122063
_cell_angle_gamma   109.47122063
_symmetry_Int_Tables_number   1
_chemical_formula_structural   Al(Bi3O5)4
_chemical_formula_sum   'Al1 Bi12 O20'
_cell_volume   529.64044517
_cell_formula_units_Z   1
loop_
 _symmetry_equiv_pos_site_id
 _symmetry_equiv_pos_as_xyz
  1  'x, y, z'
loop_
 _atom_site_type_symbol
 _atom_site_label
 _atom_site_symmetry_multiplicity
 _atom_site_fract_x
 _atom_site_fract_y
 _atom_site_fract_z
 _atom_site_occupancy
  Al  Al0  1  0.00000000  0.00000000  0.00000000  1
  Bi  Bi0  1  0.81334800  0.67287700  0.50831500  1
  Bi  Bi1  1  0.18665200  0.69496700  0.85952900  1
  Bi  Bi2  1  0.83543800  0.32712300  0.14047100  1
  Bi  Bi3  1  0.67287700  0.50831500  0.81334800  1
  Bi  Bi4  1  0.16456200  0.30503300  0.49168500  1
  Bi  Bi5  1  0.69496700  0.85952900  0.18665200  1
  Bi  Bi6  1  0.32712300  0.14047100  0.83543800  1
  Bi  Bi7  1  0.30503300  0.49168500  0.16456200  1
  Bi  Bi8  1  0.50831500  0.81334800  0.67287700  1
  Bi  Bi9  1  0.14047100  0.83543800  0.32712300  1
  Bi  Bi10  1  0.49168500  0.16456200  0.30503300  1
  Bi  Bi11  1  0.85952900  0.18665200  0.69496700  1
  O  O0  1  0.20427800  0.20427800  0.20427800  1
  O  O1  1  0.79572200  0.00000000  0.00000000  1
  O  O2  1  0.00000000  0.79572200  0.00000000  1
  O  O3  1  0.00000000  0.00000000  0.79572200  1
  O  O4  1  0.64474200  0.76856200  0.38677000  1
  O  O5  1  0.35525800  0.74202800  0.12382000  1
  O  O6  1  0.61820800  0.23143800  0.87618000  1
  O  O7  1  0.76856200  0.38677000  0.64474200  1
  O  O8  1  0.38179200  0.25797200  0.61323000  1
  O  O9  1  0.74202800  0.12382000  0.35525800  1
  O  O10  1  0.23143800  0.87618000  0.61820800  1
  O  O11  1  0.25797200  0.61323000  0.38179200  1
  O  O12  1  0.38677000  0.64474200  0.76856200  1
  O  O13  1  0.87618000  0.61820800  0.23143800  1
  O  O14  1  0.61323000  0.38179200  0.25797200  1
  O  O15  1  0.12382000  0.35525800  0.74202800  1
  O  O16  1  0.61161900  0.61161900  0.61161900  1
  O  O17  1  0.38838100  0.00000000  0.00000000  1
  O  O18  1  0.00000000  0.38838100  0.00000000  1
  O  O19  1  0.00000000  0.00000000  0.38838100  1
loop_
_geom_bond_atom_site_label_1
_geom_bond_atom_site_label_2
_geom_bond_distance
_geom_bond_site_symmetry_2
Al0 O2 1.803388 1_545
Al0 O1 1.803388 1_455
Al0 O3 1.803388 1_554
Al0 O0 1.803388 1_555
Bi0 O4 2.111439 1_555
Bi0 O16 2.250601 1_555
Bi0 O14 2.278877 1_555
Bi0 O3 2.578414 1_665
Bi0 O13 2.609810 1_555
Bi1 O5 2.111439 1_556
Bi1 O17 2.250601 1_566
Bi1 O12 2.278877 1_555
Bi1 O2 2.578414 1_556
Bi1 O15 2.609810 1_555
Bi2 O6 2.111439 1_554
Bi2 O18 2.250601 1_655
Bi2 O13 2.278877 1_555
Bi2 O1 2.578414 1_555
Bi2 O14 2.609810 1_555
Bi3 O7 2.111439 1_555
Bi3 O16 2.250601 1_555
Bi3 O8 2.278877 1_555
Bi3 O2 2.578414 1_656
Bi3 O6 2.609810 1_555
Bi4 O8 2.111439 1_555
Bi4 O19 2.250601 1_555
Bi4 O15 2.278877 1_555
Bi4 O0 2.578414 1_555
Bi4 O12 2.609810 1_555
Bi5 O9 2.111439 1_565
Bi5 O19 2.250601 1_665
Bi5 O4 2.278877 1_555
Bi5 O1 2.578414 1_565
Bi5 O5 2.609810 1_555
Bi6 O10 2.111439 1_545
Bi6 O17 2.250601 1_556
Bi6 O6 2.278877 1_555
Bi6 O3 2.578414 1_555
Bi6 O8 2.609810 1_555
Bi7 O11 2.111439 1_555
Bi7 O18 2.250601 1_555
Bi7 O5 2.278877 1_555
Bi7 O0 2.578414 1_555
Bi7 O4 2.609810 1_555
Bi8 O12 2.111439 1_555
Bi8 O16 2.250601 1_555
Bi8 O11 2.278877 1_555
Bi8 O1 2.578414 1_566
Bi8 O10 2.609810 1_555
Bi9 O13 2.111439 1_455
Bi9 O19 2.250601 1_565
Bi9 O10 2.278877 1_555
Bi9 O2 2.578414 1_555
Bi9 O11 2.609810 1_555
Bi10 O14 2.111439 1_555
Bi10 O17 2.250601 1_555
Bi10 O9 2.278877 1_555
Bi10 O0 2.578414 1_555
Bi10 O7 2.609810 1_555
Bi11 O15 2.111439 1_655
Bi11 O18 2.250601 1_656
Bi11 O7 2.278877 1_555
Bi11 O3 2.578414 1_655
Bi11 O9 2.609810 1_555
