# generated using pymatgen
data_CrFe3B2
_symmetry_space_group_name_H-M   'P 1'
_cell_length_a   5.09903242
_cell_length_b   4.18706205
_cell_length_c   4.14617540
_cell_angle_alpha   75.45092808
_cell_angle_beta   52.63792282
_cell_angle_gamma   51.91114910
_symmetry_Int_Tables_number   1
_chemical_formula_structural   CrFe3B2
_chemical_formula_sum   'Cr1 Fe3 B2'
_cell_volume   54.29182854
_cell_formula_units_Z   1
loop_
 _symmetry_equiv_pos_site_id
 _symmetry_equiv_pos_as_xyz
  1  'x, y, z'
loop_
 _atom_site_type_symbol
 _atom_site_label
 _atom_site_symmetry_multiplicity
 _atom_site_fract_x
 _atom_site_fract_y
 _atom_site_fract_z
 _atom_site_occupancy
  Cr  Cr0  1  0.15927200  0.84072800  0.15927200  1
  Fe  Fe0  1  0.83523200  0.16476800  0.83523200  1
  Fe  Fe1  1  0.66722700  0.66458100  0.33541900  1
  Fe  Fe2  1  0.33541900  0.33277300  0.66722700  1
  B  B0  1  0.75142500  0.74857500  0.75142500  1
  B  B1  1  0.25142500  0.24857500  0.25142500  1
loop_
_geom_bond_atom_site_label_1
_geom_bond_atom_site_label_2
_geom_bond_distance
_geom_bond_site_symmetry_2
Cr0 Fe0 2.321331 1_464
Cr0 Fe0 2.439261 1_554
Cr0 Fe0 2.439261 1_465
Cr0 Fe1 2.662964 1_554
Cr0 Fe2 2.662964 1_465
Cr0 Fe2 2.662964 1_554
Cr0 Fe1 2.662964 1_465
Cr0 Fe1 2.675936 1_455
Cr0 Fe2 2.675936 1_564
Cr0 Fe1 2.730250 1_555
Cr0 Fe2 2.730250 1_555
B0 B1 2.088316 1_655
B0 B1 2.088316 1_566
B0 Fe1 2.160474 1_556
B0 Fe2 2.160474 1_655
B0 Fe1 2.161685 1_555
B0 Fe2 2.161685 1_565
B0 Fe0 2.177915 1_555
B0 Fe0 2.177915 1_565
B0 Cr0 2.195149 1_556
B0 Cr0 2.195149 1_655
B1 Fe1 2.160474 1_545
B1 Fe2 2.160474 1_555
B1 Fe1 2.161685 1_455
B1 Fe2 2.161685 1_554
B1 Fe0 2.177915 1_554
B1 Fe0 2.177915 1_455
B1 Cr0 2.195149 1_545
B1 Cr0 2.195149 1_555
