# generated using pymatgen
data_Ba3(SnAs2)2
_symmetry_space_group_name_H-M   'P 1'
_cell_length_a   20.07041823
_cell_length_b   8.01926705
_cell_length_c   8.16191354
_cell_angle_alpha   67.68053898
_cell_angle_beta   90.00000000
_cell_angle_gamma   90.00000000
_symmetry_Int_Tables_number   1
_chemical_formula_structural   Ba3(SnAs2)2
_chemical_formula_sum   'Ba12 Sn8 As16'
_cell_volume   1215.24193158
_cell_formula_units_Z   4
loop_
 _symmetry_equiv_pos_site_id
 _symmetry_equiv_pos_as_xyz
  1  'x, y, z'
loop_
 _atom_site_type_symbol
 _atom_site_label
 _atom_site_symmetry_multiplicity
 _atom_site_fract_x
 _atom_site_fract_y
 _atom_site_fract_z
 _atom_site_occupancy
  Ba  Ba0  1  0.31697682  0.00877037  0.78749586  1
  Ba  Ba1  1  0.81697682  0.49122963  0.21250414  1
  Ba  Ba2  1  0.68302318  0.99122963  0.21250414  1
  Ba  Ba3  1  0.18302318  0.50877037  0.78749586  1
  Ba  Ba4  1  0.43984772  0.99381639  0.26182810  1
  Ba  Ba5  1  0.93984772  0.50618361  0.73817190  1
  Ba  Ba6  1  0.56015228  0.00618361  0.73817190  1
  Ba  Ba7  1  0.06015228  0.49381639  0.26182810  1
  Ba  Ba8  1  0.43604380  0.51162542  0.74186332  1
  Ba  Ba9  1  0.93604380  0.98837458  0.25813668  1
  Ba  Ba10  1  0.56395620  0.48837458  0.25813668  1
  Ba  Ba11  1  0.06395620  0.01162542  0.74186332  1
  Sn  Sn0  1  0.62371740  0.52487089  0.78945640  1
  Sn  Sn1  1  0.12371740  0.97512911  0.21054360  1
  Sn  Sn2  1  0.37628260  0.47512911  0.21054360  1
  Sn  Sn3  1  0.87628260  0.02487089  0.78945640  1
  Sn  Sn4  1  0.74177834  0.40054254  0.68475840  1
  Sn  Sn5  1  0.75822166  0.90054254  0.68475840  1
  Sn  Sn6  1  0.25822166  0.59945746  0.31524160  1
  Sn  Sn7  1  0.24177834  0.09945746  0.31524160  1
  As  As0  1  0.43503704  0.25534766  0.49627888  1
  As  As1  1  0.93503704  0.24465234  0.50372112  1
  As  As2  1  0.56496296  0.74465234  0.50372112  1
  As  As3  1  0.06496296  0.75534766  0.49627888  1
  As  As4  1  0.44463100  0.74893397  0.00217955  1
  As  As5  1  0.94463100  0.75106603  -0.00217955  1
  As  As6  1  0.55536900  0.25106603  -0.00217955  1
  As  As7  1  0.05536900  0.24893397  0.00217955  1
  As  As8  1  0.18280262  0.78424379  0.03824067  1
  As  As9  1  0.68280262  0.71575621  0.96175933  1
  As  As10  1  0.81719738  0.21575621  0.96175933  1
  As  As11  1  0.31719738  0.28424379  0.03824067  1
  As  As12  1  0.79997884  0.71452389  0.49129377  1
  As  As13  1  0.70002116  0.21452389  0.49129377  1
  As  As14  1  0.20002116  0.28547611  0.50870623  1
  As  As15  1  0.29997884  0.78547611  0.50870623  1
loop_
_geom_bond_atom_site_label_1
_geom_bond_atom_site_label_2
_geom_bond_distance
_geom_bond_site_symmetry_2
As0 Sn2 2.610334 1_555
As0 Ba4 3.334359 1_545
As0 Ba6 3.346602 1_555
As0 Ba10 3.347562 1_555
As0 Ba8 3.372054 1_555
As0 Ba0 3.406519 1_555
As1 Sn3 2.610334 1_555
As1 Ba5 3.334359 1_555
As1 Ba7 3.346602 1_655
As1 Ba11 3.347562 1_655
As1 Ba9 3.372054 1_545
As1 Ba1 3.406519 1_555
As2 Sn0 2.610334 1_555
As2 Ba6 3.334359 1_565
As2 Ba4 3.346602 1_555
As2 Ba8 3.347562 1_555
As2 Ba10 3.372054 1_555
As2 Ba2 3.406519 1_555
As3 Sn1 2.610334 1_555
As3 Ba7 3.334359 1_555
As3 Ba5 3.346602 1_455
As3 Ba9 3.347562 1_455
As3 Ba11 3.372054 1_565
As3 Ba3 3.406519 1_555
As4 Sn2 2.599792 1_555
As4 Ba6 3.301262 1_564
As4 Ba10 3.339219 1_555
As4 Ba0 3.347111 1_564
As4 Ba8 3.352106 1_554
As4 Ba4 3.393781 1_555
As5 Sn3 2.599792 1_564
As5 Ba7 3.301262 1_655
As5 Ba11 3.339219 1_664
As5 Ba1 3.347111 1_555
As5 Ba9 3.352106 1_555
As5 Ba5 3.393781 1_554
As6 Sn0 2.599792 1_554
As6 Ba4 3.301262 1_545
As6 Ba8 3.339219 1_554
As6 Ba2 3.347111 1_545
As6 Ba10 3.352106 1_555
As6 Ba6 3.393781 1_554
As7 Sn1 2.599792 1_545
As7 Ba5 3.301262 1_454
As7 Ba9 3.339219 1_445
As7 Ba3 3.347111 1_554
As7 Ba11 3.352106 1_554
As7 Ba7 3.393781 1_555
As8 Sn6 2.655931 1_555
As8 Sn1 2.713363 1_555
As8 Ba11 3.393507 1_564
As8 Ba7 3.403828 1_555
As8 Ba0 3.447229 1_564
As8 Ba3 3.535878 1_554
As9 Sn5 2.655931 1_555
As9 Sn0 2.713363 1_555
As9 Ba10 3.393507 1_556
As9 Ba6 3.403828 1_565
As9 Ba1 3.447229 1_556
As9 Ba2 3.535878 1_556
As10 Sn4 2.655931 1_555
As10 Sn3 2.713363 1_555
As10 Ba9 3.393507 1_546
As10 Ba5 3.403828 1_555
As10 Ba2 3.447229 1_546
As10 Ba1 3.535878 1_556
As11 Sn7 2.655931 1_555
As11 Sn2 2.713363 1_555
As11 Ba8 3.393507 1_554
As11 Ba4 3.403828 1_545
As11 Ba3 3.447229 1_554
As11 Ba0 3.535878 1_554
As12 Sn4 2.679148 1_555
As12 Sn5 2.685169 1_555
As12 Ba1 3.405193 1_555
As12 Ba2 3.431698 1_555
As12 Ba5 3.489281 1_555
As12 Ba9 3.567587 1_555
As13 Sn5 2.679148 1_545
As13 Sn4 2.685169 1_555
As13 Ba2 3.405193 1_545
As13 Ba1 3.431698 1_555
As13 Ba6 3.489281 1_555
As13 Ba10 3.567587 1_555
As14 Sn6 2.679148 1_555
As14 Sn7 2.685169 1_555
As14 Ba3 3.405193 1_555
As14 Ba0 3.431698 1_555
As14 Ba7 3.489281 1_555
As14 Ba11 3.567587 1_555
As15 Sn7 2.679148 1_565
As15 Sn6 2.685169 1_555
As15 Ba0 3.405193 1_565
As15 Ba3 3.431698 1_555
As15 Ba4 3.489281 1_555
As15 Ba8 3.567587 1_555
