# generated using pymatgen
data_MgSn
_symmetry_space_group_name_H-M   'P 1'
_cell_length_a   7.85465267
_cell_length_b   7.85465267
_cell_length_c   5.05729528
_cell_angle_alpha   90.00000000
_cell_angle_beta   90.00000000
_cell_angle_gamma   152.26419847
_symmetry_Int_Tables_number   1
_chemical_formula_structural   MgSn
_chemical_formula_sum   'Mg3 Sn3'
_cell_volume   145.20921550
_cell_formula_units_Z   3
loop_
 _symmetry_equiv_pos_site_id
 _symmetry_equiv_pos_as_xyz
  1  'x, y, z'
loop_
 _atom_site_type_symbol
 _atom_site_label
 _atom_site_symmetry_multiplicity
 _atom_site_fract_x
 _atom_site_fract_y
 _atom_site_fract_z
 _atom_site_occupancy
  Mg  Mg0  1  0.32843529  0.67156471  -0.00000000  1
  Mg  Mg1  1  0.11320668  0.88679332  0.50000000  1
  Mg  Mg2  1  0.78495098  0.21504902  0.50000000  1
  Sn  Sn0  1  0.98949003  0.01050997  -0.00000000  1
  Sn  Sn1  1  0.67189521  0.32810479  0.00000000  1
  Sn  Sn2  1  0.44535481  0.55464519  0.50000000  1
loop_
_geom_bond_atom_site_label_1
_geom_bond_atom_site_label_2
_geom_bond_distance
_geom_bond_site_symmetry_2
Mg0 Sn1 3.040437 1_565
Mg0 Sn1 3.040437 1_455
Mg0 Sn2 3.094157 1_555
Mg0 Sn2 3.094157 1_554
Mg0 Sn0 3.094798 1_565
Mg0 Sn0 3.094798 1_455
Mg1 Sn0 3.155038 1_465
Mg1 Sn0 3.155038 1_466
Mg1 Sn2 3.177702 1_565
Mg1 Sn2 3.177702 1_455
Mg1 Mg2 3.225718 1_455
Mg1 Mg2 3.225718 1_565
Mg1 Sn1 3.277125 1_456
Mg1 Sn1 3.277125 1_565
Mg1 Sn1 3.277125 1_455
Mg1 Sn1 3.277125 1_566
Mg2 Sn1 3.060576 1_555
Mg2 Sn1 3.060576 1_556
Mg2 Sn2 3.086924 1_545
Mg2 Sn2 3.086924 1_655
