# generated using pymatgen
data_Li12MnCr3P4(CO7)4
_symmetry_space_group_name_H-M   'P 1'
_cell_length_a   6.49949100
_cell_length_b   8.68172000
_cell_length_c   10.00003621
_cell_angle_alpha   85.37969262
_cell_angle_beta   90.00000000
_cell_angle_gamma   90.00000000
_symmetry_Int_Tables_number   1
_chemical_formula_structural   Li12MnCr3P4(CO7)4
_chemical_formula_sum   'Li12 Mn1 Cr3 P4 C4 O28'
_cell_volume   562.43599738
_cell_formula_units_Z   1
loop_
 _symmetry_equiv_pos_site_id
 _symmetry_equiv_pos_as_xyz
  1  'x, y, z'
loop_
 _atom_site_type_symbol
 _atom_site_label
 _atom_site_symmetry_multiplicity
 _atom_site_fract_x
 _atom_site_fract_y
 _atom_site_fract_z
 _atom_site_occupancy
  Li  Li0  1  0.00000000  0.89774000  0.61103200  1
  Li  Li1  1  0.00000000  0.89735800  0.11795800  1
  Li  Li2  1  0.22394100  0.72841800  0.86996000  1
  Li  Li3  1  0.77605900  0.72841800  0.86996000  1
  Li  Li4  1  0.22641400  0.72863500  0.37263400  1
  Li  Li5  1  0.77358600  0.72863500  0.37263400  1
  Li  Li6  1  0.72454200  0.27287300  0.62813700  1
  Li  Li7  1  0.27545800  0.27287300  0.62813700  1
  Li  Li8  1  0.72250900  0.27024100  0.12847000  1
  Li  Li9  1  0.27749100  0.27024100  0.12847000  1
  Li  Li10  1  0.50000000  0.10738900  0.88549200  1
  Li  Li11  1  0.50000000  0.10917400  0.38668000  1
  Mn  Mn0  1  0.00000000  0.34081600  0.38946500  1
  Cr  Cr0  1  0.50000000  0.66530400  0.60341100  1
  Cr  Cr1  1  0.50000000  0.66491900  0.10337800  1
  Cr  Cr2  1  0.00000000  0.33320500  0.89654700  1
  P  P0  1  0.00000000  0.58800900  0.64001100  1
  P  P1  1  0.00000000  0.58785500  0.13803900  1
  P  P2  1  0.50000000  0.41130800  0.86203200  1
  P  P3  1  0.50000000  0.41044200  0.36324800  1
  C  C0  1  0.50000000  0.96675500  0.64769300  1
  C  C1  1  0.50000000  0.96627000  0.14777000  1
  C  C2  1  0.00000000  0.03217700  0.85109300  1
  C  C3  1  0.00000000  0.03469800  0.34966400  1
  O  O0  1  0.50000000  0.94444800  0.52225200  1
  O  O1  1  0.00000000  0.89343700  0.80990000  1
  O  O2  1  0.50000000  0.94419300  0.02247100  1
  O  O3  1  0.50000000  0.84611000  0.73609500  1
  O  O4  1  0.00000000  0.89155100  0.31771000  1
  O  O5  1  0.50000000  0.84554600  0.23617500  1
  O  O6  1  0.18626800  0.68651700  0.58273400  1
  O  O7  1  0.81373200  0.68651700  0.58273400  1
  O  O8  1  0.18626600  0.68674500  0.08340600  1
  O  O9  1  0.81373400  0.68674500  0.08340600  1
  O  O10  1  0.50000000  0.57711200  0.90859300  1
  O  O11  1  0.00000000  0.58167700  0.79561400  1
  O  O12  1  0.50000000  0.57707800  0.40847800  1
  O  O13  1  0.00000000  0.57625000  0.29454800  1
  O  O14  1  0.50000000  0.41903900  0.70673300  1
  O  O15  1  0.00000000  0.42173600  0.59538600  1
  O  O16  1  0.50000000  0.41809400  0.20752000  1
  O  O17  1  0.00000000  0.42181600  0.09250300  1
  O  O18  1  0.31371500  0.31272300  0.91865600  1
  O  O19  1  0.68628500  0.31272300  0.91865600  1
  O  O20  1  0.68530500  0.31211000  0.41996400  1
  O  O21  1  0.31469500  0.31211000  0.41996400  1
  O  O22  1  0.00000000  0.15252300  0.76246700  1
  O  O23  1  0.50000000  0.10536300  0.68887200  1
  O  O24  1  0.00000000  0.14731600  0.25466900  1
  O  O25  1  0.00000000  0.05480300  0.97615800  1
  O  O26  1  0.50000000  0.10486400  0.18919000  1
  O  O27  1  0.00000000  0.06710000  0.47322800  1
loop_
_geom_bond_atom_site_label_1
_geom_bond_atom_site_label_2
_geom_bond_distance
_geom_bond_site_symmetry_2
Li0 O27 1.932477 1_565
Li0 O1 1.986027 1_555
Li0 O7 2.234299 1_455
Li0 O6 2.234299 1_555
Li1 O25 1.888617 1_564
Li1 O4 1.994099 1_555
Li1 O9 2.242800 1_455
Li1 O8 2.242800 1_555
Li2 O1 2.095965 1_555
Li2 O11 2.108743 1_555
Li2 O8 2.149976 1_556
Li2 O10 2.238825 1_555
Li2 O3 2.415566 1_555
Li3 O1 2.095965 1_655
Li3 O11 2.108743 1_655
Li3 O9 2.149976 1_556
Li3 O10 2.238825 1_555
Li3 O3 2.415566 1_555
Li4 O4 2.083879 1_555
Li4 O6 2.119494 1_555
Li4 O13 2.166090 1_555
Li4 O12 2.223882 1_555
Li4 O5 2.414761 1_555
Li5 O4 2.083879 1_655
Li5 O7 2.119494 1_555
Li5 O13 2.166090 1_655
Li5 O12 2.223882 1_555
Li5 O5 2.414761 1_555
Li6 O20 2.097728 1_555
Li6 O23 2.114561 1_555
Li6 O14 2.125696 1_555
Li6 O15 2.216899 1_655
Li6 O22 2.423914 1_655
Li7 O21 2.097728 1_555
Li7 O23 2.114561 1_555
Li7 O14 2.125696 1_555
Li7 O15 2.216899 1_555
Li7 O22 2.423914 1_555
Li8 O26 2.093113 1_555
Li8 O19 2.114004 1_554
Li8 O16 2.127798 1_555
Li8 O17 2.244456 1_655
Li8 O24 2.401534 1_655
Li9 O26 2.093113 1_555
Li9 O18 2.114004 1_554
Li9 O16 2.127798 1_555
Li9 O17 2.244456 1_555
Li9 O24 2.401534 1_555
Li10 O2 1.889724 1_546
Li10 O23 1.967702 1_555
Li10 O19 2.202048 1_555
Li10 O18 2.202048 1_555
Li11 O0 1.889666 1_545
Li11 O26 1.978273 1_555
Li11 O20 2.181711 1_555
Li11 O21 2.181711 1_555
Mn0 O20 2.079993 1_455
Mn0 O21 2.079993 1_555
Mn0 O13 2.183162 1_555
Mn0 O15 2.228672 1_555
Mn0 O24 2.236947 1_555
Mn0 O27 2.455173 1_555
Cr0 O6 2.056321 1_555
Cr0 O7 2.056321 1_555
Cr0 O3 2.135425 1_555
Cr0 O12 2.151080 1_555
Cr0 O14 2.298418 1_555
Cr0 O0 2.492975 1_555
Cr1 O8 2.056130 1_555
Cr1 O9 2.056130 1_555
Cr1 O5 2.134974 1_555
Cr1 O10 2.148137 1_554
Cr1 O16 2.305843 1_555
Cr1 O2 2.493421 1_555
Cr2 O18 2.057095 1_555
Cr2 O19 2.057095 1_455
Cr2 O22 2.144108 1_555
Cr2 O17 2.162078 1_556
Cr2 O11 2.306803 1_555
Cr2 O25 2.483088 1_555
C0 O0 1.284601 1_555
C0 O23 1.302870 1_565
C0 O3 1.315061 1_555
C1 O2 1.282740 1_555
C1 O26 1.303697 1_565
C1 O5 1.315588 1_555
C2 O25 1.281523 1_555
C2 O1 1.304012 1_545
C2 O22 1.314501 1_555
C3 O27 1.289166 1_555
C3 O24 1.307177 1_555
C3 O4 1.307877 1_545
O6 P0 1.564039 1_555
O7 P0 1.564039 1_655
O8 P1 1.557444 1_555
O9 P1 1.557444 1_655
O10 P2 1.548169 1_555
O11 P0 1.552575 1_555
O12 P3 1.550128 1_555
O13 P1 1.560215 1_555
O14 P2 1.549034 1_555
O15 P0 1.544900 1_555
O16 P3 1.553346 1_555
O17 P1 1.546298 1_555
O18 P2 1.562380 1_555
O19 P2 1.562380 1_555
O20 P3 1.556601 1_555
O21 P3 1.556601 1_555
