# generated using pymatgen
data_Mg30NiSnO32
_symmetry_space_group_name_H-M   'P 1'
_cell_length_a   8.58667600
_cell_length_b   8.58667600
_cell_length_c   8.60606200
_cell_angle_alpha   90.00000000
_cell_angle_beta   90.00000000
_cell_angle_gamma   90.00000000
_symmetry_Int_Tables_number   1
_chemical_formula_structural   Mg30NiSnO32
_chemical_formula_sum   'Mg30 Ni1 Sn1 O32'
_cell_volume   634.53359802
_cell_formula_units_Z   1
loop_
 _symmetry_equiv_pos_site_id
 _symmetry_equiv_pos_as_xyz
  1  'x, y, z'
loop_
 _atom_site_type_symbol
 _atom_site_label
 _atom_site_symmetry_multiplicity
 _atom_site_fract_x
 _atom_site_fract_y
 _atom_site_fract_z
 _atom_site_occupancy
  Mg  Mg0  1  0.00000000  0.50000000  0.00000000  1
  Mg  Mg1  1  0.50000000  0.00000000  0.00000000  1
  Mg  Mg2  1  0.00000000  0.00000000  0.50000000  1
  Mg  Mg3  1  0.00000000  0.50000000  0.50000000  1
  Mg  Mg4  1  0.50000000  0.00000000  0.50000000  1
  Mg  Mg5  1  0.50000000  0.50000000  0.50000000  1
  Mg  Mg6  1  0.24498900  0.24498900  0.00000000  1
  Mg  Mg7  1  0.24498900  0.75501100  0.00000000  1
  Mg  Mg8  1  0.75501100  0.24498900  0.00000000  1
  Mg  Mg9  1  0.75501100  0.75501100  0.00000000  1
  Mg  Mg10  1  0.24939700  0.24939700  0.50000000  1
  Mg  Mg11  1  0.24939700  0.75060300  0.50000000  1
  Mg  Mg12  1  0.75060300  0.24939700  0.50000000  1
  Mg  Mg13  1  0.75060300  0.75060300  0.50000000  1
  Mg  Mg14  1  0.00000000  0.24896200  0.25004000  1
  Mg  Mg15  1  0.00000000  0.75103800  0.25004000  1
  Mg  Mg16  1  0.50000000  0.24558600  0.25437100  1
  Mg  Mg17  1  0.50000000  0.75441400  0.25437100  1
  Mg  Mg18  1  0.00000000  0.24896200  0.74996000  1
  Mg  Mg19  1  0.00000000  0.75103800  0.74996000  1
  Mg  Mg20  1  0.50000000  0.24558600  0.74562900  1
  Mg  Mg21  1  0.50000000  0.75441400  0.74562900  1
  Mg  Mg22  1  0.24896200  0.00000000  0.25004000  1
  Mg  Mg23  1  0.24558600  0.50000000  0.25437100  1
  Mg  Mg24  1  0.75103800  0.00000000  0.25004000  1
  Mg  Mg25  1  0.75441400  0.50000000  0.25437100  1
  Mg  Mg26  1  0.24896200  0.00000000  0.74996000  1
  Mg  Mg27  1  0.24558600  0.50000000  0.74562900  1
  Mg  Mg28  1  0.75103800  0.00000000  0.74996000  1
  Mg  Mg29  1  0.75441400  0.50000000  0.74562900  1
  Ni  Ni0  1  0.00000000  0.00000000  0.00000000  1
  Sn  Sn0  1  0.50000000  0.50000000  0.00000000  1
  O  O0  1  0.00000000  0.00000000  0.25200700  1
  O  O1  1  0.00000000  0.50000000  0.25327800  1
  O  O2  1  0.50000000  0.00000000  0.25327800  1
  O  O3  1  0.50000000  0.50000000  0.27018600  1
  O  O4  1  0.00000000  0.00000000  0.74799300  1
  O  O5  1  0.00000000  0.50000000  0.74672200  1
  O  O6  1  0.50000000  0.00000000  0.74672200  1
  O  O7  1  0.50000000  0.50000000  0.72981400  1
  O  O8  1  0.25006400  0.25006400  0.24953700  1
  O  O9  1  0.25006400  0.74993600  0.24953700  1
  O  O10  1  0.74993600  0.25006400  0.24953700  1
  O  O11  1  0.74993600  0.74993600  0.24953700  1
  O  O12  1  0.25006400  0.25006400  0.75046300  1
  O  O13  1  0.25006400  0.74993600  0.75046300  1
  O  O14  1  0.74993600  0.25006400  0.75046300  1
  O  O15  1  0.74993600  0.74993600  0.75046300  1
  O  O16  1  0.00000000  0.24747800  0.00000000  1
  O  O17  1  0.00000000  0.75252200  0.00000000  1
  O  O18  1  0.50000000  0.22980300  0.00000000  1
  O  O19  1  0.50000000  0.77019700  0.00000000  1
  O  O20  1  0.00000000  0.24892400  0.50000000  1
  O  O21  1  0.00000000  0.75107600  0.50000000  1
  O  O22  1  0.50000000  0.24665000  0.50000000  1
  O  O23  1  0.50000000  0.75335000  0.50000000  1
  O  O24  1  0.24747800  0.00000000  0.00000000  1
  O  O25  1  0.22980300  0.50000000  0.00000000  1
  O  O26  1  0.75252200  0.00000000  0.00000000  1
  O  O27  1  0.77019700  0.50000000  0.00000000  1
  O  O28  1  0.24892400  0.00000000  0.50000000  1
  O  O29  1  0.24665000  0.50000000  0.50000000  1
  O  O30  1  0.75107600  0.00000000  0.50000000  1
  O  O31  1  0.75335000  0.50000000  0.50000000  1
loop_
_geom_bond_atom_site_label_1
_geom_bond_atom_site_label_2
_geom_bond_distance
_geom_bond_site_symmetry_2
Mg0 O25 1.973244 1_555
Mg0 O27 1.973244 1_455
Mg0 O17 2.168325 1_555
Mg0 O16 2.168325 1_555
Mg0 O1 2.179726 1_555
Mg0 O5 2.179726 1_554
Mg1 O18 1.973244 1_555
Mg1 O19 1.973244 1_545
Mg1 O26 2.168325 1_555
Mg1 O24 2.168325 1_555
Mg1 O6 2.179726 1_554
Mg1 O2 2.179726 1_555
Mg2 O4 2.134243 1_555
Mg2 O0 2.134243 1_555
Mg2 O28 2.137430 1_555
Mg2 O20 2.137430 1_555
Mg2 O30 2.137430 1_455
Mg2 O21 2.137430 1_545
Mg3 O31 2.117904 1_455
Mg3 O29 2.117904 1_555
Mg3 O1 2.123305 1_555
Mg3 O5 2.123305 1_555
Mg3 O21 2.155908 1_555
Mg3 O20 2.155908 1_555
Mg4 O23 2.117904 1_545
Mg4 O22 2.117904 1_555
Mg4 O2 2.123305 1_555
Mg4 O6 2.123305 1_555
Mg4 O30 2.155908 1_555
Mg4 O28 2.155908 1_555
Mg5 O7 1.977794 1_555
Mg5 O3 1.977794 1_555
Mg5 O29 2.175434 1_555
Mg5 O22 2.175434 1_555
Mg5 O31 2.175434 1_555
Mg5 O23 2.175434 1_555
Mg6 O16 2.103750 1_555
Mg6 O24 2.103750 1_555
Mg6 O8 2.148415 1_555
Mg6 O12 2.148415 1_554
Mg6 O25 2.193576 1_555
Mg6 O18 2.193576 1_555
Mg7 O17 2.103750 1_555
Mg7 O24 2.103750 1_565
Mg7 O9 2.148415 1_555
Mg7 O13 2.148415 1_554
Mg7 O25 2.193576 1_555
Mg7 O19 2.193576 1_555
Mg8 O26 2.103750 1_555
Mg8 O16 2.103750 1_655
Mg8 O10 2.148415 1_555
Mg8 O14 2.148415 1_554
Mg8 O18 2.193576 1_555
Mg8 O27 2.193576 1_555
Mg9 O26 2.103750 1_565
Mg9 O17 2.103750 1_655
Mg9 O11 2.148415 1_555
Mg9 O15 2.148415 1_554
Mg9 O19 2.193576 1_555
Mg9 O27 2.193576 1_555
Mg10 O28 2.141495 1_555
Mg10 O20 2.141495 1_555
Mg10 O29 2.151976 1_555
Mg10 O22 2.151976 1_555
Mg10 O12 2.155515 1_555
Mg10 O8 2.155515 1_555
Mg11 O21 2.141495 1_555
Mg11 O28 2.141495 1_565
Mg11 O29 2.151976 1_555
Mg11 O23 2.151976 1_555
Mg11 O13 2.155515 1_555
Mg11 O9 2.155515 1_555
Mg12 O30 2.141495 1_555
Mg12 O20 2.141495 1_655
Mg12 O22 2.151976 1_555
Mg12 O31 2.151976 1_555
Mg12 O14 2.155515 1_555
Mg12 O10 2.155515 1_555
Mg13 O30 2.141495 1_565
Mg13 O21 2.141495 1_655
Mg13 O31 2.151976 1_555
Mg13 O23 2.151976 1_555
Mg13 O15 2.155515 1_555
Mg13 O11 2.155515 1_555
Mg14 O0 2.137823 1_555
Mg14 O8 2.147244 1_555
Mg14 O10 2.147244 1_455
Mg14 O20 2.151171 1_555
Mg14 O16 2.151897 1_555
Mg14 O1 2.155762 1_555
Mg15 O0 2.137823 1_565
Mg15 O9 2.147244 1_555
Mg15 O11 2.147244 1_455
Mg15 O21 2.151171 1_555
Mg15 O17 2.151897 1_555
Mg15 O1 2.155762 1_555
Mg16 O2 2.108788 1_555
Mg16 O22 2.113918 1_555
Mg16 O10 2.146867 1_555
Mg16 O8 2.146867 1_555
Mg16 O3 2.188806 1_555
Mg16 O18 2.193324 1_555
Mg17 O2 2.108788 1_565
Mg17 O23 2.113918 1_555
Mg17 O11 2.146867 1_555
Mg17 O9 2.146867 1_555
Mg17 O3 2.188806 1_555
Mg17 O19 2.193324 1_555
Mg18 O4 2.137823 1_555
Mg18 O12 2.147244 1_555
Mg18 O14 2.147244 1_455
Mg18 O20 2.151171 1_555
Mg18 O16 2.151897 1_556
Mg18 O5 2.155762 1_555
Mg19 O4 2.137823 1_565
Mg19 O13 2.147244 1_555
Mg19 O15 2.147244 1_455
Mg19 O21 2.151171 1_555
Mg19 O17 2.151897 1_556
Mg19 O5 2.155762 1_555
Mg20 O6 2.108788 1_555
Mg20 O22 2.113918 1_555
Mg20 O14 2.146867 1_555
Mg20 O12 2.146867 1_555
Mg20 O7 2.188806 1_555
Mg20 O18 2.193324 1_556
Mg21 O6 2.108788 1_565
Mg21 O23 2.113918 1_555
Mg21 O15 2.146867 1_555
Mg21 O13 2.146867 1_555
Mg21 O7 2.188806 1_555
Mg21 O19 2.193324 1_556
Mg22 O0 2.137823 1_555
Mg22 O8 2.147244 1_555
Mg22 O9 2.147244 1_545
Mg22 O28 2.151171 1_555
Mg22 O24 2.151897 1_555
Mg22 O2 2.155762 1_555
Mg23 O1 2.108788 1_555
Mg23 O29 2.113918 1_555
Mg23 O9 2.146867 1_555
Mg23 O8 2.146867 1_555
Mg23 O3 2.188806 1_555
Mg23 O25 2.193324 1_555
Mg24 O0 2.137823 1_655
Mg24 O10 2.147244 1_555
Mg24 O11 2.147244 1_545
Mg24 O30 2.151171 1_555
Mg24 O26 2.151897 1_555
Mg24 O2 2.155762 1_555
Mg25 O1 2.108788 1_655
Mg25 O31 2.113918 1_555
Mg25 O11 2.146867 1_555
Mg25 O10 2.146867 1_555
Mg25 O3 2.188806 1_555
Mg25 O27 2.193324 1_555
Mg26 O4 2.137823 1_555
Mg26 O12 2.147244 1_555
Mg26 O13 2.147244 1_545
Mg26 O28 2.151171 1_555
Mg26 O24 2.151897 1_556
Mg26 O6 2.155762 1_555
Mg27 O5 2.108788 1_555
Mg27 O29 2.113918 1_555
Mg27 O13 2.146867 1_555
Mg27 O12 2.146867 1_555
Mg27 O7 2.188806 1_555
Mg27 O25 2.193324 1_556
Mg28 O4 2.137823 1_655
Mg28 O14 2.147244 1_555
Mg28 O15 2.147244 1_545
Mg28 O30 2.151171 1_555
Mg28 O26 2.151897 1_556
Mg28 O6 2.155762 1_555
Mg29 O5 2.108788 1_655
Mg29 O31 2.113918 1_555
Mg29 O15 2.146867 1_555
Mg29 O14 2.146867 1_555
Mg29 O7 2.188806 1_555
Mg29 O27 2.193324 1_556
Ni0 O24 2.125013 1_555
Ni0 O16 2.125013 1_555
Ni0 O26 2.125013 1_455
Ni0 O17 2.125013 1_545
Ni0 O0 2.168788 1_555
Ni0 O4 2.168788 1_554
O3 Sn0 2.325237 1_555
O7 Sn0 2.325237 1_556
O18 Sn0 2.320094 1_555
O19 Sn0 2.320094 1_555
O25 Sn0 2.320094 1_555
O27 Sn0 2.320094 1_555
