# generated using pymatgen
data_YbFe2
_symmetry_space_group_name_H-M   'P 1'
_cell_length_a   5.12888481
_cell_length_b   5.13041916
_cell_length_c   8.38330525
_cell_angle_alpha   90.00000000
_cell_angle_beta   90.00000000
_cell_angle_gamma   119.99010740
_symmetry_Int_Tables_number   1
_chemical_formula_structural   YbFe2
_chemical_formula_sum   'Yb4 Fe8'
_cell_volume   191.05789519
_cell_formula_units_Z   4
loop_
 _symmetry_equiv_pos_site_id
 _symmetry_equiv_pos_as_xyz
  1  'x, y, z'
loop_
 _atom_site_type_symbol
 _atom_site_label
 _atom_site_symmetry_multiplicity
 _atom_site_fract_x
 _atom_site_fract_y
 _atom_site_fract_z
 _atom_site_occupancy
  Yb  Yb0  1  0.33336261  0.66672521  0.43699079  1
  Yb  Yb1  1  0.66663739  0.33327479  0.56300921  1
  Yb  Yb2  1  0.66663739  0.33327479  0.93699079  1
  Yb  Yb3  1  0.33336261  0.66672521  0.06300921  1
  Fe  Fe0  1  0.00000000  0.00000000  0.50000000  1
  Fe  Fe1  1  0.00000000  0.00000000  0.00000000  1
  Fe  Fe2  1  0.83686489  0.16334990  0.25000000  1
  Fe  Fe3  1  0.83691972  0.67383943  0.25000000  1
  Fe  Fe4  1  0.32648500  0.16334990  0.25000000  1
  Fe  Fe5  1  0.16313511  0.83665010  0.75000000  1
  Fe  Fe6  1  0.16308028  0.32616057  0.75000000  1
  Fe  Fe7  1  0.67351500  0.83665010  0.75000000  1
loop_
_geom_bond_atom_site_label_1
_geom_bond_atom_site_label_2
_geom_bond_distance
_geom_bond_site_symmetry_2
Yb0 Yb3 3.135202 1_555
Yb0 Yb1 3.144498 1_455
Yb0 Yb1 3.144498 1_555
Yb0 Yb1 3.144597 1_565
Yb1 Yb2 3.135202 1_555
Yb2 Yb3 3.144498 1_656
Yb2 Yb3 3.144498 1_556
Yb2 Yb3 3.144597 1_546
Fe0 Fe6 2.548128 1_555
Fe0 Fe3 2.548128 1_445
Fe0 Fe4 2.548702 1_555
Fe0 Fe2 2.548702 1_455
Fe0 Fe5 2.548702 1_545
Fe0 Fe7 2.548702 1_445
Fe0 Yb1 3.008070 1_455
Fe0 Yb0 3.008070 1_545
Fe0 Yb1 3.008070 1_555
Fe0 Yb0 3.008070 1_445
Fe0 Yb0 3.009327 1_555
Fe0 Yb1 3.009327 1_445
Fe1 Fe6 2.548128 1_554
Fe1 Fe3 2.548128 1_445
Fe1 Fe5 2.548702 1_544
Fe1 Fe4 2.548702 1_555
Fe1 Fe2 2.548702 1_455
Fe1 Fe7 2.548702 1_444
Fe1 Yb3 3.008070 1_545
Fe1 Yb2 3.008070 1_454
Fe1 Yb2 3.008070 1_554
Fe1 Yb3 3.008070 1_445
Fe1 Yb3 3.009327 1_555
Fe1 Yb2 3.009327 1_444
Fe2 Fe4 2.511205 1_655
Fe2 Fe3 2.511534 1_545
Fe2 Fe4 2.617680 1_555
Fe2 Fe3 2.618885 1_555
Fe2 Yb0 3.006159 1_655
Fe2 Yb3 3.006159 1_655
Fe2 Yb0 3.006696 1_545
Fe2 Yb3 3.006696 1_545
Fe2 Yb1 3.028008 1_555
Fe2 Yb2 3.028008 1_554
Fe3 Fe4 2.511534 1_665
Fe3 Fe4 2.618885 1_555
Fe3 Yb0 3.005784 1_555
Fe3 Yb3 3.005784 1_555
Fe3 Yb0 3.005784 1_655
Fe3 Yb3 3.005784 1_655
Fe3 Yb1 3.029148 1_555
Fe3 Yb2 3.029148 1_554
Fe4 Yb0 3.006159 1_555
Fe4 Yb3 3.006159 1_555
Fe4 Yb0 3.006696 1_545
Fe4 Yb3 3.006696 1_545
Fe4 Yb1 3.028008 1_555
Fe4 Yb2 3.028008 1_554
Fe5 Fe7 2.511205 1_455
Fe5 Fe6 2.511534 1_565
Fe5 Fe7 2.617680 1_555
Fe5 Fe6 2.618885 1_555
Fe5 Yb2 3.006159 1_455
Fe5 Yb1 3.006159 1_455
Fe5 Yb2 3.006696 1_565
Fe5 Yb1 3.006696 1_565
Fe5 Yb3 3.028008 1_556
Fe5 Yb0 3.028008 1_555
Fe6 Fe7 2.511534 1_445
Fe6 Fe7 2.618885 1_555
Fe6 Yb2 3.005784 1_555
Fe6 Yb1 3.005784 1_555
Fe6 Yb2 3.005784 1_455
Fe6 Yb1 3.005784 1_455
Fe6 Yb3 3.029148 1_556
Fe6 Yb0 3.029148 1_555
Fe7 Yb2 3.006159 1_555
Fe7 Yb1 3.006159 1_555
Fe7 Yb2 3.006696 1_565
Fe7 Yb1 3.006696 1_565
Fe7 Yb3 3.028008 1_556
Fe7 Yb0 3.028008 1_555
