# generated using pymatgen
data_Er4C7
_symmetry_space_group_name_H-M   'P 1'
_cell_length_a   3.65092510
_cell_length_b   6.37009360
_cell_length_c   13.57791986
_cell_angle_alpha   90.00000000
_cell_angle_beta   90.00000000
_cell_angle_gamma   104.88504170
_symmetry_Int_Tables_number   1
_chemical_formula_structural   Er4C7
_chemical_formula_sum   'Er8 C14'
_cell_volume   305.18156924
_cell_formula_units_Z   2
loop_
 _symmetry_equiv_pos_site_id
 _symmetry_equiv_pos_as_xyz
  1  'x, y, z'
loop_
 _atom_site_type_symbol
 _atom_site_label
 _atom_site_symmetry_multiplicity
 _atom_site_fract_x
 _atom_site_fract_y
 _atom_site_fract_z
 _atom_site_occupancy
  Er  Er0  1  0.94488718  0.83971072  0.83813981  1
  Er  Er1  1  0.05511282  0.16028928  0.16186019  1
  Er  Er2  1  0.05511282  0.66028928  0.33813981  1
  Er  Er3  1  0.94488718  0.33971072  0.66186019  1
  Er  Er4  1  0.63365981  0.75987879  0.55497192  1
  Er  Er5  1  0.36634019  0.24012121  0.44502808  1
  Er  Er6  1  0.36634019  0.74012121  0.05497192  1
  Er  Er7  1  0.63365981  0.25987879  0.94502808  1
  C  C0  1  0.73335489  0.95024159  0.39599701  1
  C  C1  1  0.26664511  0.04975841  0.60400299  1
  C  C2  1  0.26664511  0.54975841  0.89599701  1
  C  C3  1  0.73335489  0.45024159  0.10400299  1
  C  C4  1  0.53412447  0.57586337  0.71500401  1
  C  C5  1  0.46587553  0.42413663  0.28499599  1
  C  C6  1  0.46587553  0.92413663  0.21500501  1
  C  C7  1  0.53412447  0.07586337  0.78499599  1
  C  C8  1  0.62112770  0.95400131  0.30323343  1
  C  C9  1  0.37887230  0.04599869  0.69676657  1
  C  C10  1  0.37887230  0.54599869  0.80323343  1
  C  C11  1  0.62112770  0.45400131  0.19676657  1
  C  C12  1  -0.00000000  -0.00000000  -0.00000000  1
  C  C13  1  -0.00000000  0.50000000  0.50000000  1
loop_
_geom_bond_atom_site_label_1
_geom_bond_atom_site_label_2
_geom_bond_distance
_geom_bond_site_symmetry_2
C0 C8 1.326623 1_555
C0 Er4 2.456730 1_555
C0 Er2 2.554076 1_655
C0 Er5 2.630520 1_565
C0 Er5 2.645983 1_665
C0 Er2 2.794728 1_555
C1 C9 1.326623 1_555
C1 Er5 2.456730 1_555
C1 Er3 2.554076 1_455
C1 Er4 2.630520 1_545
C1 Er4 2.645983 1_445
C1 Er3 2.794728 1_555
C2 Er6 2.456730 1_556
C2 Er0 2.554076 1_455
C2 Er7 2.630520 1_555
C2 Er7 2.645983 1_455
C2 Er0 2.794728 1_555
C3 Er7 2.456730 1_554
C3 Er1 2.554076 1_655
C3 Er6 2.630520 1_555
C3 Er6 2.645983 1_655
C3 Er1 2.794728 1_555
C4 Er3 2.397697 1_455
C4 Er4 2.451277 1_555
C4 Er3 2.488305 1_555
C4 Er0 2.564029 1_555
C5 Er2 2.397697 1_655
C5 Er5 2.451277 1_555
C5 Er2 2.488305 1_555
C5 Er1 2.564029 1_555
C6 C8 1.318019 1_555
C6 Er1 2.397701 1_665
C6 Er6 2.451289 1_555
C6 Er1 2.488309 1_565
C6 Er2 2.564020 1_555
C7 C9 1.318032 1_555
C7 Er0 2.397697 1_445
C7 Er7 2.451277 1_555
C7 Er0 2.488305 1_545
C7 Er3 2.564029 1_555
C8 Er2 2.451355 1_555
C8 Er1 2.617682 1_665
C8 Er2 2.785439 1_655
C8 Er5 2.960562 1_565
C9 Er3 2.451355 1_555
C9 Er0 2.617682 1_445
C9 Er3 2.785439 1_455
C9 Er4 2.960562 1_545
C10 C4 1.318032 1_555
C10 C2 1.326623 1_555
C10 Er0 2.451355 1_555
C10 Er3 2.617682 1_455
C10 Er0 2.785439 1_455
C10 Er7 2.960562 1_555
C11 C5 1.318032 1_555
C11 C3 1.326623 1_555
C11 Er1 2.451355 1_555
C11 Er2 2.617682 1_655
C11 Er1 2.785439 1_655
C11 Er6 2.960562 1_555
C12 Er0 2.409873 1_444
C12 Er1 2.409873 1_555
C12 Er6 2.494801 1_545
C12 Er7 2.494801 1_454
C12 Er7 2.584969 1_554
C12 Er6 2.584969 1_445
C13 Er3 2.409873 1_455
C13 Er2 2.409873 1_555
C13 Er4 2.494801 1_455
C13 Er5 2.494801 1_555
C13 Er5 2.584969 1_455
C13 Er4 2.584969 1_555
