# generated using pymatgen
data_Na2MnInSi2O9
_symmetry_space_group_name_H-M   'P 1'
_cell_length_a   8.95968171
_cell_length_b   8.95968171
_cell_length_c   7.29930500
_cell_angle_alpha   90.00000000
_cell_angle_beta   90.00000000
_cell_angle_gamma   131.04988343
_symmetry_Int_Tables_number   1
_chemical_formula_structural   Na2MnInSi2O9
_chemical_formula_sum   'Na4 Mn2 In2 Si4 O18'
_cell_volume   441.89344763
_cell_formula_units_Z   2
loop_
 _symmetry_equiv_pos_site_id
 _symmetry_equiv_pos_as_xyz
  1  'x, y, z'
loop_
 _atom_site_type_symbol
 _atom_site_label
 _atom_site_symmetry_multiplicity
 _atom_site_fract_x
 _atom_site_fract_y
 _atom_site_fract_z
 _atom_site_occupancy
  Na  Na0  1  0.19276600  0.74582100  0.50496600  1
  Na  Na1  1  0.74582100  0.19276600  0.50496600  1
  Na  Na2  1  0.80723400  0.25417900  0.00496600  1
  Na  Na3  1  0.25417900  0.80723400  0.00496600  1
  Mn  Mn0  1  0.35145000  0.35145000  0.09967500  1
  Mn  Mn1  1  0.64855000  0.64855000  0.59967500  1
  In  In0  1  0.96951200  0.96951200  0.00190000  1
  In  In1  1  0.03048800  0.03048800  0.50190000  1
  Si  Si0  1  0.57184200  0.81769800  0.24729000  1
  Si  Si1  1  0.81769800  0.57184200  0.24729000  1
  Si  Si2  1  0.42815800  0.18230200  0.74729000  1
  Si  Si3  1  0.18230200  0.42815800  0.74729000  1
  O  O0  1  0.42870900  0.58747900  0.17312300  1
  O  O1  1  0.58747900  0.42870900  0.17312300  1
  O  O2  1  0.57129100  0.41252100  0.67312300  1
  O  O3  1  0.41252100  0.57129100  0.67312300  1
  O  O4  1  0.69488900  0.85180800  0.43909100  1
  O  O5  1  0.85180800  0.69488900  0.43909100  1
  O  O6  1  0.30511100  0.14819200  0.93909100  1
  O  O7  1  0.14819200  0.30511100  0.93909100  1
  O  O8  1  0.74220500  0.96154600  0.09313300  1
  O  O9  1  0.96154600  0.74220500  0.09313300  1
  O  O10  1  0.25779500  0.03845400  0.59313300  1
  O  O11  1  0.03845400  0.25779500  0.59313300  1
  O  O12  1  0.43333700  0.86993200  0.28069300  1
  O  O13  1  0.86993200  0.43333700  0.28069300  1
  O  O14  1  0.56666300  0.13006800  0.78069300  1
  O  O15  1  0.13006800  0.56666300  0.78069300  1
  O  O16  1  0.84987100  0.84987100  0.73983300  1
  O  O17  1  0.15012900  0.15012900  0.23983300  1
loop_
_geom_bond_atom_site_label_1
_geom_bond_atom_site_label_2
_geom_bond_distance
_geom_bond_site_symmetry_2
Na0 O12 2.326856 1_555
Na0 O10 2.370983 1_565
Na0 O15 2.399686 1_555
Na0 O5 2.817930 1_455
Na0 O13 2.872021 1_455
Na1 O13 2.326856 1_555
Na1 O11 2.370983 1_655
Na1 O14 2.399686 1_555
Na1 O4 2.817930 1_545
Na1 O12 2.872021 1_545
Na2 O14 2.326856 1_554
Na2 O8 2.370983 1_545
Na2 O13 2.399686 1_555
Na2 O7 2.817930 1_654
Na2 O15 2.872021 1_654
Na3 O15 2.326856 1_554
Na3 O9 2.370983 1_455
Na3 O12 2.399686 1_555
Na3 O6 2.817930 1_564
Na3 O14 2.872021 1_564
Mn0 O17 1.811203 1_555
Mn0 O1 1.821003 1_555
Mn0 O0 1.821003 1_555
Mn0 O7 1.967164 1_554
Mn0 O6 1.967164 1_554
Mn1 O16 1.811203 1_555
Mn1 O2 1.821003 1_555
Mn1 O3 1.821003 1_555
Mn1 O5 1.967164 1_555
Mn1 O4 1.967164 1_555
In0 O8 2.098900 1_555
In0 O9 2.098900 1_555
In0 O16 2.109058 1_554
In0 O17 2.194145 1_665
In0 O7 2.343464 1_664
In0 O6 2.343464 1_664
In1 O10 2.098900 1_555
In1 O11 2.098900 1_555
In1 O17 2.109058 1_555
In1 O16 2.194145 1_445
In1 O4 2.343464 1_445
In1 O5 2.343464 1_445
O0 Si0 1.648645 1_555
O1 Si1 1.648645 1_555
O2 Si2 1.648645 1_555
O3 Si3 1.648645 1_555
O4 Si0 1.681169 1_555
O5 Si1 1.681169 1_555
O6 Si2 1.681169 1_555
O7 Si3 1.681169 1_555
O8 Si0 1.635013 1_555
O9 Si1 1.635013 1_555
O10 Si2 1.635013 1_555
O11 Si3 1.635013 1_555
O12 Si0 1.606629 1_555
O13 Si1 1.606629 1_555
O14 Si2 1.606629 1_555
O15 Si3 1.606629 1_555
