# generated using pymatgen
data_RbCuTeS3
_symmetry_space_group_name_H-M   'P 1'
_cell_length_a   10.63266100
_cell_length_b   7.52333900
_cell_length_c   8.22831330
_cell_angle_alpha   74.13965298
_cell_angle_beta   90.00000000
_cell_angle_gamma   90.00000000
_symmetry_Int_Tables_number   1
_chemical_formula_structural   RbCuTeS3
_chemical_formula_sum   'Rb4 Cu4 Te4 S12'
_cell_volume   633.15085032
_cell_formula_units_Z   4
loop_
 _symmetry_equiv_pos_site_id
 _symmetry_equiv_pos_as_xyz
  1  'x, y, z'
loop_
 _atom_site_type_symbol
 _atom_site_label
 _atom_site_symmetry_multiplicity
 _atom_site_fract_x
 _atom_site_fract_y
 _atom_site_fract_z
 _atom_site_occupancy
  Rb  Rb0  1  0.23692300  0.47386000  0.88440500  1
  Rb  Rb1  1  0.76307700  0.52614000  0.11559500  1
  Rb  Rb2  1  0.73692300  0.52614000  0.61559500  1
  Rb  Rb3  1  0.26307700  0.47386000  0.38440500  1
  Cu  Cu0  1  0.24970800  0.91668500  0.52068800  1
  Cu  Cu1  1  0.75029200  0.08331500  0.47931200  1
  Cu  Cu2  1  0.74970800  0.08331500  0.97931200  1
  Cu  Cu3  1  0.25029200  0.91668500  0.02068800  1
  Te  Te0  1  0.49791800  0.93580200  0.76732100  1
  Te  Te1  1  0.50208200  0.06419800  0.23267900  1
  Te  Te2  1  0.99791800  0.06419800  0.73267900  1
  Te  Te3  1  0.00208200  0.93580200  0.26732100  1
  S  S0  1  0.06424800  0.74680700  0.53979400  1
  S  S1  1  0.93575200  0.25319300  0.46020600  1
  S  S2  1  0.56424800  0.25319300  0.96020600  1
  S  S3  1  0.43575200  0.74680700  0.03979400  1
  S  S4  1  0.72605300  0.89548800  0.77487600  1
  S  S5  1  0.27394700  0.10451200  0.22512400  1
  S  S6  1  0.22605300  0.10451200  0.72512400  1
  S  S7  1  0.77394700  0.89548800  0.27487600  1
  S  S8  1  0.43402800  0.74432400  0.59061400  1
  S  S9  1  0.56597200  0.25567600  0.40938600  1
  S  S10  1  0.93402800  0.25567600  0.90938600  1
  S  S11  1  0.06597200  0.74432400  0.09061400  1
loop_
_geom_bond_atom_site_label_1
_geom_bond_atom_site_label_2
_geom_bond_distance
_geom_bond_site_symmetry_2
Rb0 S6 3.382749 1_555
Rb0 S5 3.387933 1_556
Rb0 S8 3.418739 1_555
Rb0 S3 3.428698 1_556
Rb0 S11 3.494333 1_556
Rb0 S0 3.527807 1_555
Rb0 S10 3.595051 1_455
Rb0 S2 3.833001 1_555
Rb1 S7 3.382749 1_555
Rb1 S4 3.387933 1_554
Rb1 S9 3.418739 1_555
Rb1 S2 3.428698 1_554
Rb1 S10 3.494333 1_554
Rb1 S1 3.527807 1_555
Rb1 S11 3.595051 1_655
Rb1 S3 3.833001 1_555
Rb2 S4 3.382749 1_555
Rb2 S7 3.387933 1_555
Rb2 S10 3.418739 1_555
Rb2 S1 3.428698 1_555
Rb2 S9 3.494333 1_555
Rb2 S2 3.527807 1_555
Rb2 S8 3.595051 1_555
Rb2 S0 3.833001 1_655
Rb3 S5 3.382749 1_555
Rb3 S6 3.387933 1_555
Rb3 S11 3.418739 1_555
Rb3 S0 3.428698 1_555
Rb3 S8 3.494333 1_555
Rb3 S3 3.527807 1_555
Rb3 S9 3.595051 1_555
Rb3 S1 3.833001 1_455
Cu0 S0 2.331700 1_555
Cu0 S8 2.333584 1_555
Cu0 S5 2.469700 1_565
Cu0 S6 2.487772 1_565
Cu1 S1 2.331700 1_555
Cu1 S9 2.333584 1_555
Cu1 S4 2.469700 1_545
Cu1 S7 2.487772 1_545
Cu2 S2 2.331700 1_555
Cu2 S10 2.333584 1_555
Cu2 S7 2.469700 1_546
Cu2 S4 2.487772 1_545
Cu3 S3 2.331700 1_555
Cu3 S11 2.333584 1_555
Cu3 S6 2.469700 1_564
Cu3 S5 2.487772 1_565
S0 Te3 2.396401 1_555
S1 Te2 2.396401 1_555
S2 Te1 2.396401 1_556
S3 Te0 2.396401 1_554
S4 Te0 2.443252 1_555
S5 Te1 2.443252 1_555
S6 Te2 2.443252 1_455
S7 Te3 2.443252 1_655
S8 Te0 2.407416 1_555
S9 Te1 2.407416 1_555
S10 Te2 2.407416 1_555
S11 Te3 2.407416 1_555
