# generated using pymatgen
data_LiAg4(RuO3)4
_symmetry_space_group_name_H-M   'P 1'
_cell_length_a   7.24296291
_cell_length_b   7.24031665
_cell_length_c   7.24296291
_cell_angle_alpha   60.01207871
_cell_angle_beta   90.00248784
_cell_angle_gamma   119.98792129
_symmetry_Int_Tables_number   1
_chemical_formula_structural   LiAg4(RuO3)4
_chemical_formula_sum   'Li1 Ag4 Ru4 O12'
_cell_volume   268.68473928
_cell_formula_units_Z   1
loop_
 _symmetry_equiv_pos_site_id
 _symmetry_equiv_pos_as_xyz
  1  'x, y, z'
loop_
 _atom_site_type_symbol
 _atom_site_label
 _atom_site_symmetry_multiplicity
 _atom_site_fract_x
 _atom_site_fract_y
 _atom_site_fract_z
 _atom_site_occupancy
  Li  Li0  1  0.12750600  0.25000000  0.12750600  1
  Ag  Ag0  1  0.58070000  0.55321600  0.97426800  1
  Ag  Ag1  1  0.97476500  0.94841400  0.97476500  1
  Ag  Ag2  1  0.97476500  0.55158600  0.97476500  1
  Ag  Ag3  1  0.97426800  0.94678400  0.58070000  1
  Ru  Ru0  1  0.50035200  0.00074000  0.99887300  1
  Ru  Ru1  1  0.50030300  0.00039900  0.50030300  1
  Ru  Ru2  1  0.50030300  0.49960100  0.50030300  1
  Ru  Ru3  1  0.99887300  0.49926000  0.50035200  1
  O  O0  1  0.82288000  0.24995800  0.42694900  1
  O  O1  1  0.56999000  0.14059100  0.17957300  1
  O  O2  1  0.56999000  0.74982600  0.17957300  1
  O  O3  1  0.82287500  0.25000000  0.82287500  1
  O  O4  1  0.82288000  0.64597300  0.42694900  1
  O  O5  1  0.42678700  0.25000000  0.42678700  1
  O  O6  1  0.57002500  0.75000000  0.57002500  1
  O  O7  1  0.17932400  0.75000000  0.17932400  1
  O  O8  1  0.17957300  0.35940900  0.56999000  1
  O  O9  1  0.42694900  0.25004200  0.82288000  1
  O  O10  1  0.42694900  0.85402700  0.82288000  1
  O  O11  1  0.17957300  0.75017400  0.56999000  1
loop_
_geom_bond_atom_site_label_1
_geom_bond_atom_site_label_2
_geom_bond_distance
_geom_bond_site_symmetry_2
Ag0 O1 2.543631 1_556
Ag0 O2 2.543631 1_556
Ag0 O6 2.559035 1_555
Ag0 O5 2.676918 1_556
Ag0 Li0 2.680874 1_556
Ag0 O9 2.687589 1_555
Ag0 O10 2.687589 1_555
Ag1 O7 2.540458 1_656
Ag1 O8 2.552949 1_665
Ag1 O2 2.552949 1_556
Ag1 O4 2.674874 1_556
Ag1 O9 2.674874 1_665
Ag1 O3 2.681137 1_565
Ag1 Li0 2.686205 1_666
Ag2 O7 2.540458 1_656
Ag2 O1 2.552949 1_556
Ag2 O11 2.552949 1_655
Ag2 O10 2.674874 1_655
Ag2 O0 2.674874 1_556
Ag2 O3 2.681137 1_555
Ag2 Li0 2.686205 1_656
Ag3 O8 2.543631 1_665
Ag3 O11 2.543631 1_655
Ag3 O6 2.559035 1_555
Ag3 O5 2.676918 1_665
Ag3 Li0 2.680874 1_665
Ag3 O0 2.687589 1_565
Ag3 O4 2.687589 1_555
O0 Ru3 1.955724 1_555
O0 Ru1 1.956096 1_555
O1 Ru0 1.951110 1_554
O1 Ru1 1.952540 1_555
O2 Ru0 1.951115 1_564
O2 Ru2 1.952540 1_555
O3 Ru3 1.955813 1_555
O3 Ru0 1.955813 1_555
O4 Ru3 1.955730 1_555
O4 Ru2 1.956096 1_555
O5 Ru2 1.957797 1_555
O5 Ru1 1.957797 1_555
O6 Ru2 1.948556 1_555
O6 Ru1 1.948556 1_565
O7 Ru0 1.954288 1_564
O7 Ru3 1.954288 1_455
O8 Ru3 1.951110 1_455
O8 Ru2 1.952540 1_555
O9 Ru0 1.955724 1_555
O9 Ru2 1.956096 1_555
O10 Ru0 1.955730 1_565
O10 Ru1 1.956096 1_565
O11 Ru3 1.951115 1_455
O11 Ru1 1.952540 1_565
