# generated using pymatgen
data_CeMg6Ga
_symmetry_space_group_name_H-M   'P 1'
_cell_length_a   6.53899409
_cell_length_b   6.53899409
_cell_length_c   5.15223300
_cell_angle_alpha   90.00000000
_cell_angle_beta   90.00000000
_cell_angle_gamma   121.15082816
_symmetry_Int_Tables_number   1
_chemical_formula_structural   CeMg6Ga
_chemical_formula_sum   'Ce1 Mg6 Ga1'
_cell_volume   188.53587059
_cell_formula_units_Z   1
loop_
 _symmetry_equiv_pos_site_id
 _symmetry_equiv_pos_as_xyz
  1  'x, y, z'
loop_
 _atom_site_type_symbol
 _atom_site_label
 _atom_site_symmetry_multiplicity
 _atom_site_fract_x
 _atom_site_fract_y
 _atom_site_fract_z
 _atom_site_occupancy
  Ce  Ce0  1  0.83249400  0.16750600  0.50000000  1
  Mg  Mg0  1  0.33479200  0.16908500  0.50000000  1
  Mg  Mg1  1  0.83091500  0.66520800  0.50000000  1
  Mg  Mg2  1  0.17198000  0.33731000  0.00000000  1
  Mg  Mg3  1  0.66269000  0.82802000  0.00000000  1
  Mg  Mg4  1  0.66463600  0.33536400  0.00000000  1
  Mg  Mg5  1  0.16749400  0.83250600  0.00000000  1
  Ga  Ga0  1  0.33500300  0.66499700  0.50000000  1
loop_
_geom_bond_atom_site_label_1
_geom_bond_atom_site_label_2
_geom_bond_distance
_geom_bond_site_symmetry_2
Ce0 Mg3 3.201107 1_545
Ce0 Mg3 3.201107 1_546
Ce0 Mg2 3.201107 1_655
Ce0 Mg2 3.201107 1_656
Ce0 Mg4 3.208172 1_556
Ce0 Mg4 3.208172 1_555
Ce0 Ga0 3.212588 1_655
Ce0 Ga0 3.212588 1_545
Ce0 Mg0 3.259823 1_555
Ce0 Mg1 3.259823 1_555
Ce0 Mg1 3.279194 1_545
Ce0 Mg0 3.279194 1_655
Mg0 Mg4 3.169281 1_555
Mg0 Mg4 3.169281 1_556
Mg0 Mg1 3.187552 1_555
Mg0 Mg5 3.191564 1_546
Mg0 Mg5 3.191564 1_545
Mg0 Mg2 3.192408 1_556
Mg0 Mg2 3.192408 1_555
Mg0 Mg1 3.237370 1_445
Mg1 Mg4 3.169281 1_555
Mg1 Mg4 3.169281 1_556
Mg1 Mg5 3.191564 1_655
Mg1 Mg5 3.191564 1_656
Mg1 Mg3 3.192408 1_555
Mg1 Mg3 3.192408 1_556
Mg2 Mg3 3.152773 1_555
Mg2 Mg4 3.228076 1_555
Mg2 Mg5 3.253355 1_555
Mg2 Mg3 3.272149 1_445
Mg2 Mg5 3.285832 1_545
Mg2 Mg4 3.310955 1_455
Mg3 Mg4 3.228076 1_555
Mg3 Mg5 3.253355 1_555
Mg3 Mg5 3.285832 1_655
Mg3 Mg4 3.310955 1_565
Mg4 Mg5 3.212626 1_545
Mg4 Mg5 3.212626 1_655
Ga0 Mg2 3.162423 1_555
Ga0 Mg3 3.162423 1_555
Ga0 Mg3 3.162423 1_556
Ga0 Mg2 3.162423 1_556
Ga0 Mg5 3.205804 1_555
Ga0 Mg5 3.205804 1_556
Ga0 Mg1 3.242052 1_555
Ga0 Mg0 3.242052 1_555
Ga0 Mg0 3.296942 1_565
Ga0 Mg1 3.296942 1_455
