# generated using pymatgen
data_Mg3N2
_symmetry_space_group_name_H-M   'P 1'
_cell_length_a   8.60101094
_cell_length_b   8.60101065
_cell_length_c   8.60100680
_cell_angle_alpha   109.47019959
_cell_angle_beta   109.47020083
_cell_angle_gamma   109.47021190
_symmetry_Int_Tables_number   1
_chemical_formula_structural   Mg3N2
_chemical_formula_sum   'Mg24 N16'
_cell_volume   489.82701046
_cell_formula_units_Z   8
loop_
 _symmetry_equiv_pos_site_id
 _symmetry_equiv_pos_as_xyz
  1  'x, y, z'
loop_
 _atom_site_type_symbol
 _atom_site_label
 _atom_site_symmetry_multiplicity
 _atom_site_fract_x
 _atom_site_fract_y
 _atom_site_fract_z
 _atom_site_occupancy
  Mg  Mg0  1  0.04121857  0.26976211  0.00638495  1
  Mg  Mg1  1  0.27145701  0.73662275  0.23023170  1
  Mg  Mg2  1  0.76338423  0.03483653  0.49362374  1
  Mg  Mg3  1  0.45878146  0.46517024  0.22855145  1
  Mg  Mg4  1  0.22855038  0.45878179  0.46517070  1
  Mg  Mg5  1  0.26976149  0.00638603  0.04121592  1
  Mg  Mg6  1  0.23022743  0.27145458  0.73661859  1
  Mg  Mg7  1  0.03483888  0.49362356  0.76338959  1
  Mg  Mg8  1  0.49362321  0.76338659  0.03483515  1
  Mg  Mg9  1  0.73662026  0.23022836  0.27145275  1
  Mg  Mg10  1  0.00638512  0.04121891  0.26976330  1
  Mg  Mg11  1  0.46517238  0.22854859  0.45878360  1
  Mg  Mg12  1  0.96516345  0.50637790  0.23661304  1
  Mg  Mg13  1  0.76976784  0.72854570  0.26337854  1
  Mg  Mg14  1  0.73024045  0.99361466  0.95878328  1
  Mg  Mg15  1  0.77144921  0.54121332  0.53482647  1
  Mg  Mg16  1  0.54121763  0.53482705  0.77144870  1
  Mg  Mg17  1  0.23661107  0.96516204  0.50637727  1
  Mg  Mg18  1  0.72854662  0.26338185  0.76977391  1
  Mg  Mg19  1  0.95878657  0.73024287  0.99361703  1
  Mg  Mg20  1  0.50637674  0.23661451  0.96516361  1
  Mg  Mg21  1  0.26337840  0.76976981  0.72854490  1
  Mg  Mg22  1  0.99361330  0.95878159  0.73023755  1
  Mg  Mg23  1  0.53482864  0.77144813  0.54121869  1
  N  N0  1  0.00000195  0.50000205  0.00000166  1
  N  N1  1  0.50000013  0.00000000  0.00000007  1
  N  N2  1  0.99999802  0.00000000  0.49999938  1
  N  N3  1  0.49999981  0.49999803  0.49999968  1
  N  N4  1  0.24999801  0.71889100  0.46889058  1
  N  N5  1  0.03110920  0.75000029  0.78110923  1
  N  N6  1  0.78110893  0.03110982  0.75000048  1
  N  N7  1  0.46888982  0.24999617  0.71888953  1
  N  N8  1  0.71889018  0.46889065  0.24999732  1
  N  N9  1  0.75000166  0.78110973  0.03110973  1
  N  N10  1  0.75000355  0.28110966  0.53111049  1
  N  N11  1  0.96889003  0.24999944  0.21888897  1
  N  N12  1  0.21889027  0.96889110  0.24999964  1
  N  N13  1  0.53110914  0.75000186  0.28110949  1
  N  N14  1  0.28111021  0.53110988  0.75000168  1
  N  N15  1  0.24999877  0.21888986  0.96888864  1
loop_
_geom_bond_atom_site_label_1
_geom_bond_atom_site_label_2
_geom_bond_distance
_geom_bond_site_symmetry_2
Mg0 N15 2.082273 1_554
Mg0 N0 2.139569 1_555
Mg0 N11 2.156657 1_455
Mg0 N6 2.171096 1_454
Mg1 N13 2.082273 1_555
Mg1 N0 2.139647 1_555
Mg1 N12 2.156674 1_555
Mg1 N4 2.171043 1_555
Mg2 N10 2.082289 1_555
Mg2 N2 2.139520 1_555
Mg2 N13 2.156812 1_545
Mg2 N6 2.170945 1_555
Mg3 N15 2.082439 1_554
Mg3 N3 2.139526 1_555
Mg3 N13 2.156702 1_555
Mg3 N8 2.171025 1_555
Mg4 N11 2.082434 1_455
Mg4 N3 2.139539 1_555
Mg4 N14 2.156691 1_555
Mg4 N4 2.171026 1_555
Mg5 N12 2.082294 1_545
Mg5 N1 2.139562 1_555
Mg5 N15 2.156650 1_554
Mg5 N5 2.171090 1_544
Mg6 N14 2.082279 1_555
Mg6 N2 2.139640 1_455
Mg6 N15 2.156673 1_555
Mg6 N7 2.171064 1_555
Mg7 N14 2.082302 1_555
Mg7 N0 2.139500 1_556
Mg7 N10 2.156824 1_455
Mg7 N5 2.170967 1_555
Mg8 N13 2.082315 1_555
Mg8 N1 2.139508 1_565
Mg8 N14 2.156808 1_554
Mg8 N9 2.170960 1_555
Mg9 N10 2.082301 1_555
Mg9 N1 2.139633 1_555
Mg9 N11 2.156667 1_555
Mg9 N8 2.171056 1_555
Mg10 N11 2.082280 1_455
Mg10 N2 2.139554 1_455
Mg10 N12 2.156666 1_545
Mg10 N9 2.171094 1_445
Mg11 N12 2.082426 1_545
Mg11 N3 2.139543 1_555
Mg11 N10 2.156692 1_555
Mg11 N7 2.171005 1_555
Mg12 N8 2.082304 1_555
Mg12 N0 2.139506 1_655
Mg12 N4 2.156816 1_655
Mg12 N11 2.170962 1_555
Mg13 N8 2.082291 1_555
Mg13 N2 2.139645 1_565
Mg13 N9 2.156666 1_555
Mg13 N13 2.171030 1_555
Mg14 N6 2.082276 1_565
Mg14 N1 2.139578 1_566
Mg14 N9 2.156652 1_556
Mg14 N11 2.171078 1_566
Mg15 N5 2.082442 1_655
Mg15 N3 2.139546 1_555
Mg15 N8 2.156685 1_555
Mg15 N10 2.170995 1_555
Mg16 N9 2.082441 1_556
Mg16 N3 2.139531 1_555
Mg16 N7 2.156693 1_555
Mg16 N14 2.171021 1_555
Mg17 N4 2.082296 1_555
Mg17 N2 2.139515 1_465
Mg17 N7 2.156815 1_565
Mg17 N12 2.170969 1_555
Mg18 N7 2.082282 1_555
Mg18 N0 2.139642 1_656
Mg18 N6 2.156676 1_555
Mg18 N10 2.171063 1_555
Mg19 N9 2.082281 1_556
Mg19 N0 2.139575 1_656
Mg19 N5 2.156649 1_655
Mg19 N12 2.171062 1_656
Mg20 N7 2.082300 1_555
Mg20 N1 2.139524 1_556
Mg20 N8 2.156809 1_556
Mg20 N15 2.170951 1_555
Mg21 N4 2.082285 1_555
Mg21 N1 2.139650 1_566
Mg21 N5 2.156667 1_555
Mg21 N14 2.171046 1_555
Mg22 N5 2.082279 1_655
Mg22 N2 2.139564 1_565
Mg22 N6 2.156660 1_565
Mg22 N15 2.171092 1_665
Mg23 N6 2.082433 1_565
Mg23 N3 2.139539 1_555
Mg23 N4 2.156695 1_555
Mg23 N13 2.171030 1_555
