# generated using pymatgen
data_Mg3Ti
_symmetry_space_group_name_H-M   'P 1'
_cell_length_a   5.37137629
_cell_length_b   5.37137629
_cell_length_c   5.37137629
_cell_angle_alpha   131.62060187
_cell_angle_beta   131.62060187
_cell_angle_gamma   70.82890907
_symmetry_Int_Tables_number   1
_chemical_formula_structural   Mg3Ti
_chemical_formula_sum   'Mg3 Ti1'
_cell_volume   84.82456368
_cell_formula_units_Z   1
loop_
 _symmetry_equiv_pos_site_id
 _symmetry_equiv_pos_as_xyz
  1  'x, y, z'
loop_
 _atom_site_type_symbol
 _atom_site_label
 _atom_site_symmetry_multiplicity
 _atom_site_fract_x
 _atom_site_fract_y
 _atom_site_fract_z
 _atom_site_occupancy
  Mg  Mg0  1  0.50000000  0.50000000  0.00000000  1
  Mg  Mg1  1  0.25000000  0.75000000  0.50000000  1
  Mg  Mg2  1  0.75000000  0.25000000  0.50000000  1
  Ti  Ti0  1  0.00000000  0.00000000  0.00000000  1
loop_
_geom_bond_atom_site_label_1
_geom_bond_atom_site_label_2
_geom_bond_distance
_geom_bond_site_symmetry_2
Mg0 Mg1 3.104039 1_544
Mg0 Mg2 3.104039 1_454
Mg0 Mg2 3.104039 1_555
Mg0 Mg2 3.104039 1_565
Mg0 Mg1 3.104039 1_655
Mg0 Mg1 3.104039 1_555
Mg0 Mg1 3.104039 1_554
Mg0 Mg2 3.104039 1_554
Mg0 Ti0 3.112642 1_554
Mg0 Ti0 3.112642 1_666
Mg0 Ti0 3.112642 1_655
Mg0 Ti0 3.112642 1_565
Mg1 Ti0 3.104039 1_566
Mg1 Ti0 3.104039 1_555
Mg1 Ti0 3.104039 1_565
Mg1 Ti0 3.104039 1_666
Mg1 Mg2 3.112642 1_555
Mg1 Mg2 3.112642 1_566
Mg1 Mg2 3.112642 1_465
Mg1 Mg2 3.112642 1_454
Mg2 Ti0 3.104039 1_656
Mg2 Ti0 3.104039 1_555
Mg2 Ti0 3.104039 1_655
Mg2 Ti0 3.104039 1_666
