# generated using pymatgen
data_Cu4Bi3Pb(SeO)4
_symmetry_space_group_name_H-M   'P 1'
_cell_length_a   10.11011395
_cell_length_b   10.11011395
_cell_length_c   10.11011395
_cell_angle_alpha   147.75287682
_cell_angle_beta   147.75287682
_cell_angle_gamma   46.25030370
_symmetry_Int_Tables_number   1
_chemical_formula_structural   Cu4Bi3Pb(SeO)4
_chemical_formula_sum   'Cu4 Bi3 Pb1 Se4 O4'
_cell_volume   293.17876988
_cell_formula_units_Z   1
loop_
 _symmetry_equiv_pos_site_id
 _symmetry_equiv_pos_as_xyz
  1  'x, y, z'
loop_
 _atom_site_type_symbol
 _atom_site_label
 _atom_site_symmetry_multiplicity
 _atom_site_fract_x
 _atom_site_fract_y
 _atom_site_fract_z
 _atom_site_occupancy
  Cu  Cu0  1  0.49998500  0.99950600  0.00000000  1
  Cu  Cu1  1  0.99950600  0.49998500  0.00000000  1
  Cu  Cu2  1  0.49998500  0.49998500  0.50048000  1
  Cu  Cu3  1  0.99950600  0.99950600  0.49952000  1
  Bi  Bi0  1  0.93800800  0.93800800  0.00000000  1
  Bi  Bi1  1  0.56632400  0.06632400  0.50000000  1
  Bi  Bi2  1  0.06632400  0.56632400  0.50000000  1
  Pb  Pb0  1  0.42393100  0.42393100  0.00000000  1
  Se  Se0  1  0.66656800  0.66656800  0.00000000  1
  Se  Se1  1  0.16803600  0.16803600  0.00000000  1
  Se  Se2  1  0.33047200  0.83047200  0.50000000  1
  Se  Se3  1  0.83047200  0.33047200  0.50000000  1
  O  O0  1  0.24700800  0.75843800  0.00000000  1
  O  O1  1  0.75843800  0.24700800  0.00000000  1
  O  O2  1  0.24700800  0.24700800  0.48857000  1
  O  O3  1  0.75843800  0.75843800  0.51143000  1
loop_
_geom_bond_atom_site_label_1
_geom_bond_atom_site_label_2
_geom_bond_distance
_geom_bond_site_symmetry_2
Cu0 Se3 2.488972 1_565
Cu0 Se2 2.488972 1_554
Cu0 Se1 2.501549 1_565
Cu0 Se0 2.515223 1_555
Cu1 Se2 2.488972 1_655
Cu1 Se3 2.488972 1_554
Cu1 Se1 2.501549 1_655
Cu1 Se0 2.515223 1_555
Cu2 Se2 2.488978 1_555
Cu2 Se3 2.488978 1_555
Cu2 Se1 2.501547 1_555
Cu2 Se0 2.515214 1_556
Cu3 Se3 2.488967 1_565
Cu3 Se2 2.488967 1_655
Cu3 Se1 2.501558 1_666
Cu3 Se0 2.515225 1_555
Bi0 O2 2.282887 1_665
Bi0 O0 2.282887 1_655
Bi0 O1 2.282887 1_565
Bi0 O3 2.282887 1_554
Bi1 O3 2.311352 1_545
Bi1 O0 2.311352 1_545
Bi1 O1 2.311352 1_556
Bi1 O2 2.311352 1_555
Bi2 O3 2.311352 1_455
Bi2 O1 2.311352 1_455
Bi2 O0 2.311352 1_556
Bi2 O2 2.311352 1_555
O0 Pb0 2.504104 1_555
O1 Pb0 2.504104 1_555
O2 Pb0 2.504104 1_556
O3 Pb0 2.504104 1_555
