# generated using pymatgen
data_Ti(PO4)2
_symmetry_space_group_name_H-M   'P 1'
_cell_length_a   6.38860500
_cell_length_b   5.21704500
_cell_length_c   13.61277108
_cell_angle_alpha   78.48690385
_cell_angle_beta   90.00000000
_cell_angle_gamma   90.00000000
_symmetry_Int_Tables_number   1
_chemical_formula_structural   Ti(PO4)2
_chemical_formula_sum   'Ti2 P4 O16'
_cell_volume   444.57973207
_cell_formula_units_Z   2
loop_
 _symmetry_equiv_pos_site_id
 _symmetry_equiv_pos_as_xyz
  1  'x, y, z'
loop_
 _atom_site_type_symbol
 _atom_site_label
 _atom_site_symmetry_multiplicity
 _atom_site_fract_x
 _atom_site_fract_y
 _atom_site_fract_z
 _atom_site_occupancy
  Ti  Ti0  1  0.81726400  0.29625500  0.38538700  1
  Ti  Ti1  1  0.31726400  0.70374500  0.61461300  1
  P  P0  1  0.81651700  0.70218400  0.55022300  1
  P  P1  1  0.31651700  0.29781600  0.44977700  1
  P  P2  1  0.77421700  0.89490000  0.21900400  1
  P  P3  1  0.27421700  0.10510000  0.78099600  1
  O  O0  1  0.62052700  0.69768800  0.61689900  1
  O  O1  1  0.12052700  0.30231200  0.38310100  1
  O  O2  1  0.81693100  0.45904900  0.50196900  1
  O  O3  1  0.31693100  0.54095100  0.49803100  1
  O  O4  1  0.55186500  0.88909200  0.17479200  1
  O  O5  1  0.05186500  0.11090800  0.82520800  1
  O  O6  1  0.81149200  0.13966800  0.26315000  1
  O  O7  1  0.31149200  0.86033200  0.73685000  1
  O  O8  1  0.01233200  0.69741500  0.61660900  1
  O  O9  1  0.51233200  0.30258500  0.38339100  1
  O  O10  1  0.90223900  0.90435000  0.12203500  1
  O  O11  1  0.40223900  0.09565000  0.87796500  1
  O  O12  1  0.81639700  0.64635600  0.29784500  1
  O  O13  1  0.31639700  0.35364400  0.70215500  1
  O  O14  1  0.81522100  0.95453700  0.46873900  1
  O  O15  1  0.31522100  0.04546300  0.53126100  1
loop_
_geom_bond_atom_site_label_1
_geom_bond_atom_site_label_2
_geom_bond_distance
_geom_bond_site_symmetry_2
O0 P0 1.543902 1_555
O0 Ti1 1.937834 1_555
O1 P1 1.543902 1_555
O1 Ti0 1.937834 1_455
O2 P0 1.540469 1_555
O2 Ti0 1.943693 1_555
O3 P1 1.540469 1_555
O3 Ti1 1.943693 1_555
O4 P2 1.545410 1_555
O5 P3 1.545410 1_555
O6 P2 1.534542 1_545
O6 Ti0 1.995042 1_555
O7 P3 1.534542 1_565
O7 Ti1 1.995042 1_555
O8 P0 1.540544 1_455
O8 Ti1 1.948468 1_555
O9 P1 1.540544 1_555
O9 Ti0 1.948468 1_555
O10 P2 1.545260 1_555
O11 P3 1.545260 1_555
O12 P2 1.533065 1_555
O12 Ti0 1.971639 1_555
O13 P3 1.533065 1_555
O13 Ti1 1.971639 1_555
O14 P0 1.542975 1_555
O14 Ti0 1.912684 1_565
O15 P1 1.542975 1_555
O15 Ti1 1.912684 1_545
