# generated using pymatgen
data_Ba3RuF6
_symmetry_space_group_name_H-M   'P 1'
_cell_length_a   6.52668999
_cell_length_b   8.39925077
_cell_length_c   6.55011076
_cell_angle_alpha   129.87636347
_cell_angle_beta   83.26663139
_cell_angle_gamma   100.64119329
_symmetry_Int_Tables_number   1
_chemical_formula_structural   Ba3RuF6
_chemical_formula_sum   'Ba3 Ru1 F6'
_cell_volume   270.82371399
_cell_formula_units_Z   1
loop_
 _symmetry_equiv_pos_site_id
 _symmetry_equiv_pos_as_xyz
  1  'x, y, z'
loop_
 _atom_site_type_symbol
 _atom_site_label
 _atom_site_symmetry_multiplicity
 _atom_site_fract_x
 _atom_site_fract_y
 _atom_site_fract_z
 _atom_site_occupancy
  Ba  Ba0  1  0.50000000  0.00000000  0.00000000  1
  Ba  Ba1  1  0.00000000  0.50000000  0.50000000  1
  Ba  Ba2  1  0.00000000  0.00000000  0.50000000  1
  Ru  Ru0  1  0.00000000  0.00000000  0.00000000  1
  F  F0  1  0.74968000  0.17619000  0.42264600  1
  F  F1  1  0.25032000  0.82380900  0.57735400  1
  F  F2  1  0.74833800  0.75254500  0.57690700  1
  F  F3  1  0.25166200  0.24745500  0.42309300  1
  F  F4  1  0.15406800  0.77089900  0.00057900  1
  F  F5  1  0.84593200  0.22910100  0.99942100  1
loop_
_geom_bond_atom_site_label_1
_geom_bond_atom_site_label_2
_geom_bond_distance
_geom_bond_site_symmetry_2
Ba0 F5 2.683894 1_554
Ba0 F4 2.683894 1_545
Ba0 F1 2.724609 1_544
Ba0 F0 2.724611 1_555
Ba0 F3 2.726188 1_555
Ba0 F2 2.726188 1_544
Ba1 F1 2.666276 1_555
Ba1 F0 2.666283 1_455
Ba1 F2 2.678361 1_455
Ba1 F3 2.678361 1_555
Ba1 F4 2.702033 1_556
Ba1 F5 2.702033 1_454
Ba2 F3 2.675678 1_555
Ba2 F2 2.675678 1_445
Ba2 F0 2.676636 1_455
Ba2 F1 2.676643 1_545
Ba2 F4 2.699400 1_545
Ba2 F5 2.699400 1_455
F0 Ru0 2.664991 1_655
F1 Ru0 2.664991 1_566
F2 Ru0 2.668088 1_666
F3 Ru0 2.668088 1_555
F4 Ru0 2.332136 1_565
F5 Ru0 2.332136 1_656
