# generated using pymatgen
data_La7(BrO6)3
_symmetry_space_group_name_H-M   'P 1'
_cell_length_a   15.95719367
_cell_length_b   15.95719367
_cell_length_c   4.46201100
_cell_angle_alpha   90.00000000
_cell_angle_beta   90.00000000
_cell_angle_gamma   119.99999865
_symmetry_Int_Tables_number   1
_chemical_formula_structural   La7(BrO6)3
_chemical_formula_sum   'La14 Br6 O36'
_cell_volume   983.95289189
_cell_formula_units_Z   2
loop_
 _symmetry_equiv_pos_site_id
 _symmetry_equiv_pos_as_xyz
  1  'x, y, z'
loop_
 _atom_site_type_symbol
 _atom_site_label
 _atom_site_symmetry_multiplicity
 _atom_site_fract_x
 _atom_site_fract_y
 _atom_site_fract_z
 _atom_site_occupancy
  La  La0  1  0.53531800  0.87618700  0.75000000  1
  La  La1  1  0.46468200  0.12381300  0.25000000  1
  La  La2  1  0.34086900  0.46468200  0.75000000  1
  La  La3  1  0.65913100  0.53531800  0.25000000  1
  La  La4  1  0.12381300  0.65913100  0.75000000  1
  La  La5  1  0.87618700  0.34086900  0.25000000  1
  La  La6  1  0.91760700  0.15273300  0.75000000  1
  La  La7  1  0.08239300  0.84726700  0.25000000  1
  La  La8  1  0.23512700  0.08239300  0.75000000  1
  La  La9  1  0.76487300  0.91760700  0.25000000  1
  La  La10  1  0.84726700  0.76487300  0.75000000  1
  La  La11  1  0.15273300  0.23512700  0.25000000  1
  La  La12  1  0.66666700  0.33333300  0.75000000  1
  La  La13  1  0.33333300  0.66666700  0.25000000  1
  Br  Br0  1  0.56125900  0.62140600  0.75000000  1
  Br  Br1  1  0.43874100  0.37859400  0.25000000  1
  Br  Br2  1  0.06014700  0.43874100  0.75000000  1
  Br  Br3  1  0.93985300  0.56125900  0.25000000  1
  Br  Br4  1  0.37859400  0.93985300  0.75000000  1
  Br  Br5  1  0.62140600  0.06014700  0.25000000  1
  O  O0  1  0.83313200  0.35870300  0.75000000  1
  O  O1  1  0.16686800  0.64129700  0.25000000  1
  O  O2  1  0.52557000  0.16686800  0.75000000  1
  O  O3  1  0.47443000  0.83313200  0.25000000  1
  O  O4  1  0.64129700  0.47443000  0.75000000  1
  O  O5  1  0.35870300  0.52557000  0.25000000  1
  O  O6  1  0.70999800  0.95236500  0.75000000  1
  O  O7  1  0.29000200  0.04763500  0.25000000  1
  O  O8  1  0.24236700  0.29000200  0.75000000  1
  O  O9  1  0.75763300  0.70999800  0.25000000  1
  O  O10  1  0.04763500  0.75763300  0.75000000  1
  O  O11  1  0.95236500  0.24236700  0.25000000  1
  O  O12  1  0.85569100  0.97635300  0.75000000  1
  O  O13  1  0.14430900  0.02364700  0.25000000  1
  O  O14  1  0.12066200  0.14430900  0.75000000  1
  O  O15  1  0.87933800  0.85569100  0.25000000  1
  O  O16  1  0.02364700  0.87933800  0.75000000  1
  O  O17  1  0.97635300  0.12066200  0.25000000  1
  O  O18  1  0.82380300  0.26142700  0.75000000  1
  O  O19  1  0.17619700  0.73857300  0.25000000  1
  O  O20  1  0.43762400  0.17619700  0.75000000  1
  O  O21  1  0.56237600  0.82380300  0.25000000  1
  O  O22  1  0.73857300  0.56237600  0.75000000  1
  O  O23  1  0.26142700  0.43762400  0.25000000  1
  O  O24  1  0.72770100  0.82460100  0.75000000  1
  O  O25  1  0.27229900  0.17539900  0.25000000  1
  O  O26  1  0.09690100  0.27229900  0.75000000  1
  O  O27  1  0.90309900  0.72770100  0.25000000  1
  O  O28  1  0.17539900  0.90309900  0.75000000  1
  O  O29  1  0.82460100  0.09690100  0.25000000  1
  O  O30  1  0.42650800  0.69588300  0.75000000  1
  O  O31  1  0.57349200  0.30411700  0.25000000  1
  O  O32  1  0.26937500  0.57349200  0.75000000  1
  O  O33  1  0.73062500  0.42650800  0.25000000  1
  O  O34  1  0.30411700  0.73062500  0.75000000  1
  O  O35  1  0.69588300  0.26937500  0.25000000  1
loop_
_geom_bond_atom_site_label_1
_geom_bond_atom_site_label_2
_geom_bond_distance
_geom_bond_site_symmetry_2
La0 O3 2.392883 1_556
La0 O3 2.392883 1_555
La0 O6 2.420524 1_555
La0 O21 2.494686 1_555
La0 O21 2.494686 1_556
La0 O30 2.509406 1_555
La1 O2 2.392883 1_555
La1 O2 2.392883 1_554
La1 O7 2.420524 1_555
La1 O20 2.494686 1_555
La1 O20 2.494686 1_554
La1 O31 2.509406 1_555
La2 O5 2.392882 1_556
La2 O5 2.392882 1_555
La2 O8 2.420524 1_555
La2 O23 2.494686 1_556
La2 O23 2.494686 1_555
La2 O32 2.509406 1_555
La3 O4 2.392882 1_554
La3 O4 2.392882 1_555
La3 O9 2.420524 1_555
La3 O22 2.494686 1_555
La3 O22 2.494686 1_554
La3 O33 2.509406 1_555
La4 O1 2.392887 1_555
La4 O1 2.392887 1_556
La4 O10 2.420524 1_555
La4 O19 2.494686 1_556
La4 O19 2.494686 1_555
La4 O34 2.509406 1_555
La5 O0 2.392887 1_554
La5 O0 2.392887 1_555
La5 O11 2.420524 1_555
La5 O18 2.494686 1_555
La5 O18 2.494686 1_554
La5 O35 2.509406 1_555
La6 O12 2.473249 1_545
La6 O26 2.523301 1_655
La6 O11 2.556850 1_556
La6 O11 2.556850 1_555
La6 O17 2.568615 1_555
La6 O17 2.568615 1_556
La6 O29 2.579049 1_555
La6 O29 2.579049 1_556
La6 O18 2.800908 1_555
La7 O13 2.473249 1_565
La7 O27 2.523301 1_455
La7 O10 2.556850 1_554
La7 O10 2.556850 1_555
La7 O16 2.568615 1_555
La7 O16 2.568615 1_554
La7 O28 2.579049 1_555
La7 O28 2.579049 1_554
La7 O19 2.800908 1_555
La8 O14 2.473264 1_555
La8 O28 2.523301 1_545
La8 O7 2.556843 1_556
La8 O7 2.556843 1_555
La8 O13 2.568621 1_555
La8 O13 2.568621 1_556
La8 O25 2.579051 1_555
La8 O25 2.579051 1_556
La8 O20 2.800894 1_555
La9 O15 2.473264 1_555
La9 O29 2.523301 1_565
La9 O6 2.556843 1_555
La9 O6 2.556843 1_554
La9 O12 2.568621 1_555
La9 O12 2.568621 1_554
La9 O24 2.579051 1_555
La9 O24 2.579051 1_554
La9 O21 2.800894 1_555
La10 O16 2.473252 1_655
La10 O24 2.523301 1_555
La10 O9 2.556849 1_555
La10 O9 2.556849 1_556
La10 O15 2.568623 1_555
La10 O15 2.568623 1_556
La10 O27 2.579036 1_556
La10 O27 2.579036 1_555
La10 O22 2.800895 1_555
La11 O17 2.473252 1_455
La11 O25 2.523301 1_555
La11 O8 2.556849 1_554
La11 O8 2.556849 1_555
La11 O14 2.568623 1_555
La11 O14 2.568623 1_554
La11 O26 2.579036 1_554
La11 O26 2.579036 1_555
La11 O23 2.800895 1_555
La12 O0 2.478816 1_555
La12 O2 2.478828 1_555
La12 O4 2.478848 1_555
La12 O35 2.590780 1_555
La12 O35 2.590780 1_556
La12 O33 2.590786 1_555
La12 O33 2.590786 1_556
La12 O31 2.590788 1_556
La12 O31 2.590788 1_555
La13 O1 2.478816 1_555
La13 O3 2.478828 1_555
La13 O5 2.478848 1_555
La13 O34 2.590780 1_555
La13 O34 2.590780 1_554
La13 O32 2.590786 1_555
La13 O32 2.590786 1_554
La13 O30 2.590788 1_555
La13 O30 2.590788 1_554
Br0 La2 3.134838 1_555
Br0 La3 3.383642 1_555
Br0 La3 3.383642 1_556
Br1 La3 3.134838 1_555
Br1 La2 3.383642 1_554
Br1 La2 3.383642 1_555
Br2 La4 3.134838 1_555
Br2 La5 3.383642 1_455
Br2 La5 3.383642 1_456
Br3 La5 3.134838 1_555
Br3 La4 3.383642 1_655
Br3 La4 3.383642 1_654
Br4 La0 3.134838 1_555
Br4 La1 3.383642 1_565
Br4 La1 3.383642 1_566
Br5 La1 3.134838 1_555
Br5 La0 3.383642 1_544
Br5 La0 3.383642 1_545
O0 O18 1.483432 1_555
O1 O19 1.483432 1_555
O2 O20 1.483416 1_555
O21 O3 1.483416 1_555
O22 O4 1.483426 1_555
O23 O5 1.483426 1_555
