# generated using pymatgen
data_LuH9C5(NO4)2
_symmetry_space_group_name_H-M   'P 1'
_cell_length_a   6.53715116
_cell_length_b   6.64745531
_cell_length_c   6.64745531
_cell_angle_alpha   114.29045552
_cell_angle_beta   105.64060797
_cell_angle_gamma   74.35939203
_symmetry_Int_Tables_number   1
_chemical_formula_structural   LuH9C5(NO4)2
_chemical_formula_sum   'Lu1 H9 C5 N2 O8'
_cell_volume   249.36686794
_cell_formula_units_Z   1
loop_
 _symmetry_equiv_pos_site_id
 _symmetry_equiv_pos_as_xyz
  1  'x, y, z'
loop_
 _atom_site_type_symbol
 _atom_site_label
 _atom_site_symmetry_multiplicity
 _atom_site_fract_x
 _atom_site_fract_y
 _atom_site_fract_z
 _atom_site_occupancy
  Lu  Lu0  1  0.00000000  0.81733800  0.81733800  1
  H  H0  1  0.41416200  0.45669600  0.01082800  1
  H  H1  1  0.58583800  0.01082800  0.45669600  1
  H  H2  1  0.53604200  0.55459100  0.30014200  1
  H  H3  1  0.46395800  0.30014200  0.55459100  1
  H  H4  1  0.82283300  0.27559000  0.26198000  1
  H  H5  1  0.17716700  0.26198000  0.27559000  1
  H  H6  1  0.87331700  0.28614400  0.65761400  1
  H  H7  1  0.12668300  0.65761400  0.28614400  1
  H  H8  1  0.50000000  0.90376800  0.90376800  1
  C  C0  1  0.70894700  0.27934800  0.10689000  1
  C  C1  1  0.29105300  0.10689000  0.27934800  1
  C  C2  1  0.03570800  0.29107000  0.76496300  1
  C  C3  1  0.96429200  0.76496300  0.29107000  1
  C  C4  1  0.50000000  0.75148100  0.75148100  1
  N  N0  1  0.54069900  0.44473600  0.13923400  1
  N  N1  1  0.45930100  0.13923400  0.44473600  1
  O  O0  1  0.74216900  0.13528600  0.91866200  1
  O  O1  1  0.25783100  0.91866200  0.13528600  1
  O  O2  1  0.32928600  0.66588200  0.67258400  1
  O  O3  1  0.67071400  0.67258400  0.66588200  1
  O  O4  1  0.11786200  0.46288300  0.81156900  1
  O  O5  1  0.88213800  0.81156900  0.46288300  1
  O  O6  1  0.12644700  0.13177000  0.83215000  1
  O  O7  1  0.87355300  0.83215000  0.13177000  1
loop_
_geom_bond_atom_site_label_1
_geom_bond_atom_site_label_2
_geom_bond_distance
_geom_bond_site_symmetry_2
Lu0 O4 2.260444 1_555
Lu0 O5 2.260444 1_455
Lu0 O1 2.298190 1_556
Lu0 O0 2.298190 1_465
Lu0 O2 2.392584 1_555
Lu0 O3 2.392584 1_455
Lu0 O6 2.404203 1_565
Lu0 O7 2.404203 1_456
H0 N0 1.028985 1_555
H1 N1 1.028985 1_555
H2 N0 1.020414 1_555
H3 N1 1.020414 1_555
C0 H4 1.102296 1_555
C0 O0 1.256345 1_554
C0 N0 1.321232 1_555
C1 H5 1.102296 1_555
C1 O1 1.256345 1_545
C1 N1 1.321232 1_555
C2 H6 1.108281 1_455
C2 O6 1.257077 1_555
C2 O4 1.280138 1_555
C3 H7 1.108281 1_655
C3 O7 1.257077 1_555
C3 O5 1.280138 1_555
C4 H8 1.098392 1_555
C4 O3 1.274968 1_555
C4 O2 1.274968 1_555
