# generated using pymatgen
data_CrP2O7
_symmetry_space_group_name_H-M   'P 1'
_cell_length_a   6.14597600
_cell_length_b   6.57704754
_cell_length_c   7.28100159
_cell_angle_alpha   90.68122298
_cell_angle_beta   96.45962655
_cell_angle_gamma   111.05617500
_symmetry_Int_Tables_number   1
_chemical_formula_structural   CrP2O7
_chemical_formula_sum   'Cr2 P4 O14'
_cell_volume   272.48522431
_cell_formula_units_Z   2
loop_
 _symmetry_equiv_pos_site_id
 _symmetry_equiv_pos_as_xyz
  1  'x, y, z'
loop_
 _atom_site_type_symbol
 _atom_site_label
 _atom_site_symmetry_multiplicity
 _atom_site_fract_x
 _atom_site_fract_y
 _atom_site_fract_z
 _atom_site_occupancy
  Cr  Cr0  1  0.88184600  0.26053300  0.20868900  1
  Cr  Cr1  1  0.11815400  0.73946700  0.79131100  1
  P  P0  1  0.32225900  0.13567700  0.11790300  1
  P  P1  1  0.67774100  0.86432300  0.88209700  1
  P  P2  1  0.77785600  0.25784500  0.61934500  1
  P  P3  1  0.22214400  0.74215500  0.38065500  1
  O  O0  1  0.24103000  0.02924000  0.92310400  1
  O  O1  1  0.75897000  0.97076000  0.07689600  1
  O  O2  1  0.18828300  0.28300200  0.16561600  1
  O  O3  1  0.81171700  0.71699800  0.83438400  1
  O  O4  1  0.58524900  0.28437500  0.14272800  1
  O  O5  1  0.41475100  0.71562500  0.85727200  1
  O  O6  1  0.43111400  0.68208700  0.43528300  1
  O  O7  1  0.56888600  0.31791300  0.56471700  1
  O  O8  1  0.85896800  0.17131200  0.44558100  1
  O  O9  1  0.14103200  0.82868800  0.55441900  1
  O  O10  1  0.71186800  0.04572000  0.73774900  1
  O  O11  1  0.00678000  0.57398800  0.26452000  1
  O  O12  1  0.99322000  0.42601200  0.73548000  1
  O  O13  1  0.28813200  0.95428000  0.26225100  1
loop_
_geom_bond_atom_site_label_1
_geom_bond_atom_site_label_2
_geom_bond_distance
_geom_bond_site_symmetry_2
Cr0 O8 1.832604 1_555
Cr0 O4 1.894289 1_555
Cr0 O2 1.897690 1_655
Cr0 O11 1.943557 1_655
Cr0 O1 1.970437 1_545
Cr1 O9 1.832604 1_555
Cr1 O5 1.894289 1_555
Cr1 O3 1.897690 1_455
Cr1 O12 1.943557 1_455
Cr1 O0 1.970437 1_565
O0 P0 1.522136 1_556
O1 P1 1.522136 1_554
O2 P0 1.538590 1_555
O3 P1 1.538590 1_555
O4 P0 1.547852 1_555
O5 P1 1.547852 1_555
O6 P3 1.489015 1_555
O7 P2 1.489015 1_555
O8 P2 1.581695 1_555
O9 P3 1.581695 1_555
O10 P1 1.572126 1_545
O10 P2 1.598389 1_555
O11 P3 1.537618 1_555
O12 P2 1.537618 1_555
O13 P0 1.572126 1_565
O13 P3 1.598389 1_555
