# generated using pymatgen
data_Mg15Sn
_symmetry_space_group_name_H-M   'P 1'
_cell_length_a   6.33862680
_cell_length_b   6.33862680
_cell_length_c   10.32751509
_cell_angle_alpha   90.00000000
_cell_angle_beta   90.00000000
_cell_angle_gamma   120.00000589
_symmetry_Int_Tables_number   1
_chemical_formula_structural   Mg15Sn
_chemical_formula_sum   'Mg15 Sn1'
_cell_volume   359.34930540
_cell_formula_units_Z   1
loop_
 _symmetry_equiv_pos_site_id
 _symmetry_equiv_pos_as_xyz
  1  'x, y, z'
loop_
 _atom_site_type_symbol
 _atom_site_label
 _atom_site_symmetry_multiplicity
 _atom_site_fract_x
 _atom_site_fract_y
 _atom_site_fract_z
 _atom_site_occupancy
  Mg  Mg0  1  0.00000000  0.00000000  0.00000000  1
  Mg  Mg1  1  0.99890999  0.49945499  0.50000000  1
  Mg  Mg2  1  0.00036599  0.50018250  0.00000000  1
  Mg  Mg3  1  0.50054501  0.49945499  0.50000000  1
  Mg  Mg4  1  0.49981750  0.50018250  0.00000000  1
  Mg  Mg5  1  0.50054501  0.00109001  0.50000000  1
  Mg  Mg6  1  0.49981750  0.99963401  -0.00000000  1
  Mg  Mg7  1  0.16711384  0.33422868  0.25007444  1
  Mg  Mg8  1  0.16711384  0.33422868  0.74992556  1
  Mg  Mg9  1  0.16711384  0.83288616  0.25007444  1
  Mg  Mg10  1  0.16711384  0.83288616  0.74992556  1
  Mg  Mg11  1  0.66577132  0.83288616  0.25007444  1
  Mg  Mg12  1  0.66577132  0.83288616  0.74992556  1
  Mg  Mg13  1  0.66666700  0.33333300  0.24981333  1
  Mg  Mg14  1  0.66666700  0.33333300  0.75018667  1
  Sn  Sn0  1  0.00000000  0.00000000  0.50000000  1
loop_
_geom_bond_atom_site_label_1
_geom_bond_atom_site_label_2
_geom_bond_distance
_geom_bond_site_symmetry_2
Mg0 Mg10 3.168003 1_544
Mg0 Mg9 3.168003 1_545
Mg0 Mg11 3.168006 1_445
Mg0 Mg12 3.168006 1_444
Mg0 Mg8 3.168006 1_554
Mg0 Mg7 3.168006 1_555
Mg0 Mg2 3.169311 1_555
Mg0 Mg6 3.169311 1_445
Mg0 Mg4 3.169314 1_555
Mg0 Mg4 3.169314 1_445
Mg0 Mg6 3.169317 1_545
Mg0 Mg2 3.169317 1_545
Mg1 Mg5 3.158949 1_555
Mg1 Mg3 3.158950 1_555
Mg1 Mg13 3.162652 1_555
Mg1 Mg14 3.162652 1_555
Mg1 Mg8 3.164229 1_655
Mg1 Mg7 3.164229 1_655
Mg1 Mg9 3.164232 1_655
Mg1 Mg10 3.164232 1_655
Mg1 Sn0 3.169319 1_655
Mg1 Sn0 3.169319 1_665
Mg1 Mg5 3.179677 1_665
Mg1 Mg3 3.179677 1_655
Mg2 Mg8 3.163160 1_554
Mg2 Mg7 3.163160 1_555
Mg2 Mg9 3.163166 1_555
Mg2 Mg6 3.165836 1_555
Mg2 Mg4 3.165837 1_555
Mg2 Mg6 3.172790 1_445
Mg2 Mg4 3.172790 1_455
Mg3 Mg5 3.158950 1_555
Mg3 Mg7 3.164232 1_555
Mg3 Mg8 3.164232 1_555
Mg3 Sn0 3.169319 1_665
Mg3 Sn0 3.169319 1_555
Mg3 Mg5 3.179677 1_565
Mg4 Mg8 3.163166 1_554
Mg4 Mg7 3.163166 1_555
Mg4 Mg6 3.165837 1_555
Mg4 Mg6 3.172790 1_545
Mg5 Mg9 3.164232 1_545
Mg5 Sn0 3.169319 1_655
Mg5 Sn0 3.169319 1_555
Mg6 Mg9 3.163166 1_555
Mg7 Mg9 3.160804 1_555
Mg7 Sn0 3.166753 1_555
Mg7 Mg9 3.177823 1_545
Mg8 Sn0 3.166753 1_555
Mg9 Sn0 3.166749 1_565
Mg10 Mg12 3.160804 1_555
Mg10 Mg8 3.160804 1_555
Mg10 Mg6 3.163166 1_556
Mg10 Mg2 3.163166 1_556
Mg10 Mg5 3.164232 1_565
Mg10 Sn0 3.166749 1_565
Mg10 Mg14 3.169318 1_565
Mg10 Mg14 3.169318 1_455
Mg10 Mg12 3.177823 1_455
Mg10 Mg8 3.177823 1_565
Mg11 Mg7 3.160803 1_555
Mg11 Mg9 3.160804 1_555
Mg11 Mg6 3.163160 1_555
Mg11 Mg4 3.163166 1_555
Mg11 Mg5 3.164229 1_565
Mg11 Mg3 3.164232 1_555
Mg11 Sn0 3.166753 1_665
Mg11 Mg13 3.169312 1_565
Mg11 Mg13 3.169325 1_555
Mg11 Mg7 3.177823 1_665
Mg11 Mg9 3.177823 1_655
Mg12 Mg8 3.160803 1_555
Mg12 Mg6 3.163160 1_556
Mg12 Mg4 3.163166 1_556
Mg12 Mg5 3.164229 1_565
Mg12 Mg3 3.164232 1_555
Mg12 Sn0 3.166753 1_665
Mg12 Mg14 3.169312 1_565
Mg12 Mg14 3.169325 1_555
Mg12 Mg8 3.177823 1_665
Mg13 Mg5 3.162652 1_555
Mg13 Mg3 3.162656 1_555
Mg13 Mg2 3.164124 1_655
Mg13 Mg6 3.164124 1_545
Mg13 Mg4 3.164124 1_555
Mg13 Mg7 3.169312 1_655
Mg13 Mg9 3.169318 1_545
Mg13 Mg9 3.169318 1_655
Mg13 Mg7 3.169325 1_555
Mg14 Mg5 3.162652 1_555
Mg14 Mg3 3.162656 1_555
Mg14 Mg2 3.164124 1_656
Mg14 Mg6 3.164124 1_546
Mg14 Mg4 3.164124 1_556
Mg14 Mg8 3.169312 1_655
Mg14 Mg8 3.169325 1_555
