# generated using pymatgen
data_Ba2ZrC8O19
_symmetry_space_group_name_H-M   'P 1'
_cell_length_a   8.86767500
_cell_length_b   9.20871042
_cell_length_c   15.61472062
_cell_angle_alpha   100.31015011
_cell_angle_beta   99.30035502
_cell_angle_gamma   114.15640175
_symmetry_Int_Tables_number   1
_chemical_formula_structural   Ba2ZrC8O19
_chemical_formula_sum   'Ba4 Zr2 C16 O38'
_cell_volume   1104.78641161
_cell_formula_units_Z   2
loop_
 _symmetry_equiv_pos_site_id
 _symmetry_equiv_pos_as_xyz
  1  'x, y, z'
loop_
 _atom_site_type_symbol
 _atom_site_label
 _atom_site_symmetry_multiplicity
 _atom_site_fract_x
 _atom_site_fract_y
 _atom_site_fract_z
 _atom_site_occupancy
  Ba  Ba0  1  0.02377600  0.77468300  0.05282700  1
  Ba  Ba1  1  0.97622400  0.22531700  0.94717300  1
  Ba  Ba2  1  0.76555000  0.51606300  0.52958800  1
  Ba  Ba3  1  0.23445000  0.48393700  0.47041200  1
  Zr  Zr0  1  0.61317200  0.86515500  0.22855700  1
  Zr  Zr1  1  0.38682800  0.13484500  0.77144300  1
  C  C0  1  0.72553200  0.10075100  0.10612600  1
  C  C1  1  0.37814500  0.50502800  0.10748600  1
  C  C2  1  0.27446800  0.89924900  0.89387400  1
  C  C3  1  0.62185500  0.49497200  0.89251400  1
  C  C4  1  0.84660800  0.01773200  0.11293500  1
  C  C5  1  0.26383000  0.59532300  0.11425200  1
  C  C6  1  0.15339200  0.98226800  0.88706500  1
  C  C7  1  0.73617000  0.40467700  0.88574800  1
  C  C8  1  0.58916200  0.14656100  0.35738300  1
  C  C9  1  0.76675300  0.71074400  0.35611100  1
  C  C10  1  0.41083800  0.85343900  0.64261700  1
  C  C11  1  0.23324700  0.28925600  0.64388900  1
  C  C12  1  0.78400000  0.20070700  0.37327700  1
  C  C13  1  0.58870000  0.67380000  0.37323700  1
  C  C14  1  0.21600000  0.79929300  0.62672300  1
  C  C15  1  0.41130000  0.32620000  0.62676300  1
  O  O0  1  0.74899500  0.20420700  0.06236800  1
  O  O1  1  0.31084900  0.35778200  0.06402900  1
  O  O2  1  0.25100500  0.79579300  0.93763200  1
  O  O3  1  0.68915100  0.64221800  0.93597100  1
  O  O4  1  0.97386800  0.06398200  0.08191500  1
  O  O5  1  0.10583300  0.51745600  0.08292200  1
  O  O6  1  0.02613200  0.93601800  0.91808500  1
  O  O7  1  0.89416700  0.48254400  0.91707800  1
  O  O8  1  0.80331700  0.89879400  0.15108900  1
  O  O9  1  0.34456200  0.75253400  0.15192900  1
  O  O10  1  0.19668300  0.10120600  0.84891100  1
  O  O11  1  0.65543800  0.24746600  0.84807100  1
  O  O12  1  0.61006200  0.04653900  0.14888600  1
  O  O13  1  0.53638000  0.60228000  0.14961000  1
  O  O14  1  0.38993800  0.95346100  0.85111400  1
  O  O15  1  0.46362000  0.39772000  0.85039000  1
  O  O16  1  0.49617000  0.00540000  0.30014900  1
  O  O17  1  0.80268100  0.79597200  0.29938100  1
  O  O18  1  0.50383000  0.99460000  0.69985100  1
  O  O19  1  0.19731900  0.20402800  0.70061900  1
  O  O20  1  0.82558600  0.10147700  0.32648900  1
  O  O21  1  0.50014700  0.72680700  0.32724900  1
  O  O22  1  0.17441400  0.89852300  0.67351100  1
  O  O23  1  0.49985300  0.27319300  0.67275100  1
  O  O24  1  0.88769400  0.33578700  0.43010100  1
  O  O25  1  0.54310700  0.59582400  0.43040800  1
  O  O26  1  0.11230600  0.66421300  0.56989900  1
  O  O27  1  0.45689300  0.40417600  0.56959200  1
  O  O28  1  0.54035000  0.23958600  0.39994600  1
  O  O29  1  0.85708000  0.65821400  0.39745600  1
  O  O30  1  0.45965000  0.76041400  0.60005400  1
  O  O31  1  0.14292000  0.34178600  0.60254400  1
  O  O32  1  0.34344200  0.10613400  0.12637200  1
  O  O33  1  0.78155100  0.52404800  0.12679700  1
  O  O34  1  0.65655800  0.89386600  0.87362800  1
  O  O35  1  0.21844900  0.47595200  0.87320300  1
  O  O36  1  0.12082600  0.87895500  0.25626800  1
  O  O37  1  0.87917400  0.12104500  0.74373200  1
loop_
_geom_bond_atom_site_label_1
_geom_bond_atom_site_label_2
_geom_bond_distance
_geom_bond_site_symmetry_2
Ba0 O7 2.773455 1_454
Ba0 O6 2.782453 1_554
Ba0 O5 2.838982 1_555
Ba0 O4 2.845394 1_465
Ba0 O3 2.848375 1_454
Ba0 O2 2.882621 1_554
Ba0 O33 2.995564 1_455
Ba0 O36 3.016963 1_555
Ba0 O32 3.046661 1_565
Ba0 O8 3.106893 1_455
Ba0 O9 3.113384 1_555
Ba1 O5 2.773455 1_656
Ba1 O4 2.782453 1_556
Ba1 O7 2.838982 1_555
Ba1 O6 2.845394 1_645
Ba1 O1 2.848375 1_656
Ba1 O0 2.882621 1_556
Ba1 O35 2.995564 1_655
Ba1 O37 3.016963 1_555
Ba1 O34 3.046661 1_545
Ba1 O10 3.106893 1_655
Ba1 O11 3.113384 1_555
Ba2 O28 2.693541 1_555
Ba2 O29 2.695845 1_555
Ba2 O26 2.710377 1_655
Ba2 O27 2.723636 1_555
Ba2 O25 2.726612 1_555
Ba2 O24 2.726681 1_555
Ba3 O30 2.693541 1_555
Ba3 O31 2.695845 1_555
Ba3 O24 2.710377 1_455
Ba3 O25 2.723636 1_555
Ba3 O27 2.726612 1_555
Ba3 O26 2.726681 1_555
C0 O0 1.238750 1_555
C0 O12 1.290510 1_555
C1 O1 1.238004 1_555
C1 O13 1.290701 1_555
C2 O2 1.238750 1_555
C2 O14 1.290510 1_555
C3 O3 1.238004 1_555
C3 O15 1.290701 1_555
C4 O4 1.243648 1_555
C4 O8 1.290456 1_545
C5 O5 1.243832 1_555
C5 O9 1.290437 1_555
C6 O6 1.243648 1_555
C6 O10 1.290456 1_565
C7 O7 1.243832 1_555
C7 O11 1.290437 1_555
C8 O28 1.247223 1_555
C8 O16 1.279485 1_555
C9 O29 1.246652 1_555
C9 O17 1.279682 1_555
C10 O30 1.247223 1_555
C10 O18 1.279485 1_555
C11 O31 1.246652 1_555
C11 O19 1.279682 1_555
C12 O24 1.259040 1_555
C12 O20 1.276186 1_555
C13 O25 1.258770 1_555
C13 O21 1.275728 1_555
C14 O26 1.259040 1_555
C14 O22 1.276186 1_555
C15 O27 1.258770 1_555
C15 O23 1.275728 1_555
O8 Zr0 2.183610 1_555
O9 Zr0 2.189448 1_555
O10 Zr1 2.183610 1_555
O11 Zr1 2.189448 1_555
O12 Zr0 2.260256 1_545
O13 Zr0 2.270385 1_555
O14 Zr1 2.260256 1_565
O15 Zr1 2.270385 1_555
O16 Zr0 2.224603 1_545
O17 Zr0 2.231759 1_555
O18 Zr1 2.224603 1_565
O19 Zr1 2.231759 1_555
O20 Zr0 2.268291 1_545
O21 Zr0 2.271426 1_555
O22 Zr1 2.268291 1_565
O23 Zr1 2.271426 1_555
