# generated using pymatgen
data_Na2U2MnH8(C3O7)4
_symmetry_space_group_name_H-M   'P 1'
_cell_length_a   6.52671886
_cell_length_b   7.94494313
_cell_length_c   12.93498950
_cell_angle_alpha   75.39951522
_cell_angle_beta   84.68015568
_cell_angle_gamma   68.39486836
_symmetry_Int_Tables_number   1
_chemical_formula_structural   Na2U2MnH8(C3O7)4
_chemical_formula_sum   'Na2 U2 Mn1 H8 C12 O28'
_cell_volume   603.47437316
_cell_formula_units_Z   1
loop_
 _symmetry_equiv_pos_site_id
 _symmetry_equiv_pos_as_xyz
  1  'x, y, z'
loop_
 _atom_site_type_symbol
 _atom_site_label
 _atom_site_symmetry_multiplicity
 _atom_site_fract_x
 _atom_site_fract_y
 _atom_site_fract_z
 _atom_site_occupancy
  Na  Na0  1  0.74542100  0.83863600  0.79115600  1
  Na  Na1  1  0.25457900  0.16136400  0.20884400  1
  U  U0  1  0.76464700  0.33814800  0.80523200  1
  U  U1  1  0.23535300  0.66185200  0.19476800  1
  Mn  Mn0  1  0.50000000  0.00000000  0.50000000  1
  H  H0  1  0.92836100  0.85273600  0.57804300  1
  H  H1  1  0.07163900  0.14726400  0.42195700  1
  H  H2  1  0.82423300  0.05551400  0.60328800  1
  H  H3  1  0.17576700  0.94448600  0.39671200  1
  H  H4  1  0.74080600  0.98730900  0.30688400  1
  H  H5  1  0.25919400  0.01269100  0.69311600  1
  H  H6  1  0.66231500  0.19843400  0.31807300  1
  H  H7  1  0.33768500  0.80156600  0.68192700  1
  C  C0  1  0.30912400  0.25239000  0.77621200  1
  C  C1  1  0.69087600  0.74761000  0.22378800  1
  C  C2  1  0.21671400  0.45659100  0.78170200  1
  C  C3  1  0.78328600  0.54340900  0.21829800  1
  C  C4  1  0.80317400  0.38367800  0.54509000  1
  C  C5  1  0.19682600  0.61632200  0.45491000  1
  C  C6  1  0.70062300  0.58513000  0.56132800  1
  C  C7  1  0.29937700  0.41487000  0.43867200  1
  C  C8  1  0.52525400  0.58908800  0.97891300  1
  C  C9  1  0.47474600  0.41091200  0.02108700  1
  C  C10  1  0.97383500  0.93291000  0.97481700  1
  C  C11  1  0.02616500  0.06709000  0.02518300  1
  O  O0  1  0.16971400  0.17773600  0.77000800  1
  O  O1  1  0.83028600  0.82226400  0.22999200  1
  O  O2  1  0.00995200  0.52880400  0.79077300  1
  O  O3  1  0.99004800  0.47119600  0.20922700  1
  O  O4  1  0.35440800  0.53669500  0.77562500  1
  O  O5  1  0.64559200  0.46330500  0.22437500  1
  O  O6  1  0.51601400  0.17268200  0.77635700  1
  O  O7  1  0.48398600  0.82731800  0.22364300  1
  O  O8  1  0.82428400  0.25900300  0.63452000  1
  O  O9  1  0.17571600  0.74099700  0.36548000  1
  O  O10  1  0.68879600  0.59325400  0.65943700  1
  O  O11  1  0.31120400  0.40674600  0.34056300  1
  O  O12  1  0.63656900  0.72316900  0.48354200  1
  O  O13  1  0.36343100  0.27683100  0.51645800  1
  O  O14  1  0.85698200  0.35217300  0.45533800  1
  O  O15  1  0.14301800  0.64782700  0.54466200  1
  O  O16  1  0.63488600  0.59901900  0.89260900  1
  O  O17  1  0.36511400  0.40098100  0.10739100  1
  O  O18  1  0.45635600  0.71185200  0.03215100  1
  O  O19  1  0.54364400  0.28814800  0.96784900  1
  O  O20  1  0.88613600  0.00121000  0.88231400  1
  O  O21  1  0.11386400  0.99879000  0.11768600  1
  O  O22  1  0.01959500  0.76735900  0.02774800  1
  O  O23  1  0.98040500  0.23264100  0.97225200  1
  O  O24  1  0.79146600  0.94441700  0.59956800  1
  O  O25  1  0.20853400  0.05558300  0.40043200  1
  O  O26  1  0.67971000  0.07075000  0.35674200  1
  O  O27  1  0.32029000  0.92925000  0.64325800  1
loop_
_geom_bond_atom_site_label_1
_geom_bond_atom_site_label_2
_geom_bond_distance
_geom_bond_site_symmetry_2
Na0 O16 2.333057 1_555
Na0 O20 2.396741 1_565
Na0 O2 2.432109 1_655
Na0 O24 2.436375 1_555
Na0 O6 2.488527 1_565
Na1 O17 2.333057 1_555
Na1 O21 2.396741 1_545
Na1 O3 2.432109 1_455
Na1 O25 2.436375 1_555
Na1 O7 2.488527 1_545
Mn0 O13 2.105797 1_555
Mn0 O12 2.105797 1_545
Mn0 O26 2.163982 1_555
Mn0 O27 2.163982 1_545
Mn0 O24 2.240863 1_545
Mn0 O25 2.240863 1_555
H0 O24 0.991583 1_555
H1 O25 0.991583 1_555
H2 O24 0.994721 1_545
H3 O25 0.994721 1_565
H4 O26 0.993774 1_565
H5 O27 0.993774 1_545
H6 O26 0.980851 1_555
H7 O27 0.980851 1_555
C0 O6 1.262748 1_555
C0 O0 1.273222 1_555
C1 O7 1.262748 1_555
C1 O1 1.273222 1_555
C2 O2 1.264294 1_555
C2 O4 1.265593 1_555
C3 O3 1.264294 1_555
C3 O5 1.265593 1_555
C4 O14 1.240942 1_555
C4 O8 1.299866 1_555
C5 O15 1.240942 1_555
C5 O9 1.299866 1_555
C6 O12 1.254572 1_555
C6 O10 1.280643 1_555
C7 O13 1.254572 1_555
C7 O11 1.280643 1_555
C8 O18 1.259345 1_556
C8 O16 1.270231 1_555
C9 O19 1.259345 1_554
C9 O17 1.270231 1_555
C10 O22 1.258007 1_656
C10 O20 1.274631 1_565
C11 O23 1.258007 1_454
C11 O21 1.274631 1_545
O0 U0 2.531686 1_455
O1 U1 2.531686 1_655
O2 U0 2.545653 1_455
O3 U1 2.545653 1_655
O4 U0 2.565016 1_555
O5 U1 2.565016 1_555
O6 U0 2.536138 1_555
O7 U1 2.536138 1_555
O8 U0 2.404841 1_555
O9 U1 2.404841 1_555
O10 U0 2.327373 1_555
O11 U1 2.327373 1_555
O16 U0 2.449735 1_555
O17 U1 2.449735 1_555
O18 U1 2.470016 1_555
O19 U0 2.470016 1_555
O20 U0 2.454948 1_555
O21 U1 2.454948 1_555
O22 U1 2.476864 1_555
O23 U0 2.476864 1_555
