# generated using pymatgen
data_K2S2O5
_symmetry_space_group_name_H-M   'P 1'
_cell_length_a   6.60300600
_cell_length_b   6.99911861
_cell_length_c   9.09700495
_cell_angle_alpha   64.54528487
_cell_angle_beta   90.00000000
_cell_angle_gamma   90.00000000
_symmetry_Int_Tables_number   1
_chemical_formula_structural   K2S2O5
_chemical_formula_sum   'K4 S4 O10'
_cell_volume   379.60793458
_cell_formula_units_Z   2
loop_
 _symmetry_equiv_pos_site_id
 _symmetry_equiv_pos_as_xyz
  1  'x, y, z'
loop_
 _atom_site_type_symbol
 _atom_site_label
 _atom_site_symmetry_multiplicity
 _atom_site_fract_x
 _atom_site_fract_y
 _atom_site_fract_z
 _atom_site_occupancy
  K  K0  1  0.75000000  0.71355100  0.00890400  1
  K  K1  1  0.75000000  0.27751000  0.48490300  1
  K  K2  1  0.25000000  0.72249000  0.51509700  1
  K  K3  1  0.25000000  0.28644900  0.99109600  1
  S  S0  1  0.75000000  0.14086500  0.17372300  1
  S  S1  1  0.25000000  0.85913500  0.82627700  1
  S  S2  1  0.25000000  0.20590800  0.63302600  1
  S  S3  1  0.75000000  0.79409200  0.36697400  1
  O  O0  1  0.06412900  0.76816600  0.78639200  1
  O  O1  1  0.93645800  0.70548900  0.32354700  1
  O  O2  1  0.56354200  0.70548900  0.32354700  1
  O  O3  1  0.25000000  0.84161700  0.99381500  1
  O  O4  1  0.56412900  0.23183400  0.21360800  1
  O  O5  1  0.75000000  0.15838300  0.00618500  1
  O  O6  1  0.43645800  0.29451100  0.67645300  1
  O  O7  1  0.06354200  0.29451100  0.67645300  1
  O  O8  1  0.43587100  0.76816600  0.78639200  1
  O  O9  1  0.93587100  0.23183400  0.21360800  1
loop_
_geom_bond_atom_site_label_1
_geom_bond_atom_site_label_2
_geom_bond_distance
_geom_bond_site_symmetry_2
K0 O8 2.807248 1_554
K0 O0 2.807248 1_654
K0 O2 3.094022 1_555
K0 O1 3.094022 1_555
K0 O5 3.102881 1_565
K0 O9 3.308274 1_555
K0 O4 3.308274 1_555
K1 O6 2.741356 1_555
K1 O7 2.741356 1_655
K1 O9 2.894406 1_555
K1 O4 2.894406 1_555
K1 O2 2.977199 1_555
K1 O1 2.977199 1_555
K2 O1 2.741356 1_455
K2 O2 2.741356 1_555
K2 O8 2.894406 1_555
K2 O0 2.894406 1_555
K2 O7 2.977199 1_555
K2 O6 2.977199 1_555
K3 O4 2.807248 1_556
K3 O9 2.807248 1_456
K3 O6 3.094022 1_555
K3 O7 3.094022 1_555
K3 O3 3.102881 1_545
K3 O0 3.308274 1_555
K3 O8 3.308274 1_555
O0 S1 1.497299 1_555
O1 S3 1.505673 1_555
O2 S3 1.505673 1_555
O3 S1 1.475555 1_555
O4 S0 1.497299 1_555
O5 S0 1.475555 1_555
O6 S2 1.505673 1_555
O7 S2 1.505673 1_555
O8 S1 1.497299 1_555
O9 S0 1.497299 1_555
