# generated using pymatgen
data_K2BeSi4O13
_symmetry_space_group_name_H-M   'P 1'
_cell_length_a   7.86533179
_cell_length_b   7.86533179
_cell_length_c   9.96264900
_cell_angle_alpha   90.00000000
_cell_angle_beta   90.00000000
_cell_angle_gamma   103.46002090
_symmetry_Int_Tables_number   1
_chemical_formula_structural   K2BeSi4O13
_chemical_formula_sum   'K4 Be2 Si8 O26'
_cell_volume   599.39495244
_cell_formula_units_Z   2
loop_
 _symmetry_equiv_pos_site_id
 _symmetry_equiv_pos_as_xyz
  1  'x, y, z'
loop_
 _atom_site_type_symbol
 _atom_site_label
 _atom_site_symmetry_multiplicity
 _atom_site_fract_x
 _atom_site_fract_y
 _atom_site_fract_z
 _atom_site_occupancy
  K  K0  1  0.70758000  0.29242000  0.25000000  1
  K  K1  1  0.29242000  0.70758000  0.75000000  1
  K  K2  1  0.13960200  0.13960200  0.00000000  1
  K  K3  1  0.86039800  0.86039800  0.50000000  1
  Be  Be0  1  0.72606500  0.72606500  0.00000000  1
  Be  Be1  1  0.27393500  0.27393500  0.50000000  1
  Si  Si0  1  0.45058600  0.86394200  0.12175700  1
  Si  Si1  1  0.86394200  0.45058600  0.87824300  1
  Si  Si2  1  0.54941400  0.13605800  0.62175700  1
  Si  Si3  1  0.13605800  0.54941400  0.37824300  1
  Si  Si4  1  0.66762300  0.06113600  0.90696200  1
  Si  Si5  1  0.06113600  0.66762300  0.09303800  1
  Si  Si6  1  0.33237700  0.93886400  0.40696200  1
  Si  Si7  1  0.93886400  0.33237700  0.59303800  1
  O  O0  1  0.75494600  0.89593500  0.89722900  1
  O  O1  1  0.89593500  0.75494600  0.10277100  1
  O  O2  1  0.24505400  0.10406500  0.39722900  1
  O  O3  1  0.10406500  0.24505400  0.60277100  1
  O  O4  1  0.54801400  0.71191700  0.08738500  1
  O  O5  1  0.71191700  0.54801400  0.91261500  1
  O  O6  1  0.45198600  0.28808300  0.58738500  1
  O  O7  1  0.28808300  0.45198600  0.41261500  1
  O  O8  1  0.81827600  0.24338900  0.92541400  1
  O  O9  1  0.24338900  0.81827600  0.07458600  1
  O  O10  1  0.18172400  0.75661100  0.42541400  1
  O  O11  1  0.75661100  0.18172400  0.57458600  1
  O  O12  1  0.45980900  0.92417800  0.27955500  1
  O  O13  1  0.92417800  0.45980900  0.72044500  1
  O  O14  1  0.54019100  0.07582200  0.77955500  1
  O  O15  1  0.07582200  0.54019100  0.22044500  1
  O  O16  1  0.53905300  0.04687300  0.04010000  1
  O  O17  1  0.04687300  0.53905300  0.95990000  1
  O  O18  1  0.46094700  0.95312700  0.54010000  1
  O  O19  1  0.95312700  0.46094700  0.45990000  1
  O  O20  1  0.94757600  0.05242400  0.25000000  1
  O  O21  1  0.05242400  0.94757600  0.75000000  1
  O  O22  1  0.40160300  0.36029200  0.16117600  1
  O  O23  1  0.36029200  0.40160300  0.83882400  1
  O  O24  1  0.59839700  0.63970800  0.66117600  1
  O  O25  1  0.63970800  0.59839700  0.33882400  1
loop_
_geom_bond_atom_site_label_1
_geom_bond_atom_site_label_2
_geom_bond_distance
_geom_bond_site_symmetry_2
K0 O25 2.730921 1_555
K0 O22 2.730921 1_555
K0 O19 2.944172 1_555
K0 O16 2.944172 1_555
K0 O20 2.963989 1_555
K0 O12 3.105750 1_545
K0 O15 3.105750 1_655
K1 O24 2.730921 1_555
K1 O23 2.730921 1_555
K1 O17 2.944172 1_555
K1 O18 2.944172 1_555
K1 O21 2.963989 1_555
K1 O13 3.105750 1_455
K1 O14 3.105750 1_565
K2 O22 2.858806 1_555
K2 O23 2.858806 1_554
K2 O21 2.910772 1_544
K2 O20 2.910772 1_455
K2 O9 2.926843 1_545
K2 O8 2.926843 1_454
K3 O24 2.858806 1_555
K3 O25 2.858806 1_555
K3 O21 2.910772 1_655
K3 O20 2.910772 1_565
K3 O10 2.926843 1_655
K3 O11 2.926843 1_565
Be0 O4 1.630632 1_555
Be0 O5 1.630632 1_554
Be0 O0 1.656425 1_554
Be0 O1 1.656425 1_555
Be1 O7 1.630632 1_555
Be1 O6 1.630632 1_555
Be1 O3 1.656425 1_555
Be1 O2 1.656425 1_555
O0 Si4 1.607770 1_565
O1 Si5 1.607770 1_655
O2 Si6 1.607770 1_545
O3 Si7 1.607770 1_455
O4 Si0 1.600253 1_555
O5 Si1 1.600253 1_555
O6 Si2 1.600253 1_555
O7 Si3 1.600253 1_555
O8 Si4 1.643772 1_555
O8 Si1 1.653239 1_555
O9 Si5 1.643772 1_555
O9 Si0 1.653239 1_555
O10 Si6 1.643772 1_555
O10 Si3 1.653239 1_555
O11 Si7 1.643772 1_555
O11 Si2 1.653239 1_555
O12 Si6 1.637982 1_555
O12 Si0 1.638652 1_555
O13 Si7 1.637982 1_555
O13 Si1 1.638652 1_555
O14 Si4 1.637982 1_555
O14 Si2 1.638652 1_555
O15 Si5 1.637982 1_555
O15 Si3 1.638652 1_555
O16 Si4 1.655822 1_554
O16 Si0 1.658341 1_545
O17 Si5 1.655822 1_556
O17 Si1 1.658341 1_455
O18 Si6 1.655822 1_555
O18 Si2 1.658341 1_565
O19 Si7 1.655822 1_555
O19 Si3 1.658341 1_655
