# generated using pymatgen
data_Nb4Co3Si7
_symmetry_space_group_name_H-M   'P 1'
_cell_length_a   12.52131469
_cell_length_b   9.39688010
_cell_length_c   8.98465198
_cell_angle_alpha   85.84241206
_cell_angle_beta   48.46024673
_cell_angle_gamma   45.69734121
_symmetry_Int_Tables_number   1
_chemical_formula_structural   Nb4Co3Si7
_chemical_formula_sum   'Nb8 Co6 Si14'
_cell_volume   387.43899772
_cell_formula_units_Z   2
loop_
 _symmetry_equiv_pos_site_id
 _symmetry_equiv_pos_as_xyz
  1  'x, y, z'
loop_
 _atom_site_type_symbol
 _atom_site_label
 _atom_site_symmetry_multiplicity
 _atom_site_fract_x
 _atom_site_fract_y
 _atom_site_fract_z
 _atom_site_occupancy
  Nb  Nb0  1  0.86642600  0.86642600  0.13357400  1
  Nb  Nb1  1  0.13357400  0.13357400  0.86642600  1
  Nb  Nb2  1  0.13618700  0.86381300  0.13618700  1
  Nb  Nb3  1  0.86381300  0.13618700  0.86381300  1
  Nb  Nb4  1  0.51123200  0.68612600  0.29394700  1
  Nb  Nb5  1  0.50869600  0.29394700  0.68612600  1
  Nb  Nb6  1  0.29394700  0.50869600  0.51123200  1
  Nb  Nb7  1  0.68612600  0.51123200  0.50869600  1
  Co  Co0  1  0.86473600  0.63526400  0.86473600  1
  Co  Co1  1  0.63526400  0.86473600  0.63526400  1
  Co  Co2  1  0.40052500  0.09947500  0.40052500  1
  Co  Co3  1  0.09947500  0.40052500  0.09947500  1
  Co  Co4  1  0.09905900  0.09905900  0.40094100  1
  Co  Co5  1  0.40094100  0.40094100  0.09905900  1
  Si  Si0  1  0.48745200  0.01254800  0.01254800  1
  Si  Si1  1  0.01254800  0.48745200  0.48745200  1
  Si  Si2  1  0.71192100  0.71192100  0.28807900  1
  Si  Si3  1  0.28807900  0.28807900  0.71192100  1
  Si  Si4  1  0.29324700  0.70675300  0.29324700  1
  Si  Si5  1  0.70675300  0.29324700  0.70675300  1
  Si  Si6  1  0.02763400  0.67514500  0.26381400  1
  Si  Si7  1  0.03340700  0.26381400  0.67514500  1
  Si  Si8  1  0.26381400  0.03340700  0.02763400  1
  Si  Si9  1  0.67514500  0.02763400  0.03340700  1
  Si  Si10  1  0.25324300  0.74675700  0.74675700  1
  Si  Si11  1  0.74675700  0.25324300  0.25324300  1
  Si  Si12  1  0.60796500  0.60796500  0.89203500  1
  Si  Si13  1  0.89203500  0.89203500  0.60796500  1
loop_
_geom_bond_atom_site_label_1
_geom_bond_atom_site_label_2
_geom_bond_distance
_geom_bond_site_symmetry_2
Nb0 Si6 2.536543 1_655
Nb0 Si9 2.536543 1_565
Nb0 Si10 2.726767 1_654
Nb0 Si11 2.726767 1_565
Nb0 Si2 2.801280 1_555
Nb0 Si3 2.852854 1_654
Nb0 Si3 2.852854 1_565
Nb1 Si8 2.536543 1_556
Nb1 Si7 2.536543 1_555
Nb1 Si11 2.726767 1_456
Nb1 Si10 2.726767 1_545
Nb1 Si3 2.801280 1_555
Nb1 Si2 2.852854 1_456
Nb1 Si2 2.852854 1_545
Nb2 Si10 2.665488 1_554
Nb2 Si11 2.665488 1_465
Nb2 Si8 2.703662 1_565
Nb2 Si6 2.703662 1_555
Nb2 Si4 2.713149 1_555
Nb2 Si5 2.758072 1_465
Nb2 Si5 2.758072 1_554
Nb2 Si12 3.037667 1_554
Nb2 Si13 3.037667 1_455
Nb3 Si11 2.665488 1_556
Nb3 Si10 2.665488 1_645
Nb3 Si7 2.703662 1_655
Nb3 Si9 2.703662 1_556
Nb3 Si5 2.713149 1_555
Nb3 Si4 2.758072 1_556
Nb3 Si4 2.758072 1_645
Nb3 Si12 3.037667 1_555
Nb3 Si13 3.037667 1_545
Nb4 Si4 2.602137 1_555
Nb4 Si2 2.655079 1_555
Nb4 Si7 2.672852 1_565
Nb4 Si11 2.721279 1_555
Nb4 Si10 2.765166 1_555
Nb4 Si7 2.854956 1_654
Nb4 Si12 2.896056 1_554
Nb5 Si5 2.602125 1_555
Nb5 Si3 2.655091 1_555
Nb5 Si6 2.672852 1_556
Nb5 Si11 2.721278 1_555
Nb5 Si10 2.765165 1_555
Nb5 Si6 2.854956 1_645
Nb5 Si13 2.896049 1_545
Nb6 Si4 2.602131 1_555
Nb6 Si3 2.655086 1_555
Nb6 Si9 2.672857 1_555
Nb6 Si10 2.721272 1_555
Nb6 Si11 2.765161 1_555
Nb6 Si9 2.854956 1_466
Nb6 Si13 2.896056 1_455
Nb7 Si5 2.602131 1_555
Nb7 Si2 2.655084 1_555
Nb7 Si8 2.672851 1_655
Nb7 Si10 2.721283 1_555
Nb7 Si11 2.765172 1_555
Nb7 Si8 2.854951 1_566
Nb7 Si12 2.896048 1_555
Co0 Si9 2.310528 1_566
Co0 Si7 2.310528 1_655
Co0 Si0 2.369835 1_566
Co0 Si1 2.369835 1_655
Co0 Co2 2.550142 1_655
Co0 Co2 2.550142 1_566
Co0 Si2 2.732535 1_556
Co0 Si3 2.732535 1_655
Co0 Nb4 3.060290 1_556
Co0 Nb6 3.060297 1_655
Co1 Si6 2.310528 1_655
Co1 Si8 2.310528 1_566
Co1 Si0 2.369835 1_566
Co1 Si1 2.369835 1_655
Co1 Co3 2.550142 1_566
Co1 Co3 2.550142 1_655
Co1 Si3 2.732535 1_565
Co1 Si2 2.732535 1_555
Co1 Nb7 3.060287 1_555
Co1 Nb5 3.060297 1_565
Co2 Si2 2.227054 1_545
Co2 Si3 2.227054 1_555
Co2 Si9 2.279675 1_555
Co2 Si7 2.279675 1_555
Co2 Si1 2.853391 1_555
Co2 Si0 2.853391 1_555
Co3 Si3 2.227054 1_554
Co3 Si2 2.227054 1_455
Co3 Si6 2.279675 1_555
Co3 Si8 2.279675 1_555
Co3 Si0 2.853391 1_555
Co3 Si1 2.853391 1_555
Co4 Si7 2.287210 1_555
Co4 Si8 2.287210 1_555
Co4 Si4 2.305214 1_545
Co4 Si5 2.305214 1_455
Co4 Si12 2.479330 1_544
Co4 Si12 2.479330 1_455
Co4 Nb7 2.933045 1_455
Co4 Nb4 2.933052 1_545
Co4 Nb2 2.936212 1_545
Co4 Nb3 2.936212 1_455
Co4 Si1 2.978223 1_555
Co4 Si0 2.978223 1_555
Co5 Si6 2.287210 1_555
Co5 Si9 2.287210 1_555
Co5 Si4 2.305214 1_555
Co5 Si5 2.305214 1_554
Co5 Si13 2.479330 1_544
Co5 Si13 2.479330 1_455
Co5 Nb5 2.933044 1_554
Co5 Nb6 2.933053 1_555
Co5 Nb2 2.936212 1_555
Co5 Nb3 2.936212 1_554
Co5 Si1 2.978223 1_555
Co5 Si0 2.978223 1_555
Si0 Si1 2.349888 1_555
Si0 Si8 2.575245 1_555
Si0 Si9 2.575245 1_555
Si0 Si1 2.598244 1_644
Si0 Si12 2.884324 1_544
Si0 Si13 2.884324 1_544
Si1 Si7 2.575245 1_555
Si1 Si6 2.575245 1_555
Si1 Si12 2.884324 1_455
Si1 Si13 2.884324 1_455
Si10 Si11 2.441972 1_555
Si10 Si11 2.506160 1_466
Si12 Si7 2.390509 1_655
Si12 Si8 2.390509 1_566
Si12 Si4 2.433124 1_556
Si12 Si5 2.433124 1_555
Si13 Si9 2.390509 1_566
Si13 Si6 2.390509 1_655
Si13 Si4 2.433124 1_655
Si13 Si5 2.433124 1_565
