# generated using pymatgen
data_Ce5Mg
_symmetry_space_group_name_H-M   'P 1'
_cell_length_a   13.14822214
_cell_length_b   13.14822214
_cell_length_c   16.03448256
_cell_angle_alpha   71.16341660
_cell_angle_beta   71.16341660
_cell_angle_gamma   28.53557233
_symmetry_Int_Tables_number   1
_chemical_formula_structural   Ce5Mg
_chemical_formula_sum   'Ce40 Mg8'
_cell_volume   1248.53973125
_cell_formula_units_Z   8
loop_
 _symmetry_equiv_pos_site_id
 _symmetry_equiv_pos_as_xyz
  1  'x, y, z'
loop_
 _atom_site_type_symbol
 _atom_site_label
 _atom_site_symmetry_multiplicity
 _atom_site_fract_x
 _atom_site_fract_y
 _atom_site_fract_z
 _atom_site_occupancy
  Ce  Ce0_0  1  0.00067200  0.00067200  0.00846300  1
  Ce  Ce0_1  1  0.00067200  0.00067200  0.50846300  1
  Ce  Ce0_2  1  0.00067200  0.50067200  0.00846300  1
  Ce  Ce0_3  1  0.00067200  0.50067200  0.50846300  1
  Ce  Ce0_4  1  0.50067200  0.00067200  0.00846300  1
  Ce  Ce0_5  1  0.50067200  0.00067200  0.50846300  1
  Ce  Ce0_6  1  0.50067200  0.50067200  0.00846300  1
  Ce  Ce0_7  1  0.50067200  0.50067200  0.50846300  1
  Ce  Ce1_0  1  0.16665700  0.16665700  0.16512000  1
  Ce  Ce1_1  1  0.16665700  0.16665700  0.66512000  1
  Ce  Ce1_2  1  0.16665700  0.66665700  0.16512000  1
  Ce  Ce1_3  1  0.16665700  0.66665700  0.66512000  1
  Ce  Ce1_4  1  0.66665700  0.16665700  0.16512000  1
  Ce  Ce1_5  1  0.66665700  0.16665700  0.66512000  1
  Ce  Ce1_6  1  0.66665700  0.66665700  0.16512000  1
  Ce  Ce1_7  1  0.66665700  0.66665700  0.66512000  1
  Ce  Ce2_0  1  0.46903950  0.46903950  0.31254350  1
  Ce  Ce2_1  1  0.46903950  0.46903950  0.81254350  1
  Ce  Ce2_2  1  0.46903950  0.96903950  0.31254350  1
  Ce  Ce2_3  1  0.46903950  0.96903950  0.81254350  1
  Ce  Ce2_4  1  0.96903950  0.46903950  0.31254350  1
  Ce  Ce2_5  1  0.96903950  0.46903950  0.81254350  1
  Ce  Ce2_6  1  0.96903950  0.96903950  0.31254350  1
  Ce  Ce2_7  1  0.96903950  0.96903950  0.81254350  1
  Ce  Ce3_0  1  0.32565750  0.32565750  0.33780850  1
  Ce  Ce3_1  1  0.32565750  0.32565750  0.83780850  1
  Ce  Ce3_2  1  0.32565750  0.82565750  0.33780850  1
  Ce  Ce3_3  1  0.32565750  0.82565750  0.83780850  1
  Ce  Ce3_4  1  0.82565750  0.32565750  0.33780850  1
  Ce  Ce3_5  1  0.82565750  0.32565750  0.83780850  1
  Ce  Ce3_6  1  0.82565750  0.82565750  0.33780850  1
  Ce  Ce3_7  1  0.82565750  0.82565750  0.83780850  1
  Ce  Ce4_0  1  0.14769250  0.14769250  0.45408350  1
  Ce  Ce4_1  1  0.14769250  0.14769250  0.95408350  1
  Ce  Ce4_2  1  0.14769250  0.64769250  0.45408350  1
  Ce  Ce4_3  1  0.14769250  0.64769250  0.95408350  1
  Ce  Ce4_4  1  0.64769250  0.14769250  0.45408350  1
  Ce  Ce4_5  1  0.64769250  0.14769250  0.95408350  1
  Ce  Ce4_6  1  0.64769250  0.64769250  0.45408350  1
  Ce  Ce4_7  1  0.64769250  0.64769250  0.95408350  1
  Mg  Mg0_0  1  0.30694800  0.30694800  0.13864750  1
  Mg  Mg0_1  1  0.30694800  0.30694800  0.63864750  1
  Mg  Mg0_2  1  0.30694800  0.80694800  0.13864750  1
  Mg  Mg0_3  1  0.30694800  0.80694800  0.63864750  1
  Mg  Mg0_4  1  0.80694800  0.30694800  0.13864750  1
  Mg  Mg0_5  1  0.80694800  0.30694800  0.63864750  1
  Mg  Mg0_6  1  0.80694800  0.80694800  0.13864750  1
  Mg  Mg0_7  1  0.80694800  0.80694800  0.63864750  1
loop_
_geom_bond_atom_site_label_1
_geom_bond_atom_site_label_2
_geom_bond_distance
_geom_bond_site_symmetry_2
Ce0_0 Ce1_2 3.152104 1_545
Ce0_0 Ce1_4 3.152104 1_455
Ce0_0 Ce3_3 3.206333 1_544
Ce0_0 Ce3_5 3.206333 1_454
Ce0_0 Ce0_6 3.240434 1_545
Ce0_0 Ce0_6 3.240434 1_455
Ce0_0 Mg0_2 3.321783 1_545
Ce0_0 Mg0_4 3.321783 1_455
Ce0_0 Ce4_3 3.434815 1_544
Ce0_0 Ce4_5 3.434815 1_454
Ce0_0 Ce2_7 3.493728 1_444
Ce0_0 Ce4_1 3.552810 1_554
Ce0_1 Ce1_5 3.152104 1_455
Ce0_1 Ce1_3 3.152104 1_545
Ce0_1 Ce3_2 3.206333 1_545
Ce0_1 Ce3_4 3.206333 1_455
Ce0_1 Ce0_7 3.240434 1_545
Ce0_1 Ce0_7 3.240434 1_455
Ce0_1 Mg0_5 3.321783 1_455
Ce0_1 Mg0_3 3.321783 1_545
Ce0_1 Ce4_2 3.434815 1_545
Ce0_1 Ce4_4 3.434815 1_455
Ce0_1 Ce2_6 3.493728 1_445
Ce0_1 Ce4_0 3.552810 1_555
Ce0_2 Ce1_0 3.152104 1_555
Ce0_2 Ce1_6 3.152104 1_455
Ce0_2 Ce3_7 3.206333 1_454
Ce0_2 Ce3_1 3.206333 1_554
Ce0_2 Ce0_4 3.240434 1_555
Ce0_2 Ce0_4 3.240434 1_465
Ce0_2 Mg0_6 3.321783 1_455
Ce0_2 Mg0_0 3.321783 1_555
Ce0_2 Ce4_1 3.434815 1_554
Ce0_2 Ce4_7 3.434815 1_454
Ce0_2 Ce2_5 3.493728 1_454
Ce0_2 Ce4_3 3.552810 1_554
Ce0_3 Ce1_1 3.152104 1_555
Ce0_3 Ce1_7 3.152104 1_455
Ce0_3 Ce3_0 3.206333 1_555
Ce0_3 Ce3_6 3.206333 1_455
Ce0_3 Ce0_5 3.240434 1_555
Ce0_3 Ce0_5 3.240434 1_465
Ce0_3 Mg0_1 3.321783 1_555
Ce0_3 Mg0_7 3.321783 1_455
Ce0_3 Ce4_0 3.434815 1_555
Ce0_3 Ce4_6 3.434815 1_455
Ce0_3 Ce2_4 3.493728 1_455
Ce0_3 Ce4_2 3.552810 1_555
Ce0_4 Ce1_0 3.152104 1_555
Ce0_4 Ce1_6 3.152104 1_545
Ce0_4 Ce3_7 3.206333 1_544
Ce0_4 Ce3_1 3.206333 1_554
Ce0_4 Mg0_6 3.321783 1_545
Ce0_4 Mg0_0 3.321783 1_555
Ce0_4 Ce4_7 3.434815 1_544
Ce0_4 Ce4_1 3.434815 1_554
Ce0_4 Ce2_3 3.493728 1_544
Ce0_4 Ce4_5 3.552810 1_554
Ce0_5 Ce1_1 3.152104 1_555
Ce0_5 Ce1_7 3.152104 1_545
Ce0_5 Ce3_6 3.206333 1_545
Ce0_5 Ce3_0 3.206333 1_555
Ce0_5 Mg0_7 3.321783 1_545
Ce0_5 Mg0_1 3.321783 1_555
Ce0_5 Ce4_0 3.434815 1_555
Ce0_5 Ce4_6 3.434815 1_545
Ce0_5 Ce2_2 3.493728 1_545
Ce0_5 Ce4_4 3.552810 1_555
Ce0_6 Ce1_4 3.152104 1_555
Ce0_6 Ce1_2 3.152104 1_555
Ce0_6 Ce3_3 3.206333 1_554
Ce0_6 Ce3_5 3.206333 1_554
Ce0_6 Mg0_4 3.321783 1_555
Ce0_6 Mg0_2 3.321783 1_555
Ce0_6 Ce4_3 3.434815 1_554
Ce0_6 Ce4_5 3.434815 1_554
Ce0_6 Ce2_1 3.493728 1_554
Ce0_6 Ce4_7 3.552810 1_554
Ce0_7 Ce1_5 3.152104 1_555
Ce0_7 Ce1_3 3.152104 1_555
Ce0_7 Ce3_4 3.206333 1_555
Ce0_7 Ce3_2 3.206333 1_555
Ce0_7 Mg0_3 3.321783 1_555
Ce0_7 Mg0_5 3.321783 1_555
Ce0_7 Ce4_2 3.434815 1_555
Ce0_7 Ce4_4 3.434815 1_555
Ce0_7 Ce2_0 3.493728 1_555
Ce0_7 Ce4_6 3.552810 1_555
Ce1_0 Ce1_6 3.240434 1_545
Ce1_0 Ce1_6 3.240434 1_455
Ce1_0 Ce3_4 3.375213 1_455
Ce1_0 Ce3_2 3.375213 1_545
Ce1_0 Mg0_2 3.378385 1_545
Ce1_0 Mg0_4 3.378385 1_455
Ce1_0 Mg0_0 3.457193 1_555
Ce1_0 Ce2_2 3.478182 1_545
Ce1_0 Ce2_4 3.478182 1_455
Ce1_0 Ce4_1 3.574047 1_554
Ce1_1 Ce1_7 3.240434 1_455
Ce1_1 Ce1_7 3.240434 1_545
Ce1_1 Ce3_5 3.375213 1_455
Ce1_1 Ce3_3 3.375213 1_545
Ce1_1 Mg0_3 3.378385 1_545
Ce1_1 Mg0_5 3.378385 1_455
Ce1_1 Mg0_1 3.457193 1_555
Ce1_1 Ce2_3 3.478182 1_545
Ce1_1 Ce2_5 3.478182 1_455
Ce1_1 Ce4_0 3.574047 1_555
Ce1_2 Ce1_4 3.240434 1_555
Ce1_2 Ce1_4 3.240434 1_465
Ce1_2 Ce3_0 3.375213 1_555
Ce1_2 Ce3_6 3.375213 1_455
Ce1_2 Mg0_0 3.378385 1_555
Ce1_2 Mg0_6 3.378385 1_455
Ce1_2 Mg0_2 3.457193 1_555
Ce1_2 Ce2_6 3.478182 1_455
Ce1_2 Ce2_0 3.478182 1_555
Ce1_2 Ce4_3 3.574047 1_554
Ce1_3 Ce1_5 3.240434 1_555
Ce1_3 Ce1_5 3.240434 1_465
Ce1_3 Ce3_1 3.375213 1_555
Ce1_3 Ce3_7 3.375213 1_455
Ce1_3 Mg0_1 3.378385 1_555
Ce1_3 Mg0_7 3.378385 1_455
Ce1_3 Mg0_3 3.457193 1_555
Ce1_3 Ce2_1 3.478182 1_555
Ce1_3 Ce2_7 3.478182 1_455
Ce1_3 Ce4_2 3.574047 1_555
Ce1_4 Ce3_0 3.375213 1_555
Ce1_4 Ce3_6 3.375213 1_545
Ce1_4 Mg0_0 3.378385 1_555
Ce1_4 Mg0_6 3.378385 1_545
Ce1_4 Mg0_4 3.457193 1_555
Ce1_4 Ce2_6 3.478182 1_545
Ce1_4 Ce2_0 3.478182 1_555
Ce1_4 Ce4_5 3.574047 1_554
Ce1_5 Ce3_1 3.375213 1_555
Ce1_5 Ce3_7 3.375213 1_545
Ce1_5 Mg0_1 3.378385 1_555
Ce1_5 Mg0_7 3.378385 1_545
Ce1_5 Mg0_5 3.457193 1_555
Ce1_5 Ce2_1 3.478182 1_555
Ce1_5 Ce2_7 3.478182 1_545
Ce1_5 Ce4_4 3.574047 1_555
Ce1_6 Ce3_4 3.375213 1_555
Ce1_6 Ce3_2 3.375213 1_555
Ce1_6 Mg0_4 3.378385 1_555
Ce1_6 Mg0_2 3.378385 1_555
Ce1_6 Mg0_6 3.457193 1_555
Ce1_6 Ce2_4 3.478182 1_555
Ce1_6 Ce2_2 3.478182 1_555
Ce1_6 Ce4_7 3.574047 1_554
Ce1_7 Ce3_5 3.375213 1_555
Ce1_7 Ce3_3 3.375213 1_555
Ce1_7 Mg0_5 3.378385 1_555
Ce1_7 Mg0_3 3.378385 1_555
Ce1_7 Mg0_7 3.457193 1_555
Ce1_7 Ce2_3 3.478182 1_555
Ce1_7 Ce2_5 3.478182 1_555
Ce1_7 Ce4_6 3.574047 1_555
Ce2_0 Ce4_2 2.886603 1_555
Ce2_0 Ce4_4 2.886603 1_555
Ce2_0 Ce2_6 3.240434 1_545
Ce2_0 Ce2_6 3.240434 1_455
Ce2_0 Ce3_4 3.302392 1_555
Ce2_0 Ce3_2 3.302392 1_555
Ce2_0 Mg0_4 3.355133 1_555
Ce2_0 Mg0_2 3.355133 1_555
Ce2_0 Ce3_0 3.539843 1_555
Ce2_1 Ce4_5 2.886603 1_555
Ce2_1 Ce4_3 2.886603 1_555
Ce2_1 Ce2_7 3.240434 1_455
Ce2_1 Ce2_7 3.240434 1_545
Ce2_1 Ce3_3 3.302392 1_555
Ce2_1 Ce3_5 3.302392 1_555
Ce2_1 Mg0_3 3.355133 1_555
Ce2_1 Mg0_5 3.355133 1_555
Ce2_1 Ce3_1 3.539843 1_555
Ce2_2 Ce4_0 2.886603 1_565
Ce2_2 Ce4_6 2.886603 1_555
Ce2_2 Ce2_4 3.240434 1_465
Ce2_2 Ce2_4 3.240434 1_555
Ce2_2 Ce3_6 3.302392 1_555
Ce2_2 Ce3_0 3.302392 1_565
Ce2_2 Mg0_6 3.355133 1_555
Ce2_2 Mg0_0 3.355133 1_565
Ce2_2 Ce3_2 3.539843 1_555
Ce2_3 Ce4_7 2.886603 1_555
Ce2_3 Ce4_1 2.886603 1_565
Ce2_3 Ce2_5 3.240434 1_555
Ce2_3 Ce2_5 3.240434 1_465
Ce2_3 Ce3_7 3.302392 1_555
Ce2_3 Ce3_1 3.302392 1_565
Ce2_3 Mg0_7 3.355133 1_555
Ce2_3 Mg0_1 3.355133 1_565
Ce2_3 Ce3_3 3.539843 1_555
Ce2_4 Ce4_6 2.886603 1_555
Ce2_4 Ce4_0 2.886603 1_655
Ce2_4 Ce3_6 3.302392 1_555
Ce2_4 Ce3_0 3.302392 1_655
Ce2_4 Mg0_6 3.355133 1_555
Ce2_4 Mg0_0 3.355133 1_655
Ce2_4 Ce3_4 3.539843 1_555
Ce2_5 Ce4_1 2.886603 1_655
Ce2_5 Ce4_7 2.886603 1_555
Ce2_5 Ce3_7 3.302392 1_555
Ce2_5 Ce3_1 3.302392 1_655
Ce2_5 Mg0_7 3.355133 1_555
Ce2_5 Mg0_1 3.355133 1_655
Ce2_5 Ce3_5 3.539843 1_555
Ce2_6 Ce4_4 2.886603 1_565
Ce2_6 Ce4_2 2.886603 1_655
Ce2_6 Ce3_2 3.302392 1_655
Ce2_6 Ce3_4 3.302392 1_565
Ce2_6 Mg0_4 3.355133 1_565
Ce2_6 Mg0_2 3.355133 1_655
Ce2_6 Ce3_6 3.539843 1_555
Ce2_7 Ce4_3 2.886603 1_655
Ce2_7 Ce4_5 2.886603 1_565
Ce2_7 Ce3_3 3.302392 1_655
Ce2_7 Ce3_5 3.302392 1_565
Ce2_7 Mg0_3 3.355133 1_655
Ce2_7 Mg0_5 3.355133 1_565
Ce2_7 Ce3_7 3.539843 1_555
Ce3_0 Ce3_6 3.240434 1_545
Ce3_0 Ce3_6 3.240434 1_455
Ce3_0 Mg0_0 3.382306 1_555
Ce3_0 Ce4_4 3.428114 1_555
Ce3_0 Ce4_2 3.428114 1_555
Ce3_1 Ce3_7 3.240434 1_545
Ce3_1 Ce3_7 3.240434 1_455
Ce3_1 Mg0_1 3.382306 1_555
Ce3_1 Ce4_5 3.428114 1_555
Ce3_1 Ce4_3 3.428114 1_555
Ce3_2 Ce3_4 3.240434 1_555
Ce3_2 Ce3_4 3.240434 1_465
Ce3_2 Mg0_2 3.382306 1_555
Ce3_2 Ce4_6 3.428114 1_555
Ce3_2 Ce4_0 3.428114 1_565
Ce3_3 Ce3_5 3.240434 1_555
Ce3_3 Ce3_5 3.240434 1_465
Ce3_3 Mg0_3 3.382306 1_555
Ce3_3 Ce4_7 3.428114 1_555
Ce3_3 Ce4_1 3.428114 1_565
Ce3_4 Mg0_4 3.382306 1_555
Ce3_4 Ce4_6 3.428114 1_555
Ce3_4 Ce4_0 3.428114 1_655
Ce3_5 Mg0_5 3.382306 1_555
Ce3_5 Ce4_1 3.428114 1_655
Ce3_5 Ce4_7 3.428114 1_555
Ce3_6 Mg0_6 3.382306 1_555
Ce3_6 Ce4_4 3.428114 1_565
Ce3_6 Ce4_2 3.428114 1_655
Ce3_7 Mg0_7 3.382306 1_555
Ce3_7 Ce4_3 3.428114 1_655
Ce3_7 Ce4_5 3.428114 1_565
Ce4_0 Ce4_6 3.240434 1_545
Ce4_0 Ce4_6 3.240434 1_455
Ce4_0 Mg0_3 3.488741 1_545
Ce4_0 Mg0_5 3.488741 1_455
Ce4_1 Ce4_7 3.240434 1_545
Ce4_1 Ce4_7 3.240434 1_455
Ce4_1 Mg0_2 3.488741 1_546
Ce4_1 Mg0_4 3.488741 1_456
Ce4_2 Ce4_4 3.240434 1_555
Ce4_2 Ce4_4 3.240434 1_465
Ce4_2 Mg0_1 3.488741 1_555
Ce4_2 Mg0_7 3.488741 1_455
Ce4_3 Ce4_5 3.240434 1_555
Ce4_3 Ce4_5 3.240434 1_465
Ce4_3 Mg0_0 3.488741 1_556
Ce4_3 Mg0_6 3.488741 1_456
Ce4_4 Mg0_7 3.488741 1_545
Ce4_4 Mg0_1 3.488741 1_555
Ce4_5 Mg0_0 3.488741 1_556
Ce4_5 Mg0_6 3.488741 1_546
Ce4_6 Mg0_5 3.488741 1_555
Ce4_6 Mg0_3 3.488741 1_555
Ce4_7 Mg0_2 3.488741 1_556
Ce4_7 Mg0_4 3.488741 1_556
Mg0_0 Mg0_6 3.240434 1_545
Mg0_0 Mg0_6 3.240434 1_455
Mg0_1 Mg0_7 3.240434 1_545
Mg0_1 Mg0_7 3.240434 1_455
Mg0_2 Mg0_4 3.240434 1_555
Mg0_2 Mg0_4 3.240434 1_465
Mg0_3 Mg0_5 3.240434 1_555
Mg0_3 Mg0_5 3.240434 1_465
