# generated using pymatgen
data_Na2MnPCO7
_symmetry_space_group_name_H-M   'P 1'
_cell_length_a   5.23745100
_cell_length_b   11.18286830
_cell_length_c   11.20505664
_cell_angle_alpha   73.60558113
_cell_angle_beta   88.78881455
_cell_angle_gamma   89.07436813
_symmetry_Int_Tables_number   1
_chemical_formula_structural   Na2MnPCO7
_chemical_formula_sum   'Na8 Mn4 P4 C4 O28'
_cell_volume   629.41764156
_cell_formula_units_Z   4
loop_
 _symmetry_equiv_pos_site_id
 _symmetry_equiv_pos_as_xyz
  1  'x, y, z'
loop_
 _atom_site_type_symbol
 _atom_site_label
 _atom_site_symmetry_multiplicity
 _atom_site_fract_x
 _atom_site_fract_y
 _atom_site_fract_z
 _atom_site_occupancy
  Na  Na0  1  0.75762000  0.87581200  0.88545500  1
  Na  Na1  1  0.24617300  0.62568300  0.62592600  1
  Na  Na2  1  0.24647600  0.87684900  0.37383100  1
  Na  Na3  1  0.24463100  0.36404800  0.87752900  1
  Na  Na4  1  0.77205700  0.64286100  0.42081800  1
  Na  Na5  1  0.75765000  0.62707500  0.12129500  1
  Na  Na6  1  0.76265700  0.14588600  0.60474400  1
  Na  Na7  1  0.24394700  0.12598500  0.11608400  1
  Mn  Mn0  1  0.21774000  0.94978500  0.69648300  1
  Mn  Mn1  1  0.78050700  0.54874100  0.80659300  1
  Mn  Mn2  1  0.22191900  0.44248700  0.20441500  1
  Mn  Mn3  1  0.77818200  0.05507800  0.29943200  1
  P  P0  1  0.28764900  0.66064600  0.91876400  1
  P  P1  1  0.70934100  0.83581100  0.58323600  1
  P  P2  1  0.29357900  0.16614000  0.41091400  1
  P  P3  1  0.70351400  0.33644500  0.08810600  1
  C  C0  1  0.72753900  0.91278500  0.16306800  1
  C  C1  1  0.72622200  0.41410700  0.66616900  1
  C  C2  1  0.27989200  0.59613500  0.33829400  1
  C  C3  1  0.27260300  0.08511300  0.83444500  1
  O  O0  1  0.21050700  0.79899600  0.87230000  1
  O  O1  1  0.58692400  0.64905500  0.89818900  1
  O  O2  1  0.84827500  0.91113200  0.65880800  1
  O  O3  1  0.15264700  0.58427300  0.84175700  1
  O  O4  1  0.41141000  0.85205300  0.60143100  1
  O  O5  1  0.76472200  0.37887300  0.94696300  1
  O  O6  1  0.77653800  0.87934000  0.44240900  1
  O  O7  1  0.77666800  0.69511800  0.62702600  1
  O  O8  1  0.52826600  0.46254200  0.71139900  1
  O  O9  1  0.52408100  0.95628300  0.20612500  1
  O  O10  1  0.94305400  0.95291100  0.19915100  1
  O  O11  1  0.94564000  0.45058500  0.70330700  1
  O  O12  1  0.28279700  0.15341700  0.90471100  1
  O  O13  1  0.25805600  0.66445000  0.41376100  1
  O  O14  1  0.71693800  0.34699700  0.59619700  1
  O  O15  1  0.72936200  0.83963800  0.09666000  1
  O  O16  1  0.07052500  0.55247400  0.30289600  1
  O  O17  1  0.05361800  0.04945000  0.79825700  1
  O  O18  1  0.49345800  0.56656500  0.29691300  1
  O  O19  1  0.47005500  0.03934900  0.78712300  1
  O  O20  1  0.21333700  0.12143400  0.54932900  1
  O  O21  1  0.22500200  0.60772800  0.05926700  1
  O  O22  1  0.24056400  0.30694000  0.36031200  1
  O  O23  1  0.58903600  0.13747700  0.40289600  1
  O  O24  1  0.83797700  0.41645600  0.15777700  1
  O  O25  1  0.15522400  0.09067800  0.33449000  1
  O  O26  1  0.40067000  0.34866200  0.10362800  1
  O  O27  1  0.77476500  0.19648200  0.13604900  1
loop_
_geom_bond_atom_site_label_1
_geom_bond_atom_site_label_2
_geom_bond_distance
_geom_bond_site_symmetry_2
Na0 O15 2.287550 1_556
Na0 O19 2.381304 1_565
Na0 O17 2.467938 1_665
Na0 O2 2.493957 1_555
Na0 O0 2.525227 1_655
Na0 O1 2.667110 1_555
Na1 O13 2.292663 1_555
Na1 O8 2.326990 1_555
Na1 O3 2.372361 1_555
Na1 O11 2.479312 1_455
Na1 O7 2.567535 1_455
Na1 O4 2.627000 1_555
Na1 O7 2.898167 1_555
Na2 O13 2.289579 1_555
Na2 O9 2.327700 1_555
Na2 O25 2.348963 1_565
Na2 O10 2.495589 1_455
Na2 O6 2.564965 1_455
Na2 O4 2.648241 1_555
Na2 O6 2.898819 1_555
Na3 O12 2.294187 1_555
Na3 O8 2.379850 1_555
Na3 O3 2.422907 1_555
Na3 O11 2.492690 1_455
Na3 O5 2.631947 1_455
Na3 O26 2.636815 1_556
Na3 O5 2.868744 1_555
Na4 O18 2.362028 1_555
Na4 O16 2.413870 1_655
Na4 O7 2.538870 1_555
Na4 O13 2.558154 1_655
Na4 O13 2.699801 1_555
Na4 O6 2.723221 1_555
Na5 O24 2.307250 1_555
Na5 O15 2.317009 1_555
Na5 O18 2.325564 1_555
Na5 O21 2.552866 1_655
Na5 O16 2.580764 1_655
Na5 O1 2.617262 1_554
Na5 O21 2.915262 1_555
Na6 O14 2.233044 1_555
Na6 O20 2.458640 1_655
Na6 O23 2.482109 1_555
Na6 O19 2.548788 1_555
Na6 O2 2.556476 1_545
Na6 O17 2.636945 1_655
Na7 O12 2.305764 1_554
Na7 O9 2.379877 1_545
Na7 O25 2.402763 1_555
Na7 O10 2.472947 1_445
Na7 O27 2.593008 1_455
Na7 O26 2.599842 1_555
Na7 O27 2.932125 1_555
Mn0 O17 1.981574 1_565
Mn0 O4 1.983261 1_555
Mn0 O2 2.067379 1_455
Mn0 O19 2.110621 1_565
Mn0 O20 2.148815 1_565
Mn0 O0 2.202181 1_555
Mn1 O1 1.977106 1_555
Mn1 O11 1.984038 1_555
Mn1 O3 2.063457 1_655
Mn1 O5 2.098141 1_555
Mn1 O8 2.119763 1_555
Mn1 O7 2.206743 1_555
Mn2 O26 1.960914 1_555
Mn2 O22 1.966304 1_555
Mn2 O16 2.014172 1_555
Mn2 O21 2.088868 1_555
Mn2 O24 2.133230 1_455
Mn2 O18 2.441304 1_555
Mn3 O23 1.923399 1_555
Mn3 O10 1.991332 1_545
Mn3 O27 2.053938 1_555
Mn3 O25 2.087792 1_655
Mn3 O6 2.156752 1_545
Mn3 O9 2.200730 1_545
C0 O15 1.251374 1_555
C0 O9 1.303412 1_555
C0 O10 1.333029 1_555
C1 O14 1.230956 1_555
C1 O8 1.318996 1_555
C1 O11 1.338432 1_555
C2 O18 1.275992 1_555
C2 O13 1.292103 1_555
C2 O16 1.320280 1_555
C3 O12 1.244495 1_555
C3 O19 1.313557 1_555
C3 O17 1.328395 1_555
O0 P0 1.536869 1_555
O1 P0 1.588031 1_555
O2 P1 1.550644 1_555
O3 P0 1.560521 1_555
O4 P1 1.583571 1_555
O5 P3 1.545630 1_556
O6 P1 1.548959 1_555
O7 P1 1.547299 1_555
O20 P2 1.540628 1_555
O21 P0 1.547557 1_554
O22 P2 1.538295 1_555
O23 P2 1.581057 1_555
O24 P3 1.530976 1_555
O25 P2 1.557065 1_555
O26 P3 1.599836 1_555
O27 P3 1.546810 1_555
