# generated using pymatgen
data_Mg6Si5
_symmetry_space_group_name_H-M   'P 1'
_cell_length_a   4.14654300
_cell_length_b   6.86250400
_cell_length_c   15.18778798
_cell_angle_alpha   98.41766236
_cell_angle_beta   95.59038568
_cell_angle_gamma   90.79223025
_symmetry_Int_Tables_number   1
_chemical_formula_structural   Mg6Si5
_chemical_formula_sum   'Mg12 Si10'
_cell_volume   425.31631386
_cell_formula_units_Z   2
loop_
 _symmetry_equiv_pos_site_id
 _symmetry_equiv_pos_as_xyz
  1  'x, y, z'
loop_
 _atom_site_type_symbol
 _atom_site_label
 _atom_site_symmetry_multiplicity
 _atom_site_fract_x
 _atom_site_fract_y
 _atom_site_fract_z
 _atom_site_occupancy
  Mg  Mg0  1  0.24457700  0.42765000  0.94226400  1
  Mg  Mg1  1  0.50798400  0.38469200  0.50103500  1
  Mg  Mg2  1  0.08453800  0.24784400  0.64670300  1
  Mg  Mg3  1  0.94505600  0.50933700  0.35144400  1
  Mg  Mg4  1  0.33542800  0.44184300  0.16695100  1
  Mg  Mg5  1  0.67951200  0.30240900  0.80997000  1
  Mg  Mg6  1  0.04661600  0.72606800  0.58010100  1
  Mg  Mg7  1  0.97158200  0.04883800  0.42125600  1
  Mg  Mg8  1  0.79367000  0.62894500  0.05122100  1
  Mg  Mg9  1  0.68324700  0.79962500  0.88301700  1
  Mg  Mg10  1  0.31976800  0.93679100  0.10583000  1
  Mg  Mg11  1  0.78325400  0.17557600  0.02117300  1
  Si  Si0  1  0.48729600  0.73978300  0.44768100  1
  Si  Si1  1  0.54090100  0.02607800  0.55421500  1
  Si  Si2  1  0.15380200  0.00379400  0.79705000  1
  Si  Si3  1  0.87934400  0.78731200  0.22081000  1
  Si  Si4  1  0.41811500  0.21445000  0.31181900  1
  Si  Si5  1  0.59009100  0.56664700  0.68567900  1
  Si  Si6  1  0.14033200  0.58992200  0.78302100  1
  Si  Si7  1  0.86984300  0.16338900  0.20820500  1
  Si  Si8  1  0.41383400  0.84212100  0.30509700  1
  Si  Si9  1  0.61133200  0.94054500  0.70184800  1
loop_
_geom_bond_atom_site_label_1
_geom_bond_atom_site_label_2
_geom_bond_distance
_geom_bond_site_symmetry_2
Mg0 Si6 2.806148 1_555
Mg1 Si0 2.678136 1_555
Mg1 Si1 2.701337 1_555
Mg1 Si5 2.883815 1_555
Mg1 Si4 2.925522 1_555
Mg2 Si1 2.800319 1_555
Mg2 Si1 2.834262 1_455
Mg2 Si6 2.884349 1_555
Mg2 Si5 2.963701 1_555
Mg2 Si2 3.017731 1_555
Mg2 Si5 3.053140 1_455
Mg2 Si9 3.117954 1_445
Mg2 Si9 3.195028 1_545
Mg3 Si0 2.861286 1_555
Mg3 Si0 2.877036 1_655
Mg3 Si4 2.878944 1_655
Mg3 Si4 2.914878 1_555
Mg3 Si3 2.943935 1_555
Mg3 Si7 2.966719 1_555
Mg3 Si8 3.178644 1_655
Mg4 Si7 2.873215 1_455
Mg4 Si4 2.875187 1_555
Mg4 Si7 3.025185 1_555
Mg4 Si3 3.118312 1_455
Mg4 Si8 3.195058 1_555
Mg4 Si3 3.209571 1_555
Mg5 Si9 2.763964 1_545
Mg5 Si5 2.805976 1_555
Mg5 Si6 2.827761 1_655
Mg5 Si2 2.859124 1_655
Mg5 Si2 2.943670 1_555
Mg5 Si6 3.039592 1_555
Mg6 Si0 2.856456 1_555
Mg6 Si5 2.898151 1_455
Mg6 Si0 2.930056 1_455
Mg6 Si5 2.953693 1_555
Mg6 Si9 2.961425 1_455
Mg6 Si1 2.978481 1_565
Mg6 Si1 2.997721 1_465
Mg6 Si9 3.054976 1_555
Mg7 Si1 2.842294 1_555
Mg7 Si8 2.908132 1_645
Mg7 Si4 2.928655 1_655
Mg7 Si1 2.974705 1_655
Mg7 Si8 2.975757 1_545
Mg7 Si0 2.996702 1_545
Mg7 Si4 3.033672 1_555
Mg7 Si0 3.072385 1_645
Mg8 Si3 2.633052 1_555
Mg9 Si6 2.822425 1_655
Mg9 Si6 2.837231 1_555
Mg9 Si2 2.903663 1_665
Mg9 Si2 2.923979 1_565
Mg9 Si9 3.036835 1_555
Mg9 Si5 3.169008 1_555
Mg10 Si7 2.872937 1_465
Mg10 Si3 2.920779 1_455
Mg10 Si7 2.922549 1_565
Mg10 Mg8 2.986116 1_455
Mg10 Mg8 2.988599 1_555
Mg10 Mg11 3.007182 1_565
Mg10 Si3 3.047369 1_555
Mg10 Mg11 3.073750 1_465
Mg10 Si8 3.175867 1_555
Mg11 Si7 2.841937 1_555
Si0 Si1 2.348313 1_565
Si0 Si8 2.366054 1_555
Si1 Si9 2.391622 1_545
Si2 Si9 2.500354 1_545
Si2 Si9 2.548396 1_445
Si2 Si6 2.816268 1_545
Si3 Si8 2.422115 1_555
Si3 Si8 2.444453 1_655
Si3 Si7 2.616273 1_565
Si4 Si8 2.541917 1_545
Si4 Si7 2.557099 1_555
Si4 Si7 2.624349 1_455
Si5 Si6 2.483044 1_555
Si5 Si9 2.541032 1_555
Si5 Si6 2.584664 1_655
