# generated using pymatgen
data_MgAu4Se4(ClO3)4
_symmetry_space_group_name_H-M   'P 1'
_cell_length_a   4.80783414
_cell_length_b   10.05346511
_cell_length_c   11.40056724
_cell_angle_alpha   84.26200796
_cell_angle_beta   86.67055267
_cell_angle_gamma   93.91201165
_symmetry_Int_Tables_number   1
_chemical_formula_structural   MgAu4Se4(ClO3)4
_chemical_formula_sum   'Mg1 Au4 Se4 Cl4 O12'
_cell_volume   545.84206554
_cell_formula_units_Z   1
loop_
 _symmetry_equiv_pos_site_id
 _symmetry_equiv_pos_as_xyz
  1  'x, y, z'
loop_
 _atom_site_type_symbol
 _atom_site_label
 _atom_site_symmetry_multiplicity
 _atom_site_fract_x
 _atom_site_fract_y
 _atom_site_fract_z
 _atom_site_occupancy
  Mg  Mg0  1  0.83762504  0.26757356  0.30364537  1
  Au  Au0  1  0.05746388  0.54982744  0.20193091  1
  Au  Au1  1  0.02053494  0.98972913  0.99519578  1
  Au  Au2  1  0.02473197  0.41422801  0.81175930  1
  Au  Au3  1  0.99067411  0.03587910  0.50023437  1
  Se  Se0  1  0.78238445  0.89501918  0.27054207  1
  Se  Se1  1  0.24137954  0.69403781  0.92531059  1
  Se  Se2  1  0.65809391  0.22565272  0.03395146  1
  Se  Se3  1  0.29101885  0.13618939  0.73402126  1
  Cl  Cl0  1  0.38894603  0.48362974  0.67660059  1
  Cl  Cl1  1  0.79963320  0.48282973  0.37677717  1
  Cl  Cl2  1  0.26547488  0.23618125  0.44179355  1
  Cl  Cl3  1  0.70314920  0.84440500  0.54853036  1
  O  O0  1  0.70865196  0.95467160  0.12474958  1
  O  O1  1  0.67398789  0.35746967  0.92222945  1
  O  O2  1  0.10479451  0.85224119  0.26122477  1
  O  O3  1  0.01766122  0.18433929  0.02732524  1
  O  O4  1  0.65056672  0.30225435  0.15937438  1
  O  O5  1  0.97477571  0.79272095  0.97336092  1
  O  O6  1  0.31362528  0.60052008  0.05138728  1
  O  O7  1  0.99511890  0.22277570  0.76050720  1
  O  O8  1  0.83730730  0.06516337  0.33711924  1
  O  O9  1  0.98081077  0.59990601  0.85747628  1
  O  O10  1  0.33516585  0.03800222  0.86599977  1
  O  O11  1  0.12420189  0.00600352  0.66633411  1
loop_
_geom_bond_atom_site_label_1
_geom_bond_atom_site_label_2
_geom_bond_distance
_geom_bond_site_symmetry_2
Mg0 O4 1.932768 1_555
Mg0 O8 2.032431 1_555
Au0 O6 2.053311 1_555
Au0 Cl1 2.300940 1_455
Au1 O5 2.019578 1_455
Au1 O3 2.026988 1_566
Au1 O0 2.029952 1_456
Au1 O10 2.047272 1_565
Au2 O9 2.009075 1_455
Au2 O1 2.057605 1_455
Au2 O7 2.064832 1_455
Au2 Cl0 2.287431 1_555
Au3 O11 2.035185 1_655
Au3 O8 2.041550 1_555
Au3 Cl3 2.292644 1_545
Au3 Cl2 2.347556 1_655
Cl1 Mg0 2.410129 1_555
Cl2 Mg0 2.678994 1_455
Cl2 Mg0 3.070173 1_555
O0 Se0 1.773721 1_555
O1 Se2 1.738303 1_556
O2 Se0 1.637072 1_455
O3 Se2 1.804394 1_455
O4 Se2 1.690253 1_555
O5 Se1 1.768608 1_655
O6 Se1 1.703784 1_554
O7 Se3 1.744842 1_655
O8 Se0 1.947573 1_545
O9 Se1 1.777693 1_655
O10 Se3 1.747016 1_555
O11 Se3 1.755661 1_555
