# generated using pymatgen
data_Cs2AlInI6
_symmetry_space_group_name_H-M   'P 1'
_cell_length_a   8.64275123
_cell_length_b   8.64275123
_cell_length_c   8.64275123
_cell_angle_alpha   60.00000000
_cell_angle_beta   60.00000000
_cell_angle_gamma   60.00000000
_symmetry_Int_Tables_number   1
_chemical_formula_structural   Cs2AlInI6
_chemical_formula_sum   'Cs2 Al1 In1 I6'
_cell_volume   456.50027064
_cell_formula_units_Z   1
loop_
 _symmetry_equiv_pos_site_id
 _symmetry_equiv_pos_as_xyz
  1  'x, y, z'
loop_
 _atom_site_type_symbol
 _atom_site_label
 _atom_site_symmetry_multiplicity
 _atom_site_fract_x
 _atom_site_fract_y
 _atom_site_fract_z
 _atom_site_occupancy
  Cs  Cs0  1  0.75000000  0.75000000  0.75000000  1
  Cs  Cs1  1  0.25000000  0.25000000  0.25000000  1
  Al  Al0  1  0.00000000  0.00000000  0.00000000  1
  In  In0  1  0.50000000  0.50000000  0.50000000  1
  I  I0  1  0.77077900  0.22922100  0.22922100  1
  I  I1  1  0.22922100  0.22922100  0.77077900  1
  I  I2  1  0.22922100  0.77077900  0.77077900  1
  I  I3  1  0.22922100  0.77077900  0.22922100  1
  I  I4  1  0.77077900  0.22922100  0.77077900  1
  I  I5  1  0.77077900  0.77077900  0.22922100  1
loop_
_geom_bond_atom_site_label_1
_geom_bond_atom_site_label_2
_geom_bond_distance
_geom_bond_site_symmetry_2
Cs0 I4 4.328832 1_565
Cs0 I5 4.328832 1_556
Cs0 I2 4.328832 1_655
Cs0 I0 4.328832 1_565
Cs0 I0 4.328832 1_556
Cs0 I1 4.328832 1_655
Cs0 I1 4.328832 1_565
Cs0 I3 4.328832 1_556
Cs0 I3 4.328832 1_655
Cs0 I4 4.328832 1_555
Cs0 I2 4.328832 1_555
Cs0 I5 4.328832 1_555
Cs1 I3 4.328832 1_555
Cs1 I1 4.328832 1_555
Cs1 I0 4.328832 1_555
Cs1 I5 4.328832 1_545
Cs1 I2 4.328832 1_545
Cs1 I4 4.328832 1_455
Cs1 I4 4.328832 1_554
Cs1 I5 4.328832 1_455
Cs1 I2 4.328832 1_554
Cs1 I0 4.328832 1_455
Cs1 I3 4.328832 1_545
Cs1 I1 4.328832 1_554
Al0 I3 2.801699 1_545
Al0 I1 2.801699 1_554
Al0 I0 2.801699 1_455
Al0 I5 2.801699 1_445
Al0 I2 2.801699 1_544
Al0 I4 2.801699 1_454
I0 In0 3.309649 1_555
I1 In0 3.309649 1_555
I2 In0 3.309649 1_555
I3 In0 3.309649 1_555
I4 In0 3.309649 1_555
I5 In0 3.309649 1_555
