# generated using pymatgen
data_Li2FePO4F
_symmetry_space_group_name_H-M   'P 1'
_cell_length_a   5.37179300
_cell_length_b   5.42605915
_cell_length_c   7.51008971
_cell_angle_alpha   107.06274369
_cell_angle_beta   107.92467262
_cell_angle_gamma   94.82419309
_symmetry_Int_Tables_number   1
_chemical_formula_structural   Li2FePO4F
_chemical_formula_sum   'Li4 Fe2 P2 O8 F2'
_cell_volume   195.41473479
_cell_formula_units_Z   2
loop_
 _symmetry_equiv_pos_site_id
 _symmetry_equiv_pos_as_xyz
  1  'x, y, z'
loop_
 _atom_site_type_symbol
 _atom_site_label
 _atom_site_symmetry_multiplicity
 _atom_site_fract_x
 _atom_site_fract_y
 _atom_site_fract_z
 _atom_site_occupancy
  Li  Li0  1  0.23383100  0.58209300  0.15153400  1
  Li  Li1  1  0.46509900  0.13058400  0.84985400  1
  Li  Li2  1  0.49921600  0.99433300  0.47978100  1
  Li  Li3  1  0.80427200  0.44680200  0.82738800  1
  Fe  Fe0  1  0.99874700  0.00168700  0.00818200  1
  Fe  Fe1  1  0.98394700  0.98713800  0.49155300  1
  P  P0  1  0.65896200  0.37049400  0.24130900  1
  P  P1  1  0.33728600  0.62515500  0.76725200  1
  O  O0  1  0.26040500  0.78722000  0.62591400  1
  O  O1  1  0.73761200  0.22526700  0.39154400  1
  O  O2  1  0.33150800  0.32908900  0.66423900  1
  O  O3  1  0.14788800  0.65082300  0.89091600  1
  O  O4  1  0.83970400  0.34393300  0.10953200  1
  O  O5  1  0.36706800  0.24766600  0.08819000  1
  O  O6  1  0.65476600  0.66239500  0.34444600  1
  O  O7  1  0.63020800  0.74787200  0.90700900  1
  F  F0  1  0.81717300  0.08789600  0.73020600  1
  F  F1  1  0.16019000  0.91118700  0.27256000  1
loop_
_geom_bond_atom_site_label_1
_geom_bond_atom_site_label_2
_geom_bond_distance
_geom_bond_site_symmetry_2
Li0 O5 1.988178 1_555
Li0 O3 2.020943 1_554
Li0 O6 2.202072 1_555
Li0 O4 2.267465 1_455
Li1 O5 1.963132 1_556
Li1 O2 2.003420 1_555
Li1 O0 2.046235 1_545
Li1 O4 2.249557 1_556
Li1 O7 2.425237 1_545
Li2 O1 2.094995 1_565
Li2 O6 2.162603 1_555
Li2 O0 2.336870 1_555
Li2 O2 2.365749 1_565
Li3 O3 1.914298 1_655
Li3 O7 1.982019 1_555
Li3 O4 2.302461 1_556
Li3 O2 2.389839 1_555
Fe0 O7 2.096364 1_544
Fe0 O5 2.100125 1_655
Fe0 O4 2.143715 1_555
Fe0 O3 2.179186 1_644
Fe1 O1 2.056694 1_565
Fe1 O0 2.095540 1_655
Fe1 O6 2.140873 1_555
Fe1 O2 2.263892 1_665
O0 P1 1.552281 1_555
O1 P0 1.535189 1_555
O2 P1 1.558116 1_555
O3 P1 1.564158 1_555
O4 P0 1.572938 1_555
O5 P0 1.577897 1_555
O6 P0 1.551104 1_555
O7 P1 1.555001 1_555
F0 Li3 1.884081 1_555
F0 Li2 2.007156 1_545
F0 Fe1 2.193069 1_545
F0 Fe0 2.219189 1_556
F0 Li1 2.331431 1_555
F1 Li0 1.886518 1_555
F1 Li2 1.909809 1_555
F1 Fe1 2.096986 1_455
F1 Fe0 2.125880 1_465
