# generated using pymatgen
data_Mg16Al12P
_symmetry_space_group_name_H-M   'P 1'
_cell_length_a   9.05128718
_cell_length_b   9.05128718
_cell_length_c   9.05128662
_cell_angle_alpha   109.05506524
_cell_angle_beta   109.05506524
_cell_angle_gamma   109.05505981
_symmetry_Int_Tables_number   1
_chemical_formula_structural   Mg16Al12P
_chemical_formula_sum   'Mg16 Al12 P1'
_cell_volume   579.46144465
_cell_formula_units_Z   1
loop_
 _symmetry_equiv_pos_site_id
 _symmetry_equiv_pos_as_xyz
  1  'x, y, z'
loop_
 _atom_site_type_symbol
 _atom_site_label
 _atom_site_symmetry_multiplicity
 _atom_site_fract_x
 _atom_site_fract_y
 _atom_site_fract_z
 _atom_site_occupancy
  Mg  Mg0  1  0.99944700  0.99944700  0.99944700  1
  Mg  Mg1  1  0.00165100  0.65388100  0.00165100  1
  Mg  Mg2  1  0.58141600  0.29719800  0.58141600  1
  Mg  Mg3  1  0.31735700  0.72182000  0.31735700  1
  Mg  Mg4  1  0.40645400  0.00338200  0.68338900  1
  Mg  Mg5  1  0.29719800  0.58141600  0.58141600  1
  Mg  Mg6  1  0.68338900  0.40645400  0.00338200  1
  Mg  Mg7  1  0.65388100  0.00165100  0.00165100  1
  Mg  Mg8  1  0.00338200  0.68338900  0.40645400  1
  Mg  Mg9  1  0.31735700  0.31735700  0.72182000  1
  Mg  Mg10  1  0.72182000  0.31735700  0.31735700  1
  Mg  Mg11  1  0.40645400  0.68338900  0.00338200  1
  Mg  Mg12  1  0.00165100  0.00165100  0.65388100  1
  Mg  Mg13  1  0.00338200  0.40645400  0.68338900  1
  Mg  Mg14  1  0.58141600  0.58141600  0.29719800  1
  Mg  Mg15  1  0.68338900  0.00338200  0.40645400  1
  Al  Al0  1  0.81545200  0.19408200  0.81545100  1
  Al  Al1  1  0.64428600  0.83312300  0.64428600  1
  Al  Al2  1  0.18294400  0.99829500  0.36950500  1
  Al  Al3  1  0.99829500  0.36950500  0.18294400  1
  Al  Al4  1  0.64428600  0.64428600  0.83312300  1
  Al  Al5  1  0.99829500  0.18294400  0.36950500  1
  Al  Al6  1  0.81545200  0.81545200  0.19408200  1
  Al  Al7  1  0.19408200  0.81545200  0.81545100  1
  Al  Al8  1  0.36950500  0.18294400  0.99829500  1
  Al  Al9  1  0.83312300  0.64428600  0.64428600  1
  Al  Al10  1  0.18294400  0.36950500  0.99829500  1
  Al  Al11  1  0.36950500  0.99829500  0.18294400  1
  P  P0  1  0.29219300  0.29219300  0.29219300  1
loop_
_geom_bond_atom_site_label_1
_geom_bond_atom_site_label_2
_geom_bond_distance
_geom_bond_site_symmetry_2
Mg0 P0 2.703683 1_666
Mg0 Mg12 3.140901 1_665
Mg0 Mg7 3.140901 1_566
Mg0 Mg1 3.140901 1_656
Mg1 Mg3 3.013768 1_555
Mg1 Mg13 3.025559 1_554
Mg1 Mg6 3.025559 1_455
Mg2 P0 3.013073 1_555
Mg2 Mg9 3.078538 1_555
Mg2 Mg4 3.199919 1_555
Mg2 Mg6 3.324637 1_556
Mg3 Mg5 3.078538 1_555
Mg3 Mg4 3.085765 1_565
Mg3 Mg8 3.143526 1_555
Mg4 Mg7 3.025559 1_556
Mg4 Mg9 3.143526 1_555
Mg4 Mg5 3.324637 1_545
Mg5 P0 3.013073 1_555
Mg5 Mg9 3.078538 1_555
Mg5 Mg8 3.199919 1_555
Mg6 Mg9 3.085765 1_554
Mg10 Mg7 3.013768 1_555
Mg10 Mg2 3.078538 1_555
Mg10 Mg14 3.078538 1_555
Mg10 Mg13 3.085765 1_655
Mg10 Mg8 3.085765 1_655
Mg10 Mg6 3.143526 1_555
Mg10 Mg15 3.143526 1_555
Mg11 Mg7 3.025559 1_565
Mg11 Mg9 3.085765 1_554
Mg11 Mg3 3.143526 1_555
Mg11 Mg14 3.199919 1_555
Mg11 Mg5 3.324637 1_554
Mg12 Mg9 3.013768 1_555
Mg12 Mg8 3.025559 1_545
Mg12 Mg15 3.025559 1_455
Mg13 Mg9 3.143526 1_555
Mg13 Mg5 3.199919 1_555
Mg13 Mg2 3.324637 1_455
Mg14 P0 3.013074 1_555
Mg14 Mg3 3.078538 1_555
Mg14 Mg6 3.199919 1_555
Mg14 Mg8 3.324637 1_655
Mg14 Mg15 3.324637 1_565
Mg15 Mg3 3.085765 1_545
Mg15 Mg2 3.199919 1_555
Al0 Al1 2.701364 1_545
Al0 Al10 2.750519 1_655
Al0 Al3 2.750526 1_556
Al0 Mg13 2.951303 1_655
Al0 Mg6 2.951315 1_556
Al0 Mg2 3.081819 1_555
Al0 Mg15 3.115085 1_555
Al0 Mg4 3.115095 1_555
Al0 Mg12 3.142541 1_655
Al0 Mg7 3.142553 1_556
Al0 Mg0 3.266665 1_545
Al1 Al9 2.783955 1_555
Al1 Al4 2.783955 1_555
Al1 Mg14 2.949011 1_555
Al1 Mg5 2.949011 1_555
Al1 Mg3 2.986165 1_555
Al1 Mg7 3.050484 1_566
Al1 Mg12 3.050485 1_665
Al1 Mg15 3.072730 1_565
Al1 Mg4 3.072730 1_565
Al1 Mg0 3.141161 1_555
Al2 Al5 2.722213 1_465
Al2 Al6 2.750519 1_455
Al2 Mg4 2.875291 1_565
Al2 P0 2.914385 1_565
Al2 Mg8 2.971549 1_555
Al2 Mg9 3.024686 1_565
Al2 Mg3 3.091414 1_555
Al2 Mg2 3.119284 1_565
Al2 Mg1 3.132374 1_555
Al2 Mg0 3.221715 1_454
Al3 Al5 2.750401 1_555
Al3 Mg8 2.875291 1_655
Al3 P0 2.914385 1_655
Al3 Mg6 2.971549 1_555
Al3 Mg3 3.024686 1_655
Al3 Mg10 3.091414 1_555
Al3 Mg5 3.119283 1_655
Al3 Mg7 3.132374 1_555
Al3 Mg0 3.221715 1_544
Al4 Al6 2.701364 1_556
Al4 Al9 2.783955 1_555
Al4 Mg5 2.949011 1_555
Al4 Mg2 2.949011 1_555
Al4 Mg9 2.986165 1_555
Al4 Mg7 3.050485 1_566
Al4 Mg1 3.050485 1_656
Al4 Mg11 3.072730 1_556
Al4 Mg6 3.072730 1_556
Al4 Mg0 3.141162 1_555
Al5 Al6 2.750519 1_545
Al5 Mg13 2.875291 1_655
Al5 P0 2.914385 1_655
Al5 Mg15 2.971549 1_555
Al5 Mg9 3.024686 1_655
Al5 Mg10 3.091414 1_555
Al5 Mg5 3.119284 1_655
Al5 Mg7 3.132374 1_555
Al5 Mg0 3.221715 1_544
Al6 Mg15 2.951310 1_565
Al6 Mg8 2.951310 1_655
Al6 Mg14 3.081824 1_555
Al6 Mg11 3.115093 1_555
Al6 Mg6 3.115093 1_555
Al6 Mg7 3.142545 1_565
Al6 Mg1 3.142545 1_655
Al6 Mg0 3.266661 1_554
Al7 Al9 2.701364 1_455
Al7 Al8 2.750519 1_565
Al7 Mg4 2.951303 1_565
Al7 Mg11 2.951315 1_556
Al7 Mg5 3.081819 1_555
Al7 Mg8 3.115085 1_555
Al7 Mg13 3.115095 1_555
Al7 Mg12 3.142541 1_565
Al7 Mg1 3.142553 1_556
Al7 Mg0 3.266665 1_455
Al8 Mg6 2.875291 1_556
Al8 P0 2.914385 1_556
Al8 Mg4 2.971549 1_555
Al8 Mg10 3.024686 1_556
Al8 Mg9 3.091414 1_555
Al8 Mg14 3.119284 1_556
Al8 Mg12 3.132374 1_555
Al8 Mg0 3.221715 1_445
Al9 Mg14 2.949011 1_555
Al9 Mg2 2.949011 1_555
Al9 Mg10 2.986165 1_555
Al9 Mg1 3.050484 1_656
Al9 Mg12 3.050485 1_665
Al9 Mg8 3.072730 1_655
Al9 Mg13 3.072730 1_655
Al9 Mg0 3.141161 1_555
Al10 Al3 2.722213 1_456
Al10 Al8 2.750401 1_555
Al10 Mg11 2.875291 1_556
Al10 P0 2.914385 1_556
Al10 Mg13 2.971549 1_555
Al10 Mg3 3.024686 1_556
Al10 Mg9 3.091414 1_555
Al10 Mg14 3.119284 1_556
Al10 Mg12 3.132374 1_555
Al10 Mg0 3.221715 1_445
Al11 Al8 2.722213 1_564
Al11 Al2 2.750401 1_555
Al11 Al7 2.750526 1_554
Al11 Mg15 2.875291 1_565
Al11 P0 2.914385 1_565
Al11 Mg11 2.971549 1_555
Al11 Mg10 3.024686 1_565
Al11 Mg3 3.091414 1_555
Al11 Mg2 3.119283 1_565
Al11 Mg1 3.132374 1_555
Al11 Mg0 3.221715 1_454
