# generated using pymatgen
data_Ge3Mo5
_symmetry_space_group_name_H-M   'P 1'
_cell_length_a   4.96365443
_cell_length_b   7.39295118
_cell_length_c   7.39295171
_cell_angle_alpha   83.52926571
_cell_angle_beta   70.38478188
_cell_angle_gamma   70.38478265
_symmetry_Int_Tables_number   1
_chemical_formula_structural   Ge3Mo5
_chemical_formula_sum   'Ge6 Mo10'
_cell_volume   240.71870800
_cell_formula_units_Z   2
loop_
 _symmetry_equiv_pos_site_id
 _symmetry_equiv_pos_as_xyz
  1  'x, y, z'
loop_
 _atom_site_type_symbol
 _atom_site_label
 _atom_site_symmetry_multiplicity
 _atom_site_fract_x
 _atom_site_fract_y
 _atom_site_fract_z
 _atom_site_occupancy
  Ge  Ge0  1  0.75000000  -0.00000000  0.00000000  1
  Ge  Ge1  1  0.25000000  -0.00000000  0.00000000  1
  Ge  Ge2  1  0.83200837  0.50000000  0.83598226  1
  Ge  Ge3  1  0.66799163  0.16401774  0.50000000  1
  Ge  Ge4  1  0.33200837  0.83598226  0.50000000  1
  Ge  Ge5  1  0.16799163  0.50000000  0.16401774  1
  Mo  Mo0  1  0.42272323  0.30704136  0.84751218  1
  Mo  Mo1  1  0.57727677  0.69295864  0.15248782  1
  Mo  Mo2  1  0.25000000  0.50000000  0.50000000  1
  Mo  Mo3  1  0.75000000  0.50000000  0.50000000  1
  Mo  Mo4  1  0.72976359  0.84751218  0.69295864  1
  Mo  Mo5  1  0.27023641  0.15248782  0.30704136  1
  Mo  Mo6  1  0.92272323  0.84751218  0.30704136  1
  Mo  Mo7  1  0.22976359  0.69295864  0.84751218  1
  Mo  Mo8  1  0.77023641  0.30704136  0.15248782  1
  Mo  Mo9  1  0.07727677  0.15248782  0.69295864  1
loop_
_geom_bond_atom_site_label_1
_geom_bond_atom_site_label_2
_geom_bond_distance
_geom_bond_site_symmetry_2
Ge0 Ge1 2.481827 1_655
Ge0 Ge1 2.481827 1_555
Ge0 Mo7 2.690627 1_644
Ge0 Mo5 2.690627 1_555
Ge0 Mo1 2.690629 1_545
Ge0 Mo0 2.690629 1_554
Ge0 Mo9 2.690629 1_654
Ge0 Mo6 2.690629 1_545
Ge0 Mo8 2.690631 1_555
Ge0 Mo4 2.690631 1_544
Ge1 Mo8 2.690627 1_455
Ge1 Mo4 2.690627 1_544
Ge1 Mo0 2.690629 1_554
Ge1 Mo1 2.690629 1_545
Ge1 Mo6 2.690629 1_445
Ge1 Mo9 2.690629 1_554
Ge1 Mo7 2.690631 1_544
Ge1 Mo5 2.690631 1_555
Ge2 Mo8 2.581436 1_556
Ge2 Mo1 2.581437 1_556
Ge2 Mo4 2.616995 1_555
Ge2 Mo9 2.616995 1_655
Ge2 Mo3 2.648456 1_555
Ge2 Mo2 2.648458 1_655
Ge2 Mo7 2.823396 1_655
Ge2 Mo0 2.823396 1_555
Ge2 Mo0 2.823400 1_655
Ge2 Mo7 2.823400 1_555
Ge3 Mo4 2.581436 1_545
Ge3 Mo6 2.581436 1_545
Ge3 Mo8 2.616996 1_555
Ge3 Mo0 2.616996 1_555
Ge3 Mo3 2.648455 1_555
Ge3 Mo2 2.648458 1_555
Ge3 Mo5 2.823396 1_555
Ge3 Mo9 2.823396 1_655
Ge3 Mo9 2.823400 1_555
Ge3 Mo5 2.823400 1_655
Ge4 Mo5 2.581436 1_565
Ge4 Mo9 2.581436 1_565
Ge4 Mo7 2.616996 1_555
Ge4 Mo1 2.616996 1_555
Ge4 Mo2 2.648455 1_555
Ge4 Mo3 2.648458 1_555
Ge4 Mo4 2.823396 1_555
Ge4 Mo6 2.823396 1_455
Ge4 Mo6 2.823400 1_555
Ge4 Mo4 2.823400 1_455
Ge5 Mo7 2.581436 1_554
Ge5 Mo0 2.581437 1_554
Ge5 Mo5 2.616995 1_555
Ge5 Mo6 2.616995 1_455
Ge5 Mo2 2.648456 1_555
Ge5 Mo3 2.648458 1_455
Ge5 Mo8 2.823396 1_455
Ge5 Mo1 2.823396 1_555
Ge5 Mo1 2.823400 1_455
Ge5 Mo8 2.823400 1_555
Mo2 Mo3 2.481827 1_555
Mo2 Mo3 2.481827 1_455
