# generated using pymatgen
data_Y2InGe2
_symmetry_space_group_name_H-M   'P 1'
_cell_length_a   4.16407300
_cell_length_b   7.43411600
_cell_length_c   7.43411600
_cell_angle_alpha   90.00000000
_cell_angle_beta   90.00000000
_cell_angle_gamma   90.00000000
_symmetry_Int_Tables_number   1
_chemical_formula_structural   Y2InGe2
_chemical_formula_sum   'Y4 In2 Ge4'
_cell_volume   230.13199446
_cell_formula_units_Z   2
loop_
 _symmetry_equiv_pos_site_id
 _symmetry_equiv_pos_as_xyz
  1  'x, y, z'
loop_
 _atom_site_type_symbol
 _atom_site_label
 _atom_site_symmetry_multiplicity
 _atom_site_fract_x
 _atom_site_fract_y
 _atom_site_fract_z
 _atom_site_occupancy
  Y  Y0  1  0.50000000  0.17914000  0.67914000  1
  Y  Y1  1  0.50000000  0.82086000  0.32086000  1
  Y  Y2  1  0.50000000  0.32086000  0.17914000  1
  Y  Y3  1  0.50000000  0.67914000  0.82086000  1
  In  In0  1  0.00000000  0.00000000  0.00000000  1
  In  In1  1  0.00000000  0.50000000  0.50000000  1
  Ge  Ge0  1  0.00000000  0.62113000  0.12113000  1
  Ge  Ge1  1  0.00000000  0.37887000  0.87887000  1
  Ge  Ge2  1  0.00000000  0.87887000  0.62113000  1
  Ge  Ge3  1  0.00000000  0.12113000  0.37887000  1
loop_
_geom_bond_atom_site_label_1
_geom_bond_atom_site_label_2
_geom_bond_distance
_geom_bond_site_symmetry_2
In0 Y3 3.434841 1_444
In0 Y3 3.434841 1_544
In0 Y0 3.434841 1_554
In0 Y0 3.434841 1_454
In0 Y2 3.434841 1_555
In0 Y1 3.434841 1_545
In0 Y1 3.434841 1_445
In0 Y2 3.434841 1_455
In1 Y2 3.434841 1_455
In1 Y2 3.434841 1_555
In1 Y1 3.434841 1_555
In1 Y0 3.434841 1_455
In1 Y0 3.434841 1_555
In1 Y1 3.434841 1_455
In1 Y3 3.434841 1_455
In1 Y3 3.434841 1_555
Ge0 Ge1 2.546983 1_554
Ge0 In0 2.957012 1_565
Ge0 In1 2.957012 1_555
Ge0 Y1 2.957065 1_455
Ge0 Y1 2.957065 1_555
Ge0 Y2 3.082817 1_455
Ge0 Y3 3.082817 1_554
Ge0 Y2 3.082817 1_555
Ge0 Y3 3.082817 1_454
Ge1 In0 2.957012 1_556
Ge1 In1 2.957012 1_555
Ge1 Y0 2.957065 1_555
Ge1 Y0 2.957065 1_455
Ge1 Y3 3.082817 1_555
Ge1 Y2 3.082817 1_456
Ge1 Y2 3.082817 1_556
Ge1 Y3 3.082817 1_455
Ge2 Ge3 2.546983 1_565
Ge2 In0 2.957012 1_566
Ge2 In1 2.957012 1_555
Ge2 Y3 2.957065 1_555
Ge2 Y3 2.957065 1_455
Ge2 Y1 3.082817 1_455
Ge2 Y0 3.082817 1_565
Ge2 Y0 3.082817 1_465
Ge2 Y1 3.082817 1_555
Ge3 In1 2.957012 1_555
Ge3 In0 2.957012 1_555
Ge3 Y2 2.957065 1_555
Ge3 Y2 2.957065 1_455
Ge3 Y0 3.082817 1_555
Ge3 Y1 3.082817 1_445
Ge3 Y1 3.082817 1_545
Ge3 Y0 3.082817 1_455
