# generated using pymatgen
data_LiAl(PS3)2
_symmetry_space_group_name_H-M   'P 1'
_cell_length_a   6.23430541
_cell_length_b   6.23430541
_cell_length_c   12.36906159
_cell_angle_alpha   87.42908259
_cell_angle_beta   87.42908259
_cell_angle_gamma   113.31352764
_symmetry_Int_Tables_number   1
_chemical_formula_structural   LiAl(PS3)2
_chemical_formula_sum   'Li2 Al2 P4 S12'
_cell_volume   440.01910940
_cell_formula_units_Z   2
loop_
 _symmetry_equiv_pos_site_id
 _symmetry_equiv_pos_as_xyz
  1  'x, y, z'
loop_
 _atom_site_type_symbol
 _atom_site_label
 _atom_site_symmetry_multiplicity
 _atom_site_fract_x
 _atom_site_fract_y
 _atom_site_fract_z
 _atom_site_occupancy
  Li  Li0  1  0.84740100  0.15259900  0.25000000  1
  Li  Li1  1  0.15259900  0.84740100  0.75000000  1
  Al  Al0  1  0.48342000  0.51658000  0.25000000  1
  Al  Al1  1  0.51658000  0.48342000  0.75000000  1
  P  P0  1  0.01176700  0.68876400  0.22053400  1
  P  P1  1  0.31123600  0.98823300  0.27946600  1
  P  P2  1  0.98823300  0.31123600  0.77946600  1
  P  P3  1  0.68876400  0.01176700  0.72053400  1
  S  S0  1  0.80710000  0.79763100  0.12797800  1
  S  S1  1  0.20236900  0.19290000  0.37202200  1
  S  S2  1  0.19290000  0.20236900  0.87202200  1
  S  S3  1  0.79763100  0.80710000  0.62797800  1
  S  S4  1  0.80927500  0.50462700  0.35502400  1
  S  S5  1  0.49537300  0.19072500  0.14497600  1
  S  S6  1  0.19072500  0.49537300  0.64497600  1
  S  S7  1  0.50462700  0.80927500  0.85502400  1
  S  S8  1  0.18045800  0.52159000  0.13377400  1
  S  S9  1  0.47841000  0.81954200  0.36622600  1
  S  S10  1  0.81954200  0.47841000  0.86622600  1
  S  S11  1  0.52159000  0.18045800  0.63377400  1
loop_
_geom_bond_atom_site_label_1
_geom_bond_atom_site_label_2
_geom_bond_distance
_geom_bond_site_symmetry_2
Li0 S1 2.670571 1_655
Li0 S0 2.670571 1_545
Li0 S4 2.683556 1_555
Li0 S5 2.683556 1_555
Li0 S9 2.706421 1_545
Li0 S8 2.706421 1_655
Li1 S2 2.670571 1_565
Li1 S3 2.670571 1_455
Li1 S7 2.683556 1_555
Li1 S6 2.683556 1_555
Li1 S10 2.706421 1_455
Li1 S11 2.706421 1_565
Al0 S9 2.433383 1_555
Al0 S8 2.433383 1_555
Al0 S1 2.472035 1_555
Al0 S0 2.472035 1_555
Al0 S4 2.483521 1_555
Al0 S5 2.483521 1_555
Al1 S10 2.433383 1_555
Al1 S11 2.433383 1_555
Al1 S2 2.472035 1_555
Al1 S3 2.472035 1_555
Al1 S7 2.483521 1_555
Al1 S6 2.483521 1_555
P0 S0 2.036211 1_455
P0 S4 2.042540 1_455
P0 S8 2.051951 1_555
P1 S1 2.036211 1_565
P1 S5 2.042540 1_565
P1 S9 2.051951 1_555
P2 S2 2.036211 1_655
P2 S6 2.042540 1_655
P2 S10 2.051951 1_555
P3 S3 2.036211 1_545
P3 S7 2.042540 1_545
P3 S11 2.051951 1_555
