# generated using pymatgen
data_MgSn2O5
_symmetry_space_group_name_H-M   'P 1'
_cell_length_a   5.60673146
_cell_length_b   5.60673146
_cell_length_c   10.35372400
_cell_angle_alpha   90.00000000
_cell_angle_beta   90.00000000
_cell_angle_gamma   138.24089016
_symmetry_Int_Tables_number   1
_chemical_formula_structural   MgSn2O5
_chemical_formula_sum   'Mg2 Sn4 O10'
_cell_volume   216.76567171
_cell_formula_units_Z   2
loop_
 _symmetry_equiv_pos_site_id
 _symmetry_equiv_pos_as_xyz
  1  'x, y, z'
loop_
 _atom_site_type_symbol
 _atom_site_label
 _atom_site_symmetry_multiplicity
 _atom_site_fract_x
 _atom_site_fract_y
 _atom_site_fract_z
 _atom_site_occupancy
  Mg  Mg0  1  0.18442300  0.81557700  0.75000000  1
  Mg  Mg1  1  0.81557700  0.18442300  0.25000000  1
  Sn  Sn0  1  0.86394800  0.13605200  0.56674600  1
  Sn  Sn1  1  0.13605200  0.86394800  0.43325400  1
  Sn  Sn2  1  0.13605200  0.86394800  0.06674600  1
  Sn  Sn3  1  0.86394800  0.13605200  0.93325400  1
  O  O0  1  0.22784600  0.77215400  0.25000000  1
  O  O1  1  0.77215400  0.22784600  0.75000000  1
  O  O2  1  0.69703000  0.30297000  0.06622100  1
  O  O3  1  0.30297000  0.69703000  0.93377900  1
  O  O4  1  0.30297000  0.69703000  0.56622100  1
  O  O5  1  0.69703000  0.30297000  0.43377900  1
  O  O6  1  0.05066000  0.94934000  0.61446200  1
  O  O7  1  0.94934000  0.05066000  0.38553800  1
  O  O8  1  0.05066000  0.94934000  0.88553800  1
  O  O9  1  0.94934000  0.05066000  0.11446200  1
loop_
_geom_bond_atom_site_label_1
_geom_bond_atom_site_label_2
_geom_bond_distance
_geom_bond_site_symmetry_2
Mg0 O8 1.983273 1_555
Mg0 O6 1.983273 1_555
Mg0 O1 2.199529 1_455
Mg0 O1 2.199529 1_565
Mg0 O3 2.272283 1_555
Mg0 O4 2.272283 1_555
Mg1 O7 1.983273 1_555
Mg1 O9 1.983273 1_555
Mg1 O0 2.199529 1_655
Mg1 O0 2.199529 1_545
Mg1 O5 2.272283 1_555
Mg1 O2 2.272283 1_555
O0 Sn2 2.127184 1_555
O0 Sn1 2.127184 1_555
O1 Sn3 2.127184 1_555
O1 Sn0 2.127184 1_555
O2 Sn2 2.097916 1_655
O2 Sn2 2.097916 1_545
O2 Sn3 2.225684 1_554
O3 Sn3 2.097916 1_565
O3 Sn3 2.097916 1_455
O3 Sn2 2.225684 1_556
O4 Sn0 2.097916 1_565
O4 Sn0 2.097916 1_455
O4 Sn1 2.225684 1_555
O5 Sn1 2.097916 1_655
O5 Sn1 2.097916 1_545
O5 Sn0 2.225684 1_555
O6 Sn0 2.017620 1_465
O6 Sn1 2.078571 1_555
O7 Sn1 2.017620 1_645
O7 Sn0 2.078571 1_555
O8 Sn3 2.017620 1_465
O8 Sn2 2.078571 1_556
O9 Sn2 2.017620 1_645
O9 Sn3 2.078571 1_554
