# generated using pymatgen
data_Rb2P2Pd
_symmetry_space_group_name_H-M   'P 1'
_cell_length_a   7.99195718
_cell_length_b   7.99195718
_cell_length_c   6.03958425
_cell_angle_alpha   90.00000000
_cell_angle_beta   90.00000000
_cell_angle_gamma   131.21712080
_symmetry_Int_Tables_number   1
_chemical_formula_structural   Rb2P2Pd
_chemical_formula_sum   'Rb4 P4 Pd2'
_cell_volume   290.17306069
_cell_formula_units_Z   2
loop_
 _symmetry_equiv_pos_site_id
 _symmetry_equiv_pos_as_xyz
  1  'x, y, z'
loop_
 _atom_site_type_symbol
 _atom_site_label
 _atom_site_symmetry_multiplicity
 _atom_site_fract_x
 _atom_site_fract_y
 _atom_site_fract_z
 _atom_site_occupancy
  Rb  Rb0  1  0.78759998  0.21240002  0.25000000  1
  Rb  Rb1  1  0.21240002  0.78759998  0.75000000  1
  Rb  Rb2  1  0.42044499  0.57955501  0.25000000  1
  Rb  Rb3  1  0.57955501  0.42044499  0.75000000  1
  P  P0  1  0.94209198  0.73088126  0.25000000  1
  P  P1  1  0.05790802  0.26911874  0.75000000  1
  P  P2  1  0.26911874  0.05790802  0.25000000  1
  P  P3  1  0.73088126  0.94209198  0.75000000  1
  Pd  Pd0  1  -0.00000000  -0.00000000  0.00000000  1
  Pd  Pd1  1  -0.00000000  -0.00000000  0.50000000  1
loop_
_geom_bond_atom_site_label_1
_geom_bond_atom_site_label_2
_geom_bond_distance
_geom_bond_site_symmetry_2
P0 P2 2.158655 1_665
P0 Pd1 2.410001 1_665
P0 Pd0 2.410001 1_665
P0 Rb0 3.457211 1_555
P0 Rb2 3.492653 1_555
P0 Rb1 3.563846 1_655
P0 Rb1 3.563846 1_654
P0 Rb3 3.767789 1_554
P0 Rb3 3.767789 1_555
P1 P3 2.158655 1_445
P1 Pd0 2.410001 1_556
P1 Pd1 2.410001 1_555
P1 Rb1 3.457211 1_555
P1 Rb3 3.492653 1_555
P1 Rb0 3.563846 1_456
P1 Rb0 3.563846 1_455
P1 Rb2 3.767789 1_555
P1 Rb2 3.767789 1_556
P2 Pd1 2.410001 1_555
P2 Pd0 2.410001 1_555
P2 Rb0 3.457211 1_555
P2 Rb2 3.492653 1_555
P2 Rb1 3.563846 1_544
P2 Rb1 3.563846 1_545
P2 Rb3 3.767789 1_554
P2 Rb3 3.767789 1_555
P3 Pd1 2.410001 1_665
P3 Pd0 2.410001 1_666
P3 Rb1 3.457211 1_555
P3 Rb3 3.492653 1_555
P3 Rb0 3.563846 1_565
P3 Rb0 3.563846 1_566
P3 Rb2 3.767789 1_555
P3 Rb2 3.767789 1_556
Pd0 Rb1 3.440936 1_544
Pd0 Rb0 3.440936 1_455
Pd1 Rb1 3.440936 1_545
Pd1 Rb0 3.440936 1_455
