# generated using pymatgen
data_Al2PbSe4
_symmetry_space_group_name_H-M   'P 1'
_cell_length_a   6.25879088
_cell_length_b   6.30157020
_cell_length_c   10.92146935
_cell_angle_alpha   90.00000000
_cell_angle_beta   90.00000000
_cell_angle_gamma   119.63792216
_symmetry_Int_Tables_number   1
_chemical_formula_structural   Al2PbSe4
_chemical_formula_sum   'Al4 Pb2 Se8'
_cell_volume   374.38973050
_cell_formula_units_Z   2
loop_
 _symmetry_equiv_pos_site_id
 _symmetry_equiv_pos_as_xyz
  1  'x, y, z'
loop_
 _atom_site_type_symbol
 _atom_site_label
 _atom_site_symmetry_multiplicity
 _atom_site_fract_x
 _atom_site_fract_y
 _atom_site_fract_z
 _atom_site_occupancy
  Al  Al0  1  0.22072855  0.94953306  0.50000000  1
  Al  Al1  1  0.77224616  0.23071613  0.50000000  1
  Al  Al2  1  0.76353624  0.24617434  0.00000000  1
  Al  Al3  1  0.23913092  0.76340367  0.00000000  1
  Pb  Pb0  1  0.50221165  0.49474956  0.24986728  1
  Pb  Pb1  1  0.50221165  0.49474956  0.75013272  1
  Se  Se0  1  0.81041447  0.63138952  0.50000000  1
  Se  Se1  1  0.18134944  0.31187841  0.50000000  1
  Se  Se2  1  0.34911993  0.18640594  0.00000000  1
  Se  Se3  1  0.65269486  0.82482717  0.00000000  1
  Se  Se4  1  0.00119508  0.50460582  0.16692357  1
  Se  Se5  1  0.49748248  0.01398000  0.33341484  1
  Se  Se6  1  0.00119508  0.50460582  0.83307643  1
  Se  Se7  1  0.49748248  0.01398000  0.66658516  1
loop_
_geom_bond_atom_site_label_1
_geom_bond_atom_site_label_2
_geom_bond_distance
_geom_bond_site_symmetry_2
Al0 Se0 2.349936 1_455
Al0 Se5 2.404073 1_565
Al0 Se7 2.404073 1_565
Al0 Se1 2.414747 1_565
Al1 Se1 2.349999 1_655
Al1 Se7 2.410347 1_555
Al1 Se5 2.410347 1_555
Al1 Se0 2.415677 1_555
Al2 Se3 2.389417 1_545
Al2 Se4 2.406727 1_655
Al2 Se6 2.406727 1_654
Al2 Se2 2.429647 1_555
Al3 Se2 2.400905 1_565
Al3 Se4 2.408076 1_555
Al3 Se6 2.408076 1_554
Al3 Se3 2.420494 1_555
Pb0 Se5 3.150122 1_555
Pb0 Se0 3.206626 1_555
Pb0 Se2 3.209231 1_555
Pb0 Se4 3.222723 1_655
Pb0 Se1 3.245745 1_555
Pb0 Se3 3.274589 1_555
Pb0 Se4 3.293942 1_555
Pb0 Se5 3.411014 1_565
Pb1 Se7 3.150122 1_555
Pb1 Se0 3.206626 1_555
Pb1 Se2 3.209231 1_556
Pb1 Se6 3.222723 1_655
Pb1 Se1 3.245745 1_555
Pb1 Se3 3.274589 1_556
Pb1 Se6 3.293942 1_555
Pb1 Se7 3.411014 1_565
