# generated using pymatgen
data_Yb20Zn30Ge31
_symmetry_space_group_name_H-M   'P 1'
_cell_length_a   4.33270998
_cell_length_b   8.23620385
_cell_length_c   46.87913937
_cell_angle_alpha   93.44280829
_cell_angle_beta   90.00000000
_cell_angle_gamma   105.24982904
_symmetry_Int_Tables_number   1
_chemical_formula_structural   Yb20Zn30Ge31
_chemical_formula_sum   'Yb20 Zn30 Ge31'
_cell_volume   1610.85092215
_cell_formula_units_Z   1
loop_
 _symmetry_equiv_pos_site_id
 _symmetry_equiv_pos_as_xyz
  1  'x, y, z'
loop_
 _atom_site_type_symbol
 _atom_site_label
 _atom_site_symmetry_multiplicity
 _atom_site_fract_x
 _atom_site_fract_y
 _atom_site_fract_z
 _atom_site_occupancy
  Yb  Yb0  1  0.60124505  0.20249011  0.98180918  1
  Yb  Yb1  1  0.40239553  0.80479107  0.58193616  1
  Yb  Yb2  1  0.00226919  0.00453839  0.78196032  1
  Yb  Yb3  1  0.20112275  0.40224551  0.18341800  1
  Yb  Yb4  1  0.80253423  0.60506846  0.38198289  1
  Yb  Yb5  1  0.79746577  0.59493154  0.81801711  1
  Yb  Yb6  1  0.59773081  0.19546161  0.41803968  1
  Yb  Yb7  1  0.19760447  0.39520893  0.61806384  1
  Yb  Yb8  1  0.39887725  0.79775449  0.01658200  1
  Yb  Yb9  1  0.99875495  0.99750989  0.21819082  1
  Yb  Yb10  1  0.00537575  0.01075150  0.86646795  1
  Yb  Yb11  1  0.80497494  0.60994988  0.46626326  1
  Yb  Yb12  1  0.40508524  0.81017047  0.66630095  1
  Yb  Yb13  1  0.60801989  0.21603978  0.06538518  1
  Yb  Yb14  1  0.20494497  0.40988994  0.26631623  1
  Yb  Yb15  1  0.39505503  0.79011006  0.93368377  1
  Yb  Yb16  1  0.19491476  0.38982953  0.53369905  1
  Yb  Yb17  1  0.79502506  0.59005012  0.73373674  1
  Yb  Yb18  1  0.99198011  0.98396022  0.13461482  1
  Yb  Yb19  1  0.59462425  0.18924850  0.33353205  1
  Zn  Zn0  1  0.80829912  0.61659823  0.97848534  1
  Zn  Zn1  1  0.60832243  0.21664486  0.57982597  1
  Zn  Zn2  1  0.20829842  0.41659683  0.77984774  1
  Zn  Zn3  1  0.40979472  0.81958945  0.18168127  1
  Zn  Zn4  1  0.00830378  0.01660756  0.37978828  1
  Zn  Zn5  1  0.59169622  0.18339244  0.82021172  1
  Zn  Zn6  1  0.39170158  0.78340317  0.42015226  1
  Zn  Zn7  1  0.99167757  0.98335514  0.62017403  1
  Zn  Zn8  1  0.19020528  0.38041055  0.01831873  1
  Zn  Zn9  1  0.79170088  0.58340177  0.22151466  1
  Zn  Zn10  1  0.72097973  0.44195945  0.92831515  1
  Zn  Zn11  1  0.52232134  0.04464269  0.52852924  1
  Zn  Zn12  1  0.12232376  0.24464753  0.72856823  1
  Zn  Zn13  1  0.32849847  0.65699693  0.13300905  1
  Zn  Zn14  1  0.92238636  0.84477272  0.32853779  1
  Zn  Zn15  1  0.67761364  0.35522728  0.87146221  1
  Zn  Zn16  1  0.47767624  0.95535247  0.47143177  1
  Zn  Zn17  1  0.07767866  0.15535731  0.67147076  1
  Zn  Zn18  1  0.27150153  0.54300307  0.06699095  1
  Zn  Zn19  1  0.87902027  0.75804055  0.27168485  1
  Zn  Zn20  1  0.06878103  0.13756205  0.93486999  1
  Zn  Zn21  1  0.86824661  0.73649322  0.53490282  1
  Zn  Zn22  1  0.46814201  0.93628402  0.73493311  1
  Zn  Zn23  1  0.66172111  0.32344221  0.13647598  1
  Zn  Zn24  1  0.26826209  0.53652419  0.33483183  1
  Zn  Zn25  1  0.33173791  0.66347581  0.86516817  1
  Zn  Zn26  1  0.13185799  0.26371598  0.46506689  1
  Zn  Zn27  1  0.73175339  0.46350678  0.66509718  1
  Zn  Zn28  1  0.93827889  0.87655779  0.06352402  1
  Zn  Zn29  1  0.53121897  0.06243795  0.26513001  1
  Ge  Ge0  1  0.83393875  0.66787750  0.89230954  1
  Ge  Ge1  1  0.63390518  0.26781036  0.49216058  1
  Ge  Ge2  1  0.23398985  0.46797969  0.69223800  1
  Ge  Ge3  1  0.43658253  0.87316507  0.09286213  1
  Ge  Ge4  1  0.03437473  0.06874947  0.29222591  1
  Ge  Ge5  1  0.56562527  0.13125053  0.90777409  1
  Ge  Ge6  1  0.36601015  0.73202031  0.50776200  1
  Ge  Ge7  1  0.96609482  0.93218964  0.70783942  1
  Ge  Ge8  1  0.16341747  0.32683493  0.10713787  1
  Ge  Ge9  1  0.76606125  0.53212250  0.30769046  1
  Ge  Ge10  1  0.17624138  0.35248276  0.83512480  1
  Ge  Ge11  1  0.97614862  0.95229725  0.43509167  1
  Ge  Ge12  1  0.57619279  0.15238557  0.63514593  1
  Ge  Ge13  1  0.77747536  0.55495072  0.03375402  1
  Ge  Ge14  1  0.37566962  0.75133924  0.23495586  1
  Ge  Ge15  1  0.22433038  0.44866076  0.96504414  1
  Ge  Ge16  1  0.02380721  0.04761443  0.56485407  1
  Ge  Ge17  1  0.62385138  0.24770275  0.76490833  1
  Ge  Ge18  1  0.82252464  0.64504928  0.16624598  1
  Ge  Ge19  1  0.42375862  0.84751724  0.36487520  1
  Ge  Ge20  1  0.96492429  0.92984859  0.97509278  1
  Ge  Ge21  1  0.76508308  0.53016616  0.57538487  1
  Ge  Ge22  1  0.36508857  0.73017713  0.77544647  1
  Ge  Ge23  1  0.56353744  0.12707489  0.17598820  1
  Ge  Ge24  1  0.16499371  0.32998741  0.37533283  1
  Ge  Ge25  1  0.43500629  0.87001259  0.82466717  1
  Ge  Ge26  1  0.23491143  0.46982287  0.42455353  1
  Ge  Ge27  1  0.83491692  0.66983384  0.62461513  1
  Ge  Ge28  1  0.03646256  0.07292511  0.02401180  1
  Ge  Ge29  1  0.63507571  0.27015141  0.22490722  1
  Ge  Ge30  1  0.80000000  0.60000000  0.10000000  1
loop_
_geom_bond_atom_site_label_1
_geom_bond_atom_site_label_2
_geom_bond_distance
_geom_bond_site_symmetry_2
Yb0 Zn8 3.052871 1_556
Yb0 Zn8 3.052871 1_656
Yb0 Zn20 3.108056 1_555
Yb0 Zn20 3.108056 1_655
Yb0 Zn0 3.303943 1_555
Yb1 Zn7 3.098874 1_455
Yb1 Zn7 3.098874 1_555
Yb1 Zn21 3.114510 1_455
Yb1 Zn21 3.114510 1_555
Yb1 Zn11 3.239579 1_565
Yb1 Zn1 3.280313 1_565
Yb2 Zn5 3.100195 1_455
Yb2 Zn5 3.100195 1_555
Yb2 Zn22 3.114264 1_445
Yb2 Zn22 3.114264 1_545
Yb2 Zn12 3.240319 1_555
Yb2 Zn2 3.281948 1_555
Yb3 Zn9 3.103997 1_555
Yb3 Zn9 3.103997 1_455
Yb3 Zn23 3.123509 1_455
Yb3 Zn23 3.123509 1_555
Yb3 Zn13 3.205884 1_555
Yb3 Zn3 3.322356 1_555
Yb4 Zn6 3.096340 1_655
Yb4 Zn6 3.096340 1_555
Yb4 Zn24 3.118614 1_655
Yb4 Zn24 3.118614 1_555
Yb4 Zn14 3.240283 1_555
Yb4 Zn4 3.278181 1_665
Yb5 Zn2 3.096340 1_555
Yb5 Zn2 3.096340 1_655
Yb5 Zn25 3.118614 1_555
Yb5 Zn25 3.118614 1_655
Yb5 Zn15 3.240283 1_555
Yb5 Zn5 3.278181 1_555
Yb6 Zn4 3.100195 1_655
Yb6 Zn4 3.100195 1_555
Yb6 Zn26 3.114264 1_655
Yb6 Zn26 3.114264 1_555
Yb6 Zn16 3.240319 1_545
Yb6 Zn6 3.281948 1_545
Yb7 Zn1 3.098874 1_555
Yb7 Zn1 3.098874 1_455
Yb7 Zn27 3.114510 1_555
Yb7 Zn27 3.114510 1_455
Yb7 Zn17 3.239579 1_555
Yb7 Zn7 3.280313 1_445
Yb8 Zn0 3.103997 1_454
Yb8 Zn0 3.103997 1_554
Yb8 Zn28 3.123509 1_555
Yb8 Zn28 3.123509 1_455
Yb8 Zn18 3.205884 1_555
Yb8 Zn8 3.322356 1_555
Yb9 Zn3 3.052871 1_655
Yb9 Zn3 3.052871 1_555
Yb9 Zn29 3.108056 1_665
Yb9 Zn29 3.108056 1_565
Yb9 Zn9 3.303943 1_555
Yb10 Zn5 3.412849 1_455
Yb10 Zn5 3.412849 1_555
Yb11 Zn6 3.411215 1_655
Yb11 Zn6 3.411215 1_555
Yb12 Zn7 3.410761 1_555
Yb12 Zn7 3.410761 1_455
Yb13 Zn18 3.380030 1_655
Yb13 Zn18 3.380030 1_555
Yb13 Zn23 3.388364 1_555
Yb13 Zn8 3.409715 1_555
Yb13 Zn8 3.409715 1_655
Yb13 Zn28 3.456645 1_545
Yb13 Zn28 3.456645 1_445
Yb14 Zn9 3.371297 1_555
Yb14 Zn9 3.371297 1_455
Yb15 Zn0 3.371297 1_455
Yb15 Zn0 3.371297 1_555
Yb16 Zn1 3.410761 1_455
Yb16 Zn1 3.410761 1_555
Yb17 Zn2 3.411215 1_555
Yb17 Zn2 3.411215 1_655
Yb18 Zn13 3.380030 1_555
Yb18 Zn13 3.380030 1_655
Yb18 Zn28 3.388364 1_555
Yb18 Zn3 3.409715 1_655
Yb18 Zn3 3.409715 1_555
Yb18 Zn23 3.456645 1_565
Yb18 Zn23 3.456645 1_665
Yb19 Zn4 3.412849 1_555
Yb19 Zn4 3.412849 1_655
Zn0 Zn10 2.655380 1_555
Zn1 Zn11 2.691039 1_555
Zn12 Zn2 2.690153 1_555
Zn13 Zn3 2.551170 1_555
Zn14 Zn4 2.688569 1_665
Zn15 Zn5 2.688569 1_555
Zn16 Zn6 2.690153 1_555
Zn17 Zn7 2.691039 1_445
Zn18 Zn8 2.551170 1_555
Zn19 Zn9 2.655380 1_555
Ge0 Zn25 2.511511 1_555
Ge0 Zn25 2.511511 1_655
Ge0 Zn10 2.539480 1_555
Ge0 Zn15 2.612471 1_555
Ge0 Yb15 3.027204 1_555
Ge0 Yb15 3.027204 1_655
Ge0 Yb10 3.049850 1_665
Ge1 Zn26 2.510425 1_555
Ge1 Zn26 2.510425 1_655
Ge1 Zn11 2.535326 1_555
Ge1 Zn16 2.609308 1_545
Ge1 Yb16 3.031515 1_655
Ge1 Yb16 3.031515 1_555
Ge1 Yb11 3.045678 1_555
Ge1 Yb6 3.486479 1_555
Ge2 Zn27 2.511488 1_555
Ge2 Zn27 2.511488 1_455
Ge2 Zn12 2.535006 1_555
Ge2 Zn17 2.611086 1_555
Ge2 Yb17 3.030470 1_555
Ge2 Yb17 3.030470 1_455
Ge2 Yb12 3.046898 1_555
Ge3 Zn28 2.567102 1_555
Ge3 Zn28 2.567102 1_455
Ge3 Zn13 2.625854 1_555
Ge3 Zn18 2.820946 1_555
Ge3 Yb18 3.014103 1_455
Ge3 Yb18 3.014103 1_555
Ge3 Yb13 3.085327 1_565
Ge3 Yb8 3.588832 1_555
Ge4 Zn29 2.510213 1_555
Ge4 Zn29 2.510213 1_455
Ge4 Zn14 2.538194 1_445
Ge4 Zn19 2.593651 1_445
Ge4 Yb19 3.021379 1_455
Ge4 Yb19 3.021379 1_555
Ge4 Yb14 3.038660 1_555
Ge5 Zn20 2.510213 1_555
Ge5 Zn20 2.510213 1_655
Ge5 Zn15 2.538194 1_555
Ge5 Zn10 2.593651 1_555
Ge5 Yb10 3.021379 1_655
Ge5 Yb10 3.021379 1_555
Ge5 Yb15 3.038660 1_545
Ge6 Zn21 2.511488 1_455
Ge6 Zn21 2.511488 1_555
Ge6 Zn16 2.535006 1_555
Ge6 Zn11 2.611086 1_565
Ge6 Yb11 3.030470 1_455
Ge6 Yb11 3.030470 1_555
Ge6 Yb16 3.046898 1_555
Ge7 Zn22 2.510425 1_655
Ge7 Zn22 2.510425 1_555
Ge7 Zn17 2.535326 1_665
Ge7 Zn12 2.609308 1_665
Ge7 Yb12 3.031515 1_555
Ge7 Yb12 3.031515 1_655
Ge7 Yb17 3.045678 1_555
Ge7 Yb2 3.486479 1_665
Ge8 Zn23 2.567102 1_455
Ge8 Zn23 2.567102 1_555
Ge8 Zn18 2.625854 1_555
Ge8 Zn13 2.820946 1_555
Ge8 Yb13 3.014103 1_555
Ge8 Yb13 3.014103 1_455
Ge8 Yb18 3.085327 1_445
Ge8 Yb3 3.588832 1_555
Ge9 Zn24 2.511511 1_655
Ge9 Zn24 2.511511 1_555
Ge9 Zn19 2.539480 1_555
Ge9 Zn14 2.612471 1_555
Ge9 Yb14 3.027204 1_555
Ge9 Yb14 3.027204 1_655
Ge9 Yb19 3.049850 1_555
Ge10 Zn5 2.621114 1_555
Ge10 Zn5 2.621114 1_455
Ge10 Zn2 2.671881 1_555
Ge10 Zn15 2.755130 1_555
Ge10 Zn15 2.755130 1_455
Ge10 Zn25 2.767167 1_555
Ge10 Yb5 3.039771 1_555
Ge10 Yb5 3.039771 1_455
Ge10 Yb10 3.166922 1_555
Ge10 Yb2 3.605283 1_555
Ge11 Zn6 2.620632 1_655
Ge11 Zn6 2.620632 1_555
Ge11 Zn4 2.673485 1_665
Ge11 Zn16 2.755134 1_555
Ge11 Zn16 2.755134 1_655
Ge11 Zn26 2.768636 1_665
Ge11 Yb6 3.042680 1_565
Ge11 Yb6 3.042680 1_665
Ge11 Yb11 3.167113 1_555
Ge12 Zn7 2.621527 1_545
Ge12 Zn7 2.621527 1_445
Ge12 Zn1 2.674145 1_555
Ge12 Zn17 2.754711 1_555
Ge12 Zn17 2.754711 1_655
Ge12 Zn27 2.766090 1_555
Ge12 Yb7 3.041343 1_655
Ge12 Yb7 3.041343 1_555
Ge12 Yb12 3.165780 1_545
Ge13 Zn8 2.648645 1_555
Ge13 Zn8 2.648645 1_655
Ge13 Zn0 2.666642 1_554
Ge13 Zn18 2.673622 1_655
Ge13 Zn18 2.673622 1_555
Ge13 Zn28 2.834525 1_555
Ge13 Yb8 3.042521 1_555
Ge13 Yb8 3.042521 1_655
Ge13 Yb13 3.154119 1_555
Ge14 Zn3 2.588450 1_555
Ge14 Zn9 2.601202 1_555
Ge14 Zn9 2.601202 1_455
Ge14 Zn19 2.765717 1_555
Ge14 Zn19 2.765717 1_455
Ge14 Zn29 2.770675 1_565
Ge14 Yb9 3.054270 1_455
Ge14 Yb9 3.054270 1_555
Ge14 Yb14 3.165354 1_555
Ge14 Yb3 3.563406 1_555
Ge15 Zn8 2.588450 1_556
Ge15 Zn0 2.601202 1_455
Ge15 Zn0 2.601202 1_555
Ge15 Zn10 2.765717 1_455
Ge15 Zn10 2.765717 1_555
Ge15 Zn20 2.770675 1_555
Ge15 Yb0 3.054270 1_555
Ge15 Yb0 3.054270 1_455
Ge15 Yb15 3.165354 1_555
Ge15 Yb8 3.563406 1_556
Ge16 Zn1 2.621527 1_455
Ge16 Zn1 2.621527 1_555
Ge16 Zn7 2.674145 1_445
Ge16 Zn11 2.754711 1_455
Ge16 Zn11 2.754711 1_555
Ge16 Zn21 2.766090 1_445
Ge16 Yb1 3.041343 1_545
Ge16 Yb1 3.041343 1_445
Ge16 Yb16 3.165780 1_555
Ge17 Zn2 2.620632 1_655
Ge17 Zn2 2.620632 1_555
Ge17 Zn5 2.673485 1_555
Ge17 Zn12 2.755134 1_655
Ge17 Zn12 2.755134 1_555
Ge17 Zn22 2.768636 1_545
Ge17 Yb2 3.042680 1_655
Ge17 Yb2 3.042680 1_555
Ge17 Yb17 3.167113 1_555
Ge18 Zn3 2.648645 1_655
Ge18 Zn3 2.648645 1_555
Ge18 Zn9 2.666642 1_555
Ge18 Zn13 2.673622 1_555
Ge18 Zn13 2.673622 1_655
Ge18 Zn23 2.834525 1_555
Ge18 Yb3 3.042521 1_655
Ge18 Yb3 3.042521 1_555
Ge18 Yb18 3.154119 1_555
Ge19 Zn4 2.621114 1_565
Ge19 Zn4 2.621114 1_665
Ge19 Zn6 2.671881 1_555
Ge19 Zn14 2.755130 1_455
Ge19 Zn14 2.755130 1_555
Ge19 Zn24 2.767167 1_555
Ge19 Yb4 3.039771 1_455
Ge19 Yb4 3.039771 1_555
Ge19 Yb19 3.166922 1_565
Ge19 Yb6 3.605283 1_565
Ge20 Ge28 2.495424 1_666
Ge20 Zn0 2.504083 1_555
Ge20 Zn20 2.582095 1_665
Ge20 Yb0 3.066084 1_665
Ge20 Yb0 3.066084 1_565
Ge20 Yb15 3.070188 1_555
Ge20 Yb15 3.070188 1_655
Ge20 Yb8 3.135592 1_556
Ge20 Yb8 3.135592 1_656
Ge21 Ge27 2.497826 1_555
Ge21 Zn1 2.512865 1_555
Ge21 Zn21 2.583960 1_555
Ge21 Yb1 3.076699 1_655
Ge21 Yb1 3.076699 1_555
Ge21 Yb16 3.079648 1_655
Ge21 Yb16 3.079648 1_555
Ge21 Yb7 3.180132 1_555
Ge21 Yb7 3.180132 1_655
Ge22 Ge25 2.497940 1_555
Ge22 Zn2 2.513063 1_555
Ge22 Zn22 2.583906 1_555
Ge22 Yb2 3.075129 1_665
Ge22 Yb2 3.075129 1_565
Ge22 Yb17 3.079797 1_555
Ge22 Yb17 3.079797 1_455
Ge22 Yb5 3.177697 1_555
Ge22 Yb5 3.177697 1_455
Ge23 Zn3 2.474330 1_545
Ge23 Zn23 2.495111 1_555
Ge23 Ge29 2.495424 1_555
Ge23 Yb18 3.077925 1_445
Ge23 Yb18 3.077925 1_545
Ge23 Yb3 3.082311 1_555
Ge23 Yb3 3.082311 1_655
Ge23 Yb9 3.149728 1_445
Ge23 Yb9 3.149728 1_545
Ge24 Ge26 2.497940 1_555
Ge24 Zn4 2.511842 1_555
Ge24 Zn24 2.585781 1_555
Ge24 Yb4 3.079509 1_555
Ge24 Yb4 3.079509 1_455
Ge24 Yb19 3.083980 1_555
Ge24 Yb19 3.083980 1_455
Ge24 Yb6 3.179694 1_555
Ge24 Yb6 3.179694 1_455
Ge25 Zn5 2.511842 1_565
Ge25 Zn25 2.585781 1_555
Ge25 Yb5 3.079509 1_455
Ge25 Yb5 3.079509 1_555
Ge25 Yb10 3.083980 1_565
Ge25 Yb10 3.083980 1_665
Ge25 Yb2 3.179694 1_665
Ge25 Yb2 3.179694 1_565
Ge26 Zn6 2.513063 1_555
Ge26 Zn26 2.583906 1_555
Ge26 Yb6 3.075129 1_455
Ge26 Yb6 3.075129 1_555
Ge26 Yb11 3.079797 1_455
Ge26 Yb11 3.079797 1_555
Ge26 Yb4 3.177697 1_455
Ge26 Yb4 3.177697 1_555
Ge27 Zn7 2.512865 1_555
Ge27 Zn27 2.583960 1_555
Ge27 Yb7 3.076699 1_555
Ge27 Yb7 3.076699 1_655
Ge27 Yb12 3.079648 1_555
Ge27 Yb12 3.079648 1_655
Ge27 Yb1 3.180132 1_655
Ge27 Yb1 3.180132 1_555
Ge28 Zn8 2.474330 1_555
Ge28 Zn28 2.495111 1_445
Ge28 Yb13 3.077925 1_555
Ge28 Yb13 3.077925 1_455
Ge28 Yb8 3.082311 1_545
Ge28 Yb8 3.082311 1_445
Ge28 Yb0 3.149728 1_554
Ge28 Yb0 3.149728 1_454
Ge29 Zn9 2.504083 1_555
Ge29 Zn29 2.582095 1_555
Ge29 Yb9 3.066084 1_445
Ge29 Yb9 3.066084 1_545
Ge29 Yb14 3.070188 1_655
Ge29 Yb14 3.070188 1_555
Ge29 Yb3 3.135592 1_655
Ge29 Yb3 3.135592 1_555
Ge30 Zn13 2.684312 1_555
Ge30 Zn18 2.684312 1_655
Ge30 Zn13 2.684312 1_655
Ge30 Zn18 2.684312 1_555
Ge30 Zn23 2.867252 1_555
Ge30 Zn28 2.867252 1_555
Ge30 Yb18 3.365353 1_555
Ge30 Yb13 3.365353 1_555
