# generated using pymatgen
data_Ag2HgAu
_symmetry_space_group_name_H-M   'P 1'
_cell_length_a   11.30351386
_cell_length_b   11.30351386
_cell_length_c   11.30351386
_cell_angle_alpha   123.53433180
_cell_angle_beta   118.83429054
_cell_angle_gamma   88.01060050
_symmetry_Int_Tables_number   1
_chemical_formula_structural   Ag2HgAu
_chemical_formula_sum   'Ag2 Hg1 Au1'
_cell_volume   1000.09509349
_cell_formula_units_Z   1
loop_
 _symmetry_equiv_pos_site_id
 _symmetry_equiv_pos_as_xyz
  1  'x, y, z'
loop_
 _atom_site_type_symbol
 _atom_site_label
 _atom_site_symmetry_multiplicity
 _atom_site_fract_x
 _atom_site_fract_y
 _atom_site_fract_z
 _atom_site_occupancy
  Ag  Ag0  1  0.00000000  0.24671200  0.24671200  1
  Ag  Ag1  1  0.00000000  0.75328800  0.75328800  1
  Hg  Hg0  1  0.00000000  0.50000000  0.50000000  1
  Au  Au0  1  0.00000000  0.00000000  0.00000000  1
loop_
_geom_bond_atom_site_label_1
_geom_bond_atom_site_label_2
_geom_bond_distance
_geom_bond_site_symmetry_2
Ag0 Au0 2.638433 1_555
Ag0 Hg0 2.708759 1_555
Ag1 Au0 2.638433 1_566
Ag1 Hg0 2.708759 1_555
