# generated using pymatgen
data_FeNiSn
_symmetry_space_group_name_H-M   'P 1'
_cell_length_a   4.28701038
_cell_length_b   4.28701038
_cell_length_c   5.21497300
_cell_angle_alpha   90.00000000
_cell_angle_beta   90.00000000
_cell_angle_gamma   120.00000580
_symmetry_Int_Tables_number   1
_chemical_formula_structural   FeNiSn
_chemical_formula_sum   'Fe2 Ni2 Sn2'
_cell_volume   83.00260826
_cell_formula_units_Z   2
loop_
 _symmetry_equiv_pos_site_id
 _symmetry_equiv_pos_as_xyz
  1  'x, y, z'
loop_
 _atom_site_type_symbol
 _atom_site_label
 _atom_site_symmetry_multiplicity
 _atom_site_fract_x
 _atom_site_fract_y
 _atom_site_fract_z
 _atom_site_occupancy
  Fe  Fe0  1  0.00000000  0.00000000  0.00000000  1
  Fe  Fe1  1  0.00000000  0.00000000  0.50000000  1
  Ni  Ni0  1  0.33333300  0.66666700  0.75000000  1
  Ni  Ni1  1  0.66666700  0.33333300  0.25000000  1
  Sn  Sn0  1  0.33333300  0.66666700  0.25000000  1
  Sn  Sn1  1  0.66666700  0.33333300  0.75000000  1
loop_
_geom_bond_atom_site_label_1
_geom_bond_atom_site_label_2
_geom_bond_distance
_geom_bond_site_symmetry_2
Fe0 Fe1 2.607486 1_554
Fe0 Fe1 2.607486 1_555
Fe0 Ni0 2.797479 1_544
Fe0 Sn0 2.797479 1_545
Fe0 Ni1 2.797479 1_455
Fe0 Sn1 2.797479 1_454
Fe0 Sn1 2.797482 1_554
Fe0 Ni1 2.797482 1_445
Fe0 Ni0 2.797482 1_554
Fe0 Sn0 2.797482 1_445
Fe0 Sn0 2.797482 1_555
Fe0 Sn1 2.797482 1_444
Fe0 Ni0 2.797482 1_444
Fe0 Ni1 2.797482 1_555
Fe1 Sn0 2.797479 1_545
Fe1 Ni1 2.797479 1_455
Fe1 Ni0 2.797479 1_545
Fe1 Sn1 2.797479 1_455
Fe1 Ni1 2.797482 1_445
Fe1 Sn0 2.797482 1_445
Fe1 Sn0 2.797482 1_555
Fe1 Sn1 2.797482 1_445
Fe1 Ni0 2.797482 1_555
Fe1 Sn1 2.797482 1_555
Fe1 Ni1 2.797482 1_555
Fe1 Ni0 2.797482 1_445
Ni0 Sn1 2.475104 1_455
Ni0 Sn1 2.475104 1_565
Ni0 Sn1 2.475112 1_555
Ni0 Sn0 2.607486 1_555
Ni0 Sn0 2.607486 1_556
Ni1 Sn0 2.475104 1_545
Ni1 Sn0 2.475104 1_655
Ni1 Sn0 2.475112 1_555
Ni1 Sn1 2.607486 1_555
Ni1 Sn1 2.607486 1_554
