# generated using pymatgen
data_ZnFe16Ni7O32
_symmetry_space_group_name_H-M   'P 1'
_cell_length_a   8.38404800
_cell_length_b   8.39070302
_cell_length_c   8.39077530
_cell_angle_alpha   90.15640485
_cell_angle_beta   90.00553785
_cell_angle_gamma   90.00428146
_symmetry_Int_Tables_number   1
_chemical_formula_structural   ZnFe16Ni7O32
_chemical_formula_sum   'Zn1 Fe16 Ni7 O32'
_cell_volume   590.27253472
_cell_formula_units_Z   1
loop_
 _symmetry_equiv_pos_site_id
 _symmetry_equiv_pos_as_xyz
  1  'x, y, z'
loop_
 _atom_site_type_symbol
 _atom_site_label
 _atom_site_symmetry_multiplicity
 _atom_site_fract_x
 _atom_site_fract_y
 _atom_site_fract_z
 _atom_site_occupancy
  Zn  Zn0  1  0.99542900  0.99841600  0.00322800  1
  Fe  Fe0  1  0.49577600  0.00011700  0.49666800  1
  Fe  Fe1  1  0.49212000  0.50241300  0.99871700  1
  Fe  Fe2  1  0.99789400  0.49640700  0.49817600  1
  Fe  Fe3  1  0.25231800  0.25143400  0.75232500  1
  Fe  Fe4  1  0.25523400  0.75133700  0.24653200  1
  Fe  Fe5  1  0.75670200  0.24899600  0.25004100  1
  Fe  Fe6  1  0.75538800  0.74985300  0.75550100  1
  Fe  Fe7  1  0.62627600  0.12400700  0.87406700  1
  Fe  Fe8  1  0.12555200  0.37469500  0.12544700  1
  Fe  Fe9  1  0.87499200  0.12602600  0.62441800  1
  Fe  Fe10  1  0.62451500  0.62589900  0.37317500  1
  Fe  Fe11  1  0.12560300  0.12606500  0.37329100  1
  Fe  Fe12  1  0.12553500  0.62441700  0.87593800  1
  Fe  Fe13  1  0.12627700  0.87406100  0.62723500  1
  Fe  Fe14  1  0.62359700  0.37698700  0.62637800  1
  Fe  Fe15  1  0.62604700  0.87381800  0.12471900  1
  Ni  Ni0  1  0.37544200  0.62371400  0.62565200  1
  Ni  Ni1  1  0.87469800  0.87494800  0.37227400  1
  Ni  Ni2  1  0.37453300  0.12541700  0.12554300  1
  Ni  Ni3  1  0.87456100  0.62621200  0.12428100  1
  Ni  Ni4  1  0.87544000  0.37582700  0.87563700  1
  Ni  Ni5  1  0.37569000  0.87380600  0.87623300  1
  Ni  Ni6  1  0.37430500  0.37492900  0.37494500  1
  O  O0  1  0.62296000  0.38333900  0.38638200  1
  O  O1  1  0.11397100  0.11908700  0.61439200  1
  O  O2  1  0.38968100  0.88046500  0.12059500  1
  O  O3  1  0.89237400  0.62020900  0.87918300  1
  O  O4  1  0.62633600  0.63712000  0.12749700  1
  O  O5  1  0.13073000  0.85892400  0.86466900  1
  O  O6  1  0.87459900  0.35778100  0.62871700  1
  O  O7  1  0.36004700  0.13058200  0.37252900  1
  O  O8  1  0.62174900  0.87816300  0.88879300  1
  O  O9  1  0.12299500  0.38615400  0.88868200  1
  O  O10  1  0.12168200  0.88801800  0.38002900  1
  O  O11  1  0.12297200  0.61270800  0.11410300  1
  O  O12  1  0.62427800  0.11385100  0.11861300  1
  O  O13  1  0.62333200  0.61272900  0.62418700  1
  O  O14  1  0.37617600  0.37928400  0.61860000  1
  O  O15  1  0.87976300  0.89183700  0.62082600  1
  O  O16  1  0.88824800  0.37835500  0.12027900  1
  O  O17  1  0.88907300  0.12193400  0.38917300  1
  O  O18  1  0.38880000  0.62150500  0.37946100  1
  O  O19  1  0.39037700  0.12088900  0.87885500  1
  O  O20  1  0.63520500  0.13616200  0.62919000  1
  O  O21  1  0.12687500  0.63107000  0.63521900  1
  O  O22  1  0.12921600  0.14120700  0.14090100  1
  O  O23  1  0.12833000  0.36372000  0.36254500  1
  O  O24  1  0.62666200  0.86594500  0.36324400  1
  O  O25  1  0.62800700  0.37309100  0.86204100  1
  O  O26  1  0.85417900  0.86659100  0.13375900  1
  O  O27  1  0.36255600  0.37058500  0.12977600  1
  O  O28  1  0.36892000  0.87061000  0.62981800  1
  O  O29  1  0.35777100  0.62862700  0.86867800  1
  O  O30  1  0.85718400  0.13157600  0.85544000  1
  O  O31  1  0.86102800  0.62808100  0.37340400  1
loop_
_geom_bond_atom_site_label_1
_geom_bond_atom_site_label_2
_geom_bond_distance
_geom_bond_site_symmetry_2
Fe0 O28 1.888620 1_545
Fe0 O7 1.893268 1_555
Fe0 O24 1.928340 1_545
Fe0 O20 1.974499 1_555
Fe1 O29 1.893962 1_555
Fe1 O27 1.902501 1_556
Fe1 O4 1.924659 1_556
Fe1 O25 1.945314 1_555
Fe2 O6 1.904806 1_555
Fe2 O31 1.907811 1_555
Fe2 O23 1.929793 1_655
Fe2 O21 1.939291 1_655
Fe3 O14 1.869432 1_555
Fe3 O19 1.916531 1_555
Fe3 O9 1.937992 1_555
Fe3 O1 1.977520 1_555
Fe4 O2 1.888770 1_555
Fe4 O18 1.921301 1_555
Fe4 O11 1.951896 1_555
Fe4 O10 1.953752 1_555
Fe5 O16 1.893801 1_555
Fe5 O12 1.930648 1_555
Fe5 O17 1.933371 1_555
Fe5 O0 1.957067 1_555
Fe6 O3 1.893538 1_555
Fe6 O8 1.912900 1_555
Fe6 O13 1.938115 1_555
Fe6 O15 1.947054 1_555
Fe7 O30 1.943305 1_555
Fe7 O19 1.978373 1_555
Fe7 O12 2.054002 1_556
Fe7 O20 2.058884 1_555
Fe7 O8 2.067184 1_545
Fe7 O25 2.092749 1_555
Fe8 O22 1.964011 1_555
Fe8 O27 1.987685 1_555
Fe8 O9 1.989343 1_554
Fe8 O16 1.990278 1_455
Fe8 O23 1.991951 1_555
Fe8 O11 1.999741 1_555
Fe9 O30 1.944641 1_555
Fe9 O6 1.944827 1_555
Fe9 O15 1.965569 1_545
Fe9 O17 1.977631 1_555
Fe9 O1 2.006228 1_655
Fe9 O20 2.012588 1_555
Fe10 O18 1.977298 1_555
Fe10 O31 1.983020 1_555
Fe10 O24 2.016184 1_555
Fe10 O0 2.038606 1_555
Fe10 O4 2.063893 1_555
Fe10 O13 2.109408 1_555
Fe11 O22 1.954651 1_555
Fe11 O7 1.965964 1_555
Fe11 O17 1.987870 1_455
Fe11 O23 1.996505 1_555
Fe11 O10 1.998604 1_545
Fe11 O1 2.026388 1_555
Fe12 O29 1.948357 1_555
Fe12 O3 1.955343 1_455
Fe12 O5 1.970685 1_555
Fe12 O11 2.001188 1_556
Fe12 O9 2.002455 1_555
Fe12 O21 2.020775 1_555
Fe13 O5 1.996991 1_555
Fe13 O28 2.034653 1_555
Fe13 O21 2.040155 1_555
Fe13 O1 2.061647 1_565
Fe13 O15 2.072874 1_455
Fe13 O10 2.078226 1_555
Fe14 O25 1.978097 1_555
Fe14 O13 1.978178 1_555
Fe14 O0 2.014610 1_555
Fe14 O20 2.023242 1_555
Fe14 O14 2.075502 1_555
Fe14 O6 2.110680 1_555
Fe15 O26 1.915137 1_555
Fe15 O8 1.980362 1_554
Fe15 O2 1.982794 1_555
Fe15 O4 1.986265 1_555
Fe15 O24 2.002686 1_555
Fe15 O12 2.014893 1_565
Ni0 O29 2.044869 1_555
Ni0 O14 2.051641 1_555
Ni0 O18 2.068810 1_555
Ni0 O28 2.072556 1_555
Ni0 O13 2.080407 1_555
Ni0 O21 2.086462 1_555
Ni1 O26 2.009722 1_555
Ni1 O31 2.074595 1_555
Ni1 O10 2.074625 1_655
Ni1 O17 2.080329 1_565
Ni1 O24 2.082276 1_555
Ni1 O15 2.090394 1_555
Ni2 O2 2.059555 1_545
Ni2 O27 2.059798 1_555
Ni2 O22 2.065037 1_555
Ni2 O19 2.074419 1_554
Ni2 O7 2.076306 1_555
Ni2 O12 2.096934 1_555
Ni3 O26 2.025534 1_555
Ni3 O3 2.062470 1_554
Ni3 O16 2.083046 1_555
Ni3 O4 2.083323 1_555
Ni3 O11 2.087521 1_655
Ni3 O31 2.093439 1_555
Ni4 O3 2.055570 1_555
Ni4 O16 2.055584 1_556
Ni4 O30 2.061648 1_555
Ni4 O6 2.076975 1_555
Ni4 O25 2.077735 1_555
Ni4 O9 2.080173 1_655
Ni5 O2 2.054335 1_556
Ni5 O5 2.059801 1_555
Ni5 O29 2.063492 1_555
Ni5 O8 2.065966 1_555
Ni5 O28 2.068487 1_555
Ni5 O19 2.076901 1_565
Ni6 O14 2.044740 1_555
Ni6 O7 2.053761 1_555
Ni6 O27 2.059729 1_555
Ni6 O23 2.067000 1_555
Ni6 O18 2.072746 1_555
Ni6 O0 2.088112 1_555
O5 Zn0 2.000355 1_456
O22 Zn0 2.005015 1_445
O26 Zn0 1.957591 1_555
O30 Zn0 2.033960 1_546
