# generated using pymatgen
data_Ca3Er2(SnS4)3
_symmetry_space_group_name_H-M   'P 1'
_cell_length_a   11.55458601
_cell_length_b   11.55458601
_cell_length_c   3.90346500
_cell_angle_alpha   90.00000000
_cell_angle_beta   90.00000000
_cell_angle_gamma   120.52287057
_symmetry_Int_Tables_number   1
_chemical_formula_structural   Ca3Er2(SnS4)3
_chemical_formula_sum   'Ca3 Er2 Sn3 S12'
_cell_volume   448.92862319
_cell_formula_units_Z   1
loop_
 _symmetry_equiv_pos_site_id
 _symmetry_equiv_pos_as_xyz
  1  'x, y, z'
loop_
 _atom_site_type_symbol
 _atom_site_label
 _atom_site_symmetry_multiplicity
 _atom_site_fract_x
 _atom_site_fract_y
 _atom_site_fract_z
 _atom_site_occupancy
  Ca  Ca0  1  0.66190800  0.33008700  0.00000000  1
  Ca  Ca1  1  0.33008700  0.66190800  0.00000000  1
  Ca  Ca2  1  0.28317500  0.28317500  0.00000000  1
  Er  Er0  1  0.00130200  0.71524500  0.00000000  1
  Er  Er1  1  0.71524500  0.00130200  0.00000000  1
  Sn  Sn0  1  0.67215400  0.67215400  0.50000000  1
  Sn  Sn1  1  0.00283400  0.32934800  0.50000000  1
  Sn  Sn2  1  0.32934800  0.00283400  0.50000000  1
  S  S0  1  0.82732500  0.82732500  0.00000000  1
  S  S1  1  0.99214200  0.17128400  0.00000000  1
  S  S2  1  0.17128400  0.99214200  0.00000000  1
  S  S3  1  0.52796400  0.52796400  0.00000000  1
  S  S4  1  0.99669000  0.47410700  0.00000000  1
  S  S5  1  0.47410700  0.99669000  0.00000000  1
  S  S6  1  0.81516800  0.56179600  0.50000000  1
  S  S7  1  0.74641900  0.18658400  0.50000000  1
  S  S8  1  0.45020900  0.25415700  0.50000000  1
  S  S9  1  0.56179600  0.81516800  0.50000000  1
  S  S10  1  0.18658400  0.74641900  0.50000000  1
  S  S11  1  0.25415700  0.45020900  0.50000000  1
loop_
_geom_bond_atom_site_label_1
_geom_bond_atom_site_label_2
_geom_bond_distance
_geom_bond_site_symmetry_2
Ca0 S8 2.895250 1_555
Ca0 S8 2.895250 1_554
Ca0 S7 3.026021 1_555
Ca0 S7 3.026021 1_554
Ca0 S6 3.049144 1_555
Ca0 S6 3.049144 1_554
Ca0 S5 3.325301 1_545
Ca0 S4 3.345753 1_555
Ca0 S3 3.349207 1_555
Ca1 S11 2.895250 1_555
Ca1 S11 2.895250 1_554
Ca1 S10 3.026021 1_554
Ca1 S10 3.026021 1_555
Ca1 S9 3.049144 1_555
Ca1 S9 3.049144 1_554
Ca1 S4 3.325301 1_455
Ca1 S5 3.345753 1_555
Ca1 S3 3.349207 1_555
Ca2 S3 2.806053 1_555
Ca2 S8 2.881654 1_555
Ca2 S11 2.881654 1_555
Ca2 S11 2.881654 1_554
Ca2 S8 2.881654 1_554
Ca2 S2 2.926357 1_545
Ca2 S1 2.926357 1_455
Er0 S4 2.759567 1_455
Er0 S6 2.775798 1_455
Er0 S6 2.775798 1_454
Er0 S2 2.776861 1_555
Er0 S10 2.781901 1_554
Er0 S10 2.781901 1_555
Er0 S0 2.891803 1_455
Er1 S5 2.759567 1_545
Er1 S9 2.775798 1_545
Er1 S9 2.775798 1_544
Er1 S1 2.776861 1_555
Er1 S7 2.781901 1_555
Er1 S7 2.781901 1_554
Er1 S0 2.891803 1_545
S0 Sn0 2.640683 1_554
S0 Sn0 2.640683 1_555
S1 Sn1 2.632668 1_655
S1 Sn1 2.632668 1_654
S2 Sn2 2.632668 1_565
S2 Sn2 2.632668 1_564
S3 Sn0 2.557585 1_555
S3 Sn0 2.557585 1_554
S4 Sn1 2.594727 1_655
S4 Sn1 2.594727 1_654
S5 Sn2 2.594727 1_565
S5 Sn2 2.594727 1_564
S6 Sn0 2.548918 1_555
S7 Sn1 2.556315 1_655
S8 Sn2 2.502752 1_555
S9 Sn0 2.548918 1_555
S10 Sn2 2.556315 1_565
S11 Sn1 2.502752 1_555
