# generated using pymatgen
data_NaLiMg30O31
_symmetry_space_group_name_H-M   'P 1'
_cell_length_a   8.51077400
_cell_length_b   8.54747600
_cell_length_c   8.56887400
_cell_angle_alpha   90.00000000
_cell_angle_beta   90.00000000
_cell_angle_gamma   90.00000000
_symmetry_Int_Tables_number   1
_chemical_formula_structural   NaLiMg30O31
_chemical_formula_sum   'Na1 Li1 Mg30 O31'
_cell_volume   623.34819327
_cell_formula_units_Z   1
loop_
 _symmetry_equiv_pos_site_id
 _symmetry_equiv_pos_as_xyz
  1  'x, y, z'
loop_
 _atom_site_type_symbol
 _atom_site_label
 _atom_site_symmetry_multiplicity
 _atom_site_fract_x
 _atom_site_fract_y
 _atom_site_fract_z
 _atom_site_occupancy
  Na  Na0  1  0.00087700  0.50000000  0.00000000  1
  Li  Li0  1  0.00354600  0.00000000  0.00000000  1
  Mg  Mg0  1  0.00173200  0.00000000  0.50000000  1
  Mg  Mg1  1  0.00430100  0.50000000  0.50000000  1
  Mg  Mg2  1  0.49786900  0.00000000  0.00000000  1
  Mg  Mg3  1  0.48255300  0.50000000  0.00000000  1
  Mg  Mg4  1  0.49836700  0.00000000  0.50000000  1
  Mg  Mg5  1  0.49695900  0.50000000  0.50000000  1
  Mg  Mg6  1  0.00007700  0.75231000  0.75445600  1
  Mg  Mg7  1  0.00007700  0.24769000  0.75445600  1
  Mg  Mg8  1  0.00007700  0.75231000  0.24554400  1
  Mg  Mg9  1  0.00007700  0.24769000  0.24554400  1
  Mg  Mg10  1  0.50011400  0.74995800  0.75171100  1
  Mg  Mg11  1  0.50011400  0.25004200  0.75171100  1
  Mg  Mg12  1  0.50011400  0.74995800  0.24828900  1
  Mg  Mg13  1  0.50011400  0.25004200  0.24828900  1
  Mg  Mg14  1  0.75691100  0.77494900  0.00000000  1
  Mg  Mg15  1  0.75691100  0.22505100  0.00000000  1
  Mg  Mg16  1  0.75147800  0.75347100  0.50000000  1
  Mg  Mg17  1  0.75147800  0.24652900  0.50000000  1
  Mg  Mg18  1  0.24120300  0.75243400  0.00000000  1
  Mg  Mg19  1  0.24120300  0.24756600  0.00000000  1
  Mg  Mg20  1  0.24875800  0.75132200  0.50000000  1
  Mg  Mg21  1  0.24875800  0.24867800  0.50000000  1
  Mg  Mg22  1  0.75365400  0.00000000  0.75034100  1
  Mg  Mg23  1  0.75334500  0.50000000  0.72791400  1
  Mg  Mg24  1  0.75365400  0.00000000  0.24965900  1
  Mg  Mg25  1  0.75334500  0.50000000  0.27208600  1
  Mg  Mg26  1  0.24581100  0.00000000  0.75336200  1
  Mg  Mg27  1  0.24452100  0.50000000  0.75251700  1
  Mg  Mg28  1  0.24581100  0.00000000  0.24663800  1
  Mg  Mg29  1  0.24452100  0.50000000  0.24748300  1
  O  O0  1  0.73873600  0.00000000  0.00000000  1
  O  O1  1  0.74742000  0.00000000  0.50000000  1
  O  O2  1  0.74574900  0.50000000  0.50000000  1
  O  O3  1  0.25933800  0.00000000  0.00000000  1
  O  O4  1  0.25599100  0.50000000  0.00000000  1
  O  O5  1  0.25226000  0.00000000  0.50000000  1
  O  O6  1  0.25355400  0.50000000  0.50000000  1
  O  O7  1  0.74994800  0.74421100  0.75502700  1
  O  O8  1  0.74994800  0.25578900  0.75502700  1
  O  O9  1  0.74994800  0.74421100  0.24497300  1
  O  O10  1  0.74994800  0.25578900  0.24497300  1
  O  O11  1  0.25087000  0.74865000  0.75107200  1
  O  O12  1  0.25087000  0.25135000  0.75107200  1
  O  O13  1  0.25087000  0.74865000  0.24892800  1
  O  O14  1  0.25087000  0.25135000  0.24892800  1
  O  O15  1  0.99427900  0.75719300  0.00000000  1
  O  O16  1  0.99427900  0.24280700  0.00000000  1
  O  O17  1  0.99861300  0.74991200  0.50000000  1
  O  O18  1  0.99861300  0.25008800  0.50000000  1
  O  O19  1  0.50964600  0.74228200  0.00000000  1
  O  O20  1  0.50964600  0.25771800  0.00000000  1
  O  O21  1  0.50172000  0.74850900  0.50000000  1
  O  O22  1  0.50172000  0.25149100  0.50000000  1
  O  O23  1  0.99830000  0.00000000  0.74147200  1
  O  O24  1  0.99515300  0.50000000  0.73854800  1
  O  O25  1  0.99830000  0.00000000  0.25852800  1
  O  O26  1  0.99515300  0.50000000  0.26145200  1
  O  O27  1  0.50189400  0.00000000  0.74954300  1
  O  O28  1  0.50807100  0.50000000  0.75512500  1
  O  O29  1  0.50189400  0.00000000  0.25045700  1
  O  O30  1  0.50807100  0.50000000  0.24487500  1
loop_
_geom_bond_atom_site_label_1
_geom_bond_atom_site_label_2
_geom_bond_distance
_geom_bond_site_symmetry_2
Na0 O4 2.171218 1_555
Na0 O16 2.199068 1_455
Na0 O15 2.199068 1_455
Na0 O26 2.240879 1_455
Na0 O24 2.240879 1_454
Li0 O16 2.076885 1_455
Li0 O15 2.076885 1_445
Li0 O3 2.176988 1_555
Li0 O25 2.215744 1_455
Li0 O23 2.215744 1_454
Li0 O0 2.253738 1_455
Mg0 O23 2.069349 1_455
Mg0 O25 2.069349 1_455
Mg0 O5 2.132187 1_555
Mg0 O17 2.137786 1_445
Mg0 O18 2.137786 1_455
Mg0 O1 2.164392 1_455
Mg1 O24 2.045570 1_455
Mg1 O26 2.045570 1_455
Mg1 O6 2.121336 1_555
Mg1 O18 2.136665 1_455
Mg1 O17 2.136665 1_455
Mg1 O2 2.200478 1_455
Mg2 O3 2.030083 1_555
Mg2 O0 2.049965 1_555
Mg2 O29 2.146408 1_555
Mg2 O27 2.146408 1_554
Mg2 O20 2.205118 1_555
Mg2 O19 2.205118 1_545
Mg3 O4 1.928218 1_555
Mg3 O19 2.083697 1_555
Mg3 O20 2.083697 1_555
Mg3 O28 2.109512 1_554
Mg3 O30 2.109512 1_555
Mg4 O5 2.094561 1_555
Mg4 O1 2.119634 1_555
Mg4 O27 2.138513 1_555
Mg4 O29 2.138513 1_555
Mg4 O21 2.149803 1_545
Mg4 O22 2.149803 1_555
Mg5 O6 2.071565 1_555
Mg5 O2 2.117395 1_555
Mg5 O22 2.124511 1_555
Mg5 O21 2.124511 1_555
Mg5 O30 2.188179 1_555
Mg5 O28 2.188179 1_555
Mg6 O15 2.105028 1_456
Mg6 O23 2.120100 1_465
Mg6 O7 2.129922 1_455
Mg6 O11 2.134869 1_555
Mg6 O24 2.161324 1_455
Mg6 O17 2.180533 1_455
Mg7 O16 2.105028 1_456
Mg7 O23 2.120100 1_455
Mg7 O8 2.129922 1_455
Mg7 O12 2.134869 1_555
Mg7 O24 2.161324 1_455
Mg7 O18 2.180533 1_455
Mg8 O15 2.105028 1_455
Mg8 O25 2.120100 1_465
Mg8 O9 2.129922 1_455
Mg8 O13 2.134869 1_555
Mg8 O26 2.161324 1_455
Mg8 O17 2.180533 1_455
Mg9 O16 2.105028 1_455
Mg9 O25 2.120100 1_455
Mg9 O10 2.129922 1_455
Mg9 O14 2.134869 1_555
Mg9 O26 2.161324 1_455
Mg9 O18 2.180533 1_455
Mg10 O11 2.121296 1_555
Mg10 O7 2.127038 1_555
Mg10 O19 2.130114 1_556
Mg10 O27 2.137362 1_565
Mg10 O28 2.137783 1_555
Mg10 O21 2.156959 1_555
Mg11 O12 2.121296 1_555
Mg11 O8 2.127038 1_555
Mg11 O20 2.130114 1_556
Mg11 O27 2.137362 1_555
Mg11 O28 2.137783 1_555
Mg11 O22 2.156959 1_555
Mg12 O13 2.121296 1_555
Mg12 O9 2.127038 1_555
Mg12 O19 2.130114 1_555
Mg12 O29 2.137362 1_565
Mg12 O30 2.137783 1_555
Mg12 O21 2.156959 1_555
Mg13 O14 2.121296 1_555
Mg13 O10 2.127038 1_555
Mg13 O20 2.130114 1_555
Mg13 O29 2.137362 1_555
Mg13 O30 2.137783 1_555
Mg13 O22 2.156959 1_555
Mg14 O0 1.929827 1_565
Mg14 O15 2.025878 1_555
Mg14 O9 2.116351 1_555
Mg14 O7 2.116351 1_554
Mg14 O19 2.122860 1_555
Mg15 O0 1.929827 1_555
Mg15 O16 2.025878 1_555
Mg15 O10 2.116351 1_555
Mg15 O8 2.116351 1_554
Mg15 O20 2.122860 1_555
Mg16 O17 2.103530 1_555
Mg16 O1 2.107484 1_565
Mg16 O21 2.126057 1_555
Mg16 O2 2.167086 1_555
Mg16 O7 2.186766 1_555
Mg16 O9 2.186766 1_555
Mg17 O18 2.103530 1_555
Mg17 O1 2.107484 1_555
Mg17 O22 2.126057 1_555
Mg17 O2 2.167086 1_555
Mg17 O8 2.186766 1_555
Mg17 O10 2.186766 1_555
Mg18 O15 2.101908 1_455
Mg18 O3 2.121686 1_565
Mg18 O13 2.134864 1_555
Mg18 O11 2.134864 1_554
Mg18 O4 2.161341 1_555
Mg18 O19 2.286305 1_555
Mg19 O16 2.101908 1_455
Mg19 O3 2.121686 1_555
Mg19 O14 2.134864 1_555
Mg19 O12 2.134864 1_554
Mg19 O4 2.161341 1_555
Mg19 O20 2.286305 1_555
Mg20 O5 2.125778 1_565
Mg20 O17 2.128962 1_455
Mg20 O6 2.148557 1_555
Mg20 O11 2.151601 1_555
Mg20 O13 2.151601 1_555
Mg20 O21 2.153037 1_555
Mg21 O5 2.125778 1_555
Mg21 O18 2.128962 1_455
Mg21 O6 2.148557 1_555
Mg21 O12 2.151601 1_555
Mg21 O14 2.151601 1_555
Mg21 O22 2.153037 1_555
Mg22 O23 2.083513 1_555
Mg22 O27 2.142683 1_555
Mg22 O0 2.143061 1_556
Mg22 O1 2.145797 1_555
Mg22 O8 2.186946 1_555
Mg22 O7 2.186946 1_545
Mg23 O2 1.954036 1_555
Mg23 O24 2.059990 1_555
Mg23 O28 2.100453 1_555
Mg23 O7 2.100476 1_555
Mg23 O8 2.100476 1_555
Mg24 O25 2.083513 1_555
Mg24 O29 2.142683 1_555
Mg24 O0 2.143061 1_555
Mg24 O1 2.145797 1_555
Mg24 O10 2.186946 1_555
Mg24 O9 2.186946 1_545
Mg25 O2 1.954036 1_555
Mg25 O26 2.059990 1_555
Mg25 O30 2.100453 1_555
Mg25 O9 2.100476 1_555
Mg25 O10 2.100476 1_555
Mg26 O23 2.108973 1_455
Mg26 O3 2.116543 1_556
Mg26 O11 2.148929 1_545
Mg26 O12 2.148929 1_555
Mg26 O5 2.171721 1_555
Mg26 O27 2.179710 1_555
Mg27 O4 2.122896 1_556
Mg27 O24 2.125688 1_455
Mg27 O12 2.126053 1_555
Mg27 O11 2.126053 1_555
Mg27 O6 2.165152 1_555
Mg27 O28 2.243126 1_555
Mg28 O25 2.108973 1_455
Mg28 O3 2.116543 1_555
Mg28 O13 2.148929 1_545
Mg28 O14 2.148929 1_555
Mg28 O5 2.171721 1_555
Mg28 O29 2.179710 1_555
Mg29 O4 2.122896 1_555
Mg29 O26 2.125688 1_455
Mg29 O14 2.126053 1_555
Mg29 O13 2.126053 1_555
Mg29 O6 2.165152 1_555
Mg29 O30 2.243126 1_555
