# generated using pymatgen
data_SbC2N2F5
_symmetry_space_group_name_H-M   'P 1'
_cell_length_a   9.06684507
_cell_length_b   9.06684507
_cell_length_c   6.86678500
_cell_angle_alpha   90.00000000
_cell_angle_beta   90.00000000
_cell_angle_gamma   133.99858038
_symmetry_Int_Tables_number   1
_chemical_formula_structural   SbC2N2F5
_chemical_formula_sum   'Sb2 C4 N4 F10'
_cell_volume   406.07880289
_cell_formula_units_Z   2
loop_
 _symmetry_equiv_pos_site_id
 _symmetry_equiv_pos_as_xyz
  1  'x, y, z'
loop_
 _atom_site_type_symbol
 _atom_site_label
 _atom_site_symmetry_multiplicity
 _atom_site_fract_x
 _atom_site_fract_y
 _atom_site_fract_z
 _atom_site_occupancy
  Sb  Sb0  1  0.86801100  0.13198900  0.25000000  1
  Sb  Sb1  1  0.13198900  0.86801100  0.75000000  1
  C  C0  1  0.58166600  0.41833400  0.25000000  1
  C  C1  1  0.41833400  0.58166600  0.75000000  1
  C  C2  1  0.66343000  0.33657000  0.25000000  1
  C  C3  1  0.33657000  0.66343000  0.75000000  1
  N  N0  1  0.73290900  0.26709100  0.25000000  1
  N  N1  1  0.26709100  0.73290900  0.75000000  1
  N  N2  1  0.51167300  0.48832700  0.25000000  1
  N  N3  1  0.48832700  0.51167300  0.75000000  1
  F  F0  1  0.05472700  0.34191700  0.43422000  1
  F  F1  1  0.94527300  0.65808300  0.93422000  1
  F  F2  1  0.65808300  0.94527300  0.06578000  1
  F  F3  1  0.34191700  0.05472700  0.56578000  1
  F  F4  1  0.03400400  0.32310300  0.04506800  1
  F  F5  1  0.96599600  0.67689700  0.54506800  1
  F  F6  1  0.67689700  0.96599600  0.45493200  1
  F  F7  1  0.32310300  0.03400400  0.95493200  1
  F  F8  1  0.98084700  0.01915300  0.25000000  1
  F  F9  1  0.01915300  0.98084700  0.75000000  1
loop_
_geom_bond_atom_site_label_1
_geom_bond_atom_site_label_2
_geom_bond_distance
_geom_bond_site_symmetry_2
C0 N2 1.168327 1_555
C0 C2 1.364810 1_555
C1 N3 1.168327 1_555
C1 C3 1.364810 1_555
C2 N0 1.159748 1_555
C3 N1 1.159748 1_555
N0 Sb0 2.255131 1_555
N1 Sb1 2.255131 1_555
F0 Sb0 1.900639 1_455
F1 Sb1 1.900639 1_655
F2 Sb0 1.900639 1_565
F3 Sb1 1.900639 1_545
F4 Sb0 1.903908 1_455
F5 Sb1 1.903908 1_655
F6 Sb0 1.903908 1_565
F7 Sb1 1.903908 1_545
F8 Sb0 1.883466 1_555
F9 Sb1 1.883466 1_555
