# generated using pymatgen
data_Ca4ZnFe3(SiO3)8
_symmetry_space_group_name_H-M   'P 1'
_cell_length_a   8.97943593
_cell_length_b   5.24004595
_cell_length_c   9.84047468
_cell_angle_alpha   75.32351335
_cell_angle_beta   90.00000000
_cell_angle_gamma   90.00000000
_symmetry_Int_Tables_number   1
_chemical_formula_structural   Ca4ZnFe3(SiO3)8
_chemical_formula_sum   'Ca4 Zn1 Fe3 Si8 O24'
_cell_volume   447.91295819
_cell_formula_units_Z   1
loop_
 _symmetry_equiv_pos_site_id
 _symmetry_equiv_pos_as_xyz
  1  'x, y, z'
loop_
 _atom_site_type_symbol
 _atom_site_label
 _atom_site_symmetry_multiplicity
 _atom_site_fract_x
 _atom_site_fract_y
 _atom_site_fract_z
 _atom_site_occupancy
  Ca  Ca0  1  0.20135684  0.50000000  0.50000000  1
  Ca  Ca1  1  0.69910671  0.50000000  -0.00000000  1
  Ca  Ca2  1  0.80148839  0.00000000  0.50000000  1
  Ca  Ca3  1  0.30109857  0.00000000  -0.00000000  1
  Zn  Zn0  1  0.59300489  0.50000000  0.50000000  1
  Fe  Fe0  1  0.08885402  0.50000000  -0.00000000  1
  Fe  Fe1  1  0.40774302  0.00000000  0.50000000  1
  Fe  Fe2  1  0.91114206  0.00000000  -0.00000000  1
  Si  Si0  1  0.90559889  0.51667239  0.28835125  1
  Si  Si1  1  0.40754453  0.51960023  0.78742326  1
  Si  Si2  1  0.90559889  0.48332761  0.71164875  1
  Si  Si3  1  0.40754453  0.48039977  0.21257674  1
  Si  Si4  1  0.09213079  0.98311219  0.71175892  1
  Si  Si5  1  0.59379717  0.97939168  0.21318180  1
  Si  Si6  1  0.09213079  0.01688781  0.28824108  1
  Si  Si7  1  0.59379717  0.02060832  0.78681820  1
  O  O0  1  0.97894627  0.75673612  0.35064901  1
  O  O1  1  0.48058313  0.76057215  0.84921248  1
  O  O2  1  0.97894627  0.24326388  0.64935099  1
  O  O3  1  0.48058313  0.23942785  0.15078752  1
  O  O4  1  0.01884434  0.74335573  0.64936264  1
  O  O5  1  0.52055576  0.74062479  0.14969263  1
  O  O6  1  0.01884434  0.25664427  0.35063736  1
  O  O7  1  0.52055576  0.25937521  0.85030737  1
  O  O8  1  0.90852103  0.59606192  0.11985374  1
  O  O9  1  0.41117050  0.59829707  0.61895637  1
  O  O10  1  0.90852103  0.40393808  0.88014626  1
  O  O11  1  0.41117050  0.40170293  0.38104363  1
  O  O12  1  0.09113029  0.90411816  0.88019798  1
  O  O13  1  0.59094859  0.89687534  0.38211953  1
  O  O14  1  0.09113029  0.09588184  0.11980202  1
  O  O15  1  0.59094859  0.10312466  0.61788047  1
  O  O16  1  0.75038500  0.42434644  0.36264907  1
  O  O17  1  0.25256881  0.42909735  0.86315587  1
  O  O18  1  0.75038500  0.57565356  0.63735093  1
  O  O19  1  0.25256881  0.57090265  0.13684413  1
  O  O20  1  0.24689480  0.07302049  0.63607236  1
  O  O21  1  0.74848385  0.07102948  0.13731327  1
  O  O22  1  0.24689480  0.92697951  0.36392764  1
  O  O23  1  0.74848385  0.92897052  0.86268673  1
loop_
_geom_bond_atom_site_label_1
_geom_bond_atom_site_label_2
_geom_bond_distance
_geom_bond_site_symmetry_2
Ca0 O22 2.334096 1_555
Ca0 O20 2.334096 1_555
Ca0 O11 2.343202 1_555
Ca0 O9 2.343202 1_555
Ca0 O0 2.637507 1_455
Ca0 O2 2.637507 1_455
Ca0 O4 2.724341 1_555
Ca0 O6 2.724341 1_555
Ca1 O8 2.341202 1_555
Ca1 O10 2.341202 1_554
Ca1 O23 2.352879 1_554
Ca1 O21 2.352879 1_555
Ca1 O3 2.624831 1_555
Ca1 O1 2.624831 1_554
Ca1 O7 2.696550 1_554
Ca1 O5 2.696550 1_555
Ca2 O18 2.336420 1_545
Ca2 O16 2.336420 1_555
Ca2 O15 2.351455 1_555
Ca2 O13 2.351455 1_545
Ca2 O6 2.603178 1_655
Ca2 O4 2.603178 1_645
Ca2 O2 2.696911 1_555
Ca2 O0 2.696911 1_545
Ca3 O12 2.344593 1_544
Ca3 O14 2.344593 1_555
Ca3 O17 2.350466 1_554
Ca3 O19 2.350466 1_545
Ca3 O5 2.624100 1_545
Ca3 O7 2.624100 1_554
Ca3 O1 2.704918 1_544
Ca3 O3 2.704918 1_555
Fe0 O19 2.089501 1_555
Fe0 O17 2.089501 1_554
Fe0 O8 2.137132 1_455
Fe0 O10 2.137132 1_454
Fe0 O12 2.146964 1_554
Fe0 O14 2.146964 1_555
Fe1 O20 2.070041 1_555
Fe1 O22 2.070041 1_545
Fe1 O11 2.133877 1_555
Fe1 O9 2.133877 1_545
Fe1 O15 2.159059 1_555
Fe1 O13 2.159059 1_545
Fe2 O21 2.086260 1_555
Fe2 O23 2.086260 1_544
Fe2 O12 2.134121 1_644
Fe2 O14 2.134121 1_655
Fe2 O10 2.146349 1_554
Fe2 O8 2.146349 1_545
O0 Si0 1.668170 1_555
O0 Si6 1.686475 1_665
O1 Si1 1.668324 1_555
O1 Si7 1.686180 1_565
O2 Si2 1.668170 1_555
O2 Si4 1.686475 1_645
O3 Si3 1.668324 1_555
O3 Si5 1.686180 1_545
O4 Si4 1.667132 1_555
O4 Si2 1.686150 1_455
O5 Si5 1.668628 1_555
O5 Si3 1.686566 1_555
O6 Si6 1.667132 1_555
O6 Si0 1.686150 1_455
O7 Si7 1.668628 1_555
O7 Si1 1.686566 1_555
O8 Si0 1.604215 1_555
O9 Si1 1.604052 1_555
O9 Zn0 2.146404 1_555
O10 Si2 1.604215 1_555
O11 Si3 1.604052 1_555
O11 Zn0 2.146404 1_555
O12 Si4 1.603475 1_555
O13 Si5 1.608428 1_555
O13 Zn0 2.109136 1_555
O14 Si6 1.603475 1_555
O15 Si7 1.608428 1_555
O15 Zn0 2.109136 1_555
O16 Si0 1.591181 1_555
O16 Zn0 2.062176 1_555
O17 Si1 1.593029 1_555
O18 Si2 1.591181 1_555
O18 Zn0 2.062176 1_555
O19 Si3 1.593029 1_555
O20 Si4 1.590634 1_545
O21 Si5 1.592364 1_545
O22 Si6 1.590634 1_565
O23 Si7 1.592364 1_565
