# generated using pymatgen
data_HfMg6Sn
_symmetry_space_group_name_H-M   'P 1'
_cell_length_a   4.98241600
_cell_length_b   6.51103300
_cell_length_c   11.04858200
_cell_angle_alpha   90.00000000
_cell_angle_beta   90.00000000
_cell_angle_gamma   90.00000000
_symmetry_Int_Tables_number   1
_chemical_formula_structural   HfMg6Sn
_chemical_formula_sum   'Hf2 Mg12 Sn2'
_cell_volume   358.42345783
_cell_formula_units_Z   2
loop_
 _symmetry_equiv_pos_site_id
 _symmetry_equiv_pos_as_xyz
  1  'x, y, z'
loop_
 _atom_site_type_symbol
 _atom_site_label
 _atom_site_symmetry_multiplicity
 _atom_site_fract_x
 _atom_site_fract_y
 _atom_site_fract_z
 _atom_site_occupancy
  Hf  Hf0  1  0.00000000  0.50000000  0.16910900  1
  Hf  Hf1  1  0.00000000  0.00000000  0.66910900  1
  Mg  Mg0  1  0.50000000  0.24943100  0.08317600  1
  Mg  Mg1  1  0.50000000  0.75056900  0.08317600  1
  Mg  Mg2  1  0.50000000  0.50000000  0.83298300  1
  Mg  Mg3  1  0.00000000  0.25474700  0.91865100  1
  Mg  Mg4  1  0.00000000  0.74525300  0.91865100  1
  Mg  Mg5  1  0.00000000  0.50000000  0.66599400  1
  Mg  Mg6  1  0.50000000  0.74943100  0.58317600  1
  Mg  Mg7  1  0.50000000  0.25056900  0.58317600  1
  Mg  Mg8  1  0.50000000  0.00000000  0.33298300  1
  Mg  Mg9  1  0.00000000  0.75474700  0.41865100  1
  Mg  Mg10  1  0.00000000  0.24525300  0.41865100  1
  Mg  Mg11  1  0.00000000  0.00000000  0.16599400  1
  Sn  Sn0  1  0.50000000  0.50000000  0.32825900  1
  Sn  Sn1  1  0.50000000  0.00000000  0.82825900  1
loop_
_geom_bond_atom_site_label_1
_geom_bond_atom_site_label_2
_geom_bond_distance
_geom_bond_site_symmetry_2
Hf0 Sn0 3.049266 1_555
Hf0 Sn0 3.049266 1_455
Hf0 Mg0 3.125575 1_455
Hf0 Mg0 3.125575 1_555
Hf0 Mg1 3.125575 1_455
Hf0 Mg1 3.125575 1_555
Hf0 Mg3 3.194896 1_554
Hf0 Mg4 3.194896 1_554
Hf0 Mg9 3.217560 1_555
Hf0 Mg10 3.217560 1_555
Hf0 Mg11 3.255698 1_555
Hf0 Mg11 3.255698 1_565
Hf1 Sn1 3.049266 1_555
Hf1 Sn1 3.049266 1_455
Hf1 Mg7 3.125575 1_455
Hf1 Mg7 3.125575 1_555
Hf1 Mg6 3.125575 1_445
Hf1 Mg6 3.125575 1_545
Hf1 Mg9 3.194896 1_545
Hf1 Mg10 3.194896 1_555
Hf1 Mg4 3.217560 1_545
Hf1 Mg3 3.217560 1_555
Hf1 Mg5 3.255698 1_545
Hf1 Mg5 3.255698 1_555
Mg0 Mg3 3.084087 1_654
Mg0 Mg3 3.084087 1_554
Mg0 Mg11 3.111419 1_655
Mg0 Mg11 3.111419 1_555
Mg0 Sn0 3.161322 1_555
Mg0 Mg8 3.202378 1_555
Mg0 Mg2 3.209814 1_554
Mg0 Mg1 3.248107 1_545
Mg0 Sn1 3.251163 1_554
Mg0 Mg1 3.262926 1_555
Mg1 Mg4 3.084087 1_654
Mg1 Mg4 3.084087 1_554
Mg1 Mg11 3.111419 1_665
Mg1 Mg11 3.111419 1_565
Mg1 Sn0 3.161322 1_555
Mg1 Mg8 3.202378 1_565
Mg1 Mg2 3.209814 1_554
Mg1 Sn1 3.251163 1_564
Mg2 Mg5 3.100018 1_555
Mg2 Mg5 3.100018 1_655
Mg2 Mg3 3.106755 1_655
Mg2 Mg3 3.106755 1_555
Mg2 Mg4 3.106755 1_555
Mg2 Mg4 3.106755 1_655
Mg2 Mg6 3.202378 1_555
Mg2 Mg7 3.202378 1_555
Mg2 Sn1 3.255935 1_555
Mg2 Sn1 3.255935 1_565
Mg3 Sn1 3.155107 1_455
Mg3 Sn1 3.155107 1_555
Mg3 Mg5 3.215962 1_555
Mg4 Sn1 3.155107 1_465
Mg4 Sn1 3.155107 1_565
Mg4 Mg5 3.215962 1_555
Mg5 Mg6 3.111419 1_455
Mg5 Mg6 3.111419 1_555
Mg5 Mg7 3.111419 1_555
Mg5 Mg7 3.111419 1_455
Mg5 Mg9 3.196766 1_555
Mg6 Mg9 3.084087 1_655
Mg6 Mg9 3.084087 1_555
Mg6 Sn1 3.161322 1_565
Mg6 Mg8 3.209814 1_565
Mg6 Mg7 3.248107 1_555
Mg6 Sn0 3.251163 1_555
Mg6 Mg7 3.262926 1_565
Mg7 Sn1 3.161322 1_555
Mg7 Mg8 3.209814 1_555
Mg7 Sn0 3.251163 1_555
Mg8 Mg9 3.106755 1_645
Mg8 Mg9 3.106755 1_545
Mg8 Sn0 3.255935 1_555
Mg8 Sn0 3.255935 1_545
Mg9 Sn0 3.155107 1_555
Mg9 Sn0 3.155107 1_455
Mg10 Mg7 3.084087 1_455
Mg10 Mg7 3.084087 1_555
Mg10 Mg8 3.106755 1_455
Mg10 Mg8 3.106755 1_555
Mg10 Sn0 3.155107 1_555
Mg10 Sn0 3.155107 1_455
Mg10 Mg5 3.196766 1_555
Mg10 Mg11 3.215962 1_555
Mg11 Mg8 3.100018 1_455
Mg11 Mg8 3.100018 1_555
Mg11 Mg4 3.196766 1_544
Mg11 Mg3 3.196766 1_554
Mg11 Mg9 3.215962 1_545
