# generated using pymatgen
data_TbNdFe14B
_symmetry_space_group_name_H-M   'P 1'
_cell_length_a   8.75199100
_cell_length_b   8.75199100
_cell_length_c   12.06694600
_cell_angle_alpha   90.00000000
_cell_angle_beta   90.00000000
_cell_angle_gamma   90.00000000
_symmetry_Int_Tables_number   1
_chemical_formula_structural   TbNdFe14B
_chemical_formula_sum   'Tb4 Nd4 Fe56 B4'
_cell_volume   924.29604353
_cell_formula_units_Z   4
loop_
 _symmetry_equiv_pos_site_id
 _symmetry_equiv_pos_as_xyz
  1  'x, y, z'
loop_
 _atom_site_type_symbol
 _atom_site_label
 _atom_site_symmetry_multiplicity
 _atom_site_fract_x
 _atom_site_fract_y
 _atom_site_fract_z
 _atom_site_occupancy
  Tb  Tb0  1  0.64394800  0.64394800  0.50000000  1
  Tb  Tb1  1  0.35605200  0.35605200  0.50000000  1
  Tb  Tb2  1  0.85605200  0.14394800  0.00000000  1
  Tb  Tb3  1  0.14394800  0.85605200  0.00000000  1
  Nd  Nd0  1  0.23359700  0.76640300  0.50000000  1
  Nd  Nd1  1  0.76640300  0.23359700  0.50000000  1
  Nd  Nd2  1  0.26640300  0.26640300  0.00000000  1
  Nd  Nd3  1  0.73359700  0.73359700  0.00000000  1
  Fe  Fe0  1  0.18246500  0.81753500  0.25319400  1
  Fe  Fe1  1  0.81753500  0.18246500  0.25319400  1
  Fe  Fe2  1  0.31753500  0.31753500  0.75319400  1
  Fe  Fe3  1  0.68246500  0.68246500  0.75319400  1
  Fe  Fe4  1  0.81753500  0.18246500  0.74680600  1
  Fe  Fe5  1  0.18246500  0.81753500  0.74680600  1
  Fe  Fe6  1  0.68246500  0.68246500  0.24680600  1
  Fe  Fe7  1  0.31753500  0.31753500  0.24680600  1
  Fe  Fe8  1  0.40299000  0.59701000  0.29711800  1
  Fe  Fe9  1  0.59701000  0.40299000  0.29711800  1
  Fe  Fe10  1  0.09701000  0.09701000  0.79711800  1
  Fe  Fe11  1  0.90299000  0.90299000  0.79711800  1
  Fe  Fe12  1  0.59701000  0.40299000  0.70288200  1
  Fe  Fe13  1  0.40299000  0.59701000  0.70288200  1
  Fe  Fe14  1  0.90299000  0.90299000  0.20288200  1
  Fe  Fe15  1  0.09701000  0.09701000  0.20288200  1
  Fe  Fe16  1  0.14041900  0.53629300  0.32398800  1
  Fe  Fe17  1  0.85958100  0.46370700  0.32398800  1
  Fe  Fe18  1  0.35958100  0.03629300  0.82398800  1
  Fe  Fe19  1  0.64041900  0.96370700  0.82398800  1
  Fe  Fe20  1  0.85958100  0.46370700  0.67601200  1
  Fe  Fe21  1  0.14041900  0.53629300  0.67601200  1
  Fe  Fe22  1  0.64041900  0.96370700  0.17601200  1
  Fe  Fe23  1  0.35958100  0.03629300  0.17601200  1
  Fe  Fe24  1  0.53629300  0.14041900  0.32398800  1
  Fe  Fe25  1  0.46370700  0.85958100  0.32398800  1
  Fe  Fe26  1  0.03629300  0.35958100  0.82398800  1
  Fe  Fe27  1  0.96370700  0.64041900  0.82398800  1
  Fe  Fe28  1  0.46370700  0.85958100  0.67601200  1
  Fe  Fe29  1  0.53629300  0.14041900  0.67601200  1
  Fe  Fe30  1  0.96370700  0.64041900  0.17601200  1
  Fe  Fe31  1  0.03629300  0.35958100  0.17601200  1
  Fe  Fe32  1  0.50000000  0.50000000  0.11431300  1
  Fe  Fe33  1  0.00000000  0.00000000  0.61431300  1
  Fe  Fe34  1  0.50000000  0.50000000  0.88568700  1
  Fe  Fe35  1  0.00000000  0.00000000  0.38568700  1
  Fe  Fe36  1  0.93207800  0.72428000  0.37286100  1
  Fe  Fe37  1  0.06792200  0.27572000  0.37286100  1
  Fe  Fe38  1  0.56792200  0.22428000  0.87286100  1
  Fe  Fe39  1  0.43207800  0.77572000  0.87286100  1
  Fe  Fe40  1  0.06792200  0.27572000  0.62713900  1
  Fe  Fe41  1  0.93207800  0.72428000  0.62713900  1
  Fe  Fe42  1  0.43207800  0.77572000  0.12713900  1
  Fe  Fe43  1  0.56792200  0.22428000  0.12713900  1
  Fe  Fe44  1  0.72428000  0.93207800  0.37286100  1
  Fe  Fe45  1  0.27572000  0.06792200  0.37286100  1
  Fe  Fe46  1  0.22428000  0.56792200  0.87286100  1
  Fe  Fe47  1  0.77572000  0.43207800  0.87286100  1
  Fe  Fe48  1  0.27572000  0.06792200  0.62713900  1
  Fe  Fe49  1  0.72428000  0.93207800  0.62713900  1
  Fe  Fe50  1  0.77572000  0.43207800  0.12713900  1
  Fe  Fe51  1  0.22428000  0.56792200  0.12713900  1
  Fe  Fe52  1  0.00000000  0.50000000  0.50000000  1
  Fe  Fe53  1  0.50000000  0.00000000  0.00000000  1
  Fe  Fe54  1  0.50000000  0.00000000  0.50000000  1
  Fe  Fe55  1  0.00000000  0.50000000  0.00000000  1
  B  B0  1  0.87400600  0.87400600  0.50000000  1
  B  B1  1  0.12599400  0.12599400  0.50000000  1
  B  B2  1  0.62599400  0.37400600  0.00000000  1
  B  B3  1  0.37400600  0.62599400  0.00000000  1
loop_
_geom_bond_atom_site_label_1
_geom_bond_atom_site_label_2
_geom_bond_distance
_geom_bond_site_symmetry_2
Fe0 Fe15 2.628816 1_565
Fe0 Fe14 2.628816 1_455
Fe0 Fe16 2.631314 1_555
Fe0 Fe25 2.631314 1_555
Fe0 Fe23 2.633600 1_565
Fe0 Fe30 2.633600 1_455
Fe0 Fe51 2.687042 1_555
Fe0 Fe42 2.687042 1_555
Fe0 Fe45 2.748359 1_565
Fe0 Fe36 2.748359 1_455
Fe0 Fe35 2.767038 1_565
Fe0 Fe8 2.780465 1_555
Fe0 Nd0 3.044695 1_555
Fe0 Tb3 3.092248 1_555
Fe1 Fe14 2.628816 1_545
Fe1 Fe15 2.628816 1_655
Fe1 Fe17 2.631314 1_555
Fe1 Fe24 2.631314 1_555
Fe1 Fe31 2.633600 1_655
Fe1 Fe22 2.633600 1_545
Fe1 Fe50 2.687042 1_555
Fe1 Fe43 2.687042 1_555
Fe1 Fe37 2.748359 1_655
Fe1 Fe44 2.748359 1_545
Fe1 Fe35 2.767038 1_655
Fe1 Fe9 2.780465 1_555
Fe1 Nd1 3.044695 1_555
Fe1 Tb2 3.092248 1_555
Fe2 Fe26 2.631314 1_555
Fe2 Fe21 2.633600 1_555
Fe2 Fe29 2.633600 1_555
Fe2 Fe40 2.687042 1_555
Fe2 Fe48 2.687042 1_555
Fe2 Fe38 2.748359 1_555
Fe2 Fe46 2.748359 1_555
Fe2 Fe34 2.767038 1_555
Fe2 Nd2 3.044695 1_556
Fe2 Tb1 3.092248 1_555
Fe3 Fe41 2.687042 1_555
Fe3 Fe49 2.687042 1_555
Fe3 Fe47 2.748359 1_555
Fe3 Fe39 2.748359 1_555
Fe3 Fe34 2.767038 1_555
Fe3 Nd3 3.044695 1_556
Fe3 Tb0 3.092248 1_555
Fe4 Fe47 2.687042 1_555
Fe4 Fe49 2.748359 1_545
Fe4 Fe40 2.748359 1_655
Fe4 Nd1 3.044695 1_555
Fe4 Tb2 3.092248 1_556
Fe5 Nd0 3.044695 1_555
Fe5 Tb3 3.092248 1_556
Fe6 Fe8 2.628816 1_555
Fe6 Fe9 2.628816 1_555
Fe6 Nd3 3.044695 1_555
Fe6 Tb0 3.092248 1_555
Fe7 Fe9 2.628816 1_555
Fe7 Fe8 2.628816 1_555
Fe7 Nd2 3.044695 1_555
Fe7 Tb1 3.092248 1_555
Fe8 Fe9 2.401421 1_555
Fe8 Nd0 3.223241 1_555
Fe8 Tb0 3.257234 1_555
Fe8 Tb1 3.257234 1_555
Fe9 Nd1 3.223241 1_555
Fe9 Tb0 3.257234 1_555
Fe9 Tb1 3.257234 1_555
Fe10 Fe26 2.380841 1_555
Fe10 Fe18 2.380841 1_555
Fe10 Fe11 2.401421 1_445
Fe10 Fe33 2.511512 1_555
Fe10 Fe48 2.591957 1_555
Fe10 Fe40 2.591957 1_555
Fe10 Fe4 2.628816 1_455
Fe10 Fe5 2.628816 1_545
Fe10 Fe2 2.780465 1_555
Fe10 Nd2 3.223241 1_556
Fe10 Tb2 3.257234 1_456
Fe10 Tb3 3.257234 1_546
Fe11 Fe19 2.380841 1_555
Fe11 Fe27 2.380841 1_555
Fe11 Fe33 2.511512 1_665
Fe11 Fe41 2.591957 1_555
Fe11 Fe49 2.591957 1_555
Fe11 Fe4 2.628816 1_565
Fe11 Fe5 2.628816 1_655
Fe11 Fe3 2.780465 1_555
Fe11 Nd3 3.223241 1_556
Fe11 Tb2 3.257234 1_566
Fe11 Tb3 3.257234 1_656
Fe12 Fe29 2.380841 1_555
Fe12 Fe20 2.380841 1_555
Fe12 Fe13 2.401421 1_555
Fe12 Fe34 2.511512 1_555
Fe12 Fe47 2.591957 1_555
Fe12 Fe38 2.591957 1_555
Fe12 Fe3 2.628816 1_555
Fe12 Fe2 2.628816 1_555
Fe12 Fe4 2.780465 1_555
Fe12 Nd1 3.223241 1_555
Fe12 Tb0 3.257234 1_555
Fe12 Tb1 3.257234 1_555
Fe13 Fe21 2.380841 1_555
Fe13 Fe28 2.380841 1_555
Fe13 Fe34 2.511512 1_555
Fe13 Fe39 2.591957 1_555
Fe13 Fe46 2.591957 1_555
Fe13 Fe3 2.628816 1_555
Fe13 Fe2 2.628816 1_555
Fe13 Fe5 2.780465 1_555
Fe13 Nd0 3.223241 1_555
Fe13 Tb0 3.257234 1_555
Fe13 Tb1 3.257234 1_555
Fe14 Fe22 2.380841 1_555
Fe14 Fe30 2.380841 1_555
Fe14 Fe15 2.401421 1_665
Fe14 Fe35 2.511512 1_665
Fe14 Fe44 2.591957 1_555
Fe14 Fe36 2.591957 1_555
Fe14 Fe6 2.780465 1_555
Fe14 Nd3 3.223241 1_555
Fe14 Tb3 3.257234 1_655
Fe14 Tb2 3.257234 1_565
Fe15 Fe23 2.380841 1_555
Fe15 Fe31 2.380841 1_555
Fe15 Fe35 2.511512 1_555
Fe15 Fe45 2.591957 1_555
Fe15 Fe37 2.591957 1_555
Fe15 Fe7 2.780465 1_555
Fe15 Nd2 3.223241 1_555
Fe15 Tb2 3.257234 1_455
Fe15 Tb3 3.257234 1_545
Fe16 Fe8 2.380841 1_555
Fe16 Fe37 2.439511 1_555
Fe16 Fe52 2.474322 1_555
Fe16 Fe51 2.501535 1_555
Fe16 Fe36 2.525761 1_455
Fe16 Fe30 2.531962 1_455
Fe16 Fe31 2.531962 1_555
Fe16 Fe17 2.538661 1_455
Fe16 Fe7 2.633600 1_555
Fe16 Nd0 3.038416 1_555
Fe16 Tb1 3.249779 1_555
Fe17 Fe9 2.380841 1_555
Fe17 Fe36 2.439511 1_555
Fe17 Fe52 2.474322 1_655
Fe17 Fe50 2.501535 1_555
Fe17 Fe37 2.525761 1_655
Fe17 Fe31 2.531962 1_655
Fe17 Fe30 2.531962 1_555
Fe17 Fe6 2.633600 1_555
Fe17 Nd1 3.038416 1_555
Fe17 Tb0 3.249779 1_555
Fe18 Fe39 2.439511 1_545
Fe18 Fe53 2.474322 1_556
Fe18 Fe48 2.501535 1_555
Fe18 Fe38 2.525761 1_555
Fe18 Fe29 2.531962 1_555
Fe18 Fe28 2.531962 1_545
Fe18 Fe19 2.538661 1_545
Fe18 Fe2 2.631314 1_555
Fe18 Fe5 2.633600 1_545
Fe18 Nd2 3.038416 1_556
Fe18 Tb3 3.249779 1_546
Fe19 Fe38 2.439511 1_565
Fe19 Fe53 2.474322 1_566
Fe19 Fe49 2.501535 1_555
Fe19 Fe39 2.525761 1_555
Fe19 Fe28 2.531962 1_555
Fe19 Fe29 2.531962 1_565
Fe19 Fe3 2.631314 1_555
Fe19 Fe4 2.633600 1_565
Fe19 Nd3 3.038416 1_556
Fe19 Tb2 3.249779 1_566
Fe20 Fe41 2.439511 1_555
Fe20 Fe52 2.474322 1_655
Fe20 Fe47 2.501535 1_555
Fe20 Fe40 2.525761 1_655
Fe20 Fe26 2.531962 1_655
Fe20 Fe27 2.531962 1_555
Fe20 Fe21 2.538661 1_655
Fe20 Fe4 2.631314 1_555
Fe20 Fe3 2.633600 1_555
Fe20 Nd1 3.038416 1_555
Fe20 Tb0 3.249779 1_555
Fe21 Fe40 2.439511 1_555
Fe21 Fe52 2.474322 1_555
Fe21 Fe46 2.501535 1_555
Fe21 Fe41 2.525761 1_455
Fe21 Fe26 2.531962 1_555
Fe21 Fe27 2.531962 1_455
Fe21 Fe5 2.631314 1_555
Fe21 Nd0 3.038416 1_555
Fe21 Tb1 3.249779 1_555
Fe22 Fe43 2.439511 1_565
Fe22 Fe53 2.474322 1_565
Fe22 Fe44 2.501535 1_555
Fe22 Fe42 2.525761 1_555
Fe22 Fe25 2.531962 1_555
Fe22 Fe24 2.531962 1_565
Fe22 Fe23 2.538661 1_565
Fe22 Fe6 2.631314 1_555
Fe22 Nd3 3.038416 1_555
Fe22 Tb2 3.249779 1_565
Fe23 Fe42 2.439511 1_545
Fe23 Fe53 2.474322 1_555
Fe23 Fe45 2.501535 1_555
Fe23 Fe43 2.525761 1_555
Fe23 Fe25 2.531962 1_545
Fe23 Fe24 2.531962 1_555
Fe23 Fe7 2.631314 1_555
Fe23 Nd2 3.038416 1_555
Fe23 Tb3 3.249779 1_545
Fe24 Fe9 2.380841 1_555
Fe24 Fe45 2.439511 1_555
Fe24 Fe54 2.474322 1_555
Fe24 Fe43 2.501535 1_555
Fe24 Fe44 2.525761 1_545
Fe24 Fe25 2.538661 1_545
Fe24 Fe7 2.633600 1_555
Fe24 Nd1 3.038416 1_555
Fe24 Tb1 3.249779 1_555
Fe25 Fe8 2.380841 1_555
Fe25 Fe44 2.439511 1_555
Fe25 Fe54 2.474322 1_565
Fe25 Fe42 2.501535 1_555
Fe25 Fe45 2.525761 1_565
Fe25 Fe6 2.633600 1_555
Fe25 Nd0 3.038416 1_555
Fe25 Tb0 3.249779 1_555
Fe26 Fe47 2.439511 1_455
Fe26 Fe55 2.474322 1_556
Fe26 Fe40 2.501535 1_555
Fe26 Fe46 2.525761 1_555
Fe26 Fe27 2.538661 1_455
Fe26 Fe4 2.633600 1_455
Fe26 Nd2 3.038416 1_556
Fe26 Tb2 3.249779 1_456
Fe27 Fe46 2.439511 1_655
Fe27 Fe55 2.474322 1_656
Fe27 Fe41 2.501535 1_555
Fe27 Fe47 2.525761 1_555
Fe27 Fe3 2.631314 1_555
Fe27 Fe5 2.633600 1_655
Fe27 Nd3 3.038416 1_556
Fe27 Tb3 3.249779 1_656
Fe28 Fe49 2.439511 1_555
Fe28 Fe54 2.474322 1_565
Fe28 Fe39 2.501535 1_555
Fe28 Fe48 2.525761 1_565
Fe28 Fe29 2.538661 1_565
Fe28 Fe5 2.631314 1_555
Fe28 Fe3 2.633600 1_555
Fe28 Nd0 3.038416 1_555
Fe28 Tb0 3.249779 1_555
Fe29 Fe48 2.439511 1_555
Fe29 Fe54 2.474322 1_555
Fe29 Fe38 2.501535 1_555
Fe29 Fe49 2.525761 1_545
Fe29 Fe4 2.631314 1_555
Fe29 Nd1 3.038416 1_555
Fe29 Tb1 3.249779 1_555
Fe30 Fe51 2.439511 1_655
Fe30 Fe55 2.474322 1_655
Fe30 Fe36 2.501535 1_555
Fe30 Fe50 2.525761 1_555
Fe30 Fe31 2.538661 1_655
Fe30 Fe6 2.631314 1_555
Fe30 Nd3 3.038416 1_555
Fe30 Tb3 3.249779 1_655
Fe31 Fe50 2.439511 1_455
Fe31 Fe55 2.474322 1_555
Fe31 Fe37 2.501535 1_555
Fe31 Fe51 2.525761 1_555
Fe31 Fe7 2.631314 1_555
Fe31 Nd2 3.038416 1_555
Fe31 Tb2 3.249779 1_455
Fe32 Fe9 2.511512 1_555
Fe32 Fe8 2.511512 1_555
Fe32 Fe6 2.767038 1_555
Fe32 Fe7 2.767038 1_555
Fe32 Nd2 3.203471 1_555
Fe32 Nd3 3.203471 1_555
Fe33 Fe5 2.767038 1_545
Fe33 Fe4 2.767038 1_455
Fe33 Nd0 3.203471 1_545
Fe33 Nd1 3.203471 1_455
Fe34 Nd2 3.203471 1_556
Fe34 Nd3 3.203471 1_556
Fe35 Nd0 3.203471 1_545
Fe35 Nd1 3.203471 1_455
Fe36 Fe52 2.561258 1_655
Fe36 Fe6 2.687042 1_555
Fe36 Tb0 3.034309 1_555
Fe36 Nd0 3.074633 1_655
Fe37 Fe52 2.561258 1_555
Fe37 Fe7 2.687042 1_555
Fe37 Tb1 3.034309 1_555
Fe37 Nd1 3.074633 1_455
Fe38 Fe53 2.561258 1_556
Fe38 Fe4 2.687042 1_555
Fe38 Tb2 3.034309 1_556
Fe38 Nd2 3.074633 1_556
Fe39 Fe53 2.561258 1_566
Fe39 Fe5 2.687042 1_555
Fe39 Tb3 3.034309 1_556
Fe39 Nd3 3.074633 1_556
Fe40 Fe52 2.561258 1_555
Fe40 Tb1 3.034309 1_555
Fe40 Nd1 3.074633 1_455
Fe41 Fe52 2.561258 1_655
Fe41 Fe5 2.748359 1_655
Fe41 Tb0 3.034309 1_555
Fe41 Nd0 3.074633 1_655
Fe42 Fe53 2.561258 1_565
Fe42 Fe8 2.591957 1_555
Fe42 Fe6 2.748359 1_555
Fe42 Tb3 3.034309 1_555
Fe42 Nd3 3.074633 1_555
Fe43 Fe53 2.561258 1_555
Fe43 Fe9 2.591957 1_555
Fe43 Fe7 2.748359 1_555
Fe43 Tb2 3.034309 1_555
Fe43 Nd2 3.074633 1_555
Fe44 Fe54 2.561258 1_565
Fe44 Fe6 2.687042 1_555
Fe44 Tb0 3.034309 1_555
Fe44 Nd1 3.074633 1_565
Fe45 Fe54 2.561258 1_555
Fe45 Fe7 2.687042 1_555
Fe45 Tb1 3.034309 1_555
Fe45 Nd0 3.074633 1_545
Fe46 Fe55 2.561258 1_556
Fe46 Fe5 2.687042 1_555
Fe46 Tb3 3.034309 1_556
Fe46 Nd2 3.074633 1_556
Fe47 Fe55 2.561258 1_656
Fe47 Tb2 3.034309 1_556
Fe47 Nd3 3.074633 1_556
Fe48 Fe54 2.561258 1_555
Fe48 Fe5 2.748359 1_545
Fe48 Tb1 3.034309 1_555
Fe48 Nd0 3.074633 1_545
Fe49 Fe54 2.561258 1_565
Fe49 Tb0 3.034309 1_555
Fe49 Nd1 3.074633 1_565
Fe50 Fe55 2.561258 1_655
Fe50 Fe9 2.591957 1_555
Fe50 Fe6 2.748359 1_555
Fe50 Tb2 3.034309 1_555
Fe50 Nd3 3.074633 1_555
Fe51 Fe55 2.561258 1_555
Fe51 Fe8 2.591957 1_555
Fe51 Fe7 2.748359 1_555
Fe51 Tb3 3.034309 1_555
Fe51 Nd2 3.074633 1_555
Fe52 Nd0 3.100949 1_555
Fe52 Nd1 3.100949 1_455
Fe52 Tb1 3.361198 1_555
Fe52 Tb0 3.361198 1_455
Fe53 Nd3 3.100949 1_545
Fe53 Nd2 3.100949 1_555
Fe53 Tb2 3.361198 1_555
Fe53 Tb3 3.361198 1_545
Fe54 Nd1 3.100949 1_555
Fe54 Nd0 3.100949 1_545
Fe54 Tb1 3.361198 1_555
Fe54 Tb0 3.361198 1_545
Fe55 Nd2 3.100949 1_555
Fe55 Nd3 3.100949 1_455
Fe55 Tb2 3.361198 1_455
Fe55 Tb3 3.361198 1_555
B0 Fe36 2.080666 1_555
B0 Fe49 2.080666 1_555
B0 Fe44 2.080666 1_555
B0 Fe41 2.080666 1_555
B0 Fe35 2.081984 1_665
B0 Fe33 2.081984 1_665
B0 Tb0 2.847470 1_555
B1 Fe37 2.080666 1_555
B1 Fe40 2.080666 1_555
B1 Fe48 2.080666 1_555
B1 Fe45 2.080666 1_555
B1 Fe33 2.081984 1_555
B1 Fe35 2.081984 1_555
B1 Tb1 2.847470 1_555
B2 Fe47 2.080666 1_554
B2 Fe50 2.080666 1_555
B2 Fe43 2.080666 1_555
B2 Fe38 2.080666 1_554
B2 Fe32 2.081984 1_555
B2 Fe34 2.081984 1_554
B2 Tb2 2.847470 1_555
B3 Fe39 2.080666 1_554
B3 Fe42 2.080666 1_555
B3 Fe51 2.080666 1_555
B3 Fe46 2.080666 1_554
B3 Fe32 2.081984 1_555
B3 Fe34 2.081984 1_554
B3 Tb3 2.847470 1_555
