# generated using pymatgen
data_NpTi3
_symmetry_space_group_name_H-M   'P 1'
_cell_length_a   4.17868900
_cell_length_b   4.17868900
_cell_length_c   4.17868900
_cell_angle_alpha   90.00000000
_cell_angle_beta   90.00000000
_cell_angle_gamma   90.00000000
_symmetry_Int_Tables_number   1
_chemical_formula_structural   NpTi3
_chemical_formula_sum   'Np1 Ti3'
_cell_volume   72.96593460
_cell_formula_units_Z   1
loop_
 _symmetry_equiv_pos_site_id
 _symmetry_equiv_pos_as_xyz
  1  'x, y, z'
loop_
 _atom_site_type_symbol
 _atom_site_label
 _atom_site_symmetry_multiplicity
 _atom_site_fract_x
 _atom_site_fract_y
 _atom_site_fract_z
 _atom_site_occupancy
  Np  Np0  1  0.00000000  0.00000000  0.00000000  1
  Ti  Ti0  1  0.00000000  0.49999800  0.49999800  1
  Ti  Ti1  1  0.49999800  0.00000000  0.49999800  1
  Ti  Ti2  1  0.49999800  0.49999800  0.00000000  1
loop_
_geom_bond_atom_site_label_1
_geom_bond_atom_site_label_2
_geom_bond_distance
_geom_bond_site_symmetry_2
Np0 Ti0 2.954768 1_555
Np0 Ti1 2.954768 1_555
Np0 Ti2 2.954768 1_555
Np0 Ti2 2.954779 1_455
Np0 Ti2 2.954779 1_545
Np0 Ti1 2.954779 1_554
Np0 Ti0 2.954779 1_545
Np0 Ti1 2.954779 1_455
Np0 Ti0 2.954779 1_554
Np0 Ti1 2.954791 1_454
Np0 Ti0 2.954791 1_544
Np0 Ti2 2.954791 1_445
Ti0 Ti1 2.954768 1_555
Ti0 Ti2 2.954768 1_555
Ti0 Ti2 2.954779 1_455
Ti0 Ti1 2.954779 1_565
Ti0 Ti2 2.954779 1_556
Ti0 Ti1 2.954779 1_455
Ti0 Ti2 2.954791 1_456
Ti0 Ti1 2.954791 1_465
Ti1 Ti2 2.954768 1_555
Ti1 Ti2 2.954779 1_545
Ti1 Ti2 2.954779 1_556
Ti1 Ti2 2.954791 1_546
