# generated using pymatgen
data_MgSi(HO)6
_symmetry_space_group_name_H-M   'P 1'
_cell_length_a   5.23670400
_cell_length_b   5.14130200
_cell_length_c   7.39010179
_cell_angle_alpha   89.91165404
_cell_angle_beta   90.00000000
_cell_angle_gamma   90.00000000
_symmetry_Int_Tables_number   1
_chemical_formula_structural   MgSi(HO)6
_chemical_formula_sum   'Mg2 Si2 H12 O12'
_cell_volume   198.96699706
_cell_formula_units_Z   2
loop_
 _symmetry_equiv_pos_site_id
 _symmetry_equiv_pos_as_xyz
  1  'x, y, z'
loop_
 _atom_site_type_symbol
 _atom_site_label
 _atom_site_symmetry_multiplicity
 _atom_site_fract_x
 _atom_site_fract_y
 _atom_site_fract_z
 _atom_site_occupancy
  Mg  Mg0  1  0.99958200  0.74747300  0.24899200  1
  Mg  Mg1  1  0.49958200  0.25252700  0.75100800  1
  Si  Si0  1  0.49822400  0.25128800  0.24939800  1
  Si  Si1  1  0.99822400  0.74871200  0.75060200  1
  H  H0  1  0.63502000  0.48970400  0.49245400  1
  H  H1  1  0.13502000  0.51029600  0.50754600  1
  H  H2  1  0.88028300  0.99360400  0.98951800  1
  H  H3  1  0.38028300  0.00639600  0.01048200  1
  H  H4  1  0.05147300  0.27493000  0.23234400  1
  H  H5  1  0.55147300  0.72507000  0.76765600  1
  H  H6  1  0.46232600  0.81062100  0.28358200  1
  H  H7  1  0.96232600  0.18937900  0.71641800  1
  H  H8  1  0.31590800  0.91030600  0.55946100  1
  H  H9  1  0.81590800  0.08969400  0.44053900  1
  H  H10  1  0.15446800  0.43380500  0.95123200  1
  H  H11  1  0.65446800  0.56619500  0.04876800  1
  O  O0  1  0.48515300  0.37398400  0.47868600  1
  O  O1  1  0.98515300  0.62601600  0.52131400  1
  O  O2  1  0.02526100  0.87117000  0.97939700  1
  O  O3  1  0.52526100  0.12883000  0.02060300  1
  O  O4  1  0.30231200  0.90886900  0.69429000  1
  O  O5  1  0.80231200  0.09113100  0.30571000  1
  O  O6  1  0.15772000  0.45394300  0.81707600  1
  O  O7  1  0.65772000  0.54605700  0.18292400  1
  O  O8  1  0.33862600  0.95025900  0.31557000  1
  O  O9  1  0.83862600  0.04974100  0.68443000  1
  O  O10  1  0.19264300  0.39787300  0.19847600  1
  O  O11  1  0.69264300  0.60212700  0.80152400  1
loop_
_geom_bond_atom_site_label_1
_geom_bond_atom_site_label_2
_geom_bond_distance
_geom_bond_site_symmetry_2
Mg0 O5 2.089715 1_565
Mg0 O2 2.094761 1_654
Mg0 O10 2.096236 1_655
Mg0 O1 2.107575 1_555
Mg0 O8 2.117298 1_655
Mg0 O7 2.125374 1_555
Mg1 O4 2.089715 1_545
Mg1 O3 2.094761 1_556
Mg1 O11 2.096236 1_555
Mg1 O0 2.107575 1_555
Mg1 O9 2.117298 1_555
Mg1 O6 2.125374 1_555
H0 O0 0.990168 1_555
H1 O1 0.990168 1_455
H2 O2 0.989125 1_655
H3 O3 0.989125 1_555
H4 O10 1.004094 1_555
H5 O11 1.004094 1_555
H6 O8 0.995709 1_555
H7 O9 0.995709 1_555
H8 O4 0.998957 1_555
H9 O5 0.998957 1_555
H10 O6 0.996805 1_555
H11 O7 0.996805 1_555
O0 Si0 1.810280 1_555
O1 Si1 1.810280 1_555
O2 Si1 1.810686 1_455
O3 Si0 1.810686 1_555
O4 Si1 1.840091 1_455
O5 Si0 1.840091 1_555
O6 Si1 1.798159 1_455
O7 Si0 1.798159 1_555
O8 Si0 1.825001 1_565
O9 Si1 1.825001 1_545
O10 Si0 1.808168 1_555
O11 Si1 1.808168 1_555
