# generated using pymatgen
data_MgMnP2O7
_symmetry_space_group_name_H-M   'P 1'
_cell_length_a   7.14626154
_cell_length_b   10.00204531
_cell_length_c   8.43948935
_cell_angle_alpha   94.13032817
_cell_angle_beta   112.84588689
_cell_angle_gamma   104.06745319
_symmetry_Int_Tables_number   1
_chemical_formula_structural   MgMnP2O7
_chemical_formula_sum   'Mg4 Mn4 P8 O28'
_cell_volume   529.81333966
_cell_formula_units_Z   4
loop_
 _symmetry_equiv_pos_site_id
 _symmetry_equiv_pos_as_xyz
  1  'x, y, z'
loop_
 _atom_site_type_symbol
 _atom_site_label
 _atom_site_symmetry_multiplicity
 _atom_site_fract_x
 _atom_site_fract_y
 _atom_site_fract_z
 _atom_site_occupancy
  Mg  Mg0  1  0.11944900  0.63001700  0.79474300  1
  Mg  Mg1  1  0.11947800  0.13004100  0.29483500  1
  Mg  Mg2  1  0.88056700  0.86993800  0.70512000  1
  Mg  Mg3  1  0.88053400  0.36997300  0.20518400  1
  Mn  Mn0  1  0.78670900  0.28945200  0.59871800  1
  Mn  Mn1  1  0.21343400  0.71052600  0.40132900  1
  Mn  Mn2  1  0.78603400  0.78946100  0.09850300  1
  Mn  Mn3  1  0.21362400  0.21059400  0.90137800  1
  P  P0  1  0.75810200  0.58526300  0.40755600  1
  P  P1  1  0.75815800  0.08520900  0.90760500  1
  P  P2  1  0.24183500  0.91475500  0.09242400  1
  P  P3  1  0.24192600  0.41476400  0.59244900  1
  P  P4  1  0.69312000  0.98579300  0.35107700  1
  P  P5  1  0.69315900  0.48582000  0.85107000  1
  P  P6  1  0.30685800  0.51422200  0.14896700  1
  P  P7  1  0.30684600  0.01418800  0.64893100  1
  O  O0  1  0.48582400  0.91636400  0.16209000  1
  O  O1  1  0.48586000  0.41636700  0.66208300  1
  O  O2  1  0.51415600  0.58362400  0.33790800  1
  O  O3  1  0.51419500  0.08363500  0.83791600  1
  O  O4  1  0.77073300  0.43295200  0.39683700  1
  O  O5  1  0.77068500  0.93292800  0.89690000  1
  O  O6  1  0.22932000  0.06706500  0.10313700  1
  O  O7  1  0.22929300  0.56705000  0.60317500  1
  O  O8  1  0.33960700  0.60390500  0.01820500  1
  O  O9  1  0.33958400  0.10388100  0.51820500  1
  O  O10  1  0.66043800  0.89611500  0.48179700  1
  O  O11  1  0.66042300  0.39610000  0.98177600  1
  O  O12  1  0.12779900  0.53417500  0.20009000  1
  O  O13  1  0.12784700  0.03416600  0.70011100  1
  O  O14  1  0.87214600  0.96583600  0.29989200  1
  O  O15  1  0.87217300  0.46580900  0.79989000  1
  O  O16  1  0.13687100  0.82962200  0.90515000  1
  O  O17  1  0.13683700  0.32962900  0.40517700  1
  O  O18  1  0.86317500  0.67036900  0.59484600  1
  O  O19  1  0.86313400  0.17036900  0.09485900  1
  O  O20  1  0.14449700  0.84221900  0.20820100  1
  O  O21  1  0.14466000  0.34220200  0.70827500  1
  O  O22  1  0.85538600  0.65779400  0.29174400  1
  O  O23  1  0.85553200  0.15776000  0.79185400  1
  O  O24  1  0.29168600  0.36090700  0.11067300  1
  O  O25  1  0.29174800  0.86088600  0.61064300  1
  O  O26  1  0.70824900  0.13911900  0.38933100  1
  O  O27  1  0.70831100  0.63913300  0.88934700  1
loop_
_geom_bond_atom_site_label_1
_geom_bond_atom_site_label_2
_geom_bond_distance
_geom_bond_site_symmetry_2
Mg0 O8 2.016648 1_556
Mg0 O16 2.095393 1_555
Mg0 O18 2.102684 1_455
Mg0 O15 2.116847 1_455
Mg0 O7 2.169282 1_555
Mg1 O9 2.016168 1_555
Mg1 O17 2.095200 1_555
Mg1 O19 2.103195 1_455
Mg1 O14 2.116788 1_445
Mg1 O6 2.170250 1_555
Mg2 O10 2.016054 1_555
Mg2 O18 2.094744 1_555
Mg2 O16 2.103185 1_655
Mg2 O13 2.116515 1_665
Mg2 O5 2.171100 1_555
Mg3 O11 2.016263 1_554
Mg3 O19 2.095194 1_555
Mg3 O17 2.103160 1_655
Mg3 O12 2.116582 1_655
Mg3 O4 2.169719 1_555
Mn0 O26 2.033724 1_555
Mn0 O15 2.146313 1_555
Mn0 O23 2.152995 1_555
Mn0 O21 2.261364 1_655
Mn0 O4 2.292776 1_555
Mn1 O25 2.033705 1_555
Mn1 O12 2.146351 1_555
Mn1 O20 2.153022 1_555
Mn1 O22 2.262000 1_455
Mn1 O7 2.292455 1_555
Mn2 O27 2.033589 1_554
Mn2 O14 2.146551 1_555
Mn2 O22 2.153763 1_555
Mn2 O20 2.264653 1_655
Mn2 O5 2.291135 1_554
Mn3 O24 2.033740 1_556
Mn3 O13 2.146809 1_555
Mn3 O21 2.152274 1_555
Mn3 O23 2.262240 1_455
Mn3 O6 2.292359 1_556
O0 P2 1.604704 1_555
O0 P4 1.651151 1_555
O1 P3 1.604365 1_555
O1 P5 1.651192 1_555
O2 P0 1.604339 1_555
O2 P6 1.650893 1_555
O3 P1 1.604616 1_555
O3 P7 1.651324 1_555
O4 P0 1.546118 1_555
O5 P1 1.545580 1_565
O6 P2 1.545842 1_545
O7 P3 1.545874 1_555
O8 P6 1.522614 1_555
O9 P7 1.522400 1_555
O10 P4 1.522151 1_555
O11 P5 1.522419 1_555
O12 P6 1.550420 1_555
O13 P7 1.550367 1_555
O14 P4 1.550513 1_555
O15 P5 1.550573 1_555
O16 P2 1.536472 1_556
O17 P3 1.536425 1_555
O18 P0 1.536447 1_555
O19 P1 1.536431 1_554
O20 P2 1.532809 1_555
O21 P3 1.532964 1_555
O22 P0 1.532813 1_555
O23 P1 1.532835 1_555
O24 P6 1.512709 1_555
O25 P7 1.512712 1_565
O26 P4 1.512858 1_545
O27 P5 1.512710 1_555
