# generated using pymatgen
data_Mg5Si6
_symmetry_space_group_name_H-M   'P 1'
_cell_length_a   4.31435700
_cell_length_b   6.91384432
_cell_length_c   7.57154759
_cell_angle_alpha   109.73979041
_cell_angle_beta   105.75632712
_cell_angle_gamma   92.59140044
_symmetry_Int_Tables_number   1
_chemical_formula_structural   Mg5Si6
_chemical_formula_sum   'Mg5 Si6'
_cell_volume   202.23997263
_cell_formula_units_Z   1
loop_
 _symmetry_equiv_pos_site_id
 _symmetry_equiv_pos_as_xyz
  1  'x, y, z'
loop_
 _atom_site_type_symbol
 _atom_site_label
 _atom_site_symmetry_multiplicity
 _atom_site_fract_x
 _atom_site_fract_y
 _atom_site_fract_z
 _atom_site_occupancy
  Mg  Mg0  1  0.50000000  0.50000000  0.50000000  1
  Mg  Mg1  1  0.14598900  0.43077200  0.80865800  1
  Mg  Mg2  1  0.85401100  0.56922800  0.19134200  1
  Mg  Mg3  1  0.08630500  0.87508700  0.66065600  1
  Mg  Mg4  1  0.91369500  0.12491300  0.33934400  1
  Si  Si0  1  0.46215400  0.82894100  0.38419500  1
  Si  Si1  1  0.53784600  0.17105900  0.61580500  1
  Si  Si2  1  0.30918500  0.23854100  0.10675900  1
  Si  Si3  1  0.27999300  0.86938600  0.07096500  1
  Si  Si4  1  0.69081500  0.76145900  0.89324100  1
  Si  Si5  1  0.72000700  0.13061400  0.92903500  1
loop_
_geom_bond_atom_site_label_1
_geom_bond_atom_site_label_2
_geom_bond_distance
_geom_bond_site_symmetry_2
Mg0 Si1 2.696391 1_555
Mg0 Si0 2.696391 1_555
Mg0 Si4 2.776532 1_555
Mg0 Si2 2.776532 1_555
Mg1 Si1 2.821811 1_455
Mg1 Si1 2.838776 1_555
Mg1 Si2 2.933336 1_556
Mg1 Si3 2.936720 1_556
Mg1 Si4 2.978255 1_555
Mg1 Si4 3.097384 1_455
Mg2 Si0 2.821811 1_655
Mg2 Si0 2.838776 1_555
Mg2 Si4 2.933336 1_554
Mg2 Si5 2.936720 1_554
Mg2 Si2 2.978255 1_555
Mg2 Si2 3.097384 1_655
Mg3 Si0 2.853874 1_455
Mg3 Si0 2.924366 1_555
Mg3 Si1 2.926779 1_565
Mg3 Si5 2.974252 1_565
Mg3 Si3 3.004507 1_556
Mg3 Si4 3.012478 1_455
Mg3 Si4 3.024216 1_555
Mg3 Si5 3.052756 1_465
Mg4 Si1 2.853874 1_655
Mg4 Si1 2.924366 1_555
Mg4 Si0 2.926779 1_545
Mg4 Si3 2.974252 1_545
Mg4 Si5 3.004507 1_554
Mg4 Si2 3.012478 1_655
Mg4 Si2 3.024216 1_555
Mg4 Si3 3.052756 1_645
Si0 Si1 2.365159 1_565
Si0 Si3 2.403349 1_555
Si1 Si5 2.403349 1_555
Si2 Si3 2.467508 1_545
Si2 Si5 2.474163 1_454
Si2 Si5 2.499143 1_554
Si3 Si4 2.474163 1_454
Si3 Si4 2.499143 1_554
Si4 Si5 2.467508 1_565
