# generated using pymatgen
data_MnH4(CO3)2
_symmetry_space_group_name_H-M   'P 1'
_cell_length_a   5.75444559
_cell_length_b   8.29326090
_cell_length_c   12.10607927
_cell_angle_alpha   89.76437010
_cell_angle_beta   90.01983368
_cell_angle_gamma   69.74919619
_symmetry_Int_Tables_number   1
_chemical_formula_structural   MnH4(CO3)2
_chemical_formula_sum   'Mn4 H16 C8 O24'
_cell_volume   542.02217427
_cell_formula_units_Z   4
loop_
 _symmetry_equiv_pos_site_id
 _symmetry_equiv_pos_as_xyz
  1  'x, y, z'
loop_
 _atom_site_type_symbol
 _atom_site_label
 _atom_site_symmetry_multiplicity
 _atom_site_fract_x
 _atom_site_fract_y
 _atom_site_fract_z
 _atom_site_occupancy
  Mn  Mn0  1  0.30627800  0.75005600  0.87500100  1
  Mn  Mn1  1  0.19401800  0.24992000  0.62519200  1
  Mn  Mn2  1  0.80665200  0.75003100  0.37481700  1
  Mn  Mn3  1  0.69379300  0.24995700  0.12494100  1
  H  H0  1  0.71009200  0.85459800  0.59243800  1
  H  H1  1  0.21015400  0.85475500  0.09259800  1
  H  H2  1  0.81513200  0.64531000  0.15736900  1
  H  H3  1  0.31504500  0.64522000  0.65754300  1
  H  H4  1  0.78973800  0.14535400  0.90753100  1
  H  H5  1  0.28982700  0.14524600  0.40741500  1
  H  H6  1  0.68482200  0.35467400  0.34260900  1
  H  H7  1  0.18479900  0.35474100  0.84246700  1
  H  H8  1  0.76082800  0.65064000  0.59198600  1
  H  H9  1  0.26075500  0.65079300  0.09208300  1
  H  H10  1  0.66130300  0.84917000  0.15786500  1
  H  H11  1  0.16102900  0.84903500  0.65793300  1
  H  H12  1  0.73908900  0.34936800  0.90787900  1
  H  H13  1  0.23917600  0.34921800  0.40796300  1
  H  H14  1  0.83866700  0.15086700  0.34208300  1
  H  H15  1  0.33879600  0.15089600  0.84211700  1
  C  C0  1  0.75453300  0.85044100  0.87566000  1
  C  C1  1  0.25475400  0.85033800  0.37557400  1
  C  C2  1  0.85471100  0.64977100  0.87440000  1
  C  C3  1  0.35497300  0.64964900  0.37433900  1
  C  C4  1  0.74525900  0.14949900  0.62437900  1
  C  C5  1  0.24544700  0.14977600  0.12442000  1
  C  C6  1  0.64509300  0.35017200  0.62565300  1
  C  C7  1  0.14521200  0.35043500  0.12567000  1
  O  O0  1  0.52177800  0.92463200  0.87605600  1
  O  O1  1  0.02201100  0.92452100  0.37598300  1
  O  O2  1  0.69595200  0.57560100  0.87406900  1
  O  O3  1  0.19627500  0.57542900  0.37400700  1
  O  O4  1  0.97802200  0.07530400  0.62397500  1
  O  O5  1  0.47820500  0.07558100  0.12398700  1
  O  O6  1  0.80386700  0.42434300  0.62601200  1
  O  O7  1  0.30396200  0.42463300  0.12602600  1
  O  O8  1  0.91379100  0.92493600  0.87635000  1
  O  O9  1  0.41406200  0.92477900  0.37622100  1
  O  O10  1  0.08831000  0.57526500  0.87372000  1
  O  O11  1  0.58856300  0.57521600  0.37367200  1
  O  O12  1  0.58596300  0.07504800  0.62370200  1
  O  O13  1  0.08620300  0.07526500  0.12376400  1
  O  O14  1  0.41151400  0.42467400  0.62634800  1
  O  O15  1  0.91162000  0.42485700  0.12629400  1
  O  O16  1  0.80063800  0.75668300  0.19220000  1
  O  O17  1  0.30031800  0.75662300  0.69237200  1
  O  O18  1  0.80721100  0.74335500  0.55759300  1
  O  O19  1  0.30708000  0.74353600  0.05769300  1
  O  O20  1  0.69945500  0.24334700  0.30767200  1
  O  O21  1  0.19956000  0.24331500  0.80766400  1
  O  O22  1  0.69274600  0.25666800  0.94233000  1
  O  O23  1  0.19291900  0.25645700  0.44236600  1
loop_
_geom_bond_atom_site_label_1
_geom_bond_atom_site_label_2
_geom_bond_distance
_geom_bond_site_symmetry_2
Mn0 O2 2.208125 1_555
Mn0 O0 2.208423 1_555
Mn0 O17 2.211330 1_555
Mn0 O19 2.212087 1_556
Mn0 O10 2.221173 1_555
Mn0 O8 2.222020 1_455
Mn1 O21 2.209420 1_555
Mn1 O6 2.210200 1_455
Mn1 O4 2.210973 1_455
Mn1 O23 2.213700 1_555
Mn1 O14 2.218753 1_555
Mn1 O12 2.219553 1_555
Mn2 O1 2.207188 1_655
Mn2 O3 2.208253 1_655
Mn2 O16 2.211197 1_555
Mn2 O18 2.213139 1_555
Mn2 O11 2.221878 1_555
Mn2 O9 2.222166 1_555
Mn3 O5 2.207403 1_555
Mn3 O7 2.209411 1_555
Mn3 O22 2.211129 1_554
Mn3 O20 2.212559 1_555
Mn3 O13 2.221180 1_655
Mn3 O15 2.221307 1_555
H0 O18 0.993905 1_555
H0 O12 1.760060 1_565
H1 O19 0.993803 1_555
H1 O13 1.760201 1_565
H2 O16 0.993870 1_555
H2 O15 1.759395 1_555
H3 O17 0.993767 1_555
H3 O14 1.760435 1_555
H4 O22 0.993924 1_555
H4 O8 1.759581 1_545
H5 O23 0.993969 1_555
H5 O9 1.760030 1_545
H6 O20 0.993887 1_555
H6 O11 1.760109 1_555
H7 O21 0.993758 1_555
H7 O10 1.760414 1_555
H8 O18 0.987591 1_555
H9 O19 0.987598 1_555
H10 O16 0.987614 1_555
H11 O17 0.987690 1_555
H12 O22 0.987653 1_555
H13 O23 0.987583 1_555
H14 O20 0.987586 1_555
H15 O21 0.987624 1_555
C0 O0 1.265727 1_555
C0 O8 1.270277 1_555
C1 O1 1.265659 1_555
C1 O9 1.270199 1_555
C2 O2 1.265709 1_555
C2 O10 1.270388 1_655
C3 O3 1.265702 1_555
C3 O11 1.270268 1_555
C4 O4 1.265773 1_555
C4 O12 1.270202 1_555
C5 O5 1.265749 1_555
C5 O13 1.270299 1_555
C6 O6 1.265794 1_555
C6 O14 1.270283 1_555
C7 O7 1.265835 1_555
C7 O15 1.270263 1_455
