# generated using pymatgen
data_Al3Cr20Si9
_symmetry_space_group_name_H-M   'P 1'
_cell_length_a   4.62939600
_cell_length_b   6.86456900
_cell_length_c   12.95894799
_cell_angle_alpha   90.00000000
_cell_angle_beta   90.00000000
_cell_angle_gamma   109.70606712
_symmetry_Int_Tables_number   1
_chemical_formula_structural   Al3Cr20Si9
_chemical_formula_sum   'Al3 Cr20 Si9'
_cell_volume   387.70162535
_cell_formula_units_Z   1
loop_
 _symmetry_equiv_pos_site_id
 _symmetry_equiv_pos_as_xyz
  1  'x, y, z'
loop_
 _atom_site_type_symbol
 _atom_site_label
 _atom_site_symmetry_multiplicity
 _atom_site_fract_x
 _atom_site_fract_y
 _atom_site_fract_z
 _atom_site_occupancy
  Al  Al0  1  0.25000000  0.00000000  0.00000000  1
  Al  Al1  1  0.75000000  0.00000000  0.50000000  1
  Al  Al2  1  0.75000000  0.00000000  0.00000000  1
  Cr  Cr0  1  0.92886100  0.84558300  0.34569000  1
  Cr  Cr1  1  0.41969400  0.84111900  0.84251600  1
  Cr  Cr2  1  0.57857400  0.15888100  0.15748400  1
  Cr  Cr3  1  0.08327800  0.15441700  0.65431000  1
  Cr  Cr4  1  0.15920500  0.31825400  0.07869300  1
  Cr  Cr5  1  0.65042900  0.31151300  0.57717300  1
  Cr  Cr6  1  0.33891600  0.68848700  0.42282700  1
  Cr  Cr7  1  0.84095100  0.68174600  0.92130700  1
  Cr  Cr8  1  0.34079500  0.68174600  0.07869300  1
  Cr  Cr9  1  0.84957100  0.68848700  0.57717300  1
  Cr  Cr10  1  0.16108400  0.31151300  0.42282700  1
  Cr  Cr11  1  0.65904900  0.31825400  0.92130700  1
  Cr  Cr12  1  0.57113900  0.15441700  0.34569000  1
  Cr  Cr13  1  0.08030600  0.15888100  0.84251600  1
  Cr  Cr14  1  0.92142600  0.84111900  0.15748400  1
  Cr  Cr15  1  0.41672200  0.84558300  0.65431000  1
  Cr  Cr16  1  0.49736800  0.50008900  0.25125700  1
  Cr  Cr17  1  0.99728000  0.49991100  0.74874300  1
  Cr  Cr18  1  0.00263200  0.49991100  0.25125700  1
  Cr  Cr19  1  0.50272000  0.50008900  0.74874300  1
  Si  Si0  1  0.25000000  0.00000000  0.50000000  1
  Si  Si1  1  0.75000000  0.50000000  0.08454500  1
  Si  Si2  1  0.25000000  0.50000000  0.58356400  1
  Si  Si3  1  0.75000000  0.50000000  0.41643600  1
  Si  Si4  1  0.25000000  0.50000000  0.91545500  1
  Si  Si5  1  0.41983400  0.83464600  0.24999200  1
  Si  Si6  1  0.91481100  0.83464600  0.75000800  1
  Si  Si7  1  0.08016600  0.16535400  0.24999200  1
  Si  Si8  1  0.58518900  0.16535400  0.75000800  1
loop_
_geom_bond_atom_site_label_1
_geom_bond_atom_site_label_2
_geom_bond_distance
_geom_bond_site_symmetry_2
Al0 Al2 2.314698 1_555
Al0 Al2 2.314698 1_455
Al0 Cr14 2.559185 1_445
Al0 Cr2 2.559185 1_555
Al0 Cr13 2.559188 1_554
Al0 Cr1 2.559188 1_544
Al0 Cr8 2.570741 1_545
Al0 Cr4 2.570741 1_555
Al0 Cr11 2.570741 1_554
Al0 Cr7 2.570741 1_444
Al1 Si0 2.314698 1_555
Al1 Si0 2.314698 1_655
Al1 Cr15 2.529807 1_545
Al1 Cr3 2.529807 1_655
Al1 Cr12 2.529807 1_555
Al1 Cr0 2.529807 1_545
Al1 Cr10 2.539715 1_655
Al1 Cr6 2.539715 1_545
Al1 Cr9 2.539715 1_545
Al1 Cr5 2.539715 1_555
Al2 Cr1 2.562809 1_544
Al2 Cr13 2.562809 1_654
Al2 Cr2 2.562811 1_555
Al2 Cr14 2.562811 1_545
Al2 Cr11 2.571066 1_554
Al2 Cr4 2.571066 1_655
Al2 Cr8 2.571066 1_545
Al2 Cr7 2.571066 1_544
Cr0 Si7 2.410415 1_665
Cr0 Si3 2.414360 1_555
Cr0 Cr14 2.439241 1_555
Cr0 Si0 2.503966 1_665
Cr0 Si5 2.612430 1_655
Cr0 Si5 2.641461 1_555
Cr1 Si4 2.398593 1_555
Cr1 Si8 2.414127 1_565
Cr1 Cr15 2.439241 1_555
Cr1 Si6 2.600286 1_555
Cr1 Si6 2.613821 1_455
Cr2 Si1 2.398593 1_555
Cr2 Si5 2.414127 1_545
Cr2 Si7 2.600294 1_655
Cr2 Si7 2.613812 1_555
Cr3 Si6 2.410415 1_445
Cr3 Si2 2.414360 1_555
Cr3 Si0 2.503966 1_555
Cr3 Si8 2.612434 1_555
Cr3 Si8 2.641457 1_455
Cr4 Cr8 2.349083 1_555
Cr4 Si4 2.419594 1_554
Cr4 Si7 2.429874 1_555
Cr4 Si1 2.596431 1_555
Cr4 Si1 2.597075 1_455
Cr5 Si3 2.413132 1_555
Cr5 Si8 2.431056 1_555
Cr5 Cr9 2.436711 1_555
Cr5 Si0 2.517137 1_555
Cr5 Si2 2.595169 1_555
Cr5 Si2 2.638797 1_655
Cr6 Si2 2.413132 1_555
Cr6 Si5 2.431056 1_555
Cr6 Si0 2.517137 1_565
Cr6 Si3 2.595169 1_455
Cr6 Si3 2.638797 1_555
Cr7 Si1 2.419594 1_556
Cr7 Si6 2.429874 1_555
Cr7 Si4 2.596431 1_655
Cr7 Si4 2.597075 1_555
Cr8 Si4 2.419594 1_554
Cr8 Si5 2.429874 1_555
Cr8 Si1 2.596431 1_455
Cr8 Si1 2.597075 1_555
Cr9 Si3 2.413132 1_555
Cr9 Si6 2.431056 1_555
Cr9 Si0 2.517137 1_665
Cr9 Si2 2.595169 1_655
Cr9 Si2 2.638797 1_555
Cr10 Si2 2.413132 1_555
Cr10 Si7 2.431056 1_555
Cr10 Cr6 2.436711 1_555
Cr10 Si0 2.517137 1_555
Cr10 Si3 2.595169 1_555
Cr10 Si3 2.638797 1_455
Cr11 Cr7 2.349083 1_555
Cr11 Si1 2.419594 1_556
Cr11 Si8 2.429874 1_555
Cr11 Si4 2.596431 1_555
Cr11 Si4 2.597075 1_655
Cr12 Si5 2.410415 1_545
Cr12 Si3 2.414360 1_555
Cr12 Cr2 2.439241 1_555
Cr12 Si0 2.503966 1_555
Cr12 Si7 2.612430 1_555
Cr12 Si7 2.641461 1_655
Cr13 Si4 2.398593 1_555
Cr13 Si6 2.414127 1_445
Cr13 Cr3 2.439241 1_555
Cr13 Si8 2.600286 1_455
Cr13 Si8 2.613821 1_555
Cr14 Si1 2.398593 1_555
Cr14 Si7 2.414127 1_665
Cr14 Si5 2.600294 1_555
Cr14 Si5 2.613812 1_655
Cr15 Si8 2.410415 1_565
Cr15 Si2 2.414360 1_555
Cr15 Si0 2.503966 1_565
Cr15 Si6 2.612434 1_455
Cr15 Si6 2.641457 1_555
Cr16 Cr18 2.289917 1_555
Cr16 Cr18 2.339479 1_655
Cr16 Si3 2.439309 1_555
Cr16 Si5 2.441177 1_555
Cr16 Si7 2.453071 1_555
Cr16 Si1 2.456760 1_555
Cr17 Cr19 2.289926 1_555
Cr17 Cr19 2.339470 1_655
Cr17 Si2 2.439307 1_655
Cr17 Si8 2.441177 1_555
Cr17 Si6 2.453076 1_555
Cr17 Si4 2.456758 1_655
Cr18 Si3 2.439309 1_455
Cr18 Si7 2.441177 1_555
Cr18 Si5 2.453071 1_555
Cr18 Si1 2.456760 1_455
Cr19 Si2 2.439307 1_555
Cr19 Si6 2.441177 1_555
Cr19 Si8 2.453076 1_555
Cr19 Si4 2.456758 1_555
