# generated using pymatgen
data_RbNaMg5(Si2O5)6
_symmetry_space_group_name_H-M   'P 1'
_cell_length_a   10.22700623
_cell_length_b   10.22702828
_cell_length_c   14.61422098
_cell_angle_alpha   90.00000000
_cell_angle_beta   90.00000000
_cell_angle_gamma   119.99992752
_symmetry_Int_Tables_number   1
_chemical_formula_structural   RbNaMg5(Si2O5)6
_chemical_formula_sum   'Rb2 Na2 Mg10 Si24 O60'
_cell_volume   1323.74580359
_cell_formula_units_Z   2
loop_
 _symmetry_equiv_pos_site_id
 _symmetry_equiv_pos_as_xyz
  1  'x, y, z'
loop_
 _atom_site_type_symbol
 _atom_site_label
 _atom_site_symmetry_multiplicity
 _atom_site_fract_x
 _atom_site_fract_y
 _atom_site_fract_z
 _atom_site_occupancy
  Rb  Rb0  1  0.00000180  0.00000000  0.25000000  1
  Rb  Rb1  1  0.00000180  0.00000000  0.75000000  1
  Na  Na0  1  0.66668703  0.33331357  0.50000000  1
  Na  Na1  1  0.33337347  0.66668643  0.00000000  1
  Mg  Mg0  1  0.66667873  0.33332530  0.24715321  1
  Mg  Mg1  1  0.66667873  0.33332530  0.75284679  1
  Mg  Mg2  1  0.33335343  0.66667470  0.74715321  1
  Mg  Mg3  1  0.33335343  0.66667470  0.25284679  1
  Mg  Mg4  1  0.49956196  0.00000000  0.25000000  1
  Mg  Mg5  1  0.50043684  0.50042437  0.25000154  1
  Mg  Mg6  1  0.00001247  0.49957563  0.24999846  1
  Mg  Mg7  1  0.49956196  0.00000000  0.75000000  1
  Mg  Mg8  1  0.50043684  0.50042437  0.74999846  1
  Mg  Mg9  1  0.00001247  0.49957563  0.75000154  1
  Si  Si0  1  0.23998848  0.88362269  0.39151612  1
  Si  Si1  1  0.64363639  0.76001126  0.39151633  1
  Si  Si2  1  0.11637861  0.35636575  0.39151592  1
  Si  Si3  1  0.23998848  0.88362269  0.60848388  1
  Si  Si4  1  0.64363639  0.76001126  0.60848367  1
  Si  Si5  1  0.11637861  0.35636575  0.60848408  1
  Si  Si6  1  0.35636579  0.11637731  0.89151612  1
  Si  Si7  1  0.88362513  0.23998874  0.89151633  1
  Si  Si8  1  0.76001286  0.64363425  0.89151592  1
  Si  Si9  1  0.35636579  0.11637731  0.10848388  1
  Si  Si10  1  0.88362513  0.23998874  0.10848367  1
  Si  Si11  1  0.76001286  0.64363425  0.10848408  1
  Si  Si12  1  0.76158512  0.11505468  0.60915463  1
  Si  Si13  1  0.35347464  0.23841579  0.60915391  1
  Si  Si14  1  0.88494327  0.64652470  0.60915439  1
  Si  Si15  1  0.76158512  0.11505468  0.39084537  1
  Si  Si16  1  0.35347464  0.23841579  0.39084609  1
  Si  Si17  1  0.88494327  0.64652470  0.39084561  1
  Si  Si18  1  0.64653044  0.88494532  0.10915463  1
  Si  Si19  1  0.11505885  0.76158421  0.10915391  1
  Si  Si20  1  0.23841857  0.35347530  0.10915439  1
  Si  Si21  1  0.64653044  0.88494532  0.89084537  1
  Si  Si22  1  0.11505885  0.76158421  0.89084609  1
  Si  Si23  1  0.23841857  0.35347530  0.89084561  1
  O  O0  1  0.26425438  0.86710909  0.50000000  1
  O  O1  1  0.60285479  0.73574565  0.50000000  1
  O  O2  1  0.13288867  0.39714266  0.50000000  1
  O  O3  1  0.39714529  0.13289091  0.00000000  1
  O  O4  1  0.86710914  0.26425435  0.00000000  1
  O  O5  1  0.73574601  0.60285734  0.00000000  1
  O  O6  1  0.73568332  0.13701131  0.50000000  1
  O  O7  1  0.40133330  0.26431574  0.50000000  1
  O  O8  1  0.86298507  0.59866742  0.50000000  1
  O  O9  1  0.59867202  0.86298869  0.00000000  1
  O  O10  1  0.13701756  0.73568426  0.00000000  1
  O  O11  1  0.26431765  0.40133258  0.00000000  1
  O  O12  1  0.34431125  0.84529368  0.32836546  1
  O  O13  1  0.50098794  0.65569096  0.32836274  1
  O  O14  1  0.15471391  0.49901921  0.32836449  1
  O  O15  1  0.34431125  0.84529368  0.67163454  1
  O  O16  1  0.50098794  0.65569096  0.67163726  1
  O  O17  1  0.15471391  0.49901921  0.67163551  1
  O  O18  1  0.49901757  0.15470632  0.82836546  1
  O  O19  1  0.84529698  0.34430904  0.82836274  1
  O  O20  1  0.65569471  0.50098079  0.82836449  1
  O  O21  1  0.49901757  0.15470632  0.17163454  1
  O  O22  1  0.84529698  0.34430904  0.17163726  1
  O  O23  1  0.65569471  0.50098079  0.17163551  1
  O  O24  1  0.65556818  0.15647228  0.66902426  1
  O  O25  1  0.50090996  0.34442970  0.66902448  1
  O  O26  1  0.84352915  0.49909091  0.66902452  1
  O  O27  1  0.65556818  0.15647228  0.33097574  1
  O  O28  1  0.50090996  0.34442970  0.33097552  1
  O  O29  1  0.84352915  0.49909091  0.33097548  1
  O  O30  1  0.49909590  0.84352772  0.16902426  1
  O  O31  1  0.15648026  0.65557030  0.16902448  1
  O  O32  1  0.34443824  0.50090909  0.16902452  1
  O  O33  1  0.49909590  0.84352772  0.83097574  1
  O  O34  1  0.15648026  0.65557030  0.83097552  1
  O  O35  1  0.34443824  0.50090909  0.83097548  1
  O  O36  1  0.05876108  0.77999849  0.36830193  1
  O  O37  1  0.72123660  0.94123693  0.36830188  1
  O  O38  1  0.22000130  0.27876048  0.36830218  1
  O  O39  1  0.05876108  0.77999849  0.63169807  1
  O  O40  1  0.72123660  0.94123693  0.63169812  1
  O  O41  1  0.22000130  0.27876048  0.63169782  1
  O  O42  1  0.27876259  0.22000151  0.86830193  1
  O  O43  1  0.77999967  0.05876307  0.86830188  1
  O  O44  1  0.94124082  0.72123952  0.86830218  1
  O  O45  1  0.27876259  0.22000151  0.13169807  1
  O  O46  1  0.77999967  0.05876307  0.13169812  1
  O  O47  1  0.94124082  0.72123952  0.13169782  1
  O  O48  1  0.94255777  0.22072736  0.63146297  1
  O  O49  1  0.27817089  0.05744388  0.63146311  1
  O  O50  1  0.77927492  0.72182924  0.63146283  1
  O  O51  1  0.94255777  0.22072736  0.36853703  1
  O  O52  1  0.27817089  0.05744388  0.36853689  1
  O  O53  1  0.77927492  0.72182924  0.36853717  1
  O  O54  1  0.72183041  0.77927264  0.13146297  1
  O  O55  1  0.22072701  0.94255612  0.13146311  1
  O  O56  1  0.05744568  0.27817076  0.13146283  1
  O  O57  1  0.72183041  0.77927264  0.86853703  1
  O  O58  1  0.22072701  0.94255612  0.86853689  1
  O  O59  1  0.05744568  0.27817076  0.86853717  1
loop_
_geom_bond_atom_site_label_1
_geom_bond_atom_site_label_2
_geom_bond_distance
_geom_bond_site_symmetry_2
Na0 O6 2.438221 1_555
Na0 O8 2.438609 1_555
Na0 O7 2.438760 1_555
Na1 O9 2.438221 1_555
Na1 O11 2.438609 1_555
Na1 O10 2.438760 1_555
Mg0 O22 2.088614 1_555
Mg0 O21 2.088747 1_555
Mg0 O23 2.088814 1_555
Mg0 O27 2.139941 1_555
Mg0 O29 2.140014 1_555
Mg0 O28 2.140128 1_555
Mg1 O19 2.088614 1_555
Mg1 O18 2.088747 1_555
Mg1 O20 2.088814 1_555
Mg1 O24 2.139941 1_555
Mg1 O26 2.140014 1_555
Mg1 O25 2.140128 1_555
Mg2 O16 2.088614 1_555
Mg2 O15 2.088747 1_555
Mg2 O17 2.088814 1_555
Mg2 O33 2.139941 1_555
Mg2 O35 2.140014 1_555
Mg2 O34 2.140128 1_555
Mg3 O13 2.088614 1_555
Mg3 O12 2.088747 1_555
Mg3 O14 2.088814 1_555
Mg3 O30 2.139941 1_555
Mg3 O32 2.140014 1_555
Mg3 O31 2.140128 1_555
Mg4 O21 1.955441 1_555
Mg4 O12 1.955441 1_545
Mg4 O30 1.988370 1_545
Mg4 O27 1.988370 1_555
Mg5 O23 1.955453 1_555
Mg5 O13 1.955509 1_555
Mg5 O28 1.988288 1_555
Mg5 O32 1.988392 1_555
Mg6 O14 1.955453 1_555
Mg6 O22 1.955509 1_455
Mg6 O31 1.988288 1_555
Mg6 O29 1.988392 1_455
Mg7 O18 1.955441 1_555
Mg7 O15 1.955441 1_545
Mg7 O33 1.988370 1_545
Mg7 O24 1.988370 1_555
Mg8 O20 1.955453 1_555
Mg8 O16 1.955509 1_555
Mg8 O25 1.988288 1_555
Mg8 O35 1.988392 1_555
Mg9 O17 1.955453 1_555
Mg9 O19 1.955509 1_455
Mg9 O34 1.988288 1_555
Mg9 O26 1.988392 1_455
O0 Si3 1.626511 1_555
O0 Si0 1.626511 1_555
O1 Si1 1.626512 1_555
O1 Si4 1.626512 1_555
O2 Si5 1.626509 1_555
O2 Si2 1.626509 1_555
O3 Si6 1.626511 1_554
O3 Si9 1.626511 1_555
O4 Si10 1.626512 1_555
O4 Si7 1.626512 1_554
O5 Si8 1.626509 1_554
O5 Si11 1.626509 1_555
O6 Si15 1.650688 1_555
O6 Si12 1.650688 1_555
O7 Si13 1.650678 1_555
O7 Si16 1.650678 1_555
O8 Si17 1.650682 1_555
O8 Si14 1.650682 1_555
O9 Si18 1.650688 1_555
O9 Si21 1.650688 1_554
O10 Si22 1.650678 1_554
O10 Si19 1.650678 1_555
O11 Si23 1.650682 1_554
O11 Si20 1.650682 1_555
O12 Si0 1.600598 1_555
O13 Si1 1.600599 1_555
O14 Si2 1.600607 1_555
O15 Si3 1.600598 1_555
O16 Si4 1.600599 1_555
O17 Si5 1.600607 1_555
O18 Si6 1.600598 1_555
O19 Si7 1.600599 1_555
O20 Si8 1.600607 1_555
O21 Si9 1.600598 1_555
O22 Si10 1.600599 1_555
O23 Si11 1.600607 1_555
O24 Si12 1.606169 1_555
O25 Si13 1.606176 1_555
O26 Si14 1.606177 1_555
O27 Si15 1.606169 1_555
O28 Si16 1.606176 1_555
O29 Si17 1.606177 1_555
O30 Si18 1.606169 1_555
O31 Si19 1.606176 1_555
O32 Si20 1.606177 1_555
O33 Si21 1.606169 1_555
O34 Si22 1.606176 1_555
O35 Si23 1.606177 1_555
O36 Si17 1.644788 1_455
O36 Si0 1.645953 1_555
O36 Rb0 3.124833 1_565
O37 Si15 1.644775 1_565
O37 Si1 1.645944 1_555
O37 Rb0 3.124856 1_665
O38 Si16 1.644787 1_555
O38 Si2 1.645955 1_555
O38 Rb0 3.124830 1_555
O39 Si14 1.644788 1_455
O39 Si3 1.645953 1_555
O39 Rb1 3.124833 1_565
O40 Si12 1.644775 1_565
O40 Si4 1.645944 1_555
O40 Rb1 3.124856 1_665
O41 Si13 1.644787 1_555
O41 Si5 1.645955 1_555
O41 Rb1 3.124830 1_555
O42 Si23 1.644788 1_555
O42 Si6 1.645953 1_555
O42 Rb1 3.124833 1_555
O43 Si21 1.644775 1_545
O43 Si7 1.645944 1_555
O43 Rb1 3.124856 1_655
O44 Si22 1.644787 1_655
O44 Si8 1.645955 1_555
O44 Rb1 3.124830 1_665
O45 Si20 1.644788 1_555
O45 Si9 1.645953 1_555
O45 Rb0 3.124833 1_555
O46 Si18 1.644775 1_545
O46 Si10 1.645944 1_555
O46 Rb0 3.124856 1_655
O47 Si19 1.644787 1_655
O47 Si11 1.645955 1_555
O47 Rb0 3.124830 1_665
O48 Si12 1.643026 1_555
O48 Si5 1.652635 1_655
O48 Rb1 3.125387 1_655
O49 Si13 1.643021 1_555
O49 Si3 1.652641 1_545
O49 Rb1 3.125363 1_555
O50 Si14 1.643023 1_555
O50 Si4 1.652632 1_555
O50 Rb1 3.125385 1_665
O51 Si15 1.643026 1_555
O51 Si2 1.652635 1_655
O51 Rb0 3.125387 1_655
O52 Si16 1.643021 1_555
O52 Si0 1.652641 1_545
O52 Rb0 3.125363 1_555
O53 Si17 1.643023 1_555
O53 Si1 1.652632 1_555
O53 Rb0 3.125385 1_665
O54 Si18 1.643026 1_555
O54 Si11 1.652635 1_555
O54 Rb0 3.125387 1_665
O55 Si19 1.643021 1_555
O55 Si9 1.652641 1_565
O55 Rb0 3.125363 1_565
O56 Si20 1.643023 1_555
O56 Si10 1.652632 1_455
O56 Rb0 3.125385 1_555
O57 Si21 1.643026 1_555
O57 Si8 1.652635 1_555
O57 Rb1 3.125387 1_665
O58 Si22 1.643021 1_555
O58 Si6 1.652641 1_565
O58 Rb1 3.125363 1_565
O59 Si23 1.643023 1_555
O59 Si7 1.652632 1_455
O59 Rb1 3.125385 1_555
