# generated using pymatgen
data_DyRhO3
_symmetry_space_group_name_H-M   'P 1'
_cell_length_a   5.21847713
_cell_length_b   5.75597356
_cell_length_c   7.57328100
_cell_angle_alpha   90.00000000
_cell_angle_beta   90.00000000
_cell_angle_gamma   90.00000000
_symmetry_Int_Tables_number   1
_chemical_formula_structural   DyRhO3
_chemical_formula_sum   'Dy4 Rh4 O12'
_cell_volume   227.48179479
_cell_formula_units_Z   4
loop_
 _symmetry_equiv_pos_site_id
 _symmetry_equiv_pos_as_xyz
  1  'x, y, z'
loop_
 _atom_site_type_symbol
 _atom_site_label
 _atom_site_symmetry_multiplicity
 _atom_site_fract_x
 _atom_site_fract_y
 _atom_site_fract_z
 _atom_site_occupancy
  Dy  Dy0  1  0.02982562  0.41613109  0.25000000  1
  Dy  Dy1  1  0.97017438  0.58386891  0.75000000  1
  Dy  Dy2  1  0.52982562  0.08386891  0.75000000  1
  Dy  Dy3  1  0.47017438  0.91613109  0.25000000  1
  Rh  Rh0  1  0.00000000  -0.00000000  -0.00000000  1
  Rh  Rh1  1  0.50000000  0.50000000  -0.00000000  1
  Rh  Rh2  1  0.00000000  -0.00000000  0.50000000  1
  Rh  Rh3  1  0.50000000  0.50000000  0.50000000  1
  O  O0  1  0.32385808  0.18991933  0.06132975  1
  O  O1  1  0.67614192  0.81008067  0.93867025  1
  O  O2  1  0.82385808  0.31008067  0.93867025  1
  O  O3  1  0.67614192  0.81008067  0.56132975  1
  O  O4  1  0.17614192  0.68991933  0.06132975  1
  O  O5  1  0.32385808  0.18991933  0.43867025  1
  O  O6  1  0.17614192  0.68991933  0.43867025  1
  O  O7  1  0.82385808  0.31008067  0.56132975  1
  O  O8  1  0.63283576  0.55103914  0.25000000  1
  O  O9  1  0.36716424  0.44896086  0.75000000  1
  O  O10  1  0.13283576  0.94896086  0.75000000  1
  O  O11  1  0.86716424  0.05103914  0.25000000  1
loop_
_geom_bond_atom_site_label_1
_geom_bond_atom_site_label_2
_geom_bond_distance
_geom_bond_site_symmetry_2
Dy0 O8 2.212434 1_455
Dy0 O6 2.260120 1_555
Dy0 O4 2.260120 1_555
Dy0 O11 2.266422 1_455
Dy0 O5 2.468075 1_555
Dy0 O0 2.468075 1_555
Dy0 O7 2.662152 1_455
Dy0 O2 2.662152 1_454
Dy1 O9 2.212434 1_655
Dy1 O7 2.260120 1_555
Dy1 O2 2.260120 1_555
Dy1 O10 2.266422 1_655
Dy1 O1 2.468075 1_555
Dy1 O3 2.468075 1_555
Dy1 O6 2.662152 1_655
Dy1 O4 2.662152 1_656
Dy2 O10 2.212434 1_545
Dy2 O1 2.260120 1_545
Dy2 O3 2.260120 1_545
Dy2 O9 2.266422 1_555
Dy2 O7 2.468075 1_555
Dy2 O2 2.468075 1_555
Dy2 O5 2.662152 1_555
Dy2 O0 2.662152 1_556
Dy3 O11 2.212434 1_565
Dy3 O5 2.260120 1_565
Dy3 O0 2.260120 1_565
Dy3 O8 2.266422 1_555
Dy3 O6 2.468075 1_555
Dy3 O4 2.468075 1_555
Dy3 O3 2.662152 1_555
Dy3 O1 2.662152 1_554
O0 Rh1 2.060634 1_555
O0 Rh0 2.065674 1_555
O1 Rh1 2.060634 1_556
O1 Rh0 2.065674 1_666
O2 Rh0 2.060634 1_656
O2 Rh1 2.065674 1_556
O3 Rh3 2.060634 1_555
O3 Rh2 2.065674 1_665
O4 Rh0 2.060634 1_565
O4 Rh1 2.065674 1_555
O5 Rh3 2.060634 1_555
O5 Rh2 2.065674 1_555
O6 Rh2 2.060634 1_565
O6 Rh3 2.065674 1_555
O7 Rh2 2.060634 1_655
O7 Rh3 2.065674 1_555
O8 Rh3 2.037522 1_555
O8 Rh1 2.037522 1_555
O9 Rh3 2.037522 1_555
O9 Rh1 2.037522 1_556
O10 Rh0 2.037522 1_566
O10 Rh2 2.037522 1_565
O11 Rh2 2.037522 1_655
O11 Rh0 2.037522 1_655
