# generated using pymatgen
data_B10H18C2S
_symmetry_space_group_name_H-M   'P 1'
_cell_length_a   6.18420800
_cell_length_b   13.49338900
_cell_length_c   15.94587400
_cell_angle_alpha   90.00000000
_cell_angle_beta   90.00000000
_cell_angle_gamma   90.00000000
_symmetry_Int_Tables_number   1
_chemical_formula_structural   B10H18C2S
_chemical_formula_sum   'B40 H72 C8 S4'
_cell_volume   1330.61819312
_cell_formula_units_Z   4
loop_
 _symmetry_equiv_pos_site_id
 _symmetry_equiv_pos_as_xyz
  1  'x, y, z'
loop_
 _atom_site_type_symbol
 _atom_site_label
 _atom_site_symmetry_multiplicity
 _atom_site_fract_x
 _atom_site_fract_y
 _atom_site_fract_z
 _atom_site_occupancy
  B  B0  1  0.07809000  0.07532600  0.96508600  1
  B  B1  1  0.42191000  0.92467400  0.46508600  1
  B  B2  1  0.57809000  0.42467400  0.03491400  1
  B  B3  1  0.92191000  0.57532600  0.53491400  1
  B  B4  1  0.02127100  0.03562400  0.86214800  1
  B  B5  1  0.47872900  0.96437600  0.36214800  1
  B  B6  1  0.52127100  0.46437500  0.13785200  1
  B  B7  1  0.97872900  0.53562400  0.63785200  1
  B  B8  1  0.03152300  0.94680800  0.94364800  1
  B  B9  1  0.46847700  0.05319200  0.44364800  1
  B  B10  1  0.53152300  0.55319200  0.05635200  1
  B  B11  1  0.96847700  0.44680800  0.55635200  1
  B  B12  1  0.96095800  0.99782400  0.04368800  1
  B  B13  1  0.53904200  0.00217600  0.54368800  1
  B  B14  1  0.46095800  0.50217600  0.95631200  1
  B  B15  1  0.03904200  0.49782400  0.45631200  1
  B  B16  1  0.88916900  0.14201100  0.90320000  1
  B  B17  1  0.61083100  0.85798900  0.40320000  1
  B  B18  1  0.38916900  0.35798900  0.09680000  1
  B  B19  1  0.11083100  0.64201100  0.59680000  1
  B  B20  1  0.74781000  0.05652400  0.84013200  1
  B  B21  1  0.75219000  0.94347600  0.34013200  1
  B  B22  1  0.24781000  0.44347600  0.15986800  1
  B  B23  1  0.25219000  0.55652400  0.65986800  1
  B  B24  1  0.81502000  0.94469300  0.87554900  1
  B  B25  1  0.68498000  0.05530700  0.37554900  1
  B  B26  1  0.31502000  0.55530700  0.12445100  1
  B  B27  1  0.18498000  0.44469300  0.62445100  1
  B  B28  1  0.76434400  0.92470900  0.98661300  1
  B  B29  1  0.73565600  0.07529100  0.48661300  1
  B  B30  1  0.26434400  0.57529100  0.01338700  1
  B  B31  1  0.23565600  0.42470900  0.51338700  1
  B  B32  1  0.69074600  0.02304000  0.05561900  1
  B  B33  1  0.80925400  0.97696000  0.55561900  1
  B  B34  1  0.19074600  0.47696000  0.94438100  1
  B  B35  1  0.30925400  0.52304000  0.44438100  1
  B  B36  1  0.86813300  0.12083300  0.02709600  1
  B  B37  1  0.63186700  0.87916700  0.52709600  1
  B  B38  1  0.36813300  0.37916700  0.97290400  1
  B  B39  1  0.13186700  0.62083300  0.47290400  1
  H  H0  1  0.24702800  0.11566500  0.97867900  1
  H  H1  1  0.25297200  0.88433500  0.47867900  1
  H  H2  1  0.74702800  0.38433500  0.02132100  1
  H  H3  1  0.75297200  0.61566500  0.52132100  1
  H  H4  1  0.15684200  0.03665000  0.80847600  1
  H  H5  1  0.34315800  0.96335000  0.30847600  1
  H  H6  1  0.65684200  0.46335000  0.19152400  1
  H  H7  1  0.84315800  0.53665000  0.69152400  1
  H  H8  1  0.16362300  0.88178800  0.94614300  1
  H  H9  1  0.33637700  0.11821200  0.44614300  1
  H  H10  1  0.66362300  0.61821200  0.05385700  1
  H  H11  1  0.83637700  0.38178800  0.55385700  1
  H  H12  1  0.06254900  0.97237800  0.10381500  1
  H  H13  1  0.43745100  0.02762200  0.60381500  1
  H  H14  1  0.56254900  0.52762200  0.89618500  1
  H  H15  1  0.93745100  0.47237800  0.39618500  1
  H  H16  1  0.68159600  0.11981600  0.89904100  1
  H  H17  1  0.81840400  0.88018400  0.39904100  1
  H  H18  1  0.18159600  0.38018400  0.10095900  1
  H  H19  1  0.31840400  0.61981600  0.60095900  1
  H  H20  1  0.90861200  0.22723900  0.88421800  1
  H  H21  1  0.59138800  0.77276100  0.38421800  1
  H  H22  1  0.40861200  0.27276100  0.11578200  1
  H  H23  1  0.09138800  0.72723900  0.61578200  1
  H  H24  1  0.65767400  0.07920900  0.77644000  1
  H  H25  1  0.84232600  0.92079100  0.27644000  1
  H  H26  1  0.15767400  0.42079100  0.22356000  1
  H  H27  1  0.34232600  0.57920900  0.72356000  1
  H  H28  1  0.70811900  0.84354700  0.00819400  1
  H  H29  1  0.79188100  0.15645300  0.50819400  1
  H  H30  1  0.20811900  0.65645300  0.99180600  1
  H  H31  1  0.29188100  0.34354700  0.49180600  1
  H  H32  1  0.58570300  0.98011200  0.99289400  1
  H  H33  1  0.91429700  0.01988800  0.49289400  1
  H  H34  1  0.08570300  0.51988800  0.00710600  1
  H  H35  1  0.41429700  0.48011200  0.50710600  1
  H  H36  1  0.58570900  0.01666200  0.11804900  1
  H  H37  1  0.91429100  0.98333800  0.61804900  1
  H  H38  1  0.08570900  0.48333800  0.88195100  1
  H  H39  1  0.41429100  0.51666200  0.38195100  1
  H  H40  1  0.65309900  0.11167400  0.02192900  1
  H  H41  1  0.84690100  0.88832600  0.52192900  1
  H  H42  1  0.15309900  0.38832600  0.97807100  1
  H  H43  1  0.34690100  0.61167400  0.47807100  1
  H  H44  1  0.89320500  0.19069700  0.07194700  1
  H  H45  1  0.60679500  0.80930300  0.57194700  1
  H  H46  1  0.39320500  0.30930300  0.92805300  1
  H  H47  1  0.10679500  0.69069700  0.42805300  1
  H  H48  1  0.48117800  0.76161100  0.73999200  1
  H  H49  1  0.01882200  0.23838900  0.23999200  1
  H  H50  1  0.98117800  0.73838900  0.26000800  1
  H  H51  1  0.51882200  0.26161100  0.76000800  1
  H  H52  1  0.44454900  0.89322900  0.74873900  1
  H  H53  1  0.05545100  0.10677100  0.24873900  1
  H  H54  1  0.94454900  0.60677100  0.25126100  1
  H  H55  1  0.55545100  0.39322900  0.75126100  1
  H  H56  1  0.42261700  0.81707000  0.84100700  1
  H  H57  1  0.07738300  0.18293000  0.34100700  1
  H  H58  1  0.92261700  0.68293000  0.15899300  1
  H  H59  1  0.57738300  0.31707000  0.65899300  1
  H  H60  1  0.75930300  0.71679000  0.90311900  1
  H  H61  1  0.74069700  0.28321000  0.40311900  1
  H  H62  1  0.25930300  0.78321000  0.09688100  1
  H  H63  1  0.24069700  0.21679000  0.59688100  1
  H  H64  1  0.02766200  0.72754500  0.86072000  1
  H  H65  1  0.47233800  0.27245500  0.36072000  1
  H  H66  1  0.52766200  0.77245500  0.13928000  1
  H  H67  1  0.97233800  0.22754500  0.63928000  1
  H  H68  1  0.82162700  0.66756100  0.80041800  1
  H  H69  1  0.67837300  0.33243900  0.30041800  1
  H  H70  1  0.32162700  0.83243900  0.19958200  1
  H  H71  1  0.17837300  0.16756100  0.69958200  1
  C  C0  1  0.50390300  0.82652900  0.78043200  1
  C  C1  1  0.99609700  0.17347100  0.28043200  1
  C  C2  1  0.00390300  0.67347100  0.21956800  1
  C  C3  1  0.49609700  0.32652900  0.71956800  1
  C  C4  1  0.85472000  0.72662200  0.84586400  1
  C  C5  1  0.64528000  0.27337800  0.34586400  1
  C  C6  1  0.35472000  0.77337800  0.15413600  1
  C  C7  1  0.14528000  0.22662200  0.65413600  1
  S  S0  1  0.79056600  0.84247200  0.79576900  1
  S  S1  1  0.70943400  0.15752800  0.29576900  1
  S  S2  1  0.29056600  0.65752800  0.20423100  1
  S  S3  1  0.20943400  0.34247200  0.70423100  1
loop_
_geom_bond_atom_site_label_1
_geom_bond_atom_site_label_2
_geom_bond_distance
_geom_bond_site_symmetry_2
B0 H0 1.197812 1_555
B1 H1 1.197812 1_555
B2 H2 1.197812 1_555
B3 H3 1.197812 1_555
B4 H4 1.198156 1_555
B5 H5 1.198156 1_555
B6 H6 1.198156 1_555
B7 H7 1.198156 1_555
B8 H8 1.199454 1_555
B9 H9 1.199454 1_555
B10 H10 1.199454 1_555
B10 B26 1.724135 1_555
B11 H11 1.199454 1_555
B11 B27 1.724135 1_655
B12 H12 1.196602 1_655
B13 H13 1.196602 1_555
B14 H14 1.196602 1_555
B15 H15 1.196602 1_455
B16 H20 1.195244 1_555
B16 H16 1.319815 1_555
B17 H21 1.195244 1_555
B17 H17 1.319815 1_555
B18 H22 1.195244 1_555
B18 H18 1.319815 1_555
B19 H23 1.195244 1_555
B19 H19 1.319815 1_555
B20 H24 1.198293 1_555
B20 H16 1.333949 1_555
B20 B24 1.663948 1_545
B21 H25 1.198293 1_555
B21 H17 1.333949 1_555
B21 B25 1.663948 1_565
B22 H26 1.198293 1_555
B22 H18 1.333949 1_555
B22 B26 1.663948 1_555
B23 H27 1.198293 1_555
B23 H19 1.333949 1_555
B23 B27 1.663948 1_555
B24 B8 1.724135 1_655
B24 B4 1.782698 1_665
B24 B28 1.818629 1_555
B24 S0 1.882487 1_555
B25 B9 1.724135 1_555
B25 B5 1.782698 1_545
B25 B29 1.818629 1_555
B25 S1 1.882487 1_555
B26 B6 1.782707 1_555
B26 B30 1.818629 1_555
B26 S2 1.882487 1_555
B27 B7 1.782698 1_455
B27 B31 1.818629 1_555
B27 S3 1.882487 1_555
B28 H28 1.199449 1_556
B28 H32 1.337676 1_555
B29 H29 1.199449 1_555
B29 H33 1.337676 1_555
B30 H30 1.199449 1_554
B30 H34 1.337676 1_555
B31 H31 1.199449 1_555
B31 H35 1.337676 1_555
B32 H36 1.191793 1_555
B32 H32 1.325867 1_544
B32 H40 1.331599 1_555
B33 H37 1.191793 1_555
B33 H33 1.325867 1_565
B33 H41 1.331599 1_555
B34 H38 1.191793 1_555
B34 H34 1.325867 1_556
B34 H42 1.331599 1_555
B35 H39 1.191793 1_555
B35 H35 1.325867 1_555
B35 H43 1.331599 1_555
B36 H44 1.193408 1_555
B36 H40 1.338084 1_555
B37 H45 1.193408 1_555
B37 H41 1.338084 1_555
B38 H46 1.193408 1_555
B38 H42 1.338084 1_555
B39 H47 1.193408 1_555
B39 H43 1.338084 1_555
C0 H52 1.095513 1_555
C0 H56 1.096354 1_555
C0 H48 1.096766 1_555
C0 S0 1.802457 1_555
C1 H53 1.095513 1_655
C1 H57 1.096354 1_655
C1 H49 1.096766 1_655
C1 S1 1.802457 1_555
C2 H54 1.095513 1_455
C2 H58 1.096354 1_455
C2 H50 1.096766 1_455
C2 S2 1.802457 1_555
C3 H55 1.095513 1_555
C3 H59 1.096354 1_555
C3 H51 1.096766 1_555
C3 S3 1.802457 1_555
C4 H60 1.095138 1_555
C4 H64 1.095501 1_655
C4 H68 1.096422 1_555
C4 S0 1.799756 1_555
C5 H61 1.095138 1_555
C5 H65 1.095501 1_555
C5 H69 1.096422 1_555
C5 S1 1.799756 1_555
C6 H62 1.095138 1_555
C6 H66 1.095501 1_555
C6 H70 1.096422 1_555
C6 S2 1.799756 1_555
C7 H63 1.095138 1_555
C7 H67 1.095501 1_455
C7 H71 1.096422 1_555
C7 S3 1.799756 1_555
