# generated using pymatgen
data_LaV3TeO15
_symmetry_space_group_name_H-M   'P 1'
_cell_length_a   9.79703804
_cell_length_b   9.79703804
_cell_length_c   9.79703797
_cell_angle_alpha   58.31907229
_cell_angle_beta   58.31907229
_cell_angle_gamma   58.31907557
_symmetry_Int_Tables_number   1
_chemical_formula_structural   LaV3TeO15
_chemical_formula_sum   'La2 V6 Te2 O30'
_cell_volume   639.32626319
_cell_formula_units_Z   2
loop_
 _symmetry_equiv_pos_site_id
 _symmetry_equiv_pos_as_xyz
  1  'x, y, z'
loop_
 _atom_site_type_symbol
 _atom_site_label
 _atom_site_symmetry_multiplicity
 _atom_site_fract_x
 _atom_site_fract_y
 _atom_site_fract_z
 _atom_site_occupancy
  La  La0  1  0.23111700  0.23111700  0.23111700  1
  La  La1  1  0.73111700  0.73111700  0.73111700  1
  V  V0  1  0.12716600  0.65832900  0.28419200  1
  V  V1  1  0.28419200  0.12716600  0.65832900  1
  V  V2  1  0.65832900  0.28419200  0.12716600  1
  V  V3  1  0.78419200  0.15832900  0.62716600  1
  V  V4  1  0.62716600  0.78419200  0.15832900  1
  V  V5  1  0.15832900  0.62716600  0.78419200  1
  Te  Te0  1  0.95548200  0.95548200  0.95548200  1
  Te  Te1  1  0.45548200  0.45548200  0.45548200  1
  O  O0  1  0.33093100  0.60301300  0.29642900  1
  O  O1  1  0.29642900  0.33093100  0.60301300  1
  O  O2  1  0.60301300  0.29642900  0.33093100  1
  O  O3  1  0.79642900  0.10301300  0.83093100  1
  O  O4  1  0.83093100  0.79642900  0.10301300  1
  O  O5  1  0.10301300  0.83093100  0.79642900  1
  O  O6  1  0.81642900  0.07776600  0.11511800  1
  O  O7  1  0.11511800  0.81642900  0.07776600  1
  O  O8  1  0.07776600  0.11511800  0.81642900  1
  O  O9  1  0.61511800  0.57776600  0.31642900  1
  O  O10  1  0.31642900  0.61511800  0.57776600  1
  O  O11  1  0.57776600  0.31642900  0.61511800  1
  O  O12  1  0.95631000  0.72492500  0.44661100  1
  O  O13  1  0.44661100  0.95631000  0.72492500  1
  O  O14  1  0.72492500  0.44661100  0.95631000  1
  O  O15  1  0.94661100  0.22492500  0.45631000  1
  O  O16  1  0.45631000  0.94661100  0.22492500  1
  O  O17  1  0.22492500  0.45631000  0.94661100  1
  O  O18  1  0.11546600  0.48648200  0.30176100  1
  O  O19  1  0.30176100  0.11546600  0.48648200  1
  O  O20  1  0.48648200  0.30176100  0.11546600  1
  O  O21  1  0.80176100  0.98648200  0.61546600  1
  O  O22  1  0.61546600  0.80176100  0.98648200  1
  O  O23  1  0.98648200  0.61546600  0.80176100  1
  O  O24  1  0.29758200  0.16094200  0.98478200  1
  O  O25  1  0.98478200  0.29758200  0.16094200  1
  O  O26  1  0.16094200  0.98478200  0.29758200  1
  O  O27  1  0.48478200  0.66094200  0.79758200  1
  O  O28  1  0.79758200  0.48478200  0.66094200  1
  O  O29  1  0.66094200  0.79758200  0.48478200  1
loop_
_geom_bond_atom_site_label_1
_geom_bond_atom_site_label_2
_geom_bond_distance
_geom_bond_site_symmetry_2
La0 O20 2.457537 1_555
La0 O19 2.457537 1_555
La0 O18 2.457537 1_555
La0 O17 2.493598 1_554
La0 O15 2.493598 1_455
La0 O16 2.493598 1_545
La0 O26 2.518503 1_545
La0 O24 2.518503 1_554
La0 O25 2.518503 1_455
La1 O21 2.457537 1_555
La1 O22 2.457537 1_555
La1 O23 2.457537 1_555
La1 O12 2.493598 1_555
La1 O14 2.493598 1_555
La1 O13 2.493598 1_555
La1 O27 2.518503 1_555
La1 O29 2.518503 1_555
La1 O28 2.518503 1_555
O0 V0 1.827576 1_555
O0 Te1 1.945550 1_555
O1 V1 1.827576 1_555
O1 Te1 1.945550 1_555
O2 V2 1.827576 1_555
O2 Te1 1.945550 1_555
O3 V3 1.827576 1_555
O3 Te0 1.945550 1_545
O4 V4 1.827576 1_555
O4 Te0 1.945550 1_554
O5 V5 1.827576 1_555
O5 Te0 1.945550 1_455
O6 V2 1.808714 1_555
O6 Te0 1.937249 1_544
O7 V0 1.808714 1_555
O7 Te0 1.937249 1_454
O8 V1 1.808714 1_555
O8 Te0 1.937249 1_445
O9 V4 1.808714 1_555
O9 Te1 1.937249 1_555
O10 V5 1.808714 1_555
O10 Te1 1.937249 1_555
O11 V3 1.808714 1_555
O11 Te1 1.937249 1_555
O12 V0 1.704469 1_655
O13 V1 1.704469 1_565
O14 V2 1.704469 1_556
O15 V3 1.704469 1_555
O16 V4 1.704469 1_555
O17 V5 1.704469 1_555
O18 V0 1.659771 1_555
O19 V1 1.659771 1_555
O20 V2 1.659772 1_555
O21 V3 1.659772 1_565
O22 V4 1.659771 1_556
O23 V5 1.659771 1_655
