# generated using pymatgen
data_Y11(In3Si2)2
_symmetry_space_group_name_H-M   'P 1'
_cell_length_a   11.52133310
_cell_length_b   11.52133310
_cell_length_c   11.52133310
_cell_angle_alpha   120.01919628
_cell_angle_beta   120.01919628
_cell_angle_gamma   89.96675428
_symmetry_Int_Tables_number   1
_chemical_formula_structural   Y11(In3Si2)2
_chemical_formula_sum   'Y22 In12 Si8'
_cell_volume   1081.10304795
_cell_formula_units_Z   2
loop_
 _symmetry_equiv_pos_site_id
 _symmetry_equiv_pos_as_xyz
  1  'x, y, z'
loop_
 _atom_site_type_symbol
 _atom_site_label
 _atom_site_symmetry_multiplicity
 _atom_site_fract_x
 _atom_site_fract_y
 _atom_site_fract_z
 _atom_site_occupancy
  Y  Y0  1  0.68506800  0.93524900  0.25018100  1
  Y  Y1  1  0.68506800  0.43488700  0.74981900  1
  Y  Y2  1  0.93524900  0.68506800  0.25018100  1
  Y  Y3  1  0.43488700  0.68506800  0.74981900  1
  Y  Y4  1  0.31493200  0.06475100  0.74981900  1
  Y  Y5  1  0.31493200  0.56511300  0.25018100  1
  Y  Y6  1  0.06475100  0.31493200  0.74981900  1
  Y  Y7  1  0.56511300  0.31493200  0.25018100  1
  Y  Y8  1  0.89857900  0.24539500  0.34681500  1
  Y  Y9  1  0.89857900  0.55176400  0.65318500  1
  Y  Y10  1  0.24539500  0.89857900  0.34681500  1
  Y  Y11  1  0.55176400  0.89857900  0.65318500  1
  Y  Y12  1  0.10142100  0.75460500  0.65318500  1
  Y  Y13  1  0.10142100  0.44823600  0.34681500  1
  Y  Y14  1  0.75460500  0.10142100  0.65318500  1
  Y  Y15  1  0.44823600  0.10142100  0.34681500  1
  Y  Y16  1  0.33231200  0.33231200  0.66462500  1
  Y  Y17  1  0.66768800  0.66768800  0.33537500  1
  Y  Y18  1  0.33231200  0.66768800  0.00000000  1
  Y  Y19  1  0.66768800  0.33231200  0.00000000  1
  Y  Y20  1  0.83257900  0.83257900  0.00000000  1
  Y  Y21  1  0.16742100  0.16742100  0.00000000  1
  In  In0  1  0.03558500  0.03558500  0.41286100  1
  In  In1  1  0.62272400  0.62272400  0.58713900  1
  In  In2  1  0.03558500  0.62272400  0.00000000  1
  In  In3  1  0.62272400  0.03558500  0.00000000  1
  In  In4  1  0.96441500  0.96441500  0.58713900  1
  In  In5  1  0.37727600  0.37727600  0.41286100  1
  In  In6  1  0.96441500  0.37727600  0.00000000  1
  In  In7  1  0.37727600  0.96441500  0.00000000  1
  In  In8  1  0.12910100  0.12910100  0.25820200  1
  In  In9  1  0.87089900  0.87089900  0.74179800  1
  In  In10  1  0.12910100  0.87089900  0.00000000  1
  In  In11  1  0.87089900  0.12910100  0.00000000  1
  Si  Si0  1  0.15221800  0.50000000  0.65221800  1
  Si  Si1  1  0.84778200  0.50000000  0.34778200  1
  Si  Si2  1  0.50000000  0.84778200  0.34778200  1
  Si  Si3  1  0.50000000  0.15221800  0.65221800  1
  Si  Si4  1  0.61715600  0.61715600  0.00000000  1
  Si  Si5  1  0.38284400  0.38284400  0.00000000  1
  Si  Si6  1  0.75000000  0.25000000  0.50000000  1
  Si  Si7  1  0.25000000  0.75000000  0.50000000  1
loop_
_geom_bond_atom_site_label_1
_geom_bond_atom_site_label_2
_geom_bond_distance
_geom_bond_site_symmetry_2
In0 In4 2.944826 1_445
In0 In8 3.056152 1_555
In0 Y8 3.090012 1_455
In0 Y10 3.090012 1_545
In0 Y20 3.362988 1_445
In0 Y2 3.379656 1_445
In0 Y0 3.379656 1_445
In0 Y6 3.425913 1_555
In0 Y4 3.425913 1_555
In0 Y16 3.458014 1_555
In1 In5 2.944826 1_555
In1 In9 3.056152 1_555
In1 Y11 3.090002 1_555
In1 Y9 3.090002 1_555
In1 Y20 3.362988 1_556
In1 Y3 3.379656 1_555
In1 Y1 3.379656 1_555
In1 Y7 3.425913 1_555
In1 Y5 3.425913 1_555
In1 Y17 3.458027 1_555
In2 In6 2.944826 1_455
In2 Y9 3.090002 1_454
In2 Y10 3.090003 1_555
In2 Y20 3.362988 1_455
In2 Y2 3.379656 1_455
In2 Y1 3.379656 1_454
In2 Y6 3.425913 1_554
In2 Y5 3.425913 1_555
In2 Y18 3.458016 1_555
In3 In7 2.944826 1_545
In3 Y11 3.090002 1_544
In3 Y8 3.090003 1_555
In3 Y20 3.362988 1_545
In3 Y0 3.379656 1_545
In3 Y3 3.379656 1_544
In3 Y4 3.425913 1_554
In3 Y7 3.425913 1_555
In3 Y19 3.458016 1_555
In4 In9 3.056152 1_555
In4 Y14 3.090012 1_565
In4 Y12 3.090012 1_655
In4 Y21 3.362988 1_666
In4 Y4 3.379656 1_665
In4 Y6 3.379656 1_665
In4 Y0 3.425913 1_555
In4 Y2 3.425913 1_555
In4 Y17 3.458014 1_555
In5 In8 3.056152 1_555
In5 Y15 3.090002 1_555
In5 Y13 3.090002 1_555
In5 Y21 3.362988 1_555
In5 Y7 3.379656 1_555
In5 Y5 3.379656 1_555
In5 Y1 3.425913 1_555
In5 Y3 3.425913 1_555
In5 Y16 3.458027 1_555
In6 Y13 3.090002 1_655
In6 Y14 3.090003 1_554
In6 Y21 3.362988 1_655
In6 Y6 3.379656 1_654
In6 Y5 3.379656 1_655
In6 Y1 3.425913 1_554
In6 Y2 3.425913 1_555
In6 Y19 3.458016 1_555
In7 Y15 3.090002 1_565
In7 Y12 3.090003 1_554
In7 Y21 3.362988 1_565
In7 Y4 3.379656 1_564
In7 Y7 3.379656 1_565
In7 Y3 3.425913 1_554
In7 Y0 3.425913 1_555
In7 Y18 3.458016 1_555
In8 Y16 3.310091 1_555
In8 Y15 3.351375 1_555
In8 Y13 3.351375 1_555
In8 Y10 3.351377 1_545
In8 Y8 3.351377 1_455
In8 Y21 3.444992 1_555
In8 Y20 3.444992 1_445
In9 Y17 3.310091 1_555
In9 Y9 3.351375 1_555
In9 Y11 3.351375 1_555
In9 Y14 3.351377 1_565
In9 Y12 3.351377 1_655
In9 Y20 3.444992 1_556
In9 Y21 3.444992 1_666
In10 In8 2.973968 1_565
In10 In9 2.973968 1_454
In10 In7 3.056152 1_555
In10 In2 3.056152 1_555
In10 Y18 3.310083 1_555
In10 Y12 3.351372 1_554
In10 Y10 3.351372 1_555
In10 Y15 3.351375 1_565
In10 Y9 3.351375 1_454
In10 Y21 3.444992 1_565
In10 Y20 3.444992 1_455
In11 In8 2.973968 1_655
In11 In9 2.973968 1_544
In11 In6 3.056152 1_555
In11 In3 3.056152 1_555
In11 Y19 3.310083 1_555
In11 Y14 3.351372 1_554
In11 Y8 3.351372 1_555
In11 Y13 3.351375 1_655
In11 Y11 3.351375 1_544
In11 Y21 3.444992 1_655
In11 Y20 3.444992 1_545
Si0 Y18 2.834294 1_556
Si0 Y16 2.834295 1_555
Si0 Y12 2.986510 1_555
Si0 Y8 2.986517 1_455
Si0 Y13 2.986522 1_555
Si0 Y9 2.986522 1_455
Si0 Y3 3.218981 1_555
Si0 Y6 3.218981 1_555
Si1 Y19 2.834294 1_555
Si1 Y17 2.834295 1_555
Si1 Y8 2.986510 1_555
Si1 Y12 2.986517 1_655
Si1 Y9 2.986522 1_555
Si1 Y13 2.986522 1_655
Si1 Y7 3.218981 1_555
Si1 Y2 3.218981 1_555
Si2 Y18 2.834294 1_555
Si2 Y17 2.834295 1_555
Si2 Y10 2.986510 1_555
Si2 Y14 2.986517 1_565
Si2 Y11 2.986522 1_555
Si2 Y15 2.986522 1_565
Si2 Y5 3.218981 1_555
Si2 Y0 3.218981 1_555
Si3 Y19 2.834294 1_556
Si3 Y16 2.834295 1_555
Si3 Y14 2.986510 1_555
Si3 Y10 2.986517 1_545
Si3 Y15 2.986522 1_555
Si3 Y11 2.986522 1_545
Si3 Y1 3.218981 1_555
Si3 Y4 3.218981 1_555
Si4 Y2 3.086850 1_555
Si4 Y0 3.086850 1_555
Si4 Y3 3.086850 1_554
Si4 Y1 3.086850 1_554
Si4 Y17 3.332680 1_555
Si4 Y16 3.332689 1_554
Si4 Y18 3.332691 1_555
Si4 Y19 3.332691 1_555
Si4 Y20 3.511040 1_555
Si5 Y5 3.086850 1_555
Si5 Y7 3.086850 1_555
Si5 Y6 3.086850 1_554
Si5 Y4 3.086850 1_554
Si5 Y16 3.332680 1_554
Si5 Y17 3.332689 1_555
Si5 Y19 3.332691 1_555
Si5 Y18 3.332691 1_555
Si5 Y21 3.511040 1_555
Si6 Y9 2.996191 1_555
Si6 Y15 2.996191 1_555
Si6 Y8 2.996194 1_555
Si6 Y14 2.996194 1_555
Si6 Y1 3.065856 1_555
Si6 Y0 3.065856 1_545
Si6 Y7 3.065856 1_555
Si6 Y6 3.065856 1_655
Si7 Y11 2.996191 1_555
Si7 Y13 2.996191 1_555
Si7 Y10 2.996194 1_555
Si7 Y12 2.996194 1_555
Si7 Y3 3.065856 1_555
Si7 Y4 3.065856 1_565
Si7 Y2 3.065856 1_455
Si7 Y5 3.065856 1_555
