# generated using pymatgen
data_Li9Mn2Co5O16
_symmetry_space_group_name_H-M   'P 1'
_cell_length_a   2.89988800
_cell_length_b   10.23532500
_cell_length_c   10.29141115
_cell_angle_alpha   70.29687117
_cell_angle_beta   90.00000000
_cell_angle_gamma   90.00000000
_symmetry_Int_Tables_number   1
_chemical_formula_structural   Li9Mn2Co5O16
_chemical_formula_sum   'Li9 Mn2 Co5 O16'
_cell_volume   287.57824945
_cell_formula_units_Z   1
loop_
 _symmetry_equiv_pos_site_id
 _symmetry_equiv_pos_as_xyz
  1  'x, y, z'
loop_
 _atom_site_type_symbol
 _atom_site_label
 _atom_site_symmetry_multiplicity
 _atom_site_fract_x
 _atom_site_fract_y
 _atom_site_fract_z
 _atom_site_occupancy
  Li  Li0  1  0.50000000  0.00266800  0.73870600  1
  Li  Li1  1  0.50000000  0.00004900  0.26266100  1
  Li  Li2  1  0.00000000  0.74894400  0.74415300  1
  Li  Li3  1  0.00000000  0.74740900  0.25639200  1
  Li  Li4  1  0.50000000  0.50019200  0.74635200  1
  Li  Li5  1  0.50000000  0.49031200  0.25893000  1
  Li  Li6  1  0.00000000  0.24682900  0.72965400  1
  Li  Li7  1  0.00000000  0.25421000  0.26808400  1
  Li  Li8  1  0.50000000  0.25119900  0.49620100  1
  Mn  Mn0  1  0.00000000  0.00027700  0.00281200  1
  Mn  Mn1  1  0.00000000  0.49518800  0.49538600  1
  Co  Co0  1  0.00000000  0.01640500  0.50749500  1
  Co  Co1  1  0.50000000  0.74774500  0.00147900  1
  Co  Co2  1  0.50000000  0.75614700  0.50062800  1
  Co  Co3  1  0.00000000  0.49888000  0.99606100  1
  Co  Co4  1  0.50000000  0.25513900  0.99861100  1
  O  O0  1  0.50000000  0.10643700  0.88877500  1
  O  O1  1  0.50000000  0.11521300  0.38320400  1
  O  O2  1  0.00000000  0.86585400  0.90210700  1
  O  O3  1  0.00000000  0.86564900  0.38473000  1
  O  O4  1  0.50000000  0.61927300  0.88396900  1
  O  O5  1  0.50000000  0.61480500  0.38656100  1
  O  O6  1  0.00000000  0.37308500  0.87974100  1
  O  O7  1  0.00000000  0.38770900  0.38369300  1
  O  O8  1  0.50000000  0.87616400  0.61687600  1
  O  O9  1  0.50000000  0.89204500  0.11424900  1
  O  O10  1  0.00000000  0.62554700  0.60710600  1
  O  O11  1  0.00000000  0.63858800  0.10880600  1
  O  O12  1  0.50000000  0.39112700  0.60985300  1
  O  O13  1  0.50000000  0.37988400  0.11509700  1
  O  O14  1  0.00000000  0.11531900  0.62406500  1
  O  O15  1  0.00000000  0.12170600  0.10756500  1
loop_
_geom_bond_atom_site_label_1
_geom_bond_atom_site_label_2
_geom_bond_distance
_geom_bond_site_symmetry_2
Li0 O14 1.976483 1_555
Li0 O14 1.976483 1_655
Li0 O8 2.084040 1_545
Li0 O0 2.149276 1_555
Li0 O2 2.302888 1_545
Li0 O2 2.302888 1_645
Li1 O1 1.978492 1_555
Li1 O3 2.099430 1_545
Li1 O3 2.099430 1_645
Li1 O9 2.166424 1_545
Li1 O15 2.204630 1_655
Li1 O15 2.204630 1_555
Li2 O8 2.088910 1_455
Li2 O8 2.088910 1_555
Li2 O4 2.155592 1_455
Li2 O4 2.155592 1_555
Li2 O10 2.187600 1_555
Li2 O2 2.320770 1_555
Li3 O3 2.070488 1_555
Li3 O5 2.124392 1_455
Li3 O5 2.124392 1_555
Li3 O11 2.165244 1_555
Li3 O9 2.230156 1_555
Li3 O9 2.230156 1_455
Li4 O12 2.068075 1_555
Li4 O6 2.115447 1_555
Li4 O6 2.115447 1_655
Li4 O10 2.135967 1_655
Li4 O10 2.135967 1_555
Li4 O4 2.157626 1_555
Li5 O7 1.986103 1_655
Li5 O7 1.986103 1_555
Li5 O5 2.116012 1_555
Li5 O13 2.144007 1_555
Li5 O11 2.282880 1_555
Li5 O11 2.282880 1_655
Li6 O14 1.994733 1_555
Li6 O12 2.139141 1_455
Li6 O12 2.139141 1_555
Li6 O0 2.293938 1_455
Li6 O0 2.293938 1_555
Li6 O6 2.324156 1_555
Li7 O7 2.092571 1_555
Li7 O1 2.096055 1_555
Li7 O1 2.096055 1_455
Li7 O13 2.206861 1_555
Li7 O13 2.206861 1_455
Li7 O15 2.465571 1_555
Li8 O7 2.074694 1_655
Li8 O7 2.074694 1_555
Li8 O1 2.093088 1_555
Li8 O14 2.129355 1_555
Li8 O14 2.129355 1_655
Li8 O12 2.132799 1_555
Mn0 O15 1.900103 1_555
Mn0 O9 1.946310 1_445
Mn0 O9 1.946310 1_545
Mn0 O0 1.949480 1_454
Mn0 O0 1.949480 1_554
Mn0 O2 1.982074 1_544
Mn1 O7 1.839603 1_555
Mn1 O12 1.943830 1_455
Mn1 O12 1.943830 1_555
Mn1 O5 1.982681 1_455
Mn1 O5 1.982681 1_555
Mn1 O10 2.033870 1_555
Co0 O14 1.811952 1_555
Co0 O1 1.972060 1_455
Co0 O1 1.972060 1_555
Co0 O8 2.083357 1_445
Co0 O8 2.083357 1_545
Co0 O3 2.300380 1_545
Co1 O11 1.933521 1_555
Co1 O11 1.933521 1_655
Co1 O2 1.943188 1_554
Co1 O2 1.943188 1_654
Co1 O4 2.064920 1_554
Co1 O9 2.164282 1_555
Co2 O3 1.969709 1_555
Co2 O3 1.969709 1_655
Co2 O8 1.982731 1_555
Co2 O10 2.025409 1_555
Co2 O10 2.025409 1_655
Co2 O5 2.148508 1_555
Co3 O4 1.998260 1_555
Co3 O4 1.998260 1_455
Co3 O13 2.020006 1_456
Co3 O13 2.020006 1_556
Co3 O6 2.032274 1_555
Co3 O11 2.123644 1_556
Co4 O6 2.015055 1_555
Co4 O6 2.015055 1_655
Co4 O13 2.024714 1_556
Co4 O15 2.047498 1_656
Co4 O15 2.047498 1_556
Co4 O0 2.180443 1_555
