# generated using pymatgen
data_KCuS3
_symmetry_space_group_name_H-M   'P 1'
_cell_length_a   4.17670000
_cell_length_b   3.43894400
_cell_length_c   7.61068800
_cell_angle_alpha   90.00000000
_cell_angle_beta   90.00000000
_cell_angle_gamma   90.00000000
_symmetry_Int_Tables_number   1
_chemical_formula_structural   KCuS3
_chemical_formula_sum   'K1 Cu1 S3'
_cell_volume   109.31564070
_cell_formula_units_Z   1
loop_
 _symmetry_equiv_pos_site_id
 _symmetry_equiv_pos_as_xyz
  1  'x, y, z'
loop_
 _atom_site_type_symbol
 _atom_site_label
 _atom_site_symmetry_multiplicity
 _atom_site_fract_x
 _atom_site_fract_y
 _atom_site_fract_z
 _atom_site_occupancy
  K  K0  1  0.00000000  0.00000000  0.51297800  1
  Cu  Cu0  1  0.50000000  0.00000000  0.90373700  1
  S  S0  1  0.50000000  0.50000000  0.70703500  1
  S  S1  1  0.50000000  0.50000000  0.12041100  1
  S  S2  1  0.00000000  0.00000000  0.09783900  1
loop_
_geom_bond_atom_site_label_1
_geom_bond_atom_site_label_2
_geom_bond_distance
_geom_bond_site_symmetry_2
K0 S0 3.082052 1_555
K0 S0 3.082052 1_545
K0 S0 3.082052 1_455
K0 S0 3.082052 1_445
K0 S2 3.159493 1_555
Cu0 S0 2.279848 1_545
Cu0 S0 2.279848 1_555
Cu0 S1 2.382417 1_546
Cu0 S1 2.382417 1_556
Cu0 S2 2.558021 1_656
Cu0 S2 2.558021 1_556
