# generated using pymatgen
data_Ba7Sr(CuO3)8
_symmetry_space_group_name_H-M   'P 1'
_cell_length_a   7.99581800
_cell_length_b   7.99581800
_cell_length_c   7.99581800
_cell_angle_alpha   90.00000000
_cell_angle_beta   90.00000000
_cell_angle_gamma   90.00000000
_symmetry_Int_Tables_number   1
_chemical_formula_structural   Ba7Sr(CuO3)8
_chemical_formula_sum   'Ba7 Sr1 Cu8 O24'
_cell_volume   511.19747567
_cell_formula_units_Z   1
loop_
 _symmetry_equiv_pos_site_id
 _symmetry_equiv_pos_as_xyz
  1  'x, y, z'
loop_
 _atom_site_type_symbol
 _atom_site_label
 _atom_site_symmetry_multiplicity
 _atom_site_fract_x
 _atom_site_fract_y
 _atom_site_fract_z
 _atom_site_occupancy
  Ba  Ba0  1  0.50000000  0.00000000  0.50000000  1
  Ba  Ba1  1  0.50000000  0.00000000  0.00000000  1
  Ba  Ba2  1  0.50000000  0.50000000  0.50000000  1
  Ba  Ba3  1  0.50000000  0.50000000  0.00000000  1
  Ba  Ba4  1  0.00000000  0.00000000  0.50000000  1
  Ba  Ba5  1  0.00000000  0.50000000  0.50000000  1
  Ba  Ba6  1  0.00000000  0.50000000  0.00000000  1
  Sr  Sr0  1  0.00000000  0.00000000  0.00000000  1
  Cu  Cu0  1  0.24997600  0.75002400  0.24997600  1
  Cu  Cu1  1  0.24997600  0.75002400  0.75002400  1
  Cu  Cu2  1  0.24997600  0.24997600  0.24997600  1
  Cu  Cu3  1  0.24997600  0.24997600  0.75002400  1
  Cu  Cu4  1  0.75002400  0.75002400  0.24997600  1
  Cu  Cu5  1  0.75002400  0.75002400  0.75002400  1
  Cu  Cu6  1  0.75002400  0.24997600  0.24997600  1
  Cu  Cu7  1  0.75002400  0.24997600  0.75002400  1
  O  O0  1  0.50000000  0.75047000  0.24953000  1
  O  O1  1  0.50000000  0.75047000  0.75047000  1
  O  O2  1  0.50000000  0.24953000  0.24953000  1
  O  O3  1  0.50000000  0.24953000  0.75047000  1
  O  O4  1  0.00000000  0.75530700  0.24469300  1
  O  O5  1  0.00000000  0.75530700  0.75530700  1
  O  O6  1  0.00000000  0.24469300  0.24469300  1
  O  O7  1  0.00000000  0.24469300  0.75530700  1
  O  O8  1  0.24469300  0.00000000  0.24469300  1
  O  O9  1  0.24469300  0.00000000  0.75530700  1
  O  O10  1  0.24953000  0.50000000  0.24953000  1
  O  O11  1  0.24953000  0.50000000  0.75047000  1
  O  O12  1  0.75530700  0.00000000  0.24469300  1
  O  O13  1  0.75530700  0.00000000  0.75530700  1
  O  O14  1  0.75047000  0.50000000  0.24953000  1
  O  O15  1  0.75047000  0.50000000  0.75047000  1
  O  O16  1  0.24953000  0.75047000  0.50000000  1
  O  O17  1  0.24469300  0.75530700  0.00000000  1
  O  O18  1  0.24953000  0.24953000  0.50000000  1
  O  O19  1  0.24469300  0.24469300  0.00000000  1
  O  O20  1  0.75047000  0.75047000  0.50000000  1
  O  O21  1  0.75530700  0.75530700  0.00000000  1
  O  O22  1  0.75047000  0.24953000  0.50000000  1
  O  O23  1  0.75530700  0.24469300  0.00000000  1
loop_
_geom_bond_atom_site_label_1
_geom_bond_atom_site_label_2
_geom_bond_distance
_geom_bond_site_symmetry_2
Ba0 O22 2.826954 1_555
Ba0 O1 2.826954 1_545
Ba0 O3 2.826954 1_555
Ba0 O2 2.826954 1_555
Ba0 O16 2.826954 1_545
Ba0 O0 2.826954 1_545
Ba0 O18 2.826954 1_555
Ba0 O20 2.826954 1_545
Ba0 O13 2.886959 1_555
Ba0 O12 2.886959 1_555
Ba0 O9 2.886959 1_555
Ba0 O8 2.886959 1_555
Ba1 O0 2.821634 1_545
Ba1 O3 2.821634 1_554
Ba1 O1 2.821634 1_544
Ba1 O2 2.821634 1_555
Ba1 O12 2.827585 1_555
Ba1 O23 2.827585 1_555
Ba1 O8 2.827585 1_555
Ba1 O13 2.827585 1_554
Ba1 O19 2.827585 1_555
Ba1 O21 2.827585 1_545
Ba1 O17 2.827585 1_545
Ba1 O9 2.827585 1_554
Ba2 O22 2.832263 1_555
Ba2 O10 2.832263 1_555
Ba2 O0 2.832263 1_555
Ba2 O16 2.832263 1_555
Ba2 O3 2.832263 1_555
Ba2 O20 2.832263 1_555
Ba2 O2 2.832263 1_555
Ba2 O11 2.832263 1_555
Ba2 O1 2.832263 1_555
Ba2 O15 2.832263 1_555
Ba2 O14 2.832263 1_555
Ba2 O18 2.832263 1_555
Ba3 O14 2.826954 1_555
Ba3 O10 2.826954 1_555
Ba3 O0 2.826954 1_555
Ba3 O1 2.826954 1_554
Ba3 O2 2.826954 1_555
Ba3 O11 2.826954 1_554
Ba3 O15 2.826954 1_554
Ba3 O3 2.826954 1_554
Ba3 O21 2.886959 1_555
Ba3 O17 2.886959 1_555
Ba3 O23 2.886959 1_555
Ba3 O19 2.886959 1_555
Ba4 O16 2.821634 1_545
Ba4 O18 2.821634 1_555
Ba4 O22 2.821634 1_455
Ba4 O20 2.821634 1_445
Ba4 O7 2.827585 1_555
Ba4 O9 2.827585 1_555
Ba4 O8 2.827585 1_555
Ba4 O5 2.827585 1_545
Ba4 O6 2.827585 1_555
Ba4 O13 2.827585 1_455
Ba4 O12 2.827585 1_455
Ba4 O4 2.827585 1_545
Ba5 O22 2.826954 1_455
Ba5 O10 2.826954 1_555
Ba5 O16 2.826954 1_555
Ba5 O14 2.826954 1_455
Ba5 O20 2.826954 1_455
Ba5 O11 2.826954 1_555
Ba5 O15 2.826954 1_455
Ba5 O18 2.826954 1_555
Ba5 O5 2.886959 1_555
Ba5 O4 2.886959 1_555
Ba5 O7 2.886959 1_555
Ba5 O6 2.886959 1_555
Ba6 O11 2.821634 1_554
Ba6 O15 2.821634 1_454
Ba6 O10 2.821634 1_555
Ba6 O14 2.821634 1_455
Ba6 O17 2.827585 1_555
Ba6 O4 2.827585 1_555
Ba6 O5 2.827585 1_554
Ba6 O21 2.827585 1_455
Ba6 O6 2.827585 1_555
Ba6 O19 2.827585 1_555
Ba6 O23 2.827585 1_455
Ba6 O7 2.827585 1_554
Cu0 O0 1.999153 1_555
Cu0 O16 1.999153 1_555
Cu0 O10 1.999153 1_555
Cu0 O8 1.999655 1_565
Cu0 O4 1.999655 1_555
Cu0 O17 1.999655 1_555
Cu1 O11 1.999153 1_555
Cu1 O1 1.999153 1_555
Cu1 O16 1.999153 1_555
Cu1 O9 1.999655 1_565
Cu1 O17 1.999655 1_556
Cu1 O5 1.999655 1_555
Cu2 O2 1.999153 1_555
Cu2 O18 1.999153 1_555
Cu2 O10 1.999153 1_555
Cu2 O6 1.999655 1_555
Cu2 O8 1.999655 1_555
Cu2 O19 1.999655 1_555
Cu3 O3 1.999153 1_555
Cu3 O11 1.999153 1_555
Cu3 O18 1.999153 1_555
Cu3 O19 1.999655 1_556
Cu3 O7 1.999655 1_555
Cu3 O9 1.999655 1_555
Cu4 O0 1.999153 1_555
Cu4 O20 1.999153 1_555
Cu4 O14 1.999153 1_555
Cu4 O12 1.999655 1_565
Cu4 O4 1.999655 1_655
Cu4 O21 1.999655 1_555
Cu5 O20 1.999153 1_555
Cu5 O1 1.999153 1_555
Cu5 O15 1.999153 1_555
Cu5 O13 1.999655 1_565
Cu5 O21 1.999655 1_556
Cu5 O5 1.999655 1_655
Cu6 O2 1.999153 1_555
Cu6 O14 1.999153 1_555
Cu6 O22 1.999153 1_555
Cu6 O6 1.999655 1_655
Cu6 O23 1.999655 1_555
Cu6 O12 1.999655 1_555
Cu7 O3 1.999153 1_555
Cu7 O15 1.999153 1_555
Cu7 O22 1.999153 1_555
Cu7 O23 1.999655 1_556
Cu7 O7 1.999655 1_655
Cu7 O13 1.999655 1_555
O4 Sr0 2.766938 1_565
O5 Sr0 2.766938 1_566
O6 Sr0 2.766938 1_555
O7 Sr0 2.766938 1_556
O8 Sr0 2.766938 1_555
O9 Sr0 2.766938 1_556
O12 Sr0 2.766938 1_655
O13 Sr0 2.766938 1_656
O17 Sr0 2.766938 1_565
O19 Sr0 2.766938 1_555
O21 Sr0 2.766938 1_665
O23 Sr0 2.766938 1_655
