# generated using pymatgen
data_Li2V3SnO8
_symmetry_space_group_name_H-M   'P 1'
_cell_length_a   6.05952536
_cell_length_b   6.01027081
_cell_length_c   10.79416155
_cell_angle_alpha   74.08540665
_cell_angle_beta   90.27515091
_cell_angle_gamma   120.32441301
_symmetry_Int_Tables_number   1
_chemical_formula_structural   Li2V3SnO8
_chemical_formula_sum   'Li4 V6 Sn2 O16'
_cell_volume   322.06779799
_cell_formula_units_Z   2
loop_
 _symmetry_equiv_pos_site_id
 _symmetry_equiv_pos_as_xyz
  1  'x, y, z'
loop_
 _atom_site_type_symbol
 _atom_site_label
 _atom_site_symmetry_multiplicity
 _atom_site_fract_x
 _atom_site_fract_y
 _atom_site_fract_z
 _atom_site_occupancy
  Li  Li0  1  0.93139900  0.87638500  0.18093500  1
  Li  Li1  1  0.44054300  0.88191400  0.68574100  1
  Li  Li2  1  0.55946200  0.11809600  0.31425300  1
  Li  Li3  1  0.06861000  0.12362700  0.81906800  1
  V  V0  1  0.50003000  0.49999100  0.99999300  1
  V  V1  1  0.50001600  0.00004900  0.99999700  1
  V  V2  1  0.50002600  0.50001800  0.50000500  1
  V  V3  1  0.00000500  0.50001400  0.50000000  1
  V  V4  1  0.99996600  0.99995600  0.50000700  1
  V  V5  1  0.99997900  0.50000600  0.99999300  1
  Sn  Sn0  1  0.75880700  0.50440500  0.74984100  1
  Sn  Sn1  1  0.24119100  0.49558300  0.25016200  1
  O  O0  1  0.87101300  0.74647400  0.40126400  1
  O  O1  1  0.36150600  0.72992600  0.89954000  1
  O  O2  1  0.63849400  0.27007400  0.10047000  1
  O  O3  1  0.12897700  0.25351800  0.59872800  1
  O  O4  1  0.10497400  0.75727000  0.61623300  1
  O  O5  1  0.58927500  0.73627500  0.11885500  1
  O  O6  1  0.65464900  0.28642700  0.61748900  1
  O  O7  1  0.12661800  0.28151700  0.11376800  1
  O  O8  1  0.64746500  0.74549300  0.61496300  1
  O  O9  1  0.12551000  0.72975800  0.11457900  1
  O  O10  1  0.87448600  0.27024300  0.88543200  1
  O  O11  1  0.35251700  0.25448500  0.38503100  1
  O  O12  1  0.87337700  0.71847300  0.88623400  1
  O  O13  1  0.34535400  0.71357600  0.38250200  1
  O  O14  1  0.41072300  0.26371200  0.88115400  1
  O  O15  1  0.89503000  0.24273400  0.38376400  1
loop_
_geom_bond_atom_site_label_1
_geom_bond_atom_site_label_2
_geom_bond_distance
_geom_bond_site_symmetry_2
Li0 O7 1.996365 1_665
Li0 O5 1.997301 1_555
Li0 O9 2.018445 1_655
Li0 O0 2.258580 1_555
Li1 O6 1.994651 1_565
Li1 O4 2.003542 1_555
Li1 O8 2.054011 1_555
Li1 O1 2.191439 1_555
Li2 O13 1.994684 1_545
Li2 O15 2.003554 1_555
Li2 O11 2.053968 1_555
Li2 O2 2.191276 1_555
Li3 O12 1.996472 1_445
Li3 O14 1.997277 1_555
Li3 O10 2.018495 1_455
Li3 O3 2.258698 1_555
O0 V4 1.935989 1_555
O0 V2 2.044105 1_555
O0 V3 2.058255 1_655
O1 V5 2.007135 1_455
O1 V1 2.024051 1_565
O1 V0 2.032484 1_555
O2 V5 2.007036 1_554
O2 V1 2.023744 1_554
O2 V0 2.032219 1_554
O3 V4 1.936162 1_445
O3 V2 2.044325 1_555
O3 V3 2.058305 1_555
O4 V4 2.008067 1_455
O4 Sn0 2.097028 1_455
O4 V3 2.105339 1_555
O5 V0 2.042647 1_554
O5 V1 2.048329 1_564
O5 Sn1 2.091308 1_555
O6 V3 2.013843 1_655
O6 Sn0 2.082910 1_555
O6 V2 2.108174 1_555
O7 V5 1.986359 1_454
O7 Sn1 2.105201 1_555
O7 V0 2.119990 1_554
O8 V4 2.031544 1_555
O8 V2 2.043773 1_555
O8 Sn0 2.120204 1_555
O9 V5 1.970327 1_454
O9 Sn1 2.114453 1_555
O9 V1 2.126275 1_564
O10 V5 1.970145 1_555
O10 Sn0 2.114438 1_555
O10 V1 2.126018 1_555
O11 V4 2.031858 1_445
O11 V2 2.044174 1_555
O11 Sn1 2.120131 1_555
O12 V5 1.986032 1_555
O12 Sn0 2.105199 1_555
O12 V0 2.119617 1_555
O13 V3 2.013866 1_555
O13 Sn1 2.082858 1_555
O13 V2 2.108352 1_555
O14 V0 2.042389 1_555
O14 V1 2.047906 1_555
O14 Sn0 2.091340 1_555
O15 V4 2.008243 1_545
O15 Sn1 2.096970 1_655
O15 V3 2.105470 1_655
