# generated using pymatgen
data_MnH30C6Se5N6
_symmetry_space_group_name_H-M   'P 1'
_cell_length_a   8.83238205
_cell_length_b   12.83293545
_cell_length_c   20.52519178
_cell_angle_alpha   90.00000000
_cell_angle_beta   90.00000000
_cell_angle_gamma   90.00000000
_symmetry_Int_Tables_number   1
_chemical_formula_structural   MnH30C6Se5N6
_chemical_formula_sum   'Mn4 H120 C24 Se20 N24'
_cell_volume   2326.43584080
_cell_formula_units_Z   4
loop_
 _symmetry_equiv_pos_site_id
 _symmetry_equiv_pos_as_xyz
  1  'x, y, z'
loop_
 _atom_site_type_symbol
 _atom_site_label
 _atom_site_symmetry_multiplicity
 _atom_site_fract_x
 _atom_site_fract_y
 _atom_site_fract_z
 _atom_site_occupancy
  Mn  Mn0  1  0.75000000  0.75000000  0.08069872  1
  Mn  Mn1  1  0.75000000  0.25000000  0.41930128  1
  Mn  Mn2  1  0.25000000  0.25000000  0.91930128  1
  Mn  Mn3  1  0.25000000  0.75000000  0.58069872  1
  H  H0  1  0.93306700  0.67380791  0.93868179  1
  H  H1  1  0.93306700  0.32619209  0.56131821  1
  H  H2  1  0.56693300  0.82619209  0.93868179  1
  H  H3  1  0.56693300  0.17380791  0.56131821  1
  H  H4  1  0.06693300  0.32619209  0.06131821  1
  H  H5  1  0.06693300  0.67380791  0.43868179  1
  H  H6  1  0.43306700  0.17380791  0.06131821  1
  H  H7  1  0.43306700  0.82619209  0.43868179  1
  H  H8  1  0.53589801  0.66747429  0.16788539  1
  H  H9  1  0.53589801  0.33252571  0.33211461  1
  H  H10  1  0.96410199  0.83252571  0.16788539  1
  H  H11  1  0.96410199  0.16747429  0.33211461  1
  H  H12  1  0.46410199  0.33252571  0.83211461  1
  H  H13  1  0.46410199  0.66747429  0.66788539  1
  H  H14  1  0.03589801  0.16747429  0.83211461  1
  H  H15  1  0.03589801  0.83252571  0.66788539  1
  H  H16  1  0.93305944  0.56954711  0.08798889  1
  H  H17  1  0.93305944  0.43045289  0.41201111  1
  H  H18  1  0.56694056  0.93045289  0.08798889  1
  H  H19  1  0.56694056  0.06954711  0.41201111  1
  H  H20  1  0.06694056  0.43045289  0.91201111  1
  H  H21  1  0.06694056  0.56954711  0.58798889  1
  H  H22  1  0.43305944  0.06954711  0.91201111  1
  H  H23  1  0.43305944  0.93045289  0.58798889  1
  H  H24  1  0.86053961  0.85289746  0.97007661  1
  H  H25  1  0.86053961  0.14710254  0.52992339  1
  H  H26  1  0.63946039  0.64710254  0.97007661  1
  H  H27  1  0.63946039  0.35289746  0.52992339  1
  H  H28  1  0.13946039  0.14710254  0.02992339  1
  H  H29  1  0.13946039  0.85289746  0.47007661  1
  H  H30  1  0.36053961  0.35289746  0.02992339  1
  H  H31  1  0.36053961  0.64710254  0.47007661  1
  H  H32  1  0.81358008  0.54934404  0.02883686  1
  H  H33  1  0.81358008  0.45065596  0.47116314  1
  H  H34  1  0.68641992  0.95065596  0.02883686  1
  H  H35  1  0.68641992  0.04934404  0.47116314  1
  H  H36  1  0.18641992  0.45065596  0.97116314  1
  H  H37  1  0.18641992  0.54934404  0.52883686  1
  H  H38  1  0.31358008  0.04934404  0.97116314  1
  H  H39  1  0.31358008  0.95065596  0.52883686  1
  H  H40  1  0.61725922  0.49249021  0.10143997  1
  H  H41  1  0.61725922  0.50750979  0.39856003  1
  H  H42  1  0.88274078  0.00750979  0.10143997  1
  H  H43  1  0.88274078  0.99249021  0.39856003  1
  H  H44  1  0.38274078  0.50750979  0.89856003  1
  H  H45  1  0.38274078  0.49249021  0.60143997  1
  H  H46  1  0.11725922  0.99249021  0.89856003  1
  H  H47  1  0.11725922  0.00750979  0.60143997  1
  H  H48  1  0.48260171  0.77823596  0.25170508  1
  H  H49  1  0.48260171  0.22176404  0.24829492  1
  H  H50  1  0.01739829  0.72176404  0.25170508  1
  H  H51  1  0.01739829  0.27823596  0.24829492  1
  H  H52  1  0.51739829  0.22176404  0.74829492  1
  H  H53  1  0.51739829  0.77823596  0.75170508  1
  H  H54  1  0.98260171  0.27823596  0.74829492  1
  H  H55  1  0.98260171  0.72176404  0.75170508  1
  H  H56  1  0.51801508  0.88788206  0.20142955  1
  H  H57  1  0.51801508  0.11211794  0.29857045  1
  H  H58  1  0.98198492  0.61211794  0.20142955  1
  H  H59  1  0.98198492  0.38788206  0.29857045  1
  H  H60  1  0.48198492  0.11211794  0.79857045  1
  H  H61  1  0.48198492  0.88788206  0.70142955  1
  H  H62  1  0.01801508  0.38788206  0.79857045  1
  H  H63  1  0.01801508  0.61211794  0.70142955  1
  H  H64  1  0.07218753  0.77164873  0.92400119  1
  H  H65  1  0.07218753  0.22835127  0.57599881  1
  H  H66  1  0.42781247  0.72835127  0.92400119  1
  H  H67  1  0.42781247  0.27164873  0.57599881  1
  H  H68  1  0.92781247  0.22835127  0.07599881  1
  H  H69  1  0.92781247  0.77164873  0.42400119  1
  H  H70  1  0.57218753  0.27164873  0.07599881  1
  H  H71  1  0.57218753  0.72835127  0.42400119  1
  H  H72  1  0.67270183  0.81575200  0.23381786  1
  H  H73  1  0.67270183  0.18424800  0.26618214  1
  H  H74  1  0.82729817  0.68424800  0.23381786  1
  H  H75  1  0.82729817  0.31575200  0.26618214  1
  H  H76  1  0.32729817  0.18424800  0.76618214  1
  H  H77  1  0.32729817  0.81575200  0.73381786  1
  H  H78  1  0.17270183  0.31575200  0.76618214  1
  H  H79  1  0.17270183  0.68424800  0.73381786  1
  H  H80  1  0.73990084  0.51785739  0.16814066  1
  H  H81  1  0.73990084  0.48214261  0.33185934  1
  H  H82  1  0.76009916  0.98214261  0.16814066  1
  H  H83  1  0.76009916  0.01785739  0.33185934  1
  H  H84  1  0.26009916  0.48214261  0.83185934  1
  H  H85  1  0.26009916  0.51785739  0.66814066  1
  H  H86  1  0.23990084  0.01785739  0.83185934  1
  H  H87  1  0.23990084  0.98214261  0.66814066  1
  H  H88  1  0.46078283  0.76368544  0.12826284  1
  H  H89  1  0.46078283  0.23631456  0.37173716  1
  H  H90  1  0.03921717  0.73631456  0.12826284  1
  H  H91  1  0.03921717  0.26368544  0.37173716  1
  H  H92  1  0.53921717  0.23631456  0.87173716  1
  H  H93  1  0.53921717  0.76368544  0.62826284  1
  H  H94  1  0.96078283  0.26368544  0.87173716  1
  H  H95  1  0.96078283  0.73631456  0.62826284  1
  H  H96  1  0.99222761  0.85417383  0.02545916  1
  H  H97  1  0.99222761  0.14582617  0.47454084  1
  H  H98  1  0.50777239  0.64582617  0.02545916  1
  H  H99  1  0.50777239  0.35417383  0.47454084  1
  H  H100  1  0.00777239  0.14582617  0.97454084  1
  H  H101  1  0.00777239  0.85417383  0.52545916  1
  H  H102  1  0.49222761  0.35417383  0.97454084  1
  H  H103  1  0.49222761  0.64582617  0.52545916  1
  H  H104  1  0.08659307  0.68772498  0.99369507  1
  H  H105  1  0.08659307  0.31227502  0.50630493  1
  H  H106  1  0.41340693  0.81227502  0.99369507  1
  H  H107  1  0.41340693  0.18772498  0.50630493  1
  H  H108  1  0.91340693  0.31227502  0.00630493  1
  H  H109  1  0.91340693  0.68772498  0.49369507  1
  H  H110  1  0.58659307  0.18772498  0.00630493  1
  H  H111  1  0.58659307  0.81227502  0.49369507  1
  H  H112  1  0.78515033  0.41722883  0.11173061  1
  H  H113  1  0.78515033  0.58277117  0.38826939  1
  H  H114  1  0.71484967  0.08277117  0.11173061  1
  H  H115  1  0.71484967  0.91722883  0.38826939  1
  H  H116  1  0.21484967  0.58277117  0.88826939  1
  H  H117  1  0.21484967  0.41722883  0.61173061  1
  H  H118  1  0.28515033  0.91722883  0.88826939  1
  H  H119  1  0.28515033  0.08277117  0.61173061  1
  C  C0  1  0.73668979  0.49595375  0.11641779  1
  C  C1  1  0.73668979  0.50404625  0.38358221  1
  C  C2  1  0.76331021  0.00404625  0.11641779  1
  C  C3  1  0.76331021  0.99595375  0.38358221  1
  C  C4  1  0.26331021  0.50404625  0.88358221  1
  C  C5  1  0.26331021  0.49595375  0.61641779  1
  C  C6  1  0.23668979  0.99595375  0.88358221  1
  C  C7  1  0.23668979  0.00404625  0.61641779  1
  C  C8  1  0.55773987  0.80926674  0.21367660  1
  C  C9  1  0.55773987  0.19073326  0.28632340  1
  C  C10  1  0.94226013  0.69073326  0.21367660  1
  C  C11  1  0.94226013  0.30926674  0.28632340  1
  C  C12  1  0.44226013  0.19073326  0.78632340  1
  C  C13  1  0.44226013  0.80926674  0.71367660  1
  C  C14  1  0.05773987  0.30926674  0.78632340  1
  C  C15  1  0.05773987  0.69073326  0.71367660  1
  C  C16  1  0.00778063  0.73097364  0.96218127  1
  C  C17  1  0.00778063  0.26902636  0.53781873  1
  C  C18  1  0.49221937  0.76902636  0.96218127  1
  C  C19  1  0.49221937  0.23097364  0.53781873  1
  C  C20  1  0.99221937  0.26902636  0.03781873  1
  C  C21  1  0.99221937  0.73097364  0.46218127  1
  C  C22  1  0.50778063  0.23097364  0.03781873  1
  C  C23  1  0.50778063  0.76902636  0.46218127  1
  Se  Se0  1  0.28278904  0.57152900  0.33601650  1
  Se  Se1  1  0.28278904  0.42847100  0.16398350  1
  Se  Se2  1  0.21721096  0.92847100  0.33601650  1
  Se  Se3  1  0.21721096  0.07152900  0.16398350  1
  Se  Se4  1  0.71721096  0.42847100  0.66398350  1
  Se  Se5  1  0.71721096  0.57152900  0.83601650  1
  Se  Se6  1  0.78278904  0.07152900  0.66398350  1
  Se  Se7  1  0.78278904  0.92847100  0.83601650  1
  Se  Se8  1  0.24029096  0.44258823  0.41557158  1
  Se  Se9  1  0.24029096  0.55741177  0.08442842  1
  Se  Se10  1  0.25970904  0.05741177  0.41557158  1
  Se  Se11  1  0.25970904  0.94258823  0.08442842  1
  Se  Se12  1  0.75970904  0.55741177  0.58442842  1
  Se  Se13  1  0.75970904  0.44258823  0.91557158  1
  Se  Se14  1  0.74029096  0.94258823  0.58442842  1
  Se  Se15  1  0.74029096  0.05741177  0.91557158  1
  Se  Se16  1  0.43289982  0.50000000  0.25000000  1
  Se  Se17  1  0.06710018  0.00000000  0.25000000  1
  Se  Se18  1  0.56710018  0.50000000  0.75000000  1
  Se  Se19  1  0.93289982  0.00000000  0.75000000  1
  N  N0  1  0.81890418  0.57334548  0.07673437  1
  N  N1  1  0.81890418  0.42665452  0.42326563  1
  N  N2  1  0.68109582  0.92665452  0.07673437  1
  N  N3  1  0.68109582  0.07334548  0.42326563  1
  N  N4  1  0.18109582  0.42665452  0.92326563  1
  N  N5  1  0.18109582  0.57334548  0.57673437  1
  N  N6  1  0.31890418  0.07334548  0.92326563  1
  N  N7  1  0.31890418  0.92665452  0.57673437  1
  N  N8  1  0.91848602  0.80494815  0.00166454  1
  N  N9  1  0.91848602  0.19505185  0.49833546  1
  N  N10  1  0.58151398  0.69505185  0.00166454  1
  N  N11  1  0.58151398  0.30494815  0.49833546  1
  N  N12  1  0.08151398  0.19505185  0.99833546  1
  N  N13  1  0.08151398  0.80494815  0.50166454  1
  N  N14  1  0.41848602  0.30494815  0.99833546  1
  N  N15  1  0.41848602  0.69505185  0.50166454  1
  N  N16  1  0.55592834  0.74328894  0.15444124  1
  N  N17  1  0.55592834  0.25671106  0.34555876  1
  N  N18  1  0.94407166  0.75671106  0.15444124  1
  N  N19  1  0.94407166  0.24328894  0.34555876  1
  N  N20  1  0.44407166  0.25671106  0.84555876  1
  N  N21  1  0.44407166  0.74328894  0.65444124  1
  N  N22  1  0.05592834  0.24328894  0.84555876  1
  N  N23  1  0.05592834  0.75671106  0.65444124  1
loop_
_geom_bond_atom_site_label_1
_geom_bond_atom_site_label_2
_geom_bond_distance
_geom_bond_site_symmetry_2
Mn0 N18 2.288347 1_555
Mn0 N16 2.288347 1_555
Mn0 N10 2.311553 1_555
Mn0 N8 2.311553 1_555
Mn0 N2 2.348674 1_555
Mn0 N0 2.348674 1_555
Mn1 N19 2.288347 1_555
Mn1 N17 2.288347 1_555
Mn1 N9 2.311553 1_555
Mn1 N11 2.311553 1_555
Mn1 N1 2.348674 1_555
Mn1 N3 2.348674 1_555
Mn2 N22 2.288347 1_555
Mn2 N20 2.288347 1_555
Mn2 N14 2.311553 1_555
Mn2 N12 2.311553 1_555
Mn2 N6 2.348674 1_555
Mn2 N4 2.348674 1_555
Mn3 N21 2.288347 1_555
Mn3 N23 2.288347 1_555
Mn3 N15 2.311553 1_555
Mn3 N13 2.311553 1_555
Mn3 N7 2.348674 1_555
Mn3 N5 2.348674 1_555
H8 N16 1.026658 1_555
H9 N17 1.026658 1_555
H10 N18 1.026658 1_555
H11 N19 1.026658 1_555
H12 N20 1.026658 1_555
H13 N21 1.026658 1_555
H14 N22 1.026658 1_555
H15 N23 1.026658 1_555
H16 N0 1.035534 1_555
H17 N1 1.035534 1_555
H18 N2 1.035534 1_555
H19 N3 1.035534 1_555
H20 N4 1.035534 1_555
H21 N5 1.035534 1_555
H22 N6 1.035534 1_555
H23 N7 1.035534 1_555
H24 N8 1.030015 1_556
H25 N9 1.030015 1_555
H26 N10 1.030015 1_556
H27 N11 1.030015 1_555
H28 N12 1.030015 1_554
H29 N13 1.030015 1_555
H30 N14 1.030015 1_554
H31 N15 1.030015 1_555
H32 N0 1.031299 1_555
H33 N1 1.031299 1_555
H34 N2 1.031299 1_555
H35 N3 1.031299 1_555
H36 N4 1.031299 1_555
H37 N5 1.031299 1_555
H38 N6 1.031299 1_555
H39 N7 1.031299 1_555
H88 N16 1.031227 1_555
H89 N17 1.031227 1_555
H90 N18 1.031227 1_455
H91 N19 1.031227 1_455
H92 N20 1.031227 1_555
H93 N21 1.031227 1_555
H94 N22 1.031227 1_655
H95 N23 1.031227 1_655
H96 N8 1.030433 1_555
H97 N9 1.030433 1_555
H98 N10 1.030433 1_555
H99 N11 1.030433 1_555
H100 N12 1.030433 1_555
H101 N13 1.030433 1_555
H102 N14 1.030433 1_555
H103 N15 1.030433 1_555
C0 H80 1.098570 1_555
C0 H40 1.099639 1_555
C0 H112 1.101412 1_555
C0 N0 1.475497 1_555
C1 H81 1.098570 1_555
C1 H41 1.099639 1_555
C1 H113 1.101412 1_555
C1 N1 1.475497 1_555
C2 H82 1.098570 1_545
C2 H42 1.099639 1_555
C2 H114 1.101412 1_555
C2 N2 1.475497 1_545
C3 H83 1.098570 1_565
C3 H43 1.099639 1_555
C3 H115 1.101412 1_555
C3 N3 1.475497 1_565
C4 H84 1.098570 1_555
C4 H44 1.099639 1_555
C4 H116 1.101412 1_555
C4 N4 1.475497 1_555
C5 H85 1.098570 1_555
C5 H45 1.099639 1_555
C5 H117 1.101412 1_555
C5 N5 1.475497 1_555
C6 H86 1.098570 1_565
C6 H46 1.099639 1_555
C6 H118 1.101412 1_555
C6 N6 1.475497 1_565
C7 H87 1.098570 1_545
C7 H47 1.099639 1_555
C7 H119 1.101412 1_555
C7 N7 1.475497 1_545
C8 H56 1.097317 1_555
C8 H48 1.099205 1_555
C8 H72 1.099473 1_555
C8 N16 1.481671 1_555
C9 H57 1.097317 1_555
C9 H49 1.099205 1_555
C9 H73 1.099473 1_555
C9 N17 1.481671 1_555
C10 H58 1.097317 1_555
C10 H50 1.099205 1_655
C10 H74 1.099473 1_555
C10 N18 1.481671 1_555
C11 H59 1.097317 1_555
C11 H51 1.099205 1_655
C11 H75 1.099473 1_555
C11 N19 1.481671 1_555
C12 H60 1.097317 1_555
C12 H52 1.099205 1_555
C12 H76 1.099473 1_555
C12 N20 1.481671 1_555
C13 H61 1.097317 1_555
C13 H53 1.099205 1_555
C13 H77 1.099473 1_555
C13 N21 1.481671 1_555
C14 H62 1.097317 1_555
C14 H54 1.099205 1_455
C14 H78 1.099473 1_555
C14 N22 1.481671 1_555
C15 H63 1.097317 1_555
C15 H55 1.099205 1_455
C15 H79 1.099473 1_555
C15 N23 1.481671 1_555
C16 H0 1.098310 1_455
C16 H64 1.100084 1_555
C16 H104 1.100443 1_555
C16 N8 1.476470 1_456
C17 H1 1.098310 1_455
C17 H65 1.100084 1_555
C17 H105 1.100443 1_555
C17 N9 1.476470 1_455
C18 H2 1.098310 1_555
C18 H66 1.100084 1_555
C18 H106 1.100443 1_555
C18 N10 1.476470 1_556
C19 H3 1.098310 1_555
C19 H67 1.100084 1_555
C19 H107 1.100443 1_555
C19 N11 1.476470 1_555
C20 H4 1.098310 1_655
C20 H68 1.100084 1_555
C20 H108 1.100443 1_555
C20 N12 1.476470 1_654
C21 H5 1.098310 1_655
C21 H69 1.100084 1_555
C21 H109 1.100443 1_555
C21 N13 1.476470 1_655
C22 H6 1.098310 1_555
C22 H70 1.100084 1_555
C22 H110 1.100443 1_555
C22 N14 1.476470 1_554
C23 H7 1.098310 1_555
C23 H71 1.100084 1_555
C23 H111 1.100443 1_555
C23 N15 1.476470 1_555
Se0 Se8 2.354824 1_555
Se0 Se16 2.391117 1_555
Se1 Se9 2.354824 1_555
Se1 Se16 2.391117 1_555
Se10 Se2 2.354824 1_545
Se11 Se3 2.354824 1_565
Se12 Se4 2.354824 1_555
Se13 Se5 2.354824 1_555
Se14 Se6 2.354824 1_565
Se15 Se7 2.354824 1_545
Se17 Se3 2.391117 1_555
Se17 Se2 2.391117 1_545
Se18 Se5 2.391117 1_555
Se18 Se4 2.391117 1_555
Se19 Se7 2.391117 1_545
Se19 Se6 2.391117 1_555
