# generated using pymatgen
data_Li9Mn2Co5O16
_symmetry_space_group_name_H-M   'P 1'
_cell_length_a   5.04988100
_cell_length_b   5.93445776
_cell_length_c   10.08068286
_cell_angle_alpha   90.11733682
_cell_angle_beta   101.19165727
_cell_angle_gamma   105.32881472
_symmetry_Int_Tables_number   1
_chemical_formula_structural   Li9Mn2Co5O16
_chemical_formula_sum   'Li9 Mn2 Co5 O16'
_cell_volume   285.35815527
_cell_formula_units_Z   1
loop_
 _symmetry_equiv_pos_site_id
 _symmetry_equiv_pos_as_xyz
  1  'x, y, z'
loop_
 _atom_site_type_symbol
 _atom_site_label
 _atom_site_symmetry_multiplicity
 _atom_site_fract_x
 _atom_site_fract_y
 _atom_site_fract_z
 _atom_site_occupancy
  Li  Li0  1  0.50062400  0.12570500  0.88352200  1
  Li  Li1  1  0.00000000  0.00000000  0.00000000  1
  Li  Li2  1  0.00609000  0.25618300  0.76068700  1
  Li  Li3  1  0.49937600  0.87429500  0.11647800  1
  Li  Li4  1  0.99391000  0.74381700  0.23931300  1
  Li  Li5  1  0.49708700  0.62086400  0.37481200  1
  Li  Li6  1  0.00000000  0.50000000  0.50000000  1
  Li  Li7  1  0.50291300  0.37913600  0.62518800  1
  Li  Li8  1  0.00000000  0.50000000  0.00000000  1
  Mn  Mn0  1  0.00041400  0.74712500  0.75381200  1
  Mn  Mn1  1  0.99958600  0.25287500  0.24618800  1
  Co  Co0  1  0.49533500  0.61725000  0.87920800  1
  Co  Co1  1  0.50466500  0.38275000  0.12079200  1
  Co  Co2  1  0.49724300  0.12405900  0.37399200  1
  Co  Co3  1  0.00000000  0.00000000  0.50000000  1
  Co  Co4  1  0.50275700  0.87594100  0.62600800  1
  O  O0  1  0.25218800  0.80357600  0.92334300  1
  O  O1  1  0.72703900  0.68381100  0.05140700  1
  O  O2  1  0.76164200  0.93361600  0.79881400  1
  O  O3  1  0.24514100  0.52417400  0.19246100  1
  O  O4  1  0.75367500  0.42246800  0.30118100  1
  O  O5  1  0.23528600  0.29798000  0.43200600  1
  O  O6  1  0.73522100  0.17634800  0.55230300  1
  O  O7  1  0.23215500  0.03894500  0.68366000  1
  O  O8  1  0.75485900  0.47582600  0.80753900  1
  O  O9  1  0.27296100  0.31618900  0.94859300  1
  O  O10  1  0.24632500  0.57753200  0.69881900  1
  O  O11  1  0.74781200  0.19642400  0.07665700  1
  O  O12  1  0.23835800  0.06638400  0.20118600  1
  O  O13  1  0.76784500  0.96105500  0.31634000  1
  O  O14  1  0.26477900  0.82365200  0.44769700  1
  O  O15  1  0.76471400  0.70202000  0.56799400  1
loop_
_geom_bond_atom_site_label_1
_geom_bond_atom_site_label_2
_geom_bond_distance
_geom_bond_site_symmetry_2
Li0 O9 2.001676 1_555
Li0 O11 2.073916 1_556
Li0 O0 2.078497 1_545
Li0 O7 2.174557 1_555
Li0 O2 2.234597 1_545
Li0 O8 2.351597 1_555
Li1 O12 2.124993 1_555
Li1 O2 2.124993 1_444
Li1 O1 2.145522 1_445
Li1 O9 2.145522 1_554
Li1 O0 2.177383 1_544
Li1 O11 2.177383 1_455
Li2 O2 2.067307 1_445
Li2 O9 2.069697 1_555
Li2 O10 2.138426 1_555
Li2 O8 2.153150 1_455
Li2 O7 2.164792 1_555
Li2 O6 2.246357 1_455
Li3 O1 2.001676 1_555
Li3 O0 2.073916 1_554
Li3 O11 2.078497 1_565
Li3 O13 2.174557 1_555
Li3 O12 2.234597 1_565
Li3 O3 2.351597 1_555
Li4 O12 2.067307 1_665
Li4 O1 2.069697 1_555
Li4 O4 2.138426 1_555
Li4 O3 2.153150 1_655
Li4 O13 2.164792 1_555
Li4 O14 2.246357 1_655
Li5 O3 2.007206 1_555
Li5 O14 2.107538 1_555
Li5 O15 2.116889 1_555
Li5 O5 2.170922 1_555
Li5 O4 2.189163 1_555
Li5 O13 2.269573 1_555
Li6 O5 2.093984 1_555
Li6 O15 2.093984 1_455
Li6 O10 2.121746 1_555
Li6 O4 2.121746 1_455
Li6 O14 2.162151 1_555
Li6 O6 2.162151 1_455
Li7 O8 2.007206 1_555
Li7 O6 2.107538 1_555
Li7 O5 2.116889 1_555
Li7 O15 2.170922 1_555
Li7 O10 2.189163 1_555
Li7 O7 2.269573 1_555
Li8 O3 2.071192 1_555
Li8 O8 2.071192 1_454
Li8 O1 2.104384 1_455
Li8 O9 2.104384 1_554
Li8 O0 2.153902 1_554
Li8 O11 2.153902 1_455
Mn0 O0 1.891663 1_555
Mn0 O8 1.905742 1_455
Mn0 O10 1.946309 1_555
Mn0 O2 1.949447 1_455
Mn0 O15 1.990265 1_455
Mn0 O7 2.030635 1_565
Mn1 O11 1.891663 1_555
Mn1 O3 1.905742 1_655
Mn1 O4 1.946309 1_555
Mn1 O12 1.949447 1_655
Mn1 O5 1.990265 1_655
Mn1 O13 2.030635 1_545
Co0 O1 1.871572 1_556
Co0 O0 1.963708 1_555
Co0 O8 1.972446 1_555
Co0 O10 1.974191 1_555
Co0 O9 2.047334 1_555
Co0 O2 2.254898 1_555
Co1 O9 1.871572 1_554
Co1 O11 1.963708 1_555
Co1 O3 1.972446 1_555
Co1 O4 1.974191 1_555
Co1 O1 2.047334 1_555
Co1 O12 2.254898 1_555
Co2 O6 1.932233 1_555
Co2 O12 1.933336 1_555
Co2 O13 2.036107 1_545
Co2 O5 2.043761 1_555
Co2 O14 2.084667 1_545
Co2 O4 2.124505 1_555
Co3 O13 1.966727 1_445
Co3 O7 1.966727 1_555
Co3 O6 2.042622 1_455
Co3 O14 2.042622 1_545
Co3 O15 2.053978 1_445
Co3 O5 2.053978 1_555
Co4 O14 1.932233 1_555
Co4 O2 1.933336 1_555
Co4 O7 2.036107 1_565
Co4 O15 2.043761 1_555
Co4 O6 2.084667 1_565
Co4 O10 2.124505 1_555
