# generated using pymatgen
data_CsSmGeSe4
_symmetry_space_group_name_H-M   'P 1'
_cell_length_a   6.86801200
_cell_length_b   7.19750800
_cell_length_c   18.94725300
_cell_angle_alpha   90.00000000
_cell_angle_beta   90.00000000
_cell_angle_gamma   90.00000000
_symmetry_Int_Tables_number   1
_chemical_formula_structural   CsSmGeSe4
_chemical_formula_sum   'Cs4 Sm4 Ge4 Se16'
_cell_volume   936.61143513
_cell_formula_units_Z   4
loop_
 _symmetry_equiv_pos_site_id
 _symmetry_equiv_pos_as_xyz
  1  'x, y, z'
loop_
 _atom_site_type_symbol
 _atom_site_label
 _atom_site_symmetry_multiplicity
 _atom_site_fract_x
 _atom_site_fract_y
 _atom_site_fract_z
 _atom_site_occupancy
  Cs  Cs0  1  0.99484900  0.50648800  0.46844200  1
  Cs  Cs1  1  0.50515100  0.49351200  0.96844200  1
  Cs  Cs2  1  0.49484900  0.99351200  0.53155800  1
  Cs  Cs3  1  0.00515100  0.00648800  0.03155800  1
  Sm  Sm0  1  0.79288100  0.01901900  0.77265800  1
  Sm  Sm1  1  0.70711900  0.98098100  0.27265800  1
  Sm  Sm2  1  0.29288100  0.48098100  0.22734200  1
  Sm  Sm3  1  0.20711900  0.51901900  0.72734200  1
  Ge  Ge0  1  0.71041700  0.48332600  0.66692200  1
  Ge  Ge1  1  0.78958300  0.51667400  0.16692200  1
  Ge  Ge2  1  0.21041700  0.01667400  0.33307800  1
  Ge  Ge3  1  0.28958300  0.98332600  0.83307800  1
  Se  Se0  1  0.56491200  0.98712400  0.90850700  1
  Se  Se1  1  0.93508800  0.01287600  0.40850700  1
  Se  Se2  1  0.06491200  0.51287600  0.09149300  1
  Se  Se3  1  0.43508800  0.48712400  0.59149300  1
  Se  Se4  1  0.94443800  0.24418600  0.64656500  1
  Se  Se5  1  0.55556200  0.75581400  0.14656500  1
  Se  Se6  1  0.44443800  0.25581400  0.35343500  1
  Se  Se7  1  0.05556200  0.74418600  0.85343500  1
  Se  Se8  1  0.90402400  0.75643000  0.65453000  1
  Se  Se9  1  0.59597600  0.24357000  0.15453000  1
  Se  Se10  1  0.40402400  0.74357000  0.34547000  1
  Se  Se11  1  0.09597600  0.25643000  0.84547000  1
  Se  Se12  1  0.59791100  0.41384800  0.78285600  1
  Se  Se13  1  0.90208900  0.58615200  0.28285600  1
  Se  Se14  1  0.09791100  0.08615200  0.21714400  1
  Se  Se15  1  0.40208900  0.91384800  0.71714400  1
loop_
_geom_bond_atom_site_label_1
_geom_bond_atom_site_label_2
_geom_bond_distance
_geom_bond_site_symmetry_2
Cs0 Se13 3.619298 1_555
Cs0 Se1 3.752369 1_555
Cs0 Se3 3.820625 1_655
Cs0 Se1 3.839547 1_565
Cs0 Se4 3.882569 1_555
Cs0 Se8 4.007122 1_555
Cs0 Se10 4.029633 1_655
Cs0 Se6 4.187836 1_655
Cs1 Se12 3.619298 1_555
Cs1 Se0 3.752369 1_555
Cs1 Se2 3.820625 1_556
Cs1 Se0 3.839547 1_545
Cs1 Se5 3.882569 1_556
Cs1 Se9 4.007122 1_556
Cs1 Se11 4.029633 1_555
Cs1 Se7 4.187836 1_555
Cs2 Se15 3.619298 1_555
Cs2 Se3 3.752369 1_565
Cs2 Se1 3.820625 1_565
Cs2 Se3 3.839547 1_555
Cs2 Se6 3.882569 1_565
Cs2 Se10 4.007122 1_555
Cs2 Se8 4.029633 1_555
Cs2 Se4 4.187836 1_565
Cs3 Se14 3.619298 1_555
Cs3 Se2 3.752369 1_545
Cs3 Se0 3.820625 1_444
Cs3 Se2 3.839547 1_555
Cs3 Se7 3.882569 1_544
Cs3 Se11 4.007122 1_554
Cs3 Se9 4.029633 1_455
Cs3 Se5 4.187836 1_445
Ge0 Se3 2.370448 1_555
Ge0 Se12 2.381661 1_555
Ge0 Se8 2.384758 1_555
Ge0 Se4 2.386341 1_555
Ge1 Se2 2.370448 1_655
Ge1 Se13 2.381661 1_555
Ge1 Se9 2.384758 1_555
Ge1 Se5 2.386341 1_555
Ge2 Se1 2.370448 1_455
Ge2 Se14 2.381661 1_555
Ge2 Se10 2.384758 1_545
Ge2 Se6 2.386341 1_555
Ge3 Se0 2.370448 1_555
Ge3 Se15 2.381661 1_555
Ge3 Se11 2.384758 1_565
Ge3 Se7 2.386341 1_555
Se0 Sm0 3.021489 1_565
Se1 Sm1 3.021489 1_545
Se2 Sm2 3.021489 1_555
Se3 Sm3 3.021489 1_555
Se4 Sm0 3.068846 1_555
Se4 Sm3 3.083850 1_655
Se5 Sm1 3.068846 1_555
Se5 Sm2 3.083850 1_555
Se6 Sm2 3.068846 1_555
Se6 Sm1 3.083850 1_545
Se7 Sm3 3.068846 1_555
Se7 Sm0 3.083850 1_465
Se8 Sm3 3.025964 1_655
Se8 Sm0 3.027254 1_565
Se9 Sm2 3.025964 1_555
Se9 Sm1 3.027254 1_545
Se10 Sm1 3.025964 1_555
Se10 Sm2 3.027254 1_555
Se11 Sm0 3.025964 1_455
Se11 Sm3 3.027254 1_555
Se12 Sm3 2.980441 1_555
Se12 Sm0 3.147403 1_555
Se13 Sm2 2.980441 1_655
Se13 Sm1 3.147403 1_555
Se14 Sm1 2.980441 1_445
Se14 Sm2 3.147403 1_555
Se15 Sm0 2.980441 1_565
Se15 Sm3 3.147403 1_555
