# generated using pymatgen
data_Nd2CdNi2
_symmetry_space_group_name_H-M   'P 1'
_cell_length_a   3.80247761
_cell_length_b   7.48703326
_cell_length_c   7.48703326
_cell_angle_alpha   90.00000000
_cell_angle_beta   90.00000000
_cell_angle_gamma   90.00000000
_symmetry_Int_Tables_number   1
_chemical_formula_structural   Nd2CdNi2
_chemical_formula_sum   'Nd4 Cd2 Ni4'
_cell_volume   213.15041882
_cell_formula_units_Z   2
loop_
 _symmetry_equiv_pos_site_id
 _symmetry_equiv_pos_as_xyz
  1  'x, y, z'
loop_
 _atom_site_type_symbol
 _atom_site_label
 _atom_site_symmetry_multiplicity
 _atom_site_fract_x
 _atom_site_fract_y
 _atom_site_fract_z
 _atom_site_occupancy
  Nd  Nd0  1  0.50000000  0.82175110  0.32175110  1
  Nd  Nd1  1  0.50000000  0.67824890  0.82175110  1
  Nd  Nd2  1  0.50000000  0.32175110  0.17824890  1
  Nd  Nd3  1  0.50000000  0.17824890  0.67824890  1
  Cd  Cd0  1  -0.00000000  -0.00000000  0.00000000  1
  Cd  Cd1  1  0.00000000  0.50000000  0.50000000  1
  Ni  Ni0  1  -0.00000000  0.11458789  0.38541211  1
  Ni  Ni1  1  0.00000000  0.38541211  0.88541211  1
  Ni  Ni2  1  -0.00000000  0.61458789  0.11458789  1
  Ni  Ni3  1  0.00000000  0.88541211  0.61458789  1
loop_
_geom_bond_atom_site_label_1
_geom_bond_atom_site_label_2
_geom_bond_distance
_geom_bond_site_symmetry_2
Nd0 Ni2 2.902782 1_555
Nd0 Ni2 2.902782 1_655
Nd0 Ni3 2.940893 1_555
Nd0 Ni0 2.940893 1_665
Nd0 Ni3 2.940893 1_655
Nd0 Ni0 2.940893 1_565
Nd1 Ni3 2.902782 1_655
Nd1 Ni3 2.902782 1_555
Nd1 Ni1 2.940893 1_555
Nd1 Ni1 2.940893 1_655
Nd1 Ni2 2.940893 1_656
Nd1 Ni2 2.940893 1_556
Nd2 Ni0 2.902782 1_655
Nd2 Ni0 2.902782 1_555
Nd2 Ni2 2.940893 1_655
Nd2 Ni1 2.940893 1_654
Nd2 Ni1 2.940893 1_554
Nd2 Ni2 2.940893 1_555
Nd3 Ni1 2.902782 1_655
Nd3 Ni1 2.902782 1_555
Nd3 Ni0 2.940893 1_655
Nd3 Ni0 2.940893 1_555
Nd3 Ni3 2.940893 1_545
Nd3 Ni3 2.940893 1_645
Cd0 Ni0 3.010429 1_555
Cd0 Ni2 3.010429 1_545
Cd0 Ni1 3.010429 1_554
Cd0 Ni3 3.010429 1_544
Cd0 Nd2 3.346467 1_455
Cd0 Nd2 3.346467 1_555
Cd0 Nd0 3.346467 1_445
Cd0 Nd0 3.346467 1_545
Cd0 Nd1 3.346467 1_444
Cd0 Nd1 3.346467 1_544
Cd0 Nd3 3.346467 1_554
Cd0 Nd3 3.346467 1_454
Cd1 Ni0 3.010429 1_555
Cd1 Ni1 3.010429 1_555
Cd1 Ni2 3.010429 1_555
Cd1 Ni3 3.010429 1_555
Cd1 Nd1 3.346467 1_455
Cd1 Nd3 3.346467 1_455
Cd1 Nd3 3.346467 1_555
Cd1 Nd1 3.346467 1_555
Cd1 Nd2 3.346467 1_455
Cd1 Nd0 3.346467 1_455
Cd1 Nd2 3.346467 1_555
Cd1 Nd0 3.346467 1_555
Ni0 Ni3 2.426574 1_545
Ni1 Ni2 2.426574 1_556
