# generated using pymatgen
data_GaH3Br3N
_symmetry_space_group_name_H-M   'P 1'
_cell_length_a   12.31359000
_cell_length_b   12.92117500
_cell_length_c   20.85294400
_cell_angle_alpha   90.00000000
_cell_angle_beta   90.00000000
_cell_angle_gamma   90.00000000
_symmetry_Int_Tables_number   1
_chemical_formula_structural   GaH3Br3N
_chemical_formula_sum   'Ga16 H48 Br48 N16'
_cell_volume   3317.82957716
_cell_formula_units_Z   16
loop_
 _symmetry_equiv_pos_site_id
 _symmetry_equiv_pos_as_xyz
  1  'x, y, z'
loop_
 _atom_site_type_symbol
 _atom_site_label
 _atom_site_symmetry_multiplicity
 _atom_site_fract_x
 _atom_site_fract_y
 _atom_site_fract_z
 _atom_site_occupancy
  Ga  Ga0  1  0.70287100  0.46216700  0.21782700  1
  Ga  Ga1  1  0.20287100  0.03783300  0.78217300  1
  Ga  Ga2  1  0.29712900  0.96216700  0.28217300  1
  Ga  Ga3  1  0.79712900  0.53783300  0.71782700  1
  Ga  Ga4  1  0.29712900  0.53783300  0.78217300  1
  Ga  Ga5  1  0.79712900  0.96216700  0.21782700  1
  Ga  Ga6  1  0.70287100  0.03783300  0.71782700  1
  Ga  Ga7  1  0.20287100  0.46216700  0.28217300  1
  Ga  Ga8  1  0.27548400  0.74584800  0.02764000  1
  Ga  Ga9  1  0.77548400  0.75415200  0.97236000  1
  Ga  Ga10  1  0.72451600  0.24584800  0.47236000  1
  Ga  Ga11  1  0.22451600  0.25415200  0.52764000  1
  Ga  Ga12  1  0.72451600  0.25415200  0.97236000  1
  Ga  Ga13  1  0.22451600  0.24584800  0.02764000  1
  Ga  Ga14  1  0.27548400  0.75415200  0.52764000  1
  Ga  Ga15  1  0.77548400  0.74584800  0.47236000  1
  H  H0  1  0.84203400  0.49052100  0.31093900  1
  H  H1  1  0.34203400  0.00947900  0.68906100  1
  H  H2  1  0.15796600  0.99052100  0.18906100  1
  H  H3  1  0.65796600  0.50947900  0.81093900  1
  H  H4  1  0.15796600  0.50947900  0.68906100  1
  H  H5  1  0.65796600  0.99052100  0.31093900  1
  H  H6  1  0.84203400  0.00947900  0.81093900  1
  H  H7  1  0.34203400  0.49052100  0.18906100  1
  H  H8  1  0.74028200  0.57296400  0.32040800  1
  H  H9  1  0.24028200  0.92703600  0.67959200  1
  H  H10  1  0.25971800  0.07296400  0.17959200  1
  H  H11  1  0.75971800  0.42703600  0.82040800  1
  H  H12  1  0.25971800  0.42703600  0.67959200  1
  H  H13  1  0.75971800  0.07296400  0.32040800  1
  H  H14  1  0.74028200  0.92703600  0.82040800  1
  H  H15  1  0.24028200  0.57296400  0.17959200  1
  H  H16  1  0.72563300  0.45096800  0.34232300  1
  H  H17  1  0.22563300  0.04903200  0.65767700  1
  H  H18  1  0.27436700  0.95096800  0.15767700  1
  H  H19  1  0.77436700  0.54903200  0.84232300  1
  H  H20  1  0.27436700  0.54903200  0.65767700  1
  H  H21  1  0.77436700  0.95096800  0.34232300  1
  H  H22  1  0.72563300  0.04903200  0.84232300  1
  H  H23  1  0.22563300  0.45096800  0.15767700  1
  H  H24  1  0.15114800  0.71324000  0.92822400  1
  H  H25  1  0.65114800  0.78676000  0.07177600  1
  H  H26  1  0.84885200  0.21324000  0.57177600  1
  H  H27  1  0.34885200  0.28676000  0.42822400  1
  H  H28  1  0.84885200  0.28676000  0.07177600  1
  H  H29  1  0.34885200  0.21324000  0.92822400  1
  H  H30  1  0.15114800  0.78676000  0.42822400  1
  H  H31  1  0.65114800  0.71324000  0.57177600  1
  H  H32  1  0.13876700  0.83595400  0.94950500  1
  H  H33  1  0.63876700  0.66404600  0.05049500  1
  H  H34  1  0.86123300  0.33595400  0.55049500  1
  H  H35  1  0.36123300  0.16404600  0.44950500  1
  H  H36  1  0.86123300  0.16404600  0.05049500  1
  H  H37  1  0.36123300  0.33595400  0.94950500  1
  H  H38  1  0.13876700  0.66404600  0.44950500  1
  H  H39  1  0.63876700  0.83595400  0.55049500  1
  H  H40  1  0.24527400  0.79810700  0.90784400  1
  H  H41  1  0.74527400  0.70189300  0.09215600  1
  H  H42  1  0.75472600  0.29810700  0.59215600  1
  H  H43  1  0.25472600  0.20189300  0.40784400  1
  H  H44  1  0.75472600  0.20189300  0.09215600  1
  H  H45  1  0.25472600  0.29810700  0.90784400  1
  H  H46  1  0.24527400  0.70189300  0.40784400  1
  H  H47  1  0.74527400  0.79810700  0.59215600  1
  Br  Br0  1  0.56426400  0.58198100  0.19736900  1
  Br  Br1  1  0.06426400  0.91801900  0.80263100  1
  Br  Br2  1  0.43573600  0.08198100  0.30263100  1
  Br  Br3  1  0.93573600  0.41801900  0.69736900  1
  Br  Br4  1  0.43573600  0.41801900  0.80263100  1
  Br  Br5  1  0.93573600  0.08198100  0.19736900  1
  Br  Br6  1  0.56426400  0.91801900  0.69736900  1
  Br  Br7  1  0.06426400  0.58198100  0.30263100  1
  Br  Br8  1  0.64363500  0.29110700  0.22067400  1
  Br  Br9  1  0.14363500  0.20889300  0.77932600  1
  Br  Br10  1  0.35636500  0.79110700  0.27932600  1
  Br  Br11  1  0.85636500  0.70889300  0.72067400  1
  Br  Br12  1  0.35636500  0.70889300  0.77932600  1
  Br  Br13  1  0.85636500  0.79110700  0.22067400  1
  Br  Br14  1  0.64363500  0.20889300  0.72067400  1
  Br  Br15  1  0.14363500  0.29110700  0.27932600  1
  Br  Br16  1  0.84956800  0.48649800  0.14844800  1
  Br  Br17  1  0.34956800  0.01350200  0.85155200  1
  Br  Br18  1  0.15043200  0.98649800  0.35155200  1
  Br  Br19  1  0.65043200  0.51350200  0.64844800  1
  Br  Br20  1  0.15043200  0.51350200  0.85155200  1
  Br  Br21  1  0.65043200  0.98649800  0.14844800  1
  Br  Br22  1  0.84956800  0.01350200  0.64844800  1
  Br  Br23  1  0.34956800  0.48649800  0.35155200  1
  Br  Br24  1  0.14008900  0.73851000  0.10591700  1
  Br  Br25  1  0.64008900  0.76149000  0.89408300  1
  Br  Br26  1  0.85991100  0.23851000  0.39408300  1
  Br  Br27  1  0.35991100  0.26149000  0.60591700  1
  Br  Br28  1  0.85991100  0.26149000  0.89408300  1
  Br  Br29  1  0.35991100  0.23851000  0.10591700  1
  Br  Br30  1  0.14008900  0.76149000  0.60591700  1
  Br  Br31  1  0.64008900  0.73851000  0.39408300  1
  Br  Br32  1  0.39586100  0.88296400  0.04479700  1
  Br  Br33  1  0.89586100  0.61703600  0.95520300  1
  Br  Br34  1  0.60413900  0.38296400  0.45520300  1
  Br  Br35  1  0.10413900  0.11703600  0.54479700  1
  Br  Br36  1  0.60413900  0.11703600  0.95520300  1
  Br  Br37  1  0.10413900  0.38296400  0.04479700  1
  Br  Br38  1  0.39586100  0.61703600  0.54479700  1
  Br  Br39  1  0.89586100  0.88296400  0.45520300  1
  Br  Br40  1  0.36944300  0.59082300  0.01338300  1
  Br  Br41  1  0.86944300  0.90917700  0.98661700  1
  Br  Br42  1  0.63055700  0.09082300  0.48661700  1
  Br  Br43  1  0.13055700  0.40917700  0.51338300  1
  Br  Br44  1  0.63055700  0.40917700  0.98661700  1
  Br  Br45  1  0.13055700  0.09082300  0.01338300  1
  Br  Br46  1  0.36944300  0.90917700  0.51338300  1
  Br  Br47  1  0.86944300  0.59082300  0.48661700  1
  N  N0  1  0.75899500  0.49806700  0.30784700  1
  N  N1  1  0.25899500  0.00193300  0.69215300  1
  N  N2  1  0.24100500  0.99806700  0.19215300  1
  N  N3  1  0.74100500  0.50193300  0.80784700  1
  N  N4  1  0.24100500  0.50193300  0.69215300  1
  N  N5  1  0.74100500  0.99806700  0.30784700  1
  N  N6  1  0.75899500  0.00193300  0.80784700  1
  N  N7  1  0.25899500  0.49806700  0.19215300  1
  N  N8  1  0.19372600  0.77671200  0.94412700  1
  N  N9  1  0.69372600  0.72328800  0.05587300  1
  N  N10  1  0.80627400  0.27671200  0.55587300  1
  N  N11  1  0.30627400  0.22328800  0.44412700  1
  N  N12  1  0.80627400  0.22328800  0.05587300  1
  N  N13  1  0.30627400  0.27671200  0.94412700  1
  N  N14  1  0.19372600  0.72328800  0.44412700  1
  N  N15  1  0.69372600  0.77671200  0.55587300  1
loop_
_geom_bond_atom_site_label_1
_geom_bond_atom_site_label_2
_geom_bond_distance
_geom_bond_site_symmetry_2
Ga0 N0 2.053434 1_555
Ga1 N1 2.053434 1_555
Ga2 N2 2.053434 1_555
Ga3 N3 2.053434 1_555
Ga4 N4 2.053434 1_555
Ga5 N5 2.053434 1_555
Ga6 N6 2.053434 1_555
Ga7 N7 2.053434 1_555
Ga8 N8 2.050695 1_554
Ga9 N9 2.050695 1_556
Ga10 N10 2.050695 1_555
Ga11 N11 2.050695 1_555
Ga12 N12 2.050695 1_556
Ga13 N13 2.050695 1_554
Ga14 N14 2.050695 1_555
Ga15 N15 2.050695 1_555
H0 N0 1.029168 1_555
H1 N1 1.029168 1_555
H2 N2 1.029168 1_555
H3 N3 1.029168 1_555
H4 N4 1.029168 1_555
H5 N5 1.029168 1_555
H6 N6 1.029168 1_555
H7 N7 1.029168 1_555
H8 N0 1.028717 1_555
H9 N1 1.028717 1_565
H10 N2 1.028717 1_545
H11 N3 1.028717 1_555
H12 N4 1.028717 1_555
H13 N5 1.028717 1_545
H14 N6 1.028717 1_565
H15 N7 1.028717 1_555
H16 N0 1.027608 1_555
H17 N1 1.027608 1_555
H18 N2 1.027608 1_555
H19 N3 1.027608 1_555
H20 N4 1.027608 1_555
H21 N5 1.027608 1_555
H22 N6 1.027608 1_555
H23 N7 1.027608 1_555
H24 N8 1.028334 1_555
H25 N9 1.028334 1_555
H26 N10 1.028334 1_555
H27 N11 1.028334 1_555
H28 N12 1.028334 1_555
H29 N13 1.028334 1_555
H30 N14 1.028334 1_555
H31 N15 1.028334 1_555
H32 N8 1.027867 1_555
H33 N9 1.027867 1_555
H34 N10 1.027867 1_555
H35 N11 1.027867 1_555
H36 N12 1.027867 1_555
H37 N13 1.027867 1_555
H38 N14 1.027867 1_555
H39 N15 1.027867 1_555
H40 N8 1.025561 1_555
H41 N9 1.025561 1_555
H42 N10 1.025561 1_555
H43 N11 1.025561 1_555
H44 N12 1.025561 1_555
H45 N13 1.025561 1_555
H46 N14 1.025561 1_555
H47 N15 1.025561 1_555
Br0 Ga0 2.343442 1_555
Br1 Ga1 2.343442 1_565
Br2 Ga2 2.343442 1_545
Br3 Ga3 2.343442 1_555
Br4 Ga4 2.343442 1_555
Br5 Ga5 2.343442 1_545
Br6 Ga6 2.343442 1_565
Br7 Ga7 2.343442 1_555
Br8 Ga0 2.328298 1_555
Br9 Ga1 2.328298 1_555
Br10 Ga2 2.328298 1_555
Br11 Ga3 2.328298 1_555
Br12 Ga4 2.328298 1_555
Br13 Ga5 2.328298 1_555
Br14 Ga6 2.328298 1_555
Br15 Ga7 2.328298 1_555
Br16 Ga0 2.335573 1_555
Br17 Ga1 2.335573 1_555
Br18 Ga2 2.335573 1_555
Br19 Ga3 2.335573 1_555
Br20 Ga4 2.335573 1_555
Br21 Ga5 2.335573 1_555
Br22 Ga6 2.335573 1_555
Br23 Ga7 2.335573 1_555
Br24 Ga8 2.335158 1_555
Br25 Ga9 2.335158 1_555
Br26 Ga10 2.335158 1_555
Br27 Ga11 2.335158 1_555
Br28 Ga12 2.335158 1_555
Br29 Ga13 2.335158 1_555
Br30 Ga14 2.335158 1_555
Br31 Ga15 2.335158 1_555
Br32 Ga8 2.337532 1_555
Br33 Ga9 2.337532 1_555
Br34 Ga10 2.337532 1_555
Br35 Ga11 2.337532 1_555
Br36 Ga12 2.337532 1_555
Br37 Ga13 2.337532 1_555
Br38 Ga14 2.337532 1_555
Br39 Ga15 2.337532 1_555
Br40 Ga8 2.332253 1_555
Br41 Ga9 2.332253 1_555
Br42 Ga10 2.332253 1_555
Br43 Ga11 2.332253 1_555
Br44 Ga12 2.332253 1_555
Br45 Ga13 2.332253 1_555
Br46 Ga14 2.332253 1_555
Br47 Ga15 2.332253 1_555
