# generated using pymatgen
data_MnInGaS4
_symmetry_space_group_name_H-M   'P 1'
_cell_length_a   12.85185272
_cell_length_b   12.85185272
_cell_length_c   12.85185249
_cell_angle_alpha   17.21402611
_cell_angle_beta   17.21402611
_cell_angle_gamma   17.21402983
_symmetry_Int_Tables_number   1
_chemical_formula_structural   MnInGaS4
_chemical_formula_sum   'Mn1 In1 Ga1 S4'
_cell_volume   162.21645019
_cell_formula_units_Z   1
loop_
 _symmetry_equiv_pos_site_id
 _symmetry_equiv_pos_as_xyz
  1  'x, y, z'
loop_
 _atom_site_type_symbol
 _atom_site_label
 _atom_site_symmetry_multiplicity
 _atom_site_fract_x
 _atom_site_fract_y
 _atom_site_fract_z
 _atom_site_occupancy
  Mn  Mn0  1  0.23423300  0.23423300  0.23423300  1
  In  In0  1  0.76472600  0.76472600  0.76472600  1
  Ga  Ga0  1  0.99674000  0.99674000  0.99674000  1
  S  S0  1  0.12840000  0.12840000  0.12840000  1
  S  S1  1  0.88088800  0.88088800  0.88088800  1
  S  S2  1  0.69982800  0.69982800  0.69982800  1
  S  S3  1  0.29918600  0.29918600  0.29918600  1
loop_
_geom_bond_atom_site_label_1
_geom_bond_atom_site_label_2
_geom_bond_distance
_geom_bond_site_symmetry_2
Mn0 S1 2.347329 1_445
Mn0 S1 2.347330 1_544
Mn0 S1 2.347330 1_454
Mn0 S3 2.466623 1_555
In0 S2 2.464535 1_555
In0 S0 2.501998 1_665
In0 S0 2.501999 1_566
In0 S0 2.501999 1_656
Ga0 S3 2.511626 1_665
Ga0 S3 2.511627 1_566
Ga0 S3 2.511627 1_656
Ga0 S2 2.616380 1_556
Ga0 S2 2.616380 1_565
Ga0 S2 2.616380 1_655
