# generated using pymatgen
data_HoScS3
_symmetry_space_group_name_H-M   'P 1'
_cell_length_a   6.36994900
_cell_length_b   6.99189800
_cell_length_c   9.53923000
_cell_angle_alpha   90.00000000
_cell_angle_beta   90.00000000
_cell_angle_gamma   90.00000000
_symmetry_Int_Tables_number   1
_chemical_formula_structural   HoScS3
_chemical_formula_sum   'Ho4 Sc4 S12'
_cell_volume   424.85854696
_cell_formula_units_Z   4
loop_
 _symmetry_equiv_pos_site_id
 _symmetry_equiv_pos_as_xyz
  1  'x, y, z'
loop_
 _atom_site_type_symbol
 _atom_site_label
 _atom_site_symmetry_multiplicity
 _atom_site_fract_x
 _atom_site_fract_y
 _atom_site_fract_z
 _atom_site_occupancy
  Ho  Ho0  1  0.45895800  0.60090400  0.50791400  1
  Ho  Ho1  1  0.54104200  0.39909600  0.00791400  1
  Ho  Ho2  1  0.95895800  0.89909600  0.00791400  1
  Ho  Ho3  1  0.04104200  0.10090400  0.50791400  1
  Sc  Sc0  1  0.99605900  0.50412400  0.26182600  1
  Sc  Sc1  1  0.00394100  0.49587600  0.76182600  1
  Sc  Sc2  1  0.49605900  0.99587600  0.76182600  1
  Sc  Sc3  1  0.50394100  0.00412400  0.26182600  1
  S  S0  1  0.17433300  0.81339400  0.68533300  1
  S  S1  1  0.82566700  0.18660600  0.18533300  1
  S  S2  1  0.67433300  0.68660600  0.18533300  1
  S  S3  1  0.32566700  0.31339400  0.68533300  1
  S  S4  1  0.17730000  0.81840500  0.32950600  1
  S  S5  1  0.82270000  0.18159500  0.82950600  1
  S  S6  1  0.67730000  0.68159500  0.82950600  1
  S  S7  1  0.32270000  0.31840500  0.32950600  1
  S  S8  1  0.14570700  0.54893900  0.01042100  1
  S  S9  1  0.85429300  0.45106100  0.51042100  1
  S  S10  1  0.64570700  0.95106100  0.51042100  1
  S  S11  1  0.35429300  0.04893900  0.01042100  1
loop_
_geom_bond_atom_site_label_1
_geom_bond_atom_site_label_2
_geom_bond_distance
_geom_bond_site_symmetry_2
Ho0 S10 2.722070 1_555
Ho0 S9 2.727613 1_555
Ho0 S7 2.747937 1_555
Ho0 S3 2.761579 1_555
Ho0 S0 2.891163 1_555
Ho0 S4 2.903103 1_555
Ho0 S6 3.415221 1_555
Ho0 S2 3.422025 1_555
Ho1 S11 2.722070 1_555
Ho1 S8 2.727613 1_555
Ho1 S6 2.747937 1_554
Ho1 S2 2.761579 1_555
Ho1 S1 2.891163 1_555
Ho1 S5 2.903103 1_554
Ho1 S7 3.415221 1_555
Ho1 S3 3.422025 1_554
Ho2 S8 2.722070 1_655
Ho2 S11 2.727613 1_665
Ho2 S5 2.747937 1_564
Ho2 S1 2.761579 1_565
Ho2 S2 2.891163 1_555
Ho2 S6 2.903103 1_554
Ho2 S4 3.415221 1_655
Ho2 S0 3.422025 1_654
Ho3 S9 2.722070 1_455
Ho3 S10 2.727613 1_445
Ho3 S4 2.747937 1_545
Ho3 S0 2.761579 1_545
Ho3 S3 2.891163 1_555
Ho3 S7 2.903103 1_555
Ho3 S5 3.415221 1_455
Ho3 S1 3.422025 1_455
S0 Sc2 2.521963 1_555
S0 Sc1 2.576654 1_555
S1 Sc3 2.521963 1_555
S1 Sc0 2.576654 1_555
S2 Sc0 2.521963 1_555
S2 Sc3 2.576654 1_565
S3 Sc1 2.521963 1_555
S3 Sc2 2.576654 1_545
S4 Sc3 2.536188 1_565
S4 Sc0 2.564827 1_455
S5 Sc2 2.536188 1_545
S5 Sc1 2.564827 1_655
S6 Sc1 2.536188 1_655
S6 Sc2 2.564827 1_555
S7 Sc0 2.536188 1_455
S7 Sc3 2.564827 1_555
S8 Sc1 2.564507 1_554
S8 Sc0 2.599669 1_455
S9 Sc0 2.564507 1_555
S9 Sc1 2.599669 1_655
S10 Sc3 2.564507 1_565
S10 Sc2 2.599669 1_555
S11 Sc2 2.564507 1_544
S11 Sc3 2.599669 1_555
