# generated using pymatgen
data_Ta3(CuS3)2
_symmetry_space_group_name_H-M   'P 1'
_cell_length_a   8.87978644
_cell_length_b   8.87978644
_cell_length_c   13.00738951
_cell_angle_alpha   90.00000000
_cell_angle_beta   90.00000000
_cell_angle_gamma   158.17720698
_symmetry_Int_Tables_number   1
_chemical_formula_structural   Ta3(CuS3)2
_chemical_formula_sum   'Ta6 Cu4 S12'
_cell_volume   381.26871974
_cell_formula_units_Z   2
loop_
 _symmetry_equiv_pos_site_id
 _symmetry_equiv_pos_as_xyz
  1  'x, y, z'
loop_
 _atom_site_type_symbol
 _atom_site_label
 _atom_site_symmetry_multiplicity
 _atom_site_fract_x
 _atom_site_fract_y
 _atom_site_fract_z
 _atom_site_occupancy
  Ta  Ta0  1  0.27833065  0.72166935  0.25014629  1
  Ta  Ta1  1  0.60953845  0.39046155  0.25022879  1
  Ta  Ta2  1  0.94361528  0.05638472  0.24966131  1
  Ta  Ta3  1  0.72166935  0.27833065  0.75014629  1
  Ta  Ta4  1  0.05638472  0.94361528  0.74966131  1
  Ta  Ta5  1  0.39046155  0.60953845  0.75022879  1
  Cu  Cu0  1  0.27962013  0.72037987  0.03654381  1
  Cu  Cu1  1  0.05410359  0.94589641  0.96327177  1
  Cu  Cu2  1  0.72037987  0.27962013  0.53654381  1
  Cu  Cu3  1  0.94589641  0.05410359  0.46327177  1
  S  S0  1  0.28063415  0.71936585  0.62968672  1
  S  S1  1  0.60864618  0.39135382  0.62980451  1
  S  S2  1  0.94525123  0.05474877  0.63167608  1
  S  S3  1  0.72173889  0.27826111  0.36763920  1
  S  S4  1  0.05720943  0.94279057  0.36965549  1
  S  S5  1  0.38571324  0.61428676  0.37168604  1
  S  S6  1  0.71936585  0.28063415  0.12968672  1
  S  S7  1  0.05474877  0.94525123  0.13167608  1
  S  S8  1  0.39135382  0.60864618  0.12980451  1
  S  S9  1  0.27826111  0.72173889  0.86763920  1
  S  S10  1  0.61428676  0.38571324  0.87168604  1
  S  S11  1  0.94279057  0.05720943  0.86965549  1
loop_
_geom_bond_atom_site_label_1
_geom_bond_atom_site_label_2
_geom_bond_distance
_geom_bond_site_symmetry_2
Cu0 S9 2.197136 1_554
Cu0 S8 2.295231 1_555
Cu0 S6 2.323188 1_565
Cu0 S6 2.323188 1_455
Cu1 S7 2.190529 1_556
Cu1 S11 2.291461 1_465
Cu1 S10 2.312127 1_455
Cu1 S10 2.312127 1_565
Cu2 S3 2.197136 1_555
Cu2 S1 2.295231 1_555
Cu2 S0 2.323188 1_655
Cu2 S0 2.323188 1_545
Cu3 S2 2.190529 1_555
Cu3 S4 2.291461 1_645
Cu3 S5 2.312127 1_545
Cu3 S5 2.312127 1_655
S0 Ta5 2.475180 1_555
S0 Ta3 2.517474 1_565
S0 Ta3 2.517474 1_455
S1 Ta4 2.467069 1_655
S1 Ta4 2.467069 1_545
S1 Ta3 2.516928 1_555
S2 Ta4 2.472062 1_645
S2 Ta5 2.473082 1_545
S2 Ta5 2.473082 1_655
S3 Ta0 2.476862 1_545
S3 Ta0 2.476862 1_655
S3 Ta1 2.482068 1_555
S4 Ta1 2.463974 1_455
S4 Ta1 2.463974 1_565
S4 Ta2 2.521932 1_465
S5 Ta0 2.450692 1_555
S5 Ta2 2.522720 1_455
S5 Ta2 2.522720 1_565
S6 Ta1 2.475180 1_555
S6 Ta0 2.517474 1_545
S6 Ta0 2.517474 1_655
S7 Ta2 2.472062 1_465
S7 Ta1 2.473082 1_455
S7 Ta1 2.473082 1_565
S8 Ta2 2.467069 1_455
S8 Ta2 2.467069 1_565
S8 Ta0 2.516928 1_555
S9 Ta3 2.476862 1_565
S9 Ta3 2.476862 1_455
S9 Ta5 2.482068 1_555
S10 Ta3 2.450692 1_555
S10 Ta4 2.522720 1_545
S10 Ta4 2.522720 1_655
S11 Ta5 2.463974 1_545
S11 Ta5 2.463974 1_655
S11 Ta4 2.521932 1_645
