# generated using pymatgen
data_Ba3(IrN2)2
_symmetry_space_group_name_H-M   'P 1'
_cell_length_a   6.68538400
_cell_length_b   10.11953900
_cell_length_c   10.33637800
_cell_angle_alpha   90.00000000
_cell_angle_beta   90.00000000
_cell_angle_gamma   90.00000000
_symmetry_Int_Tables_number   1
_chemical_formula_structural   Ba3(IrN2)2
_chemical_formula_sum   'Ba12 Ir8 N16'
_cell_volume   699.28702340
_cell_formula_units_Z   4
loop_
 _symmetry_equiv_pos_site_id
 _symmetry_equiv_pos_as_xyz
  1  'x, y, z'
loop_
 _atom_site_type_symbol
 _atom_site_label
 _atom_site_symmetry_multiplicity
 _atom_site_fract_x
 _atom_site_fract_y
 _atom_site_fract_z
 _atom_site_occupancy
  Ba  Ba0  1  0.60871800  0.16108500  0.41920800  1
  Ba  Ba1  1  0.89128200  0.83891500  0.41920800  1
  Ba  Ba2  1  0.60871800  0.33891500  0.08079200  1
  Ba  Ba3  1  0.89128200  0.66108500  0.08079200  1
  Ba  Ba4  1  0.39128200  0.83891500  0.58079200  1
  Ba  Ba5  1  0.10871800  0.16108500  0.58079200  1
  Ba  Ba6  1  0.39128200  0.66108500  0.91920800  1
  Ba  Ba7  1  0.10871800  0.33891500  0.91920800  1
  Ba  Ba8  1  0.75000000  0.50000000  0.40005400  1
  Ba  Ba9  1  0.75000000  0.00000000  0.09994600  1
  Ba  Ba10  1  0.25000000  0.50000000  0.59994600  1
  Ba  Ba11  1  0.25000000  0.00000000  0.90005400  1
  Ir  Ir0  1  0.75000000  0.50000000  0.72381200  1
  Ir  Ir1  1  0.75000000  0.00000000  0.77618800  1
  Ir  Ir2  1  0.25000000  0.50000000  0.27618800  1
  Ir  Ir3  1  0.25000000  0.00000000  0.22381200  1
  Ir  Ir4  1  0.58813200  0.25000000  0.75000000  1
  Ir  Ir5  1  0.91186800  0.75000000  0.75000000  1
  Ir  Ir6  1  0.41186800  0.75000000  0.25000000  1
  Ir  Ir7  1  0.08813200  0.25000000  0.25000000  1
  N  N0  1  0.89867800  0.37245900  0.62635800  1
  N  N1  1  0.60132200  0.62754100  0.62635800  1
  N  N2  1  0.89867800  0.12754100  0.87364200  1
  N  N3  1  0.60132200  0.87245900  0.87364200  1
  N  N4  1  0.10132200  0.62754100  0.37364200  1
  N  N5  1  0.39867800  0.37245900  0.37364200  1
  N  N6  1  0.10132200  0.87245900  0.12635800  1
  N  N7  1  0.39867800  0.12754100  0.12635800  1
  N  N8  1  0.51434600  0.41852300  0.83080300  1
  N  N9  1  0.98565400  0.58147700  0.83080300  1
  N  N10  1  0.51434600  0.08147700  0.66919700  1
  N  N11  1  0.98565400  0.91852300  0.66919700  1
  N  N12  1  0.48565400  0.58147700  0.16919700  1
  N  N13  1  0.01434600  0.41852300  0.16919700  1
  N  N14  1  0.48565400  0.91852300  0.33080300  1
  N  N15  1  0.01434600  0.08147700  0.33080300  1
loop_
_geom_bond_atom_site_label_1
_geom_bond_atom_site_label_2
_geom_bond_distance
_geom_bond_site_symmetry_2
Ba0 N5 2.601721 1_555
Ba0 N14 2.745365 1_545
Ba0 N10 2.779207 1_555
Ba0 N15 2.972833 1_655
Ba1 N4 2.601721 1_655
Ba1 N15 2.745365 1_665
Ba1 N11 2.779207 1_555
Ba1 N14 2.972833 1_555
Ba2 N7 2.601721 1_555
Ba2 N12 2.745365 1_555
Ba2 N8 2.779207 1_554
Ba2 N13 2.972833 1_655
Ba3 N6 2.601721 1_655
Ba3 N13 2.745365 1_655
Ba3 N9 2.779207 1_554
Ba3 N12 2.972833 1_555
Ba4 N1 2.601721 1_555
Ba4 N10 2.745365 1_565
Ba4 N14 2.779207 1_555
Ba4 N11 2.972833 1_455
Ba5 N0 2.601721 1_455
Ba5 N11 2.745365 1_445
Ba5 N15 2.779207 1_555
Ba5 N10 2.972833 1_555
Ba6 N3 2.601721 1_555
Ba6 N8 2.745365 1_555
Ba6 N12 2.779207 1_556
Ba6 N9 2.972833 1_455
Ba7 N2 2.601721 1_455
Ba7 N9 2.745365 1_455
Ba7 N13 2.779207 1_556
Ba7 N8 2.972833 1_555
Ba8 N4 2.693849 1_655
Ba8 N5 2.693849 1_555
Ba8 N0 2.850518 1_555
Ba8 N1 2.850518 1_555
Ba8 N12 3.081733 1_555
Ba8 N13 3.081733 1_655
Ba9 N6 2.693849 1_645
Ba9 N7 2.693849 1_555
Ba9 N2 2.850518 1_554
Ba9 N3 2.850518 1_544
Ba9 N15 3.081733 1_655
Ba9 N14 3.081733 1_545
Ba10 N0 2.693849 1_455
Ba10 N1 2.693849 1_555
Ba10 N4 2.850518 1_555
Ba10 N5 2.850518 1_555
Ba10 N9 3.081733 1_455
Ba10 N8 3.081733 1_555
Ba11 N2 2.693849 1_455
Ba11 N3 2.693849 1_545
Ba11 N7 2.850518 1_556
Ba11 N6 2.850518 1_546
Ba11 N10 3.081733 1_555
Ba11 N11 3.081733 1_445
Ir0 N0 1.915324 1_555
Ir0 N1 1.915324 1_555
Ir0 N9 2.093999 1_555
Ir0 N8 2.093999 1_555
Ir1 N2 1.915324 1_555
Ir1 N3 1.915324 1_545
Ir1 N10 2.093999 1_555
Ir1 N11 2.093999 1_545
Ir2 N5 1.915324 1_555
Ir2 N4 1.915324 1_555
Ir2 N13 2.093999 1_555
Ir2 N12 2.093999 1_555
Ir3 N7 1.915324 1_555
Ir3 N6 1.915324 1_545
Ir3 N14 2.093999 1_545
Ir3 N15 2.093999 1_555
Ir4 N8 1.961941 1_555
Ir4 N10 1.961941 1_555
Ir5 N9 1.961941 1_555
Ir5 N11 1.961941 1_555
Ir6 N12 1.961941 1_555
Ir6 N14 1.961941 1_555
Ir7 N13 1.961941 1_555
Ir7 N15 1.961941 1_555
