# generated using pymatgen
data_Ca5(SnAs3)2
_symmetry_space_group_name_H-M   'P 1'
_cell_length_a   4.15318924
_cell_length_b   12.04938772
_cell_length_c   13.47439060
_cell_angle_alpha   90.00000000
_cell_angle_beta   90.00000000
_cell_angle_gamma   90.00000000
_symmetry_Int_Tables_number   1
_chemical_formula_structural   Ca5(SnAs3)2
_chemical_formula_sum   'Ca10 Sn4 As12'
_cell_volume   674.30414914
_cell_formula_units_Z   2
loop_
 _symmetry_equiv_pos_site_id
 _symmetry_equiv_pos_as_xyz
  1  'x, y, z'
loop_
 _atom_site_type_symbol
 _atom_site_label
 _atom_site_symmetry_multiplicity
 _atom_site_fract_x
 _atom_site_fract_y
 _atom_site_fract_z
 _atom_site_occupancy
  Ca  Ca0  1  0.00000000  0.62312204  0.74340499  1
  Ca  Ca1  1  0.00000000  0.37687796  0.25659501  1
  Ca  Ca2  1  0.00000000  0.12312204  0.75659501  1
  Ca  Ca3  1  0.00000000  0.87687796  0.24340499  1
  Ca  Ca4  1  0.00000000  0.00000000  -0.00000000  1
  Ca  Ca5  1  0.00000000  0.50000000  0.50000000  1
  Ca  Ca6  1  0.00000000  0.86808145  0.56598422  1
  Ca  Ca7  1  0.00000000  0.13191855  0.43401578  1
  Ca  Ca8  1  0.00000000  0.36808145  0.93401578  1
  Ca  Ca9  1  0.00000000  0.63191855  0.06598422  1
  Sn  Sn0  1  0.50000000  0.29020069  0.60787716  1
  Sn  Sn1  1  0.50000000  0.20979931  0.10787716  1
  Sn  Sn2  1  0.50000000  0.79020069  0.89212284  1
  Sn  Sn3  1  0.50000000  0.70979931  0.39212284  1
  As  As0  1  0.00000000  0.37590759  0.70308626  1
  As  As1  1  0.00000000  0.12409241  0.20308626  1
  As  As2  1  0.00000000  0.87590759  0.79691374  1
  As  As3  1  0.00000000  0.62409241  0.29691374  1
  As  As4  1  0.50000000  0.83432075  0.08223850  1
  As  As5  1  0.50000000  0.16567925  0.91776150  1
  As  As6  1  0.50000000  0.33432075  0.41776150  1
  As  As7  1  0.50000000  0.66567925  0.58223850  1
  As  As8  1  0.50000000  0.57459644  0.89710927  1
  As  As9  1  0.50000000  0.42540356  0.10289073  1
  As  As10  1  0.50000000  0.07459644  0.60289073  1
  As  As11  1  0.50000000  0.92540356  0.39710927  1
loop_
_geom_bond_atom_site_label_1
_geom_bond_atom_site_label_2
_geom_bond_distance
_geom_bond_site_symmetry_2
As0 Sn0 2.650385 1_555
As0 Sn0 2.650385 1_455
As0 Ca0 3.027918 1_555
As0 Ca8 3.113063 1_555
As0 Ca5 3.118328 1_555
As0 Ca2 3.130082 1_555
As1 Sn1 2.650385 1_455
As1 Sn1 2.650385 1_555
As1 Ca3 3.027918 1_545
As1 Ca7 3.113063 1_555
As1 Ca4 3.118328 1_555
As1 Ca1 3.130082 1_555
As2 Sn2 2.650385 1_555
As2 Sn2 2.650385 1_455
As2 Ca2 3.027918 1_565
As2 Ca6 3.113063 1_555
As2 Ca4 3.118328 1_566
As2 Ca0 3.130082 1_555
As3 Sn3 2.650385 1_555
As3 Sn3 2.650385 1_455
As3 Ca1 3.027918 1_555
As3 Ca9 3.113063 1_555
As3 Ca5 3.118328 1_555
As3 Ca3 3.130082 1_555
As4 Sn2 2.616274 1_554
As4 Ca3 3.048136 1_655
As4 Ca3 3.048136 1_555
As4 Ca4 3.086342 1_665
As4 Ca4 3.086342 1_565
As4 Ca9 3.210618 1_555
As4 Ca9 3.210618 1_655
As5 Sn1 2.616274 1_556
As5 Ca2 3.048136 1_555
As5 Ca2 3.048136 1_655
As5 Ca4 3.086342 1_556
As5 Ca4 3.086342 1_656
As5 Ca8 3.210618 1_555
As5 Ca8 3.210618 1_655
As6 Sn0 2.616274 1_555
As6 Ca1 3.048136 1_655
As6 Ca1 3.048136 1_555
As6 Ca5 3.086342 1_555
As6 Ca5 3.086342 1_655
As6 Ca7 3.210618 1_655
As6 Ca7 3.210618 1_555
As7 Sn3 2.616274 1_555
As7 Ca0 3.048136 1_655
As7 Ca0 3.048136 1_555
As7 Ca5 3.086342 1_555
As7 Ca5 3.086342 1_655
As7 Ca6 3.210618 1_555
As7 Ca6 3.210618 1_655
As8 Sn2 2.598768 1_555
As8 Ca0 2.990562 1_655
As8 Ca0 2.990562 1_555
As8 Ca9 3.157079 1_656
As8 Ca9 3.157079 1_556
As8 Ca8 3.278960 1_555
As8 Ca8 3.278960 1_655
As9 Sn1 2.598768 1_555
As9 Ca1 2.990562 1_555
As9 Ca1 2.990562 1_655
As9 Ca8 3.157079 1_654
As9 Ca8 3.157079 1_554
As9 Ca9 3.278960 1_555
As9 Ca9 3.278960 1_655
As10 Sn0 2.598768 1_555
As10 Ca2 2.990562 1_655
As10 Ca2 2.990562 1_555
As10 Ca7 3.157079 1_655
As10 Ca7 3.157079 1_555
As10 Ca6 3.278960 1_645
As10 Ca6 3.278960 1_545
As11 Sn3 2.598768 1_555
As11 Ca3 2.990562 1_655
As11 Ca3 2.990562 1_555
As11 Ca6 3.157079 1_555
As11 Ca6 3.157079 1_655
As11 Ca7 3.278960 1_565
As11 Ca7 3.278960 1_665
