# generated using pymatgen
data_Nb4CrSi3
_symmetry_space_group_name_H-M   'P 1'
_cell_length_a   4.95006400
_cell_length_b   7.45541303
_cell_length_c   7.45541303
_cell_angle_alpha   83.67261943
_cell_angle_beta   70.61113294
_cell_angle_gamma   70.61113294
_symmetry_Int_Tables_number   1
_chemical_formula_structural   Nb4CrSi3
_chemical_formula_sum   'Nb8 Cr2 Si6'
_cell_volume   244.81729584
_cell_formula_units_Z   2
loop_
 _symmetry_equiv_pos_site_id
 _symmetry_equiv_pos_as_xyz
  1  'x, y, z'
loop_
 _atom_site_type_symbol
 _atom_site_label
 _atom_site_symmetry_multiplicity
 _atom_site_fract_x
 _atom_site_fract_y
 _atom_site_fract_z
 _atom_site_occupancy
  Nb  Nb0  1  0.22067400  0.69879500  0.85985700  1
  Nb  Nb1  1  0.77932600  0.30120500  0.14014300  1
  Nb  Nb2  1  0.27932600  0.14014300  0.30120500  1
  Nb  Nb3  1  0.72067400  0.85985700  0.69879500  1
  Nb  Nb4  1  0.08053100  0.14014300  0.69879500  1
  Nb  Nb5  1  0.91946900  0.85985700  0.30120500  1
  Nb  Nb6  1  0.58053100  0.69879500  0.14014300  1
  Nb  Nb7  1  0.41946900  0.30120500  0.85985700  1
  Cr  Cr0  1  0.75000000  0.50000000  0.50000000  1
  Cr  Cr1  1  0.25000000  0.50000000  0.50000000  1
  Si  Si0  1  0.65396100  0.19207900  0.50000000  1
  Si  Si1  1  0.34603900  0.80792100  0.50000000  1
  Si  Si2  1  0.84603900  0.50000000  0.80792100  1
  Si  Si3  1  0.15396100  0.50000000  0.19207900  1
  Si  Si4  1  0.25000000  0.00000000  0.00000000  1
  Si  Si5  1  0.75000000  0.00000000  0.00000000  1
loop_
_geom_bond_atom_site_label_1
_geom_bond_atom_site_label_2
_geom_bond_distance
_geom_bond_site_symmetry_2
Nb0 Si4 2.643821 1_566
Nb0 Si5 2.643821 1_466
Nb0 Si1 2.644532 1_555
Nb0 Si3 2.722722 1_556
Nb0 Si2 2.865956 1_555
Nb0 Si2 2.865960 1_455
Nb1 Si5 2.643821 1_555
Nb1 Si4 2.643821 1_655
Nb1 Si0 2.644532 1_555
Nb1 Si2 2.722722 1_554
Nb1 Si3 2.865956 1_555
Nb1 Si3 2.865960 1_655
Nb2 Si5 2.643821 1_555
Nb2 Si4 2.643821 1_555
Nb2 Si3 2.644532 1_555
Nb2 Si1 2.722722 1_545
Nb2 Si0 2.865956 1_455
Nb2 Si0 2.865960 1_555
Nb3 Si5 2.643821 1_566
Nb3 Si4 2.643821 1_566
Nb3 Si2 2.644532 1_555
Nb3 Si0 2.722722 1_565
Nb3 Si1 2.865956 1_655
Nb3 Si1 2.865960 1_555
Nb4 Si4 2.643821 1_556
Nb4 Si5 2.643821 1_456
Nb4 Si2 2.644532 1_455
Nb4 Si1 2.722722 1_545
Nb4 Si0 2.865956 1_455
Nb4 Si0 2.865960 1_555
Nb5 Si5 2.643821 1_565
Nb5 Si4 2.643821 1_665
Nb5 Si3 2.644532 1_655
Nb5 Si0 2.722722 1_565
Nb5 Si1 2.865956 1_655
Nb5 Si1 2.865960 1_555
Nb6 Si5 2.643821 1_565
Nb6 Si4 2.643821 1_565
Nb6 Si1 2.644532 1_555
Nb6 Si2 2.722722 1_554
Nb6 Si3 2.865956 1_555
Nb6 Si3 2.865960 1_655
Nb7 Si5 2.643821 1_556
Nb7 Si4 2.643821 1_556
Nb7 Si0 2.644532 1_555
Nb7 Si3 2.722722 1_556
Nb7 Si2 2.865956 1_555
Nb7 Si2 2.865960 1_455
Cr0 Cr1 2.475032 1_655
Cr0 Cr1 2.475032 1_555
Cr0 Si2 2.494145 1_555
Cr0 Si0 2.494145 1_555
Cr0 Si3 2.494148 1_655
Cr0 Si1 2.494148 1_555
Cr1 Si3 2.494145 1_555
Cr1 Si1 2.494145 1_555
Cr1 Si2 2.494148 1_455
Cr1 Si0 2.494148 1_555
Si4 Si5 2.475032 1_455
Si4 Si5 2.475032 1_555
