# generated using pymatgen
data_SmFeO3
_symmetry_space_group_name_H-M   'P 1'
_cell_length_a   7.90017000
_cell_length_b   6.19491700
_cell_length_c   6.61938500
_cell_angle_alpha   90.00000000
_cell_angle_beta   90.00000000
_cell_angle_gamma   90.00000000
_symmetry_Int_Tables_number   1
_chemical_formula_structural   SmFeO3
_chemical_formula_sum   'Sm4 Fe4 O12'
_cell_volume   323.95864237
_cell_formula_units_Z   4
loop_
 _symmetry_equiv_pos_site_id
 _symmetry_equiv_pos_as_xyz
  1  'x, y, z'
loop_
 _atom_site_type_symbol
 _atom_site_label
 _atom_site_symmetry_multiplicity
 _atom_site_fract_x
 _atom_site_fract_y
 _atom_site_fract_z
 _atom_site_occupancy
  Sm  Sm0  1  0.40458600  0.55328600  0.25000000  1
  Sm  Sm1  1  0.09541400  0.05328600  0.25000000  1
  Sm  Sm2  1  0.59541400  0.44671400  0.75000000  1
  Sm  Sm3  1  0.90458600  0.94671400  0.75000000  1
  Fe  Fe0  1  0.00000000  0.50000000  0.00000000  1
  Fe  Fe1  1  0.50000000  0.00000000  0.50000000  1
  Fe  Fe2  1  0.00000000  0.50000000  0.50000000  1
  Fe  Fe3  1  0.50000000  0.00000000  0.00000000  1
  O  O0  1  0.05797600  0.78748800  0.00919400  1
  O  O1  1  0.44202400  0.28748800  0.49080600  1
  O  O2  1  0.94202400  0.21251200  0.50919400  1
  O  O3  1  0.55797600  0.71251200  0.99080600  1
  O  O4  1  0.94202400  0.21251200  0.99080600  1
  O  O5  1  0.55797600  0.71251200  0.50919400  1
  O  O6  1  0.05797600  0.78748800  0.49080600  1
  O  O7  1  0.44202400  0.28748800  0.00919400  1
  O  O8  1  0.38229100  0.94541700  0.25000000  1
  O  O9  1  0.11770900  0.44541700  0.25000000  1
  O  O10  1  0.61770900  0.05458300  0.75000000  1
  O  O11  1  0.88229100  0.55458300  0.75000000  1
loop_
_geom_bond_atom_site_label_1
_geom_bond_atom_site_label_2
_geom_bond_distance
_geom_bond_site_symmetry_2
Fe0 O0 1.839924 1_555
Fe0 O4 1.839924 1_454
Fe0 O9 1.928109 1_555
Fe0 O11 1.928109 1_454
Fe1 O1 1.839924 1_555
Fe1 O5 1.839924 1_545
Fe1 O10 1.928109 1_555
Fe1 O8 1.928109 1_545
Fe2 O6 1.839924 1_555
Fe2 O2 1.839924 1_455
Fe2 O9 1.928109 1_555
Fe2 O11 1.928109 1_455
Fe3 O7 1.839924 1_555
Fe3 O3 1.839924 1_544
Fe3 O10 1.928109 1_554
Fe3 O8 1.928109 1_545
O0 Sm1 2.310748 1_565
O0 Sm3 2.320579 1_454
O1 Sm0 2.310748 1_555
O1 Sm2 2.320579 1_555
O2 Sm3 2.310748 1_545
O2 Sm1 2.320579 1_655
O3 Sm2 2.310748 1_555
O3 Sm0 2.320579 1_556
O4 Sm3 2.310748 1_545
O4 Sm1 2.320579 1_656
O5 Sm2 2.310748 1_555
O5 Sm0 2.320579 1_555
O6 Sm1 2.310748 1_565
O6 Sm3 2.320579 1_455
O7 Sm0 2.310748 1_555
O7 Sm2 2.320579 1_554
O8 Sm1 2.362839 1_565
O8 Sm0 2.435596 1_555
O9 Sm0 2.362839 1_555
O9 Sm1 2.435596 1_555
O10 Sm3 2.362839 1_545
O10 Sm2 2.435596 1_555
O11 Sm2 2.362839 1_555
O11 Sm3 2.435596 1_555
