# generated using pymatgen
data_Li7Mn2(CoO4)3
_symmetry_space_group_name_H-M   'P 1'
_cell_length_a   2.92633700
_cell_length_b   7.66483729
_cell_length_c   9.82240020
_cell_angle_alpha   100.79303474
_cell_angle_beta   91.19948173
_cell_angle_gamma   100.11187218
_symmetry_Int_Tables_number   1
_chemical_formula_structural   Li7Mn2(CoO4)3
_chemical_formula_sum   'Li7 Mn2 Co3 O12'
_cell_volume   212.72628943
_cell_formula_units_Z   1
loop_
 _symmetry_equiv_pos_site_id
 _symmetry_equiv_pos_as_xyz
  1  'x, y, z'
loop_
 _atom_site_type_symbol
 _atom_site_label
 _atom_site_symmetry_multiplicity
 _atom_site_fract_x
 _atom_site_fract_y
 _atom_site_fract_z
 _atom_site_occupancy
  Li  Li0  1  0.74854100  0.99935300  0.74546500  1
  Li  Li1  1  0.25145900  0.00064700  0.25453500  1
  Li  Li2  1  0.42764000  0.34657200  0.75646400  1
  Li  Li3  1  0.92617100  0.34110100  0.24704400  1
  Li  Li4  1  0.07382900  0.65889900  0.75295600  1
  Li  Li5  1  0.57236000  0.65342800  0.24353600  1
  Li  Li6  1  0.00000000  0.50000000  0.00000000  1
  Mn  Mn0  1  0.66565200  0.82128500  0.99573200  1
  Mn  Mn1  1  0.33434800  0.17871500  0.00426800  1
  Co  Co0  1  0.16612600  0.83134400  0.49810100  1
  Co  Co1  1  0.83387400  0.16865600  0.50189900  1
  Co  Co2  1  0.50000000  0.50000000  0.50000000  1
  O  O0  1  0.20248000  0.91671500  0.89252400  1
  O  O1  1  0.71936100  0.92375400  0.38204200  1
  O  O2  1  0.85057900  0.23513400  0.89008900  1
  O  O3  1  0.37904400  0.25947600  0.38911300  1
  O  O4  1  0.55526600  0.60187200  0.88093300  1
  O  O5  1  0.08301700  0.58702100  0.38411400  1
  O  O6  1  0.28063900  0.07624600  0.61795800  1
  O  O7  1  0.79752000  0.08328500  0.10747600  1
  O  O8  1  0.91698300  0.41297900  0.61588600  1
  O  O9  1  0.44473400  0.39812800  0.11906700  1
  O  O10  1  0.62095600  0.74052400  0.61088700  1
  O  O11  1  0.14942100  0.76486600  0.10991100  1
loop_
_geom_bond_atom_site_label_1
_geom_bond_atom_site_label_2
_geom_bond_distance
_geom_bond_site_symmetry_2
Li0 O2 2.050474 1_565
Li0 O6 2.068518 1_565
Li0 O6 2.091969 1_665
Li0 O10 2.135328 1_555
Li0 O0 2.193189 1_655
Li0 O0 2.263861 1_555
Li1 O11 2.050474 1_545
Li1 O1 2.068518 1_545
Li1 O1 2.091969 1_445
Li1 O3 2.135328 1_555
Li1 O7 2.193189 1_455
Li1 O7 2.263861 1_555
Li2 O4 2.071628 1_555
Li2 O8 2.075180 1_555
Li2 O2 2.169601 1_555
Li2 O8 2.200624 1_455
Li2 O6 2.221686 1_555
Li2 O2 2.304364 1_455
Li3 O9 2.025818 1_555
Li3 O9 2.031434 1_655
Li3 O5 2.072728 1_655
Li3 O7 2.151436 1_555
Li3 O3 2.153078 1_655
Li3 O3 2.229566 1_555
Li4 O4 2.025818 1_555
Li4 O4 2.031434 1_455
Li4 O8 2.072728 1_455
Li4 O0 2.151436 1_555
Li4 O10 2.153078 1_455
Li4 O10 2.229566 1_555
Li5 O9 2.071628 1_555
Li5 O5 2.075180 1_555
Li5 O11 2.169601 1_555
Li5 O5 2.200624 1_655
Li5 O1 2.221686 1_555
Li5 O11 2.304364 1_655
Li6 O4 2.075177 1_454
Li6 O9 2.075177 1_555
Li6 O2 2.079882 1_454
Li6 O11 2.079882 1_555
Li6 O4 2.143322 1_554
Li6 O9 2.143322 1_455
Mn0 O4 1.813263 1_555
Mn0 O11 1.936514 1_556
Mn0 O11 1.943979 1_656
Mn0 O0 1.992017 1_555
Mn0 O0 1.992855 1_655
Mn0 O7 2.066659 1_566
Mn1 O9 1.813263 1_555
Mn1 O2 1.936514 1_554
Mn1 O2 1.943979 1_454
Mn1 O7 1.992017 1_555
Mn1 O7 1.992855 1_455
Mn1 O0 2.066659 1_544
Co0 O5 1.965478 1_555
Co0 O6 1.989185 1_565
Co0 O10 2.008937 1_555
Co0 O1 2.018833 1_455
Co0 O10 2.056665 1_455
Co0 O1 2.097445 1_555
Co1 O8 1.965478 1_555
Co1 O1 1.989185 1_545
Co1 O3 2.008937 1_555
Co1 O6 2.018833 1_655
Co1 O3 2.056665 1_655
Co1 O6 2.097445 1_555
Co2 O10 1.926929 1_555
Co2 O3 1.926929 1_555
Co2 O5 1.934304 1_555
Co2 O8 1.934304 1_555
Co2 O5 2.148820 1_655
Co2 O8 2.148820 1_455
