# generated using pymatgen
data_LuSc(BO3)2
_symmetry_space_group_name_H-M   'P 1'
_cell_length_a   5.97278209
_cell_length_b   5.97278209
_cell_length_c   5.97278223
_cell_angle_alpha   47.97452177
_cell_angle_beta   47.97452177
_cell_angle_gamma   47.97451962
_symmetry_Int_Tables_number   1
_chemical_formula_structural   LuSc(BO3)2
_chemical_formula_sum   'Lu1 Sc1 B2 O6'
_cell_volume   107.71113145
_cell_formula_units_Z   1
loop_
 _symmetry_equiv_pos_site_id
 _symmetry_equiv_pos_as_xyz
  1  'x, y, z'
loop_
 _atom_site_type_symbol
 _atom_site_label
 _atom_site_symmetry_multiplicity
 _atom_site_fract_x
 _atom_site_fract_y
 _atom_site_fract_z
 _atom_site_occupancy
  Lu  Lu0  1  0.50000000  0.50000000  0.50000000  1
  Sc  Sc0  1  0.00000000  0.00000000  0.00000000  1
  B  B0  1  0.25328700  0.25328700  0.25328700  1
  B  B1  1  0.74671300  0.74671300  0.74671300  1
  O  O0  1  0.54317800  0.97224800  0.24054200  1
  O  O1  1  0.24054200  0.54317800  0.97224800  1
  O  O2  1  0.97224800  0.24054200  0.54317800  1
  O  O3  1  0.75945800  0.45682200  0.02775200  1
  O  O4  1  0.02775200  0.75945800  0.45682200  1
  O  O5  1  0.45682200  0.02775200  0.75945800  1
loop_
_geom_bond_atom_site_label_1
_geom_bond_atom_site_label_2
_geom_bond_distance
_geom_bond_site_symmetry_2
Lu0 O2 2.238372 1_555
Lu0 O4 2.238372 1_555
Lu0 O0 2.238372 1_555
Lu0 O5 2.238372 1_555
Lu0 O1 2.238373 1_555
Lu0 O3 2.238373 1_555
B0 O0 1.387283 1_545
B0 O1 1.387283 1_554
B0 O2 1.387283 1_455
B1 O5 1.387283 1_565
B1 O3 1.387283 1_556
B1 O4 1.387283 1_655
O0 Sc0 2.138775 1_665
O1 Sc0 2.138774 1_566
O2 Sc0 2.138775 1_656
O3 Sc0 2.138774 1_655
O4 Sc0 2.138775 1_565
O5 Sc0 2.138775 1_556
