# generated using pymatgen
data_CeNiAsO
_symmetry_space_group_name_H-M   'P 1'
_cell_length_a   4.01453700
_cell_length_b   4.01453700
_cell_length_c   7.90723000
_cell_angle_alpha   90.00000000
_cell_angle_beta   90.00000000
_cell_angle_gamma   90.00000000
_symmetry_Int_Tables_number   1
_chemical_formula_structural   CeNiAsO
_chemical_formula_sum   'Ce2 Ni2 As2 O2'
_cell_volume   127.43693021
_cell_formula_units_Z   2
loop_
 _symmetry_equiv_pos_site_id
 _symmetry_equiv_pos_as_xyz
  1  'x, y, z'
loop_
 _atom_site_type_symbol
 _atom_site_label
 _atom_site_symmetry_multiplicity
 _atom_site_fract_x
 _atom_site_fract_y
 _atom_site_fract_z
 _atom_site_occupancy
  Ce  Ce0  1  0.00000000  0.50000000  0.84526100  1
  Ce  Ce1  1  0.50000000  0.00000000  0.15473900  1
  Ni  Ni0  1  0.00000000  0.00000000  0.50000000  1
  Ni  Ni1  1  0.50000000  0.50000000  0.50000000  1
  As  As0  1  0.00000000  0.50000000  0.35136800  1
  As  As1  1  0.50000000  0.00000000  0.64863200  1
  O  O0  1  0.00000000  0.00000000  0.00000000  1
  O  O1  1  0.50000000  0.50000000  0.00000000  1
loop_
_geom_bond_atom_site_label_1
_geom_bond_atom_site_label_2
_geom_bond_distance
_geom_bond_site_symmetry_2
Ce0 O0 2.350791 1_556
Ce0 O0 2.350791 1_566
Ce0 O1 2.350791 1_456
Ce0 O1 2.350791 1_556
Ce1 O1 2.350791 1_545
Ce1 O0 2.350791 1_655
Ce1 O1 2.350791 1_555
Ce1 O0 2.350791 1_555
As0 Ni0 2.326022 1_555
As0 Ni0 2.326022 1_565
As0 Ni1 2.326022 1_555
As0 Ni1 2.326022 1_455
As0 Ce1 3.236607 1_565
As0 Ce1 3.236607 1_455
As0 Ce1 3.236607 1_555
As0 Ce1 3.236607 1_465
As1 Ni0 2.326022 1_555
As1 Ni0 2.326022 1_655
As1 Ni1 2.326022 1_555
As1 Ni1 2.326022 1_545
As1 Ce0 3.236607 1_655
As1 Ce0 3.236607 1_645
As1 Ce0 3.236607 1_555
As1 Ce0 3.236607 1_545
