# generated using pymatgen
data_Sr2VMoO6
_symmetry_space_group_name_H-M   'P 1'
_cell_length_a   5.66612427
_cell_length_b   5.66736119
_cell_length_c   8.97986125
_cell_angle_alpha   71.47866614
_cell_angle_beta   71.48573088
_cell_angle_gamma   89.67163113
_symmetry_Int_Tables_number   1
_chemical_formula_structural   Sr2VMoO6
_chemical_formula_sum   'Sr4 V2 Mo2 O12'
_cell_volume   257.81877202
_cell_formula_units_Z   2
loop_
 _symmetry_equiv_pos_site_id
 _symmetry_equiv_pos_as_xyz
  1  'x, y, z'
loop_
 _atom_site_type_symbol
 _atom_site_label
 _atom_site_symmetry_multiplicity
 _atom_site_fract_x
 _atom_site_fract_y
 _atom_site_fract_z
 _atom_site_occupancy
  Sr  Sr0  1  0.38497800  0.88490800  0.23015700  1
  Sr  Sr1  1  0.88471000  0.38483000  0.23024600  1
  Sr  Sr2  1  0.11509300  0.61518000  0.76992300  1
  Sr  Sr3  1  0.61504200  0.11507400  0.76991900  1
  V  V0  1  0.50018000  0.50023400  0.99954200  1
  V  V1  1  0.00027200  0.00021800  0.99953400  1
  Mo  Mo0  1  0.25002400  0.25004400  0.49997100  1
  Mo  Mo1  1  0.74997900  0.74993900  0.50007600  1
  O  O0  1  0.37575100  0.37545700  0.24889900  1
  O  O1  1  0.87581100  0.87532300  0.24860500  1
  O  O2  1  0.12433100  0.12438300  0.75164900  1
  O  O3  1  0.62397500  0.62443500  0.75132500  1
  O  O4  1  0.76279300  0.23687000  0.00023900  1
  O  O5  1  0.23690600  0.76277400  0.00032800  1
  O  O6  1  0.25045500  0.25027900  0.99998400  1
  O  O7  1  0.74958200  0.74982300  0.99979300  1
  O  O8  1  0.51001900  0.99005400  0.49981600  1
  O  O9  1  0.99035900  0.51032700  0.49949700  1
  O  O10  1  0.00029700  0.00006000  0.50032300  1
  O  O11  1  0.49944300  0.49978600  0.50017300  1
loop_
_geom_bond_atom_site_label_1
_geom_bond_atom_site_label_2
_geom_bond_distance
_geom_bond_site_symmetry_2
Mo0 O10 2.006654 1_555
Mo0 O11 2.006671 1_555
Mo0 O0 2.015826 1_555
Mo0 O2 2.020692 1_555
Mo0 O9 2.077452 1_455
Mo0 O8 2.077597 1_545
Mo1 O9 1.917811 1_555
Mo1 O8 1.918138 1_555
Mo1 O11 2.011608 1_555
Mo1 O10 2.011987 1_665
Mo1 O3 2.017248 1_555
Mo1 O1 2.019031 1_555
O0 V0 2.002057 1_554
O0 Sr1 2.834899 1_555
O0 Sr0 2.837274 1_545
O0 Sr0 2.838073 1_555
O0 Sr1 2.839136 1_455
O1 V1 1.999761 1_664
O1 Sr1 2.835716 1_555
O1 Sr0 2.836581 1_655
O1 Sr0 2.837283 1_555
O1 Sr1 2.839309 1_565
O2 V1 1.990238 1_555
O2 Sr3 2.836020 1_555
O2 Sr2 2.837147 1_555
O2 Sr3 2.837695 1_455
O2 Sr2 2.837806 1_545
O3 V0 1.992905 1_555
O3 Sr2 2.834593 1_555
O3 Sr3 2.837309 1_565
O3 Sr3 2.837913 1_555
O3 Sr2 2.839396 1_655
O4 V1 1.894396 1_654
O4 V0 2.101545 1_554
O4 Sr0 2.729443 1_545
O4 Sr1 2.731202 1_555
O4 Sr3 2.732800 1_554
O4 Sr2 2.732942 1_654
O5 V1 1.894186 1_564
O5 V0 2.100896 1_554
O5 Sr1 2.730529 1_455
O5 Sr0 2.730628 1_555
O5 Sr3 2.732604 1_564
O5 Sr2 2.733112 1_554
O6 V0 2.006169 1_555
O6 V1 2.012023 1_555
O6 Sr3 2.720291 1_555
O6 Sr0 2.721073 1_546
O6 Sr2 2.721545 1_555
O6 Sr1 2.722842 1_456
O7 V0 2.006185 1_555
O7 V1 2.012549 1_665
O7 Sr3 2.719142 1_565
O7 Sr2 2.720289 1_655
O7 Sr0 2.721621 1_556
O7 Sr1 2.723266 1_556
O8 Sr1 2.953400 1_565
O8 Sr0 2.954975 1_555
O8 Sr2 2.955981 1_555
O8 Sr3 2.958447 1_565
O9 Sr0 2.951922 1_655
O9 Sr1 2.954105 1_555
O9 Sr3 2.959083 1_555
O9 Sr2 2.959946 1_655
O10 Sr2 2.944642 1_545
O10 Sr3 2.946338 1_455
O10 Sr0 2.948524 1_545
O10 Sr1 2.949305 1_455
O11 Sr2 2.945828 1_555
O11 Sr0 2.946858 1_555
O11 Sr3 2.947225 1_555
O11 Sr1 2.948166 1_555
