# generated using pymatgen
data_CrPO5
_symmetry_space_group_name_H-M   'P 1'
_cell_length_a   9.98130105
_cell_length_b   8.68198475
_cell_length_c   6.93724725
_cell_angle_alpha   78.56775490
_cell_angle_beta   58.49202608
_cell_angle_gamma   42.94021902
_symmetry_Int_Tables_number   1
_chemical_formula_structural   CrPO5
_chemical_formula_sum   'Cr4 P4 O20'
_cell_volume   331.09426781
_cell_formula_units_Z   4
loop_
 _symmetry_equiv_pos_site_id
 _symmetry_equiv_pos_as_xyz
  1  'x, y, z'
loop_
 _atom_site_type_symbol
 _atom_site_label
 _atom_site_symmetry_multiplicity
 _atom_site_fract_x
 _atom_site_fract_y
 _atom_site_fract_z
 _atom_site_occupancy
  Cr  Cr0  1  0.87766700  0.38698600  0.40241200  1
  Cr  Cr1  1  0.33293500  0.40241200  0.38698600  1
  Cr  Cr2  1  0.86301400  0.37233300  0.91706500  1
  Cr  Cr3  1  0.84758800  0.91706500  0.37233300  1
  P  P0  1  0.02870700  0.53947500  0.96885800  1
  P  P1  1  0.71052500  0.22129300  0.78704000  1
  P  P2  1  0.46296000  0.96885800  0.53947500  1
  P  P3  1  0.28114200  0.78704000  0.22129300  1
  O  O0  1  0.60891200  0.71247400  0.43521400  1
  O  O1  1  0.66758200  0.17437700  0.33736300  1
  O  O2  1  0.30875900  0.64100600  0.40102000  1
  O  O3  1  0.81478600  0.00660000  0.64108800  1
  O  O4  1  0.21121500  0.10529700  0.75171600  1
  O  O5  1  0.43576500  0.11166700  0.35710200  1
  O  O6  1  0.07562300  0.58241800  0.42932100  1
  O  O7  1  0.82067900  0.33736300  0.17437700  1
  O  O8  1  0.91263700  0.42932100  0.58241800  1
  O  O9  1  0.14470300  0.03878500  0.31822800  1
  O  O10  1  0.24340000  0.43521400  0.71247400  1
  O  O11  1  0.49828400  0.31822800  0.03878500  1
  O  O12  1  0.93177200  0.75171600  0.10529700  1
  O  O13  1  0.13833300  0.81423500  0.15453400  1
  O  O14  1  0.09546600  0.35710200  0.11166700  1
  O  O15  1  0.89289800  0.15453400  0.81423500  1
  O  O16  1  0.84898000  0.60078400  0.94124100  1
  O  O17  1  0.64921600  0.40102000  0.64100600  1
  O  O18  1  0.53752600  0.64108800  0.00660000  1
  O  O19  1  0.60899400  0.94124100  0.60078400  1
loop_
_geom_bond_atom_site_label_1
_geom_bond_atom_site_label_2
_geom_bond_distance
_geom_bond_site_symmetry_2
Cr0 O8 1.625320 1_555
Cr0 O14 1.913105 1_655
Cr0 O17 1.918905 1_555
Cr0 O0 1.936847 1_555
Cr0 O9 1.964618 1_655
Cr0 O7 2.140370 1_555
Cr1 O6 1.625328 1_555
Cr1 O5 1.913105 1_555
Cr1 O2 1.918912 1_555
Cr1 O10 1.936847 1_555
Cr1 O11 1.964618 1_555
Cr1 O1 2.140378 1_555
Cr2 O7 1.625326 1_556
Cr2 O15 1.913105 1_555
Cr2 O16 1.918903 1_555
Cr2 O18 1.936847 1_556
Cr2 O4 1.964618 1_655
Cr2 O8 2.140377 1_555
Cr3 O1 1.625325 1_565
Cr3 O13 1.913105 1_655
Cr3 O19 1.918910 1_555
Cr3 O3 1.936847 1_565
Cr3 O12 1.964618 1_555
Cr3 O6 2.140375 1_655
O0 P2 1.545722 1_555
O2 P3 1.568083 1_555
O3 P1 1.545722 1_555
O4 P2 1.533399 1_545
O5 P2 1.567149 1_545
O9 P3 1.533399 1_545
O10 P0 1.545722 1_555
O11 P1 1.533399 1_554
O12 P0 1.533399 1_654
O13 P3 1.567149 1_555
O14 P0 1.567149 1_554
O15 P1 1.567149 1_555
O16 P0 1.568087 1_655
O17 P1 1.568083 1_555
O18 P3 1.545722 1_555
O19 P2 1.568078 1_555
