# generated using pymatgen
data_RbCrH8(NO4)2
_symmetry_space_group_name_H-M   'P 1'
_cell_length_a   6.50182837
_cell_length_b   6.50182837
_cell_length_c   6.50182837
_cell_angle_alpha   100.01142750
_cell_angle_beta   114.39831856
_cell_angle_gamma   114.39831856
_symmetry_Int_Tables_number   1
_chemical_formula_structural   RbCrH8(NO4)2
_chemical_formula_sum   'Rb1 Cr1 H8 N2 O8'
_cell_volume   207.36381930
_cell_formula_units_Z   1
loop_
 _symmetry_equiv_pos_site_id
 _symmetry_equiv_pos_as_xyz
  1  'x, y, z'
loop_
 _atom_site_type_symbol
 _atom_site_label
 _atom_site_symmetry_multiplicity
 _atom_site_fract_x
 _atom_site_fract_y
 _atom_site_fract_z
 _atom_site_occupancy
  Rb  Rb0  1  0.00000000  0.50000000  0.50000000  1
  Cr  Cr0  1  0.00000000  0.00000000  0.00000000  1
  H  H0  1  0.58155700  0.78235600  0.43625800  1
  H  H1  1  0.41844300  0.85470100  0.20079900  1
  H  H2  1  0.65390200  0.79920100  0.21764400  1
  H  H3  1  0.65390200  0.21764400  0.79920100  1
  H  H4  1  0.34609800  0.56374200  0.14529900  1
  H  H5  1  0.34609800  0.14529900  0.56374200  1
  H  H6  1  0.41844300  0.20079900  0.85470100  1
  H  H7  1  0.58155700  0.43625800  0.78235600  1
  N  N0  1  0.50000000  0.75000000  0.25000000  1
  N  N1  1  0.50000000  0.25000000  0.75000000  1
  O  O0  1  0.73253100  0.70055600  0.70055600  1
  O  O1  1  0.26746900  0.96802500  0.96802500  1
  O  O2  1  0.00000000  0.03197500  0.29944400  1
  O  O3  1  0.00000000  0.29944400  0.03197500  1
  O  O4  1  0.60326100  0.79264300  0.79264300  1
  O  O5  1  0.39673900  0.18938300  0.18938300  1
  O  O6  1  0.00000000  0.81061700  0.20735700  1
  O  O7  1  0.00000000  0.20735700  0.81061700  1
loop_
_geom_bond_atom_site_label_1
_geom_bond_atom_site_label_2
_geom_bond_distance
_geom_bond_site_symmetry_2
Cr0 O2 1.921728 1_555
Cr0 O1 1.921728 1_544
Cr0 O3 1.921728 1_555
Cr0 O0 1.921728 1_444
Cr0 O5 1.977626 1_555
Cr0 O4 1.977626 1_444
Cr0 O7 1.977631 1_554
Cr0 O6 1.977631 1_545
H0 N0 1.039585 1_555
H1 N0 1.039585 1_555
H2 N0 1.039585 1_555
H3 N1 1.039585 1_555
H4 N0 1.039585 1_555
H5 N1 1.039585 1_555
H6 N1 1.039585 1_555
H7 N1 1.039585 1_555
O0 O4 1.459535 1_555
O0 Rb0 3.095268 1_655
O1 O5 1.459543 1_566
O1 Rb0 3.095268 1_555
O2 O6 1.459541 1_545
O2 Rb0 3.095268 1_555
O3 O7 1.459541 1_554
O3 Rb0 3.095268 1_555
O4 Rb0 3.005846 1_555
O5 Rb0 3.005846 1_655
O6 Rb0 3.005841 1_555
O7 Rb0 3.005841 1_555
