# generated using pymatgen
data_Na7MnN4
_symmetry_space_group_name_H-M   'P 1'
_cell_length_a   11.84168151
_cell_length_b   11.84168151
_cell_length_c   11.84168151
_cell_angle_alpha   90.00000000
_cell_angle_beta   90.00000000
_cell_angle_gamma   90.00000000
_symmetry_Int_Tables_number   1
_chemical_formula_structural   Na7MnN4
_chemical_formula_sum   'Na56 Mn8 N32'
_cell_volume   1660.50477490
_cell_formula_units_Z   8
loop_
 _symmetry_equiv_pos_site_id
 _symmetry_equiv_pos_as_xyz
  1  'x, y, z'
loop_
 _atom_site_type_symbol
 _atom_site_label
 _atom_site_symmetry_multiplicity
 _atom_site_fract_x
 _atom_site_fract_y
 _atom_site_fract_z
 _atom_site_occupancy
  Na  Na0  1  0.00000000  -0.00000000  0.50000000  1
  Na  Na1  1  0.00000000  0.50000000  -0.00000000  1
  Na  Na2  1  0.50000000  -0.00000000  -0.00000000  1
  Na  Na3  1  0.50000000  -0.00000000  0.50000000  1
  Na  Na4  1  0.50000000  0.50000000  -0.00000000  1
  Na  Na5  1  0.00000000  0.50000000  0.50000000  1
  Na  Na6  1  0.00000000  0.50000000  0.25000000  1
  Na  Na7  1  0.50000000  0.75000000  -0.00000000  1
  Na  Na8  1  0.25000000  0.00000000  0.50000000  1
  Na  Na9  1  0.50000000  0.25000000  -0.00000000  1
  Na  Na10  1  0.75000000  -0.00000000  0.50000000  1
  Na  Na11  1  0.00000000  0.50000000  0.75000000  1
  Na  Na12  1  0.30408834  0.69591166  0.30408834  1
  Na  Na13  1  0.69591166  0.30408834  0.30408834  1
  Na  Na14  1  0.30408834  0.30408834  0.69591166  1
  Na  Na15  1  0.69591166  0.69591166  0.69591166  1
  Na  Na16  1  0.80408834  0.80408834  0.19591166  1
  Na  Na17  1  0.19591166  0.80408834  0.80408834  1
  Na  Na18  1  0.80408834  0.19591166  0.80408834  1
  Na  Na19  1  0.19591166  0.19591166  0.19591166  1
  Na  Na20  1  0.50000000  0.50000000  0.25390729  1
  Na  Na21  1  0.50000000  0.74609271  0.50000000  1
  Na  Na22  1  0.25390729  0.50000000  0.50000000  1
  Na  Na23  1  0.50000000  0.25390729  0.50000000  1
  Na  Na24  1  0.74609271  0.50000000  0.50000000  1
  Na  Na25  1  0.50000000  0.50000000  0.74609271  1
  Na  Na26  1  0.00000000  0.75390729  -0.00000000  1
  Na  Na27  1  0.00000000  0.00000000  0.24609271  1
  Na  Na28  1  0.75390729  0.00000000  -0.00000000  1
  Na  Na29  1  0.00000000  0.00000000  0.75390729  1
  Na  Na30  1  0.24609271  0.00000000  -0.00000000  1
  Na  Na31  1  0.00000000  0.24609271  -0.00000000  1
  Na  Na32  1  0.55842301  0.76341698  0.24471973  1
  Na  Na33  1  0.23658302  0.75528027  0.55842301  1
  Na  Na34  1  0.24471973  0.44157699  0.23658302  1
  Na  Na35  1  0.44157699  0.23658302  0.24471973  1
  Na  Na36  1  0.76341698  0.24471973  0.55842301  1
  Na  Na37  1  0.75528027  0.55842301  0.23658302  1
  Na  Na38  1  0.55842301  0.23658302  0.75528027  1
  Na  Na39  1  0.23658302  0.24471973  0.44157699  1
  Na  Na40  1  0.24471973  0.55842301  0.76341698  1
  Na  Na41  1  0.44157699  0.76341698  0.75528027  1
  Na  Na42  1  0.76341698  0.75528027  0.44157699  1
  Na  Na43  1  0.75528027  0.44157699  0.76341698  1
  Na  Na44  1  0.05842301  0.74471973  0.26341698  1
  Na  Na45  1  0.73658302  0.05842301  0.25528027  1
  Na  Na46  1  0.74471973  0.73658302  0.94157699  1
  Na  Na47  1  0.94157699  0.74471973  0.73658302  1
  Na  Na48  1  0.26341698  0.05842301  0.74471973  1
  Na  Na49  1  0.25528027  0.73658302  0.05842301  1
  Na  Na50  1  0.05842301  0.25528027  0.73658302  1
  Na  Na51  1  0.73658302  0.94157699  0.74471973  1
  Na  Na52  1  0.74471973  0.26341698  0.05842301  1
  Na  Na53  1  0.94157699  0.25528027  0.26341698  1
  Na  Na54  1  0.26341698  0.94157699  0.25528027  1
  Na  Na55  1  0.25528027  0.26341698  0.94157699  1
  Mn  Mn0  1  0.50000000  0.50000000  0.50000000  1
  Mn  Mn1  1  0.00000000  -0.00000000  -0.00000000  1
  Mn  Mn2  1  0.50000000  0.00000000  0.25000000  1
  Mn  Mn3  1  0.00000000  0.75000000  0.50000000  1
  Mn  Mn4  1  0.25000000  0.50000000  -0.00000000  1
  Mn  Mn5  1  0.00000000  0.25000000  0.50000000  1
  Mn  Mn6  1  0.75000000  0.50000000  -0.00000000  1
  Mn  Mn7  1  0.50000000  0.00000000  0.75000000  1
  N  N0  1  0.41509958  0.58490042  0.41509958  1
  N  N1  1  0.58490042  0.41509958  0.41509958  1
  N  N2  1  0.41509958  0.41509958  0.58490042  1
  N  N3  1  0.58490042  0.58490042  0.58490042  1
  N  N4  1  0.91509958  0.91509958  0.08490042  1
  N  N5  1  0.08490042  0.91509958  0.91509958  1
  N  N6  1  0.91509958  0.08490042  0.91509958  1
  N  N7  1  0.08490042  0.08490042  0.08490042  1
  N  N8  1  0.43687735  0.89616726  0.16274249  1
  N  N9  1  0.10383274  0.83725751  0.43687735  1
  N  N10  1  0.16274249  0.56312265  0.10383274  1
  N  N11  1  0.56312265  0.10383274  0.16274249  1
  N  N12  1  0.89616726  0.16274249  0.43687735  1
  N  N13  1  0.83725751  0.43687735  0.10383274  1
  N  N14  1  0.43687735  0.10383274  0.83725751  1
  N  N15  1  0.10383274  0.16274249  0.56312265  1
  N  N16  1  0.16274249  0.43687735  0.89616726  1
  N  N17  1  0.56312265  0.89616726  0.83725751  1
  N  N18  1  0.89616726  0.83725751  0.56312265  1
  N  N19  1  0.83725751  0.56312265  0.89616726  1
  N  N20  1  0.93687735  0.66274249  0.39616726  1
  N  N21  1  0.60383274  0.93687735  0.33725751  1
  N  N22  1  0.66274249  0.60383274  0.06312265  1
  N  N23  1  0.06312265  0.66274249  0.60383274  1
  N  N24  1  0.39616726  0.93687735  0.66274249  1
  N  N25  1  0.33725751  0.60383274  0.93687735  1
  N  N26  1  0.93687735  0.33725751  0.60383274  1
  N  N27  1  0.60383274  0.06312265  0.66274249  1
  N  N28  1  0.66274249  0.39616726  0.93687735  1
  N  N29  1  0.06312265  0.33725751  0.39616726  1
  N  N30  1  0.39616726  0.06312265  0.33725751  1
  N  N31  1  0.33725751  0.39616726  0.06312265  1
loop_
_geom_bond_atom_site_label_1
_geom_bond_atom_site_label_2
_geom_bond_distance
_geom_bond_site_symmetry_2
Mn0 N0 1.741341 1_555
Mn0 N3 1.741341 1_555
Mn0 N2 1.741341 1_555
Mn0 N1 1.741341 1_555
Mn1 N4 1.741341 1_445
Mn1 N5 1.741341 1_544
Mn1 N6 1.741341 1_454
Mn1 N7 1.741341 1_555
Mn2 N21 1.771493 1_545
Mn2 N8 1.771493 1_545
Mn2 N30 1.771493 1_555
Mn2 N11 1.771493 1_555
Mn3 N20 1.771493 1_455
Mn3 N18 1.771493 1_455
Mn3 N23 1.771493 1_555
Mn3 N9 1.771493 1_555
Mn4 N25 1.771493 1_554
Mn4 N31 1.771493 1_555
Mn4 N10 1.771493 1_555
Mn4 N16 1.771493 1_554
Mn5 N26 1.771493 1_455
Mn5 N29 1.771493 1_555
Mn5 N12 1.771493 1_455
Mn5 N15 1.771493 1_555
Mn6 N19 1.771493 1_554
Mn6 N28 1.771493 1_554
Mn6 N22 1.771493 1_555
Mn6 N13 1.771493 1_555
Mn7 N17 1.771493 1_545
Mn7 N24 1.771493 1_545
Mn7 N27 1.771493 1_555
Mn7 N14 1.771493 1_555
N0 Na12 2.276884 1_555
N0 Na20 2.380123 1_555
N0 Na21 2.380123 1_555
N0 Na22 2.380123 1_555
N1 Na13 2.276884 1_555
N1 Na23 2.380123 1_555
N1 Na20 2.380123 1_555
N1 Na24 2.380123 1_555
N2 Na14 2.276884 1_555
N2 Na23 2.380123 1_555
N2 Na25 2.380123 1_555
N2 Na22 2.380123 1_555
N3 Na15 2.276884 1_555
N3 Na21 2.380123 1_555
N3 Na24 2.380123 1_555
N3 Na25 2.380123 1_555
N4 Na16 2.276884 1_555
N4 Na27 2.380123 1_665
N4 Na28 2.380123 1_565
N4 Na26 2.380123 1_655
N5 Na17 2.276884 1_555
N5 Na30 2.380123 1_566
N5 Na26 2.380123 1_556
N5 Na29 2.380123 1_565
N6 Na18 2.276884 1_555
N6 Na31 2.380123 1_656
N6 Na28 2.380123 1_556
N6 Na29 2.380123 1_655
N7 Na19 2.276884 1_555
N7 Na30 2.380123 1_555
N7 Na27 2.380123 1_555
N7 Na31 2.380123 1_555
N8 Na32 2.342028 1_555
N8 Na54 2.389374 1_555
N8 Na2 2.405081 1_565
N8 Na7 2.696017 1_555
N9 Na33 2.342028 1_555
N9 Na44 2.389374 1_555
N9 Na0 2.405081 1_565
N9 Na8 2.696017 1_565
N10 Na34 2.342028 1_555
N10 Na49 2.389374 1_555
N10 Na1 2.405081 1_555
N10 Na6 2.696017 1_555
N11 Na35 2.342028 1_555
N11 Na45 2.389374 1_555
N11 Na2 2.405081 1_555
N11 Na9 2.696017 1_555
N12 Na36 2.342028 1_555
N12 Na53 2.389374 1_555
N12 Na0 2.405081 1_655
N12 Na10 2.696017 1_555
N13 Na37 2.342028 1_555
N13 Na52 2.389374 1_555
N13 Na1 2.405081 1_655
N13 Na6 2.696017 1_655
N14 Na38 2.342028 1_555
N14 Na48 2.389374 1_555
N14 Na2 2.405081 1_556
N14 Na9 2.696017 1_556
N15 Na39 2.342028 1_555
N15 Na50 2.389374 1_555
N15 Na0 2.405081 1_555
N15 Na8 2.696017 1_555
N16 Na40 2.342028 1_555
N16 Na55 2.389374 1_555
N16 Na1 2.405081 1_556
N16 Na11 2.696017 1_555
N17 Na41 2.342028 1_555
N17 Na51 2.389374 1_555
N17 Na2 2.405081 1_566
N17 Na7 2.696017 1_556
N18 Na42 2.342028 1_555
N18 Na47 2.389374 1_555
N18 Na0 2.405081 1_665
N18 Na10 2.696017 1_565
N19 Na43 2.342028 1_555
N19 Na46 2.389374 1_555
N19 Na1 2.405081 1_656
N19 Na11 2.696017 1_655
N20 Na44 2.342028 1_655
N20 Na42 2.389374 1_555
N20 Na5 2.405081 1_655
N20 Na6 2.696017 1_655
N21 Na45 2.342028 1_565
N21 Na32 2.389374 1_555
N21 Na3 2.405081 1_565
N21 Na10 2.696017 1_565
N22 Na46 2.342028 1_554
N22 Na37 2.389374 1_555
N22 Na4 2.405081 1_555
N22 Na7 2.696017 1_555
N23 Na47 2.342028 1_455
N23 Na33 2.389374 1_555
N23 Na5 2.405081 1_555
N23 Na11 2.696017 1_555
N24 Na48 2.342028 1_565
N24 Na41 2.389374 1_555
N24 Na3 2.405081 1_565
N24 Na8 2.696017 1_565
N25 Na49 2.342028 1_556
N25 Na40 2.389374 1_555
N25 Na4 2.405081 1_556
N25 Na7 2.696017 1_556
N26 Na50 2.342028 1_655
N26 Na36 2.389374 1_555
N26 Na5 2.405081 1_655
N26 Na11 2.696017 1_655
N27 Na51 2.342028 1_545
N27 Na38 2.389374 1_555
N27 Na3 2.405081 1_555
N27 Na10 2.696017 1_555
N28 Na52 2.342028 1_556
N28 Na43 2.389374 1_555
N28 Na4 2.405081 1_556
N28 Na9 2.696017 1_556
N29 Na53 2.342028 1_455
N29 Na39 2.389374 1_555
N29 Na5 2.405081 1_555
N29 Na6 2.696017 1_555
N30 Na54 2.342028 1_545
N30 Na35 2.389374 1_555
N30 Na3 2.405081 1_555
N30 Na8 2.696017 1_555
N31 Na55 2.342028 1_554
N31 Na34 2.389374 1_555
N31 Na4 2.405081 1_555
N31 Na9 2.696017 1_555
