# generated using pymatgen
data_Ti3N4
_symmetry_space_group_name_H-M   'P 1'
_cell_length_a   5.13184306
_cell_length_b   5.13184306
_cell_length_c   5.13184306
_cell_angle_alpha   132.16819933
_cell_angle_beta   132.16819933
_cell_angle_gamma   69.96350371
_symmetry_Int_Tables_number   1
_chemical_formula_structural   Ti3N4
_chemical_formula_sum   'Ti3 N4'
_cell_volume   72.79454306
_cell_formula_units_Z   1
loop_
 _symmetry_equiv_pos_site_id
 _symmetry_equiv_pos_as_xyz
  1  'x, y, z'
loop_
 _atom_site_type_symbol
 _atom_site_label
 _atom_site_symmetry_multiplicity
 _atom_site_fract_x
 _atom_site_fract_y
 _atom_site_fract_z
 _atom_site_occupancy
  Ti  Ti0  1  0.25000000  0.75000000  0.50000000  1
  Ti  Ti1  1  0.50000000  0.50000000  0.00000000  1
  Ti  Ti2  1  0.75000000  0.25000000  0.50000000  1
  N  N0  1  0.00000000  0.50000000  0.50000000  1
  N  N1  1  0.26065700  0.26065700  0.00000000  1
  N  N2  1  0.50000000  0.00000000  0.50000000  1
  N  N3  1  0.73934300  0.73934300  0.00000000  1
loop_
_geom_bond_atom_site_label_1
_geom_bond_atom_site_label_2
_geom_bond_distance
_geom_bond_site_symmetry_2
N0 Ti1 2.080425 1_455
N0 Ti1 2.080425 1_556
N0 Ti2 2.102349 1_455
N0 Ti0 2.102349 1_555
N1 Ti1 2.012730 1_555
N1 Ti0 2.082354 1_544
N1 Ti0 2.082354 1_555
N1 Ti2 2.082354 1_555
N1 Ti2 2.082354 1_454
N2 Ti1 2.080425 1_556
N2 Ti1 2.080425 1_545
N2 Ti0 2.102349 1_545
N2 Ti2 2.102349 1_555
N3 Ti1 2.012730 1_555
N3 Ti2 2.082354 1_565
N3 Ti0 2.082354 1_554
N3 Ti0 2.082354 1_655
N3 Ti2 2.082354 1_554
