# generated using pymatgen
data_Tb2Fe17C2
_symmetry_space_group_name_H-M   'P 1'
_cell_length_a   6.47153385
_cell_length_b   6.47153385
_cell_length_c   6.50067902
_cell_angle_alpha   83.66774499
_cell_angle_beta   83.66774499
_cell_angle_gamma   83.36529074
_symmetry_Int_Tables_number   1
_chemical_formula_structural   Tb2Fe17C2
_chemical_formula_sum   'Tb2 Fe17 C2'
_cell_volume   267.46477901
_cell_formula_units_Z   1
loop_
 _symmetry_equiv_pos_site_id
 _symmetry_equiv_pos_as_xyz
  1  'x, y, z'
loop_
 _atom_site_type_symbol
 _atom_site_label
 _atom_site_symmetry_multiplicity
 _atom_site_fract_x
 _atom_site_fract_y
 _atom_site_fract_z
 _atom_site_occupancy
  Tb  Tb0  1  0.65276600  0.65276600  0.66464200  1
  Tb  Tb1  1  0.34723400  0.34723400  0.33535800  1
  Fe  Fe0  1  0.90332700  0.90332700  0.90364800  1
  Fe  Fe1  1  0.09667300  0.09667300  0.09635200  1
  Fe  Fe2  1  0.34472800  0.34472800  0.85481600  1
  Fe  Fe3  1  0.34378600  0.85313200  0.34189000  1
  Fe  Fe4  1  0.85313200  0.34378600  0.34189000  1
  Fe  Fe5  1  0.65527200  0.65527200  0.14518400  1
  Fe  Fe6  1  0.65621400  0.14686800  0.65811000  1
  Fe  Fe7  1  0.14686800  0.65621400  0.65811000  1
  Fe  Fe8  1  0.28532200  0.71467800  0.00000000  1
  Fe  Fe9  1  0.71403000  0.99816100  0.28595900  1
  Fe  Fe10  1  0.00183900  0.28597000  0.71404100  1
  Fe  Fe11  1  0.28597000  0.00183900  0.71404100  1
  Fe  Fe12  1  0.99816100  0.71403000  0.28595900  1
  Fe  Fe13  1  0.71467800  0.28532200  0.00000000  1
  Fe  Fe14  1  0.00000000  0.00000000  0.50000000  1
  Fe  Fe15  1  0.00000000  0.50000000  0.00000000  1
  Fe  Fe16  1  0.50000000  0.00000000  0.00000000  1
  C  C0  1  0.50000000  0.00000000  0.50000000  1
  C  C1  1  0.00000000  0.50000000  0.50000000  1
loop_
_geom_bond_atom_site_label_1
_geom_bond_atom_site_label_2
_geom_bond_distance
_geom_bond_site_symmetry_2
Fe0 Fe1 2.398708 1_666
Fe0 Fe16 2.635344 1_566
Fe0 Fe15 2.635344 1_656
Fe0 Fe7 2.648572 1_655
Fe0 Fe6 2.648572 1_565
Fe0 Fe14 2.652227 1_665
Fe0 Fe5 2.665107 1_556
Fe0 Fe13 2.733041 1_566
Fe0 Fe8 2.733041 1_656
Fe0 Fe9 2.746840 1_556
Fe0 Fe12 2.746840 1_556
Fe0 Fe10 2.752428 1_665
Fe0 Fe11 2.752428 1_665
Fe0 Tb0 3.064580 1_555
Fe1 Fe15 2.635344 1_555
Fe1 Fe16 2.635344 1_555
Fe1 Fe4 2.648572 1_455
Fe1 Fe3 2.648572 1_545
Fe1 Fe14 2.652227 1_555
Fe1 Fe2 2.665107 1_554
Fe1 Fe13 2.733041 1_455
Fe1 Fe8 2.733041 1_545
Fe1 Fe10 2.746840 1_554
Fe1 Fe11 2.746840 1_554
Fe1 Fe12 2.752428 1_445
Fe1 Fe9 2.752428 1_445
Fe1 Tb1 3.064580 1_555
Fe2 Fe7 2.556220 1_555
Fe2 Fe6 2.556220 1_555
Fe2 Fe8 2.641246 1_556
Fe2 Tb0 3.050784 1_555
Fe2 Tb1 3.127518 1_556
Fe2 Tb1 3.373337 1_555
Fe3 Fe5 2.556220 1_555
Fe3 Fe8 2.566841 1_555
Fe4 Fe5 2.556220 1_555
Fe5 Fe9 2.574061 1_555
Fe5 Fe8 2.641246 1_555
Fe5 Tb1 3.050784 1_555
Fe5 Tb0 3.127518 1_554
Fe5 Tb0 3.373337 1_555
Fe7 Fe8 2.566841 1_556
Fe8 Tb1 3.065403 1_555
Fe8 Tb0 3.065403 1_554
Fe10 Fe15 2.435887 1_556
Fe10 Fe14 2.436779 1_555
Fe10 Fe13 2.479359 1_456
Fe10 Fe2 2.574061 1_555
Fe11 Fe16 2.435887 1_556
Fe11 Fe14 2.436779 1_555
Fe11 Fe8 2.479359 1_546
Fe11 Fe2 2.574061 1_555
Fe12 Fe15 2.435887 1_655
Fe12 Fe14 2.436779 1_665
Fe12 Fe8 2.479359 1_655
Fe12 Fe5 2.574061 1_555
Fe13 Fe16 2.435648 1_555
Fe13 Fe15 2.435648 1_655
Fe13 Fe9 2.479359 1_545
Fe13 Fe6 2.566841 1_554
Fe13 Fe4 2.566841 1_555
Fe13 Fe2 2.641246 1_554
Fe13 Fe5 2.641246 1_555
Fe13 Tb1 3.065403 1_555
Fe13 Tb0 3.065403 1_554
Fe14 Fe9 2.436779 1_445
Fe14 Fe3 2.476300 1_545
Fe14 Fe4 2.476300 1_455
Fe14 Fe7 2.476300 1_545
Fe14 Fe6 2.476300 1_455
Fe14 Tb1 3.369058 1_555
Fe14 Tb0 3.369058 1_445
Fe15 Fe8 2.435648 1_555
Fe15 Fe5 2.470667 1_455
Fe15 Fe2 2.470667 1_554
Fe15 Fe7 2.474955 1_554
Fe15 Fe4 2.474955 1_455
Fe15 Tb1 3.297196 1_555
Fe15 Tb0 3.297196 1_454
Fe16 Fe8 2.435648 1_545
Fe16 Fe9 2.435887 1_545
Fe16 Fe5 2.470667 1_545
Fe16 Fe2 2.470667 1_554
Fe16 Fe6 2.474955 1_554
Fe16 Fe3 2.474955 1_545
Fe16 Tb1 3.297196 1_555
Fe16 Tb0 3.297196 1_544
C0 Fe11 1.851862 1_555
C0 Fe9 1.851862 1_545
C0 Fe3 1.910114 1_545
C0 Fe6 1.910114 1_555
C0 Tb0 2.522308 1_545
C0 Tb1 2.522308 1_555
C1 Fe10 1.851862 1_555
C1 Fe12 1.851862 1_455
C1 Fe4 1.910114 1_455
C1 Fe7 1.910114 1_555
C1 Tb0 2.522308 1_455
C1 Tb1 2.522308 1_555
