# generated using pymatgen
data_La2B8O15
_symmetry_space_group_name_H-M   'P 1'
_cell_length_a   4.25583300
_cell_length_b   9.26559800
_cell_length_c   12.61622059
_cell_angle_alpha   63.34884486
_cell_angle_beta   90.00000000
_cell_angle_gamma   90.00000000
_symmetry_Int_Tables_number   1
_chemical_formula_structural   La2B8O15
_chemical_formula_sum   'La4 B16 O30'
_cell_volume   444.63675228
_cell_formula_units_Z   2
loop_
 _symmetry_equiv_pos_site_id
 _symmetry_equiv_pos_as_xyz
  1  'x, y, z'
loop_
 _atom_site_type_symbol
 _atom_site_label
 _atom_site_symmetry_multiplicity
 _atom_site_fract_x
 _atom_site_fract_y
 _atom_site_fract_z
 _atom_site_occupancy
  La  La0  1  0.26482800  0.85634000  0.94813700  1
  La  La1  1  0.26482800  0.14366000  0.55186300  1
  La  La2  1  0.73517200  0.14366000  0.05186300  1
  La  La3  1  0.73517200  0.85634000  0.44813700  1
  B  B0  1  0.21433400  0.89276200  0.20437900  1
  B  B1  1  0.21433400  0.10723800  0.29562100  1
  B  B2  1  0.78566600  0.10723800  0.79562100  1
  B  B3  1  0.78566600  0.89276200  0.70437900  1
  B  B4  1  0.73090700  0.71597200  0.23452400  1
  B  B5  1  0.73090700  0.28402800  0.26547600  1
  B  B6  1  0.26909300  0.28402800  0.76547600  1
  B  B7  1  0.26909300  0.71597200  0.73452400  1
  B  B8  1  0.21779400  0.40482200  0.12667100  1
  B  B9  1  0.21779400  0.59517800  0.37332900  1
  B  B10  1  0.78220600  0.59517800  0.87332900  1
  B  B11  1  0.78220600  0.40482200  0.62667100  1
  B  B12  1  0.70775500  0.58459500  0.08668200  1
  B  B13  1  0.70775500  0.41540500  0.41331800  1
  B  B14  1  0.29224500  0.41540500  0.91331800  1
  B  B15  1  0.29224500  0.58459500  0.58668200  1
  O  O0  1  0.25913700  0.97099900  0.07889900  1
  O  O1  1  0.25913700  0.02900100  0.42110100  1
  O  O2  1  0.74086300  0.02900100  0.92110100  1
  O  O3  1  0.74086300  0.97099900  0.57889900  1
  O  O4  1  0.87902600  0.85839200  0.23522500  1
  O  O5  1  0.87902600  0.14160800  0.26477500  1
  O  O6  1  0.12097400  0.14160800  0.76477500  1
  O  O7  1  0.12097400  0.85839200  0.73522500  1
  O  O8  1  0.61835900  0.72447000  0.76423600  1
  O  O9  1  0.61835900  0.27553000  0.73576400  1
  O  O10  1  0.38164100  0.27553000  0.23576400  1
  O  O11  1  0.38164100  0.72447000  0.26423600  1
  O  O12  1  0.77286200  0.71119400  0.12290800  1
  O  O13  1  0.77286200  0.28880600  0.37709200  1
  O  O14  1  0.22713800  0.28880600  0.87709200  1
  O  O15  1  0.22713800  0.71119400  0.62290800  1
  O  O16  1  0.80831300  0.65994700  0.96048600  1
  O  O17  1  0.80831300  0.34005300  0.53951400  1
  O  O18  1  0.19168700  0.34005300  0.03951400  1
  O  O19  1  0.19168700  0.65994700  0.46048600  1
  O  O20  1  0.87794500  0.42663700  0.16104800  1
  O  O21  1  0.87794500  0.57336300  0.33895200  1
  O  O22  1  0.12205500  0.57336300  0.83895200  1
  O  O23  1  0.12205500  0.42663700  0.66104800  1
  O  O24  1  0.37212500  0.55495200  0.09147800  1
  O  O25  1  0.37212500  0.44504800  0.40852200  1
  O  O26  1  0.62787500  0.44504800  0.90852200  1
  O  O27  1  0.62787500  0.55495200  0.59147800  1
  O  O28  1  0.34726700  0.00000000  0.25000000  1
  O  O29  1  0.65273300  0.00000000  0.75000000  1
loop_
_geom_bond_atom_site_label_1
_geom_bond_atom_site_label_2
_geom_bond_distance
_geom_bond_site_symmetry_2
La0 O0 2.328765 1_556
La0 O2 2.508099 1_565
La0 O24 2.597437 1_556
La0 O16 2.618380 1_455
La0 O2 2.675570 1_465
La0 O6 2.688358 1_565
La0 O7 2.746767 1_555
La0 O29 2.785821 1_565
La0 O12 2.897220 1_456
La0 O16 2.903640 1_555
La0 O12 2.947017 1_556
La1 O1 2.328765 1_555
La1 O3 2.508099 1_545
La1 O25 2.597437 1_555
La1 O17 2.618380 1_455
La1 O3 2.675570 1_445
La1 O7 2.688358 1_545
La1 O6 2.746767 1_555
La1 O29 2.785821 1_555
La1 O13 2.897220 1_455
La1 O17 2.903640 1_555
La1 O13 2.947017 1_555
La2 O2 2.328765 1_554
La2 O0 2.508099 1_545
La2 O26 2.597437 1_554
La2 O18 2.618380 1_655
La2 O0 2.675570 1_645
La2 O4 2.688358 1_545
La2 O5 2.746767 1_555
La2 O28 2.785821 1_555
La2 O14 2.897220 1_654
La2 O18 2.903640 1_555
La2 O14 2.947017 1_554
La3 O3 2.328765 1_555
La3 O1 2.508099 1_565
La3 O27 2.597437 1_555
La3 O19 2.618380 1_655
La3 O1 2.675570 1_665
La3 O5 2.688358 1_565
La3 O4 2.746767 1_555
La3 O28 2.785821 1_565
La3 O15 2.897220 1_655
La3 O19 2.903640 1_555
La3 O15 2.947017 1_555
B0 O0 1.427754 1_555
B0 O28 1.466861 1_565
B0 O4 1.475823 1_455
B0 O11 1.566003 1_555
B1 O1 1.427754 1_555
B1 O28 1.466861 1_555
B1 O5 1.475823 1_455
B1 O10 1.566003 1_555
B2 O2 1.427754 1_555
B2 O29 1.466861 1_555
B2 O6 1.475823 1_655
B2 O9 1.566003 1_555
B3 O3 1.427754 1_555
B3 O29 1.466861 1_565
B3 O7 1.475823 1_655
B3 O8 1.566003 1_555
B4 O12 1.439693 1_555
B4 O4 1.466041 1_555
B4 O21 1.520389 1_555
B4 O11 1.543577 1_555
B5 O13 1.439693 1_555
B5 O5 1.466041 1_555
B5 O20 1.520389 1_555
B5 O10 1.543577 1_555
B6 O14 1.439693 1_555
B6 O6 1.466041 1_555
B6 O23 1.520389 1_555
B6 O9 1.543577 1_555
B7 O15 1.439693 1_555
B7 O7 1.466041 1_555
B7 O22 1.520389 1_555
B7 O8 1.543577 1_555
B8 O24 1.417553 1_555
B8 O18 1.474311 1_555
B8 O10 1.528563 1_555
B8 O20 1.549034 1_455
B9 O25 1.417553 1_555
B9 O19 1.474311 1_555
B9 O11 1.528563 1_555
B9 O21 1.549034 1_455
B10 O26 1.417553 1_555
B10 O16 1.474311 1_555
B10 O8 1.528563 1_555
B10 O22 1.549034 1_655
B11 O27 1.417553 1_555
B11 O17 1.474311 1_555
B11 O9 1.528563 1_555
B11 O23 1.549034 1_655
B12 O24 1.450681 1_555
B12 O12 1.463753 1_555
B12 O16 1.486008 1_554
B12 O20 1.521526 1_555
B13 O25 1.450681 1_555
B13 O13 1.463753 1_555
B13 O17 1.486008 1_555
B13 O21 1.521526 1_555
B14 O26 1.450681 1_555
B14 O14 1.463753 1_555
B14 O18 1.486008 1_556
B14 O22 1.521526 1_555
B15 O27 1.450681 1_555
B15 O15 1.463753 1_555
B15 O19 1.486008 1_555
B15 O23 1.521526 1_555
