# generated using pymatgen
data_ZnNi3(B2O5)2
_symmetry_space_group_name_H-M   'P 1'
_cell_length_a   3.14688386
_cell_length_b   6.20659326
_cell_length_c   9.24762530
_cell_angle_alpha   104.26641519
_cell_angle_beta   90.60541309
_cell_angle_gamma   92.32611320
_symmetry_Int_Tables_number   1
_chemical_formula_structural   ZnNi3(B2O5)2
_chemical_formula_sum   'Zn1 Ni3 B4 O10'
_cell_volume   174.86539312
_cell_formula_units_Z   1
loop_
 _symmetry_equiv_pos_site_id
 _symmetry_equiv_pos_as_xyz
  1  'x, y, z'
loop_
 _atom_site_type_symbol
 _atom_site_label
 _atom_site_symmetry_multiplicity
 _atom_site_fract_x
 _atom_site_fract_y
 _atom_site_fract_z
 _atom_site_occupancy
  Zn  Zn0  1  0.26654000  0.78470600  0.64041900  1
  Ni  Ni0  1  0.76288600  0.62275800  0.89706900  1
  Ni  Ni1  1  0.23852000  0.37824100  0.10229800  1
  Ni  Ni2  1  0.72486300  0.20659100  0.35001800  1
  B  B0  1  0.30496200  0.31719100  0.64286000  1
  B  B1  1  0.69712200  0.68176600  0.35575900  1
  B  B2  1  0.66747700  0.12031200  0.83390100  1
  B  B3  1  0.33162900  0.87959000  0.16800700  1
  O  O0  1  0.26044300  0.52270300  0.74195900  1
  O  O1  1  0.74282600  0.47694800  0.25920500  1
  O  O2  1  0.23282300  0.27660900  0.49425200  1
  O  O3  1  0.76628700  0.72599500  0.50449700  1
  O  O4  1  0.44585400  0.14136500  0.70213700  1
  O  O5  1  0.55537200  0.85820600  0.29873100  1
  O  O6  1  0.78386200  0.91035900  0.82582900  1
  O  O7  1  0.22006900  0.09362900  0.18133600  1
  O  O8  1  0.73825800  0.30742800  0.94961800  1
  O  O9  1  0.26020800  0.69560200  0.05210700  1
loop_
_geom_bond_atom_site_label_1
_geom_bond_atom_site_label_2
_geom_bond_distance
_geom_bond_site_symmetry_2
Ni0 O6 2.048323 1_555
Ni0 O9 2.070009 1_656
Ni0 O0 2.091999 1_555
Ni0 O8 2.128315 1_555
Ni0 O9 2.132795 1_556
Ni0 O0 2.140583 1_655
Ni1 O8 2.063016 1_454
Ni1 O7 2.070495 1_555
Ni1 O1 2.105613 1_555
Ni1 O8 2.111164 1_554
Ni1 O9 2.130794 1_555
Ni1 O1 2.145067 1_455
Ni2 O2 2.033711 1_655
Ni2 O2 2.044025 1_555
Ni2 O1 2.052310 1_555
Ni2 O5 2.140207 1_545
Ni2 O7 2.183229 1_555
Ni2 O7 2.225842 1_655
B0 O2 1.349726 1_555
B0 O0 1.388360 1_555
B0 O4 1.420189 1_555
B1 O3 1.348104 1_555
B1 O1 1.375528 1_555
B1 O5 1.412674 1_555
B2 O6 1.352457 1_545
B2 O8 1.380193 1_555
B2 O4 1.433923 1_555
B3 O7 1.364293 1_565
B3 O9 1.368992 1_555
B3 O5 1.429491 1_555
O0 Zn0 2.068061 1_555
O3 Zn0 1.968964 1_655
O3 Zn0 2.012084 1_555
O4 Zn0 2.193959 1_545
O6 Zn0 2.312439 1_655
O6 Zn0 2.318880 1_555
