# generated using pymatgen
data_TaMnO4
_symmetry_space_group_name_H-M   'P 1'
_cell_length_a   4.97431310
_cell_length_b   5.68893194
_cell_length_c   9.28474248
_cell_angle_alpha   89.99960394
_cell_angle_beta   91.80050649
_cell_angle_gamma   90.00036234
_symmetry_Int_Tables_number   1
_chemical_formula_structural   TaMnO4
_chemical_formula_sum   'Ta4 Mn4 O16'
_cell_volume   262.61482964
_cell_formula_units_Z   4
loop_
 _symmetry_equiv_pos_site_id
 _symmetry_equiv_pos_as_xyz
  1  'x, y, z'
loop_
 _atom_site_type_symbol
 _atom_site_label
 _atom_site_symmetry_multiplicity
 _atom_site_fract_x
 _atom_site_fract_y
 _atom_site_fract_z
 _atom_site_occupancy
  Ta  Ta0  1  0.75000299  0.33062971  0.25000050  1
  Ta  Ta1  1  0.74999586  0.33062822  0.74999811  1
  Ta  Ta2  1  0.25000357  0.66937207  0.24998833  1
  Ta  Ta3  1  0.24999572  0.66937135  0.75001267  1
  Mn  Mn0  1  0.74999941  0.84190557  0.50000008  1
  Mn  Mn1  1  0.24999991  0.15809517  0.00000010  1
  Mn  Mn2  1  0.75000027  0.84192071  0.99999999  1
  Mn  Mn3  1  0.24999897  0.15807847  0.50000000  1
  O  O0  1  0.42944260  0.87664703  0.38629558  1
  O  O1  1  0.42944287  0.87665856  0.88629126  1
  O  O2  1  0.57055840  0.12335441  0.11370391  1
  O  O3  1  0.57055728  0.12333823  0.61371009  1
  O  O4  1  0.07056026  0.87666206  0.11370782  1
  O  O5  1  0.07055702  0.87664727  0.61370477  1
  O  O6  1  0.92944045  0.12333890  0.38629109  1
  O  O7  1  0.92944009  0.12335224  0.88629670  1
  O  O8  1  0.92550202  0.61413916  0.36173275  1
  O  O9  1  0.92550427  0.61414504  0.86173142  1
  O  O10  1  0.07449596  0.38586442  0.13826743  1
  O  O11  1  0.07449861  0.38585090  0.63826817  1
  O  O12  1  0.57449750  0.61414862  0.13826771  1
  O  O13  1  0.57449849  0.61413763  0.63826695  1
  O  O14  1  0.42550043  0.38585183  0.36173205  1
  O  O15  1  0.42550306  0.38586143  0.86173354  1
loop_
_geom_bond_atom_site_label_1
_geom_bond_atom_site_label_2
_geom_bond_distance
_geom_bond_site_symmetry_2
Mn0 O0 1.894837 1_555
Mn0 O5 1.894841 1_655
Mn0 O13 2.039502 1_555
Mn0 O8 2.039521 1_555
Mn0 O6 2.129297 1_565
Mn0 O3 2.129321 1_565
Mn1 O2 1.894840 1_555
Mn1 O7 1.894844 1_454
Mn1 O15 2.039499 1_554
Mn1 O10 2.039534 1_555
Mn1 O4 2.129287 1_545
Mn1 O1 2.129334 1_544
Mn2 O1 1.894858 1_555
Mn2 O4 1.894866 1_656
Mn2 O12 2.039526 1_556
Mn2 O9 2.039565 1_555
Mn2 O7 2.129260 1_565
Mn2 O2 2.129296 1_566
Mn3 O6 1.894864 1_455
Mn3 O3 1.894870 1_555
Mn3 O14 2.039529 1_555
Mn3 O11 2.039543 1_555
Mn3 O5 2.129270 1_545
Mn3 O0 2.129293 1_545
O0 Ta2 1.928177 1_555
O1 Ta3 1.928067 1_555
O2 Ta0 1.928127 1_555
O3 Ta1 1.928114 1_555
O4 Ta2 1.928076 1_555
O5 Ta3 1.928180 1_555
O6 Ta0 1.928126 1_555
O7 Ta1 1.928137 1_555
O8 Ta2 1.971283 1_655
O8 Ta0 2.093501 1_555
O9 Ta3 1.971103 1_655
O9 Ta1 2.093557 1_555
O10 Ta0 1.971191 1_455
O10 Ta2 2.093460 1_555
O11 Ta1 1.971204 1_455
O11 Ta3 2.093601 1_555
O12 Ta2 1.971126 1_555
O12 Ta0 2.093556 1_555
O13 Ta3 1.971301 1_555
O13 Ta1 2.093491 1_555
O14 Ta0 1.971217 1_555
O14 Ta2 2.093593 1_555
O15 Ta1 1.971206 1_555
O15 Ta3 2.093467 1_555
