# generated using pymatgen
data_Ba2Mg2Ti3Tl2O10
_symmetry_space_group_name_H-M   'P 1'
_cell_length_a   3.89127100
_cell_length_b   3.89694009
_cell_length_c   19.45136341
_cell_angle_alpha   95.74160815
_cell_angle_beta   95.31659635
_cell_angle_gamma   89.51071557
_symmetry_Int_Tables_number   1
_chemical_formula_structural   Ba2Mg2Ti3Tl2O10
_chemical_formula_sum   'Ba2 Mg2 Ti3 Tl2 O10'
_cell_volume   292.21901181
_cell_formula_units_Z   1
loop_
 _symmetry_equiv_pos_site_id
 _symmetry_equiv_pos_as_xyz
  1  'x, y, z'
loop_
 _atom_site_type_symbol
 _atom_site_label
 _atom_site_symmetry_multiplicity
 _atom_site_fract_x
 _atom_site_fract_y
 _atom_site_fract_z
 _atom_site_occupancy
  Ba  Ba0  1  0.15094900  0.11506800  0.31674700  1
  Ba  Ba1  1  0.86511300  0.78607600  0.68228100  1
  Mg  Mg0  1  0.99051400  0.90056800  0.90673300  1
  Mg  Mg1  1  0.05026200  0.00754100  0.09198600  1
  Ti  Ti0  1  0.46313000  0.36572100  0.82976300  1
  Ti  Ti1  1  0.58853800  0.55249400  0.16923500  1
  Ti  Ti2  1  0.42808000  0.36443800  0.99963600  1
  Tl  Tl0  1  0.72063700  0.69232400  0.43865100  1
  Tl  Tl1  1  0.28656200  0.25103100  0.56052700  1
  O  O0  1  0.97800000  0.38481600  0.85608800  1
  O  O1  1  0.41614000  0.31133700  0.73710900  1
  O  O2  1  0.48235600  0.88106300  0.85569800  1
  O  O3  1  0.77568200  0.82033400  0.55639600  1
  O  O4  1  0.35170100  0.83904700  0.99896000  1
  O  O5  1  0.58272800  0.04203000  0.14318600  1
  O  O6  1  0.62326100  0.59059600  0.26191000  1
  O  O7  1  0.07898300  0.54643000  0.14319500  1
  O  O8  1  0.23700600  0.26176200  0.44286600  1
  O  O9  1  0.90336100  0.28841400  0.99999500  1
loop_
_geom_bond_atom_site_label_1
_geom_bond_atom_site_label_2
_geom_bond_distance
_geom_bond_site_symmetry_2
Ba0 O8 2.455095 1_555
Ba0 O6 2.925033 1_545
Ba0 O6 2.951731 1_455
Ba0 O6 2.959892 1_445
Ba0 O6 2.960837 1_555
Ba1 O3 2.457934 1_555
Ba1 O1 2.868261 1_565
Ba1 O1 2.899573 1_555
Ba1 O1 3.010118 1_655
Ba1 O1 3.023111 1_665
Mg0 O2 2.127197 1_555
Mg0 O0 2.146850 1_555
Mg0 O4 2.205474 1_655
Mg0 O0 2.212557 1_565
Mg0 O2 2.233543 1_655
Mg0 O9 2.290612 1_565
Mg1 O7 2.137211 1_545
Mg1 O5 2.150481 1_455
Mg1 O5 2.213262 1_555
Mg1 O9 2.217701 1_454
Mg1 O7 2.231500 1_555
Mg1 O4 2.285542 1_544
O0 Ti0 2.000135 1_655
O0 Ti0 2.021522 1_555
O1 Ti0 1.785948 1_555
O2 Ti0 2.002110 1_565
O2 Ti0 2.021398 1_555
O3 Tl0 2.285283 1_555
O3 Tl1 2.528404 1_565
O3 Tl1 2.603059 1_665
O4 Ti2 1.871896 1_555
O4 Ti2 2.069953 1_565
O5 Ti1 2.002829 1_555
O5 Ti1 2.021652 1_545
O6 Ti1 1.786482 1_555
O7 Ti1 2.000241 1_555
O7 Ti1 2.018734 1_455
O8 Tl1 2.283452 1_555
O8 Tl0 2.544352 1_555
O8 Tl0 2.607453 1_455
O9 Ti2 1.870010 1_555
O9 Ti2 2.066459 1_655
