# generated using pymatgen
data_Mn3As2H26(S4N5)2
_symmetry_space_group_name_H-M   'P 1'
_cell_length_a   7.93789200
_cell_length_b   12.76821230
_cell_length_c   13.07627170
_cell_angle_alpha   93.56805281
_cell_angle_beta   107.66931131
_cell_angle_gamma   90.00000000
_symmetry_Int_Tables_number   1
_chemical_formula_structural   Mn3As2H26(S4N5)2
_chemical_formula_sum   'Mn6 As4 H52 S16 N20'
_cell_volume   1260.09601886
_cell_formula_units_Z   2
loop_
 _symmetry_equiv_pos_site_id
 _symmetry_equiv_pos_as_xyz
  1  'x, y, z'
loop_
 _atom_site_type_symbol
 _atom_site_label
 _atom_site_symmetry_multiplicity
 _atom_site_fract_x
 _atom_site_fract_y
 _atom_site_fract_z
 _atom_site_occupancy
  Mn  Mn0  1  0.72978800  0.01214500  0.50877400  1
  Mn  Mn1  1  0.22101400  0.48785500  0.49122600  1
  Mn  Mn2  1  0.27021200  0.98785500  0.49122600  1
  Mn  Mn3  1  0.77898600  0.51214500  0.50877400  1
  Mn  Mn4  1  0.23595600  0.25000000  0.00000000  1
  Mn  Mn5  1  0.76404400  0.75000000  0.00000000  1
  As  As0  1  0.57746300  0.07699100  0.71301500  1
  As  As1  1  0.86444800  0.42300900  0.28698500  1
  As  As2  1  0.42253700  0.92300900  0.28698500  1
  As  As3  1  0.13555200  0.57699100  0.71301500  1
  H  H0  1  0.93924000  0.87539900  0.64755800  1
  H  H1  1  0.29168200  0.62460100  0.35244200  1
  H  H2  1  0.06076000  0.12460100  0.35244200  1
  H  H3  1  0.70831800  0.37539900  0.64755800  1
  H  H4  1  0.05912300  0.98675700  0.65919100  1
  H  H5  1  0.39993200  0.51324300  0.34080900  1
  H  H6  1  0.94087700  0.01324300  0.34080900  1
  H  H7  1  0.60006800  0.48675700  0.65919100  1
  H  H8  1  0.82713200  0.17538600  0.40487300  1
  H  H9  1  0.42225800  0.32461400  0.59512700  1
  H  H10  1  0.17286800  0.82461400  0.59512700  1
  H  H11  1  0.57774200  0.67538600  0.40487300  1
  H  H12  1  0.98769900  0.16142000  0.51661200  1
  H  H13  1  0.47108700  0.33858000  0.48338800  1
  H  H14  1  0.01230100  0.83858000  0.48338800  1
  H  H15  1  0.52891300  0.66142000  0.51661200  1
  H  H16  1  0.00893400  0.37534700  0.85184000  1
  H  H17  1  0.15709500  0.12465300  0.14816000  1
  H  H18  1  0.99106600  0.62465300  0.14816000  1
  H  H19  1  0.84290500  0.87534700  0.85184000  1
  H  H20  1  0.89006200  0.26948300  0.85442000  1
  H  H21  1  0.03564100  0.23051700  0.14558000  1
  H  H22  1  0.10993800  0.73051700  0.14558000  1
  H  H23  1  0.96435900  0.76948300  0.85442000  1
  H  H24  1  0.92458800  0.36375000  0.95225500  1
  H  H25  1  0.97233300  0.13625000  0.04774500  1
  H  H26  1  0.07541200  0.63625000  0.04774500  1
  H  H27  1  0.02766700  0.86375000  0.95225500  1
  H  H28  1  0.33937200  0.45539700  0.07850000  1
  H  H29  1  0.26087100  0.04460300  0.92150000  1
  H  H30  1  0.66062800  0.54460300  0.92150000  1
  H  H31  1  0.73912900  0.95539700  0.07850000  1
  H  H32  1  0.17197700  0.42630500  0.12394600  1
  H  H33  1  0.04803100  0.07369500  0.87605400  1
  H  H34  1  0.82802300  0.57369500  0.87605400  1
  H  H35  1  0.95196900  0.92630500  0.12394600  1
  H  H36  1  0.37502900  0.38781700  0.18620700  1
  H  H37  1  0.18882200  0.11218300  0.81379300  1
  H  H38  1  0.62497100  0.61218300  0.81379300  1
  H  H39  1  0.81117800  0.88781700  0.18620700  1
  H  H40  1  0.40400100  0.39322500  0.90664500  1
  H  H41  1  0.49735600  0.10677500  0.09335500  1
  H  H42  1  0.59599900  0.60677500  0.09335500  1
  H  H43  1  0.50264400  0.89322500  0.90664500  1
  H  H44  1  0.49814100  0.27656900  0.90061100  1
  H  H45  1  0.59753000  0.22343100  0.09938900  1
  H  H46  1  0.50185900  0.72343100  0.09938900  1
  H  H47  1  0.40247000  0.77656900  0.90061100  1
  H  H48  1  0.31111100  0.30351000  0.81058200  1
  H  H49  1  0.50052900  0.19649000  0.18941800  1
  H  H50  1  0.68888900  0.69649000  0.18941800  1
  H  H51  1  0.49947100  0.80351000  0.81058200  1
  S  S0  1  0.66291500  0.07711400  0.88609300  1
  S  S1  1  0.77682200  0.42288600  0.11390700  1
  S  S2  1  0.33708500  0.92288600  0.11390700  1
  S  S3  1  0.22317800  0.57711400  0.88609300  1
  S  S4  1  0.76260800  0.16634200  0.65628200  1
  S  S5  1  0.10632600  0.33365800  0.34371800  1
  S  S6  1  0.23739200  0.83365800  0.34371800  1
  S  S7  1  0.89367400  0.66634200  0.65628200  1
  S  S8  1  0.56283900  0.92060300  0.62467600  1
  S  S9  1  0.93816300  0.57939700  0.37532400  1
  S  S10  1  0.43716100  0.07939700  0.37532400  1
  S  S11  1  0.06183700  0.42060300  0.62467600  1
  S  S12  1  0.30512600  0.13293600  0.64705300  1
  S  S13  1  0.65807300  0.36706400  0.35294700  1
  S  S14  1  0.69487400  0.86706400  0.35294700  1
  S  S15  1  0.34192700  0.63293600  0.64705300  1
  N  N0  1  0.98280200  0.93010700  0.60599000  1
  N  N1  1  0.37681200  0.56989300  0.39401000  1
  N  N2  1  0.01719800  0.06989300  0.39401000  1
  N  N3  1  0.62318800  0.43010700  0.60599000  1
  N  N4  1  0.90478900  0.12025700  0.45042500  1
  N  N5  1  0.45436400  0.37974300  0.54957500  1
  N  N6  1  0.09521100  0.87974300  0.54957500  1
  N  N7  1  0.54563600  0.62025700  0.45042500  1
  N  N8  1  0.98140300  0.32334900  0.90148100  1
  N  N9  1  0.07992200  0.17665100  0.09851900  1
  N  N10  1  0.01859700  0.67665100  0.09851900  1
  N  N11  1  0.92007800  0.82334900  0.90148100  1
  N  N12  1  0.28628600  0.39878400  0.11207200  1
  N  N13  1  0.17421400  0.10121600  0.88792800  1
  N  N14  1  0.71371400  0.60121600  0.88792800  1
  N  N15  1  0.82578600  0.89878400  0.11207200  1
  N  N16  1  0.38056300  0.31400800  0.89070800  1
  N  N17  1  0.48985500  0.18599200  0.10929200  1
  N  N18  1  0.61943700  0.68599200  0.10929200  1
  N  N19  1  0.51014500  0.81400800  0.89070800  1
loop_
_geom_bond_atom_site_label_1
_geom_bond_atom_site_label_2
_geom_bond_distance
_geom_bond_site_symmetry_2
Mn0 N4 2.278563 1_555
Mn0 N0 2.315763 1_545
Mn0 S14 2.616797 1_545
Mn0 S8 2.618975 1_545
Mn0 S4 2.624287 1_555
Mn0 S10 2.627538 1_555
Mn1 N5 2.278563 1_555
Mn1 N1 2.315763 1_555
Mn1 S15 2.616797 1_555
Mn1 S9 2.618975 1_455
Mn1 S5 2.624287 1_555
Mn1 S11 2.627538 1_555
Mn2 N6 2.278563 1_555
Mn2 N2 2.315763 1_565
Mn2 S12 2.616797 1_565
Mn2 S10 2.618975 1_565
Mn2 S6 2.624287 1_555
Mn2 S8 2.627538 1_555
Mn3 N7 2.278563 1_555
Mn3 N3 2.315763 1_555
Mn3 S13 2.616797 1_555
Mn3 S11 2.618975 1_655
Mn3 S7 2.624287 1_555
Mn3 S9 2.627538 1_555
Mn4 N17 2.273582 1_555
Mn4 N16 2.273582 1_554
Mn4 N9 2.278065 1_555
Mn4 N8 2.278065 1_454
Mn4 N12 2.283463 1_555
Mn4 N13 2.283463 1_554
Mn5 N19 2.273582 1_554
Mn5 N18 2.273582 1_555
Mn5 N11 2.278065 1_554
Mn5 N10 2.278065 1_655
Mn5 N15 2.283463 1_555
Mn5 N14 2.283463 1_554
As0 S0 2.156361 1_555
As0 S4 2.186090 1_555
As0 S12 2.207329 1_555
As0 S8 2.228571 1_545
As1 S1 2.156361 1_555
As1 S5 2.186090 1_655
As1 S13 2.207329 1_555
As1 S9 2.228571 1_555
As2 S2 2.156361 1_555
As2 S6 2.186090 1_555
As2 S14 2.207329 1_555
As2 S10 2.228571 1_565
As3 S3 2.156361 1_555
As3 S7 2.186090 1_455
As3 S15 2.207329 1_555
As3 S11 2.228571 1_555
H0 N0 1.031656 1_555
H1 N1 1.031656 1_555
H2 N2 1.031656 1_555
H3 N3 1.031656 1_555
H4 N0 1.027473 1_455
H5 N1 1.027473 1_555
H6 N2 1.027473 1_655
H7 N3 1.027473 1_555
H8 N4 1.029347 1_555
H9 N5 1.029350 1_555
H10 N6 1.029347 1_555
H11 N7 1.029350 1_555
H12 N4 1.027634 1_555
H13 N5 1.027634 1_555
H14 N6 1.027634 1_555
H15 N7 1.027634 1_555
H16 N8 1.024530 1_455
H17 N9 1.024533 1_555
H18 N10 1.024530 1_655
H19 N11 1.024533 1_555
H20 N8 1.026594 1_555
H21 N9 1.026598 1_555
H22 N10 1.026594 1_555
H23 N11 1.026598 1_555
H24 N8 1.024422 1_555
H25 N9 1.024422 1_655
H26 N10 1.024422 1_555
H27 N11 1.024422 1_455
H28 N12 1.022052 1_555
H29 N13 1.022047 1_555
H30 N14 1.022052 1_555
H31 N15 1.022047 1_555
H32 N12 1.024521 1_555
H33 N13 1.024521 1_555
H34 N14 1.024521 1_555
H35 N15 1.024521 1_555
H36 N12 1.028563 1_555
H37 N13 1.028563 1_555
H38 N14 1.028563 1_555
H39 N15 1.028563 1_555
H40 N16 1.025340 1_555
H41 N17 1.025340 1_555
H42 N18 1.025340 1_555
H43 N19 1.025340 1_555
H44 N16 1.025040 1_555
H45 N17 1.025040 1_555
H46 N18 1.025040 1_555
H47 N19 1.025040 1_555
H48 N16 1.025453 1_555
H49 N17 1.025453 1_555
H50 N18 1.025453 1_555
H51 N19 1.025453 1_555
