# generated using pymatgen
data_Ta8Ni(CS2)4
_symmetry_space_group_name_H-M   'P 1'
_cell_length_a   9.36736468
_cell_length_b   9.36736468
_cell_length_c   9.36736428
_cell_angle_alpha   41.14291153
_cell_angle_beta   41.14291153
_cell_angle_gamma   41.14290789
_symmetry_Int_Tables_number   1
_chemical_formula_structural   Ta8Ni(CS2)4
_chemical_formula_sum   'Ta8 Ni1 C4 S8'
_cell_volume   321.31235843
_cell_formula_units_Z   1
loop_
 _symmetry_equiv_pos_site_id
 _symmetry_equiv_pos_as_xyz
  1  'x, y, z'
loop_
 _atom_site_type_symbol
 _atom_site_label
 _atom_site_symmetry_multiplicity
 _atom_site_fract_x
 _atom_site_fract_y
 _atom_site_fract_z
 _atom_site_occupancy
  Ta  Ta0  1  0.88066500  0.37795500  0.37795500  1
  Ta  Ta1  1  0.87843900  0.87843900  0.87843900  1
  Ta  Ta2  1  0.37795500  0.88066500  0.37795500  1
  Ta  Ta3  1  0.37795500  0.37795500  0.88066500  1
  Ta  Ta4  1  0.11933500  0.62204500  0.62204500  1
  Ta  Ta5  1  0.12156100  0.12156100  0.12156100  1
  Ta  Ta6  1  0.62204500  0.11933500  0.62204500  1
  Ta  Ta7  1  0.62204500  0.62204500  0.11933500  1
  Ni  Ni0  1  0.00000000  0.00000000  0.00000000  1
  C  C0  1  0.00000000  0.00000000  0.50000000  1
  C  C1  1  0.00000000  0.50000000  0.00000000  1
  C  C2  1  0.50000000  0.50000000  0.50000000  1
  C  C3  1  0.50000000  0.00000000  0.00000000  1
  S  S0  1  0.72234000  0.22425700  0.22425700  1
  S  S1  1  0.72469700  0.72469700  0.72469700  1
  S  S2  1  0.22425700  0.72234000  0.22425700  1
  S  S3  1  0.22425700  0.22425700  0.72234000  1
  S  S4  1  0.27766000  0.77574300  0.77574300  1
  S  S5  1  0.27530300  0.27530300  0.27530300  1
  S  S6  1  0.77574300  0.27766000  0.77574300  1
  S  S7  1  0.77574300  0.77574300  0.27766000  1
loop_
_geom_bond_atom_site_label_1
_geom_bond_atom_site_label_2
_geom_bond_distance
_geom_bond_site_symmetry_2
Ni0 S2 2.403906 1_545
Ni0 S0 2.403906 1_455
Ni0 S6 2.403906 1_454
Ni0 S4 2.403906 1_544
Ni0 S3 2.403906 1_554
Ni0 S7 2.403906 1_445
C0 Ta1 2.225636 1_445
C0 Ta5 2.225636 1_555
C0 Ta0 2.226895 1_455
C0 Ta2 2.226895 1_545
C0 Ta6 2.226895 1_455
C0 Ta4 2.226895 1_545
C1 Ta1 2.225636 1_454
C1 Ta5 2.225636 1_555
C1 Ta0 2.226895 1_455
C1 Ta4 2.226895 1_554
C1 Ta3 2.226895 1_554
C1 Ta7 2.226895 1_455
C2 Ta3 2.240041 1_555
C2 Ta7 2.240041 1_555
C2 Ta2 2.240041 1_555
C2 Ta0 2.240041 1_555
C2 Ta6 2.240041 1_555
C2 Ta4 2.240041 1_555
C3 Ta1 2.225636 1_544
C3 Ta5 2.225636 1_555
C3 Ta2 2.226895 1_545
C3 Ta6 2.226895 1_554
C3 Ta3 2.226895 1_554
C3 Ta7 2.226895 1_545
S0 Ta6 2.517046 1_555
S0 Ta7 2.517046 1_555
S0 Ta5 2.528425 1_655
S1 Ta7 2.489960 1_556
S1 Ta4 2.489960 1_655
S1 Ta6 2.489960 1_565
S2 Ta4 2.517046 1_555
S2 Ta7 2.517046 1_555
S2 Ta5 2.528425 1_565
S3 Ta6 2.517046 1_555
S3 Ta4 2.517046 1_555
S3 Ta5 2.528425 1_556
S4 Ta2 2.517046 1_555
S4 Ta3 2.517046 1_555
S4 Ta1 2.528425 1_455
S5 Ta3 2.489960 1_554
S5 Ta2 2.489960 1_545
S5 Ta0 2.489960 1_455
S6 Ta0 2.517046 1_555
S6 Ta3 2.517046 1_555
S6 Ta1 2.528425 1_545
S7 Ta0 2.517046 1_555
S7 Ta2 2.517046 1_555
S7 Ta1 2.528425 1_554
