# generated using pymatgen
data_CaNdCoO4
_symmetry_space_group_name_H-M   'P 1'
_cell_length_a   6.63760150
_cell_length_b   6.63760150
_cell_length_c   6.63760150
_cell_angle_alpha   146.92405769
_cell_angle_beta   146.92405769
_cell_angle_gamma   47.47624037
_symmetry_Int_Tables_number   1
_chemical_formula_structural   CaNdCoO4
_chemical_formula_sum   'Ca1 Nd1 Co1 O4'
_cell_volume   86.76140754
_cell_formula_units_Z   1
loop_
 _symmetry_equiv_pos_site_id
 _symmetry_equiv_pos_as_xyz
  1  'x, y, z'
loop_
 _atom_site_type_symbol
 _atom_site_label
 _atom_site_symmetry_multiplicity
 _atom_site_fract_x
 _atom_site_fract_y
 _atom_site_fract_z
 _atom_site_occupancy
  Ca  Ca0  1  0.64108900  0.64108900  0.00000000  1
  Nd  Nd0  1  0.35859700  0.35859700  0.00000000  1
  Co  Co0  1  0.00489400  0.00489400  0.00000000  1
  O  O0  1  0.83070500  0.83070500  0.00000000  1
  O  O1  1  0.17129500  0.17129500  0.00000000  1
  O  O2  1  0.99671000  0.49671000  0.50000000  1
  O  O3  1  0.49671000  0.99671000  0.50000000  1
loop_
_geom_bond_atom_site_label_1
_geom_bond_atom_site_label_2
_geom_bond_distance
_geom_bond_site_symmetry_2
Ca0 O0 2.304224 1_555
Ca0 O3 2.578391 1_555
Ca0 O2 2.578391 1_555
Ca0 O2 2.578391 1_454
Ca0 O3 2.578391 1_544
Ca0 O1 2.697107 1_554
Ca0 O1 2.697107 1_655
Ca0 O1 2.697107 1_565
Ca0 O1 2.697107 1_666
Nd0 O1 2.276104 1_555
Nd0 O3 2.527193 1_544
Nd0 O2 2.527193 1_454
Nd0 O2 2.527193 1_555
Nd0 O3 2.527193 1_555
Nd0 O0 2.693424 1_444
Nd0 O0 2.693424 1_545
Nd0 O0 2.693424 1_455
Nd0 O0 2.693424 1_556
Co0 O3 1.892014 1_545
Co0 O2 1.892014 1_455
Co0 O2 1.892014 1_444
Co0 O3 1.892014 1_444
Co0 O1 2.022114 1_555
Co0 O0 2.116754 1_445
