# generated using pymatgen
data_Ca2MgWO6
_symmetry_space_group_name_H-M   'P 1'
_cell_length_a   5.63732400
_cell_length_b   5.47486900
_cell_length_c   9.53096899
_cell_angle_alpha   55.11890557
_cell_angle_beta   90.00000000
_cell_angle_gamma   90.00000000
_symmetry_Int_Tables_number   1
_chemical_formula_structural   Ca2MgWO6
_chemical_formula_sum   'Ca4 Mg2 W2 O12'
_cell_volume   241.31148976
_cell_formula_units_Z   2
loop_
 _symmetry_equiv_pos_site_id
 _symmetry_equiv_pos_as_xyz
  1  'x, y, z'
loop_
 _atom_site_type_symbol
 _atom_site_label
 _atom_site_symmetry_multiplicity
 _atom_site_fract_x
 _atom_site_fract_y
 _atom_site_fract_z
 _atom_site_occupancy
  Ca  Ca0  1  0.94917500  0.76451200  0.24751200  1
  Ca  Ca1  1  0.44917500  0.23548800  0.25248800  1
  Ca  Ca2  1  0.55082500  0.76451200  0.74751200  1
  Ca  Ca3  1  0.05082500  0.23548800  0.75248800  1
  Mg  Mg0  1  0.50000000  0.00000000  0.00000000  1
  Mg  Mg1  1  0.00000000  0.00000000  0.50000000  1
  W  W0  1  0.00000000  0.50000000  0.00000000  1
  W  W1  1  0.50000000  0.50000000  0.50000000  1
  O  O0  1  0.69530500  0.83269100  0.45500000  1
  O  O1  1  0.19530500  0.16730900  0.04500000  1
  O  O2  1  0.30469500  0.16730900  0.54500000  1
  O  O3  1  0.80469500  0.83269100  0.95500000  1
  O  O4  1  0.78465300  0.25672100  0.55153000  1
  O  O5  1  0.28465300  0.74327900  0.94847000  1
  O  O6  1  0.21534700  0.74327900  0.44847000  1
  O  O7  1  0.71534700  0.25672100  0.05153000  1
  O  O8  1  0.53058300  0.64854200  0.25928100  1
  O  O9  1  0.03058300  0.35145800  0.24071900  1
  O  O10  1  0.46941700  0.35145800  0.74071900  1
  O  O11  1  0.96941700  0.64854200  0.75928100  1
loop_
_geom_bond_atom_site_label_1
_geom_bond_atom_site_label_2
_geom_bond_distance
_geom_bond_site_symmetry_2
Ca0 O9 2.344412 1_655
Ca0 O1 2.376021 1_665
Ca0 O6 2.383027 1_655
Ca0 O8 2.429530 1_555
Ca0 O7 2.594472 1_565
Ca0 O0 2.634871 1_555
Ca0 O3 2.717532 1_554
Ca0 O4 2.787751 1_555
Ca1 O8 2.344412 1_555
Ca1 O0 2.376021 1_545
Ca1 O7 2.383027 1_555
Ca1 O9 2.429530 1_555
Ca1 O6 2.594472 1_545
Ca1 O1 2.634871 1_555
Ca1 O2 2.717532 1_555
Ca1 O5 2.787751 1_554
Ca2 O10 2.344412 1_555
Ca2 O2 2.376021 1_565
Ca2 O5 2.383027 1_555
Ca2 O11 2.429530 1_555
Ca2 O4 2.594472 1_565
Ca2 O3 2.634871 1_555
Ca2 O0 2.717532 1_555
Ca2 O7 2.787751 1_556
Ca3 O11 2.344412 1_455
Ca3 O3 2.376021 1_445
Ca3 O4 2.383027 1_455
Ca3 O10 2.429530 1_555
Ca3 O5 2.594472 1_545
Ca3 O2 2.634871 1_555
Ca3 O1 2.717532 1_556
Ca3 O6 2.787751 1_555
Mg0 O8 2.097726 1_545
Mg0 O10 2.097726 1_554
Mg0 O1 2.103023 1_555
Mg0 O3 2.103023 1_544
Mg0 O7 2.116589 1_555
Mg0 O5 2.116589 1_544
Mg1 O11 2.097726 1_445
Mg1 O9 2.097726 1_555
Mg1 O2 2.103023 1_555
Mg1 O0 2.103023 1_445
Mg1 O4 2.116589 1_455
Mg1 O6 2.116589 1_545
O0 W1 1.954555 1_555
O1 W0 1.954555 1_555
O2 W1 1.954555 1_555
O3 W0 1.954555 1_656
O4 W1 1.960113 1_555
O5 W0 1.960113 1_556
O6 W1 1.960113 1_555
O7 W0 1.960113 1_655
O8 W1 1.954688 1_555
O9 W0 1.954688 1_555
O10 W1 1.954688 1_555
O11 W0 1.954688 1_656
