# generated using pymatgen
data_NbPt4
_symmetry_space_group_name_H-M   'P 1'
_cell_length_a   23.46792022
_cell_length_b   23.46792022
_cell_length_c   23.46792168
_cell_angle_alpha   13.85792316
_cell_angle_beta   13.85792316
_cell_angle_gamma   13.85792356
_symmetry_Int_Tables_number   1
_chemical_formula_structural   NbPt4
_chemical_formula_sum   'Nb8 Pt32'
_cell_volume   645.25617893
_cell_formula_units_Z   8
loop_
 _symmetry_equiv_pos_site_id
 _symmetry_equiv_pos_as_xyz
  1  'x, y, z'
loop_
 _atom_site_type_symbol
 _atom_site_label
 _atom_site_symmetry_multiplicity
 _atom_site_fract_x
 _atom_site_fract_y
 _atom_site_fract_z
 _atom_site_occupancy
  Nb  Nb0_0  1  0.00000000  0.00000000  0.00000000  1
  Nb  Nb0_1  1  0.00000000  0.00000000  0.50000000  1
  Nb  Nb0_2  1  0.00000000  0.50000000  0.00000000  1
  Nb  Nb0_3  1  0.00000000  0.50000000  0.50000000  1
  Nb  Nb0_4  1  0.50000000  0.00000000  0.00000000  1
  Nb  Nb0_5  1  0.50000000  0.00000000  0.50000000  1
  Nb  Nb0_6  1  0.50000000  0.50000000  0.00000000  1
  Nb  Nb0_7  1  0.50000000  0.50000000  0.50000000  1
  Pt  Pt0_0  1  0.30064000  0.30064000  0.30064000  1
  Pt  Pt0_1  1  0.30064000  0.30064000  0.80064000  1
  Pt  Pt0_2  1  0.30064000  0.80064000  0.30064000  1
  Pt  Pt0_3  1  0.30064000  0.80064000  0.80064000  1
  Pt  Pt0_4  1  0.80064000  0.30064000  0.30064000  1
  Pt  Pt0_5  1  0.80064000  0.30064000  0.80064000  1
  Pt  Pt0_6  1  0.80064000  0.80064000  0.30064000  1
  Pt  Pt0_7  1  0.80064000  0.80064000  0.80064000  1
  Pt  Pt1_0  1  0.09996900  0.09996900  0.09996900  1
  Pt  Pt1_1  1  0.09996900  0.09996900  0.59996900  1
  Pt  Pt1_2  1  0.09996900  0.59996900  0.09996900  1
  Pt  Pt1_3  1  0.09996900  0.59996900  0.59996900  1
  Pt  Pt1_4  1  0.59996900  0.09996900  0.09996900  1
  Pt  Pt1_5  1  0.59996900  0.09996900  0.59996900  1
  Pt  Pt1_6  1  0.59996900  0.59996900  0.09996900  1
  Pt  Pt1_7  1  0.59996900  0.59996900  0.59996900  1
  Pt  Pt2_0  1  0.40003100  0.40003100  0.40003100  1
  Pt  Pt2_1  1  0.40003100  0.40003100  0.90003100  1
  Pt  Pt2_2  1  0.40003100  0.90003100  0.40003100  1
  Pt  Pt2_3  1  0.40003100  0.90003100  0.90003100  1
  Pt  Pt2_4  1  0.90003100  0.40003100  0.40003100  1
  Pt  Pt2_5  1  0.90003100  0.40003100  0.90003100  1
  Pt  Pt2_6  1  0.90003100  0.90003100  0.40003100  1
  Pt  Pt2_7  1  0.90003100  0.90003100  0.90003100  1
  Pt  Pt3_0  1  0.19936000  0.19936000  0.19936000  1
  Pt  Pt3_1  1  0.19936000  0.19936000  0.69936000  1
  Pt  Pt3_2  1  0.19936000  0.69936000  0.19936000  1
  Pt  Pt3_3  1  0.19936000  0.69936000  0.69936000  1
  Pt  Pt3_4  1  0.69936000  0.19936000  0.19936000  1
  Pt  Pt3_5  1  0.69936000  0.19936000  0.69936000  1
  Pt  Pt3_6  1  0.69936000  0.69936000  0.19936000  1
  Pt  Pt3_7  1  0.69936000  0.69936000  0.69936000  1
loop_
_geom_bond_atom_site_label_1
_geom_bond_atom_site_label_2
_geom_bond_distance
_geom_bond_site_symmetry_2
Nb0_0 Pt3_1 2.804808 1_554
Nb0_0 Pt0_6 2.804808 1_445
Nb0_0 Pt3_4 2.804809 1_455
Nb0_0 Pt3_2 2.804809 1_545
Nb0_0 Pt0_3 2.804809 1_544
Nb0_0 Pt0_5 2.804809 1_454
Nb0_0 Nb0_6 2.831138 1_455
Nb0_0 Nb0_6 2.831138 1_545
Nb0_0 Nb0_5 2.831138 1_455
Nb0_0 Nb0_3 2.831138 1_554
Nb0_0 Nb0_5 2.831138 1_554
Nb0_0 Nb0_3 2.831138 1_545
Nb0_1 Pt0_7 2.804808 1_445
Nb0_1 Pt3_0 2.804808 1_555
Nb0_1 Pt3_3 2.804809 1_545
Nb0_1 Pt3_5 2.804809 1_455
Nb0_1 Pt0_4 2.804809 1_455
Nb0_1 Pt0_2 2.804809 1_545
Nb0_1 Nb0_7 2.831138 1_545
Nb0_1 Nb0_7 2.831138 1_455
Nb0_1 Nb0_4 2.831138 1_555
Nb0_1 Nb0_2 2.831138 1_555
Nb0_1 Nb0_2 2.831138 1_546
Nb0_1 Nb0_4 2.831138 1_456
Nb0_2 Pt3_3 2.804808 1_554
Nb0_2 Pt0_4 2.804808 1_455
Nb0_2 Pt0_7 2.804809 1_454
Nb0_2 Pt3_6 2.804809 1_455
Nb0_2 Pt3_0 2.804809 1_555
Nb0_2 Pt0_1 2.804809 1_554
Nb0_2 Nb0_4 2.831138 1_555
Nb0_2 Nb0_4 2.831138 1_465
Nb0_2 Nb0_7 2.831138 1_554
Nb0_2 Nb0_7 2.831138 1_455
Nb0_3 Pt3_2 2.804808 1_555
Nb0_3 Pt0_5 2.804808 1_455
Nb0_3 Pt0_0 2.804809 1_555
Nb0_3 Pt3_1 2.804809 1_555
Nb0_3 Pt3_7 2.804809 1_455
Nb0_3 Pt0_6 2.804809 1_455
Nb0_3 Nb0_5 2.831138 1_555
Nb0_3 Nb0_5 2.831138 1_465
Nb0_3 Nb0_6 2.831138 1_456
Nb0_3 Nb0_6 2.831138 1_555
Nb0_4 Pt3_5 2.804808 1_554
Nb0_4 Pt0_2 2.804808 1_545
Nb0_4 Pt0_7 2.804809 1_544
Nb0_4 Pt3_6 2.804809 1_545
Nb0_4 Pt3_0 2.804809 1_555
Nb0_4 Pt0_1 2.804809 1_554
Nb0_4 Nb0_7 2.831138 1_545
Nb0_4 Nb0_7 2.831138 1_554
Nb0_5 Pt3_4 2.804808 1_555
Nb0_5 Pt0_3 2.804808 1_545
Nb0_5 Pt0_0 2.804809 1_555
Nb0_5 Pt3_1 2.804809 1_555
Nb0_5 Pt3_7 2.804809 1_545
Nb0_5 Pt0_6 2.804809 1_545
Nb0_5 Nb0_6 2.831138 1_546
Nb0_5 Nb0_6 2.831138 1_555
Nb0_6 Pt0_0 2.804808 1_555
Nb0_6 Pt3_7 2.804808 1_554
Nb0_6 Pt3_4 2.804809 1_555
Nb0_6 Pt3_2 2.804809 1_555
Nb0_6 Pt0_3 2.804809 1_554
Nb0_6 Pt0_5 2.804809 1_554
Nb0_7 Pt3_6 2.804808 1_555
Nb0_7 Pt0_1 2.804808 1_555
Nb0_7 Pt3_5 2.804809 1_555
Nb0_7 Pt3_3 2.804809 1_555
Nb0_7 Pt0_2 2.804809 1_555
Nb0_7 Pt0_4 2.804809 1_555
Pt0_0 Pt1_1 2.879576 1_555
Pt0_0 Pt1_4 2.879576 1_555
Pt0_0 Pt1_2 2.879576 1_555
Pt0_1 Pt1_0 2.879576 1_556
Pt0_1 Pt1_5 2.879576 1_555
Pt0_1 Pt1_3 2.879576 1_555
Pt0_2 Pt1_3 2.879576 1_555
Pt0_2 Pt1_0 2.879576 1_565
Pt0_2 Pt1_6 2.879576 1_555
Pt0_3 Pt1_2 2.879576 1_556
Pt0_3 Pt1_7 2.879576 1_555
Pt0_3 Pt1_1 2.879576 1_565
Pt0_4 Pt1_5 2.879576 1_555
Pt0_4 Pt1_0 2.879576 1_655
Pt0_4 Pt1_6 2.879576 1_555
Pt0_5 Pt1_4 2.879576 1_556
Pt0_5 Pt1_7 2.879576 1_555
Pt0_5 Pt1_1 2.879576 1_655
Pt0_6 Pt1_7 2.879576 1_555
Pt0_6 Pt1_2 2.879576 1_655
Pt0_6 Pt1_4 2.879576 1_565
Pt0_7 Pt1_6 2.879576 1_556
Pt0_7 Pt1_3 2.879576 1_655
Pt0_7 Pt1_5 2.879576 1_565
Pt1_0 Pt1_6 2.831138 1_455
Pt1_0 Pt1_6 2.831138 1_545
Pt1_0 Pt1_5 2.831138 1_554
Pt1_0 Pt1_3 2.831138 1_554
Pt1_0 Pt1_5 2.831138 1_455
Pt1_0 Pt1_3 2.831138 1_545
Pt1_0 Pt2_6 2.837652 1_445
Pt1_0 Pt2_5 2.837653 1_454
Pt1_0 Pt2_3 2.837653 1_544
Pt1_1 Pt1_7 2.831138 1_455
Pt1_1 Pt1_7 2.831138 1_545
Pt1_1 Pt1_2 2.831138 1_546
Pt1_1 Pt1_4 2.831138 1_555
Pt1_1 Pt1_2 2.831138 1_555
Pt1_1 Pt1_4 2.831138 1_456
Pt1_1 Pt2_7 2.837652 1_445
Pt1_1 Pt2_4 2.837653 1_455
Pt1_1 Pt2_2 2.837653 1_545
Pt1_2 Pt1_4 2.831138 1_555
Pt1_2 Pt1_4 2.831138 1_465
Pt1_2 Pt1_7 2.831138 1_455
Pt1_2 Pt1_7 2.831138 1_554
Pt1_2 Pt2_4 2.837652 1_455
Pt1_2 Pt2_7 2.837653 1_454
Pt1_2 Pt2_1 2.837653 1_554
Pt1_3 Pt1_5 2.831138 1_555
Pt1_3 Pt1_5 2.831138 1_465
Pt1_3 Pt1_6 2.831138 1_456
Pt1_3 Pt1_6 2.831138 1_555
Pt1_3 Pt2_5 2.837652 1_455
Pt1_3 Pt2_0 2.837653 1_555
Pt1_3 Pt2_6 2.837653 1_455
Pt1_4 Pt1_7 2.831138 1_554
Pt1_4 Pt1_7 2.831138 1_545
Pt1_4 Pt2_2 2.837652 1_545
Pt1_4 Pt2_1 2.837653 1_554
Pt1_4 Pt2_7 2.837653 1_544
Pt1_5 Pt1_6 2.831138 1_546
Pt1_5 Pt1_6 2.831138 1_555
Pt1_5 Pt2_3 2.837652 1_545
Pt1_5 Pt2_0 2.837653 1_555
Pt1_5 Pt2_6 2.837653 1_545
Pt1_6 Pt2_0 2.837652 1_555
Pt1_6 Pt2_5 2.837653 1_554
Pt1_6 Pt2_3 2.837653 1_554
Pt1_7 Pt2_1 2.837652 1_555
Pt1_7 Pt2_2 2.837653 1_555
Pt1_7 Pt2_4 2.837653 1_555
Pt2_0 Pt2_6 2.831138 1_455
Pt2_0 Pt2_6 2.831138 1_545
Pt2_0 Pt2_5 2.831138 1_554
Pt2_0 Pt2_3 2.831138 1_554
Pt2_0 Pt2_5 2.831138 1_455
Pt2_0 Pt2_3 2.831138 1_545
Pt2_0 Pt3_1 2.879576 1_555
Pt2_0 Pt3_4 2.879576 1_555
Pt2_0 Pt3_2 2.879576 1_555
Pt2_1 Pt2_7 2.831138 1_545
Pt2_1 Pt2_7 2.831138 1_455
Pt2_1 Pt2_4 2.831138 1_456
Pt2_1 Pt2_2 2.831138 1_546
Pt2_1 Pt2_4 2.831138 1_555
Pt2_1 Pt2_2 2.831138 1_555
Pt2_1 Pt3_0 2.879576 1_556
Pt2_1 Pt3_3 2.879576 1_555
Pt2_1 Pt3_5 2.879576 1_555
Pt2_2 Pt2_4 2.831138 1_555
Pt2_2 Pt2_4 2.831138 1_465
Pt2_2 Pt2_7 2.831138 1_554
Pt2_2 Pt2_7 2.831138 1_455
Pt2_2 Pt3_3 2.879576 1_555
Pt2_2 Pt3_0 2.879576 1_565
Pt2_2 Pt3_6 2.879576 1_555
Pt2_3 Pt2_5 2.831138 1_465
Pt2_3 Pt2_5 2.831138 1_555
Pt2_3 Pt2_6 2.831138 1_456
Pt2_3 Pt2_6 2.831138 1_555
Pt2_3 Pt3_2 2.879576 1_556
Pt2_3 Pt3_7 2.879576 1_555
Pt2_3 Pt3_1 2.879576 1_565
Pt2_4 Pt2_7 2.831138 1_554
Pt2_4 Pt2_7 2.831138 1_545
Pt2_4 Pt3_5 2.879576 1_555
Pt2_4 Pt3_0 2.879576 1_655
Pt2_4 Pt3_6 2.879576 1_555
Pt2_5 Pt2_6 2.831138 1_546
Pt2_5 Pt2_6 2.831138 1_555
Pt2_5 Pt3_4 2.879576 1_556
Pt2_5 Pt3_7 2.879576 1_555
Pt2_5 Pt3_1 2.879576 1_655
Pt2_6 Pt3_7 2.879576 1_555
Pt2_6 Pt3_4 2.879576 1_565
Pt2_6 Pt3_2 2.879576 1_655
Pt2_7 Pt3_6 2.879576 1_556
Pt2_7 Pt3_5 2.879576 1_565
Pt2_7 Pt3_3 2.879576 1_655
