# generated using pymatgen
data_RbTm(MoO4)2
_symmetry_space_group_name_H-M   'P 1'
_cell_length_a   7.49138719
_cell_length_b   7.49138719
_cell_length_c   7.71389008
_cell_angle_alpha   61.87207870
_cell_angle_beta   61.87207870
_cell_angle_gamma   88.07787895
_symmetry_Int_Tables_number   1
_chemical_formula_structural   RbTm(MoO4)2
_chemical_formula_sum   'Rb2 Tm2 Mo4 O16'
_cell_volume   326.63073987
_cell_formula_units_Z   2
loop_
 _symmetry_equiv_pos_site_id
 _symmetry_equiv_pos_as_xyz
  1  'x, y, z'
loop_
 _atom_site_type_symbol
 _atom_site_label
 _atom_site_symmetry_multiplicity
 _atom_site_fract_x
 _atom_site_fract_y
 _atom_site_fract_z
 _atom_site_occupancy
  Rb  Rb0  1  0.19806300  0.80193700  0.75000000  1
  Rb  Rb1  1  0.80193700  0.19806300  0.25000000  1
  Tm  Tm0  1  0.77114500  0.22885500  0.75000000  1
  Tm  Tm1  1  0.22885500  0.77114500  0.25000000  1
  Mo  Mo0  1  0.69665500  0.69653100  0.76363700  1
  Mo  Mo1  1  0.30334500  0.30346900  0.23636300  1
  Mo  Mo2  1  0.30346900  0.30334500  0.73636300  1
  Mo  Mo3  1  0.69653100  0.69665500  0.26363700  1
  O  O0  1  0.61480300  0.76615400  0.56104600  1
  O  O1  1  0.38519700  0.23384600  0.43895400  1
  O  O2  1  0.23384600  0.38519700  0.93895400  1
  O  O3  1  0.76615400  0.61480300  0.06104600  1
  O  O4  1  0.38112300  0.06481300  0.87974600  1
  O  O5  1  0.61887700  0.93518700  0.12025400  1
  O  O6  1  0.93518700  0.61887700  0.62025400  1
  O  O7  1  0.06481300  0.38112300  0.37974600  1
  O  O8  1  0.58699300  0.36694400  0.96696700  1
  O  O9  1  0.41300700  0.63305600  0.03303300  1
  O  O10  1  0.63305600  0.41300700  0.53303300  1
  O  O11  1  0.36694400  0.58699300  0.46696700  1
  O  O12  1  0.79145700  0.95498500  0.69401400  1
  O  O13  1  0.20854300  0.04501500  0.30598700  1
  O  O14  1  0.04501500  0.20854300  0.80598600  1
  O  O15  1  0.95498500  0.79145700  0.19401400  1
loop_
_geom_bond_atom_site_label_1
_geom_bond_atom_site_label_2
_geom_bond_distance
_geom_bond_site_symmetry_2
Mo0 O0 1.789917 1_555
Mo0 O12 1.814871 1_555
Mo0 O6 1.851563 1_555
Mo0 O9 2.008071 1_556
Mo0 O8 2.121543 1_555
Mo0 O3 2.385296 1_556
Mo1 O1 1.789917 1_555
Mo1 O13 1.814868 1_555
Mo1 O7 1.851563 1_555
Mo1 O8 2.008071 1_554
Mo1 O9 2.121543 1_555
Mo1 O2 2.385296 1_554
Mo2 O2 1.789917 1_555
Mo2 O14 1.814871 1_555
Mo2 O4 1.851563 1_555
Mo2 O11 2.008071 1_555
Mo2 O10 2.121543 1_555
Mo2 O1 2.385296 1_555
Mo3 O3 1.789917 1_555
Mo3 O15 1.814871 1_555
Mo3 O5 1.851563 1_555
Mo3 O10 2.008071 1_555
Mo3 O11 2.121543 1_555
Mo3 O0 2.385296 1_555
O0 Rb0 2.822181 1_555
O0 Rb1 2.829159 1_565
O1 Rb1 2.822181 1_555
O1 Rb0 2.829159 1_545
O2 Rb0 2.822181 1_555
O2 Rb1 2.829159 1_456
O3 Rb1 2.822181 1_555
O3 Rb0 2.829159 1_654
O4 Tm1 2.338891 1_546
O4 Tm0 2.715283 1_555
O4 Rb0 3.177141 1_545
O5 Tm0 2.338891 1_564
O5 Tm1 2.715283 1_555
O5 Rb1 3.177141 1_565
O6 Tm1 2.338891 1_655
O6 Tm0 2.715283 1_555
O6 Rb0 3.177141 1_655
O7 Tm0 2.338891 1_455
O7 Tm1 2.715283 1_555
O7 Rb1 3.177141 1_455
O8 Tm0 2.265869 1_555
O8 Rb1 3.087700 1_556
O9 Tm1 2.265869 1_555
O9 Rb0 3.087700 1_554
O10 Tm0 2.265869 1_555
O10 Rb1 3.087700 1_555
O11 Tm1 2.265869 1_555
O11 Rb0 3.087700 1_555
O12 Tm0 2.274102 1_565
O12 Rb1 2.988071 1_565
O12 Rb0 3.364320 1_655
O13 Tm1 2.274107 1_545
O13 Rb0 2.988064 1_545
O13 Rb1 3.364323 1_455
O14 Tm0 2.274102 1_455
O14 Rb1 2.988071 1_456
O14 Rb0 3.364320 1_545
O15 Tm1 2.274102 1_655
O15 Rb0 2.988071 1_654
O15 Rb1 3.364320 1_565
