# generated using pymatgen
data_LaZnCrSnO6
_symmetry_space_group_name_H-M   'P 1'
_cell_length_a   5.60066200
_cell_length_b   5.45726800
_cell_length_c   9.60800675
_cell_angle_alpha   55.63226930
_cell_angle_beta   90.00000000
_cell_angle_gamma   90.00000000
_symmetry_Int_Tables_number   1
_chemical_formula_structural   LaZnCrSnO6
_chemical_formula_sum   'La2 Zn2 Cr2 Sn2 O12'
_cell_volume   242.39799051
_cell_formula_units_Z   2
loop_
 _symmetry_equiv_pos_site_id
 _symmetry_equiv_pos_as_xyz
  1  'x, y, z'
loop_
 _atom_site_type_symbol
 _atom_site_label
 _atom_site_symmetry_multiplicity
 _atom_site_fract_x
 _atom_site_fract_y
 _atom_site_fract_z
 _atom_site_occupancy
  La  La0  1  0.28703500  0.76124600  0.24995900  1
  La  La1  1  0.71296500  0.76124600  0.74995900  1
  Zn  Zn0  1  0.78077200  0.23989700  0.24917800  1
  Zn  Zn1  1  0.21922800  0.23989700  0.74917800  1
  Cr  Cr0  1  0.24622500  0.00086800  0.49947600  1
  Cr  Cr1  1  0.75377500  0.00086800  0.99947600  1
  Sn  Sn0  1  0.24494800  0.50074400  0.99865800  1
  Sn  Sn1  1  0.75505200  0.50074400  0.49865800  1
  O  O0  1  0.80399300  0.33628900  0.75416700  1
  O  O1  1  0.03193700  0.14735700  0.05830700  1
  O  O2  1  0.04317900  0.76949700  0.44401300  1
  O  O3  1  0.56082600  0.24695200  0.06306200  1
  O  O4  1  0.55754500  0.87933100  0.43608600  1
  O  O5  1  0.27948100  0.61781800  0.74709200  1
  O  O6  1  0.19600700  0.33628900  0.25416700  1
  O  O7  1  0.96806300  0.14735700  0.55830700  1
  O  O8  1  0.95682100  0.76949700  0.94401300  1
  O  O9  1  0.43917400  0.24695200  0.56306200  1
  O  O10  1  0.44245500  0.87933100  0.93608600  1
  O  O11  1  0.72051900  0.61781800  0.24709200  1
loop_
_geom_bond_atom_site_label_1
_geom_bond_atom_site_label_2
_geom_bond_distance
_geom_bond_site_symmetry_2
La0 O2 2.332028 1_555
La0 O1 2.343357 1_565
La0 O6 2.352432 1_555
La0 O11 2.555770 1_555
La0 O4 2.685099 1_555
La0 O3 2.688487 1_565
La0 O10 2.841355 1_554
La0 O9 2.849684 1_555
La1 O8 2.332028 1_555
La1 O7 2.343357 1_565
La1 O0 2.352432 1_555
La1 O5 2.555770 1_555
La1 O10 2.685099 1_555
La1 O9 2.688487 1_565
La1 O4 2.841355 1_555
La1 O3 2.849684 1_556
Cr0 O7 1.973776 1_455
Cr0 O2 1.982707 1_545
Cr0 O6 2.028301 1_555
Cr0 O9 2.066598 1_555
Cr0 O4 2.075347 1_545
Cr0 O5 2.109440 1_545
Cr1 O1 1.973776 1_656
Cr1 O8 1.982707 1_545
Cr1 O0 2.028301 1_555
Cr1 O3 2.066598 1_556
Cr1 O10 2.075347 1_545
Cr1 O11 2.109440 1_546
O0 Sn1 2.102336 1_555
O0 Zn1 2.390785 1_655
O1 Sn0 2.055016 1_554
O2 Sn1 2.039950 1_455
O3 Sn0 2.112669 1_554
O3 Zn0 2.153802 1_555
O4 Sn1 2.109806 1_555
O4 Zn0 2.161104 1_565
O5 Zn1 2.078743 1_555
O5 Sn0 2.131724 1_555
O6 Sn0 2.102336 1_554
O6 Zn0 2.390785 1_455
O7 Sn1 2.055016 1_555
O8 Sn0 2.039950 1_655
O9 Sn1 2.112669 1_555
O9 Zn1 2.153802 1_555
O10 Sn0 2.109806 1_555
O10 Zn1 2.161104 1_565
O11 Zn0 2.078743 1_555
O11 Sn1 2.131724 1_555
