# generated using pymatgen
data_Sr2Ca6Mn8O23
_symmetry_space_group_name_H-M   'P 1'
_cell_length_a   10.92090574
_cell_length_b   15.38895693
_cell_length_c   10.81983944
_cell_angle_alpha   90.14869111
_cell_angle_beta   90.31616925
_cell_angle_gamma   90.04712869
_symmetry_Int_Tables_number   1
_chemical_formula_structural   Sr2Ca6Mn8O23
_chemical_formula_sum   'Sr8 Ca24 Mn32 O92'
_cell_volume   1818.36235532
_cell_formula_units_Z   4
loop_
 _symmetry_equiv_pos_site_id
 _symmetry_equiv_pos_as_xyz
  1  'x, y, z'
loop_
 _atom_site_type_symbol
 _atom_site_label
 _atom_site_symmetry_multiplicity
 _atom_site_fract_x
 _atom_site_fract_y
 _atom_site_fract_z
 _atom_site_occupancy
  Sr  Sr0  1  0.01159146  0.12145858  0.50085391  1
  Sr  Sr1  1  0.00884109  0.12015597  0.99456647  1
  Sr  Sr2  1  0.49644597  0.38101146  0.99724451  1
  Sr  Sr3  1  0.48773849  0.38128998  0.50480616  1
  Sr  Sr4  1  0.23846461  0.38574592  0.25280242  1
  Sr  Sr5  1  0.23453325  0.37852883  0.74450468  1
  Sr  Sr6  1  0.24452718  0.11695648  0.25951648  1
  Sr  Sr7  1  0.26236054  0.12068935  0.74120027  1
  Ca  Ca0  1  0.02105635  0.62604636  0.49555500  1
  Ca  Ca1  1  0.02162327  0.62667195  0.99467049  1
  Ca  Ca2  1  0.52399534  0.13002327  0.50834348  1
  Ca  Ca3  1  0.53175169  0.12122280  0.97319964  1
  Ca  Ca4  1  0.52354502  0.62497420  0.49784470  1
  Ca  Ca5  1  0.52039195  0.62570975  0.99494870  1
  Ca  Ca6  1  0.48108288  0.86992438  0.99558026  1
  Ca  Ca7  1  0.48054348  0.86531186  0.51628541  1
  Ca  Ca8  1  0.96727499  0.38472876  0.99789546  1
  Ca  Ca9  1  0.97821223  0.37706145  0.50496289  1
  Ca  Ca10  1  0.97762340  0.87299400  0.00448652  1
  Ca  Ca11  1  0.97311133  0.87256056  0.50526376  1
  Ca  Ca12  1  0.22258339  0.87110615  0.24321080  1
  Ca  Ca13  1  0.22744343  0.87177486  0.75114791  1
  Ca  Ca14  1  0.74195776  0.38480771  0.24793627  1
  Ca  Ca15  1  0.73252644  0.37840541  0.74858986  1
  Ca  Ca16  1  0.73827518  0.86631566  0.24659446  1
  Ca  Ca17  1  0.73020563  0.87310408  0.74640463  1
  Ca  Ca18  1  0.27346154  0.62783785  0.25458486  1
  Ca  Ca19  1  0.27203801  0.62631646  0.75451657  1
  Ca  Ca20  1  0.77777945  0.12029245  0.25427464  1
  Ca  Ca21  1  0.77131826  0.12379581  0.75453572  1
  Ca  Ca22  1  0.77096790  0.62472140  0.25518080  1
  Ca  Ca23  1  0.77018420  0.62562807  0.75389406  1
  Mn  Mn0  1  0.99634296  0.99398321  0.25070868  1
  Mn  Mn1  1  0.99564554  0.99481993  0.75326141  1
  Mn  Mn2  1  0.00063420  0.50311586  0.24896390  1
  Mn  Mn3  1  0.99951726  0.50243659  0.74858028  1
  Mn  Mn4  1  0.51132502  0.98338490  0.24022421  1
  Mn  Mn5  1  0.50063078  0.99693991  0.74859524  1
  Mn  Mn6  1  0.50187522  0.50663294  0.24906014  1
  Mn  Mn7  1  0.50164781  0.50452589  0.74868313  1
  Mn  Mn8  1  0.25214620  0.99840261  0.00086420  1
  Mn  Mn9  1  0.23923881  0.99018850  0.50733058  1
  Mn  Mn10  1  0.24912669  0.50461143  0.00195906  1
  Mn  Mn11  1  0.24942301  0.50473895  0.50100220  1
  Mn  Mn12  1  0.75036880  0.99689724  0.99672063  1
  Mn  Mn13  1  0.74523398  0.99823975  0.50000807  1
  Mn  Mn14  1  0.74994523  0.50518465  0.00130787  1
  Mn  Mn15  1  0.75260312  0.50225127  0.50115809  1
  Mn  Mn16  1  0.25833691  0.24606820  0.97418029  1
  Mn  Mn17  1  0.25041063  0.25063843  0.49600111  1
  Mn  Mn18  1  0.25004423  0.75036387  0.00104558  1
  Mn  Mn19  1  0.24999915  0.74974764  0.49979878  1
  Mn  Mn20  1  0.75004495  0.24923930  0.99968036  1
  Mn  Mn21  1  0.75193244  0.24923078  0.50560734  1
  Mn  Mn22  1  0.74976690  0.74973154  0.99956344  1
  Mn  Mn23  1  0.75026204  0.74894027  0.50004402  1
  Mn  Mn24  1  0.99132815  0.25310868  0.26046731  1
  Mn  Mn25  1  0.99504650  0.25206549  0.74886550  1
  Mn  Mn26  1  0.99970313  0.74812611  0.24914712  1
  Mn  Mn27  1  0.99969937  0.74939319  0.74938828  1
  Mn  Mn28  1  0.52191321  0.25711206  0.26201771  1
  Mn  Mn29  1  0.50487223  0.24973919  0.74504064  1
  Mn  Mn30  1  0.50013947  0.74909220  0.25157263  1
  Mn  Mn31  1  0.50071195  0.74892089  0.75163616  1
  O  O0  1  0.10376597  0.26367644  0.60546748  1
  O  O1  1  0.10479982  0.77073911  0.10473297  1
  O  O2  1  0.10543233  0.77282836  0.60322445  1
  O  O3  1  0.59508524  0.25002003  0.10647597  1
  O  O4  1  0.60369156  0.26208795  0.60322267  1
  O  O5  1  0.60698755  0.77396930  0.10741716  1
  O  O6  1  0.60784625  0.76669020  0.60643848  1
  O  O7  1  0.39634509  0.22301722  0.36621806  1
  O  O8  1  0.40670401  0.23418225  0.89627952  1
  O  O9  1  0.39660559  0.72725341  0.39743092  1
  O  O10  1  0.39645602  0.73090413  0.89688483  1
  O  O11  1  0.88678529  0.23480722  0.40082721  1
  O  O12  1  0.88928647  0.23752250  0.89555882  1
  O  O13  1  0.89496441  0.73001951  0.39569407  1
  O  O14  1  0.89472257  0.72909568  0.89528451  1
  O  O15  1  0.14585693  0.24299502  0.34591864  1
  O  O16  1  0.13315313  0.23594567  0.85999774  1
  O  O17  1  0.14564467  0.73064554  0.35209976  1
  O  O18  1  0.14605227  0.73083356  0.85297119  1
  O  O19  1  0.64997854  0.22034221  0.35836593  1
  O  O20  1  0.64614968  0.22960868  0.85450475  1
  O  O21  1  0.64697537  0.72840264  0.35424147  1
  O  O22  1  0.64485954  0.72876152  0.85597620  1
  O  O23  1  0.35833156  0.26083910  0.63855552  1
  O  O24  1  0.35706584  0.77257368  0.14732840  1
  O  O25  1  0.35512093  0.77036611  0.64697918  1
  O  O26  1  0.86301083  0.27283405  0.13961501  1
  O  O27  1  0.85127545  0.27143127  0.64568020  1
  O  O28  1  0.85671335  0.76889405  0.14343489  1
  O  O29  1  0.85575558  0.77163070  0.64454246  1
  O  O30  1  0.35982958  0.49205444  0.14133214  1
  O  O31  1  0.35804659  0.49015036  0.64248247  1
  O  O32  1  0.35858722  0.98962941  0.16094891  1
  O  O33  1  0.35768864  0.97594268  0.64029920  1
  O  O34  1  0.85726446  0.48279813  0.14307394  1
  O  O35  1  0.85575127  0.48016878  0.64461313  1
  O  O36  1  0.85320913  0.97923400  0.14536221  1
  O  O37  1  0.85285051  0.97765200  0.64284669  1
  O  O38  1  0.13723779  0.00476221  0.36117542  1
  O  O39  1  0.14342560  0.01431732  0.86192143  1
  O  O40  1  0.14503098  0.52290942  0.35295438  1
  O  O41  1  0.14455490  0.51979966  0.85459572  1
  O  O42  1  0.62097024  0.03060222  0.35512110  1
  O  O43  1  0.64684595  0.01859946  0.85132111  1
  O  O44  1  0.64471646  0.51974905  0.35666559  1
  O  O45  1  0.64320281  0.52146339  0.85801563  1
  O  O46  1  0.39678175  0.01658468  0.89644560  1
  O  O47  1  0.39285509  0.52275505  0.39171884  1
  O  O48  1  0.39268241  0.51768885  0.89257030  1
  O  O49  1  0.88178932  0.01646881  0.38784020  1
  O  O50  1  0.88893889  0.01124240  0.89258914  1
  O  O51  1  0.89523133  0.51951762  0.39521757  1
  O  O52  1  0.89411290  0.51979242  0.89685593  1
  O  O53  1  0.10231277  0.48281547  0.10311814  1
  O  O54  1  0.10236984  0.48339551  0.60318184  1
  O  O55  1  0.10748170  0.97931984  0.11109235  1
  O  O56  1  0.10141656  0.97806170  0.61391609  1
  O  O57  1  0.61331021  0.48791333  0.11141276  1
  O  O58  1  0.61188777  0.48881531  0.60894860  1
  O  O59  1  0.60349608  0.98507275  0.09554419  1
  O  O60  1  0.59961509  0.98064817  0.59903957  1
  O  O61  1  0.00597209  0.37799007  0.28253606  1
  O  O62  1  0.00234620  0.37800146  0.78605613  1
  O  O63  1  0.00271570  0.87181038  0.28886482  1
  O  O64  1  0.00862772  0.87213907  0.79095017  1
  O  O65  1  0.50057561  0.37864958  0.26787991  1
  O  O66  1  0.50927107  0.37613082  0.77115147  1
  O  O67  1  0.51137920  0.87192481  0.30153729  1
  O  O68  1  0.51314976  0.87349768  0.78504442  1
  O  O69  1  0.49571851  0.12269954  0.71896101  1
  O  O70  1  0.49254608  0.62963329  0.20975449  1
  O  O71  1  0.49060286  0.62717453  0.71327675  1
  O  O72  1  0.99978937  0.12665714  0.22398823  1
  O  O73  1  0.98876983  0.12341551  0.72616317  1
  O  O74  1  0.98796971  0.62572605  0.20988092  1
  O  O75  1  0.98781220  0.62608105  0.71055065  1
  O  O76  1  0.24809304  0.13356225  0.03720068  1
  O  O77  1  0.26045412  0.11530392  0.50783018  1
  O  O78  1  0.23849622  0.62732118  0.03813837  1
  O  O79  1  0.23690177  0.62807094  0.53971632  1
  O  O80  1  0.74822270  0.12320256  0.03639470  1
  O  O81  1  0.74438518  0.12318334  0.54120591  1
  O  O82  1  0.73970421  0.62729471  0.04001661  1
  O  O83  1  0.74345572  0.62615199  0.53868026  1
  O  O84  1  0.25821880  0.37811012  0.47574279  1
  O  O85  1  0.25503790  0.36450940  0.00227520  1
  O  O86  1  0.26888923  0.87364196  0.45691366  1
  O  O87  1  0.26385877  0.87543852  0.96729737  1
  O  O88  1  0.75123751  0.37575215  0.46324085  1
  O  O89  1  0.74631411  0.37638561  0.96791745  1
  O  O90  1  0.75472148  0.87447082  0.45988937  1
  O  O91  1  0.75769211  0.87302676  0.96135741  1
loop_
_geom_bond_atom_site_label_1
_geom_bond_atom_site_label_2
_geom_bond_distance
_geom_bond_site_symmetry_2
Ca0 O75 2.356357 1_455
Ca0 O13 2.370647 1_455
Ca0 O51 2.392683 1_455
Ca0 O79 2.402743 1_555
Ca0 O40 2.597434 1_555
Ca0 O17 2.623777 1_555
Ca0 O54 2.639853 1_555
Ca0 O2 2.698071 1_555
Ca1 O14 2.357398 1_455
Ca1 O74 2.359451 1_456
Ca1 O52 2.394869 1_455
Ca1 O78 2.412155 1_556
Ca1 O18 2.607435 1_555
Ca1 O41 2.611017 1_555
Ca1 O53 2.656981 1_556
Ca1 O1 2.670130 1_556
Ca2 O69 2.304399 1_555
Ca2 O4 2.432730 1_555
Ca2 O81 2.433440 1_555
Ca2 O42 2.493946 1_555
Ca2 O7 2.519361 1_555
Ca2 O19 2.547801 1_555
Ca2 O60 2.633443 1_545
Ca2 O77 2.886797 1_555
Ca3 O46 2.330440 1_555
Ca3 O8 2.361837 1_555
Ca3 O43 2.413234 1_555
Ca3 O20 2.453077 1_555
Ca3 O80 2.457472 1_556
Ca3 O3 2.541315 1_556
Ca3 O59 2.600336 1_546
Ca3 O69 2.776829 1_555
Ca4 O71 2.360661 1_555
Ca4 O9 2.361235 1_555
Ca4 O47 2.408086 1_555
Ca4 O83 2.439574 1_555
Ca4 O44 2.592226 1_555
Ca4 O58 2.601918 1_555
Ca4 O21 2.607105 1_555
Ca4 O6 2.637376 1_555
Ca5 O70 2.346266 1_556
Ca5 O10 2.361149 1_555
Ca5 O48 2.430052 1_555
Ca5 O82 2.441675 1_556
Ca5 O45 2.565284 1_555
Ca5 O22 2.579733 1_555
Ca5 O57 2.667889 1_556
Ca5 O5 2.747732 1_556
Ca6 O68 2.307424 1_555
Ca6 O5 2.351507 1_556
Ca6 O87 2.391868 1_555
Ca6 O59 2.463184 1_556
Ca6 O10 2.558402 1_555
Ca6 O24 2.609310 1_556
Ca6 O46 2.664021 1_565
Ca6 O32 2.897913 1_556
Ca6 O91 3.045811 1_555
Ca7 O6 2.276811 1_555
Ca7 O67 2.352107 1_555
Ca7 O60 2.370247 1_555
Ca7 O86 2.399262 1_555
Ca7 O25 2.457531 1_555
Ca7 O33 2.551632 1_555
Ca7 O9 2.641493 1_555
Ca8 O62 2.327984 1_655
Ca8 O53 2.391306 1_656
Ca8 O89 2.436257 1_555
Ca8 O52 2.481643 1_555
Ca8 O34 2.489976 1_556
Ca8 O26 2.577332 1_556
Ca8 O12 2.656436 1_555
Ca9 O54 2.370019 1_655
Ca9 O61 2.427379 1_655
Ca9 O0 2.470737 1_655
Ca9 O88 2.517143 1_555
Ca9 O35 2.569574 1_555
Ca9 O27 2.629574 1_555
Ca9 O11 2.651414 1_555
Ca9 O51 2.653696 1_555
Ca10 O64 2.336961 1_654
Ca10 O1 2.361671 1_655
Ca10 O91 2.444233 1_554
Ca10 O55 2.446896 1_655
Ca10 O28 2.569259 1_555
Ca10 O36 2.618397 1_555
Ca10 O50 2.633232 1_564
Ca10 O14 2.662856 1_554
Ca11 O2 2.358466 1_655
Ca11 O63 2.365384 1_655
Ca11 O90 2.432582 1_555
Ca11 O56 2.439164 1_655
Ca11 O29 2.521147 1_555
Ca11 O37 2.563002 1_555
Ca11 O13 2.630167 1_555
Ca11 O49 2.741810 1_565
Ca12 O24 2.354734 1_555
Ca12 O86 2.364373 1_555
Ca12 O63 2.454133 1_555
Ca12 O1 2.499714 1_555
Ca12 O32 2.518656 1_555
Ca12 O55 2.528386 1_555
Ca12 O38 2.594418 1_565
Ca12 O17 2.605281 1_555
Ca13 O87 2.370628 1_555
Ca13 O25 2.379441 1_555
Ca13 O64 2.430507 1_555
Ca13 O33 2.460988 1_555
Ca13 O2 2.572187 1_555
Ca13 O18 2.593875 1_555
Ca13 O56 2.601552 1_555
Ca13 O39 2.663085 1_565
Ca14 O34 2.273438 1_555
Ca14 O88 2.335733 1_555
Ca14 O26 2.470015 1_555
Ca14 O57 2.581936 1_555
Ca14 O44 2.613196 1_555
Ca14 O65 2.647754 1_555
Ca15 O35 2.356157 1_555
Ca15 O27 2.375204 1_555
Ca15 O89 2.377317 1_555
Ca15 O66 2.451911 1_555
Ca15 O58 2.626885 1_555
Ca15 O45 2.683800 1_555
Ca15 O20 2.732840 1_555
Ca15 O4 2.759424 1_555
Ca15 O62 2.972227 1_655
Ca16 O28 2.275290 1_555
Ca16 O90 2.316876 1_555
Ca16 O36 2.411691 1_555
Ca16 O5 2.510909 1_555
Ca16 O67 2.552886 1_555
Ca16 O21 2.622446 1_555
Ca16 O59 2.858478 1_555
Ca17 O91 2.343406 1_555
Ca17 O29 2.354661 1_555
Ca17 O37 2.379145 1_555
Ca17 O68 2.409313 1_555
Ca17 O6 2.592681 1_555
Ca17 O43 2.670614 1_565
Ca17 O22 2.689015 1_555
Ca17 O60 2.703286 1_555
Ca18 O17 2.361349 1_555
Ca18 O78 2.370754 1_555
Ca18 O40 2.393554 1_555
Ca18 O70 2.444045 1_555
Ca18 O9 2.549392 1_555
Ca18 O47 2.551728 1_555
Ca18 O30 2.600038 1_555
Ca18 O24 2.676409 1_555
Ca19 O79 2.353706 1_555
Ca19 O18 2.371862 1_555
Ca19 O41 2.412440 1_555
Ca19 O71 2.430725 1_555
Ca19 O31 2.597157 1_555
Ca19 O48 2.599318 1_555
Ca19 O10 2.601916 1_555
Ca19 O25 2.667002 1_555
Ca20 O19 2.366192 1_555
Ca20 O80 2.378198 1_555
Ca20 O49 2.434816 1_555
Ca20 O72 2.450298 1_555
Ca20 O42 2.460255 1_555
Ca20 O36 2.603794 1_545
Ca20 O11 2.645430 1_555
Ca20 O26 2.817853 1_555
Ca21 O81 2.325243 1_555
Ca21 O43 2.363487 1_555
Ca21 O20 2.387653 1_555
Ca21 O73 2.396217 1_555
Ca21 O50 2.622442 1_555
Ca21 O12 2.647959 1_555
Ca21 O37 2.704119 1_545
Ca21 O27 2.708036 1_555
Ca22 O82 2.351521 1_555
Ca22 O21 2.353482 1_555
Ca22 O44 2.395530 1_555
Ca22 O74 2.422703 1_555
Ca22 O13 2.594573 1_555
Ca22 O51 2.598486 1_555
Ca22 O34 2.670549 1_555
Ca22 O28 2.698929 1_555
Ca23 O83 2.345240 1_555
Ca23 O22 2.371344 1_555
Ca23 O45 2.405157 1_555
Ca23 O75 2.425067 1_555
Ca23 O14 2.585782 1_555
Ca23 O52 2.621194 1_555
Ca23 O35 2.698878 1_555
Ca23 O29 2.709979 1_555
Mn0 O63 1.927183 1_655
Mn0 O36 1.942314 1_555
Mn0 O38 1.949858 1_665
Mn0 O55 1.955756 1_655
Mn0 O49 1.976065 1_565
Mn0 O72 2.063166 1_565
Mn1 O56 1.921362 1_655
Mn1 O50 1.926742 1_565
Mn1 O64 1.937645 1_655
Mn1 O37 1.976372 1_555
Mn1 O73 2.002715 1_565
Mn1 O39 2.013291 1_665
Mn2 O74 1.939601 1_455
Mn2 O40 1.955344 1_555
Mn2 O53 1.959121 1_555
Mn2 O34 1.959454 1_455
Mn2 O61 1.961298 1_555
Mn2 O51 1.977715 1_455
Mn3 O75 1.951929 1_555
Mn3 O35 1.955899 1_555
Mn3 O62 1.958649 1_655
Mn3 O54 1.959619 1_655
Mn3 O41 1.968172 1_655
Mn3 O52 1.997222 1_555
Mn4 O67 1.840679 1_555
Mn4 O59 1.866007 1_555
Mn4 O42 1.866742 1_565
Mn4 O32 1.874088 1_555
Mn5 O68 1.945920 1_555
Mn5 O69 1.963240 1_565
Mn5 O60 1.966603 1_555
Mn5 O43 1.968216 1_565
Mn5 O33 1.972642 1_555
Mn5 O46 1.988669 1_565
Mn6 O70 1.943742 1_555
Mn6 O30 1.947691 1_555
Mn6 O57 1.949472 1_555
Mn6 O44 1.951398 1_555
Mn6 O47 1.969870 1_555
Mn6 O65 1.980602 1_555
Mn7 O71 1.930631 1_555
Mn7 O31 1.951143 1_555
Mn7 O58 1.952538 1_555
Mn7 O45 1.958244 1_555
Mn7 O48 1.974862 1_555
Mn7 O66 1.993143 1_555
Mn8 O39 1.926770 1_564
Mn8 O87 1.930380 1_554
Mn8 O46 1.967311 1_564
Mn8 O55 2.006610 1_555
Mn8 O32 2.085394 1_555
Mn8 O76 2.116338 1_565
Mn9 O86 1.901842 1_555
Mn9 O56 1.910512 1_555
Mn9 O77 1.939087 1_565
Mn9 O33 1.942377 1_555
Mn9 O38 1.942866 1_565
Mn10 O78 1.931243 1_555
Mn10 O30 1.937727 1_555
Mn10 O41 1.970629 1_554
Mn10 O53 1.975242 1_555
Mn10 O48 1.980000 1_554
Mn10 O85 2.157054 1_555
Mn11 O31 1.945030 1_555
Mn11 O79 1.947642 1_555
Mn11 O84 1.969551 1_555
Mn11 O40 1.981551 1_555
Mn11 O54 1.982387 1_555
Mn11 O47 1.987478 1_555
Mn12 O50 1.904685 1_565
Mn12 O59 1.941298 1_556
Mn12 O91 1.945081 1_555
Mn12 O43 1.961731 1_565
Mn12 O36 1.976020 1_556
Mn12 O80 1.989641 1_566
Mn13 O60 1.941658 1_555
Mn13 O49 1.948504 1_565
Mn13 O90 1.955371 1_555
Mn13 O37 1.962979 1_555
Mn13 O81 1.972659 1_565
Mn13 O42 2.128121 1_565
Mn14 O82 1.927664 1_555
Mn14 O57 1.933154 1_555
Mn14 O45 1.951398 1_554
Mn14 O52 1.956277 1_554
Mn14 O34 1.956705 1_555
Mn14 O89 2.014136 1_554
Mn15 O35 1.943629 1_555
Mn15 O58 1.945515 1_555
Mn15 O83 1.951169 1_555
Mn15 O51 1.957377 1_555
Mn15 O44 1.971614 1_555
Mn15 O88 1.988435 1_555
Mn16 O8 1.839575 1_555
Mn16 O16 1.843800 1_555
Mn16 O85 1.847496 1_556
Mn16 O76 1.865927 1_556
Mn17 O23 1.941945 1_555
Mn17 O84 1.976253 1_555
Mn17 O15 1.983145 1_555
Mn17 O0 2.007010 1_555
Mn17 O77 2.089851 1_555
Mn17 O7 2.171464 1_555
Mn18 O78 1.940728 1_555
Mn18 O87 1.965860 1_554
Mn18 O1 1.972713 1_555
Mn18 O18 1.980866 1_554
Mn18 O10 1.983778 1_554
Mn18 O24 1.991001 1_555
Mn19 O79 1.928110 1_555
Mn19 O2 1.972156 1_555
Mn19 O86 1.974337 1_555
Mn19 O17 1.978882 1_555
Mn19 O9 1.982057 1_555
Mn19 O25 1.982724 1_555
Mn20 O12 1.905873 1_555
Mn20 O20 1.955324 1_555
Mn20 O26 1.980413 1_556
Mn20 O80 1.980951 1_556
Mn20 O89 1.987891 1_555
Mn20 O3 2.054452 1_556
Mn21 O11 1.876460 1_555
Mn21 O27 1.889248 1_555
Mn21 O4 1.947793 1_555
Mn21 O81 1.980329 1_555
Mn21 O19 1.987801 1_555
Mn21 O88 2.001434 1_555
Mn22 O82 1.938618 1_556
Mn22 O91 1.944901 1_555
Mn22 O22 1.951287 1_555
Mn22 O28 1.962465 1_556
Mn22 O14 1.974483 1_555
Mn22 O5 1.987726 1_556
Mn23 O83 1.937787 1_555
Mn23 O6 1.958985 1_555
Mn23 O21 1.959112 1_555
Mn23 O29 1.967290 1_555
Mn23 O13 1.968645 1_555
Mn23 O90 1.981756 1_555
Mn24 O11 1.926135 1_555
Mn24 O15 1.926392 1_655
Mn24 O26 1.936043 1_555
Mn24 O61 1.942312 1_655
Mn24 O72 1.986904 1_555
Mn25 O16 1.940193 1_655
Mn25 O27 1.945165 1_555
Mn25 O0 1.967321 1_655
Mn25 O62 1.979787 1_655
Mn25 O12 1.981149 1_555
Mn25 O73 1.995411 1_555
Mn26 O74 1.933844 1_555
Mn26 O63 1.950405 1_655
Mn26 O28 1.957531 1_555
Mn26 O17 1.958601 1_655
Mn26 O1 1.975326 1_655
Mn26 O13 1.980397 1_555
Mn27 O64 1.942832 1_655
Mn27 O75 1.946624 1_555
Mn27 O29 1.964281 1_555
Mn27 O18 1.968472 1_655
Mn27 O14 1.981347 1_555
Mn27 O2 1.996714 1_655
Mn28 O19 1.830644 1_555
Mn28 O7 1.856302 1_555
Mn28 O3 1.869970 1_555
Mn28 O65 1.885933 1_555
Mn29 O4 1.890704 1_555
Mn29 O20 1.965128 1_555
Mn29 O66 1.965230 1_555
Mn29 O23 1.974562 1_555
Mn29 O8 1.976208 1_555
Mn29 O69 1.976911 1_555
Mn30 O70 1.893711 1_555
Mn30 O24 1.956459 1_555
Mn30 O67 1.968251 1_555
Mn30 O21 1.972276 1_555
Mn30 O9 1.975807 1_555
Mn30 O5 1.990829 1_555
Mn31 O71 1.920873 1_555
Mn31 O68 1.954442 1_555
Mn31 O22 1.957534 1_555
Mn31 O10 1.965840 1_555
Mn31 O25 1.975390 1_555
Mn31 O6 1.983372 1_555
O0 Sr0 2.656191 1_555
O0 Sr5 2.717500 1_555
O0 Sr7 3.161241 1_555
O3 Sr2 2.573452 1_554
O4 Sr3 2.470129 1_555
O7 Sr6 2.590441 1_555
O7 Sr3 3.022852 1_555
O8 Sr2 2.689090 1_555
O8 Sr7 2.881290 1_555
O11 Sr0 2.463564 1_655
O12 Sr1 2.472435 1_655
O15 Sr6 2.408799 1_555
O15 Sr4 2.623521 1_555
O15 Sr0 2.915005 1_555
O16 Sr7 2.607967 1_555
O16 Sr1 2.677584 1_555
O16 Sr5 2.761774 1_555
O23 Sr5 2.536242 1_555
O23 Sr7 2.646714 1_555
O23 Sr3 2.749464 1_555
O30 Sr4 2.431485 1_555
O30 Sr2 2.755475 1_554
O31 Sr5 2.451750 1_555
O31 Sr3 2.654385 1_555
O32 Sr6 2.556601 1_565
O33 Sr7 2.690948 1_565
O38 Sr6 2.363147 1_555
O38 Sr0 2.721169 1_555
O39 Sr7 2.469644 1_555
O39 Sr1 2.624493 1_555
O40 Sr4 2.583561 1_555
O41 Sr5 2.667168 1_555
O46 Sr7 2.744767 1_555
O47 Sr3 2.704399 1_555
O48 Sr2 2.644409 1_555
O49 Sr0 2.466164 1_655
O50 Sr1 2.390005 1_655
O53 Sr4 2.656110 1_555
O54 Sr5 2.649143 1_555
O55 Sr1 2.729536 1_564
O56 Sr0 2.707911 1_565
O56 Sr7 3.123269 1_565
O57 Sr2 2.414488 1_554
O58 Sr3 2.411588 1_555
O61 Sr4 2.563811 1_555
O62 Sr5 2.577691 1_555
O65 Sr3 2.568325 1_555
O65 Sr4 2.868421 1_555
O65 Sr2 2.928650 1_554
O66 Sr2 2.452028 1_555
O66 Sr3 2.891399 1_555
O69 Sr7 2.561306 1_555
O72 Sr1 2.486576 1_654
O72 Sr6 2.702464 1_655
O72 Sr0 2.998981 1_655
O73 Sr0 2.451995 1_655
O73 Sr1 2.911700 1_655
O73 Sr7 2.991723 1_655
O76 Sr6 2.420140 1_555
O76 Sr1 2.658505 1_554
O76 Sr7 3.212931 1_554
O77 Sr7 2.526142 1_555
O77 Sr6 2.691568 1_555
O77 Sr0 2.720171 1_555
O80 Sr1 2.884812 1_654
O81 Sr0 2.953128 1_655
O84 Sr4 2.423783 1_555
O84 Sr3 2.524907 1_555
O85 Sr2 2.649261 1_554
O85 Sr4 2.736453 1_555
O85 Sr5 2.805659 1_554
O88 Sr3 2.916310 1_555
O89 Sr2 2.749871 1_555
