# generated using pymatgen
data_Eu3(SiAs2)2
_symmetry_space_group_name_H-M   'P 1'
_cell_length_a   17.91498255
_cell_length_b   7.29258451
_cell_length_c   7.45934351
_cell_angle_alpha   68.53552024
_cell_angle_beta   90.00000000
_cell_angle_gamma   90.00000000
_symmetry_Int_Tables_number   1
_chemical_formula_structural   Eu3(SiAs2)2
_chemical_formula_sum   'Eu12 Si8 As16'
_cell_volume   906.94787805
_cell_formula_units_Z   4
loop_
 _symmetry_equiv_pos_site_id
 _symmetry_equiv_pos_as_xyz
  1  'x, y, z'
loop_
 _atom_site_type_symbol
 _atom_site_label
 _atom_site_symmetry_multiplicity
 _atom_site_fract_x
 _atom_site_fract_y
 _atom_site_fract_z
 _atom_site_occupancy
  Eu  Eu0  1  0.31516933  0.48828299  0.22595874  1
  Eu  Eu1  1  0.81516933  0.01171701  0.77404126  1
  Eu  Eu2  1  0.68483067  0.51171701  0.77404126  1
  Eu  Eu3  1  0.18483067  0.98828299  0.22595874  1
  Eu  Eu4  1  0.06388556  0.49116253  0.25161120  1
  Eu  Eu5  1  0.56388556  0.00883747  0.74838880  1
  Eu  Eu6  1  0.93611444  0.50883747  0.74838880  1
  Eu  Eu7  1  0.43611444  0.99116253  0.25161120  1
  Eu  Eu8  1  0.55818620  0.49950318  0.25811007  1
  Eu  Eu9  1  0.05818620  0.00049682  0.74188993  1
  Eu  Eu10  1  0.44181380  0.50049682  0.74188993  1
  Eu  Eu11  1  0.94181380  -0.00049682  0.25811007  1
  Si  Si0  1  0.87026772  0.46831845  0.21122224  1
  Si  Si1  1  0.37026772  0.03168155  0.78877776  1
  Si  Si2  1  0.12973228  0.53168155  0.78877776  1
  Si  Si3  1  0.62973228  0.96831845  0.21122224  1
  Si  Si4  1  0.73987662  0.07922285  0.31217660  1
  Si  Si5  1  0.23987662  0.42077715  0.68782340  1
  Si  Si6  1  0.26012338  0.92077715  0.68782340  1
  Si  Si7  1  0.76012338  0.57922285  0.31217660  1
  As  As0  1  0.56248008  0.24355052  0.01116669  1
  As  As1  1  0.06248008  0.25644948  0.98883331  1
  As  As2  1  0.43751992  0.75644948  0.98883331  1
  As  As3  1  0.93751992  0.74355052  0.01116669  1
  As  As4  1  0.81214846  0.27487461  0.04023463  1
  As  As5  1  0.31214846  0.22512539  0.95976537  1
  As  As6  1  0.18785154  0.72512539  0.95976537  1
  As  As7  1  0.68785154  0.77487461  0.04023463  1
  As  As8  1  0.93256444  0.26240821  0.49231358  1
  As  As9  1  0.43256444  0.23759179  0.50768642  1
  As  As10  1  0.06743556  0.73759179  0.50768642  1
  As  As11  1  0.56743556  0.76240821  0.49231358  1
  As  As12  1  0.69716874  0.27309956  0.49468198  1
  As  As13  1  0.19716874  0.22690044  0.50531802  1
  As  As14  1  0.30283126  0.72690044  0.50531802  1
  As  As15  1  0.80283126  0.77309956  0.49468198  1
loop_
_geom_bond_atom_site_label_1
_geom_bond_atom_site_label_2
_geom_bond_distance
_geom_bond_site_symmetry_2
Si0 Si7 2.358093 1_555
Si1 Si6 2.358093 1_545
Si2 Si5 2.358093 1_555
Si3 Si4 2.358093 1_565
As0 Si3 2.348426 1_545
As0 Eu2 3.037441 1_554
As0 Eu5 3.037772 1_554
As0 Eu7 3.051808 1_545
As0 Eu8 3.065833 1_555
As0 Eu10 3.076411 1_554
As1 Si2 2.348426 1_555
As1 Eu3 3.037441 1_546
As1 Eu4 3.037772 1_556
As1 Eu6 3.051808 1_455
As1 Eu9 3.065833 1_555
As1 Eu11 3.076411 1_456
As2 Si1 2.348426 1_565
As2 Eu0 3.037441 1_556
As2 Eu7 3.037772 1_556
As2 Eu5 3.051808 1_565
As2 Eu10 3.065833 1_555
As2 Eu8 3.076411 1_556
As3 Si0 2.348426 1_555
As3 Eu1 3.037441 1_564
As3 Eu6 3.037772 1_554
As3 Eu4 3.051808 1_655
As3 Eu11 3.065833 1_565
As3 Eu9 3.076411 1_664
As4 Si4 2.389313 1_555
As4 Si0 2.453119 1_555
As4 Eu2 3.101367 1_554
As4 Eu11 3.111531 1_555
As4 Eu6 3.140726 1_554
As4 Eu1 3.227597 1_554
As5 Si5 2.389313 1_555
As5 Si1 2.453119 1_555
As5 Eu3 3.101367 1_546
As5 Eu10 3.111531 1_555
As5 Eu7 3.140726 1_546
As5 Eu0 3.227597 1_556
As6 Si6 2.389313 1_555
As6 Si2 2.453119 1_555
As6 Eu0 3.101367 1_556
As6 Eu9 3.111531 1_565
As6 Eu4 3.140726 1_556
As6 Eu3 3.227597 1_556
As7 Si7 2.389313 1_555
As7 Si3 2.453119 1_555
As7 Eu1 3.101367 1_564
As7 Eu8 3.111531 1_555
As7 Eu5 3.140726 1_564
As7 Eu2 3.227597 1_554
As8 Si0 2.364858 1_555
As8 Eu11 3.034247 1_555
As8 Eu4 3.057682 1_655
As8 Eu1 3.061050 1_555
As8 Eu6 3.065057 1_555
As8 Eu9 3.094585 1_655
As9 Si1 2.364858 1_555
As9 Eu10 3.034247 1_555
As9 Eu5 3.057682 1_555
As9 Eu0 3.061050 1_555
As9 Eu7 3.065057 1_545
As9 Eu8 3.094585 1_555
As10 Si2 2.364858 1_555
As10 Eu9 3.034247 1_565
As10 Eu6 3.057682 1_455
As10 Eu3 3.061050 1_555
As10 Eu4 3.065057 1_555
As10 Eu11 3.094585 1_465
As11 Si3 2.364858 1_555
As11 Eu8 3.034247 1_555
As11 Eu7 3.057682 1_555
As11 Eu2 3.061050 1_555
As11 Eu5 3.065057 1_565
As11 Eu10 3.094585 1_555
As12 Si4 2.417930 1_555
As12 Si7 2.425875 1_555
As12 Eu1 3.088320 1_555
As12 Eu8 3.147576 1_555
As12 Eu2 3.173817 1_555
As12 Eu5 3.213677 1_555
As13 Si5 2.417930 1_555
As13 Si6 2.425875 1_545
As13 Eu0 3.088320 1_555
As13 Eu9 3.147576 1_555
As13 Eu3 3.173817 1_545
As13 Eu4 3.213677 1_555
As14 Si6 2.417930 1_555
As14 Si5 2.425875 1_555
As14 Eu3 3.088320 1_555
As14 Eu10 3.147576 1_555
As14 Eu0 3.173817 1_555
As14 Eu7 3.213677 1_555
As15 Si7 2.417930 1_555
As15 Si4 2.425875 1_565
As15 Eu2 3.088320 1_555
As15 Eu11 3.147576 1_565
As15 Eu1 3.173817 1_565
As15 Eu6 3.213677 1_555
