# generated using pymatgen
data_Tm5SbPd2
_symmetry_space_group_name_H-M   'P 1'
_cell_length_a   8.62394193
_cell_length_b   8.62394193
_cell_length_c   8.62394193
_cell_angle_alpha   127.77400701
_cell_angle_beta   127.77400701
_cell_angle_gamma   76.99141473
_symmetry_Int_Tables_number   1
_chemical_formula_structural   Tm5SbPd2
_chemical_formula_sum   'Tm10 Sb2 Pd4'
_cell_volume   388.98695063
_cell_formula_units_Z   2
loop_
 _symmetry_equiv_pos_site_id
 _symmetry_equiv_pos_as_xyz
  1  'x, y, z'
loop_
 _atom_site_type_symbol
 _atom_site_label
 _atom_site_symmetry_multiplicity
 _atom_site_fract_x
 _atom_site_fract_y
 _atom_site_fract_z
 _atom_site_occupancy
  Tm  Tm0  1  0.00000000  0.00000000  0.00000000  1
  Tm  Tm1  1  0.50000000  0.50000000  0.00000000  1
  Tm  Tm2  1  0.79790329  0.29790329  0.81055448  1
  Tm  Tm3  1  0.20209671  0.70209671  0.18944552  1
  Tm  Tm4  1  0.48734981  0.98734981  0.18944552  1
  Tm  Tm5  1  0.29790329  0.48734981  0.50000000  1
  Tm  Tm6  1  0.01265019  0.20209671  0.50000000  1
  Tm  Tm7  1  0.51265019  0.01265019  0.81055448  1
  Tm  Tm8  1  0.70209671  0.51265019  0.50000000  1
  Tm  Tm9  1  0.98734981  0.79790329  0.50000000  1
  Sb  Sb0  1  0.25000000  0.25000000  0.00000000  1
  Sb  Sb1  1  0.75000000  0.75000000  0.00000000  1
  Pd  Pd0  1  0.13764431  0.63764431  0.77528962  1
  Pd  Pd1  1  0.86235569  0.36235569  0.22471038  1
  Pd  Pd2  1  0.63764431  0.86235569  0.50000000  1
  Pd  Pd3  1  0.36235569  0.13764431  0.50000000  1
loop_
_geom_bond_atom_site_label_1
_geom_bond_atom_site_label_2
_geom_bond_distance
_geom_bond_site_symmetry_2
Sb0 Tm7 3.215430 1_554
Sb0 Tm4 3.215430 1_545
Sb0 Tm9 3.215434 1_444
Sb0 Tm5 3.215434 1_555
Sb0 Tm6 3.215434 1_554
Sb0 Tm8 3.215434 1_555
Sb0 Tm2 3.215436 1_454
Sb0 Tm3 3.215436 1_555
Sb0 Tm1 3.374785 1_555
Sb0 Tm0 3.374785 1_555
Sb1 Tm7 3.215430 1_564
Sb1 Tm4 3.215430 1_555
Sb1 Tm6 3.215434 1_665
Sb1 Tm9 3.215434 1_555
Sb1 Tm8 3.215434 1_554
Sb1 Tm5 3.215434 1_554
Sb1 Tm3 3.215436 1_655
Sb1 Tm2 3.215436 1_554
Sb1 Tm1 3.374785 1_555
Sb1 Tm0 3.374785 1_665
Pd0 Tm3 2.941000 1_556
Pd0 Tm4 2.941017 1_556
Pd0 Tm1 2.942612 1_556
Pd0 Tm0 2.942612 1_566
Pd0 Tm6 2.944445 1_555
Pd0 Tm8 2.944445 1_455
Pd0 Tm5 2.944454 1_555
Pd0 Tm9 2.944454 1_455
Pd1 Tm2 2.941000 1_554
Pd1 Tm7 2.941017 1_554
Pd1 Tm1 2.942612 1_555
Pd1 Tm0 2.942612 1_655
Pd1 Tm5 2.944445 1_655
Pd1 Tm9 2.944445 1_555
Pd1 Tm8 2.944454 1_555
Pd1 Tm6 2.944454 1_655
Pd2 Tm9 2.941017 1_555
Pd2 Tm8 2.941017 1_555
Pd2 Tm0 2.942614 1_666
Pd2 Tm1 2.942614 1_555
Pd2 Tm3 2.944445 1_555
Pd2 Tm2 2.944445 1_565
Pd2 Tm4 2.944454 1_555
Pd2 Tm7 2.944454 1_565
Pd3 Tm6 2.941017 1_555
Pd3 Tm5 2.941017 1_555
Pd3 Tm0 2.942614 1_555
Pd3 Tm1 2.942614 1_556
Pd3 Tm3 2.944445 1_545
Pd3 Tm2 2.944445 1_555
Pd3 Tm4 2.944454 1_545
Pd3 Tm7 2.944454 1_555
