# generated using pymatgen
data_DyCo5P3
_symmetry_space_group_name_H-M   'P 1'
_cell_length_a   3.63914041
_cell_length_b   10.18776780
_cell_length_c   11.64555751
_cell_angle_alpha   90.00000000
_cell_angle_beta   90.00000000
_cell_angle_gamma   90.00000000
_symmetry_Int_Tables_number   1
_chemical_formula_structural   DyCo5P3
_chemical_formula_sum   'Dy4 Co20 P12'
_cell_volume   431.75575468
_cell_formula_units_Z   4
loop_
 _symmetry_equiv_pos_site_id
 _symmetry_equiv_pos_as_xyz
  1  'x, y, z'
loop_
 _atom_site_type_symbol
 _atom_site_label
 _atom_site_symmetry_multiplicity
 _atom_site_fract_x
 _atom_site_fract_y
 _atom_site_fract_z
 _atom_site_occupancy
  Dy  Dy0  1  0.25000000  0.58199262  0.70137880  1
  Dy  Dy1  1  0.25000000  0.91800738  0.20137880  1
  Dy  Dy2  1  0.75000000  0.41800738  0.29862120  1
  Dy  Dy3  1  0.75000000  0.08199262  0.79862120  1
  Co  Co0  1  0.25000000  0.71123276  0.98900197  1
  Co  Co1  1  0.25000000  0.78876724  0.48900197  1
  Co  Co2  1  0.75000000  0.28876724  0.01099803  1
  Co  Co3  1  0.75000000  0.21123276  0.51099803  1
  Co  Co4  1  0.25000000  0.40530950  0.48746013  1
  Co  Co5  1  0.25000000  0.09469050  0.98746013  1
  Co  Co6  1  0.75000000  0.59469050  0.51253987  1
  Co  Co7  1  0.75000000  0.90530950  0.01253987  1
  Co  Co8  1  0.25000000  0.22157420  0.17515366  1
  Co  Co9  1  0.25000000  0.27842580  0.67515366  1
  Co  Co10  1  0.75000000  0.77842580  0.82484634  1
  Co  Co11  1  0.75000000  0.72157420  0.32484634  1
  Co  Co12  1  0.25000000  0.88261552  0.69846938  1
  Co  Co13  1  0.25000000  0.61738448  0.19846938  1
  Co  Co14  1  0.75000000  0.11738448  0.30153062  1
  Co  Co15  1  0.75000000  0.38261552  0.80153062  1
  Co  Co16  1  0.25000000  0.46681108  0.93316101  1
  Co  Co17  1  0.25000000  0.03318892  0.43316101  1
  Co  Co18  1  0.75000000  0.53318892  0.06683899  1
  Co  Co19  1  0.75000000  0.96681108  0.56683899  1
  P  P0  1  0.25000000  0.41989527  0.11352454  1
  P  P1  1  0.25000000  0.08010473  0.61352454  1
  P  P2  1  0.75000000  0.58010473  0.88647546  1
  P  P3  1  0.75000000  0.91989527  0.38647546  1
  P  P4  1  0.25000000  0.27110970  0.86679963  1
  P  P5  1  0.25000000  0.22889030  0.36679963  1
  P  P6  1  0.75000000  0.72889030  0.13320037  1
  P  P7  1  0.75000000  0.77110970  0.63320037  1
  P  P8  1  0.25000000  0.60189971  0.39258965  1
  P  P9  1  0.25000000  0.89810029  0.89258965  1
  P  P10  1  0.75000000  0.39810029  0.60741035  1
  P  P11  1  0.75000000  0.10189971  0.10741035  1
loop_
_geom_bond_atom_site_label_1
_geom_bond_atom_site_label_2
_geom_bond_distance
_geom_bond_site_symmetry_2
Dy0 P7 2.766466 1_455
Dy0 P7 2.766466 1_555
Dy0 P2 2.820925 1_455
Dy0 P2 2.820925 1_555
Dy0 P10 2.831640 1_555
Dy0 P10 2.831640 1_455
Dy1 P6 2.766466 1_555
Dy1 P6 2.766466 1_455
Dy1 P3 2.820925 1_455
Dy1 P3 2.820925 1_555
Dy1 P11 2.831640 1_465
Dy1 P11 2.831640 1_565
Dy2 P5 2.766466 1_655
Dy2 P5 2.766466 1_555
Dy2 P0 2.820925 1_655
Dy2 P0 2.820925 1_555
Dy2 P8 2.831640 1_655
Dy2 P8 2.831640 1_555
Dy3 P4 2.766466 1_655
Dy3 P4 2.766466 1_555
Dy3 P1 2.820925 1_655
Dy3 P1 2.820925 1_555
Dy3 P9 2.831640 1_545
Dy3 P9 2.831640 1_645
Co0 P9 2.210190 1_555
Co0 P6 2.482569 1_556
Co0 P6 2.482569 1_456
Co0 P2 2.553635 1_555
Co0 P2 2.553635 1_455
Co0 Dy1 3.248783 1_556
Co1 P8 2.210190 1_555
Co1 P7 2.482569 1_555
Co1 P7 2.482569 1_455
Co1 P3 2.553635 1_555
Co1 P3 2.553635 1_455
Co1 Dy0 3.248783 1_555
Co2 P11 2.210190 1_555
Co2 P4 2.482569 1_554
Co2 P4 2.482569 1_654
Co2 P0 2.553635 1_555
Co2 P0 2.553635 1_655
Co2 Dy3 3.248783 1_554
Co3 P10 2.210190 1_555
Co3 P5 2.482569 1_655
Co3 P5 2.482569 1_555
Co3 P1 2.553635 1_655
Co3 P1 2.553635 1_555
Co3 Dy2 3.248783 1_555
Co4 P5 2.281408 1_555
Co4 P8 2.287334 1_555
Co4 P10 2.295109 1_555
Co4 P10 2.295109 1_455
Co4 Dy2 2.857230 1_455
Co4 Dy2 2.857230 1_555
Co4 Dy0 3.073453 1_555
Co5 P4 2.281408 1_555
Co5 P9 2.287334 1_545
Co5 P11 2.295109 1_456
Co5 P11 2.295109 1_556
Co5 Dy3 2.857230 1_455
Co5 Dy3 2.857230 1_555
Co5 Dy1 3.073453 1_546
Co6 P7 2.281408 1_555
Co6 P10 2.287334 1_555
Co6 P8 2.295109 1_555
Co6 P8 2.295109 1_655
Co6 Dy0 2.857230 1_655
Co6 Dy0 2.857230 1_555
Co6 Dy2 3.073453 1_555
Co7 P6 2.281408 1_555
Co7 P11 2.287334 1_565
Co7 P9 2.295109 1_554
Co7 P9 2.295109 1_654
Co7 Dy1 2.857230 1_555
Co7 Dy1 2.857230 1_655
Co7 Dy3 3.073453 1_564
Co8 P0 2.144135 1_555
Co8 P5 2.233068 1_555
Co8 P11 2.328025 1_455
Co8 P11 2.328025 1_555
Co8 Dy2 3.063186 1_555
Co8 Dy2 3.063186 1_455
Co8 Dy1 3.107711 1_545
Co9 P1 2.144135 1_555
Co9 P4 2.233068 1_555
Co9 P10 2.328025 1_555
Co9 P10 2.328025 1_455
Co9 Dy3 3.063186 1_555
Co9 Dy3 3.063186 1_455
Co9 Dy0 3.107711 1_555
Co10 P2 2.144135 1_555
Co10 P7 2.233068 1_555
Co10 P9 2.328025 1_655
Co10 P9 2.328025 1_555
Co10 Dy0 3.063186 1_655
Co10 Dy0 3.063186 1_555
Co10 Dy3 3.107711 1_565
Co11 P3 2.144135 1_555
Co11 P6 2.233068 1_555
Co11 P8 2.328025 1_655
Co11 P8 2.328025 1_555
Co11 Dy1 3.063186 1_555
Co11 Dy1 3.063186 1_655
Co11 Dy2 3.107711 1_555
Co12 P1 2.242012 1_565
Co12 P9 2.266136 1_555
Co12 P7 2.275756 1_455
Co12 P7 2.275756 1_555
Co12 Dy3 2.965965 1_465
Co12 Dy3 2.965965 1_565
Co12 Dy0 3.062864 1_555
Co13 P0 2.242012 1_555
Co13 P8 2.266136 1_555
Co13 P6 2.275756 1_555
Co13 P6 2.275756 1_455
Co13 Dy2 2.965965 1_555
Co13 Dy2 2.965965 1_455
Co13 Dy1 3.062864 1_555
Co14 P3 2.242012 1_545
Co14 P11 2.266136 1_555
Co14 P5 2.275756 1_655
Co14 P5 2.275756 1_555
Co14 Dy1 2.965965 1_545
Co14 Dy1 2.965965 1_645
Co14 Dy2 3.062864 1_555
Co15 P2 2.242012 1_555
Co15 P10 2.266136 1_555
Co15 P4 2.275756 1_555
Co15 P4 2.275756 1_655
Co15 Dy0 2.965965 1_655
Co15 Dy0 2.965965 1_555
Co15 Dy3 3.062864 1_555
Co16 P4 2.138299 1_555
Co16 P0 2.154130 1_556
Co16 P2 2.222301 1_555
Co16 P2 2.222301 1_455
Co16 Dy0 2.943268 1_555
Co17 P5 2.138299 1_555
Co17 P1 2.154130 1_555
Co17 P3 2.222301 1_445
Co17 P3 2.222301 1_545
Co17 Dy1 2.943268 1_545
Co18 P6 2.138299 1_555
Co18 P2 2.154130 1_554
Co18 P0 2.222301 1_655
Co18 P0 2.222301 1_555
Co18 Dy2 2.943268 1_555
Co19 P7 2.138299 1_555
Co19 P3 2.154130 1_555
Co19 P1 2.222301 1_565
Co19 P1 2.222301 1_665
Co19 Dy3 2.943268 1_565
