# generated using pymatgen
data_CsGa(PO3)4
_symmetry_space_group_name_H-M   'P 1'
_cell_length_a   14.64014414
_cell_length_b   14.64014414
_cell_length_c   14.64014414
_cell_angle_alpha   90.00000000
_cell_angle_beta   90.00000000
_cell_angle_gamma   90.00000000
_symmetry_Int_Tables_number   1
_chemical_formula_structural   CsGa(PO3)4
_chemical_formula_sum   'Cs12 Ga12 P48 O144'
_cell_volume   3137.87802532
_cell_formula_units_Z   12
loop_
 _symmetry_equiv_pos_site_id
 _symmetry_equiv_pos_as_xyz
  1  'x, y, z'
loop_
 _atom_site_type_symbol
 _atom_site_label
 _atom_site_symmetry_multiplicity
 _atom_site_fract_x
 _atom_site_fract_y
 _atom_site_fract_z
 _atom_site_occupancy
  Cs  Cs0  1  -0.00000000  0.00000000  0.50000000  1
  Cs  Cs1  1  -0.00000000  0.50000000  -0.00000000  1
  Cs  Cs2  1  0.50000000  0.00000000  -0.00000000  1
  Cs  Cs3  1  0.50000000  0.50000000  0.50000000  1
  Cs  Cs4  1  0.34396206  0.65603794  0.15603794  1
  Cs  Cs5  1  0.65603794  0.15603794  0.34396206  1
  Cs  Cs6  1  0.15603794  0.34396206  0.65603794  1
  Cs  Cs7  1  0.84396206  0.84396206  0.84396206  1
  Cs  Cs8  1  0.65603794  0.34396206  0.84396206  1
  Cs  Cs9  1  0.34396206  0.84396206  0.65603794  1
  Cs  Cs10  1  0.84396206  0.65603794  0.34396206  1
  Cs  Cs11  1  0.15603794  0.15603794  0.15603794  1
  Ga  Ga0  1  0.50000000  0.50000000  -0.00000000  1
  Ga  Ga1  1  0.50000000  0.00000000  0.50000000  1
  Ga  Ga2  1  -0.00000000  0.50000000  0.50000000  1
  Ga  Ga3  1  -0.00000000  0.00000000  -0.00000000  1
  Ga  Ga4  1  0.19089287  0.80910713  0.30910713  1
  Ga  Ga5  1  0.80910713  0.30910713  0.19089287  1
  Ga  Ga6  1  0.30910713  0.19089287  0.80910713  1
  Ga  Ga7  1  0.69089287  0.69089287  0.69089287  1
  Ga  Ga8  1  0.80910713  0.19089287  0.69089287  1
  Ga  Ga9  1  0.19089287  0.69089287  0.80910713  1
  Ga  Ga10  1  0.69089287  0.80910713  0.19089287  1
  Ga  Ga11  1  0.30910713  0.30910713  0.30910713  1
  P  P0  1  0.08497088  0.71197311  0.47574126  1
  P  P1  1  0.91502912  0.21197311  0.02425874  1
  P  P2  1  0.41502912  0.28802689  0.97574126  1
  P  P3  1  0.58497088  0.78802689  0.52425874  1
  P  P4  1  0.47574126  0.08497088  0.71197311  1
  P  P5  1  0.02425874  0.91502912  0.21197311  1
  P  P6  1  0.97574126  0.41502912  0.28802689  1
  P  P7  1  0.52425874  0.58497088  0.78802689  1
  P  P8  1  0.71197311  0.47574126  0.08497088  1
  P  P9  1  0.21197311  0.02425874  0.91502912  1
  P  P10  1  0.28802689  0.97574126  0.41502912  1
  P  P11  1  0.78802689  0.52425874  0.58497088  1
  P  P12  1  0.91502912  0.28802689  0.52425874  1
  P  P13  1  0.08497088  0.78802689  0.97574126  1
  P  P14  1  0.58497088  0.71197311  0.02425874  1
  P  P15  1  0.41502912  0.21197311  0.47574126  1
  P  P16  1  0.52425874  0.91502912  0.28802689  1
  P  P17  1  0.97574126  0.08497088  0.78802689  1
  P  P18  1  0.02425874  0.58497088  0.71197311  1
  P  P19  1  0.47574126  0.41502912  0.21197311  1
  P  P20  1  0.28802689  0.52425874  0.91502912  1
  P  P21  1  0.78802689  0.97574126  0.08497088  1
  P  P22  1  0.71197311  0.02425874  0.58497088  1
  P  P23  1  0.21197311  0.47574126  0.41502912  1
  P  P24  1  0.27973403  0.66577326  0.44796048  1
  P  P25  1  0.72026597  0.16577326  0.05203952  1
  P  P26  1  0.22026597  0.33422674  0.94796048  1
  P  P27  1  0.77973403  0.83422674  0.55203952  1
  P  P28  1  0.44796048  0.27973403  0.66577326  1
  P  P29  1  0.05203952  0.72026597  0.16577326  1
  P  P30  1  0.94796048  0.22026597  0.33422674  1
  P  P31  1  0.55203952  0.77973403  0.83422674  1
  P  P32  1  0.66577326  0.44796048  0.27973403  1
  P  P33  1  0.16577326  0.05203952  0.72026597  1
  P  P34  1  0.33422674  0.94796048  0.22026597  1
  P  P35  1  0.83422674  0.55203952  0.77973403  1
  P  P36  1  0.72026597  0.33422674  0.55203952  1
  P  P37  1  0.27973403  0.83422674  0.94796048  1
  P  P38  1  0.77973403  0.66577326  0.05203952  1
  P  P39  1  0.22026597  0.16577326  0.44796048  1
  P  P40  1  0.55203952  0.72026597  0.33422674  1
  P  P41  1  0.94796048  0.27973403  0.83422674  1
  P  P42  1  0.05203952  0.77973403  0.66577326  1
  P  P43  1  0.44796048  0.22026597  0.16577326  1
  P  P44  1  0.33422674  0.55203952  0.72026597  1
  P  P45  1  0.83422674  0.94796048  0.27973403  1
  P  P46  1  0.66577326  0.05203952  0.77973403  1
  P  P47  1  0.16577326  0.44796048  0.22026597  1
  O  O0  1  0.17806839  0.50456245  0.31525677  1
  O  O1  1  0.82193161  0.00456245  0.18474323  1
  O  O2  1  0.32193161  0.49543755  0.81525677  1
  O  O3  1  0.67806839  0.99543755  0.68474323  1
  O  O4  1  0.31525677  0.17806839  0.50456245  1
  O  O5  1  0.18474323  0.82193161  0.00456245  1
  O  O6  1  0.81525677  0.32193161  0.49543755  1
  O  O7  1  0.68474323  0.67806839  0.99543755  1
  O  O8  1  0.50456245  0.31525677  0.17806839  1
  O  O9  1  0.00456245  0.18474323  0.82193161  1
  O  O10  1  0.49543755  0.81525677  0.32193161  1
  O  O11  1  0.99543755  0.68474323  0.67806839  1
  O  O12  1  0.82193161  0.49543755  0.68474323  1
  O  O13  1  0.17806839  0.99543755  0.81525677  1
  O  O14  1  0.67806839  0.50456245  0.18474323  1
  O  O15  1  0.32193161  0.00456245  0.31525677  1
  O  O16  1  0.68474323  0.82193161  0.49543755  1
  O  O17  1  0.81525677  0.17806839  0.99543755  1
  O  O18  1  0.18474323  0.67806839  0.50456245  1
  O  O19  1  0.31525677  0.32193161  0.00456245  1
  O  O20  1  0.49543755  0.68474323  0.82193161  1
  O  O21  1  0.99543755  0.81525677  0.17806839  1
  O  O22  1  0.50456245  0.18474323  0.67806839  1
  O  O23  1  0.00456245  0.31525677  0.32193161  1
  O  O24  1  0.02139195  0.98120059  0.13309138  1
  O  O25  1  0.97860805  0.48120059  0.36690862  1
  O  O26  1  0.47860805  0.01879941  0.63309138  1
  O  O27  1  0.52139195  0.51879941  0.86690862  1
  O  O28  1  0.13309138  0.02139195  0.98120059  1
  O  O29  1  0.36690862  0.97860805  0.48120059  1
  O  O30  1  0.63309138  0.47860805  0.01879941  1
  O  O31  1  0.86690862  0.52139195  0.51879941  1
  O  O32  1  0.98120059  0.13309138  0.02139195  1
  O  O33  1  0.48120059  0.36690862  0.97860805  1
  O  O34  1  0.01879941  0.63309138  0.47860805  1
  O  O35  1  0.51879941  0.86690862  0.52139195  1
  O  O36  1  0.97860805  0.01879941  0.86690862  1
  O  O37  1  0.02139195  0.51879941  0.63309138  1
  O  O38  1  0.52139195  0.98120059  0.36690862  1
  O  O39  1  0.47860805  0.48120059  0.13309138  1
  O  O40  1  0.86690862  0.97860805  0.01879941  1
  O  O41  1  0.63309138  0.02139195  0.51879941  1
  O  O42  1  0.36690862  0.52139195  0.98120059  1
  O  O43  1  0.13309138  0.47860805  0.48120059  1
  O  O44  1  0.01879941  0.86690862  0.97860805  1
  O  O45  1  0.51879941  0.63309138  0.02139195  1
  O  O46  1  0.98120059  0.36690862  0.52139195  1
  O  O47  1  0.48120059  0.13309138  0.47860805  1
  O  O48  1  0.49543020  0.64190992  0.30677563  1
  O  O49  1  0.50456980  0.14190992  0.19322437  1
  O  O50  1  0.00456980  0.35809008  0.80677563  1
  O  O51  1  0.99543020  0.85809008  0.69322437  1
  O  O52  1  0.30677563  0.49543020  0.64190992  1
  O  O53  1  0.19322437  0.50456980  0.14190992  1
  O  O54  1  0.80677563  0.00456980  0.35809008  1
  O  O55  1  0.69322437  0.99543020  0.85809008  1
  O  O56  1  0.64190992  0.30677563  0.49543020  1
  O  O57  1  0.14190992  0.19322437  0.50456980  1
  O  O58  1  0.35809008  0.80677563  0.00456980  1
  O  O59  1  0.85809008  0.69322437  0.99543020  1
  O  O60  1  0.50456980  0.35809008  0.69322437  1
  O  O61  1  0.49543020  0.85809008  0.80677563  1
  O  O62  1  0.99543020  0.64190992  0.19322437  1
  O  O63  1  0.00456980  0.14190992  0.30677563  1
  O  O64  1  0.69322437  0.50456980  0.35809008  1
  O  O65  1  0.80677563  0.49543020  0.85809008  1
  O  O66  1  0.19322437  0.99543020  0.64190992  1
  O  O67  1  0.30677563  0.00456980  0.14190992  1
  O  O68  1  0.35809008  0.69322437  0.50456980  1
  O  O69  1  0.85809008  0.80677563  0.49543020  1
  O  O70  1  0.64190992  0.19322437  0.99543020  1
  O  O71  1  0.14190992  0.30677563  0.00456980  1
  O  O72  1  0.29434386  0.85309092  0.23523891  1
  O  O73  1  0.70565614  0.35309092  0.26476109  1
  O  O74  1  0.20565614  0.14690908  0.73523891  1
  O  O75  1  0.79434386  0.64690908  0.76476109  1
  O  O76  1  0.23523891  0.29434386  0.85309092  1
  O  O77  1  0.26476109  0.70565614  0.35309092  1
  O  O78  1  0.73523891  0.20565614  0.14690908  1
  O  O79  1  0.76476109  0.79434386  0.64690908  1
  O  O80  1  0.85309092  0.23523891  0.29434386  1
  O  O81  1  0.35309092  0.26476109  0.70565614  1
  O  O82  1  0.14690908  0.73523891  0.20565614  1
  O  O83  1  0.64690908  0.76476109  0.79434386  1
  O  O84  1  0.70565614  0.14690908  0.76476109  1
  O  O85  1  0.29434386  0.64690908  0.73523891  1
  O  O86  1  0.79434386  0.85309092  0.26476109  1
  O  O87  1  0.20565614  0.35309092  0.23523891  1
  O  O88  1  0.76476109  0.70565614  0.14690908  1
  O  O89  1  0.73523891  0.29434386  0.64690908  1
  O  O90  1  0.26476109  0.79434386  0.85309092  1
  O  O91  1  0.23523891  0.20565614  0.35309092  1
  O  O92  1  0.14690908  0.76476109  0.70565614  1
  O  O93  1  0.64690908  0.73523891  0.29434386  1
  O  O94  1  0.85309092  0.26476109  0.79434386  1
  O  O95  1  0.35309092  0.23523891  0.20565614  1
  O  O96  1  0.08690821  0.76558934  0.38772575  1
  O  O97  1  0.91309179  0.26558934  0.11227425  1
  O  O98  1  0.41309179  0.23441066  0.88772575  1
  O  O99  1  0.58690821  0.73441066  0.61227425  1
  O  O100  1  0.38772575  0.08690821  0.76558934  1
  O  O101  1  0.11227425  0.91309179  0.26558934  1
  O  O102  1  0.88772575  0.41309179  0.23441066  1
  O  O103  1  0.61227425  0.58690821  0.73441066  1
  O  O104  1  0.76558934  0.38772575  0.08690821  1
  O  O105  1  0.26558934  0.11227425  0.91309179  1
  O  O106  1  0.23441066  0.88772575  0.41309179  1
  O  O107  1  0.73441066  0.61227425  0.58690821  1
  O  O108  1  0.91309179  0.23441066  0.61227425  1
  O  O109  1  0.08690821  0.73441066  0.88772575  1
  O  O110  1  0.58690821  0.76558934  0.11227425  1
  O  O111  1  0.41309179  0.26558934  0.38772575  1
  O  O112  1  0.61227425  0.91309179  0.23441066  1
  O  O113  1  0.88772575  0.08690821  0.73441066  1
  O  O114  1  0.11227425  0.58690821  0.76558934  1
  O  O115  1  0.38772575  0.41309179  0.26558934  1
  O  O116  1  0.23441066  0.61227425  0.91309179  1
  O  O117  1  0.73441066  0.88772575  0.08690821  1
  O  O118  1  0.76558934  0.11227425  0.58690821  1
  O  O119  1  0.26558934  0.38772575  0.41309179  1
  O  O120  1  0.28357176  0.55500504  0.43676714  1
  O  O121  1  0.71642824  0.05500504  0.06323286  1
  O  O122  1  0.21642824  0.44499496  0.93676714  1
  O  O123  1  0.78357176  0.94499496  0.56323286  1
  O  O124  1  0.43676714  0.28357176  0.55500504  1
  O  O125  1  0.06323286  0.71642824  0.05500504  1
  O  O126  1  0.93676714  0.21642824  0.44499496  1
  O  O127  1  0.56323286  0.78357176  0.94499496  1
  O  O128  1  0.55500504  0.43676714  0.28357176  1
  O  O129  1  0.05500504  0.06323286  0.71642824  1
  O  O130  1  0.44499496  0.93676714  0.21642824  1
  O  O131  1  0.94499496  0.56323286  0.78357176  1
  O  O132  1  0.71642824  0.44499496  0.56323286  1
  O  O133  1  0.28357176  0.94499496  0.93676714  1
  O  O134  1  0.78357176  0.55500504  0.06323286  1
  O  O135  1  0.21642824  0.05500504  0.43676714  1
  O  O136  1  0.56323286  0.71642824  0.44499496  1
  O  O137  1  0.93676714  0.28357176  0.94499496  1
  O  O138  1  0.06323286  0.78357176  0.55500504  1
  O  O139  1  0.43676714  0.21642824  0.05500504  1
  O  O140  1  0.44499496  0.56323286  0.71642824  1
  O  O141  1  0.94499496  0.93676714  0.28357176  1
  O  O142  1  0.55500504  0.06323286  0.78357176  1
  O  O143  1  0.05500504  0.43676714  0.21642824  1
loop_
_geom_bond_atom_site_label_1
_geom_bond_atom_site_label_2
_geom_bond_distance
_geom_bond_site_symmetry_2
Cs0 O141 3.397811 1_445
Cs0 O126 3.397811 1_455
Cs0 O135 3.397811 1_555
Cs0 O138 3.397811 1_545
Cs0 O123 3.397811 1_445
Cs0 O129 3.397811 1_555
Cs0 O63 3.510430 1_555
Cs0 O57 3.510430 1_555
Cs0 O54 3.510430 1_455
Cs0 O66 3.510430 1_545
Cs0 O69 3.510430 1_445
Cs0 O51 3.510430 1_445
Cs1 O137 3.397811 1_454
Cs1 O122 3.397811 1_554
Cs1 O143 3.397811 1_555
Cs1 O134 3.397811 1_455
Cs1 O131 3.397811 1_454
Cs1 O125 3.397811 1_555
Cs1 O71 3.510430 1_555
Cs1 O53 3.510430 1_555
Cs1 O65 3.510430 1_454
Cs1 O59 3.510430 1_454
Cs1 O62 3.510430 1_455
Cs1 O50 3.510430 1_554
Cs2 O133 3.397811 1_544
Cs2 O139 3.397811 1_555
Cs2 O130 3.397811 1_545
Cs2 O127 3.397811 1_544
Cs2 O121 3.397811 1_555
Cs2 O142 3.397811 1_554
Cs2 O67 3.510430 1_555
Cs2 O49 3.510430 1_555
Cs2 O55 3.510430 1_544
Cs2 O61 3.510430 1_544
Cs2 O58 3.510430 1_545
Cs2 O70 3.510430 1_554
Cs3 O120 3.397811 1_555
Cs3 O124 3.397811 1_555
Cs3 O128 3.397811 1_555
Cs3 O132 3.397811 1_555
Cs3 O136 3.397811 1_555
Cs3 O140 3.397811 1_555
Cs3 O48 3.510430 1_555
Cs3 O56 3.510430 1_555
Cs3 O52 3.510430 1_555
Cs3 O60 3.510430 1_555
Cs3 O64 3.510430 1_555
Cs3 O68 3.510430 1_555
Cs4 O58 3.135318 1_555
Cs4 O48 3.135318 1_555
Cs4 O53 3.135318 1_555
Cs4 O82 3.192916 1_555
Cs4 O77 3.192916 1_555
Cs4 O72 3.192916 1_555
Cs4 O45 3.248139 1_555
Cs4 O42 3.248139 1_554
Cs4 O39 3.248139 1_555
Cs5 O54 3.135318 1_555
Cs5 O56 3.135318 1_555
Cs5 O49 3.135318 1_555
Cs5 O80 3.192916 1_555
Cs5 O78 3.192916 1_555
Cs5 O73 3.192916 1_555
Cs5 O41 3.248139 1_555
Cs5 O38 3.248139 1_545
Cs5 O47 3.248139 1_555
Cs6 O50 3.135318 1_555
Cs6 O52 3.135318 1_555
Cs6 O57 3.135318 1_555
Cs6 O76 3.192916 1_555
Cs6 O74 3.192916 1_555
Cs6 O81 3.192916 1_555
Cs6 O46 3.248139 1_455
Cs6 O37 3.248139 1_555
Cs6 O43 3.248139 1_555
Cs7 O51 3.135318 1_555
Cs7 O55 3.135318 1_555
Cs7 O59 3.135318 1_555
Cs7 O83 3.192916 1_555
Cs7 O75 3.192916 1_555
Cs7 O79 3.192916 1_555
Cs7 O44 3.248139 1_655
Cs7 O36 3.248139 1_565
Cs7 O40 3.248139 1_556
Cs8 O65 3.135318 1_555
Cs8 O60 3.135318 1_555
Cs8 O70 3.135318 1_555
Cs8 O89 3.192916 1_555
Cs8 O84 3.192916 1_555
Cs8 O94 3.192916 1_555
Cs8 O27 3.248139 1_555
Cs8 O30 3.248139 1_556
Cs8 O33 3.248139 1_555
Cs9 O61 3.135318 1_555
Cs9 O68 3.135318 1_555
Cs9 O66 3.135318 1_555
Cs9 O85 3.192916 1_555
Cs9 O92 3.192916 1_555
Cs9 O90 3.192916 1_555
Cs9 O35 3.248139 1_555
Cs9 O26 3.248139 1_565
Cs9 O29 3.248139 1_555
Cs10 O69 3.135318 1_555
Cs10 O64 3.135318 1_555
Cs10 O62 3.135318 1_555
Cs10 O93 3.192916 1_555
Cs10 O86 3.192916 1_555
Cs10 O88 3.192916 1_555
Cs10 O31 3.248139 1_555
Cs10 O34 3.248139 1_655
Cs10 O25 3.248139 1_555
Cs11 O63 3.135318 1_555
Cs11 O67 3.135318 1_555
Cs11 O71 3.135318 1_555
Cs11 O91 3.192916 1_555
Cs11 O95 3.192916 1_555
Cs11 O87 3.192916 1_555
Cs11 O28 3.248139 1_554
Cs11 O32 3.248139 1_455
Cs11 O24 3.248139 1_545
Ga0 O45 1.992585 1_555
Ga0 O30 1.992585 1_555
Ga0 O27 1.992585 1_554
Ga0 O42 1.992585 1_554
Ga0 O39 1.992585 1_555
Ga0 O33 1.992585 1_554
Ga1 O41 1.992585 1_555
Ga1 O38 1.992585 1_545
Ga1 O35 1.992585 1_545
Ga1 O26 1.992585 1_555
Ga1 O29 1.992585 1_545
Ga1 O47 1.992585 1_555
Ga2 O37 1.992585 1_555
Ga2 O46 1.992585 1_455
Ga2 O31 1.992585 1_455
Ga2 O34 1.992585 1_555
Ga2 O25 1.992585 1_455
Ga2 O43 1.992585 1_555
Ga3 O36 1.992585 1_454
Ga3 O24 1.992585 1_545
Ga3 O40 1.992585 1_445
Ga3 O28 1.992585 1_554
Ga3 O44 1.992585 1_544
Ga3 O32 1.992585 1_455
Ga4 O77 1.969260 1_555
Ga4 O72 1.969260 1_555
Ga4 O82 1.969260 1_555
Ga4 O101 2.012021 1_555
Ga4 O106 2.012021 1_555
Ga4 O96 2.012021 1_555
Ga5 O73 1.969260 1_555
Ga5 O80 1.969260 1_555
Ga5 O78 1.969260 1_555
Ga5 O97 2.012021 1_555
Ga5 O102 2.012021 1_555
Ga5 O104 2.012021 1_555
Ga6 O76 1.969260 1_555
Ga6 O81 1.969260 1_555
Ga6 O74 1.969260 1_555
Ga6 O105 2.012021 1_555
Ga6 O100 2.012021 1_555
Ga6 O98 2.012021 1_555
Ga7 O75 1.969260 1_555
Ga7 O79 1.969260 1_555
Ga7 O83 1.969260 1_555
Ga7 O107 2.012021 1_555
Ga7 O99 2.012021 1_555
Ga7 O103 2.012021 1_555
Ga8 O94 1.969260 1_555
Ga8 O84 1.969260 1_555
Ga8 O89 1.969260 1_555
Ga8 O118 2.012021 1_555
Ga8 O108 2.012021 1_555
Ga8 O113 2.012021 1_555
Ga9 O90 1.969260 1_555
Ga9 O85 1.969260 1_555
Ga9 O92 1.969260 1_555
Ga9 O116 2.012021 1_555
Ga9 O114 2.012021 1_555
Ga9 O109 2.012021 1_555
Ga10 O86 1.969260 1_555
Ga10 O93 1.969260 1_555
Ga10 O88 1.969260 1_555
Ga10 O112 2.012021 1_555
Ga10 O110 2.012021 1_555
Ga10 O117 2.012021 1_555
Ga11 O87 1.969260 1_555
Ga11 O91 1.969260 1_555
Ga11 O95 1.969260 1_555
Ga11 O111 2.012021 1_555
Ga11 O115 2.012021 1_555
Ga11 O119 2.012021 1_555
O0 P23 1.599379 1_555
O0 P47 1.628824 1_555
O1 P21 1.599379 1_545
O1 P45 1.628824 1_545
O2 P20 1.599379 1_555
O2 P44 1.628824 1_555
O3 P22 1.599379 1_565
O3 P46 1.628824 1_565
O4 P15 1.599379 1_555
O4 P39 1.628824 1_555
O5 P13 1.599379 1_554
O5 P37 1.628824 1_554
O6 P12 1.599379 1_555
O6 P36 1.628824 1_555
O7 P14 1.599379 1_556
O7 P38 1.628824 1_556
O8 P19 1.599379 1_555
O8 P43 1.628824 1_555
O9 P17 1.599379 1_455
O9 P41 1.628824 1_455
O10 P16 1.599379 1_555
O10 P40 1.628824 1_555
O11 P18 1.599379 1_655
O11 P42 1.628824 1_655
O12 P11 1.599379 1_555
O12 P35 1.628824 1_555
O13 P9 1.599379 1_565
O13 P33 1.628824 1_565
O14 P8 1.599379 1_555
O14 P32 1.628824 1_555
O15 P10 1.599379 1_545
O15 P34 1.628824 1_545
O16 P3 1.599379 1_555
O16 P27 1.628824 1_555
O17 P1 1.599379 1_556
O17 P25 1.628824 1_556
O18 P0 1.599379 1_555
O18 P24 1.628824 1_555
O19 P2 1.599379 1_554
O19 P26 1.628824 1_554
O20 P7 1.599379 1_555
O20 P31 1.628824 1_555
O21 P5 1.599379 1_655
O21 P29 1.628824 1_655
O22 P4 1.599379 1_555
O22 P28 1.628824 1_555
O23 P6 1.599379 1_455
O23 P30 1.628824 1_455
O24 P5 1.507950 1_555
O25 P6 1.507950 1_555
O26 P4 1.507950 1_555
O27 P7 1.507950 1_555
O28 P9 1.507950 1_555
O29 P10 1.507950 1_555
O30 P8 1.507950 1_555
O31 P11 1.507950 1_555
O32 P1 1.507950 1_555
O33 P2 1.507950 1_555
O34 P0 1.507950 1_555
O35 P3 1.507950 1_555
O36 P17 1.507950 1_555
O37 P18 1.507950 1_555
O38 P16 1.507950 1_555
O39 P19 1.507950 1_555
O40 P21 1.507950 1_555
O41 P22 1.507950 1_555
O42 P20 1.507950 1_555
O43 P23 1.507950 1_555
O44 P13 1.507950 1_555
O45 P14 1.507950 1_555
O46 P12 1.507950 1_555
O47 P15 1.507950 1_555
O48 P40 1.471160 1_555
O49 P43 1.471160 1_555
O50 P41 1.471160 1_455
O51 P42 1.471160 1_655
O52 P44 1.471160 1_555
O53 P47 1.471160 1_555
O54 P45 1.471160 1_545
O55 P46 1.471160 1_565
O56 P36 1.471160 1_555
O57 P39 1.471160 1_555
O58 P37 1.471160 1_554
O59 P38 1.471160 1_556
O60 P28 1.471160 1_555
O61 P31 1.471160 1_555
O62 P29 1.471160 1_655
O63 P30 1.471160 1_455
O64 P32 1.471160 1_555
O65 P35 1.471160 1_555
O66 P33 1.471160 1_565
O67 P34 1.471160 1_545
O68 P24 1.471160 1_555
O69 P27 1.471160 1_555
O70 P25 1.471160 1_556
O71 P26 1.471160 1_554
O72 P34 1.522509 1_555
O73 P32 1.522509 1_555
O74 P33 1.522509 1_555
O75 P35 1.522509 1_555
O76 P26 1.522509 1_555
O77 P24 1.522509 1_555
O78 P25 1.522509 1_555
O79 P27 1.522509 1_555
O80 P30 1.522509 1_555
O81 P28 1.522509 1_555
O82 P29 1.522509 1_555
O83 P31 1.522509 1_555
O84 P46 1.522509 1_555
O85 P44 1.522509 1_555
O86 P45 1.522509 1_555
O87 P47 1.522509 1_555
O88 P38 1.522509 1_555
O89 P36 1.522509 1_555
O90 P37 1.522509 1_555
O91 P39 1.522509 1_555
O92 P42 1.522509 1_555
O93 P40 1.522509 1_555
O94 P41 1.522509 1_555
O95 P43 1.522509 1_555
O96 P0 1.509085 1_555
O97 P1 1.509085 1_555
O98 P2 1.509085 1_555
O99 P3 1.509085 1_555
O100 P4 1.509085 1_555
O101 P5 1.509085 1_555
O102 P6 1.509085 1_555
O103 P7 1.509085 1_555
O104 P8 1.509085 1_555
O105 P9 1.509085 1_555
O106 P10 1.509085 1_555
O107 P11 1.509085 1_555
O108 P12 1.509085 1_555
O109 P13 1.509085 1_555
O110 P14 1.509085 1_555
O111 P15 1.509085 1_555
O112 P16 1.509085 1_555
O113 P17 1.509085 1_555
O114 P18 1.509085 1_555
O115 P19 1.509085 1_555
O116 P20 1.509085 1_555
O117 P21 1.509085 1_555
O118 P22 1.509085 1_555
O119 P23 1.509085 1_555
O120 P23 1.595820 1_555
O120 P24 1.630890 1_555
O121 P21 1.595820 1_545
O121 P25 1.630890 1_555
O122 P20 1.595820 1_555
O122 P26 1.630890 1_555
O123 P22 1.595820 1_565
O123 P27 1.630890 1_555
O124 P15 1.595820 1_555
O124 P28 1.630890 1_555
O125 P13 1.595820 1_554
O125 P29 1.630890 1_555
O126 P12 1.595820 1_555
O126 P30 1.630890 1_555
O127 P14 1.595820 1_556
O127 P31 1.630890 1_555
O128 P19 1.595820 1_555
O128 P32 1.630890 1_555
O129 P17 1.595820 1_455
O129 P33 1.630890 1_555
O130 P16 1.595820 1_555
O130 P34 1.630890 1_555
O131 P18 1.595820 1_655
O131 P35 1.630890 1_555
O132 P11 1.595820 1_555
O132 P36 1.630890 1_555
O133 P9 1.595820 1_565
O133 P37 1.630890 1_555
O134 P8 1.595820 1_555
O134 P38 1.630890 1_555
O135 P10 1.595820 1_545
O135 P39 1.630890 1_555
O136 P3 1.595820 1_555
O136 P40 1.630890 1_555
O137 P1 1.595820 1_556
O137 P41 1.630890 1_555
O138 P0 1.595820 1_555
O138 P42 1.630890 1_555
O139 P2 1.595820 1_554
O139 P43 1.630890 1_555
O140 P7 1.595820 1_555
O140 P44 1.630890 1_555
O141 P5 1.595820 1_655
O141 P45 1.630890 1_555
O142 P4 1.595820 1_555
O142 P46 1.630890 1_555
O143 P6 1.595820 1_455
O143 P47 1.630890 1_555
