# generated using pymatgen
data_Nb2NiS4
_symmetry_space_group_name_H-M   'P 1'
_cell_length_a   3.46734984
_cell_length_b   3.46734984
_cell_length_c   13.19982600
_cell_angle_alpha   90.00000000
_cell_angle_beta   90.00000000
_cell_angle_gamma   119.99999696
_symmetry_Int_Tables_number   1
_chemical_formula_structural   Nb2NiS4
_chemical_formula_sum   'Nb2 Ni1 S4'
_cell_volume   137.43399660
_cell_formula_units_Z   1
loop_
 _symmetry_equiv_pos_site_id
 _symmetry_equiv_pos_as_xyz
  1  'x, y, z'
loop_
 _atom_site_type_symbol
 _atom_site_label
 _atom_site_symmetry_multiplicity
 _atom_site_fract_x
 _atom_site_fract_y
 _atom_site_fract_z
 _atom_site_occupancy
  Nb  Nb0  1  0.33333300  0.66666700  0.26968500  1
  Nb  Nb1  1  0.66666700  0.33333300  0.73031500  1
  Ni  Ni0  1  0.00000000  0.00000000  0.00000000  1
  S  S0  1  0.33333300  0.66666700  0.09120000  1
  S  S1  1  0.66666700  0.33333300  0.90880000  1
  S  S2  1  0.33333300  0.66666700  0.62864500  1
  S  S3  1  0.66666700  0.33333300  0.37135500  1
loop_
_geom_bond_atom_site_label_1
_geom_bond_atom_site_label_2
_geom_bond_distance
_geom_bond_site_symmetry_2
Nb0 S0 2.355971 1_555
Nb0 S3 2.410090 1_455
Nb0 S3 2.410090 1_565
Nb0 S3 2.410094 1_555
Nb1 S1 2.355971 1_555
Nb1 S2 2.410090 1_545
Nb1 S2 2.410090 1_655
Nb1 S2 2.410094 1_555
Ni0 S0 2.335956 1_545
Ni0 S1 2.335956 1_454
Ni0 S1 2.335958 1_554
Ni0 S0 2.335958 1_445
Ni0 S1 2.335958 1_444
Ni0 S0 2.335958 1_555
