# generated using pymatgen
data_Yb2MnCoO6
_symmetry_space_group_name_H-M   'P 1'
_cell_length_a   5.41264800
_cell_length_b   5.25866000
_cell_length_c   9.12615103
_cell_angle_alpha   54.96443919
_cell_angle_beta   90.00000000
_cell_angle_gamma   90.00000000
_symmetry_Int_Tables_number   1
_chemical_formula_structural   Yb2MnCoO6
_chemical_formula_sum   'Yb4 Mn2 Co2 O12'
_cell_volume   212.69054556
_cell_formula_units_Z   2
loop_
 _symmetry_equiv_pos_site_id
 _symmetry_equiv_pos_as_xyz
  1  'x, y, z'
loop_
 _atom_site_type_symbol
 _atom_site_label
 _atom_site_symmetry_multiplicity
 _atom_site_fract_x
 _atom_site_fract_y
 _atom_site_fract_z
 _atom_site_occupancy
  Yb  Yb0  1  0.44087400  0.76430700  0.74971700  1
  Yb  Yb1  1  0.94087400  0.23569300  0.75028300  1
  Yb  Yb2  1  0.55912600  0.23569300  0.25028300  1
  Yb  Yb3  1  0.05912600  0.76430700  0.24971700  1
  Mn  Mn0  1  0.50000000  0.50000000  0.50000000  1
  Mn  Mn1  1  0.00000000  0.50000000  0.00000000  1
  Co  Co0  1  0.50000000  0.00000000  0.00000000  1
  Co  Co1  1  0.00000000  0.00000000  0.50000000  1
  O  O0  1  0.01650200  0.67006000  0.74896100  1
  O  O1  1  0.51650200  0.32994000  0.75103900  1
  O  O2  1  0.98349800  0.32994000  0.25103900  1
  O  O3  1  0.48349800  0.67006000  0.24896100  1
  O  O4  1  0.20380700  0.83794300  0.95730800  1
  O  O5  1  0.70380700  0.16205700  0.54269200  1
  O  O6  1  0.79334500  0.74363800  0.45798700  1
  O  O7  1  0.29334500  0.25636200  0.04201300  1
  O  O8  1  0.79619300  0.16205700  0.04269200  1
  O  O9  1  0.29619300  0.83794300  0.45730800  1
  O  O10  1  0.20665500  0.25636200  0.54201300  1
  O  O11  1  0.70665500  0.74363800  0.95798700  1
loop_
_geom_bond_atom_site_label_1
_geom_bond_atom_site_label_2
_geom_bond_distance
_geom_bond_site_symmetry_2
Mn0 O1 1.924603 1_555
Mn0 O3 1.924603 1_555
Mn0 O5 1.931814 1_555
Mn0 O9 1.931814 1_555
Mn0 O6 1.935331 1_555
Mn0 O10 1.935331 1_555
Mn1 O2 1.924603 1_455
Mn1 O0 1.924603 1_554
Mn1 O8 1.931814 1_455
Mn1 O4 1.931814 1_554
Mn1 O7 1.935331 1_555
Mn1 O11 1.935331 1_454
Co0 O1 1.911642 1_554
Co0 O3 1.911642 1_545
Co0 O7 1.951685 1_555
Co0 O11 1.951685 1_544
Co0 O4 1.956908 1_544
Co0 O8 1.956908 1_555
Co1 O0 1.911642 1_545
Co1 O2 1.911642 1_455
Co1 O10 1.951685 1_555
Co1 O6 1.951685 1_445
Co1 O9 1.956908 1_545
Co1 O5 1.956908 1_455
O0 Yb1 2.313782 1_455
O0 Yb0 2.350682 1_555
O1 Yb0 2.313782 1_555
O1 Yb1 2.350682 1_555
O2 Yb3 2.313782 1_655
O2 Yb2 2.350682 1_555
O3 Yb2 2.313782 1_555
O3 Yb3 2.350682 1_555
O4 Yb1 2.330791 1_465
O4 Yb0 2.495576 1_555
O4 Yb3 2.588051 1_556
O5 Yb0 2.330791 1_545
O5 Yb1 2.495576 1_555
O5 Yb2 2.588051 1_555
O6 Yb3 2.335979 1_655
O6 Yb2 2.502822 1_565
O6 Yb1 2.589824 1_555
O7 Yb2 2.335979 1_555
O7 Yb3 2.502822 1_545
O7 Yb0 2.589824 1_554
O8 Yb3 2.330791 1_645
O8 Yb2 2.495576 1_555
O8 Yb1 2.588051 1_554
O9 Yb2 2.330791 1_565
O9 Yb3 2.495576 1_555
O9 Yb0 2.588051 1_555
O10 Yb1 2.335979 1_455
O10 Yb0 2.502822 1_545
O10 Yb3 2.589824 1_555
O11 Yb0 2.335979 1_555
O11 Yb1 2.502822 1_565
O11 Yb2 2.589824 1_556
