# generated using pymatgen
data_Sm2Co2O5
_symmetry_space_group_name_H-M   'P 1'
_cell_length_a   8.56372098
_cell_length_b   8.56372098
_cell_length_c   8.56372098
_cell_angle_alpha   142.93650581
_cell_angle_beta   140.68908467
_cell_angle_gamma   55.13200663
_symmetry_Int_Tables_number   1
_chemical_formula_structural   Sm2Co2O5
_chemical_formula_sum   'Sm4 Co4 O10'
_cell_volume   238.07793757
_cell_formula_units_Z   2
loop_
 _symmetry_equiv_pos_site_id
 _symmetry_equiv_pos_as_xyz
  1  'x, y, z'
loop_
 _atom_site_type_symbol
 _atom_site_label
 _atom_site_symmetry_multiplicity
 _atom_site_fract_x
 _atom_site_fract_y
 _atom_site_fract_z
 _atom_site_occupancy
  Sm  Sm0  1  0.91471300  0.37909200  0.51468200  1
  Sm  Sm1  1  0.08528700  0.59996800  0.46437900  1
  Sm  Sm2  1  0.36441000  0.87909200  0.46437900  1
  Sm  Sm3  1  0.63559000  0.09996800  0.51468200  1
  Co  Co0  1  0.00000000  0.00775300  0.00775300  1
  Co  Co1  1  0.50000000  0.50775300  0.00775300  1
  Co  Co2  1  0.69036600  0.71151200  0.90187800  1
  Co  Co3  1  0.30963400  0.21151200  0.02114600  1
  O  O0  1  0.28309100  0.27142600  0.50784400  1
  O  O1  1  0.71690900  0.22475300  0.98833400  1
  O  O2  1  0.26358200  0.77142600  0.98833400  1
  O  O3  1  0.73641800  0.72475300  0.50784400  1
  O  O4  1  0.95260000  0.92362600  0.16163600  1
  O  O5  1  0.04740000  0.20903600  0.97102600  1
  O  O6  1  0.26199000  0.42362600  0.97102600  1
  O  O7  1  0.73801000  0.70903600  0.16163600  1
  O  O8  1  0.64105000  0.33683400  0.47788400  1
  O  O9  1  0.35895000  0.83683400  0.69578400  1
loop_
_geom_bond_atom_site_label_1
_geom_bond_atom_site_label_2
_geom_bond_distance
_geom_bond_site_symmetry_2
Co0 O3 2.009772 1_444
Co0 O2 2.009773 1_544
Co0 O1 2.019052 1_454
Co0 O0 2.019053 1_555
Co0 O4 2.257821 1_445
Co0 O5 2.257821 1_554
Co1 O1 2.009771 1_554
Co1 O0 2.009772 1_554
Co1 O3 2.019053 1_555
Co1 O2 2.019054 1_554
Co1 O6 2.257821 1_554
Co1 O7 2.257821 1_555
Co2 O4 1.943246 1_556
Co2 O7 1.943246 1_556
Co2 O9 2.027520 1_555
Co2 O8 2.059296 1_555
Co3 O5 1.943246 1_554
Co3 O6 1.943246 1_554
Co3 O8 2.027520 1_555
Co3 O9 2.059296 1_544
O0 Sm3 2.463274 1_555
O0 Sm1 2.484024 1_555
O0 Sm2 2.764421 1_545
O0 Sm0 2.771204 1_455
O1 Sm2 2.463276 1_545
O1 Sm0 2.484039 1_556
O1 Sm3 2.764407 1_555
O1 Sm1 2.771196 1_656
O2 Sm1 2.463263 1_555
O2 Sm3 2.484028 1_566
O2 Sm0 2.764424 1_455
O2 Sm2 2.771213 1_556
O3 Sm0 2.463275 1_555
O3 Sm2 2.484032 1_555
O3 Sm1 2.764418 1_655
O3 Sm3 2.771196 1_565
O4 Sm2 2.279444 1_655
O4 Sm0 2.389675 1_565
O5 Sm3 2.279443 1_455
O5 Sm1 2.389675 1_556
O6 Sm0 2.279444 1_455
O6 Sm2 2.389675 1_556
O7 Sm1 2.279449 1_655
O7 Sm3 2.389674 1_565
O8 Sm0 2.316783 1_555
O8 Sm3 2.316792 1_555
O9 Sm2 2.316783 1_555
O9 Sm1 2.316790 1_555
