# generated using pymatgen
data_PmPaO4
_symmetry_space_group_name_H-M   'P 1'
_cell_length_a   6.64408400
_cell_length_b   6.64408400
_cell_length_c   6.64408400
_cell_angle_alpha   131.47191280
_cell_angle_beta   131.47191280
_cell_angle_gamma   71.06437297
_symmetry_Int_Tables_number   1
_chemical_formula_structural   PmPaO4
_chemical_formula_sum   'Pm2 Pa2 O8'
_cell_volume   161.22744762
_cell_formula_units_Z   2
loop_
 _symmetry_equiv_pos_site_id
 _symmetry_equiv_pos_as_xyz
  1  'x, y, z'
loop_
 _atom_site_type_symbol
 _atom_site_label
 _atom_site_symmetry_multiplicity
 _atom_site_fract_x
 _atom_site_fract_y
 _atom_site_fract_z
 _atom_site_occupancy
  Pm  Pm0  1  -0.00000000  0.00000000  -0.00000000  1
  Pm  Pm1  1  0.75000000  0.25000000  0.50000000  1
  Pa  Pa0  1  0.50000000  0.50000000  -0.00000000  1
  Pa  Pa1  1  0.25000000  0.75000000  0.50000000  1
  O  O0  1  0.37500000  0.39246375  0.51746375  1
  O  O1  1  0.87500000  0.85753625  0.48253625  1
  O  O2  1  0.14246375  0.12500000  0.51746375  1
  O  O3  1  0.60753625  0.12500000  0.98253625  1
  O  O4  1  0.87500000  0.39246375  0.01746375  1
  O  O5  1  0.60753625  0.62500000  0.48253625  1
  O  O6  1  0.14246375  0.62500000  0.01746375  1
  O  O7  1  0.37500000  0.85753625  0.98253625  1
loop_
_geom_bond_atom_site_label_1
_geom_bond_atom_site_label_2
_geom_bond_distance
_geom_bond_site_symmetry_2
O0 Pa0 2.302875 1_556
O0 Pa1 2.302875 1_555
O0 Pm0 2.413293 1_555
O0 Pm1 2.413293 1_555
O1 Pa0 2.302875 1_555
O1 Pa1 2.302875 1_655
O1 Pm0 2.413293 1_666
O1 Pm1 2.413293 1_565
O2 Pa0 2.302875 1_556
O2 Pa1 2.302875 1_545
O2 Pm0 2.413293 1_555
O2 Pm1 2.413293 1_455
O3 Pa1 2.302875 1_545
O3 Pa0 2.302875 1_556
O3 Pm1 2.413293 1_556
O3 Pm0 2.413293 1_656
O4 Pa1 2.302875 1_655
O4 Pa0 2.302875 1_555
O4 Pm1 2.413293 1_554
O4 Pm0 2.413293 1_655
O5 Pa0 2.302875 1_555
O5 Pa1 2.302875 1_555
O5 Pm0 2.413293 1_666
O5 Pm1 2.413293 1_555
O6 Pa0 2.302875 1_555
O6 Pa1 2.302875 1_555
O6 Pm1 2.413293 1_454
O6 Pm0 2.413293 1_565
O7 Pa1 2.302875 1_555
O7 Pa0 2.302875 1_556
O7 Pm1 2.413293 1_566
O7 Pm0 2.413293 1_566
