# generated using pymatgen
data_Nb3Sb(PO4)6
_symmetry_space_group_name_H-M   'P 1'
_cell_length_a   8.93370056
_cell_length_b   9.00549700
_cell_length_c   12.51014280
_cell_angle_alpha   90.00000000
_cell_angle_beta   90.19271582
_cell_angle_gamma   90.00000000
_symmetry_Int_Tables_number   1
_chemical_formula_structural   Nb3Sb(PO4)6
_chemical_formula_sum   'Nb6 Sb2 P12 O48'
_cell_volume   1006.46548898
_cell_formula_units_Z   2
loop_
 _symmetry_equiv_pos_site_id
 _symmetry_equiv_pos_as_xyz
  1  'x, y, z'
loop_
 _atom_site_type_symbol
 _atom_site_label
 _atom_site_symmetry_multiplicity
 _atom_site_fract_x
 _atom_site_fract_y
 _atom_site_fract_z
 _atom_site_occupancy
  Nb  Nb0  1  0.74990300  0.46485300  0.11770600  1
  Nb  Nb1  1  0.74850500  0.03497200  0.88497500  1
  Nb  Nb2  1  0.75215400  0.53504300  0.61650600  1
  Nb  Nb3  1  0.24990300  0.03514700  0.61770600  1
  Nb  Nb4  1  0.25215400  0.96495700  0.11650600  1
  Nb  Nb5  1  0.24850500  0.46502800  0.38497500  1
  Sb  Sb0  1  0.74854300  0.96539500  0.37867400  1
  Sb  Sb1  1  0.24854300  0.53460500  0.87867400  1
  P  P0  1  0.53899700  0.75087500  0.00583200  1
  P  P1  1  0.97050500  0.25533400  0.50526900  1
  P  P2  1  0.47050500  0.24466600  0.00526900  1
  P  P3  1  0.03899700  0.74912500  0.50583200  1
  P  P4  1  0.61113100  0.59823000  0.35139300  1
  P  P5  1  0.90152400  0.11738500  0.13609900  1
  P  P6  1  0.87752000  0.38861800  0.85282800  1
  P  P7  1  0.60121300  0.88416800  0.64765400  1
  P  P8  1  0.40152400  0.38261500  0.63609900  1
  P  P9  1  0.11113100  0.90177000  0.85139300  1
  P  P10  1  0.10121300  0.61583200  0.14765400  1
  P  P11  1  0.37752000  0.11138200  0.35282800  1
  O  O0  1  0.92824400  0.59350500  0.14713000  1
  O  O1  1  0.54617300  0.11098400  0.34893400  1
  O  O2  1  0.57456800  0.40454400  0.63820700  1
  O  O3  1  0.94018400  0.93650500  0.85159700  1
  O  O4  1  0.04617300  0.38901600  0.84893400  1
  O  O5  1  0.42824400  0.90649500  0.64713000  1
  O  O6  1  0.44018400  0.56349500  0.35159700  1
  O  O7  1  0.07456800  0.09545600  0.13820700  1
  O  O8  1  0.95777900  0.82816800  0.41671600  1
  O  O9  1  0.57317900  0.33387800  0.08264600  1
  O  O10  1  0.56921600  0.14693300  0.93220500  1
  O  O11  1  0.92923300  0.66616200  0.58247000  1
  O  O12  1  0.07317900  0.16612200  0.58264600  1
  O  O13  1  0.45777900  0.67183200  0.91671600  1
  O  O14  1  0.42923300  0.83383800  0.08247000  1
  O  O15  1  0.06921600  0.35306700  0.43220500  1
  O  O16  1  0.68242800  0.48996400  0.26755800  1
  O  O17  1  0.82423800  0.01223700  0.21142100  1
  O  O18  1  0.81014200  0.49785300  0.76716100  1
  O  O19  1  0.66194200  0.96695400  0.74843800  1
  O  O20  1  0.32423800  0.48776300  0.71142100  1
  O  O21  1  0.18242800  0.01003600  0.76755800  1
  O  O22  1  0.16194200  0.53304600  0.24843800  1
  O  O23  1  0.31014200  0.00214700  0.26716100  1
  O  O24  1  0.67979200  0.56259800  0.46264100  1
  O  O25  1  0.84844000  0.08892800  0.02026800  1
  O  O26  1  0.81661200  0.43680300  0.96406000  1
  O  O27  1  0.67211600  0.94585600  0.54839200  1
  O  O28  1  0.34844000  0.41107200  0.52026800  1
  O  O29  1  0.17979200  0.93740200  0.96264100  1
  O  O30  1  0.17211600  0.55414400  0.04839200  1
  O  O31  1  0.31661200  0.06319700  0.46406000  1
  O  O32  1  0.63072200  0.63965800  0.07630700  1
  O  O33  1  0.87119000  0.15999400  0.43687000  1
  O  O34  1  0.87459600  0.36230500  0.57511700  1
  O  O35  1  0.65601100  0.86109700  0.95981100  1
  O  O36  1  0.37119000  0.34000600  0.93687000  1
  O  O37  1  0.13072200  0.86034200  0.57630700  1
  O  O38  1  0.15601100  0.63890300  0.45981100  1
  O  O39  1  0.37459600  0.13769500  0.07511700  1
  O  O40  1  0.63214900  0.75783000  0.31856300  1
  O  O41  1  0.86828100  0.28428400  0.15977300  1
  O  O42  1  0.81755500  0.23021500  0.82527900  1
  O  O43  1  0.63521500  0.71538100  0.66150200  1
  O  O44  1  0.36828100  0.21571600  0.65977300  1
  O  O45  1  0.13214900  0.74217000  0.81856300  1
  O  O46  1  0.13521500  0.78461900  0.16150200  1
  O  O47  1  0.31755500  0.26978500  0.32527900  1
loop_
_geom_bond_atom_site_label_1
_geom_bond_atom_site_label_2
_geom_bond_distance
_geom_bond_site_symmetry_2
Nb0 O32 1.968829 1_555
Nb0 O16 1.984061 1_555
Nb0 O0 2.003067 1_555
Nb0 O41 2.008949 1_555
Nb0 O9 2.017804 1_555
Nb0 O26 2.030093 1_554
Nb1 O19 1.970266 1_545
Nb1 O25 1.971720 1_556
Nb1 O3 1.974287 1_545
Nb1 O10 1.984329 1_555
Nb1 O35 2.004074 1_545
Nb1 O42 2.008190 1_555
Nb2 O34 1.971878 1_555
Nb2 O18 1.981445 1_555
Nb2 O2 1.993664 1_555
Nb2 O43 2.012386 1_555
Nb2 O11 2.020578 1_555
Nb2 O24 2.043588 1_555
Nb3 O37 1.968829 1_545
Nb3 O21 1.984061 1_555
Nb3 O5 2.003067 1_545
Nb3 O44 2.008949 1_555
Nb3 O12 2.017804 1_555
Nb3 O31 2.030093 1_555
Nb4 O39 1.971878 1_565
Nb4 O23 1.981445 1_565
Nb4 O7 1.993664 1_565
Nb4 O46 2.012386 1_555
Nb4 O14 2.020578 1_555
Nb4 O29 2.043588 1_554
Nb5 O22 1.970266 1_555
Nb5 O28 1.971720 1_555
Nb5 O6 1.974287 1_555
Nb5 O15 1.984329 1_555
Nb5 O38 2.004074 1_555
Nb5 O47 2.008190 1_555
O0 P10 1.558271 1_655
O1 P11 1.507651 1_555
O1 Sb0 2.263058 1_545
O2 P8 1.558621 1_555
O3 P9 1.558906 1_655
O4 P6 1.507651 1_455
O4 Sb1 2.263058 1_555
O5 P7 1.558271 1_555
O6 P4 1.558906 1_555
O7 P5 1.558621 1_455
O8 P3 1.506854 1_655
O8 Sb0 2.289499 1_555
O9 P2 1.554946 1_555
O10 P2 1.546996 1_556
O11 P3 1.563745 1_655
O12 P1 1.554946 1_455
O13 P0 1.506854 1_556
O13 Sb1 2.289499 1_555
O14 P0 1.563745 1_555
O15 P1 1.546996 1_455
O16 P4 1.568679 1_555
O17 P5 1.505206 1_555
O17 Sb0 2.241144 1_545
O18 P6 1.572971 1_555
O19 P7 1.560522 1_555
O20 P8 1.505206 1_555
O20 Sb1 2.241144 1_555
O21 P9 1.568679 1_545
O22 P10 1.560522 1_555
O23 P11 1.572971 1_555
O24 P4 1.552542 1_555
O25 P5 1.544582 1_555
O26 P6 1.557505 1_555
O27 P7 1.502384 1_555
O27 Sb0 2.239388 1_555
O28 P8 1.544582 1_555
O29 P9 1.552542 1_555
O30 P10 1.502384 1_555
O30 Sb1 2.239388 1_554
O31 P11 1.557505 1_555
O32 P0 1.564311 1_555
O33 P1 1.500488 1_555
O33 Sb0 2.190054 1_545
O34 P1 1.559077 1_555
O35 P0 1.553567 1_556
O36 P2 1.500488 1_556
O36 Sb1 2.190054 1_555
O37 P3 1.564311 1_555
O38 P3 1.553567 1_555
O39 P2 1.559077 1_555
O40 P4 1.506726 1_555
O40 Sb0 2.266162 1_555
O41 P5 1.560621 1_555
O42 P6 1.561863 1_555
O43 P7 1.559604 1_555
O44 P8 1.560621 1_555
O45 P9 1.506726 1_555
O45 Sb1 2.266162 1_555
O46 P10 1.559604 1_555
O47 P11 1.561863 1_555
