# generated using pymatgen
data_Ba2LiY2(Fe2O5)2
_symmetry_space_group_name_H-M   'P 1'
_cell_length_a   3.87587169
_cell_length_b   8.17973280
_cell_length_c   8.42228499
_cell_angle_alpha   95.56462344
_cell_angle_beta   91.65877421
_cell_angle_gamma   89.38945120
_symmetry_Int_Tables_number   1
_chemical_formula_structural   Ba2LiY2(Fe2O5)2
_chemical_formula_sum   'Ba2 Li1 Y2 Fe4 O10'
_cell_volume   265.63874960
_cell_formula_units_Z   1
loop_
 _symmetry_equiv_pos_site_id
 _symmetry_equiv_pos_as_xyz
  1  'x, y, z'
loop_
 _atom_site_type_symbol
 _atom_site_label
 _atom_site_symmetry_multiplicity
 _atom_site_fract_x
 _atom_site_fract_y
 _atom_site_fract_z
 _atom_site_occupancy
  Ba  Ba0  1  0.98198200  0.05871200  0.50866200  1
  Ba  Ba1  1  0.98506900  0.96444900  0.00423300  1
  Li  Li0  1  0.73837400  0.40158800  0.68509700  1
  Y  Y0  1  0.99494500  0.51383600  0.00009500  1
  Y  Y1  1  0.04793000  0.53469300  0.44635800  1
  Fe  Fe0  1  0.50729000  0.77099200  0.24430700  1
  Fe  Fe1  1  0.45615900  0.20625100  0.83604900  1
  Fe  Fe2  1  0.50918900  0.28590900  0.23608800  1
  Fe  Fe3  1  0.50845100  0.72954000  0.72984000  1
  O  O0  1  0.52745400  0.70393400  0.46543600  1
  O  O1  1  0.52706500  0.34789600  0.49202300  1
  O  O2  1  0.49555000  0.72565600  0.00036600  1
  O  O3  1  0.49330100  0.38192600  0.01329200  1
  O  O4  1  0.97976400  0.60393300  0.73080000  1
  O  O5  1  0.00687700  0.33794600  0.23452100  1
  O  O6  1  0.01016600  0.69656600  0.23180900  1
  O  O7  1  0.95928000  0.24840800  0.80278200  1
  O  O8  1  0.49430300  0.00527600  0.26084200  1
  O  O9  1  0.46017500  0.97415400  0.74406600  1
loop_
_geom_bond_atom_site_label_1
_geom_bond_atom_site_label_2
_geom_bond_distance
_geom_bond_site_symmetry_2
Ba0 O8 2.780748 1_555
Ba0 O7 2.795712 1_555
Ba0 O9 2.805404 1_645
Ba0 O8 2.921469 1_655
Ba0 O1 2.947024 1_555
Ba0 O9 3.004579 1_545
Ba0 O1 3.204106 1_655
Ba1 O2 2.734805 1_555
Ba1 O2 2.764059 1_655
Ba1 O8 2.881869 1_665
Ba1 O9 2.910163 1_654
Ba1 O8 2.912921 1_565
Ba1 O9 2.952752 1_554
Ba1 O7 3.005528 1_564
Ba1 O6 3.046937 1_655
Li0 O1 1.816589 1_555
Li0 O7 1.858578 1_555
Li0 O4 1.910903 1_555
Fe0 O8 1.908149 1_565
Fe0 O0 1.991063 1_555
Fe0 O6 2.023621 1_555
Fe0 O6 2.038329 1_655
Fe0 O2 2.051320 1_555
Fe1 O7 1.969674 1_455
Fe1 O3 1.972308 1_556
Fe1 O9 1.979776 1_545
Fe1 O7 2.016120 1_555
Fe2 O5 1.980494 1_655
Fe2 O5 1.988391 1_555
Fe2 O3 2.102332 1_555
Fe2 O1 2.165284 1_555
Fe2 O8 2.326470 1_555
Fe3 O9 1.999925 1_555
Fe3 O4 2.086492 1_555
Fe3 O0 2.219690 1_555
Fe3 O2 2.283747 1_556
Fe3 O4 2.302613 1_455
O0 Y1 2.321838 1_555
O0 Y1 2.434715 1_655
O1 Y1 2.437907 1_555
O1 Y1 2.604378 1_655
O2 Y0 2.583901 1_555
O2 Y0 2.614828 1_455
O3 Y0 2.207696 1_455
O3 Y0 2.244411 1_555
O4 Y1 2.428999 1_655
O4 Y0 2.450772 1_556
O5 Y1 2.287062 1_555
O5 Y0 2.552363 1_455
O6 Y0 2.340012 1_455
O6 Y1 2.341879 1_555
O7 Y0 2.605369 1_556
