# generated using pymatgen
data_Sr2YGaNi2O7
_symmetry_space_group_name_H-M   'P 1'
_cell_length_a   11.88688017
_cell_length_b   11.88688017
_cell_length_c   11.88688017
_cell_angle_alpha   153.09566213
_cell_angle_beta   152.60541428
_cell_angle_gamma   38.77400792
_symmetry_Int_Tables_number   1
_chemical_formula_structural   Sr2YGaNi2O7
_chemical_formula_sum   'Sr4 Y2 Ga2 Ni4 O14'
_cell_volume   349.10200544
_cell_formula_units_Z   2
loop_
 _symmetry_equiv_pos_site_id
 _symmetry_equiv_pos_as_xyz
  1  'x, y, z'
loop_
 _atom_site_type_symbol
 _atom_site_label
 _atom_site_symmetry_multiplicity
 _atom_site_fract_x
 _atom_site_fract_y
 _atom_site_fract_z
 _atom_site_occupancy
  Sr  Sr0  1  0.83205400  0.85486300  0.98394200  1
  Sr  Sr1  1  0.16794600  0.15188700  0.02280800  1
  Sr  Sr2  1  0.37092100  0.35486300  0.02280800  1
  Sr  Sr3  1  0.62907900  0.65188700  0.98394200  1
  Y  Y0  1  0.50000000  0.49706900  0.99706900  1
  Y  Y1  1  0.00000000  0.99706900  0.99706900  1
  Ga  Ga0  1  0.17368300  0.79210700  0.46579000  1
  Ga  Ga1  1  0.82631700  0.29210700  0.61842400  1
  Ni  Ni0  1  0.08069300  0.58043800  0.49660900  1
  Ni  Ni1  1  0.41617100  0.91591600  0.49660900  1
  Ni  Ni2  1  0.58382900  0.08043800  0.49974500  1
  Ni  Ni3  1  0.91930700  0.41591600  0.49974500  1
  O  O0  1  0.68644000  0.18451300  0.99802200  1
  O  O1  1  0.12736400  0.13483800  0.76220200  1
  O  O2  1  0.68649100  0.68451300  0.49807300  1
  O  O3  1  0.62901300  0.15054100  0.43001000  1
  O  O4  1  0.81491300  0.31534300  0.99782400  1
  O  O5  1  0.81751900  0.81534300  0.50043000  1
  O  O6  1  0.87263600  0.63483800  0.00747400  1
  O  O7  1  0.31350900  0.81158200  0.99802200  1
  O  O8  1  0.31356000  0.31158200  0.49807300  1
  O  O9  1  0.22053100  0.65054100  0.52152900  1
  O  O10  1  0.37098700  0.80099800  0.52152900  1
  O  O11  1  0.77946900  0.30099800  0.43001000  1
  O  O12  1  0.18508700  0.18291100  0.50043000  1
  O  O13  1  0.18248100  0.68291100  0.99782400  1
loop_
_geom_bond_atom_site_label_1
_geom_bond_atom_site_label_2
_geom_bond_distance
_geom_bond_site_symmetry_2
Ga0 O10 1.858222 1_555
Ga0 O9 1.858234 1_555
Ga0 O6 1.904896 1_455
Ga0 O1 1.913350 1_565
Ga1 O3 1.858223 1_555
Ga1 O11 1.858234 1_555
Ga1 O1 1.904896 1_655
Ga1 O6 1.913350 1_556
Ni0 O5 1.997790 1_455
Ni0 O4 2.000785 1_454
Ni0 O7 2.022688 1_555
Ni0 O8 2.023868 1_555
Ni0 O9 2.095322 1_555
Ni1 O12 1.997790 1_565
Ni1 O13 2.000785 1_554
Ni1 O0 2.022688 1_565
Ni1 O2 2.023868 1_555
Ni1 O10 2.095333 1_555
Ni2 O4 1.997790 1_555
Ni2 O5 2.000785 1_545
Ni2 O8 2.022688 1_555
Ni2 O7 2.023868 1_544
Ni2 O3 2.095333 1_555
Ni3 O13 1.997790 1_655
Ni3 O12 2.000785 1_655
Ni3 O2 2.022688 1_555
Ni3 O0 2.023868 1_554
Ni3 O11 2.095322 1_555
O0 Y0 2.430454 1_555
O0 Y1 2.436769 1_645
O0 Sr0 2.673543 1_545
O0 Sr2 2.703704 1_556
O1 Sr1 2.499856 1_556
O1 Sr2 2.499866 1_556
O2 Y1 2.430454 1_655
O2 Y0 2.436769 1_554
O2 Sr2 2.673538 1_555
O2 Sr0 2.703712 1_555
O3 Sr1 2.522192 1_555
O3 Sr3 2.682256 1_544
O3 Sr3 2.980483 1_555
O4 Y0 2.458757 1_555
O4 Y1 2.479864 1_645
O4 Sr1 2.752499 1_656
O4 Sr3 2.767965 1_555
O5 Y1 2.458757 1_655
O5 Y0 2.479864 1_554
O5 Sr3 2.752489 1_554
O5 Sr1 2.767972 1_666
O6 Sr0 2.499858 1_554
O6 Sr3 2.499866 1_554
O7 Y1 2.430454 1_555
O7 Y0 2.436769 1_555
O7 Sr3 2.673538 1_555
O7 Sr1 2.703709 1_566
O8 Y0 2.430454 1_555
O8 Y1 2.436769 1_544
O8 Sr1 2.673546 1_555
O8 Sr3 2.703704 1_555
O9 Sr3 2.522192 1_555
O9 Sr1 2.682257 1_555
O9 Sr1 2.980473 1_566
O10 Sr0 2.522192 1_555
O10 Sr2 2.682261 1_555
O10 Sr2 2.980478 1_566
O11 Sr2 2.522192 1_555
O11 Sr0 2.682251 1_544
O11 Sr0 2.980479 1_555
O12 Y0 2.458757 1_555
O12 Y1 2.479864 1_544
O12 Sr0 2.752497 1_444
O12 Sr2 2.767965 1_556
O13 Y1 2.458757 1_555
O13 Y0 2.479864 1_555
O13 Sr2 2.752489 1_556
O13 Sr0 2.767975 1_455
