# generated using pymatgen
data_Fe(WO4)2
_symmetry_space_group_name_H-M   'P 1'
_cell_length_a   5.86281000
_cell_length_b   5.08013500
_cell_length_c   10.67794281
_cell_angle_alpha   62.40855857
_cell_angle_beta   90.00000000
_cell_angle_gamma   90.00000000
_symmetry_Int_Tables_number   1
_chemical_formula_structural   Fe(WO4)2
_chemical_formula_sum   'Fe2 W4 O16'
_cell_volume   281.86170341
_cell_formula_units_Z   2
loop_
 _symmetry_equiv_pos_site_id
 _symmetry_equiv_pos_as_xyz
  1  'x, y, z'
loop_
 _atom_site_type_symbol
 _atom_site_label
 _atom_site_symmetry_multiplicity
 _atom_site_fract_x
 _atom_site_fract_y
 _atom_site_fract_z
 _atom_site_occupancy
  Fe  Fe0  1  0.34134600  0.50000000  0.75000000  1
  Fe  Fe1  1  0.65865400  0.50000000  0.25000000  1
  W  W0  1  0.17261700  0.25717700  0.49431900  1
  W  W1  1  0.17261700  0.74282300  0.00568100  1
  W  W2  1  0.82738300  0.74282300  0.50568100  1
  W  W3  1  0.82738300  0.25717700  0.99431900  1
  O  O0  1  0.33618300  0.71754800  0.86327000  1
  O  O1  1  0.33618300  0.28245200  0.63673000  1
  O  O2  1  0.66381700  0.28245200  0.13673000  1
  O  O3  1  0.66381700  0.71754800  0.36327000  1
  O  O4  1  0.89116800  0.18297200  0.39407200  1
  O  O5  1  0.89116800  0.81702800  0.10592800  1
  O  O6  1  0.10883200  0.81702800  0.60592800  1
  O  O7  1  0.10883200  0.18297200  0.89407200  1
  O  O8  1  0.59793500  0.25705300  0.88006000  1
  O  O9  1  0.59793500  0.74294700  0.61994000  1
  O  O10  1  0.40206500  0.74294700  0.11994000  1
  O  O11  1  0.40206500  0.25705300  0.38006000  1
  O  O12  1  0.89593700  0.66671500  0.89141600  1
  O  O13  1  0.10406300  0.33328500  0.10858400  1
  O  O14  1  0.89593700  0.33328500  0.60858400  1
  O  O15  1  0.10406300  0.66671500  0.39141600  1
loop_
_geom_bond_atom_site_label_1
_geom_bond_atom_site_label_2
_geom_bond_distance
_geom_bond_site_symmetry_2
Fe0 O1 1.980760 1_555
Fe0 O0 1.980760 1_555
Fe0 O9 2.031555 1_555
Fe0 O8 2.031555 1_555
Fe0 O6 2.126891 1_555
Fe0 O7 2.126891 1_555
Fe1 O2 1.980760 1_555
Fe1 O3 1.980760 1_555
Fe1 O10 2.031555 1_555
Fe1 O11 2.031555 1_555
Fe1 O4 2.126891 1_555
Fe1 O5 2.126891 1_555
O0 W1 1.851850 1_556
O1 W0 1.851850 1_555
O2 W3 1.851850 1_554
O3 W2 1.851850 1_555
O4 W2 2.022729 1_545
O4 W0 2.093919 1_655
O5 W3 2.022729 1_564
O5 W1 2.093919 1_655
O6 W0 2.022729 1_565
O6 W2 2.093919 1_455
O7 W1 2.022729 1_546
O7 W3 2.093919 1_455
O8 W3 1.816267 1_555
O9 W2 1.816267 1_555
O10 W1 1.816267 1_555
O11 W0 1.816267 1_555
O12 W3 1.892028 1_555
O12 W1 2.169433 1_656
O13 W1 1.892028 1_555
O13 W3 2.169433 1_454
O14 W2 1.892028 1_555
O14 W0 2.169433 1_655
O15 W0 1.892028 1_555
O15 W2 2.169433 1_455
