# generated using pymatgen
data_Mg14SbW
_symmetry_space_group_name_H-M   'P 1'
_cell_length_a   6.28710833
_cell_length_b   6.28710783
_cell_length_c   10.10957068
_cell_angle_alpha   90.00000000
_cell_angle_beta   90.00000000
_cell_angle_gamma   120.00000256
_symmetry_Int_Tables_number   1
_chemical_formula_structural   Mg14SbW
_chemical_formula_sum   'Mg14 Sb1 W1'
_cell_volume   346.07098272
_cell_formula_units_Z   1
loop_
 _symmetry_equiv_pos_site_id
 _symmetry_equiv_pos_as_xyz
  1  'x, y, z'
loop_
 _atom_site_type_symbol
 _atom_site_label
 _atom_site_symmetry_multiplicity
 _atom_site_fract_x
 _atom_site_fract_y
 _atom_site_fract_z
 _atom_site_occupancy
  Mg  Mg0  1  0.16618988  0.83309444  0.12500000  1
  Mg  Mg1  1  0.16625443  0.83312671  0.62500000  1
  Mg  Mg2  1  0.66690556  0.33381012  0.12500000  1
  Mg  Mg3  1  0.66687329  0.33374557  0.62500000  1
  Mg  Mg4  1  0.66690556  0.83309444  0.12500000  1
  Mg  Mg5  1  0.66687329  0.83312671  0.62500000  1
  Mg  Mg6  1  0.32827546  0.17172454  0.36460859  1
  Mg  Mg7  1  0.32827546  0.17172454  0.88539141  1
  Mg  Mg8  1  0.32827546  0.65655193  0.36460859  1
  Mg  Mg9  1  0.32827546  0.65655193  0.88539141  1
  Mg  Mg10  1  0.84344807  0.17172454  0.36460859  1
  Mg  Mg11  1  0.84344807  0.17172454  0.88539141  1
  Mg  Mg12  1  0.83333300  0.66666700  0.37376308  1
  Mg  Mg13  1  0.83333300  0.66666700  0.87623692  1
  Sb  Sb0  1  0.16666700  0.33333300  0.62500000  1
  W  W0  1  0.16666700  0.33333300  0.12500000  1
loop_
_geom_bond_atom_site_label_1
_geom_bond_atom_site_label_2
_geom_bond_distance
_geom_bond_site_symmetry_2
Mg0 Mg9 3.044544 1_554
Mg0 Mg8 3.044544 1_555
Mg0 Mg6 3.044551 1_565
Mg0 Mg7 3.044551 1_564
Mg0 Mg12 3.099876 1_455
Mg0 Mg13 3.099876 1_454
Mg0 Mg2 3.139054 1_455
Mg0 Mg4 3.139055 1_455
Mg0 W0 3.143555 1_565
Mg0 W0 3.143555 1_555
Mg0 Mg2 3.148053 1_565
Mg0 Mg4 3.148054 1_555
Mg1 Mg13 3.120404 1_455
Mg1 Mg12 3.120404 1_455
Mg1 Sb0 3.143555 1_555
Mg1 Sb0 3.143555 1_565
Mg2 Mg7 3.044551 1_554
Mg2 Mg6 3.044551 1_555
Mg2 Mg4 3.139054 1_555
Mg2 W0 3.143555 1_655
Mg2 W0 3.143555 1_555
Mg2 Mg4 3.148053 1_545
Mg3 Sb0 3.143555 1_655
Mg3 Sb0 3.143555 1_555
Mg4 Mg9 3.044551 1_554
Mg4 Mg8 3.044551 1_555
Mg4 W0 3.143555 1_665
Mg4 W0 3.143555 1_555
Mg5 Sb0 3.143555 1_665
Mg5 Sb0 3.143555 1_555
Mg6 W0 2.994128 1_555
Mg6 Sb0 3.166519 1_555
Mg7 W0 2.994128 1_556
Mg7 Sb0 3.166519 1_555
Mg8 W0 2.994134 1_555
Mg8 Sb0 3.166525 1_555
Mg9 W0 2.994134 1_556
Mg9 Sb0 3.166525 1_555
Mg10 W0 2.994135 1_655
Mg10 Mg2 3.044544 1_555
Mg10 Mg4 3.044551 1_545
Mg10 Mg12 3.145398 1_555
Mg10 Mg12 3.145398 1_545
Mg10 Sb0 3.166525 1_655
Mg11 W0 2.994135 1_656
Mg11 Mg2 3.044544 1_556
Mg11 Mg4 3.044551 1_546
Mg11 Mg13 3.145398 1_555
Mg11 Mg13 3.145398 1_545
Mg11 Sb0 3.166525 1_655
Mg12 Mg4 3.099869 1_555
Mg12 Mg2 3.099876 1_555
Mg12 Mg5 3.120398 1_555
Mg12 Mg3 3.120404 1_555
Mg12 Mg6 3.145398 1_665
Mg12 Mg6 3.145398 1_555
Mg12 Mg8 3.145398 1_655
Mg12 Mg8 3.145398 1_555
Mg13 Mg4 3.099869 1_556
Mg13 Mg2 3.099876 1_556
Mg13 Mg5 3.120398 1_555
Mg13 Mg3 3.120404 1_555
Mg13 Mg7 3.145398 1_665
Mg13 Mg7 3.145398 1_555
Mg13 Mg9 3.145398 1_655
Mg13 Mg9 3.145398 1_555
