# generated using pymatgen
data_Ba4Ru3O10
_symmetry_space_group_name_H-M   'P 1'
_cell_length_a   13.10652252
_cell_length_b   5.82284042
_cell_length_c   7.26692303
_cell_angle_alpha   66.46776785
_cell_angle_beta   90.00000000
_cell_angle_gamma   90.00000000
_symmetry_Int_Tables_number   1
_chemical_formula_structural   Ba4Ru3O10
_chemical_formula_sum   'Ba8 Ru6 O20'
_cell_volume   508.46890547
_cell_formula_units_Z   2
loop_
 _symmetry_equiv_pos_site_id
 _symmetry_equiv_pos_as_xyz
  1  'x, y, z'
loop_
 _atom_site_type_symbol
 _atom_site_label
 _atom_site_symmetry_multiplicity
 _atom_site_fract_x
 _atom_site_fract_y
 _atom_site_fract_z
 _atom_site_occupancy
  Ba  Ba0  1  0.63840888  0.96600010  0.07039385  1
  Ba  Ba1  1  0.13840888  0.53399990  0.92960615  1
  Ba  Ba2  1  0.36159112  0.03399990  0.92960615  1
  Ba  Ba3  1  0.86159112  0.46600010  0.07039385  1
  Ba  Ba4  1  0.11179344  0.23962387  0.51933011  1
  Ba  Ba5  1  0.61179344  0.26037613  0.48066989  1
  Ba  Ba6  1  0.88820656  0.76037613  0.48066989  1
  Ba  Ba7  1  0.38820656  0.73962387  0.51933011  1
  Ru  Ru0  1  0.50000000  0.50000000  -0.00000000  1
  Ru  Ru1  1  0.00000000  0.00000000  -0.00000000  1
  Ru  Ru2  1  0.35153971  0.37482848  0.24653953  1
  Ru  Ru3  1  0.85153971  0.12517152  0.75346047  1
  Ru  Ru4  1  0.64846029  0.62517152  0.75346047  1
  Ru  Ru5  1  0.14846029  0.87482848  0.24653953  1
  O  O0  1  0.65184435  0.46852014  0.06806449  1
  O  O1  1  0.15184435  0.03147986  0.93193551  1
  O  O2  1  0.34815565  0.53147986  0.93193551  1
  O  O3  1  0.84815565  0.96852014  0.06806449  1
  O  O4  1  0.53573474  0.37887571  0.78043733  1
  O  O5  1  0.03573474  0.12112429  0.21956267  1
  O  O6  1  0.46426526  0.62112429  0.21956267  1
  O  O7  1  0.96426526  0.87887571  0.78043733  1
  O  O8  1  0.53400789  0.84073934  0.77987394  1
  O  O9  1  0.03400789  0.65926066  0.22012606  1
  O  O10  1  0.46599211  0.15926066  0.22012606  1
  O  O11  1  0.96599211  0.34073934  0.77987394  1
  O  O12  1  0.64695289  0.76710658  0.46684218  1
  O  O13  1  0.14695289  0.73289342  0.53315782  1
  O  O14  1  0.35304711  0.23289342  0.53315782  1
  O  O15  1  0.85304711  0.26710658  0.46684218  1
  O  O16  1  0.75171667  0.37597730  0.75929136  1
  O  O17  1  0.25171667  0.12402270  0.24070864  1
  O  O18  1  0.24828333  0.62402270  0.24070864  1
  O  O19  1  0.74828333  0.87597730  0.75929136  1
loop_
_geom_bond_atom_site_label_1
_geom_bond_atom_site_label_2
_geom_bond_distance
_geom_bond_site_symmetry_2
Ba0 O12 2.643751 1_555
Ba0 O3 2.749106 1_555
Ba0 O4 2.825843 1_564
Ba0 O8 2.844475 1_554
Ba0 O19 2.899296 1_554
Ba0 O0 2.908881 1_555
Ba0 O10 2.921420 1_565
Ba0 O0 2.924683 1_565
Ba0 O6 2.945998 1_555
Ba0 O16 2.950544 1_564
Ba1 O13 2.643751 1_555
Ba1 O2 2.749106 1_555
Ba1 O5 2.825843 1_556
Ba1 O9 2.844475 1_556
Ba1 O18 2.899296 1_556
Ba1 O1 2.908881 1_565
Ba1 O11 2.921420 1_455
Ba1 O1 2.924683 1_555
Ba1 O7 2.945998 1_455
Ba1 O17 2.950544 1_556
Ba2 O14 2.643751 1_555
Ba2 O1 2.749106 1_555
Ba2 O6 2.825843 1_546
Ba2 O10 2.844475 1_556
Ba2 O17 2.899296 1_556
Ba2 O2 2.908881 1_555
Ba2 O8 2.921420 1_545
Ba2 O2 2.924683 1_545
Ba2 O4 2.945998 1_555
Ba2 O18 2.950544 1_546
Ba3 O15 2.643751 1_555
Ba3 O0 2.749106 1_555
Ba3 O7 2.825843 1_554
Ba3 O11 2.844475 1_554
Ba3 O16 2.899296 1_554
Ba3 O3 2.908881 1_545
Ba3 O9 2.921420 1_655
Ba3 O3 2.924683 1_555
Ba3 O5 2.945998 1_655
Ba3 O19 2.950544 1_554
Ba4 O5 2.723138 1_555
Ba4 O9 2.737709 1_555
Ba4 O1 2.798722 1_555
Ba4 O11 2.910900 1_455
Ba4 O7 2.927241 1_445
Ba4 O18 2.948011 1_555
Ba4 O13 2.948185 1_545
Ba4 O13 2.950021 1_555
Ba4 O17 3.000687 1_555
Ba4 O14 3.163339 1_555
Ba5 O4 2.723138 1_555
Ba5 O8 2.737709 1_545
Ba5 O0 2.798722 1_555
Ba5 O10 2.910900 1_555
Ba5 O6 2.927241 1_555
Ba5 O19 2.948011 1_545
Ba5 O12 2.948185 1_555
Ba5 O12 2.950021 1_545
Ba5 O16 3.000687 1_555
Ba5 O15 3.163339 1_555
Ba6 O7 2.723138 1_555
Ba6 O11 2.737709 1_555
Ba6 O3 2.798722 1_555
Ba6 O9 2.910900 1_655
Ba6 O5 2.927241 1_665
Ba6 O16 2.948011 1_555
Ba6 O15 2.948185 1_565
Ba6 O15 2.950021 1_555
Ba6 O19 3.000687 1_555
Ba6 O12 3.163339 1_555
Ba7 O6 2.723138 1_555
Ba7 O10 2.737709 1_565
Ba7 O2 2.798722 1_555
Ba7 O8 2.910900 1_555
Ba7 O4 2.927241 1_555
Ba7 O17 2.948011 1_565
Ba7 O14 2.948185 1_555
Ba7 O14 2.950021 1_565
Ba7 O18 3.000687 1_555
Ba7 O13 3.163339 1_555
O0 Ru0 2.041213 1_555
O0 Ru4 2.096542 1_554
O1 Ru1 2.041213 1_556
O1 Ru5 2.096542 1_546
O2 Ru0 2.041213 1_556
O2 Ru2 2.096542 1_556
O3 Ru1 2.041213 1_665
O3 Ru3 2.096542 1_564
O4 Ru4 2.013335 1_555
O4 Ru0 2.039891 1_556
O5 Ru5 2.013335 1_545
O5 Ru1 2.039891 1_555
O6 Ru2 2.013335 1_555
O6 Ru0 2.039891 1_555
O7 Ru3 2.013335 1_565
O7 Ru1 2.039891 1_666
O8 Ru4 2.013709 1_555
O8 Ru0 2.039530 1_556
O9 Ru5 2.013709 1_555
O9 Ru1 2.039530 1_565
O10 Ru2 2.013709 1_555
O10 Ru0 2.039530 1_555
O11 Ru3 2.013709 1_555
O11 Ru1 2.039530 1_656
O12 Ru4 1.909725 1_555
O13 Ru5 1.909725 1_555
O14 Ru2 1.909725 1_555
O15 Ru3 1.909725 1_555
O16 Ru4 1.972222 1_555
O16 Ru3 1.973757 1_555
O17 Ru5 1.972222 1_545
O17 Ru2 1.973757 1_555
O18 Ru2 1.972222 1_555
O18 Ru5 1.973757 1_555
O19 Ru3 1.972222 1_565
O19 Ru4 1.973757 1_555
