# generated using pymatgen
data_Mg(ClO6)2
_symmetry_space_group_name_H-M   'P 1'
_cell_length_a   4.79150251
_cell_length_b   7.39685894
_cell_length_c   16.23281200
_cell_angle_alpha   90.00000000
_cell_angle_beta   90.00000000
_cell_angle_gamma   110.00563712
_symmetry_Int_Tables_number   1
_chemical_formula_structural   Mg(ClO6)2
_chemical_formula_sum   'Mg2 Cl4 O24'
_cell_volume   540.60875892
_cell_formula_units_Z   2
loop_
 _symmetry_equiv_pos_site_id
 _symmetry_equiv_pos_as_xyz
  1  'x, y, z'
loop_
 _atom_site_type_symbol
 _atom_site_label
 _atom_site_symmetry_multiplicity
 _atom_site_fract_x
 _atom_site_fract_y
 _atom_site_fract_z
 _atom_site_occupancy
  Mg  Mg0  1  0.50000000  0.50000000  0.50000000  1
  Mg  Mg1  1  0.00000000  0.00000000  0.00000000  1
  Cl  Cl0  1  0.19415900  0.53372800  0.76593700  1
  Cl  Cl1  1  0.30584100  0.96627200  0.26593700  1
  Cl  Cl2  1  0.80584100  0.46627200  0.23406300  1
  Cl  Cl3  1  0.69415900  0.03372800  0.73406300  1
  O  O0  1  0.40016600  0.73295100  0.54249600  1
  O  O1  1  0.09983400  0.76704900  0.04249600  1
  O  O2  1  0.59983400  0.26704900  0.45750400  1
  O  O3  1  0.90016600  0.23295100  0.95750400  1
  O  O4  1  0.36345400  0.29783000  0.62067400  1
  O  O5  1  0.13654600  0.20217000  0.12067400  1
  O  O6  1  0.63654600  0.70217000  0.37932600  1
  O  O7  1  0.86345400  0.79783000  0.87932600  1
  O  O8  1  0.09703900  0.40093900  0.44109200  1
  O  O9  1  0.40296100  0.09906100  0.94109200  1
  O  O10  1  0.90296100  0.59906100  0.55890800  1
  O  O11  1  0.59703900  0.90093900  0.05890800  1
  O  O12  1  0.13780900  0.60219100  0.24529300  1
  O  O13  1  0.36219100  0.89780900  0.74529300  1
  O  O14  1  0.86219100  0.39780900  0.75470700  1
  O  O15  1  0.63780900  0.10219100  0.25470700  1
  O  O16  1  0.36679000  0.74846200  0.03003100  1
  O  O17  1  0.13321000  0.75153800  0.53003100  1
  O  O18  1  0.63321000  0.25153800  0.96996900  1
  O  O19  1  0.86679000  0.24846200  0.46996900  1
  O  O20  1  0.30285000  0.37321100  0.11790500  1
  O  O21  1  0.19715000  0.12678900  0.61790500  1
  O  O22  1  0.69715000  0.62678900  0.88209500  1
  O  O23  1  0.80285000  0.87321100  0.38209500  1
loop_
_geom_bond_atom_site_label_1
_geom_bond_atom_site_label_2
_geom_bond_distance
_geom_bond_site_symmetry_2
Mg0 O10 2.052129 1_555
Mg0 O8 2.052129 1_555
Mg0 O0 2.058582 1_555
Mg0 O2 2.058582 1_555
Mg0 O4 2.414976 1_555
Mg0 O6 2.414976 1_555
Mg1 O9 2.052129 1_554
Mg1 O11 2.052129 1_445
Mg1 O3 2.058582 1_454
Mg1 O1 2.058582 1_545
Mg1 O7 2.414976 1_444
Mg1 O5 2.414976 1_555
Cl0 O14 1.574771 1_455
Cl1 O15 1.574771 1_565
Cl2 O12 1.574771 1_655
Cl3 O13 1.574771 1_545
O0 O17 1.347710 1_555
O1 O16 1.347710 1_555
O10 O17 1.362916 1_655
O11 O16 1.362916 1_555
O18 O3 1.347710 1_555
O18 O9 1.362916 1_555
O19 O2 1.347710 1_555
O19 O8 1.362916 1_655
O20 O5 1.244119 1_555
O21 O4 1.244119 1_555
O22 O7 1.244119 1_555
O23 O6 1.244119 1_555
