# generated using pymatgen
data_Li7Mn4CoO12
_symmetry_space_group_name_H-M   'P 1'
_cell_length_a   2.96000761
_cell_length_b   7.81486846
_cell_length_c   19.09995925
_cell_angle_alpha   91.92857366
_cell_angle_beta   94.90701205
_cell_angle_gamma   82.76642237
_symmetry_Int_Tables_number   1
_chemical_formula_structural   Li7Mn4CoO12
_chemical_formula_sum   'Li14 Mn8 Co2 O24'
_cell_volume   436.58166516
_cell_formula_units_Z   2
loop_
 _symmetry_equiv_pos_site_id
 _symmetry_equiv_pos_as_xyz
  1  'x, y, z'
loop_
 _atom_site_type_symbol
 _atom_site_label
 _atom_site_symmetry_multiplicity
 _atom_site_fract_x
 _atom_site_fract_y
 _atom_site_fract_z
 _atom_site_occupancy
  Li  Li0  1  0.66582900  0.75104800  0.08275900  1
  Li  Li1  1  0.66750000  0.24894900  0.58390700  1
  Li  Li2  1  0.78669100  0.39610800  0.04449500  1
  Li  Li3  1  0.78568300  0.89634800  0.54468600  1
  Li  Li4  1  0.54765200  0.10365600  0.12198100  1
  Li  Li5  1  0.54664200  0.60389400  0.62217000  1
  Li  Li6  1  0.15125800  0.88181100  0.20131400  1
  Li  Li7  1  0.15662500  0.37805000  0.70289400  1
  Li  Li8  1  0.18206500  0.11819000  0.46535200  1
  Li  Li9  1  0.17670200  0.62195100  0.96377000  1
  Li  Li10  1  0.49468100  0.37333300  0.37565700  1
  Li  Li11  1  0.49724400  0.87633600  0.87589900  1
  Li  Li12  1  0.83864000  0.62666900  0.29101000  1
  Li  Li13  1  0.83609400  0.12366400  0.79076500  1
  Mn  Mn0  1  0.02265700  0.99286100  0.00231600  1
  Mn  Mn1  1  0.01978200  0.48999200  0.50337600  1
  Mn  Mn2  1  0.31355000  0.51000400  0.16329300  1
  Mn  Mn3  1  0.31068100  0.00714000  0.66435100  1
  Mn  Mn4  1  0.33726600  0.74977800  0.41732500  1
  Mn  Mn5  1  0.34857800  0.25000000  0.91520900  1
  Mn  Mn6  1  0.99606000  0.25021600  0.24934500  1
  Mn  Mn7  1  0.98477900  0.75000900  0.75145900  1
  Co  Co0  1  0.66667700  0.50000000  0.83333100  1
  Co  Co1  1  0.66665500  0.99999800  0.33333400  1
  O  O0  1  0.46758100  0.16628700  0.01378500  1
  O  O1  1  0.46419100  0.66143900  0.51540600  1
  O  O2  1  0.86913700  0.33855900  0.15126100  1
  O  O3  1  0.86575300  0.83371800  0.65288100  1
  O  O4  1  0.77095700  0.66607900  0.18460400  1
  O  O5  1  0.76830500  0.16330400  0.68512000  1
  O  O6  1  0.56237300  0.33391800  0.48206400  1
  O  O7  1  0.56503200  0.83669500  0.98154600  1
  O  O8  1  0.08265700  0.18290200  0.34851700  1
  O  O9  1  0.04937900  0.68013200  0.84954900  1
  O  O10  1  0.25066100  0.81709300  0.31815000  1
  O  O11  1  0.28397500  0.31987100  0.81711500  1
  O  O12  1  0.73290400  0.92742700  0.43747700  1
  O  O13  1  0.71906600  0.43818300  0.93178400  1
  O  O14  1  0.60042100  0.07257100  0.22919100  1
  O  O15  1  0.61428200  0.56182000  0.73488000  1
  O  O16  1  0.08593700  0.94727700  0.09610400  1
  O  O17  1  0.08583300  0.44545600  0.59757600  1
  O  O18  1  0.24750000  0.55454300  0.06909200  1
  O  O19  1  0.24739200  0.05272600  0.57056300  1
  O  O20  1  0.38554900  0.43228000  0.26447800  1
  O  O21  1  0.37021300  0.93366000  0.76579600  1
  O  O22  1  0.94777900  0.56771700  0.40219000  1
  O  O23  1  0.96313200  0.06634000  0.90086800  1
loop_
_geom_bond_atom_site_label_1
_geom_bond_atom_site_label_2
_geom_bond_distance
_geom_bond_site_symmetry_2
Li0 O7 2.052378 1_554
Li0 O4 2.062291 1_555
Li0 O18 2.087166 1_555
Li0 O16 2.088694 1_655
Li0 O16 2.179126 1_555
Li0 O18 2.185151 1_655
Li1 O5 2.052374 1_555
Li1 O6 2.062255 1_555
Li1 O17 2.087188 1_655
Li1 O19 2.088655 1_555
Li1 O19 2.179094 1_655
Li1 O17 2.185159 1_555
Li2 O18 1.972495 1_655
Li2 O18 1.972931 1_555
Li2 O2 2.090267 1_555
Li2 O0 2.173357 1_555
Li2 O13 2.177148 1_554
Li3 O19 1.967205 1_665
Li3 O19 1.969825 1_565
Li3 O12 2.060488 1_555
Li3 O3 2.126337 1_555
Li3 O1 2.206405 1_555
Li4 O16 1.967224 1_545
Li4 O16 1.969815 1_645
Li4 O14 2.060514 1_555
Li4 O0 2.126357 1_555
Li4 O2 2.206353 1_555
Li5 O17 1.972502 1_555
Li5 O17 1.972927 1_655
Li5 O1 2.090222 1_555
Li5 O3 2.173383 1_555
Li5 O15 2.177128 1_555
Li6 O16 2.077272 1_555
Li6 O4 2.142805 1_455
Li6 O14 2.144322 1_565
Li6 O14 2.155768 1_465
Li6 O10 2.290939 1_555
Li6 O4 2.365173 1_555
Li7 O17 2.083079 1_555
Li7 O15 2.130959 1_455
Li7 O15 2.135450 1_555
Li7 O5 2.152558 1_455
Li7 O11 2.234094 1_555
Li7 O5 2.347648 1_555
Li8 O19 2.077286 1_555
Li8 O6 2.142794 1_555
Li8 O12 2.144329 1_445
Li8 O12 2.155775 1_545
Li8 O8 2.290910 1_555
Li8 O6 2.365146 1_455
Li9 O18 2.083157 1_556
Li9 O13 2.130993 1_555
Li9 O13 2.135396 1_455
Li9 O7 2.152566 1_555
Li9 O9 2.234092 1_555
Li9 O7 2.347625 1_455
Li10 O6 2.054867 1_555
Li10 O8 2.065872 1_555
Li10 O22 2.157387 1_455
Li10 O22 2.169831 1_555
Li10 O20 2.176439 1_555
Li10 O8 2.227697 1_655
Li11 O7 2.040862 1_555
Li11 O23 2.102825 1_465
Li11 O21 2.156440 1_555
Li11 O23 2.165515 1_565
Li11 O9 2.169694 1_555
Li11 O9 2.175559 1_655
Li12 O4 2.054841 1_555
Li12 O10 2.065823 1_655
Li12 O20 2.157419 1_655
Li12 O20 2.169843 1_555
Li12 O22 2.176467 1_555
Li12 O10 2.227672 1_555
Li13 O5 2.040823 1_555
Li13 O21 2.102839 1_645
Li13 O23 2.156442 1_555
Li13 O21 2.165500 1_545
Li13 O11 2.169745 1_655
Li13 O11 2.175540 1_555
Mn0 O16 1.827472 1_555
Mn0 O7 1.942538 1_454
Mn0 O7 1.951198 1_554
Mn0 O0 1.999853 1_565
Mn0 O0 2.016232 1_465
Mn0 O23 2.026397 1_464
Mn1 O17 1.833404 1_555
Mn1 O6 1.942849 1_455
Mn1 O6 1.953956 1_555
Mn1 O1 1.987408 1_555
Mn1 O1 2.010360 1_455
Mn1 O22 2.031119 1_455
Mn2 O18 1.833428 1_555
Mn2 O4 1.942847 1_555
Mn2 O4 1.953960 1_455
Mn2 O2 1.987407 1_455
Mn2 O2 2.010349 1_555
Mn2 O20 2.031099 1_555
Mn3 O19 1.827476 1_555
Mn3 O5 1.942522 1_555
Mn3 O5 1.951187 1_455
Mn3 O3 1.999839 1_445
Mn3 O3 2.016208 1_545
Mn3 O21 2.026344 1_545
Mn4 O12 1.934772 1_555
Mn4 O22 1.940463 1_455
Mn4 O10 1.969931 1_555
Mn4 O1 2.007108 1_555
Mn4 O12 2.175352 1_455
Mn4 O22 2.188097 1_555
Mn5 O23 1.941447 1_455
Mn5 O13 1.944481 1_555
Mn5 O11 1.956102 1_555
Mn5 O0 2.002100 1_556
Mn5 O23 2.201228 1_555
Mn5 O13 2.261541 1_455
Mn6 O14 1.934754 1_555
Mn6 O20 1.940483 1_655
Mn6 O8 1.969873 1_655
Mn6 O2 2.007172 1_555
Mn6 O14 2.175342 1_655
Mn6 O20 2.188099 1_555
Mn7 O21 1.941361 1_655
Mn7 O15 1.944544 1_555
Mn7 O9 1.956043 1_655
Mn7 O3 2.002129 1_555
Mn7 O21 2.201203 1_555
Mn7 O15 2.261561 1_655
Co0 O11 1.916493 1_555
Co0 O9 1.916516 1_655
Co0 O15 1.945708 1_555
Co0 O13 1.945739 1_555
Co0 O11 2.199074 1_655
Co0 O9 2.199093 1_555
Co1 O10 1.999420 1_555
Co1 O8 1.999429 1_665
Co1 O12 2.073141 1_555
Co1 O14 2.073146 1_565
Co1 O8 2.133310 1_565
Co1 O10 2.133336 1_655
