# generated using pymatgen
data_Al2Co2O7
_symmetry_space_group_name_H-M   'P 1'
_cell_length_a   6.51888398
_cell_length_b   6.63652430
_cell_length_c   6.50244286
_cell_angle_alpha   59.74891111
_cell_angle_beta   59.28271378
_cell_angle_gamma   59.81123011
_symmetry_Int_Tables_number   1
_chemical_formula_structural   Al2Co2O7
_chemical_formula_sum   'Al4 Co4 O14'
_cell_volume   197.16479718
_cell_formula_units_Z   2
loop_
 _symmetry_equiv_pos_site_id
 _symmetry_equiv_pos_as_xyz
  1  'x, y, z'
loop_
 _atom_site_type_symbol
 _atom_site_label
 _atom_site_symmetry_multiplicity
 _atom_site_fract_x
 _atom_site_fract_y
 _atom_site_fract_z
 _atom_site_occupancy
  Al  Al0  1  0.50000000  0.00000000  0.50000000  1
  Al  Al1  1  0.00000000  0.50000000  0.50000000  1
  Al  Al2  1  0.50000000  0.50000000  0.00000000  1
  Al  Al3  1  0.50000000  0.50000000  0.50000000  1
  Co  Co0  1  0.00000000  0.50000000  0.00000000  1
  Co  Co1  1  0.50000000  0.00000000  0.00000000  1
  Co  Co2  1  0.00000000  0.00000000  0.50000000  1
  Co  Co3  1  0.00000000  0.00000000  0.00000000  1
  O  O0  1  0.62106500  0.63048700  0.61929000  1
  O  O1  1  0.37893500  0.36951300  0.38071000  1
  O  O2  1  0.34927400  0.92304900  0.88880700  1
  O  O3  1  0.07888600  0.65585400  0.65727800  1
  O  O4  1  0.90266300  0.34114700  0.89946400  1
  O  O5  1  0.88662700  0.92853100  0.34753200  1
  O  O6  1  0.34255400  0.34618300  0.91746600  1
  O  O7  1  0.33543300  0.88041500  0.33545800  1
  O  O8  1  0.92111400  0.34414600  0.34272200  1
  O  O9  1  0.65744600  0.65381700  0.08253400  1
  O  O10  1  0.11337300  0.07146900  0.65246800  1
  O  O11  1  0.65072600  0.07695100  0.11119300  1
  O  O12  1  0.66456700  0.11958500  0.66454200  1
  O  O13  1  0.09733700  0.65885300  0.10053600  1
loop_
_geom_bond_atom_site_label_1
_geom_bond_atom_site_label_2
_geom_bond_distance
_geom_bond_site_symmetry_2
Al0 O1 2.000154 1_555
Al0 O0 2.000154 1_545
Al0 O5 2.068574 1_545
Al0 O10 2.068574 1_555
Al0 O2 2.069773 1_545
Al0 O11 2.069773 1_555
Al0 O12 2.410372 1_555
Al0 O7 2.410372 1_545
Al1 O1 2.005391 1_555
Al1 O0 2.005391 1_455
Al1 O4 2.119160 1_455
Al1 O13 2.119160 1_555
Al1 O3 2.125610 1_555
Al1 O8 2.125610 1_455
Al1 O5 2.326154 1_455
Al1 O10 2.326154 1_555
Al2 O0 2.008102 1_554
Al2 O1 2.008102 1_555
Al2 O9 2.133527 1_555
Al2 O6 2.133527 1_554
Al2 O4 2.141785 1_554
Al2 O13 2.141785 1_555
Al2 O2 2.297119 1_554
Al2 O11 2.297119 1_555
Al3 O0 1.990977 1_555
Al3 O1 1.990977 1_555
Al3 O12 2.096785 1_555
Al3 O7 2.096785 1_555
Al3 O9 2.208981 1_555
Al3 O6 2.208981 1_555
Al3 O3 2.234699 1_555
Al3 O8 2.234699 1_555
Co0 O8 1.828192 1_455
Co0 O3 1.828192 1_554
Co0 O6 1.830795 1_554
Co0 O9 1.830795 1_455
Co0 O13 1.931923 1_555
Co0 O4 1.931923 1_454
Co1 O7 1.805586 1_545
Co1 O12 1.805586 1_554
Co1 O11 1.830698 1_555
Co1 O2 1.830698 1_544
Co1 O6 1.889089 1_554
Co1 O9 1.889089 1_545
Co2 O12 1.810028 1_455
Co2 O7 1.810028 1_545
Co2 O10 1.824548 1_555
Co2 O5 1.824548 1_445
Co2 O8 1.878646 1_455
Co2 O3 1.878646 1_545
Co3 O4 1.855675 1_454
Co3 O13 1.855675 1_545
Co3 O5 1.855872 1_445
Co3 O10 1.855872 1_554
Co3 O2 1.867770 1_544
Co3 O11 1.867770 1_455
