# generated using pymatgen
data_Sr5Sb3
_symmetry_space_group_name_H-M   'P 1'
_cell_length_a   8.80388207
_cell_length_b   10.09376916
_cell_length_c   13.41658014
_cell_angle_alpha   90.00000000
_cell_angle_beta   90.00000000
_cell_angle_gamma   90.00000000
_symmetry_Int_Tables_number   1
_chemical_formula_structural   Sr5Sb3
_chemical_formula_sum   'Sr20 Sb12'
_cell_volume   1192.25571799
_cell_formula_units_Z   4
loop_
 _symmetry_equiv_pos_site_id
 _symmetry_equiv_pos_as_xyz
  1  'x, y, z'
loop_
 _atom_site_type_symbol
 _atom_site_label
 _atom_site_symmetry_multiplicity
 _atom_site_fract_x
 _atom_site_fract_y
 _atom_site_fract_z
 _atom_site_occupancy
  Sr  Sr0  1  0.30990003  0.96056879  0.91983294  1
  Sr  Sr1  1  0.80990003  0.03943121  0.58016706  1
  Sr  Sr2  1  0.69009997  0.46056879  0.08016706  1
  Sr  Sr3  1  0.19009997  0.53943121  0.41983294  1
  Sr  Sr4  1  0.69009997  0.03943121  0.08016706  1
  Sr  Sr5  1  0.19009997  0.96056879  0.41983294  1
  Sr  Sr6  1  0.30990003  0.53943121  0.91983294  1
  Sr  Sr7  1  0.80990003  0.46056879  0.58016706  1
  Sr  Sr8  1  0.67855214  0.75000000  0.77576887  1
  Sr  Sr9  1  0.17855214  0.25000000  0.72423113  1
  Sr  Sr10  1  0.32144786  0.25000000  0.22423113  1
  Sr  Sr11  1  0.82144786  0.75000000  0.27576887  1
  Sr  Sr12  1  0.15364607  0.75000000  0.70510179  1
  Sr  Sr13  1  0.65364607  0.25000000  0.79489821  1
  Sr  Sr14  1  0.84635393  0.25000000  0.29489821  1
  Sr  Sr15  1  0.34635393  0.75000000  0.20510179  1
  Sr  Sr16  1  0.53627844  0.75000000  0.49570528  1
  Sr  Sr17  1  0.03627844  0.25000000  0.00429472  1
  Sr  Sr18  1  0.46372156  0.25000000  0.50429472  1
  Sr  Sr19  1  0.96372156  0.75000000  0.99570528  1
  Sb  Sb0  1  0.93926182  0.01130660  0.82867247  1
  Sb  Sb1  1  0.43926182  0.98869340  0.67132753  1
  Sb  Sb2  1  0.06073818  0.51130660  0.17132753  1
  Sb  Sb3  1  0.56073818  0.48869340  0.32867247  1
  Sb  Sb4  1  0.06073818  0.98869340  0.17132753  1
  Sb  Sb5  1  0.56073818  0.01130660  0.32867247  1
  Sb  Sb6  1  0.93926182  0.48869340  0.82867247  1
  Sb  Sb7  1  0.43926182  0.51130660  0.67132753  1
  Sb  Sb8  1  0.57554622  0.75000000  0.01476585  1
  Sb  Sb9  1  0.07554622  0.25000000  0.48523415  1
  Sb  Sb10  1  0.42445378  0.25000000  0.98523415  1
  Sb  Sb11  1  0.92445378  0.75000000  0.51476585  1
loop_
_geom_bond_atom_site_label_1
_geom_bond_atom_site_label_2
_geom_bond_distance
_geom_bond_site_symmetry_2
Sb0 Sr19 3.467746 1_545
Sb0 Sr17 3.476528 1_656
Sb0 Sr9 3.493767 1_655
Sb0 Sr13 3.511835 1_555
Sb0 Sr0 3.522171 1_645
Sb0 Sr1 3.534661 1_555
Sb0 Sr8 3.567740 1_545
Sb0 Sr12 3.642488 1_645
Sb1 Sr18 3.467746 1_565
Sb1 Sr16 3.476528 1_555
Sb1 Sr8 3.493767 1_555
Sb1 Sr12 3.511835 1_555
Sb1 Sr1 3.522171 1_565
Sb1 Sr0 3.534661 1_555
Sb1 Sr9 3.567740 1_565
Sb1 Sr13 3.642488 1_565
Sb2 Sr17 3.467746 1_555
Sb2 Sr19 3.476528 1_454
Sb2 Sr11 3.493767 1_455
Sb2 Sr15 3.511835 1_555
Sb2 Sr2 3.522171 1_455
Sb2 Sr3 3.534661 1_555
Sb2 Sr10 3.567740 1_555
Sb2 Sr14 3.642488 1_455
Sb3 Sr16 3.467746 1_555
Sb3 Sr18 3.476528 1_555
Sb3 Sr10 3.493767 1_555
Sb3 Sr14 3.511835 1_555
Sb3 Sr3 3.522171 1_555
Sb3 Sr2 3.534661 1_555
Sb3 Sr11 3.567740 1_555
Sb3 Sr15 3.642488 1_555
Sb4 Sr17 3.467746 1_565
Sb4 Sr19 3.476528 1_454
Sb4 Sr11 3.493767 1_455
Sb4 Sr15 3.511835 1_555
Sb4 Sr4 3.522171 1_465
Sb4 Sr5 3.534661 1_555
Sb4 Sr10 3.567740 1_565
Sb4 Sr14 3.642488 1_465
Sb5 Sr16 3.467746 1_545
Sb5 Sr18 3.476528 1_555
Sb5 Sr10 3.493767 1_555
Sb5 Sr14 3.511835 1_555
Sb5 Sr5 3.522171 1_545
Sb5 Sr4 3.534661 1_555
Sb5 Sr11 3.567740 1_545
Sb5 Sr15 3.642488 1_545
Sb6 Sr19 3.467746 1_555
Sb6 Sr17 3.476528 1_656
Sb6 Sr9 3.493767 1_655
Sb6 Sr13 3.511835 1_555
Sb6 Sr6 3.522171 1_655
Sb6 Sr7 3.534661 1_555
Sb6 Sr8 3.567740 1_555
Sb6 Sr12 3.642488 1_655
Sb7 Sr18 3.467746 1_555
Sb7 Sr16 3.476528 1_555
Sb7 Sr8 3.493767 1_555
Sb7 Sr12 3.511835 1_555
Sb7 Sr7 3.522171 1_555
Sb7 Sr6 3.534661 1_555
Sb7 Sr9 3.567740 1_555
Sb7 Sr13 3.642488 1_555
Sb8 Sr2 3.212775 1_555
Sb8 Sr4 3.212775 1_565
Sb8 Sr15 3.254629 1_555
Sb8 Sr8 3.332291 1_554
Sb8 Sr6 3.407244 1_554
Sb8 Sr0 3.407244 1_554
Sb8 Sr19 3.427005 1_554
Sb9 Sr5 3.212775 1_545
Sb9 Sr3 3.212775 1_555
Sb9 Sr14 3.254629 1_455
Sb9 Sr9 3.332291 1_555
Sb9 Sr1 3.407244 1_455
Sb9 Sr7 3.407244 1_455
Sb9 Sr18 3.427005 1_555
Sb10 Sr0 3.212775 1_545
Sb10 Sr6 3.212775 1_555
Sb10 Sr13 3.254629 1_555
Sb10 Sr10 3.332291 1_556
Sb10 Sr2 3.407244 1_556
Sb10 Sr4 3.407244 1_556
Sb10 Sr17 3.427005 1_556
Sb11 Sr7 3.212775 1_555
Sb11 Sr1 3.212775 1_565
Sb11 Sr12 3.254629 1_655
Sb11 Sr11 3.332291 1_555
Sb11 Sr3 3.407244 1_655
Sb11 Sr5 3.407244 1_655
Sb11 Sr16 3.427005 1_555
