# generated using pymatgen
data_Sr2MgV2(Si2O7)2
_symmetry_space_group_name_H-M   'P 1'
_cell_length_a   5.60585284
_cell_length_b   7.32678600
_cell_length_c   7.97705567
_cell_angle_alpha   90.00000000
_cell_angle_beta   113.19135893
_cell_angle_gamma   90.00000000
_symmetry_Int_Tables_number   1
_chemical_formula_structural   Sr2MgV2(Si2O7)2
_chemical_formula_sum   'Sr2 Mg1 V2 Si4 O14'
_cell_volume   301.16559296
_cell_formula_units_Z   1
loop_
 _symmetry_equiv_pos_site_id
 _symmetry_equiv_pos_as_xyz
  1  'x, y, z'
loop_
 _atom_site_type_symbol
 _atom_site_label
 _atom_site_symmetry_multiplicity
 _atom_site_fract_x
 _atom_site_fract_y
 _atom_site_fract_z
 _atom_site_occupancy
  Sr  Sr0  1  0.18637500  0.75000000  0.36289800  1
  Sr  Sr1  1  0.77696900  0.25000000  0.61450500  1
  Mg  Mg0  1  0.67257700  0.75000000  0.95015100  1
  V  V0  1  0.92321200  0.75000000  0.75101000  1
  V  V1  1  0.09883700  0.25000000  0.21759800  1
  Si  Si0  1  0.37856200  0.46926800  0.77893200  1
  Si  Si1  1  0.59847900  0.52374200  0.22290900  1
  Si  Si2  1  0.59847900  0.97625800  0.22290900  1
  Si  Si3  1  0.37856200  0.03073200  0.77893200  1
  O  O0  1  0.64645500  0.75000000  0.28125300  1
  O  O1  1  0.41086500  0.25000000  0.75797700  1
  O  O2  1  0.47382400  0.53152000  0.99764800  1
  O  O3  1  0.47382400  0.96848000  0.99764800  1
  O  O4  1  0.59090800  0.56673300  0.71936700  1
  O  O5  1  0.88727400  0.43546100  0.28768800  1
  O  O6  1  0.40836000  0.06425900  0.31104600  1
  O  O7  1  0.08197300  0.97395900  0.66855500  1
  O  O8  1  0.00075500  0.25000000  0.99488500  1
  O  O9  1  0.03269600  0.75000000  0.03909800  1
  O  O10  1  0.88727400  0.06453900  0.28768800  1
  O  O11  1  0.59090800  0.93326700  0.71936700  1
  O  O12  1  0.08197300  0.52604100  0.66855500  1
  O  O13  1  0.40836000  0.43574100  0.31104600  1
loop_
_geom_bond_atom_site_label_1
_geom_bond_atom_site_label_2
_geom_bond_distance
_geom_bond_site_symmetry_2
Mg0 O9 1.857614 1_656
Mg0 O3 2.068782 1_555
Mg0 O2 2.068782 1_555
Mg0 O4 2.176688 1_555
Mg0 O11 2.176688 1_555
O0 Si2 1.714197 1_555
O0 Si1 1.714197 1_555
O0 Sr0 2.834182 1_655
O0 Sr0 2.898126 1_555
O1 Si3 1.632640 1_555
O1 Si0 1.632640 1_555
O1 Sr1 2.715116 1_555
O2 Si1 1.652725 1_556
O2 Si0 1.674336 1_555
O3 Si2 1.652725 1_556
O3 Si3 1.674336 1_565
O4 Si0 1.611894 1_555
O4 V0 2.228580 1_555
O4 Sr1 2.803596 1_555
O4 Sr0 3.154792 1_555
O5 Si1 1.627106 1_555
O5 V1 2.021848 1_655
O5 Sr0 2.773089 1_655
O6 Si2 1.623604 1_545
O6 V1 2.097540 1_555
O6 Sr0 2.725179 1_545
O6 Sr1 2.835851 1_555
O7 Si3 1.599886 1_565
O7 V0 2.092445 1_455
O7 Sr1 2.572780 1_465
O7 Sr0 3.178685 1_555
O8 V1 1.639892 1_556
O8 Sr1 2.789761 1_455
O9 V0 2.132379 1_454
O9 Sr0 2.379352 1_555
O10 Si2 1.627106 1_545
O10 V1 2.021848 1_655
O10 Sr0 2.773089 1_645
O11 Si3 1.611894 1_565
O11 V0 2.228580 1_555
O11 Sr1 2.803596 1_565
O11 Sr0 3.154792 1_555
O12 Si0 1.599886 1_555
O12 V0 2.092445 1_455
O12 Sr1 2.572780 1_455
O12 Sr0 3.178685 1_555
O13 Si1 1.623604 1_555
O13 V1 2.097540 1_555
O13 Sr0 2.725179 1_555
O13 Sr1 2.835851 1_555
