# generated using pymatgen
data_Al2Bi7Ru(BrCl4)2
_symmetry_space_group_name_H-M   'P 1'
_cell_length_a   14.76375300
_cell_length_b   11.90142100
_cell_length_c   18.17264063
_cell_angle_alpha   57.48905989
_cell_angle_beta   90.00000000
_cell_angle_gamma   90.00000000
_symmetry_Int_Tables_number   1
_chemical_formula_structural   Al2Bi7Ru(BrCl4)2
_chemical_formula_sum   'Al8 Bi28 Ru4 Br8 Cl32'
_cell_volume   2692.71245532
_cell_formula_units_Z   4
loop_
 _symmetry_equiv_pos_site_id
 _symmetry_equiv_pos_as_xyz
  1  'x, y, z'
loop_
 _atom_site_type_symbol
 _atom_site_label
 _atom_site_symmetry_multiplicity
 _atom_site_fract_x
 _atom_site_fract_y
 _atom_site_fract_z
 _atom_site_occupancy
  Al  Al0  1  0.18868500  0.46958000  0.58348800  1
  Al  Al1  1  0.31131500  0.46958000  0.08348800  1
  Al  Al2  1  0.81131500  0.53042000  0.41651200  1
  Al  Al3  1  0.68868500  0.53042000  0.91651200  1
  Al  Al4  1  0.53266000  0.80273600  0.19445000  1
  Al  Al5  1  0.96734000  0.80273600  0.69445000  1
  Al  Al6  1  0.46734000  0.19726400  0.80555000  1
  Al  Al7  1  0.03266000  0.19726400  0.30555000  1
  Bi  Bi0  1  0.13389100  0.10497300  0.91022400  1
  Bi  Bi1  1  0.36610900  0.10497300  0.41022400  1
  Bi  Bi2  1  0.86610900  0.89502700  0.08977600  1
  Bi  Bi3  1  0.63389100  0.89502700  0.58977600  1
  Bi  Bi4  1  0.00501800  0.83029300  0.96442800  1
  Bi  Bi5  1  0.49498200  0.83029300  0.46442800  1
  Bi  Bi6  1  0.99498200  0.16970700  0.03557200  1
  Bi  Bi7  1  0.50501800  0.16970700  0.53557200  1
  Bi  Bi8  1  0.95987100  0.15178100  0.74706700  1
  Bi  Bi9  1  0.54012900  0.15178100  0.24706700  1
  Bi  Bi10  1  0.04012900  0.84821900  0.25293300  1
  Bi  Bi11  1  0.45987100  0.84821900  0.75293300  1
  Bi  Bi12  1  0.78820600  0.01220900  0.85670300  1
  Bi  Bi13  1  0.71179400  0.01220900  0.35670300  1
  Bi  Bi14  1  0.21179400  0.98779100  0.14329700  1
  Bi  Bi15  1  0.28820600  0.98779100  0.64329700  1
  Bi  Bi16  1  0.77747000  0.22284200  0.90632400  1
  Bi  Bi17  1  0.72253000  0.22284200  0.40632400  1
  Bi  Bi18  1  0.22253000  0.77715800  0.09367600  1
  Bi  Bi19  1  0.27747000  0.77715800  0.59367600  1
  Bi  Bi20  1  0.94420000  0.36767300  0.79216200  1
  Bi  Bi21  1  0.55580000  0.36767300  0.29216200  1
  Bi  Bi22  1  0.05580000  0.63232700  0.20783800  1
  Bi  Bi23  1  0.44420000  0.63232700  0.70783800  1
  Bi  Bi24  1  0.77530300  0.31568800  0.70594700  1
  Bi  Bi25  1  0.72469700  0.31568800  0.20594700  1
  Bi  Bi26  1  0.22469700  0.68431200  0.29405300  1
  Bi  Bi27  1  0.27530300  0.68431200  0.79405300  1
  Ru  Ru0  1  0.94328100  0.08162400  0.92493300  1
  Ru  Ru1  1  0.55671900  0.08162400  0.42493300  1
  Ru  Ru2  1  0.05671900  0.91837600  0.07506700  1
  Ru  Ru3  1  0.44328100  0.91837600  0.57506700  1
  Br  Br0  1  0.16378300  0.91799000  0.84912900  1
  Br  Br1  1  0.33621700  0.91799000  0.34912900  1
  Br  Br2  1  0.83621700  0.08201000  0.15087100  1
  Br  Br3  1  0.66378300  0.08201000  0.65087100  1
  Br  Br4  1  0.83749200  0.68826600  0.05398000  1
  Br  Br5  1  0.66250800  0.68826600  0.55398000  1
  Br  Br6  1  0.16250800  0.31173400  0.94602000  1
  Br  Br7  1  0.33749200  0.31173400  0.44602000  1
  Cl  Cl0  1  0.16650100  0.44528700  0.70938600  1
  Cl  Cl1  1  0.33349900  0.44528700  0.20938600  1
  Cl  Cl2  1  0.83349900  0.55471300  0.29061400  1
  Cl  Cl3  1  0.66650100  0.55471300  0.79061400  1
  Cl  Cl4  1  0.32943300  0.52036600  0.54864000  1
  Cl  Cl5  1  0.17056700  0.52036600  0.04864000  1
  Cl  Cl6  1  0.67056700  0.47963400  0.45136000  1
  Cl  Cl7  1  0.82943300  0.47963400  0.95136000  1
  Cl  Cl8  1  0.11066000  0.63910400  0.48694900  1
  Cl  Cl9  1  0.38934000  0.63910400  0.98694900  1
  Cl  Cl10  1  0.88934000  0.36089600  0.51305100  1
  Cl  Cl11  1  0.61066000  0.36089600  0.01305100  1
  Cl  Cl12  1  0.14551900  0.29129600  0.59203900  1
  Cl  Cl13  1  0.35448100  0.29129600  0.09203900  1
  Cl  Cl14  1  0.85448100  0.70870400  0.40796100  1
  Cl  Cl15  1  0.64551900  0.70870400  0.90796100  1
  Cl  Cl16  1  0.59835800  0.72593300  0.12515500  1
  Cl  Cl17  1  0.90164200  0.72593300  0.62515500  1
  Cl  Cl18  1  0.40164200  0.27406700  0.87484500  1
  Cl  Cl19  1  0.09835800  0.27406700  0.37484500  1
  Cl  Cl20  1  0.63458800  0.85691700  0.25608500  1
  Cl  Cl21  1  0.86541200  0.85691700  0.75608500  1
  Cl  Cl22  1  0.36541200  0.14308300  0.74391500  1
  Cl  Cl23  1  0.13458800  0.14308300  0.24391500  1
  Cl  Cl24  1  0.45030800  0.97412200  0.11078400  1
  Cl  Cl25  1  0.04969200  0.97412200  0.61078400  1
  Cl  Cl26  1  0.54969200  0.02587800  0.88921600  1
  Cl  Cl27  1  0.95030800  0.02587800  0.38921600  1
  Cl  Cl28  1  0.44970700  0.64744300  0.29782700  1
  Cl  Cl29  1  0.05029300  0.64744300  0.79782700  1
  Cl  Cl30  1  0.55029300  0.35255700  0.70217300  1
  Cl  Cl31  1  0.94970700  0.35255700  0.20217300  1
loop_
_geom_bond_atom_site_label_1
_geom_bond_atom_site_label_2
_geom_bond_distance
_geom_bond_site_symmetry_2
Al0 Cl12 2.139635 1_555
Al0 Cl8 2.161164 1_555
Al0 Cl4 2.161684 1_555
Al0 Cl0 2.171245 1_555
Al1 Cl13 2.139635 1_555
Al1 Cl9 2.161164 1_554
Al1 Cl5 2.161684 1_555
Al1 Cl1 2.171245 1_555
Al2 Cl14 2.139635 1_555
Al2 Cl10 2.161164 1_555
Al2 Cl6 2.161684 1_555
Al2 Cl2 2.171245 1_555
Al3 Cl15 2.139635 1_555
Al3 Cl11 2.161164 1_556
Al3 Cl7 2.161684 1_555
Al3 Cl3 2.171245 1_555
Al4 Cl16 2.144617 1_555
Al4 Cl24 2.148683 1_555
Al4 Cl20 2.170548 1_555
Al4 Cl28 2.170894 1_555
Al5 Cl17 2.144617 1_555
Al5 Cl25 2.148683 1_655
Al5 Cl21 2.170548 1_555
Al5 Cl29 2.170894 1_655
Al6 Cl18 2.144617 1_555
Al6 Cl26 2.148683 1_555
Al6 Cl22 2.170548 1_555
Al6 Cl30 2.170894 1_555
Al7 Cl19 2.144617 1_555
Al7 Cl27 2.148683 1_455
Al7 Cl23 2.170548 1_555
Al7 Cl31 2.170894 1_455
Bi0 Ru0 2.826321 1_455
Bi0 Ru2 2.837731 1_546
Bi0 Br6 2.894411 1_555
Bi0 Br0 3.005913 1_545
Bi1 Ru1 2.826321 1_555
Bi1 Ru3 2.837731 1_545
Bi1 Br7 2.894411 1_555
Bi1 Br1 3.005913 1_545
Bi2 Ru2 2.826321 1_655
Bi2 Ru0 2.837731 1_564
Bi2 Br4 2.894411 1_555
Bi2 Br2 3.005913 1_565
Bi3 Ru3 2.826321 1_555
Bi3 Ru1 2.837731 1_565
Bi3 Br5 2.894411 1_555
Bi3 Br3 3.005913 1_565
Bi4 Ru0 2.825854 1_465
Bi4 Ru2 2.826618 1_556
Bi4 Br0 2.936499 1_555
Bi4 Br4 2.943801 1_456
Bi5 Ru1 2.825854 1_565
Bi5 Ru3 2.826618 1_555
Bi5 Br1 2.936499 1_555
Bi5 Br5 2.943801 1_555
Bi6 Ru2 2.825854 1_645
Bi6 Ru0 2.826618 1_554
Bi6 Br2 2.936499 1_555
Bi6 Br6 2.943801 1_654
Bi7 Ru3 2.825854 1_545
Bi7 Ru1 2.826618 1_555
Bi7 Br3 2.936499 1_555
Bi7 Br7 2.943801 1_555
Bi8 Ru0 2.881636 1_555
Bi9 Ru1 2.881636 1_555
Bi10 Ru2 2.881636 1_555
Bi10 Bi22 3.096839 1_555
Bi10 Bi14 3.097517 1_555
Bi11 Ru3 2.881636 1_555
Bi11 Bi23 3.096839 1_555
Bi11 Bi15 3.097517 1_555
Bi12 Ru0 2.926218 1_555
Bi12 Bi16 3.090689 1_555
Bi12 Bi8 3.097517 1_555
Bi12 Bi24 3.154483 1_555
Bi13 Ru1 2.926218 1_555
Bi13 Bi17 3.090689 1_555
Bi13 Bi9 3.097517 1_555
Bi13 Bi25 3.154483 1_555
Bi14 Ru2 2.926218 1_555
Bi14 Bi18 3.090689 1_555
Bi14 Bi26 3.154483 1_555
Bi15 Ru3 2.926218 1_555
Bi15 Bi19 3.090689 1_555
Bi15 Bi27 3.154483 1_555
Bi16 Ru0 2.884582 1_555
Bi16 Bi20 3.080671 1_555
Bi16 Bi24 3.186927 1_555
Bi17 Ru1 2.884582 1_555
Bi17 Bi21 3.080671 1_555
Bi17 Bi25 3.186927 1_555
Bi18 Ru2 2.884582 1_555
Bi18 Bi22 3.080671 1_555
Bi18 Bi26 3.186927 1_555
Bi19 Ru3 2.884582 1_555
Bi19 Bi23 3.080671 1_555
Bi19 Bi27 3.186927 1_555
Bi20 Ru0 2.929528 1_555
Bi20 Bi8 3.096839 1_555
Bi20 Bi24 3.177622 1_555
Bi21 Ru1 2.929528 1_555
Bi21 Bi9 3.096839 1_555
Bi21 Bi25 3.177622 1_555
Bi22 Ru2 2.929528 1_555
Bi22 Bi26 3.177622 1_555
Bi23 Ru3 2.929528 1_555
Bi23 Bi27 3.177622 1_555
Ru0 Ru2 2.885389 1_646
Ru1 Ru3 2.885389 1_545
