# generated using pymatgen
data_Ba2Y2Mg(Fe2O5)2
_symmetry_space_group_name_H-M   'P 1'
_cell_length_a   4.03014200
_cell_length_b   9.08800707
_cell_length_c   7.83221747
_cell_angle_alpha   86.98944224
_cell_angle_beta   90.00000000
_cell_angle_gamma   90.00000000
_symmetry_Int_Tables_number   1
_chemical_formula_structural   Ba2Y2Mg(Fe2O5)2
_chemical_formula_sum   'Ba2 Y2 Mg1 Fe4 O10'
_cell_volume   286.46656940
_cell_formula_units_Z   1
loop_
 _symmetry_equiv_pos_site_id
 _symmetry_equiv_pos_as_xyz
  1  'x, y, z'
loop_
 _atom_site_type_symbol
 _atom_site_label
 _atom_site_symmetry_multiplicity
 _atom_site_fract_x
 _atom_site_fract_y
 _atom_site_fract_z
 _atom_site_occupancy
  Ba  Ba0  1  0.00000000  0.03326000  0.53432300  1
  Ba  Ba1  1  0.00000000  0.13246400  0.03100500  1
  Y  Y0  1  0.00000000  0.53576000  0.00070000  1
  Y  Y1  1  0.00000000  0.49763600  0.49910600  1
  Mg  Mg0  1  0.50000000  0.86326700  0.97898000  1
  Fe  Fe0  1  0.49999900  0.72276200  0.27818400  1
  Fe  Fe1  1  0.49999900  0.31626500  0.75099700  1
  Fe  Fe2  1  0.49999900  0.32099900  0.26930400  1
  Fe  Fe3  1  0.49999900  0.71206900  0.70385100  1
  O  O0  1  0.49999900  0.59293600  0.49504000  1
  O  O1  1  0.49999900  0.25025600  0.51168300  1
  O  O2  1  0.49999900  0.65373000  0.99000500  1
  O  O3  1  0.49999900  0.33170400  0.00944700  1
  O  O4  1  0.00000000  0.67725200  0.72627500  1
  O  O5  1  0.00000000  0.35600000  0.25694200  1
  O  O6  1  0.00000000  0.67408400  0.25144400  1
  O  O7  1  0.00000000  0.35278000  0.75658600  1
  O  O8  1  0.49999900  0.95994000  0.18935800  1
  O  O9  1  0.49999900  0.95850300  0.75843800  1
loop_
_geom_bond_atom_site_label_1
_geom_bond_atom_site_label_2
_geom_bond_distance
_geom_bond_site_symmetry_2
Ba0 O9 2.734583 1_545
Ba0 O9 2.734589 1_445
Ba0 O1 2.818551 1_555
Ba0 O1 2.818557 1_455
Ba1 O3 2.708414 1_555
Ba1 O3 2.708420 1_455
Ba1 O5 2.763337 1_555
Ba1 O8 2.802280 1_545
Ba1 O8 2.802286 1_445
Ba1 O7 2.859447 1_554
Mg0 O9 1.890963 1_555
Mg0 O2 1.901695 1_555
Mg0 O8 1.907600 1_556
Fe0 O0 2.016520 1_555
Fe0 O6 2.076004 1_555
Fe0 O6 2.076012 1_655
Fe0 O8 2.229925 1_555
Fe0 O2 2.374181 1_554
Fe1 O1 1.997799 1_555
Fe1 O3 2.036432 1_556
Fe1 O7 2.043052 1_555
Fe1 O7 2.043060 1_655
Fe2 O1 1.972036 1_555
Fe2 O3 2.032470 1_555
Fe2 O5 2.041523 1_555
Fe2 O5 2.041531 1_655
Fe3 O0 2.008208 1_555
Fe3 O4 2.045880 1_555
Fe3 O4 2.045887 1_655
Fe3 O2 2.275819 1_555
Fe3 O9 2.301987 1_555
O0 Y1 2.192879 1_555
O0 Y1 2.192887 1_655
O2 Y0 2.281995 1_556
O2 Y0 2.282002 1_656
O3 Y0 2.736946 1_555
O3 Y0 2.736952 1_655
O4 Y0 2.445999 1_556
O4 Y1 2.476959 1_555
O5 Y1 2.347488 1_555
O5 Y0 2.520372 1_555
O6 Y0 2.386718 1_555
O6 Y1 2.450976 1_555
O7 Y1 2.349685 1_555
O7 Y0 2.599009 1_556
