# generated using pymatgen
data_Mg(WO2)2
_symmetry_space_group_name_H-M   'P 1'
_cell_length_a   6.22862588
_cell_length_b   6.22862588
_cell_length_c   14.91492344
_cell_angle_alpha   91.97057284
_cell_angle_beta   91.97057284
_cell_angle_gamma   57.61753988
_symmetry_Int_Tables_number   1
_chemical_formula_structural   Mg(WO2)2
_chemical_formula_sum   'Mg6 W12 O24'
_cell_volume   488.27708868
_cell_formula_units_Z   6
loop_
 _symmetry_equiv_pos_site_id
 _symmetry_equiv_pos_as_xyz
  1  'x, y, z'
loop_
 _atom_site_type_symbol
 _atom_site_label
 _atom_site_symmetry_multiplicity
 _atom_site_fract_x
 _atom_site_fract_y
 _atom_site_fract_z
 _atom_site_occupancy
  Mg  Mg0  1  0.34253326  0.34253326  0.04410509  1
  Mg  Mg1  1  0.64663229  0.64663229  0.32608215  1
  Mg  Mg2  1  0.80835115  0.80835115  0.16075733  1
  Mg  Mg3  1  0.34575726  0.34575726  0.66502088  1
  Mg  Mg4  1  0.49022373  0.49022373  0.50169113  1
  Mg  Mg5  1  0.19759550  0.19759550  0.83996600  1
  W  W0  1  0.85149989  0.29206651  0.16636511  1
  W  W1  1  0.03513883  0.03513883  0.37059953  1
  W  W2  1  0.01733854  0.01733854  0.02782125  1
  W  W3  1  0.29206651  0.85149989  0.16636511  1
  W  W4  1  0.44529042  0.00054599  0.48818569  1
  W  W5  1  0.68594256  0.68594256  0.76144470  1
  W  W6  1  0.00054599  0.44529042  0.48818569  1
  W  W7  1  0.23400362  0.68729158  0.84308667  1
  W  W8  1  0.23666461  0.23666461  0.30998361  1
  W  W9  1  0.68729158  0.23400362  0.84308667  1
  W  W10  1  0.01030651  0.01030651  0.55802363  1
  W  W11  1  0.64025743  0.64025743  0.91439883  1
  O  O0  1  0.68567283  0.12988653  0.09134830  1
  O  O1  1  0.95683262  0.95683262  0.24700837  1
  O  O2  1  0.12988653  0.68567283  0.09134830  1
  O  O3  1  0.18325472  0.18325472  0.09659344  1
  O  O4  1  0.35996694  0.75949575  0.41263053  1
  O  O5  1  0.50879267  0.50879267  0.23189486  1
  O  O6  1  0.66319316  0.66319316  0.55950618  1
  O  O7  1  0.51003291  0.95625571  0.24415273  1
  O  O8  1  0.75949575  0.35996694  0.41263053  1
  O  O9  1  0.64245475  0.64245475  0.09469678  1
  O  O10  1  0.78835743  0.78835743  0.41801122  1
  O  O11  1  0.95625571  0.51003291  0.24415273  1
  O  O12  1  0.05982237  0.53260346  0.75873389  1
  O  O13  1  0.18252684  0.18252684  0.59719805  1
  O  O14  1  0.15184570  0.63868238  0.56613152  1
  O  O15  1  0.53260346  0.05982237  0.75873389  1
  O  O16  1  0.35148020  0.35148020  0.91468528  1
  O  O17  1  0.34109443  0.34109443  0.41839725  1
  O  O18  1  0.51156926  0.51156926  0.72962060  1
  O  O19  1  0.63868238  0.15184570  0.56613152  1
  O  O20  1  0.88589728  0.88589728  0.91809425  1
  O  O21  1  0.91435777  0.29570642  0.93779435  1
  O  O22  1  0.02948717  0.02948717  0.77766098  1
  O  O23  1  0.29570642  0.91435777  0.93779435  1
loop_
_geom_bond_atom_site_label_1
_geom_bond_atom_site_label_2
_geom_bond_distance
_geom_bond_site_symmetry_2
Mg0 O3 1.934533 1_555
Mg0 O0 1.935769 1_555
Mg0 O2 1.935769 1_555
Mg0 O16 1.936579 1_554
Mg1 O5 2.017753 1_555
Mg1 O4 2.024907 1_555
Mg1 O8 2.024907 1_555
Mg1 O10 2.026492 1_555
Mg1 O7 2.066239 1_555
Mg1 O11 2.066239 1_555
Mg2 O7 2.023610 1_555
Mg2 O11 2.023610 1_555
Mg2 O9 2.027284 1_555
Mg2 O2 2.028666 1_655
Mg2 O0 2.028666 1_565
Mg2 O1 2.029301 1_555
Mg3 O13 2.014049 1_555
Mg3 O18 2.016742 1_555
Mg3 O15 2.078251 1_555
Mg3 O12 2.078251 1_555
Mg3 O14 2.159909 1_555
Mg3 O19 2.159909 1_555
Mg4 O4 1.963988 1_555
Mg4 O8 1.963988 1_555
Mg4 O17 2.008587 1_555
Mg4 O6 2.044624 1_555
Mg4 O14 2.052209 1_555
Mg4 O19 2.052209 1_555
Mg5 O16 1.979015 1_555
Mg5 O22 2.024071 1_555
Mg5 O21 2.139086 1_455
Mg5 O23 2.139086 1_545
Mg5 O12 2.177780 1_555
Mg5 O15 2.177780 1_555
O0 W2 2.048057 1_655
O0 W0 2.073524 1_555
O1 W1 2.001220 1_665
O1 W0 2.210917 1_565
O1 W3 2.210917 1_655
O2 W2 2.048057 1_565
O2 W3 2.073524 1_555
O3 W2 2.046028 1_555
O3 W3 2.100347 1_545
O3 W0 2.100347 1_455
O4 W1 1.923584 1_565
O4 W4 2.122196 1_565
O5 W3 2.073706 1_555
O5 W0 2.073706 1_555
O6 W6 2.094882 1_655
O6 W4 2.094882 1_565
O7 W8 1.930117 1_565
O7 W3 2.098432 1_555
O8 W1 1.923584 1_655
O8 W6 2.122196 1_655
O9 W0 2.149862 1_555
O9 W3 2.149862 1_555
O9 W11 2.688296 1_554
O10 W4 2.107587 1_565
O10 W6 2.107587 1_655
O11 W8 1.930117 1_655
O11 W0 2.098432 1_555
O12 W5 1.989565 1_455
O12 W7 2.151891 1_555
O13 W10 1.946552 1_555
O13 W4 2.162450 1_555
O13 W6 2.162450 1_555
O14 W10 1.993947 1_565
O14 W6 2.175979 1_555
O15 W5 1.989565 1_545
O15 W9 2.151891 1_555
O16 W9 2.123976 1_555
O16 W7 2.123976 1_555
O17 W8 1.941477 1_555
O17 W6 2.152848 1_555
O17 W4 2.152848 1_555
O18 W5 1.943497 1_555
O18 W9 2.257845 1_555
O18 W7 2.257845 1_555
O19 W10 1.993947 1_655
O19 W4 2.175979 1_555
O20 W2 2.133671 1_666
O20 W7 2.163721 1_655
O20 W9 2.163721 1_565
O20 W11 2.679674 1_555
O21 W11 1.930839 1_555
O21 W2 2.032302 1_656
O21 W9 2.133258 1_555
O22 W9 2.065704 1_455
O22 W7 2.065704 1_545
O23 W11 1.930839 1_555
O23 W2 2.032302 1_566
O23 W7 2.133258 1_555
