# generated using pymatgen
data_Na3VIO13
_symmetry_space_group_name_H-M   'P 1'
_cell_length_a   6.07676562
_cell_length_b   8.35250149
_cell_length_c   10.85144965
_cell_angle_alpha   77.95138966
_cell_angle_beta   88.69347719
_cell_angle_gamma   90.20074135
_symmetry_Int_Tables_number   1
_chemical_formula_structural   Na3VIO13
_chemical_formula_sum   'Na6 V2 I2 O26'
_cell_volume   538.48583836
_cell_formula_units_Z   2
loop_
 _symmetry_equiv_pos_site_id
 _symmetry_equiv_pos_as_xyz
  1  'x, y, z'
loop_
 _atom_site_type_symbol
 _atom_site_label
 _atom_site_symmetry_multiplicity
 _atom_site_fract_x
 _atom_site_fract_y
 _atom_site_fract_z
 _atom_site_occupancy
  Na  Na0  1  0.70422300  0.45957400  0.33270300  1
  Na  Na1  1  0.29577700  0.54042600  0.66729700  1
  Na  Na2  1  0.35044200  0.88345400  0.34605800  1
  Na  Na3  1  0.64955800  0.11654600  0.65394200  1
  Na  Na4  1  0.39231300  0.77827500  0.05999600  1
  Na  Na5  1  0.60768700  0.22172500  0.94000400  1
  V  V0  1  0.07525000  0.18330900  0.04807300  1
  V  V1  1  0.92475000  0.81669100  0.95192700  1
  I  I0  1  0.15093300  0.12943100  0.77197000  1
  I  I1  1  0.84906700  0.87056900  0.22803000  1
  O  O0  1  0.29849400  0.98530000  0.69531400  1
  O  O1  1  0.70150600  0.01470000  0.30468600  1
  O  O2  1  0.01078400  0.24412100  0.62558800  1
  O  O3  1  0.98921600  0.75587900  0.37441200  1
  O  O4  1  0.39151500  0.27367000  0.75855600  1
  O  O5  1  0.60848500  0.72633000  0.24144400  1
  O  O6  1  0.31794100  0.28614000  0.06116900  1
  O  O7  1  0.68205900  0.71386000  0.93883100  1
  O  O8  1  0.89046800  0.30132000  0.10625800  1
  O  O9  1  0.10953200  0.69868000  0.89374200  1
  O  O10  1  0.99131900  0.26347600  0.87673800  1
  O  O11  1  0.00868100  0.73652400  0.12326200  1
  O  O12  1  0.88586700  0.98705200  0.80748100  1
  O  O13  1  0.11413300  0.01294800  0.19251900  1
  O  O14  1  0.21868900  0.01671700  0.94499600  1
  O  O15  1  0.78131100  0.98328300  0.05500400  1
  O  O16  1  0.09882400  0.43925100  0.21548200  1
  O  O17  1  0.90117600  0.56074900  0.78451800  1
  O  O18  1  0.28872000  0.42997800  0.18104300  1
  O  O19  1  0.71128000  0.57002200  0.81895700  1
  O  O20  1  0.43900600  0.21692000  0.43945400  1
  O  O21  1  0.56099400  0.78308000  0.56054600  1
  O  O22  1  0.26845000  0.57805900  0.43785300  1
  O  O23  1  0.73155000  0.42194100  0.56214700  1
  O  O24  1  0.24854700  0.17271000  0.42723600  1
  O  O25  1  0.75145300  0.82729000  0.57276400  1
loop_
_geom_bond_atom_site_label_1
_geom_bond_atom_site_label_2
_geom_bond_distance
_geom_bond_site_symmetry_2
Na0 O5 2.323292 1_555
Na0 O23 2.453156 1_555
Na0 O20 2.637980 1_555
Na0 O16 2.711210 1_655
Na1 O4 2.323292 1_555
Na1 O22 2.453156 1_555
Na1 O21 2.637980 1_555
Na1 O17 2.711210 1_455
Na2 O13 2.318523 1_565
Na2 O1 2.385134 1_565
Na2 O3 2.421662 1_455
Na2 O5 2.454609 1_555
Na2 O22 2.579692 1_555
Na2 O21 2.661933 1_555
Na2 O24 2.805461 1_565
Na3 O12 2.318523 1_545
Na3 O0 2.385134 1_545
Na3 O2 2.421662 1_655
Na3 O4 2.454609 1_555
Na3 O23 2.579692 1_555
Na3 O20 2.661933 1_555
Na3 O25 2.805461 1_545
Na4 O7 2.305372 1_554
Na4 O5 2.357120 1_555
Na4 O14 2.382032 1_564
Na4 O11 2.418468 1_555
Na4 O9 2.698837 1_554
Na4 O15 2.906865 1_555
Na4 O18 2.989810 1_555
Na5 O6 2.305372 1_556
Na5 O4 2.357120 1_555
Na5 O15 2.382032 1_546
Na5 O10 2.418468 1_555
Na5 O8 2.698837 1_556
Na5 O14 2.906865 1_555
Na5 O19 2.989810 1_555
I0 O0 1.826713 1_545
I0 O4 1.874752 1_555
I0 O2 1.896922 1_555
I0 O14 1.970069 1_555
I0 O12 1.980957 1_445
I0 O10 1.993875 1_455
I1 O1 1.826713 1_565
I1 O5 1.874752 1_555
I1 O3 1.896922 1_555
I1 O15 1.970069 1_555
I1 O13 1.980957 1_665
I1 O11 1.993875 1_655
O6 V0 1.727571 1_555
O7 V1 1.727571 1_555
O8 V0 1.693025 1_655
O9 V1 1.693025 1_455
O10 V0 1.921232 1_656
O11 V1 1.921232 1_454
O12 V1 1.904096 1_555
O13 V0 1.904096 1_555
O14 V0 2.135615 1_556
O14 V1 2.430630 1_445
O15 V1 2.135615 1_554
O15 V0 2.430630 1_665
O16 O18 1.212565 1_555
O17 O19 1.212565 1_555
O20 O24 1.232028 1_555
O21 O25 1.232028 1_555
