# generated using pymatgen
data_Ca2Al2SiO7
_symmetry_space_group_name_H-M   'P 1'
_cell_length_a   13.96348300
_cell_length_b   6.08276800
_cell_length_c   7.73631300
_cell_angle_alpha   90.00000000
_cell_angle_beta   90.00000000
_cell_angle_gamma   90.00000000
_symmetry_Int_Tables_number   1
_chemical_formula_structural   Ca2Al2SiO7
_chemical_formula_sum   'Ca8 Al8 Si4 O28'
_cell_volume   657.09633598
_cell_formula_units_Z   4
loop_
 _symmetry_equiv_pos_site_id
 _symmetry_equiv_pos_as_xyz
  1  'x, y, z'
loop_
 _atom_site_type_symbol
 _atom_site_label
 _atom_site_symmetry_multiplicity
 _atom_site_fract_x
 _atom_site_fract_y
 _atom_site_fract_z
 _atom_site_occupancy
  Ca  Ca0  1  0.32249400  0.11202400  0.65507600  1
  Ca  Ca1  1  0.20434400  0.69327300  0.40302700  1
  Ca  Ca2  1  0.29565600  0.19327300  0.09697300  1
  Ca  Ca3  1  0.17750600  0.61202400  0.84492400  1
  Ca  Ca4  1  0.70434400  0.30672700  0.59697300  1
  Ca  Ca5  1  0.82249400  0.88797600  0.34492400  1
  Ca  Ca6  1  0.67750600  0.38797600  0.15507600  1
  Ca  Ca7  1  0.79565600  0.80672700  0.90302700  1
  Al  Al0  1  0.02136500  0.01162000  0.03519000  1
  Al  Al1  1  0.97863500  0.48838000  0.53519000  1
  Al  Al2  1  0.60704100  0.83913600  0.25740300  1
  Al  Al3  1  0.89295900  0.33913600  0.24259700  1
  Al  Al4  1  0.52136500  0.98838000  0.96481000  1
  Al  Al5  1  0.47863500  0.51162000  0.46481000  1
  Al  Al6  1  0.10704100  0.16086400  0.74259700  1
  Al  Al7  1  0.39295900  0.66086400  0.75740300  1
  Si  Si0  1  0.89330300  0.33280400  0.85880600  1
  Si  Si1  1  0.60669700  0.83280400  0.64119400  1
  Si  Si2  1  0.39330300  0.66719600  0.14119400  1
  Si  Si3  1  0.10669700  0.16719600  0.35880600  1
  O  O0  1  0.35193100  0.54355500  0.96629700  1
  O  O1  1  0.10414000  0.97220600  0.20813000  1
  O  O2  1  0.32342500  0.85695400  0.21943900  1
  O  O3  1  0.09353600  0.45298700  0.62260500  1
  O  O4  1  0.28664400  0.73448100  0.64959500  1
  O  O5  1  0.99130000  0.23032300  0.39899400  1
  O  O6  1  0.07136900  0.89404800  0.84929300  1
  O  O7  1  0.50870000  0.73032300  0.10100600  1
  O  O8  1  0.42863100  0.39404800  0.65070700  1
  O  O9  1  0.21335600  0.23448100  0.85040500  1
  O  O10  1  0.39586000  0.47220600  0.29187000  1
  O  O11  1  0.17657500  0.35695400  0.28056100  1
  O  O12  1  0.40646400  0.95298700  0.87739500  1
  O  O13  1  0.14806900  0.04355500  0.53370300  1
  O  O14  1  0.85193100  0.45644500  0.03370300  1
  O  O15  1  0.60414000  0.02779400  0.79187000  1
  O  O16  1  0.78664400  0.26551900  0.35040500  1
  O  O17  1  0.59353600  0.54701300  0.37739500  1
  O  O18  1  0.82342500  0.14304600  0.78056100  1
  O  O19  1  0.57136900  0.10595200  0.15070700  1
  O  O20  1  0.49130000  0.76967700  0.60100600  1
  O  O21  1  0.92863100  0.60595200  0.34929300  1
  O  O22  1  0.00870000  0.26967700  0.89899400  1
  O  O23  1  0.90646400  0.04701300  0.12260500  1
  O  O24  1  0.67657500  0.64304600  0.71943900  1
  O  O25  1  0.89586000  0.52779400  0.70813000  1
  O  O26  1  0.71335600  0.76551900  0.14959500  1
  O  O27  1  0.64806900  0.95644500  0.46629700  1
loop_
_geom_bond_atom_site_label_1
_geom_bond_atom_site_label_2
_geom_bond_distance
_geom_bond_site_symmetry_2
Ca0 O8 2.267264 1_555
Ca0 O9 2.271730 1_555
Ca0 O12 2.295382 1_545
Ca0 O4 2.350815 1_545
Ca0 O13 2.643330 1_555
Ca1 O4 2.241013 1_555
Ca1 O11 2.287593 1_555
Ca1 O2 2.402785 1_555
Ca1 O13 2.485822 1_565
Ca1 O1 2.666440 1_555
Ca1 O3 2.723230 1_555
Ca2 O9 2.241013 1_554
Ca2 O2 2.287593 1_545
Ca2 O11 2.402785 1_555
Ca2 O0 2.485822 1_554
Ca2 O10 2.666440 1_555
Ca2 O12 2.723230 1_544
Ca3 O6 2.267264 1_555
Ca3 O4 2.271730 1_555
Ca3 O3 2.295382 1_555
Ca3 O9 2.350815 1_555
Ca3 O0 2.643330 1_555
Ca4 O16 2.241013 1_555
Ca4 O24 2.287593 1_555
Ca4 O18 2.402785 1_555
Ca4 O27 2.485822 1_545
Ca4 O15 2.666440 1_555
Ca4 O17 2.723230 1_555
Ca5 O21 2.267264 1_555
Ca5 O26 2.271730 1_555
Ca5 O23 2.295382 1_565
Ca5 O16 2.350815 1_565
Ca5 O27 2.643330 1_555
Ca6 O19 2.267264 1_555
Ca6 O16 2.271730 1_555
Ca6 O17 2.295382 1_555
Ca6 O26 2.350815 1_555
Ca6 O14 2.643330 1_555
Ca7 O26 2.241013 1_556
Ca7 O18 2.287593 1_565
Ca7 O24 2.402785 1_555
Ca7 O14 2.485822 1_556
Ca7 O25 2.666440 1_555
Ca7 O23 2.723230 1_566
Al0 O6 1.751365 1_544
Al0 O23 1.754379 1_455
Al0 O1 1.784220 1_545
Al0 O22 1.898796 1_554
Al1 O21 1.751365 1_555
Al1 O3 1.754379 1_655
Al1 O25 1.784220 1_555
Al1 O5 1.898796 1_555
Al2 O26 1.760670 1_555
Al2 O27 1.857165 1_555
Al2 O19 1.887727 1_565
Al2 O7 1.946193 1_555
Al2 O17 2.013635 1_555
Al3 O16 1.760670 1_555
Al3 O14 1.857165 1_555
Al3 O21 1.887727 1_555
Al3 O5 1.946193 1_555
Al3 O23 2.013635 1_555
Al4 O19 1.751365 1_566
Al4 O12 1.754379 1_555
Al4 O15 1.784220 1_565
Al4 O7 1.898796 1_556
Al5 O8 1.751365 1_555
Al5 O17 1.754379 1_555
Al5 O10 1.784220 1_555
Al5 O20 1.898796 1_555
Al6 O9 1.760670 1_555
Al6 O13 1.857165 1_555
Al6 O6 1.887727 1_545
Al6 O22 1.946193 1_555
Al6 O3 2.013635 1_555
Al7 O4 1.760670 1_555
Al7 O0 1.857165 1_555
Al7 O8 1.887727 1_555
Al7 O20 1.946193 1_555
Al7 O12 2.013635 1_555
O0 Si2 1.652309 1_556
O1 Si3 1.663388 1_565
O2 Si2 1.628126 1_555
O5 Si3 1.685390 1_655
O7 Si2 1.685390 1_555
O10 Si2 1.663388 1_555
O11 Si3 1.628126 1_555
O13 Si3 1.652309 1_555
O14 Si0 1.652309 1_554
O15 Si1 1.663388 1_545
O18 Si0 1.628126 1_555
O20 Si1 1.685390 1_555
O22 Si0 1.685390 1_455
O24 Si1 1.628126 1_555
O25 Si0 1.663388 1_555
O27 Si1 1.652309 1_555
