# generated using pymatgen
data_Tb(AlFe)6
_symmetry_space_group_name_H-M   'P 1'
_cell_length_a   6.56635229
_cell_length_b   6.58304932
_cell_length_c   6.58324614
_cell_angle_alpha   135.66683664
_cell_angle_beta   98.32357312
_cell_angle_gamma   98.06189047
_symmetry_Int_Tables_number   1
_chemical_formula_structural   Tb(AlFe)6
_chemical_formula_sum   'Tb1 Al6 Fe6'
_cell_volume   184.13656646
_cell_formula_units_Z   1
loop_
 _symmetry_equiv_pos_site_id
 _symmetry_equiv_pos_as_xyz
  1  'x, y, z'
loop_
 _atom_site_type_symbol
 _atom_site_label
 _atom_site_symmetry_multiplicity
 _atom_site_fract_x
 _atom_site_fract_y
 _atom_site_fract_z
 _atom_site_occupancy
  Tb  Tb0  1  -0.00000000  -0.00000000  -0.00000000  1
  Al  Al0  1  0.34735785  0.34732201  -0.00014612  1
  Al  Al1  1  0.65264215  0.65267799  0.00014612  1
  Al  Al2  1  0.66131659  -0.00018229  0.66151914  1
  Al  Al3  1  0.33868341  0.00018229  0.33848086  1
  Al  Al4  1  0.80334207  0.30326699  0.50007569  1
  Al  Al5  1  0.19665793  0.69673301  0.49992431  1
  Fe  Fe0  1  0.50000000  -0.00000000  -0.00000000  1
  Fe  Fe1  1  0.50000000  0.50000000  0.50000000  1
  Fe  Fe2  1  -0.00000000  -0.00000000  0.50000000  1
  Fe  Fe3  1  -0.00000000  0.50000000  -0.00000000  1
  Fe  Fe4  1  0.23914882  0.49998965  0.73914843  1
  Fe  Fe5  1  0.76085118  0.50001035  0.26085157  1
loop_
_geom_bond_atom_site_label_1
_geom_bond_atom_site_label_2
_geom_bond_distance
_geom_bond_site_symmetry_2
Al0 Fe5 2.597634 1_555
Al0 Fe4 2.602959 1_554
Al0 Fe3 2.618176 1_555
Al0 Fe2 2.619029 1_554
Al0 Fe0 2.622607 1_555
Al0 Fe1 2.623666 1_555
Al0 Al1 2.631035 1_555
Al0 Al5 2.802961 1_555
Al0 Al5 2.803102 1_544
Al0 Tb0 2.995199 1_555
Al1 Fe4 2.597634 1_554
Al1 Fe5 2.602959 1_555
Al1 Fe3 2.618176 1_655
Al1 Fe2 2.619029 1_665
Al1 Fe0 2.622607 1_565
Al1 Fe1 2.623666 1_554
Al1 Al4 2.802961 1_554
Al1 Al4 2.803102 1_565
Al1 Tb0 2.995199 1_665
Al2 Fe2 2.600419 1_655
Al2 Fe0 2.601401 1_556
Al2 Fe3 2.601551 1_656
Al2 Fe1 2.601946 1_545
Al2 Fe5 2.626242 1_545
Al2 Fe5 2.626957 1_556
Al2 Al3 2.777599 1_555
Al2 Tb0 2.910634 1_656
Al2 Al5 2.956041 1_545
Al2 Al4 2.965051 1_555
Al3 Fe2 2.600419 1_555
Al3 Fe0 2.601401 1_555
Al3 Fe3 2.601551 1_545
Al3 Fe1 2.601946 1_555
Al3 Fe4 2.626242 1_555
Al3 Fe4 2.626957 1_544
Al3 Tb0 2.910634 1_555
Al3 Al4 2.956041 1_555
Al3 Al5 2.965051 1_545
Al4 Fe1 2.523678 1_555
Al4 Fe0 2.524857 1_555
Al4 Fe2 2.524893 1_655
Al4 Fe3 2.525699 1_656
Al4 Fe4 2.661579 1_655
Al4 Fe5 2.669768 1_555
Al4 Tb0 3.007126 1_655
Al4 Tb0 3.008265 1_666
Al5 Fe1 2.523678 1_555
Al5 Fe0 2.524857 1_566
Al5 Fe2 2.524893 1_565
Al5 Fe3 2.525699 1_555
Al5 Fe5 2.661579 1_455
Al5 Fe4 2.669768 1_555
Al5 Tb0 3.007126 1_566
Al5 Tb0 3.008265 1_555
Fe0 Fe1 2.483826 1_555
Fe0 Fe1 2.483826 1_544
Fe0 Fe4 2.489590 1_544
Fe0 Fe5 2.489590 1_555
Fe0 Tb0 3.283176 1_655
Fe0 Tb0 3.283176 1_555
Fe1 Fe4 2.488643 1_555
Fe1 Fe5 2.488643 1_555
Fe1 Tb0 3.284604 1_555
Fe1 Tb0 3.284604 1_666
Fe2 Fe3 2.483826 1_556
Fe2 Fe3 2.483826 1_545
Fe2 Fe5 2.489886 1_445
Fe2 Fe4 2.489886 1_555
Fe2 Tb0 3.291623 1_555
Fe2 Tb0 3.291623 1_556
Fe3 Fe5 2.489080 1_455
Fe3 Fe4 2.489080 1_554
Fe3 Tb0 3.291525 1_565
Fe3 Tb0 3.291525 1_555
Fe4 Tb0 3.223930 1_566
Fe4 Tb0 3.225375 1_555
Fe5 Tb0 3.223930 1_655
Fe5 Tb0 3.225375 1_666
