# generated using pymatgen
data_Ti3AgS6
_symmetry_space_group_name_H-M   'P 1'
_cell_length_a   7.24756855
_cell_length_b   7.24756855
_cell_length_c   7.24756854
_cell_angle_alpha   48.45549318
_cell_angle_beta   48.45550072
_cell_angle_gamma   48.45549474
_symmetry_Int_Tables_number   1
_chemical_formula_structural   Ti3AgS6
_chemical_formula_sum   'Ti3 Ag1 S6'
_cell_volume   195.56427308
_cell_formula_units_Z   1
loop_
 _symmetry_equiv_pos_site_id
 _symmetry_equiv_pos_as_xyz
  1  'x, y, z'
loop_
 _atom_site_type_symbol
 _atom_site_label
 _atom_site_symmetry_multiplicity
 _atom_site_fract_x
 _atom_site_fract_y
 _atom_site_fract_z
 _atom_site_occupancy
  Ti  Ti0  1  0.50000000  0.50000000  0.50000000  1
  Ti  Ti1  1  0.16732819  0.16732819  0.16732819  1
  Ti  Ti2  1  0.83267181  0.83267181  0.83267181  1
  Ag  Ag0  1  0.00000000  0.00000000  -0.00000000  1
  S  S0  1  0.57030536  0.24504868  0.90751606  1
  S  S1  1  0.90751606  0.57030536  0.24504868  1
  S  S2  1  0.24504868  0.90751606  0.57030536  1
  S  S3  1  0.75495132  0.09248394  0.42969464  1
  S  S4  1  0.09248394  0.42969464  0.75495132  1
  S  S5  1  0.42969464  0.75495132  0.09248394  1
loop_
_geom_bond_atom_site_label_1
_geom_bond_atom_site_label_2
_geom_bond_distance
_geom_bond_site_symmetry_2
Ag0 S5 2.674983 1_545
Ag0 S0 2.674983 1_454
Ag0 S4 2.674983 1_554
Ag0 S1 2.674983 1_445
Ag0 S2 2.674984 1_544
Ag0 S3 2.674984 1_455
S0 Ti1 2.423549 1_556
S0 Ti0 2.430158 1_555
S0 Ti2 2.467112 1_545
S1 Ti1 2.423549 1_655
S1 Ti0 2.430158 1_555
S1 Ti2 2.467112 1_554
S2 Ti1 2.423549 1_565
S2 Ti0 2.430158 1_555
S2 Ti2 2.467112 1_455
S3 Ti2 2.423549 1_545
S3 Ti0 2.430158 1_555
S3 Ti1 2.467112 1_655
S4 Ti2 2.423549 1_455
S4 Ti0 2.430158 1_555
S4 Ti1 2.467112 1_556
S5 Ti2 2.423549 1_554
S5 Ti0 2.430158 1_555
S5 Ti1 2.467112 1_565
