# generated using pymatgen
data_AgH4CSN2Cl
_symmetry_space_group_name_H-M   'P 1'
_cell_length_a   7.50474600
_cell_length_b   8.60325700
_cell_length_c   16.94059400
_cell_angle_alpha   90.00000000
_cell_angle_beta   90.00000000
_cell_angle_gamma   90.00000000
_symmetry_Int_Tables_number   1
_chemical_formula_structural   AgH4CSN2Cl
_chemical_formula_sum   'Ag8 H32 C8 S8 N16 Cl8'
_cell_volume   1093.77383173
_cell_formula_units_Z   8
loop_
 _symmetry_equiv_pos_site_id
 _symmetry_equiv_pos_as_xyz
  1  'x, y, z'
loop_
 _atom_site_type_symbol
 _atom_site_label
 _atom_site_symmetry_multiplicity
 _atom_site_fract_x
 _atom_site_fract_y
 _atom_site_fract_z
 _atom_site_occupancy
  Ag  Ag0  1  0.33997000  0.33003900  0.20727000  1
  Ag  Ag1  1  0.16003000  0.83003900  0.79273000  1
  Ag  Ag2  1  0.83997000  0.66996100  0.29273000  1
  Ag  Ag3  1  0.66003000  0.16996100  0.70727000  1
  Ag  Ag4  1  0.66003000  0.66996100  0.79273000  1
  Ag  Ag5  1  0.83997000  0.16996100  0.20727000  1
  Ag  Ag6  1  0.16003000  0.33003900  0.70727000  1
  Ag  Ag7  1  0.33997000  0.83003900  0.29273000  1
  H  H0  1  0.60916200  0.14801800  0.45345200  1
  H  H1  1  0.89083800  0.64801800  0.54654800  1
  H  H2  1  0.10916200  0.85198200  0.04654800  1
  H  H3  1  0.39083800  0.35198200  0.95345200  1
  H  H4  1  0.39083800  0.85198200  0.54654800  1
  H  H5  1  0.10916200  0.35198200  0.45345200  1
  H  H6  1  0.89083800  0.14801800  0.95345200  1
  H  H7  1  0.60916200  0.64801800  0.04654800  1
  H  H8  1  0.64683000  0.09866500  0.35471700  1
  H  H9  1  0.85317000  0.59866500  0.64528300  1
  H  H10  1  0.14683000  0.90133500  0.14528300  1
  H  H11  1  0.35317000  0.40133500  0.85471700  1
  H  H12  1  0.35317000  0.90133500  0.64528300  1
  H  H13  1  0.14683000  0.40133500  0.35471700  1
  H  H14  1  0.85317000  0.09866500  0.85471700  1
  H  H15  1  0.64683000  0.59866500  0.14528300  1
  H  H16  1  0.63322800  0.39398000  0.49505900  1
  H  H17  1  0.86677200  0.89398000  0.50494100  1
  H  H18  1  0.13322800  0.60602000  0.00494100  1
  H  H19  1  0.36677200  0.10602000  0.99505900  1
  H  H20  1  0.36677200  0.60602000  0.50494100  1
  H  H21  1  0.13322800  0.10602000  0.49505900  1
  H  H22  1  0.86677200  0.39398000  0.99505900  1
  H  H23  1  0.63322800  0.89398000  0.00494100  1
  H  H24  1  0.66013900  0.54926600  0.42719400  1
  H  H25  1  0.83986100  0.04926600  0.57280600  1
  H  H26  1  0.16013900  0.45073400  0.07280600  1
  H  H27  1  0.33986100  0.95073400  0.92719400  1
  H  H28  1  0.33986100  0.45073400  0.57280600  1
  H  H29  1  0.16013900  0.95073400  0.42719400  1
  H  H30  1  0.83986100  0.54926600  0.92719400  1
  H  H31  1  0.66013900  0.04926600  0.07280600  1
  C  C0  1  0.66833300  0.32981900  0.38070900  1
  C  C1  1  0.83166700  0.82981900  0.61929100  1
  C  C2  1  0.16833300  0.67018100  0.11929100  1
  C  C3  1  0.33166700  0.17018100  0.88070900  1
  C  C4  1  0.33166700  0.67018100  0.61929100  1
  C  C5  1  0.16833300  0.17018100  0.38070900  1
  C  C6  1  0.83166700  0.32981900  0.88070900  1
  C  C7  1  0.66833300  0.82981900  0.11929100  1
  S  S0  1  0.70415400  0.39078700  0.28425200  1
  S  S1  1  0.79584600  0.89078700  0.71574800  1
  S  S2  1  0.20415400  0.60921300  0.21574800  1
  S  S3  1  0.29584600  0.10921300  0.78425200  1
  S  S4  1  0.29584600  0.60921300  0.71574800  1
  S  S5  1  0.20415400  0.10921300  0.28425200  1
  S  S6  1  0.79584600  0.39078700  0.78425200  1
  S  S7  1  0.70415400  0.89078700  0.21574800  1
  N  N0  1  0.65273800  0.17935600  0.39834400  1
  N  N1  1  0.84726200  0.67935600  0.60165600  1
  N  N2  1  0.15273800  0.82064400  0.10165600  1
  N  N3  1  0.34726200  0.32064400  0.89834400  1
  N  N4  1  0.34726200  0.82064400  0.60165600  1
  N  N5  1  0.15273800  0.32064400  0.39834400  1
  N  N6  1  0.84726200  0.17935600  0.89834400  1
  N  N7  1  0.65273800  0.67935600  0.10165600  1
  N  N8  1  0.65399300  0.43274100  0.43873300  1
  N  N9  1  0.84600700  0.93274100  0.56126700  1
  N  N10  1  0.15399300  0.56725900  0.06126700  1
  N  N11  1  0.34600700  0.06725900  0.93873300  1
  N  N12  1  0.34600700  0.56725900  0.56126700  1
  N  N13  1  0.15399300  0.06725900  0.43873300  1
  N  N14  1  0.84600700  0.43274100  0.93873300  1
  N  N15  1  0.65399300  0.93274100  0.06126700  1
  Cl  Cl0  1  0.52683500  0.30127500  0.08162400  1
  Cl  Cl1  1  0.97316500  0.80127500  0.91837600  1
  Cl  Cl2  1  0.02683500  0.69872500  0.41837600  1
  Cl  Cl3  1  0.47316500  0.19872500  0.58162400  1
  Cl  Cl4  1  0.47316500  0.69872500  0.91837600  1
  Cl  Cl5  1  0.02683500  0.19872500  0.08162400  1
  Cl  Cl6  1  0.97316500  0.30127500  0.58162400  1
  Cl  Cl7  1  0.52683500  0.80127500  0.41837600  1
loop_
_geom_bond_atom_site_label_1
_geom_bond_atom_site_label_2
_geom_bond_distance
_geom_bond_site_symmetry_2
Ag0 S5 2.519714 1_555
Ag0 Cl0 2.560953 1_555
Ag0 S2 2.613082 1_555
Ag0 S0 3.073069 1_555
Ag1 S4 2.519714 1_555
Ag1 Cl1 2.560953 1_455
Ag1 S3 2.613082 1_565
Ag1 S1 3.073069 1_455
Ag2 S7 2.519714 1_555
Ag2 Cl2 2.560953 1_655
Ag2 S0 2.613082 1_555
Ag2 S2 3.073069 1_655
Ag3 S6 2.519714 1_555
Ag3 Cl3 2.560953 1_555
Ag3 S1 2.613082 1_545
Ag3 S3 3.073069 1_555
Ag4 S1 2.519714 1_555
Ag4 Cl4 2.560953 1_555
Ag4 S6 2.613082 1_555
Ag4 S4 3.073069 1_555
Ag5 S0 2.519714 1_555
Ag5 Cl5 2.560953 1_655
Ag5 S7 2.613082 1_545
Ag5 S5 3.073069 1_655
Ag6 S3 2.519714 1_555
Ag6 Cl6 2.560953 1_455
Ag6 S4 2.613082 1_555
Ag6 S6 3.073069 1_455
Ag7 S2 2.519714 1_555
Ag7 Cl7 2.560953 1_555
Ag7 S5 2.613082 1_565
Ag7 S7 3.073069 1_555
H0 N0 1.025268 1_555
H1 N1 1.025268 1_555
H2 N2 1.025268 1_555
H3 N3 1.025268 1_555
H4 N4 1.025268 1_555
H5 N5 1.025268 1_555
H6 N6 1.025268 1_555
H7 N7 1.025268 1_555
H8 N0 1.014942 1_555
H9 N1 1.014942 1_555
H10 N2 1.014942 1_555
H11 N3 1.014942 1_555
H12 N4 1.014942 1_555
H13 N5 1.014942 1_555
H14 N6 1.014942 1_555
H15 N7 1.014942 1_555
H16 N8 1.022730 1_555
H17 N9 1.022730 1_555
H18 N10 1.022730 1_555
H19 N11 1.022730 1_555
H20 N12 1.022730 1_555
H21 N13 1.022730 1_555
H22 N14 1.022730 1_555
H23 N15 1.022730 1_555
H24 N8 1.022416 1_555
H25 N9 1.022416 1_545
H26 N10 1.022416 1_555
H27 N11 1.022416 1_565
H28 N12 1.022416 1_555
H29 N13 1.022416 1_565
H30 N14 1.022416 1_555
H31 N15 1.022416 1_545
C0 N8 1.327344 1_555
C0 N0 1.333643 1_555
C0 S0 1.737088 1_555
C1 N9 1.327344 1_555
C1 N1 1.333643 1_555
C1 S1 1.737088 1_555
C2 N10 1.327344 1_555
C2 N2 1.333643 1_555
C2 S2 1.737088 1_555
C3 N11 1.327344 1_555
C3 N3 1.333643 1_555
C3 S3 1.737088 1_555
C4 N12 1.327344 1_555
C4 N4 1.333643 1_555
C4 S4 1.737088 1_555
C5 N13 1.327344 1_555
C5 N5 1.333643 1_555
C5 S5 1.737088 1_555
C6 N14 1.327344 1_555
C6 N6 1.333643 1_555
C6 S6 1.737088 1_555
C7 N15 1.327344 1_555
C7 N7 1.333643 1_555
C7 S7 1.737088 1_555
