# generated using pymatgen
data_RbInH3
_symmetry_space_group_name_H-M   'P 1'
_cell_length_a   6.25746226
_cell_length_b   6.25746226
_cell_length_c   6.25746226
_cell_angle_alpha   60.00000000
_cell_angle_beta   60.00000000
_cell_angle_gamma   60.00000000
_symmetry_Int_Tables_number   1
_chemical_formula_structural   RbInH3
_chemical_formula_sum   'Rb2 In2 H6'
_cell_volume   173.25258371
_cell_formula_units_Z   2
loop_
 _symmetry_equiv_pos_site_id
 _symmetry_equiv_pos_as_xyz
  1  'x, y, z'
loop_
 _atom_site_type_symbol
 _atom_site_label
 _atom_site_symmetry_multiplicity
 _atom_site_fract_x
 _atom_site_fract_y
 _atom_site_fract_z
 _atom_site_occupancy
  Rb  Rb0  1  0.25000000  0.25000000  0.25000000  1
  Rb  Rb1  1  0.75000000  0.75000000  0.75000000  1
  In  In0  1  0.00000000  0.00000000  0.00000000  1
  In  In1  1  0.50000000  0.50000000  0.50000000  1
  H  H0  1  0.22515800  0.77484200  0.77484200  1
  H  H1  1  0.22515800  0.77484200  0.22515800  1
  H  H2  1  0.77484200  0.22515800  0.77484200  1
  H  H3  1  0.77484200  0.77484200  0.22515800  1
  H  H4  1  0.22515800  0.22515800  0.77484200  1
  H  H5  1  0.77484200  0.22515800  0.22515800  1
loop_
_geom_bond_atom_site_label_1
_geom_bond_atom_site_label_2
_geom_bond_distance
_geom_bond_site_symmetry_2
H0 In0 1.992511 1_566
H0 In1 2.432183 1_555
H0 Rb1 3.136445 1_455
H0 Rb0 3.136445 1_556
H0 Rb0 3.136445 1_565
H0 Rb1 3.136445 1_555
H1 In0 1.992511 1_565
H1 In1 2.432183 1_555
H1 Rb0 3.136445 1_555
H1 Rb1 3.136445 1_455
H1 Rb1 3.136445 1_554
H1 Rb0 3.136445 1_565
H2 In0 1.992511 1_656
H2 In1 2.432183 1_555
H2 Rb1 3.136445 1_545
H2 Rb0 3.136445 1_655
H2 Rb0 3.136445 1_556
H2 Rb1 3.136445 1_555
H3 In0 1.992511 1_665
H3 In1 2.432183 1_555
H3 Rb1 3.136445 1_554
H3 Rb0 3.136445 1_655
H3 Rb0 3.136445 1_565
H3 Rb1 3.136445 1_555
H4 In0 1.992511 1_556
H4 In1 2.432183 1_555
H4 Rb0 3.136445 1_555
H4 Rb1 3.136445 1_455
H4 Rb1 3.136445 1_545
H4 Rb0 3.136445 1_556
H5 In0 1.992511 1_655
H5 In1 2.432183 1_555
H5 Rb0 3.136445 1_555
H5 Rb1 3.136445 1_554
H5 Rb1 3.136445 1_545
H5 Rb0 3.136445 1_655
