# generated using pymatgen
data_LaCe(B2Rh3)2
_symmetry_space_group_name_H-M   'P 1'
_cell_length_a   6.24367000
_cell_length_b   11.06207528
_cell_length_c   19.16265695
_cell_angle_alpha   89.99999619
_cell_angle_beta   90.00000000
_cell_angle_gamma   90.00000000
_symmetry_Int_Tables_number   1
_chemical_formula_structural   LaCe(B2Rh3)2
_chemical_formula_sum   'La8 Ce8 B32 Rh48'
_cell_volume   1323.52538525
_cell_formula_units_Z   8
loop_
 _symmetry_equiv_pos_site_id
 _symmetry_equiv_pos_as_xyz
  1  'x, y, z'
loop_
 _atom_site_type_symbol
 _atom_site_label
 _atom_site_symmetry_multiplicity
 _atom_site_fract_x
 _atom_site_fract_y
 _atom_site_fract_z
 _atom_site_occupancy
  La  La0_0  1  0.00000000  0.24999650  0.25000000  1
  La  La0_1  1  0.00000000  0.24999650  0.75000000  1
  La  La0_2  1  0.00000000  0.74999650  0.25000000  1
  La  La0_3  1  0.00000000  0.74999650  0.75000000  1
  La  La0_4  1  0.50000000  0.24999650  0.25000000  1
  La  La0_5  1  0.50000000  0.24999650  0.75000000  1
  La  La0_6  1  0.50000000  0.74999650  0.25000000  1
  La  La0_7  1  0.50000000  0.74999650  0.75000000  1
  Ce  Ce0_0  1  0.00000000  0.49999750  0.00000000  1
  Ce  Ce0_1  1  0.00000000  0.49999750  0.50000000  1
  Ce  Ce0_2  1  0.00000000  0.99999750  1.00000000  1
  Ce  Ce0_3  1  0.00000000  0.99999750  0.50000000  1
  Ce  Ce0_4  1  0.50000000  0.49999750  0.00000000  1
  Ce  Ce0_5  1  0.50000000  0.49999750  0.50000000  1
  Ce  Ce0_6  1  0.50000000  0.99999750  1.00000000  1
  Ce  Ce0_7  1  0.50000000  0.99999750  0.50000000  1
  B  B0_0  1  0.00000000  0.49997600  0.16629300  1
  B  B0_1  1  0.00000000  0.49997600  0.66629300  1
  B  B0_2  1  0.00000000  0.99997600  0.16629300  1
  B  B0_3  1  0.00000000  0.99997600  0.66629300  1
  B  B0_4  1  0.50000000  0.49997600  0.16629300  1
  B  B0_5  1  0.50000000  0.49997600  0.66629300  1
  B  B0_6  1  0.50000000  0.99997600  0.16629300  1
  B  B0_7  1  0.50000000  0.99997600  0.66629300  1
  B  B1_0  1  0.00000000  0.24998850  0.41717000  1
  B  B1_1  1  0.00000000  0.24998850  0.91717000  1
  B  B1_2  1  0.00000000  0.74998850  0.41717000  1
  B  B1_3  1  0.00000000  0.74998850  0.91717000  1
  B  B1_4  1  0.50000000  0.24998850  0.41717000  1
  B  B1_5  1  0.50000000  0.24998850  0.91717000  1
  B  B1_6  1  0.50000000  0.74998850  0.41717000  1
  B  B1_7  1  0.50000000  0.74998850  0.91717000  1
  B  B2_0  1  0.00000000  0.24998850  0.08283000  1
  B  B2_1  1  0.00000000  0.24998850  0.58283000  1
  B  B2_2  1  0.00000000  0.74998850  0.08283000  1
  B  B2_3  1  0.00000000  0.74998850  0.58283000  1
  B  B2_4  1  0.50000000  0.24998850  0.08283000  1
  B  B2_5  1  0.50000000  0.24998850  0.58283000  1
  B  B2_6  1  0.50000000  0.74998850  0.08283000  1
  B  B2_7  1  0.50000000  0.74998850  0.58283000  1
  B  B3_0  1  0.00000000  0.49997600  0.33370700  1
  B  B3_1  1  0.00000000  0.49997600  0.83370700  1
  B  B3_2  1  0.00000000  0.99997600  0.33370700  1
  B  B3_3  1  0.00000000  0.99997600  0.83370700  1
  B  B3_4  1  0.50000000  0.49997600  0.33370700  1
  B  B3_5  1  0.50000000  0.49997600  0.83370700  1
  B  B3_6  1  0.50000000  0.99997600  0.33370700  1
  B  B3_7  1  0.50000000  0.99997600  0.83370700  1
  Rh  Rh0_0  1  0.25000000  0.24999550  0.00000000  1
  Rh  Rh0_1  1  0.25000000  0.24999550  0.50000000  1
  Rh  Rh0_2  1  0.25000000  0.74999550  0.00000000  1
  Rh  Rh0_3  1  0.25000000  0.74999550  0.50000000  1
  Rh  Rh0_4  1  0.75000000  0.24999550  0.00000000  1
  Rh  Rh0_5  1  0.75000000  0.24999550  0.50000000  1
  Rh  Rh0_6  1  0.75000000  0.74999550  0.00000000  1
  Rh  Rh0_7  1  0.75000000  0.74999550  0.50000000  1
  Rh  Rh1_0  1  0.25000000  0.00000150  0.25000000  1
  Rh  Rh1_1  1  0.25000000  0.00000150  0.75000000  1
  Rh  Rh1_2  1  0.25000000  0.50000150  0.25000000  1
  Rh  Rh1_3  1  0.25000000  0.50000150  0.75000000  1
  Rh  Rh1_4  1  0.75000000  0.00000150  0.25000000  1
  Rh  Rh1_5  1  0.75000000  0.00000150  0.75000000  1
  Rh  Rh1_6  1  0.75000000  0.50000150  0.25000000  1
  Rh  Rh1_7  1  0.75000000  0.50000150  0.75000000  1
  Rh  Rh2_0  1  0.25000000  0.12403550  0.12370450  1
  Rh  Rh2_1  1  0.25000000  0.12403550  0.62370450  1
  Rh  Rh2_2  1  0.25000000  0.62403550  0.12370450  1
  Rh  Rh2_3  1  0.25000000  0.62403550  0.62370450  1
  Rh  Rh2_4  1  0.75000000  0.12403550  0.12370450  1
  Rh  Rh2_5  1  0.75000000  0.12403550  0.62370450  1
  Rh  Rh2_6  1  0.75000000  0.62403550  0.12370450  1
  Rh  Rh2_7  1  0.75000000  0.62403550  0.62370450  1
  Rh  Rh3_0  1  0.25000000  0.37595500  0.37629800  1
  Rh  Rh3_1  1  0.25000000  0.37595500  0.87629800  1
  Rh  Rh3_2  1  0.25000000  0.87595500  0.37629800  1
  Rh  Rh3_3  1  0.25000000  0.87595500  0.87629800  1
  Rh  Rh3_4  1  0.75000000  0.37595500  0.37629800  1
  Rh  Rh3_5  1  0.75000000  0.37595500  0.87629800  1
  Rh  Rh3_6  1  0.75000000  0.87595500  0.37629800  1
  Rh  Rh3_7  1  0.75000000  0.87595500  0.87629800  1
  Rh  Rh4_0  1  0.25000000  0.37595500  0.12370200  1
  Rh  Rh4_1  1  0.25000000  0.37595500  0.62370200  1
  Rh  Rh4_2  1  0.25000000  0.87595500  0.12370200  1
  Rh  Rh4_3  1  0.25000000  0.87595500  0.62370200  1
  Rh  Rh4_4  1  0.75000000  0.37595500  0.12370200  1
  Rh  Rh4_5  1  0.75000000  0.37595500  0.62370200  1
  Rh  Rh4_6  1  0.75000000  0.87595500  0.12370200  1
  Rh  Rh4_7  1  0.75000000  0.87595500  0.62370200  1
  Rh  Rh5_0  1  0.25000000  0.12403550  0.37629550  1
  Rh  Rh5_1  1  0.25000000  0.12403550  0.87629550  1
  Rh  Rh5_2  1  0.25000000  0.62403550  0.37629550  1
  Rh  Rh5_3  1  0.25000000  0.62403550  0.87629550  1
  Rh  Rh5_4  1  0.75000000  0.12403550  0.37629550  1
  Rh  Rh5_5  1  0.75000000  0.12403550  0.87629550  1
  Rh  Rh5_6  1  0.75000000  0.62403550  0.37629550  1
  Rh  Rh5_7  1  0.75000000  0.62403550  0.87629550  1
loop_
_geom_bond_atom_site_label_1
_geom_bond_atom_site_label_2
_geom_bond_distance
_geom_bond_site_symmetry_2
La0_0 La0_4 3.121835 1_555
La0_0 La0_4 3.121835 1_455
La0_0 Rh1_0 3.175571 1_555
La0_0 Rh1_4 3.175571 1_455
La0_0 Rh1_6 3.175667 1_455
La0_0 Rh1_2 3.175667 1_555
La0_0 Rh5_0 3.199244 1_555
La0_0 Rh5_4 3.199244 1_455
La0_0 Rh2_4 3.199244 1_455
La0_0 Rh2_0 3.199244 1_555
La0_0 Rh4_0 3.199268 1_555
La0_0 Rh4_4 3.199268 1_455
La0_0 Rh3_0 3.199268 1_555
La0_0 Rh3_4 3.199268 1_455
La0_1 La0_5 3.121835 1_455
La0_1 La0_5 3.121835 1_555
La0_1 Rh1_1 3.175571 1_555
La0_1 Rh1_5 3.175571 1_455
La0_1 Rh1_3 3.175667 1_555
La0_1 Rh1_7 3.175667 1_455
La0_1 Rh5_1 3.199244 1_555
La0_1 Rh5_5 3.199244 1_455
La0_1 Rh2_5 3.199244 1_455
La0_1 Rh2_1 3.199244 1_555
La0_1 Rh4_1 3.199268 1_555
La0_1 Rh4_5 3.199268 1_455
La0_1 Rh3_1 3.199268 1_555
La0_1 Rh3_5 3.199268 1_455
La0_2 La0_6 3.121835 1_455
La0_2 La0_6 3.121835 1_555
La0_2 Rh1_2 3.175571 1_555
La0_2 Rh1_6 3.175571 1_455
La0_2 Rh1_0 3.175667 1_565
La0_2 Rh1_4 3.175667 1_465
La0_2 Rh5_2 3.199244 1_555
La0_2 Rh5_6 3.199244 1_455
La0_2 Rh2_6 3.199244 1_455
La0_2 Rh2_2 3.199244 1_555
La0_2 Rh4_2 3.199268 1_555
La0_2 Rh4_6 3.199268 1_455
La0_2 Rh3_2 3.199268 1_555
La0_2 Rh3_6 3.199268 1_455
La0_3 La0_7 3.121835 1_555
La0_3 La0_7 3.121835 1_455
La0_3 Rh1_7 3.175571 1_455
La0_3 Rh1_3 3.175571 1_555
La0_3 Rh1_5 3.175667 1_465
La0_3 Rh1_1 3.175667 1_565
La0_3 Rh5_3 3.199244 1_555
La0_3 Rh5_7 3.199244 1_455
La0_3 Rh2_7 3.199244 1_455
La0_3 Rh2_3 3.199244 1_555
La0_3 Rh4_7 3.199268 1_455
La0_3 Rh4_3 3.199268 1_555
La0_3 Rh3_3 3.199268 1_555
La0_3 Rh3_7 3.199268 1_455
La0_4 Rh1_0 3.175571 1_555
La0_4 Rh1_4 3.175571 1_555
La0_4 Rh1_2 3.175667 1_555
La0_4 Rh1_6 3.175667 1_555
La0_4 Rh5_4 3.199244 1_555
La0_4 Rh5_0 3.199244 1_555
La0_4 Rh2_4 3.199244 1_555
La0_4 Rh2_0 3.199244 1_555
La0_4 Rh4_4 3.199268 1_555
La0_4 Rh4_0 3.199268 1_555
La0_4 Rh3_0 3.199268 1_555
La0_4 Rh3_4 3.199268 1_555
La0_5 Rh1_1 3.175571 1_555
La0_5 Rh1_5 3.175571 1_555
La0_5 Rh1_7 3.175667 1_555
La0_5 Rh1_3 3.175667 1_555
La0_5 Rh5_1 3.199244 1_555
La0_5 Rh5_5 3.199244 1_555
La0_5 Rh2_1 3.199244 1_555
La0_5 Rh2_5 3.199244 1_555
La0_5 Rh4_1 3.199268 1_555
La0_5 Rh4_5 3.199268 1_555
La0_5 Rh3_5 3.199268 1_555
La0_5 Rh3_1 3.199268 1_555
La0_6 Rh1_2 3.175571 1_555
La0_6 Rh1_6 3.175571 1_555
La0_6 Rh1_4 3.175667 1_565
La0_6 Rh1_0 3.175667 1_565
La0_6 Rh5_6 3.199244 1_555
La0_6 Rh5_2 3.199244 1_555
La0_6 Rh2_6 3.199244 1_555
La0_6 Rh2_2 3.199244 1_555
La0_6 Rh4_2 3.199268 1_555
La0_6 Rh4_6 3.199268 1_555
La0_6 Rh3_2 3.199268 1_555
La0_6 Rh3_6 3.199268 1_555
La0_7 Rh1_7 3.175571 1_555
La0_7 Rh1_3 3.175571 1_555
La0_7 Rh1_1 3.175667 1_565
La0_7 Rh1_5 3.175667 1_565
La0_7 Rh5_3 3.199244 1_555
La0_7 Rh5_7 3.199244 1_555
La0_7 Rh2_7 3.199244 1_555
La0_7 Rh2_3 3.199244 1_555
La0_7 Rh4_7 3.199268 1_555
La0_7 Rh4_3 3.199268 1_555
La0_7 Rh3_3 3.199268 1_555
La0_7 Rh3_7 3.199268 1_555
Ce0_0 Ce0_4 3.121835 1_555
Ce0_0 Ce0_4 3.121835 1_455
Ce0_0 Rh4_0 3.152520 1_555
Ce0_0 Rh4_4 3.152520 1_455
Ce0_0 Rh3_5 3.152520 1_454
Ce0_0 Rh3_1 3.152520 1_554
Ce0_0 Rh5_7 3.152534 1_454
Ce0_0 Rh5_3 3.152534 1_554
Ce0_0 Rh2_2 3.152535 1_555
Ce0_0 Rh2_6 3.152535 1_455
Ce0_0 Rh0_2 3.175600 1_555
Ce0_0 Rh0_6 3.175600 1_455
Ce0_0 Rh0_0 3.175639 1_555
Ce0_0 Rh0_4 3.175639 1_455
Ce0_1 Ce0_5 3.121835 1_555
Ce0_1 Ce0_5 3.121835 1_455
Ce0_1 Rh4_1 3.152520 1_555
Ce0_1 Rh4_5 3.152520 1_455
Ce0_1 Rh3_0 3.152520 1_555
Ce0_1 Rh3_4 3.152520 1_455
Ce0_1 Rh5_2 3.152534 1_555
Ce0_1 Rh5_6 3.152534 1_455
Ce0_1 Rh2_3 3.152535 1_555
Ce0_1 Rh2_7 3.152535 1_455
Ce0_1 Rh0_3 3.175600 1_555
Ce0_1 Rh0_7 3.175600 1_455
Ce0_1 Rh0_1 3.175639 1_555
Ce0_1 Rh0_5 3.175639 1_455
Ce0_2 Ce0_6 3.121835 1_455
Ce0_2 Ce0_6 3.121835 1_555
Ce0_2 Rh4_6 3.152520 1_456
Ce0_2 Rh4_2 3.152520 1_556
Ce0_2 Rh3_3 3.152520 1_555
Ce0_2 Rh3_7 3.152520 1_455
Ce0_2 Rh5_1 3.152534 1_565
Ce0_2 Rh5_5 3.152534 1_465
Ce0_2 Rh2_0 3.152535 1_566
Ce0_2 Rh2_4 3.152535 1_466
Ce0_2 Rh0_4 3.175600 1_466
Ce0_2 Rh0_0 3.175600 1_566
Ce0_2 Rh0_6 3.175639 1_456
Ce0_2 Rh0_2 3.175639 1_556
Ce0_3 Ce0_7 3.121835 1_555
Ce0_3 Ce0_7 3.121835 1_455
Ce0_3 Rh4_3 3.152520 1_555
Ce0_3 Rh4_7 3.152520 1_455
Ce0_3 Rh3_2 3.152520 1_555
Ce0_3 Rh3_6 3.152520 1_455
Ce0_3 Rh5_4 3.152534 1_465
Ce0_3 Rh5_0 3.152534 1_565
Ce0_3 Rh2_5 3.152535 1_465
Ce0_3 Rh2_1 3.152535 1_565
Ce0_3 Rh0_1 3.175600 1_565
Ce0_3 Rh0_5 3.175600 1_465
Ce0_3 Rh0_3 3.175639 1_555
Ce0_3 Rh0_7 3.175639 1_455
Ce0_4 Rh4_4 3.152520 1_555
Ce0_4 Rh4_0 3.152520 1_555
Ce0_4 Rh3_5 3.152520 1_554
Ce0_4 Rh3_1 3.152520 1_554
Ce0_4 Rh5_7 3.152534 1_554
Ce0_4 Rh5_3 3.152534 1_554
Ce0_4 Rh2_6 3.152535 1_555
Ce0_4 Rh2_2 3.152535 1_555
Ce0_4 Rh0_2 3.175600 1_555
Ce0_4 Rh0_6 3.175600 1_555
Ce0_4 Rh0_4 3.175639 1_555
Ce0_4 Rh0_0 3.175639 1_555
Ce0_5 Rh4_1 3.152520 1_555
Ce0_5 Rh4_5 3.152520 1_555
Ce0_5 Rh3_4 3.152520 1_555
Ce0_5 Rh3_0 3.152520 1_555
Ce0_5 Rh5_6 3.152534 1_555
Ce0_5 Rh5_2 3.152534 1_555
Ce0_5 Rh2_3 3.152535 1_555
Ce0_5 Rh2_7 3.152535 1_555
Ce0_5 Rh0_3 3.175600 1_555
Ce0_5 Rh0_7 3.175600 1_555
Ce0_5 Rh0_1 3.175639 1_555
Ce0_5 Rh0_5 3.175639 1_555
Ce0_6 Rh4_6 3.152520 1_556
Ce0_6 Rh4_2 3.152520 1_556
Ce0_6 Rh3_3 3.152520 1_555
Ce0_6 Rh3_7 3.152520 1_555
Ce0_6 Rh5_5 3.152534 1_565
Ce0_6 Rh5_1 3.152534 1_565
Ce0_6 Rh2_0 3.152535 1_566
Ce0_6 Rh2_4 3.152535 1_566
Ce0_6 Rh0_4 3.175600 1_566
Ce0_6 Rh0_0 3.175600 1_566
Ce0_6 Rh0_6 3.175639 1_556
Ce0_6 Rh0_2 3.175639 1_556
Ce0_7 Rh4_7 3.152520 1_555
Ce0_7 Rh4_3 3.152520 1_555
Ce0_7 Rh3_6 3.152520 1_555
Ce0_7 Rh3_2 3.152520 1_555
Ce0_7 Rh5_4 3.152534 1_565
Ce0_7 Rh5_0 3.152534 1_565
Ce0_7 Rh2_5 3.152535 1_565
Ce0_7 Rh2_1 3.152535 1_565
Ce0_7 Rh0_5 3.175600 1_565
Ce0_7 Rh0_1 3.175600 1_565
Ce0_7 Rh0_7 3.175639 1_555
Ce0_7 Rh0_3 3.175639 1_555
B0_0 Rh4_0 2.232659 1_555
B0_0 Rh4_4 2.232659 1_455
B0_0 Rh2_2 2.232903 1_555
B0_0 Rh2_6 2.232903 1_455
B0_0 Rh1_2 2.238177 1_555
B0_0 Rh1_6 2.238177 1_455
B0_0 Ce0_0 3.186616 1_555
B0_0 La0_0 3.196844 1_555
B0_0 La0_2 3.197236 1_555
B0_1 Rh4_1 2.232659 1_555
B0_1 Rh4_5 2.232659 1_455
B0_1 Rh2_7 2.232903 1_455
B0_1 Rh2_3 2.232903 1_555
B0_1 Rh1_7 2.238177 1_455
B0_1 Rh1_3 2.238177 1_555
B0_1 Ce0_1 3.186616 1_555
B0_1 La0_1 3.196844 1_555
B0_1 La0_3 3.197236 1_555
B0_2 Rh4_6 2.232659 1_455
B0_2 Rh4_2 2.232659 1_555
B0_2 Rh2_0 2.232903 1_565
B0_2 Rh2_4 2.232903 1_465
B0_2 Rh1_0 2.238177 1_565
B0_2 Rh1_4 2.238177 1_465
B0_2 Ce0_2 3.186616 1_554
B0_2 La0_2 3.196844 1_555
B0_2 La0_0 3.197236 1_565
B0_3 Rh4_7 2.232659 1_455
B0_3 Rh4_3 2.232659 1_555
B0_3 Rh2_5 2.232903 1_465
B0_3 Rh2_1 2.232903 1_565
B0_3 Rh1_5 2.238177 1_465
B0_3 Rh1_1 2.238177 1_565
B0_3 Ce0_3 3.186616 1_555
B0_3 La0_3 3.196844 1_555
B0_3 La0_1 3.197236 1_565
B0_4 Rh4_4 2.232659 1_555
B0_4 Rh4_0 2.232659 1_555
B0_4 Rh2_2 2.232903 1_555
B0_4 Rh2_6 2.232903 1_555
B0_4 Rh1_2 2.238177 1_555
B0_4 Rh1_6 2.238177 1_555
B0_4 Ce0_4 3.186616 1_555
B0_4 La0_4 3.196844 1_555
B0_4 La0_6 3.197236 1_555
B0_5 Rh4_1 2.232659 1_555
B0_5 Rh4_5 2.232659 1_555
B0_5 Rh2_7 2.232903 1_555
B0_5 Rh2_3 2.232903 1_555
B0_5 Rh1_7 2.238177 1_555
B0_5 Rh1_3 2.238177 1_555
B0_5 Ce0_5 3.186616 1_555
B0_5 La0_5 3.196844 1_555
B0_5 La0_7 3.197236 1_555
B0_6 Rh4_2 2.232659 1_555
B0_6 Rh4_6 2.232659 1_555
B0_6 Rh2_0 2.232903 1_565
B0_6 Rh2_4 2.232903 1_565
B0_6 Rh1_0 2.238177 1_565
B0_6 Rh1_4 2.238177 1_565
B0_6 Ce0_6 3.186616 1_554
B0_6 La0_6 3.196844 1_555
B0_6 La0_4 3.197236 1_565
B0_7 Rh4_7 2.232659 1_555
B0_7 Rh4_3 2.232659 1_555
B0_7 Rh2_1 2.232903 1_565
B0_7 Rh2_5 2.232903 1_565
B0_7 Rh1_5 2.238177 1_565
B0_7 Rh1_1 2.238177 1_565
B0_7 Ce0_7 3.186616 1_555
B0_7 La0_7 3.196844 1_555
B0_7 La0_5 3.197236 1_565
B1_0 Rh0_5 2.226163 1_455
B1_0 Rh0_1 2.226163 1_555
B1_0 Rh5_0 2.234112 1_555
B1_0 Rh5_4 2.234112 1_455
B1_0 Rh3_0 2.234188 1_555
B1_0 Rh3_4 2.234188 1_455
B1_0 Ce0_3 3.188555 1_545
B1_0 Ce0_1 3.188728 1_555
B1_0 La0_0 3.203421 1_555
B1_1 Rh0_0 2.226163 1_556
B1_1 Rh0_4 2.226163 1_456
B1_1 Rh5_1 2.234112 1_555
B1_1 Rh5_5 2.234112 1_455
B1_1 Rh3_1 2.234188 1_555
B1_1 Rh3_5 2.234188 1_455
B1_1 Ce0_2 3.188555 1_545
B1_1 Ce0_0 3.188728 1_556
B1_1 La0_1 3.203421 1_555
B1_2 Rh0_3 2.226163 1_555
B1_2 Rh0_7 2.226163 1_455
B1_2 Rh5_2 2.234112 1_555
B1_2 Rh5_6 2.234112 1_455
B1_2 Rh3_6 2.234188 1_455
B1_2 Rh3_2 2.234188 1_555
B1_2 Ce0_1 3.188555 1_555
B1_2 Ce0_3 3.188728 1_555
B1_2 La0_2 3.203421 1_555
B1_3 Rh0_2 2.226163 1_556
B1_3 Rh0_6 2.226163 1_456
B1_3 Rh5_3 2.234112 1_555
B1_3 Rh5_7 2.234112 1_455
B1_3 Rh3_3 2.234188 1_555
B1_3 Rh3_7 2.234188 1_455
B1_3 Ce0_0 3.188555 1_556
B1_3 Ce0_2 3.188728 1_555
B1_3 La0_3 3.203421 1_555
B1_4 Rh0_1 2.226163 1_555
B1_4 Rh0_5 2.226163 1_555
B1_4 Rh5_0 2.234112 1_555
B1_4 Rh5_4 2.234112 1_555
B1_4 Rh3_0 2.234188 1_555
B1_4 Rh3_4 2.234188 1_555
B1_4 Ce0_7 3.188555 1_545
B1_4 Ce0_5 3.188728 1_555
B1_4 La0_4 3.203421 1_555
B1_5 Rh0_0 2.226163 1_556
B1_5 Rh0_4 2.226163 1_556
B1_5 Rh5_5 2.234112 1_555
B1_5 Rh5_1 2.234112 1_555
B1_5 Rh3_1 2.234188 1_555
B1_5 Rh3_5 2.234188 1_555
B1_5 Ce0_6 3.188555 1_545
B1_5 Ce0_4 3.188728 1_556
B1_5 La0_5 3.203421 1_555
B1_6 Rh0_3 2.226163 1_555
B1_6 Rh0_7 2.226163 1_555
B1_6 Rh5_2 2.234112 1_555
B1_6 Rh5_6 2.234112 1_555
B1_6 Rh3_6 2.234188 1_555
B1_6 Rh3_2 2.234188 1_555
B1_6 Ce0_5 3.188555 1_555
B1_6 Ce0_7 3.188728 1_555
B1_6 La0_6 3.203421 1_555
B1_7 Rh0_2 2.226163 1_556
B1_7 Rh0_6 2.226163 1_556
B1_7 Rh5_3 2.234112 1_555
B1_7 Rh5_7 2.234112 1_555
B1_7 Rh3_3 2.234188 1_555
B1_7 Rh3_7 2.234188 1_555
B1_7 Ce0_4 3.188555 1_556
B1_7 Ce0_6 3.188728 1_555
B1_7 La0_7 3.203421 1_555
B2_0 Rh0_4 2.226163 1_455
B2_0 Rh0_0 2.226163 1_555
B2_0 Rh2_0 2.234112 1_555
B2_0 Rh2_4 2.234112 1_455
B2_0 Rh4_0 2.234188 1_555
B2_0 Rh4_4 2.234188 1_455
B2_0 Ce0_2 3.188555 1_544
B2_0 Ce0_0 3.188728 1_555
B2_0 La0_0 3.203421 1_555
B2_1 Rh0_5 2.226163 1_455
B2_1 Rh0_1 2.226163 1_555
B2_1 Rh2_5 2.234112 1_455
B2_1 Rh2_1 2.234112 1_555
B2_1 Rh4_1 2.234188 1_555
B2_1 Rh4_5 2.234188 1_455
B2_1 Ce0_3 3.188555 1_545
B2_1 Ce0_1 3.188728 1_555
B2_1 La0_1 3.203421 1_555
B2_2 Rh0_2 2.226163 1_555
B2_2 Rh0_6 2.226163 1_455
B2_2 Rh2_2 2.234112 1_555
B2_2 Rh2_6 2.234112 1_455
B2_2 Rh4_2 2.234188 1_555
B2_2 Rh4_6 2.234188 1_455
B2_2 Ce0_0 3.188555 1_555
B2_2 Ce0_2 3.188728 1_554
B2_2 La0_2 3.203421 1_555
B2_3 Rh0_3 2.226163 1_555
B2_3 Rh0_7 2.226163 1_455
B2_3 Rh2_7 2.234112 1_455
B2_3 Rh2_3 2.234112 1_555
B2_3 Rh4_3 2.234188 1_555
B2_3 Rh4_7 2.234188 1_455
B2_3 Ce0_1 3.188555 1_555
B2_3 Ce0_3 3.188728 1_555
B2_3 La0_3 3.203421 1_555
B2_4 Rh0_4 2.226163 1_555
B2_4 Rh0_0 2.226163 1_555
B2_4 Rh2_0 2.234112 1_555
B2_4 Rh2_4 2.234112 1_555
B2_4 Rh4_4 2.234188 1_555
B2_4 Rh4_0 2.234188 1_555
B2_4 Ce0_6 3.188555 1_544
B2_4 Ce0_4 3.188728 1_555
B2_4 La0_4 3.203421 1_555
B2_5 Rh0_1 2.226163 1_555
B2_5 Rh0_5 2.226163 1_555
B2_5 Rh2_5 2.234112 1_555
B2_5 Rh2_1 2.234112 1_555
B2_5 Rh4_5 2.234188 1_555
B2_5 Rh4_1 2.234188 1_555
B2_5 Ce0_7 3.188555 1_545
B2_5 Ce0_5 3.188728 1_555
B2_5 La0_5 3.203421 1_555
B2_6 Rh0_2 2.226163 1_555
B2_6 Rh0_6 2.226163 1_555
B2_6 Rh2_2 2.234112 1_555
B2_6 Rh2_6 2.234112 1_555
B2_6 Rh4_2 2.234188 1_555
B2_6 Rh4_6 2.234188 1_555
B2_6 Ce0_4 3.188555 1_555
B2_6 Ce0_6 3.188728 1_554
B2_6 La0_6 3.203421 1_555
B2_7 Rh0_7 2.226163 1_555
B2_7 Rh0_3 2.226163 1_555
B2_7 Rh2_3 2.234112 1_555
B2_7 Rh2_7 2.234112 1_555
B2_7 Rh4_7 2.234188 1_555
B2_7 Rh4_3 2.234188 1_555
B2_7 Ce0_5 3.188555 1_555
B2_7 Ce0_7 3.188728 1_555
B2_7 La0_7 3.203421 1_555
B3_0 Rh3_0 2.232659 1_555
B3_0 Rh3_4 2.232659 1_455
B3_0 Rh5_2 2.232903 1_555
B3_0 Rh5_6 2.232903 1_455
B3_0 Rh1_2 2.238177 1_555
B3_0 Rh1_6 2.238177 1_455
B3_0 Ce0_1 3.186616 1_555
B3_0 La0_0 3.196844 1_555
B3_0 La0_2 3.197236 1_555
B3_1 Rh3_1 2.232659 1_555
B3_1 Rh3_5 2.232659 1_455
B3_1 Rh5_7 2.232903 1_455
B3_1 Rh5_3 2.232903 1_555
B3_1 Rh1_7 2.238177 1_455
B3_1 Rh1_3 2.238177 1_555
B3_1 Ce0_0 3.186616 1_556
B3_1 La0_1 3.196844 1_555
B3_1 La0_3 3.197236 1_555
B3_2 Rh3_2 2.232659 1_555
B3_2 Rh3_6 2.232659 1_455
B3_2 Rh5_4 2.232903 1_465
B3_2 Rh5_0 2.232903 1_565
B3_2 Rh1_4 2.238177 1_465
B3_2 Rh1_0 2.238177 1_565
B3_2 Ce0_3 3.186616 1_555
B3_2 La0_2 3.196844 1_555
B3_2 La0_0 3.197236 1_565
B3_3 Rh3_3 2.232659 1_555
B3_3 Rh3_7 2.232659 1_455
B3_3 Rh5_5 2.232903 1_465
B3_3 Rh5_1 2.232903 1_565
B3_3 Rh1_1 2.238177 1_565
B3_3 Rh1_5 2.238177 1_465
B3_3 Ce0_2 3.186616 1_555
B3_3 La0_3 3.196844 1_555
B3_3 La0_1 3.197236 1_565
B3_4 Rh3_4 2.232659 1_555
B3_4 Rh3_0 2.232659 1_555
B3_4 Rh5_2 2.232903 1_555
B3_4 Rh5_6 2.232903 1_555
B3_4 Rh1_2 2.238177 1_555
B3_4 Rh1_6 2.238177 1_555
B3_4 Ce0_5 3.186616 1_555
B3_4 La0_4 3.196844 1_555
B3_4 La0_6 3.197236 1_555
B3_5 Rh3_1 2.232659 1_555
B3_5 Rh3_5 2.232659 1_555
B3_5 Rh5_7 2.232903 1_555
B3_5 Rh5_3 2.232903 1_555
B3_5 Rh1_3 2.238177 1_555
B3_5 Rh1_7 2.238177 1_555
B3_5 Ce0_4 3.186616 1_556
B3_5 La0_5 3.196844 1_555
B3_5 La0_7 3.197236 1_555
B3_6 Rh3_2 2.232659 1_555
B3_6 Rh3_6 2.232659 1_555
B3_6 Rh5_0 2.232903 1_565
B3_6 Rh5_4 2.232903 1_565
B3_6 Rh1_0 2.238177 1_565
B3_6 Rh1_4 2.238177 1_565
B3_6 Ce0_7 3.186616 1_555
B3_6 La0_6 3.196844 1_555
B3_6 La0_4 3.197236 1_565
B3_7 Rh3_3 2.232659 1_555
B3_7 Rh3_7 2.232659 1_555
B3_7 Rh5_5 2.232903 1_565
B3_7 Rh5_1 2.232903 1_565
B3_7 Rh1_1 2.238177 1_565
B3_7 Rh1_5 2.238177 1_565
B3_7 Ce0_6 3.186616 1_555
B3_7 La0_7 3.196844 1_555
B3_7 La0_5 3.197236 1_565
