# generated using pymatgen
data_Tm15C19
_symmetry_space_group_name_H-M   'P 1'
_cell_length_a   8.01453500
_cell_length_b   8.01453500
_cell_length_c   15.26521200
_cell_angle_alpha   90.00000000
_cell_angle_beta   90.00000000
_cell_angle_gamma   90.00000000
_symmetry_Int_Tables_number   1
_chemical_formula_structural   Tm15C19
_chemical_formula_sum   'Tm30 C38'
_cell_volume   980.52687073
_cell_formula_units_Z   2
loop_
 _symmetry_equiv_pos_site_id
 _symmetry_equiv_pos_as_xyz
  1  'x, y, z'
loop_
 _atom_site_type_symbol
 _atom_site_label
 _atom_site_symmetry_multiplicity
 _atom_site_fract_x
 _atom_site_fract_y
 _atom_site_fract_z
 _atom_site_occupancy
  Tm  Tm0  1  0.70249100  0.90696700  0.50000000  1
  Tm  Tm1  1  0.20249100  0.59303300  0.00000000  1
  Tm  Tm2  1  0.29750900  0.09303300  0.50000000  1
  Tm  Tm3  1  0.79750900  0.40696700  0.00000000  1
  Tm  Tm4  1  0.90696700  0.29750900  0.50000000  1
  Tm  Tm5  1  0.59303300  0.79750900  0.00000000  1
  Tm  Tm6  1  0.09303300  0.70249100  0.50000000  1
  Tm  Tm7  1  0.40696700  0.20249100  0.00000000  1
  Tm  Tm8  1  0.78421100  0.59850100  0.64951100  1
  Tm  Tm9  1  0.28421100  0.90149900  0.85048900  1
  Tm  Tm10  1  0.21578900  0.40149900  0.64951100  1
  Tm  Tm11  1  0.71578900  0.09850100  0.85048900  1
  Tm  Tm12  1  0.59850100  0.21578900  0.35048900  1
  Tm  Tm13  1  0.90149900  0.71578900  0.14951100  1
  Tm  Tm14  1  0.40149900  0.78421100  0.35048900  1
  Tm  Tm15  1  0.09850100  0.28421100  0.14951100  1
  Tm  Tm16  1  0.59850100  0.21578900  0.64951100  1
  Tm  Tm17  1  0.09850100  0.28421100  0.85048900  1
  Tm  Tm18  1  0.40149900  0.78421100  0.64951100  1
  Tm  Tm19  1  0.90149900  0.71578900  0.85048900  1
  Tm  Tm20  1  0.21578900  0.40149900  0.35048900  1
  Tm  Tm21  1  0.28421100  0.90149900  0.14951100  1
  Tm  Tm22  1  0.78421100  0.59850100  0.35048900  1
  Tm  Tm23  1  0.71578900  0.09850100  0.14951100  1
  Tm  Tm24  1  0.00000000  0.00000000  0.33124800  1
  Tm  Tm25  1  0.50000000  0.50000000  0.16875200  1
  Tm  Tm26  1  0.00000000  0.00000000  0.66875200  1
  Tm  Tm27  1  0.50000000  0.50000000  0.83124800  1
  Tm  Tm28  1  0.50000000  0.50000000  0.50000000  1
  Tm  Tm29  1  0.00000000  0.00000000  0.00000000  1
  C  C0  1  0.60168100  0.19727200  0.50000000  1
  C  C1  1  0.10168100  0.30272800  0.00000000  1
  C  C2  1  0.39831900  0.80272800  0.50000000  1
  C  C3  1  0.89831900  0.69727200  0.00000000  1
  C  C4  1  0.19727200  0.39831900  0.50000000  1
  C  C5  1  0.30272800  0.89831900  0.00000000  1
  C  C6  1  0.80272800  0.60168100  0.50000000  1
  C  C7  1  0.69727200  0.10168100  0.00000000  1
  C  C8  1  0.69791700  0.90558000  0.66845200  1
  C  C9  1  0.19791700  0.59442000  0.83154800  1
  C  C10  1  0.30208300  0.09442000  0.66845200  1
  C  C11  1  0.80208300  0.40558000  0.83154800  1
  C  C12  1  0.90558000  0.30208300  0.33154800  1
  C  C13  1  0.59442000  0.80208300  0.16845200  1
  C  C14  1  0.09442000  0.69791700  0.33154800  1
  C  C15  1  0.40558000  0.19791700  0.16845200  1
  C  C16  1  0.65106700  0.84893300  0.75000000  1
  C  C17  1  0.15106700  0.65106700  0.75000000  1
  C  C18  1  0.34893300  0.15106700  0.75000000  1
  C  C19  1  0.84893300  0.34893300  0.75000000  1
  C  C20  1  0.84893300  0.34893300  0.25000000  1
  C  C21  1  0.65106700  0.84893300  0.25000000  1
  C  C22  1  0.15106700  0.65106700  0.25000000  1
  C  C23  1  0.34893300  0.15106700  0.25000000  1
  C  C24  1  0.90558000  0.30208300  0.66845200  1
  C  C25  1  0.40558000  0.19791700  0.83154800  1
  C  C26  1  0.09442000  0.69791700  0.66845200  1
  C  C27  1  0.59442000  0.80208300  0.83154800  1
  C  C28  1  0.30208300  0.09442000  0.33154800  1
  C  C29  1  0.19791700  0.59442000  0.16845200  1
  C  C30  1  0.69791700  0.90558000  0.33154800  1
  C  C31  1  0.80208300  0.40558000  0.16845200  1
  C  C32  1  0.50000000  0.50000000  0.66313900  1
  C  C33  1  0.00000000  0.00000000  0.83686100  1
  C  C34  1  0.50000000  0.50000000  0.33686100  1
  C  C35  1  0.00000000  0.00000000  0.16313900  1
  C  C36  1  0.50000000  0.50000000  0.00000000  1
  C  C37  1  0.00000000  0.00000000  0.50000000  1
loop_
_geom_bond_atom_site_label_1
_geom_bond_atom_site_label_2
_geom_bond_distance
_geom_bond_site_symmetry_2
C0 Tm16 2.287279 1_555
C0 Tm12 2.287279 1_555
C0 Tm0 2.462950 1_545
C0 Tm28 2.559427 1_555
C0 Tm4 2.575236 1_555
C0 Tm2 2.576974 1_555
C1 Tm17 2.287279 1_554
C1 Tm15 2.287279 1_555
C1 Tm1 2.462950 1_555
C1 Tm29 2.559427 1_555
C1 Tm7 2.575236 1_555
C1 Tm3 2.576974 1_455
C2 Tm18 2.287279 1_555
C2 Tm14 2.287279 1_555
C2 Tm2 2.462950 1_565
C2 Tm28 2.559427 1_555
C2 Tm6 2.575236 1_555
C2 Tm0 2.576974 1_555
C3 Tm19 2.287279 1_554
C3 Tm13 2.287279 1_555
C3 Tm3 2.462950 1_555
C3 Tm29 2.559427 1_665
C3 Tm5 2.575236 1_555
C3 Tm1 2.576974 1_655
C4 Tm10 2.287279 1_555
C4 Tm20 2.287279 1_555
C4 Tm4 2.462950 1_455
C4 Tm28 2.559427 1_555
C4 Tm2 2.575236 1_555
C4 Tm6 2.576974 1_555
C5 Tm9 2.287279 1_554
C5 Tm21 2.287279 1_555
C5 Tm5 2.462950 1_555
C5 Tm29 2.559427 1_565
C5 Tm1 2.575236 1_555
C5 Tm7 2.576974 1_565
C6 Tm8 2.287279 1_555
C6 Tm22 2.287279 1_555
C6 Tm6 2.462950 1_655
C6 Tm28 2.559427 1_555
C6 Tm0 2.575236 1_555
C6 Tm4 2.576974 1_555
C7 Tm11 2.287279 1_554
C7 Tm23 2.287279 1_555
C7 Tm7 2.462950 1_555
C7 Tm29 2.559427 1_655
C7 Tm3 2.575236 1_555
C7 Tm5 2.576974 1_545
C8 Tm26 2.536567 1_665
C8 Tm0 2.571741 1_555
C8 Tm8 2.572724 1_555
C8 Tm18 2.583312 1_555
C8 Tm16 2.626698 1_565
C9 Tm27 2.536567 1_555
C9 Tm1 2.571741 1_556
C9 Tm9 2.572724 1_555
C9 Tm19 2.583312 1_455
C9 Tm17 2.626698 1_555
C10 C18 1.377224 1_555
C10 Tm26 2.536567 1_555
C10 Tm2 2.571741 1_555
C10 Tm10 2.572724 1_555
C10 Tm16 2.583312 1_555
C10 Tm18 2.626698 1_545
C11 C19 1.377224 1_555
C11 Tm27 2.536567 1_555
C11 Tm3 2.571741 1_556
C11 Tm11 2.572724 1_555
C11 Tm17 2.583312 1_655
C11 Tm19 2.626698 1_555
C12 C20 1.377224 1_555
C12 Tm24 2.536567 1_655
C12 Tm4 2.571741 1_555
C12 Tm12 2.572724 1_555
C12 Tm22 2.583312 1_555
C12 Tm20 2.626698 1_655
C13 C21 1.377224 1_555
C13 Tm25 2.536567 1_555
C13 Tm5 2.571741 1_555
C13 Tm13 2.572724 1_555
C13 Tm23 2.583312 1_565
C13 Tm21 2.626698 1_555
C14 C22 1.377224 1_555
C14 Tm24 2.536567 1_565
C14 Tm6 2.571741 1_555
C14 Tm14 2.572724 1_555
C14 Tm20 2.583312 1_555
C14 Tm22 2.626698 1_455
C15 C23 1.377224 1_555
C15 Tm25 2.536567 1_555
C15 Tm7 2.571741 1_555
C15 Tm15 2.572724 1_555
C15 Tm21 2.583312 1_545
C15 Tm23 2.626698 1_555
C16 C27 1.377224 1_555
C16 C8 1.377224 1_555
C16 Tm11 2.573493 1_565
C16 Tm18 2.573493 1_555
C16 Tm19 2.742302 1_555
C16 Tm8 2.742302 1_555
C17 C26 1.377224 1_555
C17 C9 1.377224 1_555
C17 Tm19 2.573493 1_455
C17 Tm10 2.573493 1_555
C17 Tm18 2.742302 1_555
C17 Tm9 2.742302 1_555
C18 C25 1.377224 1_555
C18 Tm9 2.573493 1_545
C18 Tm16 2.573493 1_555
C18 Tm10 2.742302 1_555
C18 Tm17 2.742302 1_555
C19 C24 1.377224 1_555
C19 Tm17 2.573493 1_655
C19 Tm8 2.573493 1_555
C19 Tm11 2.742302 1_555
C19 Tm16 2.742302 1_555
C20 C31 1.377224 1_555
C20 Tm22 2.573493 1_555
C20 Tm15 2.573493 1_655
C20 Tm23 2.742302 1_555
C20 Tm12 2.742302 1_555
C21 C30 1.377224 1_555
C21 Tm14 2.573493 1_555
C21 Tm23 2.573493 1_565
C21 Tm13 2.742302 1_555
C21 Tm22 2.742302 1_555
C22 C29 1.377224 1_555
C22 Tm13 2.573493 1_455
C22 Tm20 2.573493 1_555
C22 Tm14 2.742302 1_555
C22 Tm21 2.742302 1_555
C23 C28 1.377224 1_555
C23 Tm21 2.573493 1_545
C23 Tm12 2.573493 1_555
C23 Tm20 2.742302 1_555
C23 Tm15 2.742302 1_555
C24 Tm26 2.536567 1_655
C24 Tm4 2.571741 1_555
C24 Tm16 2.572724 1_555
C24 Tm8 2.583312 1_555
C24 Tm10 2.626698 1_655
C25 Tm27 2.536567 1_555
C25 Tm7 2.571741 1_556
C25 Tm17 2.572724 1_555
C25 Tm9 2.583312 1_545
C25 Tm11 2.626698 1_555
C26 Tm26 2.536567 1_565
C26 Tm6 2.571741 1_555
C26 Tm18 2.572724 1_555
C26 Tm10 2.583312 1_555
C26 Tm8 2.626698 1_455
C27 Tm27 2.536567 1_555
C27 Tm5 2.571741 1_556
C27 Tm19 2.572724 1_555
C27 Tm11 2.583312 1_565
C27 Tm9 2.626698 1_555
C28 Tm24 2.536567 1_555
C28 Tm2 2.571741 1_555
C28 Tm20 2.572724 1_555
C28 Tm12 2.583312 1_555
C28 Tm14 2.626698 1_545
C29 Tm25 2.536567 1_555
C29 Tm1 2.571741 1_555
C29 Tm21 2.572724 1_555
C29 Tm13 2.583312 1_455
C29 Tm15 2.626698 1_555
C30 Tm24 2.536567 1_665
C30 Tm0 2.571741 1_555
C30 Tm22 2.572724 1_555
C30 Tm14 2.583312 1_555
C30 Tm12 2.626698 1_565
C31 Tm25 2.536567 1_555
C31 Tm3 2.571741 1_555
C31 Tm23 2.572724 1_555
C31 Tm15 2.583312 1_655
C31 Tm13 2.626698 1_555
C32 Tm8 2.419701 1_555
C32 Tm16 2.419701 1_555
C32 Tm18 2.419701 1_555
C32 Tm10 2.419701 1_555
C32 Tm28 2.490351 1_555
C32 Tm27 2.566220 1_555
C33 Tm9 2.419701 1_545
C33 Tm11 2.419701 1_455
C33 Tm19 2.419701 1_445
C33 Tm17 2.419701 1_555
C33 Tm29 2.490351 1_556
C33 Tm26 2.566220 1_555
C34 Tm20 2.419701 1_555
C34 Tm12 2.419701 1_555
C34 Tm22 2.419701 1_555
C34 Tm14 2.419701 1_555
C34 Tm28 2.490351 1_555
C34 Tm25 2.566220 1_555
C35 Tm21 2.419701 1_545
C35 Tm23 2.419701 1_455
C35 Tm15 2.419701 1_555
C35 Tm13 2.419701 1_445
C35 Tm29 2.490351 1_555
C35 Tm24 2.566220 1_555
C36 Tm1 2.498257 1_555
C36 Tm5 2.498257 1_555
C36 Tm7 2.498257 1_555
C36 Tm3 2.498257 1_555
C36 Tm27 2.576035 1_554
C36 Tm25 2.576035 1_555
C37 Tm6 2.498257 1_545
C37 Tm0 2.498257 1_445
C37 Tm2 2.498257 1_555
C37 Tm4 2.498257 1_455
C37 Tm24 2.576035 1_555
C37 Tm26 2.576035 1_555
