# generated using pymatgen
data_Ca10Si3S3(O12F)2
_symmetry_space_group_name_H-M   'P 1'
_cell_length_a   9.54860208
_cell_length_b   9.54860208
_cell_length_c   6.98827200
_cell_angle_alpha   90.00000000
_cell_angle_beta   90.00000000
_cell_angle_gamma   120.00000058
_symmetry_Int_Tables_number   1
_chemical_formula_structural   Ca10Si3S3(O12F)2
_chemical_formula_sum   'Ca10 Si3 S3 O24 F2'
_cell_volume   551.79787107
_cell_formula_units_Z   1
loop_
 _symmetry_equiv_pos_site_id
 _symmetry_equiv_pos_as_xyz
  1  'x, y, z'
loop_
 _atom_site_type_symbol
 _atom_site_label
 _atom_site_symmetry_multiplicity
 _atom_site_fract_x
 _atom_site_fract_y
 _atom_site_fract_z
 _atom_site_occupancy
  Ca  Ca0  1  0.75023400  0.99174800  0.00000000  1
  Ca  Ca1  1  0.24151400  0.24976600  0.00000000  1
  Ca  Ca2  1  0.00825200  0.75848600  0.00000000  1
  Ca  Ca3  1  0.23664900  0.98755900  0.50000000  1
  Ca  Ca4  1  0.75091000  0.76335100  0.50000000  1
  Ca  Ca5  1  0.01244100  0.24909000  0.50000000  1
  Ca  Ca6  1  0.66666700  0.33333300  0.22334400  1
  Ca  Ca7  1  0.33333300  0.66666700  0.77405300  1
  Ca  Ca8  1  0.33333300  0.66666700  0.22594700  1
  Ca  Ca9  1  0.66666700  0.33333300  0.77665600  1
  Si  Si0  1  0.60951300  0.63566900  0.00000000  1
  Si  Si1  1  0.02615600  0.39048700  0.00000000  1
  Si  Si2  1  0.36433100  0.97384400  0.00000000  1
  S  S0  1  0.40570000  0.37342800  0.50000000  1
  S  S1  1  0.96772800  0.59430000  0.50000000  1
  S  S2  1  0.62657200  0.03227200  0.50000000  1
  O  O0  1  0.66456200  0.75258300  0.19189600  1
  O  O1  1  0.08802100  0.33543800  0.19189600  1
  O  O2  1  0.24741700  0.91197900  0.19189600  1
  O  O3  1  0.34824400  0.26629100  0.67060600  1
  O  O4  1  0.91804700  0.65175600  0.67060600  1
  O  O5  1  0.73370900  0.08195300  0.67060600  1
  O  O6  1  0.34824400  0.26629100  0.32939400  1
  O  O7  1  0.91804700  0.65175600  0.32939400  1
  O  O8  1  0.73370900  0.08195300  0.32939400  1
  O  O9  1  0.66456200  0.75258300  0.80810400  1
  O  O10  1  0.08802100  0.33543800  0.80810400  1
  O  O11  1  0.24741700  0.91197900  0.80810400  1
  O  O12  1  0.40994700  0.53081800  0.00000000  1
  O  O13  1  0.12087100  0.59005300  0.00000000  1
  O  O14  1  0.46918200  0.87912900  0.00000000  1
  O  O15  1  0.58706200  0.46338100  0.50000000  1
  O  O16  1  0.87631800  0.41293800  0.50000000  1
  O  O17  1  0.53661900  0.12368200  0.50000000  1
  O  O18  1  0.69516500  0.52312900  0.00000000  1
  O  O19  1  0.82796400  0.30483500  0.00000000  1
  O  O20  1  0.47687100  0.17203600  0.00000000  1
  O  O21  1  0.34491500  0.48986600  0.50000000  1
  O  O22  1  0.14495100  0.65508500  0.50000000  1
  O  O23  1  0.51013400  0.85504900  0.50000000  1
  F  F0  1  0.00000000  0.00000000  0.00000000  1
  F  F1  1  0.00000000  0.00000000  0.50000000  1
loop_
_geom_bond_atom_site_label_1
_geom_bond_atom_site_label_2
_geom_bond_distance
_geom_bond_site_symmetry_2
Ca0 O14 2.339339 1_555
Ca0 F0 2.346511 1_665
Ca0 O9 2.411352 1_554
Ca0 O0 2.411352 1_555
Ca0 O5 2.490265 1_564
Ca0 O8 2.490265 1_565
Ca0 O19 2.696177 1_565
Ca1 O12 2.339339 1_555
Ca1 F0 2.346511 1_555
Ca1 O10 2.411352 1_554
Ca1 O1 2.411352 1_555
Ca1 O3 2.490265 1_554
Ca1 O6 2.490265 1_555
Ca1 O20 2.696177 1_555
Ca2 O13 2.339339 1_555
Ca2 F0 2.346511 1_565
Ca2 O2 2.411352 1_555
Ca2 O11 2.411352 1_554
Ca2 O4 2.490265 1_454
Ca2 O7 2.490265 1_455
Ca2 O18 2.696177 1_455
Ca3 O2 2.289433 1_555
Ca3 O11 2.289433 1_555
Ca3 F1 2.321345 1_565
Ca3 O17 2.484080 1_565
Ca3 O6 2.608533 1_565
Ca3 O3 2.608533 1_565
Ca3 O22 2.839971 1_555
Ca4 O0 2.289433 1_555
Ca4 O9 2.289433 1_555
Ca4 F1 2.321345 1_665
Ca4 O15 2.484081 1_555
Ca4 O4 2.608533 1_555
Ca4 O7 2.608533 1_555
Ca4 O23 2.839971 1_555
Ca5 O1 2.289433 1_555
Ca5 O10 2.289433 1_555
Ca5 F1 2.321345 1_555
Ca5 O16 2.484089 1_455
Ca5 O8 2.608533 1_455
Ca5 O5 2.608533 1_455
Ca5 O21 2.839971 1_555
Ca6 O19 2.302457 1_555
Ca6 O20 2.302461 1_555
Ca6 O18 2.302464 1_555
Ca6 O16 2.607959 1_555
Ca6 O17 2.607961 1_555
Ca6 O15 2.607971 1_555
Ca6 O8 2.873534 1_555
Ca6 O7 2.873540 1_555
Ca6 O6 2.873543 1_555
Ca7 O13 2.379058 1_556
Ca7 O14 2.379059 1_556
Ca7 O12 2.379064 1_556
Ca7 O22 2.591670 1_555
Ca7 O23 2.591673 1_555
Ca7 O21 2.591676 1_555
Ca7 O11 2.852729 1_555
Ca7 O10 2.852735 1_555
Ca7 O9 2.852738 1_555
Ca8 O13 2.379058 1_555
Ca8 O14 2.379059 1_555
Ca8 O12 2.379064 1_555
Ca8 O22 2.591670 1_555
Ca8 O23 2.591673 1_555
Ca8 O21 2.591676 1_555
Ca8 O2 2.852729 1_555
Ca8 O1 2.852735 1_555
Ca8 O0 2.852738 1_555
Ca9 O19 2.302457 1_556
Ca9 O20 2.302461 1_556
Ca9 O18 2.302464 1_556
Ca9 O16 2.607959 1_555
Ca9 O17 2.607961 1_555
Ca9 O15 2.607971 1_555
Ca9 O5 2.873534 1_555
Ca9 O4 2.873540 1_555
Ca9 O3 2.873543 1_555
O0 Si0 1.653512 1_555
O1 Si1 1.653512 1_555
O2 Si2 1.653512 1_555
O3 S0 1.485842 1_555
O4 S1 1.485842 1_555
O5 S2 1.485842 1_555
O6 S0 1.485842 1_555
O7 S1 1.485842 1_555
O8 S2 1.485842 1_555
O9 Si0 1.653512 1_556
O10 Si1 1.653512 1_556
O11 Si2 1.653512 1_556
O12 Si0 1.650987 1_555
O13 Si1 1.650987 1_555
O14 Si2 1.650987 1_555
O15 S0 1.499759 1_555
O16 S1 1.499759 1_555
O17 S2 1.499767 1_555
O18 Si0 1.643935 1_555
O19 Si1 1.643935 1_655
O20 Si2 1.643935 1_545
O21 S0 1.489408 1_555
O22 S1 1.489408 1_455
O23 S2 1.489408 1_565
