# generated using pymatgen
data_CaYb3
_symmetry_space_group_name_H-M   'P 1'
_cell_length_a   12.48046871
_cell_length_b   12.48046871
_cell_length_c   7.13022304
_cell_angle_alpha   90.00000000
_cell_angle_beta   90.00000000
_cell_angle_gamma   109.74890971
_symmetry_Int_Tables_number   1
_chemical_formula_structural   CaYb3
_chemical_formula_sum   'Ca8 Yb24'
_cell_volume   1045.29464303
_cell_formula_units_Z   8
loop_
 _symmetry_equiv_pos_site_id
 _symmetry_equiv_pos_as_xyz
  1  'x, y, z'
loop_
 _atom_site_type_symbol
 _atom_site_label
 _atom_site_symmetry_multiplicity
 _atom_site_fract_x
 _atom_site_fract_y
 _atom_site_fract_z
 _atom_site_occupancy
  Ca  Ca0_0  1  0.25000000  0.25000000  0.12853025  1
  Ca  Ca0_1  1  0.25000000  0.25000000  0.62853025  1
  Ca  Ca0_2  1  0.25000000  0.75000000  0.12853025  1
  Ca  Ca0_3  1  0.25000000  0.75000000  0.62853025  1
  Ca  Ca0_4  1  0.75000000  0.25000000  0.12853025  1
  Ca  Ca0_5  1  0.75000000  0.25000000  0.62853025  1
  Ca  Ca0_6  1  0.75000000  0.75000000  0.12853025  1
  Ca  Ca0_7  1  0.75000000  0.75000000  0.62853025  1
  Yb  Yb0_0  1  0.25000000  0.00000000  0.37735525  1
  Yb  Yb0_1  1  0.25000000  0.00000000  0.87735525  1
  Yb  Yb0_2  1  0.25000000  0.50000000  0.37735525  1
  Yb  Yb0_3  1  0.25000000  0.50000000  0.87735525  1
  Yb  Yb0_4  1  0.75000000  0.00000000  0.37735525  1
  Yb  Yb0_5  1  0.75000000  0.00000000  0.87735525  1
  Yb  Yb0_6  1  0.75000000  0.50000000  0.37735525  1
  Yb  Yb0_7  1  0.75000000  0.50000000  0.87735525  1
  Yb  Yb1_0  1  0.00000000  0.25000000  0.37735525  1
  Yb  Yb1_1  1  0.00000000  0.25000000  0.87735525  1
  Yb  Yb1_2  1  0.00000000  0.75000000  0.37735525  1
  Yb  Yb1_3  1  0.00000000  0.75000000  0.87735525  1
  Yb  Yb1_4  1  0.50000000  0.25000000  0.37735525  1
  Yb  Yb1_5  1  0.50000000  0.25000000  0.87735525  1
  Yb  Yb1_6  1  0.50000000  0.75000000  0.37735525  1
  Yb  Yb1_7  1  0.50000000  0.75000000  0.87735525  1
  Yb  Yb2_0  1  0.00000000  0.00000000  0.12747325  1
  Yb  Yb2_1  1  0.00000000  0.00000000  0.62747325  1
  Yb  Yb2_2  1  0.00000000  0.50000000  0.12747325  1
  Yb  Yb2_3  1  0.00000000  0.50000000  0.62747325  1
  Yb  Yb2_4  1  0.50000000  0.00000000  0.12747325  1
  Yb  Yb2_5  1  0.50000000  0.00000000  0.62747325  1
  Yb  Yb2_6  1  0.50000000  0.50000000  0.12747325  1
  Yb  Yb2_7  1  0.50000000  0.50000000  0.62747325  1
loop_
_geom_bond_atom_site_label_1
_geom_bond_atom_site_label_2
_geom_bond_distance
_geom_bond_site_symmetry_2
Ca0_0 Ca0_1 3.565112 1_555
Ca0_0 Ca0_1 3.565112 1_554
Ca0_0 Yb1_0 3.589267 1_555
Ca0_0 Yb1_4 3.589267 1_555
Ca0_0 Yb0_2 3.589267 1_555
Ca0_0 Yb0_0 3.589267 1_555
Ca0_0 Yb2_6 3.590451 1_555
Ca0_0 Yb2_0 3.590451 1_555
Ca0_0 Yb0_1 3.597579 1_554
Ca0_0 Yb0_3 3.597579 1_554
Ca0_0 Yb1_5 3.597579 1_554
Ca0_0 Yb1_1 3.597579 1_554
Ca0_1 Yb0_3 3.589267 1_555
Ca0_1 Yb1_5 3.589267 1_555
Ca0_1 Yb0_1 3.589267 1_555
Ca0_1 Yb1_1 3.589267 1_555
Ca0_1 Yb2_7 3.590451 1_555
Ca0_1 Yb2_1 3.590451 1_555
Ca0_1 Yb0_0 3.597579 1_555
Ca0_1 Yb0_2 3.597579 1_555
Ca0_1 Yb1_4 3.597579 1_555
Ca0_1 Yb1_0 3.597579 1_555
Ca0_2 Ca0_3 3.565112 1_554
Ca0_2 Ca0_3 3.565112 1_555
Ca0_2 Yb0_2 3.589267 1_555
Ca0_2 Yb0_0 3.589267 1_565
Ca0_2 Yb1_2 3.589267 1_555
Ca0_2 Yb1_6 3.589267 1_555
Ca0_2 Yb2_2 3.590451 1_555
Ca0_2 Yb2_4 3.590451 1_565
Ca0_2 Yb0_3 3.597579 1_554
Ca0_2 Yb0_1 3.597579 1_564
Ca0_2 Yb1_3 3.597579 1_554
Ca0_2 Yb1_7 3.597579 1_554
Ca0_3 Yb0_3 3.589267 1_555
Ca0_3 Yb1_3 3.589267 1_555
Ca0_3 Yb0_1 3.589267 1_565
Ca0_3 Yb1_7 3.589267 1_555
Ca0_3 Yb2_5 3.590451 1_565
Ca0_3 Yb2_3 3.590451 1_555
Ca0_3 Yb0_0 3.597579 1_565
Ca0_3 Yb1_2 3.597579 1_555
Ca0_3 Yb0_2 3.597579 1_555
Ca0_3 Yb1_6 3.597579 1_555
Ca0_4 Ca0_5 3.565112 1_555
Ca0_4 Ca0_5 3.565112 1_554
Ca0_4 Yb0_4 3.589267 1_555
Ca0_4 Yb1_4 3.589267 1_555
Ca0_4 Yb1_0 3.589267 1_655
Ca0_4 Yb0_6 3.589267 1_555
Ca0_4 Yb2_2 3.590451 1_655
Ca0_4 Yb2_4 3.590451 1_555
Ca0_4 Yb0_5 3.597579 1_554
Ca0_4 Yb1_1 3.597579 1_654
Ca0_4 Yb1_5 3.597579 1_554
Ca0_4 Yb0_7 3.597579 1_554
Ca0_5 Yb1_1 3.589267 1_655
Ca0_5 Yb1_5 3.589267 1_555
Ca0_5 Yb0_5 3.589267 1_555
Ca0_5 Yb0_7 3.589267 1_555
Ca0_5 Yb2_3 3.590451 1_655
Ca0_5 Yb2_5 3.590451 1_555
Ca0_5 Yb0_4 3.597579 1_555
Ca0_5 Yb1_4 3.597579 1_555
Ca0_5 Yb1_0 3.597579 1_655
Ca0_5 Yb0_6 3.597579 1_555
Ca0_6 Ca0_7 3.565112 1_555
Ca0_6 Ca0_7 3.565112 1_554
Ca0_6 Yb1_6 3.589267 1_555
Ca0_6 Yb0_6 3.589267 1_555
Ca0_6 Yb0_4 3.589267 1_565
Ca0_6 Yb1_2 3.589267 1_655
Ca0_6 Yb2_0 3.590451 1_665
Ca0_6 Yb2_6 3.590451 1_555
Ca0_6 Yb1_7 3.597579 1_554
Ca0_6 Yb0_7 3.597579 1_554
Ca0_6 Yb1_3 3.597579 1_654
Ca0_6 Yb0_5 3.597579 1_564
Ca0_7 Yb1_7 3.589267 1_555
Ca0_7 Yb0_7 3.589267 1_555
Ca0_7 Yb0_5 3.589267 1_565
Ca0_7 Yb1_3 3.589267 1_655
Ca0_7 Yb2_7 3.590451 1_555
Ca0_7 Yb2_1 3.590451 1_665
Ca0_7 Yb0_6 3.597579 1_555
Ca0_7 Yb1_6 3.597579 1_555
Ca0_7 Yb1_2 3.597579 1_655
Ca0_7 Yb0_4 3.597579 1_565
Yb0_0 Yb0_1 3.565112 1_554
Yb0_0 Yb0_1 3.565112 1_555
Yb0_0 Yb1_4 3.590443 1_555
Yb0_0 Yb1_2 3.590443 1_545
Yb0_0 Yb2_4 3.592998 1_555
Yb0_0 Yb2_0 3.592998 1_555
Yb0_0 Yb2_1 3.593833 1_555
Yb0_0 Yb2_5 3.593833 1_555
Yb0_1 Yb1_3 3.590443 1_545
Yb0_1 Yb1_5 3.590443 1_555
Yb0_1 Yb2_1 3.592998 1_555
Yb0_1 Yb2_5 3.592998 1_555
Yb0_1 Yb2_4 3.593833 1_556
Yb0_1 Yb2_0 3.593833 1_556
Yb0_2 Yb0_3 3.565112 1_555
Yb0_2 Yb0_3 3.565112 1_554
Yb0_2 Yb1_0 3.590443 1_555
Yb0_2 Yb1_6 3.590443 1_555
Yb0_2 Yb2_2 3.592998 1_555
Yb0_2 Yb2_6 3.592998 1_555
Yb0_2 Yb2_3 3.593833 1_555
Yb0_2 Yb2_7 3.593833 1_555
Yb0_3 Yb1_1 3.590443 1_555
Yb0_3 Yb1_7 3.590443 1_555
Yb0_3 Yb2_3 3.592998 1_555
Yb0_3 Yb2_7 3.592998 1_555
Yb0_3 Yb2_2 3.593833 1_556
Yb0_3 Yb2_6 3.593833 1_556
Yb0_4 Yb0_5 3.565112 1_555
Yb0_4 Yb0_5 3.565112 1_554
Yb0_4 Yb1_6 3.590443 1_545
Yb0_4 Yb1_0 3.590443 1_655
Yb0_4 Yb2_4 3.592998 1_555
Yb0_4 Yb2_0 3.592998 1_655
Yb0_4 Yb2_5 3.593833 1_555
Yb0_4 Yb2_1 3.593833 1_655
Yb0_5 Yb1_7 3.590443 1_545
Yb0_5 Yb1_1 3.590443 1_655
Yb0_5 Yb2_1 3.592998 1_655
Yb0_5 Yb2_5 3.592998 1_555
Yb0_5 Yb2_0 3.593833 1_656
Yb0_5 Yb2_4 3.593833 1_556
Yb0_6 Yb0_7 3.565112 1_555
Yb0_6 Yb0_7 3.565112 1_554
Yb0_6 Yb1_2 3.590443 1_655
Yb0_6 Yb1_4 3.590443 1_555
Yb0_6 Yb2_2 3.592998 1_655
Yb0_6 Yb2_6 3.592998 1_555
Yb0_6 Yb2_3 3.593833 1_655
Yb0_6 Yb2_7 3.593833 1_555
Yb0_7 Yb1_3 3.590443 1_655
Yb0_7 Yb1_5 3.590443 1_555
Yb0_7 Yb2_3 3.592998 1_655
Yb0_7 Yb2_7 3.592998 1_555
Yb0_7 Yb2_2 3.593833 1_656
Yb0_7 Yb2_6 3.593833 1_556
Yb1_0 Yb1_1 3.565112 1_555
Yb1_0 Yb1_1 3.565112 1_554
Yb1_0 Yb2_2 3.592998 1_555
Yb1_0 Yb2_0 3.592998 1_555
Yb1_0 Yb2_3 3.593833 1_555
Yb1_0 Yb2_1 3.593833 1_555
Yb1_1 Yb2_1 3.592998 1_555
Yb1_1 Yb2_3 3.592998 1_555
Yb1_1 Yb2_2 3.593833 1_556
Yb1_1 Yb2_0 3.593833 1_556
Yb1_2 Yb1_3 3.565112 1_554
Yb1_2 Yb1_3 3.565112 1_555
Yb1_2 Yb2_0 3.592998 1_565
Yb1_2 Yb2_2 3.592998 1_555
Yb1_2 Yb2_3 3.593833 1_555
Yb1_2 Yb2_1 3.593833 1_565
Yb1_3 Yb2_1 3.592998 1_565
Yb1_3 Yb2_3 3.592998 1_555
Yb1_3 Yb2_0 3.593833 1_566
Yb1_3 Yb2_2 3.593833 1_556
Yb1_4 Yb1_5 3.565112 1_555
Yb1_4 Yb1_5 3.565112 1_554
Yb1_4 Yb2_4 3.592998 1_555
Yb1_4 Yb2_6 3.592998 1_555
Yb1_4 Yb2_7 3.593833 1_555
Yb1_4 Yb2_5 3.593833 1_555
Yb1_5 Yb2_5 3.592998 1_555
Yb1_5 Yb2_7 3.592998 1_555
Yb1_5 Yb2_4 3.593833 1_556
Yb1_5 Yb2_6 3.593833 1_556
Yb1_6 Yb1_7 3.565112 1_555
Yb1_6 Yb1_7 3.565112 1_554
Yb1_6 Yb2_4 3.592998 1_565
Yb1_6 Yb2_6 3.592998 1_555
Yb1_6 Yb2_5 3.593833 1_565
Yb1_6 Yb2_7 3.593833 1_555
Yb1_7 Yb2_5 3.592998 1_565
Yb1_7 Yb2_7 3.592998 1_555
Yb1_7 Yb2_4 3.593833 1_566
Yb1_7 Yb2_6 3.593833 1_556
Yb2_0 Yb2_1 3.565112 1_554
Yb2_0 Yb2_1 3.565112 1_555
Yb2_2 Yb2_3 3.565112 1_554
Yb2_2 Yb2_3 3.565112 1_555
Yb2_4 Yb2_5 3.565112 1_554
Yb2_4 Yb2_5 3.565112 1_555
Yb2_6 Yb2_7 3.565112 1_554
Yb2_6 Yb2_7 3.565112 1_555
