# generated using pymatgen
data_K4Zn(P3O11)2
_symmetry_space_group_name_H-M   'P 1'
_cell_length_a   8.42498486
_cell_length_b   8.42498486
_cell_length_c   9.73868649
_cell_angle_alpha   64.51228842
_cell_angle_beta   64.51228842
_cell_angle_gamma   78.41391361
_symmetry_Int_Tables_number   1
_chemical_formula_structural   K4Zn(P3O11)2
_chemical_formula_sum   'K4 Zn1 P6 O22'
_cell_volume   563.14947028
_cell_formula_units_Z   1
loop_
 _symmetry_equiv_pos_site_id
 _symmetry_equiv_pos_as_xyz
  1  'x, y, z'
loop_
 _atom_site_type_symbol
 _atom_site_label
 _atom_site_symmetry_multiplicity
 _atom_site_fract_x
 _atom_site_fract_y
 _atom_site_fract_z
 _atom_site_occupancy
  K  K0  1  0.15841600  0.15841600  0.57271800  1
  K  K1  1  0.84158400  0.84158400  0.42728200  1
  K  K2  1  0.78099900  0.21900100  0.00000000  1
  K  K3  1  0.21900100  0.78099900  0.00000000  1
  Zn  Zn0  1  0.50000000  0.50000000  0.50000000  1
  P  P0  1  0.25953200  0.25953200  0.90397600  1
  P  P1  1  0.74046800  0.74046800  0.09602400  1
  P  P2  1  0.98884300  0.70599100  0.78161100  1
  P  P3  1  0.70599100  0.98884300  0.78161100  1
  P  P4  1  0.01115700  0.29400900  0.21838900  1
  P  P5  1  0.29400900  0.01115700  0.21838900  1
  O  O0  1  0.15690200  0.15690200  0.87827800  1
  O  O1  1  0.84309800  0.84309800  0.12172200  1
  O  O2  1  0.39280600  0.39280600  0.76329400  1
  O  O3  1  0.60719400  0.60719400  0.23670600  1
  O  O4  1  0.15241500  0.79203400  0.73942400  1
  O  O5  1  0.79203400  0.15241500  0.73942400  1
  O  O6  1  0.84758500  0.20796600  0.26057600  1
  O  O7  1  0.20796600  0.84758500  0.26057600  1
  O  O8  1  0.99379100  0.55915200  0.73192500  1
  O  O9  1  0.55915200  0.99379100  0.73192500  1
  O  O10  1  0.00620900  0.44084800  0.26807500  1
  O  O11  1  0.44084800  0.00620900  0.26807500  1
  O  O12  1  0.12715400  0.36157300  0.02131500  1
  O  O13  1  0.36157300  0.12715400  0.02131500  1
  O  O14  1  0.87284600  0.63842700  0.97868500  1
  O  O15  1  0.63842700  0.87284600  0.97868500  1
  O  O16  1  0.86075500  0.86075500  0.70586800  1
  O  O17  1  0.13924500  0.13924500  0.29413200  1
  O  O18  1  0.72947200  0.51455700  0.50349200  1
  O  O19  1  0.51455700  0.72947200  0.50349200  1
  O  O20  1  0.27052800  0.48544300  0.49650800  1
  O  O21  1  0.48544300  0.27052800  0.49650800  1
loop_
_geom_bond_atom_site_label_1
_geom_bond_atom_site_label_2
_geom_bond_distance
_geom_bond_site_symmetry_2
K0 O20 2.777811 1_555
K0 O21 2.777811 1_555
K0 O5 2.800983 1_455
K0 O4 2.800983 1_545
K0 O17 2.859654 1_555
K0 O0 2.964821 1_555
K1 O18 2.777811 1_555
K1 O19 2.777811 1_555
K1 O6 2.800983 1_565
K1 O7 2.800983 1_655
K1 O16 2.859654 1_555
K1 O1 2.964821 1_555
K2 O6 2.786451 1_555
K2 O5 2.786451 1_554
K2 O1 2.888927 1_545
K2 O0 2.888927 1_654
K2 O11 3.136720 1_555
K2 O8 3.136720 1_554
K3 O7 2.786451 1_555
K3 O4 2.786451 1_554
K3 O1 2.888927 1_455
K3 O0 2.888927 1_564
K3 O9 3.136720 1_554
K3 O10 3.136720 1_555
O0 P0 1.493543 1_555
O1 P1 1.493543 1_555
O2 P0 1.502356 1_555
O2 Zn0 2.132531 1_555
O3 P1 1.502356 1_555
O3 Zn0 2.132531 1_555
O4 P2 1.500368 1_455
O5 P3 1.500368 1_545
O6 P4 1.500368 1_655
O7 P5 1.500368 1_565
O8 P2 1.497812 1_555
O9 P3 1.497812 1_555
O10 P4 1.497812 1_555
O11 P5 1.497812 1_555
O12 P4 1.622210 1_555
O12 P0 1.628576 1_554
O13 P5 1.622210 1_555
O13 P0 1.628576 1_554
O14 P2 1.622210 1_555
O14 P1 1.628576 1_556
O15 P3 1.622210 1_555
O15 P1 1.628576 1_556
O16 P2 1.643440 1_555
O16 P3 1.643440 1_555
O17 P5 1.643440 1_555
O17 P4 1.643440 1_555
O18 Zn0 1.977183 1_555
O19 Zn0 1.977183 1_555
O20 Zn0 1.977183 1_555
O21 Zn0 1.977183 1_555
