# generated using pymatgen
data_BaSr(FeO3)4
_symmetry_space_group_name_H-M   'P 1'
_cell_length_a   5.49851880
_cell_length_b   5.49851880
_cell_length_c   7.78599731
_cell_angle_alpha   90.00000000
_cell_angle_beta   90.00000000
_cell_angle_gamma   90.00000000
_symmetry_Int_Tables_number   1
_chemical_formula_structural   BaSr(FeO3)4
_chemical_formula_sum   'Ba1 Sr1 Fe4 O12'
_cell_volume   235.39957690
_cell_formula_units_Z   1
loop_
 _symmetry_equiv_pos_site_id
 _symmetry_equiv_pos_as_xyz
  1  'x, y, z'
loop_
 _atom_site_type_symbol
 _atom_site_label
 _atom_site_symmetry_multiplicity
 _atom_site_fract_x
 _atom_site_fract_y
 _atom_site_fract_z
 _atom_site_occupancy
  Ba  Ba0  1  0.50000000  0.50000000  -0.00000000  1
  Sr  Sr0  1  0.00000000  -0.00000000  0.50000000  1
  Fe  Fe0  1  0.00000000  0.50000000  0.74828681  1
  Fe  Fe1  1  -0.00000000  0.50000000  0.25171319  1
  Fe  Fe2  1  0.50000000  0.00000000  0.25171319  1
  Fe  Fe3  1  0.50000000  -0.00000000  0.74828681  1
  O  O0  1  0.24531383  0.24531383  0.25569368  1
  O  O1  1  0.24531383  0.24531383  0.74430632  1
  O  O2  1  0.75468617  0.75468617  0.74430632  1
  O  O3  1  0.75468617  0.75468617  0.25569368  1
  O  O4  1  0.75468617  0.24531383  0.74430632  1
  O  O5  1  0.75468617  0.24531383  0.25569368  1
  O  O6  1  0.24531383  0.75468617  0.74430632  1
  O  O7  1  0.24531383  0.75468617  0.25569368  1
  O  O8  1  -0.00000000  0.50000000  0.50000000  1
  O  O9  1  -0.00000000  0.50000000  -0.00000000  1
  O  O10  1  0.50000000  -0.00000000  0.50000000  1
  O  O11  1  0.50000000  -0.00000000  -0.00000000  1
loop_
_geom_bond_atom_site_label_1
_geom_bond_atom_site_label_2
_geom_bond_distance
_geom_bond_site_symmetry_2
Ba0 O9 2.749259 1_555
Ba0 O9 2.749259 1_655
Ba0 O11 2.749259 1_555
Ba0 O11 2.749259 1_565
Ba0 O3 2.808136 1_555
Ba0 O0 2.808136 1_555
Ba0 O7 2.808136 1_555
Ba0 O5 2.808136 1_555
Ba0 O4 2.808136 1_554
Ba0 O1 2.808136 1_554
Ba0 O2 2.808136 1_554
Ba0 O6 2.808136 1_554
Fe0 O8 1.933160 1_555
Fe0 O4 1.944608 1_455
Fe0 O6 1.944608 1_555
Fe0 O1 1.944608 1_555
Fe0 O2 1.944608 1_455
Fe0 O9 1.959838 1_556
Fe1 O8 1.933160 1_555
Fe1 O5 1.944608 1_455
Fe1 O3 1.944608 1_455
Fe1 O7 1.944608 1_555
Fe1 O0 1.944608 1_555
Fe1 O9 1.959838 1_555
Fe2 O10 1.933160 1_555
Fe2 O7 1.944608 1_545
Fe2 O3 1.944608 1_545
Fe2 O0 1.944608 1_555
Fe2 O5 1.944608 1_555
Fe2 O11 1.959838 1_555
Fe3 O10 1.933160 1_555
Fe3 O6 1.944608 1_545
Fe3 O2 1.944608 1_545
Fe3 O1 1.944608 1_555
Fe3 O4 1.944608 1_555
Fe3 O11 1.959838 1_556
O0 Sr0 2.693902 1_555
O1 Sr0 2.693902 1_555
O2 Sr0 2.693902 1_665
O3 Sr0 2.693902 1_665
O4 Sr0 2.693902 1_655
O5 Sr0 2.693902 1_655
O6 Sr0 2.693902 1_565
O7 Sr0 2.693902 1_565
O8 Sr0 2.749259 1_565
O8 Sr0 2.749259 1_555
O10 Sr0 2.749259 1_655
O10 Sr0 2.749259 1_555
