# generated using pymatgen
data_BaEr4Si5O17
_symmetry_space_group_name_H-M   'P 1'
_cell_length_a   19.89926600
_cell_length_b   5.55370300
_cell_length_c   6.90553306
_cell_angle_alpha   73.38379571
_cell_angle_beta   90.00000000
_cell_angle_gamma   90.00000000
_symmetry_Int_Tables_number   1
_chemical_formula_structural   BaEr4Si5O17
_chemical_formula_sum   'Ba2 Er8 Si10 O34'
_cell_volume   731.29398357
_cell_formula_units_Z   2
loop_
 _symmetry_equiv_pos_site_id
 _symmetry_equiv_pos_as_xyz
  1  'x, y, z'
loop_
 _atom_site_type_symbol
 _atom_site_label
 _atom_site_symmetry_multiplicity
 _atom_site_fract_x
 _atom_site_fract_y
 _atom_site_fract_z
 _atom_site_occupancy
  Ba  Ba0  1  0.25000000  0.75803900  0.81355600  1
  Ba  Ba1  1  0.75000000  0.24196100  0.18644400  1
  Er  Er0  1  0.03862100  0.69826200  0.11739700  1
  Er  Er1  1  0.53862100  0.30173800  0.88260300  1
  Er  Er2  1  0.96137900  0.30173800  0.88260300  1
  Er  Er3  1  0.46137900  0.69826200  0.11739700  1
  Er  Er4  1  0.15846300  0.35278200  0.48071800  1
  Er  Er5  1  0.65846300  0.64721800  0.51928200  1
  Er  Er6  1  0.84153700  0.64721800  0.51928200  1
  Er  Er7  1  0.34153700  0.35278200  0.48071800  1
  Si  Si0  1  0.25000000  0.93603300  0.28118300  1
  Si  Si1  1  0.75000000  0.06396700  0.71881700  1
  Si  Si2  1  0.13552300  0.22962600  0.00608800  1
  Si  Si3  1  0.63552300  0.77037400  0.99391200  1
  Si  Si4  1  0.86447700  0.77037400  0.99391200  1
  Si  Si5  1  0.36447700  0.22962600  0.00608800  1
  Si  Si6  1  0.06102500  0.80337000  0.59522100  1
  Si  Si7  1  0.56102500  0.19663000  0.40477900  1
  Si  Si8  1  0.93897500  0.19663000  0.40477900  1
  Si  Si9  1  0.43897500  0.80337000  0.59522100  1
  O  O0  1  0.25000000  0.13660300  0.41506200  1
  O  O1  1  0.75000000  0.86339700  0.58493800  1
  O  O2  1  0.25000000  0.64158900  0.41849500  1
  O  O3  1  0.75000000  0.35841100  0.58150500  1
  O  O4  1  0.18367800  0.98179900  0.12925300  1
  O  O5  1  0.68367800  0.01820100  0.87074700  1
  O  O6  1  0.81632200  0.01820100  0.87074700  1
  O  O7  1  0.31632200  0.98179900  0.12925300  1
  O  O8  1  0.17358200  0.36241600  0.79406100  1
  O  O9  1  0.67358200  0.63758400  0.20593900  1
  O  O10  1  0.82641800  0.63758400  0.20593900  1
  O  O11  1  0.32641800  0.36241600  0.79406100  1
  O  O12  1  0.06277100  0.10214500  0.98126000  1
  O  O13  1  0.56277100  0.89785500  0.01874000  1
  O  O14  1  0.93722900  0.89785500  0.01874000  1
  O  O15  1  0.43722900  0.10214500  0.98126000  1
  O  O16  1  0.12951900  0.42275800  0.14816200  1
  O  O17  1  0.62951900  0.57724200  0.85183800  1
  O  O18  1  0.87048100  0.57724200  0.85183800  1
  O  O19  1  0.37048100  0.42275800  0.14816200  1
  O  O20  1  0.12856800  0.95990700  0.61400900  1
  O  O21  1  0.62856800  0.04009300  0.38599100  1
  O  O22  1  0.87143200  0.04009300  0.38599100  1
  O  O23  1  0.37143200  0.95990700  0.61400900  1
  O  O24  1  0.03374800  0.62521300  0.81432100  1
  O  O25  1  0.53374800  0.37478700  0.18567900  1
  O  O26  1  0.96625200  0.37478700  0.18567900  1
  O  O27  1  0.46625200  0.62521300  0.81432100  1
  O  O28  1  0.00000000  0.00000000  0.50000000  1
  O  O29  1  0.50000000  0.00000000  0.50000000  1
  O  O30  1  0.07364400  0.62972900  0.43907300  1
  O  O31  1  0.57364400  0.37027100  0.56092700  1
  O  O32  1  0.92635600  0.37027100  0.56092700  1
  O  O33  1  0.42635600  0.62972900  0.43907300  1
loop_
_geom_bond_atom_site_label_1
_geom_bond_atom_site_label_2
_geom_bond_distance
_geom_bond_site_symmetry_2
Ba0 O11 2.706894 1_555
Ba0 O8 2.706894 1_555
Ba0 O23 2.848018 1_555
Ba0 O20 2.848018 1_555
Ba0 O0 2.946839 1_565
Ba0 O2 2.978236 1_555
Ba0 O7 3.096468 1_556
Ba0 O4 3.096468 1_556
Ba1 O9 2.706894 1_555
Ba1 O10 2.706894 1_555
Ba1 O21 2.848018 1_555
Ba1 O22 2.848018 1_555
Ba1 O1 2.946839 1_545
Ba1 O3 2.978236 1_555
Ba1 O6 3.096468 1_554
Ba1 O5 3.096468 1_554
Er0 O12 2.222609 1_564
Er0 O26 2.244791 1_455
Er0 O24 2.244956 1_554
Er0 O30 2.254198 1_555
Er0 O14 2.309065 1_455
Er0 O16 2.339253 1_555
Er1 O13 2.222609 1_546
Er1 O27 2.244791 1_555
Er1 O25 2.244956 1_556
Er1 O31 2.254198 1_555
Er1 O15 2.309065 1_555
Er1 O17 2.339253 1_555
Er2 O14 2.222609 1_546
Er2 O24 2.244791 1_655
Er2 O26 2.244956 1_556
Er2 O32 2.254198 1_555
Er2 O12 2.309065 1_655
Er2 O18 2.339253 1_555
Er3 O15 2.222609 1_564
Er3 O25 2.244791 1_555
Er3 O27 2.244956 1_554
Er3 O33 2.254198 1_555
Er3 O13 2.309065 1_555
Er3 O19 2.339253 1_555
Er4 O20 2.193911 1_545
Er4 O8 2.200369 1_555
Er4 O30 2.245933 1_555
Er4 O16 2.290447 1_555
Er4 O0 2.297006 1_555
Er4 O2 2.383495 1_555
Er5 O21 2.193911 1_565
Er5 O9 2.200369 1_555
Er5 O31 2.245933 1_555
Er5 O17 2.290447 1_555
Er5 O1 2.297006 1_555
Er5 O3 2.383495 1_555
Er6 O22 2.193911 1_565
Er6 O10 2.200369 1_555
Er6 O32 2.245933 1_555
Er6 O18 2.290447 1_555
Er6 O1 2.297006 1_555
Er6 O3 2.383495 1_555
Er7 O23 2.193911 1_545
Er7 O11 2.200369 1_555
Er7 O33 2.245933 1_555
Er7 O19 2.290447 1_555
Er7 O0 2.297006 1_555
Er7 O2 2.383495 1_555
O0 Si0 1.638434 1_545
O1 Si1 1.638434 1_565
O2 Si0 1.639013 1_555
O3 Si1 1.639013 1_555
O4 Si0 1.659695 1_555
O4 Si2 1.693070 1_565
O5 Si1 1.659695 1_555
O5 Si3 1.693070 1_545
O6 Si1 1.659695 1_555
O6 Si4 1.693070 1_545
O7 Si0 1.659695 1_555
O7 Si5 1.693070 1_565
O8 Si2 1.625933 1_556
O9 Si3 1.625933 1_554
O10 Si4 1.625933 1_554
O11 Si5 1.625933 1_556
O12 Si2 1.641931 1_556
O13 Si3 1.641931 1_554
O14 Si4 1.641931 1_554
O15 Si5 1.641931 1_556
O16 Si2 1.652009 1_555
O17 Si3 1.652009 1_555
O18 Si4 1.652009 1_555
O19 Si5 1.652009 1_555
O20 Si6 1.625919 1_555
O21 Si7 1.625919 1_555
O22 Si8 1.625919 1_555
O23 Si9 1.625919 1_555
O24 Si6 1.645176 1_555
O25 Si7 1.645176 1_555
O26 Si8 1.645176 1_555
O27 Si9 1.645176 1_555
O28 Si6 1.639778 1_545
O28 Si8 1.639778 1_455
O29 Si9 1.639778 1_545
O29 Si7 1.639778 1_555
O30 Si6 1.658443 1_555
O31 Si7 1.658443 1_555
O32 Si8 1.658443 1_555
O33 Si9 1.658443 1_555
