# generated using pymatgen
data_HoTl(WO4)2
_symmetry_space_group_name_H-M   'P 1'
_cell_length_a   7.60507060
_cell_length_b   7.60507060
_cell_length_c   7.48457901
_cell_angle_alpha   62.52866857
_cell_angle_beta   62.52866857
_cell_angle_gamma   88.58411517
_symmetry_Int_Tables_number   1
_chemical_formula_structural   HoTl(WO4)2
_chemical_formula_sum   'Ho2 Tl2 W4 O16'
_cell_volume   330.89672245
_cell_formula_units_Z   2
loop_
 _symmetry_equiv_pos_site_id
 _symmetry_equiv_pos_as_xyz
  1  'x, y, z'
loop_
 _atom_site_type_symbol
 _atom_site_label
 _atom_site_symmetry_multiplicity
 _atom_site_fract_x
 _atom_site_fract_y
 _atom_site_fract_z
 _atom_site_occupancy
  Ho  Ho0  1  0.77590200  0.22409800  0.75000000  1
  Ho  Ho1  1  0.22409800  0.77590200  0.25000000  1
  Tl  Tl0  1  0.20315900  0.79684100  0.75000000  1
  Tl  Tl1  1  0.79684100  0.20315900  0.25000000  1
  W  W0  1  0.70094200  0.69032700  0.77971800  1
  W  W1  1  0.29905800  0.30967300  0.22028200  1
  W  W2  1  0.30967300  0.29905800  0.72028200  1
  W  W3  1  0.69032700  0.70094200  0.27971800  1
  O  O0  1  0.61898300  0.75791900  0.55749100  1
  O  O1  1  0.38101700  0.24208100  0.44250900  1
  O  O2  1  0.24208100  0.38101700  0.94250900  1
  O  O3  1  0.75791900  0.61898300  0.05749100  1
  O  O4  1  0.37599800  0.06221900  0.87909000  1
  O  O5  1  0.62400200  0.93778100  0.12091000  1
  O  O6  1  0.93778100  0.62400200  0.62091000  1
  O  O7  1  0.06221900  0.37599800  0.37909000  1
  O  O8  1  0.58929000  0.36968000  0.96545400  1
  O  O9  1  0.41071000  0.63032000  0.03454600  1
  O  O10  1  0.63032000  0.41071000  0.53454600  1
  O  O11  1  0.36968000  0.58929000  0.46545400  1
  O  O12  1  0.78561400  0.95582700  0.69068700  1
  O  O13  1  0.21438600  0.04417300  0.30931300  1
  O  O14  1  0.04417300  0.21438600  0.80931300  1
  O  O15  1  0.95582700  0.78561400  0.19068700  1
loop_
_geom_bond_atom_site_label_1
_geom_bond_atom_site_label_2
_geom_bond_distance
_geom_bond_site_symmetry_2
Ho0 O14 2.272214 1_655
Ho0 O12 2.272214 1_545
Ho0 O8 2.301838 1_555
Ho0 O10 2.301838 1_555
Ho0 O7 2.317558 1_655
Ho0 O5 2.317558 1_546
Ho1 O13 2.272214 1_565
Ho1 O15 2.272214 1_455
Ho1 O9 2.301838 1_555
Ho1 O11 2.301838 1_555
Ho1 O4 2.317558 1_564
Ho1 O6 2.317558 1_455
O0 W0 1.889727 1_555
O0 W3 2.140853 1_555
O1 W1 1.889727 1_555
O1 W2 2.140853 1_555
O2 W2 1.889727 1_555
O2 W1 2.140853 1_556
O3 W3 1.889727 1_555
O3 W0 2.140853 1_554
O4 W2 1.855935 1_555
O5 W3 1.855935 1_555
O6 W0 1.855935 1_555
O7 W1 1.855935 1_555
O8 W1 2.020047 1_556
O8 W0 2.117946 1_555
O9 W0 2.020047 1_554
O9 W1 2.117946 1_555
O10 W3 2.020047 1_555
O10 W2 2.117946 1_555
O11 W2 2.020047 1_555
O11 W3 2.117946 1_555
O12 W0 1.833756 1_555
O13 W1 1.833756 1_555
O14 W2 1.833756 1_555
O15 W3 1.833756 1_555
