# generated using pymatgen
data_InH3C2O5
_symmetry_space_group_name_H-M   'P 1'
_cell_length_a   6.32476200
_cell_length_b   9.63653547
_cell_length_c   9.63653547
_cell_angle_alpha   83.81766930
_cell_angle_beta   70.84251757
_cell_angle_gamma   70.84251757
_symmetry_Int_Tables_number   1
_chemical_formula_structural   InH3C2O5
_chemical_formula_sum   'In4 H12 C8 O20'
_cell_volume   524.08345527
_cell_formula_units_Z   4
loop_
 _symmetry_equiv_pos_site_id
 _symmetry_equiv_pos_as_xyz
  1  'x, y, z'
loop_
 _atom_site_type_symbol
 _atom_site_label
 _atom_site_symmetry_multiplicity
 _atom_site_fract_x
 _atom_site_fract_y
 _atom_site_fract_z
 _atom_site_occupancy
  In  In0  1  0.87500000  0.60320000  0.89680000  1
  In  In1  1  0.37500000  0.39680000  0.10320000  1
  In  In2  1  0.22820000  0.89680000  0.39680000  1
  In  In3  1  0.52180000  0.10320000  0.60320000  1
  H  H0  1  0.45113500  0.57262800  0.67666200  1
  H  H1  1  0.29886500  0.82333800  0.92737200  1
  H  H2  1  0.70042500  0.42737200  0.32333800  1
  H  H3  1  0.04957500  0.17666200  0.07262800  1
  H  H4  1  0.87220300  0.67666200  0.42737200  1
  H  H5  1  0.87779700  0.07262800  0.82333800  1
  H  H6  1  0.97623700  0.32333800  0.57262800  1
  H  H7  1  0.77376300  0.92737200  0.17666200  1
  H  H8  1  0.24981000  0.37519000  0.87519000  1
  H  H9  1  0.50019000  0.62481000  0.12481000  1
  H  H10  1  0.87500000  0.87519000  0.62481000  1
  H  H11  1  0.37500000  0.12481000  0.37519000  1
  C  C0  1  0.32589200  0.66134400  0.63446400  1
  C  C1  1  0.42410800  0.86553600  0.83865600  1
  C  C2  1  0.62170000  0.33865600  0.36553600  1
  C  C3  1  0.12830000  0.13446400  0.16134400  1
  C  C4  1  0.03964300  0.63446400  0.33865600  1
  C  C5  1  0.71035700  0.16134400  0.86553600  1
  C  C6  1  0.01276400  0.36553600  0.66134400  1
  C  C7  1  0.73723600  0.83865600  0.13446400  1
  O  O0  1  0.17323000  0.45177000  0.95177000  1
  O  O1  1  0.57677000  0.54823000  0.04823000  1
  O  O2  1  0.87500000  0.95177000  0.54823000  1
  O  O3  1  0.37500000  0.04823000  0.45177000  1
  O  O4  1  0.10623400  0.69123200  0.69740000  1
  O  O5  1  0.64376600  0.80260000  0.80876800  1
  O  O6  1  0.49486600  0.30876800  0.30260000  1
  O  O7  1  0.25513400  0.19740000  0.19123200  1
  O  O8  1  0.19636600  0.69740000  0.30876800  1
  O  O9  1  0.55363400  0.19123200  0.80260000  1
  O  O10  1  0.20253400  0.30260000  0.69123200  1
  O  O11  1  0.54746600  0.80876800  0.19740000  1
  O  O12  1  0.41928200  0.72857500  0.52144400  1
  O  O13  1  0.33071800  0.97855600  0.77142500  1
  O  O14  1  0.66930200  0.27142500  0.47855600  1
  O  O15  1  0.08069800  0.02144400  0.22857500  1
  O  O16  1  0.05927300  0.52144400  0.27142500  1
  O  O17  1  0.69072700  0.22857500  0.97855600  1
  O  O18  1  0.85214200  0.47855600  0.72857500  1
  O  O19  1  0.89785800  0.77142500  0.02144400  1
loop_
_geom_bond_atom_site_label_1
_geom_bond_atom_site_label_2
_geom_bond_distance
_geom_bond_site_symmetry_2
In0 O1 2.156540 1_556
In0 O0 2.156540 1_655
In0 O19 2.186047 1_556
In0 O18 2.186047 1_555
In0 O4 2.273670 1_655
In0 O5 2.273670 1_555
In1 O0 2.156540 1_554
In1 O1 2.156540 1_555
In1 O16 2.186047 1_555
In1 O17 2.186047 1_554
In1 O6 2.273670 1_555
In1 O7 2.273670 1_555
In2 O3 2.156540 1_565
In2 O2 2.156540 1_455
In2 O12 2.186044 1_555
In2 O15 2.186047 1_565
In2 O11 2.273670 1_555
In2 O8 2.273670 1_555
In3 O2 2.156540 1_545
In3 O3 2.156540 1_555
In3 O13 2.186044 1_545
In3 O14 2.186047 1_555
In3 O9 2.273670 1_555
In3 O10 2.273670 1_555
H8 O0 0.985845 1_555
H9 O1 0.985845 1_555
H10 O2 0.985845 1_555
H11 O3 0.985845 1_555
C0 H0 1.102622 1_555
C0 O4 1.266048 1_555
C0 O12 1.277410 1_555
C1 H1 1.102622 1_555
C1 O5 1.266048 1_555
C1 O13 1.277410 1_555
C2 H2 1.102622 1_555
C2 O6 1.266048 1_555
C2 O14 1.277412 1_555
C3 H3 1.102622 1_555
C3 O7 1.266048 1_555
C3 O15 1.277412 1_555
C4 H4 1.102619 1_455
C4 O8 1.266054 1_555
C4 O16 1.277410 1_555
C5 H5 1.102619 1_555
C5 O9 1.266054 1_555
C5 O17 1.277410 1_555
C6 H6 1.102622 1_455
C6 O10 1.266048 1_555
C6 O18 1.277412 1_455
C7 H7 1.102622 1_555
C7 O11 1.266048 1_555
C7 O19 1.277412 1_555
