# generated using pymatgen
data_Na2Zn2S3
_symmetry_space_group_name_H-M   'P 1'
_cell_length_a   7.06957200
_cell_length_b   7.01896300
_cell_length_c   7.04207794
_cell_angle_alpha   61.92801129
_cell_angle_beta   90.00000000
_cell_angle_gamma   90.00000000
_symmetry_Int_Tables_number   1
_chemical_formula_structural   Na2Zn2S3
_chemical_formula_sum   'Na4 Zn4 S6'
_cell_volume   308.32678486
_cell_formula_units_Z   2
loop_
 _symmetry_equiv_pos_site_id
 _symmetry_equiv_pos_as_xyz
  1  'x, y, z'
loop_
 _atom_site_type_symbol
 _atom_site_label
 _atom_site_symmetry_multiplicity
 _atom_site_fract_x
 _atom_site_fract_y
 _atom_site_fract_z
 _atom_site_occupancy
  Na  Na0  1  0.83699500  0.85509200  0.40129300  1
  Na  Na1  1  0.33699500  0.14490800  0.09870700  1
  Na  Na2  1  0.16300500  0.14490800  0.59870700  1
  Na  Na3  1  0.66300500  0.85509200  0.90129300  1
  Zn  Zn0  1  0.11773700  0.65878300  0.06895500  1
  Zn  Zn1  1  0.61773700  0.34121700  0.43104500  1
  Zn  Zn2  1  0.88226300  0.34121700  0.93104500  1
  Zn  Zn3  1  0.38226300  0.65878300  0.56895500  1
  S  S0  1  0.40611300  0.63533300  0.24129300  1
  S  S1  1  0.90611300  0.36466700  0.25870700  1
  S  S2  1  0.59388700  0.36466700  0.75870700  1
  S  S3  1  0.09388700  0.63533300  0.74129300  1
  S  S4  1  0.00000000  0.00000000  0.00000000  1
  S  S5  1  0.50000000  0.00000000  0.50000000  1
loop_
_geom_bond_atom_site_label_1
_geom_bond_atom_site_label_2
_geom_bond_distance
_geom_bond_site_symmetry_2
Na0 S4 2.764640 1_665
Na0 S5 2.803380 1_565
Na0 S3 2.816800 1_655
Na0 S1 3.264910 1_565
Na1 S5 2.764640 1_555
Na1 S4 2.803380 1_555
Na1 S2 2.816800 1_554
Na1 S0 3.264910 1_545
Na2 S4 2.764640 1_556
Na2 S5 2.803380 1_555
Na2 S1 2.816800 1_455
Na2 S3 3.264910 1_545
Na3 S5 2.764640 1_565
Na3 S4 2.803380 1_666
Na3 S0 2.816800 1_556
Na3 S2 3.264910 1_565
S0 Zn0 2.338426 1_555
S0 Zn1 2.385230 1_555
S0 Zn3 2.395236 1_555
S1 Zn1 2.338426 1_555
S1 Zn0 2.385230 1_655
S1 Zn2 2.395236 1_554
S2 Zn2 2.338426 1_555
S2 Zn3 2.385230 1_555
S2 Zn1 2.395236 1_555
S3 Zn3 2.338426 1_555
S3 Zn2 2.385230 1_455
S3 Zn0 2.395236 1_556
S4 Zn0 2.360091 1_545
S4 Zn2 2.360091 1_454
S5 Zn1 2.360091 1_555
S5 Zn3 2.360091 1_545
