# generated using pymatgen
data_Mg2V3CrS8
_symmetry_space_group_name_H-M   'P 1'
_cell_length_a   7.17840282
_cell_length_b   7.30430464
_cell_length_c   7.20515871
_cell_angle_alpha   60.49506992
_cell_angle_beta   60.05457282
_cell_angle_gamma   60.46421782
_symmetry_Int_Tables_number   1
_chemical_formula_structural   Mg2V3CrS8
_chemical_formula_sum   'Mg2 V3 Cr1 S8'
_cell_volume   269.17042737
_cell_formula_units_Z   1
loop_
 _symmetry_equiv_pos_site_id
 _symmetry_equiv_pos_as_xyz
  1  'x, y, z'
loop_
 _atom_site_type_symbol
 _atom_site_label
 _atom_site_symmetry_multiplicity
 _atom_site_fract_x
 _atom_site_fract_y
 _atom_site_fract_z
 _atom_site_occupancy
  Mg  Mg0  1  0.87426255  0.87597377  0.87501635  1
  Mg  Mg1  1  0.12573455  0.12405108  0.12498082  1
  V  V0  1  0.49997380  0.50003538  0.49995649  1
  V  V1  1  0.50000576  0.49999950  0.00000818  1
  V  V2  1  0.99999838  0.49998755  0.50003508  1
  Cr  Cr0  1  0.50002701  0.99996538  0.50001488  1
  S  S0  1  0.73718959  0.74119362  0.73533211  1
  S  S1  1  0.26360472  0.25872725  0.71347314  1
  S  S2  1  0.26186739  0.71613239  0.26113175  1
  S  S3  1  0.71334777  0.25984732  0.26370026  1
  S  S4  1  0.73809641  0.28389418  0.73885254  1
  S  S5  1  0.28666962  0.74013035  0.73629285  1
  S  S6  1  0.26281796  0.25879595  0.26468402  1
  S  S7  1  0.73640850  0.74126127  0.28652252  1
loop_
_geom_bond_atom_site_label_1
_geom_bond_atom_site_label_2
_geom_bond_distance
_geom_bond_site_symmetry_2
Mg0 S0 2.422810 1_555
Mg0 S5 2.423700 1_655
Mg0 S7 2.428090 1_556
Mg0 S4 2.449980 1_565
Mg1 S6 2.422774 1_555
Mg1 S3 2.423578 1_455
Mg1 S1 2.428097 1_554
Mg1 S2 2.449970 1_545
Cr0 S0 2.428613 1_555
Cr0 S6 2.428938 1_565
Cr0 S7 2.431504 1_555
Cr0 S1 2.431654 1_565
Cr0 S5 2.434391 1_555
Cr0 S3 2.434472 1_565
S0 V2 2.451401 1_555
S0 V1 2.458842 1_556
S1 V2 2.449342 1_455
S1 V0 2.454405 1_555
S2 V0 2.444372 1_555
S2 V2 2.451123 1_455
S2 V1 2.451187 1_555
S3 V1 2.450644 1_555
S3 V0 2.451720 1_555
S4 V0 2.444820 1_555
S4 V2 2.451041 1_555
S4 V1 2.451222 1_556
S5 V1 2.450736 1_556
S5 V0 2.451672 1_555
S6 V2 2.451593 1_455
S6 V1 2.458907 1_555
S7 V2 2.449613 1_555
S7 V0 2.454342 1_555
