# generated using pymatgen
data_Ba3LiTi3O8
_symmetry_space_group_name_H-M   'P 1'
_cell_length_a   5.98547868
_cell_length_b   5.98549291
_cell_length_c   7.14109693
_cell_angle_alpha   85.65973335
_cell_angle_beta   94.34027496
_cell_angle_gamma   122.97708646
_symmetry_Int_Tables_number   1
_chemical_formula_structural   Ba3LiTi3O8
_chemical_formula_sum   'Ba3 Li1 Ti3 O8'
_cell_volume   213.82141430
_cell_formula_units_Z   1
loop_
 _symmetry_equiv_pos_site_id
 _symmetry_equiv_pos_as_xyz
  1  'x, y, z'
loop_
 _atom_site_type_symbol
 _atom_site_label
 _atom_site_symmetry_multiplicity
 _atom_site_fract_x
 _atom_site_fract_y
 _atom_site_fract_z
 _atom_site_occupancy
  Ba  Ba0  1  0.97025300  0.02974700  0.02872200  1
  Ba  Ba1  1  0.36306000  0.63693800  0.63797100  1
  Ba  Ba2  1  0.66666600  0.33333400  0.33331600  1
  Li  Li0  1  0.16667600  0.83332400  0.83334900  1
  Ti  Ti0  1  0.98281300  0.01718800  0.52086800  1
  Ti  Ti1  1  0.35051800  0.64948300  0.14580700  1
  Ti  Ti2  1  0.66666300  0.33333800  0.83333600  1
  O  O0  1  0.00659500  0.51205900  0.00002500  1
  O  O1  1  0.16667000  0.33333800  0.33333100  1
  O  O2  1  0.48794000  0.99340400  0.00002600  1
  O  O3  1  0.66666100  0.83333000  0.33333100  1
  O  O4  1  0.32674000  0.15459800  0.66664600  1
  O  O5  1  0.49847200  0.50152600  0.99817400  1
  O  O6  1  0.84540200  0.67326200  0.66664500  1
  O  O7  1  0.83486900  0.16513400  0.66848900  1
loop_
_geom_bond_atom_site_label_1
_geom_bond_atom_site_label_2
_geom_bond_distance
_geom_bond_site_symmetry_2
Ba0 O1 2.702115 1_655
Ba0 O3 2.702116 1_545
Ba0 O2 2.767116 1_545
Ba0 O0 2.767120 1_655
Ba0 O7 2.831021 1_554
Ba0 O5 2.882659 1_654
Ba0 O5 2.882672 1_544
Ba1 O1 2.702323 1_555
Ba1 O3 2.702324 1_555
Ba1 O6 2.767344 1_555
Ba1 O4 2.767351 1_555
Ba1 O5 2.830954 1_555
Ba1 O7 2.882602 1_455
Ba1 O7 2.882632 1_565
Ba2 O5 2.851084 1_554
Ba2 O7 2.851307 1_555
Ba2 O2 2.987808 1_545
Ba2 O0 2.987808 1_655
Ba2 O4 2.988022 1_555
Ba2 O6 2.988026 1_555
Ba2 O1 2.992737 1_555
Ba2 O1 2.992742 1_655
Ba2 O3 2.992746 1_545
Ba2 O3 2.992747 1_555
Li0 O2 1.962873 1_556
Li0 O0 1.962876 1_556
Li0 O4 1.963022 1_565
Li0 O6 1.963023 1_455
O0 Ti1 1.989953 1_555
O0 Ti2 2.039074 1_454
O1 Ti1 2.039021 1_555
O1 Ti0 2.039101 1_455
O2 Ti1 1.989946 1_555
O2 Ti2 2.039090 1_564
O3 Ti1 2.039011 1_555
O3 Ti0 2.039106 1_565
O4 Ti0 1.989967 1_455
O4 Ti2 2.039045 1_555
O5 Ti1 1.953554 1_556
O5 Ti2 2.207816 1_555
O6 Ti0 1.989963 1_565
O6 Ti2 2.039056 1_555
O7 Ti0 1.953409 1_555
O7 Ti2 2.207993 1_555
