# generated using pymatgen
data_Sr7CaMn4(FeO5)4
_symmetry_space_group_name_H-M   'P 1'
_cell_length_a   11.19553359
_cell_length_b   11.26286989
_cell_length_c   17.84361939
_cell_angle_alpha   108.34322672
_cell_angle_beta   108.41965400
_cell_angle_gamma   89.98441886
_symmetry_Int_Tables_number   1
_chemical_formula_structural   Sr7CaMn4(FeO5)4
_chemical_formula_sum   'Sr28 Ca4 Mn16 Fe16 O80'
_cell_volume   2013.90905060
_cell_formula_units_Z   4
loop_
 _symmetry_equiv_pos_site_id
 _symmetry_equiv_pos_as_xyz
  1  'x, y, z'
loop_
 _atom_site_type_symbol
 _atom_site_label
 _atom_site_symmetry_multiplicity
 _atom_site_fract_x
 _atom_site_fract_y
 _atom_site_fract_z
 _atom_site_occupancy
  Sr  Sr0  1  0.30761300  0.05836400  0.60811500  1
  Sr  Sr1  1  0.30789400  0.55827400  0.60821800  1
  Sr  Sr2  1  0.80754900  0.05837000  0.60833200  1
  Sr  Sr3  1  0.80754200  0.56027300  0.10947500  1
  Sr  Sr4  1  0.80748100  0.55853500  0.60834300  1
  Sr  Sr5  1  0.19776600  0.44063400  0.39060300  1
  Sr  Sr6  1  0.19933200  0.44209100  0.89301500  1
  Sr  Sr7  1  0.19841800  0.94133700  0.38961500  1
  Sr  Sr8  1  0.19968900  0.94173100  0.89316400  1
  Sr  Sr9  1  0.69847600  0.44114900  0.39125500  1
  Sr  Sr10  1  0.70062500  0.44253700  0.89317000  1
  Sr  Sr11  1  0.69788800  0.94121800  0.39098000  1
  Sr  Sr12  1  0.70072000  0.94108800  0.89294300  1
  Sr  Sr13  1  0.05785500  0.29883000  0.11006900  1
  Sr  Sr14  1  0.05744500  0.29962200  0.60801600  1
  Sr  Sr15  1  0.05752800  0.79983700  0.60817200  1
  Sr  Sr16  1  0.55830100  0.29862500  0.10939100  1
  Sr  Sr17  1  0.55716500  0.29976000  0.60793500  1
  Sr  Sr18  1  0.55735900  0.79942700  0.10946200  1
  Sr  Sr19  1  0.55726500  0.79961900  0.60789300  1
  Sr  Sr20  1  0.44818400  0.19798500  0.38850600  1
  Sr  Sr21  1  0.44908200  0.20062000  0.89291400  1
  Sr  Sr22  1  0.44769600  0.69892000  0.38887300  1
  Sr  Sr23  1  0.44984700  0.70146000  0.89308500  1
  Sr  Sr24  1  0.94804000  0.19840400  0.38929300  1
  Sr  Sr25  1  0.95060000  0.20066100  0.89344900  1
  Sr  Sr26  1  0.94852600  0.69963100  0.39033600  1
  Sr  Sr27  1  0.95039900  0.70150400  0.89317500  1
  Ca  Ca0  1  0.30363100  0.06181200  0.10396800  1
  Ca  Ca1  1  0.30575000  0.56217100  0.10391600  1
  Ca  Ca2  1  0.80416100  0.06092500  0.10372700  1
  Ca  Ca3  1  0.05699300  0.79172500  0.10402700  1
  Mn  Mn0  1  0.10647100  0.09017200  0.24569800  1
  Mn  Mn1  1  0.11171400  0.09664100  0.75105900  1
  Mn  Mn2  1  0.11309400  0.59893100  0.24917600  1
  Mn  Mn3  1  0.11167600  0.59682400  0.75101400  1
  Mn  Mn4  1  0.60713600  0.09361300  0.24737100  1
  Mn  Mn5  1  0.61186700  0.09602900  0.75074700  1
  Mn  Mn6  1  0.60623700  0.59453400  0.24772200  1
  Mn  Mn7  1  0.61223600  0.59665100  0.75100400  1
  Mn  Mn8  1  0.35983600  0.40285800  0.24763000  1
  Mn  Mn9  1  0.36159000  0.40438700  0.75084600  1
  Mn  Mn10  1  0.35406000  0.90246200  0.24548800  1
  Mn  Mn11  1  0.36175600  0.90415900  0.75093800  1
  Mn  Mn12  1  0.86121200  0.40107100  0.24944700  1
  Mn  Mn13  1  0.86203300  0.40424000  0.75095000  1
  Mn  Mn14  1  0.86094400  0.90721500  0.24770600  1
  Mn  Mn15  1  0.86208500  0.90390200  0.75110900  1
  Fe  Fe0  1  0.00691100  0.00163900  0.00539200  1
  Fe  Fe1  1  0.00328200  0.00002700  0.49927400  1
  Fe  Fe2  1  0.00628200  0.50203400  0.00359700  1
  Fe  Fe3  1  0.00313300  0.49957300  0.49951500  1
  Fe  Fe4  1  0.50580000  0.00152900  0.00340200  1
  Fe  Fe5  1  0.50262400  0.00006900  0.49930400  1
  Fe  Fe6  1  0.50455500  0.50101300  0.00206300  1
  Fe  Fe7  1  0.50294700  0.49969900  0.49910700  1
  Fe  Fe8  1  0.25569300  0.25202700  0.00389100  1
  Fe  Fe9  1  0.25292800  0.24908300  0.49904100  1
  Fe  Fe10  1  0.25578800  0.75232900  0.00437000  1
  Fe  Fe11  1  0.25318600  0.74980700  0.49919000  1
  Fe  Fe12  1  0.75459600  0.25007600  0.00161300  1
  Fe  Fe13  1  0.75265500  0.24960200  0.49944100  1
  Fe  Fe14  1  0.75684700  0.75281100  0.00427300  1
  Fe  Fe15  1  0.75253500  0.74972400  0.49928000  1
  O  O0  1  0.12520500  0.12367300  0.49547300  1
  O  O1  1  0.12718400  0.12256300  0.99628900  1
  O  O2  1  0.12485100  0.62328700  0.49483100  1
  O  O3  1  0.12694400  0.62510400  0.99798200  1
  O  O4  1  0.62471800  0.12329800  0.49502000  1
  O  O5  1  0.62722500  0.12269300  0.99637500  1
  O  O6  1  0.62504600  0.62376700  0.49549200  1
  O  O7  1  0.62569900  0.62427100  0.99549600  1
  O  O8  1  0.13514500  0.38117400  0.01045100  1
  O  O9  1  0.12954800  0.37570500  0.50354800  1
  O  O10  1  0.13424200  0.87913500  0.01241500  1
  O  O11  1  0.12927400  0.87622000  0.50367400  1
  O  O12  1  0.63046400  0.37615800  0.00570500  1
  O  O13  1  0.62932900  0.37631300  0.50403500  1
  O  O14  1  0.63438900  0.87994600  0.00814000  1
  O  O15  1  0.62870400  0.87630700  0.50330200  1
  O  O16  1  0.37501500  0.12205800  0.49499800  1
  O  O17  1  0.37618100  0.12215300  0.99746800  1
  O  O18  1  0.37481800  0.62152100  0.49468400  1
  O  O19  1  0.37517100  0.62170300  0.99666500  1
  O  O20  1  0.87455900  0.12164200  0.49443200  1
  O  O21  1  0.87557100  0.12063900  0.99777500  1
  O  O22  1  0.87477600  0.62188600  0.49463000  1
  O  O23  1  0.87871700  0.62464300  0.99745800  1
  O  O24  1  0.38060700  0.38274100  0.00990400  1
  O  O25  1  0.37858500  0.37659900  0.50211200  1
  O  O26  1  0.38075500  0.88301500  0.01000500  1
  O  O27  1  0.37958900  0.87764000  0.50345500  1
  O  O28  1  0.88200100  0.37926900  0.00729100  1
  O  O29  1  0.87910200  0.37712400  0.50347900  1
  O  O30  1  0.88529800  0.88185600  0.01252300  1
  O  O31  1  0.87893600  0.87727700  0.50277100  1
  O  O32  1  0.08292900  0.08755000  0.13601300  1
  O  O33  1  0.07506400  0.08163300  0.63631000  1
  O  O34  1  0.07873200  0.59082600  0.13638300  1
  O  O35  1  0.07529700  0.58165900  0.63621300  1
  O  O36  1  0.58278600  0.08345500  0.13581100  1
  O  O37  1  0.57520000  0.08168900  0.63620600  1
  O  O38  1  0.57883300  0.58377700  0.13556400  1
  O  O39  1  0.57479100  0.58135100  0.63620400  1
  O  O40  1  0.44069200  0.42080000  0.36260300  1
  O  O41  1  0.43878600  0.41733600  0.86504700  1
  O  O42  1  0.43444600  0.92222200  0.36134100  1
  O  O43  1  0.43947800  0.91722500  0.86515700  1
  O  O44  1  0.93886900  0.41749400  0.36402600  1
  O  O45  1  0.94093900  0.41787200  0.86526800  1
  O  O46  1  0.94090300  0.92167900  0.36229000  1
  O  O47  1  0.94006700  0.91645400  0.86536200  1
  O  O48  1  0.32606800  0.29137900  0.13668500  1
  O  O49  1  0.32592200  0.30479200  0.63627100  1
  O  O50  1  0.32728800  0.79060900  0.13599600  1
  O  O51  1  0.32559800  0.80447000  0.63630000  1
  O  O52  1  0.82511400  0.29603800  0.13634200  1
  O  O53  1  0.82560400  0.30422100  0.63635500  1
  O  O54  1  0.82741000  0.79962400  0.13647900  1
  O  O55  1  0.82569500  0.80478900  0.63628500  1
  O  O56  1  0.18538500  0.18893600  0.36120200  1
  O  O57  1  0.18986700  0.19769900  0.86534000  1
  O  O58  1  0.18916300  0.69668700  0.36392300  1
  O  O59  1  0.18921600  0.69792100  0.86537200  1
  O  O60  1  0.68219500  0.19403500  0.36233000  1
  O  O61  1  0.69111300  0.19634500  0.86490800  1
  O  O62  1  0.68279500  0.69470700  0.36254600  1
  O  O63  1  0.69182000  0.69792800  0.86496200  1
  O  O64  1  0.43051500  0.06138500  0.23943500  1
  O  O65  1  0.44186400  0.06482700  0.75101800  1
  O  O66  1  0.43144800  0.56409500  0.24031400  1
  O  O67  1  0.44223600  0.56503900  0.75131300  1
  O  O68  1  0.93127600  0.06845300  0.24063300  1
  O  O69  1  0.94181600  0.06470600  0.75116000  1
  O  O70  1  0.94407900  0.55966600  0.24891300  1
  O  O71  1  0.94169900  0.56487300  0.75093100  1
  O  O72  1  0.19206500  0.43752300  0.24959100  1
  O  O73  1  0.19168300  0.43636800  0.75070700  1
  O  O74  1  0.17885000  0.92374700  0.24082900  1
  O  O75  1  0.19183300  0.93621200  0.75097000  1
  O  O76  1  0.69167100  0.43823900  0.24984800  1
  O  O77  1  0.69197700  0.43596900  0.75077800  1
  O  O78  1  0.69086300  0.93664800  0.24989600  1
  O  O79  1  0.69188300  0.93579900  0.75059900  1
loop_
_geom_bond_atom_site_label_1
_geom_bond_atom_site_label_2
_geom_bond_distance
_geom_bond_site_symmetry_2
Ca0 O64 2.387103 1_555
Ca0 O48 2.459017 1_555
Ca0 O26 2.529959 1_545
Ca0 O10 2.535159 1_545
Ca0 O1 2.547610 1_554
Ca0 O17 2.553730 1_554
Ca0 O32 2.702655 1_555
Ca0 O36 2.990107 1_555
Ca1 O66 2.388884 1_555
Ca1 O50 2.447771 1_555
Ca1 O24 2.520747 1_555
Ca1 O8 2.536616 1_555
Ca1 O19 2.542424 1_554
Ca1 O3 2.556174 1_554
Ca1 O34 2.777015 1_555
Ca1 O38 2.923715 1_555
Ca2 O68 2.381788 1_555
Ca2 O52 2.519911 1_555
Ca2 O30 2.531509 1_545
Ca2 O21 2.534066 1_554
Ca2 O14 2.538062 1_545
Ca2 O5 2.552907 1_554
Ca2 O36 2.709159 1_555
Ca3 O74 2.375474 1_555
Ca3 O34 2.499105 1_555
Ca3 O10 2.509224 1_555
Ca3 O3 2.533017 1_554
Ca3 O30 2.539709 1_455
Ca3 O23 2.547960 1_454
Ca3 O54 2.803161 1_455
Ca3 O50 2.897661 1_555
Mn0 O32 1.881095 1_555
Mn0 O56 1.916377 1_555
Mn0 O68 1.946644 1_455
Mn0 O74 2.029481 1_545
Mn1 O57 1.905643 1_555
Mn1 O33 1.908039 1_555
Mn1 O69 1.936569 1_455
Mn1 O75 2.016838 1_545
Mn2 O34 1.897924 1_555
Mn2 O58 1.899849 1_555
Mn2 O70 1.941547 1_455
Mn2 O72 2.022378 1_555
Mn3 O59 1.905953 1_555
Mn3 O35 1.908885 1_555
Mn3 O71 1.936260 1_455
Mn3 O73 2.016008 1_555
Mn4 O36 1.887793 1_555
Mn4 O60 1.908943 1_555
Mn4 O64 1.962873 1_555
Mn4 O78 2.007142 1_545
Mn5 O61 1.903429 1_555
Mn5 O37 1.906275 1_555
Mn5 O65 1.937324 1_555
Mn5 O79 2.014170 1_545
Mn6 O38 1.890347 1_555
Mn6 O62 1.908200 1_555
Mn6 O66 1.942336 1_555
Mn6 O76 2.008293 1_555
Mn7 O63 1.904075 1_555
Mn7 O39 1.907027 1_555
Mn7 O67 1.938390 1_555
Mn7 O77 2.017169 1_555
Mn8 O48 1.897698 1_555
Mn8 O40 1.906471 1_555
Mn8 O72 1.927214 1_555
Mn8 O66 2.042986 1_555
Mn9 O41 1.902820 1_555
Mn9 O49 1.907439 1_555
Mn9 O73 1.935283 1_555
Mn9 O67 2.018870 1_555
Mn10 O50 1.890751 1_555
Mn10 O42 1.915140 1_555
Mn10 O74 1.954833 1_555
Mn10 O64 2.032021 1_565
Mn11 O43 1.903459 1_555
Mn11 O51 1.907925 1_555
Mn11 O75 1.936377 1_555
Mn11 O65 2.019253 1_565
Mn12 O44 1.899697 1_555
Mn12 O52 1.902103 1_555
Mn12 O76 1.945340 1_555
Mn12 O70 2.017084 1_555
Mn13 O45 1.905024 1_555
Mn13 O53 1.907853 1_555
Mn13 O77 1.936248 1_555
Mn13 O71 2.017451 1_555
Mn14 O54 1.887852 1_555
Mn14 O46 1.908413 1_555
Mn14 O78 1.943122 1_555
Mn14 O68 2.035101 1_565
Mn15 O47 1.905864 1_555
Mn15 O55 1.908706 1_555
Mn15 O79 1.936701 1_555
Mn15 O69 2.018974 1_565
Fe0 O30 1.977001 1_445
Fe0 O10 1.986563 1_545
Fe0 O21 1.991044 1_454
Fe0 O1 1.993205 1_554
Fe0 O32 2.102470 1_555
Fe0 O47 2.243567 1_444
Fe1 O0 1.981452 1_555
Fe1 O11 1.984458 1_545
Fe1 O20 1.988768 1_455
Fe1 O31 1.990851 1_445
Fe1 O46 2.192018 1_445
Fe1 O33 2.194015 1_555
Fe2 O3 1.982473 1_554
Fe2 O8 1.985315 1_555
Fe2 O23 1.988436 1_454
Fe2 O28 1.992111 1_455
Fe2 O34 2.136940 1_555
Fe2 O45 2.216478 1_454
Fe3 O2 1.987896 1_555
Fe3 O9 1.988037 1_555
Fe3 O29 1.989898 1_455
Fe3 O22 1.991420 1_455
Fe3 O44 2.170605 1_455
Fe3 O35 2.189239 1_555
Fe4 O5 1.985559 1_554
Fe4 O14 1.987392 1_545
Fe4 O17 1.988755 1_554
Fe4 O26 1.989895 1_545
Fe4 O36 2.125512 1_555
Fe4 O43 2.215083 1_544
Fe5 O16 1.982595 1_555
Fe5 O27 1.983431 1_545
Fe5 O4 1.983538 1_555
Fe5 O15 1.984540 1_545
Fe5 O37 2.192101 1_555
Fe5 O42 2.205895 1_545
Fe6 O19 1.987059 1_554
Fe6 O24 1.990134 1_555
Fe6 O12 1.991800 1_555
Fe6 O7 1.996060 1_554
Fe6 O38 2.141487 1_555
Fe6 O41 2.195493 1_554
Fe7 O13 1.984476 1_555
Fe7 O6 1.984657 1_555
Fe7 O18 1.985459 1_555
Fe7 O25 1.989638 1_555
Fe7 O40 2.184803 1_555
Fe7 O39 2.195004 1_555
Fe8 O24 1.985333 1_555
Fe8 O8 1.985568 1_555
Fe8 O17 1.990853 1_554
Fe8 O1 1.991937 1_554
Fe8 O48 2.142715 1_555
Fe8 O57 2.219519 1_554
Fe9 O16 1.979020 1_555
Fe9 O0 1.982625 1_555
Fe9 O9 1.986265 1_555
Fe9 O25 1.986854 1_555
Fe9 O49 2.196862 1_555
Fe9 O56 2.203705 1_555
Fe10 O10 1.976210 1_555
Fe10 O3 1.985297 1_554
Fe10 O26 1.988233 1_555
Fe10 O19 1.989353 1_554
Fe10 O50 2.125485 1_555
Fe10 O59 2.226649 1_554
Fe11 O18 1.985808 1_555
Fe11 O27 1.986316 1_555
Fe11 O11 1.988817 1_555
Fe11 O2 1.990396 1_555
Fe11 O58 2.166899 1_555
Fe11 O51 2.195593 1_555
Fe12 O5 1.983184 1_554
Fe12 O12 1.987708 1_555
Fe12 O21 1.989726 1_554
Fe12 O28 1.994761 1_555
Fe12 O52 2.165233 1_555
Fe12 O61 2.190228 1_554
Fe13 O4 1.985064 1_555
Fe13 O20 1.985599 1_555
Fe13 O29 1.985849 1_555
Fe13 O13 1.986598 1_555
Fe13 O53 2.192563 1_555
Fe13 O60 2.194651 1_555
Fe14 O14 1.982734 1_555
Fe14 O30 1.983644 1_555
Fe14 O23 1.988334 1_554
Fe14 O7 1.997348 1_554
Fe14 O54 2.122914 1_555
Fe14 O63 2.231775 1_554
Fe15 O6 1.983454 1_555
Fe15 O22 1.987060 1_555
Fe15 O15 1.989250 1_555
Fe15 O31 1.989822 1_555
Fe15 O62 2.188879 1_555
Fe15 O55 2.193740 1_555
O0 Sr24 2.619194 1_455
O0 Sr14 2.644322 1_555
O0 Sr7 2.644441 1_545
O0 Sr0 2.662171 1_555
O1 Sr25 2.602277 1_455
O1 Sr8 2.603304 1_545
O1 Sr13 2.669033 1_556
O2 Sr26 2.606720 1_455
O2 Sr5 2.628248 1_555
O2 Sr15 2.653960 1_555
O2 Sr1 2.672195 1_555
O3 Sr27 2.611608 1_455
O3 Sr6 2.634764 1_555
O4 Sr20 2.618696 1_555
O4 Sr11 2.624287 1_545
O4 Sr17 2.650130 1_555
O4 Sr2 2.669649 1_555
O5 Sr21 2.616916 1_555
O5 Sr12 2.617178 1_545
O5 Sr16 2.656303 1_556
O6 Sr22 2.627487 1_555
O6 Sr9 2.631200 1_555
O6 Sr19 2.642332 1_555
O6 Sr4 2.664123 1_555
O7 Sr23 2.587778 1_555
O7 Sr10 2.615660 1_555
O7 Sr18 2.658931 1_556
O7 Sr3 2.665677 1_556
O8 Sr13 2.603577 1_555
O8 Sr6 2.689791 1_554
O8 Sr25 2.713968 1_454
O9 Sr14 2.611025 1_555
O9 Sr1 2.632775 1_555
O9 Sr5 2.660889 1_555
O9 Sr24 2.663662 1_455
O10 Sr27 2.705801 1_454
O10 Sr8 2.737067 1_554
O11 Sr15 2.611251 1_555
O11 Sr0 2.629150 1_565
O11 Sr26 2.650437 1_455
O11 Sr7 2.686017 1_555
O12 Sr16 2.607706 1_555
O12 Sr3 2.631458 1_555
O12 Sr21 2.645360 1_554
O12 Sr10 2.673969 1_554
O13 Sr17 2.605056 1_555
O13 Sr4 2.627990 1_555
O13 Sr9 2.663093 1_555
O13 Sr20 2.674073 1_555
O14 Sr18 2.617738 1_555
O14 Sr12 2.665852 1_554
O14 Sr23 2.692332 1_554
O15 Sr19 2.612845 1_555
O15 Sr2 2.634040 1_565
O15 Sr11 2.656116 1_555
O15 Sr22 2.662142 1_555
O16 Sr7 2.613725 1_545
O16 Sr20 2.649517 1_555
O16 Sr0 2.651839 1_555
O16 Sr17 2.663075 1_555
O17 Sr8 2.606764 1_545
O17 Sr21 2.632130 1_555
O17 Sr16 2.650787 1_556
O18 Sr5 2.612114 1_555
O18 Sr22 2.645789 1_555
O18 Sr1 2.653437 1_555
O18 Sr19 2.668469 1_555
O19 Sr6 2.595136 1_555
O19 Sr23 2.635106 1_555
O19 Sr18 2.662733 1_556
O20 Sr11 2.604408 1_545
O20 Sr24 2.634471 1_555
O20 Sr2 2.660206 1_555
O20 Sr14 2.672245 1_655
O21 Sr12 2.593793 1_545
O21 Sr25 2.651013 1_555
O21 Sr13 2.663542 1_656
O22 Sr9 2.603847 1_555
O22 Sr26 2.628459 1_555
O22 Sr4 2.659203 1_555
O22 Sr15 2.671078 1_655
O23 Sr27 2.610349 1_555
O23 Sr10 2.626821 1_555
O23 Sr3 2.659821 1_556
O24 Sr16 2.613868 1_555
O24 Sr6 2.667889 1_554
O24 Sr21 2.732808 1_554
O25 Sr1 2.627830 1_555
O25 Sr5 2.633287 1_555
O25 Sr17 2.636967 1_555
O25 Sr20 2.682160 1_555
O26 Sr18 2.603493 1_555
O26 Sr8 2.662617 1_554
O26 Sr23 2.732405 1_554
O27 Sr0 2.614880 1_565
O27 Sr19 2.624693 1_555
O27 Sr7 2.658513 1_555
O27 Sr22 2.684654 1_555
O28 Sr3 2.606806 1_555
O28 Sr13 2.612139 1_655
O28 Sr10 2.660299 1_554
O28 Sr25 2.678796 1_554
O29 Sr4 2.619113 1_555
O29 Sr14 2.626446 1_655
O29 Sr9 2.639752 1_555
O29 Sr24 2.685203 1_555
O30 Sr12 2.716042 1_554
O30 Sr27 2.729438 1_554
O31 Sr2 2.622799 1_565
O31 Sr15 2.636431 1_655
O31 Sr11 2.637119 1_555
O31 Sr26 2.663760 1_555
O32 Sr13 2.562534 1_555
O33 Sr14 2.653057 1_555
O33 Sr0 2.800793 1_555
O33 Sr2 2.874189 1_455
O33 Sr15 3.049408 1_545
O34 Sr3 2.922722 1_455
O34 Sr13 3.170152 1_555
O35 Sr15 2.653115 1_555
O35 Sr1 2.799790 1_555
O35 Sr4 2.877815 1_455
O35 Sr14 3.051946 1_555
O36 Sr16 2.609114 1_555
O36 Sr18 3.082978 1_545
O37 Sr17 2.653848 1_555
O37 Sr2 2.796068 1_555
O37 Sr0 2.874640 1_555
O37 Sr19 3.051948 1_545
O38 Sr18 2.610541 1_555
O38 Sr3 2.741967 1_555
O38 Sr16 3.094190 1_555
O39 Sr19 2.656277 1_555
O39 Sr4 2.799524 1_555
O39 Sr1 2.867257 1_555
O39 Sr17 3.046710 1_555
O40 Sr20 2.687731 1_555
O40 Sr9 2.763556 1_555
O40 Sr5 2.912789 1_555
O40 Sr22 3.015079 1_555
O41 Sr21 2.635491 1_555
O41 Sr10 2.811909 1_555
O41 Sr6 2.875941 1_555
O41 Sr23 3.075604 1_555
O42 Sr22 2.705570 1_555
O42 Sr11 2.822707 1_555
O42 Sr7 2.838535 1_555
O42 Sr20 2.985077 1_565
O43 Sr23 2.625431 1_555
O43 Sr12 2.805771 1_555
O43 Sr8 2.879830 1_555
O43 Sr21 3.068586 1_565
O44 Sr24 2.640762 1_555
O44 Sr5 2.783529 1_655
O44 Sr9 2.880065 1_555
O44 Sr26 3.059220 1_555
O45 Sr25 2.643730 1_555
O45 Sr6 2.774600 1_655
O45 Sr10 2.884886 1_555
O45 Sr27 3.070780 1_555
O46 Sr26 2.696824 1_555
O46 Sr7 2.764528 1_655
O46 Sr11 2.919172 1_555
O46 Sr24 2.997176 1_565
O47 Sr27 2.615435 1_555
O47 Sr8 2.788520 1_655
O47 Sr12 2.871685 1_555
O47 Sr25 3.076444 1_565
O48 Sr16 2.798043 1_555
O48 Sr13 2.893623 1_555
O49 Sr0 2.656184 1_555
O49 Sr17 2.787526 1_555
O49 Sr14 2.883752 1_555
O49 Sr1 3.045864 1_555
O50 Sr18 2.769301 1_555
O51 Sr1 2.653713 1_555
O51 Sr19 2.792877 1_555
O51 Sr15 2.879834 1_555
O51 Sr0 3.051480 1_565
O52 Sr13 2.791327 1_655
O52 Sr16 2.873314 1_555
O52 Sr3 3.156495 1_555
O53 Sr2 2.650120 1_555
O53 Sr14 2.794337 1_655
O53 Sr17 2.883150 1_555
O53 Sr4 3.054827 1_555
O54 Sr3 2.581451 1_555
O54 Sr18 2.907130 1_555
O55 Sr4 2.654862 1_555
O55 Sr15 2.792212 1_655
O55 Sr19 2.882841 1_555
O55 Sr2 3.046204 1_565
O56 Sr5 2.710894 1_555
O56 Sr20 2.822623 1_555
O56 Sr24 2.851535 1_455
O56 Sr7 2.982945 1_545
O57 Sr6 2.634993 1_555
O57 Sr21 2.784347 1_555
O57 Sr25 2.875189 1_455
O57 Sr8 3.071827 1_545
O58 Sr7 2.643581 1_555
O58 Sr22 2.784805 1_555
O58 Sr26 2.876403 1_455
O58 Sr5 3.063946 1_555
O59 Sr8 2.628022 1_555
O59 Sr23 2.799302 1_555
O59 Sr27 2.867388 1_455
O59 Sr6 3.068803 1_555
O60 Sr9 2.661307 1_555
O60 Sr20 2.800725 1_555
O60 Sr24 2.858738 1_555
O60 Sr11 3.042918 1_545
O61 Sr10 2.653361 1_555
O61 Sr25 2.784032 1_555
O61 Sr21 2.904280 1_555
O61 Sr12 3.065625 1_545
O62 Sr11 2.655923 1_555
O62 Sr22 2.813885 1_555
O62 Sr26 2.854839 1_555
O62 Sr9 3.051636 1_555
O63 Sr12 2.620618 1_555
O63 Sr27 2.775246 1_555
O63 Sr23 2.904934 1_555
O63 Sr10 3.068665 1_555
O64 Sr20 2.563862 1_555
O65 Sr21 2.487927 1_555
O65 Sr0 2.495522 1_555
O66 Sr22 2.554936 1_555
O67 Sr23 2.486955 1_555
O67 Sr1 2.497632 1_555
O68 Sr24 2.540811 1_555
O69 Sr25 2.489161 1_555
O69 Sr2 2.494890 1_555
O70 Sr3 2.476778 1_555
O70 Sr26 2.504470 1_555
O71 Sr27 2.491025 1_555
O71 Sr4 2.491210 1_555
O72 Sr13 2.466847 1_555
O72 Sr5 2.485841 1_555
O73 Sr6 2.493801 1_555
O73 Sr14 2.495662 1_555
O74 Sr7 2.537135 1_555
O75 Sr8 2.491782 1_555
O75 Sr15 2.495853 1_555
O76 Sr16 2.477764 1_555
O76 Sr9 2.489970 1_555
O77 Sr10 2.489317 1_555
O77 Sr17 2.497411 1_555
O78 Sr18 2.469536 1_555
O78 Sr11 2.477843 1_555
O79 Sr12 2.492100 1_555
O79 Sr19 2.495147 1_555
