# generated using pymatgen
data_Eu(CuSn)2
_symmetry_space_group_name_H-M   'P 1'
_cell_length_a   5.98444366
_cell_length_b   5.98444366
_cell_length_c   4.75660312
_cell_angle_alpha   72.58923568
_cell_angle_beta   72.58923568
_cell_angle_gamma   42.01083813
_symmetry_Int_Tables_number   1
_chemical_formula_structural   Eu(CuSn)2
_chemical_formula_sum   'Eu1 Cu2 Sn2'
_cell_volume   107.99595097
_cell_formula_units_Z   1
loop_
 _symmetry_equiv_pos_site_id
 _symmetry_equiv_pos_as_xyz
  1  'x, y, z'
loop_
 _atom_site_type_symbol
 _atom_site_label
 _atom_site_symmetry_multiplicity
 _atom_site_fract_x
 _atom_site_fract_y
 _atom_site_fract_z
 _atom_site_occupancy
  Eu  Eu0  1  0.00000000  0.00000000  -0.00000000  1
  Cu  Cu0  1  0.74214338  0.74214338  0.85591815  1
  Cu  Cu1  1  0.25785662  0.25785662  0.14408185  1
  Sn  Sn0  1  0.35901926  0.35901926  0.57185733  1
  Sn  Sn1  1  0.64098074  0.64098074  0.42814267  1
loop_
_geom_bond_atom_site_label_1
_geom_bond_atom_site_label_2
_geom_bond_distance
_geom_bond_site_symmetry_2
Eu0 Sn0 3.425685 1_545
Eu0 Sn1 3.425685 1_454
Eu0 Sn1 3.425685 1_544
Eu0 Sn0 3.425685 1_455
Cu0 Cu1 2.581777 1_566
Cu0 Cu1 2.581777 1_656
Cu0 Sn1 2.591116 1_556
Cu0 Sn1 2.625317 1_555
Cu0 Sn0 2.646064 1_655
Cu0 Sn0 2.646064 1_565
Cu0 Eu0 3.168056 1_666
Cu0 Eu0 3.347087 1_566
Cu0 Eu0 3.347087 1_656
Cu1 Sn0 2.591116 1_554
Cu1 Sn0 2.625317 1_555
Cu1 Sn1 2.646064 1_455
Cu1 Sn1 2.646064 1_545
Cu1 Eu0 3.168056 1_555
Cu1 Eu0 3.347087 1_655
Cu1 Eu0 3.347087 1_565
Sn0 Sn1 3.002061 1_555
