# generated using pymatgen
data_Ba2CrMoO6
_symmetry_space_group_name_H-M   'P 1'
_cell_length_a   5.81014369
_cell_length_b   8.00569100
_cell_length_c   5.81000297
_cell_angle_alpha   90.00355658
_cell_angle_beta   89.99864025
_cell_angle_gamma   90.00010060
_symmetry_Int_Tables_number   1
_chemical_formula_structural   Ba2CrMoO6
_chemical_formula_sum   'Ba4 Cr2 Mo2 O12'
_cell_volume   270.24772717
_cell_formula_units_Z   2
loop_
 _symmetry_equiv_pos_site_id
 _symmetry_equiv_pos_as_xyz
  1  'x, y, z'
loop_
 _atom_site_type_symbol
 _atom_site_label
 _atom_site_symmetry_multiplicity
 _atom_site_fract_x
 _atom_site_fract_y
 _atom_site_fract_z
 _atom_site_occupancy
  Ba  Ba0  1  0.50004700  0.25000200  0.00004500  1
  Ba  Ba1  1  0.99999600  0.74999700  0.49988600  1
  Ba  Ba2  1  0.49999400  0.74999700  0.00001200  1
  Ba  Ba3  1  0.00004500  0.25000300  0.49993100  1
  Cr  Cr0  1  0.49993900  0.50023400  0.50037500  1
  Cr  Cr1  1  0.00002500  0.99980400  0.99990000  1
  Mo  Mo0  1  0.49998600  0.00009700  0.49990400  1
  Mo  Mo1  1  0.99997200  0.49983300  0.00016100  1
  O  O0  1  0.00000400  0.25621000  0.99991800  1
  O  O1  1  0.49999000  0.75618600  0.50004900  1
  O  O2  1  0.25008900  0.50001000  0.25009900  1
  O  O3  1  0.75012800  0.99997700  0.75011200  1
  O  O4  1  0.25012100  0.50000300  0.74987500  1
  O  O5  1  0.75013100  0.99997000  0.24984800  1
  O  O6  1  0.99996200  0.74388700  0.99993700  1
  O  O7  1  0.50003700  0.24381700  0.50001900  1
  O  O8  1  0.74987100  0.50000400  0.74987600  1
  O  O9  1  0.24987600  0.99997500  0.24985500  1
  O  O10  1  0.74990800  0.50001000  0.25009400  1
  O  O11  1  0.24987900  0.99998200  0.75010300  1
loop_
_geom_bond_atom_site_label_1
_geom_bond_atom_site_label_2
_geom_bond_distance
_geom_bond_site_symmetry_2
Ba0 O10 2.867713 1_555
Ba0 O5 2.867909 1_545
Ba0 O2 2.867982 1_555
Ba0 O8 2.868015 1_554
Ba0 O3 2.868083 1_544
Ba0 O9 2.868119 1_545
Ba0 O4 2.868351 1_554
Ba0 O11 2.868369 1_544
Ba0 O0 2.905247 1_654
Ba0 O7 2.905275 1_555
Ba0 O7 2.905571 1_554
Ba0 O0 2.905747 1_554
Ba1 O2 2.867477 1_655
Ba1 O10 2.867508 1_555
Ba1 O5 2.867626 1_555
Ba1 O9 2.867639 1_655
Ba1 O3 2.868067 1_555
Ba1 O11 2.868144 1_655
Ba1 O8 2.868324 1_555
Ba1 O4 2.868365 1_655
Ba1 O6 2.905114 1_554
Ba1 O1 2.905460 1_655
Ba1 O1 2.905529 1_555
Ba1 O6 2.905713 1_555
Ba2 O9 2.867664 1_555
Ba2 O5 2.867703 1_555
Ba2 O8 2.867901 1_554
Ba2 O2 2.867928 1_555
Ba2 O4 2.867929 1_554
Ba2 O10 2.867978 1_555
Ba2 O3 2.868013 1_554
Ba2 O11 2.868050 1_554
Ba2 O1 2.905212 1_554
Ba2 O6 2.905298 1_554
Ba2 O1 2.905636 1_555
Ba2 O6 2.905669 1_454
Ba3 O2 2.867699 1_555
Ba3 O9 2.867785 1_545
Ba3 O4 2.867992 1_555
Ba3 O10 2.868025 1_455
Ba3 O5 2.868109 1_445
Ba3 O11 2.868198 1_545
Ba3 O8 2.868258 1_455
Ba3 O3 2.868458 1_445
Ba3 O0 2.905348 1_555
Ba3 O7 2.905448 1_555
Ba3 O0 2.905505 1_554
Ba3 O7 2.905540 1_455
Cr0 O1 2.049074 1_555
Cr0 O4 2.051346 1_555
Cr0 O8 2.051868 1_555
Cr0 O7 2.052796 1_555
Cr0 O2 2.054715 1_555
Cr0 O10 2.055175 1_555
Cr1 O6 2.048792 1_455
Cr1 O0 2.052707 1_565
Cr1 O11 2.052714 1_555
Cr1 O3 2.052902 1_455
Cr1 O9 2.053399 1_556
Cr1 O5 2.053498 1_456
Mo0 O7 1.951147 1_555
Mo0 O1 1.952676 1_545
Mo0 O9 2.054849 1_545
Mo0 O5 2.054973 1_545
Mo0 O11 2.055404 1_545
Mo0 O3 2.055634 1_545
Mo1 O0 1.950371 1_654
Mo1 O6 1.953821 1_554
Mo1 O10 2.054135 1_555
Mo1 O2 2.054422 1_655
Mo1 O8 2.055782 1_554
Mo1 O4 2.055934 1_654
