# generated using pymatgen
data_SrCa7Mn7FeO20
_symmetry_space_group_name_H-M   'P 1'
_cell_length_a   10.90624572
_cell_length_b   11.13631050
_cell_length_c   17.21523419
_cell_angle_alpha   108.77637124
_cell_angle_beta   108.33950683
_cell_angle_gamma   90.10707644
_symmetry_Int_Tables_number   1
_chemical_formula_structural   SrCa7Mn7FeO20
_chemical_formula_sum   'Sr4 Ca28 Mn28 Fe4 O80'
_cell_volume   1866.64548599
_cell_formula_units_Z   4
loop_
 _symmetry_equiv_pos_site_id
 _symmetry_equiv_pos_as_xyz
  1  'x, y, z'
loop_
 _atom_site_type_symbol
 _atom_site_label
 _atom_site_symmetry_multiplicity
 _atom_site_fract_x
 _atom_site_fract_y
 _atom_site_fract_z
 _atom_site_occupancy
  Sr  Sr0  1  0.30771400  0.56126700  0.61000500  1
  Sr  Sr1  1  0.05767300  0.29901500  0.61090600  1
  Sr  Sr2  1  0.55968900  0.29941900  0.61128000  1
  Sr  Sr3  1  0.44735300  0.19993400  0.88846900  1
  Ca  Ca0  1  0.30588600  0.06387500  0.10867900  1
  Ca  Ca1  1  0.30469600  0.05924300  0.60439100  1
  Ca  Ca2  1  0.30632100  0.56452300  0.10873800  1
  Ca  Ca3  1  0.80553200  0.06256300  0.10755400  1
  Ca  Ca4  1  0.80508600  0.06121800  0.60644800  1
  Ca  Ca5  1  0.80729600  0.56392700  0.10890600  1
  Ca  Ca6  1  0.80725700  0.56345600  0.60652200  1
  Ca  Ca7  1  0.19779300  0.43643500  0.39175500  1
  Ca  Ca8  1  0.19819500  0.43798700  0.89446800  1
  Ca  Ca9  1  0.19875200  0.93581500  0.39123900  1
  Ca  Ca10  1  0.19740100  0.93719200  0.89280800  1
  Ca  Ca11  1  0.69955200  0.43657300  0.39251500  1
  Ca  Ca12  1  0.70011200  0.43817700  0.89498100  1
  Ca  Ca13  1  0.69896500  0.93629100  0.39210300  1
  Ca  Ca14  1  0.69973700  0.93697300  0.89327800  1
  Ca  Ca15  1  0.05704800  0.29416300  0.10836100  1
  Ca  Ca16  1  0.05625600  0.79347500  0.10804000  1
  Ca  Ca17  1  0.05583800  0.79578600  0.60687400  1
  Ca  Ca18  1  0.55746500  0.29552100  0.10936300  1
  Ca  Ca19  1  0.55614100  0.79411900  0.10840800  1
  Ca  Ca20  1  0.55643100  0.79575800  0.60667400  1
  Ca  Ca21  1  0.44884300  0.20487400  0.39177000  1
  Ca  Ca22  1  0.44892900  0.70609700  0.39237300  1
  Ca  Ca23  1  0.44915600  0.70718600  0.89435500  1
  Ca  Ca24  1  0.94825400  0.20541900  0.39171100  1
  Ca  Ca25  1  0.94982300  0.20599600  0.89164000  1
  Ca  Ca26  1  0.94893600  0.70544700  0.39205900  1
  Ca  Ca27  1  0.94804400  0.70604100  0.89278800  1
  Mn  Mn0  1  0.00486500  0.99864800  0.49880800  1
  Mn  Mn1  1  0.00377100  0.50018800  0.49783700  1
  Mn  Mn2  1  0.50581100  0.99847300  0.49855500  1
  Mn  Mn3  1  0.50636400  0.50124300  0.00139200  1
  Mn  Mn4  1  0.50503400  0.49953700  0.49766400  1
  Mn  Mn5  1  0.25574500  0.25107800  0.00096900  1
  Mn  Mn6  1  0.25367400  0.24718000  0.49687600  1
  Mn  Mn7  1  0.25582900  0.75074200  0.00049700  1
  Mn  Mn8  1  0.25474700  0.75007000  0.49792000  1
  Mn  Mn9  1  0.75698800  0.25047800  0.00069800  1
  Mn  Mn10  1  0.75449900  0.24884300  0.49828900  1
  Mn  Mn11  1  0.75554400  0.74995400  0.49925000  1
  Mn  Mn12  1  0.11033500  0.09601800  0.24924000  1
  Mn  Mn13  1  0.10772700  0.09319800  0.74913200  1
  Mn  Mn14  1  0.11211800  0.59651600  0.25015700  1
  Mn  Mn15  1  0.10947400  0.60147400  0.75208200  1
  Mn  Mn16  1  0.61099100  0.09715200  0.25040800  1
  Mn  Mn17  1  0.61418200  0.09259300  0.74884900  1
  Mn  Mn18  1  0.61139900  0.59670900  0.25092400  1
  Mn  Mn19  1  0.61644600  0.60210400  0.75238100  1
  Mn  Mn20  1  0.35992800  0.40501100  0.25061100  1
  Mn  Mn21  1  0.36340400  0.40528800  0.75268800  1
  Mn  Mn22  1  0.36080100  0.90303400  0.24991200  1
  Mn  Mn23  1  0.36047600  0.90142700  0.74826700  1
  Mn  Mn24  1  0.85962600  0.40391500  0.24943700  1
  Mn  Mn25  1  0.86441500  0.40287200  0.75143300  1
  Mn  Mn26  1  0.86085400  0.90295100  0.25070500  1
  Mn  Mn27  1  0.86069800  0.90123200  0.74928600  1
  Fe  Fe0  1  0.00571200  0.00022300  0.00001400  1
  Fe  Fe1  1  0.00653900  0.49986900  0.00051600  1
  Fe  Fe2  1  0.50571800  0.00077900  0.00169800  1
  Fe  Fe3  1  0.75599500  0.75020800  0.00133300  1
  O  O0  1  0.12248500  0.11690300  0.48516100  1
  O  O1  1  0.12453500  0.12246000  0.98831000  1
  O  O2  1  0.12097300  0.62154400  0.48552400  1
  O  O3  1  0.12545100  0.62268200  0.98722700  1
  O  O4  1  0.62228700  0.11749300  0.48454000  1
  O  O5  1  0.62923200  0.12106400  0.99062900  1
  O  O6  1  0.62342900  0.62095800  0.48761100  1
  O  O7  1  0.62251600  0.61899600  0.98950800  1
  O  O8  1  0.13905400  0.37867500  0.01428600  1
  O  O9  1  0.13046300  0.37616300  0.50464900  1
  O  O10  1  0.13689700  0.87998500  0.01289400  1
  O  O11  1  0.13478900  0.87896800  0.51050500  1
  O  O12  1  0.64026300  0.37997000  0.01497900  1
  O  O13  1  0.63609700  0.38060300  0.50848200  1
  O  O14  1  0.63418400  0.87913400  0.01321300  1
  O  O15  1  0.63591900  0.87824000  0.51151600  1
  O  O16  1  0.37144000  0.11454200  0.48604800  1
  O  O17  1  0.37082200  0.11900100  0.99109500  1
  O  O18  1  0.37339200  0.61916400  0.48616900  1
  O  O19  1  0.37216100  0.62119600  0.98814200  1
  O  O20  1  0.87166600  0.11487000  0.48575000  1
  O  O21  1  0.87370700  0.11883800  0.98729400  1
  O  O22  1  0.87274200  0.61839700  0.48682600  1
  O  O23  1  0.87245800  0.61590800  0.98683000  1
  O  O24  1  0.38588200  0.38549000  0.01497500  1
  O  O25  1  0.38244200  0.37870100  0.50492500  1
  O  O26  1  0.38423800  0.88131100  0.01351300  1
  O  O27  1  0.38580100  0.88150500  0.51119700  1
  O  O28  1  0.88581800  0.37959700  0.01322600  1
  O  O29  1  0.88088100  0.38329900  0.50885600  1
  O  O30  1  0.88639000  0.88357200  0.01340800  1
  O  O31  1  0.88524300  0.88127800  0.51218200  1
  O  O32  1  0.08118000  0.09510600  0.13406800  1
  O  O33  1  0.07678000  0.08346000  0.63016300  1
  O  O34  1  0.08126800  0.59514000  0.13173100  1
  O  O35  1  0.07359100  0.59100700  0.63207300  1
  O  O36  1  0.57997700  0.09612100  0.13385600  1
  O  O37  1  0.58068700  0.08492800  0.62987500  1
  O  O38  1  0.57874600  0.59496600  0.13318400  1
  O  O39  1  0.57735200  0.59001800  0.63291900  1
  O  O40  1  0.44655500  0.40765000  0.36620300  1
  O  O41  1  0.44917000  0.41198400  0.86941000  1
  O  O42  1  0.44621700  0.90529200  0.36716000  1
  O  O43  1  0.44625400  0.90975700  0.86678100  1
  O  O44  1  0.94376200  0.40671600  0.36525300  1
  O  O45  1  0.95318600  0.40338600  0.86888100  1
  O  O46  1  0.94479000  0.90624700  0.36758600  1
  O  O47  1  0.94756200  0.90587800  0.86632600  1
  O  O48  1  0.32931600  0.29055100  0.13562000  1
  O  O49  1  0.32246400  0.29278500  0.63280300  1
  O  O50  1  0.32855500  0.78847300  0.13172800  1
  O  O51  1  0.32575400  0.79357500  0.63012800  1
  O  O52  1  0.82977700  0.28892700  0.13268600  1
  O  O53  1  0.82146300  0.28729400  0.63014300  1
  O  O54  1  0.83083100  0.78836800  0.13517600  1
  O  O55  1  0.82704700  0.78880500  0.63114400  1
  O  O56  1  0.19437200  0.20765500  0.36474500  1
  O  O57  1  0.19145000  0.21089300  0.86592200  1
  O  O58  1  0.19709100  0.71339800  0.36916200  1
  O  O59  1  0.19712800  0.71570100  0.86984900  1
  O  O60  1  0.69628000  0.21072400  0.36775100  1
  O  O61  1  0.69559200  0.21197900  0.86793300  1
  O  O62  1  0.69703300  0.71241400  0.36931700  1
  O  O63  1  0.69780200  0.71376100  0.86697000  1
  O  O64  1  0.42542900  0.07326300  0.25021100  1
  O  O65  1  0.42522800  0.06451400  0.74191600  1
  O  O66  1  0.42501400  0.57347500  0.25050600  1
  O  O67  1  0.43610100  0.57549700  0.75713500  1
  O  O68  1  0.92653400  0.07375500  0.24980000  1
  O  O69  1  0.92224000  0.07303200  0.74901200  1
  O  O70  1  0.92456600  0.57223300  0.25033100  1
  O  O71  1  0.92575000  0.57582700  0.74987400  1
  O  O72  1  0.17658200  0.42320500  0.25018600  1
  O  O73  1  0.18420700  0.43669900  0.75779300  1
  O  O74  1  0.17385000  0.92683500  0.24965000  1
  O  O75  1  0.17542900  0.92442900  0.75070000  1
  O  O76  1  0.67463800  0.42471900  0.25031300  1
  O  O77  1  0.68350200  0.43907600  0.75890400  1
  O  O78  1  0.67710700  0.92583900  0.25005400  1
  O  O79  1  0.67725100  0.92135900  0.75030800  1
loop_
_geom_bond_atom_site_label_1
_geom_bond_atom_site_label_2
_geom_bond_distance
_geom_bond_site_symmetry_2
Ca0 O64 2.341745 1_555
Ca0 O48 2.412880 1_555
Ca0 O10 2.491814 1_545
Ca0 O26 2.508183 1_545
Ca0 O17 2.583884 1_554
Ca0 O32 2.626274 1_555
Ca0 O1 2.632013 1_554
Ca0 O36 2.886728 1_555
Ca1 O65 2.299653 1_555
Ca1 O11 2.467601 1_545
Ca1 O27 2.475786 1_545
Ca1 O49 2.482033 1_555
Ca1 O16 2.607481 1_555
Ca1 O0 2.619324 1_555
Ca1 O33 2.658535 1_555
Ca1 O37 2.901643 1_555
Ca2 O66 2.344524 1_555
Ca2 O50 2.395263 1_555
Ca2 O24 2.479847 1_555
Ca2 O8 2.491615 1_555
Ca2 O34 2.612483 1_555
Ca2 O3 2.639455 1_554
Ca2 O19 2.646510 1_554
Ca2 O38 2.870054 1_555
Ca3 O68 2.350098 1_555
Ca3 O52 2.415625 1_555
Ca3 O30 2.490785 1_545
Ca3 O14 2.498556 1_545
Ca3 O5 2.566421 1_554
Ca3 O36 2.644149 1_555
Ca3 O21 2.652157 1_554
Ca3 O32 2.898853 1_655
Ca4 O69 2.343383 1_555
Ca4 O53 2.414170 1_555
Ca4 O15 2.484295 1_545
Ca4 O31 2.493823 1_545
Ca4 O37 2.603245 1_555
Ca4 O20 2.636051 1_555
Ca4 O4 2.643898 1_555
Ca4 O33 2.859936 1_655
Ca5 O70 2.338154 1_555
Ca5 O54 2.390505 1_555
Ca5 O12 2.475865 1_555
Ca5 O28 2.525451 1_555
Ca5 O7 2.621386 1_554
Ca5 O23 2.641632 1_554
Ca5 O38 2.659538 1_555
Ca5 O34 2.893569 1_655
Ca6 O71 2.356436 1_555
Ca6 O55 2.404111 1_555
Ca6 O29 2.486143 1_555
Ca6 O13 2.504085 1_555
Ca6 O22 2.620413 1_555
Ca6 O6 2.624134 1_555
Ca6 O39 2.685953 1_555
Ca6 O35 2.798335 1_655
Ca7 O72 2.329983 1_555
Ca7 O56 2.436146 1_555
Ca7 O2 2.504518 1_555
Ca7 O18 2.519488 1_555
Ca7 O9 2.550086 1_555
Ca7 O25 2.570363 1_555
Ca7 O44 2.664099 1_455
Ca7 O40 2.884518 1_555
Ca8 O73 2.304769 1_555
Ca8 O57 2.412300 1_555
Ca8 O3 2.469594 1_555
Ca8 O19 2.510999 1_555
Ca8 O45 2.574677 1_455
Ca8 O8 2.611466 1_556
Ca8 O24 2.636007 1_556
Ca8 O41 2.903064 1_555
Ca9 O74 2.334845 1_555
Ca9 O58 2.381034 1_555
Ca9 O0 2.475201 1_565
Ca9 O16 2.476462 1_565
Ca9 O11 2.615234 1_555
Ca9 O27 2.636214 1_555
Ca9 O46 2.673277 1_455
Ca9 O42 2.861515 1_555
Ca10 O75 2.338743 1_555
Ca10 O59 2.368954 1_555
Ca10 O1 2.497207 1_565
Ca10 O17 2.511175 1_565
Ca10 O10 2.611472 1_556
Ca10 O47 2.620380 1_455
Ca10 O26 2.651414 1_556
Ca10 O43 2.887978 1_555
Ca11 O76 2.336107 1_555
Ca11 O60 2.410126 1_555
Ca11 O22 2.498661 1_555
Ca11 O6 2.506659 1_555
Ca11 O13 2.553809 1_555
Ca11 O29 2.559508 1_555
Ca11 O40 2.653037 1_555
Ca11 O44 2.848519 1_555
Ca12 O77 2.295372 1_555
Ca12 O61 2.407212 1_555
Ca12 O23 2.460050 1_555
Ca12 O7 2.486497 1_555
Ca12 O12 2.612034 1_556
Ca12 O41 2.631602 1_555
Ca12 O28 2.633763 1_556
Ca12 O45 2.939801 1_555
Ca13 O78 2.345251 1_555
Ca13 O62 2.394829 1_555
Ca13 O4 2.465813 1_565
Ca13 O20 2.472420 1_565
Ca13 O15 2.619177 1_555
Ca13 O31 2.636865 1_555
Ca13 O42 2.656723 1_555
Ca13 O46 2.846494 1_555
Ca14 O79 2.343648 1_555
Ca14 O63 2.377733 1_555
Ca14 O5 2.491573 1_565
Ca14 O21 2.502868 1_565
Ca14 O30 2.630879 1_556
Ca14 O14 2.640525 1_556
Ca14 O43 2.656493 1_555
Ca14 O47 2.886138 1_555
Ca15 O72 2.336049 1_555
Ca15 O32 2.395740 1_555
Ca15 O28 2.481936 1_455
Ca15 O8 2.489601 1_555
Ca15 O1 2.624464 1_554
Ca15 O21 2.626304 1_454
Ca15 O52 2.644040 1_455
Ca15 O48 2.859196 1_555
Ca16 O74 2.342691 1_555
Ca16 O34 2.373044 1_555
Ca16 O30 2.500555 1_455
Ca16 O10 2.510734 1_555
Ca16 O3 2.638049 1_554
Ca16 O23 2.641841 1_454
Ca16 O54 2.646738 1_455
Ca16 O50 2.870889 1_555
Ca17 O75 2.358261 1_555
Ca17 O35 2.451923 1_555
Ca17 O31 2.474378 1_455
Ca17 O11 2.497430 1_555
Ca17 O22 2.630804 1_455
Ca17 O2 2.638853 1_555
Ca17 O55 2.661418 1_455
Ca17 O51 2.844586 1_555
Ca18 O76 2.320634 1_555
Ca18 O36 2.389287 1_555
Ca18 O12 2.498773 1_555
Ca18 O24 2.507506 1_555
Ca18 O17 2.636977 1_554
Ca18 O5 2.649764 1_554
Ca18 O48 2.668736 1_555
Ca18 O52 2.873380 1_555
Ca19 O78 2.346065 1_555
Ca19 O38 2.388787 1_555
Ca19 O14 2.485975 1_555
Ca19 O26 2.495421 1_555
Ca19 O19 2.612618 1_554
Ca19 O7 2.623951 1_554
Ca19 O50 2.639834 1_555
Ca19 O54 2.888329 1_555
Ca20 O79 2.350147 1_555
Ca20 O39 2.471681 1_555
Ca20 O15 2.477549 1_555
Ca20 O27 2.483690 1_555
Ca20 O6 2.627506 1_555
Ca20 O18 2.628525 1_555
Ca20 O51 2.671759 1_555
Ca20 O55 2.851963 1_555
Ca21 O64 2.336634 1_555
Ca21 O40 2.434511 1_555
Ca21 O4 2.486357 1_555
Ca21 O16 2.503771 1_555
Ca21 O25 2.555752 1_555
Ca21 O13 2.628518 1_555
Ca21 O56 2.667749 1_555
Ca21 O60 2.859475 1_555
Ca22 O66 2.343008 1_555
Ca22 O42 2.392094 1_555
Ca22 O18 2.462462 1_555
Ca22 O6 2.500578 1_555
Ca22 O27 2.606371 1_555
Ca22 O15 2.619701 1_555
Ca22 O58 2.653531 1_555
Ca22 O62 2.859619 1_555
Ca23 O67 2.304063 1_555
Ca23 O43 2.448585 1_555
Ca23 O19 2.464647 1_555
Ca23 O7 2.513207 1_555
Ca23 O14 2.605864 1_556
Ca23 O26 2.613007 1_556
Ca23 O59 2.653150 1_555
Ca23 O63 2.899559 1_555
Ca24 O68 2.345837 1_555
Ca24 O44 2.424620 1_555
Ca24 O20 2.496819 1_555
Ca24 O0 2.504940 1_655
Ca24 O9 2.553293 1_655
Ca24 O29 2.626253 1_555
Ca24 O60 2.651151 1_555
Ca24 O56 2.865751 1_655
Ca25 O69 2.346256 1_555
Ca25 O45 2.355864 1_555
Ca25 O21 2.495802 1_555
Ca25 O1 2.504689 1_655
Ca25 O28 2.631644 1_556
Ca25 O8 2.654135 1_656
Ca25 O61 2.676749 1_555
Ca25 O57 2.809399 1_655
Ca26 O70 2.341963 1_555
Ca26 O46 2.403099 1_555
Ca26 O2 2.461093 1_655
Ca26 O22 2.481963 1_555
Ca26 O11 2.616936 1_655
Ca26 O31 2.625925 1_555
Ca26 O62 2.655283 1_555
Ca26 O58 2.860235 1_655
Ca27 O71 2.353831 1_555
Ca27 O47 2.410672 1_555
Ca27 O23 2.488166 1_555
Ca27 O3 2.499465 1_655
Ca27 O30 2.629356 1_556
Ca27 O63 2.629753 1_555
Ca27 O10 2.645096 1_656
Ca27 O59 2.872042 1_655
Mn0 O0 1.953856 1_565
Mn0 O20 1.955727 1_465
Mn0 O11 1.955760 1_555
Mn0 O31 1.959557 1_455
Mn0 O33 2.031488 1_565
Mn0 O46 2.039836 1_455
Mn1 O22 1.951465 1_455
Mn1 O29 1.959385 1_455
Mn1 O9 1.959601 1_555
Mn1 O2 1.963089 1_555
Mn1 O44 2.061418 1_455
Mn1 O35 2.080432 1_555
Mn2 O27 1.952589 1_555
Mn2 O4 1.954779 1_565
Mn2 O16 1.962763 1_565
Mn2 O15 1.963744 1_555
Mn2 O37 2.034389 1_565
Mn2 O42 2.043800 1_555
Mn3 O7 1.922441 1_554
Mn3 O24 1.955515 1_555
Mn3 O19 1.993018 1_554
Mn3 O12 2.001751 1_555
Mn3 O41 2.047313 1_554
Mn3 O38 2.050739 1_555
Mn4 O6 1.952027 1_555
Mn4 O25 1.954685 1_555
Mn4 O13 1.957164 1_555
Mn4 O18 1.968067 1_555
Mn4 O40 2.043055 1_555
Mn4 O39 2.095237 1_555
Mn5 O8 1.916248 1_555
Mn5 O1 1.934423 1_554
Mn5 O17 1.935890 1_554
Mn5 O24 1.964052 1_555
Mn5 O48 2.093479 1_555
Mn5 O57 2.097651 1_554
Mn6 O0 1.953186 1_555
Mn6 O16 1.961304 1_555
Mn6 O25 1.968730 1_555
Mn6 O9 1.970657 1_555
Mn6 O56 2.052986 1_555
Mn6 O49 2.103620 1_555
Mn7 O3 1.919939 1_554
Mn7 O26 1.926382 1_555
Mn7 O19 1.927527 1_554
Mn7 O10 1.944998 1_555
Mn7 O59 2.036833 1_554
Mn7 O50 2.041950 1_555
Mn8 O11 1.950452 1_555
Mn8 O27 1.951617 1_555
Mn8 O2 1.955100 1_555
Mn8 O18 1.955102 1_555
Mn8 O58 2.003663 1_555
Mn8 O51 2.047964 1_555
Mn9 O28 1.921037 1_555
Mn9 O5 1.930846 1_554
Mn9 O12 1.932921 1_555
Mn9 O21 1.948552 1_554
Mn9 O52 2.052743 1_555
Mn9 O61 2.064238 1_554
Mn10 O4 1.956864 1_555
Mn10 O29 1.958095 1_555
Mn10 O13 1.958381 1_555
Mn10 O20 1.969479 1_555
Mn10 O60 2.029879 1_555
Mn10 O53 2.049163 1_555
Mn11 O31 1.942616 1_555
Mn11 O15 1.942640 1_555
Mn11 O22 1.950188 1_555
Mn11 O6 1.950695 1_555
Mn11 O62 2.020928 1_555
Mn11 O55 2.050108 1_555
Mn12 O56 1.896580 1_555
Mn12 O32 1.903326 1_555
Mn12 O74 2.009974 1_545
Mn12 O68 2.022805 1_455
Mn13 O57 1.933351 1_555
Mn13 O33 1.934472 1_555
Mn13 O75 2.025738 1_545
Mn13 O69 2.034258 1_455
Mn14 O34 1.953989 1_555
Mn14 O58 1.958139 1_555
Mn14 O72 2.055441 1_555
Mn14 O70 2.063848 1_455
Mn15 O59 1.938537 1_555
Mn15 O35 1.941915 1_555
Mn15 O71 2.010207 1_455
Mn15 O73 2.027919 1_555
Mn16 O36 1.923156 1_555
Mn16 O60 1.927179 1_555
Mn16 O64 2.039505 1_555
Mn16 O78 2.039631 1_545
Mn17 O37 1.937062 1_555
Mn17 O61 1.963220 1_555
Mn17 O79 2.033458 1_545
Mn17 O65 2.043922 1_555
Mn18 O38 1.938044 1_555
Mn18 O62 1.947729 1_555
Mn18 O76 2.034904 1_555
Mn18 O66 2.046154 1_555
Mn19 O63 1.881549 1_555
Mn19 O39 1.923322 1_555
Mn19 O77 1.981951 1_555
Mn19 O67 2.019374 1_555
Mn20 O48 1.900828 1_555
Mn20 O40 1.905907 1_555
Mn20 O66 2.005374 1_555
Mn20 O72 2.008192 1_555
Mn21 O41 1.907529 1_555
Mn21 O49 1.944725 1_555
Mn21 O73 2.010096 1_555
Mn21 O67 2.022416 1_555
Mn22 O42 1.930430 1_555
Mn22 O50 1.941096 1_555
Mn22 O64 2.019169 1_565
Mn22 O74 2.055365 1_555
Mn23 O51 1.914004 1_555
Mn23 O43 1.929537 1_555
Mn23 O65 1.995203 1_565
Mn23 O75 2.046605 1_555
Mn24 O44 1.904406 1_555
Mn24 O52 1.927507 1_555
Mn24 O70 1.996245 1_555
Mn24 O76 2.035424 1_555
Mn25 O45 1.945790 1_555
Mn25 O53 1.971828 1_555
Mn25 O71 2.048839 1_555
Mn25 O77 2.049740 1_555
Mn26 O54 1.909428 1_555
Mn26 O46 1.918653 1_555
Mn26 O78 2.017594 1_555
Mn26 O68 2.037757 1_565
Mn27 O47 1.921296 1_555
Mn27 O55 1.930820 1_555
Mn27 O79 2.018591 1_555
Mn27 O69 2.028282 1_565
Fe0 O30 1.951818 1_445
Fe0 O21 1.964795 1_454
Fe0 O10 1.971742 1_545
Fe0 O1 1.976696 1_554
Fe0 O47 2.079718 1_444
Fe0 O32 2.086001 1_555
Fe1 O23 1.962152 1_454
Fe1 O28 1.984606 1_455
Fe1 O8 1.991015 1_555
Fe1 O3 1.996573 1_554
Fe1 O34 2.046438 1_555
Fe1 O45 2.056406 1_454
Fe2 O14 1.960271 1_545
Fe2 O26 1.975843 1_545
Fe2 O17 1.980920 1_554
Fe2 O5 1.991074 1_554
Fe2 O36 2.059526 1_555
Fe2 O43 2.092060 1_544
Fe3 O14 1.963983 1_555
Fe3 O30 1.969450 1_555
Fe3 O23 1.969467 1_554
Fe3 O7 1.977344 1_554
Fe3 O54 2.083438 1_555
Fe3 O63 2.094936 1_554
O0 Sr1 2.727782 1_555
O2 Sr0 2.715776 1_555
O4 Sr2 2.725458 1_555
O5 Sr3 2.569981 1_555
O9 Sr1 2.576328 1_555
O9 Sr0 2.578325 1_555
O12 Sr3 2.734825 1_554
O13 Sr2 2.568816 1_555
O16 Sr2 2.728245 1_555
O17 Sr3 2.565263 1_555
O18 Sr0 2.705135 1_555
O20 Sr1 2.711551 1_655
O24 Sr3 2.736672 1_554
O25 Sr0 2.576145 1_555
O25 Sr2 2.586198 1_555
O29 Sr1 2.573273 1_655
O33 Sr1 2.527124 1_555
O35 Sr0 2.703053 1_555
O35 Sr1 3.151485 1_555
O37 Sr2 2.511706 1_555
O39 Sr0 2.844510 1_555
O39 Sr2 3.134535 1_555
O41 Sr3 2.487411 1_555
O43 Sr3 3.130891 1_565
O49 Sr2 2.730695 1_555
O49 Sr1 2.796295 1_555
O49 Sr0 3.136381 1_555
O51 Sr0 2.495964 1_555
O53 Sr1 2.706803 1_655
O53 Sr2 2.778632 1_555
O57 Sr3 2.702768 1_555
O61 Sr3 2.846795 1_555
O65 Sr3 2.421563 1_555
O67 Sr0 2.431076 1_555
O73 Sr1 2.439228 1_555
O77 Sr2 2.447249 1_555
