# generated using pymatgen
data_Cr3Si5
_symmetry_space_group_name_H-M   'P 1'
_cell_length_a   4.70970400
_cell_length_b   6.96598733
_cell_length_c   6.96598733
_cell_angle_alpha   83.43802852
_cell_angle_beta   70.24188615
_cell_angle_gamma   70.24188615
_symmetry_Int_Tables_number   1
_chemical_formula_structural   Cr3Si5
_chemical_formula_sum   'Cr6 Si10'
_cell_volume   202.42143656
_cell_formula_units_Z   2
loop_
 _symmetry_equiv_pos_site_id
 _symmetry_equiv_pos_as_xyz
  1  'x, y, z'
loop_
 _atom_site_type_symbol
 _atom_site_label
 _atom_site_symmetry_multiplicity
 _atom_site_fract_x
 _atom_site_fract_y
 _atom_site_fract_z
 _atom_site_occupancy
  Cr  Cr0  1  0.67276600  0.15446900  0.50000000  1
  Cr  Cr1  1  0.32723400  0.84553100  0.50000000  1
  Cr  Cr2  1  0.82723400  0.50000000  0.84553100  1
  Cr  Cr3  1  0.17276600  0.50000000  0.15446900  1
  Cr  Cr4  1  0.25000000  0.00000000  0.00000000  1
  Cr  Cr5  1  0.75000000  0.00000000  0.00000000  1
  Si  Si0  1  0.23474700  0.69550400  0.83500300  1
  Si  Si1  1  0.76525300  0.30449600  0.16499700  1
  Si  Si2  1  0.26525300  0.16499700  0.30449600  1
  Si  Si3  1  0.73474700  0.83500300  0.69550400  1
  Si  Si4  1  0.06974900  0.16499700  0.69550400  1
  Si  Si5  1  0.93025100  0.83500300  0.30449600  1
  Si  Si6  1  0.56974900  0.69550400  0.16499700  1
  Si  Si7  1  0.43025100  0.30449600  0.83500300  1
  Si  Si8  1  0.75000000  0.50000000  0.50000000  1
  Si  Si9  1  0.25000000  0.50000000  0.50000000  1
loop_
_geom_bond_atom_site_label_1
_geom_bond_atom_site_label_2
_geom_bond_distance
_geom_bond_site_symmetry_2
Cr0 Si7 2.406422 1_555
Cr0 Si1 2.406422 1_555
Cr0 Si5 2.455443 1_545
Cr0 Si3 2.455443 1_545
Cr0 Si8 2.552986 1_555
Cr0 Si9 2.552988 1_555
Cr0 Si4 2.681945 1_655
Cr0 Si2 2.681945 1_655
Cr0 Si4 2.681953 1_555
Cr0 Si2 2.681953 1_555
Cr1 Si6 2.406422 1_555
Cr1 Si0 2.406422 1_555
Cr1 Si4 2.455443 1_565
Cr1 Si2 2.455443 1_565
Cr1 Si9 2.552986 1_555
Cr1 Si8 2.552988 1_555
Cr1 Si3 2.681945 1_455
Cr1 Si5 2.681945 1_455
Cr1 Si3 2.681953 1_555
Cr1 Si5 2.681953 1_555
Cr2 Si4 2.406422 1_655
Cr2 Si3 2.406422 1_555
Cr2 Si1 2.455443 1_556
Cr2 Si6 2.455443 1_556
Cr2 Si8 2.552986 1_555
Cr2 Si9 2.552988 1_655
Cr2 Si7 2.681945 1_555
Cr2 Si0 2.681945 1_555
Cr2 Si0 2.681953 1_655
Cr2 Si7 2.681953 1_655
Cr3 Si5 2.406422 1_455
Cr3 Si2 2.406422 1_555
Cr3 Si0 2.455443 1_554
Cr3 Si7 2.455443 1_554
Cr3 Si9 2.552986 1_555
Cr3 Si8 2.552988 1_455
Cr3 Si1 2.681945 1_555
Cr3 Si6 2.681945 1_555
Cr3 Si1 2.681953 1_455
Cr3 Si6 2.681953 1_455
Cr4 Cr5 2.354852 1_455
Cr4 Cr5 2.354852 1_555
Cr4 Si2 2.557613 1_555
Cr4 Si6 2.557613 1_545
Cr4 Si5 2.557613 1_445
Cr4 Si0 2.557613 1_544
Cr4 Si3 2.557615 1_544
Cr4 Si1 2.557615 1_455
Cr4 Si7 2.557615 1_554
Cr4 Si4 2.557615 1_554
Cr5 Si4 2.557613 1_654
Cr5 Si1 2.557613 1_555
Cr5 Si7 2.557613 1_554
Cr5 Si3 2.557613 1_544
Cr5 Si0 2.557615 1_644
Cr5 Si5 2.557615 1_545
Cr5 Si6 2.557615 1_545
Cr5 Si2 2.557615 1_555
Si0 Si7 2.563404 1_555
Si0 Si3 2.686651 1_555
Si0 Si3 2.686651 1_455
Si0 Si8 2.802243 1_555
Si0 Si9 2.802245 1_555
Si1 Si6 2.563404 1_555
Si1 Si2 2.686651 1_655
Si1 Si2 2.686651 1_555
Si1 Si9 2.802243 1_555
Si1 Si8 2.802245 1_555
Si2 Si4 2.563404 1_555
Si2 Si8 2.802243 1_455
Si2 Si9 2.802245 1_555
Si3 Si5 2.563404 1_555
Si3 Si9 2.802243 1_655
Si3 Si8 2.802245 1_555
Si4 Si7 2.686647 1_455
Si4 Si7 2.686655 1_555
Si4 Si8 2.802243 1_455
Si4 Si9 2.802245 1_555
Si5 Si6 2.686647 1_655
Si5 Si6 2.686655 1_555
Si5 Si9 2.802243 1_655
Si5 Si8 2.802245 1_555
Si6 Si9 2.802243 1_555
Si6 Si8 2.802245 1_555
Si7 Si8 2.802243 1_555
Si7 Si9 2.802245 1_555
Si8 Si9 2.354852 1_555
Si8 Si9 2.354852 1_655
