# generated using pymatgen
data_SnSbPt
_symmetry_space_group_name_H-M   'P 1'
_cell_length_a   3.94702091
_cell_length_b   5.39830872
_cell_length_c   6.67260574
_cell_angle_alpha   88.24691204
_cell_angle_beta   90.00000000
_cell_angle_gamma   90.00000000
_symmetry_Int_Tables_number   1
_chemical_formula_structural   SnSbPt
_chemical_formula_sum   'Sn2 Sb2 Pt2'
_cell_volume   142.10824861
_cell_formula_units_Z   2
loop_
 _symmetry_equiv_pos_site_id
 _symmetry_equiv_pos_as_xyz
  1  'x, y, z'
loop_
 _atom_site_type_symbol
 _atom_site_label
 _atom_site_symmetry_multiplicity
 _atom_site_fract_x
 _atom_site_fract_y
 _atom_site_fract_z
 _atom_site_occupancy
  Sn  Sn0  1  -0.00000000  0.79163181  0.63918321  1
  Sn  Sn1  1  -0.00000000  0.20836819  0.36081679  1
  Sb  Sb0  1  0.50000000  0.29421267  0.86626097  1
  Sb  Sb1  1  0.50000000  0.70578733  0.13373903  1
  Pt  Pt0  1  0.50000000  0.50000000  0.50000000  1
  Pt  Pt1  1  0.00000000  0.00000000  0.00000000  1
loop_
_geom_bond_atom_site_label_1
_geom_bond_atom_site_label_2
_geom_bond_distance
_geom_bond_site_symmetry_2
Sn0 Sn1 2.873221 1_565
Sb0 Sb1 2.892140 1_556
Pt0 Sb0 2.653434 1_555
Pt0 Sb1 2.653434 1_555
Pt0 Sn1 2.706509 1_555
Pt0 Sn1 2.706509 1_655
Pt0 Sn0 2.706509 1_655
Pt0 Sn0 2.706509 1_555
Pt1 Sb1 2.669629 1_445
Pt1 Sb0 2.669629 1_554
Pt1 Sb1 2.669629 1_545
Pt1 Sb0 2.669629 1_454
Pt1 Sn0 2.688389 1_544
Pt1 Sn1 2.688389 1_555
