# generated using pymatgen
data_GaHSeO4
_symmetry_space_group_name_H-M   'P 1'
_cell_length_a   4.44080120
_cell_length_b   6.06216389
_cell_length_c   11.64012806
_cell_angle_alpha   90.00000000
_cell_angle_beta   90.00000000
_cell_angle_gamma   90.00000000
_symmetry_Int_Tables_number   1
_chemical_formula_structural   GaHSeO4
_chemical_formula_sum   'Ga4 H4 Se4 O16'
_cell_volume   313.36231233
_cell_formula_units_Z   4
loop_
 _symmetry_equiv_pos_site_id
 _symmetry_equiv_pos_as_xyz
  1  'x, y, z'
loop_
 _atom_site_type_symbol
 _atom_site_label
 _atom_site_symmetry_multiplicity
 _atom_site_fract_x
 _atom_site_fract_y
 _atom_site_fract_z
 _atom_site_occupancy
  Ga  Ga0  1  -0.00000000  0.50000000  0.00000000  1
  Ga  Ga1  1  0.50000000  -0.00000000  0.50000000  1
  Ga  Ga2  1  -0.00000000  -0.00000000  0.00000000  1
  Ga  Ga3  1  0.50000000  0.50000000  0.50000000  1
  H  H0  1  0.40714125  0.75000000  0.07542021  1
  H  H1  1  0.09285875  0.75000000  0.57542021  1
  H  H2  1  0.59285875  0.25000000  0.92457979  1
  H  H3  1  0.90714125  0.25000000  0.42457979  1
  Se  Se0  1  0.47984287  0.75000000  0.82608007  1
  Se  Se1  1  0.02015713  0.75000000  0.32608007  1
  Se  Se2  1  0.52015713  0.25000000  0.17391993  1
  Se  Se3  1  0.97984287  0.25000000  0.67391993  1
  O  O0  1  0.73471707  0.75000000  0.94532110  1
  O  O1  1  0.76528293  0.75000000  0.44532110  1
  O  O2  1  0.26528293  0.25000000  0.05467890  1
  O  O3  1  0.23471707  0.25000000  0.55467890  1
  O  O4  1  0.18784731  0.75000000  0.07851366  1
  O  O5  1  0.31215269  0.75000000  0.57851366  1
  O  O6  1  0.81215269  0.25000000  0.92148634  1
  O  O7  1  0.68784731  0.25000000  0.42148634  1
  O  O8  1  0.26784172  0.52917623  0.86407076  1
  O  O9  1  0.23215828  0.97082377  0.36407076  1
  O  O10  1  0.73215828  0.02917623  0.13592924  1
  O  O11  1  0.76784172  0.47082377  0.63592924  1
  O  O12  1  0.73215828  0.47082377  0.13592924  1
  O  O13  1  0.76784172  0.02917623  0.63592924  1
  O  O14  1  0.26784172  0.97082377  0.86407076  1
  O  O15  1  0.23215828  0.52917623  0.36407076  1
loop_
_geom_bond_atom_site_label_1
_geom_bond_atom_site_label_2
_geom_bond_distance
_geom_bond_site_symmetry_2
Ga0 O6 1.956520 1_454
Ga0 O4 1.956520 1_555
Ga0 O8 1.987334 1_554
Ga0 O12 1.987334 1_455
Ga0 O2 2.022326 1_555
Ga0 O0 2.022326 1_454
Ga1 O7 1.956520 1_555
Ga1 O5 1.956520 1_545
Ga1 O9 1.987334 1_545
Ga1 O13 1.987334 1_555
Ga1 O3 2.022326 1_555
Ga1 O1 2.022326 1_545
Ga2 O6 1.956520 1_454
Ga2 O4 1.956520 1_545
Ga2 O14 1.987334 1_544
Ga2 O10 1.987334 1_455
Ga2 O2 2.022326 1_555
Ga2 O0 2.022326 1_444
Ga3 O7 1.956520 1_555
Ga3 O5 1.956520 1_555
Ga3 O15 1.987334 1_555
Ga3 O11 1.987334 1_555
Ga3 O3 2.022326 1_555
Ga3 O1 2.022326 1_555
H0 O4 0.974506 1_555
H1 O5 0.974506 1_555
H2 O6 0.974506 1_555
H3 O7 0.974506 1_555
O0 Se0 1.790968 1_555
O1 Se1 1.790968 1_655
O2 Se2 1.790968 1_555
O3 Se3 1.790968 1_455
O8 Se0 1.695267 1_555
O9 Se1 1.695267 1_555
O10 Se2 1.695267 1_555
O11 Se3 1.695267 1_555
O12 Se2 1.695267 1_555
O13 Se3 1.695267 1_555
O14 Se0 1.695267 1_555
O15 Se1 1.695267 1_555
