# generated using pymatgen
data_CaO
_symmetry_space_group_name_H-M   'P 1'
_cell_length_a   11.30528316
_cell_length_b   12.13049363
_cell_length_c   12.39780361
_cell_angle_alpha   98.17917486
_cell_angle_beta   83.34033848
_cell_angle_gamma   89.41064481
_symmetry_Int_Tables_number   1
_chemical_formula_structural   CaO
_chemical_formula_sum   'Ca50 O50'
_cell_volume   1670.94770254
_cell_formula_units_Z   50
loop_
 _symmetry_equiv_pos_site_id
 _symmetry_equiv_pos_as_xyz
  1  'x, y, z'
loop_
 _atom_site_type_symbol
 _atom_site_label
 _atom_site_symmetry_multiplicity
 _atom_site_fract_x
 _atom_site_fract_y
 _atom_site_fract_z
 _atom_site_occupancy
  Ca  Ca0  1  0.38779111  0.26900102  0.53120212  1
  Ca  Ca1  1  0.29171294  0.01202929  0.56686431  1
  Ca  Ca2  1  0.21648432  0.97256522  0.84671956  1
  Ca  Ca3  1  0.15489654  0.20970353  0.06017642  1
  Ca  Ca4  1  0.51665869  0.68522279  0.21454583  1
  Ca  Ca5  1  0.67488681  0.86462680  0.40309251  1
  Ca  Ca6  1  0.26863914  0.47647956  0.40263867  1
  Ca  Ca7  1  0.49390742  0.03042800  0.33514117  1
  Ca  Ca8  1  0.35282519  0.20460717  0.82561531  1
  Ca  Ca9  1  0.03487023  0.87910221  0.00720747  1
  Ca  Ca10  1  0.59598718  0.47182658  0.01481556  1
  Ca  Ca11  1  0.32203123  0.75953235  0.46102356  1
  Ca  Ca12  1  0.19578440  0.47021855  0.64331048  1
  Ca  Ca13  1  0.66269661  0.36418970  0.50054664  1
  Ca  Ca14  1  0.62722251  0.10369837  0.54706808  1
  Ca  Ca15  1  0.03323037  0.45099666  0.98860260  1
  Ca  Ca16  1  0.04730728  0.89567117  0.66561254  1
  Ca  Ca17  1  0.89835145  0.16506505  0.98665530  1
  Ca  Ca18  1  0.64840668  0.64253622  0.71862645  1
  Ca  Ca19  1  0.92292477  0.00414397  0.46726410  1
  Ca  Ca20  1  0.99087379  0.06991088  0.21303850  1
  Ca  Ca21  1  0.91932260  0.53919605  0.55602184  1
  Ca  Ca22  1  0.72410574  0.58486193  0.38213529  1
  Ca  Ca23  1  0.98697785  0.66533379  0.79117252  1
  Ca  Ca24  1  0.22920274  0.68859895  0.12575068  1
  Ca  Ca25  1  0.83934740  0.40581074  0.78440085  1
  Ca  Ca26  1  0.57711954  0.15598147  0.02518662  1
  Ca  Ca27  1  0.53065468  0.42747674  0.29237338  1
  Ca  Ca28  1  0.54306060  0.32139321  0.73289191  1
  Ca  Ca29  1  0.32954872  0.48696013  0.85880629  1
  Ca  Ca30  1  0.46626351  0.75073381  0.91727208  1
  Ca  Ca31  1  0.04997767  0.46624579  0.24966096  1
  Ca  Ca32  1  0.51201182  0.89350157  0.66520779  1
  Ca  Ca33  1  0.17509725  0.93674385  0.31905057  1
  Ca  Ca34  1  0.78211514  0.64479909  0.00392843  1
  Ca  Ca35  1  0.92049637  0.73717860  0.23020916  1
  Ca  Ca36  1  0.71858986  0.18407027  0.29942432  1
  Ca  Ca37  1  0.02748284  0.30775743  0.49641296  1
  Ca  Ca38  1  0.04794547  0.71862137  0.43380306  1
  Ca  Ca39  1  0.77785997  0.90352723  0.85275973  1
  Ca  Ca40  1  0.78835442  0.40152636  0.14920504  1
  Ca  Ca41  1  0.78644262  0.14202913  0.75224313  1
  Ca  Ca42  1  0.47498752  0.59562097  0.55076263  1
  Ca  Ca43  1  0.35132305  0.00861770  0.08154632  1
  Ca  Ca44  1  0.11194581  0.26733103  0.76790279  1
  Ca  Ca45  1  0.26202668  0.71743666  0.74708980  1
  Ca  Ca46  1  0.79938477  0.80169051  0.58902191  1
  Ca  Ca47  1  0.36987943  0.34309323  0.06764007  1
  Ca  Ca48  1  0.22442423  0.20050663  0.32519427  1
  Ca  Ca49  1  0.71734021  0.94502416  0.12571119  1
  O  O0  1  0.30842509  0.05968933  0.39174044  1
  O  O1  1  0.15577919  0.57055922  0.81769621  1
  O  O2  1  0.21894034  0.31958526  0.49106658  1
  O  O3  1  0.72030398  0.53280148  0.55798302  1
  O  O4  1  0.33716842  0.35077360  0.70948359  1
  O  O5  1  0.79326139  0.60434282  0.81846995  1
  O  O6  1  0.02723505  0.13943966  0.38867279  1
  O  O7  1  0.48302461  0.37489121  0.90370005  1
  O  O8  1  0.84156068  0.82068374  0.99646086  1
  O  O9  1  0.20378154  0.33920380  0.93545485  1
  O  O10  1  0.50434778  0.95712537  0.49718475  1
  O  O11  1  0.25834322  0.37067042  0.23277043  1
  O  O12  1  0.19148724  0.08509230  0.18129275  1
  O  O13  1  0.44475764  0.62372081  0.76447033  1
  O  O14  1  0.00110577  0.41886796  0.66432879  1
  O  O15  1  0.61916755  0.74759285  0.54654032  1
  O  O16  1  0.73712768  0.07977418  0.91337929  1
  O  O17  1  0.30436170  0.85853661  0.95851026  1
  O  O18  1  0.85610753  0.97312635  0.66032510  1
  O  O19  1  0.61803548  0.82367890  0.79885129  1
  O  O20  1  0.75573806  0.04009057  0.39562294  1
  O  O21  1  0.55688070  0.19601919  0.42771884  1
  O  O22  1  0.36865820  0.15719244  0.99491713  1
  O  O23  1  0.51664269  0.13589493  0.71202641  1
  O  O24  1  0.87507558  0.82349305  0.42047830  1
  O  O25  1  0.20919342  0.10497937  0.73231808  1
  O  O26  1  0.06345658  0.05854164  0.98211546  1
  O  O27  1  0.64480473  0.82349190  0.23309135  1
  O  O28  1  0.45661889  0.61204312  0.36772695  1
  O  O29  1  0.92536348  0.24683464  0.82639170  1
  O  O30  1  0.13088269  0.89853588  0.49604564  1
  O  O31  1  0.08155459  0.83004277  0.81945330  1
  O  O32  1  0.26804152  0.62176124  0.56379560  1
  O  O33  1  0.72772118  0.28101124  0.64981883  1
  O  O34  1  0.43442277  0.62795521  0.04888881  1
  O  O35  1  0.47288314  0.42069143  0.47951148  1
  O  O36  1  0.03215991  0.88209343  0.19495976  1
  O  O37  1  0.81781567  0.45914524  0.97805905  1
  O  O38  1  0.66950180  0.56262904  0.17758442  1
  O  O39  1  0.96515787  0.71579123  0.62042742  1
  O  O40  1  0.06863521  0.47553483  0.43148715  1
  O  O41  1  0.23038195  0.74483643  0.30323310  1
  O  O42  1  0.72023485  0.38113498  0.32634538  1
  O  O43  1  0.56701456  0.33396099  0.11779586  1
  O  O44  1  0.31672424  0.86865889  0.66767513  1
  O  O45  1  0.81711460  0.10678580  0.14652745  1
  O  O46  1  0.91221275  0.60071258  0.33798788  1
  O  O47  1  0.98346513  0.32959614  0.11573817  1
  O  O48  1  0.53386455  0.03595892  0.14698442  1
  O  O49  1  0.05844966  0.59850453  0.11714657  1
loop_
_geom_bond_atom_site_label_1
_geom_bond_atom_site_label_2
_geom_bond_distance
_geom_bond_site_symmetry_2
Ca0 O2 2.133338 1_555
Ca0 O35 2.225076 1_555
Ca0 O21 2.270938 1_555
Ca0 O4 2.295207 1_555
Ca1 O25 2.285985 1_555
Ca1 O0 2.312597 1_555
Ca1 O44 2.314526 1_545
Ca1 O30 2.459687 1_545
Ca1 O10 2.508039 1_545
Ca2 O25 2.295889 1_565
Ca2 O31 2.331892 1_555
Ca2 O17 2.378607 1_555
Ca2 O26 2.385289 1_565
Ca2 O44 2.528105 1_555
Ca3 O26 2.265766 1_554
Ca3 O12 2.342610 1_555
Ca3 O9 2.382212 1_554
Ca3 O47 2.386026 1_455
Ca3 O22 2.503730 1_554
Ca4 O38 2.230887 1_555
Ca4 O27 2.232137 1_555
Ca4 O28 2.246878 1_555
Ca4 O34 2.369632 1_555
Ca5 O27 2.162706 1_555
Ca5 O10 2.323439 1_555
Ca5 O20 2.334713 1_565
Ca5 O24 2.353292 1_555
Ca5 O15 2.460101 1_555
Ca6 O40 2.248278 1_555
Ca6 O11 2.320985 1_555
Ca6 O2 2.369092 1_555
Ca6 O32 2.468315 1_555
Ca6 O35 2.712882 1_555
Ca6 O28 2.732940 1_555
Ca7 O0 2.141969 1_555
Ca7 O10 2.324168 1_545
Ca7 O21 2.328524 1_555
Ca7 O48 2.334724 1_555
Ca8 O23 2.266531 1_555
Ca8 O22 2.279708 1_555
Ca8 O25 2.348072 1_555
Ca8 O4 2.455016 1_555
Ca8 O9 2.477482 1_555
Ca8 O7 2.682290 1_555
Ca9 O26 2.263408 1_564
Ca9 O31 2.316357 1_554
Ca9 O8 2.317006 1_454
Ca9 O36 2.319465 1_555
Ca10 O7 2.211194 1_554
Ca10 O43 2.248551 1_555
Ca10 O38 2.398248 1_555
Ca10 O37 2.495517 1_554
Ca10 O34 2.573677 1_555
Ca11 O32 2.288125 1_555
Ca11 O41 2.303684 1_555
Ca11 O28 2.408509 1_555
Ca11 O30 2.683411 1_555
Ca11 O44 2.705109 1_555
Ca12 O14 2.289374 1_555
Ca12 O1 2.318065 1_555
Ca12 O32 2.319090 1_555
Ca12 O2 2.421614 1_555
Ca12 O4 2.433521 1_555
Ca13 O3 2.198908 1_555
Ca13 O42 2.221028 1_555
Ca13 O35 2.300662 1_555
Ca13 O33 2.411426 1_555
Ca13 O21 2.486869 1_555
Ca14 O21 2.191367 1_555
Ca14 O23 2.251128 1_555
Ca14 O20 2.272358 1_555
Ca14 O10 2.326081 1_545
Ca14 O33 2.673263 1_555
Ca15 O49 2.264352 1_556
Ca15 O9 2.321238 1_555
Ca15 O47 2.332694 1_456
Ca15 O37 2.455651 1_455
Ca15 O1 2.957608 1_555
Ca16 O30 2.207753 1_555
Ca16 O31 2.240182 1_555
Ca16 O18 2.359676 1_455
Ca16 O39 2.398367 1_455
Ca17 O26 2.249948 1_655
Ca17 O45 2.293835 1_556
Ca17 O16 2.318042 1_555
Ca17 O29 2.334790 1_555
Ca17 O47 2.637847 1_556
Ca18 O5 2.246433 1_555
Ca18 O19 2.284491 1_555
Ca18 O3 2.290653 1_555
Ca18 O13 2.328084 1_555
Ca18 O15 2.685825 1_555
Ca19 O20 2.243681 1_555
Ca19 O24 2.273044 1_545
Ca19 O6 2.293882 1_655
Ca19 O18 2.506774 1_545
Ca19 O30 2.749270 1_645
Ca20 O12 2.270414 1_655
Ca20 O45 2.280674 1_555
Ca20 O36 2.295079 1_645
Ca20 O6 2.305198 1_655
Ca20 O26 2.868659 1_654
Ca21 O40 2.204315 1_655
Ca21 O3 2.249528 1_555
Ca21 O39 2.264323 1_555
Ca21 O14 2.367763 1_655
Ca21 O46 2.914346 1_555
Ca22 O46 2.151131 1_555
Ca22 O3 2.350359 1_555
Ca22 O42 2.471956 1_555
Ca22 O38 2.656489 1_555
Ca22 O15 2.775745 1_555
Ca22 O28 3.067055 1_555
Ca23 O31 2.278100 1_655
Ca23 O1 2.297745 1_655
Ca23 O5 2.321803 1_555
Ca23 O39 2.324496 1_555
Ca24 O41 2.210692 1_555
Ca24 O49 2.233891 1_555
Ca24 O34 2.466695 1_555
Ca25 O14 2.242091 1_655
Ca25 O29 2.302196 1_555
Ca25 O37 2.379400 1_555
Ca25 O5 2.425580 1_555
Ca25 O33 2.545056 1_555
Ca26 O16 2.251150 1_554
Ca26 O48 2.260084 1_555
Ca26 O43 2.291653 1_555
Ca26 O22 2.429226 1_554
Ca27 O43 2.285997 1_555
Ca27 O42 2.310608 1_555
Ca27 O35 2.349509 1_555
Ca27 O28 2.402261 1_555
Ca27 O38 2.715843 1_555
Ca28 O7 2.152388 1_555
Ca28 O33 2.235094 1_555
Ca28 O23 2.255121 1_555
Ca28 O4 2.407973 1_555
Ca29 O4 2.292083 1_555
Ca29 O1 2.342178 1_555
Ca29 O7 2.357793 1_555
Ca29 O13 2.461646 1_555
Ca29 O9 2.522073 1_555
Ca29 O34 3.070423 1_556
Ca30 O17 2.205700 1_555
Ca30 O13 2.303426 1_555
Ca30 O34 2.361508 1_556
Ca30 O19 2.387282 1_555
Ca31 O40 2.275370 1_555
Ca31 O46 2.308555 1_455
Ca31 O47 2.366856 1_455
Ca31 O49 2.449262 1_555
Ca31 O11 2.587920 1_555
Ca32 O44 2.228608 1_555
Ca32 O10 2.332485 1_555
Ca32 O15 2.359303 1_555
Ca32 O19 2.395500 1_555
Ca32 O23 2.917176 1_565
Ca33 O0 2.299404 1_565
Ca33 O30 2.306423 1_555
Ca33 O41 2.379097 1_555
Ca33 O36 2.392921 1_555
Ca33 O12 2.645288 1_565
Ca33 O6 2.926084 1_565
Ca34 O37 2.254628 1_554
Ca34 O8 2.254684 1_554
Ca34 O5 2.270210 1_554
Ca34 O38 2.692687 1_555
Ca35 O36 2.238540 1_655
Ca35 O46 2.266751 1_555
Ca35 O24 2.435093 1_555
Ca35 O49 2.448465 1_655
Ca36 O45 2.167014 1_555
Ca36 O21 2.268837 1_555
Ca36 O20 2.311492 1_555
Ca36 O42 2.366755 1_555
Ca37 O2 2.164665 1_555
Ca37 O6 2.275530 1_555
Ca37 O14 2.299730 1_555
Ca37 O40 2.324922 1_555
Ca38 O24 2.355554 1_455
Ca38 O39 2.398229 1_455
Ca38 O46 2.407492 1_455
Ca38 O30 2.443038 1_555
Ca38 O41 2.522110 1_555
Ca38 O40 2.951420 1_555
Ca39 O19 2.186669 1_555
Ca39 O16 2.188617 1_565
Ca39 O8 2.344069 1_555
Ca39 O18 2.699295 1_555
Ca40 O42 2.289879 1_555
Ca40 O37 2.316138 1_554
Ca40 O38 2.321426 1_555
Ca40 O47 2.333257 1_555
Ca40 O43 2.694870 1_555
Ca41 O29 2.229660 1_555
Ca41 O16 2.247592 1_555
Ca41 O18 2.282781 1_545
Ca41 O33 2.382684 1_555
Ca42 O35 2.180882 1_555
Ca42 O28 2.338661 1_555
Ca42 O32 2.341535 1_555
Ca42 O15 2.475395 1_555
Ca42 O13 2.604511 1_555
Ca42 O3 2.883368 1_555
Ca43 O12 2.185373 1_555
Ca43 O22 2.224716 1_554
Ca43 O17 2.310978 1_544
Ca43 O48 2.313617 1_555
Ca44 O29 2.178159 1_455
Ca44 O25 2.208537 1_555
Ca44 O9 2.481261 1_555
Ca44 O14 2.756011 1_555
Ca44 O4 2.804667 1_555
Ca45 O44 2.261151 1_555
Ca45 O1 2.372216 1_555
Ca45 O32 2.393262 1_555
Ca45 O13 2.393963 1_555
Ca45 O31 2.450088 1_555
Ca46 O24 2.217129 1_555
Ca46 O39 2.234766 1_555
Ca46 O15 2.244350 1_555
Ca46 O18 2.270079 1_555
Ca47 O11 2.256290 1_555
Ca47 O22 2.307255 1_554
Ca47 O7 2.355043 1_554
Ca47 O43 2.387855 1_555
Ca47 O9 2.628226 1_554
Ca48 O12 2.176173 1_555
Ca48 O0 2.247165 1_555
Ca48 O2 2.332966 1_555
Ca48 O6 2.435306 1_555
Ca48 O11 2.511612 1_555
Ca49 O27 2.224469 1_555
Ca49 O45 2.271193 1_565
Ca49 O48 2.309135 1_565
Ca49 O8 2.358326 1_554
