# generated using pymatgen
data_AsPd6Pb
_symmetry_space_group_name_H-M   'P 1'
_cell_length_a   7.83023480
_cell_length_b   7.83023480
_cell_length_c   7.83023478
_cell_angle_alpha   33.78802119
_cell_angle_beta   33.78802119
_cell_angle_gamma   33.78801757
_symmetry_Int_Tables_number   1
_chemical_formula_structural   AsPd6Pb
_chemical_formula_sum   'As1 Pd6 Pb1'
_cell_volume   132.30385397
_cell_formula_units_Z   1
loop_
 _symmetry_equiv_pos_site_id
 _symmetry_equiv_pos_as_xyz
  1  'x, y, z'
loop_
 _atom_site_type_symbol
 _atom_site_label
 _atom_site_symmetry_multiplicity
 _atom_site_fract_x
 _atom_site_fract_y
 _atom_site_fract_z
 _atom_site_occupancy
  As  As0  1  0.00000000  0.00000000  0.00000000  1
  Pd  Pd0  1  0.63281900  0.63281900  0.63281900  1
  Pd  Pd1  1  0.11589300  0.11589300  0.11589300  1
  Pd  Pd2  1  0.88410700  0.88410700  0.88410700  1
  Pd  Pd3  1  0.36718100  0.36718100  0.36718100  1
  Pd  Pd4  1  0.24434200  0.24434200  0.24434200  1
  Pd  Pd5  1  0.75565800  0.75565800  0.75565800  1
  Pb  Pb0  1  0.50000000  0.50000000  0.50000000  1
loop_
_geom_bond_atom_site_label_1
_geom_bond_atom_site_label_2
_geom_bond_distance
_geom_bond_site_symmetry_2
As0 Pd1 2.564561 1_555
As0 Pd2 2.564561 1_444
As0 Pd3 2.732174 1_455
As0 Pd3 2.732174 1_545
As0 Pd0 2.732174 1_544
As0 Pd0 2.732174 1_454
As0 Pd3 2.732174 1_554
As0 Pd0 2.732174 1_445
Pd0 Pd5 2.718267 1_555
Pd0 Pd4 2.897032 1_655
Pd0 Pd4 2.897032 1_565
Pd0 Pd4 2.897032 1_556
Pd0 Pd3 3.024533 1_655
Pd0 Pd3 3.024533 1_565
Pd0 Pd3 3.024533 1_556
Pd0 Pd2 3.193745 1_455
Pd0 Pd2 3.193745 1_545
Pd0 Pd2 3.193746 1_554
Pd1 Pd5 2.694094 1_544
Pd1 Pd5 2.694094 1_454
Pd1 Pd5 2.694095 1_445
Pd1 Pd4 2.842409 1_555
Pd1 Pd3 3.193745 1_455
Pd1 Pd3 3.193745 1_545
Pd1 Pd3 3.193746 1_554
Pd2 Pd4 2.694094 1_566
Pd2 Pd4 2.694094 1_656
Pd2 Pd4 2.694095 1_665
Pd2 Pd5 2.842409 1_555
Pd3 Pd4 2.718267 1_555
Pd3 Pd5 2.897032 1_545
Pd3 Pd5 2.897032 1_455
Pd3 Pd5 2.897032 1_554
Pb0 Pd1 2.857646 1_565
Pb0 Pd1 2.857646 1_655
Pb0 Pd2 2.857646 1_455
Pb0 Pd2 2.857646 1_545
Pb0 Pd1 2.857646 1_556
Pb0 Pd2 2.857646 1_554
Pb0 Pd3 2.939112 1_555
Pb0 Pd0 2.939112 1_555
Pb0 Pd4 3.139781 1_565
Pb0 Pd4 3.139781 1_655
Pb0 Pd5 3.139781 1_455
Pb0 Pd5 3.139781 1_545
Pb0 Pd4 3.139781 1_556
Pb0 Pd5 3.139781 1_554
