# generated using pymatgen
data_MgSn2
_symmetry_space_group_name_H-M   'P 1'
_cell_length_a   13.11387258
_cell_length_b   13.11387258
_cell_length_c   14.94244576
_cell_angle_alpha   80.23122015
_cell_angle_beta   80.23122015
_cell_angle_gamma   29.53701734
_symmetry_Int_Tables_number   1
_chemical_formula_structural   MgSn2
_chemical_formula_sum   'Mg16 Sn32'
_cell_volume   1247.17399095
_cell_formula_units_Z   16
loop_
 _symmetry_equiv_pos_site_id
 _symmetry_equiv_pos_as_xyz
  1  'x, y, z'
loop_
 _atom_site_type_symbol
 _atom_site_label
 _atom_site_symmetry_multiplicity
 _atom_site_fract_x
 _atom_site_fract_y
 _atom_site_fract_z
 _atom_site_occupancy
  Mg  Mg0_0  1  0.31021700  0.31021700  0.13081500  1
  Mg  Mg0_1  1  0.31021700  0.31021700  0.63081500  1
  Mg  Mg0_2  1  0.31021700  0.81021700  0.13081500  1
  Mg  Mg0_3  1  0.31021700  0.81021700  0.63081500  1
  Mg  Mg0_4  1  0.81021700  0.31021700  0.13081500  1
  Mg  Mg0_5  1  0.81021700  0.31021700  0.63081500  1
  Mg  Mg0_6  1  0.81021700  0.81021700  0.13081500  1
  Mg  Mg0_7  1  0.81021700  0.81021700  0.63081500  1
  Mg  Mg1_0  1  0.47017600  0.47017600  0.31151000  1
  Mg  Mg1_1  1  0.47017600  0.47017600  0.81151000  1
  Mg  Mg1_2  1  0.47017600  0.97017600  0.31151000  1
  Mg  Mg1_3  1  0.47017600  0.97017600  0.81151000  1
  Mg  Mg1_4  1  0.97017600  0.47017600  0.31151000  1
  Mg  Mg1_5  1  0.97017600  0.47017600  0.81151000  1
  Mg  Mg1_6  1  0.97017600  0.97017600  0.31151000  1
  Mg  Mg1_7  1  0.97017600  0.97017600  0.81151000  1
  Sn  Sn0_0  1  0.00174350  0.00174350  0.00561350  1
  Sn  Sn0_1  1  0.00174350  0.00174350  0.50561350  1
  Sn  Sn0_2  1  0.00174350  0.50174350  0.00561350  1
  Sn  Sn0_3  1  0.00174350  0.50174350  0.50561350  1
  Sn  Sn0_4  1  0.50174350  0.00174350  0.00561350  1
  Sn  Sn0_5  1  0.50174350  0.00174350  0.50561350  1
  Sn  Sn0_6  1  0.50174350  0.50174350  0.00561350  1
  Sn  Sn0_7  1  0.50174350  0.50174350  0.50561350  1
  Sn  Sn1_0  1  0.16615800  0.16615800  0.17491700  1
  Sn  Sn1_1  1  0.16615800  0.16615800  0.67491700  1
  Sn  Sn1_2  1  0.16615800  0.66615800  0.17491700  1
  Sn  Sn1_3  1  0.16615800  0.66615800  0.67491700  1
  Sn  Sn1_4  1  0.66615800  0.16615800  0.17491700  1
  Sn  Sn1_5  1  0.66615800  0.16615800  0.67491700  1
  Sn  Sn1_6  1  0.66615800  0.66615800  0.17491700  1
  Sn  Sn1_7  1  0.66615800  0.66615800  0.67491700  1
  Sn  Sn2_0  1  0.32733250  0.32733250  0.32612350  1
  Sn  Sn2_1  1  0.32733250  0.32733250  0.82612350  1
  Sn  Sn2_2  1  0.32733250  0.82733250  0.32612350  1
  Sn  Sn2_3  1  0.32733250  0.82733250  0.82612350  1
  Sn  Sn2_4  1  0.82733250  0.32733250  0.32612350  1
  Sn  Sn2_5  1  0.82733250  0.32733250  0.82612350  1
  Sn  Sn2_6  1  0.82733250  0.82733250  0.32612350  1
  Sn  Sn2_7  1  0.82733250  0.82733250  0.82612350  1
  Sn  Sn3_0  1  0.14104000  0.14104000  0.46768700  1
  Sn  Sn3_1  1  0.14104000  0.14104000  0.96768700  1
  Sn  Sn3_2  1  0.14104000  0.64104000  0.46768700  1
  Sn  Sn3_3  1  0.14104000  0.64104000  0.96768700  1
  Sn  Sn3_4  1  0.64104000  0.14104000  0.46768700  1
  Sn  Sn3_5  1  0.64104000  0.14104000  0.96768700  1
  Sn  Sn3_6  1  0.64104000  0.64104000  0.46768700  1
  Sn  Sn3_7  1  0.64104000  0.64104000  0.96768700  1
loop_
_geom_bond_atom_site_label_1
_geom_bond_atom_site_label_2
_geom_bond_distance
_geom_bond_site_symmetry_2
Mg0_0 Sn2_0 3.024891 1_555
Mg0_0 Sn0_4 3.076772 1_555
Mg0_0 Sn0_2 3.076772 1_555
Mg0_0 Sn1_2 3.326904 1_555
Mg0_0 Sn1_4 3.326904 1_555
Mg0_0 Mg0_6 3.342914 1_455
Mg0_0 Mg0_6 3.342914 1_545
Mg0_0 Sn3_3 3.344170 1_554
Mg0_0 Sn3_5 3.344170 1_554
Mg0_1 Sn2_1 3.024891 1_555
Mg0_1 Sn0_5 3.076772 1_555
Mg0_1 Sn0_3 3.076772 1_555
Mg0_1 Sn1_3 3.326904 1_555
Mg0_1 Sn1_5 3.326904 1_555
Mg0_1 Mg0_7 3.342914 1_455
Mg0_1 Mg0_7 3.342914 1_545
Mg0_1 Sn3_4 3.344170 1_555
Mg0_1 Sn3_2 3.344170 1_555
Mg0_2 Sn2_2 3.024891 1_555
Mg0_2 Sn0_0 3.076772 1_565
Mg0_2 Sn0_6 3.076772 1_555
Mg0_2 Sn1_0 3.326904 1_565
Mg0_2 Sn1_6 3.326904 1_555
Mg0_2 Mg0_4 3.342914 1_465
Mg0_2 Mg0_4 3.342914 1_555
Mg0_2 Sn3_7 3.344170 1_554
Mg0_2 Sn3_1 3.344170 1_564
Mg0_3 Sn2_3 3.024891 1_555
Mg0_3 Sn0_1 3.076772 1_565
Mg0_3 Sn0_7 3.076772 1_555
Mg0_3 Sn1_7 3.326904 1_555
Mg0_3 Sn1_1 3.326904 1_565
Mg0_3 Mg0_5 3.342914 1_465
Mg0_3 Mg0_5 3.342914 1_555
Mg0_3 Sn3_0 3.344170 1_565
Mg0_3 Sn3_6 3.344170 1_555
Mg0_4 Sn2_4 3.024891 1_555
Mg0_4 Sn0_0 3.076772 1_655
Mg0_4 Sn0_6 3.076772 1_555
Mg0_4 Sn1_0 3.326904 1_655
Mg0_4 Sn1_6 3.326904 1_555
Mg0_4 Sn3_7 3.344170 1_554
Mg0_4 Sn3_1 3.344170 1_654
Mg0_5 Sn2_5 3.024891 1_555
Mg0_5 Sn0_1 3.076772 1_655
Mg0_5 Sn0_7 3.076772 1_555
Mg0_5 Sn1_7 3.326904 1_555
Mg0_5 Sn1_1 3.326904 1_655
Mg0_5 Sn3_0 3.344170 1_655
Mg0_5 Sn3_6 3.344170 1_555
Mg0_6 Sn2_6 3.024891 1_555
Mg0_6 Sn0_4 3.076772 1_565
Mg0_6 Sn0_2 3.076772 1_655
Mg0_6 Sn1_2 3.326904 1_655
Mg0_6 Sn1_4 3.326904 1_565
Mg0_6 Sn3_3 3.344170 1_654
Mg0_6 Sn3_5 3.344170 1_564
Mg0_7 Sn2_7 3.024891 1_555
Mg0_7 Sn0_5 3.076772 1_565
Mg0_7 Sn0_3 3.076772 1_655
Mg0_7 Sn1_5 3.326904 1_565
Mg0_7 Sn1_3 3.326904 1_655
Mg0_7 Sn3_2 3.344170 1_655
Mg0_7 Sn3_4 3.344170 1_565
Mg1_0 Sn1_4 3.133316 1_555
Mg1_0 Sn1_2 3.133316 1_555
Mg1_0 Sn0_7 3.141345 1_555
Mg1_0 Sn2_2 3.230355 1_555
Mg1_0 Sn2_4 3.230355 1_555
Mg1_0 Sn3_4 3.259464 1_555
Mg1_0 Sn3_2 3.259464 1_555
Mg1_0 Mg1_6 3.342914 1_455
Mg1_0 Mg1_6 3.342914 1_545
Mg1_1 Sn1_5 3.133316 1_555
Mg1_1 Sn1_3 3.133316 1_555
Mg1_1 Sn0_6 3.141345 1_556
Mg1_1 Sn2_3 3.230355 1_555
Mg1_1 Sn2_5 3.230355 1_555
Mg1_1 Sn3_5 3.259464 1_555
Mg1_1 Sn3_3 3.259464 1_555
Mg1_1 Mg1_7 3.342914 1_455
Mg1_1 Mg1_7 3.342914 1_545
Mg1_2 Sn1_0 3.133316 1_565
Mg1_2 Sn1_6 3.133316 1_555
Mg1_2 Sn0_5 3.141345 1_565
Mg1_2 Sn2_0 3.230355 1_565
Mg1_2 Sn2_6 3.230355 1_555
Mg1_2 Sn3_6 3.259464 1_555
Mg1_2 Sn3_0 3.259464 1_565
Mg1_2 Mg1_4 3.342914 1_555
Mg1_2 Mg1_4 3.342914 1_465
Mg1_3 Sn1_1 3.133316 1_565
Mg1_3 Sn1_7 3.133316 1_555
Mg1_3 Sn0_4 3.141345 1_566
Mg1_3 Sn2_7 3.230355 1_555
Mg1_3 Sn2_1 3.230355 1_565
Mg1_3 Sn3_1 3.259464 1_565
Mg1_3 Sn3_7 3.259464 1_555
Mg1_3 Mg1_5 3.342914 1_465
Mg1_3 Mg1_5 3.342914 1_555
Mg1_4 Sn1_6 3.133316 1_555
Mg1_4 Sn1_0 3.133316 1_655
Mg1_4 Sn0_3 3.141345 1_655
Mg1_4 Sn2_0 3.230355 1_655
Mg1_4 Sn2_6 3.230355 1_555
Mg1_4 Sn3_6 3.259464 1_555
Mg1_4 Sn3_0 3.259464 1_655
Mg1_5 Sn1_1 3.133316 1_655
Mg1_5 Sn1_7 3.133316 1_555
Mg1_5 Sn0_2 3.141345 1_656
Mg1_5 Sn2_7 3.230355 1_555
Mg1_5 Sn2_1 3.230355 1_655
Mg1_5 Sn3_1 3.259464 1_655
Mg1_5 Sn3_7 3.259464 1_555
Mg1_6 Sn1_4 3.133316 1_565
Mg1_6 Sn1_2 3.133316 1_655
Mg1_6 Sn0_1 3.141345 1_665
Mg1_6 Sn2_4 3.230355 1_565
Mg1_6 Sn2_2 3.230355 1_655
Mg1_6 Sn3_2 3.259464 1_655
Mg1_6 Sn3_4 3.259464 1_565
Mg1_7 Sn1_3 3.133316 1_655
Mg1_7 Sn1_5 3.133316 1_565
Mg1_7 Sn0_0 3.141345 1_666
Mg1_7 Sn2_5 3.230355 1_565
Mg1_7 Sn2_3 3.230355 1_655
Mg1_7 Sn3_5 3.259464 1_565
Mg1_7 Sn3_3 3.259464 1_655
Sn0_0 Sn0_6 3.342914 1_545
Sn0_0 Sn0_6 3.342914 1_455
Sn0_0 Sn3_5 3.399387 1_454
Sn0_0 Sn3_3 3.399387 1_544
Sn0_0 Sn2_3 3.443495 1_544
Sn0_0 Sn2_5 3.443495 1_454
Sn0_0 Sn1_4 3.460922 1_455
Sn0_0 Sn1_2 3.460922 1_545
Sn0_0 Sn3_1 3.478333 1_554
Sn0_1 Sn0_7 3.342914 1_545
Sn0_1 Sn0_7 3.342914 1_455
Sn0_1 Sn3_4 3.399387 1_455
Sn0_1 Sn3_2 3.399387 1_545
Sn0_1 Sn2_2 3.443495 1_545
Sn0_1 Sn2_4 3.443495 1_455
Sn0_1 Sn1_5 3.460922 1_455
Sn0_1 Sn1_3 3.460922 1_545
Sn0_1 Sn3_0 3.478333 1_555
Sn0_2 Sn0_4 3.342914 1_555
Sn0_2 Sn0_4 3.342914 1_465
Sn0_2 Sn3_1 3.399387 1_554
Sn0_2 Sn3_7 3.399387 1_454
Sn0_2 Sn2_1 3.443495 1_554
Sn0_2 Sn2_7 3.443495 1_454
Sn0_2 Sn1_0 3.460922 1_555
Sn0_2 Sn1_6 3.460922 1_455
Sn0_2 Sn3_3 3.478333 1_554
Sn0_3 Sn0_5 3.342914 1_555
Sn0_3 Sn0_5 3.342914 1_465
Sn0_3 Sn3_6 3.399387 1_455
Sn0_3 Sn3_0 3.399387 1_555
Sn0_3 Sn2_0 3.443495 1_555
Sn0_3 Sn2_6 3.443495 1_455
Sn0_3 Sn1_1 3.460922 1_555
Sn0_3 Sn1_7 3.460922 1_455
Sn0_3 Sn3_2 3.478333 1_555
Sn0_4 Sn3_1 3.399387 1_554
Sn0_4 Sn3_7 3.399387 1_544
Sn0_4 Sn2_7 3.443495 1_544
Sn0_4 Sn2_1 3.443495 1_554
Sn0_4 Sn1_0 3.460922 1_555
Sn0_4 Sn1_6 3.460922 1_545
Sn0_4 Sn3_5 3.478333 1_554
Sn0_5 Sn3_6 3.399387 1_545
Sn0_5 Sn3_0 3.399387 1_555
Sn0_5 Sn2_0 3.443495 1_555
Sn0_5 Sn2_6 3.443495 1_545
Sn0_5 Sn1_1 3.460922 1_555
Sn0_5 Sn1_7 3.460922 1_545
Sn0_5 Sn3_4 3.478333 1_555
Sn0_6 Sn3_5 3.399387 1_554
Sn0_6 Sn3_3 3.399387 1_554
Sn0_6 Sn2_3 3.443495 1_554
Sn0_6 Sn2_5 3.443495 1_554
Sn0_6 Sn1_4 3.460922 1_555
Sn0_6 Sn1_2 3.460922 1_555
Sn0_6 Sn3_7 3.478333 1_554
Sn0_7 Sn3_2 3.399387 1_555
Sn0_7 Sn3_4 3.399387 1_555
Sn0_7 Sn2_2 3.443495 1_555
Sn0_7 Sn2_4 3.443495 1_555
Sn0_7 Sn1_5 3.460922 1_555
Sn0_7 Sn1_3 3.460922 1_555
Sn0_7 Sn3_6 3.478333 1_555
Sn1_0 Sn3_1 3.269022 1_554
Sn1_0 Sn1_6 3.342914 1_545
Sn1_0 Sn1_6 3.342914 1_455
Sn1_0 Sn2_4 3.344728 1_455
Sn1_0 Sn2_2 3.344728 1_545
Sn1_1 Sn3_0 3.269022 1_555
Sn1_1 Sn1_7 3.342914 1_455
Sn1_1 Sn1_7 3.342914 1_545
Sn1_1 Sn2_5 3.344728 1_455
Sn1_1 Sn2_3 3.344728 1_545
Sn1_2 Sn3_3 3.269022 1_554
Sn1_2 Sn1_4 3.342914 1_555
Sn1_2 Sn1_4 3.342914 1_465
Sn1_2 Sn2_0 3.344728 1_555
Sn1_2 Sn2_6 3.344728 1_455
Sn1_3 Sn3_2 3.269022 1_555
Sn1_3 Sn1_5 3.342914 1_555
Sn1_3 Sn1_5 3.342914 1_465
Sn1_3 Sn2_1 3.344728 1_555
Sn1_3 Sn2_7 3.344728 1_455
Sn1_4 Sn3_5 3.269022 1_554
Sn1_4 Sn2_0 3.344728 1_555
Sn1_4 Sn2_6 3.344728 1_545
Sn1_5 Sn3_4 3.269022 1_555
Sn1_5 Sn2_1 3.344728 1_555
Sn1_5 Sn2_7 3.344728 1_545
Sn1_6 Sn3_7 3.269022 1_554
Sn1_6 Sn2_4 3.344728 1_555
Sn1_6 Sn2_2 3.344728 1_555
Sn1_7 Sn3_6 3.269022 1_555
Sn1_7 Sn2_5 3.344728 1_555
Sn1_7 Sn2_3 3.344728 1_555
Sn2_0 Sn3_2 3.328391 1_555
Sn2_0 Sn3_4 3.328391 1_555
Sn2_0 Sn2_6 3.342914 1_455
Sn2_0 Sn2_6 3.342914 1_545
Sn2_1 Sn3_3 3.328391 1_555
Sn2_1 Sn3_5 3.328391 1_555
Sn2_1 Sn2_7 3.342914 1_545
Sn2_1 Sn2_7 3.342914 1_455
Sn2_2 Sn3_0 3.328391 1_565
Sn2_2 Sn3_6 3.328391 1_555
Sn2_2 Sn2_4 3.342914 1_555
Sn2_2 Sn2_4 3.342914 1_465
Sn2_3 Sn3_7 3.328391 1_555
Sn2_3 Sn3_1 3.328391 1_565
Sn2_3 Sn2_5 3.342914 1_465
Sn2_3 Sn2_5 3.342914 1_555
Sn2_4 Sn3_0 3.328391 1_655
Sn2_4 Sn3_6 3.328391 1_555
Sn2_5 Sn3_7 3.328391 1_555
Sn2_5 Sn3_1 3.328391 1_655
Sn2_6 Sn3_2 3.328391 1_655
Sn2_6 Sn3_4 3.328391 1_565
Sn2_7 Sn3_3 3.328391 1_655
Sn2_7 Sn3_5 3.328391 1_565
Sn3_0 Sn3_6 3.342914 1_455
Sn3_0 Sn3_6 3.342914 1_545
Sn3_1 Sn3_7 3.342914 1_545
Sn3_1 Sn3_7 3.342914 1_455
Sn3_2 Sn3_4 3.342914 1_465
Sn3_2 Sn3_4 3.342914 1_555
Sn3_3 Sn3_5 3.342914 1_555
Sn3_3 Sn3_5 3.342914 1_465
