# generated using pymatgen
data_BiAsPd6
_symmetry_space_group_name_H-M   'P 1'
_cell_length_a   7.92835289
_cell_length_b   7.92835289
_cell_length_c   7.92835272
_cell_angle_alpha   33.51437566
_cell_angle_beta   33.51437566
_cell_angle_gamma   33.51437384
_symmetry_Int_Tables_number   1
_chemical_formula_structural   BiAsPd6
_chemical_formula_sum   'Bi1 As1 Pd6'
_cell_volume   135.32229116
_cell_formula_units_Z   1
loop_
 _symmetry_equiv_pos_site_id
 _symmetry_equiv_pos_as_xyz
  1  'x, y, z'
loop_
 _atom_site_type_symbol
 _atom_site_label
 _atom_site_symmetry_multiplicity
 _atom_site_fract_x
 _atom_site_fract_y
 _atom_site_fract_z
 _atom_site_occupancy
  Bi  Bi0  1  0.50000000  0.50000000  0.50000000  1
  As  As0  1  0.00000000  0.00000000  0.00000000  1
  Pd  Pd0  1  0.63292400  0.63292400  0.63292400  1
  Pd  Pd1  1  0.11449800  0.11449800  0.11449800  1
  Pd  Pd2  1  0.88550200  0.88550200  0.88550200  1
  Pd  Pd3  1  0.36707600  0.36707600  0.36707600  1
  Pd  Pd4  1  0.24556700  0.24556700  0.24556700  1
  Pd  Pd5  1  0.75443300  0.75443300  0.75443300  1
loop_
_geom_bond_atom_site_label_1
_geom_bond_atom_site_label_2
_geom_bond_distance
_geom_bond_site_symmetry_2
Bi0 Pd2 2.887210 1_545
Bi0 Pd1 2.887210 1_565
Bi0 Pd1 2.887210 1_655
Bi0 Pd2 2.887210 1_455
Bi0 Pd1 2.887210 1_556
Bi0 Pd2 2.887210 1_554
Bi0 Pd3 2.981253 1_555
Bi0 Pd0 2.981253 1_555
Bi0 Pd5 3.177803 1_554
Bi0 Pd4 3.177803 1_556
Bi0 Pd5 3.177803 1_545
Bi0 Pd5 3.177803 1_455
Bi0 Pd4 3.177803 1_565
Bi0 Pd4 3.177803 1_655
As0 Pd2 2.567990 1_444
As0 Pd1 2.567990 1_555
As0 Pd0 2.745850 1_544
As0 Pd0 2.745850 1_454
As0 Pd3 2.745850 1_455
As0 Pd3 2.745850 1_545
As0 Pd0 2.745850 1_445
As0 Pd3 2.745850 1_554
Pd0 Pd5 2.725234 1_555
Pd0 Pd4 2.904319 1_565
Pd0 Pd4 2.904319 1_655
Pd0 Pd4 2.904320 1_556
Pd0 Pd3 3.042676 1_556
Pd0 Pd3 3.042676 1_565
Pd0 Pd3 3.042676 1_655
Pd0 Pd2 3.201157 1_554
Pd0 Pd2 3.201157 1_455
Pd0 Pd2 3.201157 1_545
Pd1 Pd5 2.706735 1_454
Pd1 Pd5 2.706735 1_544
Pd1 Pd5 2.706735 1_445
Pd1 Pd4 2.939648 1_555
Pd1 Pd3 3.201157 1_554
Pd1 Pd3 3.201157 1_455
Pd1 Pd3 3.201157 1_545
Pd2 Pd4 2.706735 1_566
Pd2 Pd4 2.706735 1_656
Pd2 Pd4 2.706735 1_665
Pd2 Pd5 2.939648 1_555
Pd3 Pd4 2.725234 1_555
Pd3 Pd5 2.904319 1_545
Pd3 Pd5 2.904319 1_455
Pd3 Pd5 2.904320 1_554
