# generated using pymatgen
data_La2Si3Ni
_symmetry_space_group_name_H-M   'P 1'
_cell_length_a   4.10571792
_cell_length_b   4.10571792
_cell_length_c   8.64616000
_cell_angle_alpha   90.00000000
_cell_angle_beta   90.00000000
_cell_angle_gamma   119.99999876
_symmetry_Int_Tables_number   1
_chemical_formula_structural   La2Si3Ni
_chemical_formula_sum   'La2 Si3 Ni1'
_cell_volume   126.22114695
_cell_formula_units_Z   1
loop_
 _symmetry_equiv_pos_site_id
 _symmetry_equiv_pos_as_xyz
  1  'x, y, z'
loop_
 _atom_site_type_symbol
 _atom_site_label
 _atom_site_symmetry_multiplicity
 _atom_site_fract_x
 _atom_site_fract_y
 _atom_site_fract_z
 _atom_site_occupancy
  La  La0  1  0.00000000  0.00000000  0.23984700  1
  La  La1  1  0.00000000  0.00000000  0.76015300  1
  Si  Si0  1  0.66666700  0.33333300  0.50000000  1
  Si  Si1  1  0.33333300  0.66666700  0.00000000  1
  Si  Si2  1  0.33333300  0.66666700  0.50000000  1
  Ni  Ni0  1  0.66666700  0.33333300  0.00000000  1
loop_
_geom_bond_atom_site_label_1
_geom_bond_atom_site_label_2
_geom_bond_distance
_geom_bond_site_symmetry_2
La0 Si1 3.149512 1_545
La0 Ni0 3.149512 1_455
La0 Ni0 3.149514 1_445
La0 Ni0 3.149514 1_555
La0 Si1 3.149514 1_445
La0 Si1 3.149514 1_555
La0 Si2 3.267786 1_545
La0 Si0 3.267786 1_455
La0 Si2 3.267788 1_555
La0 Si2 3.267788 1_445
La0 Si0 3.267788 1_445
La0 Si0 3.267788 1_555
La1 Ni0 3.149512 1_456
La1 Si1 3.149512 1_546
La1 Si1 3.149514 1_446
La1 Ni0 3.149514 1_556
La1 Si1 3.149514 1_556
La1 Ni0 3.149514 1_446
La1 Si0 3.267786 1_455
La1 Si2 3.267786 1_545
La1 Si2 3.267788 1_445
La1 Si0 3.267788 1_445
La1 Si2 3.267788 1_555
La1 Si0 3.267788 1_555
Si0 Si2 2.370435 1_545
Si0 Si2 2.370435 1_655
Si0 Si2 2.370442 1_555
Ni0 Si1 2.370435 1_545
Ni0 Si1 2.370435 1_655
Ni0 Si1 2.370442 1_555
