# generated using pymatgen
data_Pr5Ru2
_symmetry_space_group_name_H-M   'P 1'
_cell_length_a   6.68778615
_cell_length_b   7.35689731
_cell_length_c   8.97039418
_cell_angle_alpha   95.62502489
_cell_angle_beta   111.86378987
_cell_angle_gamma   90.00330803
_symmetry_Int_Tables_number   1
_chemical_formula_structural   Pr5Ru2
_chemical_formula_sum   'Pr10 Ru4'
_cell_volume   407.31776016
_cell_formula_units_Z   2
loop_
 _symmetry_equiv_pos_site_id
 _symmetry_equiv_pos_as_xyz
  1  'x, y, z'
loop_
 _atom_site_type_symbol
 _atom_site_label
 _atom_site_symmetry_multiplicity
 _atom_site_fract_x
 _atom_site_fract_y
 _atom_site_fract_z
 _atom_site_occupancy
  Pr  Pr0  1  0.98264726  0.90805085  0.18525202  1
  Pr  Pr1  1  0.79765071  0.59201778  0.81498420  1
  Pr  Pr2  1  0.01738205  0.09193126  0.81481948  1
  Pr  Pr3  1  0.20239534  0.40796630  0.18508929  1
  Pr  Pr4  1  0.64175444  0.81509966  0.43073994  1
  Pr  Pr5  1  0.21103340  0.68505760  0.56929924  1
  Pr  Pr6  1  0.35814765  0.18490512  0.56904436  1
  Pr  Pr7  1  0.78884065  0.31494415  0.43048547  1
  Pr  Pr8  1  0.42606829  0.74995324  0.00038820  1
  Pr  Pr9  1  0.57405399  0.25008078  0.99985092  1
  Ru  Ru0  1  0.82784494  0.57222530  0.22161331  1
  Ru  Ru1  1  0.60597908  0.92774122  0.77804570  1
  Ru  Ru2  1  0.17214573  0.42776866  0.77840983  1
  Ru  Ru3  1  0.39405548  0.07225808  0.22197906  1
loop_
_geom_bond_atom_site_label_1
_geom_bond_atom_site_label_2
_geom_bond_distance
_geom_bond_site_symmetry_2
Pr0 Ru0 2.773342 1_555
Pr0 Ru3 2.895626 1_665
Pr0 Ru1 3.600003 1_554
Pr1 Ru1 2.774478 1_555
Pr1 Ru2 2.893987 1_655
Pr1 Ru0 3.594810 1_556
Pr2 Ru2 2.773462 1_555
Pr2 Ru1 2.895425 1_445
Pr2 Ru3 3.599679 1_556
Pr3 Ru3 2.774330 1_555
Pr3 Ru0 2.894174 1_455
Pr3 Ru2 3.595152 1_554
Pr4 Ru3 2.866127 1_565
Pr4 Ru0 3.056590 1_555
Pr4 Ru1 3.240248 1_555
Pr5 Ru2 2.868535 1_555
Pr5 Ru1 3.054649 1_555
Pr5 Ru0 3.243926 1_455
Pr6 Ru1 2.867538 1_545
Pr6 Ru2 3.057689 1_555
Pr6 Ru3 3.238558 1_555
Pr7 Ru0 2.867145 1_555
Pr7 Ru3 3.053472 1_555
Pr7 Ru2 3.245627 1_655
Pr8 Ru3 3.002080 1_565
Pr8 Ru2 3.003799 1_554
Pr8 Ru0 3.066805 1_555
Pr8 Ru1 3.071662 1_554
Pr9 Ru0 3.002579 1_556
Pr9 Ru1 3.003254 1_545
Pr9 Ru2 3.067922 1_555
Pr9 Ru3 3.070550 1_556
