# generated using pymatgen
data_Na6Sn2Se7
_symmetry_space_group_name_H-M   'P 1'
_cell_length_a   7.41719382
_cell_length_b   7.41719382
_cell_length_c   16.00176875
_cell_angle_alpha   80.24449115
_cell_angle_beta   80.24449115
_cell_angle_gamma   98.29234082
_symmetry_Int_Tables_number   1
_chemical_formula_structural   Na6Sn2Se7
_chemical_formula_sum   'Na12 Sn4 Se14'
_cell_volume   841.39579270
_cell_formula_units_Z   2
loop_
 _symmetry_equiv_pos_site_id
 _symmetry_equiv_pos_as_xyz
  1  'x, y, z'
loop_
 _atom_site_type_symbol
 _atom_site_label
 _atom_site_symmetry_multiplicity
 _atom_site_fract_x
 _atom_site_fract_y
 _atom_site_fract_z
 _atom_site_occupancy
  Na  Na0  1  0.57174957  0.42825043  0.75000000  1
  Na  Na1  1  0.75003693  0.04049946  0.07244236  1
  Na  Na2  1  0.95950054  0.24996307  0.42755764  1
  Na  Na3  1  0.49760368  0.95587894  0.63793231  1
  Na  Na4  1  0.04412106  0.50239632  0.86206769  1
  Na  Na5  1  0.50239632  0.04412106  0.36206769  1
  Na  Na6  1  0.95587894  0.49760368  0.13793231  1
  Na  Na7  1  0.50000000  0.50000000  0.50000000  1
  Na  Na8  1  0.50000000  0.50000000  0.00000000  1
  Na  Na9  1  0.24996307  0.95950054  0.92755764  1
  Na  Na10  1  0.42825043  0.57174957  0.25000000  1
  Na  Na11  1  0.04049946  0.75003693  0.57244236  1
  Sn  Sn0  1  0.75296743  0.92741034  0.86457653  1
  Sn  Sn1  1  0.07258966  0.24703257  0.63542347  1
  Sn  Sn2  1  0.92741034  0.75296743  0.36457653  1
  Sn  Sn3  1  0.24703257  0.07258966  0.13542347  1
  Se  Se0  1  0.68365418  0.23077417  0.89761536  1
  Se  Se1  1  0.04861809  0.95138191  0.75000000  1
  Se  Se2  1  0.76922583  0.31634582  0.60238464  1
  Se  Se3  1  0.75049010  0.48188205  0.32060134  1
  Se  Se4  1  0.23077417  0.68365418  0.39761536  1
  Se  Se5  1  0.86451475  0.73162291  0.98403447  1
  Se  Se6  1  0.26837709  0.13548525  0.51596553  1
  Se  Se7  1  0.13548525  0.26837709  0.01596553  1
  Se  Se8  1  0.73162291  0.86451475  0.48403447  1
  Se  Se9  1  0.48188205  0.75049010  0.82060134  1
  Se  Se10  1  0.24950990  0.51811795  0.67939866  1
  Se  Se11  1  0.51811795  0.24950990  0.17939866  1
  Se  Se12  1  0.95138191  0.04861809  0.25000000  1
  Se  Se13  1  0.31634582  0.76922583  0.10238464  1
loop_
_geom_bond_atom_site_label_1
_geom_bond_atom_site_label_2
_geom_bond_distance
_geom_bond_site_symmetry_2
Na0 Se0 2.873411 1_555
Na0 Se2 2.873411 1_555
Na0 Se9 2.924500 1_555
Na0 Se10 2.924500 1_555
Na1 Se11 2.993702 1_555
Na1 Se7 3.009988 1_655
Na1 Se5 3.036999 1_544
Na1 Se0 3.064260 1_554
Na1 Se12 3.431695 1_555
Na1 Se13 3.451044 1_545
Na2 Se3 2.993702 1_555
Na2 Se8 3.009988 1_545
Na2 Se6 3.036999 1_655
Na2 Se2 3.064260 1_555
Na2 Se12 3.431695 1_555
Na2 Se4 3.451044 1_655
Na3 Se8 2.998824 1_555
Na3 Se2 3.012208 1_565
Na3 Se9 3.033587 1_555
Na3 Se6 3.061251 1_565
Na3 Se10 3.391436 1_555
Na3 Se1 3.497304 1_555
Na4 Se7 2.998824 1_556
Na4 Se0 3.012208 1_455
Na4 Se10 3.033587 1_555
Na4 Se5 3.061251 1_455
Na4 Se9 3.391436 1_555
Na4 Se1 3.497304 1_555
Na5 Se6 2.998824 1_555
Na5 Se4 3.012208 1_545
Na5 Se11 3.033587 1_555
Na5 Se8 3.061251 1_545
Na5 Se3 3.391436 1_555
Na5 Se12 3.497304 1_555
Na6 Se5 2.998824 1_554
Na6 Se13 3.012208 1_655
Na6 Se3 3.033587 1_555
Na6 Se7 3.061251 1_655
Na6 Se11 3.391436 1_555
Na6 Se12 3.497304 1_555
Na7 Se6 2.933258 1_555
Na7 Se8 2.933258 1_555
Na7 Se4 3.108756 1_555
Na7 Se2 3.108756 1_555
Na7 Se3 3.179016 1_555
Na7 Se10 3.179016 1_555
Na8 Se5 2.933258 1_554
Na8 Se7 2.933258 1_555
Na8 Se13 3.108756 1_555
Na8 Se0 3.108756 1_554
Na8 Se9 3.179016 1_554
Na8 Se11 3.179016 1_555
Na9 Se9 2.993702 1_555
Na9 Se5 3.009988 1_455
Na9 Se7 3.036999 1_566
Na9 Se13 3.064260 1_556
Na9 Se1 3.431695 1_555
Na9 Se0 3.451044 1_565
Na10 Se4 2.873411 1_555
Na10 Se13 2.873411 1_555
Na10 Se3 2.924500 1_555
Na10 Se11 2.924500 1_555
Na11 Se10 2.993702 1_555
Na11 Se6 3.009988 1_565
Na11 Se8 3.036999 1_455
Na11 Se4 3.064260 1_555
Na11 Se1 3.431695 1_555
Na11 Se2 3.451044 1_455
Se0 Sn0 2.500301 1_545
Se1 Sn1 2.572241 1_565
Se1 Sn0 2.572241 1_455
Se2 Sn1 2.500301 1_655
Se3 Sn2 2.508266 1_555
Se4 Sn2 2.500301 1_455
Se5 Sn0 2.527685 1_555
Se6 Sn1 2.527685 1_555
Se7 Sn3 2.527685 1_555
Se8 Sn2 2.527685 1_555
Se9 Sn0 2.508266 1_555
Se10 Sn1 2.508266 1_555
Se11 Sn3 2.508266 1_555
Se12 Sn3 2.572241 1_655
Se12 Sn2 2.572241 1_545
Se13 Sn3 2.500301 1_565
