# generated using pymatgen
data_Sr2HoBiO6
_symmetry_space_group_name_H-M   'P 1'
_cell_length_a   5.92669928
_cell_length_b   6.10161000
_cell_length_c   8.47261556
_cell_angle_alpha   90.00000000
_cell_angle_beta   89.98117459
_cell_angle_gamma   90.00000000
_symmetry_Int_Tables_number   1
_chemical_formula_structural   Sr2HoBiO6
_chemical_formula_sum   'Sr4 Ho2 Bi2 O12'
_cell_volume   306.39016102
_cell_formula_units_Z   2
loop_
 _symmetry_equiv_pos_site_id
 _symmetry_equiv_pos_as_xyz
  1  'x, y, z'
loop_
 _atom_site_type_symbol
 _atom_site_label
 _atom_site_symmetry_multiplicity
 _atom_site_fract_x
 _atom_site_fract_y
 _atom_site_fract_z
 _atom_site_occupancy
  Sr  Sr0  1  0.01288300  0.45217500  0.25231800  1
  Sr  Sr1  1  0.98711700  0.54782500  0.74768200  1
  Sr  Sr2  1  0.48711700  0.95217500  0.24768200  1
  Sr  Sr3  1  0.51288300  0.04782500  0.75231800  1
  Ho  Ho0  1  0.00000000  0.00000000  0.50000000  1
  Ho  Ho1  1  0.50000000  0.50000000  0.00000000  1
  Bi  Bi0  1  0.00000000  0.00000000  0.00000000  1
  Bi  Bi1  1  0.50000000  0.50000000  0.50000000  1
  O  O0  1  0.90503900  0.03775400  0.24371500  1
  O  O1  1  0.09496100  0.96224600  0.75628500  1
  O  O2  1  0.59496100  0.53775400  0.25628500  1
  O  O3  1  0.40503900  0.46224600  0.74371500  1
  O  O4  1  0.19804000  0.71279100  0.05370500  1
  O  O5  1  0.80196000  0.28720900  0.94629500  1
  O  O6  1  0.30196000  0.21279100  0.44629500  1
  O  O7  1  0.69804000  0.78720900  0.55370500  1
  O  O8  1  0.29146100  0.19987500  0.04653500  1
  O  O9  1  0.70853800  0.80012500  0.95346500  1
  O  O10  1  0.20853800  0.69987500  0.45346500  1
  O  O11  1  0.79146200  0.30012500  0.54653500  1
loop_
_geom_bond_atom_site_label_1
_geom_bond_atom_site_label_2
_geom_bond_distance
_geom_bond_site_symmetry_2
Ho0 O11 2.244136 1_455
Ho0 O10 2.244136 1_545
Ho0 O1 2.255131 1_545
Ho0 O0 2.255131 1_455
Ho0 O7 2.257217 1_445
Ho0 O6 2.257217 1_555
Ho1 O9 2.244136 1_554
Ho1 O8 2.244139 1_555
Ho1 O2 2.255131 1_555
Ho1 O3 2.255131 1_554
Ho1 O4 2.257217 1_555
Ho1 O5 2.257217 1_554
Bi0 O8 2.151079 1_555
Bi0 O9 2.151084 1_444
Bi0 O0 2.152412 1_455
Bi0 O1 2.152412 1_544
Bi0 O5 2.157790 1_454
Bi0 O4 2.157790 1_545
Bi1 O11 2.151084 1_555
Bi1 O10 2.151084 1_555
Bi1 O2 2.152412 1_555
Bi1 O3 2.152412 1_555
Bi1 O6 2.157790 1_555
Bi1 O7 2.157790 1_555
O0 Sr2 2.531553 1_545
O0 Sr0 2.609188 1_655
O1 Sr3 2.531553 1_565
O1 Sr1 2.609188 1_455
O2 Sr0 2.531553 1_655
O2 Sr2 2.609188 1_555
O3 Sr1 2.531553 1_455
O3 Sr3 2.609188 1_555
O4 Sr0 2.561912 1_555
O4 Sr2 2.787769 1_555
O4 Sr1 3.049700 1_454
O5 Sr1 2.561912 1_555
O5 Sr3 2.787769 1_555
O5 Sr0 3.049700 1_656
O6 Sr2 2.561912 1_545
O6 Sr0 2.787769 1_555
O6 Sr3 3.049700 1_555
O7 Sr3 2.561912 1_565
O7 Sr1 2.787769 1_555
O7 Sr2 3.049700 1_555
O8 Sr2 2.556292 1_545
O8 Sr0 2.851981 1_555
O8 Sr3 2.965585 1_554
O9 Sr3 2.556290 1_565
O9 Sr1 2.851984 1_555
O9 Sr2 2.965583 1_556
O10 Sr0 2.556290 1_555
O10 Sr2 2.851984 1_555
O10 Sr1 2.965583 1_455
O11 Sr1 2.556290 1_555
O11 Sr3 2.851984 1_555
O11 Sr0 2.965583 1_655
