# generated using pymatgen
data_LaMgFeWO6
_symmetry_space_group_name_H-M   'P 1'
_cell_length_a   5.45735699
_cell_length_b   8.10752132
_cell_length_c   5.57873300
_cell_angle_alpha   90.00108087
_cell_angle_beta   90.00070808
_cell_angle_gamma   89.55606117
_symmetry_Int_Tables_number   1
_chemical_formula_structural   LaMgFeWO6
_chemical_formula_sum   'La2 Mg2 Fe2 W2 O12'
_cell_volume   246.82719238
_cell_formula_units_Z   2
loop_
 _symmetry_equiv_pos_site_id
 _symmetry_equiv_pos_as_xyz
  1  'x, y, z'
loop_
 _atom_site_type_symbol
 _atom_site_label
 _atom_site_symmetry_multiplicity
 _atom_site_fract_x
 _atom_site_fract_y
 _atom_site_fract_z
 _atom_site_occupancy
  La  La0  1  0.99500500  0.24618600  0.04999800  1
  La  La1  1  0.49500900  0.74618100  0.45002700  1
  Mg  Mg0  1  0.52234800  0.25514600  0.55256100  1
  Mg  Mg1  1  0.02234300  0.75514800  0.94743500  1
  Fe  Fe0  1  0.49888000  0.49656200  0.00435200  1
  Fe  Fe1  1  0.99890100  0.99656700  0.49569700  1
  W  W0  1  0.50240000  0.99881300  0.99042700  1
  W  W1  1  0.00240300  0.49881500  0.50956600  1
  O  O0  1  0.64877300  0.76649500  0.04137400  1
  O  O1  1  0.14878900  0.26650100  0.45860200  1
  O  O2  1  0.18776700  0.93416000  0.18553900  1
  O  O3  1  0.68779000  0.43414400  0.31444300  1
  O  O4  1  0.16048900  0.56980500  0.20992400  1
  O  O5  1  0.66049100  0.06979100  0.29008600  1
  O  O6  1  0.90043100  0.73839800  0.57576000  1
  O  O7  1  0.40044500  0.23840100  0.92424300  1
  O  O8  1  0.28402100  0.56252900  0.72045700  1
  O  O9  1  0.78402100  0.06251700  0.77955900  1
  O  O10  1  0.29984300  0.93193100  0.72418900  1
  O  O11  1  0.79984700  0.43190700  0.77576100  1
loop_
_geom_bond_atom_site_label_1
_geom_bond_atom_site_label_2
_geom_bond_distance
_geom_bond_site_symmetry_2
La0 O7 2.321588 1_654
La0 O11 2.391097 1_554
La0 O9 2.417812 1_554
La0 O1 2.435086 1_655
La0 O5 2.685607 1_555
La0 O3 2.696279 1_555
La0 O2 2.834940 1_645
La0 O4 2.921003 1_655
La1 O6 2.321441 1_555
La1 O10 2.390976 1_555
La1 O8 2.417759 1_555
La1 O0 2.435329 1_555
La1 O4 2.685539 1_555
La1 O2 2.696605 1_555
La1 O3 2.835103 1_555
La1 O5 2.920996 1_565
Mg0 O1 2.106270 1_555
Mg0 O3 2.169401 1_555
Mg0 O7 2.182182 1_555
Mg0 O5 2.225573 1_555
Mg0 O11 2.435400 1_555
Mg0 O9 2.459165 1_555
Mg1 O0 2.106309 1_456
Mg1 O2 2.169340 1_556
Mg1 O6 2.182142 1_455
Mg1 O4 2.225589 1_556
Mg1 O10 2.435687 1_555
Mg1 O8 2.459060 1_555
Fe0 O8 2.039498 1_554
Fe0 O3 2.074478 1_555
Fe0 O11 2.141372 1_554
Fe0 O7 2.210549 1_554
Fe0 O4 2.249723 1_555
Fe0 O0 2.351385 1_555
Fe1 O9 2.039392 1_565
Fe1 O2 2.074655 1_655
Fe1 O10 2.140890 1_655
Fe1 O6 2.210625 1_555
Fe1 O5 2.249867 1_565
Fe1 O1 2.351428 1_665
O0 W0 2.059912 1_554
O1 W1 2.059915 1_555
O2 W0 2.102824 1_554
O3 W1 2.102772 1_655
O4 W1 1.969177 1_555
O5 W0 1.969204 1_544
O6 W1 2.049950 1_655
O7 W0 2.049965 1_545
O8 W1 2.006306 1_555
O9 W0 2.006256 1_545
O10 W0 1.931643 1_555
O11 W1 1.931552 1_655
