# generated using pymatgen
data_Ce2Fe12Co5N3
_symmetry_space_group_name_H-M   'P 1'
_cell_length_a   6.50948696
_cell_length_b   6.50948696
_cell_length_c   6.50948743
_cell_angle_alpha   82.93936843
_cell_angle_beta   82.93936843
_cell_angle_gamma   82.93935957
_symmetry_Int_Tables_number   1
_chemical_formula_structural   Ce2Fe12Co5N3
_chemical_formula_sum   'Ce2 Fe12 Co5 N3'
_cell_volume   270.02918646
_cell_formula_units_Z   1
loop_
 _symmetry_equiv_pos_site_id
 _symmetry_equiv_pos_as_xyz
  1  'x, y, z'
loop_
 _atom_site_type_symbol
 _atom_site_label
 _atom_site_symmetry_multiplicity
 _atom_site_fract_x
 _atom_site_fract_y
 _atom_site_fract_z
 _atom_site_occupancy
  Ce  Ce0  1  0.65596000  0.65596000  0.65596000  1
  Ce  Ce1  1  0.34404100  0.34404100  0.34404100  1
  Fe  Fe0  1  0.28054100  0.71945900  0.00000000  1
  Fe  Fe1  1  0.71945900  0.00000000  0.28054100  1
  Fe  Fe2  1  0.00000000  0.28054100  0.71945900  1
  Fe  Fe3  1  0.28054100  0.00000000  0.71945900  1
  Fe  Fe4  1  0.00000000  0.71945900  0.28054100  1
  Fe  Fe5  1  0.71945900  0.28054100  0.00000000  1
  Fe  Fe6  1  0.33951300  0.33951300  0.86106100  1
  Fe  Fe7  1  0.33951300  0.86106100  0.33951300  1
  Fe  Fe8  1  0.86106100  0.33951300  0.33951300  1
  Fe  Fe9  1  0.66048700  0.66048700  0.13893900  1
  Fe  Fe10  1  0.66048700  0.13893900  0.66048700  1
  Fe  Fe11  1  0.13893900  0.66048700  0.66048700  1
  Co  Co0  1  0.00000000  0.00000000  0.50000000  1
  Co  Co1  1  0.00000000  0.50000000  0.00000000  1
  Co  Co2  1  0.50000000  0.00000000  0.00000000  1
  Co  Co3  1  0.90672800  0.90672800  0.90672800  1
  Co  Co4  1  0.09327200  0.09327200  0.09327200  1
  N  N0  1  0.50000000  0.50000000  0.00000000  1
  N  N1  1  0.50000000  0.00000000  0.50000000  1
  N  N2  1  0.00000000  0.50000000  0.50000000  1
loop_
_geom_bond_atom_site_label_1
_geom_bond_atom_site_label_2
_geom_bond_distance
_geom_bond_site_symmetry_2
Ce0 N1 2.492449 1_565
Ce0 N2 2.492449 1_655
Ce0 N0 2.492450 1_556
Ce0 Co3 3.155808 1_555
Ce0 Co2 3.343160 1_566
Ce0 Co1 3.343160 1_656
Ce0 Co0 3.343160 1_665
Ce1 N1 2.492450 1_555
Ce1 N2 2.492450 1_555
Ce1 N0 2.492450 1_555
Ce1 Co4 3.155820 1_555
Ce1 Co1 3.343169 1_555
Ce1 Co2 3.343169 1_555
Ce1 Co0 3.343169 1_555
Fe0 N0 1.892060 1_555
Fe1 N1 1.892060 1_555
Fe2 N2 1.892060 1_555
Fe3 N1 1.892060 1_555
Fe4 N2 1.892060 1_555
Fe5 N0 1.892060 1_555
Fe6 N0 1.932248 1_556
Fe7 N1 1.932248 1_565
Fe8 N2 1.932248 1_655
Fe9 N0 1.932248 1_555
Fe10 N1 1.932248 1_555
Fe11 N2 1.932248 1_555
Co0 Fe8 2.442742 1_455
Co0 Fe7 2.442742 1_545
Co0 Fe10 2.442742 1_455
Co0 Fe11 2.442742 1_545
Co0 Fe3 2.452973 1_555
Co0 Fe2 2.452973 1_555
Co0 Fe1 2.452973 1_455
Co0 Fe4 2.452973 1_545
Co0 Co3 2.654668 1_445
Co0 Co4 2.654668 1_555
Co1 Fe6 2.442742 1_554
Co1 Fe9 2.442742 1_455
Co1 Fe8 2.442742 1_455
Co1 Fe11 2.442742 1_554
Co1 Fe4 2.452973 1_555
Co1 Fe2 2.452973 1_554
Co1 Fe0 2.452973 1_555
Co1 Fe5 2.452973 1_455
Co1 Co3 2.654668 1_454
Co1 Co4 2.654668 1_555
Co2 Fe6 2.442742 1_554
Co2 Fe9 2.442742 1_545
Co2 Fe7 2.442742 1_545
Co2 Fe10 2.442742 1_554
Co2 Fe1 2.452973 1_555
Co2 Fe3 2.452973 1_554
Co2 Fe5 2.452973 1_555
Co2 Fe0 2.452973 1_545
Co2 Co3 2.654668 1_544
Co2 Co4 2.654668 1_555
Co3 Co4 2.347576 1_666
Co3 Fe11 2.619884 1_655
Co3 Fe10 2.619884 1_565
Co3 Fe9 2.619884 1_556
Co3 Fe0 2.688452 1_656
Co3 Fe5 2.688452 1_566
Co3 Fe3 2.688452 1_665
Co3 Fe4 2.688452 1_656
Co3 Fe1 2.688452 1_566
Co3 Fe2 2.688452 1_665
Co4 Fe8 2.619884 1_455
Co4 Fe7 2.619884 1_545
Co4 Fe6 2.619884 1_554
Co4 Fe0 2.688452 1_545
Co4 Fe5 2.688452 1_455
Co4 Fe2 2.688452 1_554
Co4 Fe1 2.688452 1_455
Co4 Fe4 2.688452 1_545
Co4 Fe3 2.688452 1_554
