# generated using pymatgen
data_Li3MnV(PO4)3
_symmetry_space_group_name_H-M   'P 1'
_cell_length_a   8.50427200
_cell_length_b   8.89709939
_cell_length_c   12.27748789
_cell_angle_alpha   90.60893694
_cell_angle_beta   91.92230399
_cell_angle_gamma   90.80144327
_symmetry_Int_Tables_number   1
_chemical_formula_structural   Li3MnV(PO4)3
_chemical_formula_sum   'Li12 Mn4 V4 P12 O48'
_cell_volume   928.28505435
_cell_formula_units_Z   4
loop_
 _symmetry_equiv_pos_site_id
 _symmetry_equiv_pos_as_xyz
  1  'x, y, z'
loop_
 _atom_site_type_symbol
 _atom_site_label
 _atom_site_symmetry_multiplicity
 _atom_site_fract_x
 _atom_site_fract_y
 _atom_site_fract_z
 _atom_site_occupancy
  Li  Li0  1  0.99909700  0.99874400  0.99873500  1
  Li  Li1  1  0.98651500  0.89479800  0.25196200  1
  Li  Li2  1  0.99584100  0.99871300  0.50453200  1
  Li  Li3  1  0.00476900  0.10380300  0.74508300  1
  Li  Li4  1  0.70938500  0.19214400  0.04967300  1
  Li  Li5  1  0.71498600  0.80796000  0.54719300  1
  Li  Li6  1  0.49486600  0.49578600  0.99907200  1
  Li  Li7  1  0.49696700  0.60230100  0.25144400  1
  Li  Li8  1  0.49365400  0.50452300  0.50190800  1
  Li  Li9  1  0.49665800  0.39944300  0.75427700  1
  Li  Li10  1  0.28902900  0.19442500  0.45211600  1
  Li  Li11  1  0.28376500  0.80465400  0.94215900  1
  Mn  Mn0  1  0.71051000  0.00947100  0.35747600  1
  Mn  Mn1  1  0.28905700  0.99699400  0.64147300  1
  Mn  Mn2  1  0.21076200  0.49585800  0.35341300  1
  Mn  Mn3  1  0.21130100  0.50231100  0.85341300  1
  V  V0  1  0.78481400  0.49936600  0.14427300  1
  V  V1  1  0.78712500  0.50184200  0.64410200  1
  V  V2  1  0.71546300  0.99442600  0.85748400  1
  V  V3  1  0.28232400  0.00078500  0.14201500  1
  P  P0  1  0.99498500  0.19847800  0.24922000  1
  P  P1  1  0.00126300  0.80300000  0.74936200  1
  P  P2  1  0.85195900  0.64292800  0.39536200  1
  P  P3  1  0.84621300  0.35507900  0.89450700  1
  P  P4  1  0.65024600  0.85154400  0.10421700  1
  P  P5  1  0.65033300  0.14891400  0.60216200  1
  P  P6  1  0.49393800  0.29671400  0.24871900  1
  P  P7  1  0.49772300  0.70413900  0.74825700  1
  P  P8  1  0.35552900  0.85506800  0.39904800  1
  P  P9  1  0.35331800  0.14266700  0.89610300  1
  P  P10  1  0.15709500  0.64350100  0.10473200  1
  P  P11  1  0.15528900  0.35825700  0.60543700  1
  O  O0  1  0.98959700  0.58478300  0.10774100  1
  O  O1  1  0.99185400  0.42366200  0.60800200  1
  O  O2  1  0.92049400  0.09100000  0.33585100  1
  O  O3  1  0.93052700  0.91497600  0.83417100  1
  O  O4  1  0.87274500  0.29418100  0.18811700  1
  O  O5  1  0.87356000  0.70525100  0.69043100  1
  O  O6  1  0.86838900  0.81665600  0.40975600  1
  O  O7  1  0.85338700  0.18020200  0.90923700  1
  O  O8  1  0.75581400  0.59465300  0.29140200  1
  O  O9  1  0.74832800  0.93712100  0.01866400  1
  O  O10  1  0.75161600  0.58964600  0.49200400  1
  O  O11  1  0.75239700  0.40390100  0.79178800  1
  O  O12  1  0.74971500  0.05977600  0.51834100  1
  O  O13  1  0.72863400  0.90158400  0.21474300  1
  O  O14  1  0.74910300  0.40954600  0.99263400  1
  O  O15  1  0.72149100  0.09812600  0.71250500  1
  O  O16  1  0.65374300  0.67800800  0.08944300  1
  O  O17  1  0.66057000  0.32120500  0.58684900  1
  O  O18  1  0.61144700  0.20745700  0.31644100  1
  O  O19  1  0.62136900  0.79963200  0.81108100  1
  O  O20  1  0.56596500  0.40403200  0.16321500  1
  O  O21  1  0.56811100  0.59171600  0.66461400  1
  O  O22  1  0.53329100  0.89824900  0.40981800  1
  O  O23  1  0.52625700  0.09261400  0.90857900  1
  O  O24  1  0.47449800  0.89247100  0.09494200  1
  O  O25  1  0.47209900  0.11330500  0.58857700  1
  O  O26  1  0.41805800  0.40566000  0.33506900  1
  O  O27  1  0.42349700  0.60210800  0.83884000  1
  O  O28  1  0.37739800  0.19560100  0.18495200  1
  O  O29  1  0.38142100  0.79923800  0.68510200  1
  O  O30  1  0.35529700  0.68364000  0.41261600  1
  O  O31  1  0.35997500  0.31447700  0.90957000  1
  O  O32  1  0.27688400  0.90786500  0.29134800  1
  O  O33  1  0.25316300  0.58798100  0.00600000  1
  O  O34  1  0.27475300  0.09224900  0.78466000  1
  O  O35  1  0.25794600  0.94272500  0.48566700  1
  O  O36  1  0.25402300  0.59972500  0.20774700  1
  O  O37  1  0.25798600  0.41127100  0.50986400  1
  O  O38  1  0.25128100  0.05770700  0.98024900  1
  O  O39  1  0.25172500  0.40297900  0.71099700  1
  O  O40  1  0.14610800  0.81825400  0.09009000  1
  O  O41  1  0.13592500  0.18463700  0.59058200  1
  O  O42  1  0.12339400  0.28506100  0.31439700  1
  O  O43  1  0.12733200  0.71759600  0.81286800  1
  O  O44  1  0.06231900  0.08590800  0.16373800  1
  O  O45  1  0.06574800  0.91091700  0.65984800  1
  O  O46  1  0.01918500  0.58140700  0.39367600  1
  O  O47  1  0.01680700  0.41060500  0.89424300  1
loop_
_geom_bond_atom_site_label_1
_geom_bond_atom_site_label_2
_geom_bond_distance
_geom_bond_site_symmetry_2
Li0 O3 2.203282 1_555
Li0 O44 2.208237 1_666
Li0 O9 2.216671 1_556
Li0 O38 2.220341 1_665
Li0 O7 2.313367 1_565
Li0 O40 2.323822 1_656
Li1 O2 2.109797 1_565
Li1 O44 2.129618 1_665
Li1 O13 2.226916 1_555
Li1 O6 2.320640 1_555
Li1 O32 2.501166 1_655
Li1 O40 2.536449 1_655
Li2 O45 2.137389 1_655
Li2 O12 2.181450 1_565
Li2 O6 2.231299 1_555
Li2 O41 2.257207 1_665
Li2 O35 2.309442 1_655
Li2 O2 2.309883 1_565
Li3 O45 2.081406 1_545
Li3 O3 2.114980 1_445
Li3 O34 2.334777 1_555
Li3 O41 2.346910 1_555
Li3 O15 2.428516 1_455
Li3 O7 2.520055 1_455
Li4 O14 2.090981 1_554
Li4 O7 2.150648 1_554
Li4 O9 2.326789 1_545
Li4 O4 2.327408 1_555
Li4 O23 2.440938 1_554
Li5 O10 2.081355 1_555
Li5 O6 2.168596 1_555
Li5 O12 2.288585 1_565
Li5 O5 2.378207 1_555
Li5 O22 2.401305 1_555
Li6 O31 2.225219 1_555
Li6 O33 2.227690 1_556
Li6 O20 2.249518 1_556
Li6 O27 2.260262 1_555
Li6 O14 2.307865 1_555
Li6 O16 2.342001 1_556
Li7 O36 2.116840 1_555
Li7 O26 2.148693 1_555
Li7 O20 2.158806 1_555
Li7 O8 2.241316 1_555
Li7 O30 2.458608 1_555
Li7 O16 2.523597 1_555
Li8 O37 2.164023 1_555
Li8 O21 2.204927 1_555
Li8 O30 2.264721 1_555
Li8 O26 2.289175 1_555
Li8 O10 2.318276 1_555
Li8 O17 2.400896 1_555
Li9 O39 2.133089 1_555
Li9 O21 2.136191 1_555
Li9 O27 2.179730 1_555
Li9 O11 2.207657 1_555
Li9 O31 2.390084 1_555
Li9 O17 2.615738 1_555
Li10 O37 2.071788 1_555
Li10 O41 2.177478 1_555
Li10 O35 2.294519 1_545
Li10 O42 2.322578 1_555
Li10 O25 2.373577 1_555
Li11 O33 2.104783 1_556
Li11 O43 2.166306 1_555
Li11 O40 2.196750 1_556
Li11 O38 2.316823 1_565
Li11 O27 2.526083 1_555
Li11 O24 2.547420 1_556
Mn0 O22 1.923633 1_545
Mn0 O2 1.945575 1_555
Mn0 O13 2.000637 1_545
Mn0 O18 2.024437 1_555
Mn0 O12 2.035936 1_555
Mn0 O6 2.277638 1_545
Mn1 O34 1.951688 1_565
Mn1 O35 1.976153 1_555
Mn1 O25 1.988165 1_565
Mn1 O29 2.007502 1_555
Mn1 O45 2.058066 1_555
Mn1 O41 2.214018 1_565
Mn2 O46 1.886474 1_555
Mn2 O26 1.965941 1_555
Mn2 O42 2.053530 1_555
Mn2 O36 2.063376 1_555
Mn2 O37 2.098728 1_555
Mn2 O30 2.165010 1_555
Mn3 O47 1.918175 1_555
Mn3 O39 1.993112 1_555
Mn3 O27 2.014220 1_555
Mn3 O33 2.033371 1_556
Mn3 O43 2.112158 1_555
Mn3 O31 2.211772 1_555
O0 P10 1.512106 1_655
O0 V0 1.958129 1_555
O1 P11 1.515454 1_655
O1 V1 1.946970 1_555
O2 P0 1.580144 1_555
O3 P1 1.573319 1_655
O3 V2 1.998421 1_555
O4 P0 1.534442 1_555
O4 V0 2.052720 1_555
O5 P1 1.538429 1_655
O5 V1 2.012936 1_555
O6 P2 1.557678 1_555
O7 P3 1.570077 1_555
O7 V2 2.094024 1_545
O8 P2 1.546170 1_555
O8 V0 2.011399 1_555
O9 P4 1.561013 1_555
O9 V2 2.059703 1_554
O10 P2 1.558629 1_555
O10 V1 2.046547 1_555
O11 P3 1.539322 1_555
O11 V1 2.048560 1_555
O12 P5 1.569108 1_555
O13 P4 1.549896 1_555
O14 P3 1.560073 1_555
O14 V0 2.029927 1_556
O15 P5 1.539920 1_555
O15 V2 2.015416 1_545
O16 P4 1.553484 1_555
O16 V0 2.060044 1_555
O17 P5 1.547956 1_555
O17 V1 2.027855 1_555
O18 P6 1.516940 1_555
O19 P7 1.526150 1_555
O19 V2 1.969306 1_555
O20 P6 1.561086 1_555
O20 V0 2.055839 1_555
O21 P7 1.565098 1_555
O21 V1 2.059313 1_555
O22 P8 1.555536 1_555
O23 P9 1.545786 1_555
O23 V2 1.959885 1_545
O24 P4 1.544054 1_555
O24 V3 2.007291 1_565
O25 P5 1.547312 1_555
O26 P6 1.587911 1_555
O27 P7 1.584894 1_555
O28 P6 1.520697 1_555
O28 V3 1.961816 1_555
O29 P7 1.510387 1_555
O30 P8 1.536022 1_555
O31 P9 1.535829 1_555
O32 P8 1.542424 1_555
O32 V3 2.020872 1_565
O33 P10 1.563924 1_555
O34 P9 1.561073 1_555
O35 P8 1.577200 1_555
O36 P10 1.542825 1_555
O37 P11 1.559195 1_555
O38 P9 1.565268 1_555
O38 V3 2.064131 1_556
O39 P11 1.555366 1_555
O40 P10 1.570768 1_555
O40 V3 2.064349 1_565
O41 P11 1.559296 1_555
O42 P0 1.526766 1_455
O43 P1 1.521199 1_555
O44 P0 1.570502 1_455
O44 V3 2.052829 1_555
O45 P1 1.574349 1_555
O46 P2 1.531669 1_455
O47 P3 1.526146 1_455
