# generated using pymatgen
data_Sr(TbSe2)2
_symmetry_space_group_name_H-M   'P 1'
_cell_length_a   4.15810987
_cell_length_b   12.60598020
_cell_length_c   14.99655682
_cell_angle_alpha   89.99270802
_cell_angle_beta   90.00154225
_cell_angle_gamma   89.99922688
_symmetry_Int_Tables_number   1
_chemical_formula_structural   Sr(TbSe2)2
_chemical_formula_sum   'Sr4 Tb8 Se16'
_cell_volume   786.07527284
_cell_formula_units_Z   4
loop_
 _symmetry_equiv_pos_site_id
 _symmetry_equiv_pos_as_xyz
  1  'x, y, z'
loop_
 _atom_site_type_symbol
 _atom_site_label
 _atom_site_symmetry_multiplicity
 _atom_site_fract_x
 _atom_site_fract_y
 _atom_site_fract_z
 _atom_site_occupancy
  Sr  Sr0  1  0.75002344  0.74157358  0.16434199  1
  Sr  Sr1  1  0.74989134  0.24149119  0.33568391  1
  Sr  Sr2  1  0.25005041  0.25861720  0.83569275  1
  Sr  Sr3  1  0.24994652  0.75856428  0.66428115  1
  Tb  Tb0  1  0.74984539  0.06513833  0.11046542  1
  Tb  Tb1  1  0.75012113  0.56519909  0.38952416  1
  Tb  Tb2  1  0.25002249  0.93488493  0.88933261  1
  Tb  Tb3  1  0.25006592  0.43506263  0.61062894  1
  Tb  Tb4  1  0.74983407  0.08209961  0.59874186  1
  Tb  Tb5  1  0.75001396  0.58213360  0.90126081  1
  Tb  Tb6  1  0.25002906  0.91783851  0.40120233  1
  Tb  Tb7  1  0.25010238  0.41773445  0.09886803  1
  Se  Se0  1  0.75003730  0.29355687  0.67397018  1
  Se  Se1  1  0.75008532  0.79348935  0.82598234  1
  Se  Se2  1  0.25012006  0.70647417  0.32597136  1
  Se  Se3  1  0.24970972  0.20640501  0.17403536  1
  Se  Se4  1  0.75010740  0.36916508  0.97067622  1
  Se  Se5  1  0.74992691  0.86918230  0.52930441  1
  Se  Se6  1  0.24998752  0.63071815  0.02936335  1
  Se  Se7  1  0.24976930  0.13073570  0.47064668  1
  Se  Se8  1  0.75020017  0.47488095  0.21565337  1
  Se  Se9  1  0.75007168  0.97491520  0.28440950  1
  Se  Se10  1  0.25004848  0.52497223  0.78450530  1
  Se  Se11  1  0.24978828  0.02498372  0.71550641  1
  Se  Se12  1  0.75003849  0.08858412  0.92161356  1
  Se  Se13  1  0.75008149  0.58869431  0.57837185  1
  Se  Se14  1  0.24988376  0.91141395  0.07818976  1
  Se  Se15  1  0.25019701  0.41149051  0.42177737  1
loop_
_geom_bond_atom_site_label_1
_geom_bond_atom_site_label_2
_geom_bond_distance
_geom_bond_site_symmetry_2
Se0 Tb4 2.894665 1_555
Se0 Tb3 2.899251 1_555
Se0 Tb3 2.899493 1_655
Se0 Sr2 3.224611 1_655
Se0 Sr2 3.224632 1_555
Se1 Tb5 2.893515 1_555
Se1 Tb2 2.898522 1_655
Se1 Tb2 2.898899 1_555
Se1 Sr3 3.224106 1_655
Se1 Sr3 3.224773 1_555
Se2 Tb6 2.893602 1_555
Se2 Tb1 2.898593 1_555
Se2 Tb1 2.898658 1_455
Se2 Sr0 3.223633 1_555
Se2 Sr0 3.224059 1_455
Se3 Tb7 2.892561 1_555
Se3 Tb0 2.898388 1_455
Se3 Tb0 2.899200 1_555
Se3 Sr1 3.223675 1_455
Se3 Sr1 3.224573 1_555
Se4 Tb5 2.879313 1_555
Se4 Tb7 2.897090 1_656
Se4 Tb7 2.897182 1_556
Se4 Sr2 3.219023 1_655
Se4 Sr2 3.219283 1_555
Se5 Tb4 2.879078 1_565
Se5 Tb6 2.896023 1_555
Se5 Tb6 2.896719 1_655
Se5 Sr3 3.219244 1_555
Se5 Sr3 3.219255 1_655
Se6 Tb7 2.879976 1_555
Se6 Tb5 2.896178 1_454
Se6 Tb5 2.896398 1_554
Se6 Sr0 3.220715 1_455
Se6 Sr0 3.220862 1_555
Se7 Tb6 2.878879 1_545
Se7 Tb4 2.896099 1_455
Se7 Tb4 2.896399 1_555
Se7 Sr1 3.219494 1_455
Se7 Sr1 3.220244 1_555
Se8 Tb7 2.812035 1_655
Se8 Tb7 2.812581 1_555
Se8 Tb1 2.845332 1_555
Se8 Sr0 3.448765 1_555
Se8 Sr1 3.448885 1_555
Se9 Tb6 2.811865 1_655
Se9 Tb6 2.812211 1_555
Se9 Tb0 2.845595 1_565
Se9 Sr1 3.447399 1_565
Se9 Sr0 3.449047 1_555
Se10 Tb5 2.811943 1_555
Se10 Tb5 2.812211 1_455
Se10 Tb3 2.843351 1_555
Se10 Sr2 3.444202 1_555
Se10 Sr3 3.452575 1_555
Se11 Tb4 2.811718 1_455
Se11 Tb4 2.812083 1_555
Se11 Tb2 2.843348 1_545
Se11 Sr3 3.445311 1_545
Se11 Sr2 3.453116 1_555
Se12 Tb0 2.847471 1_556
Se12 Tb2 2.882837 1_645
Se12 Tb2 2.882952 1_545
Se12 Sr2 3.252057 1_555
Se12 Sr2 3.252202 1_655
Se13 Tb1 2.847548 1_555
Se13 Tb3 2.882105 1_655
Se13 Tb3 2.882255 1_555
Se13 Sr3 3.250560 1_655
Se13 Sr3 3.251285 1_555
Se14 Tb2 2.847582 1_554
Se14 Tb0 2.882989 1_565
Se14 Tb0 2.883200 1_465
Se14 Sr0 3.251576 1_455
Se14 Sr0 3.252237 1_555
Se15 Tb3 2.847707 1_555
Se15 Tb1 2.882622 1_555
Se15 Tb1 2.883021 1_455
Se15 Sr1 3.252284 1_555
Se15 Sr1 3.253901 1_455
