# generated using pymatgen
data_Ce2(Ga3Rh)3
_symmetry_space_group_name_H-M   'P 1'
_cell_length_a   7.58357813
_cell_length_b   7.58357813
_cell_length_c   9.50704175
_cell_angle_alpha   90.00000000
_cell_angle_beta   90.00000000
_cell_angle_gamma   119.62860024
_symmetry_Int_Tables_number   1
_chemical_formula_structural   Ce2(Ga3Rh)3
_chemical_formula_sum   'Ce4 Ga18 Rh6'
_cell_volume   475.26689330
_cell_formula_units_Z   2
loop_
 _symmetry_equiv_pos_site_id
 _symmetry_equiv_pos_as_xyz
  1  'x, y, z'
loop_
 _atom_site_type_symbol
 _atom_site_label
 _atom_site_symmetry_multiplicity
 _atom_site_fract_x
 _atom_site_fract_y
 _atom_site_fract_z
 _atom_site_occupancy
  Ce  Ce0  1  0.00022585  0.66851844  0.25000000  1
  Ce  Ce1  1  -0.00022585  0.33148156  0.75000000  1
  Ce  Ce2  1  0.66851844  0.00022585  0.25000000  1
  Ce  Ce3  1  0.33148156  -0.00022585  0.75000000  1
  Ga  Ga0  1  0.12946530  0.12946530  0.25000000  1
  Ga  Ga1  1  0.87053470  0.87053470  0.75000000  1
  Ga  Ga2  1  0.00466199  0.33466134  0.07695288  1
  Ga  Ga3  1  0.99533801  0.66533866  0.92304712  1
  Ga  Ga4  1  0.99533801  0.66533866  0.57695288  1
  Ga  Ga5  1  0.33466134  0.00466199  0.42304712  1
  Ga  Ga6  1  0.00466199  0.33466134  0.42304712  1
  Ga  Ga7  1  0.66533866  0.99533801  0.57695288  1
  Ga  Ga8  1  0.66533866  0.99533801  0.92304712  1
  Ga  Ga9  1  0.33466134  0.00466199  0.07695288  1
  Ga  Ga10  1  0.33543233  0.33543233  0.56280883  1
  Ga  Ga11  1  0.66456767  0.66456767  0.43719117  1
  Ga  Ga12  1  0.66456767  0.66456767  0.06280883  1
  Ga  Ga13  1  0.33543233  0.33543233  0.93719117  1
  Ga  Ga14  1  0.33901809  0.54312198  0.25000000  1
  Ga  Ga15  1  0.66098191  0.45687802  0.75000000  1
  Ga  Ga16  1  0.54312198  0.33901809  0.25000000  1
  Ga  Ga17  1  0.45687802  0.66098191  0.75000000  1
  Rh  Rh0  1  0.67041057  0.32958943  -0.00000000  1
  Rh  Rh1  1  0.32958943  0.67041057  -0.00000000  1
  Rh  Rh2  1  0.32958943  0.67041057  0.50000000  1
  Rh  Rh3  1  0.67041057  0.32958943  0.50000000  1
  Rh  Rh4  1  -0.00000000  0.00000000  -0.00000000  1
  Rh  Rh5  1  -0.00000000  0.00000000  0.50000000  1
loop_
_geom_bond_atom_site_label_1
_geom_bond_atom_site_label_2
_geom_bond_distance
_geom_bond_site_symmetry_2
Ce0 Ga2 3.033495 1_555
Ce0 Ga6 3.033495 1_555
Ce0 Ga5 3.040512 1_565
Ce0 Ga9 3.040512 1_565
Ce0 Ga11 3.093882 1_455
Ce0 Ga12 3.093882 1_455
Ce0 Ga4 3.108527 1_455
Ce0 Ga3 3.108527 1_454
Ce0 Ga16 3.113821 1_455
Ce0 Ga0 3.129294 1_565
Ce0 Ga14 3.149787 1_555
Ce1 Ga4 3.033495 1_455
Ce1 Ga3 3.033495 1_455
Ce1 Ga8 3.040512 1_445
Ce1 Ga7 3.040512 1_445
Ce1 Ga10 3.093882 1_555
Ce1 Ga13 3.093882 1_555
Ce1 Ga2 3.108527 1_556
Ce1 Ga6 3.108527 1_555
Ce1 Ga17 3.113821 1_555
Ce1 Ga1 3.129294 1_445
Ce1 Ga15 3.149787 1_455
Ce2 Ga9 3.033495 1_555
Ce2 Ga5 3.033495 1_555
Ce2 Ga6 3.040512 1_655
Ce2 Ga2 3.040512 1_655
Ce2 Ga11 3.093882 1_545
Ce2 Ga12 3.093882 1_545
Ce2 Ga7 3.108527 1_545
Ce2 Ga8 3.108527 1_544
Ce2 Ga14 3.113821 1_545
Ce2 Ga0 3.129294 1_655
Ce2 Ga16 3.149787 1_555
Ce3 Ga8 3.033495 1_545
Ce3 Ga7 3.033495 1_545
Ce3 Ga3 3.040512 1_445
Ce3 Ga4 3.040512 1_445
Ce3 Ga10 3.093882 1_555
Ce3 Ga13 3.093882 1_555
Ce3 Ga9 3.108527 1_556
Ce3 Ga5 3.108527 1_555
Ce3 Ga15 3.113821 1_555
Ce3 Ga1 3.129294 1_445
Ce3 Ga17 3.149787 1_545
Ga0 Rh4 2.573671 1_555
Ga0 Rh5 2.573671 1_555
Ga0 Ga16 2.727099 1_555
Ga0 Ga14 2.727099 1_555
Ga0 Ga9 2.734976 1_555
Ga0 Ga5 2.734976 1_555
Ga0 Ga2 2.734976 1_555
Ga0 Ga6 2.734976 1_555
Ga1 Rh4 2.573671 1_666
Ga1 Rh5 2.573671 1_665
Ga1 Ga17 2.727099 1_555
Ga1 Ga15 2.727099 1_555
Ga1 Ga3 2.734976 1_555
Ga1 Ga7 2.734976 1_555
Ga1 Ga4 2.734976 1_555
Ga1 Ga8 2.734976 1_555
Ga2 Rh0 2.620235 1_455
Ga2 Rh1 2.624236 1_555
Ga2 Rh4 2.624662 1_555
Ga2 Ga3 2.934261 1_454
Ga2 Ga8 2.972743 1_444
Ga3 Rh1 2.620235 1_656
Ga3 Rh0 2.624236 1_556
Ga3 Rh4 2.624662 1_666
Ga3 Ga9 2.972743 1_666
Ga4 Rh2 2.620235 1_655
Ga4 Rh3 2.624236 1_555
Ga4 Rh5 2.624662 1_665
Ga4 Ga6 2.934261 1_655
Ga4 Ga5 2.972743 1_665
Ga5 Rh2 2.620235 1_545
Ga5 Rh3 2.624236 1_555
Ga5 Rh5 2.624662 1_555
Ga5 Ga7 2.934261 1_545
Ga6 Rh3 2.620235 1_455
Ga6 Rh2 2.624236 1_555
Ga6 Rh5 2.624662 1_555
Ga6 Ga7 2.972743 1_445
Ga7 Rh3 2.620235 1_565
Ga7 Rh2 2.624236 1_555
Ga7 Rh5 2.624662 1_665
Ga8 Rh0 2.620235 1_566
Ga8 Rh1 2.624236 1_556
Ga8 Rh4 2.624662 1_666
Ga8 Ga9 2.934261 1_566
Ga9 Rh1 2.620235 1_545
Ga9 Rh0 2.624236 1_555
Ga9 Rh4 2.624662 1_555
Ga10 Rh5 2.626813 1_555
Ga10 Rh3 2.631181 1_555
Ga10 Rh2 2.631181 1_555
Ga10 Ga11 2.779649 1_555
Ga10 Ga15 2.803971 1_555
Ga10 Ga17 2.803971 1_555
Ga10 Ga5 2.836056 1_555
Ga10 Ga6 2.836056 1_555
Ga11 Rh5 2.626813 1_665
Ga11 Rh2 2.631181 1_555
Ga11 Rh3 2.631181 1_555
Ga11 Ga16 2.803971 1_555
Ga11 Ga14 2.803971 1_555
Ga11 Ga7 2.836056 1_555
Ga11 Ga4 2.836056 1_555
Ga12 Rh4 2.626813 1_665
Ga12 Rh1 2.631181 1_555
Ga12 Rh0 2.631181 1_555
Ga12 Ga13 2.779649 1_554
Ga12 Ga16 2.803971 1_555
Ga12 Ga14 2.803971 1_555
Ga12 Ga8 2.836056 1_554
Ga12 Ga3 2.836056 1_554
Ga13 Rh4 2.626813 1_556
Ga13 Rh0 2.631181 1_556
Ga13 Rh1 2.631181 1_556
Ga13 Ga15 2.803971 1_555
Ga13 Ga17 2.803971 1_555
Ga13 Ga2 2.836056 1_556
Ga13 Ga9 2.836056 1_556
Ga14 Rh1 2.579566 1_555
Ga14 Rh2 2.579566 1_555
Ga14 Ga16 2.675903 1_555
Ga14 Ga6 2.769780 1_555
Ga14 Ga2 2.769780 1_555
Ga15 Rh0 2.579566 1_556
Ga15 Rh3 2.579566 1_555
Ga15 Ga17 2.675903 1_555
Ga15 Ga3 2.769780 1_555
Ga15 Ga4 2.769780 1_555
Ga16 Rh3 2.579566 1_555
Ga16 Rh0 2.579566 1_555
Ga16 Ga9 2.769780 1_555
Ga16 Ga5 2.769780 1_555
Ga17 Rh1 2.579566 1_556
Ga17 Rh2 2.579566 1_555
Ga17 Ga7 2.769780 1_555
Ga17 Ga8 2.769780 1_555
