# generated using pymatgen
data_Na5Mn3F14
_symmetry_space_group_name_H-M   'P 1'
_cell_length_a   7.72101500
_cell_length_b   12.27314600
_cell_length_c   12.52415800
_cell_angle_alpha   90.00000000
_cell_angle_beta   90.00000000
_cell_angle_gamma   90.00000000
_symmetry_Int_Tables_number   1
_chemical_formula_structural   Na5Mn3F14
_chemical_formula_sum   'Na20 Mn12 F56'
_cell_volume   1186.80354427
_cell_formula_units_Z   4
loop_
 _symmetry_equiv_pos_site_id
 _symmetry_equiv_pos_as_xyz
  1  'x, y, z'
loop_
 _atom_site_type_symbol
 _atom_site_label
 _atom_site_symmetry_multiplicity
 _atom_site_fract_x
 _atom_site_fract_y
 _atom_site_fract_z
 _atom_site_occupancy
  Na  Na0  1  0.02522000  0.47107100  0.01509900  1
  Na  Na1  1  0.17827000  0.25273400  0.58054100  1
  Na  Na2  1  0.21345100  0.74601400  0.92727600  1
  Na  Na3  1  0.23323400  0.00162300  0.26159600  1
  Na  Na4  1  0.24032800  0.49602000  0.26684500  1
  Na  Na5  1  0.25967200  0.00398000  0.76684500  1
  Na  Na6  1  0.26676600  0.49837700  0.76159600  1
  Na  Na7  1  0.28654900  0.75398600  0.42727600  1
  Na  Na8  1  0.32173000  0.24726600  0.08054100  1
  Na  Na9  1  0.47478000  0.02892900  0.51509900  1
  Na  Na10  1  0.52522000  0.52892900  0.48490100  1
  Na  Na11  1  0.67827000  0.74726600  0.91945900  1
  Na  Na12  1  0.71345100  0.25398600  0.57272400  1
  Na  Na13  1  0.74032800  0.50398000  0.23315500  1
  Na  Na14  1  0.73323400  0.99837700  0.23840400  1
  Na  Na15  1  0.76676600  0.50162300  0.73840400  1
  Na  Na16  1  0.75967200  0.99602000  0.73315500  1
  Na  Na17  1  0.78654900  0.24601400  0.07272400  1
  Na  Na18  1  0.82173000  0.75273400  0.41945900  1
  Na  Na19  1  0.97478000  0.97107100  0.98490100  1
  Mn  Mn0  1  0.99844800  0.50176200  0.50019000  1
  Mn  Mn1  1  0.00393600  0.75189900  0.69028400  1
  Mn  Mn2  1  0.00108100  0.75108900  0.16385400  1
  Mn  Mn3  1  0.49891900  0.74891100  0.66385500  1
  Mn  Mn4  1  0.49606400  0.74810100  0.19028400  1
  Mn  Mn5  1  0.50155200  0.99823800  0.00019000  1
  Mn  Mn6  1  0.49844800  0.49823800  0.99981000  1
  Mn  Mn7  1  0.50393600  0.24810100  0.80971600  1
  Mn  Mn8  1  0.50108100  0.24891100  0.33614500  1
  Mn  Mn9  1  0.99891900  0.25108900  0.83614500  1
  Mn  Mn10  1  0.99606400  0.25189900  0.30971600  1
  Mn  Mn11  1  0.00155200  0.00176200  0.49981000  1
  F  F0  1  0.00273100  0.90869600  0.16224000  1
  F  F1  1  0.00128600  0.59349700  0.15690600  1
  F  F2  1  0.05239800  0.86215600  0.79499300  1
  F  F3  1  0.05886400  0.64235400  0.78850400  1
  F  F4  1  0.06155600  0.25998700  0.98355800  1
  F  F5  1  0.06786700  0.14307900  0.41360100  1
  F  F6  1  0.06423400  0.36007900  0.40985000  1
  F  F7  1  0.07260900  0.74863700  0.30696300  1
  F  F8  1  0.15062000  0.05898500  0.60649900  1
  F  F9  1  0.13987600  0.44172500  0.60731500  1
  F  F10  1  0.19983900  0.56363000  0.43892300  1
  F  F11  1  0.20366300  0.93966800  0.43869200  1
  F  F12  1  0.24080500  0.75063800  0.61180100  1
  F  F13  1  0.24637000  0.24943100  0.76090000  1
  F  F14  1  0.25363000  0.25056900  0.26090000  1
  F  F15  1  0.25919500  0.74936200  0.11180100  1
  F  F16  1  0.30016100  0.93637000  0.93892300  1
  F  F17  1  0.29633700  0.56033200  0.93869200  1
  F  F18  1  0.36012400  0.05827500  0.10731500  1
  F  F19  1  0.34938000  0.44101500  0.10649900  1
  F  F20  1  0.42739100  0.75136300  0.80696300  1
  F  F21  1  0.43576600  0.13992100  0.90985000  1
  F  F22  1  0.43213300  0.35692100  0.91360100  1
  F  F23  1  0.43844400  0.24001300  0.48355800  1
  F  F24  1  0.44113600  0.85764600  0.28850400  1
  F  F25  1  0.44760200  0.63784400  0.29499300  1
  F  F26  1  0.49726900  0.59130400  0.66224000  1
  F  F27  1  0.49871400  0.90650300  0.65690600  1
  F  F28  1  0.50273100  0.09130400  0.33776000  1
  F  F29  1  0.50128600  0.40650300  0.34309400  1
  F  F30  1  0.55886400  0.35764600  0.71149600  1
  F  F31  1  0.55239800  0.13784400  0.70500700  1
  F  F32  1  0.56155600  0.74001300  0.51644200  1
  F  F33  1  0.56423400  0.63992100  0.09015000  1
  F  F34  1  0.56786700  0.85692100  0.08639900  1
  F  F35  1  0.57260900  0.25136300  0.19303700  1
  F  F36  1  0.63987600  0.55827500  0.89268500  1
  F  F37  1  0.65062000  0.94101500  0.89350100  1
  F  F38  1  0.69983900  0.43637000  0.06107700  1
  F  F39  1  0.70366300  0.06033200  0.06130800  1
  F  F40  1  0.74080500  0.24936200  0.88819900  1
  F  F41  1  0.74637000  0.75056900  0.73910000  1
  F  F42  1  0.75363000  0.74943100  0.23910000  1
  F  F43  1  0.75919500  0.25063800  0.38819900  1
  F  F44  1  0.80016100  0.06363000  0.56107700  1
  F  F45  1  0.79633700  0.43966800  0.56130800  1
  F  F46  1  0.84938000  0.55898500  0.39350100  1
  F  F47  1  0.86012400  0.94172500  0.39268500  1
  F  F48  1  0.92739100  0.24863700  0.69303700  1
  F  F49  1  0.93213300  0.64307900  0.58639900  1
  F  F50  1  0.93576600  0.86007900  0.59015000  1
  F  F51  1  0.93844400  0.75998700  0.01644200  1
  F  F52  1  0.94760200  0.36215600  0.20500700  1
  F  F53  1  0.94113600  0.14235400  0.21149600  1
  F  F54  1  0.99871400  0.09349700  0.84309400  1
  F  F55  1  0.99726900  0.40869600  0.83776000  1
loop_
_geom_bond_atom_site_label_1
_geom_bond_atom_site_label_2
_geom_bond_distance
_geom_bond_site_symmetry_2
F0 Mn2 1.934481 1_555
F0 Na19 2.359144 1_454
F0 Na3 2.452867 1_565
F0 Na14 2.539895 1_455
F1 Mn2 1.936107 1_555
F1 Na0 2.333674 1_555
F1 Na13 2.485688 1_455
F1 Na4 2.594899 1_555
F2 Mn1 1.921174 1_555
F2 Na5 2.390654 1_565
F2 Na2 2.514534 1_555
F2 Na19 2.793378 1_455
F2 Na16 2.899529 1_455
F3 Mn1 1.871000 1_555
F3 Na6 2.410965 1_555
F3 Na2 2.462486 1_555
F4 Mn9 1.911637 1_455
F4 Na8 2.352660 1_556
F4 Na17 2.405210 1_456
F4 Na0 2.635583 1_556
F5 Mn10 1.945217 1_455
F5 Mn11 2.106196 1_555
F5 Na1 2.628537 1_555
F6 Mn10 1.900684 1_455
F6 Mn0 2.135860 1_455
F6 Na1 2.661007 1_555
F6 Na4 2.799993 1_555
F7 Mn2 1.875718 1_555
F7 Na7 2.236821 1_555
F7 Na18 2.395768 1_455
F8 Mn11 1.898246 1_555
F8 Na5 2.279814 1_555
F8 Na1 2.409507 1_555
F8 Na9 2.776807 1_555
F9 Mn0 1.880254 1_455
F9 Na6 2.275267 1_555
F9 Na1 2.362300 1_555
F10 Mn0 1.892930 1_455
F10 Na4 2.330423 1_555
F10 Na7 2.434674 1_555
F10 Na10 2.612370 1_555
F11 Mn11 1.897857 1_565
F11 Na3 2.355788 1_565
F11 Na7 2.371369 1_555
F11 Na9 2.549072 1_565
F12 Mn1 2.076333 1_555
F12 Mn3 2.096932 1_555
F12 Na7 2.338214 1_555
F13 Mn7 2.080592 1_555
F13 Mn9 2.130442 1_455
F13 Na1 2.319588 1_555
F14 Mn10 2.080592 1_455
F14 Mn8 2.130442 1_555
F14 Na8 2.319588 1_555
F15 Mn4 2.076333 1_555
F15 Mn2 2.096928 1_555
F15 Na2 2.338214 1_554
F16 Mn5 1.892930 1_556
F16 Na5 2.330423 1_565
F16 Na2 2.434674 1_555
F16 Na19 2.612370 1_455
F17 Mn6 1.897857 1_555
F17 Na6 2.355788 1_555
F17 Na2 2.371369 1_555
F17 Na0 2.549072 1_556
F18 Mn5 1.880254 1_545
F18 Na3 2.275267 1_555
F18 Na8 2.362300 1_555
F19 Mn6 1.898246 1_554
F19 Na4 2.279814 1_555
F19 Na8 2.409507 1_555
F19 Na0 2.776807 1_555
F20 Mn3 1.875706 1_555
F20 Na2 2.236821 1_555
F20 Na11 2.395768 1_555
F21 Mn7 1.900684 1_555
F21 Mn5 2.135860 1_546
F21 Na8 2.661007 1_556
F21 Na5 2.799993 1_555
F22 Mn7 1.945217 1_555
F22 Mn6 2.106196 1_555
F22 Na8 2.628537 1_556
F23 Mn8 1.911637 1_555
F23 Na1 2.352660 1_555
F23 Na12 2.405210 1_555
F23 Na9 2.635583 1_555
F24 Mn4 1.871000 1_555
F24 Na3 2.410965 1_565
F24 Na7 2.462486 1_555
F25 Mn4 1.921174 1_555
F25 Na4 2.390654 1_555
F25 Na7 2.514534 1_555
F25 Na10 2.793378 1_555
F25 Na13 2.899529 1_555
F26 Mn3 1.934481 1_555
F26 Na10 2.359144 1_555
F26 Na6 2.452867 1_555
F26 Na15 2.539895 1_555
F27 Mn3 1.936107 1_555
F27 Na9 2.333674 1_565
F27 Na16 2.485688 1_555
F27 Na5 2.594899 1_565
F28 Mn8 1.934481 1_555
F28 Na9 2.359144 1_555
F28 Na14 2.452867 1_545
F28 Na3 2.539895 1_555
F29 Mn8 1.936107 1_555
F29 Na10 2.333674 1_555
F29 Na4 2.485688 1_555
F29 Na13 2.594899 1_555
F30 Mn7 1.871000 1_555
F30 Na15 2.410965 1_555
F30 Na12 2.462486 1_555
F31 Mn7 1.921174 1_555
F31 Na16 2.390654 1_545
F31 Na12 2.514534 1_555
F31 Na9 2.793378 1_555
F31 Na5 2.899529 1_555
F32 Mn3 1.911637 1_555
F32 Na18 2.352660 1_555
F32 Na7 2.405210 1_555
F32 Na10 2.635583 1_555
F33 Mn4 1.900684 1_555
F33 Mn6 2.135860 1_554
F33 Na11 2.661007 1_554
F33 Na13 2.799993 1_555
F34 Mn4 1.945217 1_555
F34 Mn5 2.106196 1_555
F34 Na11 2.628537 1_554
F35 Mn8 1.875706 1_555
F35 Na17 2.236821 1_555
F35 Na8 2.395768 1_555
F36 Mn6 1.880254 1_555
F36 Na15 2.275267 1_555
F36 Na11 2.362300 1_555
F37 Mn5 1.898246 1_556
F37 Na16 2.279814 1_555
F37 Na11 2.409507 1_555
F37 Na19 2.776807 1_555
F38 Mn6 1.892930 1_554
F38 Na13 2.330423 1_555
F38 Na17 2.434674 1_555
F38 Na0 2.612370 1_655
F39 Mn5 1.897857 1_545
F39 Na14 2.355788 1_545
F39 Na17 2.371369 1_555
F39 Na19 2.549072 1_544
F40 Mn7 2.076333 1_555
F40 Mn9 2.096932 1_555
F40 Na17 2.338214 1_556
F41 Mn1 2.080592 1_655
F41 Mn3 2.130442 1_555
F41 Na11 2.319588 1_555
F42 Mn4 2.080592 1_555
F42 Mn2 2.130448 1_655
F42 Na18 2.319588 1_555
F43 Mn10 2.076333 1_555
F43 Mn8 2.096932 1_555
F43 Na12 2.338214 1_555
F44 Mn11 1.892930 1_655
F44 Na16 2.330423 1_545
F44 Na12 2.434674 1_555
F44 Na9 2.612370 1_555
F45 Mn0 1.897857 1_555
F45 Na15 2.355788 1_555
F45 Na12 2.371369 1_555
F45 Na10 2.549072 1_555
F46 Mn0 1.898246 1_555
F46 Na13 2.279814 1_555
F46 Na18 2.409507 1_555
F46 Na10 2.776807 1_555
F47 Mn11 1.880254 1_665
F47 Na14 2.275267 1_555
F47 Na18 2.362300 1_555
F48 Mn9 1.875706 1_555
F48 Na12 2.236821 1_555
F48 Na1 2.395768 1_655
F49 Mn1 1.945217 1_655
F49 Mn0 2.106196 1_555
F49 Na18 2.628537 1_555
F50 Mn1 1.900684 1_655
F50 Mn11 2.135860 1_665
F50 Na18 2.661007 1_555
F50 Na16 2.799993 1_555
F51 Mn2 1.911625 1_655
F51 Na11 2.352660 1_554
F51 Na2 2.405210 1_654
F51 Na19 2.635583 1_554
F52 Mn10 1.921174 1_555
F52 Na13 2.390654 1_555
F52 Na17 2.514534 1_555
F52 Na0 2.793378 1_655
F52 Na4 2.899529 1_655
F53 Mn10 1.871000 1_555
F53 Na14 2.410965 1_545
F53 Na17 2.462486 1_555
F54 Mn9 1.936107 1_555
F54 Na19 2.333674 1_545
F54 Na5 2.485688 1_655
F54 Na16 2.594899 1_545
F55 Mn9 1.934481 1_555
F55 Na0 2.359144 1_656
F55 Na15 2.452867 1_555
F55 Na6 2.539895 1_655
