# generated using pymatgen
data_La2InCuS5
_symmetry_space_group_name_H-M   'P 1'
_cell_length_a   3.97964600
_cell_length_b   11.60537200
_cell_length_c   16.91957000
_cell_angle_alpha   90.00000000
_cell_angle_beta   90.00000000
_cell_angle_gamma   90.00000000
_symmetry_Int_Tables_number   1
_chemical_formula_structural   La2InCuS5
_chemical_formula_sum   'La8 In4 Cu4 S20'
_cell_volume   781.43494694
_cell_formula_units_Z   4
loop_
 _symmetry_equiv_pos_site_id
 _symmetry_equiv_pos_as_xyz
  1  'x, y, z'
loop_
 _atom_site_type_symbol
 _atom_site_label
 _atom_site_symmetry_multiplicity
 _atom_site_fract_x
 _atom_site_fract_y
 _atom_site_fract_z
 _atom_site_occupancy
  La  La0  1  0.25000000  0.13544000  0.40810600  1
  La  La1  1  0.25000000  0.63544000  0.09189400  1
  La  La2  1  0.75000000  0.86456000  0.59189400  1
  La  La3  1  0.75000000  0.36456000  0.90810600  1
  La  La4  1  0.25000000  0.48038800  0.32146400  1
  La  La5  1  0.25000000  0.98038800  0.17853600  1
  La  La6  1  0.75000000  0.51961200  0.67853600  1
  La  La7  1  0.75000000  0.01961200  0.82146400  1
  In  In0  1  0.25000000  0.19544800  0.64116700  1
  In  In1  1  0.25000000  0.69544800  0.85883300  1
  In  In2  1  0.75000000  0.80455200  0.35883300  1
  In  In3  1  0.75000000  0.30455200  0.14116700  1
  Cu  Cu0  1  0.25000000  0.59501400  0.49689500  1
  Cu  Cu1  1  0.25000000  0.09501400  0.00310500  1
  Cu  Cu2  1  0.75000000  0.40498600  0.50310500  1
  Cu  Cu3  1  0.75000000  0.90498600  0.99689500  1
  S  S0  1  0.25000000  0.68235900  0.61681300  1
  S  S1  1  0.25000000  0.18235900  0.88318700  1
  S  S2  1  0.75000000  0.31764100  0.38318700  1
  S  S3  1  0.75000000  0.81764100  0.11681300  1
  S  S4  1  0.25000000  0.39878000  0.57353900  1
  S  S5  1  0.25000000  0.89878000  0.92646100  1
  S  S6  1  0.75000000  0.60122000  0.42646100  1
  S  S7  1  0.75000000  0.10122000  0.07353900  1
  S  S8  1  0.25000000  0.88606100  0.46215100  1
  S  S9  1  0.25000000  0.38606100  0.03784900  1
  S  S10  1  0.75000000  0.11393900  0.53784900  1
  S  S11  1  0.75000000  0.61393900  0.96215100  1
  S  S12  1  0.25000000  0.48647300  0.80581300  1
  S  S13  1  0.25000000  0.98647300  0.69418700  1
  S  S14  1  0.75000000  0.51352700  0.19418700  1
  S  S15  1  0.75000000  0.01352700  0.30581300  1
  S  S16  1  0.25000000  0.73970900  0.27019200  1
  S  S17  1  0.25000000  0.23970900  0.22980800  1
  S  S18  1  0.75000000  0.26029100  0.72980800  1
  S  S19  1  0.75000000  0.76029100  0.77019200  1
loop_
_geom_bond_atom_site_label_1
_geom_bond_atom_site_label_2
_geom_bond_distance
_geom_bond_site_symmetry_2
La0 S2 2.933993 1_455
La0 S2 2.933993 1_555
La0 S10 2.973305 1_555
La0 S10 2.973305 1_455
La0 S15 2.992773 1_555
La0 S15 2.992773 1_455
La0 S8 3.035158 1_545
La0 S17 3.250373 1_555
La1 S3 2.933993 1_455
La1 S3 2.933993 1_555
La1 S11 2.973305 1_454
La1 S11 2.973305 1_554
La1 S14 2.992773 1_555
La1 S14 2.992773 1_455
La1 S9 3.035158 1_555
La1 S16 3.250373 1_555
La2 S0 2.933993 1_655
La2 S0 2.933993 1_555
La2 S8 2.973305 1_655
La2 S8 2.973305 1_555
La2 S13 2.992773 1_655
La2 S13 2.992773 1_555
La2 S10 3.035158 1_565
La2 S19 3.250373 1_555
La3 S1 2.933993 1_555
La3 S1 2.933993 1_655
La3 S9 2.973305 1_556
La3 S9 2.973305 1_656
La3 S12 2.992773 1_555
La3 S12 2.992773 1_655
La3 S11 3.035158 1_555
La3 S18 3.250373 1_555
La4 S2 2.935532 1_555
La4 S2 2.935532 1_455
La4 S14 2.957152 1_555
La4 S14 2.957152 1_455
La4 S6 3.013604 1_455
La4 S6 3.013604 1_555
La4 S16 3.132052 1_555
La4 S17 3.194795 1_555
La5 S3 2.935532 1_455
La5 S3 2.935532 1_555
La5 S15 2.957152 1_465
La5 S15 2.957152 1_565
La5 S7 3.013604 1_465
La5 S7 3.013604 1_565
La5 S17 3.132052 1_565
La5 S16 3.194795 1_555
La6 S0 2.935532 1_555
La6 S0 2.935532 1_655
La6 S12 2.957152 1_555
La6 S12 2.957152 1_655
La6 S4 3.013604 1_555
La6 S4 3.013604 1_655
La6 S18 3.132052 1_555
La6 S19 3.194795 1_555
La7 S1 2.935532 1_555
La7 S1 2.935532 1_655
La7 S13 2.957152 1_645
La7 S13 2.957152 1_545
La7 S5 3.013604 1_645
La7 S5 3.013604 1_545
La7 S19 3.132052 1_545
La7 S18 3.194795 1_555
In0 S13 2.585826 1_545
In0 S18 2.602882 1_455
In0 S18 2.602882 1_555
In0 S4 2.622531 1_555
In0 S10 2.812480 1_555
In0 S10 2.812480 1_455
In1 S12 2.585826 1_555
In1 S19 2.602882 1_555
In1 S19 2.602882 1_455
In1 S5 2.622531 1_555
In1 S11 2.812480 1_555
In1 S11 2.812480 1_455
In2 S15 2.585826 1_565
In2 S16 2.602882 1_655
In2 S16 2.602882 1_555
In2 S6 2.622531 1_555
In2 S8 2.812480 1_555
In2 S8 2.812480 1_655
In3 S14 2.585826 1_555
In3 S17 2.602882 1_555
In3 S17 2.602882 1_655
In3 S7 2.622531 1_555
In3 S9 2.812480 1_555
In3 S9 2.812480 1_655
Cu0 S0 2.268086 1_555
Cu0 S6 2.320509 1_455
Cu0 S6 2.320509 1_555
Cu0 S4 2.620697 1_555
Cu1 S1 2.268086 1_554
Cu1 S7 2.320509 1_455
Cu1 S7 2.320509 1_555
Cu1 S5 2.620697 1_544
Cu2 S2 2.268086 1_555
Cu2 S4 2.320509 1_655
Cu2 S4 2.320509 1_555
Cu2 S6 2.620697 1_555
Cu3 S3 2.268086 1_556
Cu3 S5 2.320509 1_655
Cu3 S5 2.320509 1_555
Cu3 S7 2.620697 1_566
