# generated using pymatgen
data_LaMg6Ni
_symmetry_space_group_name_H-M   'P 1'
_cell_length_a   4.93483400
_cell_length_b   5.86459400
_cell_length_c   13.10110200
_cell_angle_alpha   90.00000000
_cell_angle_beta   90.00000000
_cell_angle_gamma   90.00000000
_symmetry_Int_Tables_number   1
_chemical_formula_structural   LaMg6Ni
_chemical_formula_sum   'La2 Mg12 Ni2'
_cell_volume   379.15634482
_cell_formula_units_Z   2
loop_
 _symmetry_equiv_pos_site_id
 _symmetry_equiv_pos_as_xyz
  1  'x, y, z'
loop_
 _atom_site_type_symbol
 _atom_site_label
 _atom_site_symmetry_multiplicity
 _atom_site_fract_x
 _atom_site_fract_y
 _atom_site_fract_z
 _atom_site_occupancy
  La  La0  1  0.50000000  0.50000000  0.19732800  1
  La  La1  1  0.50000000  0.00000000  0.69732800  1
  Mg  Mg0  1  0.50000000  0.25061500  0.44331300  1
  Mg  Mg1  1  0.50000000  0.74938500  0.44331300  1
  Mg  Mg2  1  0.00000000  0.75700000  0.07689100  1
  Mg  Mg3  1  0.00000000  0.24300000  0.07689100  1
  Mg  Mg4  1  0.00000000  0.00000000  0.28430600  1
  Mg  Mg5  1  0.00000000  0.50000000  0.35908900  1
  Mg  Mg6  1  0.50000000  0.75061500  0.94331300  1
  Mg  Mg7  1  0.50000000  0.24938500  0.94331300  1
  Mg  Mg8  1  0.00000000  0.25700000  0.57689100  1
  Mg  Mg9  1  0.00000000  0.74300000  0.57689100  1
  Mg  Mg10  1  0.00000000  0.50000000  0.78430600  1
  Mg  Mg11  1  0.00000000  0.00000000  0.85908900  1
  Ni  Ni0  1  0.50000000  0.00000000  0.11886500  1
  Ni  Ni1  1  0.50000000  0.50000000  0.61886500  1
loop_
_geom_bond_atom_site_label_1
_geom_bond_atom_site_label_2
_geom_bond_distance
_geom_bond_site_symmetry_2
La0 Ni0 3.107258 1_565
La0 Ni0 3.107258 1_555
La0 Mg5 3.252592 1_555
La0 Mg5 3.252592 1_655
La0 Mg3 3.293848 1_655
La0 Mg2 3.293848 1_655
La0 Mg3 3.293848 1_555
La0 Mg2 3.293848 1_555
La1 Ni1 3.107258 1_545
La1 Ni1 3.107258 1_555
La1 Mg11 3.252592 1_655
La1 Mg11 3.252592 1_555
La1 Mg8 3.293848 1_555
La1 Mg8 3.293848 1_655
La1 Mg9 3.293848 1_645
La1 Mg9 3.293848 1_545
Mg0 Ni1 2.725561 1_555
Mg0 Mg8 3.025246 1_655
Mg0 Mg8 3.025246 1_555
Mg0 Mg5 3.073227 1_555
Mg0 Mg5 3.073227 1_655
Mg1 Ni1 2.725561 1_555
Mg1 Mg9 3.025246 1_555
Mg1 Mg9 3.025246 1_655
Mg1 Mg5 3.073227 1_555
Mg1 Mg5 3.073227 1_655
Mg2 Mg3 2.850193 1_565
Mg2 Ni0 2.901972 1_565
Mg2 Ni0 2.901972 1_465
Mg2 Mg3 3.014401 1_555
Mg2 Mg6 3.025246 1_454
Mg2 Mg6 3.025246 1_554
Mg2 Mg4 3.068383 1_565
Mg3 Ni0 2.901972 1_455
Mg3 Ni0 2.901972 1_555
Mg3 Mg7 3.025246 1_554
Mg3 Mg7 3.025246 1_454
Mg3 Mg4 3.068383 1_555
Mg4 Mg5 3.091643 1_545
Mg4 Mg5 3.091643 1_555
Mg4 Ni0 3.284209 1_555
Mg4 Ni0 3.284209 1_455
Mg5 Mg8 3.189523 1_555
Mg5 Mg9 3.189523 1_555
Mg6 Ni0 2.725561 1_566
Mg7 Ni0 2.725561 1_556
Mg8 Mg9 2.850193 1_555
Mg8 Ni1 2.901972 1_455
Mg8 Ni1 2.901972 1_555
Mg8 Mg9 3.014401 1_545
Mg9 Ni1 2.901972 1_455
Mg9 Ni1 2.901972 1_555
Mg10 Mg8 3.068383 1_555
Mg10 Mg9 3.068383 1_555
Mg10 Mg11 3.091643 1_555
Mg10 Mg11 3.091643 1_565
Mg10 Ni1 3.284209 1_555
Mg10 Ni1 3.284209 1_455
Mg11 Mg6 3.073227 1_445
Mg11 Mg6 3.073227 1_545
Mg11 Mg7 3.073227 1_455
Mg11 Mg7 3.073227 1_555
Mg11 Mg3 3.189523 1_556
Mg11 Mg2 3.189523 1_546
