# generated using pymatgen
data_Rb5Pt3(C4O9)3
_symmetry_space_group_name_H-M   'P 1'
_cell_length_a   11.52411941
_cell_length_b   11.93740259
_cell_length_c   12.71077867
_cell_angle_alpha   88.77613482
_cell_angle_beta   64.72777042
_cell_angle_gamma   81.86558819
_symmetry_Int_Tables_number   1
_chemical_formula_structural   Rb5Pt3(C4O9)3
_chemical_formula_sum   'Rb10 Pt6 C24 O54'
_cell_volume   1563.83913353
_cell_formula_units_Z   2
loop_
 _symmetry_equiv_pos_site_id
 _symmetry_equiv_pos_as_xyz
  1  'x, y, z'
loop_
 _atom_site_type_symbol
 _atom_site_label
 _atom_site_symmetry_multiplicity
 _atom_site_fract_x
 _atom_site_fract_y
 _atom_site_fract_z
 _atom_site_occupancy
  Rb  Rb0  1  0.45937768  0.06251486  0.20730589  1
  Rb  Rb1  1  0.54062232  0.93748514  0.79269411  1
  Rb  Rb2  1  0.12578128  0.60401682  0.86297598  1
  Rb  Rb3  1  0.87421872  0.39598318  0.13702402  1
  Rb  Rb4  1  0.56853059  0.66066706  0.05278616  1
  Rb  Rb5  1  0.43146941  0.33933294  0.94721384  1
  Rb  Rb6  1  0.49848914  0.31843413  0.54349542  1
  Rb  Rb7  1  0.50151086  0.68156587  0.45650458  1
  Rb  Rb8  1  0.91515549  0.11550822  0.40030890  1
  Rb  Rb9  1  0.08484451  0.88449178  0.59969110  1
  Pt  Pt0  1  -0.00000000  0.00000000  -0.00000000  1
  Pt  Pt1  1  -0.00000000  0.50000000  0.50000000  1
  Pt  Pt2  1  0.99786570  0.83852000  0.16280314  1
  Pt  Pt3  1  0.00213430  0.16148000  0.83719686  1
  Pt  Pt4  1  0.98855706  0.67884641  0.33690321  1
  Pt  Pt5  1  0.01144294  0.32115359  0.66309679  1
  C  C0  1  0.20970182  0.08657838  0.01606711  1
  C  C1  1  0.79029818  0.91342162  0.98393289  1
  C  C2  1  0.08510766  0.15239407  0.11099364  1
  C  C3  1  0.91489234  0.84760593  0.88900636  1
  C  C4  1  0.84679979  0.84665243  0.51789887  1
  C  C5  1  0.15320021  0.15334757  0.48210113  1
  C  C6  1  0.74398928  0.78641177  0.50426598  1
  C  C7  1  0.25601072  0.21358823  0.49573402  1
  C  C8  1  0.23022797  0.57098828  0.17005264  1
  C  C9  1  0.76977203  0.42901172  0.82994736  1
  C  C10  1  0.12584144  0.52512575  0.14415004  1
  C  C11  1  0.87415856  0.47487425  0.85584996  1
  C  C12  1  0.72475912  0.89008859  0.27852228  1
  C  C13  1  0.27524088  0.10991141  0.72147772  1
  C  C14  1  0.75558603  0.77885564  0.20478955  1
  C  C15  1  0.24441397  0.22114436  0.79521045  1
  C  C16  1  0.24695356  0.87024273  0.13702915  1
  C  C17  1  0.75304644  0.12975727  0.86297085  1
  C  C18  1  0.26999984  0.78796636  0.03465293  1
  C  C19  1  0.73000016  0.21203364  0.96534707  1
  C  C20  1  0.26520976  0.49742983  0.44872161  1
  C  C21  1  0.73479024  0.50257017  0.55127839  1
  C  C22  1  0.18595601  0.58177271  0.55486063  1
  C  C23  1  0.81404399  0.41822729  0.44513937  1
  O  O0  1  0.19033487  0.00879754  0.95564859  1
  O  O1  1  0.80966513  0.99120246  0.04435141  1
  O  O2  1  0.97541056  0.12616602  0.11622576  1
  O  O3  1  0.02458944  0.87383398  0.88377424  1
  O  O4  1  0.31858826  0.10560407  0.99851600  1
  O  O5  1  0.68141174  0.89439593  0.00148400  1
  O  O6  1  0.08704965  0.22455248  0.17796563  1
  O  O7  1  0.91295035  0.77544752  0.82203437  1
  O  O8  1  0.96792908  0.80621226  0.44967186  1
  O  O9  1  0.03207092  0.19378774  0.55032814  1
  O  O10  1  0.79074674  0.70968768  0.41760449  1
  O  O11  1  0.20925326  0.29031232  0.58239551  1
  O  O12  1  0.81717909  0.92899176  0.58633673  1
  O  O13  1  0.18282091  0.07100824  0.41366327  1
  O  O14  1  0.62747893  0.81127533  0.56746562  1
  O  O15  1  0.37252107  0.18872467  0.43253438  1
  O  O16  1  0.18441848  0.64789181  0.25631538  1
  O  O17  1  0.81558152  0.35210819  0.74368462  1
  O  O18  1  0.00579121  0.55746169  0.22013858  1
  O  O19  1  0.99420879  0.44253831  0.77986142  1
  O  O20  1  0.34645003  0.54054694  0.11037207  1
  O  O21  1  0.65354997  0.45945306  0.88962793  1
  O  O22  1  0.15341207  0.46543017  0.05609927  1
  O  O23  1  0.84658793  0.53456983  0.94390073  1
  O  O24  1  0.82716647  0.92837536  0.27826156  1
  O  O25  1  0.17283353  0.07162464  0.72173844  1
  O  O26  1  0.87709001  0.75220426  0.12908562  1
  O  O27  1  0.12290999  0.24779574  0.87091438  1
  O  O28  1  0.61261504  0.93677924  0.33246987  1
  O  O29  1  0.38738496  0.06322076  0.66753013  1
  O  O30  1  0.67013583  0.72183838  0.21585695  1
  O  O31  1  0.32986417  0.27816162  0.78414305  1
  O  O32  1  0.12474628  0.91355953  0.20022671  1
  O  O33  1  0.87525372  0.08644047  0.79977329  1
  O  O34  1  0.16499427  0.75449553  0.03749704  1
  O  O35  1  0.83500573  0.24550447  0.96250296  1
  O  O36  1  0.33881488  0.89378181  0.15245355  1
  O  O37  1  0.66118512  0.10621819  0.84754645  1
  O  O38  1  0.37997695  0.75662564  0.95810029  1
  O  O39  1  0.62002305  0.24337436  0.04189971  1
  O  O40  1  0.19499497  0.45349962  0.40703250  1
  O  O41  1  0.80500503  0.54650038  0.59296750  1
  O  O42  1  0.06159411  0.60220512  0.58455727  1
  O  O43  1  0.93840589  0.39779488  0.41544273  1
  O  O44  1  0.38453090  0.47737200  0.41057885  1
  O  O45  1  0.61546910  0.52262800  0.58942115  1
  O  O46  1  0.23959693  0.62730470  0.60536492  1
  O  O47  1  0.76040307  0.37269530  0.39463508  1
  O  O48  1  0.28892589  0.28732654  0.20865122  1
  O  O49  1  0.71107411  0.71267346  0.79134878  1
  O  O50  1  0.59098124  0.43465263  0.18861423  1
  O  O51  1  0.40901876  0.56534737  0.81138577  1
  O  O52  1  0.30070848  0.77114942  0.37950545  1
  O  O53  1  0.69929152  0.22885058  0.62049455  1
loop_
_geom_bond_atom_site_label_1
_geom_bond_atom_site_label_2
_geom_bond_distance
_geom_bond_site_symmetry_2
C0 O4 1.231012 1_554
C0 O0 1.318011 1_554
C1 O5 1.231012 1_556
C1 O1 1.318011 1_556
C2 O6 1.232957 1_555
C2 O2 1.319050 1_455
C3 O7 1.232957 1_555
C3 O3 1.319050 1_655
C4 O12 1.235883 1_555
C4 O8 1.314244 1_555
C5 O13 1.235883 1_555
C5 O9 1.314244 1_555
C6 O14 1.229902 1_555
C6 O10 1.318793 1_555
C7 O15 1.229902 1_555
C7 O11 1.318793 1_555
C8 O20 1.227969 1_555
C8 O16 1.317316 1_555
C9 O21 1.227969 1_555
C9 O17 1.317316 1_555
C10 O22 1.236014 1_555
C10 O18 1.311396 1_555
C11 O23 1.236014 1_555
C11 O19 1.311396 1_555
C12 O28 1.227549 1_555
C12 O24 1.323217 1_555
C13 O29 1.227549 1_555
C13 O25 1.323217 1_555
C14 O30 1.232912 1_555
C14 O26 1.313148 1_555
C15 O31 1.232912 1_555
C15 O27 1.313148 1_555
C16 O36 1.225489 1_555
C16 O32 1.319760 1_555
C17 O37 1.225489 1_555
C17 O33 1.319760 1_555
C18 O38 1.233471 1_554
C18 O34 1.313066 1_555
C19 O39 1.233471 1_556
C19 O35 1.313066 1_555
C20 O44 1.235218 1_555
C20 O40 1.307138 1_555
C21 O45 1.235218 1_555
C21 O41 1.307138 1_555
C22 O46 1.240351 1_555
C22 O42 1.303469 1_555
C23 O47 1.240351 1_555
C23 O43 1.303469 1_555
O0 Pt0 2.036389 1_556
O1 Pt0 2.036389 1_665
O2 Pt0 2.036645 1_655
O2 Rb3 3.242576 1_555
O2 Rb8 3.376621 1_555
O3 Pt0 2.036645 1_566
O3 Rb2 3.242576 1_555
O3 Rb9 3.376621 1_555
O4 Rb5 3.182343 1_555
O4 Rb1 3.236438 1_545
O5 Rb4 3.182343 1_555
O5 Rb0 3.236438 1_565
O6 Rb8 3.065631 1_455
O6 Rb3 3.177786 1_455
O7 Rb9 3.065631 1_655
O7 Rb2 3.177786 1_655
O8 Pt4 2.030425 1_555
O8 Rb9 2.991784 1_655
O9 Pt5 2.030425 1_555
O9 Rb8 2.991784 1_455
O10 Pt4 2.041163 1_555
O10 Rb7 3.220199 1_555
O11 Pt5 2.041163 1_555
O11 Rb6 3.220199 1_555
O12 Rb9 3.131344 1_655
O12 Rb1 3.135256 1_555
O12 Rb8 3.167070 1_565
O13 Rb8 3.131344 1_455
O13 Rb0 3.135256 1_555
O13 Rb9 3.167070 1_545
O14 Rb1 2.962830 1_555
O14 Rb7 2.995275 1_555
O15 Rb0 2.962830 1_555
O15 Rb6 2.995275 1_555
O16 Pt4 2.021499 1_455
O17 Pt5 2.021499 1_655
O18 Pt4 2.024994 1_455
O18 Rb3 3.068018 1_455
O19 Pt5 2.024994 1_655
O19 Rb2 3.068018 1_655
O20 Rb4 2.921648 1_555
O20 Rb5 2.973588 1_554
O21 Rb5 2.921648 1_555
O21 Rb4 2.973588 1_556
O22 Rb2 3.034624 1_554
O22 Rb5 3.063760 1_554
O22 Rb3 3.160688 1_455
O23 Rb3 3.034624 1_556
O23 Rb4 3.063760 1_556
O23 Rb2 3.160688 1_655
O24 Pt2 2.044299 1_555
O24 Rb8 3.249178 1_565
O25 Pt3 2.044299 1_555
O25 Rb9 3.249178 1_545
O26 Pt2 2.028941 1_555
O27 Pt3 2.028941 1_555
O28 Rb0 3.073949 1_565
O28 Rb7 3.547080 1_555
O29 Rb1 3.073949 1_545
O29 Rb6 3.547080 1_555
O30 Rb7 2.913763 1_555
O30 Rb4 2.929076 1_555
O31 Rb6 2.913763 1_555
O31 Rb5 2.929076 1_555
O32 Pt2 2.037013 1_455
O32 Rb8 3.388609 1_465
O33 Pt3 2.037013 1_655
O33 Rb9 3.388609 1_645
O34 Pt2 2.038305 1_455
O34 Rb2 3.099629 1_554
O35 Pt3 2.038305 1_655
O35 Rb3 3.099629 1_556
O36 Rb0 2.855292 1_565
O36 Rb4 3.399880 1_555
O37 Rb1 2.855292 1_545
O37 Rb5 3.399880 1_555
O38 Rb4 2.991967 1_556
O38 Rb1 3.181612 1_555
O39 Rb5 2.991967 1_554
O39 Rb0 3.181612 1_555
O40 Pt1 2.040073 1_555
O41 Pt1 2.040073 1_655
O42 Pt1 2.024860 1_555
O42 Rb9 3.433854 1_555
O43 Pt1 2.024860 1_655
O43 Rb8 3.433854 1_555
O44 Rb6 3.038281 1_555
O44 Rb7 3.124479 1_555
O45 Rb7 3.038281 1_555
O45 Rb6 3.124479 1_555
O46 Rb7 2.955436 1_555
O46 Rb2 2.986099 1_555
O46 Rb9 3.341013 1_555
O47 Rb6 2.955436 1_555
O47 Rb3 2.986099 1_555
O47 Rb8 3.341013 1_555
O48 Rb0 3.089068 1_555
O48 Rb5 3.109053 1_554
O49 Rb1 3.089068 1_555
O49 Rb4 3.109053 1_556
O50 Rb3 3.009347 1_555
O50 Rb4 3.211212 1_555
O51 Rb2 3.009347 1_555
O51 Rb5 3.211212 1_555
O52 Rb7 2.940272 1_555
O52 Rb9 3.019360 1_555
O53 Rb6 2.940272 1_555
O53 Rb8 3.019360 1_555
