# generated using pymatgen
data_Sr4TaFeO8
_symmetry_space_group_name_H-M   'P 1'
_cell_length_a   6.98165997
_cell_length_b   6.98165997
_cell_length_c   5.64112400
_cell_angle_alpha   90.00000000
_cell_angle_beta   90.00000000
_cell_angle_gamma   132.31931768
_symmetry_Int_Tables_number   1
_chemical_formula_structural   Sr4TaFeO8
_chemical_formula_sum   'Sr4 Ta1 Fe1 O8'
_cell_volume   203.31288921
_cell_formula_units_Z   1
loop_
 _symmetry_equiv_pos_site_id
 _symmetry_equiv_pos_as_xyz
  1  'x, y, z'
loop_
 _atom_site_type_symbol
 _atom_site_label
 _atom_site_symmetry_multiplicity
 _atom_site_fract_x
 _atom_site_fract_y
 _atom_site_fract_z
 _atom_site_occupancy
  Sr  Sr0  1  0.64801300  0.35198700  0.00000000  1
  Sr  Sr1  1  0.14584200  0.85415800  0.50000000  1
  Sr  Sr2  1  0.85415800  0.14584200  0.50000000  1
  Sr  Sr3  1  0.35198700  0.64801300  0.00000000  1
  Ta  Ta0  1  0.50000000  0.50000000  0.50000000  1
  Fe  Fe0  1  0.00000000  0.00000000  0.00000000  1
  O  O0  1  0.74786300  0.74786300  0.74686300  1
  O  O1  1  0.25213700  0.25213700  0.25313700  1
  O  O2  1  0.25213700  0.25213700  0.74686300  1
  O  O3  1  0.74786300  0.74786300  0.25313700  1
  O  O4  1  0.83804800  0.16195200  0.00000000  1
  O  O5  1  0.33986400  0.66013600  0.50000000  1
  O  O6  1  0.66013600  0.33986400  0.50000000  1
  O  O7  1  0.16195200  0.83804800  0.00000000  1
loop_
_geom_bond_atom_site_label_1
_geom_bond_atom_site_label_2
_geom_bond_distance
_geom_bond_site_symmetry_2
Fe0 O3 2.015961 1_445
Fe0 O1 2.015961 1_555
Fe0 O0 2.015961 1_444
Fe0 O2 2.015961 1_554
Fe0 O4 2.068435 1_455
Fe0 O7 2.068435 1_545
O0 Ta0 1.973880 1_555
O0 Sr2 2.726508 1_565
O0 Sr1 2.726508 1_655
O0 Sr3 2.751303 1_556
O0 Sr0 2.751303 1_556
O1 Ta0 1.973880 1_555
O1 Sr2 2.726508 1_455
O1 Sr1 2.726508 1_545
O1 Sr3 2.751303 1_555
O1 Sr0 2.751303 1_555
O2 Ta0 1.973880 1_555
O2 Sr2 2.726508 1_455
O2 Sr1 2.726508 1_545
O2 Sr0 2.751303 1_556
O2 Sr3 2.751303 1_556
O3 Ta0 1.973880 1_555
O3 Sr1 2.726508 1_655
O3 Sr2 2.726508 1_565
O3 Sr3 2.751303 1_555
O3 Sr0 2.751303 1_555
O4 Sr0 2.427109 1_555
O4 Sr3 2.827523 1_655
O4 Sr3 2.827523 1_545
O4 Sr2 2.828057 1_555
O4 Sr2 2.828057 1_554
O5 Ta0 2.045242 1_555
O5 Sr1 2.478030 1_555
O5 Sr3 2.824809 1_555
O5 Sr3 2.824809 1_556
O5 Sr2 2.827812 1_455
O5 Sr2 2.827812 1_565
O6 Ta0 2.045242 1_555
O6 Sr2 2.478030 1_555
O6 Sr0 2.824809 1_555
O6 Sr0 2.824809 1_556
O6 Sr1 2.827812 1_545
O6 Sr1 2.827812 1_655
O7 Sr3 2.427109 1_555
O7 Sr0 2.827523 1_565
O7 Sr0 2.827523 1_455
O7 Sr1 2.828057 1_554
O7 Sr1 2.828057 1_555
