# generated using pymatgen
data_Mg6NbCo
_symmetry_space_group_name_H-M   'P 1'
_cell_length_a   4.72520500
_cell_length_b   5.96753200
_cell_length_c   11.00362500
_cell_angle_alpha   90.00000000
_cell_angle_beta   90.00000000
_cell_angle_gamma   90.00000000
_symmetry_Int_Tables_number   1
_chemical_formula_structural   Mg6NbCo
_chemical_formula_sum   'Mg12 Nb2 Co2'
_cell_volume   310.27814955
_cell_formula_units_Z   2
loop_
 _symmetry_equiv_pos_site_id
 _symmetry_equiv_pos_as_xyz
  1  'x, y, z'
loop_
 _atom_site_type_symbol
 _atom_site_label
 _atom_site_symmetry_multiplicity
 _atom_site_fract_x
 _atom_site_fract_y
 _atom_site_fract_z
 _atom_site_occupancy
  Mg  Mg0  1  0.00000000  0.73955300  0.08190200  1
  Mg  Mg1  1  0.00000000  0.26044700  0.08190200  1
  Mg  Mg2  1  0.00000000  0.00000000  0.32615200  1
  Mg  Mg3  1  0.50000000  0.25797300  0.42387600  1
  Mg  Mg4  1  0.50000000  0.74202700  0.42387600  1
  Mg  Mg5  1  0.50000000  0.00000000  0.16880500  1
  Mg  Mg6  1  0.00000000  0.23955300  0.58190200  1
  Mg  Mg7  1  0.00000000  0.76044700  0.58190200  1
  Mg  Mg8  1  0.00000000  0.50000000  0.82615200  1
  Mg  Mg9  1  0.50000000  0.75797300  0.92387600  1
  Mg  Mg10  1  0.50000000  0.24202700  0.92387600  1
  Mg  Mg11  1  0.50000000  0.50000000  0.66880500  1
  Nb  Nb0  1  0.50000000  0.50000000  0.19294300  1
  Nb  Nb1  1  0.50000000  0.00000000  0.69294300  1
  Co  Co0  1  0.00000000  0.50000000  0.30054400  1
  Co  Co1  1  0.00000000  0.00000000  0.80054400  1
loop_
_geom_bond_atom_site_label_1
_geom_bond_atom_site_label_2
_geom_bond_distance
_geom_bond_site_symmetry_2
Mg0 Mg1 2.859080 1_555
Mg0 Mg9 2.935575 1_554
Mg0 Mg9 2.935575 1_454
Mg0 Mg5 2.985284 1_565
Mg0 Mg5 2.985284 1_465
Mg0 Nb0 3.019669 1_455
Mg0 Nb0 3.019669 1_555
Mg0 Mg2 3.104674 1_565
Mg0 Mg1 3.108452 1_565
Mg0 Mg8 3.156450 1_554
Mg1 Mg10 2.935575 1_554
Mg1 Mg10 2.935575 1_454
Mg1 Mg5 2.985284 1_455
Mg1 Mg5 2.985284 1_555
Mg1 Nb0 3.019669 1_455
Mg1 Nb0 3.019669 1_555
Mg1 Mg2 3.104674 1_555
Mg1 Mg8 3.156450 1_554
Mg2 Mg5 2.929094 1_455
Mg2 Mg5 2.929094 1_555
Mg2 Mg3 3.017970 1_555
Mg2 Mg4 3.017970 1_445
Mg2 Mg3 3.017970 1_455
Mg2 Mg4 3.017970 1_545
Mg2 Mg6 3.156450 1_555
Mg2 Mg7 3.156450 1_545
Mg3 Mg4 2.888608 1_555
Mg3 Nb0 2.922876 1_555
Mg3 Mg6 2.935575 1_555
Mg3 Mg6 2.935575 1_655
Mg3 Mg4 3.078924 1_545
Mg3 Mg5 3.201178 1_555
Mg3 Nb1 3.337029 1_555
Mg4 Nb0 2.922876 1_555
Mg4 Mg7 2.935575 1_655
Mg4 Mg7 2.935575 1_555
Mg4 Mg5 3.201178 1_565
Mg4 Nb1 3.337029 1_565
Mg5 Nb0 2.995564 1_545
Mg5 Nb0 2.995564 1_555
Mg5 Mg9 3.057714 1_544
Mg6 Mg7 2.859080 1_545
Mg6 Nb1 3.019669 1_555
Mg6 Nb1 3.019669 1_455
Mg6 Mg8 3.104674 1_555
Mg6 Mg7 3.108452 1_555
Mg7 Nb1 3.019669 1_465
Mg7 Nb1 3.019669 1_565
Mg7 Mg8 3.104674 1_555
Mg8 Mg9 3.017970 1_555
Mg8 Mg9 3.017970 1_455
Mg9 Nb1 2.922876 1_565
Mg9 Nb0 3.337029 1_556
Mg10 Mg9 2.888608 1_545
Mg10 Nb1 2.922876 1_555
Mg10 Mg8 3.017970 1_655
Mg10 Mg8 3.017970 1_555
Mg10 Mg5 3.057714 1_556
Mg10 Mg9 3.078924 1_555
Mg10 Mg11 3.201178 1_555
Mg10 Nb0 3.337029 1_556
Mg11 Mg8 2.929094 1_555
Mg11 Mg8 2.929094 1_655
Mg11 Mg7 2.985284 1_555
Mg11 Mg6 2.985284 1_655
Mg11 Mg7 2.985284 1_655
Mg11 Mg6 2.985284 1_555
Mg11 Nb1 2.995564 1_555
Mg11 Nb1 2.995564 1_565
Mg11 Mg3 3.057714 1_555
Mg11 Mg4 3.057714 1_555
Mg11 Mg9 3.201178 1_555
Co0 Nb0 2.642678 1_455
Co0 Nb0 2.642678 1_555
Co0 Mg1 2.798521 1_555
Co0 Mg0 2.798521 1_555
Co0 Mg2 2.997042 1_555
Co0 Mg2 2.997042 1_565
Co0 Mg3 3.083768 1_455
Co0 Mg4 3.083768 1_455
Co0 Mg3 3.083768 1_555
Co0 Mg4 3.083768 1_555
Co0 Mg6 3.464184 1_555
Co0 Mg7 3.464184 1_555
Co1 Nb1 2.642678 1_555
Co1 Nb1 2.642678 1_455
Co1 Mg6 2.798521 1_555
Co1 Mg7 2.798521 1_545
Co1 Mg8 2.997042 1_545
Co1 Mg8 2.997042 1_555
Co1 Mg9 3.083768 1_545
Co1 Mg10 3.083768 1_455
Co1 Mg9 3.083768 1_445
Co1 Mg10 3.083768 1_555
Co1 Mg1 3.464184 1_556
Co1 Mg0 3.464184 1_546
