# generated using pymatgen
data_Sr10P6ClO24F
_symmetry_space_group_name_H-M   'P 1'
_cell_length_a   9.94112493
_cell_length_b   9.94112493
_cell_length_c   7.33367900
_cell_angle_alpha   90.00000000
_cell_angle_beta   90.00000000
_cell_angle_gamma   120.00000619
_symmetry_Int_Tables_number   1
_chemical_formula_structural   Sr10P6ClO24F
_chemical_formula_sum   'Sr10 P6 Cl1 O24 F1'
_cell_volume   627.65871666
_cell_formula_units_Z   1
loop_
 _symmetry_equiv_pos_site_id
 _symmetry_equiv_pos_as_xyz
  1  'x, y, z'
loop_
 _atom_site_type_symbol
 _atom_site_label
 _atom_site_symmetry_multiplicity
 _atom_site_fract_x
 _atom_site_fract_y
 _atom_site_fract_z
 _atom_site_occupancy
  Sr  Sr0  1  0.00000000  0.00000000  0.50240800  1
  Sr  Sr1  1  0.33333300  0.66666700  0.00100000  1
  Sr  Sr2  1  0.33333300  0.66666700  0.50109200  1
  Sr  Sr3  1  0.00000000  0.00000000  0.99654100  1
  Sr  Sr4  1  0.92255300  0.32581900  0.25124100  1
  Sr  Sr5  1  0.40326600  0.07744700  0.25124100  1
  Sr  Sr6  1  0.67418100  0.59673400  0.25124100  1
  Sr  Sr7  1  0.42751000  0.33933100  0.75180100  1
  Sr  Sr8  1  0.91182100  0.57249000  0.75180100  1
  Sr  Sr9  1  0.66066900  0.08817900  0.75180100  1
  P  P0  1  0.63841600  0.93416500  0.24951300  1
  P  P1  1  0.29574800  0.36158400  0.24951300  1
  P  P2  1  0.06583500  0.70425200  0.24951300  1
  P  P3  1  0.69432100  0.73463600  0.74913400  1
  P  P4  1  0.04031500  0.30567900  0.74913400  1
  P  P5  1  0.26536400  0.95968500  0.74913400  1
  Cl  Cl0  1  0.66666700  0.33333300  0.08358800  1
  O  O0  1  0.81674800  0.99657100  0.24969700  1
  O  O1  1  0.17982300  0.18325200  0.24969700  1
  O  O2  1  0.00342900  0.82017700  0.24969700  1
  O  O3  1  0.51605600  0.66950800  0.74932500  1
  O  O4  1  0.15345200  0.48394400  0.74932500  1
  O  O5  1  0.33049200  0.84654800  0.74932500  1
  O  O6  1  0.59038100  0.99554800  0.41869900  1
  O  O7  1  0.40516800  0.40961900  0.41869900  1
  O  O8  1  0.00445200  0.59483200  0.41869900  1
  O  O9  1  0.74518100  0.67908400  0.92080700  1
  O  O10  1  0.93390300  0.25481900  0.92080700  1
  O  O11  1  0.32091600  0.06609700  0.92080700  1
  O  O12  1  0.74462900  0.67719400  0.57852900  1
  O  O13  1  0.93256500  0.25537100  0.57852900  1
  O  O14  1  0.32280600  0.06743500  0.57852900  1
  O  O15  1  0.58535300  0.98313300  0.07549900  1
  O  O16  1  0.39777900  0.41464700  0.07549900  1
  O  O17  1  0.01686700  0.60222100  0.07549900  1
  O  O18  1  0.54711100  0.75223500  0.25532400  1
  O  O19  1  0.20512400  0.45288900  0.25532400  1
  O  O20  1  0.24776500  0.79487600  0.25532400  1
  O  O21  1  0.78469800  0.91638600  0.74805200  1
  O  O22  1  0.13168900  0.21530200  0.74805200  1
  O  O23  1  0.08361400  0.86831100  0.74805200  1
  F  F0  1  0.66666700  0.33333300  0.66952100  1
loop_
_geom_bond_atom_site_label_1
_geom_bond_atom_site_label_2
_geom_bond_distance
_geom_bond_site_symmetry_2
Cl0 Sr4 2.859753 1_555
Cl0 Sr5 2.859758 1_555
Cl0 Sr6 2.859762 1_555
O0 P0 1.558185 1_555
O0 Sr0 2.586985 1_665
O0 Sr3 2.589324 1_664
O0 Sr4 2.894287 1_565
O1 P1 1.558183 1_555
O1 Sr0 2.586985 1_555
O1 Sr3 2.589324 1_554
O1 Sr5 2.894287 1_555
O2 P2 1.558176 1_555
O2 Sr0 2.586985 1_565
O2 Sr3 2.589324 1_564
O2 Sr6 2.894287 1_455
O3 P3 1.553173 1_555
O3 Sr2 2.561864 1_555
O3 Sr1 2.579862 1_556
O3 Sr7 2.942719 1_555
O4 P4 1.553173 1_555
O4 Sr2 2.561860 1_555
O4 Sr1 2.579859 1_556
O4 Sr8 2.942720 1_455
O5 P5 1.553173 1_555
O5 Sr2 2.561857 1_555
O5 Sr1 2.579855 1_556
O5 Sr9 2.942719 1_565
O6 P0 1.559249 1_555
O6 Sr9 2.580767 1_565
O6 Sr5 2.673129 1_565
O6 Sr2 3.038029 1_555
O7 P1 1.559260 1_555
O7 Sr7 2.580764 1_555
O7 Sr6 2.673122 1_555
O7 Sr2 3.038042 1_555
O8 P2 1.559259 1_555
O8 Sr8 2.580767 1_455
O8 Sr4 2.673120 1_455
O8 Sr2 3.038023 1_555
O9 P3 1.557210 1_555
O9 Sr6 2.542227 1_556
O9 Sr8 2.675594 1_555
O9 Sr3 2.970147 1_665
O10 P4 1.557210 1_655
O10 Sr4 2.542227 1_556
O10 Sr9 2.675594 1_555
O10 Sr3 2.970147 1_655
O11 P5 1.557210 1_545
O11 Sr5 2.542227 1_556
O11 Sr7 2.675594 1_555
O11 Sr3 2.970147 1_555
O12 P3 1.557946 1_555
O12 Sr6 2.516179 1_555
O12 Sr8 2.681542 1_555
O12 Sr0 2.984593 1_665
O13 P4 1.557946 1_655
O13 Sr4 2.516179 1_555
O13 Sr9 2.681542 1_555
O13 Sr0 2.984593 1_655
O14 P5 1.557946 1_545
O14 Sr5 2.516179 1_555
O14 Sr7 2.681542 1_555
O14 Sr0 2.984593 1_555
O15 P0 1.549391 1_555
O15 Sr9 2.550414 1_564
O15 Sr5 2.741164 1_565
O15 Sr1 2.931022 1_555
O16 P1 1.549391 1_555
O16 Sr7 2.550417 1_554
O16 Sr6 2.741171 1_555
O16 Sr1 2.931023 1_555
O17 P2 1.549391 1_555
O17 Sr8 2.550413 1_454
O17 Sr4 2.741172 1_455
O17 Sr1 2.931022 1_555
O18 P0 1.566867 1_555
O18 Sr6 2.437014 1_555
O18 Sr2 2.584734 1_555
O18 Sr1 2.628873 1_555
O19 P1 1.566859 1_555
O19 Sr4 2.437014 1_455
O19 Sr2 2.584733 1_555
O19 Sr1 2.628872 1_555
O20 P2 1.566867 1_555
O20 Sr5 2.437014 1_565
O20 Sr2 2.584727 1_555
O20 Sr1 2.628867 1_555
O21 P3 1.564762 1_555
O21 Sr9 2.558000 1_565
O21 Sr0 2.595807 1_665
O21 Sr3 2.610330 1_665
O22 P4 1.564771 1_555
O22 Sr7 2.557991 1_555
O22 Sr0 2.595808 1_555
O22 Sr3 2.610331 1_555
O23 P5 1.564762 1_555
O23 Sr8 2.557992 1_455
O23 Sr0 2.595814 1_565
O23 Sr3 2.610336 1_565
F0 Sr9 2.482305 1_555
F0 Sr8 2.482309 1_555
F0 Sr7 2.482314 1_555
