# generated using pymatgen
data_ErAl3Ni2
_symmetry_space_group_name_H-M   'P 1'
_cell_length_a   8.91196464
_cell_length_b   8.91196466
_cell_length_c   4.03101513
_cell_angle_alpha   90.00000000
_cell_angle_beta   90.00000000
_cell_angle_gamma   119.99999992
_symmetry_Int_Tables_number   1
_chemical_formula_structural   ErAl3Ni2
_chemical_formula_sum   'Er3 Al9 Ni6'
_cell_volume   277.26303361
_cell_formula_units_Z   3
loop_
 _symmetry_equiv_pos_site_id
 _symmetry_equiv_pos_as_xyz
  1  'x, y, z'
loop_
 _atom_site_type_symbol
 _atom_site_label
 _atom_site_symmetry_multiplicity
 _atom_site_fract_x
 _atom_site_fract_y
 _atom_site_fract_z
 _atom_site_occupancy
  Er  Er0  1  0.66666700  0.33333300  -0.00000000  1
  Er  Er1  1  0.33333300  0.66666700  -0.00000000  1
  Er  Er2  1  0.00000000  -0.00000000  0.50000000  1
  Al  Al0  1  0.50000000  -0.00000000  0.50000000  1
  Al  Al1  1  0.00000000  0.50000000  0.50000000  1
  Al  Al2  1  0.50000000  0.50000000  0.50000000  1
  Al  Al3  1  0.29731408  -0.00000000  -0.00000000  1
  Al  Al4  1  0.29731408  0.29731408  -0.00000000  1
  Al  Al5  1  -0.00000000  0.70268592  0.00000000  1
  Al  Al6  1  0.00000000  0.29731408  -0.00000000  1
  Al  Al7  1  0.70268592  0.70268592  0.00000000  1
  Al  Al8  1  0.70268592  -0.00000000  0.00000000  1
  Ni  Ni0  1  0.81903820  0.63807840  0.50000000  1
  Ni  Ni1  1  0.63807840  0.81903820  0.50000000  1
  Ni  Ni2  1  0.18096180  0.81903820  0.50000000  1
  Ni  Ni3  1  0.18096180  0.36192160  0.50000000  1
  Ni  Ni4  1  0.81903820  0.18096180  0.50000000  1
  Ni  Ni5  1  0.36192160  0.18096180  0.50000000  1
loop_
_geom_bond_atom_site_label_1
_geom_bond_atom_site_label_2
_geom_bond_distance
_geom_bond_site_symmetry_2
Er0 Ni4 3.097445 1_555
Er0 Ni4 3.097445 1_554
Er0 Ni5 3.097463 1_555
Er0 Ni5 3.097463 1_554
Er0 Ni0 3.097463 1_554
Er0 Ni0 3.097463 1_555
Er1 Ni2 3.097445 1_554
Er1 Ni2 3.097445 1_555
Er1 Ni1 3.097463 1_554
Er1 Ni1 3.097463 1_555
Er1 Ni3 3.097463 1_554
Er1 Ni3 3.097463 1_555
Er2 Ni5 2.793306 1_555
Er2 Ni1 2.793306 1_445
Er2 Ni3 2.793306 1_555
Er2 Ni0 2.793306 1_445
Er2 Ni4 2.793322 1_455
Er2 Ni2 2.793322 1_545
Al0 Ni4 2.469737 1_555
Al0 Ni2 2.469737 1_545
Al0 Ni5 2.469752 1_555
Al0 Ni1 2.469752 1_545
Al0 Er0 3.268157 1_555
Al0 Er1 3.268157 1_546
Al0 Er1 3.268157 1_545
Al0 Er0 3.268157 1_556
Al1 Ni2 2.469737 1_555
Al1 Ni4 2.469737 1_455
Al1 Ni3 2.469752 1_555
Al1 Ni0 2.469752 1_455
Al1 Er1 3.268157 1_555
Al1 Er1 3.268157 1_556
Al1 Er0 3.268157 1_455
Al1 Er0 3.268157 1_456
Al2 Ni0 2.469736 1_555
Al2 Ni3 2.469736 1_555
Al2 Ni1 2.469736 1_555
Al2 Ni5 2.469736 1_555
Al2 Er1 3.268163 1_556
Al2 Er1 3.268163 1_555
Al2 Er0 3.268163 1_556
Al2 Er0 3.268163 1_555
Al3 Ni2 2.462944 1_544
Al3 Ni2 2.462944 1_545
Al3 Ni5 2.462946 1_555
Al3 Ni5 2.462946 1_554
Al3 Er1 3.143468 1_545
Al3 Er0 3.143473 1_555
Al4 Ni3 2.462936 1_554
Al4 Ni3 2.462936 1_555
Al4 Ni5 2.462936 1_555
Al4 Ni5 2.462936 1_554
Al4 Er0 3.143477 1_555
Al4 Er1 3.143477 1_555
Al5 Ni2 2.462944 1_554
Al5 Ni2 2.462944 1_555
Al5 Ni0 2.462946 1_455
Al5 Ni0 2.462946 1_454
Al5 Er1 3.143468 1_555
Al5 Er0 3.143473 1_455
Al6 Ni4 2.462944 1_455
Al6 Ni4 2.462944 1_454
Al6 Ni3 2.462946 1_554
Al6 Ni3 2.462946 1_555
Al6 Er0 3.143468 1_455
Al6 Er1 3.143473 1_555
Al7 Ni0 2.462936 1_554
Al7 Ni0 2.462936 1_555
Al7 Ni1 2.462936 1_554
Al7 Ni1 2.462936 1_555
Al7 Er1 3.143477 1_555
Al7 Er0 3.143477 1_555
Al8 Ni4 2.462944 1_555
Al8 Ni4 2.462944 1_554
Al8 Ni1 2.462946 1_544
Al8 Ni1 2.462946 1_545
Al8 Er0 3.143468 1_555
Al8 Er1 3.143473 1_545
