# generated using pymatgen
data_TeMoWSeS2
_symmetry_space_group_name_H-M   'P 1'
_cell_length_a   3.31037985
_cell_length_b   3.31037985
_cell_length_c   37.65767600
_cell_angle_alpha   90.00000000
_cell_angle_beta   90.00000000
_cell_angle_gamma   119.99999695
_symmetry_Int_Tables_number   1
_chemical_formula_structural   TeMoWSeS2
_chemical_formula_sum   'Te2 Mo2 W2 Se2 S4'
_cell_volume   357.38787853
_cell_formula_units_Z   2
loop_
 _symmetry_equiv_pos_site_id
 _symmetry_equiv_pos_as_xyz
  1  'x, y, z'
loop_
 _atom_site_type_symbol
 _atom_site_label
 _atom_site_symmetry_multiplicity
 _atom_site_fract_x
 _atom_site_fract_y
 _atom_site_fract_z
 _atom_site_occupancy
  Te  Te0  1  0.33333300  0.66666700  0.33290900  1
  Te  Te1  1  0.33333300  0.66666700  0.23068700  1
  Mo  Mo0  1  0.33333300  0.66666700  0.09389700  1
  Mo  Mo1  1  0.33333300  0.66666700  0.46969300  1
  W  W0  1  0.66666700  0.33333300  0.28180000  1
  W  W1  1  0.66666700  0.33333300  0.65753100  1
  Se  Se0  1  0.33333300  0.66666700  0.70237300  1
  Se  Se1  1  0.33333300  0.66666700  0.61268400  1
  S  S0  1  0.66666700  0.33333300  0.05334800  1
  S  S1  1  0.66666700  0.33333300  0.42911800  1
  S  S2  1  0.66666700  0.33333300  0.13446000  1
  S  S3  1  0.66666700  0.33333300  0.51024700  1
loop_
_geom_bond_atom_site_label_1
_geom_bond_atom_site_label_2
_geom_bond_distance
_geom_bond_site_symmetry_2
Te0 W0 2.712403 1_455
Te0 W0 2.712403 1_565
Te0 W0 2.712406 1_555
Te1 W0 2.712509 1_455
Te1 W0 2.712509 1_565
Te1 W0 2.712513 1_555
Mo0 S0 2.446331 1_455
Mo0 S0 2.446331 1_565
Mo0 S0 2.446335 1_555
Mo0 S2 2.446660 1_455
Mo0 S2 2.446660 1_565
Mo0 S2 2.446665 1_555
Mo1 S3 2.446449 1_455
Mo1 S3 2.446449 1_565
Mo1 S3 2.446453 1_555
Mo1 S1 2.446942 1_455
Mo1 S1 2.446942 1_565
Mo1 S1 2.446947 1_555
Se0 W1 2.550370 1_455
Se0 W1 2.550370 1_565
Se0 W1 2.550374 1_555
Se1 W1 2.550495 1_455
Se1 W1 2.550495 1_565
Se1 W1 2.550499 1_555
