# generated using pymatgen
data_NaSc(WO4)2
_symmetry_space_group_name_H-M   'P 1'
_cell_length_a   5.15292878
_cell_length_b   5.87701200
_cell_length_c   10.19347741
_cell_angle_alpha   90.00000000
_cell_angle_beta   91.44242944
_cell_angle_gamma   90.00000000
_symmetry_Int_Tables_number   1
_chemical_formula_structural   NaSc(WO4)2
_chemical_formula_sum   'Na2 Sc2 W4 O16'
_cell_volume   308.59965937
_cell_formula_units_Z   2
loop_
 _symmetry_equiv_pos_site_id
 _symmetry_equiv_pos_as_xyz
  1  'x, y, z'
loop_
 _atom_site_type_symbol
 _atom_site_label
 _atom_site_symmetry_multiplicity
 _atom_site_fract_x
 _atom_site_fract_y
 _atom_site_fract_z
 _atom_site_occupancy
  Na  Na0  1  0.75000000  0.67051400  0.50000000  1
  Na  Na1  1  0.25000000  0.32948600  0.50000000  1
  Sc  Sc0  1  0.75000000  0.67190600  0.00000000  1
  Sc  Sc1  1  0.25000000  0.32809400  0.00000000  1
  W  W0  1  0.24753700  0.82893500  0.76120200  1
  W  W1  1  0.75246300  0.17106500  0.23879800  1
  W  W2  1  0.25246300  0.82893500  0.23879800  1
  W  W3  1  0.74753700  0.17106500  0.76120200  1
  O  O0  1  0.62026400  0.36860100  0.64524600  1
  O  O1  1  0.37973600  0.63139900  0.35475400  1
  O  O2  1  0.87973600  0.36860100  0.35475400  1
  O  O3  1  0.12026400  0.63139900  0.64524600  1
  O  O4  1  0.56044500  0.90250600  0.67110800  1
  O  O5  1  0.43955500  0.09749400  0.32889200  1
  O  O6  1  0.93955500  0.90250600  0.32889200  1
  O  O7  1  0.06044500  0.09749400  0.67110800  1
  O  O8  1  0.93829200  0.88301400  0.87143900  1
  O  O9  1  0.06170800  0.11698600  0.12856100  1
  O  O10  1  0.56170800  0.88301400  0.12856100  1
  O  O11  1  0.43829200  0.11698600  0.87143900  1
  O  O12  1  0.90005100  0.37146300  0.88925600  1
  O  O13  1  0.09994900  0.62853700  0.11074400  1
  O  O14  1  0.59994900  0.37146300  0.11074400  1
  O  O15  1  0.40005100  0.62853700  0.88925600  1
loop_
_geom_bond_atom_site_label_1
_geom_bond_atom_site_label_2
_geom_bond_distance
_geom_bond_site_symmetry_2
Na0 O3 2.396444 1_655
Na0 O1 2.396444 1_555
Na0 O0 2.416013 1_555
Na0 O2 2.416013 1_555
Na0 O4 2.437403 1_555
Na0 O6 2.437403 1_555
Na1 O0 2.396444 1_555
Na1 O2 2.396444 1_455
Na1 O3 2.416013 1_555
Na1 O1 2.416013 1_555
Na1 O7 2.437403 1_555
Na1 O5 2.437403 1_555
O0 W3 1.770857 1_555
O1 W2 1.770857 1_555
O2 W1 1.770857 1_555
O3 W0 1.770857 1_555
O4 W0 1.924764 1_555
O4 W3 2.054111 1_565
O5 W1 1.924764 1_555
O5 W2 2.054111 1_545
O6 W2 1.924764 1_655
O6 W1 2.054111 1_565
O7 W3 1.924764 1_455
O7 W0 2.054111 1_545
O8 W0 1.998288 1_655
O8 Sc0 2.064479 1_556
O8 W3 2.244797 1_565
O9 W1 1.998288 1_455
O9 Sc1 2.064479 1_555
O9 W2 2.244797 1_545
O10 W2 1.998288 1_555
O10 Sc0 2.064479 1_555
O10 W1 2.244797 1_565
O11 W3 1.998288 1_555
O11 Sc1 2.064479 1_556
O11 W0 2.244797 1_545
O12 W3 1.912304 1_555
O12 Sc1 2.118625 1_656
O12 Sc0 2.243623 1_556
O13 W2 1.912304 1_555
O13 Sc0 2.118625 1_455
O13 Sc1 2.243623 1_555
O14 W1 1.912304 1_555
O14 Sc1 2.118625 1_555
O14 Sc0 2.243623 1_555
O15 W0 1.912304 1_555
O15 Sc0 2.118625 1_556
O15 Sc1 2.243623 1_556
