# generated using pymatgen
data_Mn2SiRh
_symmetry_space_group_name_H-M   'P 1'
_cell_length_a   4.23888312
_cell_length_b   4.23888312
_cell_length_c   4.23888312
_cell_angle_alpha   60.00000000
_cell_angle_beta   60.00000000
_cell_angle_gamma   60.00000000
_symmetry_Int_Tables_number   1
_chemical_formula_structural   Mn2SiRh
_chemical_formula_sum   'Mn2 Si1 Rh1'
_cell_volume   53.85664904
_cell_formula_units_Z   1
loop_
 _symmetry_equiv_pos_site_id
 _symmetry_equiv_pos_as_xyz
  1  'x, y, z'
loop_
 _atom_site_type_symbol
 _atom_site_label
 _atom_site_symmetry_multiplicity
 _atom_site_fract_x
 _atom_site_fract_y
 _atom_site_fract_z
 _atom_site_occupancy
  Mn  Mn0  1  0.75000000  0.75000000  0.75000000  1
  Mn  Mn1  1  0.25000000  0.25000000  0.25000000  1
  Si  Si0  1  0.00000000  0.00000000  0.00000000  1
  Rh  Rh0  1  0.50000000  0.50000000  0.50000000  1
loop_
_geom_bond_atom_site_label_1
_geom_bond_atom_site_label_2
_geom_bond_distance
_geom_bond_site_symmetry_2
Mn0 Si0 2.595775 1_656
Mn0 Rh0 2.595775 1_655
Mn0 Si0 2.595775 1_566
Mn0 Rh0 2.595775 1_565
Mn0 Si0 2.595775 1_665
Mn0 Si0 2.595775 1_666
Mn0 Rh0 2.595775 1_555
Mn0 Rh0 2.595775 1_556
Mn1 Si0 2.595775 1_565
Mn1 Rh0 2.595775 1_455
Mn1 Si0 2.595775 1_655
Mn1 Rh0 2.595775 1_545
Mn1 Si0 2.595775 1_556
Mn1 Si0 2.595775 1_555
Mn1 Rh0 2.595775 1_554
Mn1 Rh0 2.595775 1_555
