# generated using pymatgen
data_Cr5B2P
_symmetry_space_group_name_H-M   'P 1'
_cell_length_a   5.54731000
_cell_length_b   5.54731000
_cell_length_c   6.47824190
_cell_angle_alpha   115.35016987
_cell_angle_beta   115.35016987
_cell_angle_gamma   90.00000000
_symmetry_Int_Tables_number   1
_chemical_formula_structural   Cr5B2P
_chemical_formula_sum   'Cr10 B4 P2'
_cell_volume   158.65469637
_cell_formula_units_Z   2
loop_
 _symmetry_equiv_pos_site_id
 _symmetry_equiv_pos_as_xyz
  1  'x, y, z'
loop_
 _atom_site_type_symbol
 _atom_site_label
 _atom_site_symmetry_multiplicity
 _atom_site_fract_x
 _atom_site_fract_y
 _atom_site_fract_z
 _atom_site_occupancy
  Cr  Cr0  1  0.50000000  0.50000000  0.00000000  1
  Cr  Cr1  1  0.00000000  0.00000000  0.00000000  1
  Cr  Cr2  1  0.02985700  0.52985700  0.72234100  1
  Cr  Cr3  1  0.69248400  0.19248400  0.72234100  1
  Cr  Cr4  1  0.19248400  0.02985700  0.72234100  1
  Cr  Cr5  1  0.52985700  0.69248400  0.72234100  1
  Cr  Cr6  1  0.97014300  0.47014300  0.27765900  1
  Cr  Cr7  1  0.30751600  0.80751600  0.27765900  1
  Cr  Cr8  1  0.80751600  0.97014300  0.27765900  1
  Cr  Cr9  1  0.47014300  0.30751600  0.27765900  1
  B  B0  1  0.38178500  0.88178500  0.00000000  1
  B  B1  1  0.61821500  0.11821500  0.00000000  1
  B  B2  1  0.11821500  0.38178500  0.00000000  1
  B  B3  1  0.88178500  0.61821500  0.00000000  1
  P  P0  1  0.25000000  0.25000000  0.50000000  1
  P  P1  1  0.75000000  0.75000000  0.50000000  1
loop_
_geom_bond_atom_site_label_1
_geom_bond_atom_site_label_2
_geom_bond_distance
_geom_bond_site_symmetry_2
Cr0 P0 2.577853 1_554
Cr0 P1 2.577853 1_555
Cr1 P0 2.577853 1_555
Cr1 P1 2.577853 1_444
Cr2 P1 2.359570 1_455
Cr2 P0 2.359570 1_555
Cr3 P1 2.359570 1_545
Cr3 P0 2.359570 1_555
Cr4 P1 2.359570 1_445
Cr4 P0 2.359570 1_555
Cr5 P1 2.359570 1_555
Cr5 P0 2.359570 1_555
Cr6 P1 2.359570 1_555
Cr6 P0 2.359570 1_655
Cr7 P0 2.359570 1_565
Cr7 P1 2.359570 1_555
Cr8 P1 2.359570 1_555
Cr8 P0 2.359570 1_665
Cr9 P0 2.359570 1_555
Cr9 P1 2.359570 1_555
B0 B1 1.854813 1_565
B0 Cr4 2.158850 1_564
B0 Cr5 2.158850 1_554
B0 Cr8 2.158850 1_555
B0 Cr9 2.158850 1_565
B0 Cr7 2.200932 1_555
B0 Cr2 2.200932 1_554
B0 Cr0 2.217083 1_555
B0 Cr1 2.217083 1_565
B1 Cr4 2.158850 1_554
B1 Cr9 2.158850 1_555
B1 Cr8 2.158850 1_545
B1 Cr5 2.158850 1_544
B1 Cr3 2.200932 1_554
B1 Cr6 2.200932 1_555
B1 Cr0 2.217083 1_555
B1 Cr1 2.217083 1_655
B2 B3 1.854813 1_455
B2 Cr2 2.158850 1_554
B2 Cr6 2.158850 1_455
B2 Cr3 2.158850 1_454
B2 Cr7 2.158850 1_555
B2 Cr9 2.200932 1_555
B2 Cr4 2.200932 1_554
B2 Cr1 2.217083 1_555
B2 Cr0 2.217083 1_555
B3 Cr2 2.158850 1_654
B3 Cr6 2.158850 1_555
B3 Cr3 2.158850 1_554
B3 Cr7 2.158850 1_655
B3 Cr5 2.200932 1_554
B3 Cr8 2.200932 1_555
B3 Cr0 2.217083 1_555
B3 Cr1 2.217083 1_665
