# generated using pymatgen
data_YAl3Ag
_symmetry_space_group_name_H-M   'P 1'
_cell_length_a   4.20373400
_cell_length_b   4.18589300
_cell_length_c   6.39242542
_cell_angle_alpha   70.88833288
_cell_angle_beta   70.80368733
_cell_angle_gamma   90.00000000
_symmetry_Int_Tables_number   1
_chemical_formula_structural   YAl3Ag
_chemical_formula_sum   'Y1 Al3 Ag1'
_cell_volume   99.64094876
_cell_formula_units_Z   1
loop_
 _symmetry_equiv_pos_site_id
 _symmetry_equiv_pos_as_xyz
  1  'x, y, z'
loop_
 _atom_site_type_symbol
 _atom_site_label
 _atom_site_symmetry_multiplicity
 _atom_site_fract_x
 _atom_site_fract_y
 _atom_site_fract_z
 _atom_site_occupancy
  Y  Y0  1  0.00013900  0.00013900  0.99972100  1
  Al  Al0  1  0.24985200  0.74985200  0.50029600  1
  Al  Al1  1  0.60966400  0.60966400  0.78067300  1
  Al  Al2  1  0.39014200  0.39014200  0.21971700  1
  Ag  Ag0  1  0.75020400  0.25020400  0.49959300  1
loop_
_geom_bond_atom_site_label_1
_geom_bond_atom_site_label_2
_geom_bond_distance
_geom_bond_site_symmetry_2
Al0 Al2 2.627681 1_555
Al0 Al2 2.627684 1_565
Al0 Al1 2.634102 1_455
Al0 Al1 2.634105 1_555
Al0 Y0 3.518266 1_565
Al0 Y0 3.518269 1_555
Al0 Y0 3.528809 1_664
Al0 Y0 3.528811 1_564
Al1 Al2 2.486123 1_556
Al1 Y0 3.215085 1_665
Al1 Y0 3.215090 1_565
Al1 Y0 3.215090 1_655
Al1 Y0 3.215096 1_555
Al2 Y0 3.217160 1_664
Al2 Y0 3.217165 1_654
Al2 Y0 3.217165 1_564
Al2 Y0 3.217171 1_554
Ag0 Al1 2.629399 1_555
Ag0 Al1 2.629399 1_545
Ag0 Al2 2.632395 1_655
Ag0 Al2 2.632395 1_555
Ag0 Al0 2.966187 1_655
Ag0 Al0 2.966190 1_645
Ag0 Al0 2.966190 1_555
Ag0 Al0 2.966193 1_545
Ag0 Y0 3.520300 1_664
Ag0 Y0 3.520305 1_654
Ag0 Y0 3.526775 1_655
Ag0 Y0 3.526780 1_555
