# generated using pymatgen
data_GdAlGa
_symmetry_space_group_name_H-M   'P 1'
_cell_length_a   4.44992603
_cell_length_b   4.44992603
_cell_length_c   3.71448400
_cell_angle_alpha   90.00000000
_cell_angle_beta   90.00000000
_cell_angle_gamma   120.00000050
_symmetry_Int_Tables_number   1
_chemical_formula_structural   GdAlGa
_chemical_formula_sum   'Gd1 Al1 Ga1'
_cell_volume   63.69930677
_cell_formula_units_Z   1
loop_
 _symmetry_equiv_pos_site_id
 _symmetry_equiv_pos_as_xyz
  1  'x, y, z'
loop_
 _atom_site_type_symbol
 _atom_site_label
 _atom_site_symmetry_multiplicity
 _atom_site_fract_x
 _atom_site_fract_y
 _atom_site_fract_z
 _atom_site_occupancy
  Gd  Gd0  1  0.66666700  0.33333300  0.00000000  1
  Al  Al0  1  0.00000000  0.00000000  0.50000000  1
  Ga  Ga0  1  0.33333300  0.66666700  0.50000000  1
loop_
_geom_bond_atom_site_label_1
_geom_bond_atom_site_label_2
_geom_bond_distance
_geom_bond_site_symmetry_2
Al0 Ga0 2.569163 1_545
Al0 Ga0 2.569167 1_555
Al0 Ga0 2.569167 1_445
Al0 Gd0 3.170165 1_456
Al0 Gd0 3.170165 1_455
Al0 Gd0 3.170168 1_445
Al0 Gd0 3.170168 1_556
Al0 Gd0 3.170168 1_446
Al0 Gd0 3.170168 1_555
Ga0 Gd0 3.170165 1_456
Ga0 Gd0 3.170165 1_455
Ga0 Gd0 3.170165 1_566
Ga0 Gd0 3.170165 1_565
Ga0 Gd0 3.170172 1_555
Ga0 Gd0 3.170172 1_556
