# generated using pymatgen
data_BaIO5
_symmetry_space_group_name_H-M   'P 1'
_cell_length_a   5.87434300
_cell_length_b   7.09551445
_cell_length_c   7.37566476
_cell_angle_alpha   88.80131550
_cell_angle_beta   87.91527249
_cell_angle_gamma   81.49364634
_symmetry_Int_Tables_number   1
_chemical_formula_structural   BaIO5
_chemical_formula_sum   'Ba2 I2 O10'
_cell_volume   303.80799046
_cell_formula_units_Z   2
loop_
 _symmetry_equiv_pos_site_id
 _symmetry_equiv_pos_as_xyz
  1  'x, y, z'
loop_
 _atom_site_type_symbol
 _atom_site_label
 _atom_site_symmetry_multiplicity
 _atom_site_fract_x
 _atom_site_fract_y
 _atom_site_fract_z
 _atom_site_occupancy
  Ba  Ba0  1  0.78081300  0.28507400  0.95247000  1
  Ba  Ba1  1  0.21918700  0.71492600  0.04753000  1
  I  I0  1  0.80845800  0.28894000  0.48798400  1
  I  I1  1  0.19154200  0.71106000  0.51201600  1
  O  O0  1  0.76843300  0.79206800  0.77009200  1
  O  O1  1  0.23156700  0.20793200  0.22990800  1
  O  O2  1  0.62094300  0.67753700  0.77627500  1
  O  O3  1  0.37905700  0.32246300  0.22372500  1
  O  O4  1  0.75822700  0.62897000  0.14192900  1
  O  O5  1  0.24177300  0.37103000  0.85807100  1
  O  O6  1  0.80975900  0.94362100  0.12902400  1
  O  O7  1  0.19024100  0.05637900  0.87097600  1
  O  O8  1  0.34419700  0.18164100  0.84356300  1
  O  O9  1  0.65580300  0.81835900  0.15643700  1
loop_
_geom_bond_atom_site_label_1
_geom_bond_atom_site_label_2
_geom_bond_distance
_geom_bond_site_symmetry_2
Ba0 O6 2.712336 1_546
Ba0 O7 2.749565 1_655
Ba0 O4 2.820969 1_556
Ba0 O8 2.914386 1_555
Ba0 O5 2.919380 1_655
Ba0 O3 3.022652 1_556
Ba0 O2 3.080457 1_555
Ba0 O1 3.378871 1_656
Ba0 I0 3.423562 1_555
Ba1 O7 2.712336 1_564
Ba1 O6 2.749565 1_455
Ba1 O5 2.820969 1_554
Ba1 O9 2.914386 1_555
Ba1 O4 2.919380 1_455
Ba1 O2 3.022652 1_554
Ba1 O3 3.080457 1_555
Ba1 O0 3.378871 1_454
Ba1 I1 3.423562 1_555
O0 O2 1.271622 1_555
O1 O3 1.271622 1_555
O4 O9 1.393352 1_555
O5 O8 1.393352 1_555
O6 O9 1.365922 1_555
O7 O8 1.365922 1_555
