# generated using pymatgen
data_Cs2TiCu3F12
_symmetry_space_group_name_H-M   'P 1'
_cell_length_a   7.08470400
_cell_length_b   8.02957800
_cell_length_c   12.33409284
_cell_angle_alpha   58.81752482
_cell_angle_beta   90.00000000
_cell_angle_gamma   90.00000000
_symmetry_Int_Tables_number   1
_chemical_formula_structural   Cs2TiCu3F12
_chemical_formula_sum   'Cs4 Ti2 Cu6 F24'
_cell_volume   600.27902014
_cell_formula_units_Z   2
loop_
 _symmetry_equiv_pos_site_id
 _symmetry_equiv_pos_as_xyz
  1  'x, y, z'
loop_
 _atom_site_type_symbol
 _atom_site_label
 _atom_site_symmetry_multiplicity
 _atom_site_fract_x
 _atom_site_fract_y
 _atom_site_fract_z
 _atom_site_occupancy
  Cs  Cs0  1  0.49783900  0.33750600  0.38662900  1
  Cs  Cs1  1  0.00216100  0.33750600  0.88662900  1
  Cs  Cs2  1  0.50216100  0.66249400  0.61337100  1
  Cs  Cs3  1  0.99783900  0.66249400  0.11337100  1
  Ti  Ti0  1  0.50000000  0.50000000  0.00000000  1
  Ti  Ti1  1  0.00000000  0.50000000  0.50000000  1
  Cu  Cu0  1  0.50000000  0.00000000  0.00000000  1
  Cu  Cu1  1  0.00000000  0.00000000  0.50000000  1
  Cu  Cu2  1  0.72880800  0.98884600  0.25802300  1
  Cu  Cu3  1  0.77119200  0.98884600  0.75802300  1
  Cu  Cu4  1  0.27119200  0.01115400  0.74197700  1
  Cu  Cu5  1  0.22880800  0.01115400  0.24197700  1
  F  F0  1  0.67442000  0.90874400  0.13841000  1
  F  F1  1  0.82558000  0.90874400  0.63841000  1
  F  F2  1  0.32558000  0.09125600  0.86159000  1
  F  F3  1  0.17442000  0.09125600  0.36159000  1
  F  F4  1  0.21690200  0.97155700  0.60347700  1
  F  F5  1  0.28309800  0.97155700  0.10347700  1
  F  F6  1  0.78309800  0.02844300  0.39652300  1
  F  F7  1  0.71690200  0.02844300  0.89652300  1
  F  F8  1  0.47208500  0.93782400  0.32043300  1
  F  F9  1  0.02791500  0.93782400  0.82043300  1
  F  F10  1  0.52791500  0.06217600  0.67956700  1
  F  F11  1  0.97208500  0.06217600  0.17956700  1
  F  F12  1  0.85039700  0.33613300  0.64437300  1
  F  F13  1  0.64960300  0.33613300  0.14437300  1
  F  F14  1  0.14960300  0.66386700  0.35562700  1
  F  F15  1  0.35039700  0.66386700  0.85562700  1
  F  F16  1  0.27938700  0.35799100  0.08519800  1
  F  F17  1  0.22061300  0.35799100  0.58519800  1
  F  F18  1  0.72061300  0.64200900  0.91480200  1
  F  F19  1  0.77938700  0.64200900  0.41480200  1
  F  F20  1  0.54443700  0.33635300  0.93352100  1
  F  F21  1  0.95556300  0.33635300  0.43352100  1
  F  F22  1  0.45556300  0.66364700  0.06647900  1
  F  F23  1  0.04443700  0.66364700  0.56647900  1
loop_
_geom_bond_atom_site_label_1
_geom_bond_atom_site_label_2
_geom_bond_distance
_geom_bond_site_symmetry_2
Cs0 F10 3.117048 1_555
Cs0 F3 3.144449 1_555
Cs0 F6 3.153442 1_555
Cs0 F13 3.180957 1_555
Cs0 F17 3.209392 1_555
Cs0 F21 3.293184 1_555
Cs0 F19 3.310211 1_555
Cs0 F4 3.407494 1_545
Cs0 F22 3.439776 1_555
Cs0 F14 3.473129 1_555
Cs1 F11 3.117048 1_456
Cs1 F2 3.144449 1_555
Cs1 F7 3.153442 1_455
Cs1 F12 3.180957 1_455
Cs1 F16 3.209392 1_556
Cs1 F20 3.293184 1_455
Cs1 F18 3.310211 1_455
Cs1 F5 3.407494 1_546
Cs1 F23 3.439776 1_555
Cs1 F15 3.473129 1_555
Cs2 F8 3.117048 1_555
Cs2 F1 3.144449 1_555
Cs2 F4 3.153442 1_555
Cs2 F15 3.180957 1_555
Cs2 F19 3.209392 1_555
Cs2 F23 3.293184 1_555
Cs2 F17 3.310211 1_555
Cs2 F6 3.407494 1_565
Cs2 F20 3.439776 1_555
Cs2 F12 3.473129 1_555
Cs3 F9 3.117048 1_654
Cs3 F0 3.144449 1_555
Cs3 F5 3.153442 1_655
Cs3 F14 3.180957 1_655
Cs3 F18 3.209392 1_554
Cs3 F22 3.293184 1_655
Cs3 F16 3.310211 1_655
Cs3 F7 3.407494 1_564
Cs3 F21 3.439776 1_555
Cs3 F13 3.473129 1_555
Cu0 F0 1.919100 1_545
Cu0 F2 1.919100 1_554
Cu0 F5 1.934076 1_545
Cu0 F7 1.934076 1_554
Cu0 F22 2.402585 1_545
Cu0 F20 2.402585 1_554
Cu1 F3 1.919100 1_555
Cu1 F1 1.919100 1_445
Cu1 F6 1.934076 1_455
Cu1 F4 1.934076 1_545
Cu1 F21 2.402585 1_455
Cu1 F23 2.402585 1_545
Cu2 F11 1.914077 1_565
Cu2 F0 1.929078 1_555
Cu2 F6 1.931233 1_565
Cu2 F8 1.934393 1_555
Cu2 F13 2.451150 1_565
Cu2 F19 2.459063 1_555
Cu3 F10 1.914077 1_565
Cu3 F1 1.929078 1_555
Cu3 F7 1.931233 1_565
Cu3 F9 1.934393 1_655
Cu3 F12 2.451150 1_565
Cu3 F18 2.459063 1_555
Cu4 F9 1.914077 1_545
Cu4 F2 1.929078 1_555
Cu4 F4 1.931233 1_545
Cu4 F10 1.934393 1_555
Cu4 F15 2.451150 1_545
Cu4 F17 2.459063 1_555
Cu5 F8 1.914077 1_545
Cu5 F3 1.929078 1_555
Cu5 F5 1.931233 1_545
Cu5 F11 1.934393 1_455
Cu5 F14 2.451150 1_545
Cu5 F16 2.459063 1_555
F12 Ti1 1.897184 1_655
F13 Ti0 1.897184 1_555
F14 Ti1 1.897184 1_555
F15 Ti0 1.897184 1_556
F16 Ti0 1.899096 1_555
F17 Ti1 1.899096 1_555
F18 Ti0 1.899096 1_556
F19 Ti1 1.899096 1_655
F20 Ti0 1.901001 1_556
F21 Ti1 1.901001 1_655
F22 Ti0 1.901001 1_555
F23 Ti1 1.901001 1_555
