# generated using pymatgen
data_Na4Sn2C4SO16
_symmetry_space_group_name_H-M   'P 1'
_cell_length_a   10.02273222
_cell_length_b   10.10810033
_cell_length_c   18.21289079
_cell_angle_alpha   90.23488802
_cell_angle_beta   72.41914152
_cell_angle_gamma   119.87109862
_symmetry_Int_Tables_number   1
_chemical_formula_structural   Na4Sn2C4SO16
_chemical_formula_sum   'Na16 Sn8 C16 S4 O64'
_cell_volume   1501.20405489
_cell_formula_units_Z   4
loop_
 _symmetry_equiv_pos_site_id
 _symmetry_equiv_pos_as_xyz
  1  'x, y, z'
loop_
 _atom_site_type_symbol
 _atom_site_label
 _atom_site_symmetry_multiplicity
 _atom_site_fract_x
 _atom_site_fract_y
 _atom_site_fract_z
 _atom_site_occupancy
  Na  Na0  1  0.92312836  0.41443027  0.16575469  1
  Na  Na1  1  0.68054554  0.79201373  0.03579982  1
  Na  Na2  1  0.90788556  0.65352753  0.46007961  1
  Na  Na3  1  0.36875761  0.11664744  0.45771108  1
  Na  Na4  1  0.34579839  0.42801505  0.15911168  1
  Na  Na5  1  0.91851635  -0.00311042  0.16127159  1
  Na  Na6  1  0.91831470  0.49434770  0.65508190  1
  Na  Na7  1  0.91668734  0.22220848  0.96216893  1
  Na  Na8  1  0.07165532  0.08993528  0.33965743  1
  Na  Na9  1  0.92016804  0.91331690  0.66933108  1
  Na  Na10  1  0.67411394  0.88844083  0.53610950  1
  Na  Na11  1  0.31498732  0.68478036  0.45937412  1
  Na  Na12  1  0.34048608  0.21641656  0.95786758  1
  Na  Na13  1  0.33796216  0.92283890  0.66305383  1
  Na  Na14  1  0.33277029  0.62689977  0.96012639  1
  Na  Na15  1  0.07869536  0.59889666  0.83781568  1
  Sn  Sn0  1  0.48967875  0.00437766  0.00122929  1
  Sn  Sn1  1  0.50409706  0.24968087  0.24813594  1
  Sn  Sn2  1  0.49047568  0.75561408  0.25635489  1
  Sn  Sn3  1  0.47853080  0.47777302  0.50404924  1
  Sn  Sn4  1  0.49890883  0.25378107  0.75032438  1
  Sn  Sn5  1  0.00217714  0.74785885  0.24933872  1
  Sn  Sn6  1  0.50530904  0.74811190  0.75591045  1
  Sn  Sn7  1  0.99844891  0.25068410  0.75004718  1
  C  C0  1  0.66631345  0.09342128  0.13684080  1
  C  C1  1  0.26734856  0.08383511  0.15069813  1
  C  C2  1  0.72522157  0.42359371  0.34830400  1
  C  C3  1  0.72232334  0.60384158  0.17500061  1
  C  C4  1  0.72731337  0.11915007  0.67355023  1
  C  C5  1  0.35508993  0.40938996  0.35914111  1
  C  C6  1  0.72843419  0.79650535  0.35475095  1
  C  C7  1  0.71865766  0.30333096  0.84983048  1
  C  C8  1  0.27647238  0.19200889  0.64828104  1
  C  C9  1  0.26940086  0.68813991  0.14254877  1
  C  C10  1  0.66841302  0.57677150  0.64375071  1
  C  C11  1  0.26513302  0.57555260  0.64196489  1
  C  C12  1  0.27146454  0.89932973  0.33268364  1
  C  C13  1  0.26371729  0.37816941  0.83021744  1
  C  C14  1  0.72672877  0.93674265  0.86097014  1
  C  C15  1  0.34438147  0.93493872  0.85118904  1
  S  S0  1  0.87280159  0.18952044  0.43813752  1
  S  S1  1  0.12792413  0.31170259  0.06138463  1
  S  S2  1  0.87109259  0.68394806  0.93850462  1
  S  S3  1  0.12808770  0.81201185  0.56165375  1
  O  O0  1  0.67452467  0.15967884  0.07519649  1
  O  O1  1  0.93339201  0.21703981  0.35016256  1
  O  O2  1  0.93106320  0.08845043  0.46340242  1
  O  O3  1  0.63706718  0.14529397  0.20533120  1
  O  O4  1  0.27604070  0.06011703  0.08207864  1
  O  O5  1  0.93890296  0.33674934  0.46815292  1
  O  O6  1  0.68871419  0.09585958  0.47070398  1
  O  O7  1  0.84160285  0.01396203  0.79055209  1
  O  O8  1  0.70492535  0.46600519  0.18062043  1
  O  O9  1  0.86120448  0.50585054  0.28754285  1
  O  O10  1  0.38840409  0.20661243  0.16377274  1
  O  O11  1  0.60500150  0.29595065  0.33807666  1
  O  O12  1  0.85693819  0.72289530  0.17991715  1
  O  O13  1  0.85887616  0.23891856  0.68069877  1
  O  O14  1  0.29569565  0.04024406  0.32171560  1
  O  O15  1  0.31085738  0.40255176  0.03135558  1
  O  O16  1  0.06632634  0.16612428  0.02791448  1
  O  O17  1  0.61445833  0.62555459  0.16428437  1
  O  O18  1  0.70875260  0.46292064  0.41490221  1
  O  O19  1  0.60023770  0.13213941  0.68033745  1
  O  O20  1  0.36305610  0.35047049  0.29224255  1
  O  O21  1  0.86343913  0.79002054  0.34775860  1
  O  O22  1  0.86015625  0.31232258  0.84105077  1
  O  O23  1  0.06608562  0.40656447  0.03783498  1
  O  O24  1  0.06681671  0.27260830  0.14902704  1
  O  O25  1  0.63908888  0.43122452  0.65408889  1
  O  O26  1  0.37459107  0.22709188  0.57872608  1
  O  O27  1  0.68716112  0.97807912  0.13959444  1
  O  O28  1  0.38225003  0.73801987  0.07431813  1
  O  O29  1  0.34420472  0.33461816  0.41931515  1
  O  O30  1  0.72260356  0.85277081  0.29358815  1
  O  O31  1  0.70485526  0.35578292  0.78827002  1
  O  O32  1  0.68719470  0.63191091  0.57591800  1
  O  O33  1  0.26330652  0.60931175  0.19879522  1
  O  O34  1  0.30119296  0.14663220  0.70780834  1
  O  O35  1  0.36911847  0.07822897  0.84665362  1
  O  O36  1  0.61714945  0.74702145  0.42212757  1
  O  O37  1  0.35970146  0.53786468  0.35868334  1
  O  O38  1  0.60646077  0.24801877  0.91581260  1
  O  O39  1  0.93470351  0.59083103  0.96293833  1
  O  O40  1  0.92702634  0.71170303  0.85061313  1
  O  O41  1  0.15186760  0.72240047  0.15140944  1
  O  O42  1  0.13929346  0.19200400  0.66107482  1
  O  O43  1  0.68024348  0.65219774  0.70052903  1
  O  O44  1  0.36618380  0.87533840  0.35518460  1
  O  O45  1  0.25427153  0.52072342  0.57960638  1
  O  O46  1  0.39118384  0.36544089  0.82276826  1
  O  O47  1  0.93612065  0.83540638  0.96769958  1
  O  O48  1  0.68734084  0.59817277  0.97264540  1
  O  O49  1  0.72084637  0.99280650  0.66003459  1
  O  O50  1  0.14184488  0.78142585  0.32278114  1
  O  O51  1  0.38238352  0.70770457  0.64480523  1
  O  O52  1  0.13307077  0.26133013  0.82129264  1
  O  O53  1  0.60572559  0.80382740  0.86240604  1
  O  O54  1  0.26691307  0.50086222  0.84942248  1
  O  O55  1  0.14330374  0.49147550  0.71139961  1
  O  O56  1  0.13286255  0.99298746  0.21192583  1
  O  O57  1  0.05944735  0.65922905  0.53402372  1
  O  O58  1  0.31068588  0.89349852  0.53186084  1
  O  O59  1  0.73762006  0.99743458  0.92255704  1
  O  O60  1  0.32604529  0.86285901  0.79348493  1
  O  O61  1  0.07334125  0.90751780  0.53286984  1
  O  O62  1  0.06806159  0.78165722  0.64955868  1
  O  O63  1  0.34377672  0.87675327  0.91367283  1
loop_
_geom_bond_atom_site_label_1
_geom_bond_atom_site_label_2
_geom_bond_distance
_geom_bond_site_symmetry_2
Na0 O23 2.362747 1_655
Na0 O9 2.425285 1_555
Na0 O8 2.429987 1_555
Na0 O24 2.451481 1_655
Na0 O3 2.671884 1_555
Na0 O41 2.747871 1_655
Na1 O48 2.287769 1_554
Na1 O47 2.293104 1_554
Na1 O17 2.594523 1_555
Na1 O28 2.615201 1_555
Na1 O59 2.651746 1_554
Na1 O27 2.652856 1_555
Na2 O57 2.296212 1_655
Na2 O18 2.349730 1_555
Na2 O32 2.468734 1_555
Na2 O50 2.624406 1_655
Na2 O21 2.733625 1_555
Na2 O61 2.856253 1_655
Na3 O58 2.343662 1_545
Na3 O29 2.461839 1_555
Na3 O26 2.469848 1_555
Na3 O11 2.505973 1_555
Na3 O61 2.539654 1_545
Na3 O14 2.790026 1_555
Na4 O33 2.387812 1_555
Na4 O15 2.449589 1_555
Na4 O17 2.458163 1_555
Na4 O10 2.484636 1_555
Na4 O24 2.500496 1_555
Na4 O20 2.632006 1_555
Na5 O27 2.383728 1_545
Na5 O24 2.388485 1_655
Na5 O30 2.471061 1_545
Na5 O12 2.518958 1_545
Na5 O16 2.521150 1_655
Na5 O56 2.598082 1_645
Na6 O57 2.331855 1_655
Na6 O13 2.355554 1_555
Na6 O62 2.503251 1_655
Na6 O31 2.516156 1_555
Na6 O25 2.547825 1_555
Na6 O55 2.756937 1_655
Na7 O59 2.368687 1_545
Na7 O16 2.437611 1_656
Na7 O0 2.447929 1_556
Na7 O23 2.461696 1_656
Na7 O52 2.689892 1_655
Na7 O22 2.702294 1_555
Na8 O2 2.264054 1_455
Na8 O1 2.284502 1_455
Na8 O14 2.465803 1_555
Na8 O56 2.542953 1_545
Na8 O20 2.654187 1_555
Na8 O21 2.661403 1_445
Na9 O62 2.395118 1_655
Na9 O43 2.436510 1_555
Na9 O7 2.501730 1_565
Na9 O61 2.514113 1_655
Na9 O42 2.534332 1_665
Na9 O49 2.543545 1_555
Na10 O2 2.291005 1_565
Na10 O6 2.333616 1_565
Na10 O49 2.559962 1_555
Na10 O36 2.560786 1_555
Na10 O51 2.649147 1_555
Na10 O32 2.770944 1_555
Na11 O57 2.390676 1_555
Na11 O37 2.431745 1_555
Na11 O44 2.455922 1_555
Na11 O45 2.476888 1_555
Na11 O58 2.495830 1_555
Na11 O36 2.625310 1_555
Na12 O15 2.390671 1_556
Na12 O38 2.390700 1_555
Na12 O16 2.435716 1_556
Na12 O4 2.482152 1_556
Na12 O35 2.482166 1_555
Na12 O46 2.663504 1_555
Na13 O60 2.406917 1_555
Na13 O51 2.430362 1_555
Na13 O62 2.442978 1_555
Na13 O58 2.485958 1_555
Na13 O19 2.537686 1_565
Na13 O34 2.559540 1_565
Na14 O28 2.425287 1_556
Na14 O23 2.432804 1_556
Na14 O53 2.462008 1_555
Na14 O54 2.463585 1_555
Na14 O15 2.495935 1_556
Na14 O63 2.605757 1_555
Na15 O40 2.275018 1_455
Na15 O39 2.275989 1_455
Na15 O60 2.477211 1_555
Na15 O55 2.584300 1_555
Na15 O54 2.586517 1_555
Na15 O22 2.606808 1_455
C0 O0 1.269357 1_555
C0 O27 1.286448 1_545
C0 O3 1.357837 1_555
C1 O4 1.256798 1_555
C1 O10 1.319556 1_555
C1 O56 1.330818 1_545
C2 O18 1.263710 1_555
C2 O11 1.317683 1_555
C2 O9 1.319518 1_555
C3 O17 1.272484 1_555
C3 O8 1.315466 1_555
C3 O12 1.315810 1_555
C4 O49 1.272937 1_545
C4 O19 1.313782 1_555
C4 O13 1.316669 1_555
C5 O37 1.276216 1_555
C5 O29 1.279318 1_555
C5 O20 1.352131 1_555
C6 O36 1.273796 1_555
C6 O30 1.282728 1_555
C6 O21 1.354853 1_555
C7 O38 1.258634 1_555
C7 O31 1.314894 1_555
C7 O22 1.334112 1_555
C8 O26 1.265447 1_555
C8 O34 1.314052 1_555
C8 O42 1.323277 1_555
C9 O33 1.268249 1_555
C9 O28 1.290638 1_555
C9 O41 1.350826 1_555
C10 O32 1.277893 1_555
C10 O43 1.281505 1_555
C10 O25 1.350704 1_555
C11 O45 1.272132 1_555
C11 O51 1.280843 1_555
C11 O55 1.361902 1_555
C12 O44 1.262210 1_555
C12 O50 1.318397 1_555
C12 O14 1.325210 1_565
C13 O54 1.274789 1_555
C13 O52 1.312410 1_555
C13 O46 1.313776 1_555
C14 O53 1.278537 1_555
C14 O59 1.283764 1_555
C14 O7 1.341903 1_565
C15 O63 1.280152 1_555
C15 O60 1.283025 1_555
C15 O35 1.340537 1_565
O0 Sn0 2.510953 1_555
O1 S0 1.503675 1_555
O2 S0 1.535207 1_555
O3 Sn1 2.064853 1_555
O4 Sn0 2.522059 1_555
O5 S0 1.477339 1_555
O6 S0 1.501959 1_555
O7 Sn7 2.075579 1_555
O8 Sn1 2.118392 1_555
O9 Sn5 2.107553 1_655
O10 Sn1 2.112561 1_555
O11 Sn1 2.109077 1_555
O12 Sn5 2.127134 1_655
O13 Sn7 2.113466 1_555
O14 Sn1 2.137313 1_555
O15 S1 1.491743 1_555
O16 S1 1.494383 1_555
O17 Sn2 2.536686 1_555
O18 Sn3 2.462288 1_555
O19 Sn4 2.148724 1_555
O20 Sn1 2.103189 1_555
O21 Sn5 2.099187 1_655
O22 Sn7 2.126127 1_555
O23 S1 1.497827 1_555
O24 S1 1.500898 1_555
O25 Sn4 2.071486 1_555
O26 Sn3 2.428717 1_555
O27 Sn2 2.560483 1_555
O28 Sn0 2.540879 1_565
O29 Sn3 2.363124 1_555
O30 Sn2 2.347099 1_555
O31 Sn4 2.130111 1_555
O32 Sn3 2.627916 1_555
O33 Sn2 2.558373 1_555
O34 Sn4 2.117025 1_555
O35 Sn4 2.065562 1_555
O36 Sn3 2.564767 1_555
O37 Sn2 2.391684 1_555
O38 Sn0 2.432151 1_556
O39 S2 1.504332 1_555
O40 S2 1.503434 1_555
O41 Sn5 2.064600 1_555
O42 Sn7 2.101116 1_455
O43 Sn6 2.376622 1_555
O44 Sn2 2.526973 1_555
O45 Sn3 2.496572 1_555
O46 Sn4 2.126398 1_555
O47 S2 1.503364 1_555
O48 S2 1.500753 1_555
O49 Sn6 2.503564 1_555
O50 Sn5 2.125604 1_555
O51 Sn6 2.603378 1_555
O52 Sn7 2.104223 1_455
O53 Sn6 2.387015 1_555
O54 Sn6 2.546397 1_555
O55 Sn7 2.098608 1_455
O56 Sn5 2.135702 1_555
O57 S3 1.501993 1_555
O58 S3 1.491461 1_555
O59 Sn0 2.501064 1_566
O60 Sn6 2.523560 1_555
O61 S3 1.487765 1_555
O62 S3 1.502526 1_555
O63 Sn0 2.420392 1_566
