# generated using pymatgen
data_Zn7H10(SO9)2
_symmetry_space_group_name_H-M   'P 1'
_cell_length_a   5.57187940
_cell_length_b   8.16619909
_cell_length_c   9.02969937
_cell_angle_alpha   67.10147984
_cell_angle_beta   86.34061660
_cell_angle_gamma   85.50586126
_symmetry_Int_Tables_number   1
_chemical_formula_structural   Zn7H10(SO9)2
_chemical_formula_sum   'Zn7 H10 S2 O18'
_cell_volume   377.07095243
_cell_formula_units_Z   1
loop_
 _symmetry_equiv_pos_site_id
 _symmetry_equiv_pos_as_xyz
  1  'x, y, z'
loop_
 _atom_site_type_symbol
 _atom_site_label
 _atom_site_symmetry_multiplicity
 _atom_site_fract_x
 _atom_site_fract_y
 _atom_site_fract_z
 _atom_site_occupancy
  Zn  Zn0  1  0.50000000  0.00000000  0.00000000  1
  Zn  Zn1  1  0.00106000  0.19008000  0.81279900  1
  Zn  Zn2  1  0.99894000  0.80992000  0.18720100  1
  Zn  Zn3  1  0.49704400  0.34432500  0.67021900  1
  Zn  Zn4  1  0.50295600  0.65567500  0.32978100  1
  Zn  Zn5  1  0.03282300  0.35260000  0.39233000  1
  Zn  Zn6  1  0.96717600  0.64740000  0.60767000  1
  H  H0  1  0.27145700  0.11213800  0.60107400  1
  H  H1  1  0.72854300  0.88786200  0.39892600  1
  H  H2  1  0.60517500  0.32112100  0.40068200  1
  H  H3  1  0.39482500  0.67887900  0.59931800  1
  H  H4  1  0.71708700  0.66889600  0.05446900  1
  H  H5  1  0.28291300  0.33110400  0.94553100  1
  H  H6  1  0.71518900  0.00337900  0.73977800  1
  H  H7  1  0.28481100  0.99662100  0.26022200  1
  H  H8  1  0.75881900  0.44509300  0.85419200  1
  H  H9  1  0.24118100  0.55490700  0.14580800  1
  S  S0  1  0.78858600  0.21366700  0.18182700  1
  S  S1  1  0.21141400  0.78633300  0.81817300  1
  O  O0  1  0.82309200  0.09377000  0.08681000  1
  O  O1  1  0.17690800  0.90623000  0.91319000  1
  O  O2  1  0.72462000  0.39600200  0.07074600  1
  O  O3  1  0.27538000  0.60399800  0.92925400  1
  O  O4  1  0.39707400  0.85912800  0.68890900  1
  O  O5  1  0.60292600  0.14087200  0.31109100  1
  O  O6  1  0.02710600  0.20446000  0.25781400  1
  O  O7  1  0.97289400  0.79554000  0.74218600  1
  O  O8  1  0.20396100  0.23026000  0.59409200  1
  O  O9  1  0.79603900  0.76974000  0.40590800  1
  O  O10  1  0.68142200  0.40231300  0.43846300  1
  O  O11  1  0.31857800  0.59768700  0.56153700  1
  O  O12  1  0.69780100  0.75410200  0.10693800  1
  O  O13  1  0.30219900  0.24589800  0.89306200  1
  O  O14  1  0.69096600  0.09500900  0.78500000  1
  O  O15  1  0.30903400  0.90499100  0.21500000  1
  O  O16  1  0.79830200  0.43551300  0.74921000  1
  O  O17  1  0.20169800  0.56448700  0.25079000  1
loop_
_geom_bond_atom_site_label_1
_geom_bond_atom_site_label_2
_geom_bond_distance
_geom_bond_site_symmetry_2
H0 O8 0.987283 1_555
H1 O9 0.987283 1_555
H2 O10 0.987496 1_555
H3 O11 0.987496 1_555
H4 O12 0.979025 1_555
H5 O13 0.979025 1_555
H6 O14 0.979684 1_555
H7 O15 0.979684 1_555
H8 O16 0.990723 1_555
H9 O17 0.990723 1_555
O0 S0 1.528036 1_555
O0 Zn2 2.297179 1_545
O0 Zn0 2.303240 1_555
O0 Zn1 2.453243 1_654
O1 S1 1.528036 1_555
O1 Zn1 2.297179 1_565
O1 Zn0 2.303240 1_566
O1 Zn2 2.453243 1_456
O2 S0 1.466423 1_555
O3 S1 1.466423 1_555
O4 S1 1.479253 1_555
O5 S0 1.479253 1_555
O6 S0 1.517660 1_455
O6 Zn5 2.023438 1_555
O7 S1 1.517660 1_655
O7 Zn6 2.023438 1_555
O8 Zn5 1.970422 1_555
O8 Zn1 2.134179 1_555
O8 Zn3 2.210633 1_555
O9 Zn6 1.970420 1_555
O9 Zn2 2.134179 1_555
O9 Zn4 2.210633 1_555
O10 Zn5 2.018634 1_655
O10 Zn4 2.110621 1_555
O10 Zn3 2.165553 1_555
O11 Zn6 2.018639 1_455
O11 Zn3 2.110621 1_555
O11 Zn4 2.165553 1_555
O12 Zn2 2.020048 1_555
O12 Zn0 2.111741 1_565
O12 Zn4 2.114930 1_555
O13 Zn1 2.020048 1_555
O13 Zn0 2.111741 1_556
O13 Zn3 2.114930 1_555
O14 Zn1 2.017005 1_655
O14 Zn0 2.048571 1_556
O14 Zn3 2.131416 1_555
O15 Zn2 2.017005 1_455
O15 Zn0 2.048571 1_565
O15 Zn4 2.131416 1_555
O16 Zn6 1.973194 1_555
O16 Zn1 2.110791 1_655
O16 Zn3 2.154744 1_555
O17 Zn5 1.973197 1_555
O17 Zn2 2.110791 1_455
O17 Zn4 2.154744 1_555
