# generated using pymatgen
data_U(N3O7)2
_symmetry_space_group_name_H-M   'P 1'
_cell_length_a   6.66791352
_cell_length_b   8.14877400
_cell_length_c   13.29474021
_cell_angle_alpha   90.00000000
_cell_angle_beta   104.60118300
_cell_angle_gamma   90.00000000
_symmetry_Int_Tables_number   1
_chemical_formula_structural   U(N3O7)2
_chemical_formula_sum   'U2 N12 O28'
_cell_volume   699.04415321
_cell_formula_units_Z   2
loop_
 _symmetry_equiv_pos_site_id
 _symmetry_equiv_pos_as_xyz
  1  'x, y, z'
loop_
 _atom_site_type_symbol
 _atom_site_label
 _atom_site_symmetry_multiplicity
 _atom_site_fract_x
 _atom_site_fract_y
 _atom_site_fract_z
 _atom_site_occupancy
  U  U0  1  0.50000000  0.50000000  0.50000000  1
  U  U1  1  0.00000000  0.00000000  0.00000000  1
  N  N0  1  0.34260700  0.99951600  0.65731500  1
  N  N1  1  0.15739300  0.49951600  0.84268500  1
  N  N2  1  0.65739300  0.00048400  0.34268500  1
  N  N3  1  0.84260700  0.50048400  0.15731500  1
  N  N4  1  0.19900100  0.73667000  0.37250600  1
  N  N5  1  0.30099900  0.23667000  0.12749400  1
  N  N6  1  0.80099900  0.26333000  0.62749400  1
  N  N7  1  0.69900100  0.76333000  0.87250600  1
  N  N8  1  0.88185200  0.77553100  0.60956600  1
  N  N9  1  0.61814800  0.27553100  0.89043400  1
  N  N10  1  0.11814800  0.22446900  0.39043400  1
  N  N11  1  0.38185200  0.72446900  0.10956600  1
  O  O0  1  0.33376100  0.49412300  0.58658300  1
  O  O1  1  0.16623900  0.99412300  0.91341700  1
  O  O2  1  0.66623900  0.50587700  0.41341700  1
  O  O3  1  0.83376100  0.00587700  0.08658300  1
  O  O4  1  0.69542600  0.72866000  0.60344000  1
  O  O5  1  0.80457400  0.22866000  0.89656000  1
  O  O6  1  0.30457400  0.27134000  0.39656000  1
  O  O7  1  0.19542600  0.77134000  0.10344000  1
  O  O8  1  0.17975900  0.58022900  0.35889600  1
  O  O9  1  0.32024100  0.08022800  0.14110400  1
  O  O10  1  0.82024100  0.41977200  0.64110400  1
  O  O11  1  0.67975900  0.91977100  0.85889600  1
  O  O12  1  0.36219500  0.78092600  0.44206700  1
  O  O13  1  0.13780500  0.28092600  0.05793300  1
  O  O14  1  0.63780500  0.21907400  0.55793300  1
  O  O15  1  0.86219500  0.71907400  0.94206700  1
  O  O16  1  0.07333400  0.83493600  0.32334500  1
  O  O17  1  0.42666600  0.33493700  0.17665500  1
  O  O18  1  0.92666600  0.16506400  0.67665500  1
  O  O19  1  0.57333400  0.66506400  0.82334500  1
  O  O20  1  0.00652600  0.77644800  0.69646100  1
  O  O21  1  0.49347400  0.27644800  0.80353900  1
  O  O22  1  0.99347400  0.22355200  0.30353900  1
  O  O23  1  0.50652600  0.72355200  0.19646100  1
  O  O24  1  0.93266000  0.82124600  0.53046900  1
  O  O25  1  0.56734000  0.32124600  0.96953100  1
  O  O26  1  0.06734000  0.17875400  0.46953100  1
  O  O27  1  0.43266000  0.67875400  0.03046900  1
loop_
_geom_bond_atom_site_label_1
_geom_bond_atom_site_label_2
_geom_bond_distance
_geom_bond_site_symmetry_2
N4 O16 1.222451 1_555
N4 O12 1.289198 1_555
N4 O8 1.289425 1_555
N5 O17 1.222456 1_555
N5 O13 1.289198 1_555
N5 O9 1.289434 1_555
N6 O18 1.222451 1_555
N6 O14 1.289198 1_555
N6 O10 1.289434 1_555
N7 O19 1.222451 1_555
N7 O15 1.289198 1_555
N7 O11 1.289425 1_555
N8 O24 1.240553 1_555
N8 O20 1.241586 1_655
N8 O4 1.283237 1_555
N9 O25 1.240553 1_555
N9 O21 1.241586 1_555
N9 O5 1.283237 1_555
N10 O26 1.240553 1_555
N10 O22 1.241586 1_455
N10 O6 1.283237 1_555
N11 O27 1.240553 1_555
N11 O23 1.241586 1_555
N11 O7 1.283237 1_555
O0 U0 1.788667 1_555
O1 U1 1.788667 1_566
O2 U0 1.788667 1_555
O3 U1 1.788667 1_655
O4 U0 2.481454 1_555
O5 U1 2.481454 1_656
O6 U0 2.481454 1_555
O7 U1 2.481454 1_565
O8 U0 2.546884 1_555
O9 U1 2.546882 1_555
O10 U0 2.546882 1_555
O11 U1 2.546884 1_666
O12 U0 2.514194 1_555
O13 U1 2.514194 1_555
O14 U0 2.514194 1_555
O15 U1 2.514194 1_666
