# generated using pymatgen
data_CrB2W
_symmetry_space_group_name_H-M   'P 1'
_cell_length_a   4.36006055
_cell_length_b   4.36006055
_cell_length_c   3.00149233
_cell_angle_alpha   90.00000000
_cell_angle_beta   90.00000000
_cell_angle_gamma   138.94429406
_symmetry_Int_Tables_number   1
_chemical_formula_structural   CrB2W
_chemical_formula_sum   'Cr1 B2 W1'
_cell_volume   37.47576053
_cell_formula_units_Z   1
loop_
 _symmetry_equiv_pos_site_id
 _symmetry_equiv_pos_as_xyz
  1  'x, y, z'
loop_
 _atom_site_type_symbol
 _atom_site_label
 _atom_site_symmetry_multiplicity
 _atom_site_fract_x
 _atom_site_fract_y
 _atom_site_fract_z
 _atom_site_occupancy
  Cr  Cr0  1  0.85879509  0.14120491  0.00000000  1
  B  B0  1  0.43447325  0.56552675  0.50000000  1
  B  B1  1  0.55803939  0.44196061  -0.00000000  1
  W  W0  1  0.14869327  0.85130673  0.50000000  1
loop_
_geom_bond_atom_site_label_1
_geom_bond_atom_site_label_2
_geom_bond_distance
_geom_bond_site_symmetry_2
Cr0 W0 2.744758 1_545
Cr0 W0 2.744758 1_544
Cr0 W0 2.744758 1_655
Cr0 W0 2.744758 1_654
B0 B1 1.808454 1_555
B0 B1 1.808454 1_556
B0 Cr0 2.229743 1_566
B0 Cr0 2.229743 1_565
B0 Cr0 2.229743 1_455
B0 Cr0 2.229743 1_456
B0 W0 2.323359 1_545
B0 W0 2.323359 1_655
B0 W0 2.333796 1_555
B1 Cr0 2.232724 1_565
B1 Cr0 2.232724 1_455
B1 W0 2.266688 1_655
B1 W0 2.266688 1_545
B1 W0 2.266688 1_544
B1 W0 2.266688 1_654
B1 Cr0 2.456094 1_555
