# generated using pymatgen
data_LiNpRh2
_symmetry_space_group_name_H-M   'P 1'
_cell_length_a   4.52370025
_cell_length_b   4.52370025
_cell_length_c   4.52370025
_cell_angle_alpha   60.00000000
_cell_angle_beta   60.00000000
_cell_angle_gamma   60.00000000
_symmetry_Int_Tables_number   1
_chemical_formula_structural   LiNpRh2
_chemical_formula_sum   'Li1 Np1 Rh2'
_cell_volume   65.45856205
_cell_formula_units_Z   1
loop_
 _symmetry_equiv_pos_site_id
 _symmetry_equiv_pos_as_xyz
  1  'x, y, z'
loop_
 _atom_site_type_symbol
 _atom_site_label
 _atom_site_symmetry_multiplicity
 _atom_site_fract_x
 _atom_site_fract_y
 _atom_site_fract_z
 _atom_site_occupancy
  Li  Li0  1  0.50000000  0.50000000  0.50000000  1
  Np  Np0  1  -0.00000000  0.00000000  0.00000000  1
  Rh  Rh0  1  0.25000000  0.25000000  0.25000000  1
  Rh  Rh1  1  0.75000000  0.75000000  0.75000000  1
loop_
_geom_bond_atom_site_label_1
_geom_bond_atom_site_label_2
_geom_bond_distance
_geom_bond_site_symmetry_2
Li0 Rh0 2.770189 1_555
Li0 Rh0 2.770189 1_556
Li0 Rh0 2.770189 1_565
Li0 Rh1 2.770189 1_554
Li0 Rh1 2.770189 1_455
Li0 Rh1 2.770189 1_555
Li0 Rh0 2.770189 1_655
Li0 Rh1 2.770189 1_545
Np0 Rh0 2.770189 1_555
Np0 Rh0 2.770189 1_554
Np0 Rh1 2.770189 1_445
Np0 Rh1 2.770189 1_444
Np0 Rh1 2.770189 1_544
Np0 Rh0 2.770189 1_455
Np0 Rh1 2.770189 1_454
Np0 Rh0 2.770189 1_545
