# generated using pymatgen
data_CeNi2B3
_symmetry_space_group_name_H-M   'P 1'
_cell_length_a   7.21787415
_cell_length_b   7.21787415
_cell_length_c   7.21787415
_cell_angle_alpha   116.12476048
_cell_angle_beta   116.12476048
_cell_angle_gamma   96.85433530
_symmetry_Int_Tables_number   1
_chemical_formula_structural   CeNi2B3
_chemical_formula_sum   'Ce4 Ni8 B12'
_cell_volume   279.30574359
_cell_formula_units_Z   4
loop_
 _symmetry_equiv_pos_site_id
 _symmetry_equiv_pos_as_xyz
  1  'x, y, z'
loop_
 _atom_site_type_symbol
 _atom_site_label
 _atom_site_symmetry_multiplicity
 _atom_site_fract_x
 _atom_site_fract_y
 _atom_site_fract_z
 _atom_site_occupancy
  Ce  Ce0  1  0.74154000  0.24154000  0.50000000  1
  Ce  Ce1  1  0.24154000  0.74154000  0.50000000  1
  Ce  Ce2  1  0.18372600  0.18372600  0.00000000  1
  Ce  Ce3  1  0.80225500  0.80225500  0.00000000  1
  Ni  Ni0  1  0.51921900  0.74580400  0.22658600  1
  Ni  Ni1  1  0.51921900  0.29263300  0.77341400  1
  Ni  Ni2  1  0.29263300  0.51921900  0.77341400  1
  Ni  Ni3  1  0.74580400  0.51921900  0.22658600  1
  Ni  Ni4  1  0.10874700  0.10874700  0.54547200  1
  Ni  Ni5  1  0.56327500  0.56327500  0.45452800  1
  Ni  Ni6  1  0.56327500  0.10874700  0.00000000  1
  Ni  Ni7  1  0.10874700  0.56327500  0.00000000  1
  B  B0  1  0.89885100  0.73522800  0.61752600  1
  B  B1  1  0.11770200  0.28132500  0.38247400  1
  B  B2  1  0.11770200  0.73522800  0.83637700  1
  B  B3  1  0.89885100  0.28132500  0.16362300  1
  B  B4  1  0.28132500  0.89885100  0.16362300  1
  B  B5  1  0.73522800  0.11770200  0.83637700  1
  B  B6  1  0.73522800  0.89885100  0.61752600  1
  B  B7  1  0.28132500  0.11770200  0.38247400  1
  B  B8  1  0.86426900  0.86426900  0.45663300  1
  B  B9  1  0.40763500  0.40763500  0.54336700  1
  B  B10  1  0.40763500  0.86426900  0.00000000  1
  B  B11  1  0.86426900  0.40763500  0.00000000  1
loop_
_geom_bond_atom_site_label_1
_geom_bond_atom_site_label_2
_geom_bond_distance
_geom_bond_site_symmetry_2
Ce0 Ni5 2.858084 1_555
Ce0 Ni4 2.858084 1_655
Ce0 Ni7 2.858084 1_656
Ce0 Ni6 2.858084 1_555
Ce0 Ni1 2.982410 1_555
Ce0 Ni0 2.982416 1_545
Ce1 Ni5 2.858084 1_555
Ce1 Ni7 2.858084 1_555
Ce1 Ni4 2.858084 1_565
Ce1 Ni6 2.858084 1_566
Ce1 Ni2 2.982410 1_555
Ce1 Ni3 2.982416 1_455
Ce2 Ni6 2.855142 1_555
Ce2 Ni7 2.855142 1_555
Ce2 Ni5 2.855142 1_555
Ce2 Ni4 2.855142 1_554
Ce3 Ni4 2.963127 1_665
Ce3 Ni5 2.963127 1_554
Ce3 Ni6 2.963127 1_565
Ce3 Ni7 2.963127 1_655
Ce3 Ni1 3.216338 1_554
Ce3 Ni2 3.216338 1_554
Ce3 Ni3 3.216340 1_555
Ce3 Ni0 3.216340 1_555
Ni0 Ni5 2.468171 1_555
Ni0 Ni7 2.468176 1_555
Ni1 Ni6 2.468177 1_556
Ni1 Ni4 2.468177 1_555
Ni2 Ni7 2.468177 1_556
Ni2 Ni4 2.468177 1_555
Ni3 Ni5 2.468171 1_555
Ni3 Ni6 2.468176 1_555
B0 B2 1.671244 1_655
B0 B8 1.741038 1_555
B0 B6 1.767058 1_555
B0 Ni5 2.068409 1_555
B0 Ni3 2.140761 1_555
B0 Ce2 2.805459 1_666
B0 Ce1 2.948687 1_655
B0 Ce3 2.990107 1_556
B0 Ce0 3.198515 1_555
B1 B3 1.671244 1_455
B1 B9 1.741031 1_555
B1 B7 1.767058 1_555
B1 Ni4 2.068409 1_555
B1 Ni2 2.140762 1_555
B1 Ce2 2.805459 1_555
B1 Ce1 2.948687 1_555
B1 Ce3 2.990107 1_445
B1 Ce0 3.198515 1_455
B2 B4 1.767058 1_556
B2 Ni7 2.068409 1_556
B2 Ni2 2.140762 1_555
B2 Ce2 2.805459 1_566
B2 Ce1 2.948687 1_555
B2 Ce3 2.990107 1_456
B2 Ce0 3.198515 1_455
B3 B5 1.767058 1_554
B3 Ni6 2.068409 1_555
B3 Ni3 2.140768 1_555
B3 Ce2 2.805459 1_655
B3 Ce1 2.948687 1_655
B3 Ce3 2.990107 1_545
B3 Ce0 3.198515 1_555
B4 B7 1.671244 1_565
B4 Ni7 2.068409 1_555
B4 Ni0 2.140768 1_555
B4 Ce2 2.805459 1_565
B4 Ce0 2.948687 1_565
B4 Ce3 2.990107 1_455
B4 Ce1 3.198515 1_555
B5 B6 1.671244 1_545
B5 Ni6 2.068409 1_556
B5 Ni1 2.140762 1_555
B5 Ce2 2.805459 1_656
B5 Ce0 2.948687 1_555
B5 Ce3 2.990107 1_546
B5 Ce1 3.198515 1_545
B6 B8 1.741038 1_555
B6 Ni5 2.068409 1_555
B6 Ni0 2.140761 1_555
B6 Ce2 2.805459 1_666
B6 Ce0 2.948687 1_565
B6 Ce3 2.990107 1_556
B6 Ce1 3.198515 1_555
B7 B9 1.741031 1_555
B7 Ni4 2.068409 1_555
B7 Ni1 2.140762 1_555
B7 Ce2 2.805459 1_555
B7 Ce0 2.948687 1_555
B7 Ce3 2.990107 1_445
B7 Ce1 3.198515 1_545
B8 Ni4 1.975519 1_665
B8 Ni0 2.071340 1_555
B8 Ni3 2.071340 1_555
B8 Ce1 2.892622 1_655
B8 Ce0 2.892622 1_565
B8 Ce3 2.935565 1_555
B8 Ce2 2.969539 1_666
B9 Ni5 1.975529 1_555
B9 Ni2 2.071335 1_555
B9 Ni1 2.071335 1_555
B9 Ce1 2.892625 1_555
B9 Ce0 2.892625 1_555
B9 Ce3 2.935570 1_556
B9 Ce2 2.969540 1_555
B10 B2 1.741032 1_554
B10 B4 1.741032 1_555
B10 Ni6 1.975523 1_565
B10 Ni2 2.071341 1_554
B10 Ni0 2.071347 1_555
B10 Ce1 2.892623 1_554
B10 Ce0 2.892623 1_565
B10 Ce3 2.935572 1_555
B10 Ce2 2.969534 1_565
B11 B5 1.741032 1_554
B11 B3 1.741032 1_555
B11 Ni7 1.975523 1_655
B11 Ni1 2.071341 1_554
B11 Ni3 2.071347 1_555
B11 Ce1 2.892623 1_655
B11 Ce0 2.892623 1_554
B11 Ce3 2.935572 1_555
B11 Ce2 2.969534 1_655
