# generated using pymatgen
data_Mn3HgN
_symmetry_space_group_name_H-M   'P 1'
_cell_length_a   4.04462100
_cell_length_b   4.04462100
_cell_length_c   4.04462100
_cell_angle_alpha   90.00000000
_cell_angle_beta   90.00000000
_cell_angle_gamma   90.00000000
_symmetry_Int_Tables_number   1
_chemical_formula_structural   Mn3HgN
_chemical_formula_sum   'Mn3 Hg1 N1'
_cell_volume   66.16578925
_cell_formula_units_Z   1
loop_
 _symmetry_equiv_pos_site_id
 _symmetry_equiv_pos_as_xyz
  1  'x, y, z'
loop_
 _atom_site_type_symbol
 _atom_site_label
 _atom_site_symmetry_multiplicity
 _atom_site_fract_x
 _atom_site_fract_y
 _atom_site_fract_z
 _atom_site_occupancy
  Mn  Mn0  1  0.50000000  0.00000000  0.00000000  1
  Mn  Mn1  1  0.00000000  0.50000000  0.00000000  1
  Mn  Mn2  1  0.00000000  0.00000000  0.50000000  1
  Hg  Hg0  1  0.50000000  0.50000000  0.50000000  1
  N  N0  1  0.00000000  0.00000000  0.00000000  1
loop_
_geom_bond_atom_site_label_1
_geom_bond_atom_site_label_2
_geom_bond_distance
_geom_bond_site_symmetry_2
Mn0 N0 2.022311 1_655
Mn0 N0 2.022311 1_555
Mn1 N0 2.022311 1_565
Mn1 N0 2.022311 1_555
Mn2 N0 2.022311 1_556
Mn2 N0 2.022311 1_555
Hg0 Mn0 2.859979 1_556
Hg0 Mn2 2.859979 1_655
Hg0 Mn2 2.859979 1_565
Hg0 Mn1 2.859979 1_656
Hg0 Mn2 2.859979 1_665
Hg0 Mn1 2.859979 1_556
Hg0 Mn1 2.859979 1_655
Hg0 Mn0 2.859979 1_565
Hg0 Mn1 2.859979 1_555
Hg0 Mn0 2.859979 1_566
Hg0 Mn2 2.859979 1_555
Hg0 Mn0 2.859979 1_555
