# generated using pymatgen
data_Rb2NaPdF6
_symmetry_space_group_name_H-M   'P 1'
_cell_length_a   6.23310095
_cell_length_b   6.23310095
_cell_length_c   6.23310095
_cell_angle_alpha   121.42017856
_cell_angle_beta   121.42017856
_cell_angle_gamma   87.55729048
_symmetry_Int_Tables_number   1
_chemical_formula_structural   Rb2NaPdF6
_chemical_formula_sum   'Rb2 Na1 Pd1 F6'
_cell_volume   167.39587822
_cell_formula_units_Z   1
loop_
 _symmetry_equiv_pos_site_id
 _symmetry_equiv_pos_as_xyz
  1  'x, y, z'
loop_
 _atom_site_type_symbol
 _atom_site_label
 _atom_site_symmetry_multiplicity
 _atom_site_fract_x
 _atom_site_fract_y
 _atom_site_fract_z
 _atom_site_occupancy
  Rb  Rb0  1  0.75000000  0.25000000  0.50000000  1
  Rb  Rb1  1  0.25000000  0.75000000  0.50000000  1
  Na  Na0  1  0.50000000  0.50000000  0.00000000  1
  Pd  Pd0  1  0.00000000  0.00000000  0.00000000  1
  F  F0  1  0.23152600  0.23152600  0.46305200  1
  F  F1  1  0.76847400  0.76847400  0.53694800  1
  F  F2  1  0.23152600  0.76847400  0.00000000  1
  F  F3  1  0.76847400  0.23152600  0.00000000  1
  F  F4  1  0.24614900  0.24614900  0.00000000  1
  F  F5  1  0.75385100  0.75385100  0.00000000  1
loop_
_geom_bond_atom_site_label_1
_geom_bond_atom_site_label_2
_geom_bond_distance
_geom_bond_site_symmetry_2
F0 Pd0 1.996922 1_555
F0 Na0 2.315600 1_556
F0 Rb1 3.120621 1_545
F0 Rb0 3.120621 1_455
F0 Rb0 3.120621 1_555
F0 Rb1 3.120621 1_555
F1 Pd0 1.996922 1_666
F1 Na0 2.315600 1_555
F1 Rb1 3.120621 1_555
F1 Rb0 3.120621 1_555
F1 Rb0 3.120621 1_565
F1 Rb1 3.120621 1_655
F2 Pd0 1.996922 1_565
F2 Na0 2.315600 1_555
F2 Rb1 3.120621 1_555
F2 Rb0 3.120621 1_454
F2 Rb1 3.120621 1_554
F2 Rb0 3.120621 1_565
F3 Pd0 1.996922 1_655
F3 Na0 2.315600 1_555
F3 Rb1 3.120621 1_544
F3 Rb0 3.120621 1_555
F3 Rb0 3.120621 1_554
F3 Rb1 3.120621 1_655
F4 Pd0 2.215544 1_555
F4 Na0 2.284868 1_555
F4 Rb1 3.049610 1_555
F4 Rb0 3.049610 1_454
F4 Rb1 3.049610 1_544
F4 Rb0 3.049610 1_555
F5 Pd0 2.215544 1_665
F5 Na0 2.284868 1_555
F5 Rb0 3.049610 1_565
F5 Rb0 3.049610 1_554
F5 Rb1 3.049610 1_554
F5 Rb1 3.049610 1_655
