# generated using pymatgen
data_BaCa2Y6O12
_symmetry_space_group_name_H-M   'P 1'
_cell_length_a   3.40999700
_cell_length_b   10.32268869
_cell_length_c   10.32267527
_cell_angle_alpha   120.00007037
_cell_angle_beta   90.00000000
_cell_angle_gamma   90.00000000
_symmetry_Int_Tables_number   1
_chemical_formula_structural   BaCa2Y6O12
_chemical_formula_sum   'Ba1 Ca2 Y6 O12'
_cell_volume   314.68019917
_cell_formula_units_Z   1
loop_
 _symmetry_equiv_pos_site_id
 _symmetry_equiv_pos_as_xyz
  1  'x, y, z'
loop_
 _atom_site_type_symbol
 _atom_site_label
 _atom_site_symmetry_multiplicity
 _atom_site_fract_x
 _atom_site_fract_y
 _atom_site_fract_z
 _atom_site_occupancy
  Ba  Ba0  1  0.75000000  0.00000600  0.00000300  1
  Ca  Ca0  1  0.75000000  0.66667200  0.33333600  1
  Ca  Ca1  1  0.25000000  0.33333100  0.66666500  1
  Y  Y0  1  0.75000000  0.34953100  0.00123300  1
  Y  Y1  1  0.75000000  0.99877100  0.34829700  1
  Y  Y2  1  0.75000000  0.65170000  0.65047100  1
  Y  Y3  1  0.25000000  0.65317200  0.99898300  1
  Y  Y4  1  0.25000000  0.00101500  0.65418900  1
  Y  Y5  1  0.25000000  0.34581400  0.34682800  1
  O  O0  1  0.75000000  0.88950500  0.69637100  1
  O  O1  1  0.75000000  0.30363500  0.19313800  1
  O  O2  1  0.75000000  0.80686800  0.11049600  1
  O  O3  1  0.25000000  0.09912800  0.28118800  1
  O  O4  1  0.25000000  0.71879700  0.81793100  1
  O  O5  1  0.25000000  0.18206000  0.90087300  1
  O  O6  1  0.75000000  0.13628000  0.60777600  1
  O  O7  1  0.75000000  0.39222100  0.52850400  1
  O  O8  1  0.75000000  0.47149500  0.86372300  1
  O  O9  1  0.25000000  0.86746600  0.39510800  1
  O  O10  1  0.25000000  0.60489300  0.47235900  1
  O  O11  1  0.25000000  0.52764200  0.13253100  1
loop_
_geom_bond_atom_site_label_1
_geom_bond_atom_site_label_2
_geom_bond_distance
_geom_bond_site_symmetry_2
Ba0 O1 2.747662 1_555
Ba0 O0 2.747677 1_544
Ba0 O2 2.747685 1_545
Ba0 O5 3.067394 1_654
Ba0 O5 3.067394 1_554
Ba0 O3 3.067410 1_555
Ba0 O3 3.067410 1_655
Ba0 O4 3.067583 1_544
Ba0 O4 3.067583 1_644
Ca0 O9 2.507620 1_655
Ca0 O9 2.507620 1_555
Ca0 O10 2.507666 1_555
Ca0 O10 2.507666 1_655
Ca0 O11 2.507693 1_555
Ca0 O11 2.507693 1_655
Ca1 O7 2.485473 1_455
Ca1 O7 2.485473 1_555
Ca1 O6 2.485475 1_555
Ca1 O6 2.485475 1_455
Ca1 O8 2.485515 1_455
Ca1 O8 2.485515 1_555
O0 Y4 2.218745 1_565
O0 Y4 2.218745 1_665
O0 Y2 2.255520 1_555
O1 Y5 2.218736 1_655
O1 Y5 2.218736 1_555
O1 Y0 2.255491 1_555
O2 Y3 2.218768 1_554
O2 Y3 2.218768 1_654
O2 Y1 2.255482 1_555
O3 Y1 2.275471 1_445
O3 Y1 2.275471 1_545
O3 Y5 2.284327 1_555
O4 Y2 2.275441 1_555
O4 Y2 2.275441 1_455
O4 Y3 2.284277 1_555
O5 Y0 2.275500 1_456
O5 Y0 2.275500 1_556
O5 Y4 2.284306 1_555
O6 Y1 2.321049 1_545
O6 Y4 2.398998 1_555
O6 Y4 2.398998 1_655
O7 Y2 2.321053 1_555
O7 Y5 2.398993 1_555
O7 Y5 2.398993 1_655
O8 Y0 2.321009 1_556
O8 Y3 2.398981 1_555
O8 Y3 2.398981 1_655
O9 Y4 2.316474 1_565
O9 Y1 2.373319 1_555
O9 Y1 2.373319 1_455
O10 Y5 2.316459 1_555
O10 Y2 2.373297 1_555
O10 Y2 2.373297 1_455
O11 Y3 2.316451 1_554
O11 Y0 2.373279 1_455
O11 Y0 2.373279 1_555
