# generated using pymatgen
data_Cd2RhAu
_symmetry_space_group_name_H-M   'P 1'
_cell_length_a   10.90847428
_cell_length_b   10.90847428
_cell_length_c   10.90847428
_cell_angle_alpha   121.49740233
_cell_angle_beta   119.49992063
_cell_angle_gamma   89.14727774
_symmetry_Int_Tables_number   1
_chemical_formula_structural   Cd2RhAu
_chemical_formula_sum   'Cd2 Rh1 Au1'
_cell_volume   910.48129557
_cell_formula_units_Z   1
loop_
 _symmetry_equiv_pos_site_id
 _symmetry_equiv_pos_as_xyz
  1  'x, y, z'
loop_
 _atom_site_type_symbol
 _atom_site_label
 _atom_site_symmetry_multiplicity
 _atom_site_fract_x
 _atom_site_fract_y
 _atom_site_fract_z
 _atom_site_occupancy
  Cd  Cd0  1  0.00000000  0.24873100  0.24873100  1
  Cd  Cd1  1  0.00000000  0.75126900  0.75126900  1
  Rh  Rh0  1  0.00000000  0.00000000  0.00000000  1
  Au  Au0  1  0.00000000  0.50000000  0.50000000  1
loop_
_geom_bond_atom_site_label_1
_geom_bond_atom_site_label_2
_geom_bond_distance
_geom_bond_site_symmetry_2
Cd0 Rh0 2.651636 1_555
Cd1 Rh0 2.651636 1_566
Au0 Cd0 2.678692 1_555
Au0 Cd1 2.678692 1_555
