# generated using pymatgen
data_AlS2NO20
_symmetry_space_group_name_H-M   'P 1'
_cell_length_a   11.48642900
_cell_length_b   11.48642900
_cell_length_c   11.48642900
_cell_angle_alpha   90.00000000
_cell_angle_beta   90.00000000
_cell_angle_gamma   90.00000000
_symmetry_Int_Tables_number   1
_chemical_formula_structural   AlS2NO20
_chemical_formula_sum   'Al4 S8 N4 O80'
_cell_volume   1515.49705719
_cell_formula_units_Z   4
loop_
 _symmetry_equiv_pos_site_id
 _symmetry_equiv_pos_as_xyz
  1  'x, y, z'
loop_
 _atom_site_type_symbol
 _atom_site_label
 _atom_site_symmetry_multiplicity
 _atom_site_fract_x
 _atom_site_fract_y
 _atom_site_fract_z
 _atom_site_occupancy
  Al  Al0  1  0.50000000  0.50000000  0.00000000  1
  Al  Al1  1  0.50000000  0.00000000  0.50000000  1
  Al  Al2  1  0.00000000  0.50000000  0.50000000  1
  Al  Al3  1  0.00000000  0.00000000  0.00000000  1
  S  S0  1  0.20618200  0.79381800  0.29381800  1
  S  S1  1  0.79381800  0.29381800  0.20618200  1
  S  S2  1  0.29381800  0.20618200  0.79381800  1
  S  S3  1  0.70618200  0.70618200  0.70618200  1
  S  S4  1  0.79381800  0.20618200  0.70618200  1
  S  S5  1  0.20618200  0.70618200  0.79381800  1
  S  S6  1  0.70618200  0.79381800  0.20618200  1
  S  S7  1  0.29381800  0.29381800  0.29381800  1
  N  N0  1  0.00000000  0.00000000  0.50000000  1
  N  N1  1  0.00000000  0.50000000  0.00000000  1
  N  N2  1  0.50000000  0.00000000  0.00000000  1
  N  N3  1  0.50000000  0.50000000  0.50000000  1
  O  O0  1  0.28141900  0.71858100  0.21858100  1
  O  O1  1  0.71858100  0.21858100  0.28141900  1
  O  O2  1  0.21858100  0.28141900  0.71858100  1
  O  O3  1  0.78141900  0.78141900  0.78141900  1
  O  O4  1  0.71858100  0.28141900  0.78141900  1
  O  O5  1  0.28141900  0.78141900  0.71858100  1
  O  O6  1  0.78141900  0.71858100  0.28141900  1
  O  O7  1  0.21858100  0.21858100  0.21858100  1
  O  O8  1  0.08988200  0.80292100  0.23820500  1
  O  O9  1  0.91011800  0.30292100  0.26179500  1
  O  O10  1  0.41011800  0.19707900  0.73820500  1
  O  O11  1  0.58988200  0.69707900  0.76179500  1
  O  O12  1  0.23820500  0.08988200  0.80292100  1
  O  O13  1  0.26179500  0.91011800  0.30292100  1
  O  O14  1  0.73820500  0.41011800  0.19707900  1
  O  O15  1  0.76179500  0.58988200  0.69707900  1
  O  O16  1  0.80292100  0.23820500  0.08988200  1
  O  O17  1  0.30292100  0.26179500  0.91011800  1
  O  O18  1  0.19707900  0.73820500  0.41011800  1
  O  O19  1  0.69707900  0.76179500  0.58988200  1
  O  O20  1  0.91011800  0.19707900  0.76179500  1
  O  O21  1  0.08988200  0.69707900  0.73820500  1
  O  O22  1  0.58988200  0.80292100  0.26179500  1
  O  O23  1  0.41011800  0.30292100  0.23820500  1
  O  O24  1  0.76179500  0.91011800  0.19707900  1
  O  O25  1  0.73820500  0.08988200  0.69707900  1
  O  O26  1  0.26179500  0.58988200  0.80292100  1
  O  O27  1  0.23820500  0.41011800  0.30292100  1
  O  O28  1  0.19707900  0.76179500  0.91011800  1
  O  O29  1  0.69707900  0.73820500  0.08988200  1
  O  O30  1  0.80292100  0.26179500  0.58988200  1
  O  O31  1  0.30292100  0.23820500  0.41011800  1
  O  O32  1  0.25840600  0.51339000  0.08357400  1
  O  O33  1  0.74159400  0.01339000  0.41642600  1
  O  O34  1  0.24159400  0.48661000  0.58357400  1
  O  O35  1  0.75840600  0.98661000  0.91642600  1
  O  O36  1  0.08357400  0.25840600  0.51339000  1
  O  O37  1  0.41642600  0.74159400  0.01339000  1
  O  O38  1  0.58357400  0.24159400  0.48661000  1
  O  O39  1  0.91642600  0.75840600  0.98661000  1
  O  O40  1  0.51339000  0.08357400  0.25840600  1
  O  O41  1  0.01339000  0.41642600  0.74159400  1
  O  O42  1  0.48661000  0.58357400  0.24159400  1
  O  O43  1  0.98661000  0.91642600  0.75840600  1
  O  O44  1  0.74159400  0.48661000  0.91642600  1
  O  O45  1  0.25840600  0.98661000  0.58357400  1
  O  O46  1  0.75840600  0.51339000  0.41642600  1
  O  O47  1  0.24159400  0.01339000  0.08357400  1
  O  O48  1  0.91642600  0.74159400  0.48661000  1
  O  O49  1  0.58357400  0.25840600  0.98661000  1
  O  O50  1  0.41642600  0.75840600  0.51339000  1
  O  O51  1  0.08357400  0.24159400  0.01339000  1
  O  O52  1  0.48661000  0.91642600  0.74159400  1
  O  O53  1  0.98661000  0.58357400  0.25840600  1
  O  O54  1  0.51339000  0.41642600  0.75840600  1
  O  O55  1  0.01339000  0.08357400  0.24159400  1
  O  O56  1  0.33173300  0.48065100  0.00912500  1
  O  O57  1  0.66826700  0.98065100  0.49087500  1
  O  O58  1  0.16826700  0.51934900  0.50912500  1
  O  O59  1  0.83173300  0.01934900  0.99087500  1
  O  O60  1  0.00912500  0.33173300  0.48065100  1
  O  O61  1  0.49087500  0.66826700  0.98065100  1
  O  O62  1  0.50912500  0.16826700  0.51934900  1
  O  O63  1  0.99087500  0.83173300  0.01934900  1
  O  O64  1  0.48065100  0.00912500  0.33173300  1
  O  O65  1  0.98065100  0.49087500  0.66826700  1
  O  O66  1  0.51934900  0.50912500  0.16826700  1
  O  O67  1  0.01934900  0.99087500  0.83173300  1
  O  O68  1  0.66826700  0.51934900  0.99087500  1
  O  O69  1  0.33173300  0.01934900  0.50912500  1
  O  O70  1  0.83173300  0.48065100  0.49087500  1
  O  O71  1  0.16826700  0.98065100  0.00912500  1
  O  O72  1  0.99087500  0.66826700  0.51934900  1
  O  O73  1  0.50912500  0.33173300  0.01934900  1
  O  O74  1  0.49087500  0.83173300  0.48065100  1
  O  O75  1  0.00912500  0.16826700  0.98065100  1
  O  O76  1  0.51934900  0.99087500  0.66826700  1
  O  O77  1  0.01934900  0.50912500  0.33173300  1
  O  O78  1  0.48065100  0.49087500  0.83173300  1
  O  O79  1  0.98065100  0.00912500  0.16826700  1
loop_
_geom_bond_atom_site_label_1
_geom_bond_atom_site_label_2
_geom_bond_distance
_geom_bond_site_symmetry_2
Al0 O68 1.948345 1_554
Al0 O61 1.948345 1_554
Al0 O73 1.948345 1_555
Al0 O66 1.948345 1_555
Al0 O56 1.948345 1_555
Al0 O78 1.948345 1_554
Al1 O76 1.948345 1_545
Al1 O57 1.948345 1_545
Al1 O69 1.948345 1_555
Al1 O62 1.948345 1_555
Al1 O64 1.948345 1_555
Al1 O74 1.948345 1_545
Al2 O72 1.948345 1_455
Al2 O65 1.948345 1_455
Al2 O77 1.948345 1_555
Al2 O58 1.948345 1_555
Al2 O60 1.948345 1_555
Al2 O70 1.948345 1_455
Al3 O67 1.948345 1_544
Al3 O63 1.948345 1_445
Al3 O59 1.948345 1_454
Al3 O71 1.948345 1_545
Al3 O75 1.948345 1_554
Al3 O79 1.948345 1_455
O0 S0 1.496846 1_555
O1 S1 1.496846 1_555
O2 S2 1.496846 1_555
O3 S3 1.496846 1_555
O4 S4 1.496846 1_555
O5 S5 1.496846 1_555
O6 S6 1.496846 1_555
O7 S7 1.496846 1_555
O8 S0 1.484434 1_555
O9 S1 1.484434 1_555
O10 S2 1.484434 1_555
O11 S3 1.484434 1_555
O12 S2 1.484434 1_555
O13 S0 1.484434 1_555
O14 S1 1.484434 1_555
O15 S3 1.484434 1_555
O16 S1 1.484434 1_555
O17 S2 1.484434 1_555
O18 S0 1.484434 1_555
O19 S3 1.484434 1_555
O20 S4 1.484434 1_555
O21 S5 1.484434 1_555
O22 S6 1.484434 1_555
O23 S7 1.484434 1_555
O24 S6 1.484434 1_555
O25 S4 1.484434 1_555
O26 S5 1.484434 1_555
O27 S7 1.484434 1_555
O28 S5 1.484434 1_555
O29 S6 1.484434 1_555
O30 S4 1.484434 1_555
O31 S7 1.484434 1_555
O32 O56 1.257821 1_555
O33 O57 1.257821 1_545
O34 O58 1.257821 1_555
O35 O59 1.257821 1_565
O36 O60 1.257821 1_555
O37 O61 1.257821 1_554
O38 O62 1.257821 1_555
O39 O63 1.257821 1_556
O40 O64 1.257821 1_555
O41 O65 1.257821 1_455
O42 O66 1.257821 1_555
O43 O67 1.257821 1_655
O44 O68 1.257821 1_555
O45 O69 1.257821 1_565
O46 O70 1.257821 1_555
O47 O71 1.257821 1_545
O48 O72 1.257821 1_555
O49 O73 1.257821 1_556
O50 O74 1.257821 1_555
O51 O75 1.257821 1_554
O52 O76 1.257821 1_555
O53 O77 1.257821 1_655
O54 O78 1.257821 1_555
O55 O79 1.257821 1_455
