# generated using pymatgen
data_CaCoF5
_symmetry_space_group_name_H-M   'P 1'
_cell_length_a   5.59296068
_cell_length_b   5.59296068
_cell_length_c   7.66059538
_cell_angle_alpha   69.71493316
_cell_angle_beta   69.71493316
_cell_angle_gamma   71.66869343
_symmetry_Int_Tables_number   1
_chemical_formula_structural   CaCoF5
_chemical_formula_sum   'Ca2 Co2 F10'
_cell_volume   205.62360624
_cell_formula_units_Z   2
loop_
 _symmetry_equiv_pos_site_id
 _symmetry_equiv_pos_as_xyz
  1  'x, y, z'
loop_
 _atom_site_type_symbol
 _atom_site_label
 _atom_site_symmetry_multiplicity
 _atom_site_fract_x
 _atom_site_fract_y
 _atom_site_fract_z
 _atom_site_occupancy
  Ca  Ca0  1  0.54637800  0.45362200  0.75000000  1
  Ca  Ca1  1  0.45362200  0.54637800  0.25000000  1
  Co  Co0  1  0.00000000  0.00000000  0.50000000  1
  Co  Co1  1  0.00000000  0.00000000  0.00000000  1
  F  F0  1  0.09218900  0.90781100  0.25000000  1
  F  F1  1  0.90781100  0.09218900  0.75000000  1
  F  F2  1  0.75784900  0.79469000  0.11646400  1
  F  F3  1  0.20531000  0.24215100  0.38353600  1
  F  F4  1  0.69893200  0.28740500  0.46586400  1
  F  F5  1  0.71259500  0.30106800  0.03413600  1
  F  F6  1  0.30106800  0.71259500  0.53413600  1
  F  F7  1  0.28740500  0.69893200  0.96586400  1
  F  F8  1  0.79469000  0.75784900  0.61646400  1
  F  F9  1  0.24215100  0.20531000  0.88353600  1
loop_
_geom_bond_atom_site_label_1
_geom_bond_atom_site_label_2
_geom_bond_distance
_geom_bond_site_symmetry_2
Ca0 F9 2.272634 1_555
Ca0 F8 2.272634 1_555
Ca0 F7 2.318889 1_555
Ca0 F6 2.318889 1_555
Ca0 F1 2.366926 1_555
Ca0 F5 2.438532 1_556
Ca0 F4 2.438532 1_555
Ca1 F3 2.272634 1_555
Ca1 F2 2.272634 1_555
Ca1 F5 2.318889 1_555
Ca1 F4 2.318889 1_555
Ca1 F0 2.366926 1_555
Ca1 F6 2.438532 1_555
Ca1 F7 2.438532 1_554
Co0 F3 1.838166 1_555
Co0 F8 1.838166 1_445
Co0 F4 1.949083 1_455
Co0 F6 1.949083 1_545
Co0 F1 2.008052 1_455
Co0 F0 2.008052 1_545
Co1 F9 1.838166 1_554
Co1 F2 1.838166 1_445
Co1 F7 1.949083 1_544
Co1 F5 1.949083 1_455
Co1 F0 2.008052 1_545
Co1 F1 2.008052 1_454
