# generated using pymatgen
data_CrAgS2
_symmetry_space_group_name_H-M   'P 1'
_cell_length_a   3.54290614
_cell_length_b   8.71667308
_cell_length_c   9.97351946
_cell_angle_alpha   84.39934683
_cell_angle_beta   100.18133536
_cell_angle_gamma   78.23354895
_symmetry_Int_Tables_number   1
_chemical_formula_structural   CrAgS2
_chemical_formula_sum   'Cr4 Ag4 S8'
_cell_volume   293.91714840
_cell_formula_units_Z   4
loop_
 _symmetry_equiv_pos_site_id
 _symmetry_equiv_pos_as_xyz
  1  'x, y, z'
loop_
 _atom_site_type_symbol
 _atom_site_label
 _atom_site_symmetry_multiplicity
 _atom_site_fract_x
 _atom_site_fract_y
 _atom_site_fract_z
 _atom_site_occupancy
  Cr  Cr0  1  0.49690800  0.50279600  0.49570800  1
  Cr  Cr1  1  0.25325600  0.24762200  0.75375400  1
  Cr  Cr2  1  0.99695800  0.00268300  0.99574900  1
  Cr  Cr3  1  0.75321400  0.74756500  0.25370800  1
  Ag  Ag0  1  0.96594100  0.26345800  0.19296800  1
  Ag  Ag1  1  0.70931500  0.02426900  0.44123400  1
  Ag  Ag2  1  0.46591900  0.76350500  0.69295900  1
  Ag  Ag3  1  0.20935900  0.52418100  0.94123600  1
  S  S0  1  0.93436500  0.47204400  0.33850300  1
  S  S1  1  0.68255100  0.22879200  0.59251400  1
  S  S2  1  0.43421600  0.97206600  0.83851500  1
  S  S3  1  0.18249100  0.72872500  0.09245700  1
  S  S4  1  0.56718100  0.02781600  0.16234700  1
  S  S5  1  0.31527900  0.78558400  0.41625000  1
  S  S6  1  0.06716500  0.52790900  0.66233600  1
  S  S7  1  0.81528100  0.28558400  0.91636200  1
loop_
_geom_bond_atom_site_label_1
_geom_bond_atom_site_label_2
_geom_bond_distance
_geom_bond_site_symmetry_2
Cr0 S0 2.386947 1_455
Cr0 S0 2.388282 1_555
Cr0 S1 2.398742 1_555
Cr0 S5 2.430985 1_555
Cr0 S6 2.440489 1_655
Cr0 S6 2.440787 1_555
Cr1 S2 2.383057 1_545
Cr1 S1 2.395553 1_455
Cr1 S1 2.395979 1_555
Cr1 S6 2.435323 1_555
Cr1 S7 2.435657 1_455
Cr1 S7 2.436466 1_555
Cr2 S2 2.387213 1_545
Cr2 S2 2.387934 1_645
Cr2 S3 2.398130 1_646
Cr2 S7 2.431772 1_555
Cr2 S4 2.440296 1_656
Cr2 S4 2.440640 1_556
Cr3 S0 2.382849 1_555
Cr3 S3 2.395685 1_555
Cr3 S3 2.396019 1_655
Cr3 S4 2.434907 1_565
Cr3 S5 2.435068 1_555
Cr3 S5 2.436400 1_655
Ag0 S0 2.432013 1_555
Ag0 S7 2.695609 1_554
Ag0 S4 2.723544 1_655
Ag0 S4 2.731588 1_555
Ag1 S1 2.443428 1_555
Ag1 S5 2.732838 1_645
Ag1 S4 2.733658 1_555
Ag1 S5 2.739058 1_545
Ag2 S2 2.431981 1_555
Ag2 S5 2.696645 1_555
Ag2 S6 2.723321 1_655
Ag2 S6 2.731228 1_555
Ag3 S3 2.443161 1_556
Ag3 S7 2.731941 1_555
Ag3 S6 2.733588 1_555
Ag3 S7 2.738403 1_455
