# generated using pymatgen
data_Zr2CoCuSn2
_symmetry_space_group_name_H-M   'P 1'
_cell_length_a   4.39040309
_cell_length_b   4.39036200
_cell_length_c   6.83584400
_cell_angle_alpha   89.99991894
_cell_angle_beta   89.99745594
_cell_angle_gamma   60.00012779
_symmetry_Int_Tables_number   1
_chemical_formula_structural   Zr2CoCuSn2
_chemical_formula_sum   'Zr2 Co1 Cu1 Sn2'
_cell_volume   114.11114401
_cell_formula_units_Z   1
loop_
 _symmetry_equiv_pos_site_id
 _symmetry_equiv_pos_as_xyz
  1  'x, y, z'
loop_
 _atom_site_type_symbol
 _atom_site_label
 _atom_site_symmetry_multiplicity
 _atom_site_fract_x
 _atom_site_fract_y
 _atom_site_fract_z
 _atom_site_occupancy
  Zr  Zr0  1  0.00001900  0.99999100  0.49688200  1
  Zr  Zr1  1  0.99998600  0.00000500  0.97853800  1
  Co  Co0  1  0.66665700  0.66667000  0.83555600  1
  Cu  Cu0  1  0.33333300  0.33333600  0.32319300  1
  Sn  Sn0  1  0.66665500  0.66667300  0.22605800  1
  Sn  Sn1  1  0.33334900  0.33332500  0.73577400  1
loop_
_geom_bond_atom_site_label_1
_geom_bond_atom_site_label_2
_geom_bond_distance
_geom_bond_site_symmetry_2
Zr0 Zr1 3.292525 1_465
Zr0 Zr1 3.543319 1_464
Co0 Sn1 2.624923 1_565
Co0 Sn1 2.624924 1_555
Co0 Sn1 2.625033 1_655
Co0 Sn0 2.669411 1_556
Co0 Zr1 2.716685 1_465
Co0 Zr1 2.716710 1_555
Co0 Zr1 2.716715 1_565
Co0 Zr0 3.432908 1_645
Co0 Zr0 3.432920 1_655
Co0 Zr0 3.432938 1_555
Cu0 Sn0 2.620268 1_555
Cu0 Sn0 2.620277 1_545
Cu0 Sn0 2.620403 1_455
Cu0 Zr0 2.799008 1_555
Cu0 Zr0 2.799026 1_545
Cu0 Zr0 2.799217 1_645
Cu0 Sn1 2.820339 1_555
Cu0 Zr1 3.460511 1_554
Cu0 Zr1 3.460667 1_464
Cu0 Zr1 3.460701 1_454
Sn0 Zr1 3.047579 1_564
Sn0 Zr1 3.047593 1_554
Sn0 Zr1 3.047720 1_464
Sn0 Zr0 3.138712 1_555
Sn0 Zr0 3.138946 1_645
Sn0 Zr0 3.138955 1_655
Sn1 Zr0 3.015238 1_645
Sn1 Zr0 3.015307 1_555
Sn1 Zr0 3.015310 1_545
Sn1 Zr1 3.029688 1_555
Sn1 Zr1 3.029702 1_465
Sn1 Zr1 3.029714 1_455
