# generated using pymatgen
data_Li3Mn3TeO8
_symmetry_space_group_name_H-M   'P 1'
_cell_length_a   6.13864151
_cell_length_b   6.26192375
_cell_length_c   8.81029538
_cell_angle_alpha   90.02388750
_cell_angle_beta   92.30426411
_cell_angle_gamma   90.08246388
_symmetry_Int_Tables_number   1
_chemical_formula_structural   Li3Mn3TeO8
_chemical_formula_sum   'Li6 Mn6 Te2 O16'
_cell_volume   338.39092484
_cell_formula_units_Z   2
loop_
 _symmetry_equiv_pos_site_id
 _symmetry_equiv_pos_as_xyz
  1  'x, y, z'
loop_
 _atom_site_type_symbol
 _atom_site_label
 _atom_site_symmetry_multiplicity
 _atom_site_fract_x
 _atom_site_fract_y
 _atom_site_fract_z
 _atom_site_occupancy
  Li  Li0  1  0.00005300  0.49717500  0.49984300  1
  Li  Li1  1  0.49994600  0.99710500  0.00059400  1
  Li  Li2  1  0.74937500  0.24841300  0.74951100  1
  Li  Li3  1  0.24923900  0.74825500  0.24953600  1
  Li  Li4  1  0.25080200  0.24816700  0.25049600  1
  Li  Li5  1  0.75087400  0.74797700  0.75049900  1
  Mn  Mn0  1  0.99999500  0.49941400  0.99990200  1
  Mn  Mn1  1  0.24955200  0.75265400  0.74733500  1
  Mn  Mn2  1  0.75047000  0.75252900  0.25275100  1
  Mn  Mn3  1  0.49995500  0.99948600  0.49993900  1
  Mn  Mn4  1  0.74968000  0.25254500  0.24736300  1
  Mn  Mn5  1  0.25042600  0.25250700  0.75279100  1
  Te  Te0  1  0.99998900  0.99882700  0.99991700  1
  Te  Te1  1  0.49994800  0.49888400  0.50005600  1
  O  O0  1  0.01077100  0.50150900  0.78144800  1
  O  O1  1  0.51083200  0.00159100  0.28154800  1
  O  O2  1  0.48907400  0.00217600  0.71832700  1
  O  O3  1  0.98914900  0.50214200  0.21827200  1
  O  O4  1  0.99655700  0.00033300  0.77886500  1
  O  O5  1  0.49662200  0.50040200  0.27880200  1
  O  O6  1  0.27434500  0.27655300  0.49582700  1
  O  O7  1  0.77427400  0.77650400  0.99585400  1
  O  O8  1  0.77522900  0.22264500  0.99464200  1
  O  O9  1  0.27509500  0.72262400  0.49460900  1
  O  O10  1  0.50336800  0.50082800  0.72113700  1
  O  O11  1  0.00343800  0.00072800  0.22117200  1
  O  O12  1  0.22534300  0.22245000  0.00540500  1
  O  O13  1  0.72524600  0.72267900  0.50541800  1
  O  O14  1  0.72519300  0.27655000  0.50409200  1
  O  O15  1  0.22515200  0.77634400  0.00404200  1
loop_
_geom_bond_atom_site_label_1
_geom_bond_atom_site_label_2
_geom_bond_distance
_geom_bond_site_symmetry_2
Li0 O14 2.180671 1_455
Li0 O6 2.180919 1_555
Li0 O9 2.201191 1_555
Li0 O13 2.203552 1_455
Li0 O3 2.479144 1_455
Li0 O0 2.479386 1_555
Li1 O15 2.180566 1_555
Li1 O7 2.181315 1_554
Li1 O12 2.201607 1_565
Li1 O8 2.203029 1_564
Li1 O1 2.473649 1_565
Li1 O2 2.485285 1_564
Li2 O8 2.165232 1_555
Li2 O14 2.168601 1_555
Li2 O4 2.181299 1_555
Li2 O10 2.195038 1_555
Li2 O2 2.227894 1_555
Li2 O0 2.263133 1_655
Li3 O9 2.164660 1_555
Li3 O15 2.169217 1_555
Li3 O5 2.181070 1_555
Li3 O11 2.194427 1_565
Li3 O3 2.226503 1_455
Li3 O1 2.265098 1_565
Li4 O12 2.164611 1_555
Li4 O6 2.167668 1_555
Li4 O11 2.175925 1_555
Li4 O5 2.190108 1_555
Li4 O1 2.231410 1_555
Li4 O3 2.271740 1_455
Li5 O13 2.164364 1_555
Li5 O7 2.167928 1_555
Li5 O10 2.175268 1_555
Li5 O4 2.190124 1_565
Li5 O0 2.230275 1_655
Li5 O2 2.273314 1_565
Mn0 O3 1.927799 1_556
Mn0 O0 1.928486 1_655
Mn0 O8 2.213017 1_555
Mn0 O15 2.215364 1_656
Mn0 O12 2.219331 1_656
Mn0 O7 2.221451 1_555
Mn1 O2 2.166222 1_565
Mn1 O0 2.177449 1_555
Mn1 O4 2.221670 1_465
Mn1 O10 2.236795 1_555
Mn1 O9 2.246211 1_555
Mn1 O15 2.277409 1_556
Mn2 O1 2.167262 1_565
Mn2 O3 2.176996 1_555
Mn2 O11 2.220933 1_665
Mn2 O5 2.235064 1_555
Mn2 O13 2.245504 1_555
Mn2 O7 2.278905 1_554
Mn3 O2 1.927971 1_565
Mn3 O1 1.927978 1_565
Mn3 O9 2.213829 1_555
Mn3 O14 2.216329 1_565
Mn3 O13 2.218344 1_555
Mn3 O6 2.220908 1_565
Mn4 O3 2.166445 1_555
Mn4 O1 2.176970 1_555
Mn4 O5 2.222600 1_555
Mn4 O11 2.236498 1_655
Mn4 O8 2.246103 1_554
Mn4 O14 2.277787 1_555
Mn5 O0 2.166885 1_555
Mn5 O2 2.176592 1_555
Mn5 O10 2.221457 1_555
Mn5 O4 2.235388 1_455
Mn5 O12 2.245054 1_556
Mn5 O6 2.279596 1_555
O4 Te0 1.946827 1_545
O5 Te1 1.948626 1_555
O6 Te1 1.961596 1_555
O7 Te0 1.962059 1_555
O8 Te0 1.967370 1_545
O9 Te1 1.967416 1_555
O10 Te1 1.947091 1_555
O11 Te0 1.948617 1_444
O12 Te0 1.966189 1_444
O13 Te1 1.966719 1_555
O14 Te1 1.962925 1_555
O15 Te0 1.963226 1_454
