# generated using pymatgen
data_MgInMoS4
_symmetry_space_group_name_H-M   'P 1'
_cell_length_a   7.57820965
_cell_length_b   7.57568105
_cell_length_c   7.57608942
_cell_angle_alpha   59.78870970
_cell_angle_beta   59.98866591
_cell_angle_gamma   59.98662287
_symmetry_Int_Tables_number   1
_chemical_formula_structural   MgInMoS4
_chemical_formula_sum   'Mg2 In2 Mo2 S8'
_cell_volume   307.00059942
_cell_formula_units_Z   2
loop_
 _symmetry_equiv_pos_site_id
 _symmetry_equiv_pos_as_xyz
  1  'x, y, z'
loop_
 _atom_site_type_symbol
 _atom_site_label
 _atom_site_symmetry_multiplicity
 _atom_site_fract_x
 _atom_site_fract_y
 _atom_site_fract_z
 _atom_site_occupancy
  Mg  Mg0  1  0.87445800  0.87547700  0.87563900  1
  Mg  Mg1  1  0.12557900  0.12437700  0.12452000  1
  In  In0  1  0.49990300  0.50006400  0.49998400  1
  In  In1  1  0.99989200  0.49990600  0.50003100  1
  Mo  Mo0  1  0.50002200  0.50000700  0.99997100  1
  Mo  Mo1  1  0.50002200  0.00005600  0.50001600  1
  S  S0  1  0.72635700  0.74651500  0.74651300  1
  S  S1  1  0.26576200  0.24390000  0.72464900  1
  S  S2  1  0.26577400  0.72459200  0.24379000  1
  S  S3  1  0.71937300  0.25357800  0.25344700  1
  S  S4  1  0.73420300  0.27533800  0.75610500  1
  S  S5  1  0.28068900  0.74654400  0.74648800  1
  S  S6  1  0.27372000  0.25346700  0.25346600  1
  S  S7  1  0.73424900  0.75617500  0.27538200  1
loop_
_geom_bond_atom_site_label_1
_geom_bond_atom_site_label_2
_geom_bond_distance
_geom_bond_site_symmetry_2
Mg0 S7 2.470769 1_556
Mg0 S4 2.471256 1_565
Mg0 S0 2.515602 1_555
Mg0 S5 2.515760 1_655
Mg1 S2 2.470851 1_545
Mg1 S1 2.471510 1_554
Mg1 S6 2.515537 1_555
Mg1 S3 2.515593 1_455
In0 S1 2.628860 1_555
In0 S2 2.629038 1_555
In0 S4 2.629464 1_555
In0 S7 2.629708 1_555
In0 S5 2.652689 1_555
In0 S3 2.652758 1_555
In1 S4 2.628631 1_555
In1 S7 2.628799 1_555
In1 S1 2.629825 1_655
In1 S2 2.630311 1_655
In1 S6 2.652805 1_655
In1 S0 2.653072 1_555
Mo0 S2 2.513808 1_556
Mo0 S4 2.514506 1_555
Mo0 S5 2.533148 1_555
Mo0 S3 2.533178 1_556
Mo0 S0 2.533277 1_555
Mo0 S6 2.533292 1_556
Mo1 S1 2.514185 1_555
Mo1 S7 2.514393 1_545
Mo1 S0 2.533235 1_545
Mo1 S5 2.533297 1_545
Mo1 S6 2.533299 1_555
Mo1 S3 2.533462 1_555
