# generated using pymatgen
data_BaNaPrMnO6
_symmetry_space_group_name_H-M   'P 1'
_cell_length_a   8.47826761
_cell_length_b   8.43461051
_cell_length_c   8.46098307
_cell_angle_alpha   90.00000000
_cell_angle_beta   90.00000000
_cell_angle_gamma   90.00000000
_symmetry_Int_Tables_number   1
_chemical_formula_structural   BaNaPrMnO6
_chemical_formula_sum   'Ba4 Na4 Pr4 Mn4 O24'
_cell_volume   605.05238807
_cell_formula_units_Z   4
loop_
 _symmetry_equiv_pos_site_id
 _symmetry_equiv_pos_as_xyz
  1  'x, y, z'
loop_
 _atom_site_type_symbol
 _atom_site_label
 _atom_site_symmetry_multiplicity
 _atom_site_fract_x
 _atom_site_fract_y
 _atom_site_fract_z
 _atom_site_occupancy
  Ba  Ba0  1  0.00000000  0.00000000  0.00000000  1
  Ba  Ba1  1  0.50000000  0.50000000  0.50000000  1
  Ba  Ba2  1  -0.00000000  0.50000000  0.50000000  1
  Ba  Ba3  1  0.50000000  0.00000000  0.00000000  1
  Na  Na0  1  0.50000000  0.00000000  0.50000000  1
  Na  Na1  1  0.50000000  0.50000000  0.00000000  1
  Na  Na2  1  -0.00000000  0.50000000  0.00000000  1
  Na  Na3  1  -0.00000000  0.00000000  0.50000000  1
  Pr  Pr0  1  0.25000000  0.25000000  0.25000000  1
  Pr  Pr1  1  0.75000000  0.75000000  0.25000000  1
  Pr  Pr2  1  0.75000000  0.25000000  0.75000000  1
  Pr  Pr3  1  0.25000000  0.75000000  0.75000000  1
  Mn  Mn0  1  0.75000000  0.75000000  0.75000000  1
  Mn  Mn1  1  0.25000000  0.25000000  0.75000000  1
  Mn  Mn2  1  0.25000000  0.75000000  0.25000000  1
  Mn  Mn3  1  0.75000000  0.25000000  0.25000000  1
  O  O0  1  0.97458123  0.22627787  0.27397328  1
  O  O1  1  0.02541877  0.77372213  0.27397328  1
  O  O2  1  0.02541877  0.22627787  0.72602672  1
  O  O3  1  0.97458123  0.77372213  0.72602672  1
  O  O4  1  0.26793476  0.97463467  0.22202833  1
  O  O5  1  0.26793476  0.02536533  0.77797167  1
  O  O6  1  0.73206524  0.02536533  0.22202833  1
  O  O7  1  0.73206524  0.97463467  0.77797167  1
  O  O8  1  0.22398630  0.26666929  0.97406830  1
  O  O9  1  0.77601370  0.26666929  0.02593170  1
  O  O10  1  0.22398630  0.73333071  0.02593170  1
  O  O11  1  0.77601370  0.73333071  0.97406830  1
  O  O12  1  0.52541877  0.27372213  0.22602672  1
  O  O13  1  0.47458123  0.72627787  0.22602672  1
  O  O14  1  0.47458123  0.27372213  0.77397328  1
  O  O15  1  0.52541877  0.72627787  0.77397328  1
  O  O16  1  0.23206524  0.52536533  0.27797167  1
  O  O17  1  0.23206524  0.47463467  0.72202833  1
  O  O18  1  0.76793476  0.47463467  0.27797167  1
  O  O19  1  0.76793476  0.52536533  0.72202833  1
  O  O20  1  0.27601370  0.23333071  0.52593170  1
  O  O21  1  0.72398630  0.23333071  0.47406830  1
  O  O22  1  0.27601370  0.76666929  0.47406830  1
  O  O23  1  0.72398630  0.76666929  0.52593170  1
loop_
_geom_bond_atom_site_label_1
_geom_bond_atom_site_label_2
_geom_bond_distance
_geom_bond_site_symmetry_2
Ba0 O10 2.951869 1_545
Ba0 O8 2.951869 1_554
Ba0 O11 2.951869 1_444
Ba0 O9 2.951869 1_455
Ba0 O7 2.955520 1_444
Ba0 O6 2.955520 1_455
Ba0 O5 2.955520 1_554
Ba0 O4 2.955520 1_545
Ba0 O3 3.010411 1_444
Ba0 O2 3.010411 1_554
Ba0 O1 3.010411 1_545
Ba0 O0 3.010411 1_455
Ba1 O23 2.951869 1_555
Ba1 O21 2.951869 1_555
Ba1 O20 2.951869 1_555
Ba1 O22 2.951869 1_555
Ba1 O17 2.955520 1_555
Ba1 O18 2.955520 1_555
Ba1 O16 2.955520 1_555
Ba1 O19 2.955520 1_555
Ba1 O13 3.010411 1_555
Ba1 O14 3.010411 1_555
Ba1 O15 3.010411 1_555
Ba1 O12 3.010411 1_555
Ba2 O18 2.728723 1_455
Ba2 O19 2.728723 1_455
Ba2 O16 2.728723 1_555
Ba2 O17 2.728723 1_555
Ba2 O1 3.005666 1_555
Ba2 O3 3.005666 1_455
Ba2 O0 3.005666 1_455
Ba2 O2 3.005666 1_555
Ba2 O20 3.253218 1_555
Ba2 O21 3.253218 1_455
Ba2 O22 3.253218 1_555
Ba2 O23 3.253218 1_455
Ba3 O4 2.728723 1_545
Ba3 O5 2.728723 1_554
Ba3 O7 2.728723 1_544
Ba3 O6 2.728723 1_555
Ba3 O15 3.005666 1_544
Ba3 O13 3.005666 1_545
Ba3 O12 3.005666 1_555
Ba3 O14 3.005666 1_554
Ba3 O11 3.253218 1_544
Ba3 O9 3.253218 1_555
Ba3 O10 3.253218 1_545
Ba3 O8 3.253218 1_554
Na0 O22 2.743654 1_545
Na0 O23 2.743654 1_545
Na0 O21 2.743654 1_555
Na0 O20 2.743654 1_555
Na1 O12 2.710419 1_555
Na1 O13 2.710419 1_555
Na1 O14 2.710419 1_554
Na1 O15 2.710419 1_554
Na2 O8 2.743654 1_554
Na2 O10 2.743654 1_555
Na2 O9 2.743654 1_455
Na2 O11 2.743654 1_454
Na3 O2 2.710419 1_555
Na3 O1 2.710419 1_545
Na3 O0 2.710419 1_455
Na3 O3 2.710419 1_445
Mn0 O11 1.913795 1_555
Mn0 O23 1.913795 1_555
Mn0 O7 1.915475 1_555
Mn0 O19 1.915475 1_555
Mn0 O15 1.925259 1_555
Mn0 O3 1.925259 1_555
Mn1 O8 1.913795 1_555
Mn1 O20 1.913795 1_555
Mn1 O5 1.915475 1_555
Mn1 O17 1.915475 1_555
Mn1 O2 1.925259 1_555
Mn1 O14 1.925259 1_555
Mn2 O22 1.913795 1_555
Mn2 O10 1.913795 1_555
Mn2 O16 1.915475 1_555
Mn2 O4 1.915475 1_555
Mn2 O1 1.925259 1_555
Mn2 O13 1.925259 1_555
Mn3 O9 1.913795 1_555
Mn3 O21 1.913795 1_555
Mn3 O6 1.915475 1_555
Mn3 O18 1.915475 1_555
Mn3 O12 1.925259 1_555
Mn3 O0 1.925259 1_555
O0 Pr0 2.352392 1_655
O1 Pr1 2.352392 1_455
O2 Pr2 2.352392 1_455
O3 Pr3 2.352392 1_655
O4 Pr0 2.339573 1_565
O5 Pr3 2.339573 1_545
O6 Pr1 2.339573 1_545
O7 Pr2 2.339573 1_565
O8 Pr0 2.349259 1_556
O9 Pr2 2.349259 1_554
O10 Pr3 2.349259 1_554
O11 Pr1 2.349259 1_556
O12 Pr0 2.352392 1_555
O13 Pr1 2.352392 1_555
O14 Pr2 2.352392 1_555
O15 Pr3 2.352392 1_555
O16 Pr0 2.339573 1_555
O17 Pr3 2.339573 1_555
O18 Pr1 2.339573 1_555
O19 Pr2 2.339573 1_555
O20 Pr0 2.349259 1_555
O21 Pr2 2.349259 1_555
O22 Pr3 2.349259 1_555
O23 Pr1 2.349259 1_555
