# generated using pymatgen
data_Gd3CuSiS7
_symmetry_space_group_name_H-M   'P 1'
_cell_length_a   5.72477100
_cell_length_b   10.00442533
_cell_length_c   10.00450331
_cell_angle_alpha   120.00002857
_cell_angle_beta   90.00000000
_cell_angle_gamma   90.00000000
_symmetry_Int_Tables_number   1
_chemical_formula_structural   Gd3CuSiS7
_chemical_formula_sum   'Gd6 Cu2 Si2 S14'
_cell_volume   496.22233152
_cell_formula_units_Z   2
loop_
 _symmetry_equiv_pos_site_id
 _symmetry_equiv_pos_as_xyz
  1  'x, y, z'
loop_
 _atom_site_type_symbol
 _atom_site_label
 _atom_site_symmetry_multiplicity
 _atom_site_fract_x
 _atom_site_fract_y
 _atom_site_fract_z
 _atom_site_occupancy
  Gd  Gd0  1  0.24993800  0.76951400  0.12657300  1
  Gd  Gd1  1  0.24995900  0.87340700  0.64288000  1
  Gd  Gd2  1  0.24993600  0.35711400  0.23053100  1
  Gd  Gd3  1  0.74993800  0.23048600  0.87342700  1
  Gd  Gd4  1  0.74995900  0.12659300  0.35712000  1
  Gd  Gd5  1  0.74993600  0.64288600  0.76946900  1
  Cu  Cu0  1  0.21402400  0.00001000  0.99999800  1
  Cu  Cu1  1  0.71402400  0.99999000  0.00000200  1
  Si  Si0  1  0.33720800  0.33336400  0.66668000  1
  Si  Si1  1  0.83720800  0.66663600  0.33332000  1
  S  S0  1  0.96853100  0.33338500  0.66668300  1
  S  S1  1  0.46853100  0.66661500  0.33331700  1
  S  S2  1  0.98431500  0.89127200  0.41490400  1
  S  S3  1  0.98433800  0.58509500  0.47639400  1
  S  S4  1  0.98433800  0.52360800  0.10869900  1
  S  S5  1  0.48431500  0.10872800  0.58509600  1
  S  S6  1  0.48433800  0.41490500  0.52360600  1
  S  S7  1  0.48433800  0.47639200  0.89130100  1
  S  S8  1  0.73062700  0.83505200  0.09084100  1
  S  S9  1  0.73066300  0.90917900  0.74422200  1
  S  S10  1  0.73062400  0.25579200  0.16493800  1
  S  S11  1  0.23062700  0.16494800  0.90915900  1
  S  S12  1  0.23066300  0.09082100  0.25577800  1
  S  S13  1  0.23062400  0.74420800  0.83506200  1
loop_
_geom_bond_atom_site_label_1
_geom_bond_atom_site_label_2
_geom_bond_distance
_geom_bond_site_symmetry_2
Gd0 S13 2.800622 1_554
Gd0 S12 2.803725 1_565
Gd0 S4 2.820691 1_455
Gd0 S8 2.892175 1_555
Gd0 S2 2.933138 1_455
Gd0 S1 3.005525 1_555
Gd0 S7 3.006341 1_554
Gd0 S8 3.103295 1_455
Gd1 S11 2.801100 1_565
Gd1 S13 2.804439 1_555
Gd1 S2 2.820330 1_455
Gd1 S9 2.892446 1_555
Gd1 S3 2.932916 1_455
Gd1 S1 3.005010 1_555
Gd1 S5 3.006273 1_565
Gd1 S9 3.103388 1_455
Gd2 S12 2.801135 1_555
Gd2 S11 2.804348 1_554
Gd2 S3 2.820302 1_455
Gd2 S10 2.892321 1_555
Gd2 S4 2.932959 1_455
Gd2 S1 3.004489 1_555
Gd2 S6 3.006123 1_555
Gd2 S10 3.103441 1_455
Gd3 S10 2.800622 1_556
Gd3 S9 2.803725 1_545
Gd3 S7 2.820691 1_555
Gd3 S11 2.892175 1_655
Gd3 S5 2.933138 1_555
Gd3 S0 3.005525 1_555
Gd3 S4 3.006341 1_556
Gd3 S11 3.103295 1_555
Gd4 S8 2.801100 1_545
Gd4 S10 2.804439 1_555
Gd4 S5 2.820330 1_555
Gd4 S12 2.892446 1_655
Gd4 S6 2.932916 1_555
Gd4 S0 3.005010 1_555
Gd4 S2 3.006273 1_545
Gd4 S12 3.103388 1_555
Gd5 S9 2.801135 1_555
Gd5 S8 2.804348 1_556
Gd5 S6 2.820302 1_555
Gd5 S13 2.892321 1_655
Gd5 S7 2.932959 1_555
Gd5 S0 3.004489 1_555
Gd5 S3 3.006123 1_555
Gd5 S13 3.103441 1_555
Cu0 S11 2.248874 1_555
Cu0 S12 2.248969 1_556
Cu0 S13 2.249058 1_545
Cu1 S8 2.248874 1_555
Cu1 S9 2.248969 1_554
Cu1 S10 2.249058 1_565
S0 Si0 2.110591 1_655
S1 Si1 2.110591 1_555
S2 Si1 2.142827 1_555
S3 Si1 2.142772 1_555
S4 Si1 2.142751 1_555
S5 Si0 2.142827 1_555
S6 Si0 2.142772 1_555
S7 Si0 2.142751 1_555
