# generated using pymatgen
data_Mg14CrSn
_symmetry_space_group_name_H-M   'P 1'
_cell_length_a   6.31909344
_cell_length_b   6.28139166
_cell_length_c   10.38651679
_cell_angle_alpha   90.00000000
_cell_angle_beta   90.00000000
_cell_angle_gamma   119.80283616
_symmetry_Int_Tables_number   1
_chemical_formula_structural   Mg14CrSn
_chemical_formula_sum   'Mg14 Cr1 Sn1'
_cell_volume   357.74256974
_cell_formula_units_Z   1
loop_
 _symmetry_equiv_pos_site_id
 _symmetry_equiv_pos_as_xyz
  1  'x, y, z'
loop_
 _atom_site_type_symbol
 _atom_site_label
 _atom_site_symmetry_multiplicity
 _atom_site_fract_x
 _atom_site_fract_y
 _atom_site_fract_z
 _atom_site_occupancy
  Mg  Mg0  1  0.16656248  0.33328074  0.62500000  1
  Mg  Mg1  1  0.16699020  0.83349460  0.62500000  1
  Mg  Mg2  1  0.66757825  0.33429297  0.12500000  1
  Mg  Mg3  1  0.66659825  0.33301730  0.62500000  1
  Mg  Mg4  1  0.66757825  0.83328427  0.12500000  1
  Mg  Mg5  1  0.66659825  0.83357994  0.62500000  1
  Mg  Mg6  1  0.33228644  0.16287889  0.37263495  1
  Mg  Mg7  1  0.33228644  0.16287889  0.87736505  1
  Mg  Mg8  1  0.33228644  0.66940854  0.37263495  1
  Mg  Mg9  1  0.33228644  0.66940854  0.87736505  1
  Mg  Mg10  1  0.83282560  0.16641330  0.37609232  1
  Mg  Mg11  1  0.83282560  0.16641330  0.87390768  1
  Mg  Mg12  1  0.83694178  0.66847139  0.37317843  1
  Mg  Mg13  1  0.83694178  0.66847139  0.87682157  1
  Cr  Cr0  1  0.16337701  0.83168800  0.12500000  1
  Sn  Sn0  1  0.16603681  0.33301791  0.12500000  1
loop_
_geom_bond_atom_site_label_1
_geom_bond_atom_site_label_2
_geom_bond_distance
_geom_bond_site_symmetry_2
Mg0 Mg1 3.140697 1_555
Mg0 Mg1 3.140697 1_545
Mg0 Mg5 3.158498 1_445
Mg0 Mg3 3.158499 1_455
Mg0 Mg5 3.160595 1_555
Mg0 Mg3 3.160596 1_555
Mg0 Mg10 3.167422 1_455
Mg0 Mg11 3.167422 1_455
Mg0 Mg6 3.198004 1_555
Mg0 Mg7 3.198004 1_555
Mg0 Mg9 3.198010 1_555
Mg0 Mg8 3.198010 1_555
Mg1 Mg3 3.156803 1_565
Mg1 Mg5 3.156804 1_555
Mg1 Mg3 3.162290 1_455
Mg1 Mg5 3.162290 1_455
Mg1 Mg8 3.177130 1_555
Mg1 Mg9 3.177130 1_555
Mg1 Mg6 3.177136 1_565
Mg1 Mg7 3.177136 1_565
Mg1 Mg12 3.180621 1_455
Mg1 Mg13 3.180621 1_455
Mg2 Mg4 3.134360 1_555
Mg2 Mg4 3.147032 1_545
Mg2 Sn0 3.153795 1_655
Mg2 Mg7 3.161680 1_554
Mg2 Mg6 3.161680 1_555
Mg2 Sn0 3.165314 1_555
Mg3 Mg5 3.137162 1_545
Mg3 Mg5 3.144230 1_555
Mg3 Mg6 3.198660 1_555
Mg3 Mg7 3.198660 1_555
Mg4 Sn0 3.153794 1_665
Mg4 Mg8 3.161680 1_555
Mg4 Mg9 3.161680 1_554
Mg4 Sn0 3.165314 1_555
Mg5 Mg9 3.198660 1_555
Mg5 Mg8 3.198660 1_555
Mg6 Mg8 3.099681 1_545
Mg6 Sn0 3.158692 1_555
Mg6 Mg8 3.181711 1_555
Mg7 Mg9 3.099681 1_545
Mg7 Sn0 3.158692 1_556
Mg7 Mg9 3.181711 1_555
Mg8 Sn0 3.158698 1_555
Mg9 Sn0 3.158698 1_556
Mg10 Mg12 3.140923 1_555
Mg10 Mg12 3.140923 1_545
Mg10 Mg8 3.152183 1_545
Mg10 Mg6 3.152183 1_555
Mg10 Mg3 3.158309 1_555
Mg10 Mg5 3.158315 1_545
Mg10 Mg8 3.167436 1_655
Mg10 Mg6 3.167436 1_655
Mg10 Mg2 3.177813 1_555
Mg10 Mg4 3.177819 1_545
Mg10 Sn0 3.184314 1_655
Mg11 Mg13 3.140923 1_555
Mg11 Mg13 3.140923 1_545
Mg11 Mg9 3.152183 1_545
Mg11 Mg7 3.152183 1_555
Mg11 Mg3 3.158309 1_555
Mg11 Mg5 3.158315 1_545
Mg11 Mg9 3.167436 1_655
Mg11 Mg7 3.167436 1_655
Mg11 Mg2 3.177813 1_556
Mg11 Mg4 3.177819 1_546
Mg11 Sn0 3.184314 1_656
Mg12 Mg6 3.127212 1_665
Mg12 Mg8 3.127213 1_655
Mg12 Mg4 3.156432 1_555
Mg12 Mg2 3.156438 1_555
Mg12 Mg5 3.191406 1_555
Mg12 Mg3 3.191412 1_555
Mg12 Mg6 3.191899 1_555
Mg12 Mg8 3.191899 1_555
Mg13 Mg7 3.127212 1_665
Mg13 Mg9 3.127213 1_655
Mg13 Mg4 3.156432 1_556
Mg13 Mg2 3.156438 1_556
Mg13 Mg5 3.191406 1_555
Mg13 Mg3 3.191412 1_555
Mg13 Mg7 3.191899 1_555
Mg13 Mg9 3.191899 1_555
Cr0 Mg2 3.137994 1_455
Cr0 Mg4 3.137994 1_455
Cr0 Mg13 3.138235 1_454
Cr0 Mg12 3.138235 1_455
Cr0 Sn0 3.140730 1_555
Cr0 Sn0 3.140730 1_565
Cr0 Mg8 3.142503 1_555
Cr0 Mg9 3.142503 1_554
Cr0 Mg7 3.142509 1_564
Cr0 Mg6 3.142509 1_565
Cr0 Mg2 3.181123 1_565
Cr0 Mg4 3.181123 1_555
