# generated using pymatgen
data_YHfMg6
_symmetry_space_group_name_H-M   'P 1'
_cell_length_a   6.26092060
_cell_length_b   6.26092060
_cell_length_c   4.88992800
_cell_angle_alpha   90.00000000
_cell_angle_beta   90.00000000
_cell_angle_gamma   102.84904611
_symmetry_Int_Tables_number   1
_chemical_formula_structural   YHfMg6
_chemical_formula_sum   'Y1 Hf1 Mg6'
_cell_volume   186.88109244
_cell_formula_units_Z   1
loop_
 _symmetry_equiv_pos_site_id
 _symmetry_equiv_pos_as_xyz
  1  'x, y, z'
loop_
 _atom_site_type_symbol
 _atom_site_label
 _atom_site_symmetry_multiplicity
 _atom_site_fract_x
 _atom_site_fract_y
 _atom_site_fract_z
 _atom_site_occupancy
  Y  Y0  1  0.50000000  0.50000000  0.50000000  1
  Hf  Hf0  1  0.00000000  0.00000000  0.50000000  1
  Mg  Mg0  1  0.50000000  0.00000000  0.50000000  1
  Mg  Mg1  1  0.00000000  0.50000000  0.50000000  1
  Mg  Mg2  1  0.75989700  0.75989700  0.00000000  1
  Mg  Mg3  1  0.24010300  0.24010300  0.00000000  1
  Mg  Mg4  1  0.75515600  0.24484400  0.00000000  1
  Mg  Mg5  1  0.24484400  0.75515600  0.00000000  1
loop_
_geom_bond_atom_site_label_1
_geom_bond_atom_site_label_2
_geom_bond_distance
_geom_bond_site_symmetry_2
Hf0 Mg3 3.080970 1_556
Hf0 Mg3 3.080970 1_555
Hf0 Mg2 3.080970 1_446
Hf0 Mg2 3.080970 1_445
Hf0 Mg1 3.130460 1_555
Hf0 Mg0 3.130460 1_455
Hf0 Mg0 3.130460 1_555
Hf0 Mg1 3.130460 1_545
Hf0 Mg5 3.423870 1_545
Hf0 Mg5 3.423870 1_546
Hf0 Mg4 3.423870 1_455
Hf0 Mg4 3.423870 1_456
Mg0 Mg4 3.128999 1_556
Mg0 Mg4 3.128999 1_555
Mg0 Mg5 3.128999 1_546
Mg0 Mg5 3.128999 1_545
Mg0 Y0 3.130460 1_545
Mg0 Y0 3.130460 1_555
Mg1 Mg5 3.128999 1_555
Mg1 Mg5 3.128999 1_556
Mg1 Mg4 3.128999 1_455
Mg1 Mg4 3.128999 1_456
Mg1 Y0 3.130460 1_455
Mg1 Y0 3.130460 1_555
Mg2 Mg5 3.042953 1_655
Mg2 Mg4 3.042953 1_565
Mg2 Y0 3.177379 1_554
Mg2 Y0 3.177379 1_555
Mg2 Mg5 3.218235 1_555
Mg2 Mg4 3.218235 1_555
Mg3 Mg5 3.042953 1_545
Mg3 Mg4 3.042953 1_455
Mg3 Y0 3.177379 1_554
Mg3 Y0 3.177379 1_555
Mg3 Mg4 3.218235 1_555
Mg3 Mg5 3.218235 1_555
Mg4 Y0 3.495282 1_554
Mg4 Y0 3.495282 1_555
Mg5 Y0 3.495282 1_554
Mg5 Y0 3.495282 1_555
