# generated using pymatgen
data_Mg(SbO2)2
_symmetry_space_group_name_H-M   'P 1'
_cell_length_a   5.74772895
_cell_length_b   5.74772895
_cell_length_c   10.95282700
_cell_angle_alpha   90.00000000
_cell_angle_beta   90.00000000
_cell_angle_gamma   147.80401446
_symmetry_Int_Tables_number   1
_chemical_formula_structural   Mg(SbO2)2
_chemical_formula_sum   'Mg2 Sb4 O8'
_cell_volume   192.79548064
_cell_formula_units_Z   2
loop_
 _symmetry_equiv_pos_site_id
 _symmetry_equiv_pos_as_xyz
  1  'x, y, z'
loop_
 _atom_site_type_symbol
 _atom_site_label
 _atom_site_symmetry_multiplicity
 _atom_site_fract_x
 _atom_site_fract_y
 _atom_site_fract_z
 _atom_site_occupancy
  Mg  Mg0  1  0.61496100  0.38503900  0.75000000  1
  Mg  Mg1  1  0.38503900  0.61496100  0.25000000  1
  Sb  Sb0  1  0.13168600  0.86831400  0.08042500  1
  Sb  Sb1  1  0.86831400  0.13168600  0.91957500  1
  Sb  Sb2  1  0.13168600  0.86831400  0.41957500  1
  Sb  Sb3  1  0.86831400  0.13168600  0.58042500  1
  O  O0  1  0.78349900  0.21650100  0.37597200  1
  O  O1  1  0.21650100  0.78349900  0.62402800  1
  O  O2  1  0.21650100  0.78349900  0.87597200  1
  O  O3  1  0.78349900  0.21650100  0.12402800  1
  O  O4  1  0.01390400  0.98609600  0.25000000  1
  O  O5  1  0.98609600  0.01390400  0.75000000  1
  O  O6  1  0.50000000  0.50000000  0.00000000  1
  O  O7  1  0.50000000  0.50000000  0.50000000  1
loop_
_geom_bond_atom_site_label_1
_geom_bond_atom_site_label_2
_geom_bond_distance
_geom_bond_site_symmetry_2
Mg0 O5 2.136752 1_455
Mg0 O5 2.136752 1_565
Mg0 O1 2.387765 1_545
Mg0 O2 2.387765 1_545
Mg0 O1 2.387765 1_655
Mg0 O2 2.387765 1_655
Mg1 O4 2.136752 1_545
Mg1 O4 2.136752 1_655
Mg1 O0 2.387765 1_455
Mg1 O3 2.387765 1_455
Mg1 O0 2.387765 1_565
Mg1 O3 2.387765 1_565
O0 Sb2 2.362096 1_655
O0 Sb2 2.362096 1_545
O0 Sb3 2.427375 1_555
O1 Sb3 2.362096 1_565
O1 Sb3 2.362096 1_455
O1 Sb2 2.427375 1_555
O2 Sb1 2.362096 1_565
O2 Sb1 2.362096 1_455
O2 Sb0 2.427375 1_556
O3 Sb0 2.362096 1_655
O3 Sb0 2.362096 1_545
O3 Sb1 2.427375 1_554
O4 Sb2 2.267579 1_555
O4 Sb0 2.267579 1_555
O5 Sb1 2.267579 1_555
O5 Sb3 2.267579 1_555
O6 Sb0 2.330520 1_655
O6 Sb0 2.330520 1_545
O6 Sb1 2.330520 1_564
O6 Sb1 2.330520 1_454
O7 Sb2 2.330520 1_655
O7 Sb3 2.330520 1_565
O7 Sb3 2.330520 1_455
O7 Sb2 2.330520 1_545
