# generated using pymatgen
data_Ga5Ni
_symmetry_space_group_name_H-M   'P 1'
_cell_length_a   6.53156719
_cell_length_b   6.53156719
_cell_length_c   6.53156719
_cell_angle_alpha   122.51796566
_cell_angle_beta   122.51796566
_cell_angle_gamma   85.69141899
_symmetry_Int_Tables_number   1
_chemical_formula_structural   Ga5Ni
_chemical_formula_sum   'Ga10 Ni2'
_cell_volume   188.95087085
_cell_formula_units_Z   2
loop_
 _symmetry_equiv_pos_site_id
 _symmetry_equiv_pos_as_xyz
  1  'x, y, z'
loop_
 _atom_site_type_symbol
 _atom_site_label
 _atom_site_symmetry_multiplicity
 _atom_site_fract_x
 _atom_site_fract_y
 _atom_site_fract_z
 _atom_site_occupancy
  Ga  Ga0  1  -0.00000000  0.00000000  0.00000000  1
  Ga  Ga1  1  0.50000000  0.50000000  0.00000000  1
  Ga  Ga2  1  0.00710181  0.50710181  0.80067006  1
  Ga  Ga3  1  0.70643174  0.20643174  0.19932994  1
  Ga  Ga4  1  0.50710181  0.70643174  0.50000000  1
  Ga  Ga5  1  0.20643174  0.00710181  0.50000000  1
  Ga  Ga6  1  0.99289819  0.49289819  0.19932994  1
  Ga  Ga7  1  0.29356826  0.79356826  0.80067006  1
  Ga  Ga8  1  0.49289819  0.29356826  0.50000000  1
  Ga  Ga9  1  0.79356826  0.99289819  0.50000000  1
  Ni  Ni0  1  0.75000000  0.75000000  0.00000000  1
  Ni  Ni1  1  0.25000000  0.25000000  0.00000000  1
loop_
_geom_bond_atom_site_label_1
_geom_bond_atom_site_label_2
_geom_bond_distance
_geom_bond_site_symmetry_2
Ga0 Ni0 2.394432 1_445
Ga0 Ni1 2.394432 1_555
Ga0 Ga2 2.756421 1_544
Ga0 Ga6 2.756421 1_455
Ga0 Ga5 2.756421 1_555
Ga0 Ga9 2.756421 1_444
Ga0 Ga4 2.756421 1_444
Ga0 Ga8 2.756421 1_555
Ga0 Ga7 2.756421 1_544
Ga0 Ga3 2.756421 1_455
Ga1 Ni0 2.394432 1_555
Ga1 Ni1 2.394432 1_555
Ga1 Ga6 2.756421 1_555
Ga1 Ga2 2.756421 1_554
Ga1 Ga9 2.756421 1_555
Ga1 Ga8 2.756421 1_554
Ga1 Ga5 2.756421 1_554
Ga1 Ga4 2.756421 1_555
Ga1 Ga3 2.756421 1_555
Ga1 Ga7 2.756421 1_554
Ga2 Ni0 2.600300 1_456
Ga2 Ni1 2.600300 1_556
Ga2 Ga3 2.670935 1_455
Ga2 Ga6 2.705198 1_456
Ga2 Ga7 2.743698 1_555
Ga2 Ga8 2.783820 1_455
Ga2 Ga9 2.783820 1_445
Ga3 Ni1 2.600300 1_555
Ga3 Ni0 2.600300 1_545
Ga3 Ga7 2.705198 1_544
Ga3 Ga6 2.743698 1_555
Ga3 Ga8 2.783820 1_555
Ga3 Ga9 2.783820 1_545
Ga4 Ni0 2.600300 1_556
Ga4 Ni1 2.600300 1_555
Ga4 Ga5 2.670935 1_565
Ga4 Ga8 2.705198 1_555
Ga4 Ga9 2.743698 1_555
Ga4 Ga7 2.783820 1_555
Ga4 Ga6 2.783820 1_455
Ga5 Ni0 2.600300 1_445
Ga5 Ni1 2.600300 1_556
Ga5 Ga9 2.705198 1_445
Ga5 Ga8 2.743698 1_555
Ga5 Ga7 2.783820 1_545
Ga5 Ga6 2.783820 1_445
Ga6 Ni1 2.600300 1_655
Ga6 Ni0 2.600300 1_555
Ga6 Ga7 2.670935 1_655
Ga7 Ni0 2.600300 1_556
Ga7 Ni1 2.600300 1_566
Ga8 Ni0 2.600300 1_556
Ga8 Ni1 2.600300 1_555
Ga8 Ga9 2.670935 1_545
Ga9 Ni1 2.600300 1_666
Ga9 Ni0 2.600300 1_555
