# generated using pymatgen
data_Li7Mn4CoO12
_symmetry_space_group_name_H-M   'P 1'
_cell_length_a   5.15687725
_cell_length_b   9.74621687
_cell_length_c   8.65715187
_cell_angle_alpha   90.00298252
_cell_angle_beta   89.99822969
_cell_angle_gamma   98.29782544
_symmetry_Int_Tables_number   1
_chemical_formula_structural   Li7Mn4CoO12
_chemical_formula_sum   'Li14 Mn8 Co2 O24'
_cell_volume   430.55379550
_cell_formula_units_Z   2
loop_
 _symmetry_equiv_pos_site_id
 _symmetry_equiv_pos_as_xyz
  1  'x, y, z'
loop_
 _atom_site_type_symbol
 _atom_site_label
 _atom_site_symmetry_multiplicity
 _atom_site_fract_x
 _atom_site_fract_y
 _atom_site_fract_z
 _atom_site_occupancy
  Li  Li0  1  0.50002400  0.49999900  0.33358000  1
  Li  Li1  1  0.49997800  0.99998500  0.83044600  1
  Li  Li2  1  0.24480900  0.24132000  0.83043100  1
  Li  Li3  1  0.26067400  0.74073700  0.33544700  1
  Li  Li4  1  0.75522200  0.75866800  0.83055300  1
  Li  Li5  1  0.73935700  0.25923000  0.33549300  1
  Li  Li6  1  0.75807700  0.25398200  0.99619100  1
  Li  Li7  1  0.76328600  0.75338500  0.50048100  1
  Li  Li8  1  0.75044000  0.74839000  0.17106900  1
  Li  Li9  1  0.75843000  0.25205600  0.66706400  1
  Li  Li10  1  0.24946200  0.25163600  0.17100400  1
  Li  Li11  1  0.24152400  0.74789000  0.66712900  1
  Li  Li12  1  0.24208600  0.74610400  0.99623000  1
  Li  Li13  1  0.23673100  0.24653500  0.50034500  1
  Mn  Mn0  1  0.00000600  0.49998600  0.50058300  1
  Mn  Mn1  1  0.00002200  0.00002900  0.99691400  1
  Mn  Mn2  1  0.00003300  0.50002600  0.16644000  1
  Mn  Mn3  1  0.99987600  0.99994700  0.66629200  1
  Mn  Mn4  1  0.50003200  0.49997500  0.66339800  1
  Mn  Mn5  1  0.49999600  0.00005600  0.16170000  1
  Mn  Mn6  1  0.50002900  0.50002000  0.00298000  1
  Mn  Mn7  1  0.49985900  0.99991300  0.50259500  1
  Co  Co0  1  0.99997300  0.00001600  0.33621700  1
  Co  Co1  1  0.00002500  0.50000300  0.83379200  1
  O  O0  1  0.89806600  0.61550700  0.33295400  1
  O  O1  1  0.89323100  0.11334000  0.83555900  1
  O  O2  1  0.10197200  0.38451200  0.33293500  1
  O  O3  1  0.10672600  0.88664800  0.83559100  1
  O  O4  1  0.35752600  0.60642200  0.83342200  1
  O  O5  1  0.38806900  0.11425300  0.32829500  1
  O  O6  1  0.64250500  0.39358200  0.83342200  1
  O  O7  1  0.61187000  0.88583500  0.32832400  1
  O  O8  1  0.89367900  0.61617900  0.00116300  1
  O  O9  1  0.88666900  0.11978200  0.51245000  1
  O  O10  1  0.89389200  0.61480300  0.66721700  1
  O  O11  1  0.84999700  0.10974100  0.15490300  1
  O  O12  1  0.10638600  0.38386500  0.00117000  1
  O  O13  1  0.11311200  0.88009400  0.51245800  1
  O  O14  1  0.10615000  0.38516900  0.66721200  1
  O  O15  1  0.15012300  0.89040200  0.15492200  1
  O  O16  1  0.34932400  0.11137200  0.01057300  1
  O  O17  1  0.34975400  0.60812000  0.50769700  1
  O  O18  1  0.35040900  0.60859000  0.15879200  1
  O  O19  1  0.35016300  0.11079600  0.65870400  1
  O  O20  1  0.64963700  0.39148000  0.15874100  1
  O  O21  1  0.64970800  0.88905700  0.65881100  1
  O  O22  1  0.65075800  0.88870500  0.01065700  1
  O  O23  1  0.65032000  0.39185700  0.50765100  1
loop_
_geom_bond_atom_site_label_1
_geom_bond_atom_site_label_2
_geom_bond_distance
_geom_bond_site_symmetry_2
Li0 O17 2.053905 1_555
Li0 O23 2.053905 1_555
Li0 O20 2.059173 1_555
Li0 O18 2.059367 1_555
Li0 O2 2.194000 1_555
Li0 O0 2.194033 1_555
Li1 O21 2.052696 1_555
Li1 O19 2.053018 1_565
Li1 O16 2.111158 1_566
Li1 O22 2.111510 1_556
Li1 O3 2.165215 1_555
Li1 O1 2.165280 1_565
Li2 O1 2.047480 1_455
Li2 O19 2.079151 1_555
Li2 O16 2.126944 1_556
Li2 O14 2.182447 1_555
Li2 O12 2.215947 1_556
Li2 O6 2.351696 1_555
Li3 O17 2.068067 1_555
Li3 O0 2.080385 1_455
Li3 O18 2.093690 1_555
Li3 O7 2.131758 1_555
Li3 O13 2.251686 1_555
Li3 O15 2.266161 1_555
Li4 O3 2.047158 1_655
Li4 O21 2.078797 1_555
Li4 O22 2.127041 1_556
Li4 O10 2.183111 1_555
Li4 O8 2.215033 1_556
Li4 O4 2.351606 1_555
Li5 O23 2.067370 1_555
Li5 O2 2.080652 1_655
Li5 O20 2.095048 1_555
Li5 O5 2.131497 1_555
Li5 O9 2.251527 1_555
Li5 O11 2.265412 1_555
Li6 O12 2.043106 1_656
Li6 O11 2.069160 1_556
Li6 O20 2.074819 1_556
Li6 O6 2.103871 1_555
Li6 O1 2.138684 1_555
Li6 O16 2.354762 1_556
Li7 O13 2.036474 1_655
Li7 O21 2.047825 1_555
Li7 O10 2.150416 1_555
Li7 O0 2.159066 1_555
Li7 O7 2.188278 1_555
Li7 O17 2.384238 1_555
Li8 O22 2.065449 1_555
Li8 O7 2.105821 1_555
Li8 O0 2.122686 1_555
Li8 O8 2.155000 1_555
Li8 O18 2.304793 1_555
Li8 O15 2.315169 1_655
Li9 O9 2.033904 1_555
Li9 O14 2.055974 1_655
Li9 O23 2.071565 1_555
Li9 O6 2.138188 1_555
Li9 O1 2.170328 1_555
Li9 O19 2.344499 1_555
Li10 O16 2.065415 1_555
Li10 O5 2.105810 1_555
Li10 O2 2.122471 1_555
Li10 O12 2.154450 1_555
Li10 O20 2.305587 1_555
Li10 O11 2.313705 1_455
Li11 O13 2.034252 1_555
Li11 O10 2.055492 1_455
Li11 O17 2.071572 1_555
Li11 O4 2.137691 1_555
Li11 O3 2.170280 1_555
Li11 O21 2.343725 1_555
Li12 O8 2.043699 1_456
Li12 O15 2.069397 1_556
Li12 O18 2.074895 1_556
Li12 O4 2.104271 1_555
Li12 O3 2.138632 1_555
Li12 O22 2.354403 1_556
Li13 O9 2.037708 1_455
Li13 O19 2.048273 1_555
Li13 O14 2.151345 1_555
Li13 O2 2.159109 1_555
Li13 O5 2.186294 1_555
Li13 O23 2.384754 1_555
Mn0 O10 1.951726 1_455
Mn0 O14 1.951861 1_555
Mn0 O23 1.953884 1_455
Mn0 O17 1.954187 1_555
Mn0 O2 1.954512 1_555
Mn0 O0 1.954736 1_455
Mn1 O3 1.910412 1_545
Mn1 O1 1.910467 1_455
Mn1 O15 1.962350 1_546
Mn1 O11 1.962438 1_456
Mn1 O22 1.967564 1_446
Mn1 O16 1.967761 1_556
Mn2 O0 1.947278 1_455
Mn2 O2 1.947414 1_555
Mn2 O12 1.951567 1_555
Mn2 O8 1.951676 1_455
Mn2 O18 1.958778 1_555
Mn2 O20 1.958808 1_455
Mn3 O9 1.917209 1_565
Mn3 O13 1.917224 1_655
Mn3 O1 1.961207 1_565
Mn3 O3 1.961355 1_655
Mn3 O21 1.967166 1_555
Mn3 O19 1.967545 1_665
Mn4 O17 1.940201 1_555
Mn4 O23 1.940235 1_555
Mn4 O6 2.000428 1_555
Mn4 O4 2.000691 1_555
Mn4 O10 2.173198 1_555
Mn4 O14 2.173213 1_555
Mn5 O22 1.932709 1_545
Mn5 O16 1.932874 1_555
Mn5 O5 1.958865 1_555
Mn5 O7 1.959201 1_545
Mn5 O15 1.960703 1_545
Mn5 O11 1.961388 1_555
Mn6 O20 1.941230 1_555
Mn6 O18 1.941633 1_555
Mn6 O4 1.997580 1_554
Mn6 O6 1.997606 1_554
Mn6 O12 2.176992 1_555
Mn6 O8 2.177039 1_555
Mn7 O19 1.957253 1_565
Mn7 O21 1.958218 1_555
Mn7 O7 2.007761 1_555
Mn7 O5 2.009166 1_565
Mn7 O13 2.162503 1_555
Mn7 O9 2.162973 1_565
Co0 O9 2.056262 1_555
Co0 O13 2.057045 1_645
Co0 O15 2.107771 1_645
Co0 O11 2.108223 1_555
Co0 O7 2.146114 1_545
Co0 O5 2.146301 1_655
Co1 O10 1.951393 1_455
Co1 O14 1.951503 1_555
Co1 O12 1.964973 1_556
Co1 O8 1.965017 1_456
Co1 O4 1.980571 1_555
Co1 O6 1.980663 1_455
