# generated using pymatgen
data_MgSi
_symmetry_space_group_name_H-M   'P 1'
_cell_length_a   5.24465700
_cell_length_b   5.50482197
_cell_length_c   7.72593900
_cell_angle_alpha   78.87641042
_cell_angle_beta   87.27346214
_cell_angle_gamma   80.89873513
_symmetry_Int_Tables_number   1
_chemical_formula_structural   MgSi
_chemical_formula_sum   'Mg6 Si6'
_cell_volume   216.07546783
_cell_formula_units_Z   6
loop_
 _symmetry_equiv_pos_site_id
 _symmetry_equiv_pos_as_xyz
  1  'x, y, z'
loop_
 _atom_site_type_symbol
 _atom_site_label
 _atom_site_symmetry_multiplicity
 _atom_site_fract_x
 _atom_site_fract_y
 _atom_site_fract_z
 _atom_site_occupancy
  Mg  Mg0  1  0.05696900  0.78967000  0.88434400  1
  Mg  Mg1  1  0.76604500  0.85098300  0.53389500  1
  Mg  Mg2  1  0.52615000  0.83306400  0.18407000  1
  Mg  Mg3  1  0.94303100  0.21033000  0.11565600  1
  Mg  Mg4  1  0.23395500  0.14901700  0.46610500  1
  Mg  Mg5  1  0.47385000  0.16693600  0.81593000  1
  Si  Si0  1  0.58330000  0.63105500  0.86596100  1
  Si  Si1  1  0.05543800  0.65323100  0.26567500  1
  Si  Si2  1  0.29253700  0.63594600  0.55138900  1
  Si  Si3  1  0.94456200  0.34676900  0.73432500  1
  Si  Si4  1  0.41670000  0.36894500  0.13403900  1
  Si  Si5  1  0.70746300  0.36405400  0.44861100  1
loop_
_geom_bond_atom_site_label_1
_geom_bond_atom_site_label_2
_geom_bond_distance
_geom_bond_site_symmetry_2
Mg0 Si0 2.765962 1_555
Mg0 Si0 2.778776 1_455
Mg0 Si1 2.896511 1_556
Mg0 Si2 3.011062 1_555
Mg0 Si3 3.036002 1_465
Mg0 Si3 3.040607 1_455
Mg0 Si4 3.144034 1_556
Mg1 Si5 2.744496 1_565
Mg1 Si1 2.798457 1_655
Mg1 Si0 2.810855 1_555
Mg1 Si2 2.825568 1_655
Mg1 Si2 2.902250 1_555
Mg1 Si3 2.938684 1_555
Mg1 Si5 2.945279 1_555
Mg2 Si1 2.802916 1_555
Mg2 Si4 2.805801 1_555
Mg2 Si1 2.853002 1_655
Mg2 Si4 2.868177 1_565
Mg2 Si0 2.871531 1_554
Mg2 Si5 3.019836 1_555
Mg2 Si2 3.103837 1_555
Mg3 Si4 2.765962 1_555
Mg3 Si4 2.778776 1_655
Mg3 Si3 2.896511 1_554
Mg3 Si5 3.011062 1_555
Mg3 Si1 3.036002 1_645
Mg3 Si1 3.040607 1_655
Mg3 Si0 3.144034 1_554
Mg4 Si2 2.744496 1_545
Mg4 Si3 2.798457 1_455
Mg4 Si4 2.810855 1_555
Mg4 Si5 2.825568 1_455
Mg4 Si5 2.902250 1_555
Mg4 Si1 2.938684 1_555
Mg4 Si2 2.945279 1_555
Mg5 Si3 2.802916 1_555
Mg5 Si0 2.805801 1_555
Mg5 Si3 2.853002 1_455
Mg5 Si0 2.868177 1_545
Mg5 Si4 2.871531 1_556
Mg5 Si2 3.019836 1_555
Mg5 Si5 3.103837 1_555
Si0 Si4 2.491705 1_556
Si0 Si3 2.562417 1_555
Si0 Si2 2.923566 1_555
Si1 Si4 2.562417 1_555
Si1 Si2 2.563334 1_555
Si1 Si5 2.769085 1_455
Si2 Si5 2.621081 1_555
Si2 Si3 2.769085 1_455
Si3 Si5 2.563334 1_555
Si4 Si5 2.923566 1_555
