# generated using pymatgen
data_Yb2CuGe6
_symmetry_space_group_name_H-M   'P 1'
_cell_length_a   5.78522925
_cell_length_b   5.78522925
_cell_length_c   10.96732428
_cell_angle_alpha   82.76947434
_cell_angle_beta   82.76947434
_cell_angle_gamma   91.52938489
_symmetry_Int_Tables_number   1
_chemical_formula_structural   Yb2CuGe6
_chemical_formula_sum   'Yb4 Cu2 Ge12'
_cell_volume   360.91181423
_cell_formula_units_Z   2
loop_
 _symmetry_equiv_pos_site_id
 _symmetry_equiv_pos_as_xyz
  1  'x, y, z'
loop_
 _atom_site_type_symbol
 _atom_site_label
 _atom_site_symmetry_multiplicity
 _atom_site_fract_x
 _atom_site_fract_y
 _atom_site_fract_z
 _atom_site_occupancy
  Yb  Yb0  1  0.33402200  0.83438100  0.66343000  1
  Yb  Yb1  1  0.83438100  0.33402200  0.66343000  1
  Yb  Yb2  1  0.66597800  0.16561900  0.33657000  1
  Yb  Yb3  1  0.16561900  0.66597800  0.33657000  1
  Cu  Cu0  1  0.30237900  0.30237900  0.78665100  1
  Cu  Cu1  1  0.69762100  0.69762100  0.21334900  1
  Ge  Ge0  1  0.00086000  0.00086000  0.88421700  1
  Ge  Ge1  1  0.99914000  0.99914000  0.11578300  1
  Ge  Ge2  1  0.55677300  0.55677300  0.88408800  1
  Ge  Ge3  1  0.44322700  0.44322700  0.11591200  1
  Ge  Ge4  1  0.85926400  0.85926400  0.58012300  1
  Ge  Ge5  1  0.14073600  0.14073600  0.41987700  1
  Ge  Ge6  1  0.35534500  0.35534500  0.56122800  1
  Ge  Ge7  1  0.64465500  0.64465500  0.43877200  1
  Ge  Ge8  1  0.55476200  0.00272400  0.88478400  1
  Ge  Ge9  1  0.00272400  0.55476200  0.88478400  1
  Ge  Ge10  1  0.44523800  0.99727600  0.11521600  1
  Ge  Ge11  1  0.99727600  0.44523800  0.11521600  1
loop_
_geom_bond_atom_site_label_1
_geom_bond_atom_site_label_2
_geom_bond_distance
_geom_bond_site_symmetry_2
Cu0 Ge6 2.431787 1_555
Cu0 Ge0 2.475565 1_555
Cu0 Ge2 2.479936 1_555
Cu0 Ge9 2.521210 1_555
Cu0 Ge8 2.521210 1_555
Cu0 Yb0 3.174184 1_545
Cu0 Yb1 3.174184 1_455
Cu0 Yb0 3.192653 1_555
Cu0 Yb1 3.192653 1_555
Cu1 Ge7 2.431787 1_555
Cu1 Ge1 2.475565 1_555
Cu1 Ge3 2.479936 1_555
Cu1 Ge10 2.521210 1_555
Cu1 Ge11 2.521210 1_555
Cu1 Yb2 3.174184 1_565
Cu1 Yb3 3.174184 1_655
Cu1 Yb3 3.192653 1_555
Cu1 Yb2 3.192653 1_555
Ge0 Ge1 2.537191 1_446
Ge0 Ge9 2.580318 1_545
Ge0 Ge8 2.580318 1_455
Ge0 Yb1 3.165003 1_455
Ge0 Yb0 3.165003 1_545
Ge1 Ge11 2.580318 1_565
Ge1 Ge10 2.580318 1_655
Ge1 Yb3 3.165003 1_655
Ge1 Yb2 3.165003 1_565
Ge2 Ge3 2.542322 1_556
Ge2 Ge8 2.581233 1_565
Ge2 Ge9 2.581233 1_655
Ge2 Yb1 3.164437 1_555
Ge2 Yb0 3.164437 1_555
Ge3 Yb2 3.164437 1_555
Ge3 Yb3 3.164437 1_555
Ge4 Ge7 2.524464 1_555
Ge4 Ge5 2.609525 1_665
Ge4 Yb1 3.003147 1_565
Ge4 Yb0 3.003147 1_655
Ge4 Yb1 3.055085 1_555
Ge4 Yb0 3.055085 1_555
Ge4 Yb2 3.345507 1_565
Ge4 Yb3 3.345507 1_655
Ge5 Ge6 2.524464 1_555
Ge5 Yb3 3.003147 1_545
Ge5 Yb2 3.003147 1_455
Ge5 Yb3 3.055085 1_555
Ge5 Yb2 3.055085 1_555
Ge5 Yb0 3.345507 1_545
Ge5 Yb1 3.345507 1_455
Ge6 Ge7 2.474913 1_555
Ge6 Yb0 3.074107 1_545
Ge6 Yb1 3.074107 1_455
Ge6 Yb0 3.117253 1_555
Ge6 Yb1 3.117253 1_555
Ge6 Yb3 3.190063 1_555
Ge6 Yb2 3.190063 1_555
Ge7 Yb3 3.074107 1_655
Ge7 Yb2 3.074107 1_565
Ge7 Yb2 3.117253 1_555
Ge7 Yb3 3.117253 1_555
Ge7 Yb0 3.190063 1_555
Ge7 Yb1 3.190063 1_555
Ge8 Yb0 3.127618 1_545
Ge8 Yb1 3.139832 1_555
Ge9 Yb1 3.127618 1_455
Ge9 Yb0 3.139832 1_555
Ge10 Ge8 2.522919 1_564
Ge10 Ge3 2.581233 1_565
Ge10 Yb2 3.127618 1_565
Ge10 Yb3 3.139832 1_555
Ge11 Ge9 2.522919 1_654
Ge11 Ge3 2.581233 1_655
Ge11 Yb3 3.127618 1_655
Ge11 Yb2 3.139832 1_555
