# generated using pymatgen
data_YbP2(HO3)3
_symmetry_space_group_name_H-M   'P 1'
_cell_length_a   8.42037600
_cell_length_b   9.21545700
_cell_length_c   10.85551900
_cell_angle_alpha   90.00000000
_cell_angle_beta   90.00000000
_cell_angle_gamma   90.00000000
_symmetry_Int_Tables_number   1
_chemical_formula_structural   YbP2(HO3)3
_chemical_formula_sum   'Yb4 P8 H12 O36'
_cell_volume   842.36236175
_cell_formula_units_Z   4
loop_
 _symmetry_equiv_pos_site_id
 _symmetry_equiv_pos_as_xyz
  1  'x, y, z'
loop_
 _atom_site_type_symbol
 _atom_site_label
 _atom_site_symmetry_multiplicity
 _atom_site_fract_x
 _atom_site_fract_y
 _atom_site_fract_z
 _atom_site_occupancy
  Yb  Yb0  1  0.47910000  0.48895800  0.72898000  1
  Yb  Yb1  1  0.47910000  0.51104200  0.27102000  1
  Yb  Yb2  1  0.97910000  0.98895800  0.77102000  1
  Yb  Yb3  1  0.97910000  0.01104200  0.22898000  1
  P  P0  1  0.26762200  0.16400000  0.34016400  1
  P  P1  1  0.26762200  0.83600000  0.65983600  1
  P  P2  1  0.76762200  0.66400000  0.15983600  1
  P  P3  1  0.76762200  0.33600000  0.84016400  1
  P  P4  1  0.16507400  0.34375400  0.66202800  1
  P  P5  1  0.16507400  0.65624600  0.33797200  1
  P  P6  1  0.66507400  0.84375400  0.83797200  1
  P  P7  1  0.66507400  0.15624600  0.16202800  1
  H  H0  1  0.37676000  0.00000000  0.50000000  1
  H  H1  1  0.87676000  0.50000000  0.00000000  1
  H  H2  1  0.04289800  0.50000000  0.50000000  1
  H  H3  1  0.54289800  0.00000000  0.00000000  1
  H  H4  1  0.84994700  0.39310200  0.64717400  1
  H  H5  1  0.84994700  0.60689800  0.35282600  1
  H  H6  1  0.34994700  0.89310200  0.85282600  1
  H  H7  1  0.34994700  0.10689800  0.14717400  1
  H  H8  1  0.59876200  0.97832700  0.67460400  1
  H  H9  1  0.59876200  0.02167300  0.32539600  1
  H  H10  1  0.09876200  0.47832700  0.82539600  1
  H  H11  1  0.09876200  0.52167300  0.17460400  1
  O  O0  1  0.10125100  0.19322900  0.70015400  1
  O  O1  1  0.10125100  0.80677100  0.29984600  1
  O  O2  1  0.60125100  0.69322900  0.79984600  1
  O  O3  1  0.60125100  0.30677100  0.20015400  1
  O  O4  1  0.09848100  0.85065800  0.61321600  1
  O  O5  1  0.09848100  0.14934200  0.38678400  1
  O  O6  1  0.59848100  0.35065800  0.88678400  1
  O  O7  1  0.59848100  0.64934200  0.11321600  1
  O  O8  1  0.33130500  0.68075000  0.65823000  1
  O  O9  1  0.33130500  0.31925000  0.34177000  1
  O  O10  1  0.83130500  0.18075000  0.84177000  1
  O  O11  1  0.83130500  0.81925000  0.15823000  1
  O  O12  1  0.03104500  0.41848800  0.58714500  1
  O  O13  1  0.03104500  0.58151200  0.41285500  1
  O  O14  1  0.53104500  0.91848800  0.91285500  1
  O  O15  1  0.53104500  0.08151200  0.08714500  1
  O  O16  1  0.66191500  0.62440600  0.60891700  1
  O  O17  1  0.66191500  0.37559400  0.39108300  1
  O  O18  1  0.16191500  0.12440600  0.89108300  1
  O  O19  1  0.16191500  0.87559400  0.10891700  1
  O  O20  1  0.74882600  0.38276100  0.69655600  1
  O  O21  1  0.74882600  0.61723900  0.30344400  1
  O  O22  1  0.24882600  0.88276100  0.80344400  1
  O  O23  1  0.24882600  0.11723900  0.19655600  1
  O  O24  1  0.69542900  0.94046900  0.71472300  1
  O  O25  1  0.69542900  0.05953100  0.28527700  1
  O  O26  1  0.19542900  0.44046900  0.78527700  1
  O  O27  1  0.19542900  0.55953100  0.21472300  1
  O  O28  1  0.32903200  0.33930600  0.60633500  1
  O  O29  1  0.32903200  0.66069400  0.39366500  1
  O  O30  1  0.82903200  0.83930600  0.89366500  1
  O  O31  1  0.82903200  0.16069400  0.10633500  1
  O  O32  1  0.38788300  0.94240100  0.60010300  1
  O  O33  1  0.38788300  0.05759900  0.39989700  1
  O  O34  1  0.88788300  0.44240100  0.89989700  1
  O  O35  1  0.88788300  0.55759900  0.10010300  1
loop_
_geom_bond_atom_site_label_1
_geom_bond_atom_site_label_2
_geom_bond_distance
_geom_bond_site_symmetry_2
H0 O33 1.213002 1_555
H0 O32 1.213002 1_545
H1 O35 1.213002 1_555
H1 O34 1.213002 1_554
H2 O13 1.212082 1_555
H2 O12 1.212082 1_555
H3 O15 1.212082 1_555
H3 O14 1.212082 1_544
H4 O20 1.010674 1_555
H4 O12 1.674734 1_655
H5 O21 1.010674 1_555
H5 O13 1.674734 1_655
H6 O22 1.010674 1_555
H6 O14 1.674734 1_555
H7 O23 1.010674 1_555
H7 O15 1.674734 1_555
H8 O24 0.986883 1_555
H9 O25 0.986883 1_555
H10 O26 0.986883 1_555
H11 O27 0.986883 1_555
O0 P4 1.544122 1_555
O0 Yb2 2.278893 1_445
O1 P5 1.544122 1_555
O1 Yb3 2.278893 1_465
O2 P6 1.544122 1_555
O2 Yb0 2.278893 1_555
O3 P7 1.544122 1_555
O3 Yb1 2.278893 1_555
O4 P1 1.517498 1_555
O4 Yb2 2.359949 1_455
O5 P0 1.517498 1_555
O5 Yb3 2.359949 1_455
O6 P3 1.517498 1_555
O6 Yb0 2.359949 1_555
O7 P2 1.517498 1_555
O7 Yb1 2.359949 1_555
O8 P1 1.527990 1_555
O8 Yb0 2.294015 1_555
O9 P0 1.527990 1_555
O9 Yb1 2.294015 1_555
O10 P3 1.527990 1_555
O10 Yb2 2.294015 1_545
O11 P2 1.527990 1_555
O11 Yb3 2.294015 1_565
O12 P4 1.552030 1_555
O13 P5 1.552030 1_555
O14 P6 1.552030 1_555
O15 P7 1.552030 1_555
O16 Yb0 2.372007 1_555
O17 Yb1 2.372007 1_555
O18 Yb2 2.372007 1_445
O19 Yb3 2.372007 1_465
O20 P3 1.625127 1_555
O20 Yb0 2.497995 1_555
O21 P2 1.625127 1_555
O21 Yb1 2.497995 1_555
O22 P1 1.625127 1_555
O22 Yb2 2.497995 1_455
O23 P0 1.625127 1_555
O23 Yb3 2.497995 1_455
O24 P6 1.627809 1_555
O24 Yb2 2.505723 1_555
O25 P7 1.627809 1_555
O25 Yb3 2.505723 1_555
O26 P4 1.627809 1_555
O26 Yb0 2.505723 1_555
O27 P5 1.627809 1_555
O27 Yb1 2.505723 1_555
O28 P4 1.507719 1_555
O28 Yb0 2.295924 1_555
O29 P5 1.507719 1_555
O29 Yb1 2.295924 1_555
O30 P6 1.507719 1_555
O30 Yb2 2.295924 1_555
O31 P7 1.507719 1_555
O31 Yb3 2.295924 1_555
O32 P1 1.551566 1_555
O33 P0 1.551566 1_555
O34 P3 1.551566 1_555
O35 P2 1.551566 1_555
