# generated using pymatgen
data_ZnIr
_symmetry_space_group_name_H-M   'P 1'
_cell_length_a   5.55435812
_cell_length_b   5.55435812
_cell_length_c   8.32772414
_cell_angle_alpha   90.00000000
_cell_angle_beta   90.00000000
_cell_angle_gamma   119.99993757
_symmetry_Int_Tables_number   1
_chemical_formula_structural   ZnIr
_chemical_formula_sum   'Zn8 Ir8'
_cell_volume   222.49742573
_cell_formula_units_Z   8
loop_
 _symmetry_equiv_pos_site_id
 _symmetry_equiv_pos_as_xyz
  1  'x, y, z'
loop_
 _atom_site_type_symbol
 _atom_site_label
 _atom_site_symmetry_multiplicity
 _atom_site_fract_x
 _atom_site_fract_y
 _atom_site_fract_z
 _atom_site_occupancy
  Zn  Zn0_0  1  0.33333350  0.16666650  0.25000000  1
  Zn  Zn0_1  1  0.33333350  0.16666650  0.75000000  1
  Zn  Zn0_2  1  0.33333350  0.66666650  0.25000000  1
  Zn  Zn0_3  1  0.33333350  0.66666650  0.75000000  1
  Zn  Zn0_4  1  0.83333350  0.16666650  0.25000000  1
  Zn  Zn0_5  1  0.83333350  0.16666650  0.75000000  1
  Zn  Zn0_6  1  0.83333350  0.66666650  0.25000000  1
  Zn  Zn0_7  1  0.83333350  0.66666650  0.75000000  1
  Ir  Ir0_0  1  0.00000000  0.00000000  0.00000000  1
  Ir  Ir0_1  1  0.00000000  0.00000000  0.50000000  1
  Ir  Ir0_2  1  0.00000000  0.50000000  0.00000000  1
  Ir  Ir0_3  1  0.00000000  0.50000000  0.50000000  1
  Ir  Ir0_4  1  0.50000000  0.00000000  0.00000000  1
  Ir  Ir0_5  1  0.50000000  0.00000000  0.50000000  1
  Ir  Ir0_6  1  0.50000000  0.50000000  0.00000000  1
  Ir  Ir0_7  1  0.50000000  0.50000000  0.50000000  1
loop_
_geom_bond_atom_site_label_1
_geom_bond_atom_site_label_2
_geom_bond_distance
_geom_bond_site_symmetry_2
Zn0_0 Zn0_4 2.777179 1_555
Zn0_0 Zn0_2 2.777179 1_555
Zn0_0 Zn0_2 2.777179 1_545
Zn0_0 Zn0_4 2.777179 1_455
Zn0_0 Zn0_6 2.777182 1_555
Zn0_0 Zn0_6 2.777182 1_445
Zn0_1 Zn0_3 2.777179 1_555
Zn0_1 Zn0_5 2.777179 1_555
Zn0_1 Zn0_5 2.777179 1_455
Zn0_1 Zn0_3 2.777179 1_545
Zn0_1 Zn0_7 2.777182 1_445
Zn0_1 Zn0_7 2.777182 1_555
Zn0_2 Zn0_6 2.777179 1_455
Zn0_2 Zn0_6 2.777179 1_555
Zn0_2 Zn0_4 2.777182 1_455
Zn0_2 Zn0_4 2.777182 1_565
Zn0_3 Zn0_7 2.777179 1_455
Zn0_3 Zn0_7 2.777179 1_555
Zn0_3 Zn0_5 2.777182 1_565
Zn0_3 Zn0_5 2.777182 1_455
Zn0_4 Zn0_6 2.777179 1_555
Zn0_4 Zn0_6 2.777179 1_545
Zn0_5 Zn0_7 2.777179 1_555
Zn0_5 Zn0_7 2.777179 1_545
Ir0_0 Zn0_4 2.627801 1_455
Ir0_0 Zn0_5 2.627801 1_454
Ir0_0 Zn0_6 2.627803 1_445
Ir0_0 Zn0_0 2.627803 1_555
Ir0_0 Zn0_7 2.627803 1_444
Ir0_0 Zn0_1 2.627803 1_554
Ir0_0 Ir0_4 2.777179 1_555
Ir0_0 Ir0_2 2.777179 1_545
Ir0_0 Ir0_2 2.777179 1_555
Ir0_0 Ir0_4 2.777179 1_455
Ir0_0 Ir0_6 2.777182 1_445
Ir0_0 Ir0_6 2.777182 1_555
Ir0_1 Zn0_4 2.627801 1_455
Ir0_1 Zn0_5 2.627801 1_455
Ir0_1 Zn0_6 2.627803 1_445
Ir0_1 Zn0_0 2.627803 1_555
Ir0_1 Zn0_1 2.627803 1_555
Ir0_1 Zn0_7 2.627803 1_445
Ir0_1 Ir0_3 2.777179 1_555
Ir0_1 Ir0_5 2.777179 1_555
Ir0_1 Ir0_3 2.777179 1_545
Ir0_1 Ir0_5 2.777179 1_455
Ir0_1 Ir0_7 2.777182 1_555
Ir0_1 Ir0_7 2.777182 1_445
Ir0_2 Zn0_6 2.627801 1_455
Ir0_2 Zn0_7 2.627801 1_454
Ir0_2 Zn0_4 2.627803 1_455
Ir0_2 Zn0_2 2.627803 1_555
Ir0_2 Zn0_3 2.627803 1_554
Ir0_2 Zn0_5 2.627803 1_454
Ir0_2 Ir0_6 2.777179 1_555
Ir0_2 Ir0_6 2.777179 1_455
Ir0_2 Ir0_4 2.777182 1_455
Ir0_2 Ir0_4 2.777182 1_565
Ir0_3 Zn0_6 2.627801 1_455
Ir0_3 Zn0_7 2.627801 1_455
Ir0_3 Zn0_4 2.627803 1_455
Ir0_3 Zn0_2 2.627803 1_555
Ir0_3 Zn0_5 2.627803 1_455
Ir0_3 Zn0_3 2.627803 1_555
Ir0_3 Ir0_7 2.777179 1_555
Ir0_3 Ir0_7 2.777179 1_455
Ir0_3 Ir0_5 2.777182 1_565
Ir0_3 Ir0_5 2.777182 1_455
Ir0_4 Zn0_0 2.627801 1_555
Ir0_4 Zn0_1 2.627801 1_554
Ir0_4 Zn0_5 2.627803 1_554
Ir0_4 Zn0_4 2.627803 1_555
Ir0_4 Zn0_2 2.627803 1_545
Ir0_4 Zn0_3 2.627803 1_544
Ir0_4 Ir0_6 2.777179 1_545
Ir0_4 Ir0_6 2.777179 1_555
Ir0_5 Zn0_0 2.627801 1_555
Ir0_5 Zn0_1 2.627801 1_555
Ir0_5 Zn0_4 2.627803 1_555
Ir0_5 Zn0_2 2.627803 1_545
Ir0_5 Zn0_5 2.627803 1_555
Ir0_5 Zn0_3 2.627803 1_545
Ir0_5 Ir0_7 2.777179 1_555
Ir0_5 Ir0_7 2.777179 1_545
Ir0_6 Zn0_2 2.627801 1_555
Ir0_6 Zn0_3 2.627801 1_554
Ir0_6 Zn0_0 2.627803 1_555
Ir0_6 Zn0_6 2.627803 1_555
Ir0_6 Zn0_1 2.627803 1_554
Ir0_6 Zn0_7 2.627803 1_554
Ir0_7 Zn0_2 2.627801 1_555
Ir0_7 Zn0_3 2.627801 1_555
Ir0_7 Zn0_0 2.627803 1_555
Ir0_7 Zn0_6 2.627803 1_555
Ir0_7 Zn0_1 2.627803 1_555
Ir0_7 Zn0_7 2.627803 1_555
