# generated using pymatgen
data_NpGa5Ni
_symmetry_space_group_name_H-M   'P 1'
_cell_length_a   4.24977497
_cell_length_b   4.21190357
_cell_length_c   6.76663360
_cell_angle_alpha   90.00000000
_cell_angle_beta   90.00000000
_cell_angle_gamma   90.00000000
_symmetry_Int_Tables_number   1
_chemical_formula_structural   NpGa5Ni
_chemical_formula_sum   'Np1 Ga5 Ni1'
_cell_volume   121.12032147
_cell_formula_units_Z   1
loop_
 _symmetry_equiv_pos_site_id
 _symmetry_equiv_pos_as_xyz
  1  'x, y, z'
loop_
 _atom_site_type_symbol
 _atom_site_label
 _atom_site_symmetry_multiplicity
 _atom_site_fract_x
 _atom_site_fract_y
 _atom_site_fract_z
 _atom_site_occupancy
  Np  Np0  1  -0.00000000  0.00000000  -0.00000000  1
  Ga  Ga0  1  -0.00000000  0.50000000  0.30810410  1
  Ga  Ga1  1  -0.00000000  0.50000000  0.69189590  1
  Ga  Ga2  1  0.50000000  -0.00000000  0.30783222  1
  Ga  Ga3  1  0.50000000  0.00000000  0.69216778  1
  Ga  Ga4  1  0.50000000  0.50000000  -0.00000000  1
  Ni  Ni0  1  0.00000000  0.00000000  0.50000000  1
loop_
_geom_bond_atom_site_label_1
_geom_bond_atom_site_label_2
_geom_bond_distance
_geom_bond_site_symmetry_2
Ga0 Ni0 2.474087 1_555
Ga0 Ni0 2.474087 1_565
Ga0 Ga1 2.596978 1_555
Ga0 Np0 2.963366 1_565
Ga0 Np0 2.963366 1_555
Ga0 Ga4 2.976853 1_555
Ga0 Ga4 2.976853 1_455
Ga0 Ga2 2.991686 1_565
Ga0 Ga2 2.991686 1_465
Ga0 Ga2 2.991686 1_455
Ga0 Ga2 2.991686 1_555
Ga1 Ni0 2.474087 1_555
Ga1 Ni0 2.474087 1_565
Ga1 Np0 2.963366 1_566
Ga1 Np0 2.963366 1_556
Ga1 Ga4 2.976853 1_456
Ga1 Ga4 2.976853 1_556
Ga1 Ga3 2.991686 1_565
Ga1 Ga3 2.991686 1_465
Ga1 Ga3 2.991686 1_455
Ga1 Ga3 2.991686 1_555
Ga2 Ni0 2.491185 1_555
Ga2 Ni0 2.491185 1_655
Ga2 Ga3 2.600658 1_555
Ga2 Ga4 2.962072 1_545
Ga2 Ga4 2.962072 1_555
Ga2 Np0 2.975565 1_655
Ga2 Np0 2.975565 1_555
Ga3 Ni0 2.491185 1_555
Ga3 Ni0 2.491185 1_655
Ga3 Ga4 2.962072 1_556
Ga3 Ga4 2.962072 1_546
Ga3 Np0 2.975565 1_656
Ga3 Np0 2.975565 1_556
Ga4 Np0 2.991685 1_565
Ga4 Np0 2.991685 1_655
Ga4 Np0 2.991685 1_665
Ga4 Np0 2.991685 1_555
