# generated using pymatgen
data_Cr2B3Os
_symmetry_space_group_name_H-M   'P 1'
_cell_length_a   2.91788600
_cell_length_b   4.26381700
_cell_length_c   17.37833319
_cell_angle_alpha   89.54532379
_cell_angle_beta   90.00000000
_cell_angle_gamma   90.00000000
_symmetry_Int_Tables_number   1
_chemical_formula_structural   Cr2B3Os
_chemical_formula_sum   'Cr8 B12 Os4'
_cell_volume   216.20280385
_cell_formula_units_Z   4
loop_
 _symmetry_equiv_pos_site_id
 _symmetry_equiv_pos_as_xyz
  1  'x, y, z'
loop_
 _atom_site_type_symbol
 _atom_site_label
 _atom_site_symmetry_multiplicity
 _atom_site_fract_x
 _atom_site_fract_y
 _atom_site_fract_z
 _atom_site_occupancy
  Cr  Cr0  1  0.00000000  0.88811400  0.60525200  1
  Cr  Cr1  1  0.00000000  0.88657100  0.27340300  1
  Cr  Cr2  1  0.50000000  0.38745900  0.89296300  1
  Cr  Cr3  1  0.50000000  0.37634800  0.56353500  1
  Cr  Cr4  1  0.50000000  0.37715000  0.23445800  1
  Cr  Cr5  1  0.50000000  0.11056700  0.72001000  1
  Cr  Cr6  1  0.50000000  0.10939300  0.38934100  1
  Cr  Cr7  1  0.50000000  0.11886900  0.06297400  1
  B  B0  1  0.00000000  0.12120600  0.81990500  1
  B  B1  1  0.00000000  0.11437900  0.48849500  1
  B  B2  1  0.00000000  0.11515500  0.15843600  1
  B  B3  1  0.00000000  0.38324800  0.98983500  1
  B  B4  1  0.00000000  0.38343700  0.65241000  1
  B  B5  1  0.00000000  0.38511300  0.32281000  1
  B  B6  1  0.50000000  0.90052300  0.84149600  1
  B  B7  1  0.50000000  0.90026400  0.51193500  1
  B  B8  1  0.50000000  0.90210200  0.18129100  1
  B  B9  1  0.50000000  0.60764800  0.67219700  1
  B  B10  1  0.50000000  0.60970100  0.34295000  1
  B  B11  1  0.50000000  0.60025100  0.01172200  1
  Os  Os0  1  0.00000000  0.61342900  0.76884000  1
  Os  Os1  1  0.00000000  0.60961800  0.44136900  1
  Os  Os2  1  0.00000000  0.60712200  0.11323800  1
  Os  Os3  1  0.00000000  0.89233300  0.94113600  1
loop_
_geom_bond_atom_site_label_1
_geom_bond_atom_site_label_2
_geom_bond_distance
_geom_bond_site_symmetry_2
Cr2 Os3 2.694099 1_645
Cr2 Os3 2.694099 1_545
Cr2 Os3 2.737159 1_555
Cr2 Os3 2.737159 1_655
Cr2 Os0 2.770689 1_555
Cr2 Os0 2.770689 1_655
Cr3 Os1 2.755282 1_555
Cr3 Os1 2.755282 1_655
Cr4 Os2 2.737699 1_655
Cr4 Os2 2.737699 1_555
Cr5 Os0 2.704295 1_645
Cr5 Os0 2.704295 1_545
Cr5 Os0 2.733990 1_555
Cr5 Os0 2.733990 1_655
Cr6 Os1 2.730638 1_645
Cr6 Os1 2.730638 1_545
Cr6 Os1 2.743310 1_555
Cr6 Os1 2.743310 1_655
Cr7 Os2 2.693393 1_555
Cr7 Os2 2.693393 1_655
Cr7 Os3 2.752651 1_644
Cr7 Os3 2.752651 1_544
Cr7 Os2 2.760866 1_545
Cr7 Os2 2.760866 1_645
B0 B6 1.774567 1_445
B0 B6 1.774567 1_545
B0 Cr2 2.247697 1_455
B0 Cr2 2.247697 1_555
B0 Cr5 2.268380 1_555
B0 Cr5 2.268380 1_455
B0 Os0 2.272160 1_555
B0 Os3 2.314794 1_545
B0 Os0 2.346388 1_545
B1 B7 1.766923 1_445
B1 B7 1.766923 1_545
B1 Cr0 2.239797 1_545
B1 Cr6 2.258037 1_555
B1 Cr6 2.258037 1_455
B1 Cr3 2.258294 1_555
B1 Cr3 2.258294 1_455
B1 Os1 2.258796 1_555
B1 Os1 2.308829 1_545
B2 B8 1.762319 1_445
B2 B8 1.762319 1_545
B2 Cr7 2.209192 1_455
B2 Cr7 2.209192 1_555
B2 Cr1 2.216024 1_545
B2 Os2 2.234049 1_555
B2 Cr4 2.268314 1_455
B2 Cr4 2.268314 1_555
B2 Os2 2.310023 1_545
B3 Cr2 2.227654 1_455
B3 Cr2 2.227654 1_555
B3 Cr7 2.234284 1_556
B3 Cr7 2.234284 1_456
B3 Os3 2.264005 1_545
B3 Os3 2.323528 1_555
B3 Os2 2.354297 1_556
B4 B9 1.779298 1_555
B4 B9 1.779298 1_455
B4 Cr3 2.125005 1_455
B4 Cr3 2.125005 1_555
B4 Cr5 2.200131 1_555
B4 Cr5 2.200131 1_455
B4 Os0 2.255468 1_555
B4 Cr0 2.271453 1_545
B4 Cr0 2.296540 1_555
B5 Cr4 2.118485 1_455
B5 Cr4 2.118485 1_555
B5 Cr6 2.196774 1_455
B5 Cr6 2.196774 1_555
B5 Os1 2.278750 1_555
B5 Cr1 2.297750 1_555
B5 Cr1 2.298858 1_545
B6 Os3 2.264318 1_555
B6 Os3 2.264318 1_655
B6 Cr2 2.267173 1_565
B6 Cr5 2.286775 1_565
B6 Os0 2.290364 1_555
B6 Os0 2.290364 1_655
B6 Cr2 2.356811 1_555
B7 Cr0 2.181687 1_655
B7 Cr0 2.181687 1_555
B7 Cr3 2.225677 1_565
B7 Os1 2.278654 1_555
B7 Os1 2.278654 1_655
B7 Cr6 2.303020 1_565
B7 Cr3 2.400530 1_555
B8 Cr1 2.166478 1_655
B8 Cr1 2.166478 1_555
B8 Cr4 2.232961 1_565
B8 Cr7 2.247632 1_565
B8 Os2 2.265544 1_655
B8 Os2 2.265544 1_555
B8 Cr4 2.414716 1_555
B9 Cr3 2.137314 1_555
B9 Cr0 2.211332 1_655
B9 Cr0 2.211332 1_555
B9 Os0 2.224967 1_555
B9 Os0 2.224967 1_655
B9 Cr5 2.270371 1_555
B9 Cr5 2.305851 1_565
B10 B5 1.781386 1_655
B10 B5 1.781386 1_555
B10 Cr4 2.137200 1_555
B10 Cr1 2.227161 1_655
B10 Cr1 2.227161 1_555
B10 Os1 2.248073 1_555
B10 Os1 2.248073 1_655
B10 Cr6 2.274488 1_555
B10 Cr6 2.283999 1_565
B11 B3 1.770560 1_654
B11 B3 1.770560 1_554
B11 Cr7 2.230951 1_555
B11 Cr2 2.261047 1_554
B11 Os3 2.271555 1_554
B11 Os3 2.271555 1_654
B11 Os2 2.289655 1_655
B11 Os2 2.289655 1_555
B11 Cr7 2.390475 1_565
