# generated using pymatgen
data_Ho2SnAu2
_symmetry_space_group_name_H-M   'P 1'
_cell_length_a   7.92305600
_cell_length_b   7.92305600
_cell_length_c   7.48634200
_cell_angle_alpha   90.00000000
_cell_angle_beta   90.00000000
_cell_angle_gamma   90.00000000
_symmetry_Int_Tables_number   1
_chemical_formula_structural   Ho2SnAu2
_chemical_formula_sum   'Ho8 Sn4 Au8'
_cell_volume   469.95374440
_cell_formula_units_Z   4
loop_
 _symmetry_equiv_pos_site_id
 _symmetry_equiv_pos_as_xyz
  1  'x, y, z'
loop_
 _atom_site_type_symbol
 _atom_site_label
 _atom_site_symmetry_multiplicity
 _atom_site_fract_x
 _atom_site_fract_y
 _atom_site_fract_z
 _atom_site_occupancy
  Ho  Ho0  1  0.84250600  0.15749400  0.50000000  1
  Ho  Ho1  1  0.15749400  0.84250600  0.50000000  1
  Ho  Ho2  1  0.34250600  0.34250600  0.00000000  1
  Ho  Ho3  1  0.65749400  0.65749400  0.00000000  1
  Ho  Ho4  1  0.68425900  0.68425900  0.50000000  1
  Ho  Ho5  1  0.31574100  0.31574100  0.50000000  1
  Ho  Ho6  1  0.18425900  0.81574100  0.00000000  1
  Ho  Ho7  1  0.81574100  0.18425900  0.00000000  1
  Sn  Sn0  1  0.50000000  0.00000000  0.25000000  1
  Sn  Sn1  1  0.00000000  0.50000000  0.75000000  1
  Sn  Sn2  1  0.50000000  0.00000000  0.75000000  1
  Sn  Sn3  1  0.00000000  0.50000000  0.25000000  1
  Au  Au0  1  0.62757400  0.37242600  0.27807800  1
  Au  Au1  1  0.37242600  0.62757400  0.27807800  1
  Au  Au2  1  0.12757400  0.12757400  0.77807800  1
  Au  Au3  1  0.87242600  0.87242600  0.77807800  1
  Au  Au4  1  0.37242600  0.62757400  0.72192200  1
  Au  Au5  1  0.62757400  0.37242600  0.72192200  1
  Au  Au6  1  0.87242600  0.87242600  0.22192200  1
  Au  Au7  1  0.12757400  0.12757400  0.22192200  1
loop_
_geom_bond_atom_site_label_1
_geom_bond_atom_site_label_2
_geom_bond_distance
_geom_bond_site_symmetry_2
Ho0 Sn0 3.524778 1_555
Ho0 Sn2 3.524778 1_555
Ho0 Sn1 3.524778 1_655
Ho0 Sn3 3.524778 1_655
Ho1 Sn1 3.524778 1_555
Ho1 Sn3 3.524778 1_555
Ho1 Sn0 3.524778 1_565
Ho1 Sn2 3.524778 1_565
Ho2 Sn0 3.524778 1_555
Ho2 Sn3 3.524778 1_555
Ho2 Sn2 3.524778 1_554
Ho2 Sn1 3.524778 1_554
Ho3 Sn0 3.524778 1_565
Ho3 Sn2 3.524778 1_564
Ho3 Sn3 3.524778 1_655
Ho3 Sn1 3.524778 1_654
Ho4 Sn3 3.448521 1_655
Ho4 Sn1 3.448521 1_655
Ho4 Sn2 3.448521 1_565
Ho4 Sn0 3.448521 1_565
Ho5 Sn0 3.448521 1_555
Ho5 Sn2 3.448521 1_555
Ho5 Sn3 3.448521 1_555
Ho5 Sn1 3.448521 1_555
Ho6 Sn3 3.448521 1_555
Ho6 Sn1 3.448521 1_554
Ho6 Sn0 3.448521 1_565
Ho6 Sn2 3.448521 1_564
Ho7 Sn2 3.448521 1_554
Ho7 Sn0 3.448521 1_555
Ho7 Sn3 3.448521 1_655
Ho7 Sn1 3.448521 1_654
Au0 Au1 2.858906 1_555
Au0 Ho0 2.925758 1_555
Au0 Ho7 2.962963 1_555
Au0 Ho5 3.010999 1_555
Au0 Ho4 3.010999 1_555
Au0 Ho2 3.080804 1_555
Au0 Ho3 3.080804 1_555
Au0 Sn0 3.126146 1_555
Au0 Sn3 3.126146 1_655
Au0 Au5 3.322768 1_555
Au1 Ho1 2.925758 1_555
Au1 Ho6 2.962963 1_555
Au1 Ho5 3.010999 1_555
Au1 Ho4 3.010999 1_555
Au1 Ho2 3.080804 1_555
Au1 Ho3 3.080804 1_555
Au1 Sn3 3.126146 1_555
Au1 Sn0 3.126146 1_565
Au1 Au4 3.322768 1_555
Au2 Au3 2.858906 1_445
Au2 Ho2 2.925758 1_556
Au2 Ho5 2.962963 1_555
Au2 Ho7 3.010999 1_456
Au2 Ho6 3.010999 1_546
Au2 Ho0 3.080804 1_455
Au2 Ho1 3.080804 1_545
Au2 Sn2 3.126146 1_555
Au2 Sn1 3.126146 1_555
Au2 Au7 3.322768 1_556
Au3 Ho3 2.925758 1_556
Au3 Ho4 2.962963 1_555
Au3 Ho7 3.010999 1_566
Au3 Ho6 3.010999 1_656
Au3 Ho1 3.080804 1_655
Au3 Ho0 3.080804 1_565
Au3 Sn1 3.126146 1_655
Au3 Sn2 3.126146 1_565
Au3 Au6 3.322768 1_556
Au4 Au5 2.858906 1_555
Au4 Ho1 2.925758 1_555
Au4 Ho6 2.962963 1_556
Au4 Ho5 3.010999 1_555
Au4 Ho4 3.010999 1_555
Au4 Ho2 3.080804 1_556
Au4 Ho3 3.080804 1_556
Au4 Sn1 3.126146 1_555
Au4 Sn2 3.126146 1_565
Au5 Ho0 2.925758 1_555
Au5 Ho7 2.962963 1_556
Au5 Ho5 3.010999 1_555
Au5 Ho4 3.010999 1_555
Au5 Ho2 3.080804 1_556
Au5 Ho3 3.080804 1_556
Au5 Sn2 3.126146 1_555
Au5 Sn1 3.126146 1_655
Au6 Au7 2.858906 1_665
Au6 Ho3 2.925758 1_555
Au6 Ho4 2.962963 1_555
Au6 Ho6 3.010999 1_655
Au6 Ho7 3.010999 1_565
Au6 Ho0 3.080804 1_565
Au6 Ho1 3.080804 1_655
Au6 Sn3 3.126146 1_655
Au6 Sn0 3.126146 1_565
Au7 Ho2 2.925758 1_555
Au7 Ho5 2.962963 1_555
Au7 Ho6 3.010999 1_545
Au7 Ho7 3.010999 1_455
Au7 Ho1 3.080804 1_545
Au7 Ho0 3.080804 1_455
Au7 Sn0 3.126146 1_555
Au7 Sn3 3.126146 1_555
