# generated using pymatgen
data_PrThCN
_symmetry_space_group_name_H-M   'P 1'
_cell_length_a   6.46911144
_cell_length_b   6.46911144
_cell_length_c   6.46911226
_cell_angle_alpha   33.71725416
_cell_angle_beta   33.71725416
_cell_angle_gamma   33.71725730
_symmetry_Int_Tables_number   1
_chemical_formula_structural   PrThCN
_chemical_formula_sum   'Pr1 Th1 C1 N1'
_cell_volume   74.32346076
_cell_formula_units_Z   1
loop_
 _symmetry_equiv_pos_site_id
 _symmetry_equiv_pos_as_xyz
  1  'x, y, z'
loop_
 _atom_site_type_symbol
 _atom_site_label
 _atom_site_symmetry_multiplicity
 _atom_site_fract_x
 _atom_site_fract_y
 _atom_site_fract_z
 _atom_site_occupancy
  Pr  Pr0  1  0.74997000  0.74997000  0.74997000  1
  Th  Th0  1  0.24911200  0.24911200  0.24911200  1
  C  C0  1  0.99464900  0.99464900  0.99464900  1
  N  N0  1  0.50627000  0.50626900  0.50626900  1
loop_
_geom_bond_atom_site_label_1
_geom_bond_atom_site_label_2
_geom_bond_distance
_geom_bond_site_symmetry_2
C0 Th0 2.602550 1_656
C0 Th0 2.602550 1_566
C0 Th0 2.602550 1_665
C0 Pr0 2.705804 1_565
C0 Pr0 2.705804 1_655
C0 Pr0 2.705805 1_556
N0 Th0 2.575569 1_655
N0 Th0 2.575572 1_565
N0 Th0 2.575573 1_556
N0 Pr0 2.716561 1_545
N0 Pr0 2.716561 1_554
N0 Pr0 2.716563 1_455
