# generated using pymatgen
data_Sr4Bi2O
_symmetry_space_group_name_H-M   'P 1'
_cell_length_a   9.51580166
_cell_length_b   9.51580166
_cell_length_c   9.51580166
_cell_angle_alpha   149.34932823
_cell_angle_beta   149.34932823
_cell_angle_gamma   43.89736505
_symmetry_Int_Tables_number   1
_chemical_formula_structural   Sr4Bi2O
_chemical_formula_sum   'Sr4 Bi2 O1'
_cell_volume   223.31185849
_cell_formula_units_Z   1
loop_
 _symmetry_equiv_pos_site_id
 _symmetry_equiv_pos_as_xyz
  1  'x, y, z'
loop_
 _atom_site_type_symbol
 _atom_site_label
 _atom_site_symmetry_multiplicity
 _atom_site_fract_x
 _atom_site_fract_y
 _atom_site_fract_z
 _atom_site_occupancy
  Sr  Sr0  1  0.83496841  0.83496841  -0.00000000  1
  Sr  Sr1  1  0.17023005  0.17023005  -0.00000000  1
  Sr  Sr2  1  0.99808055  0.49808055  0.50000000  1
  Sr  Sr3  1  0.49808055  0.99808055  0.50000000  1
  Bi  Bi0  1  0.63778488  0.63778488  0.00000000  1
  Bi  Bi1  1  0.36025977  0.36025977  -0.00000000  1
  O  O0  1  0.99019579  0.99019579  0.00000000  1
loop_
_geom_bond_atom_site_label_1
_geom_bond_atom_site_label_2
_geom_bond_distance
_geom_bond_site_symmetry_2
Bi0 Sr0 3.480718 1_555
Bi0 Sr2 3.522345 1_555
Bi0 Sr3 3.522345 1_555
Bi0 Sr3 3.522345 1_544
Bi0 Sr2 3.522345 1_454
Bi0 Sr1 3.602595 1_554
Bi0 Sr1 3.602595 1_565
Bi0 Sr1 3.602595 1_655
Bi0 Sr1 3.602595 1_666
Bi1 Sr1 3.354438 1_555
Bi1 Sr3 3.499147 1_555
Bi1 Sr2 3.499147 1_555
Bi1 Sr3 3.499147 1_544
Bi1 Sr2 3.499147 1_454
Bi1 Sr0 3.584688 1_444
Bi1 Sr0 3.584688 1_545
Bi1 Sr0 3.584688 1_455
Bi1 Sr0 3.584688 1_556
O0 Sr2 2.518870 1_554
O0 Sr3 2.518870 1_554
O0 Sr3 2.518870 1_655
O0 Sr2 2.518870 1_565
O0 Sr0 2.740101 1_555
O0 Sr1 3.177996 1_665
