# generated using pymatgen
data_MgMn(NiSb)2
_symmetry_space_group_name_H-M   'P 1'
_cell_length_a   4.34343310
_cell_length_b   4.34343310
_cell_length_c   7.59776210
_cell_angle_alpha   73.39114700
_cell_angle_beta   90.00000000
_cell_angle_gamma   120.00000000
_symmetry_Int_Tables_number   1
_chemical_formula_structural   MgMn(NiSb)2
_chemical_formula_sum   'Mg1 Mn1 Ni2 Sb2'
_cell_volume   117.17552091
_cell_formula_units_Z   1
loop_
 _symmetry_equiv_pos_site_id
 _symmetry_equiv_pos_as_xyz
  1  'x, y, z'
loop_
 _atom_site_type_symbol
 _atom_site_label
 _atom_site_symmetry_multiplicity
 _atom_site_fract_x
 _atom_site_fract_y
 _atom_site_fract_z
 _atom_site_occupancy
  Mg  Mg0  1  0.99693700  0.99387300  0.00919000  1
  Mn  Mn0  1  0.50233000  0.00466000  0.49301000  1
  Ni  Ni0  1  0.24745500  0.49491100  0.25763400  1
  Ni  Ni1  1  0.75082900  0.50165800  0.74751300  1
  Sb  Sb0  1  0.87084800  0.74169600  0.38745500  1
  Sb  Sb1  1  0.38160100  0.76320200  0.85519700  1
loop_
_geom_bond_atom_site_label_1
_geom_bond_atom_site_label_2
_geom_bond_distance
_geom_bond_site_symmetry_2
Mg0 Sb0 2.712915 1_555
Mg0 Sb1 2.740117 1_654
Mg0 Sb1 2.740120 1_664
Mg0 Sb1 2.740120 1_554
Mg0 Ni0 3.076263 1_655
Mg0 Ni0 3.076269 1_555
Mg0 Ni0 3.076270 1_665
Mg0 Ni1 3.132194 1_664
Mg0 Ni1 3.132194 1_554
Mg0 Ni1 3.132197 1_564
Mn0 Sb1 2.597603 1_545
Mn0 Sb0 2.619459 1_555
Mn0 Sb0 2.619463 1_545
Mn0 Sb0 2.619463 1_445
Mn0 Ni0 3.022945 1_655
Mn0 Ni0 3.022945 1_545
Mn0 Ni0 3.022948 1_555
Mn0 Ni1 3.101640 1_445
Mn0 Ni1 3.101640 1_545
Mn0 Ni1 3.101640 1_555
Ni0 Sb0 2.674949 1_455
Ni0 Sb0 2.674953 1_555
Ni0 Sb0 2.674956 1_445
Ni0 Sb1 2.886276 1_554
Ni1 Sb0 2.582334 1_555
Ni1 Sb1 2.623915 1_545
Ni1 Sb1 2.623915 1_655
Ni1 Sb1 2.623915 1_555
