# generated using pymatgen
data_ScFe3O8
_symmetry_space_group_name_H-M   'P 1'
_cell_length_a   5.79630076
_cell_length_b   5.79630076
_cell_length_c   6.29443560
_cell_angle_alpha   60.52197193
_cell_angle_beta   60.52197193
_cell_angle_gamma   60.81217397
_symmetry_Int_Tables_number   1
_chemical_formula_structural   ScFe3O8
_chemical_formula_sum   'Sc1 Fe3 O8'
_cell_volume   151.62199072
_cell_formula_units_Z   1
loop_
 _symmetry_equiv_pos_site_id
 _symmetry_equiv_pos_as_xyz
  1  'x, y, z'
loop_
 _atom_site_type_symbol
 _atom_site_label
 _atom_site_symmetry_multiplicity
 _atom_site_fract_x
 _atom_site_fract_y
 _atom_site_fract_z
 _atom_site_occupancy
  Sc  Sc0  1  0.50000000  0.50000000  0.00000000  1
  Fe  Fe0  1  0.12048900  0.12048900  0.61967800  1
  Fe  Fe1  1  0.87951100  0.87951100  0.38032200  1
  Fe  Fe2  1  0.50000000  0.50000000  0.50000000  1
  O  O0  1  0.73983200  0.73983200  0.28575300  1
  O  O1  1  0.75422400  0.75422400  0.72216400  1
  O  O2  1  0.72802800  0.26907500  0.26242200  1
  O  O3  1  0.26907500  0.72802800  0.26242200  1
  O  O4  1  0.26016800  0.26016800  0.71424700  1
  O  O5  1  0.24577600  0.24577600  0.27783600  1
  O  O6  1  0.27197200  0.73092500  0.73757800  1
  O  O7  1  0.73092500  0.27197200  0.73757800  1
loop_
_geom_bond_atom_site_label_1
_geom_bond_atom_site_label_2
_geom_bond_distance
_geom_bond_site_symmetry_2
Fe0 O5 1.767267 1_555
Fe0 O4 1.803678 1_555
Fe0 O6 1.865131 1_545
Fe0 O7 1.865131 1_455
Fe1 O1 1.767267 1_555
Fe1 O0 1.803678 1_555
Fe1 O3 1.865131 1_655
Fe1 O2 1.865131 1_565
Fe2 O4 1.969359 1_555
Fe2 O0 1.969359 1_555
Fe2 O3 2.018421 1_555
Fe2 O6 2.018421 1_555
Fe2 O7 2.018421 1_555
Fe2 O2 2.018421 1_555
O1 Sc0 2.108680 1_556
O2 Sc0 2.124657 1_555
O3 Sc0 2.124657 1_555
O5 Sc0 2.108680 1_555
O6 Sc0 2.124657 1_556
O7 Sc0 2.124657 1_556
