# generated using pymatgen
data_DyNi5
_symmetry_space_group_name_H-M   'P 1'
_cell_length_a   4.82625346
_cell_length_b   4.82638766
_cell_length_c   3.91044943
_cell_angle_alpha   90.00000000
_cell_angle_beta   90.00000000
_cell_angle_gamma   119.99625301
_symmetry_Int_Tables_number   1
_chemical_formula_structural   DyNi5
_chemical_formula_sum   'Dy1 Ni5'
_cell_volume   78.88710713
_cell_formula_units_Z   1
loop_
 _symmetry_equiv_pos_site_id
 _symmetry_equiv_pos_as_xyz
  1  'x, y, z'
loop_
 _atom_site_type_symbol
 _atom_site_label
 _atom_site_symmetry_multiplicity
 _atom_site_fract_x
 _atom_site_fract_y
 _atom_site_fract_z
 _atom_site_occupancy
  Dy  Dy0  1  0.00000000  0.00000000  0.00000000  1
  Ni  Ni0  1  0.00000000  0.50000000  0.50000000  1
  Ni  Ni1  1  0.33327647  0.66659004  -0.00000000  1
  Ni  Ni2  1  0.66672353  0.33340996  -0.00000000  1
  Ni  Ni3  1  0.50000000  0.00000000  0.50000000  1
  Ni  Ni4  1  0.50000000  0.50000000  0.50000000  1
loop_
_geom_bond_atom_site_label_1
_geom_bond_atom_site_label_2
_geom_bond_distance
_geom_bond_site_symmetry_2
Dy0 Ni1 2.786301 1_555
Dy0 Ni2 2.786301 1_445
Dy0 Ni2 2.786508 1_455
Dy0 Ni1 2.786508 1_545
Dy0 Ni1 2.786782 1_445
Dy0 Ni2 2.786782 1_555
Dy0 Ni3 3.105815 1_555
Dy0 Ni3 3.105815 1_554
Dy0 Ni3 3.105815 1_455
Dy0 Ni3 3.105815 1_454
Dy0 Ni0 3.105867 1_555
Dy0 Ni0 3.105867 1_545
Dy0 Ni0 3.105867 1_544
Dy0 Ni0 3.105867 1_554
Dy0 Ni4 3.105947 1_444
Dy0 Ni4 3.105947 1_445
Dy0 Ni4 3.105947 1_555
Dy0 Ni4 3.105947 1_554
Ni0 Ni2 2.400718 1_455
Ni0 Ni2 2.400718 1_456
Ni0 Ni1 2.400718 1_556
Ni0 Ni1 2.400718 1_555
Ni0 Ni4 2.413127 1_455
Ni0 Ni4 2.413127 1_555
Ni0 Ni3 2.413297 1_455
Ni0 Ni3 2.413297 1_565
Ni1 Ni4 2.400774 1_555
Ni1 Ni4 2.400774 1_554
Ni1 Ni3 2.401065 1_564
Ni1 Ni3 2.401065 1_565
Ni2 Ni4 2.400774 1_555
Ni2 Ni4 2.400774 1_554
Ni2 Ni3 2.401065 1_554
Ni2 Ni3 2.401065 1_555
Ni3 Ni4 2.413194 1_555
Ni3 Ni4 2.413194 1_545
