# generated using pymatgen
data_Ba7GeB3BrO13
_symmetry_space_group_name_H-M   'P 1'
_cell_length_a   7.56704942
_cell_length_b   11.33207780
_cell_length_c   20.66018911
_cell_angle_alpha   90.00000000
_cell_angle_beta   90.00000000
_cell_angle_gamma   90.00000000
_symmetry_Int_Tables_number   1
_chemical_formula_structural   Ba7GeB3BrO13
_chemical_formula_sum   'Ba28 Ge4 B12 Br4 O52'
_cell_volume   1771.61933035
_cell_formula_units_Z   4
loop_
 _symmetry_equiv_pos_site_id
 _symmetry_equiv_pos_as_xyz
  1  'x, y, z'
loop_
 _atom_site_type_symbol
 _atom_site_label
 _atom_site_symmetry_multiplicity
 _atom_site_fract_x
 _atom_site_fract_y
 _atom_site_fract_z
 _atom_site_occupancy
  Ba  Ba0  1  0.53231730  0.50000000  0.72565549  1
  Ba  Ba1  1  0.46768270  0.50000000  0.27434451  1
  Ba  Ba2  1  0.96768270  0.50000000  0.22565549  1
  Ba  Ba3  1  0.03231730  0.50000000  0.77434451  1
  Ba  Ba4  1  0.61774637  -0.00000000  0.62764919  1
  Ba  Ba5  1  0.38225363  -0.00000000  0.37235081  1
  Ba  Ba6  1  0.88225363  -0.00000000  0.12764919  1
  Ba  Ba7  1  0.11774637  -0.00000000  0.87235081  1
  Ba  Ba8  1  0.86594680  0.50000000  0.58348846  1
  Ba  Ba9  1  0.13405320  0.50000000  0.41651154  1
  Ba  Ba10  1  0.63405320  0.50000000  0.08348846  1
  Ba  Ba11  1  0.36594680  0.50000000  0.91651154  1
  Ba  Ba12  1  -0.00000000  0.18832309  0.50000000  1
  Ba  Ba13  1  0.50000000  0.81167691  -0.00000000  1
  Ba  Ba14  1  -0.00000000  0.81167691  0.50000000  1
  Ba  Ba15  1  0.50000000  0.18832309  0.00000000  1
  Ba  Ba16  1  0.50000000  0.26921868  0.50000000  1
  Ba  Ba17  1  -0.00000000  0.73078132  0.00000000  1
  Ba  Ba18  1  0.50000000  0.73078132  0.50000000  1
  Ba  Ba19  1  -0.00000000  0.26921868  0.00000000  1
  Ba  Ba20  1  0.20877505  0.23550848  0.68410000  1
  Ba  Ba21  1  0.79122495  0.23550848  0.31590000  1
  Ba  Ba22  1  0.29122495  0.76449152  0.18410000  1
  Ba  Ba23  1  0.70877505  0.76449152  0.81590000  1
  Ba  Ba24  1  0.79122495  0.76449152  0.31590000  1
  Ba  Ba25  1  0.20877505  0.76449152  0.68410000  1
  Ba  Ba26  1  0.70877505  0.23550848  0.81590000  1
  Ba  Ba27  1  0.29122495  0.23550848  0.18410000  1
  Ge  Ge0  1  0.29103096  0.50000000  0.58293064  1
  Ge  Ge1  1  0.70896904  0.50000000  0.41706936  1
  Ge  Ge2  1  0.20896904  0.50000000  0.08293064  1
  Ge  Ge3  1  0.79103096  0.50000000  0.91706936  1
  B  B0  1  0.72600764  0.27825555  0.65958283  1
  B  B1  1  0.27399236  0.27825555  0.34041717  1
  B  B2  1  0.77399236  0.72174445  0.15958283  1
  B  B3  1  0.22600764  0.72174445  0.84041717  1
  B  B4  1  0.27399236  0.72174445  0.34041717  1
  B  B5  1  0.72600764  0.72174445  0.65958283  1
  B  B6  1  0.22600764  0.27825555  0.84041717  1
  B  B7  1  0.77399236  0.27825555  0.15958283  1
  B  B8  1  0.28052304  -0.00000000  0.54870007  1
  B  B9  1  0.71947696  -0.00000000  0.45129993  1
  B  B10  1  0.21947696  -0.00000000  0.04870007  1
  B  B11  1  0.78052304  -0.00000000  0.95129993  1
  Br  Br0  1  0.95336377  -0.00000000  0.72138457  1
  Br  Br1  1  0.04663623  -0.00000000  0.27861543  1
  Br  Br2  1  0.54663623  -0.00000000  0.22138457  1
  Br  Br3  1  0.45336377  -0.00000000  0.77861543  1
  O  O0  1  0.77702979  -0.00000000  0.51513724  1
  O  O1  1  0.22297021  -0.00000000  0.48486276  1
  O  O2  1  0.72297021  -0.00000000  0.01513724  1
  O  O3  1  0.27702979  -0.00000000  0.98486276  1
  O  O4  1  0.33307763  0.64453334  0.80403550  1
  O  O5  1  0.66692237  0.64453334  0.19596450  1
  O  O6  1  0.16692237  0.35546666  0.30403550  1
  O  O7  1  0.83307763  0.35546666  0.69596450  1
  O  O8  1  0.66692237  0.35546666  0.19596450  1
  O  O9  1  0.33307763  0.35546666  0.80403550  1
  O  O10  1  0.83307763  0.64453334  0.69596450  1
  O  O11  1  0.16692237  0.64453334  0.30403550  1
  O  O12  1  0.56697640  0.24169434  0.68689701  1
  O  O13  1  0.43302360  0.24169434  0.31310299  1
  O  O14  1  0.93302360  0.75830566  0.18689701  1
  O  O15  1  0.06697640  0.75830566  0.81310299  1
  O  O16  1  0.43302360  0.75830566  0.31310299  1
  O  O17  1  0.56697640  0.75830566  0.68689701  1
  O  O18  1  0.06697640  0.24169434  0.81310299  1
  O  O19  1  0.93302360  0.24169434  0.18689701  1
  O  O20  1  0.31103234  0.10686256  0.58017375  1
  O  O21  1  0.68896766  0.10686256  0.41982625  1
  O  O22  1  0.18896766  0.89313744  0.08017375  1
  O  O23  1  0.81103234  0.89313744  0.91982625  1
  O  O24  1  0.68896766  0.89313744  0.41982625  1
  O  O25  1  0.31103234  0.89313744  0.58017375  1
  O  O26  1  0.81103234  0.10686256  0.91982625  1
  O  O27  1  0.18896766  0.10686256  0.08017375  1
  O  O28  1  0.77828258  0.24397052  0.59799139  1
  O  O29  1  0.22171742  0.24397052  0.40200861  1
  O  O30  1  0.72171742  0.75602948  0.09799139  1
  O  O31  1  0.27828258  0.75602948  0.90200861  1
  O  O32  1  0.22171742  0.75602948  0.40200861  1
  O  O33  1  0.77828258  0.75602948  0.59799139  1
  O  O34  1  0.27828258  0.24397052  0.90200861  1
  O  O35  1  0.72171742  0.24397052  0.09799139  1
  O  O36  1  0.19376247  0.37433635  0.54557989  1
  O  O37  1  0.80623753  0.37433635  0.45442011  1
  O  O38  1  0.30623753  0.62566365  0.04557989  1
  O  O39  1  0.69376247  0.62566365  0.95442011  1
  O  O40  1  0.80623753  0.62566365  0.45442011  1
  O  O41  1  0.19376247  0.62566365  0.54557989  1
  O  O42  1  0.69376247  0.37433635  0.95442011  1
  O  O43  1  0.30623753  0.37433635  0.04557989  1
  O  O44  1  0.21802095  0.50000000  0.66525088  1
  O  O45  1  0.78197905  0.50000000  0.33474912  1
  O  O46  1  0.28197905  0.50000000  0.16525088  1
  O  O47  1  0.71802095  0.50000000  0.83474912  1
  O  O48  1  0.52333089  0.50000000  0.58075055  1
  O  O49  1  0.47666911  0.50000000  0.41924945  1
  O  O50  1  0.97666911  0.50000000  0.08075055  1
  O  O51  1  0.02333089  0.50000000  0.91924945  1
loop_
_geom_bond_atom_site_label_1
_geom_bond_atom_site_label_2
_geom_bond_distance
_geom_bond_site_symmetry_2
Ba0 O47 2.656070 1_555
Ba0 O44 2.685837 1_555
Ba0 O4 2.752799 1_555
Ba0 O9 2.752799 1_555
Ba0 O10 2.870271 1_555
Ba0 O7 2.870271 1_555
Ba0 O48 2.994536 1_555
Ba0 O12 3.046005 1_555
Ba0 O17 3.046005 1_555
Ba1 O46 2.656070 1_555
Ba1 O45 2.685837 1_555
Ba1 O8 2.752799 1_555
Ba1 O5 2.752799 1_555
Ba1 O11 2.870271 1_555
Ba1 O6 2.870271 1_555
Ba1 O49 2.994536 1_555
Ba1 O16 3.046005 1_555
Ba1 O13 3.046005 1_555
Ba2 O45 2.656070 1_555
Ba2 O46 2.685837 1_655
Ba2 O11 2.752799 1_655
Ba2 O6 2.752799 1_655
Ba2 O5 2.870271 1_555
Ba2 O8 2.870271 1_555
Ba2 O50 2.994536 1_555
Ba2 O19 3.046005 1_555
Ba2 O14 3.046005 1_555
Ba3 O44 2.656070 1_555
Ba3 O47 2.685837 1_455
Ba3 O10 2.752799 1_455
Ba3 O7 2.752799 1_455
Ba3 O4 2.870271 1_555
Ba3 O9 2.870271 1_555
Ba3 O51 2.994536 1_555
Ba3 O15 3.046005 1_555
Ba3 O18 3.046005 1_555
Ba4 O0 2.618424 1_555
Ba4 O25 2.795568 1_545
Ba4 O20 2.795568 1_555
Ba4 O17 3.024485 1_545
Ba4 O12 3.024485 1_555
Ba4 O33 3.081343 1_545
Ba4 O28 3.081343 1_555
Ba4 Br0 3.193763 1_555
Ba4 Br3 3.357882 1_555
Ba5 O1 2.618424 1_555
Ba5 O24 2.795568 1_545
Ba5 O21 2.795568 1_555
Ba5 O13 3.024485 1_555
Ba5 O16 3.024485 1_545
Ba5 O32 3.081343 1_545
Ba5 O29 3.081343 1_555
Ba5 Br1 3.193763 1_555
Ba5 Br2 3.357882 1_555
Ba6 O2 2.618424 1_555
Ba6 O27 2.795568 1_655
Ba6 O22 2.795568 1_645
Ba6 O14 3.024485 1_545
Ba6 O19 3.024485 1_555
Ba6 O35 3.081343 1_555
Ba6 O30 3.081343 1_545
Ba6 Br2 3.193763 1_555
Ba6 Br1 3.357882 1_655
Ba7 O3 2.618424 1_555
Ba7 O26 2.795568 1_455
Ba7 O23 2.795568 1_445
Ba7 O15 3.024485 1_545
Ba7 O18 3.024485 1_555
Ba7 O31 3.081343 1_545
Ba7 O34 3.081343 1_555
Ba7 Br3 3.193763 1_555
Ba7 Br0 3.357882 1_455
Ba8 O48 2.593209 1_555
Ba8 O10 2.853839 1_555
Ba8 O7 2.853839 1_555
Ba8 O41 2.965573 1_655
Ba8 O36 2.965573 1_655
Ba8 O28 2.991260 1_555
Ba8 O33 2.991260 1_555
Ba8 O37 3.056573 1_555
Ba8 O40 3.056573 1_555
Ba8 O44 3.154560 1_655
Ba9 O49 2.593209 1_555
Ba9 O11 2.853839 1_555
Ba9 O6 2.853839 1_555
Ba9 O37 2.965573 1_455
Ba9 O40 2.965573 1_455
Ba9 O29 2.991260 1_555
Ba9 O32 2.991260 1_555
Ba9 O36 3.056573 1_555
Ba9 O41 3.056573 1_555
Ba9 O45 3.154560 1_455
Ba10 O50 2.593209 1_555
Ba10 O5 2.853839 1_555
Ba10 O8 2.853839 1_555
Ba10 O38 2.965573 1_555
Ba10 O43 2.965573 1_555
Ba10 O35 2.991260 1_555
Ba10 O30 2.991260 1_555
Ba10 O39 3.056573 1_554
Ba10 O42 3.056573 1_554
Ba10 O46 3.154560 1_555
Ba11 O51 2.593209 1_555
Ba11 O4 2.853839 1_555
Ba11 O9 2.853839 1_555
Ba11 O39 2.965573 1_555
Ba11 O42 2.965573 1_555
Ba11 O34 2.991260 1_555
Ba11 O31 2.991260 1_555
Ba11 O43 3.056573 1_556
Ba11 O38 3.056573 1_556
Ba11 O47 3.154560 1_555
Ba12 O29 2.703919 1_555
Ba12 O28 2.703919 1_455
Ba12 O36 2.734934 1_555
Ba12 O37 2.734934 1_455
Ba12 O1 2.738410 1_555
Ba12 O0 2.738410 1_455
Ba12 O21 3.022456 1_455
Ba12 O20 3.022456 1_555
Ba13 O30 2.703919 1_555
Ba13 O31 2.703919 1_554
Ba13 O38 2.734934 1_555
Ba13 O39 2.734934 1_554
Ba13 O2 2.738410 1_565
Ba13 O3 2.738410 1_564
Ba13 O22 3.022456 1_555
Ba13 O23 3.022456 1_554
Ba14 O33 2.703919 1_455
Ba14 O32 2.703919 1_555
Ba14 O41 2.734934 1_555
Ba14 O40 2.734934 1_455
Ba14 O0 2.738410 1_465
Ba14 O1 2.738410 1_565
Ba14 O24 3.022456 1_455
Ba14 O25 3.022456 1_555
Ba15 O34 2.703919 1_554
Ba15 O35 2.703919 1_555
Ba15 O42 2.734934 1_554
Ba15 O43 2.734934 1_555
Ba15 O2 2.738410 1_555
Ba15 O3 2.738410 1_554
Ba15 O27 3.022456 1_555
Ba15 O26 3.022456 1_554
Ba16 O36 2.770503 1_555
Ba16 O37 2.770503 1_555
Ba16 O21 2.858908 1_555
Ba16 O20 2.858908 1_555
Ba16 O28 2.935106 1_555
Ba16 O29 2.935106 1_555
Ba16 O48 3.107073 1_555
Ba16 O49 3.107073 1_555
Ba17 O39 2.770503 1_454
Ba17 O38 2.770503 1_555
Ba17 O22 2.858908 1_555
Ba17 O23 2.858908 1_454
Ba17 O30 2.935106 1_455
Ba17 O31 2.935106 1_554
Ba17 O50 3.107073 1_455
Ba17 O51 3.107073 1_554
Ba18 O41 2.770503 1_555
Ba18 O40 2.770503 1_555
Ba18 O24 2.858908 1_555
Ba18 O25 2.858908 1_555
Ba18 O33 2.935106 1_555
Ba18 O32 2.935106 1_555
Ba18 O49 3.107073 1_555
Ba18 O48 3.107073 1_555
Ba19 O42 2.770503 1_454
Ba19 O43 2.770503 1_555
Ba19 O27 2.858908 1_555
Ba19 O26 2.858908 1_454
Ba19 O35 2.935106 1_455
Ba19 O34 2.935106 1_554
Ba19 O51 3.107073 1_554
Ba19 O50 3.107073 1_455
Ba20 O20 2.708172 1_555
Ba20 O12 2.712049 1_555
Ba20 O18 2.873964 1_555
Ba20 O9 2.978687 1_555
Ba20 O44 3.023241 1_555
Ba20 O7 3.160726 1_455
Ba20 O36 3.267734 1_555
Ba20 Br0 3.383967 1_455
Ba20 Br3 3.789601 1_555
Ba21 O21 2.708172 1_555
Ba21 O13 2.712049 1_555
Ba21 O19 2.873964 1_555
Ba21 O8 2.978687 1_555
Ba21 O45 3.023241 1_555
Ba21 O6 3.160726 1_655
Ba21 O37 3.267734 1_555
Ba21 Br1 3.383967 1_655
Ba21 Br2 3.789601 1_555
Ba22 O22 2.708172 1_555
Ba22 O14 2.712049 1_455
Ba22 O16 2.873964 1_555
Ba22 O11 2.978687 1_555
Ba22 O46 3.023241 1_555
Ba22 O5 3.160726 1_555
Ba22 O38 3.267734 1_555
Ba22 Br2 3.383967 1_565
Ba22 Br1 3.789601 1_565
Ba23 O23 2.708172 1_555
Ba23 O15 2.712049 1_655
Ba23 O17 2.873964 1_555
Ba23 O10 2.978687 1_555
Ba23 O47 3.023241 1_555
Ba23 O4 3.160726 1_555
Ba23 O39 3.267734 1_555
Ba23 Br3 3.383967 1_565
Ba23 Br0 3.789601 1_565
Ba24 O24 2.708172 1_555
Ba24 O16 2.712049 1_555
Ba24 O14 2.873964 1_555
Ba24 O5 2.978687 1_555
Ba24 O45 3.023241 1_555
Ba24 O11 3.160726 1_655
Ba24 O40 3.267734 1_555
Ba24 Br1 3.383967 1_665
Ba24 Br2 3.789601 1_565
Ba25 O25 2.708172 1_555
Ba25 O17 2.712049 1_555
Ba25 O15 2.873964 1_555
Ba25 O4 2.978687 1_555
Ba25 O44 3.023241 1_555
Ba25 O10 3.160726 1_455
Ba25 O41 3.267734 1_555
Ba25 Br0 3.383967 1_465
Ba25 Br3 3.789601 1_565
Ba26 O26 2.708172 1_555
Ba26 O18 2.712049 1_655
Ba26 O12 2.873964 1_555
Ba26 O7 2.978687 1_555
Ba26 O47 3.023241 1_555
Ba26 O9 3.160726 1_555
Ba26 O42 3.267734 1_555
Ba26 Br3 3.383967 1_555
Ba26 Br0 3.789601 1_555
Ba27 O27 2.708172 1_555
Ba27 O19 2.712049 1_455
Ba27 O13 2.873964 1_555
Ba27 O6 2.978687 1_555
Ba27 O46 3.023241 1_555
Ba27 O8 3.160726 1_555
Ba27 O43 3.267734 1_555
Ba27 Br2 3.383967 1_555
Ba27 Br1 3.789601 1_555
Ge0 O48 1.758402 1_555
Ge0 O36 1.779070 1_555
Ge0 O41 1.779070 1_555
Ge0 O44 1.788234 1_555
Ge1 O49 1.758402 1_555
Ge1 O40 1.779070 1_555
Ge1 O37 1.779070 1_555
Ge1 O45 1.788234 1_555
Ge2 O50 1.758402 1_455
Ge2 O43 1.779070 1_555
Ge2 O38 1.779070 1_555
Ge2 O46 1.788234 1_555
Ge3 O51 1.758402 1_655
Ge3 O39 1.779070 1_555
Ge3 O42 1.779070 1_555
Ge3 O47 1.788234 1_555
B0 O28 1.388040 1_555
B0 O12 1.392219 1_555
B0 O7 1.409599 1_555
B1 O29 1.388040 1_555
B1 O13 1.392219 1_555
B1 O6 1.409599 1_555
B2 O30 1.388040 1_555
B2 O14 1.392219 1_555
B2 O5 1.409599 1_555
B3 O31 1.388040 1_555
B3 O15 1.392219 1_555
B3 O4 1.409599 1_555
B4 O32 1.388040 1_555
B4 O16 1.392219 1_555
B4 O11 1.409599 1_555
B5 O33 1.388040 1_555
B5 O17 1.392219 1_555
B5 O10 1.409599 1_555
B6 O34 1.388040 1_555
B6 O18 1.392219 1_555
B6 O9 1.409599 1_555
B7 O35 1.388040 1_555
B7 O19 1.392219 1_555
B7 O8 1.409599 1_555
B8 O1 1.388934 1_555
B8 O20 1.393767 1_555
B8 O25 1.393767 1_545
B9 O0 1.388934 1_555
B9 O21 1.393767 1_555
B9 O24 1.393767 1_545
B10 O3 1.388934 1_554
B10 O27 1.393767 1_555
B10 O22 1.393767 1_545
B11 O2 1.388934 1_556
B11 O26 1.393767 1_555
B11 O23 1.393767 1_545
