# generated using pymatgen
data_Mo2P4C14SNCl4
_symmetry_space_group_name_H-M   'P 1'
_cell_length_a   8.77672600
_cell_length_b   9.67409813
_cell_length_c   18.37479178
_cell_angle_alpha   99.12577696
_cell_angle_beta   102.25596835
_cell_angle_gamma   102.06171207
_symmetry_Int_Tables_number   1
_chemical_formula_structural   Mo2P4C14SNCl4
_chemical_formula_sum   'Mo4 P8 C28 S2 N2 Cl8'
_cell_volume   1456.91768552
_cell_formula_units_Z   2
loop_
 _symmetry_equiv_pos_site_id
 _symmetry_equiv_pos_as_xyz
  1  'x, y, z'
loop_
 _atom_site_type_symbol
 _atom_site_label
 _atom_site_symmetry_multiplicity
 _atom_site_fract_x
 _atom_site_fract_y
 _atom_site_fract_z
 _atom_site_occupancy
  Mo  Mo0  1  0.85304900  0.87000700  0.75021100  1
  Mo  Mo1  1  0.14695100  0.12999300  0.24978900  1
  Mo  Mo2  1  0.73979100  0.62672800  0.80787000  1
  Mo  Mo3  1  0.26020900  0.37327200  0.19213000  1
  P  P0  1  0.77614800  0.05084300  0.67245400  1
  P  P1  1  0.22385200  0.94915700  0.32754600  1
  P  P2  1  0.81821000  0.71817400  0.60209200  1
  P  P3  1  0.18179000  0.28182600  0.39790800  1
  P  P4  1  0.66464500  0.83085400  0.89591700  1
  P  P5  1  0.33535500  0.16914600  0.10408300  1
  P  P6  1  0.49906800  0.42981500  0.77936500  1
  P  P7  1  0.50093200  0.57018500  0.22063500  1
  C  C0  1  0.87132200  0.14192400  0.86593800  1
  C  C1  1  0.12867800  0.85807600  0.13406200  1
  C  C2  1  0.88430300  0.26684100  0.90729700  1
  C  C3  1  0.11569700  0.73315900  0.09270300  1
  C  C4  1  0.57330900  0.02572300  0.61293400  1
  C  C5  1  0.42669100  0.97427700  0.38706600  1
  C  C6  1  0.55023000  0.00049100  0.53493800  1
  C  C7  1  0.44977000  0.99950900  0.46506200  1
  C  C8  1  0.70263700  0.99286400  0.57238600  1
  C  C9  1  0.29736300  0.00713600  0.42761400  1
  C  C10  1  0.84187200  0.54728700  0.55853400  1
  C  C11  1  0.15812800  0.45271300  0.44146600  1
  C  C12  1  0.96607500  0.54122000  0.52307800  1
  C  C13  1  0.03392500  0.45878000  0.47692200  1
  C  C14  1  0.97149000  0.67950800  0.56043900  1
  C  C15  1  0.02851000  0.32049200  0.43956100  1
  C  C16  1  0.66333200  0.84095200  0.00408500  1
  C  C17  1  0.33666800  0.15904800  0.99591500  1
  C  C18  1  0.51612400  0.78514100  0.95451200  1
  C  C19  1  0.48387600  0.21485900  0.04548800  1
  C  C20  1  0.44932700  0.82378000  0.88848300  1
  C  C21  1  0.55067300  0.17622000  0.11151700  1
  C  C22  1  0.30269000  0.36124100  0.71472000  1
  C  C23  1  0.69731000  0.63875900  0.28528000  1
  C  C24  1  0.34887100  0.34173400  0.82134300  1
  C  C25  1  0.65112900  0.65826600  0.17865700  1
  C  C26  1  0.22359400  0.38066300  0.77388700  1
  C  C27  1  0.77640600  0.61933700  0.22611300  1
  S  S0  1  0.58885300  0.72313200  0.72022800  1
  S  S1  1  0.41114700  0.27686800  0.27977200  1
  N  N0  1  0.85698100  0.02102800  0.82371200  1
  N  N1  1  0.14301900  0.97897200  0.17628800  1
  Cl  Cl0  1  0.02151500  0.75885100  0.83138400  1
  Cl  Cl1  1  0.97848500  0.24114900  0.16861600  1
  Cl  Cl2  1  0.07663400  0.99983200  0.70770100  1
  Cl  Cl3  1  0.92336600  0.00016800  0.29229900  1
  Cl  Cl4  1  0.81658700  0.43356000  0.74136400  1
  Cl  Cl5  1  0.18341300  0.56644000  0.25863600  1
  Cl  Cl6  1  0.77489800  0.57952800  0.93127300  1
  Cl  Cl7  1  0.22510200  0.42047200  0.06872700  1
loop_
_geom_bond_atom_site_label_1
_geom_bond_atom_site_label_2
_geom_bond_distance
_geom_bond_site_symmetry_2
Mo0 N0 1.814651 1_565
Mo0 S0 2.351918 1_555
Mo0 P0 2.536598 1_565
Mo0 P2 2.801661 1_555
Mo1 N1 1.814651 1_545
Mo1 S1 2.351918 1_555
Mo1 P1 2.536598 1_545
Mo1 P3 2.801661 1_555
Mo2 S0 2.303288 1_555
Mo2 P6 2.428700 1_555
Mo2 P4 2.633612 1_555
Mo3 S1 2.303288 1_555
Mo3 P7 2.428700 1_555
Mo3 P5 2.633612 1_555
C0 N0 1.262890 1_555
C0 C2 1.290458 1_555
C1 N1 1.262890 1_555
C1 C3 1.290458 1_555
C4 C6 1.378289 1_555
C4 C8 1.542493 1_545
C4 P0 1.825585 1_555
C5 C7 1.378289 1_555
C5 C9 1.542493 1_565
C5 P1 1.825585 1_555
C6 C8 1.390960 1_545
C6 C7 1.392137 1_545
C7 C9 1.390960 1_565
C8 P0 1.769108 1_565
C9 P1 1.769108 1_545
C10 C12 1.390083 1_555
C10 C14 1.514032 1_555
C10 P2 1.791943 1_555
C11 C13 1.390083 1_555
C11 C15 1.514032 1_555
C11 P3 1.791943 1_555
C12 C13 1.381420 1_655
C12 C14 1.389796 1_555
C13 C15 1.389796 1_555
C14 P2 1.758456 1_555
C15 P3 1.758456 1_555
C16 C18 1.357689 1_554
C16 P4 1.977042 1_554
C17 C19 1.357689 1_556
C17 P5 1.977042 1_556
C18 C20 1.374375 1_555
C18 P4 1.886781 1_555
C19 C21 1.374375 1_555
C19 P5 1.886781 1_555
C20 P4 1.851493 1_555
C21 P5 1.851493 1_555
C22 C26 1.417507 1_555
C22 P6 1.795738 1_555
C23 C27 1.417507 1_555
C23 P7 1.795738 1_555
C24 C26 1.407594 1_555
C24 P6 1.797087 1_555
C25 C27 1.407594 1_555
C25 P7 1.797087 1_555
Cl0 Mo0 2.409187 1_455
Cl0 Mo2 2.446352 1_455
Cl1 Mo1 2.409187 1_655
Cl1 Mo3 2.446352 1_655
Cl2 Mo0 2.443409 1_455
Cl2 P0 2.745611 1_465
Cl3 Mo1 2.443409 1_655
Cl3 P1 2.745611 1_645
Cl4 Mo2 2.364640 1_555
Cl5 Mo3 2.364640 1_555
Cl6 Mo2 2.352789 1_555
Cl7 Mo3 2.352789 1_555
