# generated using pymatgen
data_Na(FeO2)2
_symmetry_space_group_name_H-M   'P 1'
_cell_length_a   5.14689200
_cell_length_b   5.97645300
_cell_length_c   13.01440192
_cell_angle_alpha   62.78620953
_cell_angle_beta   90.00000000
_cell_angle_gamma   90.00000000
_symmetry_Int_Tables_number   1
_chemical_formula_structural   Na(FeO2)2
_chemical_formula_sum   'Na4 Fe8 O16'
_cell_volume   356.01161061
_cell_formula_units_Z   4
loop_
 _symmetry_equiv_pos_site_id
 _symmetry_equiv_pos_as_xyz
  1  'x, y, z'
loop_
 _atom_site_type_symbol
 _atom_site_label
 _atom_site_symmetry_multiplicity
 _atom_site_fract_x
 _atom_site_fract_y
 _atom_site_fract_z
 _atom_site_occupancy
  Na  Na0  1  0.96999900  0.50000000  0.25000000  1
  Na  Na1  1  0.64504700  0.00000000  0.75000000  1
  Na  Na2  1  0.35495300  0.00000000  0.25000000  1
  Na  Na3  1  0.03000100  0.50000000  0.75000000  1
  Fe  Fe0  1  0.99906500  0.23992300  0.00833100  1
  Fe  Fe1  1  0.00093500  0.76007700  0.99166900  1
  Fe  Fe2  1  0.99906500  0.76007700  0.49166900  1
  Fe  Fe3  1  0.00093500  0.23992300  0.50833100  1
  Fe  Fe4  1  0.50000000  0.50000000  0.00000000  1
  Fe  Fe5  1  0.50000000  0.00000000  0.00000000  1
  Fe  Fe6  1  0.50000000  0.50000000  0.50000000  1
  Fe  Fe7  1  0.50000000  0.00000000  0.50000000  1
  O  O0  1  0.82601400  0.41330200  0.59206800  1
  O  O1  1  0.83518500  0.09745300  0.90745700  1
  O  O2  1  0.83518500  0.90254700  0.59254300  1
  O  O3  1  0.82601400  0.58669800  0.90793200  1
  O  O4  1  0.65801700  0.16922400  0.09034200  1
  O  O5  1  0.65801700  0.83077600  0.40965800  1
  O  O6  1  0.67598700  0.65940400  0.08756600  1
  O  O7  1  0.67598700  0.34059600  0.41243400  1
  O  O8  1  0.32401300  0.65940400  0.58756600  1
  O  O9  1  0.32401300  0.34059600  0.91243400  1
  O  O10  1  0.34198300  0.16922400  0.59034200  1
  O  O11  1  0.34198300  0.83077600  0.90965800  1
  O  O12  1  0.17398600  0.58669800  0.40793200  1
  O  O13  1  0.16481500  0.09745300  0.40745700  1
  O  O14  1  0.16481500  0.90254700  0.09254300  1
  O  O15  1  0.17398600  0.41330200  0.09206800  1
loop_
_geom_bond_atom_site_label_1
_geom_bond_atom_site_label_2
_geom_bond_distance
_geom_bond_site_symmetry_2
Na0 O6 2.413386 1_555
Na0 O7 2.413386 1_555
Na0 O13 2.546263 1_655
Na0 O14 2.546263 1_655
Na0 O15 2.563096 1_655
Na0 O12 2.563096 1_655
Na1 O11 2.418961 1_545
Na1 O10 2.418961 1_555
Na1 O0 2.559285 1_555
Na1 O3 2.559285 1_545
Na1 O2 2.566667 1_545
Na1 O1 2.566667 1_555
Na2 O4 2.418961 1_555
Na2 O5 2.418961 1_545
Na2 O12 2.559285 1_545
Na2 O15 2.559285 1_555
Na2 O14 2.566667 1_545
Na2 O13 2.566667 1_555
Na3 O8 2.413386 1_555
Na3 O9 2.413386 1_555
Na3 O2 2.546263 1_455
Na3 O1 2.546263 1_455
Na3 O3 2.563096 1_455
Na3 O0 2.563096 1_455
Fe0 O14 1.993310 1_645
Fe0 O4 1.996609 1_555
Fe0 O9 2.007481 1_654
Fe0 O15 2.026003 1_655
Fe0 O1 2.045068 1_554
Fe0 O3 2.078221 1_554
Fe1 O1 1.993310 1_465
Fe1 O11 1.996609 1_555
Fe1 O6 2.007481 1_456
Fe1 O3 2.026003 1_455
Fe1 O14 2.045068 1_556
Fe1 O15 2.078221 1_556
Fe2 O13 1.993310 1_665
Fe2 O5 1.996609 1_555
Fe2 O8 2.007481 1_655
Fe2 O12 2.026003 1_655
Fe2 O2 2.045068 1_555
Fe2 O0 2.078221 1_555
Fe3 O2 1.993310 1_445
Fe3 O10 1.996609 1_555
Fe3 O7 2.007481 1_455
Fe3 O0 2.026003 1_455
Fe3 O13 2.045068 1_555
Fe3 O12 2.078221 1_555
Fe4 O4 1.956011 1_555
Fe4 O11 1.956011 1_554
Fe4 O15 1.987935 1_555
Fe4 O3 1.987935 1_554
Fe4 O6 2.004932 1_555
Fe4 O9 2.004932 1_554
Fe5 O14 2.030857 1_545
Fe5 O1 2.030857 1_554
Fe5 O6 2.034935 1_545
Fe5 O9 2.034935 1_554
Fe5 O4 2.038201 1_555
Fe5 O11 2.038201 1_544
Fe6 O5 1.956011 1_555
Fe6 O10 1.956011 1_555
Fe6 O12 1.987935 1_555
Fe6 O0 1.987935 1_555
Fe6 O7 2.004932 1_555
Fe6 O8 2.004932 1_555
Fe7 O2 2.030857 1_545
Fe7 O13 2.030857 1_555
Fe7 O8 2.034935 1_545
Fe7 O7 2.034935 1_555
Fe7 O5 2.038201 1_545
Fe7 O10 2.038201 1_555
