# generated using pymatgen
data_YInPd
_symmetry_space_group_name_H-M   'P 1'
_cell_length_a   7.70428698
_cell_length_b   7.70428698
_cell_length_c   3.81804791
_cell_angle_alpha   90.00000000
_cell_angle_beta   90.00000000
_cell_angle_gamma   119.99999225
_symmetry_Int_Tables_number   1
_chemical_formula_structural   YInPd
_chemical_formula_sum   'Y3 In3 Pd3'
_cell_volume   196.26232634
_cell_formula_units_Z   3
loop_
 _symmetry_equiv_pos_site_id
 _symmetry_equiv_pos_as_xyz
  1  'x, y, z'
loop_
 _atom_site_type_symbol
 _atom_site_label
 _atom_site_symmetry_multiplicity
 _atom_site_fract_x
 _atom_site_fract_y
 _atom_site_fract_z
 _atom_site_occupancy
  Y  Y0  1  0.40733731  0.40733731  0.50000000  1
  Y  Y1  1  0.59266269  -0.00000000  0.50000000  1
  Y  Y2  1  -0.00000000  0.59266269  0.50000000  1
  In  In0  1  0.74020277  0.74020277  0.00000000  1
  In  In1  1  0.25979723  -0.00000000  -0.00000000  1
  In  In2  1  -0.00000000  0.25979723  0.00000000  1
  Pd  Pd0  1  0.66666700  0.33333300  -0.00000000  1
  Pd  Pd1  1  0.33333300  0.66666700  0.00000000  1
  Pd  Pd2  1  0.00000000  0.00000000  0.50000000  1
loop_
_geom_bond_atom_site_label_1
_geom_bond_atom_site_label_2
_geom_bond_distance
_geom_bond_site_symmetry_2
In0 Pd2 2.765969 1_664
In0 Pd2 2.765969 1_665
In0 Pd0 2.893276 1_555
In0 Pd1 2.893276 1_555
In0 Y0 3.197028 1_555
In0 Y0 3.197028 1_554
In0 Y1 3.349298 1_565
In0 Y2 3.349298 1_655
In0 Y1 3.349298 1_564
In0 Y2 3.349298 1_654
In1 Pd2 2.765969 1_555
In1 Pd2 2.765969 1_554
In1 Pd1 2.893268 1_545
In1 Pd0 2.893273 1_555
In1 Y1 3.197028 1_555
In1 Y1 3.197028 1_554
In1 Y0 3.349298 1_555
In1 Y0 3.349298 1_554
In1 Y2 3.349298 1_544
In1 Y2 3.349298 1_545
In2 Pd2 2.765969 1_555
In2 Pd2 2.765969 1_554
In2 Pd0 2.893268 1_455
In2 Pd1 2.893273 1_555
In2 Y2 3.197028 1_555
In2 Y2 3.197028 1_554
In2 Y0 3.349298 1_555
In2 Y0 3.349298 1_554
In2 Y1 3.349298 1_455
In2 Y1 3.349298 1_454
Pd0 Y1 3.016678 1_555
Pd0 Y1 3.016678 1_554
Pd0 Y2 3.016680 1_655
Pd0 Y2 3.016680 1_654
Pd0 Y0 3.016684 1_555
Pd0 Y0 3.016684 1_554
Pd1 Y2 3.016678 1_554
Pd1 Y2 3.016678 1_555
Pd1 Y1 3.016680 1_565
Pd1 Y1 3.016680 1_564
Pd1 Y0 3.016684 1_555
Pd1 Y0 3.016684 1_554
Pd2 Y1 3.138244 1_455
Pd2 Y2 3.138244 1_545
Pd2 Y0 3.138244 1_555
