# generated using pymatgen
data_Sm2TiCuO6
_symmetry_space_group_name_H-M   'P 1'
_cell_length_a   5.83971200
_cell_length_b   5.44905500
_cell_length_c   9.29748321
_cell_angle_alpha   54.44472298
_cell_angle_beta   90.00000000
_cell_angle_gamma   90.00000000
_symmetry_Int_Tables_number   1
_chemical_formula_structural   Sm2TiCuO6
_chemical_formula_sum   'Sm4 Ti2 Cu2 O12'
_cell_volume   240.69379107
_cell_formula_units_Z   2
loop_
 _symmetry_equiv_pos_site_id
 _symmetry_equiv_pos_as_xyz
  1  'x, y, z'
loop_
 _atom_site_type_symbol
 _atom_site_label
 _atom_site_symmetry_multiplicity
 _atom_site_fract_x
 _atom_site_fract_y
 _atom_site_fract_z
 _atom_site_occupancy
  Sm  Sm0  1  0.92850100  0.73227500  0.75051200  1
  Sm  Sm1  1  0.42850100  0.26772500  0.74948800  1
  Sm  Sm2  1  0.07149900  0.26772500  0.24948800  1
  Sm  Sm3  1  0.57149900  0.73227500  0.25051200  1
  Ti  Ti0  1  0.50000000  0.00000000  0.50000000  1
  Ti  Ti1  1  0.00000000  0.00000000  0.00000000  1
  Cu  Cu0  1  0.50000000  0.50000000  0.00000000  1
  Cu  Cu1  1  0.00000000  0.50000000  0.50000000  1
  O  O0  1  0.53556300  0.85355600  0.75156500  1
  O  O1  1  0.03556300  0.14644400  0.74843500  1
  O  O2  1  0.46443700  0.14644400  0.24843500  1
  O  O3  1  0.96443700  0.85355600  0.25156500  1
  O  O4  1  0.17836600  0.34444400  0.94781900  1
  O  O5  1  0.67836600  0.65555600  0.55218100  1
  O  O6  1  0.79088800  0.23691800  0.44503400  1
  O  O7  1  0.29088800  0.76308200  0.05496600  1
  O  O8  1  0.82163400  0.65555600  0.05218100  1
  O  O9  1  0.32163400  0.34444400  0.44781900  1
  O  O10  1  0.20911200  0.76308200  0.55496600  1
  O  O11  1  0.70911200  0.23691800  0.94503400  1
loop_
_geom_bond_atom_site_label_1
_geom_bond_atom_site_label_2
_geom_bond_distance
_geom_bond_site_symmetry_2
Cu0 O0 1.978576 1_554
Cu0 O2 1.978576 1_555
Cu0 O11 2.158576 1_554
Cu0 O7 2.158576 1_555
Cu0 O4 2.227090 1_554
Cu0 O8 2.227090 1_555
Cu1 O1 1.978576 1_555
Cu1 O3 1.978576 1_455
Cu1 O10 2.158576 1_555
Cu1 O6 2.158576 1_455
Cu1 O9 2.227090 1_555
Cu1 O5 2.227090 1_455
O0 Ti0 1.994959 1_565
O0 Sm1 2.331064 1_565
O0 Sm0 2.389510 1_555
O1 Ti1 1.994959 1_556
O1 Sm0 2.331064 1_445
O1 Sm1 2.389510 1_555
O2 Ti0 1.994959 1_555
O2 Sm3 2.331064 1_545
O2 Sm2 2.389510 1_555
O3 Ti1 1.994959 1_665
O3 Sm2 2.331064 1_665
O3 Sm3 2.389510 1_555
O4 Ti1 1.945268 1_556
O4 Sm0 2.334911 1_455
O4 Sm1 2.570061 1_555
O4 Sm2 2.658441 1_556
O5 Ti0 1.945268 1_565
O5 Sm1 2.334911 1_555
O5 Sm0 2.570061 1_555
O5 Sm3 2.658441 1_555
O6 Ti0 2.011495 1_555
O6 Sm2 2.379910 1_655
O6 Sm3 2.553585 1_555
O6 Sm0 2.681626 1_545
O7 Ti1 2.011495 1_565
O7 Sm3 2.379910 1_555
O7 Sm2 2.553585 1_555
O7 Sm1 2.681626 1_564
O8 Ti1 1.945268 1_665
O8 Sm2 2.334911 1_655
O8 Sm3 2.570061 1_555
O8 Sm0 2.658441 1_554
O9 Ti0 1.945268 1_555
O9 Sm3 2.334911 1_555
O9 Sm2 2.570061 1_555
O9 Sm1 2.658441 1_555
O10 Ti0 2.011495 1_565
O10 Sm0 2.379910 1_455
O10 Sm1 2.553585 1_555
O10 Sm2 2.681626 1_565
O11 Ti1 2.011495 1_656
O11 Sm1 2.379910 1_555
O11 Sm0 2.553585 1_555
O11 Sm3 2.681626 1_546
