# generated using pymatgen
data_Ti12Cu9(BiO18)2
_symmetry_space_group_name_H-M   'P 1'
_cell_length_a   6.47891964
_cell_length_b   10.54851714
_cell_length_c   10.54851714
_cell_angle_alpha   60.00000000
_cell_angle_beta   90.00000000
_cell_angle_gamma   90.00000000
_symmetry_Int_Tables_number   1
_chemical_formula_structural   Ti12Cu9(BiO18)2
_chemical_formula_sum   'Ti12 Cu9 Bi2 O36'
_cell_volume   624.33265505
_cell_formula_units_Z   1
loop_
 _symmetry_equiv_pos_site_id
 _symmetry_equiv_pos_as_xyz
  1  'x, y, z'
loop_
 _atom_site_type_symbol
 _atom_site_label
 _atom_site_symmetry_multiplicity
 _atom_site_fract_x
 _atom_site_fract_y
 _atom_site_fract_z
 _atom_site_occupancy
  Ti  Ti0  1  0.83333300  0.16666700  0.16666700  1
  Ti  Ti1  1  0.49667400  0.50675600  0.50944500  1
  Ti  Ti2  1  0.16999300  0.82657700  0.82388800  1
  Ti  Ti3  1  0.83333300  0.66666700  0.66666700  1
  Ti  Ti4  1  0.49462200  0.00000000  0.00000000  1
  Ti  Ti5  1  0.17204500  0.33333300  0.33333300  1
  Ti  Ti6  1  0.49667400  0.50944500  0.98379900  1
  Ti  Ti7  1  0.16999300  0.82388800  0.34953400  1
  Ti  Ti8  1  0.83333300  0.16666700  0.66666700  1
  Ti  Ti9  1  0.16999300  0.34953400  0.82657700  1
  Ti  Ti10  1  0.83333300  0.66666700  0.16666700  1
  Ti  Ti11  1  0.49667400  0.98379900  0.50675600  1
  Cu  Cu0  1  0.99594400  0.49866900  0.49876400  1
  Cu  Cu1  1  0.67072300  0.83466400  0.83456900  1
  Cu  Cu2  1  0.33333300  0.16666700  0.16666700  1
  Cu  Cu3  1  0.67072300  0.33076500  0.83466400  1
  Cu  Cu4  1  0.33333300  0.66666700  0.16666700  1
  Cu  Cu5  1  0.99594400  0.00256800  0.49866900  1
  Cu  Cu6  1  0.99594400  0.49876400  0.00256800  1
  Cu  Cu7  1  0.67072300  0.83456900  0.33076500  1
  Cu  Cu8  1  0.33333300  0.16666700  0.66666700  1
  Bi  Bi0  1  0.00919300  0.00000000  0.00000000  1
  Bi  Bi1  1  0.65747400  0.33333300  0.33333300  1
  O  O0  1  0.24531200  0.44259900  0.62251000  1
  O  O1  1  0.91852200  0.78072500  0.95873200  1
  O  O2  1  0.58275300  0.11392100  0.29188300  1
  O  O3  1  0.34631100  0.35051100  0.17371000  1
  O  O4  1  0.00325900  0.68333500  0.50262400  1
  O  O5  1  0.68125200  0.01755400  0.84028800  1
  O  O6  1  0.98541500  0.31577900  0.49304500  1
  O  O7  1  0.66340700  0.64999900  0.83071000  1
  O  O8  1  0.32035600  0.98282200  0.15962300  1
  O  O9  1  0.08391400  0.21941200  0.04145000  1
  O  O10  1  0.74814400  0.55260900  0.37460200  1
  O  O11  1  0.42135500  0.89073400  0.71082300  1
  O  O12  1  0.42135500  0.39844300  0.89073400  1
  O  O13  1  0.08391400  0.73913700  0.21941200  1
  O  O14  1  0.74814400  0.07279000  0.55260900  1
  O  O15  1  0.66340700  0.51929200  0.64999900  1
  O  O16  1  0.32035600  0.85755500  0.98282200  1
  O  O17  1  0.98541500  0.19117600  0.31577900  1
  O  O18  1  0.68125200  0.14215700  0.01755400  1
  O  O19  1  0.34631100  0.47577800  0.35051100  1
  O  O20  1  0.00325900  0.81404200  0.68333500  1
  O  O21  1  0.91852200  0.26054400  0.78072500  1
  O  O22  1  0.58275300  0.59419600  0.11392100  1
  O  O23  1  0.24531200  0.93489000  0.44259900  1
  O  O24  1  0.00325900  0.50262400  0.81404200  1
  O  O25  1  0.68125200  0.84028800  0.14215700  1
  O  O26  1  0.34631100  0.17371000  0.47577800  1
  O  O27  1  0.58275300  0.29188300  0.59419600  1
  O  O28  1  0.24531200  0.62251000  0.93489000  1
  O  O29  1  0.91852200  0.95873200  0.26054400  1
  O  O30  1  0.74814400  0.37460200  0.07279000  1
  O  O31  1  0.42135500  0.71082300  0.39844300  1
  O  O32  1  0.08391400  0.04145000  0.73913700  1
  O  O33  1  0.32035600  0.15962300  0.85755500  1
  O  O34  1  0.98541500  0.49304500  0.19117600  1
  O  O35  1  0.66340700  0.83071000  0.51929200  1
loop_
_geom_bond_atom_site_label_1
_geom_bond_atom_site_label_2
_geom_bond_distance
_geom_bond_site_symmetry_2
Cu0 O6 1.961265 1_555
Cu0 O10 1.967603 1_555
Cu0 O4 1.969197 1_655
Cu0 O0 1.972803 1_655
Cu1 O5 1.961265 1_565
Cu1 O1 1.967604 1_555
Cu1 O7 1.969182 1_555
Cu1 O11 1.972803 1_555
Cu2 O3 1.979262 1_555
Cu2 O8 1.979278 1_545
Cu2 O2 1.982589 1_555
Cu2 O9 1.982590 1_555
Cu3 O18 1.961259 1_556
Cu3 O21 1.967588 1_555
Cu3 O15 1.969198 1_555
Cu3 O12 1.972814 1_555
Cu4 O16 1.979272 1_554
Cu4 O19 1.979273 1_555
Cu4 O13 1.982578 1_555
Cu4 O22 1.982594 1_555
Cu5 O17 1.961259 1_555
Cu5 O14 1.967603 1_555
Cu5 O20 1.969197 1_645
Cu5 O23 1.972814 1_645
Cu6 O34 1.961254 1_555
Cu6 O30 1.967603 1_555
Cu6 O24 1.969197 1_654
Cu6 O28 1.972804 1_654
Cu7 O25 1.961254 1_555
Cu7 O29 1.967603 1_555
Cu7 O35 1.969213 1_555
Cu7 O31 1.972804 1_555
Cu8 O33 1.979267 1_555
Cu8 O26 1.979283 1_555
Cu8 O32 1.982588 1_555
Cu8 O27 1.982589 1_555
Bi0 O8 2.574319 1_545
Bi0 O33 2.574319 1_554
Bi0 O16 2.574319 1_544
Bi0 O9 2.606585 1_555
Bi0 O13 2.606592 1_545
Bi0 O32 2.606595 1_554
Bi0 O1 2.625183 1_444
Bi0 O21 2.625189 1_454
Bi0 O29 2.625193 1_445
Bi0 O18 2.659879 1_455
Bi0 O25 2.659883 1_445
Bi0 O5 2.659886 1_454
Bi1 O19 2.574319 1_555
Bi1 O26 2.574319 1_555
Bi1 O3 2.574319 1_555
Bi1 O2 2.606585 1_555
Bi1 O22 2.606592 1_555
Bi1 O27 2.606595 1_555
Bi1 O30 2.625178 1_555
Bi1 O14 2.625185 1_555
Bi1 O10 2.625198 1_555
Bi1 O17 2.659879 1_555
Bi1 O34 2.659883 1_555
Bi1 O6 2.659886 1_555
O0 Ti9 1.929342 1_555
O0 Ti1 1.930155 1_555
O1 Ti10 1.980967 1_556
O1 Ti2 2.055161 1_655
O2 Ti0 1.988719 1_555
O2 Ti11 2.054597 1_545
O3 Ti5 1.958987 1_555
O3 Ti6 2.101036 1_554
O4 Ti7 1.891744 1_555
O4 Ti3 1.983192 1_455
O5 Ti8 1.979497 1_555
O5 Ti4 2.005666 1_556
O6 Ti8 1.979502 1_555
O6 Ti5 2.005666 1_655
O7 Ti6 1.891739 1_555
O7 Ti3 1.983192 1_555
O8 Ti4 1.958987 1_565
O8 Ti7 2.101036 1_555
O9 Ti0 1.988731 1_455
O9 Ti9 2.054597 1_554
O10 Ti10 1.980967 1_555
O10 Ti1 2.055148 1_555
O11 Ti11 1.929342 1_555
O11 Ti2 1.930155 1_555
O12 Ti6 1.929342 1_555
O12 Ti9 1.930160 1_555
O13 Ti10 1.988720 1_455
O13 Ti7 2.054597 1_555
O14 Ti8 1.980967 1_555
O14 Ti11 2.055154 1_545
O15 Ti1 1.891744 1_555
O15 Ti3 1.983192 1_555
O16 Ti4 1.958987 1_566
O16 Ti2 2.101042 1_555
O17 Ti0 1.979497 1_555
O17 Ti5 2.005658 1_655
O18 Ti0 1.979508 1_555
O18 Ti4 2.005658 1_555
O19 Ti5 1.958987 1_555
O19 Ti1 2.101042 1_555
O20 Ti2 1.891734 1_555
O20 Ti3 1.983192 1_455
O21 Ti8 1.980967 1_555
O21 Ti9 2.055149 1_655
O22 Ti10 1.988725 1_555
O22 Ti6 2.054597 1_554
O23 Ti7 1.929342 1_555
O23 Ti11 1.930160 1_555
O24 Ti9 1.891751 1_555
O24 Ti3 1.983192 1_455
O25 Ti10 1.979490 1_555
O25 Ti4 2.005663 1_565
O26 Ti5 1.958987 1_555
O26 Ti11 2.101033 1_545
O27 Ti8 1.988720 1_555
O27 Ti1 2.054597 1_555
O28 Ti2 1.929342 1_555
O28 Ti6 1.930155 1_555
O29 Ti0 1.980967 1_565
O29 Ti7 2.055158 1_655
O30 Ti0 1.980967 1_555
O30 Ti6 2.055149 1_554
O31 Ti1 1.929342 1_555
O31 Ti7 1.930155 1_555
O32 Ti8 1.988730 1_455
O32 Ti2 2.054597 1_545
O33 Ti4 1.958987 1_556
O33 Ti9 2.101033 1_555
O34 Ti10 1.979506 1_555
O34 Ti5 2.005663 1_655
O35 Ti11 1.891735 1_555
O35 Ti3 1.983192 1_555
