# generated using pymatgen
data_HfMg6BO8
_symmetry_space_group_name_H-M   'P 1'
_cell_length_a   8.87586105
_cell_length_b   4.28455467
_cell_length_c   4.28455467
_cell_angle_alpha   90.00000000
_cell_angle_beta   90.00000000
_cell_angle_gamma   90.00000000
_symmetry_Int_Tables_number   1
_chemical_formula_structural   HfMg6BO8
_chemical_formula_sum   'Hf1 Mg6 B1 O8'
_cell_volume   162.93780904
_cell_formula_units_Z   1
loop_
 _symmetry_equiv_pos_site_id
 _symmetry_equiv_pos_as_xyz
  1  'x, y, z'
loop_
 _atom_site_type_symbol
 _atom_site_label
 _atom_site_symmetry_multiplicity
 _atom_site_fract_x
 _atom_site_fract_y
 _atom_site_fract_z
 _atom_site_occupancy
  Hf  Hf0  1  0.00000000  0.50000000  0.50000000  1
  Mg  Mg0  1  0.50000000  0.00000000  0.00000000  1
  Mg  Mg1  1  0.50000000  0.50000000  0.50000000  1
  Mg  Mg2  1  0.25656932  0.00000000  0.50000000  1
  Mg  Mg3  1  0.74343068  0.00000000  0.50000000  1
  Mg  Mg4  1  0.25656932  0.50000000  0.00000000  1
  Mg  Mg5  1  0.74343068  0.50000000  -0.00000000  1
  B  B0  1  0.00000000  0.00000000  0.00000000  1
  O  O0  1  0.26872325  0.00000000  -0.00000000  1
  O  O1  1  0.73127675  -0.00000000  0.00000000  1
  O  O2  1  0.25110306  0.50000000  0.50000000  1
  O  O3  1  0.74889694  0.50000000  0.50000000  1
  O  O4  1  0.00000000  0.00000000  0.50000000  1
  O  O5  1  0.50000000  0.00000000  0.50000000  1
  O  O6  1  0.00000000  0.50000000  0.00000000  1
  O  O7  1  0.50000000  0.50000000  0.00000000  1
loop_
_geom_bond_atom_site_label_1
_geom_bond_atom_site_label_2
_geom_bond_distance
_geom_bond_site_symmetry_2
Hf0 O4 2.142277 1_565
Hf0 O6 2.142277 1_556
Hf0 O6 2.142277 1_555
Hf0 O4 2.142277 1_555
Hf0 O3 2.228756 1_455
Hf0 O2 2.228756 1_555
Mg0 O0 2.052780 1_555
Mg0 O1 2.052780 1_555
Mg0 O5 2.142277 1_554
Mg0 O5 2.142277 1_555
Mg0 O7 2.142277 1_545
Mg0 O7 2.142277 1_555
Mg1 O5 2.142277 1_555
Mg1 O5 2.142277 1_565
Mg1 O7 2.142277 1_555
Mg1 O7 2.142277 1_556
Mg1 O2 2.209175 1_555
Mg1 O3 2.209175 1_555
Mg2 O2 2.142827 1_555
Mg2 O2 2.142827 1_545
Mg2 O0 2.144992 1_555
Mg2 O0 2.144992 1_556
Mg2 O5 2.160657 1_555
Mg2 O4 2.277274 1_555
Mg3 O3 2.142827 1_555
Mg3 O3 2.142827 1_545
Mg3 O1 2.144992 1_556
Mg3 O1 2.144992 1_555
Mg3 O5 2.160657 1_555
Mg3 O4 2.277274 1_655
Mg4 O2 2.142827 1_555
Mg4 O2 2.142827 1_554
Mg4 O0 2.144992 1_565
Mg4 O0 2.144992 1_555
Mg4 O7 2.160657 1_555
Mg4 O6 2.277274 1_555
Mg5 O3 2.142827 1_555
Mg5 O3 2.142827 1_554
Mg5 O1 2.144992 1_565
Mg5 O1 2.144992 1_555
Mg5 O7 2.160657 1_555
Mg5 O6 2.277274 1_655
B0 O6 2.142277 1_545
B0 O6 2.142277 1_555
B0 O4 2.142277 1_554
B0 O4 2.142277 1_555
