# generated using pymatgen
data_ZrCo3(BO4)2
_symmetry_space_group_name_H-M   'P 1'
_cell_length_a   3.33169300
_cell_length_b   9.37525200
_cell_length_c   9.56265600
_cell_angle_alpha   90.00000000
_cell_angle_beta   90.00000000
_cell_angle_gamma   90.00000000
_symmetry_Int_Tables_number   1
_chemical_formula_structural   ZrCo3(BO4)2
_chemical_formula_sum   'Zr2 Co6 B4 O16'
_cell_volume   298.69397296
_cell_formula_units_Z   2
loop_
 _symmetry_equiv_pos_site_id
 _symmetry_equiv_pos_as_xyz
  1  'x, y, z'
loop_
 _atom_site_type_symbol
 _atom_site_label
 _atom_site_symmetry_multiplicity
 _atom_site_fract_x
 _atom_site_fract_y
 _atom_site_fract_z
 _atom_site_occupancy
  Zr  Zr0  1  0.50000000  0.83537900  0.39862400  1
  Zr  Zr1  1  0.50000000  0.16462100  0.89862400  1
  Co  Co0  1  0.00000000  0.07762800  0.59306000  1
  Co  Co1  1  0.00000000  0.92237200  0.09306000  1
  Co  Co2  1  0.50000000  0.44052700  0.39958600  1
  Co  Co3  1  0.50000000  0.55947300  0.89958600  1
  Co  Co4  1  0.00000000  0.66700900  0.62334000  1
  Co  Co5  1  0.00000000  0.33299100  0.12334000  1
  B  B0  1  0.00000000  0.37356000  0.67148900  1
  B  B1  1  0.00000000  0.62644000  0.17148900  1
  B  B2  1  0.50000000  0.12225000  0.31864300  1
  B  B3  1  0.50000000  0.87775000  0.81864300  1
  O  O0  1  0.00000000  0.86976200  0.51818300  1
  O  O1  1  0.00000000  0.13023800  0.01818300  1
  O  O2  1  0.50000000  0.63744000  0.48829700  1
  O  O3  1  0.50000000  0.36256000  0.98829700  1
  O  O4  1  0.00000000  0.36997300  0.52913200  1
  O  O5  1  0.00000000  0.63002700  0.02913200  1
  O  O6  1  0.50000000  0.08377600  0.46007900  1
  O  O7  1  0.50000000  0.91622400  0.96007900  1
  O  O8  1  0.00000000  0.49601600  0.75162600  1
  O  O9  1  0.00000000  0.50398400  0.25162600  1
  O  O10  1  0.50000000  0.99936700  0.23224000  1
  O  O11  1  0.50000000  0.00063300  0.73224000  1
  O  O12  1  0.00000000  0.23908500  0.74504300  1
  O  O13  1  0.00000000  0.76091500  0.24504300  1
  O  O14  1  0.50000000  0.25835900  0.27065800  1
  O  O15  1  0.50000000  0.74164100  0.77065800  1
loop_
_geom_bond_atom_site_label_1
_geom_bond_atom_site_label_2
_geom_bond_distance
_geom_bond_site_symmetry_2
Co0 O0 2.076173 1_545
Co0 O6 2.096536 1_455
Co0 O6 2.096536 1_555
Co0 O12 2.098463 1_555
Co0 O11 2.251107 1_555
Co0 O11 2.251107 1_455
Co1 O1 2.076173 1_565
Co1 O7 2.096536 1_454
Co1 O7 2.096536 1_554
Co1 O13 2.098463 1_555
Co1 O10 2.251107 1_455
Co1 O10 2.251107 1_555
Co2 O2 2.031687 1_555
Co2 O14 2.106383 1_555
Co2 O4 2.178810 1_555
Co2 O4 2.178810 1_655
Co2 O9 2.265148 1_555
Co2 O9 2.265148 1_655
Co3 O3 2.031687 1_555
Co3 O15 2.106383 1_555
Co3 O5 2.178810 1_556
Co3 O5 2.178810 1_656
Co3 O8 2.265148 1_555
Co3 O8 2.265148 1_655
Co4 O8 2.018630 1_555
Co4 O2 2.125919 1_455
Co4 O2 2.125919 1_555
Co4 O0 2.150456 1_555
Co4 O15 2.291112 1_455
Co4 O15 2.291112 1_555
Co5 O9 2.018630 1_555
Co5 O3 2.125919 1_554
Co5 O3 2.125919 1_454
Co5 O1 2.150456 1_555
Co5 O14 2.291112 1_455
Co5 O14 2.291112 1_555
B0 O4 1.361726 1_555
B0 O8 1.380320 1_555
B0 O12 1.443672 1_555
B1 O5 1.361726 1_555
B1 O9 1.380320 1_555
B1 O13 1.443672 1_555
B2 O14 1.356051 1_555
B2 O6 1.399776 1_555
B2 O10 1.417715 1_545
B3 O15 1.356051 1_555
B3 O7 1.399776 1_555
B3 O11 1.417715 1_565
O0 Zr0 2.045994 1_555
O0 Zr0 2.045994 1_455
O1 Zr1 2.045994 1_554
O1 Zr1 2.045994 1_454
O2 Zr0 2.044273 1_555
O3 Zr1 2.044273 1_555
O6 Zr0 2.401790 1_545
O7 Zr1 2.401790 1_565
O10 Zr0 2.212510 1_555
O11 Zr1 2.212510 1_555
O12 Zr1 2.327944 1_555
O12 Zr1 2.327944 1_455
O13 Zr0 2.327944 1_555
O13 Zr0 2.327944 1_455
