# generated using pymatgen
data_Al3NiMo12
_symmetry_space_group_name_H-M   'P 1'
_cell_length_a   4.96658600
_cell_length_b   4.96627300
_cell_length_c   9.95159400
_cell_angle_alpha   90.00000000
_cell_angle_beta   90.00000000
_cell_angle_gamma   90.00000000
_symmetry_Int_Tables_number   1
_chemical_formula_structural   Al3NiMo12
_chemical_formula_sum   'Al3 Ni1 Mo12'
_cell_volume   245.46026512
_cell_formula_units_Z   1
loop_
 _symmetry_equiv_pos_site_id
 _symmetry_equiv_pos_as_xyz
  1  'x, y, z'
loop_
 _atom_site_type_symbol
 _atom_site_label
 _atom_site_symmetry_multiplicity
 _atom_site_fract_x
 _atom_site_fract_y
 _atom_site_fract_z
 _atom_site_occupancy
  Al  Al0  1  0.50000000  0.50000000  0.25053900  1
  Al  Al1  1  0.50000000  0.50000000  0.74946100  1
  Al  Al2  1  0.00000000  0.00000000  0.00000000  1
  Ni  Ni0  1  0.00000000  0.00000000  0.50000000  1
  Mo  Mo0  1  0.00000000  0.50000000  0.37655400  1
  Mo  Mo1  1  0.00000000  0.50000000  0.87551700  1
  Mo  Mo2  1  0.50000000  0.24751800  0.00000000  1
  Mo  Mo3  1  0.50000000  0.25011900  0.50000000  1
  Mo  Mo4  1  0.74980700  0.00000000  0.25204200  1
  Mo  Mo5  1  0.74980700  0.00000000  0.74795800  1
  Mo  Mo6  1  0.00000000  0.50000000  0.12448300  1
  Mo  Mo7  1  0.00000000  0.50000000  0.62344600  1
  Mo  Mo8  1  0.50000000  0.75248200  0.00000000  1
  Mo  Mo9  1  0.50000000  0.74988100  0.50000000  1
  Mo  Mo10  1  0.25019300  0.00000000  0.25204200  1
  Mo  Mo11  1  0.25019300  0.00000000  0.74795800  1
loop_
_geom_bond_atom_site_label_1
_geom_bond_atom_site_label_2
_geom_bond_distance
_geom_bond_site_symmetry_2
Al0 Mo3 2.775428 1_555
Al0 Mo9 2.775428 1_555
Al0 Mo4 2.775878 1_565
Al0 Mo10 2.775878 1_565
Al0 Mo4 2.775878 1_555
Al0 Mo10 2.775878 1_555
Al0 Mo0 2.781975 1_655
Al0 Mo0 2.781975 1_555
Al0 Mo6 2.782159 1_555
Al0 Mo6 2.782159 1_655
Al0 Mo8 2.790808 1_555
Al0 Mo2 2.790808 1_555
Al1 Mo9 2.775428 1_555
Al1 Mo3 2.775428 1_555
Al1 Mo11 2.775878 1_555
Al1 Mo5 2.775878 1_555
Al1 Mo5 2.775878 1_565
Al1 Mo11 2.775878 1_565
Al1 Mo7 2.781975 1_655
Al1 Mo7 2.781975 1_555
Al1 Mo1 2.782159 1_555
Al1 Mo1 2.782159 1_655
Al1 Mo2 2.790808 1_556
Al1 Mo8 2.790808 1_556
Al2 Mo2 2.770881 1_555
Al2 Mo8 2.770881 1_445
Al2 Mo8 2.770881 1_545
Al2 Mo2 2.770881 1_455
Al2 Mo1 2.774996 1_554
Al2 Mo6 2.774996 1_545
Al2 Mo6 2.774996 1_555
Al2 Mo1 2.774996 1_544
Al2 Mo11 2.799149 1_554
Al2 Mo4 2.799149 1_455
Al2 Mo5 2.799149 1_454
Al2 Mo10 2.799149 1_555
Mo0 Mo7 2.456969 1_555
Mo0 Mo6 2.508508 1_555
Mo0 Ni0 2.770404 1_555
Mo0 Ni0 2.770404 1_565
Mo1 Mo6 2.477609 1_556
Mo1 Mo7 2.508508 1_555
Mo2 Mo8 2.458484 1_545
Mo2 Mo8 2.507789 1_555
Mo3 Mo9 2.481955 1_555
Mo3 Mo9 2.484318 1_545
Mo3 Ni0 2.776635 1_655
Mo3 Ni0 2.776635 1_555
Mo4 Ni0 2.762789 1_655
Mo5 Ni0 2.762789 1_655
Mo7 Ni0 2.770404 1_555
Mo7 Ni0 2.770404 1_565
Mo9 Ni0 2.776635 1_665
Mo9 Ni0 2.776635 1_565
Mo10 Mo4 2.481376 1_555
Mo10 Mo4 2.485210 1_455
Mo10 Ni0 2.762789 1_555
Mo11 Mo5 2.481376 1_555
Mo11 Mo5 2.485210 1_455
Mo11 Ni0 2.762789 1_555
