# generated using pymatgen
data_LuIr2
_symmetry_space_group_name_H-M   'P 1'
_cell_length_a   5.27709998
_cell_length_b   5.27709992
_cell_length_c   5.27709870
_cell_angle_alpha   60.00000137
_cell_angle_beta   60.00000175
_cell_angle_gamma   60.00000072
_symmetry_Int_Tables_number   1
_chemical_formula_structural   LuIr2
_chemical_formula_sum   'Lu2 Ir4'
_cell_volume   103.91323645
_cell_formula_units_Z   2
loop_
 _symmetry_equiv_pos_site_id
 _symmetry_equiv_pos_as_xyz
  1  'x, y, z'
loop_
 _atom_site_type_symbol
 _atom_site_label
 _atom_site_symmetry_multiplicity
 _atom_site_fract_x
 _atom_site_fract_y
 _atom_site_fract_z
 _atom_site_occupancy
  Lu  Lu0  1  0.12500000  0.12500000  0.12500000  1
  Lu  Lu1  1  0.87500000  0.87500000  0.87500000  1
  Ir  Ir0  1  0.00000000  0.50000000  0.50000000  1
  Ir  Ir1  1  0.50000000  0.00000000  0.50000000  1
  Ir  Ir2  1  0.50000000  0.50000000  -0.00000000  1
  Ir  Ir3  1  0.50000000  0.50000000  0.50000000  1
loop_
_geom_bond_atom_site_label_1
_geom_bond_atom_site_label_2
_geom_bond_distance
_geom_bond_site_symmetry_2
Lu0 Lu1 3.231550 1_445
Lu0 Lu1 3.231550 1_444
Lu0 Lu1 3.231551 1_454
Lu0 Lu1 3.231551 1_544
Ir0 Ir2 2.638550 1_555
Ir0 Ir2 2.638550 1_456
Ir0 Ir3 2.638550 1_555
Ir0 Ir3 2.638550 1_455
Ir0 Ir1 2.638550 1_555
Ir0 Ir1 2.638550 1_465
Ir0 Lu0 3.093973 1_556
Ir0 Lu1 3.093973 1_454
Ir0 Lu0 3.093974 1_555
Ir0 Lu1 3.093974 1_455
Ir0 Lu0 3.093974 1_565
Ir0 Lu1 3.093974 1_445
Ir1 Ir2 2.638550 1_555
Ir1 Ir2 2.638550 1_546
Ir1 Ir3 2.638550 1_555
Ir1 Ir3 2.638550 1_545
Ir1 Lu0 3.093973 1_556
Ir1 Lu1 3.093973 1_544
Ir1 Lu1 3.093974 1_545
Ir1 Lu0 3.093974 1_555
Ir1 Lu1 3.093974 1_445
Ir1 Lu0 3.093974 1_655
Ir2 Ir3 2.638549 1_554
Ir2 Ir3 2.638549 1_555
Ir2 Lu0 3.093974 1_565
Ir2 Lu1 3.093974 1_544
Ir2 Lu0 3.093974 1_655
Ir2 Lu1 3.093974 1_454
Ir2 Lu0 3.093974 1_555
Ir2 Lu1 3.093974 1_554
Ir3 Lu1 3.093974 1_554
Ir3 Lu0 3.093974 1_556
Ir3 Lu1 3.093974 1_545
Ir3 Lu0 3.093974 1_565
Ir3 Lu0 3.093974 1_655
Ir3 Lu1 3.093974 1_455
