# generated using pymatgen
data_KCu3(AsO5)2
_symmetry_space_group_name_H-M   'P 1'
_cell_length_a   5.86544919
_cell_length_b   5.86544919
_cell_length_c   8.24158908
_cell_angle_alpha   66.56720512
_cell_angle_beta   66.56720512
_cell_angle_gamma   61.41877886
_symmetry_Int_Tables_number   1
_chemical_formula_structural   KCu3(AsO5)2
_chemical_formula_sum   'K1 Cu3 As2 O10'
_cell_volume   220.75237858
_cell_formula_units_Z   1
loop_
 _symmetry_equiv_pos_site_id
 _symmetry_equiv_pos_as_xyz
  1  'x, y, z'
loop_
 _atom_site_type_symbol
 _atom_site_label
 _atom_site_symmetry_multiplicity
 _atom_site_fract_x
 _atom_site_fract_y
 _atom_site_fract_z
 _atom_site_occupancy
  K  K0  1  0.00000000  0.00000000  0.50000000  1
  Cu  Cu0  1  0.00000000  0.00000000  0.00000000  1
  Cu  Cu1  1  0.00000000  0.50000000  0.00000000  1
  Cu  Cu2  1  0.50000000  0.00000000  0.00000000  1
  As  As0  1  0.56696600  0.56696600  0.73845800  1
  As  As1  1  0.43303400  0.43303400  0.26154200  1
  O  O0  1  0.71415900  0.71415900  0.78472100  1
  O  O1  1  0.28584100  0.28584100  0.21527900  1
  O  O2  1  0.62230000  0.62230000  0.50969800  1
  O  O3  1  0.37770000  0.37770000  0.49030200  1
  O  O4  1  0.70263800  0.21493300  0.83878700  1
  O  O5  1  0.21493300  0.70263800  0.83878700  1
  O  O6  1  0.29736200  0.78506700  0.16121300  1
  O  O7  1  0.78506700  0.29736200  0.16121300  1
  O  O8  1  0.20939400  0.20939400  0.90108100  1
  O  O9  1  0.79060600  0.79060600  0.09891900  1
loop_
_geom_bond_atom_site_label_1
_geom_bond_atom_site_label_2
_geom_bond_distance
_geom_bond_site_symmetry_2
K0 O1 2.749477 1_555
K0 O0 2.749477 1_445
K0 O5 3.041371 1_545
K0 O4 3.041371 1_455
K0 O7 3.041371 1_455
K0 O6 3.041371 1_545
K0 O2 3.254455 1_545
K0 O2 3.254455 1_455
K0 O3 3.254455 1_545
K0 O3 3.254455 1_455
Cu0 O8 1.879388 1_554
Cu0 O9 1.879388 1_445
Cu0 O6 2.191754 1_545
Cu0 O7 2.191754 1_455
Cu0 O5 2.191754 1_544
Cu0 O4 2.191754 1_454
Cu1 O9 1.839651 1_455
Cu1 O8 1.839651 1_554
Cu1 O5 1.900731 1_554
Cu1 O7 1.900731 1_455
Cu1 O0 2.472853 1_454
Cu1 O1 2.472853 1_555
Cu2 O9 1.839651 1_545
Cu2 O8 1.839651 1_554
Cu2 O4 1.900731 1_554
Cu2 O6 1.900731 1_545
Cu2 O0 2.472853 1_544
Cu2 O1 2.472853 1_555
As0 O0 1.694975 1_555
As0 O2 1.700777 1_555
As0 O4 1.781499 1_555
As0 O5 1.781499 1_555
As1 O1 1.694975 1_555
As1 O3 1.700777 1_555
As1 O6 1.781499 1_555
As1 O7 1.781499 1_555
