# generated using pymatgen
data_LiCu2BiO4
_symmetry_space_group_name_H-M   'P 1'
_cell_length_a   6.92298700
_cell_length_b   6.92298700
_cell_length_c   4.28508500
_cell_angle_alpha   90.00000000
_cell_angle_beta   90.00000000
_cell_angle_gamma   90.00000000
_symmetry_Int_Tables_number   1
_chemical_formula_structural   LiCu2BiO4
_chemical_formula_sum   'Li2 Cu4 Bi2 O8'
_cell_volume   205.37447833
_cell_formula_units_Z   2
loop_
 _symmetry_equiv_pos_site_id
 _symmetry_equiv_pos_as_xyz
  1  'x, y, z'
loop_
 _atom_site_type_symbol
 _atom_site_label
 _atom_site_symmetry_multiplicity
 _atom_site_fract_x
 _atom_site_fract_y
 _atom_site_fract_z
 _atom_site_occupancy
  Li  Li0  1  0.00000000  0.00000000  0.50000000  1
  Li  Li1  1  0.50000000  0.50000000  0.50000000  1
  Cu  Cu0  1  0.25000000  0.25000000  0.00000000  1
  Cu  Cu1  1  0.25000000  0.75000000  0.00000000  1
  Cu  Cu2  1  0.75000000  0.75000000  0.00000000  1
  Cu  Cu3  1  0.75000000  0.25000000  0.00000000  1
  Bi  Bi0  1  0.00000000  0.50000000  0.48192900  1
  Bi  Bi1  1  0.50000000  0.00000000  0.51807100  1
  O  O0  1  0.22901800  0.00000000  0.78951200  1
  O  O1  1  0.00000000  0.77098200  0.21048800  1
  O  O2  1  0.77098200  0.00000000  0.78951200  1
  O  O3  1  0.27098200  0.50000000  0.21048800  1
  O  O4  1  0.00000000  0.22901800  0.21048800  1
  O  O5  1  0.50000000  0.27098200  0.78951200  1
  O  O6  1  0.72901800  0.50000000  0.21048800  1
  O  O7  1  0.50000000  0.72901800  0.78951200  1
loop_
_geom_bond_atom_site_label_1
_geom_bond_atom_site_label_2
_geom_bond_distance
_geom_bond_site_symmetry_2
Li0 O2 2.013162 1_455
Li0 O0 2.013162 1_555
Li0 O4 2.013162 1_555
Li0 O1 2.013162 1_545
Li1 O7 2.013162 1_555
Li1 O6 2.013162 1_555
Li1 O5 2.013162 1_555
Li1 O3 2.013162 1_555
Cu0 O3 1.957068 1_555
Cu0 O4 1.957068 1_555
Cu0 O5 1.957068 1_554
Cu0 O0 1.957068 1_554
Cu1 O3 1.957068 1_555
Cu1 O1 1.957068 1_555
Cu1 O0 1.957068 1_564
Cu1 O7 1.957068 1_554
Cu2 O1 1.957068 1_655
Cu2 O6 1.957068 1_555
Cu2 O2 1.957068 1_564
Cu2 O7 1.957068 1_554
Cu3 O4 1.957068 1_655
Cu3 O6 1.957068 1_555
Cu3 O2 1.957068 1_554
Cu3 O5 1.957068 1_554
Bi0 O1 2.207330 1_555
Bi0 O3 2.207330 1_555
Bi0 O4 2.207330 1_555
Bi0 O6 2.207330 1_455
Bi1 O2 2.207330 1_555
Bi1 O5 2.207330 1_555
Bi1 O0 2.207330 1_555
Bi1 O7 2.207330 1_545
