# generated using pymatgen
data_YNbO2
_symmetry_space_group_name_H-M   'P 1'
_cell_length_a   7.26635675
_cell_length_b   7.26635675
_cell_length_c   7.26635675
_cell_angle_alpha   129.24499653
_cell_angle_beta   129.24499653
_cell_angle_gamma   74.61668217
_symmetry_Int_Tables_number   1
_chemical_formula_structural   YNbO2
_chemical_formula_sum   'Y4 Nb4 O8'
_cell_volume   224.20859808
_cell_formula_units_Z   4
loop_
 _symmetry_equiv_pos_site_id
 _symmetry_equiv_pos_as_xyz
  1  'x, y, z'
loop_
 _atom_site_type_symbol
 _atom_site_label
 _atom_site_symmetry_multiplicity
 _atom_site_fract_x
 _atom_site_fract_y
 _atom_site_fract_z
 _atom_site_occupancy
  Y  Y0  1  0.87500000  0.62500000  0.25000000  1
  Y  Y1  1  0.37500000  0.62500000  0.75000000  1
  Y  Y2  1  0.37500000  0.62500000  0.25000000  1
  Y  Y3  1  0.37500000  0.12500000  0.75000000  1
  Nb  Nb0  1  0.37500000  0.12500000  0.25000000  1
  Nb  Nb1  1  0.87500000  0.12500000  0.75000000  1
  Nb  Nb2  1  0.87500000  0.12500000  0.25000000  1
  Nb  Nb3  1  0.87500000  0.62500000  0.75000000  1
  O  O0  1  0.17479300  0.40650000  0.23170800  1
  O  O1  1  0.17479300  0.94308500  0.76829200  1
  O  O2  1  0.15650000  0.42479300  0.73170800  1
  O  O3  1  0.57520700  0.84350000  0.26829200  1
  O  O4  1  0.69308500  0.42479300  0.26829200  1
  O  O5  1  0.57520700  0.30691500  0.73170800  1
  O  O6  1  0.59350000  0.82520700  0.76829200  1
  O  O7  1  0.05691500  0.82520700  0.23170800  1
loop_
_geom_bond_atom_site_label_1
_geom_bond_atom_site_label_2
_geom_bond_distance
_geom_bond_site_symmetry_2
Nb0 O0 2.199682 1_555
Nb0 O3 2.199682 1_545
Nb0 O5 2.199687 1_555
Nb0 O1 2.199687 1_544
Nb1 O3 2.199686 1_545
Nb1 O0 2.199686 1_656
Nb1 O5 2.199687 1_555
Nb1 O1 2.199687 1_645
Nb2 O2 2.199686 1_655
Nb2 O6 2.199686 1_544
Nb2 O4 2.199687 1_555
Nb2 O7 2.199687 1_645
Nb3 O6 2.199682 1_555
Nb3 O2 2.199682 1_655
Nb3 O4 2.199687 1_555
Nb3 O7 2.199687 1_656
O0 Y2 2.317023 1_555
O0 Y1 2.355468 1_555
O0 Y0 2.355472 1_455
O1 Y3 2.317017 1_565
O1 Y1 2.355469 1_555
O1 Y0 2.355469 1_455
O2 Y1 2.317023 1_555
O2 Y2 2.355468 1_556
O2 Y3 2.355472 1_555
O3 Y2 2.317023 1_555
O3 Y1 2.355468 1_554
O3 Y0 2.355472 1_555
O4 Y0 2.317017 1_555
O4 Y3 2.355469 1_554
O4 Y2 2.355469 1_555
O5 Y3 2.317017 1_555
O5 Y1 2.355469 1_555
O5 Y0 2.355469 1_556
O6 Y1 2.317023 1_555
O6 Y2 2.355468 1_555
O6 Y3 2.355472 1_565
O7 Y0 2.317017 1_455
O7 Y2 2.355469 1_555
O7 Y3 2.355469 1_565
