# generated using pymatgen
data_Cr2Cu(SeS)2
_symmetry_space_group_name_H-M   'P 1'
_cell_length_a   7.17207094
_cell_length_b   7.17207094
_cell_length_c   7.17207094
_cell_angle_alpha   60.00000000
_cell_angle_beta   60.00000000
_cell_angle_gamma   60.00000000
_symmetry_Int_Tables_number   1
_chemical_formula_structural   Cr2Cu(SeS)2
_chemical_formula_sum   'Cr4 Cu2 Se4 S4'
_cell_volume   260.86675309
_cell_formula_units_Z   2
loop_
 _symmetry_equiv_pos_site_id
 _symmetry_equiv_pos_as_xyz
  1  'x, y, z'
loop_
 _atom_site_type_symbol
 _atom_site_label
 _atom_site_symmetry_multiplicity
 _atom_site_fract_x
 _atom_site_fract_y
 _atom_site_fract_z
 _atom_site_occupancy
  Cr  Cr0  1  0.64598600  0.11800500  0.11800500  1
  Cr  Cr1  1  0.11800500  0.64598600  0.11800500  1
  Cr  Cr2  1  0.11800500  0.11800500  0.64598600  1
  Cr  Cr3  1  0.11800500  0.11800500  0.11800500  1
  Cu  Cu0  1  0.75000000  0.75000000  0.75000000  1
  Cu  Cu1  1  0.50000000  0.50000000  0.50000000  1
  Se  Se0  1  0.90120200  0.36626600  0.36626600  1
  Se  Se1  1  0.36626600  0.90120200  0.36626600  1
  Se  Se2  1  0.36626600  0.36626600  0.90120200  1
  Se  Se3  1  0.36626600  0.36626600  0.36626600  1
  S  S0  1  0.35296700  0.88234400  0.88234400  1
  S  S1  1  0.88234400  0.35296700  0.88234400  1
  S  S2  1  0.88234400  0.88234400  0.35296700  1
  S  S3  1  0.88234400  0.88234400  0.88234400  1
loop_
_geom_bond_atom_site_label_1
_geom_bond_atom_site_label_2
_geom_bond_distance
_geom_bond_site_symmetry_2
Cr0 S1 2.390267 1_554
Cr0 S2 2.390267 1_545
Cr0 S3 2.390277 1_544
Cr0 Se3 2.528160 1_555
Cr0 Se2 2.528164 1_554
Cr0 Se1 2.528164 1_545
Cr1 S2 2.390267 1_455
Cr1 S0 2.390267 1_554
Cr1 S3 2.390277 1_454
Cr1 Se3 2.528160 1_555
Cr1 Se0 2.528164 1_455
Cr1 Se2 2.528164 1_554
Cr2 S0 2.390267 1_545
Cr2 S1 2.390267 1_455
Cr2 S3 2.390277 1_445
Cr2 Se3 2.528160 1_555
Cr2 Se0 2.528164 1_455
Cr2 Se1 2.528164 1_545
Cr3 S1 2.390277 1_454
Cr3 S0 2.390277 1_544
Cr3 S2 2.390277 1_445
Cr3 Se2 2.528159 1_554
Cr3 Se0 2.528159 1_455
Cr3 Se1 2.528159 1_545
Cu0 S3 2.325008 1_555
Cu0 S0 2.325014 1_555
Cu0 S1 2.325014 1_555
Cu0 S2 2.325014 1_555
Cu1 Se1 2.349427 1_555
Cu1 Se0 2.349427 1_555
Cu1 Se2 2.349427 1_555
Cu1 Se3 2.349427 1_555
