# generated using pymatgen
data_Ca5(Si3O11)2
_symmetry_space_group_name_H-M   'P 1'
_cell_length_a   6.71846300
_cell_length_b   6.77173373
_cell_length_c   11.68782408
_cell_angle_alpha   89.27650660
_cell_angle_beta   100.76639116
_cell_angle_gamma   113.35760954
_symmetry_Int_Tables_number   1
_chemical_formula_structural   Ca5(Si3O11)2
_chemical_formula_sum   'Ca5 Si6 O22'
_cell_volume   478.46044535
_cell_formula_units_Z   1
loop_
 _symmetry_equiv_pos_site_id
 _symmetry_equiv_pos_as_xyz
  1  'x, y, z'
loop_
 _atom_site_type_symbol
 _atom_site_label
 _atom_site_symmetry_multiplicity
 _atom_site_fract_x
 _atom_site_fract_y
 _atom_site_fract_z
 _atom_site_occupancy
  Ca  Ca0  1  0.46185700  0.74249300  0.91573500  1
  Ca  Ca1  1  0.53156100  0.25367700  0.07012700  1
  Ca  Ca2  1  0.95204700  0.23657400  0.89532400  1
  Ca  Ca3  1  0.02709900  0.76629000  0.09346000  1
  Ca  Ca4  1  0.34883800  0.75224100  0.40998000  1
  Si  Si0  1  0.10062800  0.31256800  0.18785900  1
  Si  Si1  1  0.89719200  0.69300900  0.82133400  1
  Si  Si2  1  0.95162200  0.96633600  0.35650400  1
  Si  Si3  1  0.03192200  0.02162200  0.63878100  1
  Si  Si4  1  0.52457700  0.73212900  0.18277900  1
  Si  Si5  1  0.46013900  0.27227700  0.80773600  1
  O  O0  1  0.02901300  0.21353200  0.31095100  1
  O  O1  1  0.97738500  0.79413300  0.70023100  1
  O  O2  1  0.67692300  0.85589300  0.31080800  1
  O  O3  1  0.29620000  0.17208100  0.67927800  1
  O  O4  1  0.42336200  0.88229900  0.10481400  1
  O  O5  1  0.55386400  0.10845900  0.87955400  1
  O  O6  1  0.91641600  0.36877300  0.10001300  1
  O  O7  1  0.08058400  0.62134200  0.89964700  1
  O  O8  1  0.64175500  0.63451600  0.10537100  1
  O  O9  1  0.33742700  0.35655300  0.89168800  1
  O  O10  1  0.17506900  0.15748600  0.11539000  1
  O  O11  1  0.84583200  0.85556400  0.90244800  1
  O  O12  1  0.31641400  0.54796100  0.23618700  1
  O  O13  1  0.67080100  0.47612100  0.77498500  1
  O  O14  1  0.98336300  0.97990800  0.49809600  1
  O  O15  1  0.53778100  0.52342600  0.50377100  1
  O  O16  1  0.06990200  0.82848500  0.30902100  1
  O  O17  1  0.89668300  0.15266800  0.68485600  1
  O  O18  1  0.47338900  0.20152500  0.26723900  1
  O  O19  1  0.38989600  0.71130900  0.66315400  1
  O  O20  1  0.21302100  0.59186600  0.58331200  1
  O  O21  1  0.54643900  0.86948300  0.60866700  1
loop_
_geom_bond_atom_site_label_1
_geom_bond_atom_site_label_2
_geom_bond_distance
_geom_bond_site_symmetry_2
Ca0 O7 2.329725 1_555
Ca0 O5 2.357757 1_565
Ca0 O9 2.409666 1_555
Ca0 O11 2.417804 1_555
Ca0 O4 2.511466 1_556
Ca0 O8 2.562615 1_556
Ca0 O19 2.897397 1_555
Ca1 O6 2.342320 1_555
Ca1 O4 2.377422 1_545
Ca1 O10 2.380794 1_555
Ca1 O8 2.401596 1_555
Ca1 O18 2.406535 1_555
Ca1 O9 2.490694 1_554
Ca1 O5 2.499514 1_554
Ca2 O11 2.393724 1_545
Ca2 O9 2.395386 1_655
Ca2 O7 2.395837 1_655
Ca2 O5 2.433663 1_555
Ca2 O17 2.457281 1_555
Ca2 O6 2.649552 1_556
Ca2 O10 2.882575 1_656
Ca3 O8 2.412018 1_455
Ca3 O10 2.430086 1_565
Ca3 O4 2.436131 1_555
Ca3 O6 2.496772 1_455
Ca3 O16 2.503543 1_555
Ca3 O11 2.523218 1_454
Ca3 O7 2.619899 1_554
Ca4 O16 2.257557 1_555
Ca4 O12 2.398703 1_555
Ca4 O21 2.417535 1_555
Ca4 O20 2.442443 1_555
Ca4 O15 2.492147 1_555
Ca4 O2 2.530220 1_555
O0 Si0 1.652103 1_555
O0 Si2 1.657311 1_445
O1 Si3 1.626659 1_665
O1 Si1 1.652434 1_555
O2 Si4 1.663861 1_555
O2 Si2 1.672727 1_555
O3 Si3 1.636586 1_555
O3 Si5 1.656200 1_555
O4 Si4 1.618733 1_555
O5 Si5 1.632364 1_555
O6 Si0 1.618528 1_655
O7 Si1 1.622651 1_455
O8 Si4 1.602836 1_555
O9 Si5 1.630222 1_555
O10 Si0 1.633282 1_555
O11 Si1 1.636867 1_555
O12 Si4 1.680593 1_555
O12 Si0 1.687038 1_555
O13 Si5 1.641655 1_555
O13 Si1 1.644661 1_555
O14 Si3 1.621170 1_665
O14 Si2 1.627598 1_555
O16 Si2 1.605285 1_455
O17 Si3 1.654468 1_655
O19 O20 1.334083 1_555
O19 O21 1.413762 1_555
