# generated using pymatgen
data_SrMg6C
_symmetry_space_group_name_H-M   'P 1'
_cell_length_a   7.74118523
_cell_length_b   7.74118523
_cell_length_c   4.52747400
_cell_angle_alpha   90.00000000
_cell_angle_beta   90.00000000
_cell_angle_gamma   135.98076150
_symmetry_Int_Tables_number   1
_chemical_formula_structural   SrMg6C
_chemical_formula_sum   'Sr1 Mg6 C1'
_cell_volume   188.53548930
_cell_formula_units_Z   1
loop_
 _symmetry_equiv_pos_site_id
 _symmetry_equiv_pos_as_xyz
  1  'x, y, z'
loop_
 _atom_site_type_symbol
 _atom_site_label
 _atom_site_symmetry_multiplicity
 _atom_site_fract_x
 _atom_site_fract_y
 _atom_site_fract_z
 _atom_site_occupancy
  Sr  Sr0  1  0.79926000  0.20074000  0.50000000  1
  Mg  Mg0  1  0.30106900  0.19563900  0.50000000  1
  Mg  Mg1  1  0.80436100  0.69893100  0.50000000  1
  Mg  Mg2  1  0.18906600  0.35029000  0.00000000  1
  Mg  Mg3  1  0.64971000  0.81093400  0.00000000  1
  Mg  Mg4  1  0.63752600  0.36247400  0.00000000  1
  Mg  Mg5  1  0.18941600  0.81058400  0.00000000  1
  C  C0  1  0.42959700  0.57040300  0.50000000  1
loop_
_geom_bond_atom_site_label_1
_geom_bond_atom_site_label_2
_geom_bond_distance
_geom_bond_site_symmetry_2
Mg0 Mg4 2.956081 1_556
Mg0 Mg4 2.956081 1_555
Mg0 Mg5 3.324344 1_545
Mg0 Mg5 3.324344 1_546
Mg1 Mg4 2.956081 1_556
Mg1 Mg4 2.956081 1_555
Mg1 Mg5 3.324344 1_656
Mg1 Mg5 3.324344 1_655
Mg2 Sr0 3.247485 1_455
Mg2 Sr0 3.247485 1_454
Mg2 Mg5 3.561273 1_555
Mg3 Sr0 3.247485 1_565
Mg3 Sr0 3.247485 1_564
Mg3 Mg5 3.561273 1_555
Mg4 Mg5 2.995192 1_545
Mg4 Mg5 2.995192 1_655
Mg4 Sr0 3.242534 1_555
Mg4 Sr0 3.242534 1_554
Mg5 Sr0 4.003362 1_565
Mg5 Sr0 4.003362 1_564
Mg5 Sr0 4.003362 1_455
Mg5 Sr0 4.003362 1_454
C0 Mg1 2.292386 1_555
C0 Mg0 2.292386 1_555
C0 Mg3 2.632846 1_555
C0 Mg3 2.632846 1_556
C0 Mg2 2.632846 1_556
C0 Mg2 2.632846 1_555
