# generated using pymatgen
data_Er3GaCoS7
_symmetry_space_group_name_H-M   'P 1'
_cell_length_a   9.47828200
_cell_length_b   9.47828200
_cell_length_c   6.12143500
_cell_angle_alpha   90.00000000
_cell_angle_beta   90.00000000
_cell_angle_gamma   120.00000002
_symmetry_Int_Tables_number   1
_chemical_formula_structural   Er3GaCoS7
_chemical_formula_sum   'Er6 Ga2 Co2 S14'
_cell_volume   476.25892329
_cell_formula_units_Z   2
loop_
 _symmetry_equiv_pos_site_id
 _symmetry_equiv_pos_as_xyz
  1  'x, y, z'
loop_
 _atom_site_type_symbol
 _atom_site_label
 _atom_site_symmetry_multiplicity
 _atom_site_fract_x
 _atom_site_fract_y
 _atom_site_fract_z
 _atom_site_occupancy
  Er  Er0  1  0.84495500  0.62652500  0.17754500  1
  Er  Er1  1  0.78157000  0.15504500  0.17754500  1
  Er  Er2  1  0.37347500  0.21843000  0.17754500  1
  Er  Er3  1  0.15504500  0.37347500  0.67754500  1
  Er  Er4  1  0.21843000  0.84495500  0.67754500  1
  Er  Er5  1  0.62652500  0.78157000  0.67754500  1
  Ga  Ga0  1  0.33333300  0.66666700  0.10562200  1
  Ga  Ga1  1  0.66666700  0.33333300  0.60562200  1
  Co  Co0  1  0.00000000  0.00000000  0.51100400  1
  Co  Co1  1  0.00000000  0.00000000  0.01100400  1
  S  S0  1  0.56607900  0.48174300  0.44549000  1
  S  S1  1  0.91566400  0.43392100  0.44549000  1
  S  S2  1  0.51825700  0.08433600  0.44549000  1
  S  S3  1  0.43392100  0.51825700  0.94549000  1
  S  S4  1  0.08433600  0.56607900  0.94549000  1
  S  S5  1  0.48174300  0.91566400  0.94549000  1
  S  S6  1  0.33333300  0.66666700  0.47379400  1
  S  S7  1  0.66666700  0.33333300  0.97379400  1
  S  S8  1  0.12827400  0.90265000  0.26811500  1
  S  S9  1  0.77437600  0.87172600  0.26811500  1
  S  S10  1  0.09735000  0.22562400  0.26811500  1
  S  S11  1  0.87172600  0.09735000  0.76811500  1
  S  S12  1  0.22562400  0.12827400  0.76811500  1
  S  S13  1  0.90265000  0.77437600  0.76811500  1
loop_
_geom_bond_atom_site_label_1
_geom_bond_atom_site_label_2
_geom_bond_distance
_geom_bond_site_symmetry_2
Er0 S8 2.709275 1_655
Er0 S7 2.727235 1_554
Er0 S1 2.774092 1_555
Er0 S9 2.776869 1_555
Er0 S13 2.788922 1_554
Er0 S0 2.816556 1_555
Er0 S4 2.965470 1_654
Er1 S9 2.709275 1_545
Er1 S7 2.727228 1_554
Er1 S2 2.774092 1_555
Er1 S10 2.776869 1_655
Er1 S11 2.788922 1_554
Er1 S1 2.816556 1_555
Er1 S5 2.965470 1_544
Er2 S10 2.709275 1_555
Er2 S7 2.727236 1_554
Er2 S0 2.774092 1_555
Er2 S8 2.776869 1_545
Er2 S12 2.788922 1_554
Er2 S2 2.816556 1_555
Er2 S3 2.965470 1_554
Er3 S11 2.709275 1_455
Er3 S6 2.727235 1_555
Er3 S4 2.774092 1_555
Er3 S12 2.776869 1_555
Er3 S10 2.788922 1_555
Er3 S3 2.816556 1_555
Er3 S1 2.965470 1_455
Er4 S12 2.709275 1_565
Er4 S6 2.727228 1_555
Er4 S5 2.774092 1_555
Er4 S13 2.776869 1_455
Er4 S8 2.788922 1_555
Er4 S4 2.816556 1_555
Er4 S2 2.965470 1_565
Er5 S13 2.709275 1_555
Er5 S6 2.727236 1_555
Er5 S3 2.774092 1_555
Er5 S11 2.776869 1_565
Er5 S9 2.788922 1_555
Er5 S5 2.816556 1_555
Er5 S0 2.965470 1_555
Ga0 S6 2.253741 1_555
Ga0 S4 2.278081 1_554
Ga0 S5 2.278082 1_554
Ga0 S3 2.278089 1_554
Ga1 S7 2.253741 1_555
Ga1 S1 2.278081 1_555
Ga1 S2 2.278082 1_555
Ga1 S0 2.278089 1_555
Co0 S9 2.379520 1_445
Co0 S10 2.379520 1_555
Co0 S8 2.379520 1_545
Co0 S12 2.434867 1_555
Co0 S13 2.434867 1_445
Co0 S11 2.434867 1_455
Co1 S12 2.379520 1_554
Co1 S13 2.379520 1_444
Co1 S11 2.379520 1_454
Co1 S9 2.434867 1_445
Co1 S10 2.434867 1_555
Co1 S8 2.434867 1_545
