# generated using pymatgen
data_SrYMg14
_symmetry_space_group_name_H-M   'P 1'
_cell_length_a   6.64285858
_cell_length_b   6.64994638
_cell_length_c   10.58584108
_cell_angle_alpha   90.00000000
_cell_angle_beta   90.00000000
_cell_angle_gamma   120.03530744
_symmetry_Int_Tables_number   1
_chemical_formula_structural   SrYMg14
_chemical_formula_sum   'Sr1 Y1 Mg14'
_cell_volume   404.83171482
_cell_formula_units_Z   1
loop_
 _symmetry_equiv_pos_site_id
 _symmetry_equiv_pos_as_xyz
  1  'x, y, z'
loop_
 _atom_site_type_symbol
 _atom_site_label
 _atom_site_symmetry_multiplicity
 _atom_site_fract_x
 _atom_site_fract_y
 _atom_site_fract_z
 _atom_site_occupancy
  Sr  Sr0  1  0.16953983  0.83476942  0.12500000  1
  Y  Y0  1  0.17533003  0.33766451  0.12500000  1
  Mg  Mg0  1  0.16448916  0.33224408  0.62500000  1
  Mg  Mg1  1  0.16573014  0.83286457  0.62500000  1
  Mg  Mg2  1  0.66350198  0.33135419  0.12500000  1
  Mg  Mg3  1  0.66779164  0.33340507  0.62500000  1
  Mg  Mg4  1  0.66350198  0.83214679  0.12500000  1
  Mg  Mg5  1  0.66779164  0.83438557  0.62500000  1
  Mg  Mg6  1  0.33861319  0.17484772  0.38687845  1
  Mg  Mg7  1  0.33861319  0.17484772  0.86312155  1
  Mg  Mg8  1  0.33861319  0.66376648  0.38687845  1
  Mg  Mg9  1  0.33861319  0.66376648  0.86312155  1
  Mg  Mg10  1  0.83102283  0.16551192  0.37611225  1
  Mg  Mg11  1  0.83102283  0.16551192  0.87388775  1
  Mg  Mg12  1  0.82291258  0.66145679  0.38306846  1
  Mg  Mg13  1  0.82291258  0.66145679  0.86693154  1
loop_
_geom_bond_atom_site_label_1
_geom_bond_atom_site_label_2
_geom_bond_distance
_geom_bond_site_symmetry_2
Sr0 Y0 3.325140 1_565
Sr0 Y0 3.325140 1_555
Mg0 Mg6 3.162186 1_555
Mg0 Mg7 3.162186 1_555
Mg0 Mg8 3.162193 1_555
Mg0 Mg9 3.162193 1_555
Mg0 Mg11 3.258709 1_455
Mg0 Mg10 3.258709 1_455
Mg0 Mg5 3.303362 1_445
Mg0 Mg3 3.303363 1_455
Mg0 Mg1 3.324981 1_555
Mg0 Mg1 3.324981 1_545
Mg0 Mg5 3.339509 1_555
Mg0 Mg3 3.339510 1_555
Mg1 Mg8 3.198468 1_555
Mg1 Mg9 3.198468 1_555
Mg1 Mg7 3.198475 1_565
Mg1 Mg6 3.198475 1_565
Mg1 Mg13 3.231986 1_455
Mg1 Mg12 3.231986 1_455
Mg1 Mg3 3.312809 1_455
Mg1 Mg5 3.312809 1_455
Mg1 Mg3 3.330072 1_565
Mg1 Mg5 3.330072 1_555
Mg2 Y0 3.264063 1_555
Mg2 Sr0 3.290085 1_545
Mg2 Mg4 3.319702 1_545
Mg2 Mg4 3.330244 1_555
Mg2 Mg6 3.343281 1_555
Mg2 Mg7 3.343281 1_554
Mg2 Sr0 3.352842 1_655
Mg2 Y0 3.379193 1_655
Mg3 Mg6 3.152660 1_555
Mg3 Mg7 3.152660 1_555
Mg3 Mg5 3.318453 1_545
Mg3 Mg5 3.331493 1_555
Mg4 Y0 3.264063 1_555
Mg4 Sr0 3.290085 1_555
Mg4 Mg9 3.343280 1_554
Mg4 Mg8 3.343280 1_555
Mg4 Sr0 3.352842 1_655
Mg4 Y0 3.379192 1_665
Mg5 Mg9 3.152660 1_555
Mg5 Mg8 3.152660 1_555
Mg6 Mg8 3.251284 1_555
Mg6 Y0 3.348067 1_555
Mg6 Sr0 3.393856 1_545
Mg6 Mg8 3.398663 1_545
Mg7 Mg9 3.251284 1_555
Mg7 Y0 3.348067 1_556
Mg7 Sr0 3.393856 1_546
Mg7 Mg9 3.398663 1_545
Mg8 Y0 3.348073 1_555
Mg8 Sr0 3.393849 1_555
Mg9 Y0 3.348073 1_556
Mg9 Sr0 3.393849 1_556
Mg10 Mg3 3.252041 1_555
Mg10 Mg5 3.252048 1_545
Mg10 Mg2 3.278629 1_555
Mg10 Mg4 3.278635 1_545
Mg10 Mg8 3.304485 1_545
Mg10 Mg6 3.304485 1_555
Mg10 Y0 3.314638 1_655
Mg10 Mg12 3.326116 1_555
Mg10 Mg12 3.326116 1_545
Mg10 Mg8 3.343152 1_655
Mg10 Mg6 3.343152 1_655
Mg11 Mg3 3.252041 1_555
Mg11 Mg5 3.252048 1_545
Mg11 Mg2 3.278629 1_556
Mg11 Mg4 3.278635 1_546
Mg11 Mg9 3.304485 1_545
Mg11 Mg7 3.304485 1_555
Mg11 Y0 3.314638 1_656
Mg11 Mg13 3.326116 1_555
Mg11 Mg13 3.326116 1_545
Mg11 Mg9 3.343152 1_655
Mg11 Mg7 3.343152 1_655
Mg12 Mg5 3.182681 1_555
Mg12 Mg3 3.182688 1_555
Mg12 Mg6 3.225100 1_555
Mg12 Mg8 3.225100 1_555
Mg12 Mg4 3.328085 1_555
Mg12 Mg2 3.328092 1_555
Mg12 Sr0 3.381827 1_655
Mg12 Mg6 3.418302 1_665
Mg12 Mg8 3.418302 1_655
Mg13 Mg5 3.182681 1_555
Mg13 Mg3 3.182688 1_555
Mg13 Mg7 3.225100 1_555
Mg13 Mg9 3.225100 1_555
Mg13 Mg4 3.328085 1_556
Mg13 Mg2 3.328092 1_556
Mg13 Sr0 3.381827 1_656
Mg13 Mg7 3.418302 1_665
Mg13 Mg9 3.418302 1_655
