# generated using pymatgen
data_TiH19C6N3Cl2
_symmetry_space_group_name_H-M   'P 1'
_cell_length_a   12.82751200
_cell_length_b   8.98808700
_cell_length_c   14.60051467
_cell_angle_alpha   83.08202078
_cell_angle_beta   90.00000000
_cell_angle_gamma   90.00000000
_symmetry_Int_Tables_number   1
_chemical_formula_structural   TiH19C6N3Cl2
_chemical_formula_sum   'Ti4 H76 C24 N12 Cl8'
_cell_volume   1671.10776103
_cell_formula_units_Z   4
loop_
 _symmetry_equiv_pos_site_id
 _symmetry_equiv_pos_as_xyz
  1  'x, y, z'
loop_
 _atom_site_type_symbol
 _atom_site_label
 _atom_site_symmetry_multiplicity
 _atom_site_fract_x
 _atom_site_fract_y
 _atom_site_fract_z
 _atom_site_occupancy
  Ti  Ti0  1  0.71762100  0.27860900  0.25979700  1
  Ti  Ti1  1  0.21762100  0.72139100  0.24020300  1
  Ti  Ti2  1  0.28237900  0.72139100  0.74020300  1
  Ti  Ti3  1  0.78237900  0.27860900  0.75979700  1
  H  H0  1  0.65060000  0.23638000  0.08101300  1
  H  H1  1  0.15060000  0.76362000  0.41898700  1
  H  H2  1  0.34940000  0.76362000  0.91898700  1
  H  H3  1  0.84940000  0.23638000  0.58101300  1
  H  H4  1  0.46779200  0.16638600  0.39334500  1
  H  H5  1  0.96779200  0.83361400  0.10665500  1
  H  H6  1  0.53220800  0.83361400  0.60665500  1
  H  H7  1  0.03220800  0.16638600  0.89334500  1
  H  H8  1  0.50683200  0.35490800  0.35614700  1
  H  H9  1  0.00683200  0.64509200  0.14385300  1
  H  H10  1  0.49316800  0.64509200  0.64385300  1
  H  H11  1  0.99316800  0.35490800  0.85614700  1
  H  H12  1  0.55067400  0.26244100  0.46508500  1
  H  H13  1  0.05067400  0.73755900  0.03491500  1
  H  H14  1  0.44932600  0.73755900  0.53491500  1
  H  H15  1  0.94932600  0.26244100  0.96508500  1
  H  H16  1  0.67707100  0.05173900  0.46617500  1
  H  H17  1  0.17707100  0.94826100  0.03382500  1
  H  H18  1  0.32292900  0.94826100  0.53382500  1
  H  H19  1  0.82292900  0.05173900  0.96617500  1
  H  H20  1  0.59234600  0.96091900  0.39206900  1
  H  H21  1  0.09234600  0.03908100  0.10793100  1
  H  H22  1  0.40765400  0.03908100  0.60793100  1
  H  H23  1  0.90765400  0.96091900  0.89206900  1
  H  H24  1  0.72445800  0.00363300  0.35920700  1
  H  H25  1  0.22445800  0.99636700  0.14079300  1
  H  H26  1  0.27554200  0.99636700  0.64079300  1
  H  H27  1  0.77554200  0.00363300  0.85920700  1
  H  H28  1  0.75969000  0.64192400  0.12329900  1
  H  H29  1  0.25969000  0.35807600  0.37670100  1
  H  H30  1  0.24031000  0.35807600  0.87670100  1
  H  H31  1  0.74031000  0.64192400  0.62329900  1
  H  H32  1  0.62562900  0.60827300  0.09927700  1
  H  H33  1  0.12562900  0.39172700  0.40072300  1
  H  H34  1  0.37437100  0.39172700  0.90072300  1
  H  H35  1  0.87437100  0.60827300  0.59927700  1
  H  H36  1  0.72335200  0.47466300  0.07756900  1
  H  H37  1  0.22335200  0.52533700  0.42243100  1
  H  H38  1  0.27664800  0.52533700  0.92243100  1
  H  H39  1  0.77664800  0.47466300  0.57756900  1
  H  H40  1  0.66078800  0.53057900  0.35394100  1
  H  H41  1  0.16078800  0.46942100  0.14605900  1
  H  H42  1  0.33921200  0.46942100  0.64605900  1
  H  H43  1  0.83921200  0.53057900  0.85394100  1
  H  H44  1  0.72496600  0.67214100  0.27908100  1
  H  H45  1  0.22496600  0.32785900  0.22091900  1
  H  H46  1  0.27503400  0.32785900  0.72091900  1
  H  H47  1  0.77503400  0.67214100  0.77908100  1
  H  H48  1  0.58763900  0.64304400  0.26620800  1
  H  H49  1  0.08763900  0.35695600  0.23379200  1
  H  H50  1  0.41236100  0.35695600  0.73379200  1
  H  H51  1  0.91236100  0.64304400  0.76620800  1
  H  H52  1  0.50557900  0.37832200  0.12842800  1
  H  H53  1  0.00557900  0.62167800  0.37157200  1
  H  H54  1  0.49442100  0.62167800  0.87157200  1
  H  H55  1  0.99442100  0.37832200  0.62842800  1
  H  H56  1  0.45903700  0.21000800  0.19299700  1
  H  H57  1  0.95903700  0.78999200  0.30700300  1
  H  H58  1  0.54096300  0.78999200  0.80700300  1
  H  H59  1  0.04096300  0.21000800  0.69299700  1
  H  H60  1  0.46449100  0.22474600  0.07020700  1
  H  H61  1  0.96449100  0.77525400  0.42979300  1
  H  H62  1  0.53550900  0.77525400  0.92979300  1
  H  H63  1  0.03550900  0.22474600  0.57020700  1
  H  H64  1  0.56208500  0.00294300  0.07640900  1
  H  H65  1  0.06208500  0.99705700  0.42359100  1
  H  H66  1  0.43791500  0.99705700  0.92359100  1
  H  H67  1  0.93791500  0.00294300  0.57640900  1
  H  H68  1  0.56492200  0.97517600  0.19891500  1
  H  H69  1  0.06492200  0.02482400  0.30108500  1
  H  H70  1  0.43507800  0.02482400  0.80108500  1
  H  H71  1  0.93507800  0.97517600  0.69891500  1
  H  H72  1  0.68452900  0.98277400  0.13540700  1
  H  H73  1  0.18452900  0.01722600  0.36459300  1
  H  H74  1  0.31547100  0.01722600  0.86459300  1
  H  H75  1  0.81547100  0.98277400  0.63540700  1
  C  C0  1  0.53280000  0.24718900  0.39269800  1
  C  C1  1  0.03280000  0.75281100  0.10730200  1
  C  C2  1  0.46720000  0.75281100  0.60730200  1
  C  C3  1  0.96720000  0.24718900  0.89269800  1
  C  C4  1  0.65538400  0.04422000  0.39354600  1
  C  C5  1  0.15538400  0.95578000  0.10645400  1
  C  C6  1  0.34461600  0.95578000  0.60645400  1
  C  C7  1  0.84461600  0.04422000  0.89354600  1
  C  C8  1  0.69905000  0.55404400  0.12492800  1
  C  C9  1  0.19905000  0.44595600  0.37507200  1
  C  C10  1  0.30095000  0.44595600  0.87507200  1
  C  C11  1  0.80095000  0.55404400  0.62492800  1
  C  C12  1  0.66280400  0.58623400  0.28288500  1
  C  C13  1  0.16280400  0.41376600  0.21711500  1
  C  C14  1  0.33719600  0.41376600  0.71711500  1
  C  C15  1  0.83719600  0.58623400  0.78288500  1
  C  C16  1  0.50421700  0.25603700  0.13218500  1
  C  C17  1  0.00421700  0.74396300  0.36781500  1
  C  C18  1  0.49578300  0.74396300  0.86781500  1
  C  C19  1  0.99578300  0.25603700  0.63218500  1
  C  C20  1  0.60591500  0.02912700  0.13750700  1
  C  C21  1  0.10591500  0.97087300  0.36249300  1
  C  C22  1  0.39408500  0.97087300  0.86249300  1
  C  C23  1  0.89408500  0.02912700  0.63750700  1
  N  N0  1  0.62233700  0.18931300  0.34838700  1
  N  N1  1  0.12233700  0.81068700  0.15161300  1
  N  N2  1  0.37766300  0.81068700  0.65161300  1
  N  N3  1  0.87766300  0.18931300  0.84838700  1
  N  N4  1  0.68505900  0.47998400  0.21788500  1
  N  N5  1  0.18505900  0.52001600  0.28211500  1
  N  N6  1  0.31494100  0.52001600  0.78211500  1
  N  N7  1  0.81494100  0.47998400  0.71788500  1
  N  N8  1  0.61093400  0.19350200  0.13962600  1
  N  N9  1  0.11093400  0.80649800  0.36037400  1
  N  N10  1  0.38906600  0.80649800  0.86037400  1
  N  N11  1  0.88906600  0.19350200  0.63962600  1
  Cl  Cl0  1  0.84270700  0.32718100  0.37270100  1
  Cl  Cl1  1  0.34270700  0.67281900  0.12729900  1
  Cl  Cl2  1  0.15729300  0.67281900  0.62729900  1
  Cl  Cl3  1  0.65729300  0.32718100  0.87270100  1
  Cl  Cl4  1  0.84343300  0.16198200  0.17779100  1
  Cl  Cl5  1  0.34343300  0.83801800  0.32220900  1
  Cl  Cl6  1  0.15656700  0.83801800  0.82220900  1
  Cl  Cl7  1  0.65656700  0.16198200  0.67779100  1
loop_
_geom_bond_atom_site_label_1
_geom_bond_atom_site_label_2
_geom_bond_distance
_geom_bond_site_symmetry_2
H0 N8 1.029723 1_555
H1 N9 1.029723 1_555
H2 N10 1.029723 1_555
H3 N11 1.029723 1_555
C0 H8 1.099398 1_555
C0 H4 1.105111 1_555
C0 H12 1.106018 1_555
C0 N0 1.445467 1_555
C1 H9 1.099398 1_555
C1 H5 1.105111 1_455
C1 H13 1.106018 1_555
C1 N1 1.445467 1_555
C2 H10 1.099398 1_555
C2 H6 1.105111 1_555
C2 H14 1.106018 1_555
C2 N2 1.445467 1_555
C3 H11 1.099398 1_555
C3 H7 1.105111 1_655
C3 H15 1.106018 1_555
C3 N3 1.445467 1_555
C4 H24 1.101629 1_555
C4 H20 1.103992 1_545
C4 H16 1.106216 1_555
C4 N0 1.451895 1_555
C5 H25 1.101629 1_555
C5 H21 1.103992 1_565
C5 H17 1.106216 1_555
C5 N1 1.451895 1_555
C6 H26 1.101629 1_555
C6 H22 1.103992 1_565
C6 H18 1.106216 1_555
C6 N2 1.451895 1_555
C7 H27 1.101629 1_555
C7 H23 1.103992 1_545
C7 H19 1.106216 1_555
C7 N3 1.451895 1_555
C8 H36 1.096908 1_555
C8 H32 1.104928 1_555
C8 H28 1.106800 1_555
C8 N4 1.449041 1_555
C9 H37 1.096908 1_555
C9 H33 1.104928 1_555
C9 H29 1.106800 1_555
C9 N5 1.449041 1_555
C10 H38 1.096908 1_555
C10 H34 1.104928 1_555
C10 H30 1.106800 1_555
C10 N6 1.449041 1_555
C11 H39 1.096908 1_555
C11 H35 1.104928 1_555
C11 H31 1.106800 1_555
C11 N7 1.449041 1_555
C12 H40 1.096446 1_555
C12 H48 1.104403 1_555
C12 H44 1.106695 1_555
C12 N4 1.453439 1_555
C13 H41 1.096446 1_555
C13 H49 1.104403 1_555
C13 H45 1.106695 1_555
C13 N5 1.453439 1_555
C14 H42 1.096446 1_555
C14 H50 1.104403 1_555
C14 H46 1.106695 1_555
C14 N6 1.453439 1_555
C15 H43 1.096446 1_555
C15 H51 1.104403 1_555
C15 H47 1.106695 1_555
C15 N7 1.453439 1_555
C16 H52 1.093997 1_555
C16 H56 1.098584 1_555
C16 H60 1.104060 1_555
C16 N8 1.478831 1_555
C17 H53 1.093997 1_555
C17 H57 1.098584 1_455
C17 H61 1.104060 1_455
C17 N9 1.478831 1_555
C18 H54 1.093997 1_555
C18 H58 1.098584 1_555
C18 H62 1.104060 1_555
C18 N10 1.478831 1_555
C19 H55 1.093997 1_555
C19 H59 1.098584 1_655
C19 H63 1.104060 1_655
C19 N11 1.478831 1_555
C20 H72 1.092936 1_545
C20 H68 1.100357 1_545
C20 H64 1.103557 1_555
C20 N8 1.482860 1_555
C21 H73 1.092936 1_565
C21 H69 1.100357 1_565
C21 H65 1.103557 1_555
C21 N9 1.482860 1_555
C22 H74 1.092936 1_565
C22 H70 1.100357 1_565
C22 H66 1.103557 1_555
C22 N10 1.482860 1_555
C23 H75 1.092936 1_545
C23 H71 1.100357 1_545
C23 H67 1.103557 1_555
C23 N11 1.482860 1_555
N0 Ti0 1.887070 1_555
N1 Ti1 1.887070 1_555
N2 Ti2 1.887070 1_555
N3 Ti3 1.887070 1_555
N4 Ti0 1.886300 1_555
N5 Ti1 1.886300 1_555
N6 Ti2 1.886300 1_555
N7 Ti3 1.886300 1_555
N8 Ti0 2.420705 1_555
N9 Ti1 2.420705 1_555
N10 Ti2 2.420705 1_555
N11 Ti3 2.420705 1_555
Cl0 Ti0 2.378218 1_555
Cl1 Ti1 2.378218 1_555
Cl2 Ti2 2.378218 1_555
Cl3 Ti3 2.378218 1_555
Cl4 Ti0 2.332233 1_555
Cl5 Ti1 2.332233 1_555
Cl6 Ti2 2.332233 1_555
Cl7 Ti3 2.332233 1_555
