# generated using pymatgen
data_LiSm(SO4)2
_symmetry_space_group_name_H-M   'P 1'
_cell_length_a   7.63164400
_cell_length_b   7.63164400
_cell_length_c   6.04682900
_cell_angle_alpha   90.00000000
_cell_angle_beta   90.00000000
_cell_angle_gamma   90.00000000
_symmetry_Int_Tables_number   1
_chemical_formula_structural   LiSm(SO4)2
_chemical_formula_sum   'Li2 Sm2 S4 O16'
_cell_volume   352.17935501
_cell_formula_units_Z   2
loop_
 _symmetry_equiv_pos_site_id
 _symmetry_equiv_pos_as_xyz
  1  'x, y, z'
loop_
 _atom_site_type_symbol
 _atom_site_label
 _atom_site_symmetry_multiplicity
 _atom_site_fract_x
 _atom_site_fract_y
 _atom_site_fract_z
 _atom_site_occupancy
  Li  Li0  1  0.00000000  0.50000000  0.75000000  1
  Li  Li1  1  0.50000000  0.00000000  0.25000000  1
  Sm  Sm0  1  0.00000000  0.50000000  0.25000000  1
  Sm  Sm1  1  0.50000000  0.00000000  0.75000000  1
  S  S0  1  0.22173700  0.27826300  0.75000000  1
  S  S1  1  0.77826300  0.72173700  0.75000000  1
  S  S2  1  0.72173700  0.22173700  0.25000000  1
  S  S3  1  0.27826300  0.77826300  0.25000000  1
  O  O0  1  0.18431800  0.41263000  0.92723900  1
  O  O1  1  0.81568200  0.58737000  0.92723900  1
  O  O2  1  0.68431800  0.08737000  0.42723900  1
  O  O3  1  0.31568200  0.91263000  0.42723900  1
  O  O4  1  0.58737000  0.18431800  0.07276100  1
  O  O5  1  0.41263000  0.81568200  0.07276100  1
  O  O6  1  0.08737000  0.31568200  0.57276100  1
  O  O7  1  0.91263000  0.68431800  0.57276100  1
  O  O8  1  0.20561500  0.09939400  0.84270400  1
  O  O9  1  0.79438500  0.90060600  0.84270400  1
  O  O10  1  0.70561500  0.40060600  0.34270400  1
  O  O11  1  0.29438500  0.59939400  0.34270400  1
  O  O12  1  0.09939400  0.79438500  0.15729600  1
  O  O13  1  0.90060600  0.20561500  0.15729600  1
  O  O14  1  0.59939400  0.70561500  0.65729600  1
  O  O15  1  0.40060600  0.29438500  0.65729600  1
loop_
_geom_bond_atom_site_label_1
_geom_bond_atom_site_label_2
_geom_bond_distance
_geom_bond_site_symmetry_2
Li0 O1 1.889938 1_455
Li0 O7 1.889938 1_455
Li0 O6 1.889938 1_555
Li0 O0 1.889938 1_555
Li1 O4 1.889938 1_555
Li1 O2 1.889938 1_555
Li1 O5 1.889938 1_545
Li1 O3 1.889938 1_545
O0 S0 1.510527 1_555
O0 Sm0 2.496460 1_556
O1 S1 1.510527 1_555
O1 Sm0 2.496460 1_656
O2 S2 1.510527 1_555
O2 Sm1 2.496460 1_555
O3 S3 1.510527 1_555
O3 Sm1 2.496460 1_565
O4 S2 1.510527 1_555
O4 Sm1 2.496460 1_554
O5 S3 1.510527 1_555
O5 Sm1 2.496460 1_564
O6 S0 1.510527 1_555
O6 Sm0 2.496460 1_555
O7 S1 1.510527 1_555
O7 Sm0 2.496460 1_655
O8 S0 1.480801 1_555
O8 Sm1 2.436599 1_555
O9 S1 1.480801 1_555
O9 Sm1 2.436599 1_565
O10 S2 1.480801 1_555
O10 Sm0 2.436599 1_655
O11 S3 1.480801 1_555
O11 Sm0 2.436599 1_555
O12 S3 1.480801 1_555
O12 Sm0 2.436599 1_555
O13 S2 1.480801 1_555
O13 Sm0 2.436599 1_655
O14 S1 1.480801 1_555
O14 Sm1 2.436599 1_565
O15 S0 1.480801 1_555
O15 Sm1 2.436599 1_555
