# generated using pymatgen
data_LiV3OF11
_symmetry_space_group_name_H-M   'P 1'
_cell_length_a   5.23996300
_cell_length_b   5.44368173
_cell_length_c   15.42757813
_cell_angle_alpha   99.98891259
_cell_angle_beta   89.92283351
_cell_angle_gamma   90.81204552
_symmetry_Int_Tables_number   1
_chemical_formula_structural   LiV3OF11
_chemical_formula_sum   'Li2 V6 O2 F22'
_cell_volume   433.35226741
_cell_formula_units_Z   2
loop_
 _symmetry_equiv_pos_site_id
 _symmetry_equiv_pos_as_xyz
  1  'x, y, z'
loop_
 _atom_site_type_symbol
 _atom_site_label
 _atom_site_symmetry_multiplicity
 _atom_site_fract_x
 _atom_site_fract_y
 _atom_site_fract_z
 _atom_site_occupancy
  Li  Li0  1  0.96762700  0.70098600  0.73411400  1
  Li  Li1  1  0.03237300  0.29901400  0.26588600  1
  V  V0  1  0.01371100  0.19327000  0.83773000  1
  V  V1  1  0.50000000  0.00000000  0.50000000  1
  V  V2  1  0.51942000  0.33931600  0.16287500  1
  V  V3  1  0.98628900  0.80673000  0.16227000  1
  V  V4  1  0.48058000  0.66068400  0.83712500  1
  V  V5  1  0.00000000  0.50000000  0.50000000  1
  O  O0  1  0.18780100  0.46450800  0.80825400  1
  O  O1  1  0.81219900  0.53549200  0.19174600  1
  F  F0  1  0.30564100  0.62059300  0.14108900  1
  F  F1  1  0.69435900  0.37940700  0.85891100  1
  F  F2  1  0.07750700  0.92973200  0.27780900  1
  F  F3  1  0.41491500  0.06735600  0.61263400  1
  F  F4  1  0.08572100  0.22512300  0.95014000  1
  F  F5  1  0.58508500  0.93264400  0.38736600  1
  F  F6  1  0.57250800  0.24872800  0.04937500  1
  F  F7  1  0.92249300  0.07026800  0.72219100  1
  F  F8  1  0.19640300  0.78510900  0.47564400  1
  F  F9  1  0.29820800  0.94627600  0.80909900  1
  F  F10  1  0.19330900  0.12132300  0.14600900  1
  F  F11  1  0.69976700  0.70959400  0.52370500  1
  F  F12  1  0.80669100  0.87867700  0.85399100  1
  F  F13  1  0.38871500  0.40573200  0.27628200  1
  F  F14  1  0.08980200  0.57462700  0.61524500  1
  F  F15  1  0.42749200  0.75127200  0.95062500  1
  F  F16  1  0.91427900  0.77487700  0.04986000  1
  F  F17  1  0.91019800  0.42537300  0.38475500  1
  F  F18  1  0.61128500  0.59426800  0.72371800  1
  F  F19  1  0.30023300  0.29040600  0.47629500  1
  F  F20  1  0.70179200  0.05372400  0.19090100  1
  F  F21  1  0.80359700  0.21489100  0.52435600  1
loop_
_geom_bond_atom_site_label_1
_geom_bond_atom_site_label_2
_geom_bond_distance
_geom_bond_site_symmetry_2
Li0 O0 2.202939 1_655
Li1 O1 2.202939 1_455
O0 V0 1.847359 1_555
O0 V4 1.866239 1_555
O1 V3 1.847359 1_555
O1 V2 1.866239 1_555
F0 V3 1.966078 1_455
F0 V2 1.985066 1_555
F1 V0 1.966078 1_655
F1 V4 1.985066 1_555
F2 V3 1.852900 1_455
F2 Li1 2.067066 1_565
F3 V1 1.770375 1_555
F4 V0 1.753719 1_555
F5 V1 1.770375 1_565
F6 V2 1.757751 1_555
F7 V0 1.852900 1_655
F7 Li0 2.067066 1_545
F8 V5 1.940404 1_555
F8 V1 1.958763 1_565
F9 V4 1.947713 1_555
F9 V0 2.018488 1_565
F9 Li0 2.350708 1_455
F10 V2 2.057317 1_555
F10 V3 2.065947 1_445
F10 Li1 2.113161 1_555
F11 V5 1.953229 1_655
F11 V1 1.994280 1_565
F12 V4 2.057317 1_555
F12 V0 2.065947 1_665
F12 Li0 2.113161 1_555
F13 V2 1.856130 1_555
F13 Li1 1.946139 1_555
F14 V5 1.814893 1_555
F14 Li0 1.953906 1_455
F15 V4 1.757751 1_555
F16 V3 1.753719 1_555
F17 V5 1.814893 1_655
F17 Li1 1.953906 1_655
F18 V4 1.856130 1_555
F18 Li0 1.946139 1_555
F19 V5 1.953229 1_555
F19 V1 1.994280 1_555
F20 V2 1.947713 1_555
F20 V3 2.018488 1_545
F20 Li1 2.350708 1_655
F21 V5 1.940404 1_655
F21 V1 1.958763 1_555
