# generated using pymatgen
data_Te2MoWSeS
_symmetry_space_group_name_H-M   'P 1'
_cell_length_a   3.39414183
_cell_length_b   3.39414183
_cell_length_c   38.80657800
_cell_angle_alpha   90.00000000
_cell_angle_beta   90.00000000
_cell_angle_gamma   119.99999669
_symmetry_Int_Tables_number   1
_chemical_formula_structural   Te2MoWSeS
_chemical_formula_sum   'Te4 Mo2 W2 Se2 S2'
_cell_volume   387.16488990
_cell_formula_units_Z   2
loop_
 _symmetry_equiv_pos_site_id
 _symmetry_equiv_pos_as_xyz
  1  'x, y, z'
loop_
 _atom_site_type_symbol
 _atom_site_label
 _atom_site_symmetry_multiplicity
 _atom_site_fract_x
 _atom_site_fract_y
 _atom_site_fract_z
 _atom_site_occupancy
  Te  Te0  1  0.33333300  0.66666700  0.04561200  1
  Te  Te1  1  0.33333300  0.66666700  0.42130800  1
  Te  Te2  1  0.33333300  0.66666700  0.14224500  1
  Te  Te3  1  0.33333300  0.66666700  0.51798700  1
  Mo  Mo0  1  0.00000000  0.00000000  0.09391300  1
  Mo  Mo1  1  0.00000000  0.00000000  0.46962800  1
  W  W0  1  0.33333300  0.66666700  0.28179200  1
  W  W1  1  0.33333300  0.66666700  0.65756500  1
  Se  Se0  1  0.00000000  0.00000000  0.70024500  1
  Se  Se1  1  0.00000000  0.00000000  0.61486700  1
  S  S0  1  0.00000000  0.00000000  0.32060300  1
  S  S1  1  0.00000000  0.00000000  0.24298300  1
loop_
_geom_bond_atom_site_label_1
_geom_bond_atom_site_label_2
_geom_bond_distance
_geom_bond_site_symmetry_2
Mo0 Te0 2.711719 1_545
Mo0 Te0 2.711721 1_555
Mo0 Te0 2.711721 1_445
Mo0 Te2 2.712551 1_545
Mo0 Te2 2.712553 1_555
Mo0 Te2 2.712553 1_445
Mo1 Te1 2.712229 1_545
Mo1 Te1 2.712231 1_445
Mo1 Te1 2.712231 1_555
Mo1 Te3 2.713275 1_545
Mo1 Te3 2.713278 1_445
Mo1 Te3 2.713278 1_555
Se0 W1 2.565789 1_545
Se0 W1 2.565791 1_555
Se0 W1 2.565791 1_445
Se1 W1 2.566240 1_545
Se1 W1 2.566242 1_555
Se1 W1 2.566242 1_445
S0 W0 2.471530 1_545
S0 W0 2.471533 1_555
S0 W0 2.471533 1_445
S1 W0 2.471483 1_545
S1 W0 2.471485 1_555
S1 W0 2.471485 1_445
