# generated using pymatgen
data_Ho3CuSiS7
_symmetry_space_group_name_H-M   'P 1'
_cell_length_a   9.84938868
_cell_length_b   9.84938868
_cell_length_c   5.70385300
_cell_angle_alpha   90.00000000
_cell_angle_beta   90.00000000
_cell_angle_gamma   120.00000454
_symmetry_Int_Tables_number   1
_chemical_formula_structural   Ho3CuSiS7
_chemical_formula_sum   'Ho6 Cu2 Si2 S14'
_cell_volume   479.20074870
_cell_formula_units_Z   2
loop_
 _symmetry_equiv_pos_site_id
 _symmetry_equiv_pos_as_xyz
  1  'x, y, z'
loop_
 _atom_site_type_symbol
 _atom_site_label
 _atom_site_symmetry_multiplicity
 _atom_site_fract_x
 _atom_site_fract_y
 _atom_site_fract_z
 _atom_site_occupancy
  Ho  Ho0  1  0.86963700  0.64266200  0.24242300  1
  Ho  Ho1  1  0.22697600  0.86963700  0.74242300  1
  Ho  Ho2  1  0.64266200  0.77302400  0.74242300  1
  Ho  Ho3  1  0.35733800  0.22697600  0.24242300  1
  Ho  Ho4  1  0.77302400  0.13036300  0.24242300  1
  Ho  Ho5  1  0.13036300  0.35733800  0.74242300  1
  Cu  Cu0  1  0.00000000  0.00000000  0.19227700  1
  Cu  Cu1  1  0.00000000  0.00000000  0.69227700  1
  Si  Si0  1  0.33333300  0.66666700  0.33113700  1
  Si  Si1  1  0.66666700  0.33333300  0.83113700  1
  S  S0  1  0.10544500  0.58251600  0.48175100  1
  S  S1  1  0.89455500  0.41748400  0.98175100  1
  S  S2  1  0.58251600  0.47707100  0.98175100  1
  S  S3  1  0.47707100  0.89455500  0.48175100  1
  S  S4  1  0.16278100  0.90362300  0.21145100  1
  S  S5  1  0.25915800  0.16278100  0.71145100  1
  S  S6  1  0.52292900  0.10544500  0.98175100  1
  S  S7  1  0.41748400  0.52292900  0.48175100  1
  S  S8  1  0.33333300  0.66666700  0.96041300  1
  S  S9  1  0.66666700  0.33333300  0.46041300  1
  S  S10  1  0.83721900  0.09637700  0.71145100  1
  S  S11  1  0.74084200  0.83721900  0.21145100  1
  S  S12  1  0.09637700  0.25915800  0.21145100  1
  S  S13  1  0.90362300  0.74084200  0.71145100  1
loop_
_geom_bond_atom_site_label_1
_geom_bond_atom_site_label_2
_geom_bond_distance
_geom_bond_site_symmetry_2
Ho0 S4 2.748255 1_655
Ho0 S1 2.781037 1_554
Ho0 S11 2.782696 1_555
Ho0 S13 2.807226 1_555
Ho0 S2 2.873292 1_554
Ho0 S9 2.955361 1_555
Ho0 S0 2.997434 1_655
Ho0 S13 3.145759 1_554
Ho1 S5 2.748259 1_565
Ho1 S3 2.781028 1_555
Ho1 S13 2.782705 1_455
Ho1 S4 2.807229 1_556
Ho1 S0 2.873291 1_555
Ho1 S8 2.955348 1_555
Ho1 S6 2.997428 1_565
Ho1 S4 3.145762 1_555
Ho2 S13 2.748249 1_555
Ho2 S7 2.781032 1_555
Ho2 S10 2.782704 1_565
Ho2 S11 2.807227 1_556
Ho2 S3 2.873299 1_555
Ho2 S8 2.955364 1_555
Ho2 S2 2.997426 1_555
Ho2 S11 3.145760 1_555
Ho3 S12 2.748249 1_555
Ho3 S2 2.781032 1_554
Ho3 S4 2.782704 1_545
Ho3 S5 2.807227 1_555
Ho3 S6 2.873299 1_554
Ho3 S9 2.955364 1_555
Ho3 S7 2.997426 1_555
Ho3 S5 3.145760 1_554
Ho4 S11 2.748259 1_545
Ho4 S6 2.781028 1_554
Ho4 S12 2.782705 1_655
Ho4 S10 2.807229 1_555
Ho4 S1 2.873291 1_554
Ho4 S9 2.955348 1_555
Ho4 S3 2.997428 1_545
Ho4 S10 3.145762 1_554
Ho5 S10 2.748255 1_455
Ho5 S0 2.781037 1_555
Ho5 S5 2.782696 1_555
Ho5 S12 2.807226 1_556
Ho5 S7 2.873292 1_555
Ho5 S8 2.955361 1_555
Ho5 S1 2.997434 1_455
Ho5 S12 3.145759 1_555
Cu0 S11 2.237304 1_445
Cu0 S12 2.237304 1_555
Cu0 S4 2.237304 1_545
Cu1 S5 2.237304 1_555
Cu1 S13 2.237304 1_445
Cu1 S10 2.237304 1_455
S0 Si0 2.145380 1_555
S1 Si1 2.145380 1_555
S2 Si1 2.145389 1_555
S3 Si0 2.145381 1_555
S6 Si1 2.145381 1_555
S7 Si0 2.145389 1_555
S8 Si0 2.114555 1_556
S9 Si1 2.114555 1_555
