# generated using pymatgen
data_MnPbO3
_symmetry_space_group_name_H-M   'P 1'
_cell_length_a   10.04697600
_cell_length_b   5.84605800
_cell_length_c   5.40508478
_cell_angle_alpha   90.00000000
_cell_angle_beta   91.90228510
_cell_angle_gamma   90.00000000
_symmetry_Int_Tables_number   1
_chemical_formula_structural   MnPbO3
_chemical_formula_sum   'Mn4 Pb4 O12'
_cell_volume   317.29380021
_cell_formula_units_Z   4
loop_
 _symmetry_equiv_pos_site_id
 _symmetry_equiv_pos_as_xyz
  1  'x, y, z'
loop_
 _atom_site_type_symbol
 _atom_site_label
 _atom_site_symmetry_multiplicity
 _atom_site_fract_x
 _atom_site_fract_y
 _atom_site_fract_z
 _atom_site_occupancy
  Mn  Mn0  1  0.00000000  0.87474700  0.75000000  1
  Mn  Mn1  1  0.00000000  0.12525300  0.25000000  1
  Mn  Mn2  1  0.00000000  0.37612500  0.75000000  1
  Mn  Mn3  1  0.00000000  0.62387500  0.25000000  1
  Pb  Pb0  1  0.62204700  0.75005700  0.00723600  1
  Pb  Pb1  1  0.37795300  0.75005700  0.49276400  1
  Pb  Pb2  1  0.37795300  0.24994300  0.99276400  1
  Pb  Pb3  1  0.62204700  0.24994300  0.50723600  1
  O  O0  1  0.90312900  0.87324900  0.08616500  1
  O  O1  1  0.09687100  0.87324900  0.41383500  1
  O  O2  1  0.09687100  0.12675100  0.91383500  1
  O  O3  1  0.90312900  0.12675100  0.58616500  1
  O  O4  1  0.90451100  0.37659200  0.07429100  1
  O  O5  1  0.09548900  0.37659200  0.42570900  1
  O  O6  1  0.09548900  0.62340800  0.92570900  1
  O  O7  1  0.90451100  0.62340800  0.57429100  1
  O  O8  1  0.50000000  0.99771000  0.75000000  1
  O  O9  1  0.50000000  0.00229000  0.25000000  1
  O  O10  1  0.50000000  0.49628900  0.75000000  1
  O  O11  1  0.50000000  0.50371100  0.25000000  1
loop_
_geom_bond_atom_site_label_1
_geom_bond_atom_site_label_2
_geom_bond_distance
_geom_bond_site_symmetry_2
Mn0 O2 1.960767 1_565
Mn0 O3 1.960767 1_465
Mn0 O6 1.980114 1_555
Mn0 O7 1.980114 1_455
Mn0 O1 2.089547 1_555
Mn0 O0 2.089547 1_456
Mn1 O1 1.960767 1_545
Mn1 O0 1.960767 1_445
Mn1 O5 1.980114 1_555
Mn1 O4 1.980114 1_455
Mn1 O2 2.089547 1_554
Mn1 O3 2.089547 1_455
Mn2 O2 1.949242 1_555
Mn2 O3 1.949242 1_455
Mn2 O6 1.962583 1_555
Mn2 O7 1.962583 1_455
Mn2 O5 2.025939 1_555
Mn2 O4 2.025939 1_456
Mn3 O1 1.949242 1_555
Mn3 O0 1.949242 1_455
Mn3 O5 1.962583 1_555
Mn3 O4 1.962583 1_455
Mn3 O6 2.025939 1_554
Mn3 O7 2.025939 1_455
O8 Pb0 2.328016 1_556
O8 Pb1 2.328016 1_555
O8 Pb3 2.346596 1_565
O8 Pb2 2.346596 1_565
O9 Pb2 2.328016 1_554
O9 Pb3 2.328016 1_555
O9 Pb1 2.346596 1_545
O9 Pb0 2.346596 1_545
O10 Pb2 2.325123 1_555
O10 Pb3 2.325123 1_555
O10 Pb1 2.350414 1_555
O10 Pb0 2.350414 1_556
O11 Pb1 2.325123 1_555
O11 Pb0 2.325123 1_555
O11 Pb2 2.350414 1_554
O11 Pb3 2.350414 1_555
