# generated using pymatgen
data_LaMg14Si
_symmetry_space_group_name_H-M   'P 1'
_cell_length_a   6.53395510
_cell_length_b   6.33063293
_cell_length_c   10.33082728
_cell_angle_alpha   90.00000000
_cell_angle_beta   90.00000000
_cell_angle_gamma   118.97586755
_symmetry_Int_Tables_number   1
_chemical_formula_structural   LaMg14Si
_chemical_formula_sum   'La1 Mg14 Si1'
_cell_volume   373.83415851
_cell_formula_units_Z   1
loop_
 _symmetry_equiv_pos_site_id
 _symmetry_equiv_pos_as_xyz
  1  'x, y, z'
loop_
 _atom_site_type_symbol
 _atom_site_label
 _atom_site_symmetry_multiplicity
 _atom_site_fract_x
 _atom_site_fract_y
 _atom_site_fract_z
 _atom_site_occupancy
  La  La0  1  0.15350514  0.32675207  0.12500000  1
  Mg  Mg0  1  0.16610429  0.33305165  0.62500000  1
  Mg  Mg1  1  0.16003510  0.83001705  0.62500000  1
  Mg  Mg2  1  0.64991038  0.31596830  0.12500000  1
  Mg  Mg3  1  0.66558136  0.33716196  0.62500000  1
  Mg  Mg4  1  0.64991038  0.83394108  0.12500000  1
  Mg  Mg5  1  0.66558136  0.82841840  0.62500000  1
  Mg  Mg6  1  0.33725414  0.16205234  0.38105161  1
  Mg  Mg7  1  0.33725414  0.16205234  0.86894839  1
  Mg  Mg8  1  0.33725414  0.67520280  0.38105161  1
  Mg  Mg9  1  0.33725414  0.67520280  0.86894839  1
  Mg  Mg10  1  0.82879716  0.16439908  0.38670539  1
  Mg  Mg11  1  0.82879716  0.16439908  0.86329461  1
  Mg  Mg12  1  0.84585762  0.67292931  0.36043383  1
  Mg  Mg13  1  0.84585762  0.67292931  0.88956617  1
  Si  Si0  1  0.19104587  0.84552243  0.12500000  1
loop_
_geom_bond_atom_site_label_1
_geom_bond_atom_site_label_2
_geom_bond_distance
_geom_bond_site_symmetry_2
La0 Si0 3.172582 1_555
La0 Si0 3.172582 1_545
La0 Mg4 3.257941 1_445
La0 Mg2 3.257941 1_455
La0 Mg7 3.276990 1_554
La0 Mg6 3.276990 1_555
La0 Mg9 3.276996 1_554
La0 Mg8 3.276996 1_555
La0 Mg4 3.277105 1_555
La0 Mg2 3.277106 1_555
La0 Mg11 3.279414 1_454
La0 Mg10 3.279414 1_455
Mg0 Mg10 3.126949 1_455
Mg0 Mg11 3.126949 1_455
Mg0 Mg7 3.153840 1_555
Mg0 Mg6 3.153840 1_555
Mg0 Mg8 3.153846 1_555
Mg0 Mg9 3.153846 1_555
Mg0 Mg1 3.165507 1_555
Mg0 Mg1 3.165507 1_545
Mg0 Mg5 3.251035 1_555
Mg0 Mg3 3.251035 1_555
Mg0 Mg5 3.283079 1_445
Mg0 Mg3 3.283079 1_455
Mg1 Mg8 3.122863 1_555
Mg1 Mg9 3.122863 1_555
Mg1 Mg6 3.122869 1_565
Mg1 Mg7 3.122869 1_565
Mg1 Mg3 3.225848 1_455
Mg1 Mg5 3.225848 1_455
Mg1 Mg12 3.270385 1_455
Mg1 Mg13 3.270385 1_455
Mg1 Mg3 3.308131 1_565
Mg1 Mg5 3.308131 1_555
Mg2 Si0 3.034396 1_545
Mg2 Mg4 3.051537 1_545
Mg2 Mg7 3.192396 1_554
Mg2 Mg6 3.192396 1_555
Mg2 Mg4 3.279096 1_555
Mg3 Mg5 3.109964 1_555
Mg3 Mg6 3.142976 1_555
Mg3 Mg7 3.142976 1_555
Mg3 Mg5 3.220669 1_545
Mg4 Si0 3.034396 1_555
Mg4 Mg9 3.192396 1_554
Mg4 Mg8 3.192396 1_555
Mg5 Mg8 3.142976 1_555
Mg5 Mg9 3.142976 1_555
Mg6 Mg8 3.082066 1_545
Mg6 Si0 3.173400 1_545
Mg6 Mg8 3.248567 1_555
Mg7 Mg9 3.082066 1_545
Mg7 Si0 3.173400 1_546
Mg7 Mg9 3.248567 1_555
Mg8 Si0 3.173394 1_555
Mg9 Si0 3.173394 1_556
Mg10 Mg3 3.086085 1_555
Mg10 Mg5 3.086091 1_545
Mg10 Mg12 3.178427 1_555
Mg10 Mg12 3.178427 1_545
Mg10 Mg8 3.205081 1_545
Mg10 Mg6 3.205082 1_555
Mg10 Mg2 3.268508 1_555
Mg10 Mg4 3.268514 1_545
Mg10 Mg8 3.329969 1_655
Mg10 Mg6 3.329970 1_655
Mg11 Mg3 3.086085 1_555
Mg11 Mg5 3.086091 1_545
Mg11 Mg13 3.178427 1_555
Mg11 Mg13 3.178427 1_545
Mg11 Mg9 3.205081 1_545
Mg11 Mg7 3.205082 1_555
Mg11 Mg2 3.268508 1_556
Mg11 Mg4 3.268514 1_546
Mg11 Mg9 3.329969 1_655
Mg11 Mg7 3.329970 1_655
Mg12 Si0 3.131919 1_655
Mg12 Mg4 3.139797 1_555
Mg12 Mg2 3.139803 1_555
Mg12 Mg6 3.210887 1_665
Mg12 Mg8 3.210888 1_655
Mg12 Mg5 3.309098 1_555
Mg12 Mg3 3.309104 1_555
Mg12 Mg6 3.336993 1_555
Mg12 Mg8 3.336993 1_555
Mg13 Si0 3.131919 1_656
Mg13 Mg4 3.139797 1_556
Mg13 Mg2 3.139803 1_556
Mg13 Mg7 3.210887 1_665
Mg13 Mg9 3.210888 1_655
Mg13 Mg5 3.309098 1_555
Mg13 Mg3 3.309104 1_555
Mg13 Mg7 3.336993 1_555
Mg13 Mg9 3.336993 1_555
