# generated using pymatgen
data_Bi(Mo3S4)2
_symmetry_space_group_name_H-M   'P 1'
_cell_length_a   6.57963277
_cell_length_b   6.57963277
_cell_length_c   6.57963309
_cell_angle_alpha   89.94960315
_cell_angle_beta   89.94960315
_cell_angle_gamma   89.94959452
_symmetry_Int_Tables_number   1
_chemical_formula_structural   Bi(Mo3S4)2
_chemical_formula_sum   'Bi1 Mo6 S8'
_cell_volume   284.84229881
_cell_formula_units_Z   1
loop_
 _symmetry_equiv_pos_site_id
 _symmetry_equiv_pos_as_xyz
  1  'x, y, z'
loop_
 _atom_site_type_symbol
 _atom_site_label
 _atom_site_symmetry_multiplicity
 _atom_site_fract_x
 _atom_site_fract_y
 _atom_site_fract_z
 _atom_site_occupancy
  Bi  Bi0  1  0.00000000  0.00000000  0.00000000  1
  Mo  Mo0  1  0.22669500  0.56106600  0.41608100  1
  Mo  Mo1  1  0.56106600  0.41608100  0.22669500  1
  Mo  Mo2  1  0.41608100  0.22669500  0.56106600  1
  Mo  Mo3  1  0.77330500  0.43893400  0.58391900  1
  Mo  Mo4  1  0.43893400  0.58391900  0.77330500  1
  Mo  Mo5  1  0.58391900  0.77330500  0.43893400  1
  S  S0  1  0.24085600  0.24085600  0.24085600  1
  S  S1  1  0.75914400  0.75914400  0.75914400  1
  S  S2  1  0.74083800  0.12703100  0.37515800  1
  S  S3  1  0.12703100  0.37515800  0.74083800  1
  S  S4  1  0.37515800  0.74083800  0.12703100  1
  S  S5  1  0.25916200  0.87297000  0.62484200  1
  S  S6  1  0.87297000  0.62484200  0.25916200  1
  S  S7  1  0.62484200  0.25916200  0.87296900  1
loop_
_geom_bond_atom_site_label_1
_geom_bond_atom_site_label_2
_geom_bond_distance
_geom_bond_site_symmetry_2
Bi0 S1 2.747271 1_444
Bi0 S0 2.747271 1_555
Bi0 S5 3.113355 1_544
Bi0 S6 3.113355 1_445
Bi0 S7 3.113357 1_454
Bi0 S4 3.113357 1_545
Bi0 S2 3.113357 1_455
Bi0 S3 3.113357 1_554
Mo0 S0 2.404270 1_555
Mo0 S4 2.442358 1_555
Mo0 S5 2.479951 1_555
Mo0 S3 2.546847 1_555
Mo0 S6 2.580799 1_455
Mo1 S0 2.404270 1_555
Mo1 S2 2.442357 1_555
Mo1 S6 2.479951 1_555
Mo1 S4 2.546847 1_555
Mo1 S7 2.580805 1_554
Mo2 S0 2.404270 1_555
Mo2 S3 2.442357 1_555
Mo2 S7 2.479946 1_555
Mo2 S2 2.546847 1_555
Mo2 S5 2.580799 1_545
Mo3 S1 2.404270 1_555
Mo3 S7 2.442358 1_555
Mo3 S2 2.479946 1_555
Mo3 S6 2.546849 1_555
Mo3 S3 2.580805 1_655
Mo4 S1 2.404270 1_555
Mo4 S5 2.442362 1_555
Mo4 S3 2.479946 1_555
Mo4 S7 2.546847 1_555
Mo4 S4 2.580805 1_556
Mo5 S1 2.404270 1_555
Mo5 S6 2.442362 1_555
Mo5 S4 2.479946 1_555
Mo5 S5 2.546849 1_555
Mo5 S2 2.580805 1_565
