# generated using pymatgen
data_Al2CuNi
_symmetry_space_group_name_H-M   'P 1'
_cell_length_a   10.25297403
_cell_length_b   10.25297403
_cell_length_c   10.25297403
_cell_angle_alpha   125.79305843
_cell_angle_beta   118.09096308
_cell_angle_gamma   86.80512762
_symmetry_Int_Tables_number   1
_chemical_formula_structural   Al2CuNi
_chemical_formula_sum   'Al2 Cu1 Ni1'
_cell_volume   734.03896055
_cell_formula_units_Z   1
loop_
 _symmetry_equiv_pos_site_id
 _symmetry_equiv_pos_as_xyz
  1  'x, y, z'
loop_
 _atom_site_type_symbol
 _atom_site_label
 _atom_site_symmetry_multiplicity
 _atom_site_fract_x
 _atom_site_fract_y
 _atom_site_fract_z
 _atom_site_occupancy
  Al  Al0  1  0.00000000  0.24228400  0.24228400  1
  Al  Al1  1  0.00000000  0.75771600  0.75771600  1
  Cu  Cu0  1  0.00000000  0.50000000  0.50000000  1
  Ni  Ni0  1  0.00000000  0.00000000  0.00000000  1
loop_
_geom_bond_atom_site_label_1
_geom_bond_atom_site_label_2
_geom_bond_distance
_geom_bond_site_symmetry_2
Al0 Ni0 2.263535 1_555
Al0 Cu0 2.407708 1_555
Al1 Ni0 2.263535 1_566
Al1 Cu0 2.407708 1_555
