# generated using pymatgen
data_MgMn2O4
_symmetry_space_group_name_H-M   'P 1'
_cell_length_a   6.03724214
_cell_length_b   6.03724214
_cell_length_c   20.06132696
_cell_angle_alpha   81.37482126
_cell_angle_beta   81.37482126
_cell_angle_gamma   60.21553891
_symmetry_Int_Tables_number   1
_chemical_formula_structural   MgMn2O4
_chemical_formula_sum   'Mg8 Mn16 O32'
_cell_volume   625.00080327
_cell_formula_units_Z   8
loop_
 _symmetry_equiv_pos_site_id
 _symmetry_equiv_pos_as_xyz
  1  'x, y, z'
loop_
 _atom_site_type_symbol
 _atom_site_label
 _atom_site_symmetry_multiplicity
 _atom_site_fract_x
 _atom_site_fract_y
 _atom_site_fract_z
 _atom_site_occupancy
  Mg  Mg0  1  0.85195600  0.85195600  0.97054500  1
  Mg  Mg1  1  0.37553800  0.37553800  0.87493900  1
  Mg  Mg2  1  0.60285300  0.60285300  0.71865400  1
  Mg  Mg3  1  0.12534000  0.12534000  0.62461300  1
  Mg  Mg4  1  0.87486100  0.87486100  0.37514600  1
  Mg  Mg5  1  0.99927400  0.99927400  0.49981000  1
  Mg  Mg6  1  0.62522700  0.62522700  0.12538000  1
  Mg  Mg7  1  0.75040400  0.75040400  0.25062300  1
  Mn  Mn0  1  0.37574600  0.87345700  0.87497500  1
  Mn  Mn1  1  0.24885400  0.24885400  0.74937500  1
  Mn  Mn2  1  0.87345700  0.37574600  0.87497500  1
  Mn  Mn3  1  0.35185100  0.35185100  0.46562700  1
  Mn  Mn4  1  0.12737000  0.62636500  0.62449900  1
  Mn  Mn5  1  0.89947700  0.89947700  0.78020500  1
  Mn  Mn6  1  0.10115400  0.10115400  0.21846600  1
  Mn  Mn7  1  0.62636500  0.12737000  0.62449900  1
  Mn  Mn8  1  0.87484100  0.37500500  0.37522100  1
  Mn  Mn9  1  0.64835100  0.64835100  0.53237000  1
  Mn  Mn10  1  0.37500500  0.87484100  0.37522100  1
  Mn  Mn11  1  0.12156900  0.62380800  0.12562500  1
  Mn  Mn12  1  0.62380800  0.12156900  0.12562500  1
  Mn  Mn13  1  0.39798200  0.39798200  0.28407300  1
  Mn  Mn14  1  0.50187600  0.50187600  0.99921000  1
  Mn  Mn15  1  0.14979100  0.14979100  0.03109800  1
  O  O0  1  0.67868500  0.22685800  0.93622100  1
  O  O1  1  0.56727000  0.56727000  0.82184800  1
  O  O2  1  0.22685800  0.67868500  0.93622100  1
  O  O3  1  0.68183400  0.68183400  0.93854000  1
  O  O4  1  0.07010800  0.07010800  0.81176900  1
  O  O5  1  0.43141900  0.97879500  0.68581800  1
  O  O6  1  0.51866400  0.07272900  0.81369300  1
  O  O7  1  0.31662000  0.31662000  0.57161800  1
  O  O8  1  0.97879500  0.43141900  0.68581800  1
  O  O9  1  0.18268700  0.18268700  0.92631100  1
  O  O10  1  0.42946400  0.42946400  0.68397500  1
  O  O11  1  0.07272900  0.51866400  0.81369300  1
  O  O12  1  0.18565400  0.72488900  0.43199700  1
  O  O13  1  0.81962500  0.81962500  0.56971400  1
  O  O14  1  0.27684000  0.81392900  0.56891300  1
  O  O15  1  0.06736200  0.06736200  0.32208100  1
  O  O16  1  0.72488900  0.18565400  0.43199700  1
  O  O17  1  0.93329800  0.93329800  0.67755300  1
  O  O18  1  0.17664700  0.17664700  0.43090100  1
  O  O19  1  0.81392900  0.27684000  0.56891300  1
  O  O20  1  0.57288400  0.57288400  0.31953700  1
  O  O21  1  0.93539000  0.47208500  0.18124100  1
  O  O22  1  0.02515200  0.56370200  0.31846200  1
  O  O23  1  0.81691100  0.81691100  0.07187300  1
  O  O24  1  0.47208500  0.93539000  0.18124100  1
  O  O25  1  0.68246200  0.68246200  0.42855200  1
  O  O26  1  0.93031500  0.93031500  0.18164800  1
  O  O27  1  0.56370200  0.02515200  0.31846200  1
  O  O28  1  0.32454400  0.32454400  0.06470700  1
  O  O29  1  0.76682700  0.32097800  0.06401200  1
  O  O30  1  0.43236400  0.43236400  0.17788600  1
  O  O31  1  0.32097800  0.76682700  0.06401200  1
loop_
_geom_bond_atom_site_label_1
_geom_bond_atom_site_label_2
_geom_bond_distance
_geom_bond_site_symmetry_2
Mg0 O3 1.991370 1_555
Mg0 O23 2.002042 1_556
Mg0 O2 2.021795 1_655
Mg0 O0 2.021795 1_565
Mg1 O2 2.092478 1_555
Mg1 O0 2.092478 1_555
Mg1 O6 2.093865 1_555
Mg1 O11 2.093865 1_555
Mg1 O9 2.097660 1_555
Mg1 O1 2.098982 1_555
Mg2 O8 2.019596 1_555
Mg2 O5 2.019596 1_555
Mg2 O1 2.038903 1_555
Mg2 O10 2.049645 1_555
Mg3 O19 2.057918 1_455
Mg3 O14 2.057918 1_545
Mg3 O7 2.094234 1_555
Mg3 O17 2.100755 1_445
Mg3 O5 2.106065 1_545
Mg3 O8 2.106065 1_455
Mg4 O27 2.069591 1_565
Mg4 O22 2.069591 1_655
Mg4 O12 2.070148 1_655
Mg4 O16 2.070148 1_565
Mg4 O15 2.105766 1_665
Mg4 O25 2.107179 1_555
Mg5 O12 2.055710 1_655
Mg5 O16 2.055710 1_565
Mg5 O14 2.085818 1_655
Mg5 O19 2.085818 1_565
Mg5 O18 2.110843 1_665
Mg5 O13 2.139047 1_555
Mg6 O24 2.053214 1_555
Mg6 O21 2.053214 1_555
Mg6 O23 2.101417 1_555
Mg6 O31 2.103090 1_555
Mg6 O29 2.103090 1_555
Mg6 O30 2.105269 1_555
Mg7 O27 2.057556 1_565
Mg7 O22 2.057556 1_655
Mg7 O24 2.092582 1_555
Mg7 O21 2.092582 1_555
Mg7 O20 2.112067 1_555
Mg7 O26 2.131828 1_555
Mn0 O9 1.989802 1_565
Mn0 O6 1.993166 1_565
Mn0 O2 1.996445 1_555
Mn0 O1 1.996942 1_555
Mn0 O4 2.120372 1_565
Mn0 O3 2.125974 1_555
Mn1 O5 1.978761 1_545
Mn1 O8 1.978761 1_455
Mn1 O11 1.986709 1_555
Mn1 O6 1.986709 1_555
Mn1 O4 2.059724 1_555
Mn1 O10 2.102916 1_555
Mn2 O9 1.989802 1_655
Mn2 O11 1.993166 1_655
Mn2 O0 1.996445 1_555
Mn2 O1 1.996942 1_555
Mn2 O4 2.120372 1_655
Mn2 O3 2.125974 1_555
Mn3 O12 2.009055 1_555
Mn3 O16 2.009055 1_555
Mn3 O18 2.067985 1_555
Mn3 O7 2.094125 1_555
Mn4 O14 1.916944 1_555
Mn4 O8 1.996647 1_455
Mn4 O17 1.999967 1_455
Mn4 O7 2.009131 1_555
Mn4 O13 2.023708 1_455
Mn4 O10 2.058259 1_555
Mn5 O4 1.992213 1_665
Mn5 O17 2.028158 1_555
Mn5 O11 2.046827 1_655
Mn5 O6 2.046827 1_565
Mn6 O24 2.017472 1_545
Mn6 O21 2.017472 1_455
Mn6 O26 2.046203 1_445
Mn6 O15 2.047194 1_555
Mn7 O19 1.916944 1_555
Mn7 O5 1.996647 1_545
Mn7 O17 1.999967 1_545
Mn7 O7 2.009131 1_555
Mn7 O13 2.023708 1_545
Mn7 O10 2.058259 1_555
Mn8 O22 1.935429 1_655
Mn8 O16 1.937015 1_555
Mn8 O15 2.003647 1_655
Mn8 O25 2.005047 1_555
Mn8 O18 2.010783 1_655
Mn8 O20 2.011287 1_555
Mn9 O14 2.016552 1_555
Mn9 O19 2.016552 1_555
Mn9 O25 2.051197 1_555
Mn9 O13 2.055868 1_555
Mn10 O27 1.935429 1_565
Mn10 O12 1.937015 1_555
Mn10 O15 2.003647 1_565
Mn10 O25 2.005047 1_555
Mn10 O18 2.010783 1_565
Mn10 O20 2.011287 1_555
Mn11 O21 1.920275 1_455
Mn11 O31 1.997227 1_555
Mn11 O23 1.998117 1_455
Mn11 O30 2.006935 1_555
Mn11 O26 2.032834 1_455
Mn11 O28 2.067114 1_555
Mn12 O24 1.920275 1_545
Mn12 O29 1.997227 1_555
Mn12 O23 1.998117 1_545
Mn12 O30 2.006935 1_555
Mn12 O26 2.032834 1_545
Mn12 O28 2.067114 1_555
Mn13 O22 2.011792 1_555
Mn13 O27 2.011792 1_555
Mn13 O20 2.072315 1_555
Mn13 O30 2.098022 1_555
Mn14 O31 1.975788 1_556
Mn14 O29 1.975788 1_556
Mn14 O2 1.989207 1_555
Mn14 O0 1.989207 1_555
Mn14 O3 2.054643 1_555
Mn14 O28 2.076939 1_556
Mn15 O28 2.052633 1_555
Mn15 O29 2.054883 1_455
Mn15 O31 2.054883 1_545
Mn15 O9 2.070441 1_554
