# generated using pymatgen
data_TbWO5
_symmetry_space_group_name_H-M   'P 1'
_cell_length_a   12.89400000
_cell_length_b   5.29865400
_cell_length_c   7.03060919
_cell_angle_alpha   63.16300558
_cell_angle_beta   90.00000000
_cell_angle_gamma   90.00000000
_symmetry_Int_Tables_number   1
_chemical_formula_structural   TbWO5
_chemical_formula_sum   'Tb4 W4 O20'
_cell_volume   428.60221065
_cell_formula_units_Z   4
loop_
 _symmetry_equiv_pos_site_id
 _symmetry_equiv_pos_as_xyz
  1  'x, y, z'
loop_
 _atom_site_type_symbol
 _atom_site_label
 _atom_site_symmetry_multiplicity
 _atom_site_fract_x
 _atom_site_fract_y
 _atom_site_fract_z
 _atom_site_occupancy
  Tb  Tb0  1  0.55633600  0.63805500  0.21666800  1
  Tb  Tb1  1  0.44366400  0.36194500  0.78333200  1
  Tb  Tb2  1  0.05633600  0.36194500  0.28333200  1
  Tb  Tb3  1  0.94366400  0.63805500  0.71666800  1
  W  W0  1  0.86095400  0.88378100  0.15559500  1
  W  W1  1  0.13904600  0.11621900  0.84440500  1
  W  W2  1  0.36095400  0.11621900  0.34440500  1
  W  W3  1  0.63904600  0.88378100  0.65559500  1
  O  O0  1  0.91095400  0.52633500  0.43195800  1
  O  O1  1  0.08904600  0.47366500  0.56804200  1
  O  O2  1  0.41095400  0.47366500  0.06804200  1
  O  O3  1  0.58904600  0.52633500  0.93195800  1
  O  O4  1  0.42963100  0.99254600  0.15750700  1
  O  O5  1  0.57036900  0.00745400  0.84249300  1
  O  O6  1  0.92963100  0.00745400  0.34249300  1
  O  O7  1  0.07036900  0.99254600  0.65750700  1
  O  O8  1  0.93198000  0.69036400  0.03018800  1
  O  O9  1  0.06802000  0.30963600  0.96981200  1
  O  O10  1  0.43198000  0.30963600  0.46981200  1
  O  O11  1  0.56802000  0.69036400  0.53018800  1
  O  O12  1  0.72582200  0.79260700  0.20539400  1
  O  O13  1  0.27417800  0.20739300  0.79460600  1
  O  O14  1  0.22582200  0.20739300  0.29460600  1
  O  O15  1  0.77417800  0.79260700  0.70539400  1
  O  O16  1  0.14295700  0.77190000  0.07428100  1
  O  O17  1  0.85704300  0.22810000  0.92571900  1
  O  O18  1  0.64295700  0.22810000  0.42571900  1
  O  O19  1  0.35704300  0.77190000  0.57428100  1
loop_
_geom_bond_atom_site_label_1
_geom_bond_atom_site_label_2
_geom_bond_distance
_geom_bond_site_symmetry_2
O0 W0 2.110770 1_555
O0 Tb3 2.367473 1_555
O0 Tb2 2.487242 1_655
O1 W1 2.110770 1_555
O1 Tb2 2.367473 1_555
O1 Tb3 2.487242 1_455
O2 W2 2.110770 1_555
O2 Tb1 2.367473 1_554
O2 Tb0 2.487242 1_555
O3 W3 2.110770 1_555
O3 Tb0 2.367473 1_556
O3 Tb1 2.487242 1_555
O4 W2 1.928120 1_565
O4 Tb0 2.380081 1_555
O4 Tb1 2.476926 1_564
O5 W3 1.928120 1_545
O5 Tb1 2.380081 1_555
O5 Tb0 2.476926 1_546
O6 W0 1.928120 1_545
O6 Tb2 2.380081 1_655
O6 Tb3 2.476926 1_545
O7 W1 1.928120 1_565
O7 Tb3 2.380081 1_455
O7 Tb2 2.476926 1_565
O8 W0 1.866082 1_555
O8 Tb3 2.347297 1_554
O8 Tb2 2.443441 1_655
O9 W1 1.866082 1_555
O9 Tb2 2.347297 1_556
O9 Tb3 2.443441 1_455
O10 W2 1.866082 1_555
O10 Tb1 2.347297 1_555
O10 Tb0 2.443441 1_555
O11 W3 1.866082 1_555
O11 Tb0 2.347297 1_555
O11 Tb1 2.443441 1_555
O12 W0 1.799772 1_555
O12 Tb0 2.322513 1_555
O13 W1 1.799772 1_555
O13 Tb1 2.322513 1_555
O14 W2 1.799772 1_555
O14 Tb2 2.322513 1_555
O15 W3 1.799772 1_555
O15 Tb3 2.322513 1_555
O16 W1 1.811293 1_564
O16 Tb2 2.289866 1_555
O17 W0 1.811293 1_546
O17 Tb3 2.289866 1_555
O18 W3 1.811293 1_545
O18 Tb0 2.289866 1_555
O19 W2 1.811293 1_565
O19 Tb1 2.289866 1_555
