# generated using pymatgen
data_Ca7CoN6
_symmetry_space_group_name_H-M   'P 1'
_cell_length_a   10.85611500
_cell_length_b   6.24441600
_cell_length_c   12.92587500
_cell_angle_alpha   90.00000000
_cell_angle_beta   90.00000000
_cell_angle_gamma   90.00000000
_symmetry_Int_Tables_number   1
_chemical_formula_structural   Ca7CoN6
_chemical_formula_sum   'Ca28 Co4 N24'
_cell_volume   876.24633562
_cell_formula_units_Z   4
loop_
 _symmetry_equiv_pos_site_id
 _symmetry_equiv_pos_as_xyz
  1  'x, y, z'
loop_
 _atom_site_type_symbol
 _atom_site_label
 _atom_site_symmetry_multiplicity
 _atom_site_fract_x
 _atom_site_fract_y
 _atom_site_fract_z
 _atom_site_occupancy
  Ca  Ca0  1  0.03909000  0.73023700  0.97731400  1
  Ca  Ca1  1  0.46091000  0.76976300  0.47731400  1
  Ca  Ca2  1  0.53909000  0.76976300  0.02268600  1
  Ca  Ca3  1  0.96091000  0.73023700  0.52268600  1
  Ca  Ca4  1  0.96091000  0.26976300  0.02268600  1
  Ca  Ca5  1  0.53909000  0.23023700  0.52268600  1
  Ca  Ca6  1  0.46091000  0.23023700  0.97731400  1
  Ca  Ca7  1  0.03909000  0.26976300  0.47731400  1
  Ca  Ca8  1  0.22613100  0.85845100  0.62569400  1
  Ca  Ca9  1  0.27386900  0.64154900  0.12569400  1
  Ca  Ca10  1  0.72613100  0.64154900  0.37430600  1
  Ca  Ca11  1  0.77386900  0.85845100  0.87430600  1
  Ca  Ca12  1  0.77386900  0.14154900  0.37430600  1
  Ca  Ca13  1  0.72613100  0.35845100  0.87430600  1
  Ca  Ca14  1  0.27386900  0.35845100  0.62569400  1
  Ca  Ca15  1  0.22613100  0.14154900  0.12569400  1
  Ca  Ca16  1  0.29735300  0.61178200  0.87640900  1
  Ca  Ca17  1  0.20264700  0.88821800  0.37640900  1
  Ca  Ca18  1  0.79735300  0.88821800  0.12359100  1
  Ca  Ca19  1  0.70264700  0.61178200  0.62359100  1
  Ca  Ca20  1  0.70264700  0.38821800  0.12359100  1
  Ca  Ca21  1  0.79735300  0.11178200  0.62359100  1
  Ca  Ca22  1  0.20264700  0.11178200  0.87640900  1
  Ca  Ca23  1  0.29735300  0.38821800  0.37640900  1
  Ca  Ca24  1  0.00000000  0.44548400  0.75000000  1
  Ca  Ca25  1  0.50000000  0.05451600  0.25000000  1
  Ca  Ca26  1  0.00000000  0.55451600  0.25000000  1
  Ca  Ca27  1  0.50000000  0.94548400  0.75000000  1
  Co  Co0  1  0.00000000  0.93524300  0.75000000  1
  Co  Co1  1  0.50000000  0.56475700  0.25000000  1
  Co  Co2  1  0.00000000  0.06475700  0.25000000  1
  Co  Co3  1  0.50000000  0.43524300  0.75000000  1
  N  N0  1  0.12752200  0.75775800  0.79110800  1
  N  N1  1  0.37247800  0.74224200  0.29110800  1
  N  N2  1  0.62752200  0.74224200  0.20889200  1
  N  N3  1  0.87247800  0.75775800  0.70889200  1
  N  N4  1  0.87247800  0.24224200  0.20889200  1
  N  N5  1  0.62752200  0.25775800  0.70889200  1
  N  N6  1  0.37247800  0.25775800  0.79110800  1
  N  N7  1  0.12752200  0.24224200  0.29110800  1
  N  N8  1  0.16654500  0.59267000  0.50238100  1
  N  N9  1  0.33345500  0.90733000  0.00238100  1
  N  N10  1  0.66654500  0.90733000  0.49761900  1
  N  N11  1  0.83345500  0.59267000  0.99761900  1
  N  N12  1  0.83345500  0.40733000  0.49761900  1
  N  N13  1  0.66654500  0.09267000  0.99761900  1
  N  N14  1  0.33345500  0.09267000  0.50238100  1
  N  N15  1  0.16654500  0.40733000  0.00238100  1
  N  N16  1  0.44922500  0.61430500  0.64654600  1
  N  N17  1  0.05077600  0.88569500  0.14654600  1
  N  N18  1  0.94922500  0.88569500  0.35345400  1
  N  N19  1  0.55077500  0.61430500  0.85345400  1
  N  N20  1  0.55077500  0.38569500  0.35345400  1
  N  N21  1  0.94922500  0.11430500  0.85345400  1
  N  N22  1  0.05077600  0.11430500  0.64654600  1
  N  N23  1  0.44922500  0.38569500  0.14654600  1
loop_
_geom_bond_atom_site_label_1
_geom_bond_atom_site_label_2
_geom_bond_distance
_geom_bond_site_symmetry_2
Ca0 N17 2.396554 1_556
Ca0 N11 2.406327 1_455
Ca0 N15 2.466829 1_556
Ca0 N0 2.596967 1_555
Ca0 N21 3.044127 1_465
Ca1 N16 2.396554 1_555
Ca1 N10 2.406327 1_555
Ca1 N14 2.466829 1_565
Ca1 N1 2.596967 1_555
Ca1 N20 3.044127 1_555
Ca2 N19 2.396554 1_554
Ca2 N9 2.406327 1_555
Ca2 N13 2.466829 1_564
Ca2 N2 2.596967 1_555
Ca2 N23 3.044127 1_555
Ca3 N18 2.396554 1_555
Ca3 N8 2.406327 1_655
Ca3 N12 2.466829 1_555
Ca3 N3 2.596967 1_555
Ca3 N22 3.044131 1_665
Ca4 N21 2.396554 1_554
Ca4 N15 2.406327 1_655
Ca4 N11 2.466829 1_554
Ca4 N4 2.596967 1_555
Ca4 N17 3.044131 1_645
Ca5 N20 2.396554 1_555
Ca5 N14 2.406327 1_555
Ca5 N10 2.466829 1_545
Ca5 N5 2.596967 1_555
Ca5 N16 3.044127 1_555
Ca6 N23 2.396554 1_556
Ca6 N13 2.406327 1_555
Ca6 N9 2.466829 1_546
Ca6 N6 2.596967 1_555
Ca6 N19 3.044127 1_555
Ca7 N22 2.396554 1_555
Ca7 N12 2.406327 1_455
Ca7 N8 2.466829 1_555
Ca7 N7 2.596967 1_555
Ca7 N18 3.044127 1_445
Ca8 N8 2.390289 1_555
Ca8 N14 2.457072 1_565
Ca8 N0 2.472429 1_555
Ca8 N22 2.499827 1_565
Ca8 N16 2.874485 1_555
Ca9 N9 2.390289 1_555
Ca9 N15 2.457072 1_555
Ca9 N1 2.472429 1_555
Ca9 N23 2.499835 1_555
Ca9 N17 2.874475 1_555
Ca10 N10 2.390289 1_555
Ca10 N12 2.457072 1_555
Ca10 N2 2.472429 1_555
Ca10 N20 2.499835 1_555
Ca10 N18 2.874485 1_555
Ca11 N11 2.390289 1_555
Ca11 N13 2.457072 1_565
Ca11 N3 2.472429 1_555
Ca11 N21 2.499835 1_565
Ca11 N19 2.874485 1_555
Ca12 N12 2.390289 1_555
Ca12 N10 2.457072 1_545
Ca12 N4 2.472429 1_555
Ca12 N18 2.499835 1_545
Ca12 N20 2.874485 1_555
Ca13 N13 2.390289 1_555
Ca13 N11 2.457072 1_555
Ca13 N5 2.472429 1_555
Ca13 N19 2.499835 1_555
Ca13 N21 2.874485 1_555
Ca14 N14 2.390289 1_555
Ca14 N8 2.457072 1_555
Ca14 N6 2.472429 1_555
Ca14 N16 2.499835 1_555
Ca14 N22 2.874475 1_555
Ca15 N15 2.390289 1_555
Ca15 N9 2.457072 1_545
Ca15 N7 2.472429 1_555
Ca15 N17 2.499827 1_545
Ca15 N23 2.874485 1_555
Ca16 N0 2.333634 1_555
Ca16 N9 2.492173 1_556
Ca16 N15 2.509555 1_556
Ca16 N6 2.601524 1_555
Ca16 N19 2.767177 1_555
Ca17 N1 2.333634 1_555
Ca17 N8 2.492173 1_555
Ca17 N14 2.509555 1_565
Ca17 N7 2.601524 1_565
Ca17 N18 2.767177 1_455
Ca18 N2 2.333634 1_555
Ca18 N11 2.492173 1_554
Ca18 N13 2.509555 1_564
Ca18 N4 2.601524 1_565
Ca18 N17 2.767188 1_655
Ca19 N3 2.333634 1_555
Ca19 N10 2.492173 1_555
Ca19 N12 2.509555 1_555
Ca19 N5 2.601524 1_555
Ca19 N16 2.767177 1_555
Ca20 N4 2.333634 1_555
Ca20 N13 2.492173 1_554
Ca20 N11 2.509555 1_554
Ca20 N2 2.601524 1_555
Ca20 N23 2.767177 1_555
Ca21 N5 2.333634 1_555
Ca21 N12 2.492173 1_555
Ca21 N10 2.509555 1_545
Ca21 N3 2.601524 1_545
Ca21 N22 2.767188 1_655
Ca22 N6 2.333634 1_555
Ca22 N15 2.492173 1_556
Ca22 N9 2.509555 1_546
Ca22 N0 2.601524 1_545
Ca22 N21 2.767177 1_455
Ca23 N7 2.333634 1_555
Ca23 N14 2.492173 1_555
Ca23 N8 2.509555 1_555
Ca23 N1 2.601524 1_555
Ca23 N20 2.767177 1_555
Ca24 N0 2.449748 1_555
Ca24 N3 2.449748 1_455
Ca24 N21 2.523636 1_455
Ca24 N22 2.523639 1_555
Ca25 N2 2.449748 1_545
Ca25 N1 2.449748 1_545
Ca25 N20 2.523636 1_555
Ca25 N23 2.523636 1_555
Ca26 N7 2.449748 1_555
Ca26 N4 2.449748 1_455
Ca26 N18 2.523636 1_455
Ca26 N17 2.523639 1_555
Ca27 N6 2.449748 1_565
Ca27 N5 2.449748 1_565
Ca27 N19 2.523636 1_555
Ca27 N16 2.523636 1_555
Co0 N21 1.828187 1_465
Co0 N22 1.828190 1_565
Co0 N0 1.851268 1_555
Co0 N3 1.851268 1_455
Co1 N20 1.828187 1_555
Co1 N23 1.828187 1_555
Co1 N1 1.851268 1_555
Co1 N2 1.851268 1_555
Co2 N18 1.828187 1_445
Co2 N17 1.828190 1_545
Co2 N7 1.851268 1_555
Co2 N4 1.851268 1_455
Co3 N19 1.828187 1_555
Co3 N16 1.828187 1_555
Co3 N6 1.851268 1_555
Co3 N5 1.851268 1_555
