# generated using pymatgen
data_KTb2F7
_symmetry_space_group_name_H-M   'P 1'
_cell_length_a   8.21256900
_cell_length_b   8.21256900
_cell_length_c   11.99253336
_cell_angle_alpha   59.61366496
_cell_angle_beta   59.61366496
_cell_angle_gamma   58.54785017
_symmetry_Int_Tables_number   1
_chemical_formula_structural   KTb2F7
_chemical_formula_sum   'K4 Tb8 F28'
_cell_volume   562.15241479
_cell_formula_units_Z   4
loop_
 _symmetry_equiv_pos_site_id
 _symmetry_equiv_pos_as_xyz
  1  'x, y, z'
loop_
 _atom_site_type_symbol
 _atom_site_label
 _atom_site_symmetry_multiplicity
 _atom_site_fract_x
 _atom_site_fract_y
 _atom_site_fract_z
 _atom_site_occupancy
  K  K0  1  0.76305314  0.76305314  0.47871226  1
  K  K1  1  0.26740272  0.26740272  0.15234813  1
  K  K2  1  0.73259728  0.73259728  0.84765187  1
  K  K3  1  0.23694686  0.23694686  0.52128774  1
  Tb  Tb0  1  0.24040737  0.75959263  0.50000000  1
  Tb  Tb1  1  0.75959263  0.24040737  0.50000000  1
  Tb  Tb2  1  0.74010988  0.74010988  0.17884248  1
  Tb  Tb3  1  0.25989012  0.25989012  0.82115752  1
  Tb  Tb4  1  0.26578677  0.73951248  0.81741126  1
  Tb  Tb5  1  0.73951248  0.26578677  0.81741126  1
  Tb  Tb6  1  0.26048752  0.73421323  0.18258874  1
  Tb  Tb7  1  0.73421323  0.26048752  0.18258874  1
  F  F0  1  0.38055993  0.85414823  0.26270923  1
  F  F1  1  0.85414823  0.38055993  0.26270923  1
  F  F2  1  0.36977577  0.83760198  0.58233282  1
  F  F3  1  0.83760198  0.36977577  0.58233282  1
  F  F4  1  0.99519449  0.99519449  0.23775194  1
  F  F5  1  0.60643717  0.60643717  0.74763604  1
  F  F6  1  0.89395588  0.89395588  0.57463943  1
  F  F7  1  0.00474248  0.66859573  0.00049224  1
  F  F8  1  0.66859573  0.00474248  0.00049224  1
  F  F9  1  0.39356283  0.39356283  0.25236396  1
  F  F10  1  0.99525752  0.33140427  0.99950776  1
  F  F11  1  0.33140427  0.99525752  0.99950776  1
  F  F12  1  0.14585177  0.61944007  0.73729077  1
  F  F13  1  0.61944007  0.14585177  0.73729077  1
  F  F14  1  0.32413968  0.67586032  0.00000000  1
  F  F15  1  0.67586032  0.32413968  0.00000000  1
  F  F16  1  0.00480551  0.00480551  0.76224806  1
  F  F17  1  0.60504748  0.60504748  0.41293770  1
  F  F18  1  0.99666110  0.65474975  0.24059244  1
  F  F19  1  0.65474975  0.99666110  0.24059244  1
  F  F20  1  0.00333890  0.34525025  0.75940756  1
  F  F21  1  0.34525025  0.00333890  0.75940756  1
  F  F22  1  0.38723779  0.38723779  0.88169116  1
  F  F23  1  0.10604412  0.10604412  0.42536057  1
  F  F24  1  0.39495252  0.39495252  0.58706230  1
  F  F25  1  0.16239802  0.63022423  0.41766718  1
  F  F26  1  0.63022423  0.16239802  0.41766718  1
  F  F27  1  0.61276221  0.61276221  0.11830884  1
loop_
_geom_bond_atom_site_label_1
_geom_bond_atom_site_label_2
_geom_bond_distance
_geom_bond_site_symmetry_2
F0 Tb0 2.325833 1_555
F0 Tb2 2.381255 1_555
F0 Tb6 2.407362 1_555
F0 K1 2.746347 1_565
F1 Tb1 2.325833 1_555
F1 Tb2 2.381255 1_555
F1 Tb7 2.407362 1_555
F1 K1 2.746347 1_655
F2 Tb0 2.219389 1_555
F2 Tb4 2.304523 1_555
F2 K0 2.645091 1_555
F2 K3 2.669724 1_565
F3 Tb1 2.219389 1_555
F3 Tb5 2.304523 1_555
F3 K0 2.645091 1_555
F3 K3 2.669724 1_655
F4 Tb6 2.209405 1_655
F4 Tb7 2.209405 1_565
F4 K0 2.875069 1_555
F5 Tb4 2.255536 1_555
F5 Tb5 2.255536 1_555
F5 K0 2.653917 1_555
F5 K2 2.687079 1_555
F6 Tb0 2.293607 1_655
F6 Tb1 2.293607 1_565
F6 K2 2.699239 1_555
F6 K0 2.709854 1_555
F7 Tb2 2.208886 1_455
F7 Tb4 2.236828 1_554
F8 Tb2 2.208886 1_545
F8 Tb5 2.236828 1_554
F9 Tb7 2.255536 1_555
F9 Tb6 2.255536 1_555
F9 K3 2.653917 1_555
F9 K1 2.687079 1_555
F10 Tb3 2.208886 1_655
F10 Tb7 2.236828 1_556
F11 Tb3 2.208886 1_565
F11 Tb6 2.236828 1_556
F12 Tb0 2.325833 1_555
F12 Tb3 2.381255 1_555
F12 Tb4 2.407362 1_555
F12 K2 2.746347 1_455
F13 Tb1 2.325833 1_555
F13 Tb3 2.381255 1_555
F13 Tb5 2.407362 1_555
F13 K2 2.746347 1_545
F14 Tb4 2.222584 1_554
F14 Tb6 2.222584 1_555
F15 Tb5 2.222584 1_554
F15 Tb7 2.222584 1_555
F16 Tb5 2.209405 1_455
F16 Tb4 2.209405 1_545
F16 K3 2.875069 1_555
F17 Tb2 2.307713 1_555
F17 Tb1 2.424855 1_555
F17 Tb0 2.424855 1_555
F17 K0 2.796095 1_555
F18 Tb2 2.234042 1_555
F18 Tb6 2.257415 1_655
F18 K0 2.805873 1_555
F19 Tb2 2.234042 1_555
F19 Tb7 2.257415 1_565
F19 K0 2.805873 1_555
F20 Tb3 2.234042 1_555
F20 Tb5 2.257415 1_455
F20 K3 2.805873 1_555
F21 Tb3 2.234042 1_555
F21 Tb4 2.257415 1_545
F21 K3 2.805873 1_555
F22 Tb3 2.322123 1_555
F22 Tb4 2.338655 1_555
F22 Tb5 2.338655 1_555
F22 K1 2.649562 1_556
F23 Tb1 2.293607 1_455
F23 Tb0 2.293607 1_545
F23 K1 2.699239 1_555
F23 K3 2.709854 1_555
F24 Tb3 2.307713 1_555
F24 Tb0 2.424855 1_555
F24 Tb1 2.424855 1_555
F24 K3 2.796095 1_555
F25 Tb0 2.219389 1_555
F25 Tb6 2.304523 1_555
F25 K3 2.645091 1_555
F25 K0 2.669724 1_455
F26 Tb1 2.219389 1_555
F26 Tb7 2.304523 1_555
F26 K3 2.645091 1_555
F26 K0 2.669724 1_545
F27 Tb2 2.322123 1_555
F27 Tb7 2.338655 1_555
F27 Tb6 2.338655 1_555
F27 K2 2.649562 1_554
