# generated using pymatgen
data_Rb4NaW2N5O
_symmetry_space_group_name_H-M   'P 1'
_cell_length_a   6.41468456
_cell_length_b   7.33820766
_cell_length_c   12.69972657
_cell_angle_alpha   106.47909755
_cell_angle_beta   103.77832366
_cell_angle_gamma   90.03111065
_symmetry_Int_Tables_number   1
_chemical_formula_structural   Rb4NaW2N5O
_chemical_formula_sum   'Rb8 Na2 W4 N10 O2'
_cell_volume   555.26323736
_cell_formula_units_Z   2
loop_
 _symmetry_equiv_pos_site_id
 _symmetry_equiv_pos_as_xyz
  1  'x, y, z'
loop_
 _atom_site_type_symbol
 _atom_site_label
 _atom_site_symmetry_multiplicity
 _atom_site_fract_x
 _atom_site_fract_y
 _atom_site_fract_z
 _atom_site_occupancy
  Rb  Rb0  1  0.06073400  0.68528500  0.13954400  1
  Rb  Rb1  1  0.21663100  0.92163600  0.42601200  1
  Rb  Rb2  1  0.28267100  0.50176800  0.57532900  1
  Rb  Rb3  1  0.43858300  0.55123800  0.86015600  1
  Rb  Rb4  1  0.56141700  0.44876200  0.13984400  1
  Rb  Rb5  1  0.71732900  0.49823200  0.42467100  1
  Rb  Rb6  1  0.78336900  0.07836400  0.57398800  1
  Rb  Rb7  1  0.93926600  0.31471500  0.86045600  1
  Na  Na0  1  0.25418500  0.99765200  0.99986700  1
  Na  Na1  1  0.74581500  0.00234800  0.00013300  1
  W  W0  1  0.11580100  0.25756700  0.24604000  1
  W  W1  1  0.38607200  0.02262600  0.75572500  1
  W  W2  1  0.61392800  0.97737400  0.24427500  1
  W  W3  1  0.88419900  0.74243300  0.75396000  1
  N  N0  1  0.11340000  0.85739900  0.71463900  1
  N  N1  1  0.04524200  0.24520400  0.09660500  1
  N  N2  1  0.35063800  0.19619900  0.67542300  1
  N  N3  1  0.45772200  0.16040000  0.90645100  1
  N  N4  1  0.38529200  0.14684100  0.28609900  1
  N  N5  1  0.61470800  0.85315900  0.71390100  1
  N  N6  1  0.54227800  0.83960000  0.09354900  1
  N  N7  1  0.64936200  0.80380100  0.32457700  1
  N  N8  1  0.95475800  0.75479600  0.90339500  1
  N  N9  1  0.88660000  0.14260100  0.28536100  1
  O  O0  1  0.15113500  0.51609400  0.32921100  1
  O  O1  1  0.84886500  0.48390600  0.67078900  1
loop_
_geom_bond_atom_site_label_1
_geom_bond_atom_site_label_2
_geom_bond_distance
_geom_bond_site_symmetry_2
N0 W3 1.926169 1_455
N0 W1 2.001440 1_565
N0 Rb2 3.068924 1_555
N0 Rb6 3.185493 1_465
N1 W0 1.818735 1_555
N1 Na1 2.450077 1_455
N1 Na0 2.475190 1_544
N1 Rb7 3.100585 1_454
N1 Rb0 3.116256 1_555
N2 W1 1.827804 1_555
N2 Rb2 2.861497 1_555
N2 Rb3 2.917254 1_555
N2 Rb1 3.148284 1_545
N2 Rb6 3.344598 1_555
N3 W1 1.838469 1_555
N3 Na1 2.431816 1_556
N3 Na0 2.465429 1_545
N3 Rb4 3.034243 1_556
N3 Rb3 3.083683 1_555
N4 W0 1.929909 1_555
N4 W2 1.994474 1_545
N4 Rb1 3.104597 1_545
N4 Rb5 3.149085 1_555
N5 W3 1.929909 1_555
N5 W1 1.994474 1_565
N5 Rb6 3.104597 1_565
N5 Rb2 3.149085 1_555
N6 W2 1.838469 1_555
N6 Na0 2.431816 1_554
N6 Na1 2.465429 1_565
N6 Rb3 3.034243 1_554
N6 Rb4 3.083683 1_555
N7 W2 1.827804 1_555
N7 Rb5 2.861497 1_555
N7 Rb4 2.917254 1_555
N7 Rb6 3.148284 1_565
N7 Rb1 3.344598 1_555
N8 W3 1.818735 1_555
N8 Na0 2.450077 1_655
N8 Na1 2.475190 1_566
N8 Rb0 3.100585 1_656
N8 Rb7 3.116256 1_555
N9 W0 1.926169 1_655
N9 W2 2.001440 1_545
N9 Rb5 3.068924 1_555
N9 Rb1 3.185493 1_645
O0 W0 1.874773 1_555
O0 Rb1 2.867254 1_555
O0 Rb0 2.951568 1_555
O0 Rb2 3.069666 1_555
O0 Rb5 3.305624 1_455
O1 W3 1.874773 1_555
O1 Rb6 2.867254 1_555
O1 Rb7 2.951568 1_555
O1 Rb5 3.069666 1_555
O1 Rb2 3.305624 1_655
