# generated using pymatgen
data_Cu3Ni(CO5)2
_symmetry_space_group_name_H-M   'P 1'
_cell_length_a   3.03280207
_cell_length_b   8.95936400
_cell_length_c   12.35641609
_cell_angle_alpha   90.00000000
_cell_angle_beta   96.44079502
_cell_angle_gamma   90.00000000
_symmetry_Int_Tables_number   1
_chemical_formula_structural   Cu3Ni(CO5)2
_chemical_formula_sum   'Cu6 Ni2 C4 O20'
_cell_volume   333.62912018
_cell_formula_units_Z   2
loop_
 _symmetry_equiv_pos_site_id
 _symmetry_equiv_pos_as_xyz
  1  'x, y, z'
loop_
 _atom_site_type_symbol
 _atom_site_label
 _atom_site_symmetry_multiplicity
 _atom_site_fract_x
 _atom_site_fract_y
 _atom_site_fract_z
 _atom_site_occupancy
  Cu  Cu0  1  0.26602500  0.50173200  0.28339700  1
  Cu  Cu1  1  0.23397500  0.00173200  0.21660300  1
  Cu  Cu2  1  0.72916500  0.50117900  0.71495100  1
  Cu  Cu3  1  0.77083500  0.00117900  0.78504900  1
  Cu  Cu4  1  0.70216200  0.73196400  0.11748200  1
  Cu  Cu5  1  0.79783800  0.23196400  0.38251800  1
  Ni  Ni0  1  0.28760000  0.26681100  0.88082100  1
  Ni  Ni1  1  0.21240000  0.76681100  0.61917900  1
  C  C0  1  0.98369600  0.77524700  0.37183600  1
  C  C1  1  0.51630400  0.27524700  0.12816400  1
  C  C2  1  0.01086800  0.22498000  0.63281600  1
  C  C3  1  0.48913200  0.72498000  0.86718400  1
  O  O0  1  0.88465800  0.84728600  0.27818800  1
  O  O1  1  0.61534200  0.34728600  0.22181200  1
  O  O2  1  0.12232200  0.15686900  0.72803500  1
  O  O3  1  0.37767800  0.65686900  0.77196500  1
  O  O4  1  0.11262200  0.84298400  0.45783100  1
  O  O5  1  0.38737800  0.34298400  0.04216900  1
  O  O6  1  0.88806400  0.15206900  0.54891800  1
  O  O7  1  0.61193600  0.65206900  0.95108200  1
  O  O8  1  0.91881900  0.62998100  0.36677600  1
  O  O9  1  0.58118100  0.12998100  0.13322400  1
  O  O10  1  0.06105200  0.37052400  0.63297200  1
  O  O11  1  0.43894800  0.87052400  0.86702800  1
  O  O12  1  0.19660400  0.86455500  0.09693000  1
  O  O13  1  0.30339600  0.36455500  0.40307000  1
  O  O14  1  0.80001200  0.13102300  0.90489700  1
  O  O15  1  0.69998800  0.63102300  0.59510300  1
  O  O16  1  0.21432700  0.60818100  0.15319600  1
  O  O17  1  0.28567300  0.10818100  0.34680500  1
  O  O18  1  0.77482900  0.39461500  0.84341600  1
  O  O19  1  0.72517100  0.89461500  0.65658400  1
loop_
_geom_bond_atom_site_label_1
_geom_bond_atom_site_label_2
_geom_bond_distance
_geom_bond_site_symmetry_2
Cu0 O16 1.861682 1_555
Cu0 O13 1.916343 1_555
Cu0 O8 1.932339 1_455
Cu0 O1 1.948595 1_555
Cu0 O8 2.417372 1_555
Cu0 O1 2.459914 1_455
Cu1 O17 1.861692 1_555
Cu1 O12 1.916343 1_545
Cu1 O9 1.932339 1_555
Cu1 O0 1.948595 1_445
Cu1 O9 2.417372 1_455
Cu1 O0 2.459914 1_545
Cu2 O18 1.844216 1_555
Cu2 O15 1.877441 1_555
Cu2 O10 1.907422 1_655
Cu2 O3 1.935671 1_555
Cu2 O3 2.449385 1_655
Cu2 O10 2.457964 1_555
Cu3 O19 1.844216 1_545
Cu3 O14 1.877441 1_555
Cu3 O11 1.907422 1_545
Cu3 O2 1.935671 1_655
Cu3 O2 2.449385 1_555
Cu3 O11 2.457964 1_645
Cu4 O16 1.919271 1_655
Cu4 O12 1.933699 1_555
Cu4 O16 1.939093 1_555
Cu4 O12 1.951856 1_655
Cu4 O7 2.165320 1_554
Cu4 O0 2.251774 1_555
Cu5 O17 1.919269 1_555
Cu5 O13 1.933699 1_655
Cu5 O17 1.939090 1_655
Cu5 O13 1.951856 1_555
Cu5 O6 2.165320 1_555
Cu5 O1 2.251774 1_555
Ni0 O18 1.944717 1_455
Ni0 O14 1.963155 1_455
Ni0 O18 1.965064 1_555
Ni0 O14 1.969743 1_555
Ni0 O5 2.096841 1_556
Ni0 O2 2.138531 1_555
Ni1 O19 1.944717 1_555
Ni1 O15 1.963155 1_555
Ni1 O19 1.965064 1_455
Ni1 O15 1.969743 1_455
Ni1 O4 2.096841 1_555
Ni1 O3 2.138531 1_555
C0 O4 1.247828 1_655
C0 O8 1.316716 1_555
C0 O0 1.329593 1_555
C1 O5 1.247828 1_555
C1 O9 1.316716 1_555
C1 O1 1.329593 1_555
C2 O6 1.246398 1_455
C2 O10 1.312810 1_555
C2 O2 1.334811 1_555
C3 O7 1.246398 1_555
C3 O11 1.312810 1_555
C3 O3 1.334811 1_555
