# generated using pymatgen
data_Li2MnV(PO4)3
_symmetry_space_group_name_H-M   'P 1'
_cell_length_a   8.94021720
_cell_length_b   8.57976561
_cell_length_c   8.29438795
_cell_angle_alpha   59.38961387
_cell_angle_beta   63.75256562
_cell_angle_gamma   91.84141995
_symmetry_Int_Tables_number   1
_chemical_formula_structural   Li2MnV(PO4)3
_chemical_formula_sum   'Li4 Mn2 V2 P6 O24'
_cell_volume   463.01371755
_cell_formula_units_Z   2
loop_
 _symmetry_equiv_pos_site_id
 _symmetry_equiv_pos_as_xyz
  1  'x, y, z'
loop_
 _atom_site_type_symbol
 _atom_site_label
 _atom_site_symmetry_multiplicity
 _atom_site_fract_x
 _atom_site_fract_y
 _atom_site_fract_z
 _atom_site_occupancy
  Li  Li0  1  0.13738000  0.73704500  0.18264900  1
  Li  Li1  1  0.15807400  0.32758800  0.94086000  1
  Li  Li2  1  0.85842700  0.92540100  0.40678000  1
  Li  Li3  1  0.86077900  0.26728400  0.81282400  1
  Mn  Mn0  1  0.05113000  0.34873400  0.30456800  1
  Mn  Mn1  1  0.94910000  0.65121000  0.70200400  1
  V  V0  1  0.56359400  0.85299200  0.29513500  1
  V  V1  1  0.43838600  0.14686900  0.70170400  1
  P  P0  1  0.25138900  0.03585800  0.21431900  1
  P  P1  1  0.25298500  0.45291100  0.50419300  1
  P  P2  1  0.24839100  0.75193800  0.78180000  1
  P  P3  1  0.75555700  0.25305800  0.20676400  1
  P  P4  1  0.75512600  0.54350100  0.49244200  1
  P  P5  1  0.74339500  0.97054500  0.78720900  1
  O  O0  1  0.08892500  0.83950500  0.37191200  1
  O  O1  1  0.27167900  0.12043900  0.98491400  1
  O  O2  1  0.20471500  0.17089400  0.27985800  1
  O  O3  1  0.20360500  0.49213400  0.33261600  1
  O  O4  1  0.09662800  0.42947600  0.70847200  1
  O  O5  1  0.10647900  0.78580300  0.72263200  1
  O  O6  1  0.42031300  0.99468900  0.20075500  1
  O  O7  1  0.29677500  0.26315800  0.59420500  1
  O  O8  1  0.41629700  0.61824000  0.39066800  1
  O  O9  1  0.20198700  0.53915800  0.96761100  1
  O  O10  1  0.27038000  0.88170100  0.85331400  1
  O  O11  1  0.42763100  0.80628500  0.57409800  1
  O  O12  1  0.58706100  0.19106700  0.41776500  1
  O  O13  1  0.73604000  0.11529400  0.14211500  1
  O  O14  1  0.80448200  0.46175300  0.01982400  1
  O  O15  1  0.58363300  0.38204400  0.61295400  1
  O  O16  1  0.72524200  0.74258100  0.39654600  1
  O  O17  1  0.56744300  0.00489300  0.80612100  1
  O  O18  1  0.91306900  0.21721200  0.24792200  1
  O  O19  1  0.91270400  0.55423000  0.30284200  1
  O  O20  1  0.79833800  0.50731300  0.67058300  1
  O  O21  1  0.78946500  0.84499600  0.70642200  1
  O  O22  1  0.71296100  0.88634400  0.01947900  1
  O  O23  1  0.88989200  0.17127100  0.63195300  1
loop_
_geom_bond_atom_site_label_1
_geom_bond_atom_site_label_2
_geom_bond_distance
_geom_bond_site_symmetry_2
Li0 O19 1.980568 1_455
Li0 O10 1.998914 1_554
Li0 O0 2.062316 1_555
Li0 O3 2.093487 1_555
Li1 O9 1.984896 1_555
Li1 O4 2.008163 1_555
Li1 O1 2.026505 1_555
Li1 O18 2.158096 1_456
Li2 O21 1.975916 1_555
Li2 O16 1.997574 1_555
Li2 O18 2.058064 1_565
Li2 O0 2.158883 1_655
Li3 O23 1.980897 1_555
Li3 O13 1.997313 1_556
Li3 O4 2.025379 1_655
Li3 O20 2.031430 1_555
Mn0 O3 1.972375 1_555
Mn0 O23 1.988986 1_455
Mn0 O18 1.995234 1_455
Mn0 O9 2.042943 1_554
Mn0 O2 2.111803 1_555
Mn0 O19 2.184147 1_455
Mn1 O5 1.911063 1_655
Mn1 O14 1.936362 1_556
Mn1 O20 1.985015 1_555
Mn1 O0 2.001793 1_655
Mn1 O21 2.229532 1_555
Mn1 O4 2.341279 1_655
O0 P0 1.605372 1_565
O1 P0 1.568473 1_556
O1 V1 2.032219 1_555
O2 P0 1.511211 1_555
O3 P1 1.552724 1_555
O4 P1 1.550935 1_555
O5 P2 1.537573 1_555
O6 P0 1.530571 1_565
O6 V0 1.936361 1_555
O7 P1 1.556540 1_555
O7 V1 1.888647 1_555
O8 P1 1.523522 1_555
O8 V0 1.923529 1_555
O9 P2 1.549400 1_555
O10 P2 1.546487 1_555
O10 V1 2.051717 1_565
O11 P2 1.563744 1_555
O11 V0 1.878467 1_555
O12 P3 1.511198 1_555
O12 V1 1.935546 1_555
O13 P3 1.558857 1_555
O13 V0 2.046913 1_545
O14 P3 1.524463 1_555
O15 P4 1.538376 1_555
O15 V1 1.942390 1_555
O16 P4 1.566913 1_555
O16 V0 2.011245 1_555
O17 P5 1.563507 1_545
O17 V1 1.861436 1_555
O18 P3 1.593815 1_555
O19 P4 1.533271 1_555
O20 P4 1.572978 1_555
O21 P5 1.516061 1_555
O22 P5 1.553648 1_554
O22 V0 1.923884 1_555
O23 P5 1.563423 1_545
