# generated using pymatgen
data_Rb2NiO2
_symmetry_space_group_name_H-M   'P 1'
_cell_length_a   4.15488366
_cell_length_b   4.15488388
_cell_length_c   7.17803293
_cell_angle_alpha   106.82302874
_cell_angle_beta   106.82304251
_cell_angle_gamma   89.99999372
_symmetry_Int_Tables_number   1
_chemical_formula_structural   Rb2NiO2
_chemical_formula_sum   'Rb2 Ni1 O2'
_cell_volume   113.06002295
_cell_formula_units_Z   1
loop_
 _symmetry_equiv_pos_site_id
 _symmetry_equiv_pos_as_xyz
  1  'x, y, z'
loop_
 _atom_site_type_symbol
 _atom_site_label
 _atom_site_symmetry_multiplicity
 _atom_site_fract_x
 _atom_site_fract_y
 _atom_site_fract_z
 _atom_site_occupancy
  Rb  Rb0  1  0.34805300  0.34805400  0.69610699  1
  Rb  Rb1  1  0.65194600  0.65194800  0.30389401  1
  Ni  Ni0  1  -0.00000000  -0.00000000  -0.00000000  1
  O  O0  1  0.87100781  0.87100681  0.74201263  1
  O  O1  1  0.12899319  0.12899419  0.25798737  1
loop_
_geom_bond_atom_site_label_1
_geom_bond_atom_site_label_2
_geom_bond_distance
_geom_bond_site_symmetry_2
Ni0 O1 1.689623 1_555
Ni0 O0 1.689623 1_444
O0 Rb1 2.869347 1_555
O0 Rb0 2.953283 1_655
O0 Rb0 2.953284 1_665
O0 Rb0 2.953295 1_565
O0 Rb0 2.953295 1_555
O1 Rb0 2.869353 1_555
O1 Rb1 2.953287 1_545
O1 Rb1 2.953290 1_555
O1 Rb1 2.953290 1_445
O1 Rb1 2.953293 1_455
