# generated using pymatgen
data_KMg6Fe
_symmetry_space_group_name_H-M   'P 1'
_cell_length_a   5.06465200
_cell_length_b   7.08508500
_cell_length_c   10.82062500
_cell_angle_alpha   90.00000000
_cell_angle_beta   90.00000000
_cell_angle_gamma   90.00000000
_symmetry_Int_Tables_number   1
_chemical_formula_structural   KMg6Fe
_chemical_formula_sum   'K2 Mg12 Fe2'
_cell_volume   388.28178807
_cell_formula_units_Z   2
loop_
 _symmetry_equiv_pos_site_id
 _symmetry_equiv_pos_as_xyz
  1  'x, y, z'
loop_
 _atom_site_type_symbol
 _atom_site_label
 _atom_site_symmetry_multiplicity
 _atom_site_fract_x
 _atom_site_fract_y
 _atom_site_fract_z
 _atom_site_occupancy
  K  K0  1  0.50000000  0.50000000  0.84891300  1
  K  K1  1  0.50000000  0.00000000  0.34891300  1
  Mg  Mg0  1  0.50000000  0.24396400  0.09120900  1
  Mg  Mg1  1  0.50000000  0.75603600  0.09120900  1
  Mg  Mg2  1  0.00000000  0.21115100  0.90112800  1
  Mg  Mg3  1  0.00000000  0.78884900  0.90112800  1
  Mg  Mg4  1  0.00000000  0.50000000  0.15542400  1
  Mg  Mg5  1  0.00000000  0.50000000  0.64519300  1
  Mg  Mg6  1  0.50000000  0.74396400  0.59120900  1
  Mg  Mg7  1  0.50000000  0.25603600  0.59120900  1
  Mg  Mg8  1  0.00000000  0.71115100  0.40112800  1
  Mg  Mg9  1  0.00000000  0.28884900  0.40112800  1
  Mg  Mg10  1  0.00000000  0.00000000  0.65542400  1
  Mg  Mg11  1  0.00000000  0.00000000  0.14519300  1
  Fe  Fe0  1  0.50000000  0.50000000  0.36580100  1
  Fe  Fe1  1  0.50000000  0.00000000  0.86580100  1
loop_
_geom_bond_atom_site_label_1
_geom_bond_atom_site_label_2
_geom_bond_distance
_geom_bond_site_symmetry_2
K0 Mg1 3.188187 1_556
K0 Mg0 3.188187 1_556
K0 Mg6 3.280787 1_555
K0 Mg7 3.280787 1_555
K0 Mg3 3.304564 1_655
K0 Mg3 3.304564 1_555
K0 Mg2 3.304564 1_655
K0 Mg2 3.304564 1_555
K0 Mg5 3.357373 1_555
K0 Mg5 3.357373 1_655
K1 Mg7 3.188187 1_555
K1 Mg6 3.188187 1_545
K1 Mg0 3.280787 1_555
K1 Mg1 3.280787 1_545
K1 Mg9 3.304564 1_555
K1 Mg9 3.304564 1_655
K1 Mg8 3.304564 1_645
K1 Mg8 3.304564 1_545
K1 Mg11 3.357373 1_655
K1 Mg11 3.357373 1_555
Mg0 Mg11 3.121158 1_655
Mg0 Mg11 3.121158 1_555
Mg0 Mg4 3.191585 1_655
Mg0 Mg4 3.191585 1_555
Mg1 Mg11 3.121158 1_665
Mg1 Mg11 3.121158 1_565
Mg1 Mg4 3.191585 1_655
Mg1 Mg4 3.191585 1_555
Mg2 Mg4 3.429253 1_556
Mg3 Mg4 3.429253 1_556
Mg4 Mg8 3.050674 1_555
Mg4 Mg9 3.050674 1_555
Mg5 Mg8 3.035231 1_555
Mg5 Mg9 3.035231 1_555
Mg5 Mg6 3.121158 1_555
Mg5 Mg6 3.121158 1_455
Mg5 Mg7 3.121158 1_555
Mg5 Mg7 3.121158 1_455
Mg10 Mg2 3.050674 1_555
Mg10 Mg3 3.050674 1_545
Mg10 Mg6 3.191585 1_445
Mg10 Mg6 3.191585 1_545
Mg10 Mg7 3.191585 1_455
Mg10 Mg7 3.191585 1_555
Mg10 Mg9 3.429253 1_555
Mg10 Mg8 3.429253 1_545
Mg11 Mg2 3.035231 1_554
Mg11 Mg3 3.035231 1_544
Fe0 Mg8 2.965954 1_555
Fe0 Mg8 2.965954 1_655
Fe0 Mg9 2.965954 1_655
Fe0 Mg9 2.965954 1_555
Fe0 Mg6 2.989435 1_555
Fe0 Mg7 2.989435 1_555
Fe0 Mg4 3.405102 1_555
Fe0 Mg4 3.405102 1_655
Fe0 Mg1 3.481250 1_555
Fe0 Mg0 3.481250 1_555
Fe0 K1 3.547253 1_555
Fe0 K1 3.547253 1_565
Fe1 Mg2 2.965954 1_655
Fe1 Mg2 2.965954 1_555
Fe1 Mg3 2.965954 1_545
Fe1 Mg3 2.965954 1_645
Fe1 Mg0 2.989435 1_556
Fe1 Mg1 2.989435 1_546
Fe1 Mg10 3.405102 1_555
Fe1 Mg10 3.405102 1_655
Fe1 Mg7 3.481250 1_555
Fe1 Mg6 3.481250 1_545
Fe1 K0 3.547253 1_555
Fe1 K0 3.547253 1_545
