# generated using pymatgen
data_Rb4Ca(Se2O7)2
_symmetry_space_group_name_H-M   'P 1'
_cell_length_a   9.26779684
_cell_length_b   8.75457352
_cell_length_c   7.67398267
_cell_angle_alpha   91.35424949
_cell_angle_beta   94.45922396
_cell_angle_gamma   53.46258186
_symmetry_Int_Tables_number   1
_chemical_formula_structural   Rb4Ca(Se2O7)2
_chemical_formula_sum   'Rb4 Ca1 Se4 O14'
_cell_volume   498.55219813
_cell_formula_units_Z   1
loop_
 _symmetry_equiv_pos_site_id
 _symmetry_equiv_pos_as_xyz
  1  'x, y, z'
loop_
 _atom_site_type_symbol
 _atom_site_label
 _atom_site_symmetry_multiplicity
 _atom_site_fract_x
 _atom_site_fract_y
 _atom_site_fract_z
 _atom_site_occupancy
  Rb  Rb0  1  0.18152100  0.40956400  0.27905300  1
  Rb  Rb1  1  0.44907200  0.80751700  0.15222700  1
  Rb  Rb2  1  0.74466400  0.57376500  0.67618300  1
  Rb  Rb3  1  0.55841600  0.19257100  0.80287800  1
  Ca  Ca0  1  0.09313000  0.83645000  0.54515300  1
  Se  Se0  1  0.69455000  0.09414800  0.32774500  1
  Se  Se1  1  0.88272200  0.27725900  0.15842700  1
  Se  Se2  1  0.30591700  0.02669500  0.63379200  1
  Se  Se3  1  0.08554900  0.68402400  0.88621600  1
  O  O0  1  0.59836500  0.27943100  0.45354000  1
  O  O1  1  0.72242900  0.37138600  0.99759100  1
  O  O2  1  0.33142800  0.83152900  0.52536900  1
  O  O3  1  0.24475800  0.62195700  0.04560500  1
  O  O4  1  0.56977000  0.10695100  0.15759000  1
  O  O5  1  0.83758100  0.42589900  0.31860400  1
  O  O6  1  0.46056800  0.92069600  0.80926300  1
  O  O7  1  0.18170300  0.56560000  0.69969300  1
  O  O8  1  0.82548600  0.88143800  0.42921900  1
  O  O9  1  0.08977000  0.16365200  0.10224600  1
  O  O10  1  0.39740600  0.09201100  0.49685300  1
  O  O11  1  0.94520300  0.63958300  0.94574000  1
  O  O12  1  0.89371700  0.07599900  0.25669700  1
  O  O13  1  0.97710700  0.91354100  0.81698300  1
loop_
_geom_bond_atom_site_label_1
_geom_bond_atom_site_label_2
_geom_bond_distance
_geom_bond_site_symmetry_2
Ca0 O2 2.200206 1_555
Ca0 O7 2.316610 1_555
Ca0 O13 2.319771 1_455
Ca0 O8 2.368448 1_455
Ca0 O12 2.771649 1_465
O0 Se0 1.641878 1_555
O0 Rb3 2.913418 1_555
O0 Rb0 3.470244 1_555
O1 Se1 1.647626 1_556
O1 Rb3 3.059971 1_555
O1 Rb2 3.159964 1_555
O1 Rb1 3.337722 1_556
O2 Se2 1.774789 1_565
O2 Rb1 3.101067 1_555
O2 Rb2 3.200442 1_555
O3 Se3 1.662716 1_554
O3 Rb0 2.937436 1_555
O3 Rb1 3.202010 1_555
O4 Se0 1.634841 1_555
O4 Rb3 2.817887 1_554
O4 Rb0 3.144663 1_555
O4 Rb1 3.406472 1_545
O5 Se1 1.653910 1_555
O5 Rb2 2.969740 1_555
O5 Rb0 3.143051 1_655
O5 Rb1 3.304507 1_555
O6 Se2 1.704088 1_565
O6 Rb2 2.819542 1_555
O6 Rb1 2.865757 1_556
O6 Rb3 3.012024 1_565
O7 Se3 1.716375 1_555
O7 Rb3 3.097998 1_555
O7 Rb0 3.475541 1_555
O8 Se0 1.666619 1_565
O9 Se1 1.641072 1_455
O9 Rb1 2.907288 1_545
O9 Rb0 3.010156 1_555
O10 Se2 1.701319 1_555
O10 Rb0 2.757170 1_555
O10 Rb3 3.072196 1_555
O10 Rb1 3.448513 1_545
O11 Se3 1.659874 1_655
O11 Rb2 2.947239 1_555
O11 Rb0 3.084692 1_656
O12 Se1 1.876330 1_555
O12 Se0 1.879581 1_555
O13 Se3 1.700778 1_655
O13 Rb3 3.113961 1_565
