# generated using pymatgen
data_BaTbMn2O5
_symmetry_space_group_name_H-M   'P 1'
_cell_length_a   5.63071300
_cell_length_b   5.63071300
_cell_length_c   7.84965800
_cell_angle_alpha   90.00000000
_cell_angle_beta   90.00000000
_cell_angle_gamma   90.00000000
_symmetry_Int_Tables_number   1
_chemical_formula_structural   BaTbMn2O5
_chemical_formula_sum   'Ba2 Tb2 Mn4 O10'
_cell_volume   248.87284869
_cell_formula_units_Z   2
loop_
 _symmetry_equiv_pos_site_id
 _symmetry_equiv_pos_as_xyz
  1  'x, y, z'
loop_
 _atom_site_type_symbol
 _atom_site_label
 _atom_site_symmetry_multiplicity
 _atom_site_fract_x
 _atom_site_fract_y
 _atom_site_fract_z
 _atom_site_occupancy
  Ba  Ba0  1  0.00000000  0.00000000  0.00000000  1
  Ba  Ba1  1  0.50000000  0.50000000  0.00000000  1
  Tb  Tb0  1  0.00000000  0.00000000  0.50000000  1
  Tb  Tb1  1  0.50000000  0.50000000  0.50000000  1
  Mn  Mn0  1  0.00000000  0.50000000  0.25659100  1
  Mn  Mn1  1  0.50000000  0.00000000  0.74340900  1
  Mn  Mn2  1  0.00000000  0.50000000  0.72532500  1
  Mn  Mn3  1  0.50000000  0.00000000  0.27467500  1
  O  O0  1  0.24347300  0.74347300  0.67978400  1
  O  O1  1  0.75652700  0.74347300  0.67978400  1
  O  O2  1  0.24347300  0.25652700  0.67978400  1
  O  O3  1  0.75652700  0.25652700  0.67978400  1
  O  O4  1  0.25652700  0.75652700  0.32021600  1
  O  O5  1  0.74347300  0.75652700  0.32021600  1
  O  O6  1  0.25652700  0.24347300  0.32021600  1
  O  O7  1  0.74347300  0.24347300  0.32021600  1
  O  O8  1  0.00000000  0.50000000  0.99315100  1
  O  O9  1  0.50000000  0.00000000  0.00684900  1
loop_
_geom_bond_atom_site_label_1
_geom_bond_atom_site_label_2
_geom_bond_distance
_geom_bond_site_symmetry_2
Ba0 O8 2.815870 1_544
Ba0 O9 2.815870 1_555
Ba0 O9 2.815870 1_455
Ba0 O8 2.815870 1_554
Ba0 O0 3.206857 1_544
Ba0 O3 3.206857 1_454
Ba0 O2 3.206857 1_554
Ba0 O1 3.206857 1_444
Ba0 O4 3.206857 1_545
Ba0 O5 3.206857 1_445
Ba0 O6 3.206857 1_555
Ba0 O7 3.206857 1_455
Ba1 O9 2.815870 1_555
Ba1 O9 2.815870 1_565
Ba1 O8 2.815870 1_654
Ba1 O8 2.815870 1_554
Ba1 O3 3.206857 1_554
Ba1 O0 3.206857 1_554
Ba1 O1 3.206857 1_554
Ba1 O2 3.206857 1_554
Ba1 O5 3.206857 1_555
Ba1 O6 3.206857 1_555
Ba1 O7 3.206857 1_555
Ba1 O4 3.206857 1_555
Mn0 O8 2.067914 1_554
Mn0 O6 2.102900 1_555
Mn0 O5 2.102900 1_455
Mn0 O7 2.102900 1_455
Mn0 O4 2.102900 1_555
Mn1 O9 2.067914 1_556
Mn1 O0 2.102900 1_545
Mn1 O1 2.102900 1_545
Mn1 O3 2.102900 1_555
Mn1 O2 2.102900 1_555
Mn2 O2 1.971464 1_555
Mn2 O3 1.971464 1_455
Mn2 O0 1.971464 1_555
Mn2 O1 1.971464 1_455
Mn2 O8 2.102343 1_555
Mn3 O7 1.971464 1_555
Mn3 O4 1.971464 1_545
Mn3 O6 1.971464 1_555
Mn3 O5 1.971464 1_545
Mn3 O9 2.102343 1_555
O0 Tb0 2.440783 1_565
O0 Tb1 2.440783 1_555
O1 Tb0 2.440783 1_665
O1 Tb1 2.440783 1_555
O2 Tb0 2.440783 1_555
O2 Tb1 2.440783 1_555
O3 Tb0 2.440783 1_655
O3 Tb1 2.440783 1_555
O4 Tb1 2.440783 1_555
O4 Tb0 2.440783 1_565
O5 Tb0 2.440783 1_665
O5 Tb1 2.440783 1_555
O6 Tb1 2.440783 1_555
O6 Tb0 2.440783 1_555
O7 Tb0 2.440783 1_655
O7 Tb1 2.440783 1_555
