# generated using pymatgen
data_Mo2P2O11
_symmetry_space_group_name_H-M   'P 1'
_cell_length_a   6.53676800
_cell_length_b   3.88926500
_cell_length_c   8.80580384
_cell_angle_alpha   77.70361468
_cell_angle_beta   90.00000000
_cell_angle_gamma   90.00000000
_symmetry_Int_Tables_number   1
_chemical_formula_structural   Mo2P2O11
_chemical_formula_sum   'Mo2 P2 O11'
_cell_volume   218.73607178
_cell_formula_units_Z   1
loop_
 _symmetry_equiv_pos_site_id
 _symmetry_equiv_pos_as_xyz
  1  'x, y, z'
loop_
 _atom_site_type_symbol
 _atom_site_label
 _atom_site_symmetry_multiplicity
 _atom_site_fract_x
 _atom_site_fract_y
 _atom_site_fract_z
 _atom_site_occupancy
  Mo  Mo0  1  0.50000000  0.35210600  0.27011100  1
  Mo  Mo1  1  0.00000000  0.65974600  0.71671200  1
  P  P0  1  0.50000000  0.68042000  0.84725600  1
  P  P1  1  0.00000000  0.40409100  0.16494600  1
  O  O0  1  0.50000000  0.86894900  0.24431100  1
  O  O1  1  0.00000000  0.11265700  0.75309200  1
  O  O2  1  0.50000000  0.26238400  0.46790200  1
  O  O3  1  0.00000000  0.73705800  0.51896900  1
  O  O4  1  0.50000000  0.48005900  0.01984300  1
  O  O5  1  0.00000000  0.49112200  0.99510900  1
  O  O6  1  0.81423500  0.35455900  0.26334200  1
  O  O7  1  0.18576500  0.35455900  0.26334200  1
  O  O8  1  0.29955400  0.61712700  0.75417200  1
  O  O9  1  0.70044600  0.61712700  0.75417200  1
  O  O10  1  0.50000000  0.06554700  0.84988300  1
loop_
_geom_bond_atom_site_label_1
_geom_bond_atom_site_label_2
_geom_bond_distance
_geom_bond_site_symmetry_2
Mo0 O2 1.701894 1_555
Mo0 O0 1.940250 1_545
Mo0 O0 1.974274 1_555
Mo0 O7 2.054909 1_555
Mo0 O6 2.054909 1_555
Mo0 O4 2.153439 1_555
Mo1 O3 1.702785 1_555
Mo1 O1 1.856296 1_565
Mo1 O9 1.986759 1_455
Mo1 O8 1.986759 1_555
Mo1 O1 2.083198 1_555
Mo1 O5 2.398999 1_555
O4 P0 1.553223 1_554
O5 P1 1.461378 1_556
O6 P1 1.480301 1_655
O7 P1 1.480301 1_555
O8 P0 1.592237 1_555
O9 P0 1.592237 1_555
O10 P0 1.502957 1_545
