# generated using pymatgen
data_Mg14VCu
_symmetry_space_group_name_H-M   'P 1'
_cell_length_a   6.24882553
_cell_length_b   6.24882504
_cell_length_c   9.99310920
_cell_angle_alpha   90.00000000
_cell_angle_beta   90.00000000
_cell_angle_gamma   120.00000254
_symmetry_Int_Tables_number   1
_chemical_formula_structural   Mg14VCu
_chemical_formula_sum   'Mg14 V1 Cu1'
_cell_volume   337.93098797
_cell_formula_units_Z   1
loop_
 _symmetry_equiv_pos_site_id
 _symmetry_equiv_pos_as_xyz
  1  'x, y, z'
loop_
 _atom_site_type_symbol
 _atom_site_label
 _atom_site_symmetry_multiplicity
 _atom_site_fract_x
 _atom_site_fract_y
 _atom_site_fract_z
 _atom_site_occupancy
  Mg  Mg0  1  0.16488843  0.83244372  0.12500000  1
  Mg  Mg1  1  0.17038388  0.83519144  0.62500000  1
  Mg  Mg2  1  0.66755628  0.33511157  0.12500000  1
  Mg  Mg3  1  0.66480856  0.32961612  0.62500000  1
  Mg  Mg4  1  0.66755628  0.83244372  0.12500000  1
  Mg  Mg5  1  0.66480856  0.83519144  0.62500000  1
  Mg  Mg6  1  0.32687173  0.17312827  0.37146211  1
  Mg  Mg7  1  0.32687173  0.17312827  0.87853789  1
  Mg  Mg8  1  0.32687173  0.65374445  0.37146211  1
  Mg  Mg9  1  0.32687173  0.65374445  0.87853789  1
  Mg  Mg10  1  0.84625555  0.17312827  0.37146211  1
  Mg  Mg11  1  0.84625555  0.17312827  0.87853789  1
  Mg  Mg12  1  0.83333300  0.66666700  0.37715883  1
  Mg  Mg13  1  0.83333300  0.66666700  0.87284117  1
  V  V0  1  0.16666700  0.33333300  0.62500000  1
  Cu  Cu0  1  0.16666700  0.33333300  0.12500000  1
loop_
_geom_bond_atom_site_label_1
_geom_bond_atom_site_label_2
_geom_bond_distance
_geom_bond_site_symmetry_2
Mg0 Mg9 3.076974 1_554
Mg0 Mg8 3.076974 1_555
Mg0 Mg7 3.076980 1_564
Mg0 Mg6 3.076980 1_565
Mg0 Mg13 3.093382 1_454
Mg0 Mg12 3.093382 1_455
Mg0 Mg2 3.107742 1_455
Mg0 Mg4 3.107742 1_455
Mg0 Mg2 3.141083 1_565
Mg0 Mg4 3.141084 1_555
Mg1 Mg12 3.075879 1_455
Mg1 Mg13 3.075879 1_455
Mg1 Mg3 3.089573 1_565
Mg1 Mg5 3.089574 1_555
Mg1 V0 3.124477 1_555
Mg1 V0 3.124477 1_565
Mg1 Mg8 3.125670 1_555
Mg1 Mg9 3.125670 1_555
Mg1 Mg6 3.125677 1_565
Mg1 Mg7 3.125677 1_565
Mg1 Mg3 3.159252 1_455
Mg1 Mg5 3.159252 1_455
Mg2 Mg6 3.076980 1_555
Mg2 Mg7 3.076980 1_554
Mg2 Mg4 3.107742 1_555
Mg2 Mg4 3.141083 1_545
Mg3 Mg5 3.089573 1_545
Mg3 V0 3.124478 1_555
Mg3 V0 3.124478 1_655
Mg3 Mg6 3.125677 1_555
Mg3 Mg7 3.125677 1_555
Mg3 Mg5 3.159252 1_555
Mg4 Mg9 3.076980 1_554
Mg4 Mg8 3.076980 1_555
Mg5 V0 3.124477 1_555
Mg5 V0 3.124477 1_665
Mg5 Mg8 3.125677 1_555
Mg5 Mg9 3.125677 1_555
Mg6 Mg8 3.003286 1_555
Mg6 V0 3.070153 1_555
Mg6 Mg8 3.245539 1_545
Mg7 Mg9 3.003286 1_555
Mg7 V0 3.070153 1_555
Mg7 Mg9 3.245539 1_545
Mg8 V0 3.070159 1_555
Mg9 V0 3.070159 1_555
Mg10 Mg8 3.003286 1_655
Mg10 Mg6 3.003287 1_655
Mg10 V0 3.070160 1_655
Mg10 Mg2 3.076974 1_555
Mg10 Mg4 3.076980 1_545
Mg10 Mg3 3.125670 1_555
Mg10 Mg5 3.125677 1_545
Mg10 Mg12 3.125713 1_545
Mg10 Mg12 3.125714 1_555
Mg10 Mg8 3.245539 1_545
Mg10 Mg6 3.245539 1_555
Mg11 Mg9 3.003286 1_655
Mg11 Mg7 3.003287 1_655
Mg11 V0 3.070160 1_655
Mg11 Mg2 3.076974 1_556
Mg11 Mg4 3.076980 1_546
Mg11 Mg3 3.125670 1_555
Mg11 Mg5 3.125677 1_545
Mg11 Mg13 3.125713 1_545
Mg11 Mg13 3.125714 1_555
Mg11 Mg9 3.245539 1_545
Mg11 Mg7 3.245539 1_555
Mg12 Mg5 3.075873 1_555
Mg12 Mg3 3.075879 1_555
Mg12 Mg4 3.093376 1_555
Mg12 Mg2 3.093382 1_555
Mg12 Mg6 3.125713 1_665
Mg12 Mg6 3.125714 1_555
Mg12 Mg8 3.125714 1_555
Mg12 Mg8 3.125714 1_655
Mg13 Mg5 3.075873 1_555
Mg13 Mg3 3.075879 1_555
Mg13 Mg4 3.093376 1_556
Mg13 Mg2 3.093382 1_556
Mg13 Mg7 3.125713 1_665
Mg13 Mg7 3.125714 1_555
Mg13 Mg9 3.125714 1_555
Mg13 Mg9 3.125714 1_655
Cu0 Mg6 3.012066 1_555
Cu0 Mg7 3.012066 1_554
Cu0 Mg9 3.012072 1_554
Cu0 Mg8 3.012072 1_555
Cu0 Mg11 3.012072 1_454
Cu0 Mg10 3.012072 1_455
Cu0 Mg0 3.124427 1_545
Cu0 Mg4 3.124427 1_445
Cu0 Mg4 3.124427 1_555
Cu0 Mg0 3.124427 1_555
Cu0 Mg2 3.124428 1_555
Cu0 Mg2 3.124428 1_455
