# generated using pymatgen
data_Fe4AgP(XeF3)2
_symmetry_space_group_name_H-M   'P 1'
_cell_length_a   10.69709210
_cell_length_b   10.69709210
_cell_length_c   10.69709210
_cell_angle_alpha   123.10468493
_cell_angle_beta   123.10468493
_cell_angle_gamma   84.70170743
_symmetry_Int_Tables_number   1
_chemical_formula_structural   Fe4AgP(XeF3)2
_chemical_formula_sum   'Fe8 Ag2 P2 Xe4 F12'
_cell_volume   821.07733920
_cell_formula_units_Z   2
loop_
 _symmetry_equiv_pos_site_id
 _symmetry_equiv_pos_as_xyz
  1  'x, y, z'
loop_
 _atom_site_type_symbol
 _atom_site_label
 _atom_site_symmetry_multiplicity
 _atom_site_fract_x
 _atom_site_fract_y
 _atom_site_fract_z
 _atom_site_occupancy
  Fe  Fe0  1  0.26229300  0.99761700  0.18884500  1
  Fe  Fe1  1  0.80877200  0.07344800  0.81115500  1
  Fe  Fe2  1  0.00238300  0.19122800  0.26467700  1
  Fe  Fe3  1  0.76229300  0.57344800  0.26467700  1
  Fe  Fe4  1  0.92655200  0.73770700  0.73532300  1
  Fe  Fe5  1  0.30877200  0.49761700  0.73532300  1
  Fe  Fe6  1  0.50238300  0.23770700  0.81115500  1
  Fe  Fe7  1  0.42655200  0.69122800  0.18884500  1
  Ag  Ag0  1  0.00000000  0.50000000  0.50000000  1
  Ag  Ag1  1  0.50000000  0.00000000  0.50000000  1
  P  P0  1  0.00000000  0.00000000  0.00000000  1
  P  P1  1  0.50000000  0.50000000  0.00000000  1
  Xe  Xe0  1  0.48200500  0.01799500  0.00000000  1
  Xe  Xe1  1  0.01799500  0.48200500  0.00000000  1
  Xe  Xe2  1  0.98200500  0.98200500  0.46400900  1
  Xe  Xe3  1  0.51799500  0.51799500  0.53599100  1
  F  F0  1  0.11702500  0.11702500  0.00000000  1
  F  F1  1  0.88297500  0.88297500  0.00000000  1
  F  F2  1  0.61702500  0.61702500  0.00000000  1
  F  F3  1  0.38297500  0.38297500  0.00000000  1
  F  F4  1  0.26167100  0.67289500  0.74722800  1
  F  F5  1  0.92566700  0.51444300  0.25277200  1
  F  F6  1  0.32710500  0.07433300  0.58877600  1
  F  F7  1  0.76167100  0.01444300  0.58877600  1
  F  F8  1  0.48555700  0.73832900  0.41122400  1
  F  F9  1  0.42566700  0.17289500  0.41122400  1
  F  F10  1  0.82710500  0.23832900  0.25277200  1
  F  F11  1  0.98555700  0.57433300  0.74722800  1
loop_
_geom_bond_atom_site_label_1
_geom_bond_atom_site_label_2
_geom_bond_distance
_geom_bond_site_symmetry_2
Ag0 F4 2.403484 1_555
Ag0 F10 2.403484 1_455
Ag0 F5 2.403484 1_455
Ag0 F11 2.403484 1_455
Ag1 F8 2.403484 1_545
Ag1 F9 2.403484 1_555
Ag1 F7 2.403484 1_555
Ag1 F6 2.403484 1_555
F0 P0 1.850284 1_555
F1 P0 1.850284 1_665
F2 P1 1.850284 1_555
F3 P1 1.850284 1_555
F4 Fe5 1.849424 1_555
F5 Fe3 1.849432 1_555
F6 Fe6 1.849427 1_555
F7 Fe1 1.849427 1_555
F8 Fe7 1.849427 1_555
F9 Fe0 1.849427 1_545
F10 Fe2 1.849424 1_655
F11 Fe4 1.849432 1_555
