# generated using pymatgen
data_Sr7Y6OF30
_symmetry_space_group_name_H-M   'P 1'
_cell_length_a   9.08182228
_cell_length_b   9.08182228
_cell_length_c   9.08182179
_cell_angle_alpha   107.31272318
_cell_angle_beta   107.31272318
_cell_angle_gamma   107.31271600
_symmetry_Int_Tables_number   1
_chemical_formula_structural   Sr7Y6OF30
_chemical_formula_sum   'Sr7 Y6 O1 F30'
_cell_volume   618.42889676
_cell_formula_units_Z   1
loop_
 _symmetry_equiv_pos_site_id
 _symmetry_equiv_pos_as_xyz
  1  'x, y, z'
loop_
 _atom_site_type_symbol
 _atom_site_label
 _atom_site_symmetry_multiplicity
 _atom_site_fract_x
 _atom_site_fract_y
 _atom_site_fract_z
 _atom_site_occupancy
  Sr  Sr0  1  0.82280400  0.26856300  0.41587400  1
  Sr  Sr1  1  0.41587400  0.82280400  0.26856300  1
  Sr  Sr2  1  0.26856300  0.41587400  0.82280400  1
  Sr  Sr3  1  0.18867100  0.74030400  0.60289500  1
  Sr  Sr4  1  0.60289500  0.18867100  0.74030400  1
  Sr  Sr5  1  0.74030400  0.60289500  0.18867100  1
  Sr  Sr6  1  0.48908500  0.48908500  0.48908500  1
  Y  Y0  1  0.87444600  0.94465700  0.66489100  1
  Y  Y1  1  0.66489100  0.87444600  0.94465700  1
  Y  Y2  1  0.94465700  0.66489100  0.87444600  1
  Y  Y3  1  0.12459500  0.04338500  0.37502700  1
  Y  Y4  1  0.37502700  0.12459500  0.04338500  1
  Y  Y5  1  0.04338500  0.37502700  0.12459500  1
  O  O0  1  0.89693700  0.89693700  0.89693700  1
  F  F0  1  0.63623900  0.71741400  0.40420000  1
  F  F1  1  0.40420000  0.63623900  0.71741400  1
  F  F2  1  0.71741400  0.40420000  0.63623900  1
  F  F3  1  0.36045800  0.27838700  0.59779600  1
  F  F4  1  0.59779600  0.36045800  0.27838700  1
  F  F5  1  0.27838700  0.59779600  0.36045800  1
  F  F6  1  0.10426000  0.26699200  0.32117500  1
  F  F7  1  0.32117500  0.10426000  0.26699200  1
  F  F8  1  0.26699200  0.32117500  0.10426000  1
  F  F9  1  0.89397300  0.69084500  0.62373300  1
  F  F10  1  0.62373300  0.89397300  0.69084500  1
  F  F11  1  0.69084500  0.62373300  0.89397300  1
  F  F12  1  0.16841100  0.05276500  0.78979500  1
  F  F13  1  0.78979500  0.16841100  0.05276500  1
  F  F14  1  0.05276500  0.78979500  0.16841100  1
  F  F15  1  0.84044500  0.94355400  0.21582800  1
  F  F16  1  0.21582800  0.84044500  0.94355400  1
  F  F17  1  0.94355400  0.21582800  0.84044500  1
  F  F18  1  0.95281000  0.49537700  0.32217700  1
  F  F19  1  0.32217700  0.95281000  0.49537700  1
  F  F20  1  0.49537700  0.32217700  0.95281000  1
  F  F21  1  0.05731700  0.50900400  0.68618500  1
  F  F22  1  0.68618500  0.05731700  0.50900400  1
  F  F23  1  0.50900400  0.68618500  0.05731700  1
  F  F24  1  0.02627600  0.16431500  0.56111400  1
  F  F25  1  0.56111400  0.02627600  0.16431500  1
  F  F26  1  0.16431500  0.56111400  0.02627600  1
  F  F27  1  0.98636300  0.84819600  0.45356300  1
  F  F28  1  0.45356300  0.98636300  0.84819600  1
  F  F29  1  0.84819600  0.45356300  0.98636300  1
loop_
_geom_bond_atom_site_label_1
_geom_bond_atom_site_label_2
_geom_bond_distance
_geom_bond_site_symmetry_2
O0 Y0 2.238471 1_555
O0 Y2 2.238471 1_555
O0 Y1 2.238471 1_555
F0 Y0 2.435333 1_555
F0 Sr5 2.506135 1_555
F0 Sr6 2.568185 1_555
F0 Sr1 2.610230 1_555
F1 Y1 2.435333 1_555
F1 Sr3 2.506135 1_555
F1 Sr6 2.568185 1_555
F1 Sr2 2.610230 1_555
F2 Y2 2.435333 1_555
F2 Sr4 2.506135 1_555
F2 Sr6 2.568185 1_555
F2 Sr0 2.610230 1_555
F3 Y3 2.316553 1_555
F3 Sr6 2.545853 1_555
F3 Sr2 2.558915 1_555
F3 Sr4 2.680679 1_555
F4 Y4 2.316553 1_555
F4 Sr6 2.545853 1_555
F4 Sr0 2.558915 1_555
F4 Sr5 2.680679 1_555
F5 Y5 2.316553 1_555
F5 Sr6 2.545853 1_555
F5 Sr1 2.558915 1_555
F5 Sr3 2.680679 1_555
F6 Y3 2.271092 1_555
F6 Y5 2.287699 1_555
F6 Sr0 2.931980 1_455
F7 Y4 2.271092 1_555
F7 Y3 2.287699 1_555
F7 Sr1 2.931980 1_545
F8 Y5 2.271092 1_555
F8 Y4 2.287699 1_555
F8 Sr2 2.931980 1_554
F9 Y2 2.282995 1_555
F9 Y0 2.292266 1_555
F9 Sr3 2.652774 1_655
F10 Y0 2.282995 1_555
F10 Y1 2.292266 1_555
F10 Sr4 2.652774 1_565
F11 Y1 2.282995 1_555
F11 Y2 2.292266 1_555
F11 Sr5 2.652774 1_556
F12 Y4 2.248528 1_556
F12 Y0 2.313624 1_445
F12 Sr3 2.932147 1_545
F12 Sr2 3.042380 1_555
F13 Y5 2.248528 1_655
F13 Y1 2.313624 1_544
F13 Sr4 2.932146 1_554
F13 Sr0 3.042380 1_555
F14 Y3 2.248528 1_565
F14 Y2 2.313624 1_454
F14 Sr5 2.932147 1_455
F14 Sr1 3.042380 1_555
F15 Y1 2.269022 1_554
F15 Y3 2.275642 1_665
F15 Sr5 2.863092 1_555
F15 Sr0 3.049883 1_565
F16 Y2 2.269023 1_455
F16 Y4 2.275642 1_566
F16 Sr3 2.863092 1_555
F16 Sr1 3.049883 1_556
F17 Y0 2.269023 1_545
F17 Y5 2.275642 1_656
F17 Sr4 2.863092 1_555
F17 Sr2 3.049884 1_655
F18 Y5 2.310302 1_655
F18 Sr0 2.560264 1_555
F18 Sr3 2.564094 1_655
F18 Sr5 2.565501 1_555
F19 Y3 2.310302 1_565
F19 Sr1 2.560264 1_555
F19 Sr4 2.564094 1_565
F19 Sr3 2.565501 1_555
F20 Y4 2.310302 1_556
F20 Sr2 2.560264 1_555
F20 Sr5 2.564094 1_556
F20 Sr4 2.565501 1_555
F21 Sr2 2.471651 1_555
F21 Sr0 2.502119 1_455
F21 Sr3 2.529668 1_555
F21 Y2 2.537135 1_455
F22 Sr0 2.471651 1_555
F22 Sr1 2.502119 1_545
F22 Sr4 2.529668 1_555
F22 Y0 2.537135 1_545
F23 Sr1 2.471651 1_555
F23 Sr2 2.502119 1_554
F23 Sr5 2.529668 1_555
F23 Y1 2.537135 1_554
F24 Y3 2.288389 1_555
F24 Sr2 2.524584 1_555
F24 Sr0 2.526812 1_455
F24 Y0 2.650388 1_445
F25 Y4 2.288389 1_555
F25 Sr0 2.524584 1_555
F25 Sr1 2.526812 1_545
F25 Y1 2.650388 1_544
F26 Y5 2.288389 1_555
F26 Sr1 2.524584 1_555
F26 Sr2 2.526812 1_554
F26 Y2 2.650388 1_454
F27 Y3 2.277729 1_665
F27 Y0 2.484819 1_555
F27 Sr5 2.528197 1_555
F27 Sr3 2.560185 1_655
F28 Y4 2.277729 1_566
F28 Y1 2.484819 1_555
F28 Sr3 2.528197 1_555
F28 Sr4 2.560185 1_565
F29 Y5 2.277729 1_656
F29 Y2 2.484820 1_555
F29 Sr4 2.528197 1_555
F29 Sr5 2.560185 1_556
