# generated using pymatgen
data_Co2BP4H2Pb4ClO18
_symmetry_space_group_name_H-M   'P 1'
_cell_length_a   9.83695099
_cell_length_b   9.83695431
_cell_length_c   31.28381172
_cell_angle_alpha   80.95421335
_cell_angle_beta   80.95427212
_cell_angle_gamma   59.99920880
_symmetry_Int_Tables_number   1
_chemical_formula_structural   Co2BP4H2Pb4ClO18
_chemical_formula_sum   'Co12 B6 P24 H12 Pb24 Cl6 O108'
_cell_volume   2578.04522703
_cell_formula_units_Z   6
loop_
 _symmetry_equiv_pos_site_id
 _symmetry_equiv_pos_as_xyz
  1  'x, y, z'
loop_
 _atom_site_type_symbol
 _atom_site_label
 _atom_site_symmetry_multiplicity
 _atom_site_fract_x
 _atom_site_fract_y
 _atom_site_fract_z
 _atom_site_occupancy
  Co  Co0  1  0.81330826  0.54969544  0.33982398  1
  Co  Co1  1  0.54967104  0.29719832  0.33982172  1
  Co  Co2  1  0.29724275  0.81329864  0.33983007  1
  Co  Co3  1  0.31330948  0.79717365  0.83982387  1
  Co  Co4  1  0.79724331  0.04963077  0.83982970  1
  Co  Co5  1  0.04967126  0.31331003  0.83982162  1
  Co  Co6  1  0.18669831  0.45034039  0.66017434  1
  Co  Co7  1  0.45034117  0.70278258  0.66017717  1
  Co  Co8  1  0.70276704  0.18669353  0.66017287  1
  Co  Co9  1  0.68669702  0.20278593  0.16017452  1
  Co  Co10  1  0.20276559  0.95036418  0.16017301  1
  Co  Co11  1  0.95034059  0.68669724  0.16017722  1
  B  B0  1  0.24999647  0.72954629  0.25000057  1
  B  B1  1  0.72953843  0.77046671  0.24999781  1
  B  B2  1  0.77046302  0.24999884  0.25000231  1
  B  B3  1  0.74999651  0.27045544  0.75000224  1
  B  B4  1  0.27046291  0.22953644  0.75000179  1
  B  B5  1  0.22953816  0.74999621  0.74999745  1
  P  P0  1  0.92704489  0.49437549  0.43934893  1
  P  P1  1  0.49437084  0.13923921  0.43934548  1
  P  P2  1  0.13920026  0.92705588  0.43934961  1
  P  P3  1  0.42704623  0.63922357  0.93935004  1
  P  P4  1  0.63920388  0.99439059  0.93934739  1
  P  P5  1  0.99436996  0.42704456  0.93934578  1
  P  P6  1  0.07294884  0.50561311  0.56065755  1
  P  P7  1  0.50562317  0.86076414  0.56065988  1
  P  P8  1  0.86079435  0.07294267  0.56065558  1
  P  P9  1  0.57294852  0.36078864  0.06065626  1
  P  P10  1  0.36079111  0.00561108  0.06065755  1
  P  P11  1  0.00562300  0.57295313  0.06065949  1
  P  P12  1  0.16764765  0.57626582  0.32394064  1
  P  P13  1  0.57626468  0.93215023  0.32393949  1
  P  P14  1  0.93216884  0.16764343  0.32393961  1
  P  P15  1  0.66764444  0.43214820  0.82394195  1
  P  P16  1  0.43216540  0.07625554  0.82393952  1
  P  P17  1  0.07625844  0.66765209  0.82393794  1
  P  P18  1  0.83234425  0.42375036  0.67606031  1
  P  P19  1  0.42373819  0.06784635  0.67605936  1
  P  P20  1  0.06782331  0.83236114  0.67605899  1
  P  P21  1  0.33234865  0.56784264  0.17605818  1
  P  P22  1  0.56782794  0.92374944  0.17605916  1
  P  P23  1  0.92374365  0.33235191  0.17606126  1
  H  H0  1  0.79504773  0.53438267  0.25994753  1
  H  H1  1  0.53438521  0.41064994  0.25994805  1
  H  H2  1  0.41071007  0.79494297  0.25994889  1
  H  H3  1  0.29504701  0.91062038  0.75994787  1
  H  H4  1  0.91071151  0.03439566  0.75994876  1
  H  H5  1  0.03438501  0.29501645  0.75994794  1
  H  H6  1  0.20501300  0.46559971  0.74005377  1
  H  H7  1  0.46560390  0.58933688  0.74005450  1
  H  H8  1  0.58931074  0.20502974  0.74005572  1
  H  H9  1  0.70501333  0.08933426  0.24005363  1
  H  H10  1  0.08930880  0.96560586  0.24005590  1
  H  H11  1  0.96560279  0.70500511  0.24005441  1
  Pb  Pb0  1  0.73880229  0.47067117  0.56295432  1
  Pb  Pb1  1  0.47075039  0.22755520  0.56291660  1
  Pb  Pb2  1  0.22763771  0.73869808  0.56296355  1
  Pb  Pb3  1  0.23877330  0.72760430  0.06296112  1
  Pb  Pb4  1  0.72762687  0.97071677  0.06295730  1
  Pb  Pb5  1  0.97074266  0.23880416  0.06291597  1
  Pb  Pb6  1  0.26120634  0.52932060  0.43705029  1
  Pb  Pb7  1  0.52926841  0.77242775  0.43708319  1
  Pb  Pb8  1  0.77235987  0.26130137  0.43703723  1
  Pb  Pb9  1  0.76123568  0.27238870  0.93704446  1
  Pb  Pb10  1  0.27237228  0.02928524  0.93704331  1
  Pb  Pb11  1  0.02927434  0.76119588  0.93708356  1
  Pb  Pb12  1  0.12597803  0.12589259  0.62225457  1
  Pb  Pb13  1  0.62597893  0.62588736  0.12225469  1
  Pb  Pb14  1  0.87401706  0.87414490  0.37775370  1
  Pb  Pb15  1  0.37401665  0.37407089  0.87775349  1
  Pb  Pb16  1  0.16751124  0.16757359  0.49734643  1
  Pb  Pb17  1  0.66750824  0.66757235  0.99734628  1
  Pb  Pb18  1  0.83247053  0.83244119  0.50265983  1
  Pb  Pb19  1  0.33247321  0.33242488  0.00266013  1
  Pb  Pb20  1  0.21309882  0.21312508  0.36068197  1
  Pb  Pb21  1  0.71309935  0.71311559  0.86068210  1
  Pb  Pb22  1  0.78686367  0.78688746  0.63932282  1
  Pb  Pb23  1  0.28686351  0.28690056  0.13932271  1
  Cl  Cl0  1  0.54613325  0.54613921  0.36163049  1
  Cl  Cl1  1  0.04613210  0.04609713  0.86163073  1
  Cl  Cl2  1  0.45386810  0.45387900  0.63837450  1
  Cl  Cl3  1  0.95386798  0.95388098  0.13837496  1
  Cl  Cl4  1  0.49999837  0.50000069  0.50000308  1
  Cl  Cl5  1  0.00000007  0.99999666  0.00000293  1
  O  O0  1  0.84464571  0.46628627  0.40531146  1
  O  O1  1  0.46629250  0.28375312  0.40530555  1
  O  O2  1  0.28373080  0.84465508  0.40531117  1
  O  O3  1  0.34465410  0.78374995  0.90531105  1
  O  O4  1  0.78373288  0.96630229  0.90531015  1
  O  O5  1  0.96629293  0.34464389  0.90530684  1
  O  O6  1  0.15536989  0.53368308  0.59469107  1
  O  O7  1  0.53369844  0.71625457  0.59469447  1
  O  O8  1  0.71626959  0.15534051  0.59469054  1
  O  O9  1  0.65536269  0.21626217  0.09469129  1
  O  O10  1  0.21626841  0.03369976  0.09469104  1
  O  O11  1  0.03369756  0.65536078  0.09469420  1
  O  O12  1  0.81889689  0.32849842  0.64250513  1
  O  O13  1  0.32849843  0.21010003  0.64250424  1
  O  O14  1  0.21008830  0.81889833  0.64250433  1
  O  O15  1  0.31889850  0.71009892  0.14250448  1
  O  O16  1  0.71008859  0.82851209  0.14250326  1
  O  O17  1  0.82849655  0.31889558  0.14250546  1
  O  O18  1  0.18109408  0.67150382  0.35749850  1
  O  O19  1  0.67147288  0.78990785  0.35749857  1
  O  O20  1  0.78991763  0.18111699  0.35749740  1
  O  O21  1  0.68109137  0.28990443  0.85749916  1
  O  O22  1  0.28991648  0.17146704  0.85749839  1
  O  O23  1  0.17147189  0.68112350  0.85749762  1
  O  O24  1  0.88987276  0.59407335  0.57209923  1
  O  O25  1  0.59408114  0.94394938  0.57209691  1
  O  O26  1  0.94397931  0.88985741  0.57209557  1
  O  O27  1  0.38987251  0.44395196  0.07209937  1
  O  O28  1  0.44397924  0.09406678  0.07209599  1
  O  O29  1  0.09407960  0.38987116  0.07209694  1
  O  O30  1  0.11013199  0.40593027  0.42790285  1
  O  O31  1  0.40593106  0.05603281  0.42790393  1
  O  O32  1  0.05601741  0.11013771  0.42790560  1
  O  O33  1  0.61013416  0.55603709  0.92790271  1
  O  O34  1  0.55601524  0.90593890  0.92790519  1
  O  O35  1  0.90593227  0.61013292  0.92790403  1
  O  O36  1  0.97749039  0.13563079  0.56099845  1
  O  O37  1  0.13562297  0.32589815  0.56099704  1
  O  O38  1  0.32590205  0.97747826  0.56099905  1
  O  O39  1  0.47748766  0.82588402  0.06099885  1
  O  O40  1  0.82590246  0.63562079  0.06099836  1
  O  O41  1  0.63562586  0.47748491  0.06099721  1
  O  O42  1  0.02250467  0.86437354  0.43900388  1
  O  O43  1  0.86435700  0.67410285  0.43900299  1
  O  O44  1  0.67409713  0.02253064  0.43900358  1
  O  O45  1  0.52250789  0.17411411  0.93900351  1
  O  O46  1  0.17409684  0.36436825  0.93900382  1
  O  O47  1  0.36435406  0.52253416  0.93900293  1
  O  O48  1  0.14418980  0.67919672  0.27848670  1
  O  O49  1  0.67919356  0.89813498  0.27848472  1
  O  O50  1  0.89812673  0.14418545  0.27848812  1
  O  O51  1  0.64419054  0.39812209  0.77848716  1
  O  O52  1  0.39812983  0.17920236  0.77848785  1
  O  O53  1  0.17918995  0.64419017  0.77848410  1
  O  O54  1  0.85579837  0.32080844  0.72151714  1
  O  O55  1  0.32080199  0.10186579  0.72151940  1
  O  O56  1  0.10187275  0.85581206  0.72151541  1
  O  O57  1  0.35579867  0.60188026  0.22151714  1
  O  O58  1  0.60186969  0.82079619  0.22151610  1
  O  O59  1  0.82080677  0.35581002  0.22151969  1
  O  O60  1  0.75498238  0.62452321  0.27720783  1
  O  O61  1  0.62452084  0.34330217  0.27721012  1
  O  O62  1  0.34330998  0.75495731  0.27720983  1
  O  O63  1  0.25497833  0.84328845  0.77720637  1
  O  O64  1  0.84331137  0.12451919  0.77721129  1
  O  O65  1  0.12452044  0.25497113  0.77721009  1
  O  O66  1  0.24502709  0.37547615  0.72279204  1
  O  O67  1  0.37547689  0.65669337  0.72279082  1
  O  O68  1  0.65669706  0.24502913  0.72279384  1
  O  O69  1  0.74503145  0.15670470  0.22279312  1
  O  O70  1  0.15669573  0.87548259  0.22279250  1
  O  O71  1  0.87547636  0.74503571  0.22279100  1
  O  O72  1  0.88859574  0.42117693  0.48407444  1
  O  O73  1  0.42118131  0.20617835  0.48406922  1
  O  O74  1  0.20615432  0.88857871  0.48407463  1
  O  O75  1  0.38859359  0.70615249  0.98407517  1
  O  O76  1  0.70615246  0.92119910  0.98407296  1
  O  O77  1  0.92117424  0.38857695  0.98406979  1
  O  O78  1  0.11141645  0.57882650  0.51592711  1
  O  O79  1  0.57882212  0.79381717  0.51592997  1
  O  O80  1  0.79383667  0.11141790  0.51592743  1
  O  O81  1  0.61141775  0.29383220  0.01592690  1
  O  O82  1  0.29383698  0.07881161  0.01592888  1
  O  O83  1  0.07882859  0.61142389  0.01592977  1
  O  O84  1  0.01815176  0.56311096  0.33639649  1
  O  O85  1  0.56312775  0.08233173  0.33639645  1
  O  O86  1  0.08235250  0.01813808  0.33639636  1
  O  O87  1  0.51814864  0.58234937  0.83639621  1
  O  O88  1  0.58234872  0.06311701  0.83639676  1
  O  O89  1  0.06312794  0.51814429  0.83639642  1
  O  O90  1  0.98183453  0.43689597  0.66360418  1
  O  O91  1  0.43686928  0.91767270  0.66360368  1
  O  O92  1  0.91765004  0.98185033  0.66360550  1
  O  O93  1  0.48183771  0.41765657  0.16360453  1
  O  O94  1  0.41765241  0.93688964  0.16360531  1
  O  O95  1  0.93686993  0.48185279  0.16360399  1
  O  O96  1  0.95234017  0.31410603  0.32275733  1
  O  O97  1  0.31410302  0.41081673  0.32276150  1
  O  O98  1  0.41080397  0.95233838  0.32275788  1
  O  O99  1  0.45234087  0.91079841  0.82275774  1
  O  O100  1  0.91080350  0.81410349  0.82275769  1
  O  O101  1  0.81410274  0.45231913  0.82276176  1
  O  O102  1  0.04767301  0.68589857  0.67724081  1
  O  O103  1  0.68589071  0.58918536  0.67723972  1
  O  O104  1  0.58917402  0.04767300  0.67723959  1
  O  O105  1  0.54767011  0.08918663  0.17724043  1
  O  O106  1  0.08917707  0.18590640  0.17724012  1
  O  O107  1  0.18589194  0.54768349  0.17724002  1
loop_
_geom_bond_atom_site_label_1
_geom_bond_atom_site_label_2
_geom_bond_distance
_geom_bond_site_symmetry_2
Co0 O60 2.045936 1_555
Co0 O84 2.069497 1_655
Co0 O0 2.093438 1_555
Co0 O96 2.125120 1_555
Co0 O19 2.169626 1_555
Co1 O61 2.045859 1_555
Co1 O85 2.069641 1_555
Co1 O1 2.093285 1_555
Co1 O97 2.124874 1_555
Co1 O20 2.169914 1_555
Co2 O62 2.046143 1_555
Co2 O86 2.069778 1_565
Co2 O2 2.093138 1_555
Co2 O98 2.124722 1_555
Co2 O18 2.170062 1_555
Co3 O63 2.045994 1_555
Co3 O87 2.069414 1_555
Co3 O3 2.093437 1_555
Co3 O99 2.125143 1_555
Co3 O23 2.169656 1_555
Co4 O64 2.046077 1_555
Co4 O88 2.069831 1_555
Co4 O4 2.093124 1_545
Co4 O100 2.124688 1_545
Co4 O21 2.170039 1_555
Co5 O65 2.045847 1_555
Co5 O89 2.069635 1_555
Co5 O5 2.093319 1_455
Co5 O101 2.124871 1_455
Co5 O22 2.169912 1_555
Co6 O66 2.046013 1_555
Co6 O90 2.069842 1_455
Co6 O6 2.093197 1_555
Co6 O102 2.124866 1_555
Co6 O13 2.169782 1_555
Co7 O67 2.045924 1_555
Co7 O91 2.069811 1_555
Co7 O7 2.093225 1_555
Co7 O103 2.124754 1_555
Co7 O14 2.169917 1_555
Co8 O68 2.046145 1_555
Co8 O92 2.069754 1_545
Co8 O8 2.093182 1_555
Co8 O104 2.124800 1_555
Co8 O12 2.169997 1_555
Co9 O69 2.046061 1_555
Co9 O93 2.069756 1_555
Co9 O9 2.093203 1_555
Co9 O105 2.124902 1_555
Co9 O17 2.169794 1_555
Co10 O70 2.046089 1_555
Co10 O94 2.069803 1_555
Co10 O10 2.093178 1_565
Co10 O106 2.124747 1_565
Co10 O15 2.169968 1_555
Co11 O71 2.045923 1_555
Co11 O95 2.069804 1_555
Co11 O11 2.093222 1_655
Co11 O107 2.124767 1_655
Co11 O16 2.169921 1_555
B0 O70 1.473610 1_555
B0 O62 1.473659 1_555
B0 O57 1.485780 1_555
B0 O48 1.485876 1_555
B1 O71 1.473605 1_555
B1 O60 1.473665 1_555
B1 O58 1.485801 1_555
B1 O49 1.485882 1_555
B2 O69 1.473621 1_555
B2 O61 1.473646 1_555
B2 O59 1.485829 1_555
B2 O50 1.485832 1_555
B3 O68 1.473615 1_555
B3 O64 1.473657 1_555
B3 O51 1.485820 1_555
B3 O54 1.485846 1_555
B4 O66 1.473649 1_555
B4 O65 1.473654 1_555
B4 O55 1.485814 1_555
B4 O52 1.485872 1_555
B5 O67 1.473606 1_555
B5 O63 1.473649 1_555
B5 O56 1.485773 1_555
B5 O53 1.485871 1_555
H0 O60 0.983518 1_555
H1 O61 0.983531 1_555
H2 O62 0.983521 1_555
H3 O63 0.983495 1_555
H4 O64 0.983534 1_555
H5 O65 0.983541 1_555
H6 O66 0.983483 1_555
H7 O67 0.983517 1_555
H8 O68 0.983513 1_555
H9 O69 0.983494 1_555
H10 O70 0.983530 1_555
H11 O71 0.983515 1_555
Cl0 Co2 2.625453 1_555
Cl0 Co0 2.625764 1_555
Cl0 Co1 2.626039 1_555
Cl1 Co4 2.625464 1_455
Cl1 Co3 2.625745 1_545
Cl1 Co5 2.626054 1_555
Cl2 Co8 2.625603 1_555
Cl2 Co6 2.625612 1_555
Cl2 Co7 2.625660 1_555
Cl3 Co9 2.625571 1_565
Cl3 Co10 2.625592 1_655
Cl3 Co11 2.625700 1_555
Cl4 Pb1 3.173872 1_555
Cl4 Pb7 3.173913 1_555
Cl4 Pb2 3.174086 1_555
Cl4 Pb8 3.174199 1_555
Cl4 Pb6 3.174587 1_555
Cl4 Pb0 3.174609 1_555
Cl5 Pb5 3.174044 1_465
Cl5 Pb4 3.174045 1_455
Cl5 Pb11 3.174072 1_554
Cl5 Pb10 3.174151 1_564
Cl5 Pb9 3.174435 1_464
Cl5 Pb3 3.174467 1_555
O0 P0 1.566871 1_555
O0 Pb8 2.477761 1_555
O1 P1 1.566841 1_555
O1 Pb6 2.478389 1_555
O2 P2 1.566905 1_555
O2 Pb7 2.478572 1_555
O3 P3 1.566878 1_555
O3 Pb10 2.477779 1_565
O4 P4 1.566883 1_555
O4 Pb11 2.478660 1_655
O5 P5 1.566853 1_555
O5 Pb9 2.478292 1_555
O6 P6 1.566824 1_555
O6 Pb2 2.477927 1_555
O7 P7 1.566721 1_555
O7 Pb0 2.478473 1_555
O8 P8 1.566802 1_555
O8 Pb1 2.478473 1_555
O9 P9 1.566838 1_555
O9 Pb4 2.477941 1_545
O10 P10 1.566772 1_555
O10 Pb5 2.478580 1_455
O11 P11 1.566784 1_555
O11 Pb3 2.478350 1_555
O12 P18 1.572987 1_555
O12 Pb0 2.681472 1_555
O12 Pb12 2.696866 1_655
O13 P19 1.572937 1_555
O13 Pb1 2.682728 1_555
O13 Pb12 2.695988 1_555
O14 P20 1.573010 1_555
O14 Pb2 2.681429 1_555
O14 Pb12 2.696327 1_565
O15 P21 1.572962 1_555
O15 Pb3 2.681303 1_555
O15 Pb13 2.696900 1_555
O16 P22 1.572981 1_555
O16 Pb4 2.681593 1_555
O16 Pb13 2.696242 1_555
O17 P23 1.573009 1_555
O17 Pb5 2.682713 1_555
O17 Pb13 2.696052 1_555
O18 P12 1.572945 1_555
O18 Pb6 2.681554 1_555
O18 Pb14 2.696938 1_455
O19 P13 1.572881 1_555
O19 Pb7 2.682502 1_555
O19 Pb14 2.696481 1_555
O20 P14 1.572936 1_555
O20 Pb8 2.681318 1_555
O20 Pb14 2.696170 1_545
O21 P15 1.572938 1_555
O21 Pb9 2.681415 1_555
O21 Pb15 2.696959 1_555
O22 P16 1.572918 1_555
O22 Pb10 2.681485 1_555
O22 Pb15 2.696067 1_555
O23 P17 1.572929 1_555
O23 Pb11 2.682471 1_555
O23 Pb15 2.696565 1_555
O24 P6 1.567387 1_655
O24 Pb0 2.410538 1_555
O24 Pb22 2.776531 1_555
O24 Pb18 2.827712 1_555
O25 P7 1.567420 1_555
O25 Pb1 2.410466 1_565
O25 Pb22 2.776448 1_555
O25 Pb18 2.827751 1_555
O26 P8 1.567456 1_565
O26 Pb2 2.410877 1_655
O26 Pb22 2.776939 1_555
O26 Pb18 2.827594 1_555
O27 P9 1.567395 1_555
O27 Pb3 2.410801 1_555
O27 Pb23 2.776673 1_555
O27 Pb19 2.827713 1_555
O28 P10 1.567442 1_555
O28 Pb4 2.410799 1_545
O28 Pb23 2.776786 1_555
O28 Pb19 2.827562 1_555
O29 P11 1.567417 1_555
O29 Pb5 2.410308 1_455
O29 Pb23 2.776436 1_555
O29 Pb19 2.827773 1_555
O30 P0 1.567494 1_455
O30 Pb6 2.410498 1_555
O30 Pb20 2.776448 1_555
O30 Pb16 2.827754 1_555
O31 P1 1.567498 1_555
O31 Pb7 2.410456 1_545
O31 Pb20 2.776637 1_555
O31 Pb16 2.828054 1_555
O32 P2 1.567444 1_545
O32 Pb8 2.410872 1_455
O32 Pb20 2.776751 1_555
O32 Pb16 2.827741 1_555
O33 P3 1.567508 1_555
O33 Pb9 2.410773 1_555
O33 Pb21 2.776560 1_555
O33 Pb17 2.827751 1_555
O34 P4 1.567460 1_555
O34 Pb10 2.410760 1_565
O34 Pb21 2.776614 1_555
O34 Pb17 2.827707 1_555
O35 P5 1.567485 1_555
O35 Pb11 2.410301 1_655
O35 Pb21 2.776626 1_555
O35 Pb17 2.828075 1_555
O36 P8 1.553058 1_555
O36 Pb12 2.549027 1_655
O36 Pb16 2.603484 1_655
O37 P6 1.552968 1_555
O37 Pb12 2.548771 1_555
O37 Pb16 2.603691 1_555
O38 P7 1.553029 1_555
O38 Pb12 2.548485 1_565
O38 Pb16 2.603982 1_565
O39 P10 1.553041 1_565
O39 Pb13 2.548983 1_555
O39 Pb17 2.603484 1_554
O40 P11 1.553032 1_655
O40 Pb13 2.548472 1_555
O40 Pb17 2.603993 1_554
O41 P9 1.552968 1_555
O41 Pb13 2.548830 1_555
O41 Pb17 2.603679 1_554
O42 P2 1.553027 1_555
O42 Pb14 2.548752 1_455
O42 Pb18 2.603610 1_455
O43 P0 1.553037 1_555
O43 Pb14 2.548897 1_555
O43 Pb18 2.603950 1_555
O44 P1 1.553054 1_555
O44 Pb14 2.548257 1_545
O44 Pb18 2.603987 1_545
O45 P4 1.553009 1_545
O45 Pb15 2.548708 1_555
O45 Pb19 2.603616 1_556
O46 P5 1.553065 1_455
O46 Pb15 2.548237 1_555
O46 Pb19 2.604013 1_556
O47 P3 1.553052 1_555
O47 Pb15 2.548966 1_555
O47 Pb19 2.603939 1_556
O48 P12 1.586586 1_555
O49 P13 1.586599 1_555
O50 P14 1.586615 1_555
O51 P15 1.586630 1_555
O52 P16 1.586593 1_555
O53 P17 1.586585 1_555
O54 P18 1.586707 1_555
O55 P19 1.586765 1_555
O56 P20 1.586765 1_555
O57 P21 1.586788 1_555
O58 P22 1.586756 1_555
O59 P23 1.586727 1_555
O72 P0 1.551896 1_555
O72 Pb0 2.648516 1_555
O72 Pb16 2.666710 1_655
O73 P1 1.551890 1_555
O73 Pb1 2.647672 1_555
O73 Pb16 2.667505 1_555
O74 P2 1.551989 1_555
O74 Pb2 2.649043 1_555
O74 Pb16 2.667273 1_565
O75 P3 1.551910 1_555
O75 Pb3 2.648761 1_556
O75 Pb17 2.666736 1_555
O76 P4 1.551973 1_555
O76 Pb4 2.648916 1_556
O76 Pb17 2.667316 1_555
O77 P5 1.551908 1_555
O77 Pb5 2.647567 1_556
O77 Pb17 2.667439 1_555
O78 P6 1.552144 1_555
O78 Pb6 2.648427 1_555
O78 Pb18 2.666904 1_455
O79 P7 1.552098 1_555
O79 Pb7 2.647637 1_555
O79 Pb18 2.667410 1_555
O80 P8 1.552098 1_555
O80 Pb8 2.649091 1_555
O80 Pb18 2.667095 1_545
O81 P9 1.552135 1_555
O81 Pb9 2.648663 1_554
O81 Pb19 2.666935 1_555
O82 P10 1.552088 1_555
O82 Pb10 2.648954 1_554
O82 Pb19 2.667142 1_555
O83 P11 1.552102 1_555
O83 Pb11 2.647558 1_554
O83 Pb19 2.667340 1_555
O84 P12 1.524946 1_555
O85 P13 1.524909 1_545
O86 P14 1.524918 1_455
O87 P15 1.524948 1_555
O88 P16 1.524922 1_555
O89 P17 1.524941 1_555
O90 P18 1.524846 1_555
O91 P19 1.524844 1_565
O92 P20 1.524768 1_655
O93 P21 1.524836 1_555
O94 P22 1.524799 1_555
O95 P23 1.524850 1_555
O96 P14 1.543798 1_555
O96 Pb20 2.648060 1_655
O97 P12 1.543729 1_555
O97 Pb20 2.648106 1_555
O98 P13 1.543811 1_555
O98 Pb20 2.648233 1_565
O99 P16 1.543828 1_565
O99 Pb21 2.648009 1_555
O100 P17 1.543749 1_655
O100 Pb21 2.648137 1_555
O101 P15 1.543762 1_555
O101 Pb21 2.648267 1_555
O102 P20 1.543677 1_555
O102 Pb22 2.648358 1_455
O103 P18 1.543641 1_555
O103 Pb22 2.647957 1_555
O104 P19 1.543619 1_555
O104 Pb22 2.648087 1_545
O105 P22 1.543700 1_545
O105 Pb23 2.648281 1_555
O106 P23 1.543599 1_455
O106 Pb23 2.647970 1_555
O107 P21 1.543671 1_555
O107 Pb23 2.648159 1_555
