# generated using pymatgen
data_Sr3WO6
_symmetry_space_group_name_H-M   'P 1'
_cell_length_a   10.30841716
_cell_length_b   10.30841716
_cell_length_c   10.32535700
_cell_angle_alpha   80.94001597
_cell_angle_beta   80.94001597
_cell_angle_gamma   120.58378030
_symmetry_Int_Tables_number   1
_chemical_formula_structural   Sr3WO6
_chemical_formula_sum   'Sr18 W6 O36'
_cell_volume   895.62012747
_cell_formula_units_Z   6
loop_
 _symmetry_equiv_pos_site_id
 _symmetry_equiv_pos_as_xyz
  1  'x, y, z'
loop_
 _atom_site_type_symbol
 _atom_site_label
 _atom_site_symmetry_multiplicity
 _atom_site_fract_x
 _atom_site_fract_y
 _atom_site_fract_z
 _atom_site_occupancy
  Sr  Sr0  1  0.81340400  0.25957700  0.21262500  1
  Sr  Sr1  1  0.25957700  0.81340400  0.71262500  1
  Sr  Sr2  1  0.94144900  0.09844200  0.78642000  1
  Sr  Sr3  1  0.09844200  0.94144900  0.28642000  1
  Sr  Sr4  1  0.38419700  0.52186900  0.24187100  1
  Sr  Sr5  1  0.52186900  0.38419700  0.74187100  1
  Sr  Sr6  1  0.28630200  0.49436200  0.62753600  1
  Sr  Sr7  1  0.49436200  0.28630200  0.12753600  1
  Sr  Sr8  1  0.38770700  0.85320200  0.34884900  1
  Sr  Sr9  1  0.85320200  0.38770700  0.84884900  1
  Sr  Sr10  1  0.65264200  0.13341200  0.61321300  1
  Sr  Sr11  1  0.13341200  0.65264200  0.11321300  1
  Sr  Sr12  1  0.02269800  0.20457600  0.42835300  1
  Sr  Sr13  1  0.20457600  0.02269800  0.92835300  1
  Sr  Sr14  1  0.93124000  0.78275400  0.64502600  1
  Sr  Sr15  1  0.78275400  0.93124000  0.14502600  1
  Sr  Sr16  1  0.72082800  0.53677900  0.37023400  1
  Sr  Sr17  1  0.53677900  0.72082800  0.87023400  1
  W  W0  1  0.98882900  0.49678600  0.50436500  1
  W  W1  1  0.49678600  0.98882900  0.00436500  1
  W  W2  1  0.16617800  0.33532700  0.99385700  1
  W  W3  1  0.33532700  0.16617800  0.49385700  1
  W  W4  1  0.83179600  0.66822200  0.00011100  1
  W  W5  1  0.66822200  0.83179600  0.50011100  1
  O  O0  1  0.06817100  0.60800000  0.63650000  1
  O  O1  1  0.60800000  0.06817100  0.13650000  1
  O  O2  1  0.87276300  0.34662600  0.40942900  1
  O  O3  1  0.34662600  0.87276300  0.90942900  1
  O  O4  1  0.95291600  0.30847500  0.63694900  1
  O  O5  1  0.30847500  0.95291600  0.13694900  1
  O  O6  1  0.03406500  0.66530100  0.36164400  1
  O  O7  1  0.66530100  0.03406500  0.86164400  1
  O  O8  1  0.78048100  0.45146000  0.60200500  1
  O  O9  1  0.45146000  0.78048100  0.10200500  1
  O  O10  1  0.19289600  0.52995900  0.41896700  1
  O  O11  1  0.52995900  0.19289600  0.91896700  1
  O  O12  1  0.22402500  0.53406100  0.87133400  1
  O  O13  1  0.53406100  0.22402500  0.37133400  1
  O  O14  1  0.86462000  0.49668200  0.05888100  1
  O  O15  1  0.49668200  0.86462000  0.55888100  1
  O  O16  1  0.03000500  0.78993400  0.85455500  1
  O  O17  1  0.78993400  0.03000500  0.35455500  1
  O  O18  1  0.38062900  0.42865000  0.00753100  1
  O  O19  1  0.42865000  0.38062900  0.50753100  1
  O  O20  1  0.64150000  0.55897200  0.15272000  1
  O  O21  1  0.55897200  0.64150000  0.65272000  1
  O  O22  1  0.72924200  0.56030500  0.87219300  1
  O  O23  1  0.56030500  0.72924200  0.37219300  1
  O  O24  1  0.79208900  0.83146100  0.94230900  1
  O  O25  1  0.83146100  0.79208900  0.44230900  1
  O  O26  1  0.11370800  0.39069900  0.15967800  1
  O  O27  1  0.39069900  0.11370800  0.65967800  1
  O  O28  1  0.94584700  0.23501900  0.98454500  1
  O  O29  1  0.23501900  0.94584700  0.48454500  1
  O  O30  1  0.22166000  0.27597300  0.82661500  1
  O  O31  1  0.27597300  0.22166000  0.32661500  1
  O  O32  1  0.95036600  0.77838200  0.12088700  1
  O  O33  1  0.77838200  0.95036600  0.62088700  1
  O  O34  1  0.09952300  0.12323700  0.09578800  1
  O  O35  1  0.12323700  0.09952300  0.59578800  1
loop_
_geom_bond_atom_site_label_1
_geom_bond_atom_site_label_2
_geom_bond_distance
_geom_bond_site_symmetry_2
O0 W0 1.932504 1_455
O0 Sr1 2.399068 1_555
O0 Sr9 2.579887 1_455
O0 Sr14 2.800666 1_455
O0 Sr6 3.014291 1_555
O1 W1 1.932504 1_545
O1 Sr0 2.399068 1_555
O1 Sr8 2.579887 1_545
O1 Sr15 2.800666 1_545
O1 Sr7 3.014291 1_555
O2 W0 1.936766 1_555
O2 Sr0 2.390832 1_555
O2 Sr10 2.524248 1_555
O2 Sr12 2.622841 1_655
O2 Sr16 3.087546 1_555
O3 W1 1.936766 1_556
O3 Sr1 2.390832 1_555
O3 Sr11 2.524248 1_556
O3 Sr13 2.622841 1_565
O3 Sr17 3.087546 1_555
O4 W0 2.012844 1_555
O4 Sr2 2.390255 1_555
O4 Sr9 2.686927 1_555
O4 Sr12 2.706677 1_655
O4 Sr10 2.755340 1_555
O4 Sr6 2.937169 1_655
O5 W1 2.012844 1_555
O5 Sr3 2.390255 1_555
O5 Sr8 2.686927 1_555
O5 Sr13 2.706677 1_564
O5 Sr11 2.755340 1_555
O5 Sr7 2.937169 1_565
O6 W0 1.886731 1_455
O6 Sr3 2.523109 1_555
O6 Sr11 2.657037 1_555
O6 Sr16 2.776508 1_455
O6 Sr8 3.105025 1_555
O7 W1 1.886731 1_546
O7 Sr2 2.523109 1_555
O7 Sr10 2.657037 1_555
O7 Sr17 2.776508 1_545
O7 Sr9 3.105025 1_555
O8 W0 1.999012 1_555
O8 Sr5 2.502891 1_555
O8 Sr16 2.688795 1_555
O8 Sr10 2.816907 1_555
O8 Sr9 2.839988 1_555
O8 Sr14 3.093531 1_555
O9 W1 1.999012 1_555
O9 Sr4 2.502891 1_555
O9 Sr17 2.688795 1_554
O9 Sr11 2.816907 1_555
O9 Sr8 2.839988 1_555
O9 Sr15 3.093531 1_555
O10 W0 1.976985 1_455
O10 Sr4 2.513803 1_555
O10 Sr6 2.542293 1_555
O10 Sr8 2.762808 1_555
O10 Sr12 2.862485 1_555
O11 W1 1.976985 1_546
O11 Sr5 2.513803 1_555
O11 Sr7 2.542293 1_556
O11 Sr9 2.762808 1_555
O11 Sr13 2.862485 1_555
O12 W2 1.963675 1_555
O12 Sr6 2.645607 1_555
O12 Sr17 2.786801 1_555
O12 Sr1 2.891811 1_555
O12 Sr11 3.161142 1_556
O13 W3 1.963675 1_555
O13 Sr7 2.645607 1_555
O13 Sr16 2.786801 1_555
O13 Sr0 2.891811 1_555
O13 Sr10 3.161142 1_555
O14 W4 1.986255 1_555
O14 Sr0 2.444122 1_555
O14 Sr9 2.586879 1_554
O14 Sr11 2.611020 1_655
O14 Sr7 3.164518 1_555
O15 W5 1.986255 1_555
O15 Sr1 2.444122 1_555
O15 Sr8 2.586879 1_555
O15 Sr10 2.611020 1_565
O15 Sr6 3.164518 1_555
O16 W4 1.959098 1_456
O16 Sr1 2.453584 1_555
O16 Sr13 2.487985 1_565
O16 Sr14 2.527852 1_455
O17 W5 1.959098 1_545
O17 Sr0 2.453584 1_555
O17 Sr12 2.487985 1_655
O17 Sr15 2.527852 1_545
O18 W2 1.951758 1_554
O18 Sr17 2.583681 1_554
O18 Sr7 2.588172 1_555
O18 Sr4 2.739301 1_555
O18 Sr5 3.109831 1_554
O19 W3 1.951758 1_555
O19 Sr16 2.583681 1_555
O19 Sr6 2.588172 1_555
O19 Sr5 2.739301 1_555
O19 Sr4 3.109831 1_555
O20 W4 1.954202 1_555
O20 Sr4 2.473187 1_555
O20 Sr7 2.506958 1_555
O20 Sr16 2.524306 1_555
O21 W5 1.954202 1_555
O21 Sr5 2.473187 1_555
O21 Sr6 2.506958 1_555
O21 Sr17 2.524306 1_555
O22 W4 1.950748 1_556
O22 Sr14 2.646679 1_555
O22 Sr9 2.684799 1_555
O22 Sr5 2.720715 1_555
O22 Sr7 3.078413 1_556
O22 Sr17 3.165063 1_555
O23 W5 1.950748 1_555
O23 Sr15 2.646679 1_555
O23 Sr8 2.684799 1_555
O23 Sr4 2.720715 1_555
O23 Sr6 3.078413 1_555
O23 Sr16 3.165063 1_555
O24 W4 1.953683 1_556
O24 Sr2 2.459302 1_565
O24 Sr15 2.482679 1_556
O24 Sr17 2.571165 1_555
O25 W5 1.953683 1_555
O25 Sr3 2.459302 1_655
O25 Sr14 2.482679 1_555
O25 Sr16 2.571165 1_555
O26 W2 1.969811 1_554
O26 Sr11 2.562385 1_555
O26 Sr0 2.585604 1_455
O26 Sr4 2.755602 1_555
O26 Sr12 2.815969 1_555
O27 W3 1.969811 1_555
O27 Sr10 2.562385 1_555
O27 Sr1 2.585604 1_545
O27 Sr5 2.755602 1_555
O27 Sr13 2.815969 1_555
O28 W2 1.986785 1_655
O28 Sr9 2.570812 1_555
O28 Sr0 2.645940 1_556
O28 Sr2 2.653389 1_555
O28 Sr15 2.740348 1_546
O29 W3 1.986785 1_565
O29 Sr8 2.570812 1_555
O29 Sr1 2.645940 1_555
O29 Sr3 2.653389 1_555
O29 Sr14 2.740348 1_455
O30 W2 2.015245 1_555
O30 Sr6 2.514392 1_555
O30 Sr13 2.561488 1_555
O30 Sr5 2.629414 1_555
O30 Sr2 2.665060 1_455
O31 W3 2.015245 1_555
O31 Sr7 2.514392 1_555
O31 Sr12 2.561488 1_555
O31 Sr4 2.629414 1_555
O31 Sr3 2.665060 1_545
O32 W4 1.962714 1_555
O32 Sr3 2.681869 1_655
O32 Sr13 2.688612 1_664
O32 Sr11 2.778648 1_655
O32 Sr15 2.879044 1_555
O32 Sr16 2.914685 1_555
O33 W5 1.962714 1_555
O33 Sr2 2.681869 1_565
O33 Sr12 2.688612 1_665
O33 Sr10 2.778648 1_565
O33 Sr14 2.879044 1_555
O33 Sr17 2.914685 1_555
O34 W2 1.969437 1_554
O34 Sr3 2.489247 1_545
O34 Sr13 2.520408 1_554
O34 Sr15 2.724362 1_445
O35 W3 1.969437 1_555
O35 Sr2 2.489247 1_455
O35 Sr12 2.520408 1_555
O35 Sr14 2.724362 1_445
