# generated using pymatgen
data_Mg6TiW
_symmetry_space_group_name_H-M   'P 1'
_cell_length_a   4.96993500
_cell_length_b   5.73731200
_cell_length_c   11.04236100
_cell_angle_alpha   90.00000000
_cell_angle_beta   90.00000000
_cell_angle_gamma   90.00000000
_symmetry_Int_Tables_number   1
_chemical_formula_structural   Mg6TiW
_chemical_formula_sum   'Mg12 Ti2 W2'
_cell_volume   314.86262928
_cell_formula_units_Z   2
loop_
 _symmetry_equiv_pos_site_id
 _symmetry_equiv_pos_as_xyz
  1  'x, y, z'
loop_
 _atom_site_type_symbol
 _atom_site_label
 _atom_site_symmetry_multiplicity
 _atom_site_fract_x
 _atom_site_fract_y
 _atom_site_fract_z
 _atom_site_occupancy
  Mg  Mg0  1  0.50000000  0.24950800  0.42365700  1
  Mg  Mg1  1  0.50000000  0.75049200  0.42365700  1
  Mg  Mg2  1  0.00000000  0.74308600  0.08587500  1
  Mg  Mg3  1  0.00000000  0.25691400  0.08587500  1
  Mg  Mg4  1  0.00000000  0.00000000  0.32036000  1
  Mg  Mg5  1  0.00000000  0.50000000  0.31582900  1
  Mg  Mg6  1  0.50000000  0.74950800  0.92365700  1
  Mg  Mg7  1  0.50000000  0.25049200  0.92365700  1
  Mg  Mg8  1  0.00000000  0.24308600  0.58587500  1
  Mg  Mg9  1  0.00000000  0.75691400  0.58587500  1
  Mg  Mg10  1  0.00000000  0.50000000  0.82036000  1
  Mg  Mg11  1  0.00000000  0.00000000  0.81582900  1
  Ti  Ti0  1  0.50000000  0.00000000  0.17101500  1
  Ti  Ti1  1  0.50000000  0.50000000  0.67101500  1
  W  W0  1  0.50000000  0.50000000  0.17372600  1
  W  W1  1  0.50000000  0.00000000  0.67372600  1
loop_
_geom_bond_atom_site_label_1
_geom_bond_atom_site_label_2
_geom_bond_distance
_geom_bond_site_symmetry_2
Mg0 Mg1 2.863010 1_545
Mg0 Mg1 2.874302 1_555
Mg0 Mg8 3.063506 1_655
Mg0 Mg8 3.063506 1_555
Mg0 Mg4 3.086314 1_555
Mg0 Mg4 3.086314 1_655
Mg0 Ti1 3.086428 1_555
Mg0 Mg5 3.107760 1_555
Mg0 Mg5 3.107760 1_655
Mg0 W1 3.110349 1_555
Mg0 W0 3.111600 1_555
Mg0 Ti0 3.135601 1_555
Mg1 Mg9 3.063506 1_655
Mg1 Mg9 3.063506 1_555
Mg1 Mg4 3.086314 1_665
Mg1 Mg4 3.086314 1_565
Mg1 Ti1 3.086428 1_555
Mg1 Mg5 3.107760 1_555
Mg1 Mg5 3.107760 1_655
Mg1 W1 3.110349 1_565
Mg1 W0 3.111600 1_555
Mg1 Ti0 3.135601 1_565
Mg2 Mg3 2.789320 1_555
Mg2 Mg5 2.897032 1_555
Mg2 Mg3 2.947992 1_565
Mg2 Mg4 2.979425 1_565
Mg2 W0 3.010183 1_555
Mg2 W0 3.010183 1_455
Mg2 Ti0 3.038355 1_565
Mg2 Ti0 3.038355 1_465
Mg2 Mg6 3.063506 1_554
Mg2 Mg6 3.063506 1_454
Mg3 Mg5 2.897032 1_555
Mg3 Mg4 2.979425 1_555
Mg3 W0 3.010183 1_455
Mg3 W0 3.010183 1_555
Mg3 Ti0 3.038355 1_555
Mg3 Ti0 3.038355 1_455
Mg3 Mg7 3.063506 1_554
Mg3 Mg7 3.063506 1_454
Mg4 Mg5 2.869092 1_545
Mg4 Mg5 2.869092 1_555
Mg4 Ti0 2.982392 1_555
Mg4 Ti0 2.982392 1_455
Mg4 Mg9 3.246720 1_545
Mg4 Mg8 3.246720 1_555
Mg5 W0 2.938929 1_455
Mg5 W0 2.938929 1_555
Mg5 Mg8 3.326359 1_555
Mg5 Mg9 3.326359 1_555
Mg6 Mg7 2.863010 1_555
Mg6 Mg7 2.874302 1_565
Mg6 Ti0 3.086428 1_566
Mg6 W0 3.110349 1_556
Mg6 W1 3.111600 1_565
Mg6 Ti1 3.135601 1_555
Mg7 Ti0 3.086428 1_556
Mg7 W0 3.110349 1_556
Mg7 W1 3.111600 1_555
Mg7 Ti1 3.135601 1_555
Mg8 Mg9 2.789320 1_545
Mg8 Mg9 2.947992 1_555
Mg8 W1 3.010183 1_555
Mg8 W1 3.010183 1_455
Mg8 Ti1 3.038355 1_455
Mg8 Ti1 3.038355 1_555
Mg9 W1 3.010183 1_565
Mg9 W1 3.010183 1_465
Mg9 Ti1 3.038355 1_455
Mg9 Ti1 3.038355 1_555
Mg10 Mg11 2.869092 1_555
Mg10 Mg11 2.869092 1_565
Mg10 Mg9 2.979425 1_555
Mg10 Mg8 2.979425 1_555
Mg10 Ti1 2.982392 1_455
Mg10 Ti1 2.982392 1_555
Mg10 Mg6 3.086314 1_455
Mg10 Mg6 3.086314 1_555
Mg10 Mg7 3.086314 1_455
Mg10 Mg7 3.086314 1_555
Mg10 Mg2 3.246720 1_556
Mg10 Mg3 3.246720 1_556
Mg11 Mg8 2.897032 1_555
Mg11 Mg9 2.897032 1_545
Mg11 W1 2.938929 1_555
Mg11 W1 2.938929 1_455
Mg11 Mg7 3.107760 1_555
Mg11 Mg6 3.107760 1_445
Mg11 Mg7 3.107760 1_455
Mg11 Mg6 3.107760 1_545
Mg11 Mg3 3.326359 1_556
Mg11 Mg2 3.326359 1_546
Ti0 W0 2.868812 1_545
Ti0 W0 2.868812 1_555
Ti1 W1 2.868812 1_565
Ti1 W1 2.868812 1_555
