# generated using pymatgen
data_Mg4Si3
_symmetry_space_group_name_H-M   'P 1'
_cell_length_a   5.59121000
_cell_length_b   6.22787781
_cell_length_c   8.26959607
_cell_angle_alpha   74.48081747
_cell_angle_beta   79.61037183
_cell_angle_gamma   85.89584340
_symmetry_Int_Tables_number   1
_chemical_formula_structural   Mg4Si3
_chemical_formula_sum   'Mg8 Si6'
_cell_volume   272.82817172
_cell_formula_units_Z   2
loop_
 _symmetry_equiv_pos_site_id
 _symmetry_equiv_pos_as_xyz
  1  'x, y, z'
loop_
 _atom_site_type_symbol
 _atom_site_label
 _atom_site_symmetry_multiplicity
 _atom_site_fract_x
 _atom_site_fract_y
 _atom_site_fract_z
 _atom_site_occupancy
  Mg  Mg0  1  0.67163000  0.26293300  0.22055000  1
  Mg  Mg1  1  0.38437500  0.12604800  0.96175000  1
  Mg  Mg2  1  0.86242400  0.40425400  0.51087400  1
  Mg  Mg3  1  0.32643000  0.44252600  0.59985700  1
  Mg  Mg4  1  0.60785300  0.64511600  0.84241900  1
  Mg  Mg5  1  0.10712300  0.93863400  0.37107000  1
  Mg  Mg6  1  0.09618800  0.94080000  0.71617800  1
  Mg  Mg7  1  0.90927200  0.80786700  0.09960200  1
  Si  Si0  1  0.41816300  0.71094800  0.17701400  1
  Si  Si1  1  0.17753000  0.38326500  0.21290900  1
  Si  Si2  1  0.87123100  0.24305000  0.87284400  1
  Si  Si3  1  0.61507900  0.78634300  0.40544700  1
  Si  Si4  1  0.11344600  0.52200000  0.91565700  1
  Si  Si5  1  0.58918700  0.03634600  0.59372900  1
loop_
_geom_bond_atom_site_label_1
_geom_bond_atom_site_label_2
_geom_bond_distance
_geom_bond_site_symmetry_2
Mg0 Si1 2.817612 1_555
Mg0 Si2 2.922671 1_554
Mg0 Si3 2.962963 1_545
Mg0 Si1 2.963135 1_655
Mg0 Si5 2.996184 1_555
Mg0 Si0 3.000605 1_555
Mg1 Si0 2.734333 1_546
Mg1 Si4 2.773341 1_555
Mg1 Si2 2.785104 1_555
Mg1 Si1 2.977648 1_556
Mg1 Si2 3.078654 1_455
Mg1 Si5 3.232161 1_555
Mg2 Si3 2.681200 1_555
Mg2 Si5 2.708653 1_555
Mg2 Si1 2.786798 1_655
Mg2 Si2 2.899727 1_555
Mg3 Si3 2.736962 1_555
Mg3 Si4 2.822914 1_555
Mg3 Si5 2.840734 1_555
Mg3 Si2 3.161758 1_455
Mg4 Si5 2.745291 1_565
Mg4 Si2 2.787589 1_555
Mg4 Si4 2.836774 1_555
Mg4 Si0 2.904377 1_556
Mg4 Si4 3.000786 1_655
Mg5 Si0 2.732863 1_555
Mg5 Si1 2.750605 1_565
Mg5 Si3 2.914818 1_455
Mg5 Si3 2.967799 1_555
Mg5 Si5 3.251308 1_465
Mg6 Si2 2.679966 1_465
Mg6 Si4 2.693029 1_555
Mg6 Si5 2.807692 1_565
Mg6 Si5 3.144312 1_465
Mg7 Si4 2.705307 1_654
Mg7 Si3 2.733161 1_555
Mg7 Si0 2.776784 1_555
Mg7 Si2 2.872081 1_564
Mg7 Si1 2.955264 1_655
Mg7 Si0 3.012364 1_655
Si0 Si1 2.447007 1_555
Si0 Si3 2.509980 1_555
Si1 Si4 2.460541 1_554
Si2 Si4 2.411711 1_655
Si3 Si5 2.460321 1_565
