# generated using pymatgen
data_Nb3Pb2O7F5
_symmetry_space_group_name_H-M   'P 1'
_cell_length_a   17.00995956
_cell_length_b   17.00995956
_cell_length_c   17.00995956
_cell_angle_alpha   166.88495912
_cell_angle_beta   166.62531078
_cell_angle_gamma   18.77414383
_symmetry_Int_Tables_number   1
_chemical_formula_structural   Nb3Pb2O7F5
_chemical_formula_sum   'Nb3 Pb2 O7 F5'
_cell_volume   258.30211478
_cell_formula_units_Z   1
loop_
 _symmetry_equiv_pos_site_id
 _symmetry_equiv_pos_as_xyz
  1  'x, y, z'
loop_
 _atom_site_type_symbol
 _atom_site_label
 _atom_site_symmetry_multiplicity
 _atom_site_fract_x
 _atom_site_fract_y
 _atom_site_fract_z
 _atom_site_occupancy
  Nb  Nb0  1  0.61962200  0.61962200  0.00000000  1
  Nb  Nb1  1  0.38416100  0.38416100  0.00000000  1
  Nb  Nb2  1  0.50437700  0.50437700  0.00000000  1
  Pb  Pb0  1  0.79009800  0.79009800  0.00000000  1
  Pb  Pb1  1  0.19511800  0.19511800  0.00000000  1
  O  O0  1  0.56429300  0.56429300  0.00000000  1
  O  O1  1  0.43694600  0.43694600  0.00000000  1
  O  O2  1  0.99738200  0.49738200  0.50000000  1
  O  O3  1  0.49625400  0.99625400  0.50000000  1
  O  O4  1  0.37378200  0.87378200  0.50000000  1
  O  O5  1  0.13142400  0.63142400  0.50000000  1
  O  O6  1  0.63222800  0.13222800  0.50000000  1
  F  F0  1  0.68795600  0.68795600  0.00000000  1
  F  F1  1  0.31684300  0.31684300  0.00000000  1
  F  F2  1  0.74865800  0.24865800  0.50000000  1
  F  F3  1  0.24873300  0.74873300  0.50000000  1
  F  F4  1  0.87212400  0.37212400  0.50000000  1
loop_
_geom_bond_atom_site_label_1
_geom_bond_atom_site_label_2
_geom_bond_distance
_geom_bond_site_symmetry_2
Nb0 O0 1.857082 1_555
Nb0 O6 1.988094 1_565
Nb0 O6 1.988094 1_554
Nb0 O5 2.020053 1_655
Nb0 O5 2.020053 1_554
Nb1 O1 1.771695 1_555
Nb1 O4 1.973538 1_544
Nb1 O4 1.973538 1_555
Nb2 O3 1.961588 1_544
Nb2 O3 1.961588 1_555
Nb2 O2 1.994699 1_555
Nb2 O2 1.994699 1_454
Nb2 O0 2.011042 1_555
Nb2 O1 2.263278 1_555
F0 Nb0 2.293587 1_555
F1 Nb1 2.259485 1_555
F2 Pb0 2.389166 1_556
F2 Pb0 2.389166 1_545
F2 Pb1 2.674516 1_555
F2 Pb1 2.674516 1_656
F3 Pb0 2.418951 1_455
F3 Pb0 2.418951 1_556
F3 Pb1 2.647996 1_566
F3 Pb1 2.647996 1_555
F4 Nb1 2.021615 1_555
F4 Nb1 2.021615 1_656
