# generated using pymatgen
data_Er2MgSe4
_symmetry_space_group_name_H-M   'P 1'
_cell_length_a   7.41676100
_cell_length_b   8.59418448
_cell_length_c   13.83045713
_cell_angle_alpha   99.06601013
_cell_angle_beta   95.34277800
_cell_angle_gamma   89.98083959
_symmetry_Int_Tables_number   1
_chemical_formula_structural   Er2MgSe4
_chemical_formula_sum   'Er8 Mg4 Se16'
_cell_volume   866.67999396
_cell_formula_units_Z   4
loop_
 _symmetry_equiv_pos_site_id
 _symmetry_equiv_pos_as_xyz
  1  'x, y, z'
loop_
 _atom_site_type_symbol
 _atom_site_label
 _atom_site_symmetry_multiplicity
 _atom_site_fract_x
 _atom_site_fract_y
 _atom_site_fract_z
 _atom_site_occupancy
  Er  Er0  1  0.86402000  0.30023800  0.70004700  1
  Er  Er1  1  0.13598000  0.69976200  0.29995300  1
  Er  Er2  1  0.75816500  0.12585300  0.00047800  1
  Er  Er3  1  0.24183500  0.87414700  0.99952200  1
  Er  Er4  1  0.63165600  0.44495600  0.29883100  1
  Er  Er5  1  0.36834400  0.55504400  0.70116900  1
  Er  Er6  1  0.63195200  0.95478000  0.30159700  1
  Er  Er7  1  0.36804800  0.04522000  0.69840300  1
  Mg  Mg0  1  0.86739100  0.80040600  0.70229200  1
  Mg  Mg1  1  0.13260900  0.19959400  0.29770800  1
  Mg  Mg2  1  0.75107400  0.62330200  0.99698500  1
  Mg  Mg3  1  0.24892600  0.37669800  0.00301500  1
  Se  Se0  1  0.90393800  0.35350500  0.89680100  1
  Se  Se1  1  0.09606200  0.64649500  0.10319900  1
  Se  Se2  1  0.89401900  0.84485800  0.89146400  1
  Se  Se3  1  0.10598100  0.15514200  0.10853600  1
  Se  Se4  1  0.82476600  0.21907300  0.37480800  1
  Se  Se5  1  0.17523400  0.78092700  0.62519200  1
  Se  Se6  1  0.81103800  0.71900900  0.37746700  1
  Se  Se7  1  0.18896200  0.28099100  0.62253300  1
  Se  Se8  1  0.69372600  0.02289300  0.62564200  1
  Se  Se9  1  0.30627400  0.97710700  0.37435800  1
  Se  Se10  1  0.69266600  0.53988200  0.62642100  1
  Se  Se11  1  0.30733400  0.46011800  0.37357900  1
  Se  Se12  1  0.60369000  0.89743600  0.10414300  1
  Se  Se13  1  0.39631000  0.10256400  0.89585700  1
  Se  Se14  1  0.59725000  0.40549200  0.10212600  1
  Se  Se15  1  0.40275000  0.59450800  0.89787400  1
loop_
_geom_bond_atom_site_label_1
_geom_bond_atom_site_label_2
_geom_bond_distance
_geom_bond_site_symmetry_2
Er0 Se0 2.675745 1_555
Er0 Se10 2.704062 1_555
Er0 Se8 2.706013 1_555
Er0 Se7 2.722103 1_655
Er1 Se1 2.675745 1_555
Er1 Se11 2.704062 1_555
Er1 Se9 2.706013 1_555
Er1 Se6 2.722103 1_455
Er2 Se3 2.848767 1_655
Er2 Se0 2.868282 1_554
Er2 Se2 2.873002 1_544
Er2 Se12 2.901071 1_545
Er2 Se14 2.902109 1_555
Er2 Se13 2.919313 1_554
Er3 Se2 2.848767 1_455
Er3 Se1 2.868282 1_556
Er3 Se3 2.873002 1_566
Er3 Se13 2.901071 1_565
Er3 Se15 2.902109 1_555
Er3 Se12 2.919313 1_556
Er4 Se14 2.676073 1_555
Er4 Se4 2.699039 1_555
Er4 Se11 2.700406 1_555
Er4 Se6 2.724979 1_555
Er5 Se15 2.676073 1_555
Er5 Se5 2.699039 1_555
Er5 Se10 2.700406 1_555
Er5 Se7 2.724979 1_555
Er6 Se12 2.685860 1_555
Er6 Se4 2.690205 1_565
Er6 Se9 2.697318 1_555
Er6 Se6 2.716563 1_555
Er7 Se13 2.685860 1_555
Er7 Se5 2.690205 1_545
Er7 Se8 2.697318 1_555
Er7 Se7 2.716563 1_555
Mg0 Se2 2.572740 1_555
Mg0 Se5 2.602875 1_655
Mg0 Se10 2.608027 1_555
Mg0 Se8 2.611862 1_565
Mg1 Se3 2.572740 1_555
Mg1 Se4 2.602875 1_455
Mg1 Se11 2.608027 1_555
Mg1 Se9 2.611862 1_545
Mg2 Se15 2.801497 1_555
Mg2 Se0 2.803547 1_555
Mg2 Se1 2.820046 1_656
Mg2 Se2 2.836310 1_555
Mg2 Se14 2.844005 1_556
Mg2 Se12 2.853330 1_556
Mg3 Se14 2.801497 1_555
Mg3 Se1 2.803547 1_555
Mg3 Se0 2.820046 1_454
Mg3 Se3 2.836310 1_555
Mg3 Se15 2.844005 1_554
Mg3 Se13 2.853330 1_554
