# generated using pymatgen
data_Ti4Pd
_symmetry_space_group_name_H-M   'P 1'
_cell_length_a   19.28671210
_cell_length_b   19.28671210
_cell_length_c   19.28671210
_cell_angle_alpha   162.16779301
_cell_angle_beta   162.16779301
_cell_angle_gamma   25.32247937
_symmetry_Int_Tables_number   1
_chemical_formula_structural   Ti4Pd
_chemical_formula_sum   'Ti32 Pd8'
_cell_volume   672.57357509
_cell_formula_units_Z   8
loop_
 _symmetry_equiv_pos_site_id
 _symmetry_equiv_pos_as_xyz
  1  'x, y, z'
loop_
 _atom_site_type_symbol
 _atom_site_label
 _atom_site_symmetry_multiplicity
 _atom_site_fract_x
 _atom_site_fract_y
 _atom_site_fract_z
 _atom_site_occupancy
  Ti  Ti0_0  1  0.20226400  0.20226400  0.00000000  1
  Ti  Ti0_1  1  0.20226400  0.20226400  0.50000000  1
  Ti  Ti0_2  1  0.20226400  0.70226400  0.00000000  1
  Ti  Ti0_3  1  0.20226400  0.70226400  0.50000000  1
  Ti  Ti0_4  1  0.70226400  0.20226400  0.00000000  1
  Ti  Ti0_5  1  0.70226400  0.20226400  0.50000000  1
  Ti  Ti0_6  1  0.70226400  0.70226400  0.00000000  1
  Ti  Ti0_7  1  0.70226400  0.70226400  0.50000000  1
  Ti  Ti1_0  1  0.40240400  0.40240400  0.00000000  1
  Ti  Ti1_1  1  0.40240400  0.40240400  0.50000000  1
  Ti  Ti1_2  1  0.40240400  0.90240400  0.00000000  1
  Ti  Ti1_3  1  0.40240400  0.90240400  0.50000000  1
  Ti  Ti1_4  1  0.90240400  0.40240400  0.00000000  1
  Ti  Ti1_5  1  0.90240400  0.40240400  0.50000000  1
  Ti  Ti1_6  1  0.90240400  0.90240400  0.00000000  1
  Ti  Ti1_7  1  0.90240400  0.90240400  0.50000000  1
  Ti  Ti2_0  1  0.09759600  0.09759600  0.00000000  1
  Ti  Ti2_1  1  0.09759600  0.09759600  0.50000000  1
  Ti  Ti2_2  1  0.09759600  0.59759600  0.00000000  1
  Ti  Ti2_3  1  0.09759600  0.59759600  0.50000000  1
  Ti  Ti2_4  1  0.59759600  0.09759600  0.00000000  1
  Ti  Ti2_5  1  0.59759600  0.09759600  0.50000000  1
  Ti  Ti2_6  1  0.59759600  0.59759600  0.00000000  1
  Ti  Ti2_7  1  0.59759600  0.59759600  0.50000000  1
  Ti  Ti3_0  1  0.29773600  0.29773600  0.00000000  1
  Ti  Ti3_1  1  0.29773600  0.29773600  0.50000000  1
  Ti  Ti3_2  1  0.29773600  0.79773600  0.00000000  1
  Ti  Ti3_3  1  0.29773600  0.79773600  0.50000000  1
  Ti  Ti3_4  1  0.79773600  0.29773600  0.00000000  1
  Ti  Ti3_5  1  0.79773600  0.29773600  0.50000000  1
  Ti  Ti3_6  1  0.79773600  0.79773600  0.00000000  1
  Ti  Ti3_7  1  0.79773600  0.79773600  0.50000000  1
  Pd  Pd0_0  1  0.00000000  0.00000000  0.00000000  1
  Pd  Pd0_1  1  0.00000000  0.00000000  0.50000000  1
  Pd  Pd0_2  1  0.00000000  0.50000000  0.00000000  1
  Pd  Pd0_3  1  0.00000000  0.50000000  0.50000000  1
  Pd  Pd0_4  1  0.50000000  0.00000000  0.00000000  1
  Pd  Pd0_5  1  0.50000000  0.00000000  0.50000000  1
  Pd  Pd0_6  1  0.50000000  0.50000000  0.00000000  1
  Pd  Pd0_7  1  0.50000000  0.50000000  0.50000000  1
loop_
_geom_bond_atom_site_label_1
_geom_bond_atom_site_label_2
_geom_bond_distance
_geom_bond_site_symmetry_2
Ti0_0 Ti1_1 2.826473 1_555
Ti0_0 Ti1_4 2.826473 1_455
Ti0_0 Ti1_2 2.826473 1_545
Ti0_0 Ti1_7 2.826473 1_444
Ti0_0 Ti0_5 2.989210 1_555
Ti0_0 Ti0_3 2.989210 1_544
Ti0_0 Ti0_3 2.989210 1_555
Ti0_0 Ti0_5 2.989210 1_454
Ti0_1 Ti1_0 2.826473 1_556
Ti0_1 Ti1_5 2.826473 1_455
Ti0_1 Ti1_3 2.826473 1_545
Ti0_1 Ti1_6 2.826473 1_445
Ti0_1 Ti0_2 2.989210 1_556
Ti0_1 Ti0_2 2.989210 1_545
Ti0_1 Ti0_4 2.989210 1_455
Ti0_1 Ti0_4 2.989210 1_556
Ti0_2 Ti1_5 2.826473 1_454
Ti0_2 Ti1_3 2.826473 1_555
Ti0_2 Ti1_0 2.826473 1_555
Ti0_2 Ti1_6 2.826473 1_455
Ti0_2 Ti0_7 2.989210 1_555
Ti0_2 Ti0_7 2.989210 1_454
Ti0_3 Ti1_1 2.826473 1_555
Ti0_3 Ti1_4 2.826473 1_455
Ti0_3 Ti1_2 2.826473 1_556
Ti0_3 Ti1_7 2.826473 1_455
Ti0_3 Ti0_6 2.989210 1_455
Ti0_3 Ti0_6 2.989210 1_556
Ti0_4 Ti1_5 2.826473 1_555
Ti0_4 Ti1_0 2.826473 1_555
Ti0_4 Ti1_3 2.826473 1_544
Ti0_4 Ti1_6 2.826473 1_545
Ti0_4 Ti0_7 2.989210 1_555
Ti0_4 Ti0_7 2.989210 1_544
Ti0_5 Ti1_1 2.826473 1_555
Ti0_5 Ti1_4 2.826473 1_556
Ti0_5 Ti1_2 2.826473 1_545
Ti0_5 Ti1_7 2.826473 1_545
Ti0_5 Ti0_6 2.989210 1_545
Ti0_5 Ti0_6 2.989210 1_556
Ti0_6 Ti1_1 2.826473 1_554
Ti0_6 Ti1_4 2.826473 1_555
Ti0_6 Ti1_2 2.826473 1_555
Ti0_6 Ti1_7 2.826473 1_555
Ti0_7 Ti1_5 2.826473 1_555
Ti0_7 Ti1_0 2.826473 1_555
Ti0_7 Ti1_3 2.826473 1_555
Ti0_7 Ti1_6 2.826473 1_556
Ti1_0 Ti2_7 2.953390 1_555
Ti1_0 Ti2_1 2.953390 1_554
Ti1_0 Ti2_4 2.953390 1_555
Ti1_0 Ti2_2 2.953390 1_555
Ti1_0 Ti1_3 2.989210 1_555
Ti1_0 Ti1_3 2.989210 1_544
Ti1_0 Ti1_5 2.989210 1_555
Ti1_0 Ti1_5 2.989210 1_454
Ti1_1 Ti2_5 2.953390 1_555
Ti1_1 Ti2_0 2.953390 1_555
Ti1_1 Ti2_6 2.953390 1_556
Ti1_1 Ti2_3 2.953390 1_555
Ti1_1 Ti1_4 2.989210 1_455
Ti1_1 Ti1_4 2.989210 1_556
Ti1_1 Ti1_2 2.989210 1_556
Ti1_1 Ti1_2 2.989210 1_545
Ti1_2 Ti2_5 2.953390 1_565
Ti1_2 Ti2_0 2.953390 1_565
Ti1_2 Ti2_6 2.953390 1_555
Ti1_2 Ti2_3 2.953390 1_554
Ti1_2 Ti1_7 2.989210 1_555
Ti1_2 Ti1_7 2.989210 1_454
Ti1_3 Ti2_1 2.953390 1_565
Ti1_3 Ti2_7 2.953390 1_555
Ti1_3 Ti2_4 2.953390 1_566
Ti1_3 Ti2_2 2.953390 1_555
Ti1_3 Ti1_6 2.989210 1_556
Ti1_3 Ti1_6 2.989210 1_455
Ti1_4 Ti2_0 2.953390 1_655
Ti1_4 Ti2_3 2.953390 1_655
Ti1_4 Ti2_5 2.953390 1_554
Ti1_4 Ti2_6 2.953390 1_555
Ti1_4 Ti1_7 2.989210 1_555
Ti1_4 Ti1_7 2.989210 1_544
Ti1_5 Ti2_1 2.953390 1_655
Ti1_5 Ti2_7 2.953390 1_555
Ti1_5 Ti2_4 2.953390 1_555
Ti1_5 Ti2_2 2.953390 1_656
Ti1_5 Ti1_6 2.989210 1_545
Ti1_5 Ti1_6 2.989210 1_556
Ti1_6 Ti2_1 2.953390 1_665
Ti1_6 Ti2_4 2.953390 1_565
Ti1_6 Ti2_2 2.953390 1_655
Ti1_6 Ti2_7 2.953390 1_554
Ti1_7 Ti2_0 2.953390 1_666
Ti1_7 Ti2_5 2.953390 1_565
Ti1_7 Ti2_3 2.953390 1_655
Ti1_7 Ti2_6 2.953390 1_555
Ti2_0 Ti3_7 2.826473 1_444
Ti2_0 Ti3_1 2.826473 1_555
Ti2_0 Ti3_4 2.826473 1_455
Ti2_0 Ti3_2 2.826473 1_545
Ti2_0 Ti2_3 2.989210 1_555
Ti2_0 Ti2_5 2.989210 1_555
Ti2_0 Ti2_3 2.989210 1_544
Ti2_0 Ti2_5 2.989210 1_454
Ti2_1 Ti3_0 2.826473 1_556
Ti2_1 Ti3_6 2.826473 1_445
Ti2_1 Ti3_3 2.826473 1_545
Ti2_1 Ti3_5 2.826473 1_455
Ti2_1 Ti2_4 2.989210 1_556
Ti2_1 Ti2_2 2.989210 1_556
Ti2_1 Ti2_2 2.989210 1_545
Ti2_1 Ti2_4 2.989210 1_455
Ti2_2 Ti3_6 2.826473 1_455
Ti2_2 Ti3_3 2.826473 1_555
Ti2_2 Ti3_0 2.826473 1_555
Ti2_2 Ti3_5 2.826473 1_454
Ti2_2 Ti2_7 2.989210 1_555
Ti2_2 Ti2_7 2.989210 1_454
Ti2_3 Ti3_4 2.826473 1_455
Ti2_3 Ti3_7 2.826473 1_455
Ti2_3 Ti3_1 2.826473 1_555
Ti2_3 Ti3_2 2.826473 1_556
Ti2_3 Ti2_6 2.989210 1_556
Ti2_3 Ti2_6 2.989210 1_455
Ti2_4 Ti3_6 2.826473 1_545
Ti2_4 Ti3_5 2.826473 1_555
Ti2_4 Ti3_0 2.826473 1_555
Ti2_4 Ti3_3 2.826473 1_544
Ti2_4 Ti2_7 2.989210 1_555
Ti2_4 Ti2_7 2.989210 1_544
Ti2_5 Ti3_4 2.826473 1_556
Ti2_5 Ti3_7 2.826473 1_545
Ti2_5 Ti3_1 2.826473 1_555
Ti2_5 Ti3_2 2.826473 1_545
Ti2_5 Ti2_6 2.989210 1_545
Ti2_5 Ti2_6 2.989210 1_556
Ti2_6 Ti3_7 2.826473 1_555
Ti2_6 Ti3_4 2.826473 1_555
Ti2_6 Ti3_2 2.826473 1_555
Ti2_6 Ti3_1 2.826473 1_554
Ti2_7 Ti3_6 2.826473 1_556
Ti2_7 Ti3_5 2.826473 1_555
Ti2_7 Ti3_3 2.826473 1_555
Ti2_7 Ti3_0 2.826473 1_555
Ti3_0 Ti3_5 2.989210 1_555
Ti3_0 Ti3_3 2.989210 1_544
Ti3_0 Ti3_3 2.989210 1_555
Ti3_0 Ti3_5 2.989210 1_454
Ti3_1 Ti3_2 2.989210 1_545
Ti3_1 Ti3_4 2.989210 1_455
Ti3_1 Ti3_4 2.989210 1_556
Ti3_1 Ti3_2 2.989210 1_556
Ti3_2 Ti3_7 2.989210 1_555
Ti3_2 Ti3_7 2.989210 1_454
Ti3_3 Ti3_6 2.989210 1_455
Ti3_3 Ti3_6 2.989210 1_556
Ti3_4 Ti3_7 2.989210 1_544
Ti3_4 Ti3_7 2.989210 1_555
Ti3_5 Ti3_6 2.989210 1_556
Ti3_5 Ti3_6 2.989210 1_545
Pd0_0 Ti0_1 2.774047 1_555
Pd0_0 Ti0_4 2.774047 1_455
Pd0_0 Ti3_2 2.774047 1_545
Pd0_0 Ti0_2 2.774047 1_545
Pd0_0 Ti3_4 2.774047 1_455
Pd0_0 Ti3_7 2.774047 1_444
Pd0_0 Ti3_1 2.774047 1_555
Pd0_0 Ti0_7 2.774047 1_444
Pd0_0 Pd0_3 2.989210 1_555
Pd0_0 Pd0_5 2.989210 1_555
Pd0_0 Pd0_3 2.989210 1_544
Pd0_0 Pd0_5 2.989210 1_454
Pd0_1 Ti3_3 2.774047 1_545
Pd0_1 Ti3_6 2.774047 1_445
Pd0_1 Ti3_5 2.774047 1_455
Pd0_1 Ti3_0 2.774047 1_556
Pd0_1 Ti0_0 2.774047 1_556
Pd0_1 Ti0_3 2.774047 1_545
Pd0_1 Ti0_5 2.774047 1_455
Pd0_1 Ti0_6 2.774047 1_445
Pd0_1 Pd0_4 2.989210 1_556
Pd0_1 Pd0_4 2.989210 1_455
Pd0_1 Pd0_2 2.989210 1_556
Pd0_1 Pd0_2 2.989210 1_545
Pd0_2 Ti0_3 2.774047 1_555
Pd0_2 Ti0_0 2.774047 1_555
Pd0_2 Ti3_5 2.774047 1_454
Pd0_2 Ti3_3 2.774047 1_555
Pd0_2 Ti3_0 2.774047 1_555
Pd0_2 Ti0_5 2.774047 1_454
Pd0_2 Ti0_6 2.774047 1_455
Pd0_2 Ti3_6 2.774047 1_455
Pd0_2 Pd0_7 2.989210 1_555
Pd0_2 Pd0_7 2.989210 1_454
Pd0_3 Ti0_1 2.774047 1_555
Pd0_3 Ti0_2 2.774047 1_556
Pd0_3 Ti3_2 2.774047 1_556
Pd0_3 Ti0_4 2.774047 1_455
Pd0_3 Ti3_4 2.774047 1_455
Pd0_3 Ti0_7 2.774047 1_455
Pd0_3 Ti3_1 2.774047 1_555
Pd0_3 Ti3_7 2.774047 1_455
Pd0_3 Pd0_6 2.989210 1_556
Pd0_3 Pd0_6 2.989210 1_455
Pd0_4 Ti3_3 2.774047 1_544
Pd0_4 Ti0_5 2.774047 1_555
Pd0_4 Ti3_5 2.774047 1_555
Pd0_4 Ti3_0 2.774047 1_555
Pd0_4 Ti0_3 2.774047 1_544
Pd0_4 Ti0_0 2.774047 1_555
Pd0_4 Ti3_6 2.774047 1_545
Pd0_4 Ti0_6 2.774047 1_545
Pd0_4 Pd0_7 2.989210 1_555
Pd0_4 Pd0_7 2.989210 1_544
Pd0_5 Ti0_4 2.774047 1_556
Pd0_5 Ti3_2 2.774047 1_545
Pd0_5 Ti3_1 2.774047 1_555
Pd0_5 Ti3_7 2.774047 1_545
Pd0_5 Ti0_1 2.774047 1_555
Pd0_5 Ti0_2 2.774047 1_545
Pd0_5 Ti0_7 2.774047 1_545
Pd0_5 Ti3_4 2.774047 1_556
Pd0_5 Pd0_6 2.989210 1_556
Pd0_5 Pd0_6 2.989210 1_545
Pd0_6 Ti0_4 2.774047 1_555
Pd0_6 Ti0_7 2.774047 1_555
Pd0_6 Ti0_2 2.774047 1_555
Pd0_6 Ti0_1 2.774047 1_554
Pd0_6 Ti3_1 2.774047 1_554
Pd0_6 Ti3_2 2.774047 1_555
Pd0_6 Ti3_7 2.774047 1_555
Pd0_6 Ti3_4 2.774047 1_555
Pd0_7 Ti3_0 2.774047 1_555
Pd0_7 Ti0_5 2.774047 1_555
Pd0_7 Ti3_5 2.774047 1_555
Pd0_7 Ti3_3 2.774047 1_555
Pd0_7 Ti0_6 2.774047 1_556
Pd0_7 Ti0_3 2.774047 1_555
Pd0_7 Ti0_0 2.774047 1_555
Pd0_7 Ti3_6 2.774047 1_556
