# generated using pymatgen
data_Rb4Ge3B6O17
_symmetry_space_group_name_H-M   'P 1'
_cell_length_a   6.98883375
_cell_length_b   6.98883375
_cell_length_c   20.69349276
_cell_angle_alpha   77.88987403
_cell_angle_beta   77.88987403
_cell_angle_gamma   60.81764495
_symmetry_Int_Tables_number   1
_chemical_formula_structural   Rb4Ge3B6O17
_chemical_formula_sum   'Rb8 Ge6 B12 O34'
_cell_volume   855.94993257
_cell_formula_units_Z   2
loop_
 _symmetry_equiv_pos_site_id
 _symmetry_equiv_pos_as_xyz
  1  'x, y, z'
loop_
 _atom_site_type_symbol
 _atom_site_label
 _atom_site_symmetry_multiplicity
 _atom_site_fract_x
 _atom_site_fract_y
 _atom_site_fract_z
 _atom_site_occupancy
  Rb  Rb0  1  0.65214300  0.31349200  0.92143700  1
  Rb  Rb1  1  0.31349200  0.65214300  0.42143700  1
  Rb  Rb2  1  0.93591000  0.44681200  0.15872000  1
  Rb  Rb3  1  0.44681200  0.93591000  0.65872000  1
  Rb  Rb4  1  0.12276500  0.65997700  0.60710100  1
  Rb  Rb5  1  0.65997700  0.12276500  0.10710100  1
  Rb  Rb6  1  0.42192100  0.94016800  0.84390400  1
  Rb  Rb7  1  0.94016800  0.42192100  0.34390400  1
  Ge  Ge0  1  0.95765400  0.64218200  0.96290500  1
  Ge  Ge1  1  0.64218200  0.95765400  0.46290500  1
  Ge  Ge2  1  0.08860500  0.63195600  0.80400800  1
  Ge  Ge3  1  0.63195600  0.08860500  0.30400800  1
  Ge  Ge4  1  0.28961700  0.73836500  0.13449500  1
  Ge  Ge5  1  0.73836500  0.28961700  0.63449500  1
  B  B0  1  0.08341900  0.94312400  0.24961400  1
  B  B1  1  0.94312400  0.08341900  0.74961400  1
  B  B2  1  0.36258700  0.55217800  0.26312100  1
  B  B3  1  0.55217800  0.36258700  0.76312100  1
  B  B4  1  0.51072500  0.87422400  0.02139400  1
  B  B5  1  0.87422400  0.51072500  0.52139400  1
  B  B6  1  0.22968400  0.78258500  0.00338800  1
  B  B7  1  0.78258500  0.22968400  0.50338800  1
  B  B8  1  0.85571500  0.46491600  0.75667700  1
  B  B9  1  0.46491600  0.85571500  0.25667700  1
  B  B10  1  0.13469000  0.17639000  0.00679100  1
  B  B11  1  0.17639000  0.13469000  0.50679100  1
  O  O0  1  0.18596100  0.68205100  0.07321300  1
  O  O1  1  0.68205100  0.18596100  0.57321300  1
  O  O2  1  0.40555600  0.35132200  0.31174600  1
  O  O3  1  0.35132200  0.40555600  0.81174600  1
  O  O4  1  0.91860900  0.63145800  0.75030900  1
  O  O5  1  0.63145800  0.91860900  0.25030900  1
  O  O6  1  0.51361300  0.79287600  0.09506200  1
  O  O7  1  0.79287600  0.51361300  0.59506200  1
  O  O8  1  0.38854300  0.49873100  0.19408400  1
  O  O9  1  0.49873100  0.38854300  0.69408400  1
  O  O10  1  0.07017200  0.95947600  0.17615200  1
  O  O11  1  0.95947600  0.07017200  0.67615200  1
  O  O12  1  0.87345100  0.11463600  0.27911500  1
  O  O13  1  0.11463600  0.87345100  0.77911500  1
  O  O14  1  0.92508300  0.61571800  0.88221800  1
  O  O15  1  0.61571800  0.92508300  0.38221800  1
  O  O16  1  0.72165400  0.14251800  0.78407900  1
  O  O17  1  0.14251800  0.72165400  0.28407900  1
  O  O18  1  0.45462900  0.75205400  0.98649800  1
  O  O19  1  0.75205400  0.45462900  0.48649800  1
  O  O20  1  0.06818300  0.02953900  0.99802000  1
  O  O21  1  0.02953900  0.06818300  0.49802000  1
  O  O22  1  0.34638000  0.11851300  0.01426100  1
  O  O23  1  0.11851300  0.34638000  0.51426100  1
  O  O24  1  0.63284200  0.53120500  0.76358800  1
  O  O25  1  0.53120500  0.63284200  0.26358800  1
  O  O26  1  0.25177600  0.01492300  0.25387800  1
  O  O27  1  0.01492300  0.25177600  0.75387800  1
  O  O28  1  0.96758300  0.39479500  0.01181800  1
  O  O29  1  0.39479500  0.96758300  0.51181800  1
  O  O30  1  0.72577000  0.86889100  0.99438900  1
  O  O31  1  0.86889100  0.72577000  0.49438900  1
  O  O32  1  0.19320100  0.67862400  0.95478400  1
  O  O33  1  0.67862400  0.19320100  0.45478400  1
loop_
_geom_bond_atom_site_label_1
_geom_bond_atom_site_label_2
_geom_bond_distance
_geom_bond_site_symmetry_2
Ge0 O30 1.745665 1_555
Ge0 O32 1.754395 1_655
Ge0 O28 1.787955 1_556
Ge0 O14 1.789976 1_555
Ge1 O31 1.745665 1_555
Ge1 O33 1.754395 1_565
Ge1 O29 1.787955 1_555
Ge1 O15 1.789976 1_555
Ge2 O13 1.744228 1_555
Ge2 O3 1.756247 1_555
Ge2 O4 1.790512 1_455
Ge2 O14 1.792102 1_455
Ge3 O12 1.744228 1_555
Ge3 O2 1.756247 1_555
Ge3 O5 1.790512 1_545
Ge3 O15 1.792102 1_545
Ge4 O0 1.777862 1_555
Ge4 O8 1.779165 1_555
Ge4 O10 1.782202 1_555
Ge4 O6 1.782377 1_555
Ge5 O1 1.777862 1_555
Ge5 O9 1.779165 1_555
Ge5 O11 1.782202 1_555
Ge5 O7 1.782377 1_555
B0 O17 1.453264 1_555
B0 O12 1.476040 1_465
B0 O26 1.510601 1_565
B0 O10 1.519354 1_555
B1 O16 1.453264 1_555
B1 O13 1.476040 1_645
B1 O27 1.510601 1_655
B1 O11 1.519354 1_555
B2 O17 1.454538 1_555
B2 O2 1.481965 1_555
B2 O8 1.504150 1_555
B2 O25 1.536735 1_555
B3 O16 1.454538 1_555
B3 O3 1.481965 1_555
B3 O9 1.504150 1_555
B3 O24 1.536735 1_555
B4 O18 1.451927 1_554
B4 O30 1.474499 1_554
B4 O6 1.511835 1_555
B4 O22 1.519533 1_565
B5 O19 1.451927 1_555
B5 O31 1.474499 1_555
B5 O7 1.511835 1_555
B5 O23 1.519533 1_655
B6 O18 1.453553 1_554
B6 O32 1.483035 1_554
B6 O0 1.507643 1_555
B6 O20 1.528912 1_564
B7 O19 1.453553 1_555
B7 O33 1.483035 1_555
B7 O1 1.507643 1_555
B7 O21 1.528912 1_655
B8 O27 1.361310 1_655
B8 O24 1.375461 1_555
B8 O4 1.405552 1_555
B9 O26 1.361310 1_565
B9 O25 1.375461 1_555
B9 O5 1.405552 1_555
B10 O22 1.364724 1_555
B10 O20 1.371522 1_554
B10 O28 1.407798 1_455
B11 O23 1.364724 1_555
B11 O21 1.371522 1_555
B11 O29 1.407798 1_545
O0 Rb2 3.028454 1_455
O1 Rb3 3.028454 1_545
O2 Rb7 2.988277 1_455
O2 Rb1 3.171247 1_555
O3 Rb6 2.988277 1_545
O3 Rb0 3.171247 1_555
O4 Rb4 3.018785 1_655
O5 Rb5 3.018785 1_565
O6 Rb5 3.011925 1_565
O6 Rb2 3.103048 1_555
O7 Rb4 3.011925 1_655
O7 Rb3 3.103048 1_555
O8 Rb5 3.071418 1_555
O9 Rb4 3.071418 1_555
O10 Rb2 3.020062 1_465
O10 Rb5 3.067043 1_465
O11 Rb3 3.020062 1_645
O11 Rb4 3.067043 1_645
O12 Rb7 3.012281 1_555
O12 Rb2 3.145184 1_555
O13 Rb6 3.012281 1_555
O13 Rb3 3.145184 1_555
O14 Rb6 3.282647 1_555
O14 Rb0 3.364379 1_555
O15 Rb7 3.282647 1_555
O15 Rb1 3.364379 1_555
O16 Rb6 2.997812 1_545
O16 Rb0 3.165875 1_555
O17 Rb7 2.997812 1_455
O17 Rb1 3.165875 1_555
O18 Rb6 2.974886 1_555
O18 Rb0 3.152503 1_555
O19 Rb7 2.974886 1_555
O19 Rb1 3.152503 1_555
O20 Rb5 3.124284 1_456
O20 Rb0 3.144982 1_455
O21 Rb4 3.124284 1_545
O21 Rb1 3.144982 1_545
O22 Rb0 3.183105 1_554
O22 Rb5 3.217056 1_555
O23 Rb1 3.183105 1_555
O23 Rb4 3.217056 1_555
O24 Rb3 3.069520 1_555
O24 Rb6 3.156099 1_555
O24 Rb0 3.301874 1_555
O25 Rb2 3.069520 1_555
O25 Rb7 3.156099 1_555
O25 Rb1 3.301874 1_555
O26 Rb2 3.270122 1_455
O26 Rb7 3.283967 1_455
O27 Rb3 3.270122 1_545
O27 Rb6 3.283967 1_545
O28 Rb2 3.086280 1_555
O28 Rb0 3.475406 1_554
O29 Rb3 3.086280 1_555
O29 Rb1 3.475406 1_555
O30 Rb0 2.999547 1_565
O30 Rb5 3.048018 1_566
O31 Rb1 2.999547 1_655
O31 Rb4 3.048018 1_655
O32 Rb0 3.017335 1_555
O32 Rb6 3.272873 1_555
O33 Rb1 3.017335 1_555
O33 Rb7 3.272873 1_555
