# generated using pymatgen
data_MgCr(GeO3)2
_symmetry_space_group_name_H-M   'P 1'
_cell_length_a   9.36822500
_cell_length_b   5.43612800
_cell_length_c   9.86794149
_cell_angle_alpha   77.04160119
_cell_angle_beta   90.00000000
_cell_angle_gamma   90.00000000
_symmetry_Int_Tables_number   1
_chemical_formula_structural   MgCr(GeO3)2
_chemical_formula_sum   'Mg4 Cr4 Ge8 O24'
_cell_volume   489.74517365
_cell_formula_units_Z   4
loop_
 _symmetry_equiv_pos_site_id
 _symmetry_equiv_pos_as_xyz
  1  'x, y, z'
loop_
 _atom_site_type_symbol
 _atom_site_label
 _atom_site_symmetry_multiplicity
 _atom_site_fract_x
 _atom_site_fract_y
 _atom_site_fract_z
 _atom_site_occupancy
  Mg  Mg0  1  0.48848900  0.55424800  0.24197000  1
  Mg  Mg1  1  0.98848900  0.94575200  0.75803000  1
  Mg  Mg2  1  0.51151100  0.44575200  0.75803000  1
  Mg  Mg3  1  0.01151100  0.05424800  0.24197000  1
  Cr  Cr0  1  0.65430700  0.04580400  0.24461100  1
  Cr  Cr1  1  0.15430700  0.45419600  0.75538900  1
  Cr  Cr2  1  0.34569300  0.95419600  0.75538900  1
  Cr  Cr3  1  0.84569300  0.54580400  0.24461100  1
  Ge  Ge0  1  0.33533000  0.17117200  0.05522000  1
  Ge  Ge1  1  0.83533000  0.32882800  0.94478000  1
  Ge  Ge2  1  0.66467000  0.82882800  0.94478000  1
  Ge  Ge3  1  0.16467000  0.67117200  0.05522000  1
  Ge  Ge4  1  0.34507500  0.75925200  0.45600300  1
  Ge  Ge5  1  0.84507500  0.74074800  0.54399700  1
  Ge  Ge6  1  0.65492500  0.24074800  0.54399700  1
  Ge  Ge7  1  0.15492500  0.25925200  0.45600300  1
  O  O0  1  0.29003600  0.48888600  0.38835100  1
  O  O1  1  0.79003600  0.01111400  0.61164900  1
  O  O2  1  0.70996400  0.51111400  0.61164900  1
  O  O3  1  0.20996400  0.98888600  0.38835100  1
  O  O4  1  0.32448100  0.82556700  0.10704800  1
  O  O5  1  0.82448100  0.67443300  0.89295200  1
  O  O6  1  0.67551900  0.17443300  0.89295200  1
  O  O7  1  0.17551900  0.32556700  0.10704800  1
  O  O8  1  0.99276800  0.30397700  0.36863500  1
  O  O9  1  0.49276800  0.19602300  0.63136500  1
  O  O10  1  0.00723200  0.69602300  0.63136500  1
  O  O11  1  0.50723200  0.80397700  0.36863500  1
  O  O12  1  0.02484400  0.78462000  0.13522000  1
  O  O13  1  0.52484400  0.71538000  0.86478000  1
  O  O14  1  0.97515600  0.21538000  0.86478000  1
  O  O15  1  0.47515600  0.28462000  0.13522000  1
  O  O16  1  0.33826000  0.23964900  0.86972400  1
  O  O17  1  0.83826000  0.26035100  0.13027600  1
  O  O18  1  0.66174000  0.76035100  0.13027600  1
  O  O19  1  0.16174000  0.73964900  0.86972400  1
  O  O20  1  0.35343900  0.68414800  0.63812100  1
  O  O21  1  0.85343900  0.81585200  0.36187900  1
  O  O22  1  0.64656100  0.31585200  0.36187900  1
  O  O23  1  0.14656100  0.18414800  0.63812100  1
loop_
_geom_bond_atom_site_label_1
_geom_bond_atom_site_label_2
_geom_bond_distance
_geom_bond_site_symmetry_2
Mg0 O15 1.991506 1_555
Mg0 O11 2.048687 1_555
Mg0 O18 2.133212 1_555
Mg0 O22 2.141210 1_555
Mg0 O4 2.329819 1_555
Mg0 O0 2.332173 1_555
Mg1 O14 1.991506 1_565
Mg1 O10 2.048687 1_655
Mg1 O19 2.133212 1_655
Mg1 O23 2.141210 1_665
Mg1 O5 2.329819 1_555
Mg1 O1 2.332173 1_565
Mg2 O13 1.991506 1_555
Mg2 O9 2.048687 1_555
Mg2 O16 2.133212 1_555
Mg2 O20 2.141210 1_555
Mg2 O6 2.329819 1_555
Mg2 O2 2.332173 1_555
Mg3 O12 1.991506 1_545
Mg3 O8 2.048687 1_455
Mg3 O17 2.133212 1_455
Mg3 O21 2.141210 1_445
Mg3 O7 2.329819 1_555
Mg3 O3 2.332173 1_545
Cr0 O22 2.064295 1_555
Cr0 O11 2.098302 1_545
Cr0 O18 2.114463 1_545
Cr0 O17 2.238944 1_555
Cr0 O15 2.244756 1_555
Cr0 O21 2.394389 1_545
Cr1 O23 2.064295 1_555
Cr1 O10 2.098302 1_555
Cr1 O19 2.114463 1_555
Cr1 O16 2.238944 1_555
Cr1 O14 2.244756 1_455
Cr1 O20 2.394389 1_555
Cr2 O20 2.064295 1_555
Cr2 O9 2.098302 1_565
Cr2 O16 2.114463 1_565
Cr2 O19 2.238944 1_555
Cr2 O13 2.244756 1_555
Cr2 O23 2.394389 1_565
Cr3 O21 2.064295 1_555
Cr3 O8 2.098302 1_555
Cr3 O17 2.114463 1_555
Cr3 O18 2.238944 1_555
Cr3 O12 2.244756 1_655
Cr3 O22 2.394389 1_555
Ge0 O15 1.713999 1_555
Ge0 O16 1.784468 1_554
Ge0 O4 1.835940 1_545
Ge0 O7 1.843900 1_555
Ge1 O14 1.713999 1_555
Ge1 O17 1.784468 1_556
Ge1 O5 1.835940 1_555
Ge1 O6 1.843900 1_555
Ge2 O13 1.713999 1_555
Ge2 O18 1.784468 1_556
Ge2 O6 1.835940 1_565
Ge2 O5 1.843900 1_555
Ge3 O12 1.713999 1_555
Ge3 O19 1.784468 1_554
Ge3 O7 1.835940 1_555
Ge3 O4 1.843900 1_555
Ge4 O11 1.736700 1_555
Ge4 O20 1.753122 1_555
Ge4 O3 1.797873 1_555
Ge4 O0 1.819815 1_555
Ge5 O10 1.736700 1_655
Ge5 O21 1.753122 1_555
Ge5 O2 1.797873 1_555
Ge5 O1 1.819815 1_565
Ge6 O9 1.736700 1_555
Ge6 O22 1.753122 1_555
Ge6 O1 1.797873 1_555
Ge6 O2 1.819815 1_555
Ge7 O8 1.736700 1_455
Ge7 O23 1.753122 1_555
Ge7 O0 1.797873 1_555
Ge7 O3 1.819815 1_545
