# generated using pymatgen
data_TaTeN
_symmetry_space_group_name_H-M   'P 1'
_cell_length_a   7.19126709
_cell_length_b   3.66530104
_cell_length_c   11.55465107
_cell_angle_alpha   89.99999831
_cell_angle_beta   69.24721485
_cell_angle_gamma   75.23566494
_symmetry_Int_Tables_number   1
_chemical_formula_structural   TaTeN
_chemical_formula_sum   'Ta4 Te4 N4'
_cell_volume   274.01882293
_cell_formula_units_Z   4
loop_
 _symmetry_equiv_pos_site_id
 _symmetry_equiv_pos_as_xyz
  1  'x, y, z'
loop_
 _atom_site_type_symbol
 _atom_site_label
 _atom_site_symmetry_multiplicity
 _atom_site_fract_x
 _atom_site_fract_y
 _atom_site_fract_z
 _atom_site_occupancy
  Ta  Ta0  1  0.63311275  0.68344363  0.89872111  1
  Ta  Ta1  1  0.36688725  0.31655637  0.10127889  1
  Ta  Ta2  1  0.19950170  0.40024865  0.90538377  1
  Ta  Ta3  1  0.80049830  0.59975135  0.09461623  1
  Te  Te0  1  0.75442532  0.62278684  0.62948014  1
  Te  Te1  1  0.24557468  0.37721316  0.37051986  1
  Te  Te2  1  0.31988766  0.84005567  0.69992545  1
  Te  Te3  1  0.68011234  0.15994433  0.30007455  1
  N  N0  1  0.91446042  0.54276929  0.90023760  1
  N  N1  1  0.08553958  0.45723071  0.09976240  1
  N  N2  1  0.51353155  0.24323372  0.89437733  1
  N  N3  1  0.48646845  0.75676628  0.10562267  1
loop_
_geom_bond_atom_site_label_1
_geom_bond_atom_site_label_2
_geom_bond_distance
_geom_bond_site_symmetry_2
Ta0 Te0 2.909731 1_555
Ta1 Te1 2.909731 1_555
Ta2 Te2 2.870331 1_555
Ta2 Te2 2.870331 1_545
Ta3 Te3 2.870331 1_555
Ta3 Te3 2.870331 1_565
Te0 Te2 2.826777 1_555
Te1 Te3 2.826777 1_555
N0 Ta0 1.962932 1_555
N0 Ta2 2.004681 1_655
N0 Ta3 2.089978 1_556
N1 Ta1 1.962932 1_555
N1 Ta3 2.004681 1_455
N1 Ta2 2.089978 1_554
N2 Ta0 2.020687 1_545
N2 Ta0 2.020691 1_555
N2 Ta2 2.140381 1_555
N2 Ta1 2.229026 1_556
N3 Ta1 2.020687 1_565
N3 Ta1 2.020691 1_555
N3 Ta3 2.140381 1_555
N3 Ta0 2.229026 1_554
