# generated using pymatgen
data_Sn2N2O
_symmetry_space_group_name_H-M   'P 1'
_cell_length_a   8.84809400
_cell_length_b   8.85538911
_cell_length_c   8.85839277
_cell_angle_alpha   109.52458799
_cell_angle_beta   109.29541323
_cell_angle_gamma   109.48181437
_symmetry_Int_Tables_number   1
_chemical_formula_structural   Sn2N2O
_chemical_formula_sum   'Sn16 N16 O8'
_cell_volume   535.04088733
_cell_formula_units_Z   8
loop_
 _symmetry_equiv_pos_site_id
 _symmetry_equiv_pos_as_xyz
  1  'x, y, z'
loop_
 _atom_site_type_symbol
 _atom_site_label
 _atom_site_symmetry_multiplicity
 _atom_site_fract_x
 _atom_site_fract_y
 _atom_site_fract_z
 _atom_site_occupancy
  Sn  Sn0  1  0.50555000  0.00612800  0.00236900  1
  Sn  Sn1  1  0.46706400  0.70908100  0.74825100  1
  Sn  Sn2  1  0.26182100  0.04550700  0.70412300  1
  Sn  Sn3  1  0.25300800  0.53640500  0.21399200  1
  Sn  Sn4  1  0.03346800  0.78331200  0.25861400  1
  Sn  Sn5  1  0.21744300  0.75052200  0.52583500  1
  Sn  Sn6  1  0.48817300  0.49536100  0.50770500  1
  Sn  Sn7  1  0.71367500  0.74429600  0.03705200  1
  Sn  Sn8  1  0.00731100  0.99621800  0.49164500  1
  Sn  Sn9  1  0.99513300  0.49131600  0.00004700  1
  Sn  Sn10  1  0.28279300  0.25689500  0.96838600  1
  Sn  Sn11  1  0.77359800  0.24757000  0.47198100  1
  Sn  Sn12  1  0.95995500  0.21501000  0.76219700  1
  Sn  Sn13  1  0.75168600  0.97188700  0.27713600  1
  Sn  Sn14  1  0.74961900  0.46734100  0.78425700  1
  Sn  Sn15  1  0.53436400  0.28628600  0.25037400  1
  N  N0  1  0.73500000  0.99250500  0.04015000  1
  N  N1  1  0.27312200  0.76619300  0.25958700  1
  N  N2  1  0.22774900  0.46856600  0.00905200  1
  N  N3  1  0.46860300  0.74590000  0.49293700  1
  N  N4  1  0.27075000  0.03505500  0.46096600  1
  N  N5  1  0.73374700  0.22819200  0.72629700  1
  N  N6  1  0.54004800  0.27431800  0.50362300  1
  N  N7  1  0.45385700  0.50239300  0.27055700  1
  N  N8  1  0.77796300  0.54900400  0.99704100  1
  N  N9  1  0.01261100  0.46802900  0.76335400  1
  N  N10  1  0.21551700  0.25698100  0.74401900  1
  N  N11  1  0.76893200  0.22534700  0.23648300  1
  N  N12  1  0.03423500  0.03967900  0.22362400  1
  N  N13  1  0.95315700  0.72545800  0.53819100  1
  N  N14  1  0.54106700  0.50472300  0.72841600  1
  N  N15  1  0.49176600  0.22736700  0.04498700  1
  O  O0  1  0.26645900  0.98620400  0.95674200  1
  O  O1  1  0.73174900  0.95950900  0.55384700  1
  O  O2  1  0.51670600  0.78276800  0.93780000  1
  O  O3  1  0.95178500  0.95450300  0.76276000  1
  O  O4  1  0.98447300  0.53545200  0.24627600  1
  O  O5  1  0.04349700  0.26913600  0.45215300  1
  O  O6  1  0.23603900  0.78026600  0.77958400  1
  O  O7  1  0.77650900  0.71931800  0.26759100  1
loop_
_geom_bond_atom_site_label_1
_geom_bond_atom_site_label_2
_geom_bond_distance
_geom_bond_site_symmetry_2
Sn11 Sn13 2.371324 1_545
Sn13 Sn7 2.215444 1_555
Sn13 Sn8 2.309508 1_655
N0 O2 1.823873 1_554
N0 Sn0 1.997389 1_565
N0 N11 2.052167 1_565
N0 Sn13 2.128757 1_555
N0 Sn7 2.132400 1_555
N1 Sn3 1.870040 1_555
N1 Sn4 2.173179 1_555
N1 Sn9 2.406108 1_455
N1 Sn5 2.601095 1_555
N2 Sn3 1.618633 1_555
N2 Sn10 2.038134 1_554
N2 Sn9 2.112341 1_455
N2 Sn12 2.276585 1_454
N3 Sn3 2.155604 1_555
N3 Sn6 2.324791 1_555
N3 Sn5 2.346457 1_555
N3 Sn1 2.394148 1_555
N4 Sn4 2.076209 1_545
N4 Sn2 2.153723 1_555
N4 Sn8 2.360465 1_545
N4 Sn5 2.693608 1_545
N5 Sn14 1.948181 1_555
N5 Sn12 1.969974 1_555
N5 Sn9 2.362382 1_556
N5 Sn11 2.443776 1_555
N6 Sn14 2.130552 1_555
N6 Sn6 2.146257 1_555
N6 Sn11 2.251640 1_555
N6 Sn15 2.265927 1_555
N7 Sn3 1.835590 1_555
N7 Sn6 2.046394 1_555
N7 Sn15 2.228546 1_555
N7 Sn10 2.328106 1_554
N8 Sn14 1.671612 1_555
N8 Sn7 1.954393 1_556
N8 Sn9 2.141034 1_556
N8 Sn4 2.231758 1_656
N9 Sn9 2.099816 1_456
N9 Sn12 2.126635 1_455
N9 Sn11 2.283929 1_455
N9 Sn14 2.392740 1_455
N10 Sn10 1.877244 1_555
N10 Sn2 1.991174 1_555
N10 Sn8 2.171184 1_545
N10 Sn12 2.235469 1_455
N11 Sn11 2.013861 1_555
N11 Sn0 2.144234 1_555
N11 Sn15 2.342099 1_555
N11 Sn13 2.353473 1_545
N12 Sn4 2.389879 1_545
N12 Sn7 2.584975 1_445
N12 Sn8 2.601016 1_545
N12 Sn13 2.609125 1_445
N13 Sn5 2.317042 1_655
N13 Sn8 2.484666 1_655
N13 Sn2 2.655436 1_665
N14 Sn6 1.819217 1_555
N14 Sn14 1.916511 1_555
N14 Sn1 2.094849 1_555
N14 Sn7 2.347434 1_556
N15 Sn15 1.582913 1_555
N15 Sn10 1.886683 1_554
N15 Sn0 1.921228 1_555
N15 O0 2.039734 1_544
O0 O6 1.827964 1_555
O0 Sn0 1.951441 1_566
O0 Sn10 2.317605 1_565
O0 Sn2 2.454468 1_565
O0 Sn15 2.559232 1_566
O1 Sn12 2.073951 1_565
O1 Sn13 2.550304 1_555
O1 Sn8 2.614005 1_655
O2 Sn1 1.423778 1_555
O2 Sn7 1.873507 1_556
O2 Sn0 1.913237 1_566
O2 Sn13 2.519028 1_556
O3 Sn12 2.285540 1_565
O3 Sn10 2.655018 1_665
O4 Sn4 2.047221 1_655
O4 Sn9 2.123671 1_555
O4 Sn5 2.205509 1_655
O4 Sn3 2.482872 1_655
O5 Sn11 2.401194 1_455
O5 Sn13 2.468273 1_445
O5 Sn8 2.487734 1_545
O6 Sn5 2.116603 1_555
O6 Sn0 2.156798 1_566
O6 Sn1 2.402161 1_555
O6 Sn2 2.609343 1_565
O7 Sn7 2.040154 1_555
O7 Sn4 2.187902 1_655
O7 Sn8 2.202382 1_655
O7 Sn13 2.295928 1_555
