# generated using pymatgen
data_CaMo2O5
_symmetry_space_group_name_H-M   'P 1'
_cell_length_a   4.25522200
_cell_length_b   5.87874463
_cell_length_c   11.60529900
_cell_angle_alpha   90.00000000
_cell_angle_beta   90.00000000
_cell_angle_gamma   111.21790309
_symmetry_Int_Tables_number   1
_chemical_formula_structural   CaMo2O5
_chemical_formula_sum   'Ca2 Mo4 O10'
_cell_volume   270.63082618
_cell_formula_units_Z   2
loop_
 _symmetry_equiv_pos_site_id
 _symmetry_equiv_pos_as_xyz
  1  'x, y, z'
loop_
 _atom_site_type_symbol
 _atom_site_label
 _atom_site_symmetry_multiplicity
 _atom_site_fract_x
 _atom_site_fract_y
 _atom_site_fract_z
 _atom_site_occupancy
  Ca  Ca0  1  0.89641800  0.79283400  0.75000000  1
  Ca  Ca1  1  0.10358300  0.20716700  0.25000000  1
  Mo  Mo0  1  0.20586400  0.41172900  0.59470200  1
  Mo  Mo1  1  0.79413700  0.58827200  0.40529700  1
  Mo  Mo2  1  0.79413700  0.58827200  0.09470300  1
  Mo  Mo3  1  0.20586400  0.41172900  0.90529800  1
  O  O0  1  0.70141700  0.40283300  0.25000000  1
  O  O1  1  0.29858400  0.59716800  0.75000000  1
  O  O2  1  0.25499200  0.50998300  0.07504100  1
  O  O3  1  0.74501000  0.49001800  0.92495900  1
  O  O4  1  0.74501000  0.49001800  0.57504100  1
  O  O5  1  0.25499200  0.50998300  0.42495800  1
  O  O6  1  0.04229000  0.08457900  0.61908300  1
  O  O7  1  0.95771000  0.91542000  0.38091700  1
  O  O8  1  0.04229000  0.08457900  0.88091700  1
  O  O9  1  0.95771000  0.91542000  0.11908400  1
loop_
_geom_bond_atom_site_label_1
_geom_bond_atom_site_label_2
_geom_bond_distance
_geom_bond_site_symmetry_2
Ca0 O8 2.205589 1_665
Ca0 O6 2.205589 1_665
Ca0 O1 2.382546 1_655
Ca0 O1 2.382554 1_555
Ca0 O3 2.622342 1_555
Ca0 O4 2.622342 1_555
Ca1 O9 2.205589 1_445
Ca1 O7 2.205597 1_445
Ca1 O0 2.382546 1_455
Ca1 O0 2.382554 1_555
Ca1 O5 2.622333 1_555
Ca1 O2 2.622342 1_555
Mo0 O6 1.815047 1_555
Mo0 O5 2.042194 1_555
Mo0 O1 2.069051 1_555
Mo0 O4 2.182393 1_455
Mo0 O4 2.182406 1_555
Mo1 O7 1.815034 1_555
Mo1 O4 2.042194 1_555
Mo1 O0 2.069041 1_555
Mo1 O5 2.182397 1_655
Mo1 O5 2.182402 1_555
Mo2 O9 1.815036 1_555
Mo2 O3 2.042194 1_554
Mo2 O0 2.069041 1_555
Mo2 O2 2.182399 1_655
Mo2 O2 2.182403 1_555
Mo3 O8 1.815047 1_555
Mo3 O2 2.042183 1_556
Mo3 O1 2.069051 1_555
Mo3 O3 2.182393 1_455
Mo3 O3 2.182406 1_555
