# generated using pymatgen
data_BaB8H4O15
_symmetry_space_group_name_H-M   'P 1'
_cell_length_a   8.06950800
_cell_length_b   14.28234400
_cell_length_c   12.88338942
_cell_angle_alpha   90.00000000
_cell_angle_beta   128.56622449
_cell_angle_gamma   90.00000000
_symmetry_Int_Tables_number   1
_chemical_formula_structural   BaB8H4O15
_chemical_formula_sum   'Ba4 B32 H16 O60'
_cell_volume   1160.97077818
_cell_formula_units_Z   4
loop_
 _symmetry_equiv_pos_site_id
 _symmetry_equiv_pos_as_xyz
  1  'x, y, z'
loop_
 _atom_site_type_symbol
 _atom_site_label
 _atom_site_symmetry_multiplicity
 _atom_site_fract_x
 _atom_site_fract_y
 _atom_site_fract_z
 _atom_site_occupancy
  Ba  Ba0  1  0.79801000  0.15786600  0.87757000  1
  Ba  Ba1  1  0.79801000  0.34213400  0.37757000  1
  Ba  Ba2  1  0.20199000  0.84213400  0.12243000  1
  Ba  Ba3  1  0.20199000  0.65786600  0.62243000  1
  B  B0  1  0.38492600  0.30354600  0.38153700  1
  B  B1  1  0.38492600  0.19645400  0.88153700  1
  B  B2  1  0.61507400  0.69645400  0.61846300  1
  B  B3  1  0.61507400  0.80354600  0.11846300  1
  B  B4  1  0.21740200  0.25841100  0.14739600  1
  B  B5  1  0.21740200  0.24158900  0.64739600  1
  B  B6  1  0.78259800  0.74158900  0.85260400  1
  B  B7  1  0.78259800  0.75841100  0.35260400  1
  B  B8  1  0.32363700  0.31783200  0.00833800  1
  B  B9  1  0.32363700  0.18216800  0.50833800  1
  B  B10  1  0.67636300  0.68216800  0.99166200  1
  B  B11  1  0.67636300  0.81783200  0.49166200  1
  B  B12  1  0.12096600  0.45941400  0.87630000  1
  B  B13  1  0.12096600  0.04058600  0.37630000  1
  B  B14  1  0.87903400  0.54058600  0.12370000  1
  B  B15  1  0.87903400  0.95941400  0.62370000  1
  B  B16  1  0.06037600  0.31346300  0.74732400  1
  B  B17  1  0.06037600  0.18653700  0.24732400  1
  B  B18  1  0.93962400  0.68653700  0.25267600  1
  B  B19  1  0.93962400  0.81346300  0.75267600  1
  B  B20  1  0.68320900  0.25036700  0.60754900  1
  B  B21  1  0.68320900  0.24963300  0.10754900  1
  B  B22  1  0.31679100  0.74963300  0.39245100  1
  B  B23  1  0.31679100  0.75036700  0.89245100  1
  B  B24  1  0.67913200  0.92803200  0.00240100  1
  B  B25  1  0.67913200  0.57196800  0.50240100  1
  B  B26  1  0.32086800  0.07196800  0.99759900  1
  B  B27  1  0.32086800  0.42803200  0.49759900  1
  B  B28  1  0.44610700  0.92452800  0.74963700  1
  B  B29  1  0.44610700  0.57547200  0.24963700  1
  B  B30  1  0.55389300  0.07547200  0.25036300  1
  B  B31  1  0.55389300  0.42452800  0.75036300  1
  H  H0  1  0.90391600  0.02457200  0.11645600  1
  H  H1  1  0.90391600  0.47542800  0.61645600  1
  H  H2  1  0.09608400  0.97542800  0.88354400  1
  H  H3  1  0.09608400  0.52457200  0.38354400  1
  H  H4  1  0.22518800  0.89439700  0.55688900  1
  H  H5  1  0.22518800  0.60560300  0.05688900  1
  H  H6  1  0.77481200  0.10560300  0.44311100  1
  H  H7  1  0.77481200  0.39439700  0.94311100  1
  H  H8  1  0.44106700  0.02308100  0.63843000  1
  H  H9  1  0.44106700  0.47691900  0.13843000  1
  H  H10  1  0.55893300  0.97691900  0.36157000  1
  H  H11  1  0.55893300  0.52308100  0.86157000  1
  H  H12  1  0.94998400  0.57544700  0.79090800  1
  H  H13  1  0.94998400  0.92455300  0.29090800  1
  H  H14  1  0.05001600  0.42455300  0.20909200  1
  H  H15  1  0.05001600  0.07544700  0.70909200  1
  O  O0  1  0.61114500  0.29560000  0.49236400  1
  O  O1  1  0.61114500  0.20440000  0.99236400  1
  O  O2  1  0.38885500  0.70440000  0.50763600  1
  O  O3  1  0.38885500  0.79560000  0.00763600  1
  O  O4  1  0.28913100  0.38846900  0.38983000  1
  O  O5  1  0.28913100  0.11153100  0.88983000  1
  O  O6  1  0.71086900  0.61153100  0.61017000  1
  O  O7  1  0.71086900  0.88846900  0.11017000  1
  O  O8  1  0.36191600  0.30874500  0.25976900  1
  O  O9  1  0.36191600  0.19125500  0.75976900  1
  O  O10  1  0.63808400  0.69125500  0.74023100  1
  O  O11  1  0.63808400  0.80874500  0.24023100  1
  O  O12  1  0.19503700  0.26406200  0.03282500  1
  O  O13  1  0.19503700  0.23593800  0.53282500  1
  O  O14  1  0.80496300  0.73593800  0.96717500  1
  O  O15  1  0.80496300  0.76406200  0.46717500  1
  O  O16  1  0.27423400  0.41813400  0.99577500  1
  O  O17  1  0.27423400  0.08186600  0.49577500  1
  O  O18  1  0.72576600  0.58186600  0.00422500  1
  O  O19  1  0.72576600  0.91813400  0.50422500  1
  O  O20  1  0.51544100  0.89970600  0.87467600  1
  O  O21  1  0.51544100  0.60029400  0.37467600  1
  O  O22  1  0.48455900  0.10029400  0.12532400  1
  O  O23  1  0.48455900  0.39970600  0.62532400  1
  O  O24  1  0.02353600  0.41291100  0.75778300  1
  O  O25  1  0.02353600  0.08708900  0.25778300  1
  O  O26  1  0.97646400  0.58708900  0.24221700  1
  O  O27  1  0.97646400  0.91291100  0.74221700  1
  O  O28  1  0.26843700  0.28286500  0.87817700  1
  O  O29  1  0.26843700  0.21713500  0.37817700  1
  O  O30  1  0.73156300  0.71713500  0.12182300  1
  O  O31  1  0.73156300  0.78286500  0.62182300  1
  O  O32  1  0.08121300  0.30371100  0.64292700  1
  O  O33  1  0.08121300  0.19628900  0.14292700  1
  O  O34  1  0.91878700  0.69628900  0.35707300  1
  O  O35  1  0.91878700  0.80371100  0.85707300  1
  O  O36  1  0.88956100  0.25444800  0.72175700  1
  O  O37  1  0.88956100  0.24555200  0.22175700  1
  O  O38  1  0.11043900  0.74555200  0.27824300  1
  O  O39  1  0.11043900  0.75444800  0.77824300  1
  O  O40  1  0.55031200  0.19360100  0.61314900  1
  O  O41  1  0.55031200  0.30639900  0.11314900  1
  O  O42  1  0.44968800  0.80639900  0.38685100  1
  O  O43  1  0.44968800  0.69360100  0.88685100  1
  O  O44  1  0.82278800  0.99590000  0.02563600  1
  O  O45  1  0.82278800  0.50410000  0.52563600  1
  O  O46  1  0.17721200  0.00410000  0.97436400  1
  O  O47  1  0.17721200  0.49590000  0.47436400  1
  O  O48  1  0.28796600  0.86909200  0.64568500  1
  O  O49  1  0.28796600  0.63090800  0.14568500  1
  O  O50  1  0.71203400  0.13090800  0.35431500  1
  O  O51  1  0.71203400  0.36909200  0.85431500  1
  O  O52  1  0.53267700  0.99970900  0.73219700  1
  O  O53  1  0.53267700  0.50029100  0.23219700  1
  O  O54  1  0.46732300  0.00029100  0.26780300  1
  O  O55  1  0.46732300  0.49970900  0.76780300  1
  O  O56  1  0.07134300  0.55183000  0.87854600  1
  O  O57  1  0.07134300  0.94817000  0.37854600  1
  O  O58  1  0.92865700  0.44817000  0.12145400  1
  O  O59  1  0.92865700  0.05183000  0.62145400  1
loop_
_geom_bond_atom_site_label_1
_geom_bond_atom_site_label_2
_geom_bond_distance
_geom_bond_site_symmetry_2
Ba0 O40 2.714944 1_555
Ba0 O33 2.733132 1_656
Ba0 O1 2.771881 1_555
Ba0 O52 2.862619 1_545
Ba0 O9 2.873230 1_555
Ba0 O36 2.885706 1_555
Ba0 O44 2.924802 1_546
Ba0 O12 2.928415 1_656
Ba0 O51 3.068066 1_555
Ba0 O46 3.314176 1_655
Ba1 O41 2.714944 1_555
Ba1 O32 2.733132 1_655
Ba1 O0 2.771881 1_555
Ba1 O53 2.862619 1_555
Ba1 O8 2.873230 1_555
Ba1 O37 2.885706 1_555
Ba1 O45 2.924802 1_555
Ba1 O13 2.928415 1_655
Ba1 O50 3.068066 1_555
Ba1 O47 3.314176 1_655
Ba2 O42 2.714944 1_555
Ba2 O35 2.733132 1_454
Ba2 O3 2.771881 1_555
Ba2 O54 2.862619 1_565
Ba2 O11 2.873230 1_555
Ba2 O38 2.885706 1_555
Ba2 O46 2.924802 1_564
Ba2 O14 2.928415 1_454
Ba2 O49 3.068066 1_555
Ba2 O44 3.314176 1_455
Ba3 O43 2.714944 1_555
Ba3 O34 2.733132 1_455
Ba3 O2 2.771881 1_555
Ba3 O55 2.862619 1_555
Ba3 O10 2.873230 1_555
Ba3 O39 2.885706 1_555
Ba3 O47 2.924802 1_555
Ba3 O15 2.928415 1_455
Ba3 O48 3.068066 1_555
Ba3 O45 3.314176 1_455
B0 O0 1.460854 1_555
B0 O8 1.462150 1_555
B0 O4 1.477523 1_555
B0 O29 1.535541 1_555
B1 O1 1.460854 1_555
B1 O9 1.462150 1_555
B1 O5 1.477523 1_555
B1 O28 1.535541 1_555
B2 O2 1.460854 1_555
B2 O10 1.462150 1_555
B2 O6 1.477523 1_555
B2 O31 1.535541 1_555
B3 O3 1.460854 1_555
B3 O11 1.462150 1_555
B3 O7 1.477523 1_555
B3 O30 1.535541 1_555
B4 O8 1.366621 1_555
B4 O12 1.373208 1_555
B4 O33 1.385418 1_555
B5 O9 1.366621 1_555
B5 O13 1.373208 1_555
B5 O32 1.385418 1_555
B6 O10 1.366621 1_555
B6 O14 1.373208 1_555
B6 O35 1.385418 1_555
B7 O11 1.366621 1_555
B7 O15 1.373208 1_555
B7 O34 1.385418 1_555
B8 O41 1.454723 1_555
B8 O16 1.468627 1_554
B8 O12 1.474579 1_555
B8 O28 1.525953 1_554
B9 O40 1.454723 1_555
B9 O17 1.468627 1_555
B9 O13 1.474579 1_555
B9 O29 1.525953 1_555
B10 O43 1.454723 1_555
B10 O18 1.468627 1_556
B10 O14 1.474579 1_555
B10 O30 1.525953 1_556
B11 O42 1.454723 1_555
B11 O19 1.468627 1_555
B11 O15 1.474579 1_555
B11 O31 1.525953 1_555
B12 O16 1.368536 1_555
B12 O24 1.376187 1_555
B12 O56 1.384851 1_555
B13 O17 1.368536 1_555
B13 O25 1.376187 1_555
B13 O57 1.384851 1_545
B14 O18 1.368536 1_555
B14 O26 1.376187 1_555
B14 O58 1.384851 1_555
B15 O19 1.368536 1_555
B15 O27 1.376187 1_555
B15 O59 1.384851 1_565
B16 O32 1.462408 1_555
B16 O36 1.467242 1_455
B16 O24 1.474406 1_555
B16 O28 1.524072 1_555
B17 O33 1.462408 1_555
B17 O37 1.467242 1_455
B17 O25 1.474406 1_555
B17 O29 1.524072 1_555
B18 O34 1.462408 1_555
B18 O38 1.467242 1_655
B18 O26 1.474406 1_555
B18 O30 1.524072 1_555
B19 O35 1.462408 1_555
B19 O39 1.467242 1_655
B19 O27 1.474406 1_555
B19 O31 1.524072 1_555
B20 O0 1.371761 1_555
B20 O36 1.373413 1_555
B20 O40 1.381689 1_555
B21 O1 1.371761 1_554
B21 O37 1.373413 1_555
B21 O41 1.381689 1_555
B22 O2 1.371761 1_555
B22 O38 1.373413 1_555
B22 O42 1.381689 1_555
B23 O3 1.371761 1_556
B23 O39 1.373413 1_555
B23 O43 1.381689 1_555
B24 O7 1.367209 1_555
B24 O20 1.380623 1_554
B24 O44 1.392958 1_555
B25 O6 1.367209 1_555
B25 O21 1.380623 1_555
B25 O45 1.392958 1_555
B26 O5 1.367209 1_555
B26 O22 1.380623 1_556
B26 O46 1.392958 1_555
B27 O4 1.367209 1_555
B27 O23 1.380623 1_555
B27 O47 1.392958 1_555
B28 O52 1.373740 1_555
B28 O20 1.382035 1_555
B28 O48 1.384939 1_555
B29 O53 1.373740 1_555
B29 O21 1.382035 1_555
B29 O49 1.384939 1_555
B30 O54 1.373740 1_555
B30 O22 1.382035 1_555
B30 O50 1.384939 1_555
B31 O55 1.373740 1_555
B31 O23 1.382035 1_555
B31 O51 1.384939 1_555
H0 O44 1.005117 1_545
H0 O25 1.689036 1_655
H1 O45 1.005117 1_555
H1 O24 1.689036 1_655
H2 O46 1.005117 1_565
H2 O27 1.689036 1_455
H3 O47 1.005117 1_555
H3 O26 1.689036 1_455
H4 O48 0.986605 1_555
H5 O49 0.986605 1_555
H6 O50 0.986605 1_555
H7 O51 0.986605 1_555
H8 O52 1.001895 1_545
H8 O17 1.676341 1_555
H9 O53 1.001895 1_555
H9 O16 1.676341 1_554
H10 O54 1.001895 1_565
H10 O19 1.676341 1_555
H11 O55 1.001895 1_555
H11 O18 1.676341 1_556
H12 O56 0.984371 1_655
H13 O57 0.984371 1_655
H14 O58 0.984371 1_455
H15 O59 0.984371 1_455
