# generated using pymatgen
data_TmSb
_symmetry_space_group_name_H-M   'P 1'
_cell_length_a   3.75658900
_cell_length_b   3.75658900
_cell_length_c   3.75658900
_cell_angle_alpha   90.00000000
_cell_angle_beta   90.00000000
_cell_angle_gamma   90.00000000
_symmetry_Int_Tables_number   1
_chemical_formula_structural   TmSb
_chemical_formula_sum   'Tm1 Sb1'
_cell_volume   53.01283714
_cell_formula_units_Z   1
loop_
 _symmetry_equiv_pos_site_id
 _symmetry_equiv_pos_as_xyz
  1  'x, y, z'
loop_
 _atom_site_type_symbol
 _atom_site_label
 _atom_site_symmetry_multiplicity
 _atom_site_fract_x
 _atom_site_fract_y
 _atom_site_fract_z
 _atom_site_occupancy
  Tm  Tm0  1  0.00000000  0.00000000  0.00000000  1
  Sb  Sb0  1  0.50000000  0.50000000  0.50000000  1
loop_
_geom_bond_atom_site_label_1
_geom_bond_atom_site_label_2
_geom_bond_distance
_geom_bond_site_symmetry_2
Sb0 Tm0 3.253302 1_555
Sb0 Tm0 3.253302 1_556
Sb0 Tm0 3.253302 1_565
Sb0 Tm0 3.253302 1_655
Sb0 Tm0 3.253302 1_656
Sb0 Tm0 3.253302 1_566
Sb0 Tm0 3.253302 1_666
Sb0 Tm0 3.253302 1_665
