# generated using pymatgen
data_CaY5(MoO6)2
_symmetry_space_group_name_H-M   'P 1'
_cell_length_a   5.98806400
_cell_length_b   6.98603743
_cell_length_c   7.53488560
_cell_angle_alpha   105.27792184
_cell_angle_beta   90.00000000
_cell_angle_gamma   115.37707839
_symmetry_Int_Tables_number   1
_chemical_formula_structural   CaY5(MoO6)2
_chemical_formula_sum   'Ca1 Y5 Mo2 O12'
_cell_volume   272.40984253
_cell_formula_units_Z   1
loop_
 _symmetry_equiv_pos_site_id
 _symmetry_equiv_pos_as_xyz
  1  'x, y, z'
loop_
 _atom_site_type_symbol
 _atom_site_label
 _atom_site_symmetry_multiplicity
 _atom_site_fract_x
 _atom_site_fract_y
 _atom_site_fract_z
 _atom_site_occupancy
  Ca  Ca0  1  0.00000000  0.00000000  0.50000000  1
  Y  Y0  1  0.50000000  0.00000000  0.50000000  1
  Y  Y1  1  0.20000800  0.40001500  0.86259800  1
  Y  Y2  1  0.79999200  0.59998500  0.13740200  1
  Y  Y3  1  0.79110800  0.58221700  0.64811400  1
  Y  Y4  1  0.20889200  0.41778300  0.35188600  1
  Mo  Mo0  1  0.71485500  0.00000000  0.00000000  1
  Mo  Mo1  1  0.28514500  0.00000000  0.00000000  1
  O  O0  1  0.00421400  0.00842800  0.81127600  1
  O  O1  1  0.99578600  0.99157200  0.18872400  1
  O  O2  1  0.48858900  0.97717700  0.20582200  1
  O  O3  1  0.51141100  0.02282300  0.79417800  1
  O  O4  1  0.61104600  0.70609100  0.43530600  1
  O  O5  1  0.90495500  0.29390900  0.56469400  1
  O  O6  1  0.38895400  0.29390900  0.56469400  1
  O  O7  1  0.40482800  0.34309200  0.09661200  1
  O  O8  1  0.06173600  0.65690800  0.90338800  1
  O  O9  1  0.59517200  0.65690800  0.90338800  1
  O  O10  1  0.93826400  0.34309200  0.09661200  1
  O  O11  1  0.09504500  0.70609100  0.43530600  1
loop_
_geom_bond_atom_site_label_1
_geom_bond_atom_site_label_2
_geom_bond_distance
_geom_bond_site_symmetry_2
Ca0 O11 2.291634 1_545
Ca0 O6 2.291634 1_555
Ca0 O5 2.291634 1_455
Ca0 O4 2.291634 1_445
Ca0 O1 2.330470 1_445
Ca0 O0 2.330470 1_555
Mo0 O2 2.052177 1_545
Mo0 O3 2.052180 1_554
Mo0 O9 2.096798 1_544
Mo0 O10 2.096798 1_555
Mo0 O0 2.232604 1_654
Mo0 O1 2.232604 1_545
Mo1 O3 2.052177 1_554
Mo1 O2 2.052180 1_545
Mo1 O8 2.096798 1_544
Mo1 O7 2.096798 1_555
Mo1 O0 2.232604 1_554
Mo1 O1 2.232604 1_445
O0 Y1 2.387716 1_555
O0 Y3 2.611428 1_445
O1 Y2 2.387716 1_555
O1 Y4 2.611428 1_665
O2 Y0 2.178946 1_565
O3 Y0 2.178946 1_555
O4 Y4 2.329438 1_555
O4 Y0 2.353393 1_565
O4 Y3 2.452284 1_555
O4 Y2 2.590392 1_555
O5 Y3 2.329442 1_555
O5 Y0 2.353393 1_555
O5 Y4 2.452288 1_655
O5 Y1 2.590396 1_655
O6 Y3 2.329438 1_555
O6 Y0 2.353393 1_555
O6 Y4 2.452284 1_555
O6 Y1 2.590392 1_555
O7 Y2 2.232444 1_555
O7 Y4 2.311791 1_555
O7 Y1 2.357770 1_554
O8 Y1 2.232448 1_555
O8 Y3 2.311794 1_455
O8 Y2 2.357774 1_456
O9 Y1 2.232444 1_555
O9 Y3 2.311791 1_555
O9 Y2 2.357770 1_556
O10 Y2 2.232448 1_555
O10 Y4 2.311794 1_655
O10 Y1 2.357774 1_654
O11 Y4 2.329442 1_555
O11 Y0 2.353393 1_565
O11 Y3 2.452288 1_455
O11 Y2 2.590396 1_455
