# generated using pymatgen
data_Ba14In4Cu2N7
_symmetry_space_group_name_H-M   'P 1'
_cell_length_a   9.45004700
_cell_length_b   8.18606600
_cell_length_c   21.92920301
_cell_angle_alpha   90.00000000
_cell_angle_beta   102.15273692
_cell_angle_gamma   90.00000000
_symmetry_Int_Tables_number   1
_chemical_formula_structural   Ba14In4Cu2N7
_chemical_formula_sum   'Ba28 In8 Cu4 N14'
_cell_volume   1658.39796707
_cell_formula_units_Z   2
loop_
 _symmetry_equiv_pos_site_id
 _symmetry_equiv_pos_as_xyz
  1  'x, y, z'
loop_
 _atom_site_type_symbol
 _atom_site_label
 _atom_site_symmetry_multiplicity
 _atom_site_fract_x
 _atom_site_fract_y
 _atom_site_fract_z
 _atom_site_occupancy
  Ba  Ba0  1  0.25189100  0.25099100  0.39294500  1
  Ba  Ba1  1  0.25189100  0.74900900  0.39294500  1
  Ba  Ba2  1  0.74810900  0.74900900  0.60705500  1
  Ba  Ba3  1  0.74810900  0.25099100  0.60705500  1
  Ba  Ba4  1  0.07539600  0.25239400  0.19103500  1
  Ba  Ba5  1  0.07539600  0.74760600  0.19103500  1
  Ba  Ba6  1  0.92460400  0.74760600  0.80896500  1
  Ba  Ba7  1  0.92460400  0.25239400  0.80896500  1
  Ba  Ba8  1  0.65910300  0.26607300  0.41452100  1
  Ba  Ba9  1  0.65910300  0.73392700  0.41452100  1
  Ba  Ba10  1  0.34089700  0.73392700  0.58547900  1
  Ba  Ba11  1  0.34089700  0.26607300  0.58547900  1
  Ba  Ba12  1  0.32794800  0.50000000  0.09291900  1
  Ba  Ba13  1  0.67205200  0.50000000  0.90708100  1
  Ba  Ba14  1  0.24827600  0.50000000  0.91621400  1
  Ba  Ba15  1  0.75172400  0.50000000  0.08378600  1
  Ba  Ba16  1  0.41546200  0.00000000  0.28888200  1
  Ba  Ba17  1  0.58453800  0.00000000  0.71111800  1
  Ba  Ba18  1  0.33098600  0.00000000  0.09103000  1
  Ba  Ba19  1  0.66901400  0.00000000  0.90897000  1
  Ba  Ba20  1  0.24707900  0.00000000  0.91240300  1
  Ba  Ba21  1  0.75292100  0.00000000  0.08759700  1
  Ba  Ba22  1  0.88893100  0.00000000  0.30706600  1
  Ba  Ba23  1  0.11106900  0.00000000  0.69293400  1
  Ba  Ba24  1  0.00000000  0.25249400  0.00000000  1
  Ba  Ba25  1  0.00000000  0.74750600  0.00000000  1
  Ba  Ba26  1  0.00000000  0.50000000  0.50000000  1
  Ba  Ba27  1  0.00000000  0.00000000  0.50000000  1
  In  In0  1  0.36434600  0.29935900  0.78067500  1
  In  In1  1  0.36434600  0.70064100  0.78067500  1
  In  In2  1  0.63565400  0.70064100  0.21932500  1
  In  In3  1  0.63565400  0.29935900  0.21932500  1
  In  In4  1  0.43839700  0.50000000  0.28161800  1
  In  In5  1  0.56160300  0.50000000  0.71838200  1
  In  In6  1  0.85827900  0.50000000  0.30806400  1
  In  In7  1  0.14172100  0.50000000  0.69193600  1
  Cu  Cu0  1  0.50000000  0.24391700  0.00000000  1
  Cu  Cu1  1  0.50000000  0.75608300  0.00000000  1
  Cu  Cu2  1  0.50000000  0.50000000  0.50000000  1
  Cu  Cu3  1  0.50000000  0.00000000  0.50000000  1
  N  N0  1  0.30257700  0.24259500  0.00291200  1
  N  N1  1  0.30257700  0.75740500  0.00291200  1
  N  N2  1  0.69742300  0.75740500  0.99708800  1
  N  N3  1  0.69742300  0.24259500  0.99708800  1
  N  N4  1  0.29733700  0.50000000  0.49430000  1
  N  N5  1  0.70266300  0.50000000  0.50570000  1
  N  N6  1  0.04640500  0.50000000  0.10229100  1
  N  N7  1  0.95359500  0.50000000  0.89770900  1
  N  N8  1  0.47236100  0.00000000  0.41272300  1
  N  N9  1  0.52763900  0.00000000  0.58727700  1
  N  N10  1  0.14522000  0.00000000  0.29930500  1
  N  N11  1  0.85478000  0.00000000  0.70069500  1
  N  N12  1  0.05254500  0.00000000  0.11435900  1
  N  N13  1  0.94745500  0.00000000  0.88564100  1
loop_
_geom_bond_atom_site_label_1
_geom_bond_atom_site_label_2
_geom_bond_distance
_geom_bond_site_symmetry_2
Ba0 N8 2.893082 1_555
Ba0 N10 2.929638 1_555
Ba0 N4 2.979553 1_555
Ba0 In4 3.877255 1_555
Ba0 Ba27 4.213306 1_555
Ba0 In6 4.305867 1_455
Ba1 N8 2.893082 1_565
Ba1 N10 2.929638 1_565
Ba1 N4 2.979553 1_555
Ba1 In4 3.877255 1_555
Ba1 Ba27 4.213306 1_565
Ba1 In6 4.305867 1_455
Ba2 N9 2.893082 1_565
Ba2 N11 2.929638 1_565
Ba2 N5 2.979553 1_555
Ba2 In5 3.877255 1_555
Ba2 Ba27 4.213306 1_665
Ba2 In7 4.305867 1_655
Ba3 N9 2.893082 1_555
Ba3 N11 2.929638 1_555
Ba3 N5 2.979553 1_555
Ba3 In5 3.877255 1_555
Ba3 In7 4.305867 1_655
Ba4 N12 2.643829 1_555
Ba4 N6 2.783204 1_555
Ba4 N10 3.111556 1_555
Ba4 In4 4.117367 1_555
Ba4 In6 4.137790 1_455
Ba5 N12 2.643829 1_565
Ba5 N6 2.783204 1_555
Ba5 N10 3.111556 1_565
Ba5 In4 4.117367 1_555
Ba5 In6 4.137790 1_455
Ba6 N13 2.643829 1_565
Ba6 N7 2.783204 1_555
Ba6 N11 3.111556 1_565
Ba6 In5 4.117367 1_555
Ba6 In7 4.137790 1_655
Ba7 N13 2.643829 1_555
Ba7 N7 2.783204 1_555
Ba7 N11 3.111556 1_555
Ba7 In5 4.117367 1_555
Ba7 In7 4.137790 1_655
Ba8 N5 2.736392 1_555
Ba8 N8 2.798317 1_555
Ba8 In4 3.735211 1_555
Ba8 In6 3.809174 1_555
Ba9 N5 2.736392 1_555
Ba9 N8 2.798317 1_565
Ba9 In4 3.735211 1_555
Ba9 In6 3.809174 1_555
Ba10 N4 2.736392 1_555
Ba10 N9 2.798317 1_565
Ba10 In5 3.735211 1_555
Ba10 In7 3.809174 1_555
Ba10 Ba27 4.011646 1_565
Ba11 N4 2.736392 1_555
Ba11 N9 2.798317 1_555
Ba11 In5 3.735211 1_555
Ba11 In7 3.809174 1_555
Ba11 Ba27 4.011646 1_555
Ba12 N6 2.711315 1_555
Ba12 N0 2.862528 1_555
Ba12 N1 2.862528 1_555
Ba12 In3 3.929799 1_555
Ba12 In2 3.929799 1_555
Ba12 In4 4.048966 1_555
Ba13 N7 2.711315 1_555
Ba13 N2 2.862528 1_555
Ba13 N3 2.862528 1_555
Ba13 In0 3.929799 1_555
Ba13 In1 3.929799 1_555
Ba13 In5 4.048966 1_555
Ba14 N7 2.728316 1_455
Ba14 N1 2.811974 1_556
Ba14 N0 2.811974 1_556
Ba14 In0 3.756034 1_555
Ba14 In1 3.756034 1_555
Ba15 N6 2.728316 1_655
Ba15 N3 2.811974 1_554
Ba15 N2 2.811974 1_554
Ba15 In2 3.756034 1_555
Ba15 In3 3.756034 1_555
Ba16 N10 2.611494 1_555
Ba16 N8 2.655092 1_555
Ba16 In3 3.741405 1_555
Ba16 In2 3.741405 1_545
Ba16 In4 4.103633 1_555
Ba16 In4 4.103633 1_545
Ba17 N11 2.611494 1_555
Ba17 N9 2.655092 1_555
Ba17 In0 3.741405 1_555
Ba17 In1 3.741405 1_545
Ba17 In5 4.103633 1_545
Ba17 In5 4.103633 1_555
Ba18 N1 2.744349 1_545
Ba18 N0 2.744349 1_555
Ba18 N12 2.784264 1_555
Ba19 N3 2.744349 1_555
Ba19 N2 2.744349 1_545
Ba19 N13 2.784264 1_555
Ba20 N13 2.768023 1_455
Ba20 N1 2.778483 1_546
Ba20 N0 2.778483 1_556
Ba20 In0 4.114087 1_555
Ba20 In1 4.114087 1_545
Ba21 N12 2.768023 1_655
Ba21 N3 2.778483 1_554
Ba21 N2 2.778483 1_544
Ba21 In3 4.114087 1_555
Ba21 In2 4.114087 1_545
Ba22 N10 2.463397 1_655
Ba22 In3 3.673851 1_555
Ba22 In2 3.673851 1_545
Ba22 In6 4.103653 1_555
Ba22 In6 4.103653 1_545
Ba22 Ba27 4.139126 1_655
Ba23 N11 2.463397 1_455
Ba23 In0 3.673851 1_555
Ba23 In1 3.673851 1_545
Ba23 In7 4.103653 1_545
Ba23 In7 4.103653 1_555
Ba23 Ba27 4.139126 1_555
Ba24 N0 2.847761 1_555
Ba24 N3 2.847761 1_454
Ba24 N6 2.985798 1_555
Ba24 N7 2.985798 1_454
Ba24 N13 3.206797 1_454
Ba24 N12 3.206797 1_555
Ba25 N2 2.847761 1_454
Ba25 N1 2.847761 1_555
Ba25 N6 2.985798 1_555
Ba25 N7 2.985798 1_454
Ba25 N12 3.206797 1_565
Ba25 N13 3.206797 1_464
Ba26 N5 2.838794 1_455
Ba26 N4 2.838794 1_555
Ba26 Ba27 4.093033 1_565
Ba26 Ba27 4.093033 1_555
Ba26 In6 4.139562 1_455
Ba26 In7 4.139562 1_555
Ba27 Ba9 4.011646 1_445
Ba27 Ba8 4.011646 1_455
Ba27 Ba3 4.213306 1_455
In0 In5 3.018391 1_555
In0 In7 3.030978 1_555
In1 In5 3.018391 1_555
In1 In7 3.030978 1_555
In2 In4 3.018391 1_555
In2 In6 3.030978 1_555
In3 In4 3.018391 1_555
In3 In6 3.030978 1_555
Cu0 N0 1.880168 1_555
Cu0 N3 1.880168 1_554
Cu1 N1 1.880168 1_555
Cu1 N2 1.880168 1_554
Cu2 N4 1.892809 1_555
Cu2 N5 1.892809 1_555
Cu3 N8 1.876384 1_555
Cu3 N9 1.876384 1_555
