# generated using pymatgen
data_Na4Al3Si3B(O3F)4
_symmetry_space_group_name_H-M   'P 1'
_cell_length_a   8.97014600
_cell_length_b   9.14994420
_cell_length_c   9.43814696
_cell_angle_alpha   91.18641722
_cell_angle_beta   90.26595656
_cell_angle_gamma   90.42876690
_symmetry_Int_Tables_number   1
_chemical_formula_structural   Na4Al3Si3B(O3F)4
_chemical_formula_sum   'Na8 Al6 Si6 B2 O24 F8'
_cell_volume   774.45184627
_cell_formula_units_Z   2
loop_
 _symmetry_equiv_pos_site_id
 _symmetry_equiv_pos_as_xyz
  1  'x, y, z'
loop_
 _atom_site_type_symbol
 _atom_site_label
 _atom_site_symmetry_multiplicity
 _atom_site_fract_x
 _atom_site_fract_y
 _atom_site_fract_z
 _atom_site_occupancy
  Na  Na0  1  0.77698200  0.75493700  0.77082900  1
  Na  Na1  1  0.25523300  0.74614600  0.26023500  1
  Na  Na2  1  0.27413900  0.71974300  0.69637500  1
  Na  Na3  1  0.70756400  0.69697400  0.24919000  1
  Na  Na4  1  0.28448700  0.29454000  0.29466900  1
  Na  Na5  1  0.72071500  0.29276300  0.71390300  1
  Na  Na6  1  0.23713300  0.24451800  0.72767500  1
  Na  Na7  1  0.75974100  0.25420700  0.22906100  1
  Al  Al0  1  0.23652900  0.00109300  0.48487900  1
  Al  Al1  1  0.72831200  0.99679900  0.49281800  1
  Al  Al2  1  0.49159000  0.74657600  0.97265000  1
  Al  Al3  1  0.02694900  0.48966700  0.72177200  1
  Al  Al4  1  0.02196000  0.51196900  0.26027300  1
  Al  Al5  1  0.49264000  0.25398500  0.00462200  1
  Si  Si0  1  0.49101300  0.98852600  0.23448600  1
  Si  Si1  1  0.48497100  0.01220900  0.74279900  1
  Si  Si2  1  0.97776900  0.74962200  0.50517100  1
  Si  Si3  1  0.75722600  0.49970800  0.97783100  1
  Si  Si4  1  0.23698100  0.49666200  0.98966600  1
  Si  Si5  1  0.98448200  0.24951600  0.47038900  1
  B  B0  1  0.97941700  0.05746900  0.97481800  1
  B  B1  1  0.51614600  0.53942800  0.51998800  1
  O  O0  1  0.62887800  0.94502600  0.33843100  1
  O  O1  1  0.33734200  0.97727200  0.64353900  1
  O  O2  1  0.45774700  0.84389400  0.13230100  1
  O  O3  1  0.52274100  0.86389200  0.82938000  1
  O  O4  1  0.12528300  0.84575400  0.46161200  1
  O  O5  1  0.83024500  0.84607500  0.54599700  1
  O  O6  1  0.01586500  0.67051700  0.65530300  1
  O  O7  1  0.93236500  0.64734000  0.36725600  1
  O  O8  1  0.33933200  0.63145500  0.92767300  1
  O  O9  1  0.65969900  0.65098400  0.99197000  1
  O  O10  1  0.12966200  0.57290700  0.11063600  1
  O  O11  1  0.85280300  0.51322200  0.83216100  1
  O  O12  1  0.12774000  0.42151400  0.87132400  1
  O  O13  1  0.86751500  0.49286600  0.11918400  1
  O  O14  1  0.34154100  0.36657200  0.05464100  1
  O  O15  1  0.65860000  0.34792600  0.95976400  1
  O  O16  1  0.00084100  0.32916400  0.31745300  1
  O  O17  1  0.94738100  0.35127400  0.60966000  1
  O  O18  1  0.14172500  0.16570500  0.50378600  1
  O  O19  1  0.84112800  0.14213100  0.44507400  1
  O  O20  1  0.52957300  0.13645600  0.14703600  1
  O  O21  1  0.44614900  0.15282700  0.84694400  1
  O  O22  1  0.34043100  0.01794800  0.32849000  1
  O  O23  1  0.62604100  0.05766600  0.64295600  1
  F  F0  1  0.55097800  0.59961300  0.64661300  1
  F  F1  1  0.52771900  0.39580700  0.50407800  1
  F  F2  1  0.20362200  0.52602600  0.35432500  1
  F  F3  1  0.47942800  0.63044200  0.41828100  1
  F  F4  1  0.63896100  0.46113100  0.24591300  1
  F  F5  1  0.22678900  0.47805600  0.63637500  1
  F  F6  1  0.85172900  0.00187300  0.01932300  1
  F  F7  1  0.02087900  0.03472800  0.84113100  1
loop_
_geom_bond_atom_site_label_1
_geom_bond_atom_site_label_2
_geom_bond_distance
_geom_bond_site_symmetry_2
Na0 O5 2.345906 1_555
Na0 O11 2.400218 1_555
Na0 O6 2.527602 1_655
Na0 O9 2.540743 1_555
Na0 O3 2.554057 1_555
Na1 O2 2.366141 1_555
Na1 O10 2.375033 1_555
Na1 O4 2.401367 1_555
Na1 O22 2.661715 1_565
Na2 O6 2.385228 1_555
Na2 O8 2.414211 1_555
Na2 O1 2.480705 1_555
Na2 O4 2.850111 1_555
Na2 O3 2.854782 1_555
Na3 O7 2.351177 1_555
Na3 O9 2.490054 1_554
Na3 O0 2.511833 1_555
Na3 O13 2.648314 1_555
Na3 O2 2.851213 1_555
Na4 O14 2.428166 1_555
Na4 O16 2.575777 1_555
Na4 O22 2.609531 1_555
Na4 O18 2.649942 1_555
Na5 O17 2.326523 1_555
Na5 O23 2.388441 1_555
Na5 O15 2.432594 1_555
Na5 O11 2.564642 1_555
Na6 O12 2.317118 1_555
Na6 O21 2.351455 1_555
Na6 O18 2.372450 1_555
Na6 O1 2.716084 1_545
Na7 O16 2.404374 1_655
Na7 O19 2.413529 1_555
Na7 O20 2.437257 1_555
Na7 O13 2.617280 1_555
Na7 O15 2.845874 1_554
Al0 O4 1.740127 1_545
Al0 O18 1.741578 1_555
Al0 O22 1.758160 1_555
Al0 O1 1.763958 1_545
Al1 O19 1.733312 1_565
Al1 O5 1.741607 1_555
Al1 O0 1.759605 1_555
Al1 O23 1.773911 1_565
Al2 O9 1.759552 1_555
Al2 O2 1.763029 1_556
Al2 O8 1.763423 1_555
Al2 O3 1.765764 1_555
Al3 O17 1.776660 1_455
Al3 O6 1.785098 1_555
Al3 O12 1.797677 1_555
Al3 O11 1.892879 1_455
Al3 F5 1.971552 1_555
Al4 O16 1.777217 1_555
Al4 O7 1.780534 1_455
Al4 O10 1.809984 1_555
Al4 F2 1.854347 1_555
Al4 O13 1.921637 1_455
Al5 O14 1.768575 1_555
Al5 O20 1.770291 1_555
Al5 O15 1.770886 1_554
Al5 O21 1.782346 1_554
B0 F6 1.323519 1_556
B0 F7 1.329773 1_655
B1 F1 1.324486 1_555
B1 F3 1.325792 1_555
B1 F0 1.340098 1_555
O0 Si0 1.631717 1_555
O1 Si1 1.644152 1_565
O2 Si0 1.645925 1_555
O3 Si1 1.635383 1_565
O4 Si2 1.642023 1_455
O5 Si2 1.639095 1_555
O6 Si2 1.640167 1_455
O7 Si2 1.635540 1_555
O8 Si4 1.650553 1_555
O9 Si3 1.646394 1_555
O10 Si4 1.644460 1_554
O11 Si3 1.630013 1_555
O12 Si4 1.621263 1_555
O13 Si3 1.659709 1_554
O14 Si4 1.647486 1_554
O15 Si3 1.646485 1_555
O16 Si5 1.637092 1_455
O17 Si5 1.632020 1_555
O18 Si5 1.642863 1_455
O19 Si5 1.626221 1_555
O20 Si0 1.635505 1_545
O21 Si1 1.643291 1_555
O22 Si0 1.640372 1_545
O23 Si1 1.637588 1_555
F0 Na0 2.714773 1_555
F0 Na2 2.761485 1_555
F1 Na5 2.806736 1_555
F2 Na1 2.263494 1_555
F2 Na4 2.303662 1_555
F3 Na3 2.675298 1_555
F3 Na1 2.731236 1_555
F4 Na7 2.191726 1_555
F4 Na3 2.239103 1_555
F5 Na2 2.307233 1_555
F5 Na6 2.322883 1_555
