# generated using pymatgen
data_HfMg30ZnO32
_symmetry_space_group_name_H-M   'P 1'
_cell_length_a   8.62032600
_cell_length_b   8.62032600
_cell_length_c   8.64394800
_cell_angle_alpha   90.00000000
_cell_angle_beta   90.00000000
_cell_angle_gamma   90.00000000
_symmetry_Int_Tables_number   1
_chemical_formula_structural   HfMg30ZnO32
_chemical_formula_sum   'Hf1 Mg30 Zn1 O32'
_cell_volume   642.33195175
_cell_formula_units_Z   1
loop_
 _symmetry_equiv_pos_site_id
 _symmetry_equiv_pos_as_xyz
  1  'x, y, z'
loop_
 _atom_site_type_symbol
 _atom_site_label
 _atom_site_symmetry_multiplicity
 _atom_site_fract_x
 _atom_site_fract_y
 _atom_site_fract_z
 _atom_site_occupancy
  Hf  Hf0  1  0.50000000  0.50000000  0.00000000  1
  Mg  Mg0  1  0.00000000  0.50000000  0.00000000  1
  Mg  Mg1  1  0.50000000  0.00000000  0.00000000  1
  Mg  Mg2  1  0.00000000  0.00000000  0.50000000  1
  Mg  Mg3  1  0.00000000  0.50000000  0.50000000  1
  Mg  Mg4  1  0.50000000  0.00000000  0.50000000  1
  Mg  Mg5  1  0.50000000  0.50000000  0.50000000  1
  Mg  Mg6  1  0.24041400  0.24041400  0.00000000  1
  Mg  Mg7  1  0.24041400  0.75958600  0.00000000  1
  Mg  Mg8  1  0.75958600  0.24041400  0.00000000  1
  Mg  Mg9  1  0.75958600  0.75958600  0.00000000  1
  Mg  Mg10  1  0.24773500  0.24773500  0.50000000  1
  Mg  Mg11  1  0.24773500  0.75226500  0.50000000  1
  Mg  Mg12  1  0.75226500  0.24773500  0.50000000  1
  Mg  Mg13  1  0.75226500  0.75226500  0.50000000  1
  Mg  Mg14  1  0.00000000  0.24694300  0.24985700  1
  Mg  Mg15  1  0.00000000  0.75305700  0.24985700  1
  Mg  Mg16  1  0.50000000  0.24197100  0.25654100  1
  Mg  Mg17  1  0.50000000  0.75802900  0.25654100  1
  Mg  Mg18  1  0.00000000  0.24694300  0.75014300  1
  Mg  Mg19  1  0.00000000  0.75305700  0.75014300  1
  Mg  Mg20  1  0.50000000  0.24197100  0.74345900  1
  Mg  Mg21  1  0.50000000  0.75802900  0.74345900  1
  Mg  Mg22  1  0.24694300  0.00000000  0.24985700  1
  Mg  Mg23  1  0.24197100  0.50000000  0.25654100  1
  Mg  Mg24  1  0.75305700  0.00000000  0.24985700  1
  Mg  Mg25  1  0.75802900  0.50000000  0.25654100  1
  Mg  Mg26  1  0.24694300  0.00000000  0.75014300  1
  Mg  Mg27  1  0.24197100  0.50000000  0.74345900  1
  Mg  Mg28  1  0.75305700  0.00000000  0.75014300  1
  Mg  Mg29  1  0.75802900  0.50000000  0.74345900  1
  Zn  Zn0  1  0.00000000  0.00000000  0.00000000  1
  O  O0  1  0.00000000  0.00000000  0.27180200  1
  O  O1  1  0.00000000  0.50000000  0.25381100  1
  O  O2  1  0.50000000  0.00000000  0.25381100  1
  O  O3  1  0.50000000  0.50000000  0.24482100  1
  O  O4  1  0.00000000  0.00000000  0.72819800  1
  O  O5  1  0.00000000  0.50000000  0.74618900  1
  O  O6  1  0.50000000  0.00000000  0.74618900  1
  O  O7  1  0.50000000  0.50000000  0.75517900  1
  O  O8  1  0.25192300  0.25192300  0.24950300  1
  O  O9  1  0.25192300  0.74807700  0.24950300  1
  O  O10  1  0.74807700  0.25192300  0.24950300  1
  O  O11  1  0.74807700  0.74807700  0.24950300  1
  O  O12  1  0.25192300  0.25192300  0.75049700  1
  O  O13  1  0.25192300  0.74807700  0.75049700  1
  O  O14  1  0.74807700  0.25192300  0.75049700  1
  O  O15  1  0.74807700  0.74807700  0.75049700  1
  O  O16  1  0.00000000  0.27337900  0.00000000  1
  O  O17  1  0.00000000  0.72662100  0.00000000  1
  O  O18  1  0.50000000  0.25795300  0.00000000  1
  O  O19  1  0.50000000  0.74204700  0.00000000  1
  O  O20  1  0.00000000  0.25521100  0.50000000  1
  O  O21  1  0.00000000  0.74478900  0.50000000  1
  O  O22  1  0.50000000  0.25343700  0.50000000  1
  O  O23  1  0.50000000  0.74656300  0.50000000  1
  O  O24  1  0.27337900  0.00000000  0.00000000  1
  O  O25  1  0.25795300  0.50000000  0.00000000  1
  O  O26  1  0.72662100  0.00000000  0.00000000  1
  O  O27  1  0.74204700  0.50000000  0.00000000  1
  O  O28  1  0.25521100  0.00000000  0.50000000  1
  O  O29  1  0.25343700  0.50000000  0.50000000  1
  O  O30  1  0.74478900  0.00000000  0.50000000  1
  O  O31  1  0.74656300  0.50000000  0.50000000  1
loop_
_geom_bond_atom_site_label_1
_geom_bond_atom_site_label_2
_geom_bond_distance
_geom_bond_site_symmetry_2
Hf0 O27 2.086524 1_555
Hf0 O25 2.086524 1_555
Hf0 O18 2.086524 1_555
Hf0 O19 2.086524 1_555
Hf0 O3 2.116220 1_555
Hf0 O7 2.116220 1_554
Mg0 O17 1.953547 1_555
Mg0 O16 1.953547 1_555
Mg0 O5 2.193929 1_554
Mg0 O1 2.193929 1_555
Mg0 O27 2.223639 1_455
Mg0 O25 2.223639 1_555
Mg1 O26 1.953547 1_555
Mg1 O24 1.953547 1_555
Mg1 O2 2.193929 1_555
Mg1 O6 2.193929 1_554
Mg1 O19 2.223639 1_545
Mg1 O18 2.223639 1_555
Mg2 O0 1.972532 1_555
Mg2 O4 1.972532 1_555
Mg2 O20 2.200002 1_555
Mg2 O28 2.200002 1_555
Mg2 O30 2.200002 1_455
Mg2 O21 2.200002 1_545
Mg3 O21 2.110161 1_555
Mg3 O20 2.110161 1_555
Mg3 O1 2.128045 1_555
Mg3 O5 2.128045 1_555
Mg3 O29 2.184710 1_555
Mg3 O31 2.184710 1_455
Mg4 O30 2.110161 1_555
Mg4 O28 2.110161 1_555
Mg4 O2 2.128045 1_555
Mg4 O6 2.128045 1_555
Mg4 O22 2.184710 1_555
Mg4 O23 2.184710 1_545
Mg5 O31 2.125453 1_555
Mg5 O23 2.125453 1_555
Mg5 O29 2.125453 1_555
Mg5 O22 2.125453 1_555
Mg5 O7 2.205754 1_555
Mg5 O3 2.205754 1_555
Mg6 O24 2.091839 1_555
Mg6 O16 2.091839 1_555
Mg6 O8 2.161250 1_555
Mg6 O12 2.161250 1_554
Mg6 O25 2.242818 1_555
Mg6 O18 2.242818 1_555
Mg7 O17 2.091839 1_555
Mg7 O24 2.091839 1_565
Mg7 O9 2.161250 1_555
Mg7 O13 2.161250 1_554
Mg7 O25 2.242818 1_555
Mg7 O19 2.242818 1_555
Mg8 O26 2.091839 1_555
Mg8 O16 2.091839 1_655
Mg8 O10 2.161250 1_555
Mg8 O14 2.161250 1_554
Mg8 O27 2.242818 1_555
Mg8 O18 2.242818 1_555
Mg9 O26 2.091839 1_565
Mg9 O17 2.091839 1_655
Mg9 O11 2.161250 1_555
Mg9 O15 2.161250 1_554
Mg9 O27 2.242818 1_555
Mg9 O19 2.242818 1_555
Mg10 O28 2.136529 1_555
Mg10 O20 2.136529 1_555
Mg10 O12 2.165885 1_555
Mg10 O8 2.165885 1_555
Mg10 O29 2.175162 1_555
Mg10 O22 2.175162 1_555
Mg11 O21 2.136529 1_555
Mg11 O28 2.136529 1_565
Mg11 O9 2.165885 1_555
Mg11 O13 2.165885 1_555
Mg11 O29 2.175162 1_555
Mg11 O23 2.175162 1_555
Mg12 O30 2.136529 1_555
Mg12 O20 2.136529 1_655
Mg12 O10 2.165885 1_555
Mg12 O14 2.165885 1_555
Mg12 O22 2.175162 1_555
Mg12 O31 2.175162 1_555
Mg13 O30 2.136529 1_565
Mg13 O21 2.136529 1_655
Mg13 O11 2.165885 1_555
Mg13 O15 2.165885 1_555
Mg13 O31 2.175162 1_555
Mg13 O23 2.175162 1_555
Mg14 O0 2.137164 1_555
Mg14 O20 2.163397 1_555
Mg14 O16 2.171740 1_555
Mg14 O10 2.172085 1_455
Mg14 O8 2.172085 1_555
Mg14 O1 2.181702 1_555
Mg15 O0 2.137164 1_565
Mg15 O21 2.163397 1_555
Mg15 O17 2.171740 1_555
Mg15 O9 2.172085 1_555
Mg15 O11 2.172085 1_455
Mg15 O1 2.181702 1_555
Mg16 O2 2.086002 1_555
Mg16 O22 2.106767 1_555
Mg16 O8 2.141089 1_555
Mg16 O10 2.141089 1_555
Mg16 O18 2.221803 1_555
Mg16 O3 2.226600 1_555
Mg17 O2 2.086002 1_565
Mg17 O23 2.106767 1_555
Mg17 O11 2.141089 1_555
Mg17 O9 2.141089 1_555
Mg17 O19 2.221803 1_555
Mg17 O3 2.226600 1_555
Mg18 O4 2.137164 1_555
Mg18 O20 2.163397 1_555
Mg18 O16 2.171740 1_556
Mg18 O14 2.172085 1_455
Mg18 O12 2.172085 1_555
Mg18 O5 2.181702 1_555
Mg19 O4 2.137164 1_565
Mg19 O21 2.163397 1_555
Mg19 O17 2.171740 1_556
Mg19 O15 2.172085 1_455
Mg19 O13 2.172085 1_555
Mg19 O5 2.181702 1_555
Mg20 O6 2.086002 1_555
Mg20 O22 2.106767 1_555
Mg20 O12 2.141089 1_555
Mg20 O14 2.141089 1_555
Mg20 O18 2.221803 1_556
Mg20 O7 2.226600 1_555
Mg21 O6 2.086002 1_565
Mg21 O23 2.106767 1_555
Mg21 O15 2.141089 1_555
Mg21 O13 2.141089 1_555
Mg21 O19 2.221803 1_556
Mg21 O7 2.226600 1_555
Mg22 O0 2.137164 1_555
Mg22 O28 2.163397 1_555
Mg22 O24 2.171740 1_555
Mg22 O9 2.172085 1_545
Mg22 O8 2.172085 1_555
Mg22 O2 2.181702 1_555
Mg23 O1 2.086002 1_555
Mg23 O29 2.106767 1_555
Mg23 O8 2.141089 1_555
Mg23 O9 2.141089 1_555
Mg23 O25 2.221803 1_555
Mg23 O3 2.226600 1_555
Mg24 O0 2.137164 1_655
Mg24 O30 2.163397 1_555
Mg24 O26 2.171740 1_555
Mg24 O11 2.172085 1_545
Mg24 O10 2.172085 1_555
Mg24 O2 2.181702 1_555
Mg25 O1 2.086002 1_655
Mg25 O31 2.106767 1_555
Mg25 O11 2.141089 1_555
Mg25 O10 2.141089 1_555
Mg25 O27 2.221803 1_555
Mg25 O3 2.226600 1_555
Mg26 O4 2.137164 1_555
Mg26 O28 2.163397 1_555
Mg26 O24 2.171740 1_556
Mg26 O13 2.172085 1_545
Mg26 O12 2.172085 1_555
Mg26 O6 2.181702 1_555
Mg27 O5 2.086002 1_555
Mg27 O29 2.106767 1_555
Mg27 O12 2.141089 1_555
Mg27 O13 2.141089 1_555
Mg27 O25 2.221803 1_556
Mg27 O7 2.226600 1_555
Mg28 O4 2.137164 1_655
Mg28 O30 2.163397 1_555
Mg28 O26 2.171740 1_556
Mg28 O15 2.172085 1_545
Mg28 O14 2.172085 1_555
Mg28 O6 2.181702 1_555
Mg29 O5 2.086002 1_655
Mg29 O31 2.106767 1_555
Mg29 O14 2.141089 1_555
Mg29 O15 2.141089 1_555
Mg29 O27 2.221803 1_556
Mg29 O7 2.226600 1_555
O0 Zn0 2.349442 1_555
O4 Zn0 2.349442 1_556
O16 Zn0 2.356616 1_555
O17 Zn0 2.356616 1_565
O24 Zn0 2.356616 1_555
O26 Zn0 2.356616 1_655
