# generated using pymatgen
data_MgCu3(SnO3)4
_symmetry_space_group_name_H-M   'P 1'
_cell_length_a   6.68046281
_cell_length_b   6.68046281
_cell_length_c   6.68046281
_cell_angle_alpha   109.47122063
_cell_angle_beta   109.47122063
_cell_angle_gamma   109.47122063
_symmetry_Int_Tables_number   1
_chemical_formula_structural   MgCu3(SnO3)4
_chemical_formula_sum   'Mg1 Cu3 Sn4 O12'
_cell_volume   229.50796415
_cell_formula_units_Z   1
loop_
 _symmetry_equiv_pos_site_id
 _symmetry_equiv_pos_as_xyz
  1  'x, y, z'
loop_
 _atom_site_type_symbol
 _atom_site_label
 _atom_site_symmetry_multiplicity
 _atom_site_fract_x
 _atom_site_fract_y
 _atom_site_fract_z
 _atom_site_occupancy
  Mg  Mg0  1  0.00000000  0.00000000  0.00000000  1
  Cu  Cu0  1  0.50000000  0.00000000  0.50000000  1
  Cu  Cu1  1  0.50000000  0.50000000  0.00000000  1
  Cu  Cu2  1  0.00000000  0.50000000  0.50000000  1
  Sn  Sn0  1  0.00000000  0.50000000  0.00000000  1
  Sn  Sn1  1  0.50000000  0.00000000  0.00000000  1
  Sn  Sn2  1  0.50000000  0.50000000  0.50000000  1
  Sn  Sn3  1  0.00000000  0.00000000  0.50000000  1
  O  O0  1  0.30553400  0.13722900  0.83169500  1
  O  O1  1  0.69446600  0.86277100  0.16830500  1
  O  O2  1  0.69446600  0.52616000  0.83169500  1
  O  O3  1  0.47384000  0.16830500  0.30553400  1
  O  O4  1  0.16830500  0.30553400  0.47384000  1
  O  O5  1  0.83169500  0.30553400  0.13722900  1
  O  O6  1  0.86277100  0.16830500  0.69446600  1
  O  O7  1  0.83169500  0.69446600  0.52616000  1
  O  O8  1  0.30553400  0.47384000  0.16830500  1
  O  O9  1  0.52616000  0.83169500  0.69446600  1
  O  O10  1  0.16830500  0.69446600  0.86277100  1
  O  O11  1  0.13722900  0.83169500  0.30553400  1
loop_
_geom_bond_atom_site_label_1
_geom_bond_atom_site_label_2
_geom_bond_distance
_geom_bond_site_symmetry_2
Mg0 O1 2.690799 1_445
Mg0 O10 2.690799 1_544
Mg0 O0 2.690799 1_554
Mg0 O11 2.690799 1_545
Mg0 O5 2.690799 1_455
Mg0 O6 2.690799 1_454
Mg0 O3 2.690804 1_555
Mg0 O2 2.690804 1_444
Mg0 O7 2.690804 1_444
Mg0 O9 2.690804 1_444
Mg0 O4 2.690804 1_555
Mg0 O8 2.690804 1_555
Cu0 O3 1.983900 1_555
Cu0 O9 1.983900 1_545
Cu0 O6 1.983900 1_555
Cu0 O11 1.983900 1_545
Cu1 O8 1.983900 1_555
Cu1 O2 1.983900 1_554
Cu1 O1 1.983900 1_555
Cu1 O0 1.983900 1_554
Cu2 O4 1.983900 1_555
Cu2 O7 1.983900 1_455
Cu2 O5 1.983900 1_455
Cu2 O10 1.983900 1_555
O0 Sn3 2.073572 1_555
O0 Sn1 2.073572 1_556
O1 Sn3 2.073572 1_665
O1 Sn1 2.073572 1_565
O2 Sn0 2.073568 1_656
O2 Sn2 2.073576 1_555
O3 Sn1 2.073568 1_555
O3 Sn2 2.073576 1_555
O4 Sn3 2.073568 1_555
O4 Sn2 2.073576 1_555
O5 Sn0 2.073572 1_655
O5 Sn1 2.073572 1_555
O6 Sn0 2.073572 1_656
O6 Sn3 2.073572 1_655
O7 Sn3 2.073568 1_665
O7 Sn2 2.073576 1_555
O8 Sn0 2.073568 1_555
O8 Sn2 2.073576 1_555
O9 Sn1 2.073568 1_566
O9 Sn2 2.073576 1_555
O10 Sn1 2.073572 1_566
O10 Sn0 2.073572 1_556
O11 Sn0 2.073572 1_555
O11 Sn3 2.073572 1_565
