# generated using pymatgen
data_Te2MoW3(Se2S)2
_symmetry_space_group_name_H-M   'P 1'
_cell_length_a   3.34537188
_cell_length_b   3.34537188
_cell_length_c   38.12395800
_cell_angle_alpha   90.00000000
_cell_angle_beta   90.00000000
_cell_angle_gamma   119.99999765
_symmetry_Int_Tables_number   1
_chemical_formula_structural   Te2MoW3(Se2S)2
_chemical_formula_sum   'Te2 Mo1 W3 Se4 S2'
_cell_volume   369.50254061
_cell_formula_units_Z   1
loop_
 _symmetry_equiv_pos_site_id
 _symmetry_equiv_pos_as_xyz
  1  'x, y, z'
loop_
 _atom_site_type_symbol
 _atom_site_label
 _atom_site_symmetry_multiplicity
 _atom_site_fract_x
 _atom_site_fract_y
 _atom_site_fract_z
 _atom_site_occupancy
  Te  Te0  1  0.33333300  0.66666700  0.70760500  1
  Te  Te1  1  0.33333300  0.66666700  0.60755300  1
  Mo  Mo0  1  0.66666700  0.33333300  0.28178700  1
  W  W0  1  0.33333300  0.66666700  0.09391200  1
  W  W1  1  0.33333300  0.66666700  0.46962200  1
  W  W2  1  0.66666700  0.33333300  0.65760800  1
  Se  Se0  1  0.66666700  0.33333300  0.04997300  1
  Se  Se1  1  0.66666700  0.33333300  0.42567700  1
  Se  Se2  1  0.66666700  0.33333300  0.13785900  1
  Se  Se3  1  0.66666700  0.33333300  0.51357800  1
  S  S0  1  0.33333300  0.66666700  0.32158300  1
  S  S1  1  0.33333300  0.66666700  0.24199100  1
loop_
_geom_bond_atom_site_label_1
_geom_bond_atom_site_label_2
_geom_bond_distance
_geom_bond_site_symmetry_2
Te0 W2 2.713605 1_455
Te0 W2 2.713605 1_565
Te0 W2 2.713609 1_555
Te1 W2 2.715159 1_455
Te1 W2 2.715159 1_565
Te1 W2 2.715163 1_555
Mo0 S1 2.456081 1_655
Mo0 S1 2.456081 1_545
Mo0 S0 2.456081 1_545
Mo0 S0 2.456081 1_655
Mo0 S1 2.456086 1_555
Mo0 S0 2.456086 1_555
Se0 W0 2.556668 1_655
Se0 W0 2.556668 1_545
Se0 W0 2.556673 1_555
Se1 W1 2.556818 1_545
Se1 W1 2.556818 1_655
Se1 W1 2.556823 1_555
Se2 W0 2.556868 1_655
Se2 W0 2.556868 1_545
Se2 W0 2.556872 1_555
Se3 W1 2.557093 1_545
Se3 W1 2.557093 1_655
Se3 W1 2.557097 1_555
