# generated using pymatgen
data_Rb2LiAsO4
_symmetry_space_group_name_H-M   'P 1'
_cell_length_a   6.69776383
_cell_length_b   6.69776383
_cell_length_c   8.00859400
_cell_angle_alpha   90.00000000
_cell_angle_beta   90.00000000
_cell_angle_gamma   127.63086778
_symmetry_Int_Tables_number   1
_chemical_formula_structural   Rb2LiAsO4
_chemical_formula_sum   'Rb4 Li2 As2 O8'
_cell_volume   284.52447584
_cell_formula_units_Z   2
loop_
 _symmetry_equiv_pos_site_id
 _symmetry_equiv_pos_as_xyz
  1  'x, y, z'
loop_
 _atom_site_type_symbol
 _atom_site_label
 _atom_site_symmetry_multiplicity
 _atom_site_fract_x
 _atom_site_fract_y
 _atom_site_fract_z
 _atom_site_occupancy
  Rb  Rb0  1  0.93923200  0.06076800  0.84937700  1
  Rb  Rb1  1  0.06076800  0.93923200  0.34937700  1
  Rb  Rb2  1  0.39699800  0.60300200  0.49695100  1
  Rb  Rb3  1  0.60300200  0.39699800  0.99695100  1
  Li  Li0  1  0.20401600  0.79598400  0.76942800  1
  Li  Li1  1  0.79598400  0.20401600  0.26942800  1
  As  As0  1  0.31066100  0.68933900  0.05536500  1
  As  As1  1  0.68933900  0.31066100  0.55536500  1
  O  O0  1  0.11839500  0.40692700  0.16035200  1
  O  O1  1  0.88160500  0.59307300  0.66035200  1
  O  O2  1  0.36598600  0.63401400  0.85520400  1
  O  O3  1  0.63401400  0.36598600  0.35520400  1
  O  O4  1  0.59307300  0.88160500  0.16035200  1
  O  O5  1  0.40692700  0.11839500  0.66035200  1
  O  O6  1  0.83236800  0.16763200  0.52387100  1
  O  O7  1  0.16763200  0.83236800  0.02387100  1
loop_
_geom_bond_atom_site_label_1
_geom_bond_atom_site_label_2
_geom_bond_distance
_geom_bond_site_symmetry_2
Li0 O1 1.920798 1_455
Li0 O5 1.920798 1_565
Li0 O2 2.064646 1_555
Li0 O7 2.084139 1_556
Li1 O4 1.920798 1_545
Li1 O0 1.920798 1_655
Li1 O3 2.064646 1_555
Li1 O6 2.084139 1_555
As0 O0 1.722975 1_555
As0 O4 1.722975 1_555
As0 O2 1.735492 1_554
As0 O7 1.737731 1_555
As1 O5 1.722975 1_555
As1 O1 1.722975 1_555
As1 O3 1.735492 1_555
As1 O6 1.737731 1_555
O0 Rb2 3.079106 1_555
O0 Rb0 3.101678 1_454
O0 Rb1 3.282807 1_545
O1 Rb3 3.079106 1_555
O1 Rb1 3.101678 1_655
O1 Rb0 3.282807 1_565
O2 Rb2 2.893220 1_555
O2 Rb3 3.066956 1_555
O2 Rb0 3.084202 1_565
O2 Rb0 3.084202 1_455
O3 Rb3 2.893220 1_554
O3 Rb2 3.066956 1_555
O3 Rb1 3.084202 1_655
O3 Rb1 3.084202 1_545
O4 Rb2 3.079106 1_555
O4 Rb0 3.101678 1_564
O4 Rb1 3.282807 1_655
O5 Rb3 3.079106 1_555
O5 Rb1 3.101678 1_545
O5 Rb0 3.282807 1_455
O6 Rb0 2.906171 1_555
O6 Rb2 3.063486 1_655
O6 Rb2 3.063486 1_545
O6 Rb1 3.080742 1_645
O7 Rb1 2.906171 1_555
O7 Rb3 3.063486 1_564
O7 Rb3 3.063486 1_454
O7 Rb0 3.080742 1_464
