# generated using pymatgen
data_Sr2LiLaTi4O12
_symmetry_space_group_name_H-M   'P 1'
_cell_length_a   8.77199082
_cell_length_b   8.77199082
_cell_length_c   8.77199082
_cell_angle_alpha   143.12009227
_cell_angle_beta   143.12009227
_cell_angle_gamma   53.14511776
_symmetry_Int_Tables_number   1
_chemical_formula_structural   Sr2LiLaTi4O12
_chemical_formula_sum   'Sr2 Li1 La1 Ti4 O12'
_cell_volume   241.60094254
_cell_formula_units_Z   1
loop_
 _symmetry_equiv_pos_site_id
 _symmetry_equiv_pos_as_xyz
  1  'x, y, z'
loop_
 _atom_site_type_symbol
 _atom_site_label
 _atom_site_symmetry_multiplicity
 _atom_site_fract_x
 _atom_site_fract_y
 _atom_site_fract_z
 _atom_site_occupancy
  Sr  Sr0  1  0.24827300  0.24827300  0.00000000  1
  Sr  Sr1  1  0.75172700  0.75172700  0.00000000  1
  Li  Li0  1  0.00000000  0.00000000  0.00000000  1
  La  La0  1  0.50000000  0.50000000  0.00000000  1
  Ti  Ti0  1  0.87627100  0.37627100  0.50000000  1
  Ti  Ti1  1  0.12372900  0.62372900  0.50000000  1
  Ti  Ti2  1  0.37627100  0.87627100  0.50000000  1
  Ti  Ti3  1  0.62372900  0.12372900  0.50000000  1
  O  O0  1  0.62022800  0.13295700  0.00000000  1
  O  O1  1  0.86704300  0.37977200  0.00000000  1
  O  O2  1  0.13295700  0.62022800  0.00000000  1
  O  O3  1  0.37977200  0.86704300  0.00000000  1
  O  O4  1  0.75000000  0.25000000  0.50000000  1
  O  O5  1  0.00000000  0.50000000  0.50000000  1
  O  O6  1  0.25000000  0.75000000  0.50000000  1
  O  O7  1  0.50000000  0.00000000  0.50000000  1
  O  O8  1  0.62022800  0.62022800  0.48727100  1
  O  O9  1  0.86704300  0.86704300  0.48727100  1
  O  O10  1  0.13295700  0.13295700  0.51272900  1
  O  O11  1  0.37977200  0.37977200  0.51272900  1
loop_
_geom_bond_atom_site_label_1
_geom_bond_atom_site_label_2
_geom_bond_distance
_geom_bond_site_symmetry_2
La0 O8 2.721286 1_555
La0 O2 2.721286 1_555
La0 O3 2.721286 1_555
La0 O0 2.721286 1_555
La0 O9 2.721286 1_555
La0 O1 2.721286 1_555
La0 O10 2.721286 1_554
La0 O11 2.721286 1_554
La0 O7 2.774674 1_554
La0 O5 2.774674 1_554
La0 O5 2.774674 1_655
La0 O7 2.774674 1_565
O0 Ti0 1.962633 1_555
O0 Ti2 1.962633 1_544
O0 Sr0 2.776657 1_555
O0 Sr1 2.808293 1_545
O1 Ti3 1.962633 1_554
O1 Ti1 1.962633 1_655
O1 Sr1 2.776657 1_555
O1 Sr0 2.808293 1_655
O2 Ti0 1.962633 1_454
O2 Ti2 1.962633 1_555
O2 Sr0 2.776657 1_555
O2 Sr1 2.808293 1_455
O3 Ti1 1.962633 1_554
O3 Ti3 1.962633 1_565
O3 Sr1 2.776657 1_555
O3 Sr0 2.808293 1_565
O4 Ti3 1.981291 1_555
O4 Ti0 1.981291 1_555
O4 Sr1 2.774806 1_556
O4 Sr1 2.774806 1_545
O4 Sr0 2.774806 1_555
O4 Sr0 2.774806 1_656
O5 Ti0 1.941405 1_455
O5 Ti1 1.941405 1_555
O6 Ti1 1.981291 1_555
O6 Ti2 1.981291 1_555
O6 Sr0 2.774806 1_566
O6 Sr1 2.774806 1_556
O6 Sr0 2.774806 1_555
O6 Sr1 2.774806 1_455
O7 Ti2 1.941405 1_545
O7 Ti3 1.941405 1_555
O8 Ti0 1.962633 1_555
O8 Ti2 1.962633 1_555
O8 Sr0 2.776657 1_555
O8 Sr1 2.808293 1_556
O9 Ti3 1.962633 1_565
O9 Ti1 1.962633 1_655
O9 Sr1 2.776657 1_555
O9 Sr0 2.808293 1_666
O10 Ti2 1.962633 1_545
O10 Ti0 1.962633 1_455
O10 Sr0 2.776657 1_556
O10 Sr1 2.808293 1_445
O11 Ti1 1.962633 1_555
O11 Ti3 1.962633 1_555
O11 Sr1 2.776657 1_556
O11 Sr0 2.808293 1_555
