# generated using pymatgen
data_Na2CuH12(SO7)2
_symmetry_space_group_name_H-M   'P 1'
_cell_length_a   5.91887736
_cell_length_b   8.92810825
_cell_length_c   12.19386900
_cell_angle_alpha   90.00000000
_cell_angle_beta   90.00000000
_cell_angle_gamma   102.85588621
_symmetry_Int_Tables_number   1
_chemical_formula_structural   Na2CuH12(SO7)2
_chemical_formula_sum   'Na4 Cu2 H24 S4 O28'
_cell_volume   628.22467777
_cell_formula_units_Z   2
loop_
 _symmetry_equiv_pos_site_id
 _symmetry_equiv_pos_as_xyz
  1  'x, y, z'
loop_
 _atom_site_type_symbol
 _atom_site_label
 _atom_site_symmetry_multiplicity
 _atom_site_fract_x
 _atom_site_fract_y
 _atom_site_fract_z
 _atom_site_occupancy
  Na  Na0  1  0.16520000  0.86927200  0.86678200  1
  Na  Na1  1  0.83480000  0.63072800  0.36678200  1
  Na  Na2  1  0.83480000  0.13072800  0.13321800  1
  Na  Na3  1  0.16520000  0.36927200  0.63321800  1
  Cu  Cu0  1  0.50000000  0.50000000  0.00000000  1
  Cu  Cu1  1  0.50000000  0.00000000  0.50000000  1
  H  H0  1  0.82805100  0.70414300  0.09004300  1
  H  H1  1  0.17194900  0.79585700  0.59004300  1
  H  H2  1  0.17194900  0.29585700  0.90995700  1
  H  H3  1  0.82805100  0.20414300  0.40995700  1
  H  H4  1  0.59102700  0.74432000  0.12746900  1
  H  H5  1  0.40897300  0.75568000  0.62746900  1
  H  H6  1  0.40897300  0.25568000  0.87253100  1
  H  H7  1  0.59102700  0.24432000  0.37253100  1
  H  H8  1  0.17520700  0.46533500  0.14455100  1
  H  H9  1  0.82479300  0.03466500  0.64455100  1
  H  H10  1  0.82479300  0.53466500  0.85544900  1
  H  H11  1  0.17520700  0.96533500  0.35544900  1
  H  H12  1  0.17180700  0.60699400  0.06207100  1
  H  H13  1  0.82819300  0.89300600  0.56207100  1
  H  H14  1  0.82819300  0.39300600  0.93792900  1
  H  H15  1  0.17180700  0.10699400  0.43792900  1
  H  H16  1  0.57382800  0.78739800  0.89142600  1
  H  H17  1  0.42617200  0.71260200  0.39142600  1
  H  H18  1  0.42617200  0.21260200  0.10857400  1
  H  H19  1  0.57382800  0.28739800  0.60857400  1
  H  H20  1  0.47239000  0.65965400  0.80438200  1
  H  H21  1  0.52761000  0.84034600  0.30438200  1
  H  H22  1  0.52761000  0.34034600  0.19561800  1
  H  H23  1  0.47239000  0.15965400  0.69561800  1
  S  S0  1  0.22367500  0.90908600  0.13782000  1
  S  S1  1  0.77632500  0.59091400  0.63782000  1
  S  S2  1  0.77632500  0.09091400  0.86218000  1
  S  S3  1  0.22367500  0.40908600  0.36218000  1
  O  O0  1  0.43849400  0.70167000  0.87605000  1
  O  O1  1  0.56150600  0.79833000  0.37605000  1
  O  O2  1  0.56150600  0.29833000  0.12395000  1
  O  O3  1  0.43849400  0.20167000  0.62395000  1
  O  O4  1  0.66769600  0.65722000  0.11469300  1
  O  O5  1  0.33230400  0.84278000  0.61469300  1
  O  O6  1  0.33230400  0.34278000  0.88530700  1
  O  O7  1  0.66769600  0.15722000  0.38530700  1
  O  O8  1  0.20399700  0.50128000  0.06685900  1
  O  O9  1  0.79600300  0.99872000  0.56685900  1
  O  O10  1  0.79600300  0.49872000  0.93314100  1
  O  O11  1  0.20399700  0.00128000  0.43314100  1
  O  O12  1  0.12257000  0.78164500  0.05925300  1
  O  O13  1  0.87743000  0.71835500  0.55925300  1
  O  O14  1  0.87743000  0.21835500  0.94074700  1
  O  O15  1  0.12257000  0.28164500  0.44074700  1
  O  O16  1  0.21332900  0.05704500  0.08439400  1
  O  O17  1  0.78667100  0.44295500  0.58439400  1
  O  O18  1  0.78667100  0.94295500  0.91560600  1
  O  O19  1  0.21332900  0.55704500  0.41560600  1
  O  O20  1  0.08028600  0.88783400  0.23948500  1
  O  O21  1  0.91971400  0.61216600  0.73948500  1
  O  O22  1  0.91971400  0.11216600  0.76051500  1
  O  O23  1  0.08028600  0.38783400  0.26051500  1
  O  O24  1  0.46966200  0.90427400  0.16355000  1
  O  O25  1  0.53033800  0.59572600  0.66355000  1
  O  O26  1  0.53033800  0.09572600  0.83645000  1
  O  O27  1  0.46966200  0.40427400  0.33645000  1
loop_
_geom_bond_atom_site_label_1
_geom_bond_atom_site_label_2
_geom_bond_distance
_geom_bond_site_symmetry_2
Na0 O0 2.438366 1_555
Na0 O12 2.469035 1_556
Na0 O18 2.542200 1_455
Na0 O26 2.636451 1_565
Na0 O21 2.881951 1_455
Na1 O1 2.438366 1_555
Na1 O13 2.469035 1_555
Na1 O19 2.542200 1_655
Na1 O27 2.636451 1_555
Na1 O20 2.881951 1_655
Na2 O2 2.438366 1_555
Na2 O14 2.469035 1_554
Na2 O16 2.542200 1_655
Na2 O24 2.636451 1_545
Na2 O23 2.881951 1_655
Na3 O3 2.438366 1_555
Na3 O15 2.469035 1_555
Na3 O17 2.542200 1_455
Na3 O25 2.636451 1_555
Na3 O22 2.881951 1_455
Cu0 O8 1.934742 1_555
Cu0 O10 1.934742 1_554
Cu0 O4 2.071584 1_555
Cu0 O6 2.071584 1_554
Cu0 O2 2.439375 1_555
Cu0 O0 2.439375 1_554
Cu1 O9 1.934742 1_545
Cu1 O11 1.934742 1_555
Cu1 O7 2.071584 1_555
Cu1 O5 2.071584 1_545
Cu1 O1 2.439375 1_545
Cu1 O3 2.439375 1_555
H0 O4 0.994859 1_555
H0 O12 1.766864 1_655
H1 O5 0.994859 1_555
H1 O13 1.766864 1_455
H2 O6 0.994859 1_555
H2 O14 1.766864 1_455
H3 O7 0.994859 1_555
H3 O15 1.766864 1_655
H4 O4 0.995970 1_555
H5 O5 0.995970 1_555
H6 O6 0.995970 1_555
H7 O7 0.995970 1_555
H8 O8 1.002594 1_555
H8 O23 1.618941 1_555
H9 O9 1.002594 1_545
H9 O22 1.618941 1_555
H10 O10 1.002594 1_555
H10 O21 1.618941 1_555
H11 O11 1.002594 1_565
H11 O20 1.618941 1_555
H12 O8 1.005256 1_555
H12 O12 1.649168 1_555
H13 O9 1.005256 1_555
H13 O13 1.649168 1_555
H14 O10 1.005256 1_555
H14 O14 1.649168 1_555
H15 O11 1.005256 1_555
H15 O15 1.649168 1_555
H16 O0 0.994881 1_555
H16 O18 1.680557 1_555
H17 O1 0.994881 1_555
H17 O19 1.680557 1_555
H18 O2 0.994881 1_555
H18 O16 1.680557 1_555
H19 O3 0.994881 1_555
H19 O17 1.680557 1_555
H20 O0 0.989029 1_555
H21 O1 0.989029 1_555
H22 O2 0.989029 1_555
H23 O3 0.989029 1_555
O12 S0 1.505840 1_555
O13 S1 1.505840 1_555
O14 S2 1.505840 1_555
O15 S3 1.505840 1_555
O16 S0 1.486333 1_545
O17 S1 1.486333 1_555
O18 S2 1.486333 1_565
O19 S3 1.486333 1_555
O20 S0 1.490459 1_555
O21 S1 1.490459 1_555
O22 S2 1.490459 1_555
O23 S3 1.490459 1_555
O24 S0 1.499319 1_555
O25 S1 1.499319 1_555
O26 S2 1.499319 1_555
O27 S3 1.499319 1_555
