# generated using pymatgen
data_Ba2Mg3Tl2(CoO3)4
_symmetry_space_group_name_H-M   'P 1'
_cell_length_a   21.18790611
_cell_length_b   21.18790611
_cell_length_c   21.18790611
_cell_angle_alpha   169.73689289
_cell_angle_beta   169.73689289
_cell_angle_gamma   14.53376282
_symmetry_Int_Tables_number   1
_chemical_formula_structural   Ba2Mg3Tl2(CoO3)4
_chemical_formula_sum   'Ba2 Mg3 Tl2 Co4 O12'
_cell_volume   301.93439307
_cell_formula_units_Z   1
loop_
 _symmetry_equiv_pos_site_id
 _symmetry_equiv_pos_as_xyz
  1  'x, y, z'
loop_
 _atom_site_type_symbol
 _atom_site_label
 _atom_site_symmetry_multiplicity
 _atom_site_fract_x
 _atom_site_fract_y
 _atom_site_fract_z
 _atom_site_occupancy
  Ba  Ba0  1  0.15501400  0.15501400  0.00000000  1
  Ba  Ba1  1  0.84498600  0.84498600  0.00000000  1
  Mg  Mg0  1  0.07312800  0.07312800  0.00000000  1
  Mg  Mg1  1  0.92687200  0.92687200  0.00000000  1
  Mg  Mg2  1  0.00000000  0.00000000  0.00000000  1
  Tl  Tl0  1  0.72183100  0.72183100  0.00000000  1
  Tl  Tl1  1  0.27816900  0.27816900  0.00000000  1
  Co  Co0  1  0.53469800  0.53469800  0.00000000  1
  Co  Co1  1  0.39823900  0.39823900  0.00000000  1
  Co  Co2  1  0.60176100  0.60176100  0.00000000  1
  Co  Co3  1  0.46530200  0.46530200  0.00000000  1
  O  O0  1  0.89839200  0.39839200  0.50000000  1
  O  O1  1  0.03384000  0.53384000  0.50000000  1
  O  O2  1  0.22573300  0.22573300  0.00000000  1
  O  O3  1  0.46616000  0.96616000  0.50000000  1
  O  O4  1  0.77426700  0.77426700  0.00000000  1
  O  O5  1  0.60160800  0.10160800  0.50000000  1
  O  O6  1  0.10160800  0.60160800  0.50000000  1
  O  O7  1  0.32944200  0.32944200  0.00000000  1
  O  O8  1  0.39839200  0.89839200  0.50000000  1
  O  O9  1  0.53384000  0.03384000  0.50000000  1
  O  O10  1  0.96616000  0.46616000  0.50000000  1
  O  O11  1  0.67055800  0.67055800  0.00000000  1
loop_
_geom_bond_atom_site_label_1
_geom_bond_atom_site_label_2
_geom_bond_distance
_geom_bond_site_symmetry_2
Ba0 O11 2.758584 1_444
Ba0 O11 2.758584 1_545
Ba0 O11 2.758584 1_556
Ba0 O11 2.758584 1_455
Ba0 O5 2.937891 1_454
Ba0 O6 2.937891 1_544
Ba0 O5 2.937891 1_555
Ba0 O6 2.937891 1_555
Ba0 O2 2.972704 1_555
Ba1 O7 2.758584 1_655
Ba1 O7 2.758584 1_666
Ba1 O7 2.758584 1_565
Ba1 O7 2.758584 1_554
Ba1 O0 2.937891 1_554
Ba1 O8 2.937891 1_554
Ba1 O8 2.937891 1_655
Ba1 O0 2.937891 1_565
Ba1 O4 2.972704 1_555
Mg0 O5 2.241571 1_555
Mg0 O5 2.241571 1_454
Mg0 O6 2.241571 1_555
Mg0 O6 2.241571 1_544
Mg0 O9 2.513730 1_454
Mg0 O9 2.513730 1_555
Mg0 O1 2.513730 1_555
Mg0 O1 2.513730 1_544
Mg1 O8 2.241571 1_655
Mg1 O0 2.241571 1_565
Mg1 O0 2.241571 1_554
Mg1 O8 2.241571 1_554
Mg1 O3 2.513730 1_655
Mg1 O10 2.513730 1_565
Mg1 O3 2.513730 1_554
Mg1 O10 2.513730 1_554
Mg2 O10 2.369573 1_455
Mg2 O3 2.369573 1_444
Mg2 O1 2.369573 1_555
Mg2 O3 2.369573 1_545
Mg2 O9 2.369573 1_454
Mg2 O10 2.369573 1_444
Mg2 O1 2.369573 1_544
Mg2 O9 2.369573 1_555
Co0 O1 1.895449 1_554
Co0 O9 1.895449 1_554
Co0 O1 1.895449 1_655
Co0 O9 1.895449 1_565
Co1 O8 1.895117 1_555
Co1 O0 1.895117 1_555
Co1 O0 1.895117 1_454
Co1 O8 1.895117 1_544
Co2 O5 1.895117 1_565
Co2 O6 1.895117 1_655
Co2 O6 1.895117 1_554
Co2 O5 1.895117 1_554
Co3 O10 1.895449 1_555
Co3 O10 1.895449 1_454
Co3 O3 1.895449 1_555
Co3 O3 1.895449 1_544
O2 Tl1 2.204170 1_555
O2 Tl0 2.685099 1_545
O2 Tl0 2.685099 1_455
O2 Tl0 2.685099 1_444
O2 Tl0 2.685099 1_556
O4 Tl0 2.204170 1_555
O4 Tl1 2.685099 1_554
O4 Tl1 2.685099 1_655
O4 Tl1 2.685099 1_565
O4 Tl1 2.685099 1_666
O7 Tl1 2.155283 1_555
O11 Tl0 2.155283 1_555
