# generated using pymatgen
data_Sr2AlCu3O7
_symmetry_space_group_name_H-M   'P 1'
_cell_length_a   5.35707926
_cell_length_b   5.30909386
_cell_length_c   12.05908612
_cell_angle_alpha   102.69927583
_cell_angle_beta   102.81213877
_cell_angle_gamma   90.08469456
_symmetry_Int_Tables_number   1
_chemical_formula_structural   Sr2AlCu3O7
_chemical_formula_sum   'Sr4 Al2 Cu6 O14'
_cell_volume   325.79973734
_cell_formula_units_Z   2
loop_
 _symmetry_equiv_pos_site_id
 _symmetry_equiv_pos_as_xyz
  1  'x, y, z'
loop_
 _atom_site_type_symbol
 _atom_site_label
 _atom_site_symmetry_multiplicity
 _atom_site_fract_x
 _atom_site_fract_y
 _atom_site_fract_z
 _atom_site_occupancy
  Sr  Sr0  1  0.33484624  0.34661602  0.69835552  1
  Sr  Sr1  1  0.63969963  0.65732744  0.30238629  1
  Sr  Sr2  1  0.83494598  0.85438171  0.69827679  1
  Sr  Sr3  1  0.14021081  0.15105565  0.30216781  1
  Al  Al0  1  0.98549970  0.00230076  0.00015179  1
  Al  Al1  1  0.48252281  0.49606699  0.00046646  1
  Cu  Cu0  1  0.25928570  0.69830212  0.50035727  1
  Cu  Cu1  1  0.75908666  0.30466172  0.50020700  1
  Cu  Cu2  1  0.92160701  0.44047625  0.87952978  1
  Cu  Cu3  1  0.04613178  0.56297480  0.12129827  1
  Cu  Cu4  1  0.42249870  0.93781412  0.87942787  1
  Cu  Cu5  1  0.54770323  0.06126548  0.12129479  1
  O  O0  1  0.10237285  0.36014260  0.50015726  1
  O  O1  1  0.60222270  0.64127226  0.50009220  1
  O  O2  1  0.24918033  0.26640846  0.88965078  1
  O  O3  1  0.36353632  0.73314738  0.10961853  1
  O  O4  1  0.75013558  0.12291961  0.89111955  1
  O  O5  1  0.86562856  0.88145052  0.11092369  1
  O  O6  1  0.60573624  0.62183546  0.89212160  1
  O  O7  1  0.71879666  0.37925853  0.11017294  1
  O  O8  1  0.10494542  0.76858535  0.89060624  1
  O  O9  1  0.22005890  0.23455851  0.10850146  1
  O  O10  1  0.31228204  0.83410520  0.66167777  1
  O  O11  1  0.65191435  0.16825794  0.33848900  1
  O  O12  1  0.81138320  0.32882478  0.66142684  1
  O  O13  1  0.15241161  0.67425135  0.33881048  1
loop_
_geom_bond_atom_site_label_1
_geom_bond_atom_site_label_2
_geom_bond_distance
_geom_bond_site_symmetry_2
Al0 O8 1.830500 1_644
Al0 O5 1.834245 1_545
Al0 O9 1.834530 1_655
Al0 O4 1.834655 1_554
Al1 O6 1.831208 1_554
Al1 O7 1.832285 1_555
Al1 O3 1.835543 1_555
Al1 O2 1.836645 1_554
Cu0 O1 1.862953 1_555
Cu0 O10 1.876883 1_555
Cu0 O13 1.880150 1_555
Cu0 O0 1.980534 1_555
Cu1 O0 1.862173 1_655
Cu1 O12 1.877069 1_555
Cu1 O11 1.881088 1_555
Cu1 O1 1.976079 1_555
Cu2 O8 1.962490 1_655
Cu2 O4 1.965116 1_555
Cu2 O6 1.966721 1_555
Cu2 O2 1.976811 1_655
Cu2 O12 2.498459 1_555
Cu3 O5 1.963092 1_455
Cu3 O7 1.969107 1_455
Cu3 O9 1.970367 1_555
Cu3 O3 1.971023 1_555
Cu3 O13 2.491717 1_555
Cu4 O6 1.962739 1_555
Cu4 O8 1.967171 1_555
Cu4 O2 1.970199 1_565
Cu4 O4 1.972444 1_565
Cu4 O10 2.494534 1_555
Cu5 O3 1.962973 1_545
Cu5 O7 1.964122 1_555
Cu5 O5 1.968379 1_545
Cu5 O9 1.974366 1_555
Cu5 O11 2.488128 1_555
O0 Sr3 2.454355 1_555
O0 Sr0 2.454434 1_555
O1 Sr2 2.455942 1_555
O1 Sr1 2.456287 1_555
O2 Sr0 2.571832 1_555
O3 Sr1 2.577291 1_555
O4 Sr2 2.580662 1_545
O5 Sr3 2.563019 1_665
O6 Sr0 2.586414 1_555
O7 Sr1 2.581602 1_555
O8 Sr2 2.580196 1_455
O9 Sr3 2.594513 1_555
O10 Sr0 2.657083 1_565
O10 Sr2 2.688074 1_455
O10 Sr0 2.718299 1_555
O10 Sr2 2.734275 1_555
O11 Sr1 2.649436 1_545
O11 Sr3 2.676514 1_555
O11 Sr1 2.724078 1_555
O11 Sr3 2.744829 1_655
O12 Sr2 2.650711 1_545
O12 Sr0 2.685272 1_555
O12 Sr2 2.725385 1_555
O12 Sr0 2.738216 1_655
O13 Sr3 2.662139 1_565
O13 Sr1 2.681768 1_455
O13 Sr3 2.713323 1_555
O13 Sr1 2.739942 1_555
