# generated using pymatgen
data_Sb2XeF12
_symmetry_space_group_name_H-M   'P 1'
_cell_length_a   7.17223884
_cell_length_b   9.33529329
_cell_length_c   8.07201969
_cell_angle_alpha   90.00000000
_cell_angle_beta   106.78797105
_cell_angle_gamma   90.00000000
_symmetry_Int_Tables_number   1
_chemical_formula_structural   Sb2XeF12
_chemical_formula_sum   'Sb4 Xe2 F24'
_cell_volume   517.42730694
_cell_formula_units_Z   2
loop_
 _symmetry_equiv_pos_site_id
 _symmetry_equiv_pos_as_xyz
  1  'x, y, z'
loop_
 _atom_site_type_symbol
 _atom_site_label
 _atom_site_symmetry_multiplicity
 _atom_site_fract_x
 _atom_site_fract_y
 _atom_site_fract_z
 _atom_site_occupancy
  Sb  Sb0  1  0.05023583  0.94871770  0.14325607  1
  Sb  Sb1  1  0.94976417  0.44871770  0.85674393  1
  Sb  Sb2  1  0.68933007  0.71159636  0.30432042  1
  Sb  Sb3  1  0.31066993  0.21159636  0.69567958  1
  Xe  Xe0  1  0.68427474  0.21736870  0.29409812  1
  Xe  Xe1  1  0.31572526  0.71736870  0.70590188  1
  F  F0  1  0.86721415  0.79004493  0.16246664  1
  F  F1  1  0.13278585  0.29004493  0.83753336  1
  F  F2  1  0.21262121  0.10444879  0.14107649  1
  F  F3  1  0.78737879  0.60444879  0.85892351  1
  F  F4  1  0.21180212  0.87492255  0.35004863  1
  F  F5  1  0.78819788  0.37492255  0.64995137  1
  F  F6  1  0.14871888  0.82526568  0.00717414  1
  F  F7  1  0.85128112  0.32526568  0.99282586  1
  F  F8  1  0.48232389  0.35700902  0.29840699  1
  F  F9  1  0.51767611  0.85700902  0.70159301  1
  F  F10  1  0.84871066  0.01213569  0.95598842  1
  F  F11  1  0.15128934  0.51213569  0.04401158  1
  F  F12  1  0.53011926  0.64320532  0.43401503  1
  F  F13  1  0.46988074  0.14320532  0.56598497  1
  F  F14  1  0.84113936  0.54501440  0.32478267  1
  F  F15  1  0.15886064  0.04501440  0.67521733  1
  F  F16  1  0.87519471  0.79057732  0.49622994  1
  F  F17  1  0.12480529  0.29057732  0.50377006  1
  F  F18  1  0.53288494  0.64537620  0.09044569  1
  F  F19  1  0.46711506  0.14537620  0.90955431  1
  F  F20  1  0.92541409  0.05485480  0.29320450  1
  F  F21  1  0.07458591  0.55485480  0.70679550  1
  F  F22  1  0.56881205  0.89199356  0.25708770  1
  F  F23  1  0.43118795  0.39199356  0.74291230  1
loop_
_geom_bond_atom_site_label_1
_geom_bond_atom_site_label_2
_geom_bond_distance
_geom_bond_site_symmetry_2
F0 Sb0 2.014664 1_655
F0 Sb2 2.078241 1_555
F1 Sb1 2.014664 1_455
F1 Sb3 2.078241 1_555
F2 Sb0 1.866043 1_545
F3 Sb1 1.866043 1_555
F4 Sb0 1.867178 1_555
F5 Sb1 1.867178 1_555
F6 Sb0 1.865983 1_555
F7 Sb1 1.865983 1_555
F8 Xe0 1.956430 1_555
F9 Xe1 1.956430 1_555
F10 Sb0 1.860788 1_646
F11 Sb1 1.860788 1_454
F12 Sb2 1.870323 1_555
F13 Sb3 1.870323 1_555
F14 Sb2 1.878089 1_555
F15 Sb3 1.878089 1_555
F16 Sb2 1.878162 1_555
F17 Sb3 1.878162 1_555
F18 Sb2 1.871532 1_555
F19 Sb3 1.871532 1_555
F20 Sb0 1.968297 1_645
F20 Xe0 2.302194 1_555
F21 Sb1 1.968297 1_455
F21 Xe1 2.302194 1_555
F22 Sb2 1.881013 1_555
F23 Sb3 1.881013 1_555
