# generated using pymatgen
data_AlMoO3
_symmetry_space_group_name_H-M   'P 1'
_cell_length_a   5.54697142
_cell_length_b   5.54697142
_cell_length_c   12.04097600
_cell_angle_alpha   90.00000000
_cell_angle_beta   90.00000000
_cell_angle_gamma   119.99999312
_symmetry_Int_Tables_number   1
_chemical_formula_structural   AlMoO3
_chemical_formula_sum   'Al6 Mo6 O18'
_cell_volume   320.85160015
_cell_formula_units_Z   6
loop_
 _symmetry_equiv_pos_site_id
 _symmetry_equiv_pos_as_xyz
  1  'x, y, z'
loop_
 _atom_site_type_symbol
 _atom_site_label
 _atom_site_symmetry_multiplicity
 _atom_site_fract_x
 _atom_site_fract_y
 _atom_site_fract_z
 _atom_site_occupancy
  Al  Al0  1  0.66666700  0.33333300  0.26048500  1
  Al  Al1  1  0.33333300  0.66666700  0.76048500  1
  Al  Al2  1  0.66666700  0.33333300  0.76048500  1
  Al  Al3  1  0.33333300  0.66666700  0.26048500  1
  Al  Al4  1  0.00000000  0.00000000  0.73803800  1
  Al  Al5  1  0.00000000  0.00000000  0.23803800  1
  Mo  Mo0  1  0.70110200  0.00000000  0.49903600  1
  Mo  Mo1  1  0.70110200  0.70110200  0.99903600  1
  Mo  Mo2  1  0.00000000  0.29889800  0.99903600  1
  Mo  Mo3  1  0.00000000  0.70110200  0.49903600  1
  Mo  Mo4  1  0.29889800  0.29889800  0.49903600  1
  Mo  Mo5  1  0.29889800  0.00000000  0.99903600  1
  O  O0  1  0.66666700  0.33333300  0.03457100  1
  O  O1  1  0.33333300  0.66666700  0.53457100  1
  O  O2  1  0.66666700  0.33333300  0.53457100  1
  O  O3  1  0.33333300  0.66666700  0.03457100  1
  O  O4  1  0.00000000  0.00000000  0.89688900  1
  O  O5  1  0.00000000  0.00000000  0.39688900  1
  O  O6  1  0.42661300  0.00000000  0.83660600  1
  O  O7  1  0.42661300  0.42661300  0.33660600  1
  O  O8  1  0.00000000  0.57338700  0.33660600  1
  O  O9  1  0.00000000  0.42661300  0.83660600  1
  O  O10  1  0.57338700  0.57338700  0.83660600  1
  O  O11  1  0.57338700  0.00000000  0.33660600  1
  O  O12  1  0.30409800  0.00000000  0.18101200  1
  O  O13  1  0.30409800  0.30409800  0.68101200  1
  O  O14  1  0.00000000  0.69590200  0.68101200  1
  O  O15  1  0.00000000  0.30409800  0.18101200  1
  O  O16  1  0.69590200  0.69590200  0.18101200  1
  O  O17  1  0.69590200  0.00000000  0.68101200  1
loop_
_geom_bond_atom_site_label_1
_geom_bond_atom_site_label_2
_geom_bond_distance
_geom_bond_site_symmetry_2
Al0 O11 1.889413 1_555
Al0 O8 1.889414 1_655
Al0 O7 1.889417 1_555
Al0 O15 2.158847 1_655
Al0 O12 2.158850 1_555
Al0 O16 2.158852 1_555
Al1 O6 1.889413 1_565
Al1 O9 1.889414 1_555
Al1 O10 1.889417 1_555
Al1 O14 2.158847 1_555
Al1 O17 2.158850 1_565
Al1 O13 2.158852 1_555
Al2 O9 1.889413 1_655
Al2 O6 1.889414 1_555
Al2 O10 1.889417 1_555
Al2 O17 2.158847 1_555
Al2 O14 2.158850 1_655
Al2 O13 2.158852 1_555
Al3 O8 1.889413 1_555
Al3 O11 1.889414 1_565
Al3 O7 1.889417 1_555
Al3 O12 2.158847 1_565
Al3 O15 2.158850 1_555
Al3 O16 2.158852 1_555
Al4 O17 1.821224 1_455
Al4 O14 1.821224 1_545
Al4 O13 1.821224 1_555
Al4 O4 1.912721 1_555
Al5 O12 1.821224 1_555
Al5 O15 1.821224 1_555
Al5 O16 1.821224 1_445
Al5 O5 1.912721 1_555
Mo0 O2 1.997873 1_555
Mo0 O1 1.997876 1_545
Mo0 O5 2.064381 1_655
Mo0 O11 2.080166 1_555
Mo0 O17 2.191358 1_555
Mo1 O3 1.997879 1_556
Mo1 O0 1.997879 1_556
Mo1 O4 2.064381 1_665
Mo1 O10 2.080166 1_555
Mo1 O16 2.191358 1_556
Mo2 O0 1.997873 1_456
Mo2 O3 1.997876 1_556
Mo2 O4 2.064381 1_555
Mo2 O9 2.080166 1_555
Mo2 O15 2.191358 1_556
Mo3 O1 1.997873 1_555
Mo3 O2 1.997876 1_455
Mo3 O5 2.064381 1_565
Mo3 O8 2.080166 1_555
Mo3 O14 2.191358 1_555
Mo4 O2 1.997879 1_555
Mo4 O1 1.997879 1_555
Mo4 O5 2.064381 1_555
Mo4 O7 2.080166 1_555
Mo4 O13 2.191358 1_555
Mo5 O3 1.997873 1_546
Mo5 O0 1.997876 1_556
Mo5 O4 2.064381 1_555
Mo5 O6 2.080166 1_555
Mo5 O12 2.191358 1_556
