# generated using pymatgen
data_Na3VH11IO13
_symmetry_space_group_name_H-M   'P 1'
_cell_length_a   6.30672412
_cell_length_b   9.03130637
_cell_length_c   11.45427059
_cell_angle_alpha   70.05336694
_cell_angle_beta   83.90163493
_cell_angle_gamma   80.69655111
_symmetry_Int_Tables_number   1
_chemical_formula_structural   Na3VH11IO13
_chemical_formula_sum   'Na6 V2 H22 I2 O26'
_cell_volume   604.28877291
_cell_formula_units_Z   2
loop_
 _symmetry_equiv_pos_site_id
 _symmetry_equiv_pos_as_xyz
  1  'x, y, z'
loop_
 _atom_site_type_symbol
 _atom_site_label
 _atom_site_symmetry_multiplicity
 _atom_site_fract_x
 _atom_site_fract_y
 _atom_site_fract_z
 _atom_site_occupancy
  Na  Na0  1  0.32576200  0.92706200  0.84029000  1
  Na  Na1  1  0.67423800  0.07293800  0.15971000  1
  Na  Na2  1  0.39868600  0.52475200  0.14742700  1
  Na  Na3  1  0.60131400  0.47524800  0.85257300  1
  Na  Na4  1  0.42185600  0.76811900  0.57367000  1
  Na  Na5  1  0.57814400  0.23188000  0.42633000  1
  V  V0  1  0.94818900  0.82385300  0.46206600  1
  V  V1  1  0.05181100  0.17614700  0.53793400  1
  H  H0  1  0.29359800  0.86520400  0.29653000  1
  H  H1  1  0.70640200  0.13479600  0.70347000  1
  H  H2  1  0.55441200  0.81561900  0.06452100  1
  H  H3  1  0.44558800  0.18438100  0.93547900  1
  H  H4  1  0.87634400  0.84092900  0.00607600  1
  H  H5  1  0.12365600  0.15907100  0.99392400  1
  H  H6  1  0.88592100  0.75135800  0.15001900  1
  H  H7  1  0.11407900  0.24864200  0.84998100  1
  H  H8  1  0.19105700  0.40889600  0.01074500  1
  H  H9  1  0.80894300  0.59110400  0.98925500  1
  H  H10  1  0.00524400  0.48165400  0.29241300  1
  H  H11  1  0.99475600  0.51834600  0.70758700  1
  H  H12  1  0.07371900  0.62856300  0.31975800  1
  H  H13  1  0.92628100  0.37143700  0.68024200  1
  H  H14  1  0.31465300  0.86417000  0.09528300  1
  H  H15  1  0.68534700  0.13583000  0.90471700  1
  H  H16  1  0.15162000  0.59030600  0.92509900  1
  H  H17  1  0.84838000  0.40969400  0.07490100  1
  H  H18  1  0.35478200  0.43433000  0.64576000  1
  H  H19  1  0.64521800  0.56567000  0.35424000  1
  H  H20  1  0.39887000  0.57693100  0.38154400  1
  H  H21  1  0.60113000  0.42306900  0.61845600  1
  I  I0  1  0.84935600  0.86183300  0.72125600  1
  I  I1  1  0.15064400  0.13816700  0.27874400  1
  O  O0  1  0.02533200  0.72353800  0.64120500  1
  O  O1  1  0.97466800  0.27646200  0.35879500  1
  O  O2  1  0.67326300  0.03444700  0.77247000  1
  O  O3  1  0.32673700  0.96555300  0.22753000  1
  O  O4  1  0.95952700  0.76160100  0.87675800  1
  O  O5  1  0.04047300  0.23839900  0.12324200  1
  O  O6  1  0.78488100  0.97949300  0.55032600  1
  O  O7  1  0.21511900  0.02050700  0.44967400  1
  O  O8  1  0.08618100  0.99209800  0.68383000  1
  O  O9  1  0.91381900  0.00790200  0.31617000  1
  O  O10  1  0.61108900  0.75816300  0.75300300  1
  O  O11  1  0.38891100  0.24183700  0.24699700  1
  O  O12  1  0.74739500  0.73352400  0.45042500  1
  O  O13  1  0.25260500  0.26647600  0.54957500  1
  O  O14  1  0.18071500  0.72443700  0.41317300  1
  O  O15  1  0.81928500  0.27556300  0.58682700  1
  O  O16  1  0.40648300  0.80242100  0.04926700  1
  O  O17  1  0.59351700  0.19757900  0.95073300  1
  O  O18  1  0.81330800  0.84777700  0.08732400  1
  O  O19  1  0.18669200  0.15222300  0.91267600  1
  O  O20  1  0.26412000  0.50216900  0.96480300  1
  O  O21  1  0.73588000  0.49783100  0.03519700  1
  O  O22  1  0.48015900  0.48006000  0.65508400  1
  O  O23  1  0.51984100  0.51994000  0.34491600  1
  O  O24  1  0.03911300  0.59209900  0.25229900  1
  O  O25  1  0.96088700  0.40790100  0.74770100  1
loop_
_geom_bond_atom_site_label_1
_geom_bond_atom_site_label_2
_geom_bond_distance
_geom_bond_site_symmetry_2
Na0 O8 2.325935 1_555
Na0 O16 2.343332 1_556
Na0 O19 2.451738 1_565
Na0 O2 2.481646 1_565
Na0 O10 2.517005 1_555
Na0 O4 2.868362 1_455
Na1 O9 2.325935 1_555
Na1 O17 2.343332 1_554
Na1 O18 2.451738 1_545
Na1 O3 2.481646 1_545
Na1 O11 2.517005 1_555
Na1 O5 2.868362 1_655
Na2 O16 2.378988 1_555
Na2 O21 2.387314 1_555
Na2 O20 2.421119 1_554
Na2 O11 2.425032 1_555
Na2 O23 2.447901 1_555
Na2 O24 2.535595 1_555
Na3 O17 2.378988 1_555
Na3 O20 2.387314 1_555
Na3 O21 2.421119 1_556
Na3 O10 2.425032 1_555
Na3 O22 2.447901 1_555
Na3 O25 2.535595 1_555
Na4 O12 2.404858 1_555
Na4 O22 2.425116 1_555
Na4 O10 2.451935 1_555
Na4 O7 2.477203 1_565
Na4 O0 2.591595 1_555
Na4 O14 2.670388 1_555
Na5 O13 2.404860 1_555
Na5 O23 2.425125 1_555
Na5 O11 2.451932 1_555
Na5 O6 2.477197 1_545
Na5 O1 2.591597 1_555
Na5 O15 2.670392 1_555
H0 O3 1.013465 1_555
H1 O2 1.013465 1_555
H2 O16 0.999963 1_555
H3 O17 0.999963 1_555
H4 O18 0.990286 1_555
H5 O19 0.990286 1_555
H6 O18 0.998987 1_555
H7 O19 0.998987 1_555
H8 O20 0.985077 1_554
H9 O21 0.985077 1_556
H10 O24 0.993484 1_555
H10 O1 1.781152 1_455
H11 O25 0.993484 1_555
H11 O0 1.781152 1_655
H12 O24 0.992887 1_555
H13 O25 0.992887 1_555
H14 O16 0.977492 1_555
H15 O17 0.977492 1_555
H16 O20 0.991360 1_555
H17 O21 0.991360 1_555
H18 O22 0.980223 1_555
H19 O23 0.980223 1_555
H20 O23 0.987605 1_555
H21 O22 0.987605 1_555
I0 O10 1.836683 1_555
I0 O4 1.853171 1_555
I0 O6 1.933327 1_555
I0 O0 1.936341 1_655
I0 O8 1.971456 1_655
I0 O2 1.983307 1_565
I1 O11 1.836683 1_555
I1 O5 1.853171 1_555
I1 O7 1.933327 1_555
I1 O1 1.936341 1_455
I1 O9 1.971456 1_455
I1 O3 1.983307 1_545
O0 V0 2.017188 1_455
O1 V1 2.017188 1_655
O6 V0 2.082989 1_555
O6 V1 2.598544 1_665
O7 V1 2.082989 1_555
O7 V0 2.598544 1_445
O8 V1 1.915155 1_565
O9 V0 1.915155 1_545
O12 V0 1.652590 1_555
O13 V1 1.652590 1_555
O14 V0 1.735856 1_455
O15 V1 1.735856 1_655
