# generated using pymatgen
data_Gd3Cu2Te7
_symmetry_space_group_name_H-M   'P 1'
_cell_length_a   6.20037663
_cell_length_b   11.26025519
_cell_length_c   11.26033334
_cell_angle_alpha   118.04488959
_cell_angle_beta   90.00000000
_cell_angle_gamma   90.00000000
_symmetry_Int_Tables_number   1
_chemical_formula_structural   Gd3Cu2Te7
_chemical_formula_sum   'Gd6 Cu4 Te14'
_cell_volume   693.85925984
_cell_formula_units_Z   2
loop_
 _symmetry_equiv_pos_site_id
 _symmetry_equiv_pos_as_xyz
  1  'x, y, z'
loop_
 _atom_site_type_symbol
 _atom_site_label
 _atom_site_symmetry_multiplicity
 _atom_site_fract_x
 _atom_site_fract_y
 _atom_site_fract_z
 _atom_site_occupancy
  Gd  Gd0  1  0.75000000  0.41437719  0.59134444  1
  Gd  Gd1  1  0.25000000  0.59130959  0.41427630  1
  Gd  Gd2  1  0.75000000  0.90264249  0.61657308  1
  Gd  Gd3  1  0.25000000  0.61634388  0.90236979  1
  Gd  Gd4  1  0.25000000  0.09264938  0.37785263  1
  Gd  Gd5  1  0.75000000  0.37798071  0.09249193  1
  Cu  Cu0  1  0.75000000  0.23581729  0.76555010  1
  Cu  Cu1  1  0.25000000  0.76560940  0.23591924  1
  Cu  Cu2  1  0.75000000  0.85185206  0.29223475  1
  Cu  Cu3  1  0.25000000  0.29231069  0.85206406  1
  Te  Te0  1  0.75000000  0.65464972  0.34397540  1
  Te  Te1  1  0.25000000  0.34370425  0.65457596  1
  Te  Te2  1  0.75000000  0.10437644  0.49792139  1
  Te  Te3  1  0.25000000  0.49801538  0.10435386  1
  Te  Te4  1  0.25000000  0.89452920  0.50043174  1
  Te  Te5  1  0.75000000  0.50047232  0.89450868  1
  Te  Te6  1  0.49931237  0.87751307  0.11929864  1
  Te  Te7  1  0.50050448  0.11916319  0.87764126  1
  Te  Te8  1  0.00068763  0.87751307  0.11929864  1
  Te  Te9  1  -0.00050448  0.11916319  0.87764126  1
  Te  Te10  1  0.50005508  0.31058740  0.31048017  1
  Te  Te11  1  -0.00005508  0.31058740  0.31048017  1
  Te  Te12  1  0.49995471  0.69401735  0.69395626  1
  Te  Te13  1  0.00004529  0.69401735  0.69395626  1
loop_
_geom_bond_atom_site_label_1
_geom_bond_atom_site_label_2
_geom_bond_distance
_geom_bond_site_symmetry_2
Gd0 Te5 3.079193 1_555
Gd0 Te2 3.136649 1_555
Gd0 Te12 3.198844 1_555
Gd0 Te13 3.198844 1_655
Gd0 Te10 3.208457 1_555
Gd0 Te11 3.208457 1_655
Gd0 Te1 3.359198 1_555
Gd0 Te1 3.359198 1_655
Gd1 Te4 3.079628 1_555
Gd1 Te3 3.136103 1_555
Gd1 Te13 3.198846 1_555
Gd1 Te12 3.198846 1_555
Gd1 Te10 3.207458 1_555
Gd1 Te11 3.207458 1_555
Gd1 Te0 3.358186 1_455
Gd1 Te0 3.358186 1_555
Gd2 Te0 3.026524 1_555
Gd2 Te2 3.130328 1_565
Gd2 Te7 3.199952 1_565
Gd2 Te9 3.199952 1_665
Gd2 Te12 3.256742 1_555
Gd2 Te13 3.256742 1_655
Gd2 Te4 3.349251 1_655
Gd2 Te4 3.349251 1_555
Gd3 Te1 3.025796 1_555
Gd3 Te3 3.130152 1_556
Gd3 Te8 3.201554 1_556
Gd3 Te6 3.201554 1_556
Gd3 Te13 3.256451 1_555
Gd3 Te12 3.256451 1_555
Gd3 Te5 3.348545 1_555
Gd3 Te5 3.348545 1_455
Gd4 Te1 3.068867 1_555
Gd4 Te4 3.126902 1_545
Gd4 Te8 3.178419 1_545
Gd4 Te6 3.178419 1_545
Gd4 Te10 3.279071 1_555
Gd4 Te11 3.279071 1_555
Gd4 Te2 3.359861 1_555
Gd4 Te2 3.359861 1_455
Gd5 Te0 3.070653 1_555
Gd5 Te5 3.124724 1_554
Gd5 Te7 3.179558 1_554
Gd5 Te9 3.179558 1_654
Gd5 Te11 3.279381 1_655
Gd5 Te10 3.279381 1_555
Gd5 Te3 3.359483 1_555
Gd5 Te3 3.359483 1_655
Cu0 Te5 2.630655 1_555
Cu0 Te2 2.660482 1_555
Cu0 Te9 2.696414 1_655
Cu0 Te7 2.696414 1_555
Cu0 Gd5 3.251797 1_556
Cu0 Gd2 3.312240 1_545
Cu0 Gd0 3.405772 1_555
Cu1 Te4 2.629262 1_555
Cu1 Te3 2.660157 1_555
Cu1 Te6 2.694025 1_555
Cu1 Te8 2.694025 1_555
Cu1 Gd4 3.252874 1_565
Cu1 Gd3 3.315953 1_554
Cu1 Gd1 3.404711 1_555
Cu2 Te0 2.546921 1_555
Cu2 Te8 2.611641 1_655
Cu2 Te6 2.611641 1_555
Cu2 Te2 2.693871 1_565
Cu2 Gd2 3.420711 1_555
Cu3 Te1 2.547592 1_555
Cu3 Te7 2.612419 1_555
Cu3 Te9 2.612419 1_555
Cu3 Te3 2.692233 1_556
Cu3 Gd3 3.419117 1_555
Te10 Te11 3.099505 1_655
Te10 Te11 3.100871 1_555
Te12 Te13 3.099627 1_555
Te12 Te13 3.100750 1_655
