# generated using pymatgen
data_HfMg6Ni
_symmetry_space_group_name_H-M   'P 1'
_cell_length_a   6.22159112
_cell_length_b   6.22159112
_cell_length_c   4.89176700
_cell_angle_alpha   90.00000000
_cell_angle_beta   90.00000000
_cell_angle_gamma   123.06241890
_symmetry_Int_Tables_number   1
_chemical_formula_structural   HfMg6Ni
_chemical_formula_sum   'Hf1 Mg6 Ni1'
_cell_volume   158.69106641
_cell_formula_units_Z   1
loop_
 _symmetry_equiv_pos_site_id
 _symmetry_equiv_pos_as_xyz
  1  'x, y, z'
loop_
 _atom_site_type_symbol
 _atom_site_label
 _atom_site_symmetry_multiplicity
 _atom_site_fract_x
 _atom_site_fract_y
 _atom_site_fract_z
 _atom_site_occupancy
  Hf  Hf0  1  0.32840500  0.67159500  0.50000000  1
  Mg  Mg0  1  0.32670900  0.16509900  0.50000000  1
  Mg  Mg1  1  0.83490100  0.67329100  0.50000000  1
  Mg  Mg2  1  0.15398800  0.32811600  0.00000000  1
  Mg  Mg3  1  0.67188400  0.84601200  0.00000000  1
  Mg  Mg4  1  0.67844400  0.32155600  0.00000000  1
  Mg  Mg5  1  0.16988800  0.83011200  0.00000000  1
  Ni  Ni0  1  0.83578500  0.16421500  0.50000000  1
loop_
_geom_bond_atom_site_label_1
_geom_bond_atom_site_label_2
_geom_bond_distance
_geom_bond_site_symmetry_2
Hf0 Ni0 2.966806 1_565
Hf0 Ni0 2.966806 1_455
Hf0 Mg5 2.998149 1_555
Hf0 Mg5 2.998149 1_556
Hf0 Mg2 3.032555 1_555
Hf0 Mg3 3.032555 1_555
Hf0 Mg3 3.032555 1_556
Hf0 Mg2 3.032555 1_556
Hf0 Mg1 3.076149 1_455
Hf0 Mg0 3.076149 1_565
Hf0 Mg0 3.145467 1_555
Hf0 Mg1 3.145467 1_555
Mg0 Mg1 2.917118 1_445
Mg0 Mg5 3.009861 1_546
Mg0 Mg5 3.009861 1_545
Mg0 Mg1 3.014298 1_555
Mg0 Ni0 3.051331 1_455
Mg0 Mg2 3.058585 1_555
Mg0 Mg2 3.058585 1_556
Mg0 Mg4 3.065049 1_556
Mg0 Mg4 3.065049 1_555
Mg0 Ni0 3.170267 1_555
Mg1 Mg5 3.009861 1_656
Mg1 Mg5 3.009861 1_655
Mg1 Ni0 3.051331 1_565
Mg1 Mg3 3.058585 1_555
Mg1 Mg3 3.058585 1_556
Mg1 Mg4 3.065049 1_555
Mg1 Mg4 3.065049 1_556
Mg1 Ni0 3.170267 1_555
Mg2 Ni0 2.956148 1_455
Mg2 Ni0 2.956148 1_454
Mg2 Mg5 3.070366 1_555
Mg2 Mg5 3.153435 1_545
Mg3 Ni0 2.956148 1_565
Mg3 Ni0 2.956148 1_564
Mg3 Mg5 3.070366 1_555
Mg3 Mg5 3.153435 1_655
Mg4 Mg5 2.967184 1_545
Mg4 Mg5 2.967184 1_655
Mg4 Ni0 2.990728 1_554
Mg4 Ni0 2.990728 1_555
