# generated using pymatgen
data_Sr4Zr3O10
_symmetry_space_group_name_H-M   'P 1'
_cell_length_a   5.87391200
_cell_length_b   5.90186400
_cell_length_c   29.46510000
_cell_angle_alpha   90.00000000
_cell_angle_beta   90.00000000
_cell_angle_gamma   90.00000000
_symmetry_Int_Tables_number   1
_chemical_formula_structural   Sr4Zr3O10
_chemical_formula_sum   'Sr16 Zr12 O40'
_cell_volume   1021.46749893
_cell_formula_units_Z   4
loop_
 _symmetry_equiv_pos_site_id
 _symmetry_equiv_pos_as_xyz
  1  'x, y, z'
loop_
 _atom_site_type_symbol
 _atom_site_label
 _atom_site_symmetry_multiplicity
 _atom_site_fract_x
 _atom_site_fract_y
 _atom_site_fract_z
 _atom_site_occupancy
  Sr  Sr0  1  0.01138500  0.02607300  0.29396400  1
  Sr  Sr1  1  0.98861500  0.97392700  0.70603600  1
  Sr  Sr2  1  0.48861500  0.97392700  0.79396400  1
  Sr  Sr3  1  0.98861500  0.52607300  0.20603600  1
  Sr  Sr4  1  0.51138500  0.02607300  0.20603600  1
  Sr  Sr5  1  0.01138500  0.47392700  0.79396400  1
  Sr  Sr6  1  0.51138500  0.47392700  0.70603600  1
  Sr  Sr7  1  0.48861500  0.52607300  0.29396400  1
  Sr  Sr8  1  0.49672100  0.46866900  0.42989500  1
  Sr  Sr9  1  0.50327900  0.53133100  0.57010500  1
  Sr  Sr10  1  0.00327900  0.53133100  0.92989500  1
  Sr  Sr11  1  0.50327900  0.96866900  0.07010500  1
  Sr  Sr12  1  0.99672100  0.46866900  0.07010500  1
  Sr  Sr13  1  0.49672100  0.03133100  0.92989500  1
  Sr  Sr14  1  0.99672100  0.03133100  0.57010500  1
  Sr  Sr15  1  0.00327900  0.96866900  0.42989500  1
  Zr  Zr0  1  0.00159200  0.99985600  0.14188000  1
  Zr  Zr1  1  0.99840800  0.00014400  0.85812000  1
  Zr  Zr2  1  0.49840800  0.00014400  0.64188000  1
  Zr  Zr3  1  0.99840800  0.49985600  0.35812000  1
  Zr  Zr4  1  0.50159200  0.99985600  0.35812000  1
  Zr  Zr5  1  0.00159200  0.50014400  0.64188000  1
  Zr  Zr6  1  0.50159200  0.50014400  0.85812000  1
  Zr  Zr7  1  0.49840800  0.49985600  0.14188000  1
  Zr  Zr8  1  0.00000000  0.00000000  0.00000000  1
  Zr  Zr9  1  0.50000000  0.00000000  0.50000000  1
  Zr  Zr10  1  0.00000000  0.50000000  0.50000000  1
  Zr  Zr11  1  0.50000000  0.50000000  0.00000000  1
  O  O0  1  0.07036100  0.01792700  0.07039600  1
  O  O1  1  0.92963900  0.98207300  0.92960400  1
  O  O2  1  0.42963900  0.98207300  0.57039600  1
  O  O3  1  0.92963900  0.51792700  0.42960400  1
  O  O4  1  0.57036100  0.01792700  0.42960400  1
  O  O5  1  0.07036100  0.48207300  0.57039600  1
  O  O6  1  0.57036100  0.48207300  0.92960400  1
  O  O7  1  0.42963900  0.51792700  0.07039600  1
  O  O8  1  0.21105900  0.21003900  0.36827700  1
  O  O9  1  0.78894100  0.78996100  0.63172300  1
  O  O10  1  0.28894100  0.78996100  0.86827700  1
  O  O11  1  0.78894100  0.71003900  0.13172300  1
  O  O12  1  0.71105900  0.21003900  0.13172300  1
  O  O13  1  0.21105900  0.28996100  0.86827700  1
  O  O14  1  0.71105900  0.28996100  0.63172300  1
  O  O15  1  0.28894100  0.71003900  0.36827700  1
  O  O16  1  0.20933400  0.20921300  0.48967100  1
  O  O17  1  0.79066600  0.79078700  0.51032900  1
  O  O18  1  0.29066600  0.79078700  0.98967100  1
  O  O19  1  0.79066600  0.70921300  0.01032900  1
  O  O20  1  0.70933400  0.20921300  0.01032900  1
  O  O21  1  0.20933400  0.29078700  0.98967100  1
  O  O22  1  0.70933400  0.29078700  0.51032900  1
  O  O23  1  0.29066600  0.70921300  0.48967100  1
  O  O24  1  0.21048000  0.28840500  0.15027400  1
  O  O25  1  0.78952000  0.71159500  0.84972600  1
  O  O26  1  0.28952000  0.71159500  0.65027400  1
  O  O27  1  0.78952000  0.78840500  0.34972600  1
  O  O28  1  0.71048000  0.28840500  0.34972600  1
  O  O29  1  0.21048000  0.21159500  0.65027400  1
  O  O30  1  0.71048000  0.21159500  0.84972600  1
  O  O31  1  0.28952000  0.78840500  0.15027400  1
  O  O32  1  0.05996000  0.48263300  0.28773900  1
  O  O33  1  0.94004000  0.51736700  0.71226100  1
  O  O34  1  0.44004000  0.51736700  0.78773900  1
  O  O35  1  0.94004000  0.98263300  0.21226100  1
  O  O36  1  0.55996000  0.48263300  0.21226100  1
  O  O37  1  0.05996000  0.01736700  0.78773900  1
  O  O38  1  0.55996000  0.01736700  0.71226100  1
  O  O39  1  0.44004000  0.98263300  0.28773900  1
loop_
_geom_bond_atom_site_label_1
_geom_bond_atom_site_label_2
_geom_bond_distance
_geom_bond_site_symmetry_2
O0 Zr8 2.117644 1_555
O0 Zr0 2.147318 1_545
O0 Sr11 2.559500 1_545
O0 Sr12 2.695169 1_455
O1 Zr8 2.117644 1_666
O1 Zr1 2.147318 1_565
O1 Sr13 2.559500 1_565
O1 Sr10 2.695169 1_655
O2 Zr9 2.117644 1_565
O2 Zr2 2.147318 1_565
O2 Sr14 2.559500 1_465
O2 Sr9 2.695169 1_555
O3 Zr10 2.117644 1_655
O3 Zr3 2.147318 1_555
O3 Sr8 2.559500 1_555
O3 Sr15 2.695169 1_655
O4 Zr9 2.117644 1_555
O4 Zr4 2.147318 1_545
O4 Sr15 2.559500 1_645
O4 Sr8 2.695169 1_555
O5 Zr10 2.117644 1_555
O5 Zr5 2.147318 1_555
O5 Sr9 2.559500 1_555
O5 Sr14 2.695169 1_455
O6 Zr11 2.117644 1_556
O6 Zr6 2.147318 1_555
O6 Sr10 2.559500 1_655
O6 Sr13 2.695169 1_555
O7 Zr11 2.117644 1_555
O7 Zr7 2.147318 1_555
O7 Sr12 2.559500 1_455
O7 Sr11 2.695169 1_555
O8 Zr4 2.130892 1_545
O8 Zr3 2.139036 1_455
O8 Sr15 2.610594 1_545
O8 Sr0 2.710900 1_555
O8 Sr8 2.905470 1_555
O9 Zr2 2.130892 1_565
O9 Zr5 2.139036 1_655
O9 Sr14 2.610594 1_565
O9 Sr1 2.710900 1_555
O9 Sr9 2.905470 1_555
O10 Zr1 2.130892 1_465
O10 Zr6 2.139036 1_555
O10 Sr13 2.610594 1_565
O10 Sr2 2.710900 1_555
O10 Sr10 2.905470 1_555
O11 Zr7 2.130892 1_555
O11 Zr0 2.139036 1_655
O11 Sr12 2.610594 1_555
O11 Sr3 2.710900 1_555
O11 Sr11 2.905470 1_555
O12 Zr0 2.130892 1_645
O12 Zr7 2.139036 1_555
O12 Sr11 2.610594 1_545
O12 Sr4 2.710900 1_555
O12 Sr12 2.905470 1_555
O13 Zr6 2.130892 1_555
O13 Zr1 2.139036 1_455
O13 Sr10 2.610594 1_555
O13 Sr5 2.710900 1_555
O13 Sr13 2.905470 1_555
O14 Zr5 2.130892 1_655
O14 Zr2 2.139036 1_555
O14 Sr9 2.610594 1_555
O14 Sr6 2.710900 1_555
O14 Sr14 2.905470 1_555
O15 Zr3 2.130892 1_455
O15 Zr4 2.139036 1_555
O15 Sr8 2.610594 1_555
O15 Sr7 2.710900 1_555
O15 Sr15 2.905470 1_555
O16 Zr9 2.128910 1_555
O16 Zr10 2.133039 1_555
O16 Sr15 2.565652 1_545
O16 Sr14 2.877275 1_455
O16 Sr8 2.880388 1_555
O17 Zr9 2.128910 1_565
O17 Zr10 2.133039 1_655
O17 Sr14 2.565652 1_565
O17 Sr15 2.877275 1_655
O17 Sr9 2.880388 1_555
O18 Zr8 2.128910 1_566
O18 Zr11 2.133039 1_556
O18 Sr13 2.565652 1_565
O18 Sr11 2.877275 1_556
O18 Sr10 2.880388 1_555
O19 Zr11 2.128910 1_555
O19 Zr8 2.133039 1_665
O19 Sr12 2.565652 1_555
O19 Sr10 2.877275 1_654
O19 Sr11 2.880388 1_555
O20 Zr8 2.128910 1_655
O20 Zr11 2.133039 1_555
O20 Sr11 2.565652 1_545
O20 Sr13 2.877275 1_554
O20 Sr12 2.880388 1_555
O21 Zr11 2.128910 1_556
O21 Zr8 2.133039 1_556
O21 Sr10 2.565652 1_555
O21 Sr12 2.877275 1_456
O21 Sr13 2.880388 1_555
O22 Zr10 2.128910 1_655
O22 Zr9 2.133039 1_555
O22 Sr9 2.565652 1_555
O22 Sr8 2.877275 1_555
O22 Sr14 2.880388 1_555
O23 Zr10 2.128910 1_555
O23 Zr9 2.133039 1_565
O23 Sr8 2.565652 1_555
O23 Sr9 2.877275 1_555
O23 Sr15 2.880388 1_555
O24 Zr0 2.113482 1_545
O24 Zr7 2.116350 1_555
O24 Sr3 2.522984 1_455
O24 Sr4 2.867167 1_555
O24 Sr12 2.878947 1_455
O25 Zr1 2.113482 1_565
O25 Zr6 2.116350 1_555
O25 Sr5 2.522984 1_655
O25 Sr2 2.867167 1_555
O25 Sr10 2.878947 1_655
O26 Zr2 2.113482 1_565
O26 Zr5 2.116350 1_555
O26 Sr6 2.522984 1_555
O26 Sr1 2.867167 1_455
O26 Sr9 2.878947 1_555
O27 Zr3 2.113482 1_555
O27 Zr4 2.116350 1_555
O27 Sr0 2.522984 1_665
O27 Sr7 2.867167 1_555
O27 Sr15 2.878947 1_655
O28 Zr4 2.113482 1_545
O28 Zr3 2.116350 1_555
O28 Sr7 2.522984 1_555
O28 Sr0 2.867167 1_655
O28 Sr8 2.878947 1_555
O29 Zr5 2.113482 1_555
O29 Zr2 2.116350 1_555
O29 Sr1 2.522984 1_445
O29 Sr6 2.867167 1_555
O29 Sr14 2.878947 1_455
O30 Zr6 2.113482 1_555
O30 Zr1 2.116350 1_555
O30 Sr2 2.522984 1_545
O30 Sr5 2.867167 1_655
O30 Sr13 2.878947 1_555
O31 Zr7 2.113482 1_555
O31 Zr0 2.116350 1_555
O31 Sr4 2.522984 1_565
O31 Sr3 2.867167 1_455
O31 Sr11 2.878947 1_555
O32 Zr3 2.107517 1_455
O32 Sr3 2.457003 1_455
O32 Sr7 2.537538 1_555
O32 Sr0 2.715820 1_555
O33 Zr5 2.107517 1_655
O33 Sr5 2.457003 1_655
O33 Sr6 2.537538 1_555
O33 Sr1 2.715820 1_555
O34 Zr6 2.107517 1_555
O34 Sr6 2.457003 1_555
O34 Sr5 2.537538 1_555
O34 Sr2 2.715820 1_555
O35 Zr0 2.107517 1_655
O35 Sr0 2.457003 1_665
O35 Sr4 2.537538 1_565
O35 Sr3 2.715820 1_555
O36 Zr7 2.107517 1_555
O36 Sr7 2.457003 1_555
O36 Sr3 2.537538 1_555
O36 Sr4 2.715820 1_555
O37 Zr1 2.107517 1_455
O37 Sr1 2.457003 1_445
O37 Sr2 2.537538 1_545
O37 Sr5 2.715820 1_555
O38 Zr2 2.107517 1_555
O38 Sr2 2.457003 1_545
O38 Sr1 2.537538 1_545
O38 Sr6 2.715820 1_555
O39 Zr4 2.107517 1_555
O39 Sr4 2.457003 1_565
O39 Sr0 2.537538 1_565
O39 Sr7 2.715820 1_555
