# generated using pymatgen
data_Ba2CaWO6
_symmetry_space_group_name_H-M   'P 1'
_cell_length_a   6.04663723
_cell_length_b   6.02740740
_cell_length_c   6.02740760
_cell_angle_alpha   59.90927099
_cell_angle_beta   59.82072981
_cell_angle_gamma   59.82073993
_symmetry_Int_Tables_number   1
_chemical_formula_structural   Ba2CaWO6
_chemical_formula_sum   'Ba2 Ca1 W1 O6'
_cell_volume   154.80353803
_cell_formula_units_Z   1
loop_
 _symmetry_equiv_pos_site_id
 _symmetry_equiv_pos_as_xyz
  1  'x, y, z'
loop_
 _atom_site_type_symbol
 _atom_site_label
 _atom_site_symmetry_multiplicity
 _atom_site_fract_x
 _atom_site_fract_y
 _atom_site_fract_z
 _atom_site_occupancy
  Ba  Ba0  1  0.25151500  0.75026400  0.75026400  1
  Ba  Ba1  1  0.74848400  0.24973700  0.24973600  1
  Ca  Ca0  1  0.49999900  0.99999900  0.00000100  1
  W  W0  1  0.00000000  0.49999900  0.50000100  1
  O  O0  1  0.74977400  0.75210700  0.29193100  1
  O  O1  1  0.25022600  0.70806900  0.24789300  1
  O  O2  1  0.25022600  0.24789400  0.70806900  1
  O  O3  1  0.74977300  0.29193000  0.75210700  1
  O  O4  1  0.18596000  0.27128200  0.27128300  1
  O  O5  1  0.81404100  0.72871700  0.72871900  1
loop_
_geom_bond_atom_site_label_1
_geom_bond_atom_site_label_2
_geom_bond_distance
_geom_bond_site_symmetry_2
Ba0 O5 2.781861 1_455
Ba0 O1 2.876593 1_556
Ba0 O2 2.876599 1_565
Ba0 O3 2.888523 1_555
Ba0 O0 2.888524 1_555
Ba0 O4 3.026852 1_565
Ba0 O4 3.026858 1_556
Ba0 O3 3.147599 1_465
Ba0 O0 3.147600 1_456
Ba0 O2 3.167237 1_555
Ba0 O1 3.167243 1_555
Ba0 O5 3.275952 1_555
Ba1 O4 2.781873 1_655
Ba1 O0 2.876596 1_545
Ba1 O3 2.876598 1_554
Ba1 O1 2.888518 1_555
Ba1 O2 2.888520 1_555
Ba1 O5 3.026847 1_554
Ba1 O5 3.026865 1_545
Ba1 O2 3.147602 1_654
Ba1 O1 3.147606 1_645
Ba1 O3 3.167236 1_555
Ba1 O0 3.167240 1_555
Ba1 O4 3.275940 1_555
Ca0 O1 2.318693 1_555
Ca0 O3 2.318701 1_564
Ca0 O2 2.318702 1_564
Ca0 O0 2.318702 1_555
Ca0 O5 2.321759 1_554
Ca0 O4 2.321761 1_565
O0 W0 1.963774 1_655
O1 W0 1.963773 1_555
O2 W0 1.963765 1_555
O3 W0 1.963773 1_655
O4 W0 1.963146 1_555
O5 W0 1.963151 1_655
