# generated using pymatgen
data_Sr4Mn2Cu3(SeO)4
_symmetry_space_group_name_H-M   'P 1'
_cell_length_a   9.45830294
_cell_length_b   9.45830294
_cell_length_c   5.81079000
_cell_angle_alpha   90.00000000
_cell_angle_beta   90.00000000
_cell_angle_gamma   144.22250899
_symmetry_Int_Tables_number   1
_chemical_formula_structural   Sr4Mn2Cu3(SeO)4
_chemical_formula_sum   'Sr4 Mn2 Cu3 Se4 O4'
_cell_volume   303.91308677
_cell_formula_units_Z   1
loop_
 _symmetry_equiv_pos_site_id
 _symmetry_equiv_pos_as_xyz
  1  'x, y, z'
loop_
 _atom_site_type_symbol
 _atom_site_label
 _atom_site_symmetry_multiplicity
 _atom_site_fract_x
 _atom_site_fract_y
 _atom_site_fract_z
 _atom_site_occupancy
  Sr  Sr0  1  0.40585900  0.09560700  0.74979400  1
  Sr  Sr1  1  0.90439300  0.59414100  0.25020600  1
  Sr  Sr2  1  0.09560700  0.40585900  0.25020600  1
  Sr  Sr3  1  0.59414100  0.90439300  0.74979400  1
  Mn  Mn0  1  0.50000000  0.00000000  0.25075300  1
  Mn  Mn1  1  0.00000000  0.50000000  0.74924700  1
  Cu  Cu0  1  0.50000000  0.50000000  0.50000000  1
  Cu  Cu1  1  0.50000000  0.50000000  0.00000000  1
  Cu  Cu2  1  0.00000000  0.00000000  0.50000000  1
  Se  Se0  1  0.16928000  0.33014700  0.75043800  1
  Se  Se1  1  0.66985300  0.83072000  0.24956200  1
  Se  Se2  1  0.33014700  0.16928000  0.24956200  1
  Se  Se3  1  0.83072000  0.66985300  0.75043800  1
  O  O0  1  0.24895300  0.75104700  0.50000000  1
  O  O1  1  0.75001700  0.24998300  0.00000000  1
  O  O2  1  0.75104700  0.24895300  0.50000000  1
  O  O3  1  0.24998300  0.75001700  0.00000000  1
loop_
_geom_bond_atom_site_label_1
_geom_bond_atom_site_label_2
_geom_bond_distance
_geom_bond_site_symmetry_2
Mn0 O0 2.051387 1_545
Mn0 O2 2.051387 1_555
Mn0 O3 2.057489 1_545
Mn0 O1 2.057489 1_555
Mn0 Se2 3.052558 1_555
Mn0 Se1 3.052558 1_545
Mn1 O2 2.051387 1_455
Mn1 O0 2.051387 1_555
Mn1 O1 2.057489 1_456
Mn1 O3 2.057489 1_556
Mn1 Se3 3.052558 1_455
Mn1 Se0 3.052558 1_555
Cu0 Se2 2.515827 1_555
Cu0 Se1 2.515827 1_555
Cu0 Se3 2.515827 1_555
Cu0 Se0 2.515827 1_555
Cu1 Se0 2.512886 1_554
Cu1 Se1 2.512886 1_555
Cu1 Se3 2.512886 1_554
Cu1 Se2 2.512886 1_555
Cu2 Se1 2.513904 1_445
Cu2 Se2 2.513904 1_555
Cu2 Se3 2.513904 1_445
Cu2 Se0 2.513904 1_555
Se0 Sr3 3.199022 1_555
Se0 Sr2 3.200239 1_556
Se0 Sr2 3.202685 1_555
Se0 Sr3 3.203731 1_445
Se1 Sr2 3.199022 1_555
Se1 Sr3 3.200239 1_554
Se1 Sr3 3.202685 1_555
Se1 Sr2 3.203731 1_665
Se2 Sr1 3.199022 1_555
Se2 Sr0 3.200239 1_554
Se2 Sr0 3.202685 1_555
Se2 Sr1 3.203731 1_445
Se3 Sr0 3.199022 1_555
Se3 Sr1 3.200239 1_556
Se3 Sr1 3.202685 1_555
Se3 Sr0 3.203731 1_665
O0 Sr0 2.661285 1_565
O0 Sr1 2.661285 1_455
O0 Sr2 2.680756 1_555
O0 Sr3 2.680756 1_555
O1 Sr0 2.670153 1_554
O1 Sr1 2.670153 1_555
O1 Sr2 2.674393 1_655
O1 Sr3 2.674393 1_544
O2 Sr3 2.661285 1_545
O2 Sr2 2.661285 1_655
O2 Sr0 2.680756 1_555
O2 Sr1 2.680756 1_555
O3 Sr2 2.670153 1_555
O3 Sr3 2.670153 1_554
O3 Sr0 2.674393 1_564
O3 Sr1 2.674393 1_455
