# generated using pymatgen
data_Cs3Sb5Se9
_symmetry_space_group_name_H-M   'P 1'
_cell_length_a   14.01566610
_cell_length_b   14.01566610
_cell_length_c   9.72699476
_cell_angle_alpha   84.28225816
_cell_angle_beta   84.28225816
_cell_angle_gamma   139.69847218
_symmetry_Int_Tables_number   1
_chemical_formula_structural   Cs3Sb5Se9
_chemical_formula_sum   'Cs6 Sb10 Se18'
_cell_volume   1183.08642579
_cell_formula_units_Z   2
loop_
 _symmetry_equiv_pos_site_id
 _symmetry_equiv_pos_as_xyz
  1  'x, y, z'
loop_
 _atom_site_type_symbol
 _atom_site_label
 _atom_site_symmetry_multiplicity
 _atom_site_fract_x
 _atom_site_fract_y
 _atom_site_fract_z
 _atom_site_occupancy
  Cs  Cs0  1  0.41993650  0.58006350  0.50000000  1
  Cs  Cs1  1  0.58006350  0.41993650  0.50000000  1
  Cs  Cs2  1  0.01277777  0.44591525  0.24002202  1
  Cs  Cs3  1  0.44591525  0.01277777  0.24002202  1
  Cs  Cs4  1  0.98722223  0.55408475  0.75997798  1
  Cs  Cs5  1  0.55408475  0.98722223  0.75997798  1
  Sb  Sb0  1  0.03773747  0.28304018  0.83890148  1
  Sb  Sb1  1  0.28304018  0.03773747  0.83890148  1
  Sb  Sb2  1  0.96226253  0.71695982  0.16109852  1
  Sb  Sb3  1  0.71695982  0.96226253  0.16109852  1
  Sb  Sb4  1  0.42409674  0.57590326  -0.00000000  1
  Sb  Sb5  1  0.57590326  0.42409674  -0.00000000  1
  Sb  Sb6  1  0.92574045  0.07425955  0.50000000  1
  Sb  Sb7  1  0.07425955  0.92574045  0.50000000  1
  Sb  Sb8  1  0.12551857  0.12551857  0.11878792  1
  Sb  Sb9  1  0.87448143  0.87448143  0.88121208  1
  Se  Se0  1  0.00090106  0.31817573  0.59605389  1
  Se  Se1  1  0.31817573  0.00090106  0.59605389  1
  Se  Se2  1  -0.00090106  0.68182427  0.40394611  1
  Se  Se3  1  0.68182427  -0.00090106  0.40394611  1
  Se  Se4  1  0.24945232  0.56399043  0.84363434  1
  Se  Se5  1  0.56399043  0.24945232  0.84363434  1
  Se  Se6  1  0.75054768  0.43600957  0.15636566  1
  Se  Se7  1  0.43600957  0.75054768  0.15636566  1
  Se  Se8  1  0.12889077  0.12889077  0.62396853  1
  Se  Se9  1  0.87110923  0.87110923  0.37603147  1
  Se  Se10  1  0.36913233  0.36913233  0.87461103  1
  Se  Se11  1  0.63086767  0.63086767  0.12538897  1
  Se  Se12  1  0.80630265  0.19369735  -0.00000000  1
  Se  Se13  1  0.19369735  0.80630265  -0.00000000  1
  Se  Se14  1  0.15456480  0.30636551  0.22959876  1
  Se  Se15  1  0.30636551  0.15456480  0.22959876  1
  Se  Se16  1  0.84543520  0.69363449  0.77040124  1
  Se  Se17  1  0.69363449  0.84543520  0.77040124  1
loop_
_geom_bond_atom_site_label_1
_geom_bond_atom_site_label_2
_geom_bond_distance
_geom_bond_site_symmetry_2
Cs0 Se0 3.765708 1_555
Cs0 Se3 3.765708 1_565
Cs0 Se7 3.790808 1_555
Cs0 Se4 3.790808 1_555
Cs0 Se8 4.029408 1_555
Cs0 Se9 4.029408 1_555
Cs0 Se10 4.080466 1_555
Cs0 Se11 4.080466 1_555
Cs0 Se14 4.202858 1_555
Cs0 Se17 4.202858 1_555
Cs1 Se1 3.765708 1_555
Cs1 Se2 3.765708 1_655
Cs1 Se6 3.790808 1_555
Cs1 Se5 3.790808 1_555
Cs1 Se8 4.029408 1_555
Cs1 Se9 4.029408 1_555
Cs1 Se10 4.080466 1_555
Cs1 Se11 4.080466 1_555
Cs1 Se15 4.202858 1_555
Cs1 Se16 4.202858 1_555
Cs2 Se0 3.663525 1_555
Cs2 Se12 3.702520 1_455
Cs2 Se14 3.703080 1_555
Cs2 Se7 3.713997 1_555
Cs2 Se6 3.745609 1_455
Cs2 Se13 3.785288 1_555
Cs2 Se2 3.932943 1_555
Cs2 Se3 3.937680 1_455
Cs2 Se4 4.051572 1_554
Cs3 Se1 3.663525 1_555
Cs3 Se13 3.702520 1_545
Cs3 Se15 3.703080 1_555
Cs3 Se6 3.713997 1_555
Cs3 Se7 3.745609 1_545
Cs3 Se12 3.785288 1_555
Cs3 Se3 3.932943 1_555
Cs3 Se2 3.937680 1_545
Cs3 Se5 4.051572 1_554
Cs4 Se2 3.663525 1_655
Cs4 Se13 3.702520 1_656
Cs4 Se16 3.703080 1_555
Cs4 Se5 3.713997 1_555
Cs4 Se4 3.745609 1_655
Cs4 Se12 3.785288 1_556
Cs4 Se0 3.932943 1_655
Cs4 Se1 3.937680 1_665
Cs4 Se6 4.051572 1_556
Cs5 Se3 3.663525 1_565
Cs5 Se12 3.702520 1_566
Cs5 Se17 3.703080 1_555
Cs5 Se4 3.713997 1_555
Cs5 Se5 3.745609 1_565
Cs5 Se13 3.785288 1_556
Cs5 Se1 3.932943 1_565
Cs5 Se0 3.937680 1_665
Cs5 Se7 4.051572 1_556
Sb0 Se0 2.547147 1_555
Sb0 Se4 2.560016 1_555
Sb0 Se12 2.635520 1_456
Sb1 Se1 2.547147 1_555
Sb1 Se5 2.560016 1_555
Sb1 Se13 2.635520 1_546
Sb2 Se2 2.547147 1_655
Sb2 Se6 2.560016 1_555
Sb2 Se13 2.635520 1_655
Sb3 Se3 2.547147 1_565
Sb3 Se7 2.560016 1_555
Sb3 Se12 2.635520 1_565
Sb4 Se11 2.822380 1_555
Sb4 Se10 2.822380 1_554
Sb4 Se17 2.898268 1_554
Sb4 Se14 2.898268 1_555
Sb4 Se7 2.915782 1_555
Sb4 Se4 2.915782 1_554
Sb5 Se11 2.822380 1_555
Sb5 Se10 2.822380 1_554
Sb5 Se16 2.898268 1_554
Sb5 Se15 2.898268 1_555
Sb5 Se5 2.915782 1_554
Sb5 Se6 2.915782 1_555
Sb6 Se8 2.773102 1_655
Sb6 Se9 2.773102 1_545
Sb6 Se14 2.913234 1_655
Sb6 Se17 2.913234 1_545
Sb6 Se3 3.001550 1_555
Sb6 Se0 3.001550 1_655
Sb7 Se8 2.773102 1_565
Sb7 Se9 2.773102 1_455
Sb7 Se15 2.913234 1_565
Sb7 Se16 2.913234 1_455
Sb7 Se2 3.001550 1_555
Sb7 Se1 3.001550 1_565
Sb8 Se14 2.609606 1_555
Sb8 Se15 2.609606 1_555
Sb8 Se10 2.818419 1_554
Sb8 Se9 2.956505 1_445
Sb9 Se17 2.609606 1_555
Sb9 Se16 2.609606 1_555
Sb9 Se11 2.818419 1_556
Sb9 Se8 2.956505 1_665
