# generated using pymatgen
data_V3(NO4)2
_symmetry_space_group_name_H-M   'P 1'
_cell_length_a   3.72728400
_cell_length_b   9.40453300
_cell_length_c   9.40453300
_cell_angle_alpha   90.00000000
_cell_angle_beta   90.00000000
_cell_angle_gamma   90.00000000
_symmetry_Int_Tables_number   1
_chemical_formula_structural   V3(NO4)2
_chemical_formula_sum   'V6 N4 O16'
_cell_volume   329.66053146
_cell_formula_units_Z   2
loop_
 _symmetry_equiv_pos_site_id
 _symmetry_equiv_pos_as_xyz
  1  'x, y, z'
loop_
 _atom_site_type_symbol
 _atom_site_label
 _atom_site_symmetry_multiplicity
 _atom_site_fract_x
 _atom_site_fract_y
 _atom_site_fract_z
 _atom_site_occupancy
  V  V0  1  0.00000000  0.50000000  0.50000000  1
  V  V1  1  0.00000000  0.00000000  0.00000000  1
  V  V2  1  0.00000000  0.86318000  0.63682000  1
  V  V3  1  0.00000000  0.13682000  0.36318000  1
  V  V4  1  0.00000000  0.63682000  0.13682000  1
  V  V5  1  0.00000000  0.36318000  0.86318000  1
  N  N0  1  0.50000000  0.67016400  0.82983600  1
  N  N1  1  0.50000000  0.32983600  0.17016400  1
  N  N2  1  0.50000000  0.82983600  0.32983600  1
  N  N3  1  0.50000000  0.17016400  0.67016400  1
  O  O0  1  0.50000000  0.50000000  0.50000000  1
  O  O1  1  0.50000000  0.00000000  0.00000000  1
  O  O2  1  0.50000000  0.87127200  0.62872800  1
  O  O3  1  0.50000000  0.12872800  0.37127200  1
  O  O4  1  0.50000000  0.62872800  0.12872800  1
  O  O5  1  0.50000000  0.37127200  0.87127200  1
  O  O6  1  0.00000000  0.68090500  0.59048500  1
  O  O7  1  0.00000000  0.31909500  0.40951500  1
  O  O8  1  0.00000000  0.81909500  0.09048500  1
  O  O9  1  0.00000000  0.18090500  0.90951500  1
  O  O10  1  0.00000000  0.59048500  0.31909500  1
  O  O11  1  0.00000000  0.40951500  0.68090500  1
  O  O12  1  0.00000000  0.09048500  0.18090500  1
  O  O13  1  0.00000000  0.90951500  0.81909500  1
  O  O14  1  0.00000000  0.50000000  0.00000000  1
  O  O15  1  0.00000000  0.00000000  0.50000000  1
loop_
_geom_bond_atom_site_label_1
_geom_bond_atom_site_label_2
_geom_bond_distance
_geom_bond_site_symmetry_2
O0 V0 1.863642 1_655
O0 V0 1.863642 1_555
O1 V1 1.863642 1_555
O1 V1 1.863642 1_655
O2 V2 1.866747 1_655
O2 V2 1.866747 1_555
O3 V3 1.866747 1_555
O3 V3 1.866747 1_655
O4 V4 1.866747 1_555
O4 V4 1.866747 1_655
O5 V5 1.866747 1_655
O5 V5 1.866747 1_555
O6 V2 1.768730 1_555
O6 V0 1.902278 1_555
O7 V3 1.768730 1_555
O7 V0 1.902278 1_555
O8 V4 1.768730 1_555
O8 V1 1.902278 1_565
O9 V5 1.768730 1_555
O9 V1 1.902278 1_556
O10 V4 1.768730 1_555
O10 V0 1.902278 1_555
O11 V5 1.768730 1_555
O11 V0 1.902278 1_555
O12 V3 1.768730 1_555
O12 V1 1.902278 1_555
O13 V2 1.768730 1_555
O13 V1 1.902278 1_566
O14 V5 1.819708 1_554
O14 V4 1.819708 1_555
O15 V2 1.819708 1_545
O15 V3 1.819708 1_555
