# generated using pymatgen
data_Mg14SnSb
_symmetry_space_group_name_H-M   'P 1'
_cell_length_a   6.35285906
_cell_length_b   6.66113692
_cell_length_c   10.34404720
_cell_angle_alpha   90.00000000
_cell_angle_beta   90.00000000
_cell_angle_gamma   121.61864239
_symmetry_Int_Tables_number   1
_chemical_formula_structural   Mg14SnSb
_chemical_formula_sum   'Mg14 Sn1 Sb1'
_cell_volume   372.75329525
_cell_formula_units_Z   1
loop_
 _symmetry_equiv_pos_site_id
 _symmetry_equiv_pos_as_xyz
  1  'x, y, z'
loop_
 _atom_site_type_symbol
 _atom_site_label
 _atom_site_symmetry_multiplicity
 _atom_site_fract_x
 _atom_site_fract_y
 _atom_site_fract_z
 _atom_site_occupancy
  Mg  Mg0  1  0.17011144  0.33505522  0.62500000  1
  Mg  Mg1  1  0.16991153  0.83495526  0.62500000  1
  Mg  Mg2  1  0.66915696  0.33373601  0.12500000  1
  Mg  Mg3  1  0.66807273  0.33426871  0.62500000  1
  Mg  Mg4  1  0.66915696  0.83541995  0.12500000  1
  Mg  Mg5  1  0.66807273  0.83380302  0.62500000  1
  Mg  Mg6  1  0.33210285  0.16651310  0.37609171  1
  Mg  Mg7  1  0.33210285  0.16651310  0.87390829  1
  Mg  Mg8  1  0.33210285  0.66559075  0.37609171  1
  Mg  Mg9  1  0.33210285  0.66559075  0.87390829  1
  Mg  Mg10  1  0.83282735  0.16641417  0.37570715  1
  Mg  Mg11  1  0.83282735  0.16641417  0.87429285  1
  Mg  Mg12  1  0.83218036  0.66609068  0.37663924  1
  Mg  Mg13  1  0.83218036  0.66609068  0.87336076  1
  Sn  Sn0  1  0.16484319  0.33242109  0.12500000  1
  Sb  Sb0  1  0.16224765  0.83112332  0.12500000  1
loop_
_geom_bond_atom_site_label_1
_geom_bond_atom_site_label_2
_geom_bond_distance
_geom_bond_site_symmetry_2
Mg0 Mg10 3.158957 1_455
Mg0 Mg11 3.158957 1_455
Mg0 Mg5 3.166227 1_555
Mg0 Mg3 3.166228 1_555
Mg0 Mg5 3.186637 1_445
Mg0 Mg3 3.186638 1_455
Mg0 Mg6 3.187489 1_555
Mg0 Mg7 3.187489 1_555
Mg0 Mg8 3.187496 1_555
Mg0 Mg9 3.187496 1_555
Mg0 Mg1 3.330569 1_555
Mg0 Mg1 3.330569 1_545
Mg1 Mg13 3.152492 1_455
Mg1 Mg12 3.152492 1_455
Mg1 Mg3 3.168778 1_565
Mg1 Mg5 3.168778 1_555
Mg1 Mg3 3.184094 1_455
Mg1 Mg5 3.184094 1_455
Mg1 Mg8 3.190994 1_555
Mg1 Mg9 3.190994 1_555
Mg1 Mg6 3.191001 1_565
Mg1 Mg7 3.191001 1_565
Mg2 Sb0 3.147634 1_655
Mg2 Sn0 3.153626 1_655
Mg2 Sn0 3.199251 1_555
Mg2 Sb0 3.205411 1_545
Mg3 Mg6 3.151606 1_555
Mg3 Mg7 3.151606 1_555
Mg3 Mg5 3.327466 1_555
Mg3 Mg5 3.333670 1_545
Mg4 Sb0 3.147635 1_655
Mg4 Sn0 3.153625 1_665
Mg4 Sn0 3.199251 1_555
Mg4 Sb0 3.205411 1_555
Mg5 Mg8 3.151606 1_555
Mg5 Mg9 3.151606 1_555
Mg6 Sn0 3.213668 1_555
Mg6 Sb0 3.220835 1_545
Mg7 Sn0 3.213668 1_556
Mg7 Sb0 3.220835 1_546
Mg8 Sn0 3.213675 1_555
Mg8 Sb0 3.220828 1_555
Mg9 Sn0 3.213675 1_556
Mg9 Sb0 3.220828 1_556
Mg10 Sn0 3.154597 1_655
Mg10 Mg3 3.197249 1_555
Mg10 Mg5 3.197255 1_545
Mg11 Sn0 3.154597 1_656
Mg11 Mg3 3.197249 1_555
Mg11 Mg5 3.197255 1_545
Mg12 Sb0 3.156553 1_655
Mg12 Mg5 3.186881 1_555
Mg12 Mg3 3.186887 1_555
Mg13 Sb0 3.156553 1_656
Mg13 Mg5 3.186881 1_555
Mg13 Mg3 3.186887 1_555
Sb0 Sn0 3.330598 1_565
Sb0 Sn0 3.330598 1_555
