# generated using pymatgen
data_Li4Mn3O7
_symmetry_space_group_name_H-M   'P 1'
_cell_length_a   5.31026200
_cell_length_b   6.50639225
_cell_length_c   7.77804751
_cell_angle_alpha   87.01623796
_cell_angle_beta   74.61472382
_cell_angle_gamma   84.69195444
_symmetry_Int_Tables_number   1
_chemical_formula_structural   Li4Mn3O7
_chemical_formula_sum   'Li8 Mn6 O14'
_cell_volume   257.88897135
_cell_formula_units_Z   2
loop_
 _symmetry_equiv_pos_site_id
 _symmetry_equiv_pos_as_xyz
  1  'x, y, z'
loop_
 _atom_site_type_symbol
 _atom_site_label
 _atom_site_symmetry_multiplicity
 _atom_site_fract_x
 _atom_site_fract_y
 _atom_site_fract_z
 _atom_site_occupancy
  Li  Li0  1  0.50000000  0.00000000  0.50000000  1
  Li  Li1  1  0.21779100  0.57005900  0.07404800  1
  Li  Li2  1  0.07653300  0.85450000  0.35376000  1
  Li  Li3  1  0.78220900  0.42994100  0.92595200  1
  Li  Li4  1  0.65024300  0.72501200  0.20819300  1
  Li  Li5  1  0.34975700  0.27498800  0.79180700  1
  Li  Li6  1  0.92346700  0.14550000  0.64624000  1
  Li  Li7  1  0.00000000  0.00000000  0.00000000  1
  Mn  Mn0  1  0.57052000  0.85831300  0.85810000  1
  Mn  Mn1  1  0.42948000  0.14168700  0.14190000  1
  Mn  Mn2  1  0.28609400  0.42701700  0.42961800  1
  Mn  Mn3  1  0.71390600  0.57298300  0.57038200  1
  Mn  Mn4  1  0.14096100  0.71605100  0.71813100  1
  Mn  Mn5  1  0.85903900  0.28394900  0.28186900  1
  O  O0  1  0.80107900  0.85035200  0.61588800  1
  O  O1  1  0.51581500  0.41520600  0.18380200  1
  O  O2  1  0.36860900  0.70199900  0.47166200  1
  O  O3  1  0.12780700  0.27186800  0.05777200  1
  O  O4  1  0.94157600  0.56668300  0.32693500  1
  O  O5  1  0.65245700  0.13161500  0.90139300  1
  O  O6  1  0.27731200  0.97188700  0.75978700  1
  O  O7  1  0.19892100  0.14964800  0.38411200  1
  O  O8  1  0.87219300  0.72813200  0.94222800  1
  O  O9  1  0.72268800  0.02811300  0.24021300  1
  O  O10  1  0.48418500  0.58479400  0.81619800  1
  O  O11  1  0.34754300  0.86838500  0.09860700  1
  O  O12  1  0.05842400  0.43331700  0.67306500  1
  O  O13  1  0.63139100  0.29800100  0.52833800  1
loop_
_geom_bond_atom_site_label_1
_geom_bond_atom_site_label_2
_geom_bond_distance
_geom_bond_site_symmetry_2
Li0 O9 2.061179 1_555
Li0 O6 2.061179 1_545
Li0 O13 2.161288 1_555
Li0 O2 2.161288 1_545
Li0 O0 2.168412 1_545
Li0 O7 2.168412 1_555
Li1 O3 2.058574 1_555
Li1 O4 2.119304 1_455
Li1 O10 2.128922 1_554
Li1 O1 2.140273 1_555
Li1 O11 2.152835 1_555
Li1 O8 2.452850 1_454
Li2 O4 2.105297 1_455
Li2 O11 2.123152 1_555
Li2 O7 2.127295 1_565
Li2 O2 2.146241 1_555
Li2 O0 2.171711 1_455
Li2 O9 2.443490 1_465
Li3 O8 2.058574 1_555
Li3 O12 2.119304 1_655
Li3 O1 2.128922 1_556
Li3 O10 2.140273 1_555
Li3 O5 2.152835 1_555
Li3 O3 2.452850 1_656
Li4 O9 2.083631 1_565
Li4 O8 2.091728 1_554
Li4 O11 2.132439 1_555
Li4 O4 2.161443 1_555
Li4 O2 2.200426 1_555
Li4 O1 2.233069 1_555
Li5 O6 2.083631 1_545
Li5 O3 2.091728 1_556
Li5 O5 2.132439 1_555
Li5 O12 2.161443 1_555
Li5 O13 2.200426 1_555
Li5 O10 2.233069 1_555
Li6 O12 2.105297 1_655
Li6 O5 2.123152 1_555
Li6 O0 2.127295 1_545
Li6 O13 2.146241 1_555
Li6 O7 2.171711 1_655
Li6 O6 2.443490 1_645
Li7 O9 2.053945 1_455
Li7 O6 2.053945 1_544
Li7 O3 2.063532 1_555
Li7 O8 2.063532 1_444
Li7 O11 2.262274 1_545
Li7 O5 2.262274 1_454
Mn0 O11 1.931015 1_556
Mn0 O5 1.935968 1_565
Mn0 O10 1.942700 1_555
Mn0 O0 1.955865 1_555
Mn0 O6 1.978671 1_555
Mn0 O8 1.989812 1_555
Mn1 O5 1.931015 1_554
Mn1 O11 1.935968 1_545
Mn1 O1 1.942700 1_555
Mn1 O7 1.955865 1_555
Mn1 O9 1.978671 1_555
Mn1 O3 1.989812 1_555
Mn2 O2 1.944726 1_555
Mn2 O12 1.957810 1_555
Mn2 O7 1.975958 1_555
Mn2 O1 1.977370 1_555
Mn2 O13 2.247572 1_555
Mn2 O4 2.280968 1_455
Mn3 O13 1.944726 1_555
Mn3 O4 1.957810 1_555
Mn3 O0 1.975958 1_555
Mn3 O10 1.977370 1_555
Mn3 O2 2.247572 1_555
Mn3 O12 2.280968 1_655
Mn4 O8 1.937737 1_455
Mn4 O6 1.950296 1_555
Mn4 O2 1.978108 1_555
Mn4 O12 1.999211 1_555
Mn4 O10 2.239404 1_555
Mn4 O0 2.247436 1_455
Mn5 O3 1.937737 1_655
Mn5 O9 1.950296 1_555
Mn5 O13 1.978108 1_555
Mn5 O4 1.999211 1_555
Mn5 O1 2.239404 1_555
Mn5 O7 2.247436 1_655
