# generated using pymatgen
data_K3Lu(PO4)2
_symmetry_space_group_name_H-M   'P 1'
_cell_length_a   9.55407681
_cell_length_b   9.55407709
_cell_length_c   7.60832200
_cell_angle_alpha   90.00000000
_cell_angle_beta   90.00000000
_cell_angle_gamma   120.00000381
_symmetry_Int_Tables_number   1
_chemical_formula_structural   K3Lu(PO4)2
_chemical_formula_sum   'K9 Lu3 P6 O24'
_cell_volume   601.44645498
_cell_formula_units_Z   3
loop_
 _symmetry_equiv_pos_site_id
 _symmetry_equiv_pos_as_xyz
  1  'x, y, z'
loop_
 _atom_site_type_symbol
 _atom_site_label
 _atom_site_symmetry_multiplicity
 _atom_site_fract_x
 _atom_site_fract_y
 _atom_site_fract_z
 _atom_site_occupancy
  K  K0  1  0.33476249  0.33289378  0.24795762  1
  K  K1  1  0.99813130  0.66523751  0.24795762  1
  K  K2  1  0.66710622  0.00186870  0.24795762  1
  K  K3  1  0.66523751  0.66710622  0.75204238  1
  K  K4  1  0.00186870  0.33476249  0.75204238  1
  K  K5  1  0.33289378  0.99813130  0.75204238  1
  K  K6  1  0.33333300  0.66666700  0.50784552  1
  K  K7  1  0.66666700  0.33333300  0.49215548  1
  K  K8  1  0.00000000  0.00000000  0.50000000  1
  Lu  Lu0  1  0.33333300  0.66666700  0.03438188  1
  Lu  Lu1  1  0.66666700  0.33333300  0.96561812  1
  Lu  Lu2  1  0.00000000  0.00000000  0.00000000  1
  P  P0  1  0.32769926  0.34039839  0.76769534  1
  P  P1  1  0.01269813  0.67230074  0.76769534  1
  P  P2  1  0.65960161  0.98730187  0.76769534  1
  P  P3  1  0.67230074  0.65960161  0.23230466  1
  P  P4  1  0.98730187  0.32769926  0.23230466  1
  P  P5  1  0.34039839  0.01269813  0.23230466  1
  O  O0  1  0.33764666  0.47821990  0.88451935  1
  O  O1  1  0.14057424  0.66235334  0.88451935  1
  O  O2  1  0.52178010  0.85942576  0.88451935  1
  O  O3  1  0.66235334  0.52178010  0.11548065  1
  O  O4  1  0.85942576  0.33764666  0.11548065  1
  O  O5  1  0.47821990  0.14057424  0.11548065  1
  O  O6  1  0.48555336  0.33499506  0.78951662  1
  O  O7  1  0.84944270  0.51444664  0.78951662  1
  O  O8  1  0.66500494  0.15055730  0.78951662  1
  O  O9  1  0.51444664  0.66500494  0.21048338  1
  O  O10  1  0.15055730  0.48555336  0.21048338  1
  O  O11  1  0.33499506  0.84944270  0.21048338  1
  O  O12  1  0.18577933  0.17792386  0.83280246  1
  O  O13  1  0.99214453  0.81422067  0.83280246  1
  O  O14  1  0.82207614  0.00785547  0.83280246  1
  O  O15  1  0.81422067  0.82207614  0.16719754  1
  O  O16  1  0.00785547  0.18577933  0.16719754  1
  O  O17  1  0.17792386  0.99214453  0.16719754  1
  O  O18  1  0.36942101  0.07119044  0.41997165  1
  O  O19  1  0.92880956  0.29823256  0.41997165  1
  O  O20  1  0.70176744  0.63057899  0.41997165  1
  O  O21  1  0.63057899  0.92880956  0.58002835  1
  O  O22  1  0.07119044  0.70176744  0.58002835  1
  O  O23  1  0.29823256  0.36942101  0.58002835  1
loop_
_geom_bond_atom_site_label_1
_geom_bond_atom_site_label_2
_geom_bond_distance
_geom_bond_site_symmetry_2
K0 O23 2.597808 1_555
K0 O9 2.765731 1_555
K0 O16 2.778155 1_555
K0 O10 2.805838 1_555
K0 O17 2.888460 1_545
K0 O3 2.901767 1_555
K0 O5 2.964631 1_555
K0 O18 2.983630 1_555
K0 O0 3.088106 1_554
K1 O22 2.597811 1_655
K1 O10 2.765723 1_655
K1 O17 2.778155 1_655
K1 O11 2.805830 1_655
K1 O15 2.888460 1_555
K1 O4 2.901766 1_555
K1 O3 2.964639 1_555
K1 O20 2.983647 1_555
K1 O1 3.088110 1_654
K2 O21 2.597811 1_545
K2 O11 2.765731 1_545
K2 O15 2.778155 1_545
K2 O9 2.805830 1_545
K2 O16 2.888460 1_655
K2 O5 2.901774 1_555
K2 O4 2.964638 1_555
K2 O19 2.983640 1_555
K2 O2 3.088108 1_544
K3 O20 2.597808 1_555
K3 O6 2.765731 1_555
K3 O13 2.778155 1_555
K3 O7 2.805838 1_555
K3 O14 2.888460 1_565
K3 O0 2.901767 1_555
K3 O2 2.964631 1_555
K3 O21 2.983630 1_555
K3 O3 3.088106 1_556
K4 O19 2.597811 1_455
K4 O7 2.765723 1_455
K4 O14 2.778155 1_455
K4 O8 2.805830 1_455
K4 O12 2.888460 1_555
K4 O1 2.901766 1_555
K4 O0 2.964639 1_555
K4 O23 2.983647 1_555
K4 O4 3.088110 1_456
K5 O18 2.597811 1_565
K5 O8 2.765731 1_565
K5 O12 2.778155 1_565
K5 O6 2.805830 1_565
K5 O13 2.888460 1_455
K5 O2 2.901774 1_555
K5 O1 2.964638 1_555
K5 O22 2.983640 1_555
K5 O5 3.088108 1_566
K6 O22 2.743473 1_555
K6 O21 2.743489 1_555
K6 O23 2.743501 1_555
K6 O10 2.853156 1_555
K6 O9 2.853156 1_555
K6 O11 2.853156 1_555
K7 O19 2.743474 1_555
K7 O18 2.743491 1_555
K7 O20 2.743502 1_555
K7 O7 2.853150 1_555
K7 O6 2.853150 1_555
K7 O8 2.853150 1_555
K8 O15 3.071520 1_445
K8 O12 3.071520 1_555
K8 O14 3.071520 1_455
K8 O17 3.071520 1_545
K8 O16 3.071520 1_555
K8 O13 3.071520 1_445
K8 O21 3.299993 1_445
K8 O18 3.299993 1_555
K8 O20 3.299999 1_445
K8 O23 3.299999 1_555
K8 O19 3.300011 1_455
K8 O22 3.300011 1_545
Lu0 O1 2.148830 1_554
Lu0 O2 2.148837 1_554
Lu0 O0 2.148846 1_554
Lu0 O10 2.194786 1_555
Lu0 O9 2.194786 1_555
Lu0 O11 2.194786 1_555
Lu1 O4 2.148830 1_556
Lu1 O5 2.148837 1_556
Lu1 O3 2.148846 1_556
Lu1 O7 2.194786 1_555
Lu1 O6 2.194786 1_555
Lu1 O8 2.194786 1_555
Lu2 O12 2.154318 1_554
Lu2 O15 2.154318 1_445
Lu2 O14 2.154318 1_454
Lu2 O17 2.154318 1_545
Lu2 O13 2.154318 1_444
Lu2 O16 2.154318 1_555
O0 P0 1.551698 1_555
O1 P1 1.551714 1_555
O2 P2 1.551705 1_555
O3 P3 1.551698 1_555
O4 P4 1.551714 1_555
O5 P5 1.551705 1_555
O6 P0 1.543568 1_555
O7 P1 1.543558 1_655
O8 P2 1.543549 1_545
O9 P3 1.543568 1_555
O10 P4 1.543558 1_455
O11 P5 1.543549 1_565
O12 P0 1.545548 1_555
O13 P1 1.545543 1_655
O14 P2 1.545552 1_545
O15 P3 1.545548 1_555
O16 P4 1.545543 1_455
O17 P5 1.545552 1_565
O18 P5 1.507625 1_555
O19 P4 1.507625 1_555
O20 P3 1.507617 1_555
O21 P2 1.507625 1_555
O22 P1 1.507625 1_555
O23 P0 1.507617 1_555
