# generated using pymatgen
data_ZnIn2GeAs4
_symmetry_space_group_name_H-M   'P 1'
_cell_length_a   6.83245133
_cell_length_b   6.83245133
_cell_length_c   6.83245133
_cell_angle_alpha   131.74195250
_cell_angle_beta   131.74195250
_cell_angle_gamma   70.63689145
_symmetry_Int_Tables_number   1
_chemical_formula_structural   ZnIn2GeAs4
_chemical_formula_sum   'Zn1 In2 Ge1 As4'
_cell_volume   173.96444170
_cell_formula_units_Z   1
loop_
 _symmetry_equiv_pos_site_id
 _symmetry_equiv_pos_as_xyz
  1  'x, y, z'
loop_
 _atom_site_type_symbol
 _atom_site_label
 _atom_site_symmetry_multiplicity
 _atom_site_fract_x
 _atom_site_fract_y
 _atom_site_fract_z
 _atom_site_occupancy
  Zn  Zn0  1  0.00000000  0.00000000  0.00000000  1
  In  In0  1  0.25000000  0.75000000  0.50000000  1
  In  In1  1  0.75000000  0.25000000  0.50000000  1
  Ge  Ge0  1  0.50000000  0.50000000  0.00000000  1
  As  As0  1  0.50000000  0.00000000  0.50000000  1
  As  As1  1  0.74924400  0.74924400  0.00000000  1
  As  As2  1  0.00000000  0.50000000  0.50000000  1
  As  As3  1  0.25075600  0.25075600  0.00000000  1
loop_
_geom_bond_atom_site_label_1
_geom_bond_atom_site_label_2
_geom_bond_distance
_geom_bond_site_symmetry_2
As0 In1 2.787475 1_555
As0 In0 2.787475 1_545
As0 Ge0 2.793057 1_556
As0 Zn0 2.793057 1_555
As0 Ge0 2.793057 1_545
As0 Zn0 2.793057 1_656
As1 Ge0 2.779045 1_555
As1 In0 2.793070 1_554
As1 In1 2.793070 1_565
As1 In1 2.793070 1_554
As1 In0 2.793070 1_655
As1 Zn0 2.795904 1_665
As2 In0 2.787475 1_555
As2 In1 2.787475 1_455
As2 Ge0 2.793057 1_556
As2 Zn0 2.793057 1_555
As2 Zn0 2.793057 1_566
As2 Ge0 2.793057 1_455
As3 Ge0 2.779045 1_555
As3 In0 2.793070 1_555
As3 In1 2.793070 1_454
As3 In1 2.793070 1_555
As3 In0 2.793070 1_544
As3 Zn0 2.795904 1_555
