# generated using pymatgen
data_Na3P3O10
_symmetry_space_group_name_H-M   'P 1'
_cell_length_a   7.82928600
_cell_length_b   8.23035400
_cell_length_c   13.54538200
_cell_angle_alpha   90.00000000
_cell_angle_beta   90.00000000
_cell_angle_gamma   90.00000000
_symmetry_Int_Tables_number   1
_chemical_formula_structural   Na3P3O10
_chemical_formula_sum   'Na12 P12 O40'
_cell_volume   872.83455322
_cell_formula_units_Z   4
loop_
 _symmetry_equiv_pos_site_id
 _symmetry_equiv_pos_as_xyz
  1  'x, y, z'
loop_
 _atom_site_type_symbol
 _atom_site_label
 _atom_site_symmetry_multiplicity
 _atom_site_fract_x
 _atom_site_fract_y
 _atom_site_fract_z
 _atom_site_occupancy
  Na  Na0  1  0.53999600  0.75000000  0.26999200  1
  Na  Na1  1  0.03999600  0.75000000  0.23000800  1
  Na  Na2  1  0.46000400  0.25000000  0.73000800  1
  Na  Na3  1  0.96000400  0.25000000  0.76999200  1
  Na  Na4  1  0.82241300  0.49176300  0.42136500  1
  Na  Na5  1  0.32241300  0.00823700  0.07863500  1
  Na  Na6  1  0.17758700  0.99176300  0.57863500  1
  Na  Na7  1  0.67758700  0.50823700  0.92136500  1
  Na  Na8  1  0.17758700  0.50823700  0.57863500  1
  Na  Na9  1  0.67758700  0.99176300  0.92136500  1
  Na  Na10  1  0.82241300  0.00823700  0.42136500  1
  Na  Na11  1  0.32241300  0.49176300  0.07863500  1
  P  P0  1  0.48891600  0.25000000  0.46827000  1
  P  P1  1  0.98891600  0.25000000  0.03173000  1
  P  P2  1  0.51108400  0.75000000  0.53173000  1
  P  P3  1  0.01108400  0.75000000  0.96827000  1
  P  P4  1  0.26108700  0.07187900  0.33544300  1
  P  P5  1  0.76108700  0.42812100  0.16455700  1
  P  P6  1  0.73891300  0.57187900  0.66455700  1
  P  P7  1  0.23891300  0.92812100  0.83544300  1
  P  P8  1  0.73891300  0.92812100  0.66455700  1
  P  P9  1  0.23891300  0.57187900  0.83544300  1
  P  P10  1  0.26108700  0.42812100  0.33544300  1
  P  P11  1  0.76108700  0.07187900  0.16455700  1
  O  O0  1  0.67961400  0.25000000  0.47406700  1
  O  O1  1  0.17961400  0.25000000  0.02593300  1
  O  O2  1  0.32038600  0.75000000  0.52593300  1
  O  O3  1  0.82038600  0.75000000  0.97406700  1
  O  O4  1  0.62034100  0.75000000  0.44058000  1
  O  O5  1  0.12034100  0.75000000  0.05942000  1
  O  O6  1  0.37965900  0.25000000  0.55941900  1
  O  O7  1  0.87965900  0.25000000  0.94058100  1
  O  O8  1  0.23876800  0.25000000  0.28396000  1
  O  O9  1  0.73876800  0.25000000  0.21604000  1
  O  O10  1  0.76123200  0.75000000  0.71604000  1
  O  O11  1  0.26123200  0.75000000  0.78396000  1
  O  O12  1  0.43770100  0.09689900  0.39721800  1
  O  O13  1  0.93770100  0.40310100  0.10278200  1
  O  O14  1  0.56229900  0.59689900  0.60278200  1
  O  O15  1  0.06229900  0.90310100  0.89721800  1
  O  O16  1  0.56229900  0.90310100  0.60278200  1
  O  O17  1  0.06229900  0.59689900  0.89721800  1
  O  O18  1  0.43770100  0.40310100  0.39721800  1
  O  O19  1  0.93770100  0.09689900  0.10278200  1
  O  O20  1  0.11687700  0.04275600  0.40647000  1
  O  O21  1  0.61687700  0.45724400  0.09353000  1
  O  O22  1  0.88312300  0.54275600  0.59353000  1
  O  O23  1  0.38312300  0.95724400  0.90647000  1
  O  O24  1  0.88312300  0.95724400  0.59353000  1
  O  O25  1  0.38312300  0.54275600  0.90647000  1
  O  O26  1  0.11687700  0.45724400  0.40647000  1
  O  O27  1  0.61687700  0.04275600  0.09353000  1
  O  O28  1  0.29718200  0.95173500  0.25496300  1
  O  O29  1  0.79718200  0.54826500  0.24503700  1
  O  O30  1  0.70281800  0.45173500  0.74503700  1
  O  O31  1  0.20281800  0.04826500  0.75496300  1
  O  O32  1  0.70281800  0.04826500  0.74503700  1
  O  O33  1  0.20281800  0.45173500  0.75496300  1
  O  O34  1  0.29718200  0.54826500  0.25496300  1
  O  O35  1  0.79718200  0.95173500  0.24503700  1
  O  O36  1  0.01955700  0.75000000  0.40510300  1
  O  O37  1  0.51955700  0.75000000  0.09489700  1
  O  O38  1  0.98044300  0.25000000  0.59489700  1
  O  O39  1  0.48044300  0.25000000  0.90510300  1
loop_
_geom_bond_atom_site_label_1
_geom_bond_atom_site_label_2
_geom_bond_distance
_geom_bond_site_symmetry_2
Na0 O37 2.377121 1_555
Na0 O4 2.394773 1_555
Na0 O34 2.532239 1_555
Na0 O28 2.532239 1_555
Na0 O35 2.631642 1_555
Na0 O29 2.631642 1_555
Na1 O36 2.377121 1_555
Na1 O5 2.394773 1_555
Na1 O35 2.532239 1_455
Na1 O29 2.532239 1_455
Na1 O28 2.631642 1_555
Na1 O34 2.631642 1_555
Na2 O39 2.377121 1_555
Na2 O6 2.394786 1_555
Na2 O30 2.532239 1_555
Na2 O32 2.532239 1_555
Na2 O33 2.631642 1_555
Na2 O31 2.631642 1_555
Na3 O38 2.377121 1_555
Na3 O7 2.394786 1_555
Na3 O33 2.532239 1_655
Na3 O31 2.532239 1_655
Na3 O32 2.631642 1_555
Na3 O30 2.631642 1_555
Na4 O26 2.331628 1_655
Na4 O0 2.391411 1_555
Na4 O22 2.416708 1_555
Na4 O29 2.441286 1_555
Na4 O36 2.635935 1_655
Na4 O4 2.662324 1_555
Na5 O27 2.331628 1_555
Na5 O1 2.391411 1_555
Na5 O23 2.416708 1_544
Na5 O28 2.441286 1_545
Na5 O37 2.635935 1_545
Na5 O5 2.662324 1_545
Na6 O24 2.331628 1_455
Na6 O2 2.391411 1_555
Na6 O20 2.416708 1_565
Na6 O31 2.441286 1_565
Na6 O38 2.635935 1_465
Na6 O6 2.662325 1_565
Na7 O25 2.331628 1_555
Na7 O3 2.391411 1_555
Na7 O21 2.416708 1_556
Na7 O30 2.441286 1_555
Na7 O39 2.635935 1_555
Na7 O7 2.662325 1_555
Na8 O22 2.331628 1_455
Na8 O2 2.391411 1_555
Na8 O26 2.416708 1_555
Na8 O33 2.441286 1_555
Na8 O38 2.635935 1_455
Na8 O6 2.662325 1_555
Na9 O23 2.331628 1_555
Na9 O3 2.391411 1_555
Na9 O27 2.416708 1_566
Na9 O32 2.441286 1_565
Na9 O39 2.635935 1_565
Na9 O7 2.662325 1_565
Na10 O20 2.331628 1_655
Na10 O0 2.391411 1_555
Na10 O24 2.416708 1_545
Na10 O35 2.441286 1_545
Na10 O36 2.635935 1_645
Na10 O4 2.662324 1_545
Na11 O21 2.331628 1_555
Na11 O1 2.391411 1_555
Na11 O25 2.416708 1_554
Na11 O34 2.441286 1_555
Na11 O37 2.635935 1_555
Na11 O5 2.662324 1_555
O0 P0 1.495093 1_555
O1 P1 1.495093 1_455
O2 P2 1.495093 1_555
O3 P3 1.495093 1_655
O4 P2 1.502034 1_555
O5 P3 1.502034 1_554
O6 P0 1.502023 1_555
O7 P1 1.502023 1_556
O8 P10 1.632787 1_555
O8 P4 1.632787 1_555
O9 P5 1.632787 1_555
O9 P11 1.632787 1_555
O10 P6 1.632787 1_555
O10 P8 1.632787 1_555
O11 P7 1.632787 1_555
O11 P9 1.632787 1_555
O12 P4 1.629298 1_555
O12 P0 1.635493 1_555
O13 P5 1.629298 1_555
O13 P1 1.635493 1_555
O14 P6 1.629298 1_555
O14 P2 1.635493 1_555
O15 P7 1.629298 1_555
O15 P3 1.635493 1_555
O16 P8 1.629298 1_555
O16 P2 1.635493 1_555
O17 P9 1.629298 1_555
O17 P3 1.635493 1_555
O18 P10 1.629298 1_555
O18 P0 1.635493 1_555
O19 P11 1.629298 1_555
O19 P1 1.635493 1_555
O20 P4 1.502613 1_555
O21 P5 1.502613 1_555
O22 P6 1.502613 1_555
O23 P7 1.502613 1_555
O24 P8 1.502613 1_555
O25 P9 1.502613 1_555
O26 P10 1.502613 1_555
O27 P11 1.502613 1_555
O28 P4 1.498676 1_565
O29 P5 1.498676 1_555
O30 P6 1.498676 1_555
O31 P7 1.498676 1_545
O32 P8 1.498676 1_545
O33 P9 1.498676 1_555
O34 P10 1.498676 1_555
O35 P11 1.498676 1_565
