# generated using pymatgen
data_MgSi
_symmetry_space_group_name_H-M   'P 1'
_cell_length_a   5.07814090
_cell_length_b   5.07814090
_cell_length_c   11.84374037
_cell_angle_alpha   79.33173914
_cell_angle_beta   79.33173914
_cell_angle_gamma   51.87300873
_symmetry_Int_Tables_number   1
_chemical_formula_structural   MgSi
_chemical_formula_sum   'Mg6 Si6'
_cell_volume   235.11161225
_cell_formula_units_Z   6
loop_
 _symmetry_equiv_pos_site_id
 _symmetry_equiv_pos_as_xyz
  1  'x, y, z'
loop_
 _atom_site_type_symbol
 _atom_site_label
 _atom_site_symmetry_multiplicity
 _atom_site_fract_x
 _atom_site_fract_y
 _atom_site_fract_z
 _atom_site_occupancy
  Mg  Mg0  1  0.87176700  0.87176700  0.41540400  1
  Mg  Mg1  1  0.51956800  0.51956800  0.79199600  1
  Mg  Mg2  1  0.22328300  0.22328300  0.09738000  1
  Mg  Mg3  1  0.48043200  0.48043200  0.20800400  1
  Mg  Mg4  1  0.77671700  0.77671700  0.90262000  1
  Mg  Mg5  1  0.12823300  0.12823300  0.58459600  1
  Si  Si0  1  0.18189300  0.18189300  0.33966600  1
  Si  Si1  1  0.09188300  0.09188300  0.90476500  1
  Si  Si2  1  0.81810700  0.81810700  0.66033400  1
  Si  Si3  1  0.42318800  0.42318800  0.59174500  1
  Si  Si4  1  0.57681200  0.57681200  0.40825500  1
  Si  Si5  1  0.90811700  0.90811700  0.09523500  1
loop_
_geom_bond_atom_site_label_1
_geom_bond_atom_site_label_2
_geom_bond_distance
_geom_bond_site_symmetry_2
Mg0 Si4 2.712618 1_555
Mg0 Si0 2.789540 1_665
Mg0 Si2 2.840775 1_555
Mg0 Si4 2.895190 1_565
Mg0 Si4 2.895190 1_655
Mg0 Si0 3.063587 1_565
Mg0 Si0 3.063587 1_655
Mg0 Si3 3.149517 1_655
Mg0 Si3 3.149517 1_565
Mg1 Si3 2.694344 1_555
Mg1 Si1 2.741593 1_655
Mg1 Si1 2.741593 1_565
Mg1 Si2 2.848815 1_555
Mg2 Si5 2.786738 1_455
Mg2 Si5 2.786738 1_545
Mg2 Si1 2.787782 1_554
Mg2 Si0 2.816156 1_555
Mg2 Si5 2.883853 1_445
Mg3 Si4 2.694344 1_555
Mg3 Si5 2.741593 1_455
Mg3 Si5 2.741593 1_545
Mg3 Si0 2.848815 1_555
Mg4 Si1 2.786738 1_565
Mg4 Si1 2.786738 1_655
Mg4 Si5 2.787782 1_556
Mg4 Si2 2.816156 1_555
Mg4 Si1 2.883853 1_665
Mg5 Si3 2.712618 1_555
Mg5 Si2 2.789540 1_445
Mg5 Si0 2.840775 1_555
Mg5 Si3 2.895190 1_545
Mg5 Si3 2.895190 1_455
Mg5 Si2 3.063587 1_455
Mg5 Si2 3.063587 1_545
Mg5 Si4 3.149517 1_455
Mg5 Si4 3.149517 1_545
Si0 Si4 2.488592 1_455
Si0 Si4 2.488592 1_545
Si1 Si5 2.519355 1_446
Si2 Si3 2.488592 1_655
Si2 Si3 2.488592 1_565
Si3 Si4 2.331548 1_555
