# generated using pymatgen
data_Y4AlSi2(O2F)5
_symmetry_space_group_name_H-M   'P 1'
_cell_length_a   8.76440869
_cell_length_b   8.76440869
_cell_length_c   4.31497075
_cell_angle_alpha   81.80414010
_cell_angle_beta   81.80414010
_cell_angle_gamma   118.23352556
_symmetry_Int_Tables_number   1
_chemical_formula_structural   Y4AlSi2(O2F)5
_chemical_formula_sum   'Y4 Al1 Si2 O10 F5'
_cell_volume   280.53122691
_cell_formula_units_Z   1
loop_
 _symmetry_equiv_pos_site_id
 _symmetry_equiv_pos_as_xyz
  1  'x, y, z'
loop_
 _atom_site_type_symbol
 _atom_site_label
 _atom_site_symmetry_multiplicity
 _atom_site_fract_x
 _atom_site_fract_y
 _atom_site_fract_z
 _atom_site_occupancy
  Y  Y0  1  0.15650900  0.44549600  0.88094800  1
  Y  Y1  1  0.54201800  0.80431400  0.17839400  1
  Y  Y2  1  0.80431400  0.54201800  0.17839400  1
  Y  Y3  1  0.44549600  0.15650900  0.88094800  1
  Al  Al0  1  0.99723400  0.99723400  0.00662400  1
  Si  Si0  1  0.14526200  0.83380300  0.51671400  1
  Si  Si1  1  0.83380300  0.14526200  0.51671400  1
  O  O0  1  0.80718800  0.80718800  0.89879900  1
  O  O1  1  0.64404400  0.06462000  0.77822900  1
  O  O2  1  0.20526800  0.20526800  0.05890300  1
  O  O3  1  0.33735000  0.90031700  0.26831200  1
  O  O4  1  0.18121000  0.99317900  0.70992100  1
  O  O5  1  0.99317900  0.18121000  0.70992100  1
  O  O6  1  0.90031700  0.33735000  0.26831200  1
  O  O7  1  0.99352900  0.81077900  0.30976600  1
  O  O8  1  0.81077900  0.99352900  0.30976600  1
  O  O9  1  0.06462000  0.64404400  0.77822900  1
  F  F0  1  0.70240900  0.43223500  0.74123600  1
  F  F1  1  0.43223500  0.70240900  0.74123600  1
  F  F2  1  0.25462100  0.53564100  0.32857800  1
  F  F3  1  0.53564100  0.25462100  0.32857800  1
  F  F4  1  0.56952100  0.56952100  0.34622700  1
loop_
_geom_bond_atom_site_label_1
_geom_bond_atom_site_label_2
_geom_bond_distance
_geom_bond_site_symmetry_2
Al0 O0 1.892665 1_554
Al0 O7 1.926339 1_555
Al0 O8 1.926339 1_555
Al0 O5 1.928450 1_564
Al0 O4 1.928450 1_654
Al0 O2 1.946511 1_665
O0 Y1 2.448248 1_556
O0 Y2 2.448248 1_556
O1 Si1 1.632256 1_555
O1 Y3 2.254108 1_555
O1 Y1 2.343599 1_546
O2 Y3 2.385181 1_554
O2 Y0 2.385181 1_554
O3 Si0 1.643713 1_555
O3 Y3 2.280027 1_564
O3 Y1 2.323545 1_555
O4 Si0 1.654076 1_555
O4 Y3 2.368643 1_565
O5 Si1 1.654076 1_555
O5 Y0 2.368643 1_655
O6 Si1 1.643713 1_555
O6 Y0 2.280027 1_654
O6 Y2 2.323545 1_555
O7 Si0 1.656105 1_655
O7 Y2 2.360690 1_555
O8 Si1 1.656105 1_565
O8 Y1 2.360690 1_555
O9 Si0 1.632256 1_555
O9 Y0 2.254108 1_555
O9 Y2 2.343599 1_456
F0 Y3 2.307102 1_555
F0 Y2 2.338047 1_556
F0 Y2 2.350328 1_555
F1 Y0 2.307102 1_555
F1 Y1 2.338047 1_556
F1 Y1 2.350328 1_555
F2 Y0 2.297930 1_555
F2 Y0 2.315214 1_554
F2 Y1 2.407744 1_555
F3 Y3 2.297930 1_555
F3 Y3 2.315214 1_554
F3 Y2 2.407744 1_555
F4 Y1 2.216163 1_555
F4 Y2 2.216163 1_555
