# generated using pymatgen
data_CoNiSe2
_symmetry_space_group_name_H-M   'P 1'
_cell_length_a   3.65466771
_cell_length_b   3.65466771
_cell_length_c   5.17163100
_cell_angle_alpha   90.00000000
_cell_angle_beta   90.00000000
_cell_angle_gamma   119.99999482
_symmetry_Int_Tables_number   1
_chemical_formula_structural   CoNiSe2
_chemical_formula_sum   'Co1 Ni1 Se2'
_cell_volume   59.82104255
_cell_formula_units_Z   1
loop_
 _symmetry_equiv_pos_site_id
 _symmetry_equiv_pos_as_xyz
  1  'x, y, z'
loop_
 _atom_site_type_symbol
 _atom_site_label
 _atom_site_symmetry_multiplicity
 _atom_site_fract_x
 _atom_site_fract_y
 _atom_site_fract_z
 _atom_site_occupancy
  Co  Co0  1  0.00000000  0.00000000  0.50000000  1
  Ni  Ni0  1  0.00000000  0.00000000  0.00000000  1
  Se  Se0  1  0.33333300  0.66666700  0.26329400  1
  Se  Se1  1  0.66666700  0.33333300  0.73670600  1
loop_
_geom_bond_atom_site_label_1
_geom_bond_atom_site_label_2
_geom_bond_distance
_geom_bond_site_symmetry_2
Co0 Se1 2.439415 1_455
Co0 Se0 2.439415 1_545
Co0 Se0 2.439418 1_445
Co0 Se1 2.439418 1_555
Co0 Se0 2.439418 1_555
Co0 Se1 2.439418 1_445
Ni0 Se0 2.511236 1_545
Ni0 Se1 2.511236 1_454
Ni0 Se0 2.511239 1_445
Ni0 Se0 2.511239 1_555
Ni0 Se1 2.511239 1_444
Ni0 Se1 2.511239 1_554
