# generated using pymatgen
data_GdY3
_symmetry_space_group_name_H-M   'P 1'
_cell_length_a   5.10090920
_cell_length_b   5.10090703
_cell_length_c   5.10090811
_cell_angle_alpha   90.00000000
_cell_angle_beta   90.00000000
_cell_angle_gamma   90.00000000
_symmetry_Int_Tables_number   1
_chemical_formula_structural   GdY3
_chemical_formula_sum   'Gd1 Y3'
_cell_volume   132.72187270
_cell_formula_units_Z   1
loop_
 _symmetry_equiv_pos_site_id
 _symmetry_equiv_pos_as_xyz
  1  'x, y, z'
loop_
 _atom_site_type_symbol
 _atom_site_label
 _atom_site_symmetry_multiplicity
 _atom_site_fract_x
 _atom_site_fract_y
 _atom_site_fract_z
 _atom_site_occupancy
  Gd  Gd0  1  -0.00000000  -0.00000000  0.00000000  1
  Y  Y0  1  0.50000000  -0.00000000  0.50000000  1
  Y  Y1  1  0.00000000  0.50000000  0.50000000  1
  Y  Y2  1  0.50000000  0.50000000  0.00000000  1
loop_
_geom_bond_atom_site_label_1
_geom_bond_atom_site_label_2
_geom_bond_distance
_geom_bond_site_symmetry_2
Gd0 Y1 3.606886 1_545
Gd0 Y1 3.606886 1_555
Gd0 Y1 3.606886 1_544
Gd0 Y1 3.606886 1_554
Gd0 Y2 3.606887 1_555
Gd0 Y2 3.606887 1_445
Gd0 Y2 3.606887 1_545
Gd0 Y2 3.606887 1_455
Gd0 Y0 3.606887 1_554
Gd0 Y0 3.606887 1_455
Gd0 Y0 3.606887 1_454
Gd0 Y0 3.606887 1_555
Y0 Y2 3.606886 1_545
Y0 Y2 3.606886 1_546
Y0 Y2 3.606886 1_555
Y0 Y2 3.606886 1_556
Y0 Y1 3.606887 1_645
Y0 Y1 3.606887 1_555
Y0 Y1 3.606887 1_655
Y0 Y1 3.606887 1_545
Y1 Y2 3.606887 1_555
Y1 Y2 3.606887 1_456
Y1 Y2 3.606887 1_455
Y1 Y2 3.606887 1_556
