# generated using pymatgen
data_Ga40AgMo8
_symmetry_space_group_name_H-M   'P 1'
_cell_length_a   9.60042712
_cell_length_b   9.60042712
_cell_length_c   9.60042731
_cell_angle_alpha   94.64739596
_cell_angle_beta   94.64739596
_cell_angle_gamma   94.64739149
_symmetry_Int_Tables_number   1
_chemical_formula_structural   Ga40AgMo8
_chemical_formula_sum   'Ga40 Ag1 Mo8'
_cell_volume   875.62196756
_cell_formula_units_Z   1
loop_
 _symmetry_equiv_pos_site_id
 _symmetry_equiv_pos_as_xyz
  1  'x, y, z'
loop_
 _atom_site_type_symbol
 _atom_site_label
 _atom_site_symmetry_multiplicity
 _atom_site_fract_x
 _atom_site_fract_y
 _atom_site_fract_z
 _atom_site_occupancy
  Ga  Ga0  1  0.50000000  0.50000000  0.50000000  1
  Ga  Ga1  1  0.50000000  0.50000000  0.00000000  1
  Ga  Ga2  1  0.50000000  0.00000000  0.50000000  1
  Ga  Ga3  1  0.00000000  0.50000000  0.50000000  1
  Ga  Ga4  1  0.38864700  0.36554100  0.73430400  1
  Ga  Ga5  1  0.36554100  0.73430400  0.38864700  1
  Ga  Ga6  1  0.73430400  0.38864700  0.36554100  1
  Ga  Ga7  1  0.61135300  0.63445900  0.26569600  1
  Ga  Ga8  1  0.63445900  0.26569600  0.61135300  1
  Ga  Ga9  1  0.26569600  0.61135300  0.63445900  1
  Ga  Ga10  1  0.46192200  0.22103500  0.32471400  1
  Ga  Ga11  1  0.22103500  0.32471400  0.46192200  1
  Ga  Ga12  1  0.32471400  0.46192200  0.22103500  1
  Ga  Ga13  1  0.53807800  0.77896500  0.67528600  1
  Ga  Ga14  1  0.77896500  0.67528600  0.53807800  1
  Ga  Ga15  1  0.67528600  0.53807800  0.77896500  1
  Ga  Ga16  1  0.55051000  0.92556200  0.22158300  1
  Ga  Ga17  1  0.92556200  0.22158300  0.55051000  1
  Ga  Ga18  1  0.22158300  0.55051000  0.92556200  1
  Ga  Ga19  1  0.44949000  0.07443800  0.77841700  1
  Ga  Ga20  1  0.07443800  0.77841700  0.44949000  1
  Ga  Ga21  1  0.77841700  0.44949000  0.07443800  1
  Ga  Ga22  1  0.40055200  0.21330300  0.03153300  1
  Ga  Ga23  1  0.21330300  0.03153300  0.40055200  1
  Ga  Ga24  1  0.03153300  0.40055200  0.21330300  1
  Ga  Ga25  1  0.59944800  0.78669700  0.96846700  1
  Ga  Ga26  1  0.78669700  0.96846700  0.59944800  1
  Ga  Ga27  1  0.96846700  0.59944800  0.78669700  1
  Ga  Ga28  1  0.12690400  0.26043200  0.94477300  1
  Ga  Ga29  1  0.26043200  0.94477300  0.12690400  1
  Ga  Ga30  1  0.94477300  0.12690400  0.26043200  1
  Ga  Ga31  1  0.87309600  0.73956800  0.05522700  1
  Ga  Ga32  1  0.73956800  0.05522700  0.87309600  1
  Ga  Ga33  1  0.05522700  0.87309600  0.73956800  1
  Ga  Ga34  1  0.32087000  0.82327500  0.87501600  1
  Ga  Ga35  1  0.82327500  0.87501600  0.32087000  1
  Ga  Ga36  1  0.87501600  0.32087000  0.82327500  1
  Ga  Ga37  1  0.67913000  0.17672500  0.12498400  1
  Ga  Ga38  1  0.17672500  0.12498400  0.67913000  1
  Ga  Ga39  1  0.12498400  0.67913000  0.17672500  1
  Ag  Ag0  1  0.00000000  0.00000000  0.00000000  1
  Mo  Mo0  1  0.20023600  0.20023600  0.20023600  1
  Mo  Mo1  1  0.79976400  0.79976400  0.79976400  1
  Mo  Mo2  1  0.11228700  0.38763500  0.70834100  1
  Mo  Mo3  1  0.38763500  0.70834100  0.11228700  1
  Mo  Mo4  1  0.70834100  0.11228700  0.38763500  1
  Mo  Mo5  1  0.88771300  0.61236500  0.29165900  1
  Mo  Mo6  1  0.61236500  0.29165900  0.88771300  1
  Mo  Mo7  1  0.29165900  0.88771300  0.61236500  1
loop_
_geom_bond_atom_site_label_1
_geom_bond_atom_site_label_2
_geom_bond_distance
_geom_bond_site_symmetry_2
Ga0 Ga8 2.916443 1_555
Ga0 Ga5 2.916443 1_555
Ga0 Ga9 2.916443 1_555
Ga0 Ga6 2.916443 1_555
Ga0 Ga7 2.916443 1_555
Ga0 Ga4 2.916443 1_555
Ga0 Ga13 3.024817 1_555
Ga0 Ga10 3.024817 1_555
Ga0 Ga15 3.024817 1_555
Ga0 Ga12 3.024817 1_555
Ga0 Ga14 3.024817 1_555
Ga0 Ga11 3.024817 1_555
Ga1 Mo6 2.552476 1_554
Ga1 Mo3 2.552476 1_555
Ga2 Mo7 2.552476 1_545
Ga2 Mo4 2.552476 1_555
Ga3 Mo5 2.552476 1_455
Ga3 Mo2 2.552476 1_555
Ga4 Mo2 2.671900 1_555
Ga4 Mo6 2.681188 1_555
Ga5 Mo3 2.671900 1_555
Ga5 Mo7 2.681188 1_555
Ga6 Mo4 2.671900 1_555
Ga6 Mo5 2.681188 1_555
Ga7 Mo5 2.671900 1_555
Ga7 Mo3 2.681188 1_555
Ga8 Mo6 2.671900 1_555
Ga8 Mo4 2.681188 1_555
Ga9 Mo7 2.671900 1_555
Ga9 Mo2 2.681188 1_555
Ga10 Mo0 2.678276 1_555
Ga10 Mo4 2.705997 1_555
Ga10 Ga37 2.977531 1_555
Ga11 Mo0 2.678276 1_555
Ga11 Mo2 2.705997 1_555
Ga11 Ga38 2.977531 1_555
Ga12 Mo0 2.678276 1_555
Ga12 Mo3 2.705997 1_555
Ga12 Ga39 2.977531 1_555
Ga13 Mo1 2.678276 1_555
Ga13 Mo7 2.705997 1_555
Ga13 Ga34 2.977531 1_555
Ga14 Mo1 2.678276 1_555
Ga14 Mo5 2.705997 1_555
Ga14 Ga35 2.977531 1_555
Ga15 Mo1 2.678276 1_555
Ga15 Mo6 2.705997 1_555
Ga15 Ga36 2.977531 1_555
Ga16 Mo3 2.597332 1_555
Ga16 Mo4 2.599271 1_565
Ga16 Ga35 2.806749 1_555
Ga16 Ga37 2.874802 1_565
Ga16 Ga29 2.883737 1_555
Ga17 Mo4 2.597332 1_555
Ga17 Mo2 2.599271 1_655
Ga17 Ga36 2.806749 1_555
Ga17 Ga38 2.874802 1_655
Ga17 Ga30 2.883737 1_555
Ga18 Mo2 2.597332 1_555
Ga18 Mo3 2.599271 1_556
Ga18 Ga34 2.806749 1_555
Ga18 Ga39 2.874802 1_556
Ga18 Ga28 2.883737 1_555
Ga19 Mo6 2.597332 1_555
Ga19 Mo7 2.599271 1_545
Ga19 Ga38 2.806749 1_555
Ga19 Ga34 2.874802 1_545
Ga19 Ga32 2.883737 1_555
Ga20 Mo7 2.597332 1_555
Ga20 Mo5 2.599271 1_455
Ga20 Ga39 2.806749 1_555
Ga20 Ga35 2.874802 1_455
Ga20 Ga33 2.883737 1_555
Ga21 Mo5 2.597332 1_555
Ga21 Mo6 2.599271 1_554
Ga21 Ga37 2.806749 1_555
Ga21 Ga36 2.874802 1_554
Ga21 Ga31 2.883737 1_555
Ga22 Mo0 2.614547 1_555
Ga22 Mo6 2.642503 1_554
Ga22 Ga28 2.774787 1_554
Ga22 Ga37 2.809880 1_555
Ga22 Ga29 3.051907 1_545
Ga23 Mo0 2.614547 1_555
Ga23 Mo7 2.642502 1_545
Ga23 Ga29 2.774787 1_545
Ga23 Ga38 2.809881 1_555
Ga23 Ga30 3.051907 1_455
Ga24 Mo0 2.614547 1_555
Ga24 Mo5 2.642502 1_455
Ga24 Ga30 2.774787 1_455
Ga24 Ga39 2.809881 1_555
Ga24 Ga28 3.051907 1_554
Ga25 Mo1 2.614547 1_555
Ga25 Mo3 2.642503 1_556
Ga25 Ga31 2.774787 1_556
Ga25 Ga34 2.809880 1_555
Ga25 Ga32 3.051907 1_565
Ga26 Mo1 2.614547 1_555
Ga26 Mo4 2.642502 1_565
Ga26 Ga32 2.774787 1_565
Ga26 Ga35 2.809881 1_555
Ga26 Ga33 3.051907 1_655
Ga27 Mo1 2.614547 1_555
Ga27 Mo2 2.642502 1_655
Ga27 Ga33 2.774787 1_655
Ga27 Ga36 2.809881 1_555
Ga27 Ga31 3.051907 1_556
Ga28 Mo0 2.619246 1_556
Ga28 Mo2 2.662439 1_555
Ga28 Ga36 2.724893 1_455
Ga28 Ga38 2.860896 1_555
Ga29 Mo0 2.619246 1_565
Ga29 Mo3 2.662439 1_555
Ga29 Ga34 2.724893 1_554
Ga29 Ga39 2.860896 1_555
Ga30 Mo0 2.619246 1_655
Ga30 Mo4 2.662439 1_555
Ga30 Ga35 2.724893 1_545
Ga30 Ga37 2.860896 1_555
Ga31 Mo1 2.619246 1_554
Ga31 Mo5 2.662439 1_555
Ga31 Ga39 2.724893 1_655
Ga31 Ga35 2.860896 1_555
Ga32 Mo1 2.619246 1_545
Ga32 Mo6 2.662439 1_555
Ga32 Ga37 2.724893 1_556
Ga32 Ga36 2.860896 1_555
Ga33 Mo1 2.619246 1_455
Ga33 Mo7 2.662439 1_555
Ga33 Ga38 2.724893 1_565
Ga33 Ga34 2.860896 1_555
Ga34 Mo7 2.643091 1_555
Ga34 Mo3 2.665056 1_556
Ga34 Ga9 2.935851 1_555
Ga35 Mo5 2.643091 1_555
Ga35 Mo4 2.665056 1_565
Ga35 Ga7 2.935851 1_555
Ga36 Mo6 2.643091 1_555
Ga36 Mo2 2.665056 1_655
Ga36 Ga8 2.935851 1_555
Ga37 Mo4 2.643091 1_555
Ga37 Mo6 2.665056 1_554
Ga37 Ga6 2.935851 1_555
Ga38 Mo2 2.643091 1_555
Ga38 Mo7 2.665056 1_545
Ga38 Ga4 2.935851 1_555
Ga39 Mo3 2.643091 1_555
Ga39 Mo5 2.665056 1_455
Ga39 Ga5 2.935851 1_555
Ag0 Ga32 2.800467 1_454
Ag0 Ga29 2.800467 1_545
Ag0 Ga33 2.800467 1_544
Ag0 Ga30 2.800467 1_455
Ag0 Ga28 2.800467 1_554
Ag0 Ga31 2.800467 1_445
Ag0 Mo0 3.047918 1_555
Ag0 Mo1 3.047918 1_444
