# generated using pymatgen
data_La2CuTe4
_symmetry_space_group_name_H-M   'P 1'
_cell_length_a   8.55255900
_cell_length_b   6.53895500
_cell_length_c   7.74718312
_cell_angle_alpha   89.77240438
_cell_angle_beta   90.00000000
_cell_angle_gamma   90.00000000
_symmetry_Int_Tables_number   1
_chemical_formula_structural   La2CuTe4
_chemical_formula_sum   'La4 Cu2 Te8'
_cell_volume   433.25623631
_cell_formula_units_Z   2
loop_
 _symmetry_equiv_pos_site_id
 _symmetry_equiv_pos_as_xyz
  1  'x, y, z'
loop_
 _atom_site_type_symbol
 _atom_site_label
 _atom_site_symmetry_multiplicity
 _atom_site_fract_x
 _atom_site_fract_y
 _atom_site_fract_z
 _atom_site_occupancy
  La  La0  1  0.05631800  0.49921500  0.22758900  1
  La  La1  1  0.94096600  0.00472000  0.76298500  1
  La  La2  1  0.44096600  0.99528000  0.23701500  1
  La  La3  1  0.55631800  0.50078500  0.77241100  1
  Cu  Cu0  1  0.20314900  0.68295800  0.58640900  1
  Cu  Cu1  1  0.70314900  0.31704200  0.41359100  1
  Te  Te0  1  0.41052300  0.50982300  0.38389000  1
  Te  Te1  1  0.59355400  0.01957100  0.61585100  1
  Te  Te2  1  0.09355400  0.98042900  0.38414900  1
  Te  Te3  1  0.91052300  0.49017700  0.61611000  1
  Te  Te4  1  0.24856600  0.74866400  0.91378100  1
  Te  Te5  1  0.74856600  0.25133600  0.08621900  1
  Te  Te6  1  0.74892400  0.75284500  0.07624600  1
  Te  Te7  1  0.24892400  0.24715500  0.92375400  1
loop_
_geom_bond_atom_site_label_1
_geom_bond_atom_site_label_2
_geom_bond_distance
_geom_bond_site_symmetry_2
La0 Te3 3.258320 1_455
La0 Te0 3.263243 1_555
La0 Te5 3.281555 1_455
La0 Te7 3.316867 1_554
La0 Te6 3.319861 1_455
La0 Te4 3.353046 1_554
La0 Te2 3.391782 1_555
La0 Te2 3.612157 1_545
La1 Te1 3.183749 1_555
La1 Te2 3.216475 1_645
La1 Te7 3.319204 1_655
La1 Te4 3.327702 1_645
La1 Te6 3.356828 1_546
La1 Te3 3.377948 1_555
La1 Te5 3.407505 1_556
La1 Te3 3.565572 1_545
La2 Te2 3.183749 1_555
La2 Te1 3.216475 1_565
La2 Te6 3.319204 1_555
La2 Te5 3.327702 1_565
La2 Te7 3.356828 1_564
La2 Te0 3.377948 1_555
La2 Te4 3.407505 1_554
La2 Te0 3.565572 1_565
La3 Te0 3.258320 1_555
La3 Te3 3.263243 1_555
La3 Te4 3.281555 1_555
La3 Te6 3.316867 1_556
La3 Te7 3.319861 1_555
La3 Te5 3.353046 1_556
La3 Te1 3.391782 1_555
La3 Te1 3.612157 1_565
Cu0 Te4 2.603171 1_555
Cu0 Te0 2.627356 1_555
Cu0 Te2 2.663320 1_555
Cu0 Te3 2.811269 1_455
Cu0 La0 3.282472 1_555
Cu0 La1 3.368832 1_465
Cu0 La3 3.550386 1_555
Cu1 Te5 2.603171 1_555
Cu1 Te3 2.627356 1_555
Cu1 Te1 2.663320 1_555
Cu1 Te0 2.811269 1_555
Cu1 La3 3.282472 1_555
Cu1 La2 3.368832 1_545
Cu1 La0 3.550386 1_655
