# generated using pymatgen
data_HfMg6Mo
_symmetry_space_group_name_H-M   'P 1'
_cell_length_a   4.90156800
_cell_length_b   6.10780500
_cell_length_c   11.14627400
_cell_angle_alpha   90.00000000
_cell_angle_beta   90.00000000
_cell_angle_gamma   90.00000000
_symmetry_Int_Tables_number   1
_chemical_formula_structural   HfMg6Mo
_chemical_formula_sum   'Hf2 Mg12 Mo2'
_cell_volume   333.69516183
_cell_formula_units_Z   2
loop_
 _symmetry_equiv_pos_site_id
 _symmetry_equiv_pos_as_xyz
  1  'x, y, z'
loop_
 _atom_site_type_symbol
 _atom_site_label
 _atom_site_symmetry_multiplicity
 _atom_site_fract_x
 _atom_site_fract_y
 _atom_site_fract_z
 _atom_site_occupancy
  Hf  Hf0  1  0.50000000  0.50000000  0.19756000  1
  Hf  Hf1  1  0.50000000  0.00000000  0.69756000  1
  Mg  Mg0  1  0.00000000  0.74604300  0.07456100  1
  Mg  Mg1  1  0.00000000  0.25395700  0.07456100  1
  Mg  Mg2  1  0.00000000  0.00000000  0.32702800  1
  Mg  Mg3  1  0.50000000  0.25709000  0.42765200  1
  Mg  Mg4  1  0.50000000  0.74291000  0.42765200  1
  Mg  Mg5  1  0.50000000  0.00000000  0.16924100  1
  Mg  Mg6  1  0.00000000  0.24604300  0.57456100  1
  Mg  Mg7  1  0.00000000  0.75395700  0.57456100  1
  Mg  Mg8  1  0.00000000  0.50000000  0.82702800  1
  Mg  Mg9  1  0.50000000  0.75709000  0.92765200  1
  Mg  Mg10  1  0.50000000  0.24291000  0.92765200  1
  Mg  Mg11  1  0.50000000  0.50000000  0.66924100  1
  Mo  Mo0  1  0.00000000  0.50000000  0.30174300  1
  Mo  Mo1  1  0.00000000  0.00000000  0.80174300  1
loop_
_geom_bond_atom_site_label_1
_geom_bond_atom_site_label_2
_geom_bond_distance
_geom_bond_site_symmetry_2
Hf0 Mo0 2.711982 1_555
Hf0 Mo0 2.711982 1_655
Hf0 Mg3 2.962893 1_555
Hf0 Mg4 2.962893 1_555
Hf0 Mg5 3.070172 1_565
Hf0 Mg5 3.070172 1_555
Hf0 Mg10 3.393610 1_554
Hf0 Mg9 3.393610 1_554
Hf1 Mo1 2.711982 1_655
Hf1 Mo1 2.711982 1_555
Hf1 Mg9 2.962893 1_545
Hf1 Mg10 2.962893 1_555
Hf1 Mg11 3.070172 1_555
Hf1 Mg11 3.070172 1_545
Hf1 Mg3 3.393610 1_555
Hf1 Mg4 3.393610 1_545
Mg0 Mo0 2.944581 1_555
Mg0 Mg9 2.948264 1_554
Mg0 Mg9 2.948264 1_454
Mg0 Mg5 3.086428 1_465
Mg0 Mg5 3.086428 1_565
Mg0 Mo1 3.413659 1_564
Mg1 Mo0 2.944581 1_555
Mg1 Mg10 2.948264 1_554
Mg1 Mg10 2.948264 1_454
Mg1 Mg5 3.086428 1_455
Mg1 Mg5 3.086428 1_555
Mg1 Mo1 3.413659 1_554
Mg2 Mg5 3.016538 1_555
Mg2 Mg5 3.016538 1_455
Mg2 Mo0 3.066880 1_545
Mg2 Mo0 3.066880 1_555
Mg2 Mg4 3.119294 1_445
Mg2 Mg4 3.119294 1_545
Mg2 Mg3 3.119294 1_455
Mg2 Mg3 3.119294 1_555
Mg3 Mg6 2.948264 1_655
Mg3 Mg6 2.948264 1_555
Mg3 Mg4 2.967294 1_555
Mg3 Mg4 3.140511 1_545
Mg3 Mo0 3.190161 1_555
Mg3 Mo0 3.190161 1_655
Mg3 Mg5 3.280540 1_555
Mg4 Mg7 2.948264 1_555
Mg4 Mg7 2.948264 1_655
Mg4 Mo0 3.190161 1_555
Mg4 Mo0 3.190161 1_655
Mg4 Mg5 3.280540 1_565
Mg5 Mg9 3.074487 1_544
Mg6 Mo1 2.944581 1_555
Mg6 Mo0 3.413659 1_555
Mg7 Mo1 2.944581 1_565
Mg7 Mo0 3.413659 1_555
Mg8 Mo1 3.066880 1_555
Mg8 Mo1 3.066880 1_565
Mg8 Mg9 3.119294 1_555
Mg8 Mg9 3.119294 1_455
Mg9 Mo1 3.190161 1_565
Mg9 Mo1 3.190161 1_665
Mg10 Mg9 2.967294 1_545
Mg10 Mg5 3.074487 1_556
Mg10 Mg8 3.119294 1_655
Mg10 Mg8 3.119294 1_555
Mg10 Mg9 3.140511 1_555
Mg10 Mo1 3.190161 1_655
Mg10 Mo1 3.190161 1_555
Mg10 Mg11 3.280540 1_555
Mg11 Mg8 3.016538 1_555
Mg11 Mg8 3.016538 1_655
Mg11 Mg3 3.074487 1_555
Mg11 Mg4 3.074487 1_555
Mg11 Mg7 3.086428 1_555
Mg11 Mg7 3.086428 1_655
Mg11 Mg6 3.086428 1_655
Mg11 Mg6 3.086428 1_555
Mg11 Mg9 3.280540 1_555
