# generated using pymatgen
data_Ca3MgNi14
_symmetry_space_group_name_H-M   'P 1'
_cell_length_a   4.98799802
_cell_length_b   4.98799802
_cell_length_c   12.29714598
_cell_angle_alpha   78.29860092
_cell_angle_beta   78.29860092
_cell_angle_gamma   59.99999979
_symmetry_Int_Tables_number   1
_chemical_formula_structural   Ca3MgNi14
_chemical_formula_sum   'Ca3 Mg1 Ni14'
_cell_volume   257.59619251
_cell_formula_units_Z   1
loop_
 _symmetry_equiv_pos_site_id
 _symmetry_equiv_pos_as_xyz
  1  'x, y, z'
loop_
 _atom_site_type_symbol
 _atom_site_label
 _atom_site_symmetry_multiplicity
 _atom_site_fract_x
 _atom_site_fract_y
 _atom_site_fract_z
 _atom_site_occupancy
  Ca  Ca0  1  0.05178700  0.05178700  0.84463900  1
  Ca  Ca1  1  0.94736700  0.94736700  0.15789800  1
  Ca  Ca2  1  0.14969500  0.14969500  0.55091400  1
  Mg  Mg0  1  0.85154500  0.85154500  0.44536600  1
  Ni  Ni0  1  0.27784000  0.27784000  0.16648000  1
  Ni  Ni1  1  0.72204000  0.72204000  0.83388100  1
  Ni  Ni2  1  0.38857100  0.38857100  0.83428800  1
  Ni  Ni3  1  0.61179100  0.61179100  0.16462600  1
  Ni  Ni4  1  0.10831100  0.61115000  0.66939000  1
  Ni  Ni5  1  0.61115000  0.61115000  0.66939000  1
  Ni  Ni6  1  0.61115000  0.10831100  0.66939000  1
  Ni  Ni7  1  0.89049000  0.38903000  0.33145100  1
  Ni  Ni8  1  0.38903000  0.38903000  0.33145100  1
  Ni  Ni9  1  0.38903000  0.89049000  0.33145100  1
  Ni  Ni10  1  0.49966000  0.49966000  0.00013900  1
  Ni  Ni11  1  0.49966000  0.00054000  0.00013900  1
  Ni  Ni12  1  0.00054000  0.49966000  0.00013900  1
  Ni  Ni13  1  0.50034400  0.50034400  0.49896700  1
loop_
_geom_bond_atom_site_label_1
_geom_bond_atom_site_label_2
_geom_bond_distance
_geom_bond_site_symmetry_2
Ca0 Ni2 2.882478 1_455
Ca0 Ni2 2.882478 1_545
Ca0 Ni2 2.882482 1_555
Ca0 Ni1 2.882690 1_445
Ca0 Ni1 2.882694 1_545
Ca0 Ni1 2.882694 1_455
Ca0 Ni11 3.110630 1_556
Ca0 Ni12 3.110630 1_556
Ca0 Ni10 3.110632 1_456
Ca0 Ni10 3.110632 1_546
Ca0 Ni12 3.110634 1_546
Ca0 Ni11 3.110634 1_456
Ca0 Ni4 3.257249 1_545
Ca0 Ni6 3.257249 1_455
Ca0 Ni5 3.257251 1_545
Ca0 Ni5 3.257251 1_455
Ca0 Ni6 3.257253 1_555
Ca0 Ni4 3.257253 1_555
Ca1 Ni3 2.880945 1_655
Ca1 Ni3 2.880945 1_565
Ca1 Ni3 2.880945 1_555
Ca1 Ni0 2.881648 1_655
Ca1 Ni0 2.881648 1_565
Ca1 Ni0 2.881652 1_665
Ca1 Ni10 3.126848 1_655
Ca1 Ni10 3.126848 1_565
Ca1 Ni11 3.126848 1_565
Ca1 Ni12 3.126848 1_655
Ca1 Ni12 3.126848 1_665
Ca1 Ni11 3.126848 1_665
Ca1 Ni7 3.244235 1_555
Ca1 Ni9 3.244235 1_555
Ca1 Ni8 3.244239 1_565
Ca1 Ni8 3.244239 1_655
Ca1 Ni7 3.244243 1_565
Ca1 Ni9 3.244243 1_655
Ca1 Mg0 3.436733 1_555
Ca2 Ni6 2.868147 1_455
Ca2 Ni4 2.868147 1_545
Ca2 Ni5 2.868152 1_455
Ca2 Ni5 2.868152 1_545
Ca2 Ni4 2.868156 1_555
Ca2 Ni6 2.868156 1_555
Ca2 Ni13 2.946024 1_455
Ca2 Ni13 2.946024 1_545
Ca2 Ni13 2.946025 1_555
Ca2 Ni7 2.990845 1_455
Ca2 Ni9 2.990845 1_545
Ca2 Ni8 2.990849 1_555
Ca2 Mg0 3.144137 1_445
Ca2 Mg0 3.144145 1_455
Ca2 Mg0 3.144145 1_545
Mg0 Ni8 2.841611 1_565
Mg0 Ni8 2.841611 1_655
Mg0 Ni9 2.841611 1_555
Mg0 Ni7 2.841611 1_555
Mg0 Ni7 2.841611 1_565
Mg0 Ni9 2.841611 1_655
Mg0 Ni13 2.950253 1_655
Mg0 Ni13 2.950253 1_565
Mg0 Ni13 2.950262 1_555
Mg0 Ni4 3.036919 1_655
Mg0 Ni6 3.036919 1_565
Mg0 Ni5 3.036919 1_555
Ni0 Ni7 2.439478 1_455
Ni0 Ni9 2.439478 1_545
Ni0 Ni8 2.439481 1_555
Ni0 Ni10 2.453716 1_555
Ni0 Ni11 2.453718 1_555
Ni0 Ni12 2.453718 1_555
Ni1 Ni4 2.432502 1_655
Ni1 Ni6 2.432502 1_565
Ni1 Ni5 2.432502 1_555
Ni1 Ni11 2.455885 1_566
Ni1 Ni12 2.455885 1_656
Ni1 Ni10 2.455890 1_556
Ni2 Ni4 2.446082 1_555
Ni2 Ni6 2.446082 1_555
Ni2 Ni5 2.446082 1_555
Ni3 Ni8 2.462352 1_555
Ni3 Ni9 2.462357 1_555
Ni3 Ni7 2.462357 1_555
Ni4 Ni6 2.479838 1_465
Ni4 Ni5 2.479838 1_455
Ni4 Ni6 2.508160 1_555
Ni4 Ni5 2.508160 1_555
Ni5 Ni6 2.479838 1_565
Ni5 Ni6 2.508160 1_555
Ni7 Ni9 2.486717 1_645
Ni7 Ni8 2.486717 1_655
Ni7 Ni9 2.501281 1_555
Ni7 Ni8 2.501281 1_555
Ni8 Ni9 2.486717 1_545
Ni8 Ni9 2.501281 1_555
Ni10 Ni3 2.438783 1_555
Ni10 Ni2 2.448969 1_554
Ni10 Ni11 2.489610 1_555
Ni10 Ni12 2.489610 1_555
Ni10 Ni12 2.498388 1_655
Ni10 Ni11 2.498388 1_565
Ni11 Ni3 2.438783 1_545
Ni11 Ni2 2.448974 1_554
Ni11 Ni12 2.489610 1_555
Ni11 Ni12 2.498388 1_645
Ni12 Ni3 2.438783 1_455
Ni12 Ni2 2.448974 1_554
Ni13 Ni8 2.469048 1_555
Ni13 Ni9 2.469053 1_555
Ni13 Ni7 2.469053 1_555
Ni13 Ni6 2.499620 1_555
Ni13 Ni4 2.499620 1_555
Ni13 Ni5 2.499625 1_555
