# generated using pymatgen
data_Yb2MgSe4
_symmetry_space_group_name_H-M   'P 1'
_cell_length_a   9.13731353
_cell_length_b   8.20180950
_cell_length_c   11.10028696
_cell_angle_alpha   78.73877319
_cell_angle_beta   84.26256094
_cell_angle_gamma   116.18185300
_symmetry_Int_Tables_number   1
_chemical_formula_structural   Yb2MgSe4
_chemical_formula_sum   'Yb8 Mg4 Se16'
_cell_volume   715.59704137
_cell_formula_units_Z   4
loop_
 _symmetry_equiv_pos_site_id
 _symmetry_equiv_pos_as_xyz
  1  'x, y, z'
loop_
 _atom_site_type_symbol
 _atom_site_label
 _atom_site_symmetry_multiplicity
 _atom_site_fract_x
 _atom_site_fract_y
 _atom_site_fract_z
 _atom_site_occupancy
  Yb  Yb0  1  0.08616700  0.64720000  0.62380000  1
  Yb  Yb1  1  0.91383300  0.35280000  0.37620000  1
  Yb  Yb2  1  0.19782200  0.82337300  0.06182900  1
  Yb  Yb3  1  0.80217800  0.17662700  0.93817100  1
  Yb  Yb4  1  0.41117600  0.61980300  0.36603700  1
  Yb  Yb5  1  0.58882400  0.38019800  0.63396300  1
  Yb  Yb6  1  0.41733600  0.11953800  0.36026500  1
  Yb  Yb7  1  0.58266400  0.88046200  0.63973500  1
  Mg  Mg0  1  0.09061300  0.12565800  0.62384100  1
  Mg  Mg1  1  0.90938700  0.87434200  0.37615900  1
  Mg  Mg2  1  0.31578800  0.44530000  0.90207500  1
  Mg  Mg3  1  0.68421200  0.55470000  0.09792500  1
  Se  Se0  1  0.09059600  0.56859600  0.89776000  1
  Se  Se1  1  0.90940400  0.43140400  0.10224000  1
  Se  Se2  1  0.10504500  0.08944100  0.90184200  1
  Se  Se3  1  0.89495500  0.91055900  0.09815800  1
  Se  Se4  1  0.15493400  0.74999200  0.34631200  1
  Se  Se5  1  0.84506600  0.25000800  0.65368800  1
  Se  Se6  1  0.16001400  0.23200900  0.36992000  1
  Se  Se7  1  0.83998600  0.76799100  0.63008000  1
  Se  Se8  1  0.33316200  0.01488600  0.63167000  1
  Se  Se9  1  0.66683800  0.98511400  0.36833000  1
  Se  Se10  1  0.32879000  0.49777900  0.64470500  1
  Se  Se11  1  0.67121000  0.50222100  0.35529500  1
  Se  Se12  1  0.48456600  0.15793600  0.08607000  1
  Se  Se13  1  0.51543400  0.84206400  0.91393000  1
  Se  Se14  1  0.39346100  0.58154500  0.10420300  1
  Se  Se15  1  0.60653900  0.41845500  0.89579700  1
loop_
_geom_bond_atom_site_label_1
_geom_bond_atom_site_label_2
_geom_bond_distance
_geom_bond_site_symmetry_2
Mg0 Se6 2.702176 1_555
Mg0 Se8 2.743943 1_555
Mg0 Se7 2.795610 1_445
Mg0 Se5 2.861205 1_455
Mg0 Se10 2.936067 1_555
Mg0 Se2 3.063701 1_555
Mg1 Se7 2.702176 1_555
Mg1 Se9 2.743943 1_555
Mg1 Se6 2.795610 1_665
Mg1 Se4 2.861205 1_655
Mg1 Se11 2.936067 1_555
Mg1 Se3 3.063701 1_555
Mg2 Se0 2.663798 1_555
Mg2 Se2 2.696503 1_555
Mg2 Se14 2.717401 1_556
Mg2 Se15 2.756166 1_555
Mg2 Se10 2.787095 1_555
Mg2 Se13 2.985225 1_555
Mg3 Se1 2.663798 1_555
Mg3 Se3 2.696503 1_555
Mg3 Se15 2.717401 1_554
Mg3 Se14 2.756166 1_555
Mg3 Se11 2.787095 1_555
Mg3 Se12 2.985225 1_555
Se0 Se1 2.401314 1_456
Se0 Yb2 2.946145 1_556
Se0 Yb0 2.991166 1_555
Se0 Yb3 3.034094 1_455
Se1 Yb3 2.946145 1_554
Se1 Yb1 2.991166 1_555
Se1 Yb2 3.034094 1_655
Se2 Se3 2.452741 1_446
Se2 Yb2 3.009073 1_546
Se2 Yb3 3.157244 1_455
Se3 Yb3 3.009073 1_564
Se3 Yb2 3.157244 1_655
Se4 Yb1 2.945265 1_455
Se4 Yb0 2.953732 1_555
Se4 Yb6 2.967170 1_565
Se4 Yb4 2.981183 1_555
Se4 Yb2 3.047938 1_555
Se5 Yb0 2.945265 1_655
Se5 Yb1 2.953732 1_555
Se5 Yb7 2.967170 1_545
Se5 Yb5 2.981188 1_555
Se5 Yb3 3.047938 1_555
Se6 Yb1 2.829924 1_455
Se6 Yb6 2.879741 1_555
Se6 Yb4 2.978315 1_555
Se7 Yb0 2.829924 1_655
Se7 Yb7 2.879741 1_555
Se7 Yb5 2.978309 1_555
Se8 Yb5 2.881026 1_555
Se8 Yb0 2.886498 1_545
Se8 Yb6 2.889410 1_555
Se8 Yb7 2.939597 1_545
Se9 Yb4 2.881020 1_555
Se9 Yb1 2.886498 1_565
Se9 Yb7 2.889410 1_555
Se9 Yb6 2.939597 1_565
Se10 Yb5 2.932566 1_555
Se10 Yb7 2.952518 1_555
Se10 Yb4 2.966018 1_555
Se10 Yb0 2.976539 1_555
Se11 Yb4 2.932572 1_555
Se11 Yb6 2.952518 1_555
Se11 Yb5 2.966018 1_555
Se11 Yb1 2.976539 1_555
Se12 Se15 2.435968 1_554
Se12 Yb2 2.924349 1_545
Se12 Yb6 2.970082 1_555
Se12 Yb3 3.114090 1_554
Se13 Se14 2.435968 1_556
Se13 Yb3 2.924349 1_565
Se13 Yb7 2.970082 1_555
Se13 Yb2 3.114090 1_556
Se14 Yb4 2.996239 1_555
Se14 Yb2 3.206763 1_555
Se15 Yb5 2.996237 1_555
Se15 Yb3 3.206763 1_555
