# generated using pymatgen
data_Li2MnCoO4
_symmetry_space_group_name_H-M   'P 1'
_cell_length_a   3.05908637
_cell_length_b   6.04572815
_cell_length_c   8.08655502
_cell_angle_alpha   89.52722331
_cell_angle_beta   88.68179169
_cell_angle_gamma   96.24719536
_symmetry_Int_Tables_number   1
_chemical_formula_structural   Li2MnCoO4
_chemical_formula_sum   'Li4 Mn2 Co2 O8'
_cell_volume   148.61985767
_cell_formula_units_Z   2
loop_
 _symmetry_equiv_pos_site_id
 _symmetry_equiv_pos_as_xyz
  1  'x, y, z'
loop_
 _atom_site_type_symbol
 _atom_site_label
 _atom_site_symmetry_multiplicity
 _atom_site_fract_x
 _atom_site_fract_y
 _atom_site_fract_z
 _atom_site_occupancy
  Li  Li0  1  0.99953800  0.50168700  0.00258100  1
  Li  Li1  1  0.50048300  0.24791000  0.24742100  1
  Li  Li2  1  0.49937300  0.75109100  0.75261200  1
  Li  Li3  1  0.00054900  0.99910800  0.49735600  1
  Mn  Mn0  1  0.00005000  0.50314400  0.49744200  1
  Mn  Mn1  1  0.50119300  0.24643500  0.75223400  1
  Co  Co0  1  0.49904300  0.75273300  0.24848300  1
  Co  Co1  1  0.00088100  0.99736100  0.00184100  1
  O  O0  1  0.47585700  0.23567100  0.99325400  1
  O  O1  1  0.02370300  0.51486400  0.25787800  1
  O  O2  1  0.97828100  0.98579600  0.23645700  1
  O  O3  1  0.52236700  0.76419600  0.01392600  1
  O  O4  1  0.97289200  0.49371600  0.74069300  1
  O  O5  1  0.52668000  0.25632800  0.50883000  1
  O  O6  1  0.47541300  0.74591800  0.48496500  1
  O  O7  1  0.02369800  0.00404200  0.76402600  1
loop_
_geom_bond_atom_site_label_1
_geom_bond_atom_site_label_2
_geom_bond_distance
_geom_bond_site_symmetry_2
Li0 O1 2.069375 1_655
Li0 O4 2.121956 1_554
Li0 O3 2.131175 1_655
Li0 O0 2.146017 1_554
Li0 O3 2.271198 1_555
Li0 O0 2.285232 1_654
Li1 O0 2.060091 1_554
Li1 O5 2.118079 1_555
Li1 O2 2.128103 1_445
Li1 O1 2.149428 1_655
Li1 O2 2.270646 1_545
Li1 O1 2.290864 1_555
Li2 O7 2.096467 1_665
Li2 O3 2.117766 1_556
Li2 O4 2.118624 1_455
Li2 O6 2.167636 1_555
Li2 O7 2.223748 1_565
Li2 O4 2.239494 1_555
Li3 O6 2.099653 1_455
Li3 O2 2.114352 1_455
Li3 O5 2.117038 1_565
Li3 O7 2.159577 1_565
Li3 O6 2.223308 1_555
Li3 O5 2.239430 1_465
Mn0 O1 1.937357 1_555
Mn0 O6 1.950738 1_555
Mn0 O5 1.962996 1_455
Mn0 O4 1.966999 1_455
Mn0 O6 2.293003 1_455
Mn0 O5 2.314772 1_555
Mn1 O0 1.949047 1_555
Mn1 O7 1.953375 1_555
Mn1 O4 1.961602 1_555
Mn1 O5 1.968208 1_555
Mn1 O7 2.286032 1_655
Mn1 O4 2.320780 1_455
Co0 O3 1.896869 1_555
Co0 O6 1.911962 1_555
Co0 O2 1.919816 1_555
Co0 O1 1.930365 1_555
Co0 O2 2.241886 1_455
Co0 O1 2.270677 1_655
Co1 O2 1.897339 1_455
Co1 O3 1.918719 1_455
Co1 O7 1.922696 1_564
Co1 O0 1.931294 1_564
Co1 O3 2.244075 1_555
Co1 O0 2.273154 1_464
