# generated using pymatgen
data_BaYInWO6
_symmetry_space_group_name_H-M   'P 1'
_cell_length_a   8.50580887
_cell_length_b   8.48860263
_cell_length_c   8.48865210
_cell_angle_alpha   90.00000000
_cell_angle_beta   90.00000000
_cell_angle_gamma   90.00000000
_symmetry_Int_Tables_number   1
_chemical_formula_structural   BaYInWO6
_chemical_formula_sum   'Ba4 Y4 In4 W4 O24'
_cell_volume   612.90132215
_cell_formula_units_Z   4
loop_
 _symmetry_equiv_pos_site_id
 _symmetry_equiv_pos_as_xyz
  1  'x, y, z'
loop_
 _atom_site_type_symbol
 _atom_site_label
 _atom_site_symmetry_multiplicity
 _atom_site_fract_x
 _atom_site_fract_y
 _atom_site_fract_z
 _atom_site_occupancy
  Ba  Ba0  1  -0.00000000  0.00000000  -0.00000000  1
  Ba  Ba1  1  0.50000000  0.50000000  0.50000000  1
  Ba  Ba2  1  -0.00000000  0.50000000  0.50000000  1
  Ba  Ba3  1  0.50000000  0.00000000  0.00000000  1
  Y  Y0  1  0.25000000  0.25000000  0.25000000  1
  Y  Y1  1  0.75000000  0.75000000  0.25000000  1
  Y  Y2  1  0.75000000  0.25000000  0.75000000  1
  Y  Y3  1  0.25000000  0.75000000  0.75000000  1
  In  In0  1  0.50000000  0.00000000  0.50000000  1
  In  In1  1  0.50000000  0.50000000  0.00000000  1
  In  In2  1  -0.00000000  0.50000000  -0.00000000  1
  In  In3  1  -0.00000000  0.00000000  0.50000000  1
  W  W0  1  0.75000000  0.75000000  0.75000000  1
  W  W1  1  0.25000000  0.25000000  0.75000000  1
  W  W2  1  0.25000000  0.75000000  0.25000000  1
  W  W3  1  0.75000000  0.25000000  0.25000000  1
  O  O0  1  0.98107923  0.24874544  0.25741700  1
  O  O1  1  0.01892077  0.75125456  0.25741700  1
  O  O2  1  0.01892077  0.24874544  0.74258300  1
  O  O3  1  0.98107923  0.75125456  0.74258300  1
  O  O4  1  0.25157093  0.98099250  0.23735151  1
  O  O5  1  0.25157093  0.01900750  0.76264849  1
  O  O6  1  0.74842907  0.01900750  0.23735151  1
  O  O7  1  0.74842907  0.98099250  0.76264849  1
  O  O8  1  0.24285569  0.24770799  0.98139412  1
  O  O9  1  0.75714431  0.24770799  0.01860588  1
  O  O10  1  0.24285569  0.75229201  0.01860588  1
  O  O11  1  0.75714431  0.75229201  0.98139412  1
  O  O12  1  0.51892077  0.25125456  0.24258300  1
  O  O13  1  0.48107923  0.74874544  0.24258300  1
  O  O14  1  0.48107923  0.25125456  0.75741700  1
  O  O15  1  0.51892077  0.74874544  0.75741700  1
  O  O16  1  0.24842907  0.51900750  0.26264849  1
  O  O17  1  0.24842907  0.48099250  0.73735151  1
  O  O18  1  0.75157093  0.48099250  0.26264849  1
  O  O19  1  0.75157093  0.51900750  0.73735151  1
  O  O20  1  0.25714431  0.25229201  0.51860588  1
  O  O21  1  0.74285569  0.25229201  0.48139412  1
  O  O22  1  0.25714431  0.74770799  0.48139412  1
  O  O23  1  0.74285569  0.74770799  0.51860588  1
loop_
_geom_bond_atom_site_label_1
_geom_bond_atom_site_label_2
_geom_bond_distance
_geom_bond_site_symmetry_2
Ba0 O7 2.943507 1_444
Ba0 O6 2.943507 1_455
Ba0 O4 2.943507 1_545
Ba0 O5 2.943507 1_554
Ba0 O9 2.951833 1_455
Ba0 O11 2.951833 1_444
Ba0 O10 2.951833 1_545
Ba0 O8 2.951833 1_554
Ba0 O1 3.042877 1_545
Ba0 O3 3.042877 1_444
Ba0 O2 3.042877 1_554
Ba0 O0 3.042877 1_455
Ba1 O18 2.943507 1_555
Ba1 O19 2.943507 1_555
Ba1 O16 2.943507 1_555
Ba1 O17 2.943507 1_555
Ba1 O23 2.951833 1_555
Ba1 O21 2.951833 1_555
Ba1 O22 2.951833 1_555
Ba1 O20 2.951833 1_555
Ba1 O15 3.042877 1_555
Ba1 O12 3.042877 1_555
Ba1 O13 3.042877 1_555
Ba1 O14 3.042877 1_555
Ba2 O16 2.924137 1_555
Ba2 O17 2.924137 1_555
Ba2 O18 2.924137 1_455
Ba2 O19 2.924137 1_455
Ba2 O3 2.969015 1_455
Ba2 O0 2.969015 1_455
Ba2 O2 2.969015 1_555
Ba2 O1 2.969015 1_555
Ba2 O21 3.038125 1_455
Ba2 O22 3.038125 1_555
Ba2 O23 3.038125 1_455
Ba2 O20 3.038125 1_555
Ba3 O6 2.924137 1_555
Ba3 O4 2.924137 1_545
Ba3 O5 2.924137 1_554
Ba3 O7 2.924137 1_544
Ba3 O13 2.969015 1_545
Ba3 O12 2.969015 1_555
Ba3 O15 2.969015 1_544
Ba3 O14 2.969015 1_554
Ba3 O11 3.038125 1_544
Ba3 O10 3.038125 1_545
Ba3 O9 3.038125 1_555
Ba3 O8 3.038125 1_554
O0 W3 1.966553 1_555
O0 Y0 2.288280 1_655
O1 W2 1.966553 1_555
O1 Y1 2.288280 1_455
O2 W1 1.966553 1_555
O2 Y2 2.288280 1_455
O3 W0 1.966553 1_555
O3 Y3 2.288280 1_655
O4 W2 1.963786 1_555
O4 Y0 2.286060 1_565
O5 W1 1.963786 1_555
O5 Y3 2.286060 1_545
O6 W3 1.963786 1_555
O6 Y1 2.286060 1_545
O7 W0 1.963786 1_555
O7 Y2 2.286060 1_565
O8 W1 1.965260 1_555
O8 Y0 2.280994 1_556
O9 W3 1.965260 1_555
O9 Y2 2.280994 1_554
O10 W2 1.965260 1_555
O10 Y3 2.280994 1_554
O11 W0 1.965260 1_555
O11 Y1 2.280994 1_556
O12 W3 1.966553 1_555
O12 Y0 2.288280 1_555
O13 W2 1.966553 1_555
O13 Y1 2.288280 1_555
O14 W1 1.966553 1_555
O14 Y2 2.288280 1_555
O15 W0 1.966553 1_555
O15 Y3 2.288280 1_555
O16 W2 1.963786 1_555
O16 Y0 2.286060 1_555
O17 W1 1.963786 1_555
O17 Y3 2.286060 1_555
O18 W3 1.963786 1_555
O18 Y1 2.286060 1_555
O19 W0 1.963786 1_555
O19 Y2 2.286060 1_555
O20 W1 1.965260 1_555
O20 Y0 2.280994 1_555
O21 W3 1.965260 1_555
O21 Y2 2.280994 1_555
O22 W2 1.965260 1_555
O22 Y3 2.280994 1_555
O23 W0 1.965260 1_555
O23 Y1 2.280994 1_555
