# generated using pymatgen
data_FeOF
_symmetry_space_group_name_H-M   'P 1'
_cell_length_a   3.10769000
_cell_length_b   9.45187700
_cell_length_c   14.21210238
_cell_angle_alpha   89.74624584
_cell_angle_beta   90.00000000
_cell_angle_gamma   90.00000000
_symmetry_Int_Tables_number   1
_chemical_formula_structural   FeOF
_chemical_formula_sum   'Fe12 O12 F12'
_cell_volume   417.45514683
_cell_formula_units_Z   12
loop_
 _symmetry_equiv_pos_site_id
 _symmetry_equiv_pos_as_xyz
  1  'x, y, z'
loop_
 _atom_site_type_symbol
 _atom_site_label
 _atom_site_symmetry_multiplicity
 _atom_site_fract_x
 _atom_site_fract_y
 _atom_site_fract_z
 _atom_site_occupancy
  Fe  Fe0  1  0.00000000  0.98690000  0.00710900  1
  Fe  Fe1  1  0.00000000  0.98205200  0.66992700  1
  Fe  Fe2  1  0.00000000  0.98958000  0.33986300  1
  Fe  Fe3  1  0.50000000  0.74274500  0.81757600  1
  Fe  Fe4  1  0.50000000  0.77175200  0.50176500  1
  Fe  Fe5  1  0.50000000  0.77249100  0.17261600  1
  Fe  Fe6  1  0.00000000  0.49166300  0.67480800  1
  Fe  Fe7  1  0.00000000  0.48213400  0.00351400  1
  Fe  Fe8  1  0.00000000  0.48356400  0.33786300  1
  Fe  Fe9  1  0.50000000  0.27088700  0.83450800  1
  Fe  Fe10  1  0.50000000  0.24313700  0.48376600  1
  Fe  Fe11  1  0.50000000  0.27263200  0.17159400  1
  O  O0  1  0.50000000  0.90770800  0.73624000  1
  O  O1  1  0.50000000  0.90019900  0.39734300  1
  O  O2  1  0.50000000  0.90196100  0.06235600  1
  O  O3  1  0.00000000  0.85408700  0.23103500  1
  O  O4  1  0.00000000  0.84696300  0.56731900  1
  O  O5  1  0.00000000  0.64828700  0.76662800  1
  O  O6  1  0.50000000  0.39493600  0.72568700  1
  O  O7  1  0.50000000  0.40302600  0.06496600  1
  O  O8  1  0.50000000  0.40844400  0.40092600  1
  O  O9  1  0.00000000  0.34825000  0.89845600  1
  O  O10  1  0.00000000  0.35019600  0.23276200  1
  O  O11  1  0.00000000  0.15020400  0.43173800  1
  F  F0  1  0.00000000  0.84541300  0.89770000  1
  F  F1  1  0.00000000  0.65398800  0.43384500  1
  F  F2  1  0.00000000  0.65375200  0.10225300  1
  F  F3  1  0.50000000  0.60435600  0.93763400  1
  F  F4  1  0.50000000  0.59128600  0.59623700  1
  F  F5  1  0.50000000  0.60001600  0.26773800  1
  F  F6  1  0.00000000  0.34607200  0.56342100  1
  F  F7  1  0.00000000  0.15109600  0.77080200  1
  F  F8  1  0.00000000  0.15293600  0.09841100  1
  F  F9  1  0.50000000  0.09347800  0.93371000  1
  F  F10  1  0.50000000  0.10397200  0.60518400  1
  F  F11  1  0.50000000  0.09983700  0.26270000  1
loop_
_geom_bond_atom_site_label_1
_geom_bond_atom_site_label_2
_geom_bond_distance
_geom_bond_site_symmetry_2
Fe0 O2 1.915696 1_455
Fe0 O2 1.915696 1_555
Fe1 O4 1.942522 1_555
Fe1 O0 1.946933 1_455
Fe1 O0 1.946933 1_555
Fe2 O1 1.946634 1_555
Fe2 O1 1.946634 1_455
Fe2 O11 2.006847 1_565
Fe2 O3 2.012423 1_555
Fe3 O5 1.934309 1_655
Fe3 O5 1.934309 1_555
Fe3 O0 1.936854 1_555
Fe4 O1 1.913222 1_555
Fe4 O4 1.947729 1_555
Fe4 O4 1.947729 1_655
Fe5 O3 1.924639 1_555
Fe5 O3 1.924639 1_655
Fe5 O2 1.983964 1_555
Fe6 O6 1.940955 1_555
Fe6 O6 1.940955 1_455
Fe6 O5 1.977771 1_555
Fe7 O7 1.931449 1_455
Fe7 O7 1.931449 1_555
Fe7 O9 1.961491 1_554
Fe8 O8 1.927748 1_555
Fe8 O8 1.927748 1_455
Fe8 O10 1.958799 1_555
Fe9 O6 1.936641 1_555
Fe9 O9 1.944478 1_555
Fe9 O9 1.944478 1_655
Fe10 O11 1.933523 1_655
Fe10 O11 1.933523 1_555
Fe10 O8 1.952204 1_555
Fe11 O10 1.926987 1_555
Fe11 O10 1.926987 1_655
Fe11 O7 1.949076 1_555
F0 Fe0 2.055396 1_556
F0 Fe3 2.159309 1_555
F0 Fe3 2.159309 1_455
F1 Fe8 2.115422 1_555
F1 Fe4 2.143525 1_455
F1 Fe4 2.143525 1_555
F2 Fe7 2.149565 1_555
F2 Fe5 2.164246 1_455
F2 Fe5 2.164246 1_555
F3 Fe3 2.145360 1_555
F3 Fe7 2.148499 1_556
F3 Fe7 2.148499 1_656
F4 Fe6 2.130424 1_655
F4 Fe6 2.130424 1_555
F4 Fe4 2.166095 1_555
F5 Fe5 2.113211 1_555
F5 Fe8 2.146973 1_555
F5 Fe8 2.146973 1_655
F6 Fe6 2.102141 1_555
F6 Fe10 2.156931 1_555
F6 Fe10 2.156931 1_455
F7 Fe9 2.127263 1_455
F7 Fe9 2.127263 1_555
F7 Fe1 2.151404 1_545
F8 Fe0 2.040748 1_545
F8 Fe11 2.187828 1_455
F8 Fe11 2.187828 1_555
F9 Fe0 2.123223 1_546
F9 Fe0 2.123223 1_646
F9 Fe9 2.186003 1_555
F10 Fe1 2.140012 1_545
F10 Fe1 2.140012 1_645
F10 Fe10 2.165134 1_555
F11 Fe11 2.079726 1_555
F11 Fe2 2.166332 1_645
F11 Fe2 2.166332 1_545
