# generated using pymatgen
data_Sr2Mn2O5
_symmetry_space_group_name_H-M   'P 1'
_cell_length_a   5.71600586
_cell_length_b   5.71600728
_cell_length_c   7.37558300
_cell_angle_alpha   89.99992146
_cell_angle_beta   89.99995249
_cell_angle_gamma   90.00636490
_symmetry_Int_Tables_number   1
_chemical_formula_structural   Sr2Mn2O5
_chemical_formula_sum   'Sr4 Mn4 O10'
_cell_volume   240.98043855
_cell_formula_units_Z   2
loop_
 _symmetry_equiv_pos_site_id
 _symmetry_equiv_pos_as_xyz
  1  'x, y, z'
loop_
 _atom_site_type_symbol
 _atom_site_label
 _atom_site_symmetry_multiplicity
 _atom_site_fract_x
 _atom_site_fract_y
 _atom_site_fract_z
 _atom_site_occupancy
  Sr  Sr0  1  0.99999400  0.00000600  0.00000000  1
  Sr  Sr1  1  0.99999400  0.00000600  0.49999700  1
  Sr  Sr2  1  0.49999900  0.50001100  0.99999900  1
  Sr  Sr3  1  0.49999800  0.50001100  0.49999700  1
  Mn  Mn0  1  0.50003000  0.99994900  0.75002200  1
  Mn  Mn1  1  0.99996700  0.50001100  0.75000700  1
  Mn  Mn2  1  0.50007100  0.99988300  0.25001500  1
  Mn  Mn3  1  0.99999000  0.50003000  0.24998100  1
  O  O0  1  0.99999700  0.50000800  0.99998800  1
  O  O1  1  0.99999700  0.50000800  0.50000200  1
  O  O2  1  0.73616600  0.23618000  0.25000000  1
  O  O3  1  0.73616600  0.23617900  0.75000000  1
  O  O4  1  0.26382500  0.76383800  0.24999800  1
  O  O5  1  0.26382600  0.76383900  0.74999800  1
  O  O6  1  0.73613000  0.76387500  0.24999900  1
  O  O7  1  0.73613300  0.76387200  0.74999800  1
  O  O8  1  0.26385800  0.23614700  0.24999900  1
  O  O9  1  0.26385800  0.23614700  0.74999800  1
loop_
_geom_bond_atom_site_label_1
_geom_bond_atom_site_label_2
_geom_bond_distance
_geom_bond_site_symmetry_2
Mn0 O7 1.908576 1_555
Mn0 O5 1.908905 1_555
Mn0 O3 1.909116 1_565
Mn0 O9 1.909344 1_565
Mn1 O0 1.843756 1_555
Mn1 O1 1.843933 1_555
Mn1 O3 2.132483 1_555
Mn1 O5 2.132701 1_655
Mn1 O7 2.132970 1_555
Mn1 O9 2.133213 1_655
Mn2 O6 1.908119 1_555
Mn2 O4 1.908813 1_555
Mn2 O2 1.909221 1_565
Mn2 O8 1.909776 1_565
Mn3 O0 1.843844 1_554
Mn3 O1 1.844051 1_555
Mn3 O4 2.132523 1_655
Mn3 O2 2.132649 1_555
Mn3 O6 2.133011 1_555
Mn3 O8 2.133197 1_655
O0 Sr2 2.857992 1_555
O0 Sr0 2.857992 1_566
O0 Sr2 2.858014 1_655
O0 Sr0 2.858015 1_556
O1 Sr1 2.857992 1_565
O1 Sr3 2.857997 1_555
O1 Sr3 2.858009 1_655
O1 Sr1 2.858015 1_555
O2 Sr3 2.738047 1_555
O2 Sr1 2.738054 1_555
O2 Sr2 2.738063 1_554
O2 Sr0 2.738069 1_555
O3 Sr2 2.738057 1_555
O3 Sr0 2.738066 1_556
O3 Sr3 2.738079 1_555
O3 Sr1 2.738081 1_555
O4 Sr0 2.738051 1_465
O4 Sr1 2.738057 1_465
O4 Sr3 2.738057 1_555
O4 Sr2 2.738061 1_554
O5 Sr1 2.738066 1_465
O5 Sr3 2.738069 1_555
O5 Sr2 2.738070 1_555
O5 Sr0 2.738072 1_466
O6 Sr3 2.737887 1_555
O6 Sr1 2.737888 1_565
O6 Sr0 2.737889 1_565
O6 Sr2 2.737898 1_554
O7 Sr2 2.737898 1_555
O7 Sr1 2.737898 1_565
O7 Sr3 2.737905 1_555
O7 Sr0 2.737907 1_566
O8 Sr1 2.737912 1_455
O8 Sr3 2.737913 1_555
O8 Sr0 2.737921 1_455
O8 Sr2 2.737922 1_554
O9 Sr3 2.737924 1_555
O9 Sr1 2.737931 1_455
O9 Sr2 2.737931 1_555
O9 Sr0 2.737932 1_456
