# generated using pymatgen
data_Sr2Nb2O7
_symmetry_space_group_name_H-M   'P 1'
_cell_length_a   5.80171801
_cell_length_b   7.97565209
_cell_length_c   27.35209340
_cell_angle_alpha   90.00000000
_cell_angle_beta   90.00000000
_cell_angle_gamma   90.00000000
_symmetry_Int_Tables_number   1
_chemical_formula_structural   Sr2Nb2O7
_chemical_formula_sum   'Sr16 Nb16 O56'
_cell_volume   1265.64931439
_cell_formula_units_Z   8
loop_
 _symmetry_equiv_pos_site_id
 _symmetry_equiv_pos_as_xyz
  1  'x, y, z'
loop_
 _atom_site_type_symbol
 _atom_site_label
 _atom_site_symmetry_multiplicity
 _atom_site_fract_x
 _atom_site_fract_y
 _atom_site_fract_z
 _atom_site_occupancy
  O  O0  1  0.42615701  0.38756080  0.96594183  1
  O  O1  1  0.92615715  0.61243858  0.03405839  1
  O  O2  1  0.42615701  0.11243827  0.46594153  1
  O  O3  1  0.92615715  0.88756111  0.53405832  1
  O  O4  1  0.94918450  0.35480074  0.94650251  1
  O  O5  1  0.44918608  0.64519989  0.05349734  1
  O  O6  1  0.94918450  0.14519958  0.44650258  1
  O  O7  1  0.44918608  0.85479980  0.55349727  1
  O  O8  1  0.29484691  0.12512135  0.90041497  1
  O  O9  1  0.79484706  0.87487803  0.09958525  1
  O  O10  1  0.29484691  0.37487771  0.40041468  1
  O  O11  1  0.79484706  0.62512167  0.59958517  1
  O  O12  1  0.55338803  0.41070090  0.86142120  1
  O  O13  1  0.05338789  0.58929848  0.13857865  1
  O  O14  1  0.55338803  0.08929816  0.36142127  1
  O  O15  1  0.05338789  0.91070122  0.63857894  1
  O  O16  1  0.05856253  0.36115480  0.84196605  1
  O  O17  1  0.55856267  0.63884458  0.15803380  1
  O  O18  1  0.05856253  0.13884551  0.34196612  1
  O  O19  1  0.55856267  0.86115512  0.65803409  1
  O  O20  1  0.72849012  0.12518439  0.80177570  1
  O  O21  1  0.32222254  0.12514851  0.70371842  1
  O  O22  1  0.72849012  0.37481592  0.30177578  1
  O  O23  1  0.22848998  0.62518346  0.69822444  1
  O  O24  1  0.50489294  0.39935482  0.75830769  1
  O  O25  1  0.00489452  0.60064581  0.24169216  1
  O  O26  1  0.50489294  0.10064549  0.25830777  1
  O  O27  1  0.00489452  0.89935514  0.74169245  1
  O  O28  1  0.00519529  0.35077682  0.74223224  1
  O  O29  1  0.50519543  0.64922256  0.25776761  1
  O  O30  1  0.00519529  0.14922224  0.24223231  1
  O  O31  1  0.50519543  0.85077714  0.75776754  1
  O  O32  1  0.43718855  0.86089764  0.96236339  1
  O  O33  1  0.93718869  0.13910174  0.03763683  1
  O  O34  1  0.43718855  0.63910206  0.46236346  1
  O  O35  1  0.93718869  0.36089732  0.53763675  1
  O  O36  1  0.96146594  0.89201055  0.95065740  1
  O  O37  1  0.46146752  0.10798884  0.04934245  1
  O  O38  1  0.96146594  0.60798915  0.45065748  1
  O  O39  1  0.46146752  0.39201148  0.54934274  1
  O  O40  1  0.20384396  0.62441944  0.90134341  1
  O  O41  1  0.70384410  0.37558119  0.09865644  1
  O  O42  1  0.20384396  0.87558151  0.40134348  1
  O  O43  1  0.70384410  0.12441912  0.59865673  1
  O  O44  1  0.54901423  0.83989466  0.86008127  1
  O  O45  1  0.04901409  0.16010597  0.13991895  1
  O  O46  1  0.54901423  0.66010629  0.36008098  1
  O  O47  1  0.04901409  0.33989434  0.63991887  1
  O  O48  1  0.05645428  0.88938735  0.84232176  1
  O  O49  1  0.55645442  0.11061203  0.15767846  1
  O  O50  1  0.05645428  0.61061234  0.34232147  1
  O  O51  1  0.55645442  0.38938704  0.65767838  1
  O  O52  1  0.82222268  0.62514882  0.79628136  1
  O  O53  1  0.32222254  0.37485181  0.20371849  1
  O  O54  1  0.82222268  0.87485087  0.29628143  1
  O  O55  1  0.22848998  0.87481624  0.19822415  1
  Sr  Sr0  1  0.66926101  0.12524826  0.96258200  1
  Sr  Sr1  1  0.16926086  0.87475113  0.03741822  1
  Sr  Sr2  1  0.66926101  0.37475081  0.46258207  1
  Sr  Sr3  1  0.16926086  0.62524857  0.53741814  1
  Sr  Sr4  1  0.25564530  0.12502335  0.79844025  1
  Sr  Sr5  1  0.75564544  0.87497603  0.20155960  1
  Sr  Sr6  1  0.25564530  0.37497571  0.29844032  1
  Sr  Sr7  1  0.75564544  0.62502367  0.70155953  1
  Sr  Sr8  1  0.75709380  0.12462106  0.69518661  1
  Sr  Sr9  1  0.25709366  0.87537958  0.30481324  1
  Sr  Sr10  1  0.75709380  0.37537926  0.19518669  1
  Sr  Sr11  1  0.25709366  0.62462137  0.80481353  1
  Sr  Sr12  1  0.21241996  0.12142947  0.54893775  1
  Sr  Sr13  1  0.71242010  0.87857117  0.45106247  1
  Sr  Sr14  1  0.21241996  0.37857085  0.04893746  1
  Sr  Sr15  1  0.71242010  0.62142978  0.95106239  1
  Nb  Nb0  1  0.21882834  0.37144009  0.91191184  1
  Nb  Nb1  1  0.71882848  0.62855929  0.08808837  1
  Nb  Nb2  1  0.21882834  0.12856023  0.41191192  1
  Nb  Nb3  1  0.71882848  0.87144041  0.58808830  1
  Nb  Nb4  1  0.75160840  0.37831730  0.80872127  1
  Nb  Nb5  1  0.25160825  0.62168333  0.19127858  1
  Nb  Nb6  1  0.75160840  0.12168301  0.30872134  1
  Nb  Nb7  1  0.25160825  0.87831637  0.69127851  1
  Nb  Nb8  1  0.25019001  0.37207096  0.69212784  1
  Nb  Nb9  1  0.75019015  0.62792842  0.30787237  1
  Nb  Nb10  1  0.25019001  0.12792936  0.19212755  1
  Nb  Nb11  1  0.75019015  0.87207128  0.80787230  1
  Nb  Nb12  1  0.72044609  0.37638803  0.58919661  1
  Nb  Nb13  1  0.22044595  0.62361260  0.41080324  1
  Nb  Nb14  1  0.72044609  0.12361229  0.08919669  1
  Nb  Nb15  1  0.22044595  0.87638710  0.91080316  1
loop_
_geom_bond_atom_site_label_1
_geom_bond_atom_site_label_2
_geom_bond_distance
_geom_bond_site_symmetry_2
O0 Sr0 2.524811 1_555
O0 Sr15 2.530442 1_555
O0 Sr14 2.587705 1_556
O1 Sr1 2.524810 1_655
O1 Sr14 2.530432 1_655
O1 Sr15 2.587714 1_554
O2 Sr2 2.524811 1_555
O2 Sr13 2.530429 1_545
O2 Sr12 2.587720 1_555
O3 Sr3 2.524810 1_655
O3 Sr12 2.530437 1_665
O3 Sr13 2.587711 1_555
O4 Sr0 2.486537 1_555
O4 Sr15 2.534683 1_555
O5 Sr1 2.486535 1_555
O5 Sr14 2.534688 1_555
O6 Sr2 2.486530 1_555
O6 Sr13 2.534679 1_545
O7 Sr3 2.486535 1_555
O7 Sr12 2.534692 1_565
O8 Sr0 2.758624 1_555
O8 Sr4 2.798480 1_555
O9 Sr1 2.758622 1_655
O9 Sr5 2.798469 1_555
O10 Sr2 2.758630 1_555
O10 Sr6 2.798470 1_555
O11 Sr3 2.758622 1_655
O11 Sr7 2.798470 1_555
O12 Sr11 2.874602 1_555
O13 Sr10 2.874600 1_455
O14 Sr9 2.874598 1_545
O15 Sr8 2.874598 1_465
O16 Sr4 2.504311 1_555
O16 Sr11 2.602862 1_555
O17 Sr5 2.504311 1_555
O17 Sr10 2.602858 1_555
O18 Sr6 2.504304 1_555
O18 Sr9 2.602862 1_545
O19 Sr7 2.504307 1_555
O19 Sr8 2.602858 1_565
O20 Sr4 2.744829 1_555
O20 Sr8 2.920157 1_555
O20 Sr4 3.059766 1_655
O21 Sr8 2.533773 1_555
O21 Sr4 2.619476 1_555
O22 Sr6 2.744829 1_555
O22 Sr10 2.920157 1_555
O22 Sr6 3.059766 1_655
O23 Sr7 2.744827 1_455
O23 Sr11 2.920157 1_555
O23 Sr7 3.059768 1_555
O24 Sr11 2.629235 1_555
O24 Sr7 2.786607 1_555
O24 Sr4 2.843113 1_555
O25 Sr10 2.629235 1_455
O25 Sr6 2.786608 1_555
O25 Sr5 2.843110 1_455
O26 Sr9 2.629227 1_545
O26 Sr5 2.786610 1_545
O26 Sr6 2.843105 1_555
O27 Sr8 2.629237 1_465
O27 Sr4 2.786593 1_565
O27 Sr7 2.843121 1_455
O28 Sr8 2.642203 1_455
O28 Sr4 2.777923 1_555
O28 Sr7 2.849222 1_455
O29 Sr9 2.642211 1_555
O29 Sr5 2.777923 1_555
O29 Sr6 2.849223 1_555
O30 Sr10 2.642210 1_455
O30 Sr6 2.777923 1_555
O30 Sr5 2.849218 1_445
O31 Sr11 2.642209 1_555
O31 Sr7 2.777923 1_555
O31 Sr4 2.849219 1_565
O32 Sr0 2.501619 1_565
O32 Sr15 2.508612 1_555
O32 Sr1 2.577386 1_556
O33 Sr1 2.501618 1_645
O33 Sr14 2.508617 1_655
O33 Sr0 2.577386 1_554
O34 Sr2 2.501623 1_555
O34 Sr13 2.508619 1_555
O34 Sr3 2.577383 1_555
O35 Sr3 2.501622 1_655
O35 Sr12 2.508611 1_655
O35 Sr2 2.577383 1_555
O36 Sr0 2.537877 1_565
O36 Sr15 2.597124 1_555
O36 Sr1 2.665314 1_656
O37 Sr1 2.537883 1_545
O37 Sr14 2.597138 1_555
O37 Sr0 2.665301 1_554
O38 Sr2 2.537881 1_555
O38 Sr13 2.597133 1_555
O38 Sr3 2.665310 1_655
O39 Sr3 2.537880 1_555
O39 Sr12 2.597138 1_555
O39 Sr2 2.665307 1_555
O40 Sr11 2.658308 1_555
O41 Sr10 2.658318 1_555
O42 Sr9 2.658318 1_555
O43 Sr8 2.658308 1_555
O44 Sr11 2.846317 1_555
O45 Sr10 2.846316 1_455
O46 Sr9 2.846317 1_555
O47 Sr8 2.846316 1_455
O48 Sr4 2.511591 1_565
O48 Sr11 2.620448 1_555
O49 Sr5 2.511586 1_545
O49 Sr10 2.620456 1_555
O50 Sr6 2.511590 1_555
O50 Sr9 2.620456 1_555
O51 Sr7 2.511590 1_555
O51 Sr8 2.620448 1_555
O52 Sr11 2.533773 1_655
O52 Sr7 2.619476 1_555
O53 Sr10 2.533773 1_555
O53 Sr6 2.619476 1_555
O54 Sr9 2.533772 1_655
O54 Sr5 2.619476 1_555
O55 Sr5 2.744828 1_455
O55 Sr9 2.920157 1_555
O55 Sr5 3.059768 1_555
Nb0 O4 1.833060 1_455
Nb0 O0 1.909817 1_555
Nb0 O8 2.037859 1_555
Nb0 O40 2.040130 1_555
Nb0 O16 2.128728 1_555
Nb0 O12 2.402674 1_555
Nb1 O5 1.833058 1_555
Nb1 O1 1.909817 1_555
Nb1 O9 2.037859 1_555
Nb1 O41 2.040119 1_555
Nb1 O17 2.128720 1_555
Nb1 O13 2.402667 1_655
Nb2 O6 1.833060 1_455
Nb2 O2 1.909810 1_555
Nb2 O10 2.037851 1_555
Nb2 O42 2.040125 1_545
Nb2 O18 2.128729 1_555
Nb2 O14 2.402675 1_555
Nb3 O7 1.833058 1_555
Nb3 O3 1.909817 1_555
Nb3 O11 2.037859 1_555
Nb3 O43 2.040125 1_565
Nb3 O19 2.128728 1_555
Nb3 O15 2.402673 1_655
Nb4 O12 1.861999 1_555
Nb4 O24 1.994591 1_555
Nb4 O16 2.004260 1_655
Nb4 O20 2.032249 1_555
Nb4 O52 2.039404 1_555
Nb4 O28 2.349500 1_655
Nb5 O13 1.862000 1_555
Nb5 O25 1.994584 1_555
Nb5 O17 2.004260 1_555
Nb5 O55 2.032249 1_555
Nb5 O53 2.039404 1_555
Nb5 O29 2.349500 1_555
Nb6 O14 1.862000 1_555
Nb6 O26 1.994591 1_555
Nb6 O18 2.004260 1_655
Nb6 O22 2.032249 1_555
Nb6 O54 2.039409 1_545
Nb6 O30 2.349499 1_655
Nb7 O15 1.861993 1_555
Nb7 O27 1.994592 1_555
Nb7 O19 2.004256 1_555
Nb7 O23 2.032250 1_555
Nb7 O21 2.039409 1_565
Nb7 O31 2.349500 1_555
Nb8 O47 1.862093 1_555
Nb8 O28 1.981756 1_555
Nb8 O51 2.015978 1_555
Nb8 O23 2.029521 1_555
Nb8 O21 2.038030 1_555
Nb8 O24 2.346841 1_555
Nb9 O46 1.862087 1_555
Nb9 O29 1.981762 1_555
Nb9 O50 2.015972 1_655
Nb9 O22 2.029521 1_555
Nb9 O54 2.038031 1_555
Nb9 O25 2.346853 1_655
Nb10 O45 1.862085 1_555
Nb10 O30 1.981762 1_555
Nb10 O49 2.015974 1_555
Nb10 O55 2.029526 1_545
Nb10 O53 2.038031 1_555
Nb10 O26 2.346849 1_555
Nb11 O44 1.862093 1_555
Nb11 O31 1.981762 1_555
Nb11 O48 2.015977 1_655
Nb11 O20 2.029526 1_565
Nb11 O52 2.038031 1_555
Nb11 O27 2.346846 1_655
Nb12 O39 1.860480 1_555
Nb12 O35 1.893510 1_555
Nb12 O43 2.028494 1_555
Nb12 O11 2.050019 1_555
Nb12 O51 2.103462 1_555
Nb12 O47 2.375565 1_655
Nb13 O38 1.860492 1_455
Nb13 O34 1.893517 1_555
Nb13 O42 2.028493 1_555
Nb13 O10 2.050029 1_555
Nb13 O50 2.103462 1_555
Nb13 O46 2.375566 1_555
Nb14 O37 1.860486 1_555
Nb14 O33 1.893509 1_555
Nb14 O41 2.028493 1_555
Nb14 O9 2.050024 1_545
Nb14 O49 2.103462 1_555
Nb14 O45 2.375565 1_655
Nb15 O36 1.860492 1_455
Nb15 O32 1.893517 1_555
Nb15 O40 2.028483 1_555
Nb15 O8 2.050023 1_565
Nb15 O48 2.103453 1_555
Nb15 O44 2.375559 1_555
