# generated using pymatgen
data_PtN4Cl5O
_symmetry_space_group_name_H-M   'P 1'
_cell_length_a   6.88900900
_cell_length_b   12.32146600
_cell_length_c   14.06981362
_cell_angle_alpha   76.51651993
_cell_angle_beta   90.00000000
_cell_angle_gamma   90.00000000
_symmetry_Int_Tables_number   1
_chemical_formula_structural   PtN4Cl5O
_chemical_formula_sum   'Pt4 N16 Cl20 O4'
_cell_volume   1161.36581569
_cell_formula_units_Z   4
loop_
 _symmetry_equiv_pos_site_id
 _symmetry_equiv_pos_as_xyz
  1  'x, y, z'
loop_
 _atom_site_type_symbol
 _atom_site_label
 _atom_site_symmetry_multiplicity
 _atom_site_fract_x
 _atom_site_fract_y
 _atom_site_fract_z
 _atom_site_occupancy
  Pt  Pt0  1  0.24702100  0.32461900  0.91318300  1
  Pt  Pt1  1  0.74702100  0.67538100  0.58681700  1
  Pt  Pt2  1  0.75297900  0.67538100  0.08681700  1
  Pt  Pt3  1  0.25297900  0.32461900  0.41318300  1
  N  N0  1  0.45843500  0.42055700  0.93235200  1
  N  N1  1  0.95843500  0.57944300  0.56764800  1
  N  N2  1  0.54156500  0.57944300  0.06764800  1
  N  N3  1  0.04156500  0.42055700  0.43235200  1
  N  N4  1  0.08651500  0.29127700  0.01962700  1
  N  N5  1  0.58651500  0.70872300  0.48037300  1
  N  N6  1  0.91348500  0.70872300  0.98037300  1
  N  N7  1  0.41348500  0.29127700  0.51962700  1
  N  N8  1  0.74195600  0.19015500  0.86906500  1
  N  N9  1  0.24195600  0.80984500  0.63093500  1
  N  N10  1  0.25804400  0.80984500  0.13093500  1
  N  N11  1  0.75804400  0.19015500  0.36906500  1
  N  N12  1  0.96474000  0.03952500  0.71705100  1
  N  N13  1  0.46474000  0.96047500  0.78294900  1
  N  N14  1  0.03526000  0.96047500  0.28294900  1
  N  N15  1  0.53526000  0.03952500  0.21705100  1
  Cl  Cl0  1  0.05237000  0.48094300  0.85036100  1
  Cl  Cl1  1  0.55237000  0.51905700  0.64963900  1
  Cl  Cl2  1  0.94763000  0.51905700  0.14963900  1
  Cl  Cl3  1  0.44763000  0.48094300  0.35036100  1
  Cl  Cl4  1  0.22682200  0.27113900  0.76438100  1
  Cl  Cl5  1  0.72682200  0.72886100  0.73561900  1
  Cl  Cl6  1  0.77317800  0.72886100  0.23561900  1
  Cl  Cl7  1  0.27317800  0.27113900  0.26438100  1
  Cl  Cl8  1  0.42713200  0.15809200  0.97271400  1
  Cl  Cl9  1  0.92713200  0.84190800  0.52728600  1
  Cl  Cl10  1  0.57286800  0.84190800  0.02728600  1
  Cl  Cl11  1  0.07286800  0.15809200  0.47271400  1
  Cl  Cl12  1  0.62062500  0.38641900  0.01746100  1
  Cl  Cl13  1  0.12062500  0.61358100  0.48253900  1
  Cl  Cl14  1  0.37937500  0.61358100  0.98253900  1
  Cl  Cl15  1  0.87937500  0.38641900  0.51746100  1
  Cl  Cl16  1  0.47007500  0.03232500  0.67241200  1
  Cl  Cl17  1  0.97007500  0.96767500  0.82758800  1
  Cl  Cl18  1  0.52992500  0.96767500  0.32758800  1
  Cl  Cl19  1  0.02992500  0.03232500  0.17241200  1
  O  O0  1  0.72049200  0.23839100  0.78996000  1
  O  O1  1  0.22049200  0.76160900  0.71004000  1
  O  O2  1  0.27950800  0.76160900  0.21004000  1
  O  O3  1  0.77950800  0.23839100  0.28996000  1
loop_
_geom_bond_atom_site_label_1
_geom_bond_atom_site_label_2
_geom_bond_distance
_geom_bond_site_symmetry_2
N0 Pt0 1.933899 1_555
N1 Pt1 1.933899 1_555
N2 Pt2 1.933899 1_555
N3 Pt3 1.933899 1_555
N4 Pt0 1.829600 1_554
N5 Pt1 1.829600 1_555
N6 Pt2 1.829600 1_556
N7 Pt3 1.829600 1_555
N8 O0 1.142532 1_555
N9 O1 1.142532 1_555
N10 O2 1.142532 1_555
N11 O3 1.142532 1_555
Cl0 Pt0 2.344251 1_555
Cl1 Pt1 2.344251 1_555
Cl2 Pt2 2.344251 1_555
Cl3 Pt3 2.344251 1_555
Cl4 Pt0 2.340973 1_555
Cl5 Pt1 2.340973 1_555
Cl6 Pt2 2.340973 1_555
Cl7 Pt3 2.340973 1_555
Cl8 Pt0 2.376927 1_555
Cl9 Pt1 2.376927 1_555
Cl10 Pt2 2.376927 1_555
Cl11 Pt3 2.376927 1_555
Cl12 N0 1.619999 1_554
Cl13 N1 1.619999 1_455
Cl14 N2 1.619999 1_556
Cl15 N3 1.619999 1_655
Cl16 N13 1.600560 1_545
Cl17 N12 1.600560 1_565
Cl18 N15 1.600560 1_565
Cl19 N14 1.600560 1_545
