# generated using pymatgen
data_ZrMn6GaSn5
_symmetry_space_group_name_H-M   'P 1'
_cell_length_a   5.35205895
_cell_length_b   5.35420100
_cell_length_c   8.90592100
_cell_angle_alpha   90.00000000
_cell_angle_beta   90.00000000
_cell_angle_gamma   59.98651376
_symmetry_Int_Tables_number   1
_chemical_formula_structural   ZrMn6GaSn5
_chemical_formula_sum   'Zr1 Mn6 Ga1 Sn5'
_cell_volume   220.98662738
_cell_formula_units_Z   1
loop_
 _symmetry_equiv_pos_site_id
 _symmetry_equiv_pos_as_xyz
  1  'x, y, z'
loop_
 _atom_site_type_symbol
 _atom_site_label
 _atom_site_symmetry_multiplicity
 _atom_site_fract_x
 _atom_site_fract_y
 _atom_site_fract_z
 _atom_site_occupancy
  Zr  Zr0  1  0.99998500  0.00000900  0.50000000  1
  Mn  Mn0  1  0.49689800  0.00619000  0.25767400  1
  Mn  Mn1  1  0.00622000  0.49690800  0.25765600  1
  Mn  Mn2  1  0.49686900  0.49691300  0.25766200  1
  Mn  Mn3  1  0.49689800  0.00619000  0.74232600  1
  Mn  Mn4  1  0.00622000  0.49690800  0.74234400  1
  Mn  Mn5  1  0.49686900  0.49691300  0.74233800  1
  Ga  Ga0  1  0.33318100  0.33344200  0.50000000  1
  Sn  Sn0  1  0.99998800  0.00000100  0.17267700  1
  Sn  Sn1  1  0.99998800  0.00000100  0.82732300  1
  Sn  Sn2  1  0.66666500  0.66666600  0.00000000  1
  Sn  Sn3  1  0.33328500  0.33334700  0.00000000  1
  Sn  Sn4  1  0.66673300  0.66651200  0.50000000  1
loop_
_geom_bond_atom_site_label_1
_geom_bond_atom_site_label_2
_geom_bond_distance
_geom_bond_site_symmetry_2
Mn0 Mn1 2.626235 1_555
Mn0 Mn2 2.627352 1_555
Mn0 Sn4 2.671637 1_545
Mn0 Mn1 2.725804 1_645
Mn0 Mn2 2.726849 1_545
Mn0 Sn3 2.750789 1_555
Mn0 Sn0 2.781145 1_555
Mn0 Sn0 2.781218 1_455
Mn0 Sn2 2.782815 1_545
Mn1 Mn2 2.625996 1_555
Mn1 Sn4 2.670873 1_455
Mn1 Mn2 2.726063 1_455
Mn1 Sn3 2.750085 1_555
Mn1 Sn0 2.782052 1_465
Mn1 Sn0 2.782289 1_455
Mn1 Sn2 2.782408 1_455
Mn2 Sn4 2.671139 1_555
Mn2 Sn3 2.750685 1_555
Mn2 Sn0 2.781077 1_465
Mn2 Sn0 2.781211 1_555
Mn2 Sn2 2.782796 1_555
Mn3 Mn4 2.626235 1_555
Mn3 Mn5 2.627352 1_555
Mn3 Sn4 2.671637 1_545
Mn3 Mn4 2.725804 1_645
Mn3 Mn5 2.726849 1_545
Mn3 Sn3 2.750789 1_556
Mn3 Sn1 2.781145 1_555
Mn3 Sn1 2.781218 1_455
Mn3 Sn2 2.782815 1_546
Mn4 Mn5 2.625996 1_555
Mn4 Sn4 2.670873 1_455
Mn4 Mn5 2.726063 1_455
Mn4 Sn3 2.750085 1_556
Mn4 Sn1 2.782052 1_465
Mn4 Sn1 2.782289 1_455
Mn4 Sn2 2.782408 1_456
Mn5 Sn4 2.671139 1_555
Mn5 Sn3 2.750685 1_556
Mn5 Sn1 2.781077 1_465
Mn5 Sn1 2.781211 1_555
Mn5 Sn2 2.782796 1_556
Ga0 Mn4 2.637095 1_555
Ga0 Mn1 2.637095 1_555
Ga0 Mn5 2.637931 1_555
Ga0 Mn2 2.637931 1_555
Ga0 Mn3 2.638088 1_555
Ga0 Mn0 2.638088 1_555
Ga0 Sn4 3.088579 1_455
Ga0 Zr0 3.090229 1_555
Ga0 Zr0 3.090368 1_465
Ga0 Sn4 3.090634 1_555
Ga0 Zr0 3.090667 1_455
Ga0 Sn4 3.092050 1_545
Sn0 Zr0 2.915113 1_555
Sn0 Sn1 3.075695 1_554
Sn1 Zr0 2.915113 1_555
Sn2 Sn3 3.089376 1_655
Sn2 Sn3 3.090896 1_565
Sn2 Sn3 3.090991 1_555
Sn4 Zr0 3.089970 1_465
Sn4 Zr0 3.090071 1_555
Sn4 Zr0 3.091223 1_565
