# generated using pymatgen
data_Nb16Bi47
_symmetry_space_group_name_H-M   'P 1'
_cell_length_a   11.28460400
_cell_length_b   11.28460400
_cell_length_c   16.79111404
_cell_angle_alpha   109.63512574
_cell_angle_beta   109.63512574
_cell_angle_gamma   90.00000000
_symmetry_Int_Tables_number   1
_chemical_formula_structural   Nb16Bi47
_chemical_formula_sum   'Nb16 Bi47'
_cell_volume   1881.35189838
_cell_formula_units_Z   1
loop_
 _symmetry_equiv_pos_site_id
 _symmetry_equiv_pos_as_xyz
  1  'x, y, z'
loop_
 _atom_site_type_symbol
 _atom_site_label
 _atom_site_symmetry_multiplicity
 _atom_site_fract_x
 _atom_site_fract_y
 _atom_site_fract_z
 _atom_site_occupancy
  Nb  Nb0  1  0.21050500  0.86839200  0.73678500  1
  Nb  Nb1  1  0.52628000  0.86839200  0.73678500  1
  Nb  Nb2  1  0.13160800  0.78949500  0.26321500  1
  Nb  Nb3  1  0.13160800  0.47372000  0.26321500  1
  Nb  Nb4  1  0.40699800  0.05519200  0.81399500  1
  Nb  Nb5  1  0.40699800  0.75880300  0.81399500  1
  Nb  Nb6  1  0.24119700  0.59300200  0.18600500  1
  Nb  Nb7  1  0.94480800  0.59300200  0.18600500  1
  Nb  Nb8  1  0.84757000  0.84757000  0.69513900  1
  Nb  Nb9  1  0.15243000  0.15243000  0.30486100  1
  Nb  Nb10  1  0.61756100  0.26792400  0.53584800  1
  Nb  Nb11  1  0.91828700  0.26792400  0.53584800  1
  Nb  Nb12  1  0.73207600  0.38243900  0.46415200  1
  Nb  Nb13  1  0.73207600  0.08171300  0.46415200  1
  Nb  Nb14  1  0.42454900  0.42454900  0.84909700  1
  Nb  Nb15  1  0.57545100  0.57545100  0.15090300  1
  Bi  Bi0  1  0.95732100  0.93568700  0.58206200  1
  Bi  Bi1  1  0.62474100  0.64637500  0.58206200  1
  Bi  Bi2  1  0.62474100  0.93568700  0.58206200  1
  Bi  Bi3  1  0.95732100  0.64637500  0.58206200  1
  Bi  Bi4  1  0.35362500  0.04267900  0.41793800  1
  Bi  Bi5  1  0.06431300  0.37525900  0.41793800  1
  Bi  Bi6  1  0.35362500  0.37525900  0.41793800  1
  Bi  Bi7  1  0.06431300  0.04267900  0.41793800  1
  Bi  Bi8  1  0.05624700  0.69745000  0.39490100  1
  Bi  Bi9  1  0.33865400  0.69745000  0.39490100  1
  Bi  Bi10  1  0.30255000  0.94375300  0.60509900  1
  Bi  Bi11  1  0.30255000  0.66134600  0.60509900  1
  Bi  Bi12  1  0.30779900  0.50746700  0.01493400  1
  Bi  Bi13  1  0.70713600  0.50746700  0.01493400  1
  Bi  Bi14  1  0.49253300  0.69220100  0.98506600  1
  Bi  Bi15  1  0.49253300  0.29286400  0.98506600  1
  Bi  Bi16  1  0.51957300  0.16603500  0.33207100  1
  Bi  Bi17  1  0.81249800  0.16603500  0.33207100  1
  Bi  Bi18  1  0.83396500  0.48042700  0.66792900  1
  Bi  Bi19  1  0.83396500  0.18750200  0.66792900  1
  Bi  Bi20  1  0.75612800  0.41558500  0.83117000  1
  Bi  Bi21  1  0.07504100  0.41558500  0.83117000  1
  Bi  Bi22  1  0.58441500  0.24387200  0.16883000  1
  Bi  Bi23  1  0.58441500  0.92495900  0.16883000  1
  Bi  Bi24  1  0.70570200  0.70570200  0.41140400  1
  Bi  Bi25  1  0.29429800  0.29429800  0.58859600  1
  Bi  Bi26  1  0.62179200  0.97642900  0.95285900  1
  Bi  Bi27  1  0.33106600  0.97642900  0.95285900  1
  Bi  Bi28  1  0.02357100  0.37820800  0.04714100  1
  Bi  Bi29  1  0.02357100  0.66893400  0.04714100  1
  Bi  Bi30  1  0.00000000  0.00000000  0.00000000  1
  Bi  Bi31  1  0.76594800  0.06682900  0.83596000  1
  Bi  Bi32  1  0.07001100  0.76913100  0.83596000  1
  Bi  Bi33  1  0.07001100  0.06682900  0.83596000  1
  Bi  Bi34  1  0.76594800  0.76913100  0.83596000  1
  Bi  Bi35  1  0.23086900  0.23405200  0.16404000  1
  Bi  Bi36  1  0.93317100  0.92998900  0.16404000  1
  Bi  Bi37  1  0.23086900  0.92998900  0.16404000  1
  Bi  Bi38  1  0.93317100  0.23405200  0.16404000  1
  Bi  Bi39  1  0.46988800  0.79308400  0.27096500  1
  Bi  Bi40  1  0.80107700  0.47788100  0.27096500  1
  Bi  Bi41  1  0.80107700  0.79308400  0.27096500  1
  Bi  Bi42  1  0.46988800  0.47788100  0.27096500  1
  Bi  Bi43  1  0.52211900  0.53011200  0.72903500  1
  Bi  Bi44  1  0.20691600  0.19892300  0.72903500  1
  Bi  Bi45  1  0.52211900  0.19892300  0.72903500  1
  Bi  Bi46  1  0.20691600  0.53011200  0.72903500  1
loop_
_geom_bond_atom_site_label_1
_geom_bond_atom_site_label_2
_geom_bond_distance
_geom_bond_site_symmetry_2
Nb0 Nb5 2.696717 1_555
Nb0 Nb4 2.696724 1_565
Nb1 Nb5 2.696710 1_555
Nb1 Nb4 2.696717 1_565
Nb2 Nb6 2.696717 1_555
Nb2 Nb7 2.696724 1_455
Nb3 Nb6 2.696710 1_555
Nb3 Nb7 2.696717 1_455
Nb10 Nb12 2.623004 1_555
Nb10 Nb13 2.623004 1_555
Nb11 Nb13 2.623004 1_555
Nb11 Nb12 2.623004 1_555
Bi0 Nb8 2.996140 1_555
Bi0 Nb0 3.438971 1_655
Bi0 Nb13 3.450572 1_565
Bi0 Bi24 3.541601 1_555
Bi1 Nb8 2.996153 1_555
Bi1 Nb1 3.438966 1_555
Bi1 Nb12 3.450572 1_555
Bi1 Bi24 3.541601 1_555
Bi2 Nb8 2.996147 1_555
Bi2 Nb1 3.438971 1_555
Bi2 Nb13 3.450572 1_565
Bi2 Bi24 3.541601 1_555
Bi3 Nb8 2.996146 1_555
Bi3 Nb0 3.438966 1_655
Bi3 Nb12 3.450572 1_555
Bi4 Nb9 2.996146 1_555
Bi4 Nb2 3.438966 1_545
Bi4 Nb10 3.450572 1_555
Bi5 Nb9 2.996147 1_555
Bi5 Nb3 3.438971 1_555
Bi5 Nb11 3.450572 1_455
Bi6 Nb9 2.996153 1_555
Bi6 Nb3 3.438966 1_555
Bi6 Nb10 3.450572 1_555
Bi7 Nb9 2.996140 1_555
Bi7 Nb2 3.438971 1_545
Bi7 Nb11 3.450572 1_455
Bi8 Nb3 3.081967 1_555
Bi8 Nb2 3.081974 1_555
Bi8 Nb7 3.087233 1_455
Bi8 Bi9 3.186851 1_555
Bi9 Nb3 3.081961 1_555
Bi9 Nb2 3.081968 1_555
Bi9 Nb6 3.087233 1_555
Bi10 Nb1 3.081967 1_555
Bi10 Nb0 3.081974 1_555
Bi10 Nb4 3.087233 1_565
Bi10 Bi11 3.186851 1_555
Bi10 Bi45 3.356919 1_565
Bi10 Bi44 3.356925 1_565
Bi11 Nb1 3.081961 1_555
Bi11 Nb0 3.081968 1_555
Bi11 Nb5 3.087233 1_555
Bi11 Bi43 3.356919 1_555
Bi11 Bi46 3.356925 1_555
Bi12 Nb15 3.018618 1_555
Bi12 Nb6 3.055354 1_555
Bi12 Bi21 3.146118 1_554
Bi12 Bi14 3.216879 1_554
Bi12 Bi15 3.216886 1_554
Bi12 Nb14 3.328614 1_554
Bi13 Nb15 3.018635 1_555
Bi13 Nb7 3.055347 1_555
Bi13 Bi20 3.146107 1_554
Bi13 Bi14 3.216886 1_554
Bi13 Bi15 3.216894 1_554
Bi13 Nb14 3.328614 1_554
Bi14 Nb14 3.018618 1_555
Bi14 Nb5 3.055354 1_555
Bi14 Bi23 3.146118 1_556
Bi14 Nb15 3.328614 1_556
Bi15 Nb14 3.018635 1_555
Bi15 Nb4 3.055347 1_555
Bi15 Bi22 3.146107 1_556
Bi15 Nb15 3.328614 1_556
Bi16 Nb10 3.010918 1_555
Bi16 Nb13 3.068963 1_555
Bi16 Nb12 3.068969 1_555
Bi16 Bi23 3.433053 1_545
Bi16 Bi22 3.433065 1_555
Bi17 Nb11 3.010918 1_555
Bi17 Nb13 3.068963 1_555
Bi17 Nb12 3.068969 1_555
Bi17 Bi23 3.433053 1_545
Bi17 Bi22 3.433065 1_555
Bi18 Nb12 3.010918 1_555
Bi18 Nb11 3.068963 1_555
Bi18 Nb10 3.068969 1_555
Bi18 Bi21 3.433053 1_655
Bi18 Bi20 3.433065 1_555
Bi19 Nb13 3.010918 1_555
Bi19 Nb11 3.068963 1_555
Bi19 Nb10 3.068969 1_555
Bi19 Bi21 3.433053 1_655
Bi19 Bi20 3.433065 1_555
Bi20 Bi45 3.167122 1_555
Bi20 Bi43 3.167122 1_555
Bi20 Bi21 3.598807 1_655
Bi20 Nb14 3.852003 1_555
Bi21 Bi44 3.167129 1_555
Bi21 Bi46 3.167129 1_555
Bi21 Nb14 3.852026 1_555
Bi22 Bi40 3.167122 1_555
Bi22 Bi42 3.167122 1_555
Bi22 Bi23 3.598807 1_545
Bi22 Nb15 3.852003 1_555
Bi23 Bi39 3.167129 1_555
Bi23 Bi41 3.167129 1_555
Bi23 Nb15 3.852026 1_555
Bi24 Bi41 3.310566 1_555
Bi24 Bi40 3.310566 1_555
Bi24 Bi39 3.310566 1_555
Bi24 Bi42 3.310566 1_555
Bi24 Bi3 3.541601 1_555
Bi25 Bi44 3.310566 1_555
Bi25 Bi45 3.310566 1_555
Bi25 Bi43 3.310566 1_555
Bi25 Bi46 3.310566 1_555
Bi25 Bi7 3.541601 1_555
Bi25 Bi6 3.541601 1_555
Bi25 Bi4 3.541601 1_555
Bi25 Bi5 3.541601 1_555
Bi26 Nb5 3.113894 1_555
Bi26 Nb4 3.113900 1_565
Bi26 Nb1 3.195400 1_555
Bi26 Bi27 3.280728 1_555
Bi26 Bi34 3.321355 1_555
Bi26 Bi31 3.321361 1_565
Bi27 Nb5 3.113905 1_555
Bi27 Nb4 3.113911 1_565
Bi27 Nb0 3.195399 1_555
Bi27 Bi32 3.321355 1_555
Bi27 Bi33 3.321361 1_565
Bi28 Nb6 3.113894 1_555
Bi28 Nb7 3.113900 1_455
Bi28 Nb3 3.195400 1_555
Bi28 Bi29 3.280728 1_555
Bi28 Bi35 3.321355 1_555
Bi28 Bi38 3.321361 1_455
Bi29 Nb6 3.113905 1_555
Bi29 Nb7 3.113911 1_455
Bi29 Nb2 3.195399 1_555
Bi29 Bi37 3.321355 1_555
Bi29 Bi36 3.321361 1_455
Bi30 Bi32 3.411478 1_544
Bi30 Bi37 3.411478 1_545
Bi30 Bi33 3.411478 1_554
Bi30 Bi36 3.411478 1_445
Bi30 Bi35 3.411483 1_555
Bi30 Bi31 3.411483 1_454
Bi30 Bi38 3.411483 1_455
Bi30 Bi34 3.411483 1_444
Bi31 Nb1 3.093414 1_545
Bi31 Nb8 3.176976 1_545
Bi32 Nb0 3.093415 1_555
Bi32 Nb8 3.176970 1_455
Bi33 Nb0 3.093422 1_545
Bi33 Nb8 3.176964 1_445
Bi34 Nb1 3.093408 1_555
Bi34 Nb8 3.176982 1_555
Bi35 Nb3 3.093408 1_555
Bi35 Nb9 3.176982 1_555
Bi36 Nb2 3.093422 1_655
Bi36 Nb9 3.176964 1_665
Bi37 Nb2 3.093415 1_555
Bi37 Nb9 3.176970 1_565
Bi38 Nb3 3.093414 1_655
Bi38 Nb9 3.176976 1_655
Bi39 Nb6 3.025563 1_555
Bi39 Nb15 3.130690 1_555
Bi39 Bi9 3.356925 1_555
Bi40 Nb7 3.025556 1_555
Bi40 Nb15 3.130690 1_555
Bi40 Bi8 3.356919 1_655
Bi41 Nb7 3.025563 1_555
Bi41 Nb15 3.130697 1_555
Bi41 Bi8 3.356925 1_655
Bi42 Nb6 3.025556 1_555
Bi42 Nb15 3.130684 1_555
Bi42 Bi9 3.356919 1_555
Bi43 Nb5 3.025556 1_555
Bi43 Nb14 3.130684 1_555
Bi44 Nb4 3.025563 1_555
Bi44 Nb14 3.130697 1_555
Bi45 Nb4 3.025556 1_555
Bi45 Nb14 3.130690 1_555
Bi46 Nb5 3.025563 1_555
Bi46 Nb14 3.130690 1_555
