# generated using pymatgen
data_Fe2SiO4
_symmetry_space_group_name_H-M   'P 1'
_cell_length_a   5.89029240
_cell_length_b   5.89031857
_cell_length_c   5.89031857
_cell_angle_alpha   89.84745699
_cell_angle_beta   60.09529791
_cell_angle_gamma   119.91896461
_symmetry_Int_Tables_number   1
_chemical_formula_structural   Fe2SiO4
_chemical_formula_sum   'Fe4 Si2 O8'
_cell_volume   144.70282379
_cell_formula_units_Z   2
loop_
 _symmetry_equiv_pos_site_id
 _symmetry_equiv_pos_as_xyz
  1  'x, y, z'
loop_
 _atom_site_type_symbol
 _atom_site_label
 _atom_site_symmetry_multiplicity
 _atom_site_fract_x
 _atom_site_fract_y
 _atom_site_fract_z
 _atom_site_occupancy
  Fe  Fe0  1  0.25000200  0.37500000  0.37499700  1
  Fe  Fe1  1  0.75000200  0.37500200  0.87500200  1
  Fe  Fe2  1  0.75000400  0.37500300  0.37500300  1
  Fe  Fe3  1  0.24999500  0.87500000  0.37500100  1
  Si  Si0  1  0.00000000  0.99998000  0.00001700  1
  Si  Si1  1  0.50000000  0.75001900  0.74998300  1
  O  O0  1  0.23139500  0.11576900  0.65284300  1
  O  O1  1  0.76860500  0.11576200  0.11562500  1
  O  O2  1  0.76864700  0.65291700  0.11573500  1
  O  O3  1  0.23134900  0.11561500  0.11573100  1
  O  O4  1  0.26860500  0.63423000  0.09715600  1
  O  O5  1  0.73139500  0.63423700  0.63437500  1
  O  O6  1  0.73135200  0.09708200  0.63426500  1
  O  O7  1  0.26865000  0.63438300  0.63426800  1
loop_
_geom_bond_atom_site_label_1
_geom_bond_atom_site_label_2
_geom_bond_distance
_geom_bond_site_symmetry_2
Fe0 O4 2.159378 1_555
Fe0 O0 2.159388 1_555
Fe0 O2 2.165828 1_555
Fe0 O6 2.165849 1_455
Fe0 O3 2.165853 1_555
Fe0 O7 2.165865 1_555
Fe1 O1 2.159370 1_556
Fe1 O5 2.159381 1_555
Fe1 O7 2.165838 1_655
Fe1 O2 2.165840 1_556
Fe1 O3 2.165861 1_556
Fe1 O6 2.165877 1_555
Fe2 O6 2.159653 1_555
Fe2 O2 2.159683 1_555
Fe2 O4 2.165664 1_655
Fe2 O5 2.165683 1_555
Fe2 O0 2.165694 1_555
Fe2 O1 2.165735 1_555
Fe3 O3 2.159650 1_565
Fe3 O7 2.159684 1_555
Fe3 O5 2.165656 1_455
Fe3 O1 2.165699 1_565
Fe3 O0 2.165703 1_565
Fe3 O4 2.165720 1_555
O0 Si0 1.670571 1_546
O1 Si0 1.670576 1_645
O2 Si0 1.669798 1_655
O3 Si0 1.669788 1_545
O4 Si1 1.670566 1_554
O5 Si1 1.670576 1_555
O6 Si1 1.669798 1_545
O7 Si1 1.669798 1_555
