# generated using pymatgen
data_LiMn6(OF2)4
_symmetry_space_group_name_H-M   'P 1'
_cell_length_a   5.00862525
_cell_length_b   7.97710773
_cell_length_c   5.91171519
_cell_angle_alpha   94.63012707
_cell_angle_beta   88.50392561
_cell_angle_gamma   90.11650213
_symmetry_Int_Tables_number   1
_chemical_formula_structural   LiMn6(OF2)4
_chemical_formula_sum   'Li1 Mn6 O4 F8'
_cell_volume   235.34762540
_cell_formula_units_Z   1
loop_
 _symmetry_equiv_pos_site_id
 _symmetry_equiv_pos_as_xyz
  1  'x, y, z'
loop_
 _atom_site_type_symbol
 _atom_site_label
 _atom_site_symmetry_multiplicity
 _atom_site_fract_x
 _atom_site_fract_y
 _atom_site_fract_z
 _atom_site_occupancy
  Li  Li0  1  0.99986700  0.52284400  0.02054900  1
  Mn  Mn0  1  0.50576200  0.00313800  0.51524400  1
  Mn  Mn1  1  0.54679400  0.67056000  0.17370200  1
  Mn  Mn2  1  0.50108100  0.33285100  0.83751300  1
  Mn  Mn3  1  0.95868400  0.69278100  0.63996300  1
  Mn  Mn4  1  0.06143600  0.31568100  0.38345100  1
  Mn  Mn5  1  0.98636200  0.98366900  0.02119200  1
  O  O0  1  0.81889400  0.74525900  0.97436200  1
  O  O1  1  0.66750800  0.78917800  0.46441500  1
  O  O2  1  0.65439100  0.43920300  0.10213100  1
  O  O3  1  0.34902200  0.22381600  0.56758400  1
  F  F0  1  0.81441600  0.43522700  0.63862500  1
  F  F1  1  0.81614800  0.10054200  0.33181900  1
  F  F2  1  0.69675200  0.10169000  0.82681500  1
  F  F3  1  0.28420100  0.55418000  0.81846400  1
  F  F4  1  0.32101400  0.91302800  0.20331500  1
  F  F5  1  0.17262200  0.57602800  0.32014000  1
  F  F6  1  0.17242300  0.24836000  0.03987300  1
  F  F7  1  0.20039600  0.91029400  0.70417600  1
loop_
_geom_bond_atom_site_label_1
_geom_bond_atom_site_label_2
_geom_bond_distance
_geom_bond_site_symmetry_2
Li0 O2 1.917186 1_555
Li0 O0 2.035122 1_554
Mn0 O1 1.889394 1_545
Mn0 O3 1.927681 1_555
Mn1 O0 1.904562 1_554
Mn1 O2 1.934324 1_555
Mn1 O1 2.000980 1_555
Mn2 O2 1.897990 1_556
Mn2 O3 1.928640 1_555
Mn3 O1 2.001913 1_555
Mn3 O0 2.090166 1_555
Mn4 O3 2.002917 1_555
Mn5 O0 2.077923 1_554
F0 Mn4 2.095439 1_655
F0 Mn2 2.136768 1_555
F0 Mn3 2.175993 1_555
F0 Li0 2.510209 1_556
F1 Mn0 2.058993 1_555
F1 Mn4 2.115242 1_655
F1 Mn5 2.147846 1_545
F2 Mn2 2.085687 1_555
F2 Mn5 2.139657 1_546
F2 Mn0 2.186540 1_555
F3 Li0 1.864342 1_456
F3 Mn2 2.087145 1_555
F3 Mn3 2.297757 1_455
F3 Mn1 2.612754 1_556
F4 Mn5 2.117128 1_455
F4 Mn0 2.155412 1_565
F4 Mn1 2.234828 1_555
F5 Li0 2.005661 1_455
F5 Mn1 2.201187 1_555
F5 Mn4 2.207550 1_555
F5 Mn3 2.281302 1_455
F6 Mn4 2.118745 1_555
F6 Mn2 2.148941 1_554
F6 Mn5 2.301886 1_445
F6 Li0 2.368025 1_455
F7 Mn0 2.043287 1_565
F7 Mn3 2.128271 1_455
F7 Mn5 2.173625 1_456
