# generated using pymatgen
data_Sr6Ca2MnFe7O24
_symmetry_space_group_name_H-M   'P 1'
_cell_length_a   7.79481777
_cell_length_b   7.79481777
_cell_length_c   7.79151100
_cell_angle_alpha   90.00000000
_cell_angle_beta   90.00000000
_cell_angle_gamma   90.00566537
_symmetry_Int_Tables_number   1
_chemical_formula_structural   Sr6Ca2MnFe7O24
_chemical_formula_sum   'Sr6 Ca2 Mn1 Fe7 O24'
_cell_volume   473.40584929
_cell_formula_units_Z   1
loop_
 _symmetry_equiv_pos_site_id
 _symmetry_equiv_pos_as_xyz
  1  'x, y, z'
loop_
 _atom_site_type_symbol
 _atom_site_label
 _atom_site_symmetry_multiplicity
 _atom_site_fract_x
 _atom_site_fract_y
 _atom_site_fract_z
 _atom_site_occupancy
  Sr  Sr0  1  0.74972200  0.25027800  0.25033500  1
  Sr  Sr1  1  0.25032400  0.25032400  0.25035400  1
  Sr  Sr2  1  0.25035500  0.25035500  0.74963500  1
  Sr  Sr3  1  0.74967600  0.74967600  0.25035400  1
  Sr  Sr4  1  0.25027800  0.74972100  0.25033500  1
  Sr  Sr5  1  0.74964500  0.74964500  0.74963500  1
  Ca  Ca0  1  0.74966800  0.25033200  0.74963100  1
  Ca  Ca1  1  0.25033200  0.74966800  0.74963100  1
  Mn  Mn0  1  0.50000000  0.50000000  0.50075300  1
  Fe  Fe0  1  0.00000000  0.50000000  0.99920600  1
  Fe  Fe1  1  0.50000000  0.50000000  0.99903100  1
  Fe  Fe2  1  0.00000000  0.50000000  0.50083000  1
  Fe  Fe3  1  0.00000000  0.00000000  0.99920800  1
  Fe  Fe4  1  0.50000000  0.00000000  0.99920600  1
  Fe  Fe5  1  0.00000000  0.00000000  0.50080100  1
  Fe  Fe6  1  0.50000000  0.00000000  0.50083000  1
  O  O0  1  0.99844400  0.25063400  0.99794000  1
  O  O1  1  0.50158700  0.24907700  0.99793700  1
  O  O2  1  0.99843900  0.24909000  0.50207500  1
  O  O3  1  0.50160300  0.25130100  0.50210400  1
  O  O4  1  0.00155600  0.74936600  0.99794000  1
  O  O5  1  0.49841300  0.75092300  0.99793700  1
  O  O6  1  0.00156100  0.75091000  0.50207500  1
  O  O7  1  0.49839700  0.74869900  0.50210400  1
  O  O8  1  0.00000000  0.50000000  0.24904300  1
  O  O9  1  0.50000000  0.50000000  0.25135600  1
  O  O10  1  0.00000000  0.50000000  0.75092200  1
  O  O11  1  0.50000000  0.50000000  0.74868900  1
  O  O12  1  0.00000000  0.00000000  0.25065900  1
  O  O13  1  0.50000000  0.00000000  0.24904300  1
  O  O14  1  0.00000000  0.00000000  0.74936400  1
  O  O15  1  0.50000000  0.00000000  0.75092200  1
  O  O16  1  0.75092300  0.49841300  0.99793700  1
  O  O17  1  0.24907700  0.50158700  0.99793700  1
  O  O18  1  0.74869900  0.49839700  0.50210400  1
  O  O19  1  0.25130100  0.50160300  0.50210400  1
  O  O20  1  0.74936600  0.00155600  0.99794000  1
  O  O21  1  0.25063400  0.99844400  0.99794000  1
  O  O22  1  0.75091000  0.00156100  0.50207500  1
  O  O23  1  0.24909000  0.99843900  0.50207500  1
loop_
_geom_bond_atom_site_label_1
_geom_bond_atom_site_label_2
_geom_bond_distance
_geom_bond_site_symmetry_2
Ca0 O3 2.731023 1_555
Ca0 O18 2.731023 1_555
Ca0 O22 2.735088 1_555
Ca0 O2 2.735088 1_555
Ca0 O1 2.735407 1_555
Ca0 O16 2.735407 1_555
Ca0 O20 2.739240 1_555
Ca0 O0 2.739240 1_555
Ca0 O11 2.752370 1_555
Ca0 O10 2.755769 1_655
Ca0 O15 2.755769 1_555
Ca0 O14 2.759681 1_655
Ca1 O7 2.731023 1_555
Ca1 O19 2.731023 1_555
Ca1 O23 2.735088 1_555
Ca1 O6 2.735088 1_555
Ca1 O17 2.735407 1_555
Ca1 O5 2.735407 1_555
Ca1 O21 2.739240 1_555
Ca1 O4 2.739240 1_555
Ca1 O11 2.752370 1_555
Ca1 O10 2.755769 1_555
Ca1 O15 2.755769 1_565
Ca1 O14 2.759681 1_565
Mn0 O11 1.931796 1_555
Mn0 O18 1.938633 1_555
Mn0 O7 1.938633 1_555
Mn0 O19 1.938633 1_555
Mn0 O3 1.938633 1_555
Mn0 O9 1.943179 1_555
Fe0 O10 1.934508 1_555
Fe0 O16 1.941573 1_455
Fe0 O17 1.941573 1_555
Fe0 O4 1.943824 1_555
Fe0 O0 1.943824 1_455
Fe0 O8 1.946608 1_556
Fe1 O11 1.950542 1_555
Fe1 O16 1.955958 1_555
Fe1 O17 1.955958 1_555
Fe1 O1 1.955958 1_555
Fe1 O5 1.955958 1_555
Fe1 O9 1.965993 1_556
Fe2 O10 1.948595 1_555
Fe2 O6 1.955858 1_555
Fe2 O2 1.955858 1_455
Fe2 O18 1.958909 1_455
Fe2 O19 1.958909 1_555
Fe2 O8 1.961801 1_555
Fe3 O14 1.946662 1_555
Fe3 O21 1.953710 1_545
Fe3 O0 1.953710 1_455
Fe3 O4 1.953710 1_545
Fe3 O20 1.953710 1_455
Fe3 O12 1.959183 1_556
Fe4 O15 1.934508 1_555
Fe4 O5 1.941573 1_545
Fe4 O1 1.941573 1_555
Fe4 O20 1.943824 1_555
Fe4 O21 1.943824 1_545
Fe4 O13 1.946608 1_556
Fe5 O14 1.936681 1_555
Fe5 O2 1.941676 1_455
Fe5 O23 1.941676 1_545
Fe5 O22 1.941676 1_455
Fe5 O6 1.941676 1_545
Fe5 O12 1.948984 1_555
Fe6 O15 1.948595 1_555
Fe6 O23 1.955858 1_545
Fe6 O22 1.955858 1_555
Fe6 O3 1.958909 1_555
Fe6 O7 1.958909 1_545
Fe6 O13 1.961801 1_555
O0 Sr2 2.756571 1_655
O0 Sr0 2.761522 1_556
O0 Sr1 2.778964 1_656
O1 Sr2 2.752805 1_555
O1 Sr0 2.758342 1_556
O1 Sr1 2.775601 1_556
O2 Sr2 2.752544 1_655
O2 Sr0 2.757878 1_555
O2 Sr1 2.775188 1_655
O3 Sr2 2.748666 1_555
O3 Sr0 2.754760 1_555
O3 Sr1 2.772001 1_555
O4 Sr5 2.756571 1_455
O4 Sr4 2.761522 1_556
O4 Sr3 2.778964 1_456
O5 Sr5 2.752805 1_555
O5 Sr4 2.758342 1_556
O5 Sr3 2.775601 1_556
O6 Sr5 2.752544 1_455
O6 Sr4 2.757878 1_555
O6 Sr3 2.775188 1_455
O7 Sr5 2.748666 1_555
O7 Sr4 2.754760 1_555
O7 Sr3 2.772001 1_555
O8 Sr4 2.755763 1_555
O8 Sr0 2.755768 1_455
O8 Sr1 2.756042 1_555
O8 Sr3 2.756042 1_455
O9 Sr1 2.752188 1_555
O9 Sr3 2.752188 1_555
O9 Sr4 2.752962 1_555
O9 Sr0 2.752967 1_555
O10 Sr5 2.756042 1_455
O10 Sr2 2.756042 1_555
O11 Sr5 2.751845 1_555
O11 Sr2 2.751845 1_555
O12 Sr0 2.759086 1_455
O12 Sr4 2.759092 1_545
O12 Sr1 2.759320 1_555
O12 Sr3 2.759320 1_445
O13 Sr0 2.755768 1_555
O13 Sr4 2.755774 1_545
O13 Sr1 2.756042 1_555
O13 Sr3 2.756042 1_545
O14 Sr2 2.759662 1_555
O14 Sr5 2.759662 1_445
O15 Sr2 2.756042 1_555
O15 Sr5 2.756042 1_545
O16 Sr5 2.752805 1_555
O16 Sr0 2.758342 1_556
O16 Sr3 2.775601 1_556
O17 Sr2 2.752805 1_555
O17 Sr4 2.758337 1_556
O17 Sr1 2.775601 1_556
O18 Sr5 2.748666 1_555
O18 Sr0 2.754760 1_555
O18 Sr3 2.772001 1_555
O19 Sr2 2.748666 1_555
O19 Sr4 2.754754 1_555
O19 Sr1 2.772001 1_555
O20 Sr5 2.756571 1_545
O20 Sr0 2.761522 1_556
O20 Sr3 2.778964 1_546
O21 Sr2 2.756571 1_565
O21 Sr4 2.761527 1_556
O21 Sr1 2.778964 1_566
O22 Sr5 2.752544 1_545
O22 Sr0 2.757878 1_555
O22 Sr3 2.775188 1_545
O23 Sr2 2.752544 1_565
O23 Sr4 2.757883 1_555
O23 Sr1 2.775188 1_565
