# generated using pymatgen
data_SrO3
_symmetry_space_group_name_H-M   'P 1'
_cell_length_a   3.77349900
_cell_length_b   4.79406800
_cell_length_c   6.06400500
_cell_angle_alpha   90.00000000
_cell_angle_beta   90.00000000
_cell_angle_gamma   90.00000000
_symmetry_Int_Tables_number   1
_chemical_formula_structural   SrO3
_chemical_formula_sum   'Sr2 O6'
_cell_volume   109.70034157
_cell_formula_units_Z   2
loop_
 _symmetry_equiv_pos_site_id
 _symmetry_equiv_pos_as_xyz
  1  'x, y, z'
loop_
 _atom_site_type_symbol
 _atom_site_label
 _atom_site_symmetry_multiplicity
 _atom_site_fract_x
 _atom_site_fract_y
 _atom_site_fract_z
 _atom_site_occupancy
  Sr  Sr0  1  0.50000000  0.29082100  0.00746700  1
  Sr  Sr1  1  0.50000000  0.70917900  0.50746700  1
  O  O0  1  0.50000000  0.19994100  0.60338300  1
  O  O1  1  0.50000000  0.80005900  0.10338300  1
  O  O2  1  0.00000000  0.81762900  0.99395300  1
  O  O3  1  0.00000000  0.18237100  0.49395300  1
  O  O4  1  0.00000000  0.37449300  0.32299700  1
  O  O5  1  0.00000000  0.62550700  0.82299700  1
loop_
_geom_bond_atom_site_label_1
_geom_bond_atom_site_label_2
_geom_bond_distance
_geom_bond_site_symmetry_2
O0 O3 2.001815 1_555
O0 O3 2.001815 1_655
O0 Sr1 2.423575 1_545
O0 Sr0 2.488799 1_556
O0 Sr1 2.509651 1_555
O1 O2 2.001815 1_554
O1 O2 2.001815 1_654
O1 Sr0 2.423575 1_565
O1 Sr1 2.488799 1_555
O1 Sr0 2.509651 1_555
O2 O5 1.386732 1_555
O2 Sr0 2.951728 1_566
O2 Sr0 2.951728 1_466
O3 O4 1.386732 1_555
O3 Sr1 2.951728 1_545
O3 Sr1 2.951728 1_445
O4 Sr0 2.716935 1_555
O4 Sr0 2.716935 1_455
O4 Sr1 2.717645 1_455
O4 Sr1 2.717645 1_555
O5 Sr1 2.716935 1_455
O5 Sr1 2.716935 1_555
O5 Sr0 2.717645 1_456
O5 Sr0 2.717645 1_556
