# generated using pymatgen
data_Sm2Ga2Fe12Co3C
_symmetry_space_group_name_H-M   'P 1'
_cell_length_a   6.50409196
_cell_length_b   6.50409196
_cell_length_c   6.43433835
_cell_angle_alpha   82.78688272
_cell_angle_beta   82.78688272
_cell_angle_gamma   82.95148569
_symmetry_Int_Tables_number   1
_chemical_formula_structural   Sm2Ga2Fe12Co3C
_chemical_formula_sum   'Sm2 Ga2 Fe12 Co3 C1'
_cell_volume   266.31576759
_cell_formula_units_Z   1
loop_
 _symmetry_equiv_pos_site_id
 _symmetry_equiv_pos_as_xyz
  1  'x, y, z'
loop_
 _atom_site_type_symbol
 _atom_site_label
 _atom_site_symmetry_multiplicity
 _atom_site_fract_x
 _atom_site_fract_y
 _atom_site_fract_z
 _atom_site_occupancy
  Sm  Sm0  1  0.65624300  0.65624300  0.64158800  1
  Sm  Sm1  1  0.34375700  0.34375700  0.35841200  1
  Ga  Ga0  1  0.89599000  0.89599000  0.89725300  1
  Ga  Ga1  1  0.10401000  0.10401000  0.10274700  1
  Fe  Fe0  1  0.34443600  0.34443600  0.84892200  1
  Fe  Fe1  1  0.34004100  0.84578300  0.34270200  1
  Fe  Fe2  1  0.84578300  0.34004100  0.34270200  1
  Fe  Fe3  1  0.65556400  0.65556400  0.15107800  1
  Fe  Fe4  1  0.65995900  0.15421700  0.65729800  1
  Fe  Fe5  1  0.15421700  0.65995900  0.65729800  1
  Fe  Fe6  1  0.28748300  0.71251700  0.00000000  1
  Fe  Fe7  1  0.70521200  0.00080900  0.29237000  1
  Fe  Fe8  1  0.99919100  0.29478800  0.70763000  1
  Fe  Fe9  1  0.29478800  0.99919100  0.70763000  1
  Fe  Fe10  1  0.00080900  0.70521200  0.29237000  1
  Fe  Fe11  1  0.71251700  0.28748300  0.00000000  1
  Co  Co0  1  0.00000000  0.00000000  0.50000000  1
  Co  Co1  1  0.00000000  0.50000000  0.00000000  1
  Co  Co2  1  0.50000000  0.00000000  0.00000000  1
  C  C0  1  0.50000000  0.50000000  0.00000000  1
loop_
_geom_bond_atom_site_label_1
_geom_bond_atom_site_label_2
_geom_bond_distance
_geom_bond_site_symmetry_2
Ga0 Ga1 2.599444 1_666
Ga0 Sm0 3.074781 1_555
Ga1 Sm1 3.074781 1_555
Fe0 Fe5 2.527236 1_555
Fe0 Fe4 2.527236 1_555
Fe0 Fe8 2.595649 1_455
Fe0 Fe9 2.595649 1_545
Fe0 Ga1 2.622103 1_556
Fe1 Fe5 2.479662 1_555
Fe1 Fe3 2.527236 1_555
Fe1 Fe6 2.544095 1_555
Fe1 Fe10 2.560831 1_555
Fe1 Ga1 2.621565 1_565
Fe1 Fe9 2.634073 1_555
Fe1 Fe7 2.659936 1_565
Fe1 Sm0 3.037016 1_555
Fe1 Sm1 3.251284 1_555
Fe1 Sm1 3.256242 1_565
Fe2 Fe4 2.479662 1_555
Fe2 Fe3 2.527236 1_555
Fe2 Fe7 2.560831 1_555
Fe2 Ga1 2.621565 1_655
Fe2 Fe8 2.634073 1_555
Fe2 Sm0 3.037016 1_555
Fe2 Sm1 3.251284 1_555
Fe2 Sm1 3.256242 1_655
Fe3 Fe7 2.595649 1_565
Fe3 Ga0 2.622103 1_554
Fe4 Fe8 2.560831 1_555
Fe4 Ga0 2.621565 1_545
Fe4 Fe7 2.634073 1_555
Fe4 Fe9 2.659936 1_545
Fe4 Sm1 3.037016 1_555
Fe4 Sm0 3.251284 1_555
Fe4 Sm0 3.256242 1_545
Fe5 Fe6 2.544095 1_556
Fe5 Fe9 2.560831 1_555
Fe5 Ga0 2.621565 1_455
Fe5 Fe8 2.659936 1_455
Fe5 Sm1 3.037016 1_555
Fe5 Sm0 3.251284 1_555
Fe5 Sm0 3.256242 1_455
Fe6 Fe9 2.477140 1_554
Fe6 Ga0 2.797081 1_454
Fe6 Ga1 2.797081 1_565
Fe7 Ga0 2.811279 1_544
Fe7 Ga1 2.844993 1_655
Fe7 Sm0 2.983917 1_545
Fe7 Sm1 3.063183 1_555
Fe8 Fe9 2.546674 1_645
Fe8 Ga1 2.811279 1_656
Fe8 Ga0 2.844993 1_545
Fe8 Sm1 2.983917 1_655
Fe8 Sm0 3.063183 1_555
Fe9 Ga1 2.811279 1_566
Fe9 Ga0 2.844993 1_455
Fe9 Sm1 2.983917 1_565
Fe9 Sm0 3.063183 1_555
Fe10 Fe6 2.477140 1_555
Fe10 Fe7 2.546674 1_465
Fe10 Fe3 2.595649 1_455
Fe10 Fe5 2.634073 1_555
Fe10 Fe2 2.659936 1_455
Fe10 Ga0 2.811279 1_454
Fe10 Ga1 2.844993 1_565
Fe10 Sm0 2.983917 1_455
Fe10 Sm1 3.063183 1_555
Fe11 Fe7 2.477140 1_555
Fe11 Fe8 2.477140 1_554
Fe11 Fe4 2.544095 1_554
Fe11 Fe2 2.544095 1_555
Fe11 Ga1 2.797081 1_655
Fe11 Ga0 2.797081 1_544
Co0 Fe2 2.463791 1_455
Co0 Fe1 2.463791 1_545
Co0 Fe4 2.463791 1_455
Co0 Fe5 2.463791 1_545
Co0 Fe8 2.469811 1_455
Co0 Fe9 2.469811 1_545
Co0 Fe10 2.469811 1_545
Co0 Fe7 2.469811 1_455
Co0 Ga1 2.587003 1_555
Co0 Ga0 2.587003 1_445
Co1 Fe10 2.440325 1_555
Co1 Fe8 2.440325 1_454
Co1 Fe6 2.457857 1_555
Co1 Fe11 2.457857 1_455
Co1 Fe5 2.464828 1_554
Co1 Fe2 2.464828 1_455
Co1 Fe3 2.476131 1_455
Co1 Fe0 2.476131 1_554
Co1 Ga1 2.604862 1_555
Co1 Ga0 2.604862 1_454
Co2 Fe7 2.440325 1_555
Co2 Fe9 2.440325 1_544
Co2 Fe11 2.457857 1_555
Co2 Fe6 2.457857 1_545
Co2 Fe4 2.464828 1_554
Co2 Fe1 2.464828 1_545
Co2 Fe3 2.476131 1_545
Co2 Fe0 2.476131 1_554
Co2 Ga0 2.604862 1_544
Co2 Ga1 2.604862 1_555
C0 Fe11 1.830910 1_555
C0 Fe6 1.830910 1_555
C0 Fe0 1.933306 1_554
C0 Fe3 1.933306 1_555
C0 Sm0 2.541677 1_554
C0 Sm1 2.541677 1_555
