# generated using pymatgen
data_Er2Mn3Sb3O14
_symmetry_space_group_name_H-M   'P 1'
_cell_length_a   7.15946004
_cell_length_b   7.15946004
_cell_length_c   7.25301773
_cell_angle_alpha   61.29892209
_cell_angle_beta   61.29892209
_cell_angle_gamma   61.50030878
_symmetry_Int_Tables_number   1
_chemical_formula_structural   Er2Mn3Sb3O14
_chemical_formula_sum   'Er2 Mn3 Sb3 O14'
_cell_volume   270.95063343
_cell_formula_units_Z   1
loop_
 _symmetry_equiv_pos_site_id
 _symmetry_equiv_pos_as_xyz
  1  'x, y, z'
loop_
 _atom_site_type_symbol
 _atom_site_label
 _atom_site_symmetry_multiplicity
 _atom_site_fract_x
 _atom_site_fract_y
 _atom_site_fract_z
 _atom_site_occupancy
  Er  Er0  1  0.50000000  0.00000000  0.50000000  1
  Er  Er1  1  0.00000000  0.50000000  0.50000000  1
  Mn  Mn0  1  0.00000000  0.00000000  0.50000000  1
  Mn  Mn1  1  0.00000000  0.00000000  0.00000000  1
  Mn  Mn2  1  0.50000000  0.50000000  0.00000000  1
  Sb  Sb0  1  0.00000000  0.50000000  0.00000000  1
  Sb  Sb1  1  0.50000000  0.00000000  0.00000000  1
  Sb  Sb2  1  0.50000000  0.50000000  0.50000000  1
  O  O0  1  0.87941000  0.87941000  0.37391500  1
  O  O1  1  0.12059000  0.12059000  0.62608500  1
  O  O2  1  0.17040500  0.17040500  0.07350500  1
  O  O3  1  0.59206600  0.59206600  0.64806400  1
  O  O4  1  0.17228200  0.57239800  0.08899100  1
  O  O5  1  0.57920900  0.16941900  0.67320100  1
  O  O6  1  0.57239800  0.17228200  0.08899100  1
  O  O7  1  0.16941900  0.57920900  0.67320100  1
  O  O8  1  0.82959500  0.82959500  0.92649500  1
  O  O9  1  0.40793400  0.40793400  0.35193600  1
  O  O10  1  0.82771800  0.42760200  0.91100900  1
  O  O11  1  0.42079100  0.83058100  0.32679900  1
  O  O12  1  0.42760200  0.82771800  0.91100900  1
  O  O13  1  0.83058100  0.42079100  0.32679900  1
loop_
_geom_bond_atom_site_label_1
_geom_bond_atom_site_label_2
_geom_bond_distance
_geom_bond_site_symmetry_2
Er0 O1 2.257147 1_555
Er0 O0 2.257147 1_545
Er0 O9 2.438821 1_555
Er0 O3 2.438821 1_545
Er0 O11 2.484985 1_545
Er0 O5 2.484985 1_555
Er0 O12 2.504217 1_545
Er0 O6 2.504217 1_555
Er1 O1 2.257147 1_555
Er1 O0 2.257147 1_455
Er1 O3 2.438821 1_455
Er1 O9 2.438821 1_555
Er1 O13 2.484985 1_455
Er1 O7 2.484985 1_555
Er1 O4 2.504217 1_555
Er1 O10 2.504217 1_455
Mn0 O0 2.134265 1_445
Mn0 O1 2.134265 1_555
Mn0 O13 2.542962 1_455
Mn0 O7 2.542962 1_545
Mn0 O11 2.542962 1_545
Mn0 O5 2.542962 1_455
Mn0 O8 2.591646 1_445
Mn0 O2 2.591646 1_555
Mn1 O1 2.249290 1_554
Mn1 O0 2.249290 1_445
Mn1 O2 2.435349 1_555
Mn1 O8 2.435349 1_444
Mn1 O10 2.563864 1_454
Mn1 O12 2.563864 1_544
Mn1 O4 2.563864 1_545
Mn1 O6 2.563864 1_455
Mn2 O10 1.973958 1_554
Mn2 O12 1.973958 1_554
Mn2 O6 1.973958 1_555
Mn2 O4 1.973958 1_555
Mn2 O9 2.137112 1_555
Mn2 O3 2.137112 1_554
O2 Sb0 2.002497 1_555
O2 Sb1 2.002497 1_555
O3 Sb2 1.948490 1_555
O4 Sb0 1.975548 1_555
O5 Sb1 2.003755 1_556
O5 Sb2 2.012220 1_555
O6 Sb1 1.975548 1_555
O7 Sb0 2.003755 1_556
O7 Sb2 2.012220 1_555
O8 Sb1 2.002497 1_566
O8 Sb0 2.002497 1_656
O9 Sb2 1.948490 1_555
O10 Sb0 1.975548 1_656
O11 Sb1 2.003755 1_565
O11 Sb2 2.012220 1_555
O12 Sb1 1.975548 1_566
O13 Sb0 2.003755 1_655
O13 Sb2 2.012220 1_555
