# generated using pymatgen
data_Li7Mn2(CoO4)3
_symmetry_space_group_name_H-M   'P 1'
_cell_length_a   5.02896000
_cell_length_b   5.86285886
_cell_length_c   7.75735093
_cell_angle_alpha   78.54876043
_cell_angle_beta   77.57561228
_cell_angle_gamma   73.09768075
_symmetry_Int_Tables_number   1
_chemical_formula_structural   Li7Mn2(CoO4)3
_chemical_formula_sum   'Li7 Mn2 Co3 O12'
_cell_volume   211.43797301
_cell_formula_units_Z   1
loop_
 _symmetry_equiv_pos_site_id
 _symmetry_equiv_pos_as_xyz
  1  'x, y, z'
loop_
 _atom_site_type_symbol
 _atom_site_label
 _atom_site_symmetry_multiplicity
 _atom_site_fract_x
 _atom_site_fract_y
 _atom_site_fract_z
 _atom_site_occupancy
  Li  Li0  1  0.00295600  0.49756700  0.00158300  1
  Li  Li1  1  0.00744500  0.83026300  0.65864800  1
  Li  Li2  1  0.49014400  0.33887400  0.17411200  1
  Li  Li3  1  0.49676100  0.66363800  0.82794100  1
  Li  Li4  1  0.99423100  0.17429400  0.33656400  1
  Li  Li5  1  0.50876900  0.99693000  0.49912000  1
  Li  Li6  1  0.99835700  0.66563600  0.33597000  1
  Mn  Mn0  1  0.99965600  0.99683700  0.00376300  1
  Mn  Mn1  1  0.50050300  0.82735600  0.17228800  1
  Co  Co0  1  0.99876300  0.33859000  0.66173400  1
  Co  Co1  1  0.50129100  0.16887400  0.82843800  1
  Co  Co2  1  0.50016800  0.50242100  0.49661600  1
  O  O0  1  0.25448500  0.69221700  0.08176300  1
  O  O1  1  0.22131600  0.00800800  0.76571000  1
  O  O2  1  0.71833400  0.51745800  0.25947500  1
  O  O3  1  0.75403500  0.83713300  0.93789600  1
  O  O4  1  0.26444000  0.34634000  0.43102500  1
  O  O5  1  0.74117800  0.19352300  0.57366400  1
  O  O6  1  0.77645300  0.31218300  0.91715000  1
  O  O7  1  0.73730600  0.64433300  0.58038400  1
  O  O8  1  0.24178900  0.14080800  0.08980400  1
  O  O9  1  0.26143900  0.50034000  0.72712200  1
  O  O10  1  0.74588200  0.99151500  0.23069500  1
  O  O11  1  0.28429900  0.81486200  0.40853300  1
loop_
_geom_bond_atom_site_label_1
_geom_bond_atom_site_label_2
_geom_bond_distance
_geom_bond_site_symmetry_2
Li0 O3 2.049623 1_454
Li0 O6 2.057034 1_454
Li0 O8 2.147177 1_555
Li0 O0 2.179231 1_555
Li0 O2 2.197273 1_455
Li0 O9 2.242915 1_554
Li1 O9 2.025463 1_555
Li1 O1 2.076605 1_565
Li1 O11 2.131941 1_555
Li1 O7 2.209355 1_455
Li1 O5 2.219805 1_465
Li1 O3 2.266080 1_455
Li2 O2 2.037783 1_555
Li2 O4 2.072324 1_555
Li2 O10 2.087843 1_545
Li2 O0 2.134878 1_555
Li2 O6 2.197470 1_554
Li2 O8 2.198293 1_555
Li3 O7 2.042331 1_555
Li3 O9 2.069578 1_555
Li3 O0 2.090326 1_556
Li3 O1 2.121947 1_565
Li3 O6 2.206913 1_555
Li3 O3 2.240711 1_555
Li4 O5 2.001709 1_555
Li4 O8 2.057738 1_655
Li4 O2 2.141641 1_555
Li4 O4 2.218081 1_655
Li4 O10 2.225244 1_545
Li4 O11 2.230726 1_645
Li5 O11 2.060921 1_555
Li5 O5 2.089906 1_565
Li5 O4 2.090763 1_565
Li5 O7 2.098692 1_555
Li5 O10 2.166691 1_555
Li5 O1 2.254561 1_565
Li6 O4 2.063620 1_655
Li6 O7 2.064986 1_555
Li6 O10 2.084565 1_555
Li6 O2 2.089399 1_555
Li6 O11 2.103689 1_655
Li6 O0 2.115131 1_655
Mn0 O6 1.937553 1_564
Mn0 O10 1.939921 1_555
Mn0 O1 1.940539 1_664
Mn0 O0 1.942097 1_655
Mn0 O3 1.948743 1_554
Mn0 O8 1.952379 1_665
Mn1 O2 1.905806 1_555
Mn1 O11 1.918773 1_555
Mn1 O10 1.938728 1_555
Mn1 O0 1.953546 1_555
Mn1 O3 1.984575 1_554
Mn1 O8 1.995097 1_565
Co0 O7 1.969168 1_555
Co0 O4 1.991043 1_655
Co0 O9 2.027155 1_655
Co0 O5 2.029853 1_555
Co0 O1 2.041082 1_655
Co0 O6 2.055552 1_555
Co1 O9 2.070662 1_555
Co1 O5 2.084299 1_555
Co1 O1 2.087559 1_555
Co1 O6 2.099945 1_555
Co1 O3 2.119085 1_545
Co1 O8 2.166747 1_556
Co2 O4 1.891246 1_555
Co2 O7 1.913581 1_555
Co2 O11 1.914878 1_555
Co2 O5 1.926556 1_555
Co2 O9 1.927422 1_555
Co2 O2 1.928459 1_555
