# generated using pymatgen
data_Ca(FeO2)2
_symmetry_space_group_name_H-M   'P 1'
_cell_length_a   6.18636300
_cell_length_b   6.22535148
_cell_length_c   6.23294915
_cell_angle_alpha   118.85342993
_cell_angle_beta   117.65436037
_cell_angle_gamma   92.06925827
_symmetry_Int_Tables_number   1
_chemical_formula_structural   Ca(FeO2)2
_chemical_formula_sum   'Ca2 Fe4 O8'
_cell_volume   175.45054111
_cell_formula_units_Z   2
loop_
 _symmetry_equiv_pos_site_id
 _symmetry_equiv_pos_as_xyz
  1  'x, y, z'
loop_
 _atom_site_type_symbol
 _atom_site_label
 _atom_site_symmetry_multiplicity
 _atom_site_fract_x
 _atom_site_fract_y
 _atom_site_fract_z
 _atom_site_occupancy
  Ca  Ca0  1  0.13744000  0.88046500  0.74062600  1
  Ca  Ca1  1  0.86256000  0.11953500  0.25937400  1
  Fe  Fe0  1  0.00000000  0.50000000  0.50000000  1
  Fe  Fe1  1  0.50000000  0.00000000  0.00000000  1
  Fe  Fe2  1  0.50000000  0.50000000  0.50000000  1
  Fe  Fe3  1  0.50000000  0.50000000  0.00000000  1
  O  O0  1  0.72043700  0.68749000  0.54167100  1
  O  O1  1  0.75336000  0.28561600  0.94582200  1
  O  O2  1  0.70469500  0.26440600  0.54632000  1
  O  O3  1  0.71368200  0.76404500  0.98518000  1
  O  O4  1  0.29530500  0.73559400  0.45368000  1
  O  O5  1  0.24664000  0.71438400  0.05417800  1
  O  O6  1  0.28631800  0.23595500  0.01482000  1
  O  O7  1  0.27956300  0.31251000  0.45832900  1
loop_
_geom_bond_atom_site_label_1
_geom_bond_atom_site_label_2
_geom_bond_distance
_geom_bond_site_symmetry_2
Ca0 O6 1.846073 1_566
Ca0 Fe1 1.884271 1_566
Ca0 Fe0 1.955657 1_555
Ca0 O0 2.237138 1_455
Ca0 O4 2.257025 1_555
Ca0 O5 2.473845 1_556
Ca1 O3 1.846073 1_544
Ca1 Fe1 1.884271 1_555
Ca1 Fe0 1.955657 1_655
Ca1 O7 2.237138 1_655
Ca1 O2 2.257025 1_555
Ca1 O1 2.473845 1_554
Fe0 O0 2.165885 1_455
Fe0 O7 2.165885 1_555
Fe0 O4 2.505325 1_555
Fe0 O2 2.505325 1_455
Fe0 O1 2.559655 1_454
Fe0 O5 2.559655 1_556
Fe1 O6 2.009051 1_555
Fe1 O3 2.009051 1_544
Fe1 O4 2.518993 1_544
Fe1 O2 2.518993 1_555
Fe1 O1 2.569391 1_554
Fe1 O5 2.569391 1_545
Fe2 O7 1.597859 1_555
Fe2 O0 1.597859 1_555
Fe2 O4 2.010327 1_555
Fe2 O2 2.010327 1_555
Fe2 O6 2.220180 1_555
Fe2 O3 2.220180 1_555
Fe3 O5 2.135255 1_555
Fe3 O1 2.135255 1_554
Fe3 O6 2.135640 1_555
Fe3 O3 2.135640 1_554
Fe3 O7 2.535476 1_554
Fe3 O0 2.535476 1_555
