# generated using pymatgen
data_Cr3Mo
_symmetry_space_group_name_H-M   'P 1'
_cell_length_a   5.14978221
_cell_length_b   5.14978221
_cell_length_c   16.39638921
_cell_angle_alpha   90.00000000
_cell_angle_beta   90.00000000
_cell_angle_gamma   109.50708518
_symmetry_Int_Tables_number   1
_chemical_formula_structural   Cr3Mo
_chemical_formula_sum   'Cr24 Mo8'
_cell_volume   409.87692977
_cell_formula_units_Z   8
loop_
 _symmetry_equiv_pos_site_id
 _symmetry_equiv_pos_as_xyz
  1  'x, y, z'
loop_
 _atom_site_type_symbol
 _atom_site_label
 _atom_site_symmetry_multiplicity
 _atom_site_fract_x
 _atom_site_fract_y
 _atom_site_fract_z
 _atom_site_occupancy
  Cr  Cr0_0  1  0.25000000  0.25000000  0.13239950  1
  Cr  Cr0_1  1  0.25000000  0.25000000  0.63239950  1
  Cr  Cr0_2  1  0.25000000  0.75000000  0.13239950  1
  Cr  Cr0_3  1  0.25000000  0.75000000  0.63239950  1
  Cr  Cr0_4  1  0.75000000  0.25000000  0.13239950  1
  Cr  Cr0_5  1  0.75000000  0.25000000  0.63239950  1
  Cr  Cr0_6  1  0.75000000  0.75000000  0.13239950  1
  Cr  Cr0_7  1  0.75000000  0.75000000  0.63239950  1
  Cr  Cr1_0  1  0.00000000  0.00000000  0.25000000  1
  Cr  Cr1_1  1  0.00000000  0.00000000  0.75000000  1
  Cr  Cr1_2  1  0.00000000  0.50000000  0.25000000  1
  Cr  Cr1_3  1  0.00000000  0.50000000  0.75000000  1
  Cr  Cr1_4  1  0.50000000  0.00000000  0.25000000  1
  Cr  Cr1_5  1  0.50000000  0.00000000  0.75000000  1
  Cr  Cr1_6  1  0.50000000  0.50000000  0.25000000  1
  Cr  Cr1_7  1  0.50000000  0.50000000  0.75000000  1
  Cr  Cr2_0  1  0.25000000  0.25000000  0.36760050  1
  Cr  Cr2_1  1  0.25000000  0.25000000  0.86760050  1
  Cr  Cr2_2  1  0.25000000  0.75000000  0.36760050  1
  Cr  Cr2_3  1  0.25000000  0.75000000  0.86760050  1
  Cr  Cr2_4  1  0.75000000  0.25000000  0.36760050  1
  Cr  Cr2_5  1  0.75000000  0.25000000  0.86760050  1
  Cr  Cr2_6  1  0.75000000  0.75000000  0.36760050  1
  Cr  Cr2_7  1  0.75000000  0.75000000  0.86760050  1
  Mo  Mo0_0  1  0.00000000  0.00000000  0.00000000  1
  Mo  Mo0_1  1  0.00000000  0.00000000  0.50000000  1
  Mo  Mo0_2  1  0.00000000  0.50000000  0.00000000  1
  Mo  Mo0_3  1  0.00000000  0.50000000  0.50000000  1
  Mo  Mo0_4  1  0.50000000  0.00000000  0.00000000  1
  Mo  Mo0_5  1  0.50000000  0.00000000  0.50000000  1
  Mo  Mo0_6  1  0.50000000  0.50000000  0.00000000  1
  Mo  Mo0_7  1  0.50000000  0.50000000  0.50000000  1
loop_
_geom_bond_atom_site_label_1
_geom_bond_atom_site_label_2
_geom_bond_distance
_geom_bond_site_symmetry_2
Cr0_0 Cr1_0 2.434361 1_555
Cr0_0 Cr1_6 2.434361 1_555
Cr0_0 Mo0_0 2.630733 1_555
Cr0_0 Mo0_6 2.630733 1_555
Cr0_1 Cr1_1 2.434361 1_555
Cr0_1 Cr1_7 2.434361 1_555
Cr0_1 Mo0_1 2.630733 1_555
Cr0_1 Mo0_7 2.630733 1_555
Cr0_2 Cr1_2 2.434361 1_555
Cr0_2 Cr1_4 2.434361 1_565
Cr0_2 Mo0_2 2.630733 1_555
Cr0_2 Mo0_4 2.630733 1_565
Cr0_3 Cr1_3 2.434361 1_555
Cr0_3 Cr1_5 2.434361 1_565
Cr0_3 Mo0_5 2.630733 1_565
Cr0_3 Mo0_3 2.630733 1_555
Cr0_4 Cr1_2 2.434361 1_655
Cr0_4 Cr1_4 2.434361 1_555
Cr0_4 Mo0_4 2.630733 1_555
Cr0_4 Mo0_2 2.630733 1_655
Cr0_5 Cr1_5 2.434361 1_555
Cr0_5 Cr1_3 2.434361 1_655
Cr0_5 Mo0_5 2.630733 1_555
Cr0_5 Mo0_3 2.630733 1_655
Cr0_6 Cr1_0 2.434361 1_665
Cr0_6 Cr1_6 2.434361 1_555
Cr0_6 Mo0_0 2.630733 1_665
Cr0_6 Mo0_6 2.630733 1_555
Cr0_7 Cr1_1 2.434361 1_665
Cr0_7 Cr1_7 2.434361 1_555
Cr0_7 Mo0_1 2.630733 1_665
Cr0_7 Mo0_7 2.630733 1_555
Cr1_0 Cr2_6 2.434361 1_445
Cr1_0 Cr2_0 2.434361 1_555
Cr1_0 Cr1_2 2.574891 1_555
Cr1_0 Cr1_2 2.574891 1_545
Cr1_0 Cr1_4 2.574891 1_455
Cr1_0 Cr1_4 2.574891 1_555
Cr1_1 Cr2_7 2.434361 1_445
Cr1_1 Cr2_1 2.434361 1_555
Cr1_1 Cr1_3 2.574891 1_555
Cr1_1 Cr1_5 2.574891 1_455
Cr1_1 Cr1_3 2.574891 1_545
Cr1_1 Cr1_5 2.574891 1_555
Cr1_2 Cr2_2 2.434361 1_555
Cr1_2 Cr2_4 2.434361 1_455
Cr1_2 Cr1_6 2.574891 1_555
Cr1_2 Cr1_6 2.574891 1_455
Cr1_3 Cr2_5 2.434361 1_455
Cr1_3 Cr2_3 2.434361 1_555
Cr1_3 Cr1_7 2.574891 1_455
Cr1_3 Cr1_7 2.574891 1_555
Cr1_4 Cr2_4 2.434361 1_555
Cr1_4 Cr2_2 2.434361 1_545
Cr1_4 Cr1_6 2.574891 1_555
Cr1_4 Cr1_6 2.574891 1_545
Cr1_5 Cr2_3 2.434361 1_545
Cr1_5 Cr2_5 2.434361 1_555
Cr1_5 Cr1_7 2.574891 1_545
Cr1_5 Cr1_7 2.574891 1_555
Cr1_6 Cr2_0 2.434361 1_555
Cr1_6 Cr2_6 2.434361 1_555
Cr1_7 Cr2_1 2.434361 1_555
Cr1_7 Cr2_7 2.434361 1_555
Cr2_0 Mo0_1 2.630733 1_555
Cr2_0 Mo0_7 2.630733 1_555
Cr2_1 Mo0_0 2.630733 1_556
Cr2_1 Mo0_6 2.630733 1_556
Cr2_2 Mo0_3 2.630733 1_555
Cr2_2 Mo0_5 2.630733 1_565
Cr2_3 Mo0_2 2.630733 1_556
Cr2_3 Mo0_4 2.630733 1_566
Cr2_4 Mo0_3 2.630733 1_655
Cr2_4 Mo0_5 2.630733 1_555
Cr2_5 Mo0_2 2.630733 1_656
Cr2_5 Mo0_4 2.630733 1_556
Cr2_6 Mo0_1 2.630733 1_665
Cr2_6 Mo0_7 2.630733 1_555
Cr2_7 Mo0_0 2.630733 1_666
Cr2_7 Mo0_6 2.630733 1_556
