# generated using pymatgen
data_Ba2MgNb6(NO7)2
_symmetry_space_group_name_H-M   'P 1'
_cell_length_a   9.11890438
_cell_length_b   10.62137597
_cell_length_c   4.00519807
_cell_angle_alpha   79.12236063
_cell_angle_beta   90.00737479
_cell_angle_gamma   91.62501064
_symmetry_Int_Tables_number   1
_chemical_formula_structural   Ba2MgNb6(NO7)2
_chemical_formula_sum   'Ba2 Mg1 Nb6 N2 O14'
_cell_volume   380.79604857
_cell_formula_units_Z   1
loop_
 _symmetry_equiv_pos_site_id
 _symmetry_equiv_pos_as_xyz
  1  'x, y, z'
loop_
 _atom_site_type_symbol
 _atom_site_label
 _atom_site_symmetry_multiplicity
 _atom_site_fract_x
 _atom_site_fract_y
 _atom_site_fract_z
 _atom_site_occupancy
  Ba  Ba0  1  0.24151600  0.94546000  0.02460000  1
  Ba  Ba1  1  0.76120600  0.01470900  0.99006100  1
  Mg  Mg0  1  0.57563300  0.43840300  0.77816900  1
  Nb  Nb0  1  0.05866900  0.26546900  0.36481300  1
  Nb  Nb1  1  0.23470600  0.46557000  0.76474200  1
  Nb  Nb2  1  0.44769800  0.24311200  0.37609900  1
  Nb  Nb3  1  0.55534000  0.73205600  0.63134000  1
  Nb  Nb4  1  0.79007000  0.53543300  0.22970200  1
  Nb  Nb5  1  0.92791100  0.72575800  0.63456900  1
  N  N0  1  0.74546400  0.57350600  0.71065600  1
  N  N1  1  0.92655400  0.40610900  0.29439000  1
  O  O0  1  0.06920000  0.86186400  0.56626600  1
  O  O1  1  0.11313500  0.28406400  0.85550100  1
  O  O2  1  0.09800100  0.58812800  0.70348500  1
  O  O3  1  0.25704800  0.41394000  0.29054300  1
  O  O4  1  0.26513400  0.14606200  0.42448500  1
  O  O5  1  0.41785000  0.56961700  0.71260500  1
  O  O6  1  0.43192400  0.28800700  0.85361700  1
  O  O7  1  0.41851800  0.85786400  0.56829900  1
  O  O8  1  0.57981300  0.11632100  0.43994600  1
  O  O9  1  0.58117300  0.71520500  0.13980900  1
  O  O10  1  0.59948400  0.40212000  0.29631900  1
  O  O11  1  0.74906700  0.84031900  0.57728500  1
  O  O12  1  0.91951500  0.71612200  0.13939200  1
  O  O13  1  0.93149600  0.12530400  0.43500500  1
loop_
_geom_bond_atom_site_label_1
_geom_bond_atom_site_label_2
_geom_bond_distance
_geom_bond_site_symmetry_2
Ba0 O0 2.675598 1_555
Ba0 O0 2.676309 1_554
Ba0 O7 2.744532 1_555
Ba0 O7 2.745642 1_554
Ba0 O4 2.899062 1_564
Ba0 O4 2.900547 1_565
Ba1 O11 2.705366 1_546
Ba1 O11 2.705634 1_545
Ba1 O13 2.765005 1_555
Ba1 O13 2.766402 1_556
Ba1 O8 2.821045 1_555
Ba1 O8 2.825531 1_556
Mg0 O5 2.014188 1_555
Mg0 O6 2.014834 1_555
Mg0 O10 2.050719 1_556
Mg0 O10 2.050833 1_555
Mg0 N0 2.063562 1_555
Nb0 O13 1.839688 1_455
Nb0 O1 2.070939 1_555
Nb0 O1 2.071111 1_554
Nb0 O4 2.287186 1_555
Nb0 O3 2.347143 1_555
Nb1 O2 1.811114 1_555
Nb1 O5 1.965288 1_555
Nb1 O3 2.085079 1_556
Nb1 O3 2.085414 1_555
Nb1 O1 2.166125 1_555
Nb1 O6 2.618526 1_555
Nb2 O8 1.814483 1_555
Nb2 O4 1.923273 1_555
Nb2 O6 2.062549 1_555
Nb2 O6 2.062625 1_554
Nb2 O10 2.129338 1_555
Nb2 O3 2.525096 1_555
Nb3 O7 1.836610 1_555
Nb3 O9 2.024530 1_555
Nb3 O9 2.024755 1_556
Nb3 O11 2.069026 1_555
Nb3 O5 2.078478 1_555
Nb4 O10 2.194204 1_555
Nb4 O12 2.194765 1_555
Nb4 O9 2.711249 1_555
Nb5 O0 1.889408 1_655
Nb5 O12 2.006458 1_555
Nb5 O12 2.006483 1_556
Nb5 O11 2.049396 1_555
Nb5 O2 2.143597 1_655
N0 Nb4 2.083879 1_556
N0 Nb4 2.084037 1_555
N0 Nb5 2.266596 1_555
N0 Nb3 2.430261 1_555
N1 Nb4 1.861571 1_555
N1 Nb0 1.924924 1_655
