# generated using pymatgen
data_Ba6Y(ReO6)3
_symmetry_space_group_name_H-M   'P 1'
_cell_length_a   10.21511865
_cell_length_b   10.21511865
_cell_length_c   10.08707460
_cell_angle_alpha   80.28440676
_cell_angle_beta   80.28440676
_cell_angle_gamma   119.99499127
_symmetry_Int_Tables_number   1
_chemical_formula_structural   Ba6Y(ReO6)3
_chemical_formula_sum   'Ba12 Y2 Re6 O36'
_cell_volume   858.11629634
_cell_formula_units_Z   2
loop_
 _symmetry_equiv_pos_site_id
 _symmetry_equiv_pos_as_xyz
  1  'x, y, z'
loop_
 _atom_site_type_symbol
 _atom_site_label
 _atom_site_symmetry_multiplicity
 _atom_site_fract_x
 _atom_site_fract_y
 _atom_site_fract_z
 _atom_site_occupancy
  Ba  Ba0  1  0.63450600  0.95866600  0.12406100  1
  Ba  Ba1  1  0.28276000  0.28276000  0.12438300  1
  Ba  Ba2  1  0.95866600  0.63450600  0.12406100  1
  Ba  Ba3  1  0.36549400  0.04133400  0.87593900  1
  Ba  Ba4  1  0.04133400  0.36549400  0.87593900  1
  Ba  Ba5  1  0.71724000  0.71724000  0.87561700  1
  Ba  Ba6  1  0.46343200  0.79742100  0.60758100  1
  Ba  Ba7  1  0.12901700  0.12901700  0.61477100  1
  Ba  Ba8  1  0.79742100  0.46343200  0.60758100  1
  Ba  Ba9  1  0.53656800  0.20257900  0.39241900  1
  Ba  Ba10  1  0.20257900  0.53656800  0.39241900  1
  Ba  Ba11  1  0.87098300  0.87098300  0.38522900  1
  Y  Y0  1  0.66673700  0.33326300  0.00000000  1
  Y  Y1  1  0.33326300  0.66673700  0.00000000  1
  Re  Re0  1  0.41891300  0.41891300  0.73205500  1
  Re  Re1  1  0.08907600  0.75985700  0.73197200  1
  Re  Re2  1  0.75985700  0.08907600  0.73197200  1
  Re  Re3  1  0.58108700  0.58108700  0.26794500  1
  Re  Re4  1  0.24014300  0.91092400  0.26802800  1
  Re  Re5  1  0.91092400  0.24014300  0.26802800  1
  O  O0  1  0.45698200  0.30028400  0.63132200  1
  O  O1  1  0.12097300  0.63171300  0.63750700  1
  O  O2  1  0.78898100  0.96650900  0.63051200  1
  O  O3  1  0.61013300  0.61013300  0.63673100  1
  O  O4  1  0.27970300  0.94524200  0.63135700  1
  O  O5  1  0.94524200  0.27970300  0.63135700  1
  O  O6  1  0.30028400  0.45698200  0.63132200  1
  O  O7  1  0.96650900  0.78898100  0.63051200  1
  O  O8  1  0.63171300  0.12097300  0.63750700  1
  O  O9  1  0.54301800  0.69971600  0.36867800  1
  O  O10  1  0.21101900  0.03349100  0.36948800  1
  O  O11  1  0.87902700  0.36828700  0.36249300  1
  O  O12  1  0.38986700  0.38986700  0.36326900  1
  O  O13  1  0.05475800  0.72029700  0.36864300  1
  O  O14  1  0.72029700  0.05475800  0.36864300  1
  O  O15  1  0.69971600  0.54301800  0.36867800  1
  O  O16  1  0.36828700  0.87902700  0.36249300  1
  O  O17  1  0.03349100  0.21101900  0.36948800  1
  O  O18  1  0.62011700  0.46547400  0.13764700  1
  O  O19  1  0.28799200  0.79937600  0.13756300  1
  O  O20  1  0.95322300  0.14201600  0.14078200  1
  O  O21  1  0.76422100  0.76422100  0.14075000  1
  O  O22  1  0.44258400  0.10885500  0.13768200  1
  O  O23  1  0.10885500  0.44258400  0.13768200  1
  O  O24  1  0.46547400  0.62011700  0.13764700  1
  O  O25  1  0.14201600  0.95322300  0.14078200  1
  O  O26  1  0.79937600  0.28799200  0.13756300  1
  O  O27  1  0.37988300  0.53452600  0.86235300  1
  O  O28  1  0.04677700  0.85798400  0.85921800  1
  O  O29  1  0.71200800  0.20062400  0.86243700  1
  O  O30  1  0.23577900  0.23577900  0.85925000  1
  O  O31  1  0.89114500  0.55741600  0.86231800  1
  O  O32  1  0.55741600  0.89114500  0.86231800  1
  O  O33  1  0.53452600  0.37988300  0.86235300  1
  O  O34  1  0.20062400  0.71200800  0.86243700  1
  O  O35  1  0.85798400  0.04677700  0.85921800  1
loop_
_geom_bond_atom_site_label_1
_geom_bond_atom_site_label_2
_geom_bond_distance
_geom_bond_site_symmetry_2
Ba0 O35 2.869505 1_564
Ba0 O21 2.885025 1_555
Ba0 O20 2.886388 1_565
Ba0 O14 2.916368 1_565
Ba0 O9 2.916493 1_555
Ba0 O26 2.956242 1_565
Ba0 O24 2.958012 1_555
Ba0 O16 2.960031 1_555
Ba0 O29 2.972712 1_564
Ba0 O32 2.973202 1_554
Ba0 O19 3.033031 1_555
Ba0 O22 3.033778 1_565
Ba1 O30 2.872152 1_554
Ba1 O25 2.884249 1_545
Ba1 O20 2.884249 1_455
Ba1 O17 2.920851 1_555
Ba1 O10 2.920851 1_555
Ba1 O22 2.955096 1_555
Ba1 O23 2.955096 1_555
Ba1 O12 2.963680 1_555
Ba1 O33 2.975582 1_554
Ba1 O27 2.975582 1_554
Ba1 O18 3.030884 1_555
Ba1 O24 3.030884 1_555
Ba2 O28 2.869505 1_654
Ba2 O21 2.885025 1_555
Ba2 O25 2.886388 1_655
Ba2 O13 2.916368 1_655
Ba2 O15 2.916493 1_555
Ba2 O19 2.956242 1_655
Ba2 O18 2.958012 1_555
Ba2 O11 2.960031 1_555
Ba2 O34 2.972712 1_654
Ba2 O31 2.973202 1_554
Ba2 O26 3.033031 1_555
Ba2 O23 3.033778 1_655
Ba3 O25 2.869505 1_546
Ba3 O30 2.885025 1_555
Ba3 O28 2.886388 1_545
Ba3 O4 2.916368 1_545
Ba3 O0 2.916493 1_555
Ba3 O34 2.956242 1_545
Ba3 O33 2.958012 1_555
Ba3 O8 2.960031 1_555
Ba3 O19 2.972712 1_546
Ba3 O22 2.973202 1_556
Ba3 O29 3.033031 1_555
Ba3 O32 3.033778 1_545
Ba4 O20 2.869505 1_456
Ba4 O30 2.885025 1_555
Ba4 O35 2.886388 1_455
Ba4 O5 2.916368 1_455
Ba4 O6 2.916493 1_555
Ba4 O29 2.956242 1_455
Ba4 O27 2.958012 1_555
Ba4 O1 2.960031 1_555
Ba4 O26 2.972712 1_456
Ba4 O23 2.973202 1_556
Ba4 O34 3.033031 1_555
Ba4 O31 3.033778 1_455
Ba5 O21 2.872152 1_556
Ba5 O28 2.884249 1_655
Ba5 O35 2.884249 1_565
Ba5 O7 2.920851 1_555
Ba5 O2 2.920851 1_555
Ba5 O32 2.955096 1_555
Ba5 O31 2.955096 1_555
Ba5 O3 2.963680 1_555
Ba5 O18 2.975582 1_556
Ba5 O24 2.975582 1_556
Ba5 O27 3.030884 1_555
Ba5 O33 3.030884 1_555
Ba6 O9 2.902791 1_555
Ba6 O14 2.904258 1_565
Ba6 O4 2.943461 1_555
Ba6 O16 2.945657 1_555
Ba6 O6 2.952636 1_555
Ba6 O1 2.957141 1_555
Ba6 O2 2.957587 1_555
Ba6 O8 2.966674 1_565
Ba6 O3 2.969481 1_555
Ba6 O34 3.024699 1_555
Ba6 O27 3.030424 1_555
Ba6 O32 3.030650 1_555
Ba7 O17 2.950953 1_555
Ba7 O10 2.950953 1_555
Ba7 O6 2.956272 1_555
Ba7 O0 2.956272 1_555
Ba7 O5 2.965077 1_455
Ba7 O4 2.965077 1_545
Ba7 O7 2.967457 1_445
Ba7 O2 2.967457 1_445
Ba7 O12 2.995673 1_555
Ba7 O30 3.014395 1_555
Ba7 O35 3.020297 1_455
Ba7 O28 3.020297 1_545
Ba8 O15 2.902791 1_555
Ba8 O13 2.904258 1_655
Ba8 O5 2.943461 1_555
Ba8 O11 2.945657 1_555
Ba8 O0 2.952636 1_555
Ba8 O8 2.957141 1_555
Ba8 O7 2.957587 1_555
Ba8 O1 2.966674 1_655
Ba8 O3 2.969481 1_555
Ba8 O29 3.024699 1_555
Ba8 O33 3.030424 1_555
Ba8 O31 3.030650 1_555
Ba9 O0 2.902791 1_555
Ba9 O4 2.904258 1_545
Ba9 O14 2.943461 1_555
Ba9 O8 2.945657 1_555
Ba9 O15 2.952636 1_555
Ba9 O11 2.957141 1_555
Ba9 O10 2.957587 1_555
Ba9 O16 2.966674 1_545
Ba9 O12 2.969481 1_555
Ba9 O26 3.024699 1_555
Ba9 O18 3.030424 1_555
Ba9 O22 3.030650 1_555
Ba10 O6 2.902791 1_555
Ba10 O5 2.904258 1_455
Ba10 O13 2.943461 1_555
Ba10 O1 2.945657 1_555
Ba10 O9 2.952636 1_555
Ba10 O16 2.957141 1_555
Ba10 O17 2.957587 1_555
Ba10 O11 2.966674 1_455
Ba10 O12 2.969481 1_555
Ba10 O19 3.024699 1_555
Ba10 O24 3.030424 1_555
Ba10 O23 3.030650 1_555
Ba11 O2 2.950953 1_555
Ba11 O7 2.950953 1_555
Ba11 O15 2.956272 1_555
Ba11 O9 2.956272 1_555
Ba11 O14 2.965077 1_565
Ba11 O13 2.965077 1_655
Ba11 O10 2.967457 1_665
Ba11 O17 2.967457 1_665
Ba11 O3 2.995673 1_555
Ba11 O21 3.014395 1_555
Ba11 O20 3.020297 1_565
Ba11 O25 3.020297 1_655
O0 Re0 1.845419 1_555
O1 Re1 1.862870 1_555
O2 Re2 1.845446 1_565
O3 Re0 1.863547 1_555
O4 Re1 1.845361 1_555
O5 Re2 1.845361 1_555
O6 Re0 1.845419 1_555
O7 Re1 1.845446 1_655
O8 Re2 1.862870 1_555
O9 Re3 1.845419 1_555
O10 Re4 1.845446 1_545
O11 Re5 1.862870 1_555
O12 Re3 1.863547 1_555
O13 Re4 1.845361 1_555
O14 Re5 1.845361 1_555
O15 Re3 1.845419 1_555
O16 Re4 1.862870 1_555
O17 Re5 1.845446 1_455
O18 Re3 2.024598 1_555
O18 Y0 2.243077 1_555
O19 Re4 2.028569 1_555
O19 Y1 2.240446 1_555
O20 Re5 1.875913 1_555
O21 Re3 1.877798 1_555
O22 Re4 2.024282 1_545
O22 Y0 2.242916 1_555
O23 Re5 2.024282 1_455
O23 Y1 2.242916 1_555
O24 Re3 2.024598 1_555
O24 Y1 2.243077 1_555
O25 Re4 1.875913 1_555
O26 Re5 2.028569 1_555
O26 Y0 2.240446 1_555
O27 Re0 2.024598 1_555
O27 Y1 2.243077 1_556
O28 Re1 1.875913 1_555
O29 Re2 2.028569 1_555
O29 Y0 2.240446 1_556
O30 Re0 1.877798 1_555
O31 Re1 2.024282 1_655
O31 Y0 2.242916 1_556
O32 Re2 2.024282 1_565
O32 Y1 2.242916 1_556
O33 Re0 2.024598 1_555
O33 Y0 2.243077 1_556
O34 Re1 2.028569 1_555
O34 Y1 2.240446 1_556
O35 Re2 1.875913 1_555
