# generated using pymatgen
data_CaCrP2O7
_symmetry_space_group_name_H-M   'P 1'
_cell_length_a   9.03721500
_cell_length_b   7.45725700
_cell_length_c   9.30114792
_cell_angle_alpha   62.82564003
_cell_angle_beta   90.00000000
_cell_angle_gamma   90.00000000
_symmetry_Int_Tables_number   1
_chemical_formula_structural   CaCrP2O7
_chemical_formula_sum   'Ca4 Cr4 P8 O28'
_cell_volume   557.64167475
_cell_formula_units_Z   4
loop_
 _symmetry_equiv_pos_site_id
 _symmetry_equiv_pos_as_xyz
  1  'x, y, z'
loop_
 _atom_site_type_symbol
 _atom_site_label
 _atom_site_symmetry_multiplicity
 _atom_site_fract_x
 _atom_site_fract_y
 _atom_site_fract_z
 _atom_site_occupancy
  Ca  Ca0  1  0.95404800  0.27658600  0.86256400  1
  Ca  Ca1  1  0.45404800  0.72341400  0.63743600  1
  Ca  Ca2  1  0.54595200  0.27658600  0.36256400  1
  Ca  Ca3  1  0.04595200  0.72341400  0.13743600  1
  Cr  Cr0  1  0.07654500  0.77616800  0.60456700  1
  Cr  Cr1  1  0.92345500  0.22383200  0.39543300  1
  Cr  Cr2  1  0.57654500  0.22383200  0.89543300  1
  Cr  Cr3  1  0.42345500  0.77616800  0.10456700  1
  P  P0  1  0.72113100  0.93884200  0.24007200  1
  P  P1  1  0.23966000  0.48267300  0.96329400  1
  P  P2  1  0.77886900  0.93884200  0.74007200  1
  P  P3  1  0.26034000  0.48267300  0.46329400  1
  P  P4  1  0.22113100  0.06115800  0.25992800  1
  P  P5  1  0.73966000  0.51732700  0.53670600  1
  P  P6  1  0.76034000  0.51732700  0.03670600  1
  P  P7  1  0.27886900  0.06115800  0.75992800  1
  O  O0  1  0.17848100  0.26838800  0.10117000  1
  O  O1  1  0.63458800  0.91588000  0.66630500  1
  O  O2  1  0.86541200  0.91588000  0.16630500  1
  O  O3  1  0.38316600  0.45390000  0.89127100  1
  O  O4  1  0.82151900  0.73161200  0.89883000  1
  O  O5  1  0.08634300  0.03063300  0.37340400  1
  O  O6  1  0.61683400  0.54610000  0.10872900  1
  O  O7  1  0.10543200  0.54211200  0.84748600  1
  O  O8  1  0.24347900  0.61945300  0.54625500  1
  O  O9  1  0.91365700  0.96936700  0.62659600  1
  O  O10  1  0.41365700  0.03063300  0.87340400  1
  O  O11  1  0.77738600  0.09671000  0.80104300  1
  O  O12  1  0.27738600  0.90329000  0.69895700  1
  O  O13  1  0.32151900  0.26838800  0.60117000  1
  O  O14  1  0.58634300  0.96936700  0.12659600  1
  O  O15  1  0.13458800  0.08412000  0.83369500  1
  O  O16  1  0.22261400  0.90329000  0.19895700  1
  O  O17  1  0.89456800  0.45788800  0.15251400  1
  O  O18  1  0.25652100  0.61945300  0.04625500  1
  O  O19  1  0.74347900  0.38054700  0.95374500  1
  O  O20  1  0.88316600  0.54610000  0.60872900  1
  O  O21  1  0.39456800  0.54211200  0.34748600  1
  O  O22  1  0.60543200  0.45788800  0.65251400  1
  O  O23  1  0.36541200  0.08412000  0.33369500  1
  O  O24  1  0.72261400  0.09671000  0.30104300  1
  O  O25  1  0.11683400  0.45390000  0.39127100  1
  O  O26  1  0.75652100  0.38054700  0.45374500  1
  O  O27  1  0.67848100  0.73161200  0.39883000  1
loop_
_geom_bond_atom_site_label_1
_geom_bond_atom_site_label_2
_geom_bond_distance
_geom_bond_site_symmetry_2
Ca0 O15 2.268515 1_655
Ca0 O11 2.318780 1_555
Ca0 O19 2.354164 1_555
Ca0 O7 2.357641 1_655
Ca0 O20 2.385307 1_555
Ca1 O1 2.268515 1_555
Ca1 O12 2.318780 1_555
Ca1 O8 2.354164 1_555
Ca1 O22 2.357641 1_555
Ca1 O3 2.385307 1_555
Ca2 O23 2.268515 1_555
Ca2 O24 2.318780 1_555
Ca2 O26 2.354164 1_555
Ca2 O21 2.357641 1_555
Ca2 O6 2.385307 1_555
Ca3 O2 2.268515 1_455
Ca3 O16 2.318780 1_555
Ca3 O18 2.354164 1_555
Ca3 O17 2.357641 1_455
Ca3 O25 2.385307 1_555
Cr0 O5 2.122482 1_565
Cr0 O8 2.124812 1_555
Cr0 O9 2.134075 1_455
Cr0 O7 2.148840 1_555
Cr0 O12 2.392491 1_555
Cr0 O20 2.436906 1_455
Cr1 O9 2.122482 1_545
Cr1 O26 2.124812 1_555
Cr1 O5 2.134075 1_655
Cr1 O17 2.148840 1_555
Cr1 O24 2.392491 1_555
Cr1 O25 2.436906 1_655
Cr2 O14 2.122482 1_546
Cr2 O19 2.124812 1_555
Cr2 O10 2.134075 1_555
Cr2 O22 2.148840 1_555
Cr2 O11 2.392491 1_555
Cr2 O3 2.436906 1_555
Cr3 O10 2.122482 1_564
Cr3 O18 2.124812 1_555
Cr3 O14 2.134075 1_555
Cr3 O21 2.148840 1_555
Cr3 O16 2.392491 1_555
Cr3 O6 2.436906 1_555
O0 P1 1.622342 1_554
O0 P4 1.622603 1_555
O1 P2 1.519059 1_555
O2 P0 1.519059 1_555
O3 P1 1.519219 1_555
O4 P6 1.622342 1_556
O4 P2 1.622603 1_555
O5 P4 1.558892 1_555
O6 P6 1.519219 1_555
O7 P1 1.546642 1_555
O8 P3 1.542060 1_555
O9 P2 1.558892 1_555
O10 P7 1.558892 1_555
O11 P2 1.522346 1_545
O12 P7 1.522346 1_565
O13 P3 1.622342 1_555
O13 P7 1.622603 1_555
O14 P0 1.558892 1_555
O15 P7 1.519059 1_555
O16 P4 1.522346 1_565
O17 P6 1.546642 1_555
O18 P1 1.542060 1_554
O19 P6 1.542060 1_556
O20 P5 1.519219 1_555
O21 P3 1.546642 1_555
O22 P5 1.546642 1_555
O23 P4 1.519059 1_555
O24 P0 1.522346 1_545
O25 P3 1.519219 1_555
O26 P5 1.542060 1_555
O27 P5 1.622342 1_555
O27 P0 1.622603 1_555
