# generated using pymatgen
data_Pu2Zn17
_symmetry_space_group_name_H-M   'P 1'
_cell_length_a   6.73338651
_cell_length_b   6.73057004
_cell_length_c   6.73773181
_cell_angle_alpha   82.71205549
_cell_angle_beta   82.65577715
_cell_angle_gamma   82.77235322
_symmetry_Int_Tables_number   1
_chemical_formula_structural   Pu2Zn17
_chemical_formula_sum   'Pu2 Zn17'
_cell_volume   298.52924332
_cell_formula_units_Z   1
loop_
 _symmetry_equiv_pos_site_id
 _symmetry_equiv_pos_as_xyz
  1  'x, y, z'
loop_
 _atom_site_type_symbol
 _atom_site_label
 _atom_site_symmetry_multiplicity
 _atom_site_fract_x
 _atom_site_fract_y
 _atom_site_fract_z
 _atom_site_occupancy
  Pu  Pu0  1  0.66341992  0.66375129  0.66320780  1
  Pu  Pu1  1  0.33658008  0.33624871  0.33679220  1
  Zn  Zn0  1  0.00000000  0.00000000  0.50000000  1
  Zn  Zn1  1  0.00000000  0.50000000  -0.00000000  1
  Zn  Zn2  1  0.50000000  0.00000000  -0.00000000  1
  Zn  Zn3  1  0.29410717  0.70571977  -0.00027955  1
  Zn  Zn4  1  0.70674284  0.99967520  0.29341420  1
  Zn  Zn5  1  0.00026834  0.29402665  0.70573816  1
  Zn  Zn6  1  0.29325716  0.00032480  0.70658580  1
  Zn  Zn7  1  0.99973166  0.70597335  0.29426184  1
  Zn  Zn8  1  0.70589283  0.29428023  0.00027955  1
  Zn  Zn9  1  0.35014446  0.35012591  0.84025483  1
  Zn  Zn10  1  0.35004022  0.84025572  0.35007622  1
  Zn  Zn11  1  0.84011316  0.35009498  0.35006589  1
  Zn  Zn12  1  0.64985554  0.64987409  0.15974517  1
  Zn  Zn13  1  0.64995978  0.15974428  0.64992378  1
  Zn  Zn14  1  0.15988684  0.64990502  0.64993411  1
  Zn  Zn15  1  0.90040346  0.90063083  0.90030150  1
  Zn  Zn16  1  0.09959654  0.09936917  0.09969850  1
loop_
_geom_bond_atom_site_label_1
_geom_bond_atom_site_label_2
_geom_bond_distance
_geom_bond_site_symmetry_2
Pu0 Zn15 3.094854 1_555
Pu0 Zn7 3.151477 1_555
Pu0 Zn3 3.154150 1_556
Pu0 Zn4 3.155289 1_555
Pu0 Zn8 3.158771 1_556
Pu0 Zn5 3.159747 1_655
Pu0 Zn6 3.160770 1_565
Pu0 Zn9 3.188513 1_555
Pu0 Zn11 3.190614 1_555
Pu0 Zn10 3.191644 1_555
Pu0 Zn13 3.318239 1_565
Pu0 Zn14 3.322496 1_655
Pu0 Zn12 3.324819 1_556
Pu0 Zn0 3.389589 1_665
Pu0 Zn2 3.394103 1_566
Pu0 Zn1 3.398829 1_656
Pu0 Zn14 3.416314 1_555
Pu0 Zn13 3.417614 1_555
Pu0 Zn12 3.418450 1_555
Pu1 Zn16 3.094854 1_555
Pu1 Zn5 3.151477 1_555
Pu1 Zn8 3.154150 1_555
Pu1 Zn6 3.155289 1_555
Pu1 Zn3 3.158771 1_555
Pu1 Zn7 3.159747 1_455
Pu1 Zn4 3.160770 1_545
Pu1 Zn12 3.188513 1_555
Pu1 Zn14 3.190614 1_555
Pu1 Zn13 3.191644 1_555
Pu1 Zn10 3.318239 1_545
Pu1 Zn11 3.322496 1_455
Pu1 Zn9 3.324819 1_554
Pu1 Zn0 3.389589 1_555
Pu1 Zn2 3.394103 1_555
Pu1 Zn1 3.398829 1_555
Pu1 Zn11 3.416314 1_555
Pu1 Zn10 3.417614 1_555
Pu1 Zn9 3.418450 1_555
Zn0 Zn7 2.556448 1_445
Zn0 Zn5 2.556448 1_555
Zn0 Zn6 2.557555 1_555
Zn0 Zn4 2.557555 1_445
Zn0 Zn10 2.600161 1_545
Zn0 Zn13 2.600161 1_455
Zn0 Zn14 2.601478 1_545
Zn0 Zn11 2.601478 1_455
Zn0 Zn16 2.713723 1_555
Zn0 Zn15 2.713723 1_445
Zn1 Zn8 2.554843 1_455
Zn1 Zn3 2.554843 1_555
Zn1 Zn5 2.559026 1_554
Zn1 Zn7 2.559026 1_455
Zn1 Zn11 2.600112 1_455
Zn1 Zn14 2.600112 1_554
Zn1 Zn12 2.600546 1_455
Zn1 Zn9 2.600546 1_554
Zn1 Zn16 2.715242 1_555
Zn1 Zn15 2.715242 1_454
Zn2 Zn8 2.556875 1_555
Zn2 Zn3 2.556875 1_545
Zn2 Zn4 2.558894 1_545
Zn2 Zn6 2.558894 1_554
Zn2 Zn9 2.601106 1_554
Zn3 Zn6 2.615161 1_564
Zn3 Zn7 2.619472 1_455
Zn3 Zn9 2.710433 1_554
Zn4 Zn7 2.611206 1_555
Zn4 Zn8 2.615161 1_565
Zn5 Zn6 2.611206 1_555
Zn5 Zn8 2.619472 1_456
Zn5 Zn9 2.714882 1_555
Zn6 Zn9 2.711817 1_555
Zn8 Zn9 2.715258 1_554
Zn10 Zn14 2.541125 1_555
Zn10 Zn12 2.542843 1_555
Zn10 Zn2 2.599994 1_565
Zn10 Zn7 2.715045 1_455
Zn10 Zn4 2.715856 1_555
Zn10 Zn3 2.718391 1_555
Zn10 Zn6 2.719362 1_565
Zn10 Zn16 2.823464 1_565
Zn11 Zn13 2.541125 1_555
Zn11 Zn12 2.543567 1_555
Zn11 Zn7 2.711045 1_555
Zn11 Zn4 2.713631 1_545
Zn11 Zn8 2.714194 1_555
Zn11 Zn5 2.716069 1_655
Zn11 Zn16 2.823639 1_655
Zn12 Zn2 2.601106 1_565
Zn12 Zn8 2.710433 1_555
Zn12 Zn4 2.711817 1_555
Zn12 Zn7 2.714882 1_555
Zn12 Zn3 2.715258 1_555
Zn12 Zn15 2.822097 1_554
Zn13 Zn9 2.542843 1_555
Zn13 Zn2 2.599994 1_556
Zn13 Zn5 2.715045 1_655
Zn13 Zn6 2.715856 1_555
Zn13 Zn8 2.718391 1_556
Zn13 Zn4 2.719362 1_545
Zn13 Zn15 2.823464 1_545
Zn14 Zn9 2.543567 1_555
Zn14 Zn5 2.711045 1_555
Zn14 Zn6 2.713631 1_565
Zn14 Zn3 2.714194 1_556
Zn14 Zn7 2.716069 1_455
Zn14 Zn15 2.823639 1_455
Zn15 Zn16 2.600226 1_666
Zn15 Zn2 2.713779 1_566
Zn15 Zn6 2.914241 1_665
Zn15 Zn4 2.916601 1_556
Zn15 Zn5 2.919485 1_665
Zn15 Zn8 2.922841 1_566
Zn15 Zn3 2.924594 1_656
Zn15 Zn7 2.925870 1_556
Zn16 Zn2 2.713779 1_555
Zn16 Zn9 2.822097 1_554
Zn16 Zn4 2.914241 1_445
Zn16 Zn6 2.916601 1_554
Zn16 Zn7 2.919485 1_445
Zn16 Zn3 2.922841 1_545
Zn16 Zn8 2.924594 1_455
Zn16 Zn5 2.925870 1_554
