# generated using pymatgen
data_Y6MnBi2
_symmetry_space_group_name_H-M   'P 1'
_cell_length_a   8.28355723
_cell_length_b   8.28350375
_cell_length_c   4.44333797
_cell_angle_alpha   90.00000000
_cell_angle_beta   90.00000000
_cell_angle_gamma   120.00005725
_symmetry_Int_Tables_number   1
_chemical_formula_structural   Y6MnBi2
_chemical_formula_sum   'Y6 Mn1 Bi2'
_cell_volume   264.04058063
_cell_formula_units_Z   1
loop_
 _symmetry_equiv_pos_site_id
 _symmetry_equiv_pos_as_xyz
  1  'x, y, z'
loop_
 _atom_site_type_symbol
 _atom_site_label
 _atom_site_symmetry_multiplicity
 _atom_site_fract_x
 _atom_site_fract_y
 _atom_site_fract_z
 _atom_site_occupancy
  Y  Y0  1  0.23816929  -0.00000219  0.50000000  1
  Y  Y1  1  0.00000870  0.23818236  0.50000000  1
  Y  Y2  1  0.76183019  0.76181954  0.50000000  1
  Y  Y3  1  0.59867542  -0.00000069  0.00000000  1
  Y  Y4  1  0.00000326  0.59867678  0.00000000  1
  Y  Y5  1  0.40132772  0.40132346  -0.00000000  1
  Mn  Mn0  1  0.99998488  -0.00000037  -0.00000000  1
  Bi  Bi0  1  0.33333530  0.66666765  0.50000000  1
  Bi  Bi1  1  0.66666526  0.33333246  0.50000000  1
loop_
_geom_bond_atom_site_label_1
_geom_bond_atom_site_label_2
_geom_bond_distance
_geom_bond_site_symmetry_2
Mn0 Y2 2.971197 1_545
Mn0 Y2 2.971197 1_544
Mn0 Y1 2.971212 1_655
Mn0 Y1 2.971212 1_654
Mn0 Y0 2.971301 1_654
Mn0 Y0 2.971301 1_655
Mn0 Y3 3.324269 1_555
Mn0 Y4 3.324435 1_645
Mn0 Y5 3.324454 1_655
Bi0 Y1 3.228240 1_555
Bi0 Y0 3.228310 1_565
Bi0 Y2 3.228353 1_555
Bi0 Y3 3.364803 1_566
Bi0 Y3 3.364803 1_565
Bi0 Y4 3.364817 1_556
Bi0 Y4 3.364817 1_555
Bi0 Y5 3.364831 1_556
Bi0 Y5 3.364831 1_555
Bi1 Y2 3.228233 1_555
Bi1 Y0 3.228329 1_555
Bi1 Y1 3.228343 1_655
Bi1 Y5 3.364794 1_556
Bi1 Y5 3.364794 1_555
Bi1 Y3 3.364812 1_556
Bi1 Y3 3.364812 1_555
Bi1 Y4 3.364842 1_656
Bi1 Y4 3.364842 1_655
