# generated using pymatgen
data_Ga
_symmetry_space_group_name_H-M   'P 1'
_cell_length_a   6.07244020
_cell_length_b   6.07244020
_cell_length_c   15.83332200
_cell_angle_alpha   90.00000000
_cell_angle_beta   90.00000000
_cell_angle_gamma   99.98230382
_symmetry_Int_Tables_number   1
_chemical_formula_structural   Ga
_chemical_formula_sum   Ga32
_cell_volume   575.00765578
_cell_formula_units_Z   32
loop_
 _symmetry_equiv_pos_site_id
 _symmetry_equiv_pos_as_xyz
  1  'x, y, z'
loop_
 _atom_site_type_symbol
 _atom_site_label
 _atom_site_symmetry_multiplicity
 _atom_site_fract_x
 _atom_site_fract_y
 _atom_site_fract_z
 _atom_site_occupancy
  Ga  Ga0_0  1  0.11006104  0.38993897  0.06285412  1
  Ga  Ga0_1  1  0.11006104  0.38993897  0.56285412  1
  Ga  Ga0_2  1  0.11006104  0.88993897  0.06285412  1
  Ga  Ga0_3  1  0.11006104  0.88993897  0.56285412  1
  Ga  Ga0_4  1  0.61006104  0.38993897  0.06285412  1
  Ga  Ga0_5  1  0.61006104  0.38993897  0.56285412  1
  Ga  Ga0_6  1  0.61006104  0.88993897  0.06285412  1
  Ga  Ga0_7  1  0.61006104  0.88993897  0.56285412  1
  Ga  Ga1_0  1  0.38993897  0.11006103  0.43714588  1
  Ga  Ga1_1  1  0.38993897  0.11006103  0.93714588  1
  Ga  Ga1_2  1  0.38993897  0.61006103  0.43714588  1
  Ga  Ga1_3  1  0.38993897  0.61006103  0.93714588  1
  Ga  Ga1_4  1  0.88993897  0.11006104  0.43714588  1
  Ga  Ga1_5  1  0.88993897  0.11006104  0.93714588  1
  Ga  Ga1_6  1  0.88993897  0.61006104  0.43714588  1
  Ga  Ga1_7  1  0.88993897  0.61006104  0.93714588  1
  Ga  Ga2_0  1  0.13993897  0.36006104  0.31285412  1
  Ga  Ga2_1  1  0.13993897  0.36006104  0.81285412  1
  Ga  Ga2_2  1  0.13993897  0.86006104  0.31285412  1
  Ga  Ga2_3  1  0.13993897  0.86006104  0.81285412  1
  Ga  Ga2_4  1  0.63993897  0.36006104  0.31285412  1
  Ga  Ga2_5  1  0.63993897  0.36006104  0.81285412  1
  Ga  Ga2_6  1  0.63993897  0.86006104  0.31285412  1
  Ga  Ga2_7  1  0.63993897  0.86006104  0.81285412  1
  Ga  Ga3_0  1  0.36006104  0.13993896  0.18714588  1
  Ga  Ga3_1  1  0.36006104  0.13993896  0.68714588  1
  Ga  Ga3_2  1  0.36006104  0.63993897  0.18714588  1
  Ga  Ga3_3  1  0.36006104  0.63993897  0.68714588  1
  Ga  Ga3_4  1  0.86006103  0.13993896  0.18714588  1
  Ga  Ga3_5  1  0.86006103  0.13993896  0.68714588  1
  Ga  Ga3_6  1  0.86006104  0.63993897  0.18714588  1
  Ga  Ga3_7  1  0.86006104  0.63993897  0.68714588  1
loop_
_geom_bond_atom_site_label_1
_geom_bond_atom_site_label_2
_geom_bond_distance
_geom_bond_site_symmetry_2
Ga0_0 Ga3_2 2.771850 1_555
Ga0_0 Ga3_4 2.771850 1_455
Ga0_0 Ga1_3 2.801638 1_554
Ga0_0 Ga1_5 2.801638 1_454
Ga0_0 Ga1_7 2.855601 1_454
Ga0_0 Ga0_4 3.036220 1_555
Ga0_0 Ga0_2 3.036220 1_545
Ga0_0 Ga0_2 3.036220 1_555
Ga0_0 Ga0_4 3.036220 1_455
Ga0_0 Ga3_6 3.046497 1_455
Ga0_0 Ga3_0 3.046497 1_555
Ga0_1 Ga3_3 2.771850 1_555
Ga0_1 Ga3_5 2.771850 1_455
Ga0_1 Ga1_2 2.801638 1_555
Ga0_1 Ga1_4 2.801638 1_455
Ga0_1 Ga1_6 2.855601 1_455
Ga0_1 Ga0_5 3.036220 1_555
Ga0_1 Ga0_3 3.036220 1_555
Ga0_1 Ga0_3 3.036220 1_545
Ga0_1 Ga0_5 3.036220 1_455
Ga0_1 Ga3_7 3.046497 1_455
Ga0_1 Ga3_1 3.046497 1_555
Ga0_2 Ga3_0 2.771850 1_565
Ga0_2 Ga3_6 2.771850 1_455
Ga0_2 Ga1_1 2.801638 1_564
Ga0_2 Ga1_7 2.801638 1_454
Ga0_2 Ga1_5 2.855601 1_464
Ga0_2 Ga0_6 3.036220 1_555
Ga0_2 Ga0_6 3.036220 1_455
Ga0_2 Ga3_2 3.046497 1_555
Ga0_2 Ga3_4 3.046497 1_465
Ga0_3 Ga3_1 2.771850 1_565
Ga0_3 Ga3_7 2.771850 1_455
Ga0_3 Ga1_0 2.801638 1_565
Ga0_3 Ga1_6 2.801638 1_455
Ga0_3 Ga1_4 2.855601 1_465
Ga0_3 Ga0_7 3.036220 1_555
Ga0_3 Ga0_7 3.036220 1_455
Ga0_3 Ga3_5 3.046497 1_465
Ga0_3 Ga3_3 3.046497 1_555
Ga0_4 Ga3_6 2.771850 1_555
Ga0_4 Ga3_0 2.771850 1_555
Ga0_4 Ga1_7 2.801638 1_554
Ga0_4 Ga1_1 2.801638 1_554
Ga0_4 Ga1_3 2.855601 1_554
Ga0_4 Ga0_6 3.036220 1_555
Ga0_4 Ga0_6 3.036220 1_545
Ga0_4 Ga3_2 3.046497 1_555
Ga0_4 Ga3_4 3.046497 1_555
Ga0_5 Ga3_7 2.771850 1_555
Ga0_5 Ga3_1 2.771850 1_555
Ga0_5 Ga1_6 2.801638 1_555
Ga0_5 Ga1_0 2.801638 1_555
Ga0_5 Ga1_2 2.855601 1_555
Ga0_5 Ga0_7 3.036220 1_545
Ga0_5 Ga0_7 3.036220 1_555
Ga0_5 Ga3_3 3.046497 1_555
Ga0_5 Ga3_5 3.046497 1_555
Ga0_6 Ga3_4 2.771850 1_565
Ga0_6 Ga3_2 2.771850 1_555
Ga0_6 Ga1_5 2.801638 1_564
Ga0_6 Ga1_3 2.801638 1_554
Ga0_6 Ga1_1 2.855601 1_564
Ga0_6 Ga3_0 3.046497 1_565
Ga0_6 Ga3_6 3.046497 1_555
Ga0_7 Ga3_5 2.771850 1_565
Ga0_7 Ga3_3 2.771850 1_555
Ga0_7 Ga1_4 2.801638 1_565
Ga0_7 Ga1_2 2.801638 1_555
Ga0_7 Ga1_0 2.855601 1_565
Ga0_7 Ga3_7 3.046497 1_555
Ga0_7 Ga3_1 3.046497 1_565
Ga1_0 Ga2_2 2.771850 1_545
Ga1_0 Ga2_4 2.771850 1_555
Ga1_0 Ga1_4 3.036220 1_555
Ga1_0 Ga1_2 3.036220 1_555
Ga1_0 Ga1_4 3.036220 1_455
Ga1_0 Ga1_2 3.036220 1_545
Ga1_0 Ga2_6 3.046497 1_545
Ga1_0 Ga2_0 3.046497 1_555
Ga1_1 Ga2_3 2.771850 1_545
Ga1_1 Ga2_5 2.771850 1_555
Ga1_1 Ga1_5 3.036220 1_455
Ga1_1 Ga1_3 3.036220 1_545
Ga1_1 Ga1_5 3.036220 1_555
Ga1_1 Ga1_3 3.036220 1_555
Ga1_1 Ga2_7 3.046497 1_545
Ga1_1 Ga2_1 3.046497 1_555
Ga1_2 Ga2_0 2.771850 1_555
Ga1_2 Ga2_6 2.771850 1_555
Ga1_2 Ga1_6 3.036220 1_455
Ga1_2 Ga1_6 3.036220 1_555
Ga1_2 Ga2_4 3.046497 1_555
Ga1_2 Ga2_2 3.046497 1_555
Ga1_3 Ga2_1 2.771850 1_555
Ga1_3 Ga2_7 2.771850 1_555
Ga1_3 Ga1_7 3.036220 1_455
Ga1_3 Ga1_7 3.036220 1_555
Ga1_3 Ga2_5 3.046497 1_555
Ga1_3 Ga2_3 3.046497 1_555
Ga1_4 Ga2_6 2.771850 1_545
Ga1_4 Ga2_0 2.771850 1_655
Ga1_4 Ga1_6 3.036220 1_545
Ga1_4 Ga1_6 3.036220 1_555
Ga1_4 Ga2_2 3.046497 1_645
Ga1_4 Ga2_4 3.046497 1_555
Ga1_5 Ga2_7 2.771850 1_545
Ga1_5 Ga2_1 2.771850 1_655
Ga1_5 Ga1_7 3.036220 1_545
Ga1_5 Ga1_7 3.036220 1_555
Ga1_5 Ga2_3 3.046497 1_645
Ga1_5 Ga2_5 3.046497 1_555
Ga1_6 Ga2_4 2.771850 1_555
Ga1_6 Ga2_2 2.771850 1_655
Ga1_6 Ga2_0 3.046497 1_655
Ga1_6 Ga2_6 3.046497 1_555
Ga1_7 Ga2_5 2.771850 1_555
Ga1_7 Ga2_3 2.771850 1_655
Ga1_7 Ga2_1 3.046497 1_655
Ga1_7 Ga2_7 3.046497 1_555
Ga2_0 Ga3_2 2.801638 1_555
Ga2_0 Ga3_4 2.801638 1_455
Ga2_0 Ga3_0 2.855601 1_555
Ga2_0 Ga2_2 3.036220 1_555
Ga2_0 Ga2_4 3.036220 1_455
Ga2_0 Ga2_2 3.036220 1_545
Ga2_0 Ga2_4 3.036220 1_555
Ga2_1 Ga3_3 2.801638 1_555
Ga2_1 Ga3_5 2.801638 1_455
Ga2_1 Ga3_1 2.855601 1_555
Ga2_1 Ga2_3 3.036220 1_555
Ga2_1 Ga2_5 3.036220 1_455
Ga2_1 Ga2_3 3.036220 1_545
Ga2_1 Ga2_5 3.036220 1_555
Ga2_2 Ga3_6 2.801638 1_455
Ga2_2 Ga3_0 2.801638 1_565
Ga2_2 Ga3_2 2.855601 1_555
Ga2_2 Ga2_6 3.036220 1_455
Ga2_2 Ga2_6 3.036220 1_555
Ga2_3 Ga3_1 2.801638 1_565
Ga2_3 Ga3_7 2.801638 1_455
Ga2_3 Ga3_3 2.855601 1_555
Ga2_3 Ga2_7 3.036220 1_455
Ga2_3 Ga2_7 3.036220 1_555
Ga2_4 Ga3_6 2.801638 1_555
Ga2_4 Ga3_0 2.801638 1_555
Ga2_4 Ga3_4 2.855601 1_555
Ga2_4 Ga2_6 3.036220 1_555
Ga2_4 Ga2_6 3.036220 1_545
Ga2_5 Ga3_7 2.801638 1_555
Ga2_5 Ga3_1 2.801638 1_555
Ga2_5 Ga3_5 2.855601 1_555
Ga2_5 Ga2_7 3.036220 1_555
Ga2_5 Ga2_7 3.036220 1_545
Ga2_6 Ga3_4 2.801638 1_565
Ga2_6 Ga3_2 2.801638 1_555
Ga2_6 Ga3_6 2.855601 1_555
Ga2_7 Ga3_5 2.801638 1_565
Ga2_7 Ga3_3 2.801638 1_555
Ga2_7 Ga3_7 2.855601 1_555
Ga3_0 Ga3_2 3.036220 1_545
Ga3_0 Ga3_4 3.036220 1_555
Ga3_0 Ga3_4 3.036220 1_455
Ga3_0 Ga3_2 3.036220 1_555
Ga3_1 Ga3_5 3.036220 1_555
Ga3_1 Ga3_3 3.036220 1_545
Ga3_1 Ga3_3 3.036220 1_555
Ga3_1 Ga3_5 3.036220 1_455
Ga3_2 Ga3_6 3.036220 1_555
Ga3_2 Ga3_6 3.036220 1_455
Ga3_3 Ga3_7 3.036220 1_555
Ga3_3 Ga3_7 3.036220 1_455
Ga3_4 Ga3_6 3.036220 1_545
Ga3_4 Ga3_6 3.036220 1_555
Ga3_5 Ga3_7 3.036220 1_545
Ga3_5 Ga3_7 3.036220 1_555
