# generated using pymatgen
data_LiNbCo3(PO4)6
_symmetry_space_group_name_H-M   'P 1'
_cell_length_a   8.85840369
_cell_length_b   8.85840369
_cell_length_c   8.85840334
_cell_angle_alpha   59.02681652
_cell_angle_beta   59.02681652
_cell_angle_gamma   59.02681895
_symmetry_Int_Tables_number   1
_chemical_formula_structural   LiNbCo3(PO4)6
_chemical_formula_sum   'Li1 Nb1 Co3 P6 O24'
_cell_volume   480.62186077
_cell_formula_units_Z   1
loop_
 _symmetry_equiv_pos_site_id
 _symmetry_equiv_pos_as_xyz
  1  'x, y, z'
loop_
 _atom_site_type_symbol
 _atom_site_label
 _atom_site_symmetry_multiplicity
 _atom_site_fract_x
 _atom_site_fract_y
 _atom_site_fract_z
 _atom_site_occupancy
  Li  Li0  1  0.97900700  0.97900700  0.97900700  1
  Nb  Nb0  1  0.14311500  0.14311500  0.14311500  1
  Co  Co0  1  0.85276200  0.85276200  0.85276200  1
  Co  Co1  1  0.64210800  0.64210800  0.64210800  1
  Co  Co2  1  0.35836800  0.35836800  0.35836800  1
  P  P0  1  0.24782000  0.54554400  0.96517800  1
  P  P1  1  0.96517800  0.24782000  0.54554400  1
  P  P2  1  0.54554400  0.96517800  0.24782000  1
  P  P3  1  0.46759400  0.03308600  0.74713800  1
  P  P4  1  0.03308600  0.74713800  0.46759400  1
  P  P5  1  0.74713800  0.46759400  0.03308600  1
  O  O0  1  0.72213900  0.48950000  0.86313200  1
  O  O1  1  0.48950000  0.86313200  0.72213900  1
  O  O2  1  0.08225600  0.72989400  0.93605500  1
  O  O3  1  0.86313200  0.72213900  0.48950000  1
  O  O4  1  0.42400200  0.55382500  0.79010000  1
  O  O5  1  0.20107500  0.37804900  0.00431800  1
  O  O6  1  0.93605500  0.08225600  0.72989400  1
  O  O7  1  0.79010000  0.42400200  0.55382500  1
  O  O8  1  0.55382500  0.79010000  0.42400200  1
  O  O9  1  0.62718200  0.00723800  0.79098500  1
  O  O10  1  0.28104300  0.06626800  0.91608000  1
  O  O11  1  0.00723800  0.79098500  0.62718200  1
  O  O12  1  0.00431800  0.20107500  0.37804900  1
  O  O13  1  0.72989400  0.93605500  0.08225600  1
  O  O14  1  0.37804900  0.00431800  0.20107500  1
  O  O15  1  0.44698200  0.20689800  0.57224600  1
  O  O16  1  0.20689800  0.57224600  0.44698200  1
  O  O17  1  0.06626800  0.91608000  0.28104300  1
  O  O18  1  0.79098500  0.62718200  0.00723800  1
  O  O19  1  0.57224600  0.44698200  0.20689800  1
  O  O20  1  0.13509200  0.28101600  0.51290600  1
  O  O21  1  0.91608000  0.28104300  0.06626800  1
  O  O22  1  0.51290600  0.13509200  0.28101600  1
  O  O23  1  0.28101600  0.51290600  0.13509200  1
loop_
_geom_bond_atom_site_label_1
_geom_bond_atom_site_label_2
_geom_bond_distance
_geom_bond_site_symmetry_2
Li0 O6 2.068726 1_565
Li0 O13 2.068726 1_556
Li0 O2 2.068726 1_655
Nb0 O12 1.980611 1_555
Nb0 O5 1.980611 1_555
Nb0 O14 1.980611 1_555
Nb0 O10 2.006216 1_554
Nb0 O17 2.006216 1_545
Nb0 O21 2.006216 1_455
Co0 O11 1.924945 1_655
Co0 O18 1.924945 1_556
Co0 O9 1.924945 1_565
Co0 O13 2.074078 1_556
Co0 O6 2.074078 1_565
Co0 O2 2.074078 1_655
Co1 O0 1.970154 1_555
Co1 O3 1.970154 1_555
Co1 O1 1.970154 1_555
Co1 O8 1.988983 1_555
Co1 O4 1.988983 1_555
Co1 O7 1.988983 1_555
Co2 O15 1.958630 1_555
Co2 O19 1.958630 1_555
Co2 O16 1.958630 1_555
Co2 O23 1.974360 1_555
Co2 O20 1.974360 1_555
Co2 O22 1.974360 1_555
O0 P5 1.533466 1_556
O1 P3 1.533466 1_565
O2 P0 1.541112 1_555
O3 P4 1.533466 1_655
O4 P0 1.534879 1_555
O5 P0 1.564695 1_554
O6 P1 1.541112 1_555
O7 P1 1.534879 1_555
O8 P2 1.534879 1_555
O9 P3 1.530454 1_555
O10 P3 1.569799 1_555
O11 P4 1.530454 1_555
O12 P1 1.564694 1_455
O13 P2 1.541112 1_555
O14 P2 1.564695 1_545
O15 P3 1.533231 1_555
O16 P4 1.533231 1_555
O17 P4 1.569798 1_555
O18 P5 1.530454 1_555
O19 P5 1.533231 1_555
O20 P1 1.534842 1_455
O21 P5 1.569799 1_555
O22 P2 1.534842 1_545
O23 P0 1.534842 1_554
