# generated using pymatgen
data_Ca2Nd2Nb3FeO14
_symmetry_space_group_name_H-M   'P 1'
_cell_length_a   7.41645385
_cell_length_b   7.41645385
_cell_length_c   7.37254728
_cell_angle_alpha   60.88051295
_cell_angle_beta   60.88051295
_cell_angle_gamma   61.14177343
_symmetry_Int_Tables_number   1
_chemical_formula_structural   Ca2Nd2Nb3FeO14
_chemical_formula_sum   'Ca2 Nd2 Nb3 Fe1 O14'
_cell_volume   292.99157777
_cell_formula_units_Z   1
loop_
 _symmetry_equiv_pos_site_id
 _symmetry_equiv_pos_as_xyz
  1  'x, y, z'
loop_
 _atom_site_type_symbol
 _atom_site_label
 _atom_site_symmetry_multiplicity
 _atom_site_fract_x
 _atom_site_fract_y
 _atom_site_fract_z
 _atom_site_occupancy
  Ca  Ca0  1  0.50000000  0.50000000  0.50000000  1
  Ca  Ca1  1  0.50000000  0.50000000  0.00000000  1
  Nd  Nd0  1  0.00000000  0.50000000  0.50000000  1
  Nd  Nd1  1  0.50000000  0.00000000  0.50000000  1
  Nb  Nb0  1  0.00000000  0.00000000  0.50000000  1
  Nb  Nb1  1  0.50000000  0.00000000  0.00000000  1
  Nb  Nb2  1  0.00000000  0.50000000  0.00000000  1
  Fe  Fe0  1  0.00000000  0.00000000  0.00000000  1
  O  O0  1  0.68053200  0.68053200  0.06949300  1
  O  O1  1  0.07702300  0.07702300  0.67063500  1
  O  O2  1  0.07021100  0.67904400  0.67591600  1
  O  O3  1  0.67454800  0.06984100  0.07811300  1
  O  O4  1  0.06984100  0.67454800  0.07811300  1
  O  O5  1  0.67904400  0.07021100  0.67591600  1
  O  O6  1  0.31946800  0.31946800  0.93050700  1
  O  O7  1  0.92297700  0.92297700  0.32936500  1
  O  O8  1  0.92978900  0.32095600  0.32408400  1
  O  O9  1  0.32545200  0.93015900  0.92188700  1
  O  O10  1  0.93015900  0.32545200  0.92188700  1
  O  O11  1  0.32095600  0.92978900  0.32408400  1
  O  O12  1  0.62481400  0.62481400  0.62454300  1
  O  O13  1  0.37518600  0.37518600  0.37545700  1
loop_
_geom_bond_atom_site_label_1
_geom_bond_atom_site_label_2
_geom_bond_distance
_geom_bond_site_symmetry_2
Ca0 O12 2.244648 1_555
Ca0 O13 2.244648 1_555
Ca0 O0 2.667895 1_555
Ca0 O6 2.667895 1_555
Ca0 O2 2.678149 1_555
Ca0 O5 2.678149 1_555
Ca0 O8 2.678149 1_555
Ca0 O11 2.678149 1_555
Ca1 O13 2.283736 1_555
Ca1 O12 2.283736 1_554
Ca1 O0 2.629364 1_555
Ca1 O6 2.629364 1_554
Ca1 O10 2.671351 1_554
Ca1 O4 2.671351 1_555
Ca1 O9 2.671351 1_554
Ca1 O3 2.671351 1_555
Nd0 O13 2.301482 1_555
Nd0 O12 2.301482 1_455
Nd0 O2 2.591782 1_555
Nd0 O8 2.591782 1_455
Nd0 O4 2.603647 1_555
Nd0 O10 2.603647 1_455
Nd0 O7 2.622669 1_455
Nd0 O1 2.622669 1_555
Nd1 O13 2.301482 1_555
Nd1 O12 2.301482 1_545
Nd1 O5 2.591782 1_555
Nd1 O11 2.591782 1_545
Nd1 O3 2.603647 1_555
Nd1 O9 2.603647 1_545
Nd1 O7 2.622669 1_545
Nd1 O1 2.622669 1_555
Nb0 O1 1.987218 1_555
Nb0 O7 1.987218 1_445
Nb0 O8 2.018780 1_455
Nb0 O11 2.018780 1_545
Nb0 O2 2.018780 1_545
Nb0 O5 2.018780 1_455
Nb1 O3 1.984666 1_555
Nb1 O9 1.984666 1_544
Nb1 O6 2.023080 1_554
Nb1 O0 2.023080 1_545
Nb1 O5 2.027785 1_554
Nb1 O11 2.027785 1_545
Nb2 O4 1.984666 1_555
Nb2 O10 1.984666 1_454
Nb2 O6 2.023080 1_554
Nb2 O0 2.023080 1_455
Nb2 O2 2.027785 1_554
Nb2 O8 2.027785 1_455
Fe0 O9 2.038753 1_544
Fe0 O10 2.038753 1_454
Fe0 O4 2.038753 1_545
Fe0 O3 2.038753 1_455
Fe0 O7 2.040587 1_445
Fe0 O1 2.040587 1_554
