# generated using pymatgen
data_Pr6Ge3Se14
_symmetry_space_group_name_H-M   'P 1'
_cell_length_a   10.73898818
_cell_length_b   10.73901106
_cell_length_c   6.10738395
_cell_angle_alpha   90.00201249
_cell_angle_beta   90.00024178
_cell_angle_gamma   119.99979657
_symmetry_Int_Tables_number   1
_chemical_formula_structural   Pr6Ge3Se14
_chemical_formula_sum   'Pr6 Ge3 Se14'
_cell_volume   609.97831958
_cell_formula_units_Z   1
loop_
 _symmetry_equiv_pos_site_id
 _symmetry_equiv_pos_as_xyz
  1  'x, y, z'
loop_
 _atom_site_type_symbol
 _atom_site_label
 _atom_site_symmetry_multiplicity
 _atom_site_fract_x
 _atom_site_fract_y
 _atom_site_fract_z
 _atom_site_occupancy
  Pr  Pr0  1  0.30965621  0.10398335  0.75542732  1
  Pr  Pr1  1  0.79432143  0.69034937  0.75541701  1
  Pr  Pr2  1  0.89602624  0.20567097  0.75542356  1
  Pr  Pr3  1  0.02502510  0.56300118  0.24942093  1
  Pr  Pr4  1  0.53797590  0.97496709  0.24943355  1
  Pr  Pr5  1  0.43699704  0.46201940  0.24944054  1
  Ge  Ge0  1  -0.00000869  0.00000032  0.17096074  1
  Ge  Ge1  1  0.33333340  0.66669725  0.66357170  1
  Ge  Ge2  1  0.66666278  0.33332708  0.51688897  1
  Se  Se0  1  0.00003565  -0.00002387  0.55083904  1
  Se  Se1  1  0.33336221  0.66665477  0.04405388  1
  Se  Se2  1  0.14849740  0.23077144  0.01403843  1
  Se  Se3  1  0.08229034  0.85149962  0.01402430  1
  Se  Se4  1  0.76918895  0.91770192  0.01403514  1
  Se  Se5  1  0.18446435  0.43588028  0.50797898  1
  Se  Se6  1  0.25138402  0.81558913  0.50800928  1
  Se  Se7  1  0.56413694  0.74859854  0.50804494  1
  Se  Se8  1  0.41250264  0.17208254  0.27850989  1
  Se  Se9  1  0.75954712  0.58746167  0.27850524  1
  Se  Se10  1  0.82791945  0.24040225  0.27855518  1
  Se  Se11  1  0.92317924  0.49912859  0.76717345  1
  Se  Se12  1  0.57594490  0.07683660  0.76714365  1
  Se  Se13  1  0.50089035  0.42406452  0.76715327  1
loop_
_geom_bond_atom_site_label_1
_geom_bond_atom_site_label_2
_geom_bond_distance
_geom_bond_site_symmetry_2
Pr0 Se13 2.996486 1_555
Pr0 Se12 3.016869 1_555
Pr0 Se3 3.031158 1_546
Pr0 Se8 3.071004 1_555
Pr0 Se2 3.114498 1_556
Pr0 Se0 3.185995 1_555
Pr0 Se6 3.213779 1_545
Pr0 Se8 3.339560 1_556
Pr1 Se11 2.996444 1_555
Pr1 Se13 3.016843 1_555
Pr1 Se4 3.031076 1_556
Pr1 Se9 3.071020 1_555
Pr1 Se3 3.114639 1_656
Pr1 Se0 3.186281 1_665
Pr1 Se7 3.214134 1_555
Pr1 Se9 3.339767 1_556
Pr2 Se12 2.996498 1_555
Pr2 Se11 3.017088 1_555
Pr2 Se2 3.031092 1_656
Pr2 Se10 3.070682 1_555
Pr2 Se4 3.114741 1_546
Pr2 Se0 3.186753 1_655
Pr2 Se5 3.214498 1_655
Pr2 Se10 3.339849 1_556
Pr3 Se9 2.996239 1_455
Pr3 Se6 3.027716 1_555
Pr3 Se10 3.030037 1_455
Pr3 Se11 3.096928 1_454
Pr3 Se5 3.102656 1_555
Pr3 Se1 3.176597 1_555
Pr3 Se3 3.184157 1_555
Pr3 Se11 3.303885 1_455
Pr4 Se10 2.996090 1_565
Pr4 Se7 3.027610 1_555
Pr4 Se8 3.029919 1_565
Pr4 Se12 3.097315 1_564
Pr4 Se6 3.102941 1_555
Pr4 Se1 3.176253 1_555
Pr4 Se4 3.183908 1_555
Pr4 Se12 3.303642 1_565
Pr5 Se8 2.996073 1_555
Pr5 Se5 3.027453 1_555
Pr5 Se9 3.029578 1_555
Pr5 Se13 3.097191 1_554
Pr5 Se7 3.102877 1_555
Pr5 Se1 3.176062 1_555
Pr5 Se2 3.184132 1_555
Pr5 Se13 3.303650 1_555
Ge0 Se0 2.320063 1_555
Ge0 Se2 2.377292 1_555
Ge0 Se3 2.377469 1_545
Ge0 Se4 2.377473 1_445
Ge1 Se1 2.323751 1_556
Ge1 Se7 2.374729 1_555
Ge1 Se5 2.374890 1_555
Ge1 Se6 2.375088 1_555
Ge2 Se9 2.800165 1_555
Ge2 Se8 2.800233 1_555
Ge2 Se10 2.800276 1_555
Ge2 Se12 2.861645 1_555
Ge2 Se13 2.861736 1_555
Ge2 Se11 2.861873 1_555
