# generated using pymatgen
data_Th4Mg
_symmetry_space_group_name_H-M   'P 1'
_cell_length_a   8.10325562
_cell_length_b   8.10325562
_cell_length_c   8.10325562
_cell_angle_alpha   60.00000000
_cell_angle_beta   60.00000000
_cell_angle_gamma   60.00000000
_symmetry_Int_Tables_number   1
_chemical_formula_structural   Th4Mg
_chemical_formula_sum   'Th8 Mg2'
_cell_volume   376.23883395
_cell_formula_units_Z   2
loop_
 _symmetry_equiv_pos_site_id
 _symmetry_equiv_pos_as_xyz
  1  'x, y, z'
loop_
 _atom_site_type_symbol
 _atom_site_label
 _atom_site_symmetry_multiplicity
 _atom_site_fract_x
 _atom_site_fract_y
 _atom_site_fract_z
 _atom_site_occupancy
  Th  Th0  1  0.60194700  0.60194700  0.60194700  1
  Th  Th1  1  0.19415900  0.60194700  0.60194700  1
  Th  Th2  1  0.60194700  0.19415900  0.60194700  1
  Th  Th3  1  0.55584100  0.14805300  0.14805300  1
  Th  Th4  1  0.14805300  0.14805300  0.14805300  1
  Th  Th5  1  0.60194700  0.60194700  0.19415900  1
  Th  Th6  1  0.14805300  0.55584100  0.14805300  1
  Th  Th7  1  0.14805300  0.14805300  0.55584100  1
  Mg  Mg0  1  0.00000000  0.00000000  0.00000000  1
  Mg  Mg1  1  0.75000000  0.75000000  0.75000000  1
loop_
_geom_bond_atom_site_label_1
_geom_bond_atom_site_label_2
_geom_bond_distance
_geom_bond_site_symmetry_2
Th0 Th1 3.304410 1_555
Th0 Th5 3.304410 1_555
Th0 Th2 3.304410 1_555
Th0 Th3 4.085934 1_556
Th0 Th3 4.085934 1_565
Th0 Th6 4.085934 1_556
Th0 Th7 4.085934 1_565
Th0 Th7 4.085934 1_655
Th0 Th6 4.085934 1_655
Th1 Th5 3.304410 1_555
Th1 Th2 3.304410 1_555
Th1 Th4 4.085934 1_556
Th1 Th4 4.085934 1_565
Th1 Th6 4.085934 1_556
Th1 Th7 4.085934 1_555
Th1 Th7 4.085934 1_565
Th1 Th6 4.085934 1_555
Th2 Th5 3.304410 1_555
Th2 Th7 4.085934 1_655
Th2 Th7 4.085934 1_555
Th2 Th4 4.085934 1_655
Th2 Th4 4.085934 1_556
Th2 Th3 4.085934 1_556
Th2 Th3 4.085934 1_555
Th3 Th6 3.304410 1_555
Th3 Th4 3.304410 1_555
Th3 Th7 3.304410 1_555
Th3 Th5 4.085934 1_555
Th3 Th5 4.085934 1_545
Th4 Th6 3.304410 1_555
Th4 Th7 3.304410 1_555
Th4 Th5 4.085934 1_545
Th4 Th5 4.085934 1_455
Th5 Th6 4.085934 1_655
Th5 Th6 4.085934 1_555
Th6 Th7 3.304410 1_555
Mg0 Th7 2.938681 1_554
Mg0 Th4 2.938681 1_555
Mg0 Th6 2.938681 1_545
Mg0 Th3 2.938681 1_455
Mg1 Th0 2.938681 1_555
Mg1 Th5 2.938681 1_556
Mg1 Th2 2.938681 1_565
Mg1 Th1 2.938681 1_655
