# generated using pymatgen
data_BaHf4SnO12
_symmetry_space_group_name_H-M   'P 1'
_cell_length_a   5.70689885
_cell_length_b   5.70689885
_cell_length_c   8.23984896
_cell_angle_alpha   90.00000000
_cell_angle_beta   90.00000000
_cell_angle_gamma   89.69337038
_symmetry_Int_Tables_number   1
_chemical_formula_structural   BaHf4SnO12
_chemical_formula_sum   'Ba1 Hf4 Sn1 O12'
_cell_volume   268.35728045
_cell_formula_units_Z   1
loop_
 _symmetry_equiv_pos_site_id
 _symmetry_equiv_pos_as_xyz
  1  'x, y, z'
loop_
 _atom_site_type_symbol
 _atom_site_label
 _atom_site_symmetry_multiplicity
 _atom_site_fract_x
 _atom_site_fract_y
 _atom_site_fract_z
 _atom_site_occupancy
  Ba  Ba0  1  0.47792643  0.52207357  0.00000000  1
  Hf  Hf0  1  0.50433166  0.00262618  0.25158029  1
  Hf  Hf1  1  0.50433166  0.00262618  0.74841971  1
  Hf  Hf2  1  0.99737382  0.49566834  0.74841971  1
  Hf  Hf3  1  0.99737382  0.49566834  0.25158029  1
  Sn  Sn0  1  0.02545775  0.97454225  0.50000000  1
  O  O0  1  0.29520127  0.29424892  0.24749431  1
  O  O1  1  0.70575108  0.70479873  0.24749431  1
  O  O2  1  0.70575108  0.70479873  0.75250569  1
  O  O3  1  0.29520127  0.29424892  0.75250569  1
  O  O4  1  0.21817332  0.78182668  0.23004288  1
  O  O5  1  0.83409703  0.16590297  0.32966486  1
  O  O6  1  0.83409703  0.16590297  0.67033514  1
  O  O7  1  0.21817332  0.78182668  0.76995712  1
  O  O8  1  0.53708954  0.03293626  -0.00000000  1
  O  O9  1  0.38110173  0.00159558  0.50000000  1
  O  O10  1  0.96706374  0.46291046  -0.00000000  1
  O  O11  1  0.99840442  0.61889827  0.50000000  1
loop_
_geom_bond_atom_site_label_1
_geom_bond_atom_site_label_2
_geom_bond_distance
_geom_bond_site_symmetry_2
Ba0 O2 2.636510 1_554
Ba0 O3 2.636510 1_554
Ba0 O1 2.636510 1_555
Ba0 O0 2.636510 1_555
Ba0 O8 2.810008 1_555
Ba0 O10 2.810008 1_555
Ba0 O7 2.822127 1_554
Ba0 O4 2.822127 1_555
Ba0 O10 2.936722 1_455
Ba0 O8 2.936722 1_565
Hf0 O0 2.043049 1_555
Hf0 O1 2.047049 1_545
Hf0 O4 2.075635 1_545
Hf0 O8 2.088654 1_555
Hf0 O9 2.164399 1_555
Hf0 O5 2.200611 1_555
Hf1 O3 2.043049 1_555
Hf1 O2 2.047049 1_545
Hf1 O7 2.075635 1_545
Hf1 O8 2.088654 1_556
Hf1 O9 2.164399 1_555
Hf1 O6 2.200611 1_555
Hf2 O2 2.043049 1_555
Hf2 O3 2.047049 1_655
Hf2 O7 2.075635 1_655
Hf2 O10 2.088654 1_556
Hf2 O11 2.164399 1_555
Hf2 O6 2.200611 1_555
Hf3 O1 2.043049 1_555
Hf3 O0 2.047049 1_655
Hf3 O4 2.075635 1_655
Hf3 O10 2.088654 1_555
Hf3 O11 2.164399 1_555
Hf3 O5 2.200611 1_555
O5 Sn0 2.083845 1_645
O6 Sn0 2.083845 1_645
O9 Sn0 2.036312 1_545
O11 Sn0 2.036312 1_655
