# generated using pymatgen
data_Ho2(Fe3Si)3
_symmetry_space_group_name_H-M   'P 1'
_cell_length_a   7.06559320
_cell_length_b   7.06559320
_cell_length_c   3.81915700
_cell_angle_alpha   90.00000000
_cell_angle_beta   90.00000000
_cell_angle_gamma   90.61676536
_symmetry_Int_Tables_number   1
_chemical_formula_structural   Ho2(Fe3Si)3
_chemical_formula_sum   'Ho2 Fe9 Si3'
_cell_volume   190.65122862
_cell_formula_units_Z   1
loop_
 _symmetry_equiv_pos_site_id
 _symmetry_equiv_pos_as_xyz
  1  'x, y, z'
loop_
 _atom_site_type_symbol
 _atom_site_label
 _atom_site_symmetry_multiplicity
 _atom_site_fract_x
 _atom_site_fract_y
 _atom_site_fract_z
 _atom_site_occupancy
  Ho  Ho0  1  0.49560700  0.50439300  0.00000000  1
  Ho  Ho1  1  0.00477900  0.99522100  0.50000000  1
  Fe  Fe0  1  0.85700500  0.59270300  0.50000000  1
  Fe  Fe1  1  0.14920900  0.40540900  0.50000000  1
  Fe  Fe2  1  0.64876900  0.08697500  0.00000000  1
  Fe  Fe3  1  0.34187200  0.91341600  0.00000000  1
  Fe  Fe4  1  0.40729700  0.14299500  0.50000000  1
  Fe  Fe5  1  0.59459100  0.85079100  0.50000000  1
  Fe  Fe6  1  0.91302500  0.35123100  0.00000000  1
  Fe  Fe7  1  0.08658400  0.65812800  0.00000000  1
  Fe  Fe8  1  0.28316500  0.71683500  0.50000000  1
  Si  Si0  1  0.71879800  0.28120200  0.50000000  1
  Si  Si1  1  0.21675900  0.21746000  0.00000000  1
  Si  Si2  1  0.78254000  0.78324100  0.00000000  1
loop_
_geom_bond_atom_site_label_1
_geom_bond_atom_site_label_2
_geom_bond_distance
_geom_bond_site_symmetry_2
Ho0 Si1 2.811753 1_555
Ho0 Si2 2.811753 1_555
Ho0 Si0 2.945122 1_554
Ho0 Si0 2.945122 1_555
Ho1 Si0 2.872935 1_465
Ho1 Si2 2.881812 1_455
Ho1 Si2 2.881812 1_456
Ho1 Si1 2.881812 1_566
Ho1 Si1 2.881812 1_565
Fe0 Si2 2.398122 1_555
Fe0 Si2 2.398122 1_556
Fe0 Si0 2.398217 1_555
Fe0 Fe1 2.464266 1_655
Fe0 Fe7 2.544658 1_656
Fe0 Fe7 2.544658 1_655
Fe0 Fe6 2.593959 1_556
Fe0 Fe6 2.593959 1_555
Fe0 Fe5 2.614542 1_555
Fe0 Ho1 3.019062 1_655
Fe0 Ho0 3.243738 1_556
Fe0 Ho0 3.243738 1_555
Fe1 Si1 2.377276 1_556
Fe1 Si1 2.377276 1_555
Fe1 Fe8 2.385956 1_555
Fe1 Fe6 2.562050 1_455
Fe1 Fe6 2.562050 1_456
Fe1 Fe4 2.614542 1_555
Fe1 Fe7 2.654749 1_555
Fe1 Fe7 2.654749 1_556
Fe1 Ho1 3.062254 1_545
Fe1 Ho0 3.176329 1_556
Fe1 Ho0 3.176329 1_555
Fe2 Si2 2.354272 1_545
Fe2 Si0 2.399996 1_554
Fe2 Si0 2.399996 1_555
Fe2 Fe3 2.479628 1_545
Fe2 Fe5 2.562050 1_545
Fe2 Fe5 2.562050 1_544
Fe2 Fe4 2.593959 1_554
Fe2 Fe4 2.593959 1_555
Fe2 Ho0 3.152496 1_555
Fe2 Ho1 3.229432 1_644
Fe2 Ho1 3.229432 1_645
Fe3 Si1 2.331806 1_565
Fe3 Fe8 2.394861 1_555
Fe3 Fe8 2.394861 1_554
Fe3 Fe7 2.537137 1_555
Fe3 Fe4 2.544658 1_565
Fe3 Fe4 2.544658 1_564
Fe3 Fe5 2.654749 1_554
Fe3 Fe5 2.654749 1_555
Fe3 Ho0 3.098309 1_555
Fe3 Ho1 3.111752 1_555
Fe3 Ho1 3.111752 1_554
Fe4 Si1 2.398122 1_556
Fe4 Si1 2.398122 1_555
Fe4 Si0 2.398217 1_555
Fe4 Fe5 2.464266 1_545
Fe4 Ho1 3.019062 1_545
Fe4 Ho0 3.243738 1_556
Fe4 Ho0 3.243738 1_555
Fe5 Si2 2.377276 1_555
Fe5 Si2 2.377276 1_556
Fe5 Fe8 2.385956 1_555
Fe5 Ho1 3.062254 1_655
Fe5 Ho0 3.176329 1_556
Fe5 Ho0 3.176329 1_555
Fe6 Si1 2.354272 1_655
Fe6 Si0 2.399996 1_554
Fe6 Si0 2.399996 1_555
Fe6 Fe7 2.479628 1_655
Fe6 Ho0 3.152496 1_555
Fe6 Ho1 3.229432 1_645
Fe6 Ho1 3.229432 1_644
Fe7 Si2 2.331806 1_455
Fe7 Fe8 2.394861 1_555
Fe7 Fe8 2.394861 1_554
Fe7 Ho0 3.098309 1_555
Fe7 Ho1 3.111752 1_554
Fe7 Ho1 3.111752 1_555
Fe8 Ho1 2.796636 1_555
Fe8 Ho0 2.863769 1_556
Fe8 Ho0 2.863769 1_555
