# generated using pymatgen
data_Li4FeTe(WO6)2
_symmetry_space_group_name_H-M   'P 1'
_cell_length_a   5.18299137
_cell_length_b   7.56719283
_cell_length_c   11.02359939
_cell_angle_alpha   85.64648562
_cell_angle_beta   90.25780668
_cell_angle_gamma   90.27827936
_symmetry_Int_Tables_number   1
_chemical_formula_structural   Li4FeTe(WO6)2
_chemical_formula_sum   'Li8 Fe2 Te2 W4 O24'
_cell_volume   431.09696358
_cell_formula_units_Z   2
loop_
 _symmetry_equiv_pos_site_id
 _symmetry_equiv_pos_as_xyz
  1  'x, y, z'
loop_
 _atom_site_type_symbol
 _atom_site_label
 _atom_site_symmetry_multiplicity
 _atom_site_fract_x
 _atom_site_fract_y
 _atom_site_fract_z
 _atom_site_occupancy
  Li  Li0  1  0.00648500  0.26676400  0.29284400  1
  Li  Li1  1  0.00932700  0.27271900  0.79690300  1
  Li  Li2  1  0.49766500  0.80116300  0.53158000  1
  Li  Li3  1  0.49381900  0.80886800  0.02385900  1
  Li  Li4  1  0.99017800  0.81171100  0.29949500  1
  Li  Li5  1  0.00052700  0.80206100  0.79369100  1
  Li  Li6  1  0.50421500  0.21987400  0.98108000  1
  Li  Li7  1  0.50467000  0.20836800  0.47325400  1
  Fe  Fe0  1  0.00270200  0.00121500  0.50690800  1
  Fe  Fe1  1  0.00078800  0.99947100  0.00768800  1
  Te  Te0  1  0.49875500  0.50330400  0.74990500  1
  Te  Te1  1  0.48066700  0.51654600  0.25467400  1
  W  W0  1  0.99526700  0.50286300  0.50439200  1
  W  W1  1  0.50856700  0.00593200  0.25104100  1
  W  W2  1  0.98259900  0.50473600  0.00332200  1
  W  W3  1  0.50675000  0.00507300  0.74884000  1
  O  O0  1  0.29987300  0.42591400  0.40811400  1
  O  O1  1  0.30749500  0.42552000  0.89474800  1
  O  O2  1  0.12505700  0.73669700  0.50481200  1
  O  O3  1  0.12630700  0.73632500  0.98604900  1
  O  O4  1  0.32727800  0.04848100  0.59646300  1
  O  O5  1  0.32243500  0.04920600  0.09703300  1
  O  O6  1  0.19656200  0.43020100  0.65663000  1
  O  O7  1  0.14068900  0.43717400  0.15528500  1
  O  O8  1  0.80263400  0.93976800  0.65783300  1
  O  O9  1  0.79185800  0.92299100  0.15500000  1
  O  O10  1  0.37472100  0.74614200  0.74344300  1
  O  O11  1  0.34866100  0.75630100  0.25610900  1
  O  O12  1  0.62823200  0.25515100  0.74859900  1
  O  O13  1  0.64355700  0.23374800  0.25654600  1
  O  O14  1  0.20630800  0.04812200  0.84099000  1
  O  O15  1  0.20724600  0.05611500  0.34638200  1
  O  O16  1  0.82107800  0.55749800  0.82828600  1
  O  O17  1  0.82478300  0.57291100  0.35437300  1
  O  O18  1  0.69734300  0.94394200  0.89635600  1
  O  O19  1  0.69846900  0.93397700  0.40068400  1
  O  O20  1  0.88913600  0.25766500  0.98517900  1
  O  O21  1  0.88413000  0.26018800  0.49803000  1
  O  O22  1  0.67330200  0.57524600  0.06121300  1
  O  O23  1  0.67986500  0.56244800  0.59476900  1
loop_
_geom_bond_atom_site_label_1
_geom_bond_atom_site_label_2
_geom_bond_distance
_geom_bond_site_symmetry_2
Li0 O13 1.940290 1_455
Li0 O15 1.959517 1_555
Li0 O7 2.037171 1_555
Li0 O21 2.348679 1_455
Li0 O0 2.361038 1_555
Li1 O14 2.013469 1_555
Li1 O12 2.049733 1_455
Li1 O6 2.115533 1_555
Li1 O20 2.164187 1_455
Li1 O1 2.246244 1_555
Li1 O16 2.419140 1_455
Li2 O19 1.989611 1_555
Li2 O2 2.015502 1_555
Li2 O23 2.111800 1_555
Li2 O4 2.240302 1_565
Li2 O8 2.391917 1_555
Li2 O10 2.428397 1_555
Li3 O18 1.979342 1_554
Li3 O22 2.015512 1_555
Li3 O3 2.029978 1_554
Li3 O5 2.234321 1_565
Li3 O9 2.319131 1_555
Li4 O11 1.975546 1_655
Li4 O9 2.023086 1_555
Li4 O17 2.046924 1_555
Li4 O19 2.138141 1_555
Li4 O15 2.252347 1_665
Li4 O2 2.393358 1_655
Li5 O8 2.034811 1_455
Li5 O10 2.073775 1_555
Li5 O16 2.077195 1_455
Li5 O3 2.235941 1_555
Li5 O14 2.235962 1_565
Li5 O18 2.262675 1_455
Li6 O5 1.984396 1_556
Li6 O20 2.014851 1_555
Li6 O1 2.036854 1_555
Li6 O18 2.561037 1_545
Li6 O14 2.592658 1_555
Li7 O4 1.976071 1_555
Li7 O21 2.024933 1_555
Li7 O0 2.045238 1_555
Li7 O15 2.422352 1_555
Li7 O13 2.491265 1_555
Li7 O19 2.497978 1_545
Fe0 O8 1.988187 1_445
Fe0 O4 1.991330 1_555
Fe0 O19 2.045119 1_445
Fe0 O21 2.051760 1_455
Fe0 O15 2.080599 1_555
Fe0 O2 2.104476 1_545
Fe1 O5 1.981485 1_565
Fe1 O9 2.002924 1_455
Fe1 O20 2.037128 1_464
Fe1 O18 2.052032 1_454
Fe1 O3 2.128711 1_554
Fe1 O14 2.134975 1_564
O0 Te1 2.010317 1_555
O0 W0 2.018868 1_455
O1 Te0 1.935057 1_555
O1 W2 2.182737 1_456
O2 W0 1.890295 1_455
O3 W2 1.897408 1_456
O4 W3 1.923499 1_555
O5 W1 1.955532 1_555
O6 Te0 1.969744 1_555
O6 W0 2.014185 1_455
O7 W2 1.897546 1_455
O7 Te1 2.176787 1_555
O8 W3 1.923269 1_565
O9 W1 1.947952 1_565
O10 Te0 1.945848 1_555
O10 W3 2.077328 1_565
O11 Te1 1.943311 1_555
O11 W1 2.056100 1_565
O12 W3 1.991297 1_555
O12 Te0 1.998299 1_555
O13 W1 1.862500 1_555
O13 Te1 2.302918 1_555
O14 W3 1.905848 1_555
O15 W1 1.941386 1_555
O16 Te0 1.933854 1_555
O16 W2 2.110704 1_556
O17 W0 1.911793 1_555
O17 Te1 2.148722 1_555
O18 W3 1.926132 1_565
O19 W1 1.959763 1_565
O20 W2 1.953789 1_556
O21 W0 1.928181 1_555
O22 W2 1.825112 1_555
O22 Te1 2.369248 1_555
O23 Te0 1.974905 1_555
O23 W0 1.989528 1_555
