# generated using pymatgen
data_ZrCrFe
_symmetry_space_group_name_H-M   'P 1'
_cell_length_a   5.03423628
_cell_length_b   5.03466460
_cell_length_c   8.09480400
_cell_angle_alpha   90.00000000
_cell_angle_beta   90.00000000
_cell_angle_gamma   59.39026911
_symmetry_Int_Tables_number   1
_chemical_formula_structural   ZrCrFe
_chemical_formula_sum   'Zr4 Cr4 Fe4'
_cell_volume   176.57932639
_cell_formula_units_Z   4
loop_
 _symmetry_equiv_pos_site_id
 _symmetry_equiv_pos_as_xyz
  1  'x, y, z'
loop_
 _atom_site_type_symbol
 _atom_site_label
 _atom_site_symmetry_multiplicity
 _atom_site_fract_x
 _atom_site_fract_y
 _atom_site_fract_z
 _atom_site_occupancy
  Zr  Zr0  1  0.33353200  0.33354800  0.56084800  1
  Zr  Zr1  1  0.66586600  0.66590200  0.43656000  1
  Zr  Zr2  1  0.66586600  0.66590200  0.06344000  1
  Zr  Zr3  1  0.33353200  0.33354800  0.93915200  1
  Cr  Cr0  1  0.00024600  0.00019500  0.50340200  1
  Cr  Cr1  1  0.00024600  0.00019500  0.99659800  1
  Cr  Cr2  1  0.83135300  0.33898500  0.75000000  1
  Cr  Cr3  1  0.33900700  0.83135000  0.75000000  1
  Fe  Fe0  1  0.82892200  0.82894000  0.75000000  1
  Fe  Fe1  1  0.16730400  0.66512800  0.25000000  1
  Fe  Fe2  1  0.66512300  0.16730300  0.25000000  1
  Fe  Fe3  1  0.16900200  0.16900500  0.25000000  1
loop_
_geom_bond_atom_site_label_1
_geom_bond_atom_site_label_2
_geom_bond_distance
_geom_bond_site_symmetry_2
Zr0 Zr3 3.062297 1_555
Zr0 Zr1 3.063023 1_455
Zr0 Zr1 3.063178 1_545
Zr0 Zr1 3.076059 1_555
Zr1 Zr2 3.020333 1_555
Zr2 Zr3 3.063023 1_654
Zr2 Zr3 3.063178 1_564
Zr2 Zr3 3.076059 1_554
Cr0 Cr3 2.477768 1_545
Cr0 Cr2 2.477916 1_455
Cr0 Fe0 2.495849 1_445
Cr0 Fe1 2.513140 1_545
Cr0 Fe2 2.513207 1_455
Cr0 Fe3 2.527246 1_555
Cr0 Zr0 2.926012 1_545
Cr0 Zr0 2.926051 1_455
Cr0 Zr1 2.934370 1_545
Cr0 Zr1 2.934982 1_455
Cr0 Zr0 2.952261 1_555
Cr0 Zr1 2.973939 1_445
Cr1 Cr3 2.477768 1_545
Cr1 Cr2 2.477916 1_455
Cr1 Fe0 2.495849 1_445
Cr1 Fe1 2.513140 1_546
Cr1 Fe2 2.513207 1_456
Cr1 Fe3 2.527246 1_556
Cr1 Zr3 2.926012 1_545
Cr1 Zr3 2.926051 1_455
Cr1 Zr2 2.934370 1_546
Cr1 Zr2 2.934982 1_456
Cr1 Zr3 2.952261 1_555
Cr1 Zr2 2.973939 1_446
Cr2 Cr3 2.455860 1_555
Cr2 Fe0 2.460550 1_555
Cr2 Cr3 2.532121 1_645
Cr2 Fe0 2.574159 1_545
Cr2 Zr2 2.905900 1_556
Cr2 Zr1 2.905900 1_555
Cr2 Zr3 2.943793 1_655
Cr2 Zr0 2.943793 1_655
Cr2 Zr3 2.948865 1_555
Cr2 Zr0 2.948865 1_555
Cr3 Fe0 2.460192 1_555
Cr3 Fe0 2.574088 1_455
Cr3 Zr2 2.905718 1_556
Cr3 Zr1 2.905718 1_555
Cr3 Zr3 2.943978 1_565
Cr3 Zr0 2.943978 1_565
Cr3 Zr3 2.949050 1_555
Cr3 Zr0 2.949050 1_555
Fe0 Zr2 2.910556 1_556
Fe0 Zr1 2.910556 1_555
Fe0 Zr3 2.926777 1_565
Fe0 Zr0 2.926777 1_565
Fe0 Zr0 2.926779 1_655
Fe0 Zr3 2.926779 1_655
Fe1 Fe2 2.483127 1_555
Fe1 Fe3 2.493471 1_555
Fe1 Fe2 2.504855 1_465
Fe1 Fe3 2.541215 1_565
Fe1 Zr3 2.897589 1_554
Fe1 Zr0 2.897589 1_555
Fe1 Zr2 2.930882 1_555
Fe1 Zr1 2.930882 1_555
Fe1 Zr2 2.939895 1_455
Fe1 Zr1 2.939895 1_455
Fe2 Fe3 2.493238 1_555
Fe2 Fe3 2.541020 1_655
Fe2 Zr3 2.897551 1_554
Fe2 Zr0 2.897551 1_555
Fe2 Zr2 2.931157 1_555
Fe2 Zr1 2.931157 1_555
Fe2 Zr1 2.939987 1_545
Fe2 Zr2 2.939987 1_545
Fe3 Zr3 2.898730 1_554
Fe3 Zr0 2.898730 1_555
Fe3 Zr2 2.915637 1_545
Fe3 Zr1 2.915637 1_545
Fe3 Zr1 2.915773 1_455
Fe3 Zr2 2.915773 1_455
