# generated using pymatgen
data_V2H28C12Cl2O7
_symmetry_space_group_name_H-M   'P 1'
_cell_length_a   8.97814600
_cell_length_b   11.53303100
_cell_length_c   23.39604338
_cell_angle_alpha   90.00000000
_cell_angle_beta   101.10092518
_cell_angle_gamma   90.00000000
_symmetry_Int_Tables_number   1
_chemical_formula_structural   V2H28C12Cl2O7
_chemical_formula_sum   'V8 H112 C48 Cl8 O28'
_cell_volume   2377.22187007
_cell_formula_units_Z   4
loop_
 _symmetry_equiv_pos_site_id
 _symmetry_equiv_pos_as_xyz
  1  'x, y, z'
loop_
 _atom_site_type_symbol
 _atom_site_label
 _atom_site_symmetry_multiplicity
 _atom_site_fract_x
 _atom_site_fract_y
 _atom_site_fract_z
 _atom_site_occupancy
  V  V0  1  0.20097500  0.03709700  0.66929000  1
  V  V1  1  0.79902500  0.53709700  0.83071000  1
  V  V2  1  0.79902500  0.96290300  0.33071000  1
  V  V3  1  0.20097500  0.46290300  0.16929000  1
  V  V4  1  0.41236000  0.20682700  0.61046400  1
  V  V5  1  0.58764000  0.70682700  0.88953600  1
  V  V6  1  0.58764000  0.79317300  0.38953600  1
  V  V7  1  0.41236000  0.29317300  0.11046400  1
  H  H0  1  0.69418200  0.14192900  0.72202300  1
  H  H1  1  0.30581800  0.64192900  0.77797700  1
  H  H2  1  0.30581800  0.85807100  0.27797700  1
  H  H3  1  0.69418200  0.35807100  0.22202300  1
  H  H4  1  0.68579500  0.15930500  0.79679500  1
  H  H5  1  0.31420500  0.65930500  0.70320500  1
  H  H6  1  0.31420500  0.84069500  0.20320500  1
  H  H7  1  0.68579500  0.34069500  0.29679500  1
  H  H8  1  0.60921000  0.03189900  0.75886300  1
  H  H9  1  0.39079000  0.53189900  0.74113700  1
  H  H10  1  0.39079000  0.96810100  0.24113700  1
  H  H11  1  0.60921000  0.46810100  0.25886300  1
  H  H12  1  0.26646400  0.81114200  0.59225100  1
  H  H13  1  0.73353600  0.31114200  0.90774900  1
  H  H14  1  0.73353600  0.18885800  0.40774900  1
  H  H15  1  0.26646400  0.68885800  0.09225100  1
  H  H16  1  0.31571400  0.81193400  0.52186100  1
  H  H17  1  0.68428600  0.31193400  0.97813900  1
  H  H18  1  0.68428600  0.18806600  0.47813900  1
  H  H19  1  0.31571400  0.68806600  0.02186100  1
  H  H20  1  0.44778100  0.86212700  0.58325500  1
  H  H21  1  0.55221900  0.36212700  0.91674500  1
  H  H22  1  0.55221900  0.13787300  0.41674500  1
  H  H23  1  0.44778100  0.63787300  0.08325500  1
  H  H24  1  0.71991700  0.95496500  0.62252600  1
  H  H25  1  0.28008300  0.45496500  0.87747400  1
  H  H26  1  0.28008300  0.04503500  0.37747400  1
  H  H27  1  0.71991700  0.54503500  0.12252600  1
  H  H28  1  0.73549500  0.80710400  0.64592700  1
  H  H29  1  0.26450500  0.30710400  0.85407300  1
  H  H30  1  0.26450500  0.19289600  0.35407300  1
  H  H31  1  0.73549500  0.69289600  0.14592700  1
  H  H32  1  0.80690600  0.91961300  0.69573200  1
  H  H33  1  0.19309400  0.41961300  0.80426800  1
  H  H34  1  0.19309400  0.08038700  0.30426800  1
  H  H35  1  0.80690600  0.58038700  0.19573200  1
  H  H36  1  0.45245500  0.58340300  0.60826900  1
  H  H37  1  0.54754500  0.08340300  0.89173100  1
  H  H38  1  0.54754500  0.41659700  0.39173100  1
  H  H39  1  0.45245500  0.91659700  0.10826900  1
  H  H40  1  0.64808400  0.58474600  0.60371600  1
  H  H41  1  0.35191600  0.08474600  0.89628400  1
  H  H42  1  0.35191600  0.41525400  0.39628400  1
  H  H43  1  0.64808400  0.91525400  0.10371600  1
  H  H44  1  0.51677800  0.50444800  0.55209600  1
  H  H45  1  0.48322200  0.00444800  0.94790400  1
  H  H46  1  0.48322200  0.49555200  0.44790400  1
  H  H47  1  0.51677800  0.99555200  0.05209600  1
  H  H48  1  0.49233800  0.28297400  0.73937500  1
  H  H49  1  0.50766200  0.78297400  0.76062500  1
  H  H50  1  0.50766200  0.71702600  0.26062500  1
  H  H51  1  0.49233800  0.21702600  0.23937500  1
  H  H52  1  0.40570300  0.17198000  0.77479600  1
  H  H53  1  0.59429700  0.67198000  0.72520400  1
  H  H54  1  0.59429700  0.82802000  0.22520400  1
  H  H55  1  0.40570300  0.32802000  0.27479600  1
  H  H56  1  0.13926200  0.97516200  0.53132500  1
  H  H57  1  0.86073800  0.47516200  0.96867500  1
  H  H58  1  0.86073800  0.02483800  0.46867500  1
  H  H59  1  0.13926200  0.52483800  0.03132500  1
  H  H60  1  0.31668800  0.02137000  0.51611300  1
  H  H61  1  0.68331200  0.52137000  0.98388700  1
  H  H62  1  0.68331200  0.97863000  0.48388700  1
  H  H63  1  0.31668800  0.47863000  0.01611300  1
  H  H64  1  0.92372000  0.84320200  0.58601700  1
  H  H65  1  0.07628000  0.34320200  0.91398300  1
  H  H66  1  0.07628000  0.15679800  0.41398300  1
  H  H67  1  0.92372000  0.65679800  0.08601700  1
  H  H68  1  0.01620300  0.81585700  0.65996400  1
  H  H69  1  0.98379700  0.31585700  0.84003600  1
  H  H70  1  0.98379700  0.18414300  0.34003600  1
  H  H71  1  0.01620300  0.68414300  0.15996400  1
  H  H72  1  0.61050000  0.45564000  0.68417500  1
  H  H73  1  0.38950000  0.95564000  0.81582500  1
  H  H74  1  0.38950000  0.54436000  0.31582500  1
  H  H75  1  0.61050000  0.04436000  0.18417500  1
  H  H76  1  0.67283600  0.37492200  0.62814200  1
  H  H77  1  0.32716400  0.87492200  0.87185800  1
  H  H78  1  0.32716400  0.62507800  0.37185800  1
  H  H79  1  0.67283600  0.12507800  0.12814200  1
  H  H80  1  0.99254100  0.33123700  0.67931500  1
  H  H81  1  0.00745900  0.83123700  0.82068500  1
  H  H82  1  0.00745900  0.66876300  0.32068500  1
  H  H83  1  0.99254100  0.16876300  0.17931500  1
  H  H84  1  0.18875500  0.36620400  0.68506700  1
  H  H85  1  0.81124500  0.86620400  0.81493300  1
  H  H86  1  0.81124500  0.63379600  0.31493300  1
  H  H87  1  0.18875500  0.13379600  0.18506700  1
  H  H88  1  0.96520700  0.50714200  0.62172600  1
  H  H89  1  0.03479300  0.00714200  0.87827400  1
  H  H90  1  0.03479300  0.49285800  0.37827400  1
  H  H91  1  0.96520700  0.99285800  0.12172600  1
  H  H92  1  0.13815800  0.48227700  0.59716500  1
  H  H93  1  0.86184200  0.98227700  0.90283500  1
  H  H94  1  0.86184200  0.51772300  0.40283500  1
  H  H95  1  0.13815800  0.01772300  0.09716500  1
  H  H96  1  0.00061200  0.39003100  0.51511300  1
  H  H97  1  0.99938800  0.89003100  0.98488700  1
  H  H98  1  0.99938800  0.60996900  0.48488700  1
  H  H99  1  0.00061200  0.10996900  0.01511300  1
  H  H100  1  0.83172800  0.38919800  0.54372100  1
  H  H101  1  0.16827200  0.88919800  0.95627900  1
  H  H102  1  0.16827200  0.61080200  0.45627900  1
  H  H103  1  0.83172800  0.11080200  0.04372100  1
  H  H104  1  0.01763400  0.18850400  0.53911100  1
  H  H105  1  0.98236600  0.68850400  0.96088900  1
  H  H106  1  0.98236600  0.81149600  0.46088900  1
  H  H107  1  0.01763400  0.31149600  0.03911100  1
  H  H108  1  0.88287000  0.20416600  0.58623500  1
  H  H109  1  0.11713000  0.70416600  0.91376500  1
  H  H110  1  0.11713000  0.79583400  0.41376500  1
  H  H111  1  0.88287000  0.29583400  0.08623500  1
  C  C0  1  0.47308900  0.18892100  0.74112700  1
  C  C1  1  0.52691100  0.68892100  0.75887300  1
  C  C2  1  0.52691100  0.81107900  0.25887300  1
  C  C3  1  0.47308900  0.31107900  0.24112700  1
  C  C4  1  0.26215900  0.97995900  0.54903600  1
  C  C5  1  0.73784100  0.47995900  0.95096400  1
  C  C6  1  0.73784100  0.02004100  0.45096400  1
  C  C7  1  0.26215900  0.52004100  0.04903600  1
  C  C8  1  0.94357200  0.87719600  0.63092900  1
  C  C9  1  0.05642800  0.37719600  0.86907100  1
  C  C10  1  0.05642800  0.12280400  0.36907100  1
  C  C11  1  0.94357200  0.62280400  0.13092900  1
  C  C12  1  0.57827700  0.42662200  0.63856800  1
  C  C13  1  0.42172300  0.92662200  0.86143200  1
  C  C14  1  0.42172300  0.57337800  0.36143200  1
  C  C15  1  0.57827700  0.07337800  0.13856800  1
  C  C16  1  0.08296000  0.34799600  0.65442000  1
  C  C17  1  0.91704000  0.84799600  0.84558000  1
  C  C18  1  0.91704000  0.65200400  0.34558000  1
  C  C19  1  0.08296000  0.15200400  0.15442000  1
  C  C20  1  0.03682500  0.44022800  0.60740100  1
  C  C21  1  0.96317500  0.94022800  0.89259900  1
  C  C22  1  0.96317500  0.55977200  0.39259900  1
  C  C23  1  0.03682500  0.05977200  0.10740100  1
  C  C24  1  0.95380800  0.37038200  0.55402900  1
  C  C25  1  0.04619200  0.87038200  0.94597100  1
  C  C26  1  0.04619200  0.62961800  0.44597100  1
  C  C27  1  0.95380800  0.12961800  0.05402900  1
  C  C28  1  0.98230800  0.24304900  0.57241400  1
  C  C29  1  0.01769200  0.74304900  0.92758600  1
  C  C30  1  0.01769200  0.75695100  0.42758600  1
  C  C31  1  0.98230800  0.25695100  0.07241400  1
  C  C32  1  0.62413700  0.12587200  0.75483600  1
  C  C33  1  0.37586300  0.62587200  0.74516400  1
  C  C34  1  0.37586300  0.87412800  0.24516400  1
  C  C35  1  0.62413700  0.37412800  0.25483600  1
  C  C36  1  0.32682300  0.85940400  0.56323300  1
  C  C37  1  0.67317700  0.35940400  0.93676700  1
  C  C38  1  0.67317700  0.14059600  0.43676700  1
  C  C39  1  0.32682300  0.64059600  0.06323300  1
  C  C40  1  0.79232600  0.89201500  0.65009100  1
  C  C41  1  0.20767400  0.39201500  0.84990900  1
  C  C42  1  0.20767400  0.10798500  0.34990900  1
  C  C43  1  0.79232600  0.60798500  0.15009100  1
  C  C44  1  0.54553700  0.53050800  0.59803900  1
  C  C45  1  0.45446300  0.03050800  0.90196100  1
  C  C46  1  0.45446300  0.46949200  0.40196100  1
  C  C47  1  0.54553700  0.96949200  0.09803900  1
  Cl  Cl0  1  0.11514200  0.11409100  0.74669600  1
  Cl  Cl1  1  0.88485800  0.61409100  0.75330400  1
  Cl  Cl2  1  0.88485800  0.88590900  0.25330400  1
  Cl  Cl3  1  0.11514200  0.38590900  0.24669600  1
  Cl  Cl4  1  0.31113500  0.25297500  0.51595000  1
  Cl  Cl5  1  0.68886500  0.75297500  0.98405000  1
  Cl  Cl6  1  0.68886500  0.74702500  0.48405000  1
  Cl  Cl7  1  0.31113500  0.24702500  0.01595000  1
  O  O0  1  0.10732000  0.24439800  0.62220200  1
  O  O1  1  0.89268000  0.74439800  0.87779800  1
  O  O2  1  0.89268000  0.75560200  0.37779800  1
  O  O3  1  0.10732000  0.25560200  0.12220200  1
  O  O4  1  0.58049100  0.16352500  0.60606600  1
  O  O5  1  0.41950900  0.66352500  0.89393400  1
  O  O6  1  0.41950900  0.83647500  0.39393400  1
  O  O7  1  0.58049100  0.33647500  0.10606600  1
  O  O8  1  0.27796100  0.91826300  0.69743200  1
  O  O9  1  0.72203900  0.41826300  0.80256800  1
  O  O10  1  0.72203900  0.08173700  0.30256800  1
  O  O11  1  0.27796100  0.58173700  0.19743200  1
  O  O12  1  0.37978500  0.15448100  0.68648800  1
  O  O13  1  0.62021500  0.65448100  0.81351200  1
  O  O14  1  0.62021500  0.84551900  0.31351200  1
  O  O15  1  0.37978500  0.34551900  0.18648800  1
  O  O16  1  0.28472500  0.05728500  0.59827400  1
  O  O17  1  0.71527500  0.55728500  0.90172600  1
  O  O18  1  0.71527500  0.94271500  0.40172600  1
  O  O19  1  0.28472500  0.44271500  0.09827400  1
  O  O20  1  0.44783400  0.35361900  0.63494600  1
  O  O21  1  0.55216600  0.85361900  0.86505400  1
  O  O22  1  0.55216600  0.64638100  0.36505400  1
  O  O23  1  0.44783400  0.14638100  0.13494600  1
  O  O24  1  0.02173700  0.98529900  0.63046700  1
  O  O25  1  0.97826300  0.48529900  0.86953300  1
  O  O26  1  0.97826300  0.01470100  0.36953300  1
  O  O27  1  0.02173700  0.51470100  0.13046700  1
loop_
_geom_bond_atom_site_label_1
_geom_bond_atom_site_label_2
_geom_bond_distance
_geom_bond_site_symmetry_2
C0 H52 1.099191 1_555
C0 H48 1.100402 1_555
C0 O12 1.442666 1_555
C1 H53 1.099191 1_555
C1 H49 1.100402 1_555
C1 O13 1.442666 1_555
C2 H54 1.099191 1_555
C2 H50 1.100402 1_555
C2 O14 1.442666 1_555
C3 H55 1.099191 1_555
C3 H51 1.100402 1_555
C3 O15 1.442666 1_555
C4 H60 1.098316 1_565
C4 H56 1.102799 1_555
C4 O16 1.439976 1_565
C5 H61 1.098316 1_555
C5 H57 1.102799 1_555
C5 O17 1.439976 1_555
C6 H62 1.098316 1_545
C6 H58 1.102799 1_555
C6 O18 1.439976 1_545
C7 H63 1.098316 1_555
C7 H59 1.102799 1_555
C7 O19 1.439976 1_555
C8 H68 1.102974 1_655
C8 H64 1.103385 1_555
C8 O24 1.431757 1_655
C9 H69 1.102974 1_455
C9 H65 1.103385 1_555
C9 O25 1.431757 1_455
C10 H70 1.102974 1_455
C10 H66 1.103385 1_555
C10 O26 1.431757 1_455
C11 H71 1.102974 1_655
C11 H67 1.103385 1_555
C11 O27 1.431757 1_655
C12 H72 1.102436 1_555
C12 H76 1.102501 1_555
C12 O20 1.431572 1_555
C13 H73 1.102436 1_555
C13 H77 1.102501 1_555
C13 O21 1.431572 1_555
C14 H74 1.102436 1_555
C14 H78 1.102501 1_555
C14 O22 1.431572 1_555
C15 H75 1.102436 1_555
C15 H79 1.102501 1_555
C15 O23 1.431572 1_555
C16 H84 1.094603 1_555
C16 H80 1.103487 1_455
C16 O0 1.451563 1_555
C17 H85 1.094603 1_555
C17 H81 1.103487 1_655
C17 O1 1.451563 1_555
C18 H86 1.094603 1_555
C18 H82 1.103487 1_655
C18 O2 1.451563 1_555
C19 H87 1.094603 1_555
C19 H83 1.103487 1_455
C19 O3 1.451563 1_555
C20 H92 1.097330 1_555
C20 H88 1.097409 1_455
C21 H93 1.097330 1_555
C21 H89 1.097409 1_665
C22 H94 1.097330 1_555
C22 H90 1.097409 1_655
C23 H95 1.097330 1_555
C23 H91 1.097409 1_445
C24 H96 1.097377 1_655
C24 H100 1.097632 1_555
C25 H97 1.097377 1_455
C25 H101 1.097632 1_555
C26 H98 1.097377 1_455
C26 H102 1.097632 1_555
C27 H99 1.097377 1_655
C27 H103 1.097632 1_555
C28 H104 1.094791 1_655
C28 H108 1.101752 1_555
C28 O0 1.453748 1_655
C29 H105 1.094791 1_455
C29 H109 1.101752 1_555
C29 O1 1.453748 1_455
C30 H106 1.094791 1_455
C30 H110 1.101752 1_555
C30 O2 1.453748 1_455
C31 H107 1.094791 1_655
C31 H111 1.101752 1_555
C31 O3 1.453748 1_655
C32 H0 1.097743 1_555
C32 H8 1.098320 1_555
C32 H4 1.099792 1_555
C33 H1 1.097743 1_555
C33 H9 1.098320 1_555
C33 H5 1.099792 1_555
C34 H2 1.097743 1_555
C34 H10 1.098320 1_555
C34 H6 1.099792 1_555
C35 H3 1.097743 1_555
C35 H11 1.098320 1_555
C35 H7 1.099792 1_555
C36 H20 1.097213 1_555
C36 H12 1.098210 1_555
C36 H16 1.099731 1_555
C37 H21 1.097213 1_555
C37 H13 1.098210 1_555
C37 H17 1.099731 1_555
C38 H22 1.097213 1_555
C38 H14 1.098210 1_555
C38 H18 1.099731 1_555
C39 H23 1.097213 1_555
C39 H15 1.098210 1_555
C39 H19 1.099731 1_555
C40 H24 1.097350 1_555
C40 H32 1.097659 1_555
C40 H28 1.099856 1_555
C41 H25 1.097350 1_555
C41 H33 1.097659 1_555
C41 H29 1.099856 1_555
C42 H26 1.097350 1_555
C42 H34 1.097659 1_555
C42 H30 1.099856 1_555
C43 H27 1.097350 1_555
C43 H35 1.097659 1_555
C43 H31 1.099856 1_555
C44 H36 1.097659 1_555
C44 H44 1.097954 1_555
C44 H40 1.099770 1_555
C45 H37 1.097659 1_555
C45 H45 1.097954 1_555
C45 H41 1.099770 1_555
C46 H38 1.097659 1_555
C46 H46 1.097954 1_555
C46 H42 1.099770 1_555
C47 H39 1.097659 1_555
C47 H47 1.097954 1_555
C47 H43 1.099770 1_555
Cl0 V0 2.280233 1_555
Cl1 V1 2.280233 1_555
Cl2 V2 2.280233 1_555
Cl3 V3 2.280233 1_555
Cl4 V4 2.285825 1_555
Cl5 V5 2.285825 1_555
Cl6 V6 2.285825 1_555
Cl7 V7 2.285825 1_555
O0 V0 2.698141 1_555
O1 V1 2.698141 1_555
O2 V2 2.698141 1_555
O3 V3 2.698141 1_555
O4 V4 1.611957 1_555
O5 V5 1.611957 1_555
O6 V6 1.611957 1_555
O7 V7 1.611957 1_555
O8 V0 1.616887 1_565
O9 V1 1.616887 1_555
O10 V2 1.616887 1_545
O11 V3 1.616887 1_555
O12 V4 1.952933 1_555
O12 V0 2.079223 1_555
O13 V5 1.952933 1_555
O13 V1 2.079223 1_555
O14 V6 1.952933 1_555
O14 V2 2.079223 1_555
O15 V7 1.952933 1_555
O15 V3 2.079223 1_555
O16 V0 1.965002 1_555
O16 V4 2.059886 1_555
O17 V1 1.965002 1_555
O17 V5 2.059886 1_555
O18 V2 1.965002 1_555
O18 V6 2.059886 1_555
O19 V3 1.965002 1_555
O19 V7 2.059886 1_555
O20 V4 1.795932 1_555
O21 V5 1.795932 1_555
O22 V6 1.795932 1_555
O23 V7 1.795932 1_555
O24 V0 1.791268 1_565
O25 V1 1.791268 1_555
O26 V2 1.791268 1_545
O27 V3 1.791268 1_555
