# generated using pymatgen
data_KNdNb4O12
_symmetry_space_group_name_H-M   'P 1'
_cell_length_a   5.62871948
_cell_length_b   5.62871948
_cell_length_c   7.99868291
_cell_angle_alpha   90.00000000
_cell_angle_beta   90.00000000
_cell_angle_gamma   90.20040750
_symmetry_Int_Tables_number   1
_chemical_formula_structural   KNdNb4O12
_chemical_formula_sum   'K1 Nd1 Nb4 O12'
_cell_volume   253.41658474
_cell_formula_units_Z   1
loop_
 _symmetry_equiv_pos_site_id
 _symmetry_equiv_pos_as_xyz
  1  'x, y, z'
loop_
 _atom_site_type_symbol
 _atom_site_label
 _atom_site_symmetry_multiplicity
 _atom_site_fract_x
 _atom_site_fract_y
 _atom_site_fract_z
 _atom_site_occupancy
  K  K0  1  0.01509940  0.98490060  0.50000000  1
  Nd  Nd0  1  0.47821571  0.52178429  -0.00000000  1
  Nb  Nb0  1  0.50863011  0.99680353  0.25274265  1
  Nb  Nb1  1  0.50863011  0.99680353  0.74725735  1
  Nb  Nb2  1  0.00319647  0.49136989  0.74725735  1
  Nb  Nb3  1  0.00319647  0.49136989  0.25274265  1
  O  O0  1  0.22952673  0.23145780  0.23844408  1
  O  O1  1  0.76854220  0.77047327  0.23844408  1
  O  O2  1  0.76854220  0.77047327  0.76155592  1
  O  O3  1  0.22952673  0.23145780  0.76155592  1
  O  O4  1  0.27778570  0.72221430  0.26512500  1
  O  O5  1  0.71130936  0.28869064  0.20369323  1
  O  O6  1  0.71130936  0.28869064  0.79630677  1
  O  O7  1  0.27778570  0.72221430  0.73487500  1
  O  O8  1  0.47404693  0.95270089  -0.00000000  1
  O  O9  1  0.52605699  0.02869930  0.50000000  1
  O  O10  1  0.04729911  0.52595307  -0.00000000  1
  O  O11  1  0.97130070  0.47394301  0.50000000  1
loop_
_geom_bond_atom_site_label_1
_geom_bond_atom_site_label_2
_geom_bond_distance
_geom_bond_site_symmetry_2
K0 O11 2.764559 1_465
K0 O9 2.764559 1_465
K0 O0 2.783505 1_565
K0 O3 2.783505 1_565
K0 O1 2.783505 1_455
K0 O2 2.783505 1_455
K0 O7 2.813754 1_555
K0 O4 2.813754 1_555
K0 O9 2.885724 1_565
K0 O11 2.885724 1_455
Nd0 O8 2.425704 1_555
Nd0 O10 2.425704 1_555
Nd0 O6 2.471715 1_554
Nd0 O5 2.471715 1_555
Nd0 O4 2.655480 1_555
Nd0 O7 2.655480 1_554
Nd0 O2 2.872542 1_554
Nd0 O1 2.872542 1_555
Nd0 O3 2.872542 1_554
Nd0 O0 2.872542 1_555
Nb0 O1 1.946626 1_555
Nb0 O9 1.988255 1_565
Nb0 O4 2.018150 1_555
Nb0 O5 2.035087 1_565
Nb0 O8 2.045991 1_555
Nb0 O0 2.059160 1_565
Nb1 O2 1.946626 1_555
Nb1 O9 1.988255 1_565
Nb1 O7 2.018150 1_555
Nb1 O6 2.035087 1_565
Nb1 O8 2.045991 1_556
Nb1 O3 2.059160 1_565
Nb2 O3 1.946626 1_555
Nb2 O11 1.988255 1_455
Nb2 O7 2.018150 1_555
Nb2 O6 2.035087 1_455
Nb2 O10 2.045991 1_556
Nb2 O2 2.059160 1_455
Nb3 O0 1.946626 1_555
Nb3 O11 1.988255 1_455
Nb3 O4 2.018150 1_555
Nb3 O5 2.035087 1_455
Nb3 O10 2.045991 1_555
Nb3 O1 2.059160 1_455
