# generated using pymatgen
data_KMg14CO16
_symmetry_space_group_name_H-M   'P 1'
_cell_length_a   8.62838130
_cell_length_b   8.62838130
_cell_length_c   4.31690983
_cell_angle_alpha   90.00000000
_cell_angle_beta   90.00000000
_cell_angle_gamma   90.00000000
_symmetry_Int_Tables_number   1
_chemical_formula_structural   KMg14CO16
_chemical_formula_sum   'K1 Mg14 C1 O16'
_cell_volume   321.38946391
_cell_formula_units_Z   1
loop_
 _symmetry_equiv_pos_site_id
 _symmetry_equiv_pos_as_xyz
  1  'x, y, z'
loop_
 _atom_site_type_symbol
 _atom_site_label
 _atom_site_symmetry_multiplicity
 _atom_site_fract_x
 _atom_site_fract_y
 _atom_site_fract_z
 _atom_site_occupancy
  K  K0  1  0.00000000  0.00000000  -0.00000000  1
  Mg  Mg0  1  0.00000000  0.50000000  -0.00000000  1
  Mg  Mg1  1  0.50000000  0.00000000  -0.00000000  1
  Mg  Mg2  1  0.00000000  0.25654408  0.50000000  1
  Mg  Mg3  1  0.00000000  0.74345592  0.50000000  1
  Mg  Mg4  1  0.50000000  0.25397896  0.50000000  1
  Mg  Mg5  1  0.50000000  0.74602104  0.50000000  1
  Mg  Mg6  1  0.25654408  0.00000000  0.50000000  1
  Mg  Mg7  1  0.25397896  0.50000000  0.50000000  1
  Mg  Mg8  1  0.74345592  0.00000000  0.50000000  1
  Mg  Mg9  1  0.74602104  0.50000000  0.50000000  1
  Mg  Mg10  1  0.25204753  0.25204753  -0.00000000  1
  Mg  Mg11  1  0.25204753  0.74795247  0.00000000  1
  Mg  Mg12  1  0.74795247  0.25204753  -0.00000000  1
  Mg  Mg13  1  0.74795247  0.74795247  0.00000000  1
  C  C0  1  0.50000000  0.50000000  -0.00000000  1
  O  O0  1  0.27590907  0.00000000  -0.00000000  1
  O  O1  1  0.26633732  0.50000000  0.00000000  1
  O  O2  1  0.72409093  0.00000000  -0.00000000  1
  O  O3  1  0.73366268  0.50000000  -0.00000000  1
  O  O4  1  0.25174689  0.25174689  0.50000000  1
  O  O5  1  0.25174689  0.74825311  0.50000000  1
  O  O6  1  0.74825311  0.25174689  0.50000000  1
  O  O7  1  0.74825311  0.74825311  0.50000000  1
  O  O8  1  0.00000000  0.00000000  0.50000000  1
  O  O9  1  0.00000000  0.50000000  0.50000000  1
  O  O10  1  0.50000000  0.00000000  0.50000000  1
  O  O11  1  0.50000000  0.50000000  0.50000000  1
  O  O12  1  0.00000000  0.27590907  -0.00000000  1
  O  O13  1  0.00000000  0.72409093  -0.00000000  1
  O  O14  1  0.50000000  0.26633732  0.00000000  1
  O  O15  1  0.50000000  0.73366268  -0.00000000  1
loop_
_geom_bond_atom_site_label_1
_geom_bond_atom_site_label_2
_geom_bond_distance
_geom_bond_site_symmetry_2
K0 O8 2.158455 1_554
K0 O8 2.158455 1_555
K0 O0 2.380649 1_555
K0 O12 2.380649 1_555
K0 O2 2.380649 1_455
K0 O13 2.380649 1_545
Mg0 O12 1.933542 1_555
Mg0 O13 1.933542 1_555
Mg0 O9 2.158455 1_555
Mg0 O9 2.158455 1_554
Mg0 O3 2.298060 1_455
Mg0 O1 2.298060 1_555
Mg1 O2 1.933542 1_555
Mg1 O0 1.933542 1_555
Mg1 O10 2.158455 1_555
Mg1 O10 2.158455 1_554
Mg1 O15 2.298060 1_545
Mg1 O14 2.298060 1_555
Mg2 O9 2.100631 1_555
Mg2 O12 2.164913 1_555
Mg2 O12 2.164913 1_556
Mg2 O6 2.172562 1_455
Mg2 O4 2.172562 1_555
Mg2 O8 2.213560 1_555
Mg3 O9 2.100631 1_555
Mg3 O13 2.164913 1_555
Mg3 O13 2.164913 1_556
Mg3 O7 2.172562 1_455
Mg3 O5 2.172562 1_555
Mg3 O8 2.213560 1_565
Mg4 O11 2.122763 1_555
Mg4 O4 2.142109 1_555
Mg4 O6 2.142109 1_555
Mg4 O14 2.161087 1_556
Mg4 O14 2.161087 1_555
Mg4 O10 2.191427 1_555
Mg5 O11 2.122763 1_555
Mg5 O5 2.142109 1_555
Mg5 O7 2.142109 1_555
Mg5 O15 2.161087 1_556
Mg5 O15 2.161087 1_555
Mg5 O10 2.191427 1_565
Mg6 O10 2.100631 1_555
Mg6 O0 2.164913 1_555
Mg6 O0 2.164913 1_556
Mg6 O5 2.172562 1_545
Mg6 O4 2.172562 1_555
Mg6 O8 2.213560 1_555
Mg7 O11 2.122763 1_555
Mg7 O4 2.142109 1_555
Mg7 O5 2.142109 1_555
Mg7 O1 2.161087 1_556
Mg7 O1 2.161087 1_555
Mg7 O9 2.191427 1_555
Mg8 O10 2.100631 1_555
Mg8 O2 2.164913 1_555
Mg8 O2 2.164913 1_556
Mg8 O7 2.172562 1_545
Mg8 O6 2.172562 1_555
Mg8 O8 2.213560 1_655
Mg9 O11 2.122763 1_555
Mg9 O6 2.142109 1_555
Mg9 O7 2.142109 1_555
Mg9 O3 2.161087 1_556
Mg9 O3 2.161087 1_555
Mg9 O9 2.191427 1_655
Mg10 O1 2.142978 1_555
Mg10 O14 2.142978 1_555
Mg10 O4 2.158458 1_554
Mg10 O4 2.158458 1_555
Mg10 O12 2.184486 1_555
Mg10 O0 2.184486 1_555
Mg11 O1 2.142978 1_555
Mg11 O15 2.142978 1_555
Mg11 O5 2.158458 1_554
Mg11 O5 2.158458 1_555
Mg11 O13 2.184486 1_555
Mg11 O0 2.184486 1_565
Mg12 O14 2.142978 1_555
Mg12 O3 2.142978 1_555
Mg12 O6 2.158458 1_555
Mg12 O6 2.158458 1_554
Mg12 O12 2.184486 1_655
Mg12 O2 2.184486 1_555
Mg13 O15 2.142978 1_555
Mg13 O3 2.142978 1_555
Mg13 O7 2.158458 1_555
Mg13 O7 2.158458 1_554
Mg13 O2 2.184486 1_565
Mg13 O13 2.184486 1_655
C0 O14 2.016131 1_555
C0 O15 2.016131 1_555
C0 O3 2.016131 1_555
C0 O1 2.016131 1_555
C0 O11 2.158455 1_554
C0 O11 2.158455 1_555
