# generated using pymatgen
data_Te3MoWSe
_symmetry_space_group_name_H-M   'P 1'
_cell_length_a   3.50065958
_cell_length_b   3.50065958
_cell_length_c   39.61217500
_cell_angle_alpha   90.00000000
_cell_angle_beta   90.00000000
_cell_angle_gamma   119.99999198
_symmetry_Int_Tables_number   1
_chemical_formula_structural   Te3MoWSe
_chemical_formula_sum   'Te6 Mo2 W2 Se2'
_cell_volume   420.39652244
_cell_formula_units_Z   2
loop_
 _symmetry_equiv_pos_site_id
 _symmetry_equiv_pos_as_xyz
  1  'x, y, z'
loop_
 _atom_site_type_symbol
 _atom_site_label
 _atom_site_symmetry_multiplicity
 _atom_site_fract_x
 _atom_site_fract_y
 _atom_site_fract_z
 _atom_site_occupancy
  Te  Te0  1  0.00000000  0.00000000  0.32830600  1
  Te  Te1  1  0.00000000  0.00000000  0.70403400  1
  Te  Te2  1  0.33333300  0.66666700  0.04769900  1
  Te  Te3  1  0.33333300  0.66666700  0.14014400  1
  Te  Te4  1  0.00000000  0.00000000  0.23529900  1
  Te  Te5  1  0.00000000  0.00000000  0.61101400  1
  Mo  Mo0  1  0.00000000  0.00000000  0.09390300  1
  Mo  Mo1  1  0.00000000  0.00000000  0.46966600  1
  W  W0  1  0.33333300  0.66666700  0.28182100  1
  W  W1  1  0.33333300  0.66666700  0.65753100  1
  Se  Se0  1  0.33333300  0.66666700  0.42877700  1
  Se  Se1  1  0.33333300  0.66666700  0.51055300  1
loop_
_geom_bond_atom_site_label_1
_geom_bond_atom_site_label_2
_geom_bond_distance
_geom_bond_site_symmetry_2
Te0 W0 2.734139 1_545
Te0 W0 2.734141 1_445
Te0 W0 2.734141 1_555
Te1 W1 2.734619 1_545
Te1 W1 2.734621 1_555
Te1 W1 2.734621 1_445
Te4 W0 2.735126 1_545
Te4 W0 2.735128 1_445
Te4 W0 2.735128 1_555
Te5 W1 2.734993 1_545
Te5 W1 2.734995 1_555
Te5 W1 2.734995 1_445
Mo0 Te2 2.726655 1_545
Mo0 Te2 2.726657 1_445
Mo0 Te2 2.726657 1_555
Mo0 Te3 2.727639 1_545
Mo0 Te3 2.727641 1_555
Mo0 Te3 2.727641 1_445
Mo1 Se1 2.589989 1_545
Mo1 Se1 2.589991 1_445
Mo1 Se1 2.589991 1_555
Mo1 Se0 2.590038 1_545
Mo1 Se0 2.590041 1_445
Mo1 Se0 2.590041 1_555
