# generated using pymatgen
data_YTi2O4
_symmetry_space_group_name_H-M   'P 1'
_cell_length_a   6.29881764
_cell_length_b   6.29881764
_cell_length_c   6.29881764
_cell_angle_alpha   122.16493215
_cell_angle_beta   117.67375992
_cell_angle_gamma   90.18364633
_symmetry_Int_Tables_number   1
_chemical_formula_structural   YTi2O4
_chemical_formula_sum   'Y2 Ti4 O8'
_cell_volume   176.58633533
_cell_formula_units_Z   2
loop_
 _symmetry_equiv_pos_site_id
 _symmetry_equiv_pos_as_xyz
  1  'x, y, z'
loop_
 _atom_site_type_symbol
 _atom_site_label
 _atom_site_symmetry_multiplicity
 _atom_site_fract_x
 _atom_site_fract_y
 _atom_site_fract_z
 _atom_site_occupancy
  Y  Y0  1  0.00000000  0.50000000  0.50000000  1
  Y  Y1  1  0.50000000  0.50000000  0.00000000  1
  Ti  Ti0  1  0.37714800  0.12714800  0.25000000  1
  Ti  Ti1  1  0.62285200  0.87285200  0.75000000  1
  Ti  Ti2  1  0.00000000  0.50000000  0.00000000  1
  Ti  Ti3  1  0.00000000  0.00000000  0.50000000  1
  O  O0  1  0.76803800  0.76142500  0.00661300  1
  O  O1  1  0.25481200  0.76142500  0.49338700  1
  O  O2  1  0.75928200  0.77256600  0.51328400  1
  O  O3  1  0.23196200  0.23857500  0.99338700  1
  O  O4  1  0.24071800  0.75400300  0.01328400  1
  O  O5  1  0.74518800  0.23857500  0.50661300  1
  O  O6  1  0.75928200  0.24599700  0.98671600  1
  O  O7  1  0.24071800  0.22743400  0.48671600  1
loop_
_geom_bond_atom_site_label_1
_geom_bond_atom_site_label_2
_geom_bond_distance
_geom_bond_site_symmetry_2
O0 Ti1 1.944349 1_554
O0 Ti3 2.201579 1_665
O0 Ti2 2.201579 1_655
O0 Y1 2.325405 1_555
O1 Ti1 1.944349 1_555
O1 Ti2 2.201579 1_555
O1 Ti3 2.201579 1_565
O1 Y0 2.325405 1_555
O2 Ti1 1.884548 1_555
O2 Ti3 2.142375 1_665
O2 Y1 2.288037 1_555
O2 Y0 2.288037 1_655
O3 Ti0 1.944349 1_556
O3 Ti3 2.201579 1_555
O3 Ti2 2.201579 1_556
O3 Y1 2.325405 1_556
O4 Ti0 1.884543 1_565
O4 Ti2 2.142380 1_555
O4 Y0 2.288037 1_554
O4 Y1 2.288042 1_555
O5 Ti0 1.944349 1_555
O5 Ti3 2.201579 1_655
O5 Ti2 2.201579 1_656
O5 Y0 2.325405 1_655
O6 Ti1 1.884543 1_545
O6 Ti2 2.142380 1_656
O6 Y0 2.288037 1_656
O6 Y1 2.288042 1_556
O7 Ti0 1.884548 1_555
O7 Ti3 2.142375 1_555
O7 Y0 2.288037 1_555
O7 Y1 2.288037 1_556
