# generated using pymatgen
data_Mn2Cr3Co3O16
_symmetry_space_group_name_H-M   'P 1'
_cell_length_a   5.76074500
_cell_length_b   5.77619661
_cell_length_c   8.89242289
_cell_angle_alpha   90.13969869
_cell_angle_beta   90.14708584
_cell_angle_gamma   119.84342024
_symmetry_Int_Tables_number   1
_chemical_formula_structural   Mn2Cr3Co3O16
_chemical_formula_sum   'Mn2 Cr3 Co3 O16'
_cell_volume   256.65457673
_cell_formula_units_Z   1
loop_
 _symmetry_equiv_pos_site_id
 _symmetry_equiv_pos_as_xyz
  1  'x, y, z'
loop_
 _atom_site_type_symbol
 _atom_site_label
 _atom_site_symmetry_multiplicity
 _atom_site_fract_x
 _atom_site_fract_y
 _atom_site_fract_z
 _atom_site_occupancy
  Mn  Mn0  1  0.32758200  0.66606700  0.51811900  1
  Mn  Mn1  1  0.66967500  0.33666400  0.01874400  1
  Cr  Cr0  1  0.67279400  0.83129000  0.79535600  1
  Cr  Cr1  1  0.16931100  0.32776000  0.79612600  1
  Cr  Cr2  1  0.83467200  0.16188100  0.29735200  1
  Co  Co0  1  0.17339000  0.82903500  0.78609700  1
  Co  Co1  1  0.82932300  0.66089200  0.28986400  1
  Co  Co2  1  0.33175500  0.15791500  0.29028700  1
  O  O0  1  0.66300400  0.83155900  0.39266900  1
  O  O1  1  0.47322000  0.52416400  0.66110000  1
  O  O2  1  0.32838700  0.67381200  0.90096600  1
  O  O3  1  0.00833900  0.99199900  0.68419100  1
  O  O4  1  0.00876800  0.99380700  0.18721300  1
  O  O5  1  0.16420100  0.34464100  0.39413000  1
  O  O6  1  0.47620000  0.95655700  0.66011900  1
  O  O7  1  0.04174800  0.52496000  0.66035300  1
  O  O8  1  0.82935400  0.17408100  0.89090000  1
  O  O9  1  0.15876300  0.83100400  0.39468200  1
  O  O10  1  0.95591000  0.48190200  0.16397000  1
  O  O11  1  0.53234900  0.04574000  0.15418000  1
  O  O12  1  0.65404700  0.33319700  0.39743900  1
  O  O13  1  0.83260600  0.66613500  0.89494200  1
  O  O14  1  0.52763300  0.48377200  0.15988800  1
  O  O15  1  0.33717100  0.17137000  0.89559000  1
loop_
_geom_bond_atom_site_label_1
_geom_bond_atom_site_label_2
_geom_bond_distance
_geom_bond_site_symmetry_2
Mn0 O7 1.911907 1_555
Mn0 O1 1.917379 1_555
Mn0 O6 1.922829 1_555
Mn0 O5 1.947834 1_555
Mn0 O9 1.995009 1_555
Mn0 O0 2.017391 1_555
Mn1 O11 1.895213 1_555
Mn1 O14 1.912846 1_555
Mn1 O10 1.922891 1_555
Mn1 O8 1.969882 1_554
Mn1 O15 1.985926 1_554
Mn1 O13 1.988075 1_554
Cr0 O13 1.848208 1_555
Cr0 O8 1.914764 1_565
Cr0 O3 1.950324 1_655
Cr0 O1 1.961366 1_555
Cr0 O2 1.965540 1_555
Cr0 O6 2.016236 1_555
Cr1 O15 1.844533 1_555
Cr1 O8 1.901449 1_455
Cr1 O3 1.951397 1_545
Cr1 O1 1.958188 1_555
Cr1 O2 1.966683 1_555
Cr1 O7 2.032344 1_555
Cr2 O5 1.857790 1_655
Cr2 O0 1.863098 1_545
Cr2 O4 1.969023 1_645
Cr2 O12 1.969596 1_555
Cr2 O11 1.981353 1_555
Cr2 O10 2.010371 1_555
Co0 O2 1.855022 1_555
Co0 O3 1.871314 1_555
Co0 O7 1.889640 1_555
Co0 O6 1.890958 1_555
Co0 O13 1.962638 1_455
Co0 O15 1.969099 1_565
Co1 O9 1.888517 1_655
Co1 O10 1.898131 1_555
Co1 O14 1.901932 1_555
Co1 O12 1.905005 1_555
Co1 O4 1.906481 1_655
Co1 O0 1.914601 1_555
Co2 O4 1.852644 1_545
Co2 O12 1.869610 1_555
Co2 O9 1.887064 1_545
Co2 O11 1.992137 1_555
Co2 O5 1.995881 1_555
Co2 O14 2.015970 1_555
