# generated using pymatgen
data_Fe2(TeO4)3
_symmetry_space_group_name_H-M   'P 1'
_cell_length_a   6.81162500
_cell_length_b   8.71103421
_cell_length_c   10.35005366
_cell_angle_alpha   108.72442392
_cell_angle_beta   104.03420790
_cell_angle_gamma   103.19262782
_symmetry_Int_Tables_number   1
_chemical_formula_structural   Fe2(TeO4)3
_chemical_formula_sum   'Fe4 Te6 O24'
_cell_volume   532.04030257
_cell_formula_units_Z   2
loop_
 _symmetry_equiv_pos_site_id
 _symmetry_equiv_pos_as_xyz
  1  'x, y, z'
loop_
 _atom_site_type_symbol
 _atom_site_label
 _atom_site_symmetry_multiplicity
 _atom_site_fract_x
 _atom_site_fract_y
 _atom_site_fract_z
 _atom_site_occupancy
  Fe  Fe0  1  0.37389000  0.95990400  0.61548300  1
  Fe  Fe1  1  0.62611000  0.04009600  0.38451700  1
  Fe  Fe2  1  0.04608100  0.21214600  0.01761900  1
  Fe  Fe3  1  0.95391900  0.78785400  0.98238100  1
  Te  Te0  1  0.88219900  0.88224600  0.65821000  1
  Te  Te1  1  0.11780100  0.11775400  0.34179000  1
  Te  Te2  1  0.21286900  0.67239800  0.26545500  1
  Te  Te3  1  0.78713100  0.32760200  0.73454500  1
  Te  Te4  1  0.60616200  0.27780400  0.14396400  1
  Te  Te5  1  0.39383800  0.72219600  0.85603600  1
  O  O0  1  0.07293900  0.05157900  0.14102900  1
  O  O1  1  0.92706100  0.94842100  0.85897100  1
  O  O2  1  0.56067500  0.13290800  0.24125400  1
  O  O3  1  0.43932500  0.86709200  0.75874600  1
  O  O4  1  0.18407200  0.44514600  0.17851100  1
  O  O5  1  0.81592800  0.55485400  0.82148900  1
  O  O6  1  0.99691000  0.27415700  0.84617300  1
  O  O7  1  0.00309000  0.72584300  0.15382700  1
  O  O8  1  0.24317800  0.80990000  0.97239600  1
  O  O9  1  0.75682200  0.19010000  0.02760400  1
  O  O10  1  0.87935200  0.98351800  0.35802900  1
  O  O11  1  0.12064800  0.01648200  0.64197100  1
  O  O12  1  0.52184600  0.21274500  0.73366200  1
  O  O13  1  0.47815400  0.78725500  0.26633800  1
  O  O14  1  0.33633800  0.21758100  0.00995600  1
  O  O15  1  0.66366200  0.78241900  0.99004400  1
  O  O16  1  0.32875600  0.02994100  0.41800800  1
  O  O17  1  0.67124400  0.97005900  0.58199200  1
  O  O18  1  0.21986800  0.72427900  0.45490800  1
  O  O19  1  0.78013200  0.27572100  0.54509200  1
  O  O20  1  0.74108100  0.50354600  0.25562400  1
  O  O21  1  0.25891900  0.49645400  0.74437600  1
  O  O22  1  0.18655400  0.34634200  0.42628900  1
  O  O23  1  0.81344600  0.65365800  0.57371100  1
loop_
_geom_bond_atom_site_label_1
_geom_bond_atom_site_label_2
_geom_bond_distance
_geom_bond_site_symmetry_2
Fe0 O3 1.914309 1_555
Fe0 O11 1.955588 1_565
Fe0 O12 2.005526 1_565
Fe0 O18 2.014200 1_555
Fe0 O17 2.123418 1_555
Fe0 O16 2.285960 1_565
Fe1 O2 1.914309 1_555
Fe1 O10 1.955588 1_545
Fe1 O13 2.005526 1_545
Fe1 O19 2.014200 1_555
Fe1 O16 2.123418 1_555
Fe1 O17 2.285960 1_545
Fe2 O9 1.966856 1_455
Fe2 O14 1.988286 1_555
Fe2 O6 1.990598 1_454
Fe2 O4 1.994025 1_555
Fe2 O1 2.171054 1_444
Fe2 O0 2.184454 1_555
Fe3 O8 1.966856 1_655
Fe3 O15 1.988286 1_555
Fe3 O7 1.990598 1_656
Fe3 O5 1.994025 1_555
Fe3 O0 2.171054 1_666
Fe3 O1 2.184454 1_555
O0 Te1 1.893647 1_555
O1 Te0 1.893647 1_555
O2 Te4 1.868667 1_555
O3 Te5 1.868667 1_555
O4 Te2 1.833167 1_555
O5 Te3 1.833167 1_555
O6 Te3 1.855195 1_555
O7 Te2 1.855195 1_555
O8 Te5 1.858451 1_555
O9 Te4 1.858451 1_555
O10 Te1 1.850773 1_665
O11 Te0 1.850773 1_445
O12 Te3 1.851305 1_555
O13 Te2 1.851305 1_555
O14 Te4 1.852928 1_555
O15 Te5 1.852928 1_555
O16 Te1 1.900427 1_555
O17 Te0 1.900427 1_555
O18 Te2 1.851301 1_555
O19 Te3 1.851301 1_555
O20 Te4 1.802225 1_555
O21 Te5 1.802225 1_555
O22 Te1 1.790764 1_555
O23 Te0 1.790764 1_555
