# generated using pymatgen
data_ZnSn2H12(OF)6
_symmetry_space_group_name_H-M   'P 1'
_cell_length_a   7.06189830
_cell_length_b   7.15177833
_cell_length_c   7.17175119
_cell_angle_alpha   76.19421219
_cell_angle_beta   72.45696481
_cell_angle_gamma   79.76038751
_symmetry_Int_Tables_number   1
_chemical_formula_structural   ZnSn2H12(OF)6
_chemical_formula_sum   'Zn1 Sn2 H12 O6 F6'
_cell_volume   333.18856036
_cell_formula_units_Z   1
loop_
 _symmetry_equiv_pos_site_id
 _symmetry_equiv_pos_as_xyz
  1  'x, y, z'
loop_
 _atom_site_type_symbol
 _atom_site_label
 _atom_site_symmetry_multiplicity
 _atom_site_fract_x
 _atom_site_fract_y
 _atom_site_fract_z
 _atom_site_occupancy
  Zn  Zn0  1  0.00000000  0.00000000  0.00000000  1
  Sn  Sn0  1  0.32305900  0.36524500  0.31060500  1
  Sn  Sn1  1  0.67694100  0.63475500  0.68939500  1
  H  H0  1  0.24891600  0.27213500  0.91511300  1
  H  H1  1  0.75108400  0.72786500  0.08488700  1
  H  H2  1  0.07271200  0.36801500  0.81406600  1
  H  H3  1  0.92728800  0.63198500  0.18593400  1
  H  H4  1  0.90197500  0.23912100  0.25221800  1
  H  H5  1  0.09802500  0.76087900  0.74778200  1
  H  H6  1  0.79034200  0.05191300  0.36022600  1
  H  H7  1  0.20965800  0.94808700  0.63977400  1
  H  H8  1  0.23533200  0.94500900  0.25703300  1
  H  H9  1  0.76466800  0.05499100  0.74296700  1
  H  H10  1  0.34938700  0.82793300  0.08479000  1
  H  H11  1  0.65061300  0.17206700  0.91521000  1
  O  O0  1  0.15539200  0.24392200  0.84916300  1
  O  O1  1  0.84460800  0.75607800  0.15083700  1
  O  O2  1  0.82710700  0.14439400  0.23073300  1
  O  O3  1  0.17289300  0.85560600  0.76926700  1
  O  O4  1  0.21555300  0.87092600  0.16472300  1
  O  O5  1  0.78444700  0.12907400  0.83527700  1
  F  F0  1  0.26937700  0.07247300  0.40919100  1
  F  F1  1  0.73062300  0.92752700  0.59080900  1
  F  F2  1  0.03174500  0.41405300  0.27157900  1
  F  F3  1  0.96825500  0.58594700  0.72842100  1
  F  F4  1  0.42108000  0.30257700  0.02023600  1
  F  F5  1  0.57892000  0.69742300  0.97976400  1
loop_
_geom_bond_atom_site_label_1
_geom_bond_atom_site_label_2
_geom_bond_distance
_geom_bond_site_symmetry_2
H0 O0 0.990892 1_555
H1 O1 0.990892 1_555
H2 O0 0.994814 1_555
H3 O1 0.994814 1_555
H4 O2 0.994241 1_555
H5 O3 0.994241 1_555
H6 O2 0.994924 1_555
H7 O3 0.994924 1_555
H8 O4 0.993962 1_555
H9 O5 0.993962 1_555
H10 O4 0.985195 1_555
H11 O5 0.985195 1_555
O0 Zn0 2.117059 1_556
O1 Zn0 2.117059 1_665
O2 Zn0 2.108242 1_655
O3 Zn0 2.108242 1_566
O4 Zn0 2.151486 1_565
O5 Zn0 2.151486 1_656
F0 H7 1.647647 1_545
F0 H8 1.670466 1_545
F0 Sn0 2.107571 1_555
F1 H6 1.647647 1_565
F1 H9 1.670466 1_565
F1 Sn1 2.107571 1_555
F2 Sn0 2.116022 1_555
F3 Sn1 2.116022 1_555
F4 Sn0 2.117260 1_555
F5 Sn1 2.117260 1_555
