# generated using pymatgen
data_Li7Mn4CoO12
_symmetry_space_group_name_H-M   'P 1'
_cell_length_a   5.05811500
_cell_length_b   5.08852474
_cell_length_c   8.93497111
_cell_angle_alpha   103.70054981
_cell_angle_beta   92.92837715
_cell_angle_gamma   100.48367074
_symmetry_Int_Tables_number   1
_chemical_formula_structural   Li7Mn4CoO12
_chemical_formula_sum   'Li7 Mn4 Co1 O12'
_cell_volume   218.62793804
_cell_formula_units_Z   1
loop_
 _symmetry_equiv_pos_site_id
 _symmetry_equiv_pos_as_xyz
  1  'x, y, z'
loop_
 _atom_site_type_symbol
 _atom_site_label
 _atom_site_symmetry_multiplicity
 _atom_site_fract_x
 _atom_site_fract_y
 _atom_site_fract_z
 _atom_site_occupancy
  Li  Li0  1  0.73103700  0.50795100  0.09121600  1
  Li  Li1  1  0.74270500  0.48766000  0.41013200  1
  Li  Li2  1  0.26607900  0.49719200  0.24218100  1
  Li  Li3  1  0.27000300  0.48470100  0.56761700  1
  Li  Li4  1  0.73626800  0.51473800  0.76495700  1
  Li  Li5  1  0.24786600  0.50650300  0.92487300  1
  Li  Li6  1  0.49963900  0.99997000  0.16715000  1
  Mn  Mn0  1  0.99743400  0.01501500  0.01014500  1
  Mn  Mn1  1  0.00373200  0.98662900  0.32591200  1
  Mn  Mn2  1  0.00033800  0.99985900  0.66370800  1
  Mn  Mn3  1  0.49457200  0.01309000  0.84364900  1
  Co  Co0  1  0.50895000  0.98200100  0.48446700  1
  O  O0  1  0.86030400  0.23988900  0.88403300  1
  O  O1  1  0.89518400  0.21813900  0.20148900  1
  O  O2  1  0.34419700  0.24655100  0.04508000  1
  O  O3  1  0.37050800  0.21620800  0.38180600  1
  O  O4  1  0.88342000  0.20732600  0.51802900  1
  O  O5  1  0.36108700  0.23212300  0.71245500  1
  O  O6  1  0.65295100  0.75738500  0.29394800  1
  O  O7  1  0.63732900  0.77038700  0.61624100  1
  O  O8  1  0.14555000  0.76318500  0.44937100  1
  O  O9  1  0.11411200  0.79278600  0.81304400  1
  O  O10  1  0.63283100  0.77823900  0.95447000  1
  O  O11  1  0.10390500  0.78247100  0.13402700  1
loop_
_geom_bond_atom_site_label_1
_geom_bond_atom_site_label_2
_geom_bond_distance
_geom_bond_site_symmetry_2
Li0 O6 2.052957 1_555
Li0 O11 2.090242 1_655
Li0 O2 2.116251 1_555
Li0 O10 2.147990 1_554
Li0 O1 2.210251 1_555
Li0 O0 2.228696 1_554
Li1 O6 2.005252 1_555
Li1 O3 2.087019 1_555
Li1 O4 2.102775 1_555
Li1 O7 2.206714 1_555
Li1 O8 2.212482 1_655
Li1 O1 2.296039 1_555
Li2 O2 2.018596 1_555
Li2 O1 2.093876 1_455
Li2 O6 2.114412 1_555
Li2 O11 2.175052 1_555
Li2 O8 2.204410 1_555
Li2 O3 2.220843 1_555
Li3 O3 2.036143 1_555
Li3 O7 2.095129 1_555
Li3 O5 2.116914 1_555
Li3 O8 2.118131 1_555
Li3 O4 2.150083 1_455
Li4 O10 2.051616 1_555
Li4 O0 2.106554 1_555
Li4 O9 2.117340 1_655
Li4 O5 2.117972 1_555
Li4 O7 2.167059 1_555
Li4 O4 2.612535 1_555
Li5 O2 1.998695 1_556
Li5 O0 2.131008 1_455
Li5 O9 2.134788 1_555
Li5 O10 2.137248 1_555
Li5 O5 2.241944 1_555
Li5 O11 2.294039 1_556
Li6 O1 2.072941 1_565
Li6 O11 2.072989 1_555
Li6 O2 2.074077 1_565
Li6 O6 2.080789 1_555
Li6 O3 2.169268 1_565
Li6 O10 2.174808 1_554
Mn0 O2 1.892029 1_655
Mn0 O1 1.925240 1_555
Mn0 O11 1.925322 1_645
Mn0 O0 1.969751 1_554
Mn0 O10 1.978369 1_544
Mn0 O9 2.033274 1_644
Mn1 O6 1.904637 1_455
Mn1 O11 1.926666 1_555
Mn1 O1 1.928352 1_465
Mn1 O8 1.958124 1_555
Mn1 O3 1.973872 1_565
Mn1 O4 2.005086 1_465
Mn2 O5 1.950964 1_565
Mn2 O7 1.954576 1_455
Mn2 O4 1.989465 1_465
Mn2 O9 2.007499 1_555
Mn2 O8 2.242893 1_555
Mn2 O0 2.277546 1_465
Mn3 O10 1.921344 1_545
Mn3 O0 1.960071 1_555
Mn3 O5 1.970801 1_555
Mn3 O9 2.012654 1_545
Mn3 O2 2.164466 1_556
Mn3 O7 2.336864 1_545
Co0 O3 1.872955 1_565
Co0 O7 1.935028 1_555
Co0 O8 1.935898 1_555
Co0 O4 1.995242 1_565
Co0 O6 2.059772 1_555
Co0 O5 2.367031 1_565
