# generated using pymatgen
data_Sr(GaS2)2
_symmetry_space_group_name_H-M   'P 1'
_cell_length_a   6.05379351
_cell_length_b   6.05379351
_cell_length_c   10.56736176
_cell_angle_alpha   90.00000000
_cell_angle_beta   90.00000000
_cell_angle_gamma   120.35967764
_symmetry_Int_Tables_number   1
_chemical_formula_structural   Sr(GaS2)2
_chemical_formula_sum   'Sr2 Ga4 S8'
_cell_volume   334.16960170
_cell_formula_units_Z   2
loop_
 _symmetry_equiv_pos_site_id
 _symmetry_equiv_pos_as_xyz
  1  'x, y, z'
loop_
 _atom_site_type_symbol
 _atom_site_label
 _atom_site_symmetry_multiplicity
 _atom_site_fract_x
 _atom_site_fract_y
 _atom_site_fract_z
 _atom_site_occupancy
  Sr  Sr0  1  0.50000000  0.50000000  0.75000000  1
  Sr  Sr1  1  0.50000000  0.50000000  0.25000000  1
  Ga  Ga0  1  0.76416329  0.23853160  0.50000000  1
  Ga  Ga1  1  0.23583671  0.76146840  0.50000000  1
  Ga  Ga2  1  0.76146840  0.23583671  -0.00000000  1
  Ga  Ga3  1  0.23853160  0.76416329  -0.00000000  1
  S  S0  1  0.35469873  0.18143942  0.50000000  1
  S  S1  1  0.64530127  0.81856058  0.50000000  1
  S  S2  1  0.81856058  0.64530127  -0.00000000  1
  S  S3  1  0.18143942  0.35469873  -0.00000000  1
  S  S4  1  0.50000000  -0.00000000  0.83641555  1
  S  S5  1  -0.00000000  0.50000000  0.66358445  1
  S  S6  1  0.50000000  -0.00000000  0.16358445  1
  S  S7  1  -0.00000000  0.50000000  0.33641555  1
loop_
_geom_bond_atom_site_label_1
_geom_bond_atom_site_label_2
_geom_bond_distance
_geom_bond_site_symmetry_2
Ga0 S1 2.265474 1_545
Ga0 S5 2.290782 1_655
Ga0 S7 2.290782 1_655
Ga0 S0 2.323346 1_555
Ga1 S0 2.265474 1_565
Ga1 S7 2.290782 1_555
Ga1 S5 2.290782 1_555
Ga1 S1 2.323346 1_555
Ga2 S3 2.265474 1_655
Ga2 S6 2.290782 1_555
Ga2 S4 2.290782 1_554
Ga2 S2 2.323346 1_555
Ga3 S2 2.265474 1_455
Ga3 S6 2.290782 1_565
Ga3 S4 2.290782 1_564
Ga3 S3 2.323346 1_555
S0 Sr0 3.123685 1_555
S0 Sr1 3.123685 1_555
S1 Sr0 3.123685 1_555
S1 Sr1 3.123685 1_555
S2 Sr0 3.123685 1_554
S2 Sr1 3.123685 1_555
S3 Sr0 3.123685 1_554
S3 Sr1 3.123685 1_555
S4 Sr0 3.161647 1_555
S4 Sr0 3.161647 1_545
S5 Sr0 3.161647 1_555
S5 Sr0 3.161647 1_455
S6 Sr1 3.161647 1_545
S6 Sr1 3.161647 1_555
S7 Sr1 3.161647 1_555
S7 Sr1 3.161647 1_455
