# generated using pymatgen
data_Gd(CrFe5)2
_symmetry_space_group_name_H-M   'P 1'
_cell_length_a   4.68781586
_cell_length_b   6.39801653
_cell_length_c   6.41888070
_cell_angle_alpha   97.50537217
_cell_angle_beta   111.33216747
_cell_angle_gamma   68.62993616
_symmetry_Int_Tables_number   1
_chemical_formula_structural   Gd(CrFe5)2
_chemical_formula_sum   'Gd1 Cr2 Fe10'
_cell_volume   166.99965050
_cell_formula_units_Z   1
loop_
 _symmetry_equiv_pos_site_id
 _symmetry_equiv_pos_as_xyz
  1  'x, y, z'
loop_
 _atom_site_type_symbol
 _atom_site_label
 _atom_site_symmetry_multiplicity
 _atom_site_fract_x
 _atom_site_fract_y
 _atom_site_fract_z
 _atom_site_occupancy
  Gd  Gd0  1  0.99994400  0.00005900  0.99994700  1
  Cr  Cr0  1  0.00001200  0.36673400  0.36671600  1
  Cr  Cr1  1  0.00000700  0.63322000  0.63327800  1
  Fe  Fe0  1  0.72611400  0.77399800  0.22612200  1
  Fe  Fe1  1  0.27392300  0.22595600  0.77390600  1
  Fe  Fe2  1  0.49987000  0.77110800  0.77101800  1
  Fe  Fe3  1  0.50012000  0.22891500  0.22898200  1
  Fe  Fe4  1  0.49996900  0.00002900  0.50002300  1
  Fe  Fe5  1  0.00002500  0.00003000  0.50002400  1
  Fe  Fe6  1  0.49999900  0.49997700  0.99997400  1
  Fe  Fe7  1  0.99999500  0.49997800  0.99997300  1
  Fe  Fe8  1  0.64204800  0.35831000  0.64177500  1
  Fe  Fe9  1  0.35797300  0.64168700  0.35826200  1
loop_
_geom_bond_atom_site_label_1
_geom_bond_atom_site_label_2
_geom_bond_distance
_geom_bond_site_symmetry_2
Cr0 Cr1 2.252217 1_555
Cr0 Fe0 2.566250 1_455
Cr0 Fe1 2.573301 1_555
Cr0 Fe5 2.600206 1_555
Cr0 Fe4 2.605326 1_555
Cr0 Fe7 2.606247 1_454
Cr0 Fe6 2.610761 1_454
Cr0 Fe3 2.616409 1_455
Cr0 Fe3 2.617861 1_555
Cr0 Fe9 2.855863 1_555
Cr0 Fe8 2.860486 1_455
Cr0 Fe9 2.864212 1_455
Cr0 Fe8 2.866919 1_555
Cr0 Gd0 3.098923 1_454
Cr1 Fe1 2.566316 1_555
Cr1 Fe0 2.573109 1_455
Cr1 Fe5 2.600758 1_565
Cr1 Fe4 2.605867 1_465
Cr1 Fe7 2.606010 1_455
Cr1 Fe6 2.610534 1_555
Cr1 Fe2 2.616559 1_555
Cr1 Fe2 2.617992 1_455
Cr1 Fe8 2.855713 1_455
Cr1 Fe9 2.860350 1_555
Cr1 Fe8 2.864078 1_555
Cr1 Fe9 2.866768 1_455
Cr1 Gd0 3.099190 1_465
Fe0 Fe6 2.423728 1_554
Fe0 Fe5 2.424423 1_665
Fe0 Fe7 2.424865 1_554
Fe0 Fe4 2.425037 1_565
Fe0 Fe9 2.594530 1_555
Fe0 Fe9 2.596542 1_655
Fe0 Fe3 2.710552 1_565
Fe0 Fe2 2.721211 1_554
Fe0 Gd0 3.017429 1_564
Fe0 Gd0 3.025320 1_464
Fe1 Fe6 2.423463 1_555
Fe1 Fe5 2.423864 1_555
Fe1 Fe4 2.424492 1_555
Fe1 Fe7 2.424611 1_455
Fe1 Fe8 2.594595 1_555
Fe1 Fe8 2.596599 1_455
Fe1 Fe2 2.710142 1_545
Fe1 Fe3 2.721048 1_556
Fe1 Gd0 3.016638 1_455
Fe1 Gd0 3.024527 1_555
Fe2 Fe6 2.415289 1_555
Fe2 Fe4 2.416117 1_565
Fe2 Fe5 2.420844 1_565
Fe2 Fe7 2.420928 1_555
Fe2 Fe8 2.579697 1_555
Fe2 Fe9 2.587219 1_555
Fe2 Gd0 3.038849 1_565
Fe2 Gd0 3.039523 1_465
Fe3 Fe6 2.415189 1_554
Fe3 Fe4 2.416314 1_555
Fe3 Fe7 2.420859 1_454
Fe3 Fe5 2.421036 1_655
Fe3 Fe9 2.579616 1_555
Fe3 Fe8 2.587383 1_555
Fe3 Gd0 3.038888 1_454
Fe3 Gd0 3.039548 1_554
Fe4 Fe5 2.343645 1_555
Fe4 Fe5 2.344170 1_655
Fe4 Fe8 2.579337 1_555
Fe4 Fe9 2.579534 1_545
Fe4 Gd0 3.212308 1_555
Fe4 Gd0 3.213058 1_454
Fe5 Fe8 2.580922 1_455
Fe5 Fe9 2.581137 1_545
Fe5 Gd0 3.209060 1_455
Fe5 Gd0 3.209821 1_454
Fe6 Fe7 2.343894 1_555
Fe6 Fe7 2.343922 1_455
Fe6 Fe8 2.584780 1_555
Fe6 Fe9 2.585305 1_556
Fe6 Gd0 3.203141 1_555
Fe6 Gd0 3.204052 1_465
Fe7 Fe8 2.584707 1_555
Fe7 Fe9 2.585251 1_656
Fe7 Gd0 3.198555 1_555
Fe7 Gd0 3.199461 1_565
Fe8 Fe9 2.389881 1_555
Fe8 Gd0 3.020260 1_555
Fe9 Gd0 3.021373 1_464
