# generated using pymatgen
data_LiCd4(TcO3)4
_symmetry_space_group_name_H-M   'P 1'
_cell_length_a   5.60464102
_cell_length_b   5.55592406
_cell_length_c   7.93153374
_cell_angle_alpha   90.11757136
_cell_angle_beta   90.04512309
_cell_angle_gamma   89.12583772
_symmetry_Int_Tables_number   1
_chemical_formula_structural   LiCd4(TcO3)4
_chemical_formula_sum   'Li1 Cd4 Tc4 O12'
_cell_volume   246.95037570
_cell_formula_units_Z   1
loop_
 _symmetry_equiv_pos_site_id
 _symmetry_equiv_pos_as_xyz
  1  'x, y, z'
loop_
 _atom_site_type_symbol
 _atom_site_label
 _atom_site_symmetry_multiplicity
 _atom_site_fract_x
 _atom_site_fract_y
 _atom_site_fract_z
 _atom_site_occupancy
  Li  Li0  1  0.77457800  0.68004300  0.25247800  1
  Cd  Cd0  1  0.43795100  0.42405600  0.24601400  1
  Cd  Cd1  1  0.99165200  0.08002600  0.25435700  1
  Cd  Cd2  1  0.49046200  0.46100400  0.74624700  1
  Cd  Cd3  1  0.00994200  0.98144800  0.74451200  1
  Tc  Tc0  1  0.00208900  0.51662000  0.98622100  1
  Tc  Tc1  1  0.49902100  0.00582400  0.50370500  1
  Tc  Tc2  1  0.99844100  0.51873800  0.51185200  1
  Tc  Tc3  1  0.49946700  0.00124400  0.99417400  1
  O  O0  1  0.81029900  0.82313100  0.04532900  1
  O  O1  1  0.69451600  0.32197500  0.44928900  1
  O  O2  1  0.19617800  0.21072100  0.54887300  1
  O  O3  1  0.30259000  0.70991100  0.94724900  1
  O  O4  1  0.20323800  0.21294600  0.94744800  1
  O  O5  1  0.29821200  0.71560600  0.56771500  1
  O  O6  1  0.81306300  0.83128700  0.45551500  1
  O  O7  1  0.70205500  0.31527500  0.04859600  1
  O  O8  1  0.39677900  0.98707100  0.25002100  1
  O  O9  1  0.06702100  0.49928100  0.25083100  1
  O  O10  1  0.60693200  0.04745400  0.74964900  1
  O  O11  1  0.89598800  0.53729400  0.74992600  1
loop_
_geom_bond_atom_site_label_1
_geom_bond_atom_site_label_2
_geom_bond_distance
_geom_bond_site_symmetry_2
Li0 O6 1.829052 1_555
Li0 O0 1.839103 1_555
Li0 O9 1.909185 1_655
Li0 O1 2.576219 1_555
Cd0 O9 2.114624 1_555
Cd0 O1 2.228015 1_555
Cd0 O7 2.231720 1_555
Cd0 Li0 2.380413 1_555
Cd0 O8 2.442573 1_545
Cd1 O8 2.321155 1_645
Cd1 O6 2.347568 1_545
Cd1 O9 2.373898 1_655
Cd1 O0 2.418850 1_545
Cd1 Li0 2.549751 1_545
Cd1 O1 2.626412 1_555
Cd1 O7 2.635527 1_555
Cd1 O2 2.704109 1_655
Cd1 O4 2.813522 1_654
Cd2 O5 2.264155 1_555
Cd2 O11 2.318511 1_555
Cd2 O3 2.347757 1_555
Cd2 O10 2.379182 1_555
Cd2 O4 2.668010 1_555
Cd2 O2 2.676139 1_555
Cd2 O1 2.724335 1_555
Cd2 O7 2.790510 1_556
Cd3 O2 2.274022 1_565
Cd3 O10 2.283156 1_465
Cd3 O4 2.334523 1_565
Cd3 O11 2.558864 1_455
Cd3 O5 2.584660 1_555
Cd3 O6 2.680297 1_455
Cd3 O3 2.735364 1_555
Cd3 O0 2.785902 1_456
O0 Tc3 2.031440 1_564
O0 Tc0 2.053518 1_654
O1 Tc2 2.096693 1_555
O1 Tc1 2.129485 1_555
O2 Tc2 2.046148 1_455
O2 Tc1 2.060467 1_555
O3 Tc3 2.006836 1_565
O3 Tc0 2.035370 1_555
O4 Tc0 2.037773 1_555
O4 Tc3 2.053895 1_555
O5 Tc1 2.045478 1_565
O5 Tc2 2.066001 1_455
O6 Tc1 2.032689 1_565
O6 Tc2 2.059604 1_555
O7 Tc0 2.094004 1_654
O7 Tc3 2.139207 1_554
O8 Tc1 2.094498 1_565
O8 Tc3 2.111683 1_564
O9 Tc2 2.108227 1_455
O9 Tc0 2.131920 1_554
O10 Tc3 2.049093 1_555
O10 Tc1 2.055510 1_555
O11 Tc0 1.968861 1_655
O11 Tc2 1.976132 1_555
