# generated using pymatgen
data_AlV2O4
_symmetry_space_group_name_H-M   'P 1'
_cell_length_a   5.52392720
_cell_length_b   5.31791532
_cell_length_c   6.50400743
_cell_angle_alpha   110.88620651
_cell_angle_beta   115.93825398
_cell_angle_gamma   97.98494667
_symmetry_Int_Tables_number   1
_chemical_formula_structural   AlV2O4
_chemical_formula_sum   'Al2 V4 O8'
_cell_volume   150.31439036
_cell_formula_units_Z   2
loop_
 _symmetry_equiv_pos_site_id
 _symmetry_equiv_pos_as_xyz
  1  'x, y, z'
loop_
 _atom_site_type_symbol
 _atom_site_label
 _atom_site_symmetry_multiplicity
 _atom_site_fract_x
 _atom_site_fract_y
 _atom_site_fract_z
 _atom_site_occupancy
  Al  Al0  1  0.91849300  0.17918500  0.86164200  1
  Al  Al1  1  0.08150700  0.82081500  0.13835800  1
  V  V0  1  0.50000000  0.00000000  0.00000000  1
  V  V1  1  0.50000000  0.50000000  0.00000000  1
  V  V2  1  0.00000000  0.50000000  0.50000000  1
  V  V3  1  0.50000000  0.50000000  0.50000000  1
  O  O0  1  0.73274600  0.46464900  0.83524900  1
  O  O1  1  0.06205000  0.85507400  0.82284200  1
  O  O2  1  0.26725400  0.53535100  0.16475100  1
  O  O3  1  0.93795000  0.14492600  0.17715800  1
  O  O4  1  0.45213700  0.09895000  0.30111500  1
  O  O5  1  0.88232200  0.70662200  0.29316900  1
  O  O6  1  0.11767800  0.29337800  0.70683100  1
  O  O7  1  0.54786300  0.90105000  0.69888600  1
loop_
_geom_bond_atom_site_label_1
_geom_bond_atom_site_label_2
_geom_bond_distance
_geom_bond_site_symmetry_2
Al0 O7 1.909514 1_545
Al0 O6 1.952625 1_655
Al0 O0 1.962466 1_555
Al0 O1 1.976859 1_645
Al0 O2 2.046159 1_656
Al0 O3 2.082067 1_556
Al1 O4 1.909512 1_565
Al1 O5 1.952625 1_455
Al1 O2 1.962466 1_555
Al1 O3 1.976859 1_465
Al1 O0 2.046159 1_454
Al1 O1 2.082067 1_554
O0 V1 1.991278 1_556
O0 V3 2.085604 1_555
O1 V0 2.045598 1_566
O1 V2 2.110808 1_555
O2 V1 1.991278 1_555
O2 V3 2.085604 1_555
O3 V0 2.045598 1_555
O3 V2 2.110808 1_655
O4 V3 1.966936 1_555
O4 V0 1.984730 1_555
O5 V1 1.908384 1_555
O5 V2 1.981659 1_655
O6 V1 1.908384 1_556
O6 V2 1.981659 1_555
O7 V3 1.966938 1_555
O7 V0 1.984724 1_566
