# generated using pymatgen
data_MgAl2SiO5
_symmetry_space_group_name_H-M   'P 1'
_cell_length_a   5.44789500
_cell_length_b   14.66248610
_cell_length_c   14.66248610
_cell_angle_alpha   113.91076317
_cell_angle_beta   90.00000000
_cell_angle_gamma   90.00000000
_symmetry_Int_Tables_number   1
_chemical_formula_structural   MgAl2SiO5
_chemical_formula_sum   'Mg8 Al16 Si8 O40'
_cell_volume   1070.71686030
_cell_formula_units_Z   8
loop_
 _symmetry_equiv_pos_site_id
 _symmetry_equiv_pos_as_xyz
  1  'x, y, z'
loop_
 _atom_site_type_symbol
 _atom_site_label
 _atom_site_symmetry_multiplicity
 _atom_site_fract_x
 _atom_site_fract_y
 _atom_site_fract_z
 _atom_site_occupancy
  Mg  Mg0  1  0.78077300  0.73939900  0.04087800  1
  Mg  Mg1  1  0.78077300  0.26060100  0.95912200  1
  Mg  Mg2  1  0.21922700  0.95912200  0.26060100  1
  Mg  Mg3  1  0.71922700  0.76060100  0.45912200  1
  Mg  Mg4  1  0.21922700  0.04087800  0.73939900  1
  Mg  Mg5  1  0.71922700  0.23939900  0.54087800  1
  Mg  Mg6  1  0.28077300  0.54087800  0.23939900  1
  Mg  Mg7  1  0.28077300  0.45912200  0.76060100  1
  Al  Al0  1  0.69973800  0.48298000  0.58120000  1
  Al  Al1  1  0.69973800  0.51702000  0.41880000  1
  Al  Al2  1  0.30026200  0.41880000  0.51702000  1
  Al  Al3  1  0.80026200  0.01702000  0.91880000  1
  Al  Al4  1  0.30026200  0.58120000  0.48298000  1
  Al  Al5  1  0.80026200  0.98298000  0.08120000  1
  Al  Al6  1  0.19973800  0.08120000  0.98298000  1
  Al  Al7  1  0.19973800  0.91880000  0.01702000  1
  Al  Al8  1  0.74386200  0.55994900  0.09777000  1
  Al  Al9  1  0.74386200  0.44005100  0.90223000  1
  Al  Al10  1  0.25613800  0.90223000  0.44005100  1
  Al  Al11  1  0.75613800  0.94005100  0.40223000  1
  Al  Al12  1  0.25613800  0.09777000  0.55994900  1
  Al  Al13  1  0.75613800  0.05994900  0.59777000  1
  Al  Al14  1  0.24386200  0.59777000  0.05994900  1
  Al  Al15  1  0.24386200  0.40223000  0.94005100  1
  Si  Si0  1  0.87950300  0.58323800  0.79973600  1
  Si  Si1  1  0.87950300  0.41676200  0.20026400  1
  Si  Si2  1  0.12049700  0.20026400  0.41676200  1
  Si  Si3  1  0.62049700  0.91676200  0.70026400  1
  Si  Si4  1  0.12049700  0.79973600  0.58323800  1
  Si  Si5  1  0.62049700  0.08323800  0.29973600  1
  Si  Si6  1  0.37950300  0.29973600  0.08323800  1
  Si  Si7  1  0.37950300  0.70026400  0.91676200  1
  O  O0  1  0.87741300  0.56023300  0.68413400  1
  O  O1  1  0.87741300  0.43976700  0.31586600  1
  O  O2  1  0.12258700  0.31586600  0.43976700  1
  O  O3  1  0.62258700  0.93976700  0.81586600  1
  O  O4  1  0.12258700  0.68413400  0.56023300  1
  O  O5  1  0.62258700  0.06023300  0.18413400  1
  O  O6  1  0.37741300  0.18413400  0.06023300  1
  O  O7  1  0.37741300  0.81586600  0.93976700  1
  O  O8  1  0.64828500  0.64865200  0.86619600  1
  O  O9  1  0.64828500  0.35134800  0.13380400  1
  O  O10  1  0.35171500  0.13380400  0.35134800  1
  O  O11  1  0.85171500  0.85134800  0.63380400  1
  O  O12  1  0.35171500  0.86619600  0.64865200  1
  O  O13  1  0.85171500  0.14865200  0.36619600  1
  O  O14  1  0.14828500  0.36619600  0.14865200  1
  O  O15  1  0.14828500  0.63380400  0.85134800  1
  O  O16  1  0.94773600  0.65911200  0.09984400  1
  O  O17  1  0.94773600  0.34088800  0.90015600  1
  O  O18  1  0.05226400  0.90015600  0.34088800  1
  O  O19  1  0.55226400  0.84088800  0.40015600  1
  O  O20  1  0.05226400  0.09984400  0.65911200  1
  O  O21  1  0.55226400  0.15911200  0.59984400  1
  O  O22  1  0.44773600  0.59984400  0.15911200  1
  O  O23  1  0.44773600  0.40015600  0.84088800  1
  O  O24  1  0.89086800  0.85051900  0.01654800  1
  O  O25  1  0.89086800  0.14948100  0.98345200  1
  O  O26  1  0.10913200  0.98345200  0.14948100  1
  O  O27  1  0.60913200  0.64948100  0.48345200  1
  O  O28  1  0.10913200  0.01654800  0.85051900  1
  O  O29  1  0.60913200  0.35051900  0.51654800  1
  O  O30  1  0.39086800  0.51654800  0.35051900  1
  O  O31  1  0.39086800  0.48345200  0.64948100  1
  O  O32  1  0.90946800  0.47551500  0.81104200  1
  O  O33  1  0.90946800  0.52448500  0.18895800  1
  O  O34  1  0.09053200  0.18895800  0.52448500  1
  O  O35  1  0.59053200  0.02448500  0.68895800  1
  O  O36  1  0.09053200  0.81104200  0.47551500  1
  O  O37  1  0.59053200  0.97551500  0.31104200  1
  O  O38  1  0.40946800  0.31104200  0.97551500  1
  O  O39  1  0.40946800  0.68895800  0.02448500  1
loop_
_geom_bond_atom_site_label_1
_geom_bond_atom_site_label_2
_geom_bond_distance
_geom_bond_site_symmetry_2
Mg0 O24 1.900729 1_555
Mg0 O16 1.945701 1_555
Mg0 O39 2.133660 1_555
Mg0 O8 2.467575 1_554
Mg1 O25 1.900729 1_555
Mg1 O17 1.945701 1_555
Mg1 O38 2.133660 1_555
Mg1 O9 2.467575 1_556
Mg2 O26 1.900729 1_555
Mg2 O18 1.945701 1_555
Mg2 O37 2.133660 1_555
Mg2 O10 2.467575 1_565
Mg3 O27 1.900729 1_555
Mg3 O19 1.945701 1_555
Mg3 O36 2.133660 1_655
Mg3 O11 2.467575 1_555
Mg4 O28 1.900729 1_555
Mg4 O20 1.945701 1_555
Mg4 O35 2.133660 1_555
Mg4 O12 2.467575 1_545
Mg5 O29 1.900729 1_555
Mg5 O21 1.945701 1_555
Mg5 O34 2.133660 1_655
Mg5 O13 2.467575 1_555
Mg6 O30 1.900729 1_555
Mg6 O22 1.945701 1_555
Mg6 O33 2.133660 1_455
Mg6 O14 2.467575 1_555
Mg7 O31 1.900729 1_555
Mg7 O23 1.945701 1_555
Mg7 O32 2.133660 1_455
Mg7 O15 2.467575 1_555
Al0 O0 1.764101 1_555
Al0 O29 1.849859 1_555
Al0 O31 1.956584 1_555
Al1 O1 1.764101 1_555
Al1 O27 1.849859 1_555
Al1 O30 1.956584 1_555
Al2 O2 1.764101 1_555
Al2 O31 1.849859 1_555
Al2 O29 1.956584 1_555
Al3 O3 1.764101 1_545
Al3 O25 1.849859 1_555
Al3 O28 1.956584 1_655
Al4 O4 1.764101 1_555
Al4 O30 1.849859 1_555
Al4 O27 1.956584 1_555
Al5 O5 1.764101 1_565
Al5 O24 1.849859 1_555
Al5 O26 1.956584 1_655
Al6 O6 1.764101 1_556
Al6 O28 1.849859 1_555
Al6 O25 1.956584 1_455
Al7 O7 1.764101 1_554
Al7 O26 1.849859 1_555
Al7 O24 1.956584 1_455
Al8 O16 1.820096 1_555
Al8 O22 1.824081 1_555
Al8 O33 1.853546 1_555
Al9 O17 1.820096 1_555
Al9 O23 1.824081 1_555
Al9 O32 1.853546 1_555
Al10 O18 1.820096 1_555
Al10 O19 1.824081 1_555
Al10 O36 1.853546 1_555
Al11 O19 1.820096 1_555
Al11 O18 1.824081 1_655
Al11 O37 1.853546 1_555
Al12 O20 1.820096 1_555
Al12 O21 1.824081 1_555
Al12 O34 1.853546 1_555
Al13 O21 1.820096 1_555
Al13 O20 1.824081 1_655
Al13 O35 1.853546 1_555
Al14 O22 1.820096 1_555
Al14 O16 1.824081 1_455
Al14 O39 1.853546 1_555
Al15 O23 1.820096 1_555
Al15 O17 1.824081 1_455
Al15 O38 1.853546 1_555
O0 Si0 1.588554 1_555
O1 Si1 1.588554 1_555
O2 Si2 1.588554 1_555
O3 Si3 1.588554 1_555
O4 Si4 1.588554 1_555
O5 Si5 1.588554 1_555
O6 Si6 1.588554 1_555
O7 Si7 1.588554 1_555
O8 Si0 1.642741 1_555
O8 Si7 1.676822 1_555
O9 Si1 1.642741 1_555
O9 Si6 1.676822 1_555
O10 Si2 1.642741 1_555
O10 Si5 1.676822 1_555
O11 Si3 1.642741 1_555
O11 Si4 1.676822 1_655
O12 Si4 1.642741 1_555
O12 Si3 1.676822 1_555
O13 Si5 1.642741 1_555
O13 Si2 1.676822 1_655
O14 Si6 1.642741 1_555
O14 Si1 1.676822 1_455
O15 Si7 1.642741 1_555
O15 Si0 1.676822 1_455
O32 Si0 1.661675 1_555
O33 Si1 1.661675 1_555
O34 Si2 1.661675 1_555
O35 Si3 1.661675 1_545
O36 Si4 1.661675 1_555
O37 Si5 1.661675 1_565
O38 Si6 1.661675 1_556
O39 Si7 1.661675 1_554
