# generated using pymatgen
data_TaNiAs
_symmetry_space_group_name_H-M   'P 1'
_cell_length_a   3.70268000
_cell_length_b   6.29053100
_cell_length_c   7.30167200
_cell_angle_alpha   90.00000000
_cell_angle_beta   90.00000000
_cell_angle_gamma   90.00000000
_symmetry_Int_Tables_number   1
_chemical_formula_structural   TaNiAs
_chemical_formula_sum   'Ta4 Ni4 As4'
_cell_volume   170.06925419
_cell_formula_units_Z   4
loop_
 _symmetry_equiv_pos_site_id
 _symmetry_equiv_pos_as_xyz
  1  'x, y, z'
loop_
 _atom_site_type_symbol
 _atom_site_label
 _atom_site_symmetry_multiplicity
 _atom_site_fract_x
 _atom_site_fract_y
 _atom_site_fract_z
 _atom_site_occupancy
  Ta  Ta0  1  0.25000000  0.01935300  0.33854300  1
  Ta  Ta1  1  0.25000000  0.51935300  0.16145700  1
  Ta  Ta2  1  0.75000000  0.98064700  0.66145700  1
  Ta  Ta3  1  0.75000000  0.48064700  0.83854300  1
  Ni  Ni0  1  0.25000000  0.15730800  0.92756500  1
  Ni  Ni1  1  0.25000000  0.65730800  0.57243500  1
  Ni  Ni2  1  0.75000000  0.84269200  0.07243500  1
  Ni  Ni3  1  0.75000000  0.34269200  0.42756500  1
  As  As0  1  0.25000000  0.28610700  0.62380800  1
  As  As1  1  0.25000000  0.78610700  0.87619200  1
  As  As2  1  0.75000000  0.71389300  0.37619200  1
  As  As3  1  0.75000000  0.21389300  0.12380800  1
loop_
_geom_bond_atom_site_label_1
_geom_bond_atom_site_label_2
_geom_bond_distance
_geom_bond_site_symmetry_2
Ni0 Ta3 2.826132 1_555
Ni0 Ta3 2.826132 1_455
Ni0 Ta1 2.846646 1_556
Ni0 Ta2 2.904790 1_545
Ni0 Ta2 2.904790 1_445
Ni1 Ta2 2.826132 1_555
Ni1 Ta2 2.826132 1_455
Ni1 Ta0 2.846646 1_565
Ni1 Ta3 2.904790 1_455
Ni1 Ta3 2.904790 1_555
Ni2 Ta1 2.826132 1_655
Ni2 Ta1 2.826132 1_555
Ni2 Ta3 2.846646 1_554
Ni2 Ta0 2.904790 1_565
Ni2 Ta0 2.904790 1_665
Ni3 Ta0 2.826132 1_555
Ni3 Ta0 2.826132 1_655
Ni3 Ta2 2.846646 1_545
Ni3 Ta1 2.904790 1_655
Ni3 Ta1 2.904790 1_555
As0 Ni0 2.361287 1_555
As0 Ni1 2.364989 1_555
As0 Ni3 2.367988 1_455
As0 Ni3 2.367988 1_555
As0 Ta0 2.674750 1_555
As0 Ta2 2.682390 1_545
As0 Ta2 2.682390 1_445
As0 Ta3 2.717248 1_455
As0 Ta3 2.717248 1_555
As1 Ni1 2.361287 1_555
As1 Ni0 2.364989 1_565
As1 Ni2 2.367988 1_456
As1 Ni2 2.367988 1_556
As1 Ta1 2.674750 1_556
As1 Ta3 2.682390 1_455
As1 Ta3 2.682390 1_555
As1 Ta2 2.717248 1_555
As1 Ta2 2.717248 1_455
As2 Ni2 2.361287 1_555
As2 Ni3 2.364989 1_555
As2 Ni1 2.367988 1_555
As2 Ni1 2.367988 1_655
As2 Ta2 2.674750 1_555
As2 Ta0 2.682390 1_565
As2 Ta0 2.682390 1_665
As2 Ta1 2.717248 1_555
As2 Ta1 2.717248 1_655
As3 Ni3 2.361287 1_555
As3 Ni2 2.364989 1_545
As3 Ni0 2.367988 1_554
As3 Ni0 2.367988 1_654
As3 Ta3 2.674750 1_554
As3 Ta1 2.682390 1_555
As3 Ta1 2.682390 1_655
As3 Ta0 2.717248 1_655
As3 Ta0 2.717248 1_555
