# generated using pymatgen
data_Ti2ZnO4
_symmetry_space_group_name_H-M   'P 1'
_cell_length_a   5.02349778
_cell_length_b   5.02349778
_cell_length_c   10.14388100
_cell_angle_alpha   90.00000000
_cell_angle_beta   90.00000000
_cell_angle_gamma   146.27675510
_symmetry_Int_Tables_number   1
_chemical_formula_structural   Ti2ZnO4
_chemical_formula_sum   'Ti4 Zn2 O8'
_cell_volume   142.11891365
_cell_formula_units_Z   2
loop_
 _symmetry_equiv_pos_site_id
 _symmetry_equiv_pos_as_xyz
  1  'x, y, z'
loop_
 _atom_site_type_symbol
 _atom_site_label
 _atom_site_symmetry_multiplicity
 _atom_site_fract_x
 _atom_site_fract_y
 _atom_site_fract_z
 _atom_site_occupancy
  Ti  Ti0  1  0.12710100  0.87289900  0.06969700  1
  Ti  Ti1  1  0.87289900  0.12710100  0.93030300  1
  Ti  Ti2  1  0.12710100  0.87289900  0.43030300  1
  Ti  Ti3  1  0.87289900  0.12710100  0.56969700  1
  Zn  Zn0  1  0.61780800  0.38219200  0.75000000  1
  Zn  Zn1  1  0.38219200  0.61780800  0.25000000  1
  O  O0  1  0.77487800  0.22512200  0.38609900  1
  O  O1  1  0.22512200  0.77487800  0.61390100  1
  O  O2  1  0.22512200  0.77487800  0.88609900  1
  O  O3  1  0.77487800  0.22512200  0.11390100  1
  O  O4  1  0.03699100  0.96300900  0.25000000  1
  O  O5  1  0.96300900  0.03699100  0.75000000  1
  O  O6  1  0.50000000  0.50000000  0.00000000  1
  O  O7  1  0.50000000  0.50000000  0.50000000  1
loop_
_geom_bond_atom_site_label_1
_geom_bond_atom_site_label_2
_geom_bond_distance
_geom_bond_site_symmetry_2
O0 Ti2 2.084029 1_545
O0 Ti2 2.084029 1_655
O0 Ti3 2.087291 1_555
O0 Zn1 2.256957 1_655
O0 Zn1 2.256957 1_545
O1 Ti3 2.084029 1_455
O1 Ti3 2.084029 1_565
O1 Ti2 2.087291 1_555
O1 Zn0 2.256957 1_455
O1 Zn0 2.256957 1_565
O2 Ti1 2.084029 1_455
O2 Ti1 2.084029 1_565
O2 Ti0 2.087291 1_556
O2 Zn0 2.256957 1_455
O2 Zn0 2.256957 1_565
O3 Ti0 2.084029 1_545
O3 Ti0 2.084029 1_655
O3 Ti1 2.087291 1_554
O3 Zn1 2.256957 1_545
O3 Zn1 2.256957 1_655
O4 Ti2 2.023811 1_555
O4 Ti0 2.023811 1_555
O4 Zn1 2.082917 1_455
O4 Zn1 2.082917 1_565
O5 Ti1 2.023811 1_555
O5 Ti3 2.023811 1_555
O5 Zn0 2.082917 1_545
O5 Zn0 2.082917 1_655
O6 Ti1 2.028925 1_564
O6 Ti0 2.028925 1_655
O6 Ti0 2.028925 1_545
O6 Ti1 2.028925 1_454
O7 Ti3 2.028925 1_565
O7 Ti2 2.028925 1_655
O7 Ti3 2.028925 1_455
O7 Ti2 2.028925 1_545
