# generated using pymatgen
data_Ba4MgTl8O16
_symmetry_space_group_name_H-M   'P 1'
_cell_length_a   10.53379715
_cell_length_b   12.89487583
_cell_length_c   3.62704900
_cell_angle_alpha   90.00000000
_cell_angle_beta   90.00000000
_cell_angle_gamma   91.04245975
_symmetry_Int_Tables_number   1
_chemical_formula_structural   Ba4MgTl8O16
_chemical_formula_sum   'Ba4 Mg1 Tl8 O16'
_cell_volume   492.58779948
_cell_formula_units_Z   1
loop_
 _symmetry_equiv_pos_site_id
 _symmetry_equiv_pos_as_xyz
  1  'x, y, z'
loop_
 _atom_site_type_symbol
 _atom_site_label
 _atom_site_symmetry_multiplicity
 _atom_site_fract_x
 _atom_site_fract_y
 _atom_site_fract_z
 _atom_site_occupancy
  Ba  Ba0  1  0.22444300  0.35126000  0.75000000  1
  Ba  Ba1  1  0.23609200  0.85027900  0.25000000  1
  Ba  Ba2  1  0.75901500  0.17850200  0.75000000  1
  Ba  Ba3  1  0.74891300  0.64573700  0.25000000  1
  Mg  Mg0  1  0.46268100  0.74505100  0.75000000  1
  Tl  Tl0  1  0.06922400  0.61436600  0.75000000  1
  Tl  Tl1  1  0.07090000  0.11120600  0.75000000  1
  Tl  Tl2  1  0.40213500  0.57442400  0.25000000  1
  Tl  Tl3  1  0.42196700  0.13875100  0.25000000  1
  Tl  Tl4  1  0.60617500  0.93996900  0.75000000  1
  Tl  Tl5  1  0.57369400  0.39183400  0.75000000  1
  Tl  Tl6  1  0.91970200  0.89970600  0.25000000  1
  Tl  Tl7  1  0.91853200  0.40538400  0.25000000  1
  O  O0  1  0.01795200  0.72273300  0.25000000  1
  O  O1  1  0.07397200  0.93433100  0.75000000  1
  O  O2  1  0.11566500  0.49283200  0.25000000  1
  O  O3  1  0.19543900  0.17307800  0.25000000  1
  O  O4  1  0.29563300  0.66126000  0.75000000  1
  O  O5  1  0.40934900  0.89247600  0.75000000  1
  O  O6  1  0.40287100  0.40993000  0.25000000  1
  O  O7  1  0.49778600  0.23189200  0.75000000  1
  O  O8  1  0.51878600  0.72786100  0.25000000  1
  O  O9  1  0.56631700  0.55940500  0.75000000  1
  O  O10  1  0.62767600  0.04462000  0.25000000  1
  O  O11  1  0.71136100  0.34579000  0.25000000  1
  O  O12  1  0.78268300  0.84655600  0.75000000  1
  O  O13  1  0.87471800  0.52898800  0.75000000  1
  O  O14  1  0.92404800  0.08009500  0.25000000  1
  O  O15  1  0.97226800  0.29855700  0.75000000  1
loop_
_geom_bond_atom_site_label_1
_geom_bond_atom_site_label_2
_geom_bond_distance
_geom_bond_site_symmetry_2
Ba0 O6 2.709631 1_556
Ba0 O6 2.709631 1_555
Ba0 O15 2.729912 1_455
Ba0 O2 2.830299 1_555
Ba0 O2 2.830299 1_556
Ba0 O3 2.938673 1_556
Ba0 O3 2.938673 1_555
Ba0 O7 3.289545 1_555
Ba1 O5 2.622905 1_554
Ba1 O5 2.622905 1_555
Ba1 O1 2.728975 1_554
Ba1 O1 2.728975 1_555
Ba1 O0 2.801352 1_555
Ba1 O4 3.111056 1_554
Ba1 O4 3.111056 1_555
Ba2 O15 2.704849 1_555
Ba2 O14 2.828689 1_556
Ba2 O14 2.828689 1_555
Ba2 O10 2.845428 1_556
Ba2 O10 2.845428 1_555
Ba2 O7 2.848674 1_555
Ba2 O11 2.869422 1_556
Ba2 O11 2.869422 1_555
Ba3 O8 2.662923 1_555
Ba3 O13 2.717361 1_555
Ba3 O13 2.717361 1_554
Ba3 O9 2.854793 1_555
Ba3 O9 2.854793 1_554
Ba3 O0 2.985790 1_655
Ba3 O12 3.176097 1_555
Ba3 O12 3.176097 1_554
Mg0 O8 1.921471 1_555
Mg0 O8 1.921471 1_556
Mg0 O5 1.992077 1_555
Mg0 O4 2.048075 1_555
Mg0 O9 2.649062 1_555
O0 Tl0 2.358113 1_554
O0 Tl0 2.358113 1_555
O0 Tl6 2.522851 1_455
O1 Tl1 2.281599 1_565
O1 Tl6 2.470345 1_456
O1 Tl6 2.470345 1_455
O2 Tl7 2.344877 1_455
O2 Tl0 2.451957 1_554
O2 Tl0 2.451957 1_555
O3 Tl1 2.368190 1_555
O3 Tl1 2.368190 1_554
O3 Tl3 2.434813 1_555
O4 Tl2 2.418055 1_556
O4 Tl2 2.418055 1_555
O4 Tl0 2.449724 1_555
O5 Tl4 2.151169 1_555
O6 Tl2 2.121285 1_555
O6 Tl5 2.568364 1_555
O6 Tl5 2.568364 1_554
O7 Tl5 2.198404 1_555
O7 Tl3 2.309617 1_555
O7 Tl3 2.309617 1_556
O8 Tl2 2.309999 1_555
O9 Tl5 2.163616 1_555
O9 Tl2 2.515869 1_556
O9 Tl2 2.515869 1_555
O10 Tl4 2.269382 1_544
O10 Tl4 2.269382 1_545
O10 Tl3 2.502893 1_555
O11 Tl7 2.300419 1_555
O11 Tl5 2.403262 1_554
O11 Tl5 2.403262 1_555
O12 Tl4 2.233702 1_555
O12 Tl6 2.409523 1_556
O12 Tl6 2.409523 1_555
O13 Tl0 2.308230 1_655
O13 Tl7 2.463540 1_555
O13 Tl7 2.463540 1_556
O14 Tl6 2.325711 1_545
O14 Tl1 2.412500 1_655
O14 Tl1 2.412500 1_654
O15 Tl7 2.352703 1_556
O15 Tl7 2.352703 1_555
O15 Tl1 2.647113 1_655
