# generated using pymatgen
data_Zr9Re4P
_symmetry_space_group_name_H-M   'P 1'
_cell_length_a   8.59759193
_cell_length_b   8.59759193
_cell_length_c   8.80163700
_cell_angle_alpha   90.00000000
_cell_angle_beta   90.00000000
_cell_angle_gamma   119.99999944
_symmetry_Int_Tables_number   1
_chemical_formula_structural   Zr9Re4P
_chemical_formula_sum   'Zr18 Re8 P2'
_cell_volume   563.44008855
_cell_formula_units_Z   2
loop_
 _symmetry_equiv_pos_site_id
 _symmetry_equiv_pos_as_xyz
  1  'x, y, z'
loop_
 _atom_site_type_symbol
 _atom_site_label
 _atom_site_symmetry_multiplicity
 _atom_site_fract_x
 _atom_site_fract_y
 _atom_site_fract_z
 _atom_site_occupancy
  Zr  Zr0  1  0.19791200  0.80208800  0.45178800  1
  Zr  Zr1  1  0.19791200  0.39582400  0.45178800  1
  Zr  Zr2  1  0.60417600  0.80208800  0.45178800  1
  Zr  Zr3  1  0.80208800  0.19791200  0.54821200  1
  Zr  Zr4  1  0.80208800  0.60417600  0.54821200  1
  Zr  Zr5  1  0.39582400  0.19791200  0.54821200  1
  Zr  Zr6  1  0.80208800  0.19791200  0.95178800  1
  Zr  Zr7  1  0.80208800  0.60417600  0.95178800  1
  Zr  Zr8  1  0.39582400  0.19791200  0.95178800  1
  Zr  Zr9  1  0.19791200  0.80208800  0.04821200  1
  Zr  Zr10  1  0.19791200  0.39582400  0.04821200  1
  Zr  Zr11  1  0.60417600  0.80208800  0.04821200  1
  Zr  Zr12  1  0.53630700  0.46369300  0.25000000  1
  Zr  Zr13  1  0.53630700  0.07261400  0.25000000  1
  Zr  Zr14  1  0.92738600  0.46369300  0.25000000  1
  Zr  Zr15  1  0.46369300  0.53630700  0.75000000  1
  Zr  Zr16  1  0.46369300  0.92738600  0.75000000  1
  Zr  Zr17  1  0.07261400  0.53630700  0.75000000  1
  Re  Re0  1  0.89317200  0.10682800  0.25000000  1
  Re  Re1  1  0.89317200  0.78634400  0.25000000  1
  Re  Re2  1  0.21365600  0.10682800  0.25000000  1
  Re  Re3  1  0.10682800  0.89317200  0.75000000  1
  Re  Re4  1  0.10682800  0.21365600  0.75000000  1
  Re  Re5  1  0.78634400  0.89317200  0.75000000  1
  Re  Re6  1  0.00000000  0.00000000  0.50000000  1
  Re  Re7  1  0.00000000  0.00000000  0.00000000  1
  P  P0  1  0.33333300  0.66666700  0.25000000  1
  P  P1  1  0.66666700  0.33333300  0.75000000  1
loop_
_geom_bond_atom_site_label_1
_geom_bond_atom_site_label_2
_geom_bond_distance
_geom_bond_site_symmetry_2
Re0 Re6 2.715240 1_655
Re0 Re7 2.715240 1_655
Re0 Re1 2.755391 1_545
Re0 Re2 2.755391 1_655
Re0 Zr14 2.932188 1_555
Re0 Zr13 2.932188 1_555
Re0 Zr3 2.954502 1_555
Re0 Zr6 2.954502 1_554
Re0 Zr11 3.111694 1_545
Re0 Zr2 3.111694 1_545
Re0 Zr10 3.111694 1_655
Re0 Zr1 3.111694 1_655
Re1 Re6 2.715240 1_665
Re1 Re7 2.715240 1_665
Re1 Re2 2.755391 1_665
Re1 Zr14 2.932188 1_555
Re1 Zr12 2.932188 1_555
Re1 Zr7 2.954502 1_554
Re1 Zr4 2.954502 1_555
Re1 Zr11 3.111694 1_555
Re1 Zr2 3.111694 1_555
Re1 Zr0 3.111694 1_655
Re1 Zr9 3.111694 1_655
Re2 Re6 2.715240 1_555
Re2 Re7 2.715240 1_555
Re2 Zr13 2.932188 1_555
Re2 Zr12 2.932188 1_555
Re2 Zr8 2.954502 1_554
Re2 Zr5 2.954502 1_555
Re2 Zr1 3.111694 1_555
Re2 Zr10 3.111694 1_555
Re2 Zr9 3.111694 1_545
Re2 Zr0 3.111694 1_545
Re3 Re6 2.715240 1_565
Re3 Re7 2.715240 1_566
Re3 Re5 2.755391 1_455
Re3 Re4 2.755391 1_565
Re3 Zr16 2.932188 1_555
Re3 Zr17 2.932188 1_555
Re3 Zr9 2.954502 1_556
Re3 Zr0 2.954502 1_555
Re3 Zr7 3.111694 1_455
Re3 Zr4 3.111694 1_455
Re3 Zr5 3.111694 1_565
Re3 Zr8 3.111694 1_565
Re4 Re6 2.715240 1_555
Re4 Re7 2.715240 1_556
Re4 Re5 2.755391 1_445
Re4 Zr17 2.932188 1_555
Re4 Zr15 2.932188 1_555
Re4 Zr1 2.954502 1_555
Re4 Zr10 2.954502 1_556
Re4 Zr5 3.111694 1_555
Re4 Zr8 3.111694 1_555
Re4 Zr6 3.111694 1_455
Re4 Zr3 3.111694 1_455
Re5 Re6 2.715240 1_665
Re5 Re7 2.715240 1_666
Re5 Zr16 2.932188 1_555
Re5 Zr15 2.932188 1_555
Re5 Zr11 2.954502 1_556
Re5 Zr2 2.954502 1_555
Re5 Zr7 3.111694 1_555
Re5 Zr4 3.111694 1_555
Re5 Zr3 3.111694 1_565
Re5 Zr6 3.111694 1_565
Re6 Zr0 2.977592 1_545
Re6 Zr3 2.977592 1_455
Re6 Zr4 2.977592 1_445
Re6 Zr2 2.977592 1_445
Re6 Zr5 2.977592 1_555
Re6 Zr1 2.977592 1_555
Re7 Zr6 2.977592 1_454
Re7 Zr9 2.977592 1_545
Re7 Zr11 2.977592 1_445
Re7 Zr7 2.977592 1_444
Re7 Zr10 2.977592 1_555
Re7 Zr8 2.977592 1_554
P0 Zr9 2.687220 1_555
P0 Zr0 2.687220 1_555
P0 Zr1 2.687226 1_555
P0 Zr10 2.687226 1_555
P0 Zr11 2.687226 1_555
P0 Zr2 2.687226 1_555
P0 Zr13 3.022573 1_565
P0 Zr14 3.022573 1_455
P0 Zr12 3.022580 1_555
P1 Zr3 2.687220 1_555
P1 Zr6 2.687220 1_555
P1 Zr5 2.687226 1_555
P1 Zr8 2.687226 1_555
P1 Zr7 2.687226 1_555
P1 Zr4 2.687226 1_555
P1 Zr17 3.022573 1_655
P1 Zr16 3.022573 1_545
P1 Zr15 3.022580 1_555
