# generated using pymatgen
data_BaCaLu2F10
_symmetry_space_group_name_H-M   'P 1'
_cell_length_a   8.18654527
_cell_length_b   8.18654527
_cell_length_c   8.18654527
_cell_angle_alpha   120.82874100
_cell_angle_beta   120.82874100
_cell_angle_gamma   88.57047368
_symmetry_Int_Tables_number   1
_chemical_formula_structural   BaCaLu2F10
_chemical_formula_sum   'Ba2 Ca2 Lu4 F20'
_cell_volume   382.97096575
_cell_formula_units_Z   2
loop_
 _symmetry_equiv_pos_site_id
 _symmetry_equiv_pos_as_xyz
  1  'x, y, z'
loop_
 _atom_site_type_symbol
 _atom_site_label
 _atom_site_symmetry_multiplicity
 _atom_site_fract_x
 _atom_site_fract_y
 _atom_site_fract_z
 _atom_site_occupancy
  Ba  Ba0  1  0.25000000  0.75000000  0.50000000  1
  Ba  Ba1  1  0.75000000  0.25000000  0.50000000  1
  Ca  Ca0  1  0.75584100  0.75584100  0.00000000  1
  Ca  Ca1  1  0.24415900  0.24415900  0.00000000  1
  Lu  Lu0  1  0.23825300  0.76174700  0.00000000  1
  Lu  Lu1  1  0.23825300  0.23825300  0.47650700  1
  Lu  Lu2  1  0.76174700  0.23825300  0.00000000  1
  Lu  Lu3  1  0.76174700  0.76174700  0.52349300  1
  F  F0  1  0.16771800  0.50000000  0.66771800  1
  F  F1  1  0.48661600  0.48661600  0.65086900  1
  F  F2  1  0.48661600  0.83574700  0.00000000  1
  F  F3  1  0.50000000  0.16771800  0.66771800  1
  F  F4  1  0.16425300  0.16425300  0.65086900  1
  F  F5  1  0.51338400  0.16425300  0.00000000  1
  F  F6  1  0.50000000  0.83228200  0.33228200  1
  F  F7  1  0.51338400  0.51338400  0.34913100  1
  F  F8  1  0.16425300  0.51338400  0.00000000  1
  F  F9  1  0.83228200  0.50000000  0.33228200  1
  F  F10  1  0.83574700  0.83574700  0.34913100  1
  F  F11  1  0.83574700  0.48661600  0.00000000  1
  F  F12  1  0.12393600  0.89175400  0.23218200  1
  F  F13  1  0.10824600  0.34042900  0.23218200  1
  F  F14  1  0.10824600  0.87606400  0.76781800  1
  F  F15  1  0.65957100  0.89175400  0.76781800  1
  F  F16  1  0.87606400  0.10824600  0.76781800  1
  F  F17  1  0.89175400  0.65957100  0.76781800  1
  F  F18  1  0.89175400  0.12393600  0.23218200  1
  F  F19  1  0.34042900  0.10824600  0.23218200  1
loop_
_geom_bond_atom_site_label_1
_geom_bond_atom_site_label_2
_geom_bond_distance
_geom_bond_site_symmetry_2
Ba0 F13 2.729050 1_555
Ba0 F15 2.729050 1_555
Ba0 F14 2.729057 1_555
Ba0 F12 2.729057 1_555
Ba1 F19 2.729050 1_555
Ba1 F17 2.729050 1_555
Ba1 F16 2.729057 1_555
Ba1 F18 2.729057 1_555
Ca0 F1 2.283352 1_554
Ca0 F10 2.283352 1_555
Ca0 F11 2.283352 1_555
Ca0 F2 2.283352 1_555
Ca0 F15 2.461822 1_554
Ca0 F17 2.461822 1_554
Ca0 F12 2.461823 1_655
Ca0 F18 2.461823 1_565
Ca1 F8 2.283352 1_555
Ca1 F5 2.283352 1_555
Ca1 F4 2.283352 1_554
Ca1 F7 2.283352 1_555
Ca1 F13 2.461822 1_555
Ca1 F19 2.461822 1_555
Ca1 F16 2.461823 1_454
Ca1 F14 2.461823 1_544
F0 Lu1 2.191384 1_555
F0 Lu0 2.191387 1_556
F1 Lu1 2.136004 1_555
F2 Lu0 2.136001 1_555
F3 Lu1 2.191384 1_555
F3 Lu2 2.191387 1_556
F4 Lu1 2.135993 1_555
F5 Lu2 2.136001 1_555
F6 Lu3 2.191384 1_555
F6 Lu0 2.191387 1_555
F7 Lu3 2.136004 1_555
F8 Lu0 2.136001 1_555
F9 Lu3 2.191384 1_555
F9 Lu2 2.191387 1_555
F10 Lu3 2.135993 1_555
F11 Lu2 2.136001 1_555
F12 Lu0 2.306853 1_555
F12 Lu1 2.306854 1_565
F13 Lu2 2.306853 1_455
F13 Lu1 2.306867 1_555
F14 Lu0 2.306853 1_556
F14 Lu3 2.306854 1_455
F15 Lu2 2.306853 1_566
F15 Lu3 2.306867 1_555
F16 Lu2 2.306853 1_556
F16 Lu3 2.306854 1_545
F17 Lu0 2.306853 1_656
F17 Lu3 2.306867 1_555
F18 Lu2 2.306853 1_555
F18 Lu1 2.306854 1_655
F19 Lu0 2.306853 1_545
F19 Lu1 2.306867 1_555
