# generated using pymatgen
data_Na2Cu(SO5)2
_symmetry_space_group_name_H-M   'P 1'
_cell_length_a   12.84910700
_cell_length_b   5.46638000
_cell_length_c   6.24604184
_cell_angle_alpha   65.89628319
_cell_angle_beta   90.00000000
_cell_angle_gamma   90.00000000
_symmetry_Int_Tables_number   1
_chemical_formula_structural   Na2Cu(SO5)2
_chemical_formula_sum   'Na4 Cu2 S4 O20'
_cell_volume   400.45797035
_cell_formula_units_Z   2
loop_
 _symmetry_equiv_pos_site_id
 _symmetry_equiv_pos_as_xyz
  1  'x, y, z'
loop_
 _atom_site_type_symbol
 _atom_site_label
 _atom_site_symmetry_multiplicity
 _atom_site_fract_x
 _atom_site_fract_y
 _atom_site_fract_z
 _atom_site_occupancy
  Na  Na0  1  0.63450600  0.27881400  0.57892700  1
  Na  Na1  1  0.13450600  0.22118600  0.42107300  1
  Na  Na2  1  0.36549400  0.72118600  0.42107300  1
  Na  Na3  1  0.86549400  0.77881400  0.57892700  1
  Cu  Cu0  1  0.50000000  0.50000000  0.00000000  1
  Cu  Cu1  1  0.00000000  0.00000000  0.00000000  1
  S  S0  1  0.61823900  0.96812400  0.23775500  1
  S  S1  1  0.11823900  0.53187600  0.76224500  1
  S  S2  1  0.38176100  0.03187600  0.76224500  1
  S  S3  1  0.88176100  0.46812400  0.23775500  1
  O  O0  1  0.65968800  0.07156600  0.99516500  1
  O  O1  1  0.15968800  0.42843400  0.00483500  1
  O  O2  1  0.34031200  0.92843400  0.00483500  1
  O  O3  1  0.84031200  0.57156600  0.99516500  1
  O  O4  1  0.56196300  0.71392500  0.29477300  1
  O  O5  1  0.06196300  0.78607500  0.70522700  1
  O  O6  1  0.43803700  0.28607500  0.70522700  1
  O  O7  1  0.93803700  0.21392500  0.29477300  1
  O  O8  1  0.53592300  0.17234600  0.25211800  1
  O  O9  1  0.03592300  0.32765400  0.74788200  1
  O  O10  1  0.46407700  0.82765400  0.74788200  1
  O  O11  1  0.96407700  0.67234600  0.25211800  1
  O  O12  1  0.69639400  0.94871400  0.41448200  1
  O  O13  1  0.19639400  0.55128600  0.58551800  1
  O  O14  1  0.30360600  0.05128600  0.58551800  1
  O  O15  1  0.80360600  0.44871400  0.41448200  1
  O  O16  1  0.62054100  0.51503100  0.85665100  1
  O  O17  1  0.12054100  0.98496900  0.14334900  1
  O  O18  1  0.37945900  0.48496900  0.14334900  1
  O  O19  1  0.87945900  0.01503100  0.85665100  1
loop_
_geom_bond_atom_site_label_1
_geom_bond_atom_site_label_2
_geom_bond_distance
_geom_bond_site_symmetry_2
Na0 O0 2.396167 1_555
Na0 O15 2.420617 1_555
Na0 O4 2.495615 1_555
Na0 O12 2.541106 1_545
Na0 O16 2.556978 1_555
Na0 O6 2.649968 1_555
Na0 O8 2.660892 1_555
Na1 O1 2.396167 1_555
Na1 O14 2.420617 1_555
Na1 O5 2.495615 1_545
Na1 O13 2.541106 1_555
Na1 O17 2.556978 1_545
Na1 O7 2.649968 1_455
Na1 O9 2.660892 1_555
Na2 O2 2.396167 1_555
Na2 O13 2.420617 1_555
Na2 O6 2.495615 1_555
Na2 O14 2.541106 1_565
Na2 O18 2.556978 1_555
Na2 O4 2.649968 1_555
Na2 O10 2.660892 1_555
Na3 O3 2.396167 1_555
Na3 O12 2.420617 1_555
Na3 O7 2.495615 1_565
Na3 O15 2.541106 1_555
Na3 O19 2.556978 1_565
Na3 O5 2.649968 1_655
Na3 O11 2.660892 1_555
Cu0 O18 1.774051 1_555
Cu0 O16 1.774051 1_554
Cu0 O8 1.896607 1_555
Cu0 O10 1.896607 1_554
Cu1 O17 1.774051 1_545
Cu1 O19 1.774051 1_454
Cu1 O11 1.896607 1_445
Cu1 O9 1.896607 1_554
O0 S0 1.483067 1_546
O1 S1 1.483067 1_554
O2 S2 1.483067 1_564
O3 S3 1.483067 1_556
O4 S0 1.475245 1_555
O5 S1 1.475245 1_555
O6 S2 1.475245 1_555
O7 S3 1.475245 1_555
O8 S0 1.566780 1_545
O9 S1 1.566780 1_555
O10 S2 1.566780 1_565
O11 S3 1.566780 1_555
O12 S0 1.463738 1_555
O13 S1 1.463738 1_555
O14 S2 1.463738 1_555
O15 S3 1.463738 1_555
