# generated using pymatgen
data_PrHfO4
_symmetry_space_group_name_H-M   'P 1'
_cell_length_a   6.78883365
_cell_length_b   6.78883365
_cell_length_c   6.78883365
_cell_angle_alpha   132.22868617
_cell_angle_beta   132.22868617
_cell_angle_gamma   69.86808088
_symmetry_Int_Tables_number   1
_chemical_formula_structural   PrHfO4
_chemical_formula_sum   'Pr2 Hf2 O8'
_cell_volume   168.22187584
_cell_formula_units_Z   2
loop_
 _symmetry_equiv_pos_site_id
 _symmetry_equiv_pos_as_xyz
  1  'x, y, z'
loop_
 _atom_site_type_symbol
 _atom_site_label
 _atom_site_symmetry_multiplicity
 _atom_site_fract_x
 _atom_site_fract_y
 _atom_site_fract_z
 _atom_site_occupancy
  Pr  Pr0  1  0.00000000  0.00000000  0.00000000  1
  Pr  Pr1  1  0.75000000  0.25000000  0.50000000  1
  Hf  Hf0  1  0.50000000  0.50000000  0.00000000  1
  Hf  Hf1  1  0.25000000  0.75000000  0.50000000  1
  O  O0  1  0.39733700  0.83228200  0.03606400  1
  O  O1  1  0.35266300  0.41771800  0.46393600  1
  O  O2  1  0.95378200  0.88872600  0.53606400  1
  O  O3  1  0.16771800  0.20378200  0.56505500  1
  O  O4  1  0.11127400  0.64733700  0.06505500  1
  O  O5  1  0.79621800  0.36127400  0.96393600  1
  O  O6  1  0.58228200  0.04621800  0.93494500  1
  O  O7  1  0.63872600  0.60266300  0.43494500  1
loop_
_geom_bond_atom_site_label_1
_geom_bond_atom_site_label_2
_geom_bond_distance
_geom_bond_site_symmetry_2
Hf0 O5 2.009749 1_554
Hf0 O0 2.009750 1_555
Hf0 O3 2.009750 1_554
Hf0 O7 2.009752 1_555
Hf0 O4 2.704747 1_555
Hf0 O2 2.704750 1_555
Hf0 O6 2.704754 1_554
Hf0 O1 2.704754 1_554
Hf1 O2 2.009749 1_455
Hf1 O6 2.009750 1_565
Hf1 O1 2.009750 1_555
Hf1 O4 2.009752 1_555
Hf1 O7 2.704747 1_555
Hf1 O5 2.704750 1_454
Hf1 O3 2.704754 1_565
Hf1 O0 2.704754 1_556
O0 Pr0 2.450594 1_565
O0 Pr1 2.495123 1_565
O1 Pr1 2.450594 1_555
O1 Pr0 2.495123 1_555
O2 Pr1 2.450600 1_565
O2 Pr0 2.495120 1_666
O3 Pr0 2.450594 1_555
O3 Pr1 2.495123 1_455
O4 Pr1 2.450596 1_454
O4 Pr0 2.495122 1_565
O5 Pr0 2.450600 1_656
O5 Pr1 2.495120 1_555
O6 Pr1 2.450594 1_556
O6 Pr0 2.495123 1_656
O7 Pr0 2.450596 1_666
O7 Pr1 2.495122 1_555
