# generated using pymatgen
data_CaCrP2O7
_symmetry_space_group_name_H-M   'P 1'
_cell_length_a   6.19081336
_cell_length_b   6.60707231
_cell_length_c   14.76285364
_cell_angle_alpha   81.98964282
_cell_angle_beta   88.26872102
_cell_angle_gamma   68.61530693
_symmetry_Int_Tables_number   1
_chemical_formula_structural   CaCrP2O7
_chemical_formula_sum   'Ca4 Cr4 P8 O28'
_cell_volume   556.64918921
_cell_formula_units_Z   4
loop_
 _symmetry_equiv_pos_site_id
 _symmetry_equiv_pos_as_xyz
  1  'x, y, z'
loop_
 _atom_site_type_symbol
 _atom_site_label
 _atom_site_symmetry_multiplicity
 _atom_site_fract_x
 _atom_site_fract_y
 _atom_site_fract_z
 _atom_site_occupancy
  Ca  Ca0  1  0.29680600  0.71324500  0.31784200  1
  Ca  Ca1  1  0.29680300  0.71325300  0.81784100  1
  Ca  Ca2  1  0.70320200  0.28674400  0.18215900  1
  Ca  Ca3  1  0.70318900  0.28675300  0.68216000  1
  Cr  Cr0  1  0.26781200  0.12520200  0.58569200  1
  Cr  Cr1  1  0.73219000  0.87479700  0.91430500  1
  Cr  Cr2  1  0.26781500  0.12520900  0.08569800  1
  Cr  Cr3  1  0.73218800  0.87480100  0.41429300  1
  P  P0  1  0.16499500  0.65828000  0.05895300  1
  P  P1  1  0.16501300  0.65828200  0.55895700  1
  P  P2  1  0.83500400  0.34172200  0.44104600  1
  P  P3  1  0.83498400  0.34172300  0.94104300  1
  P  P4  1  0.23511500  0.21894100  0.31052500  1
  P  P5  1  0.23511200  0.21891800  0.81052000  1
  P  P6  1  0.76488400  0.78105900  0.18947500  1
  P  P7  1  0.76489000  0.78108300  0.68948000  1
  O  O0  1  0.07574600  0.73499300  0.45873200  1
  O  O1  1  0.07575000  0.73499300  0.95873200  1
  O  O2  1  0.92425100  0.26500900  0.04127200  1
  O  O3  1  0.92424600  0.26501300  0.54126800  1
  O  O4  1  0.25317800  0.81464900  0.09839300  1
  O  O5  1  0.25317800  0.81463800  0.59838400  1
  O  O6  1  0.74681600  0.18534700  0.40160900  1
  O  O7  1  0.74681600  0.18535600  0.90161200  1
  O  O8  1  0.33622700  0.41943800  0.07228300  1
  O  O9  1  0.33622100  0.41945200  0.57227500  1
  O  O10  1  0.66376500  0.58056600  0.42771900  1
  O  O11  1  0.66377700  0.58054900  0.92772200  1
  O  O12  1  0.63849200  0.62907200  0.22636200  1
  O  O13  1  0.63848500  0.62905900  0.72636300  1
  O  O14  1  0.36151500  0.37093200  0.27364200  1
  O  O15  1  0.36151200  0.37093200  0.77364100  1
  O  O16  1  0.09899800  0.16525500  0.23863900  1
  O  O17  1  0.09902000  0.16525800  0.73864400  1
  O  O18  1  0.90099800  0.83474000  0.26136200  1
  O  O19  1  0.90098200  0.83474400  0.76135900  1
  O  O20  1  0.06193600  0.35128700  0.38388600  1
  O  O21  1  0.06193200  0.35128800  0.88388800  1
  O  O22  1  0.93807200  0.64870800  0.11611300  1
  O  O23  1  0.93808200  0.64870200  0.61610900  1
  O  O24  1  0.60363400  0.99999400  0.13564100  1
  O  O25  1  0.60364700  0.99998400  0.63564400  1
  O  O26  1  0.39636700  0.00000500  0.36435900  1
  O  O27  1  0.39636200  0.00001500  0.86435800  1
loop_
_geom_bond_atom_site_label_1
_geom_bond_atom_site_label_2
_geom_bond_distance
_geom_bond_site_symmetry_2
Ca0 O14 2.331581 1_555
Ca0 O26 2.383481 1_565
Ca0 O12 2.405518 1_555
Ca0 O18 2.417936 1_455
Ca0 O0 2.446955 1_555
Ca0 O10 2.633378 1_555
Ca0 O16 2.869150 1_565
Ca1 O15 2.331631 1_555
Ca1 O27 2.383487 1_565
Ca1 O13 2.405481 1_555
Ca1 O19 2.418020 1_455
Ca1 O1 2.446947 1_555
Ca1 O11 2.633473 1_555
Ca1 O17 2.869089 1_565
Ca2 O12 2.331692 1_555
Ca2 O24 2.383450 1_545
Ca2 O14 2.405547 1_555
Ca2 O16 2.417872 1_655
Ca2 O2 2.446886 1_555
Ca2 O8 2.633438 1_555
Ca2 O18 2.869113 1_545
Ca3 O13 2.331562 1_555
Ca3 O25 2.383465 1_545
Ca3 O15 2.405483 1_555
Ca3 O17 2.418084 1_655
Ca3 O3 2.446972 1_555
Ca3 O9 2.633482 1_555
Ca3 O19 2.869123 1_545
Cr0 O25 2.054050 1_545
Cr0 O5 2.069076 1_545
Cr0 O3 2.071224 1_455
Cr0 O9 2.118084 1_555
Cr0 O17 2.466350 1_555
Cr1 O27 2.053987 1_565
Cr1 O7 2.069022 1_565
Cr1 O1 2.071203 1_655
Cr1 O11 2.118084 1_555
Cr1 O19 2.466267 1_555
Cr2 O24 2.053919 1_545
Cr2 O4 2.069055 1_545
Cr2 O2 2.071219 1_455
Cr2 O8 2.117960 1_555
Cr2 O16 2.466251 1_555
Cr3 O26 2.053887 1_565
Cr3 O6 2.068948 1_565
Cr3 O0 2.071243 1_655
Cr3 O10 2.118028 1_555
Cr3 O18 2.466108 1_555
O0 P1 1.545207 1_555
O1 P0 1.545117 1_556
O2 P3 1.545263 1_554
O3 P2 1.545124 1_555
O4 P0 1.517431 1_555
O5 P1 1.517194 1_555
O6 P2 1.517463 1_555
O7 P3 1.517297 1_555
O8 P0 1.535847 1_555
O9 P1 1.535739 1_555
O10 P2 1.535871 1_555
O11 P3 1.535717 1_555
O12 P6 1.520544 1_555
O13 P7 1.520784 1_555
O14 P4 1.520587 1_555
O15 P5 1.520694 1_555
O16 P4 1.529405 1_555
O17 P5 1.529103 1_555
O18 P6 1.529386 1_555
O19 P7 1.529139 1_555
O20 P4 1.611548 1_555
O20 P2 1.633415 1_455
O21 P5 1.611689 1_555
O21 P3 1.633464 1_455
O22 P6 1.611597 1_555
O22 P0 1.633380 1_655
O23 P7 1.611783 1_555
O23 P1 1.633380 1_655
O24 P6 1.547597 1_555
O25 P7 1.547454 1_555
O26 P4 1.547605 1_555
O27 P5 1.547488 1_555
