# generated using pymatgen
data_Mg14CoBiO16
_symmetry_space_group_name_H-M   'P 1'
_cell_length_a   8.69445847
_cell_length_b   8.71862413
_cell_length_c   4.38208504
_cell_angle_alpha   90.00000000
_cell_angle_beta   90.00000000
_cell_angle_gamma   90.00000000
_symmetry_Int_Tables_number   1
_chemical_formula_structural   Mg14CoBiO16
_chemical_formula_sum   'Mg14 Co1 Bi1 O16'
_cell_volume   332.17832729
_cell_formula_units_Z   1
loop_
 _symmetry_equiv_pos_site_id
 _symmetry_equiv_pos_as_xyz
  1  'x, y, z'
loop_
 _atom_site_type_symbol
 _atom_site_label
 _atom_site_symmetry_multiplicity
 _atom_site_fract_x
 _atom_site_fract_y
 _atom_site_fract_z
 _atom_site_occupancy
  Mg  Mg0  1  0.50000000  0.00000000  0.00000000  1
  Mg  Mg1  1  0.50000000  0.50000000  0.00000000  1
  Mg  Mg2  1  0.00000000  0.22903072  0.50000000  1
  Mg  Mg3  1  0.00000000  0.77096928  0.50000000  1
  Mg  Mg4  1  0.50000000  0.24542919  0.50000000  1
  Mg  Mg5  1  0.50000000  0.75457081  0.50000000  1
  Mg  Mg6  1  0.24713933  0.00000000  0.50000000  1
  Mg  Mg7  1  0.26412803  0.50000000  0.50000000  1
  Mg  Mg8  1  0.75286067  0.00000000  0.50000000  1
  Mg  Mg9  1  0.73587197  0.50000000  0.50000000  1
  Mg  Mg10  1  0.25447622  0.23700378  0.00000000  1
  Mg  Mg11  1  0.25447622  0.76299622  0.00000000  1
  Mg  Mg12  1  0.74552378  0.23700378  0.00000000  1
  Mg  Mg13  1  0.74552378  0.76299622  0.00000000  1
  Co  Co0  1  0.00000000  0.00000000  0.00000000  1
  Bi  Bi0  1  0.00000000  0.50000000  0.00000000  1
  O  O0  1  0.26711387  0.00000000  0.00000000  1
  O  O1  1  0.26848677  0.50000000  0.00000000  1
  O  O2  1  0.73288613  0.00000000  0.00000000  1
  O  O3  1  0.73151323  0.50000000  0.00000000  1
  O  O4  1  0.24875842  0.25147358  0.50000000  1
  O  O5  1  0.24875842  0.74852642  0.50000000  1
  O  O6  1  0.75124158  0.25147358  0.50000000  1
  O  O7  1  0.75124158  0.74852642  0.50000000  1
  O  O8  1  0.00000000  0.00000000  0.50000000  1
  O  O9  1  0.00000000  0.50000000  0.50000000  1
  O  O10  1  0.50000000  0.00000000  0.50000000  1
  O  O11  1  0.50000000  0.50000000  0.50000000  1
  O  O12  1  0.00000000  0.23962345  0.00000000  1
  O  O13  1  0.00000000  0.76037655  0.00000000  1
  O  O14  1  0.50000000  0.25014932  0.00000000  1
  O  O15  1  0.50000000  0.74985068  0.00000000  1
loop_
_geom_bond_atom_site_label_1
_geom_bond_atom_site_label_2
_geom_bond_distance
_geom_bond_site_symmetry_2
Mg0 O0 2.024819 1_555
Mg0 O2 2.024819 1_555
Mg0 O14 2.180958 1_555
Mg0 O15 2.180958 1_545
Mg0 O10 2.191043 1_554
Mg0 O10 2.191043 1_555
Mg1 O1 2.012882 1_555
Mg1 O3 2.012882 1_555
Mg1 O14 2.178354 1_555
Mg1 O15 2.178354 1_555
Mg1 O11 2.191043 1_554
Mg1 O11 2.191043 1_555
Mg2 O8 1.996833 1_555
Mg2 O4 2.171653 1_555
Mg2 O6 2.171653 1_455
Mg2 O12 2.192988 1_556
Mg2 O12 2.192988 1_555
Mg2 O9 2.362479 1_555
Mg3 O8 1.996833 1_565
Mg3 O5 2.171653 1_555
Mg3 O7 2.171653 1_455
Mg3 O13 2.192988 1_555
Mg3 O13 2.192988 1_556
Mg3 O9 2.362479 1_555
Mg4 O10 2.139805 1_555
Mg4 O6 2.185045 1_555
Mg4 O4 2.185045 1_555
Mg4 O14 2.191429 1_556
Mg4 O14 2.191429 1_555
Mg4 O11 2.219507 1_555
Mg5 O10 2.139805 1_565
Mg5 O5 2.185045 1_555
Mg5 O7 2.185045 1_555
Mg5 O15 2.191429 1_556
Mg5 O15 2.191429 1_555
Mg5 O11 2.219507 1_555
Mg6 O8 2.148743 1_555
Mg6 O4 2.192549 1_555
Mg6 O5 2.192549 1_545
Mg6 O0 2.197914 1_555
Mg6 O0 2.197914 1_556
Mg6 O10 2.198487 1_555
Mg7 O11 2.050779 1_555
Mg7 O4 2.170925 1_555
Mg7 O5 2.170925 1_555
Mg7 O1 2.191370 1_556
Mg7 O1 2.191370 1_555
Mg7 O9 2.296450 1_555
Mg8 O8 2.148743 1_655
Mg8 O6 2.192549 1_555
Mg8 O7 2.192549 1_545
Mg8 O2 2.197914 1_556
Mg8 O2 2.197914 1_555
Mg8 O10 2.198487 1_555
Mg9 O11 2.050779 1_555
Mg9 O6 2.170925 1_555
Mg9 O7 2.170925 1_555
Mg9 O3 2.191370 1_556
Mg9 O3 2.191370 1_555
Mg9 O9 2.296450 1_655
Mg10 O0 2.069266 1_555
Mg10 O14 2.137771 1_555
Mg10 O4 2.195234 1_554
Mg10 O4 2.195234 1_555
Mg10 O12 2.212651 1_555
Mg10 O1 2.296199 1_555
Mg11 O0 2.069266 1_565
Mg11 O15 2.137771 1_555
Mg11 O5 2.195234 1_554
Mg11 O5 2.195234 1_555
Mg11 O13 2.212651 1_555
Mg11 O1 2.296199 1_555
Mg12 O2 2.069266 1_555
Mg12 O14 2.137771 1_555
Mg12 O6 2.195234 1_555
Mg12 O6 2.195234 1_554
Mg12 O12 2.212651 1_655
Mg12 O3 2.296199 1_555
Mg13 O2 2.069266 1_565
Mg13 O15 2.137771 1_555
Mg13 O7 2.195234 1_555
Mg13 O7 2.195234 1_554
Mg13 O13 2.212651 1_655
Mg13 O3 2.296199 1_555
Co0 O13 2.089187 1_545
Co0 O12 2.089187 1_555
Co0 O8 2.191043 1_554
Co0 O8 2.191043 1_555
Co0 O0 2.322410 1_555
Co0 O2 2.322410 1_455
Bi0 O9 2.191043 1_554
Bi0 O9 2.191043 1_555
Bi0 O13 2.270125 1_555
Bi0 O12 2.270125 1_555
Bi0 O3 2.334347 1_455
Bi0 O1 2.334347 1_555
