# generated using pymatgen
data_Mg30MnBO32
_symmetry_space_group_name_H-M   'P 1'
_cell_length_a   8.52574400
_cell_length_b   8.52574400
_cell_length_c   8.52934900
_cell_angle_alpha   90.00000000
_cell_angle_beta   90.00000000
_cell_angle_gamma   90.00000000
_symmetry_Int_Tables_number   1
_chemical_formula_structural   Mg30MnBO32
_chemical_formula_sum   'Mg30 Mn1 B1 O32'
_cell_volume   619.98397064
_cell_formula_units_Z   1
loop_
 _symmetry_equiv_pos_site_id
 _symmetry_equiv_pos_as_xyz
  1  'x, y, z'
loop_
 _atom_site_type_symbol
 _atom_site_label
 _atom_site_symmetry_multiplicity
 _atom_site_fract_x
 _atom_site_fract_y
 _atom_site_fract_z
 _atom_site_occupancy
  Mg  Mg0  1  0.00000000  0.50000000  0.00000000  1
  Mg  Mg1  1  0.50000000  0.00000000  0.00000000  1
  Mg  Mg2  1  0.00000000  0.00000000  0.50000000  1
  Mg  Mg3  1  0.00000000  0.50000000  0.50000000  1
  Mg  Mg4  1  0.50000000  0.00000000  0.50000000  1
  Mg  Mg5  1  0.50000000  0.50000000  0.50000000  1
  Mg  Mg6  1  0.25274300  0.25274300  0.00000000  1
  Mg  Mg7  1  0.25274300  0.74725700  0.00000000  1
  Mg  Mg8  1  0.74725700  0.25274300  0.00000000  1
  Mg  Mg9  1  0.74725700  0.74725700  0.00000000  1
  Mg  Mg10  1  0.25045300  0.25045300  0.50000000  1
  Mg  Mg11  1  0.25045300  0.74954700  0.50000000  1
  Mg  Mg12  1  0.74954700  0.25045300  0.50000000  1
  Mg  Mg13  1  0.74954700  0.74954700  0.50000000  1
  Mg  Mg14  1  0.00000000  0.25115000  0.25114000  1
  Mg  Mg15  1  0.00000000  0.74885000  0.25114000  1
  Mg  Mg16  1  0.50000000  0.25193100  0.24825700  1
  Mg  Mg17  1  0.50000000  0.74806900  0.24825700  1
  Mg  Mg18  1  0.00000000  0.25115000  0.74886000  1
  Mg  Mg19  1  0.00000000  0.74885000  0.74886000  1
  Mg  Mg20  1  0.50000000  0.25193100  0.75174300  1
  Mg  Mg21  1  0.50000000  0.74806900  0.75174300  1
  Mg  Mg22  1  0.25115000  0.00000000  0.25114000  1
  Mg  Mg23  1  0.25193100  0.50000000  0.24825700  1
  Mg  Mg24  1  0.74885000  0.00000000  0.25114000  1
  Mg  Mg25  1  0.74806900  0.50000000  0.24825700  1
  Mg  Mg26  1  0.25115000  0.00000000  0.74886000  1
  Mg  Mg27  1  0.25193100  0.50000000  0.75174300  1
  Mg  Mg28  1  0.74885000  0.00000000  0.74886000  1
  Mg  Mg29  1  0.74806900  0.50000000  0.75174300  1
  Mn  Mn0  1  0.00000000  0.00000000  0.00000000  1
  B  B0  1  0.50000000  0.50000000  0.00000000  1
  O  O0  1  0.00000000  0.00000000  0.25671000  1
  O  O1  1  0.00000000  0.50000000  0.24976100  1
  O  O2  1  0.50000000  0.00000000  0.24976100  1
  O  O3  1  0.50000000  0.50000000  0.24788400  1
  O  O4  1  0.00000000  0.00000000  0.74329000  1
  O  O5  1  0.00000000  0.50000000  0.75023900  1
  O  O6  1  0.50000000  0.00000000  0.75023900  1
  O  O7  1  0.50000000  0.50000000  0.75211600  1
  O  O8  1  0.25017900  0.25017900  0.24961000  1
  O  O9  1  0.25017900  0.74982100  0.24961000  1
  O  O10  1  0.74982100  0.25017900  0.24961000  1
  O  O11  1  0.74982100  0.74982100  0.24961000  1
  O  O12  1  0.25017900  0.25017900  0.75039000  1
  O  O13  1  0.25017900  0.74982100  0.75039000  1
  O  O14  1  0.74982100  0.25017900  0.75039000  1
  O  O15  1  0.74982100  0.74982100  0.75039000  1
  O  O16  1  0.00000000  0.25726600  0.00000000  1
  O  O17  1  0.00000000  0.74273400  0.00000000  1
  O  O18  1  0.50000000  0.25413900  0.00000000  1
  O  O19  1  0.50000000  0.74586100  0.00000000  1
  O  O20  1  0.00000000  0.25142300  0.50000000  1
  O  O21  1  0.00000000  0.74857700  0.50000000  1
  O  O22  1  0.50000000  0.25124300  0.50000000  1
  O  O23  1  0.50000000  0.74875700  0.50000000  1
  O  O24  1  0.25726600  0.00000000  0.00000000  1
  O  O25  1  0.25413900  0.50000000  0.00000000  1
  O  O26  1  0.74273400  0.00000000  0.00000000  1
  O  O27  1  0.74586100  0.50000000  0.00000000  1
  O  O28  1  0.25142300  0.00000000  0.50000000  1
  O  O29  1  0.25124300  0.50000000  0.50000000  1
  O  O30  1  0.74857700  0.00000000  0.50000000  1
  O  O31  1  0.74875700  0.50000000  0.50000000  1
loop_
_geom_bond_atom_site_label_1
_geom_bond_atom_site_label_2
_geom_bond_distance
_geom_bond_site_symmetry_2
Mg0 O16 2.069488 1_555
Mg0 O17 2.069488 1_555
Mg0 O1 2.130299 1_555
Mg0 O5 2.130299 1_554
Mg0 O27 2.166724 1_455
Mg0 O25 2.166724 1_555
Mg1 O24 2.069488 1_555
Mg1 O26 2.069488 1_555
Mg1 O2 2.130299 1_555
Mg1 O6 2.130299 1_554
Mg1 O19 2.166724 1_545
Mg1 O18 2.166724 1_555
Mg2 O0 2.075105 1_555
Mg2 O4 2.075105 1_555
Mg2 O30 2.143568 1_455
Mg2 O21 2.143568 1_545
Mg2 O28 2.143568 1_555
Mg2 O20 2.143568 1_555
Mg3 O20 2.119304 1_555
Mg3 O21 2.119304 1_555
Mg3 O5 2.134376 1_555
Mg3 O1 2.134376 1_555
Mg3 O31 2.142033 1_455
Mg3 O29 2.142033 1_555
Mg4 O28 2.119304 1_555
Mg4 O30 2.119304 1_555
Mg4 O2 2.134376 1_555
Mg4 O6 2.134376 1_555
Mg4 O23 2.142033 1_545
Mg4 O22 2.142033 1_555
Mg5 O29 2.120839 1_555
Mg5 O31 2.120839 1_555
Mg5 O22 2.120839 1_555
Mg5 O23 2.120839 1_555
Mg5 O3 2.150385 1_555
Mg5 O7 2.150385 1_555
Mg6 O25 2.108083 1_555
Mg6 O18 2.108083 1_555
Mg6 O8 2.129235 1_555
Mg6 O12 2.129235 1_554
Mg6 O24 2.155167 1_555
Mg6 O16 2.155167 1_555
Mg7 O25 2.108083 1_555
Mg7 O19 2.108083 1_555
Mg7 O9 2.129235 1_555
Mg7 O13 2.129235 1_554
Mg7 O17 2.155167 1_555
Mg7 O24 2.155167 1_565
Mg8 O18 2.108083 1_555
Mg8 O27 2.108083 1_555
Mg8 O14 2.129235 1_554
Mg8 O10 2.129235 1_555
Mg8 O26 2.155167 1_555
Mg8 O16 2.155167 1_655
Mg9 O19 2.108083 1_555
Mg9 O27 2.108083 1_555
Mg9 O15 2.129235 1_554
Mg9 O11 2.129235 1_555
Mg9 O17 2.155167 1_655
Mg9 O26 2.155167 1_565
Mg10 O22 2.127584 1_555
Mg10 O29 2.127584 1_555
Mg10 O20 2.135314 1_555
Mg10 O28 2.135314 1_555
Mg10 O12 2.135666 1_555
Mg10 O8 2.135666 1_555
Mg11 O29 2.127584 1_555
Mg11 O23 2.127584 1_555
Mg11 O21 2.135314 1_555
Mg11 O28 2.135314 1_565
Mg11 O9 2.135666 1_555
Mg11 O13 2.135666 1_555
Mg12 O22 2.127584 1_555
Mg12 O31 2.127584 1_555
Mg12 O30 2.135314 1_555
Mg12 O20 2.135314 1_655
Mg12 O14 2.135666 1_555
Mg12 O10 2.135666 1_555
Mg13 O23 2.127584 1_555
Mg13 O31 2.127584 1_555
Mg13 O30 2.135314 1_565
Mg13 O21 2.135314 1_655
Mg13 O11 2.135666 1_555
Mg13 O15 2.135666 1_555
Mg14 O1 2.121664 1_555
Mg14 O20 2.122615 1_555
Mg14 O8 2.133018 1_555
Mg14 O10 2.133018 1_455
Mg14 O0 2.141768 1_555
Mg14 O16 2.142695 1_555
Mg15 O1 2.121664 1_555
Mg15 O21 2.122615 1_555
Mg15 O9 2.133018 1_555
Mg15 O11 2.133018 1_455
Mg15 O0 2.141768 1_565
Mg15 O17 2.142695 1_555
Mg16 O3 2.114975 1_555
Mg16 O18 2.117554 1_555
Mg16 O10 2.129994 1_555
Mg16 O8 2.129994 1_555
Mg16 O22 2.147212 1_555
Mg16 O2 2.147938 1_555
Mg17 O3 2.114975 1_555
Mg17 O19 2.117554 1_555
Mg17 O11 2.129994 1_555
Mg17 O9 2.129994 1_555
Mg17 O23 2.147212 1_555
Mg17 O2 2.147938 1_565
Mg18 O5 2.121664 1_555
Mg18 O20 2.122615 1_555
Mg18 O12 2.133018 1_555
Mg18 O14 2.133018 1_455
Mg18 O4 2.141768 1_555
Mg18 O16 2.142695 1_556
Mg19 O5 2.121664 1_555
Mg19 O21 2.122615 1_555
Mg19 O13 2.133018 1_555
Mg19 O15 2.133018 1_455
Mg19 O4 2.141768 1_565
Mg19 O17 2.142695 1_556
Mg20 O7 2.114975 1_555
Mg20 O18 2.117554 1_556
Mg20 O14 2.129994 1_555
Mg20 O12 2.129994 1_555
Mg20 O22 2.147212 1_555
Mg20 O6 2.147938 1_555
Mg21 O7 2.114975 1_555
Mg21 O19 2.117554 1_556
Mg21 O15 2.129994 1_555
Mg21 O13 2.129994 1_555
Mg21 O23 2.147212 1_555
Mg21 O6 2.147938 1_565
Mg22 O2 2.121664 1_555
Mg22 O28 2.122615 1_555
Mg22 O8 2.133018 1_555
Mg22 O9 2.133018 1_545
Mg22 O0 2.141768 1_555
Mg22 O24 2.142695 1_555
Mg23 O3 2.114975 1_555
Mg23 O25 2.117554 1_555
Mg23 O9 2.129994 1_555
Mg23 O8 2.129994 1_555
Mg23 O29 2.147212 1_555
Mg23 O1 2.147938 1_555
Mg24 O2 2.121664 1_555
Mg24 O30 2.122615 1_555
Mg24 O10 2.133018 1_555
Mg24 O11 2.133018 1_545
Mg24 O0 2.141768 1_655
Mg24 O26 2.142695 1_555
Mg25 O3 2.114975 1_555
Mg25 O27 2.117554 1_555
Mg25 O11 2.129994 1_555
Mg25 O10 2.129994 1_555
Mg25 O31 2.147212 1_555
Mg25 O1 2.147938 1_655
Mg26 O6 2.121664 1_555
Mg26 O28 2.122615 1_555
Mg26 O12 2.133018 1_555
Mg26 O13 2.133018 1_545
Mg26 O4 2.141768 1_555
Mg26 O24 2.142695 1_556
Mg27 O7 2.114975 1_555
Mg27 O25 2.117554 1_556
Mg27 O13 2.129994 1_555
Mg27 O12 2.129994 1_555
Mg27 O29 2.147212 1_555
Mg27 O5 2.147938 1_555
Mg28 O6 2.121664 1_555
Mg28 O30 2.122615 1_555
Mg28 O14 2.133018 1_555
Mg28 O15 2.133018 1_545
Mg28 O4 2.141768 1_655
Mg28 O26 2.142695 1_556
Mg29 O7 2.114975 1_555
Mg29 O27 2.117554 1_556
Mg29 O15 2.129994 1_555
Mg29 O14 2.129994 1_555
Mg29 O31 2.147212 1_555
Mg29 O5 2.147938 1_655
Mn0 O0 2.189569 1_555
Mn0 O4 2.189569 1_554
Mn0 O24 2.193384 1_555
Mn0 O16 2.193384 1_555
Mn0 O26 2.193384 1_455
Mn0 O17 2.193384 1_545
B0 O27 2.096148 1_555
B0 O25 2.096148 1_555
B0 O18 2.096148 1_555
B0 O19 2.096148 1_555
B0 O3 2.114289 1_555
B0 O7 2.114289 1_554
