# generated using pymatgen
data_Li6NiO4
_symmetry_space_group_name_H-M   'P 1'
_cell_length_a   6.59603328
_cell_length_b   8.08469092
_cell_length_c   8.09176897
_cell_angle_alpha   109.51434050
_cell_angle_beta   90.05914285
_cell_angle_gamma   90.02517375
_symmetry_Int_Tables_number   1
_chemical_formula_structural   Li6NiO4
_chemical_formula_sum   'Li24 Ni4 O16'
_cell_volume   406.72174902
_cell_formula_units_Z   4
loop_
 _symmetry_equiv_pos_site_id
 _symmetry_equiv_pos_as_xyz
  1  'x, y, z'
loop_
 _atom_site_type_symbol
 _atom_site_label
 _atom_site_symmetry_multiplicity
 _atom_site_fract_x
 _atom_site_fract_y
 _atom_site_fract_z
 _atom_site_occupancy
  Li  Li0  1  0.24889700  0.22424400  0.47724300  1
  Li  Li1  1  0.25075300  0.72523600  0.97315900  1
  Li  Li2  1  0.74979100  0.77554400  0.52330500  1
  Li  Li3  1  0.75058200  0.27488700  0.02701100  1
  Li  Li4  1  0.24996000  0.97606400  0.22390600  1
  Li  Li5  1  0.24981000  0.47380200  0.72625100  1
  Li  Li6  1  0.75148300  0.02383700  0.77617100  1
  Li  Li7  1  0.74990500  0.52637200  0.27415300  1
  Li  Li8  1  0.52950100  0.35893500  0.39000800  1
  Li  Li9  1  0.53565700  0.85853100  0.89231500  1
  Li  Li10  1  0.97025300  0.35892300  0.38837900  1
  Li  Li11  1  0.96821400  0.85890700  0.89212100  1
  Li  Li12  1  0.52975600  0.13992600  0.61291500  1
  Li  Li13  1  0.53259300  0.64109900  0.10726000  1
  Li  Li14  1  0.96781800  0.14021000  0.61090700  1
  Li  Li15  1  0.96614100  0.64201700  0.10615400  1
  Li  Li16  1  0.02834900  0.86057800  0.38726400  1
  Li  Li17  1  0.03271700  0.35876700  0.89321500  1
  Li  Li18  1  0.46890400  0.85983200  0.38908100  1
  Li  Li19  1  0.46633400  0.35832800  0.89394200  1
  Li  Li20  1  0.02942800  0.64054200  0.61038800  1
  Li  Li21  1  0.03535600  0.14134900  0.10690900  1
  Li  Li22  1  0.47058000  0.64040500  0.61151300  1
  Li  Li23  1  0.46574500  0.14168800  0.10656700  1
  Ni  Ni0  1  0.75000000  0.49432000  0.74520500  1
  Ni  Ni1  1  0.24992900  0.50579100  0.25529500  1
  Ni  Ni2  1  0.74846300  0.00518700  0.25284400  1
  Ni  Ni3  1  0.24993700  0.99462500  0.74520900  1
  O  O0  1  0.24993900  0.47239300  0.48969300  1
  O  O1  1  0.25215400  0.97539500  0.98541200  1
  O  O2  1  0.24934200  0.23629600  0.72714100  1
  O  O3  1  0.24989000  0.73875000  0.22059400  1
  O  O4  1  0.74952100  0.76423500  0.27355100  1
  O  O5  1  0.74969700  0.26133900  0.77980700  1
  O  O6  1  0.74997100  0.52735200  0.51048400  1
  O  O7  1  0.75375200  0.02437700  0.01346800  1
  O  O8  1  0.01489800  0.10567500  0.35577800  1
  O  O9  1  0.01132000  0.60569800  0.85452600  1
  O  O10  1  0.48321700  0.10570800  0.35797700  1
  O  O11  1  0.48949200  0.60531900  0.85526000  1
  O  O12  1  0.98384600  0.89424200  0.64304500  1
  O  O13  1  0.98909000  0.39482200  0.14511700  1
  O  O14  1  0.51653800  0.89419500  0.64408100  1
  O  O15  1  0.51084500  0.39407800  0.14555400  1
loop_
_geom_bond_atom_site_label_1
_geom_bond_atom_site_label_2
_geom_bond_distance
_geom_bond_site_symmetry_2
Li0 O10 1.903964 1_555
Li0 O8 1.906130 1_555
Li0 O0 1.974848 1_555
Li0 O2 1.991686 1_555
Li1 O11 1.927785 1_555
Li1 O9 1.930138 1_555
Li1 O3 1.968401 1_556
Li1 O1 1.991549 1_555
Li2 O12 1.901982 1_555
Li2 O14 1.902756 1_555
Li2 O6 1.974325 1_555
Li2 O4 1.992274 1_555
Li3 O13 1.924831 1_555
Li3 O15 1.932917 1_555
Li3 O5 1.966444 1_554
Li3 O7 1.991490 1_555
Li4 O3 1.909825 1_555
Li4 O1 1.928108 1_554
Li4 O10 1.969312 1_565
Li4 O8 1.974456 1_565
Li5 O0 1.910399 1_555
Li5 O2 1.922581 1_555
Li5 O9 1.988582 1_555
Li5 O11 1.993307 1_555
Li6 O5 1.910545 1_555
Li6 O7 1.918741 1_556
Li6 O12 1.964189 1_545
Li6 O14 1.972124 1_545
Li7 O6 1.909703 1_555
Li7 O4 1.924684 1_555
Li7 O15 1.991181 1_555
Li7 O13 1.993329 1_555
Li8 O10 1.999112 1_555
Li8 O6 2.006894 1_555
Li8 O15 2.093707 1_555
Li8 O0 2.098241 1_555
Li9 O7 1.986337 1_566
Li9 O11 1.990627 1_555
Li9 O1 2.118016 1_555
Li9 O14 2.126067 1_555
Li10 O8 1.997032 1_655
Li10 O6 2.011833 1_555
Li10 O13 2.087223 1_555
Li10 O0 2.099989 1_655
Li11 O7 1.970236 1_566
Li11 O9 1.987136 1_655
Li11 O1 2.117788 1_655
Li11 O12 2.130588 1_555
Li12 O5 2.000243 1_555
Li12 O10 2.010888 1_555
Li12 O14 2.086295 1_545
Li12 O2 2.099076 1_555
Li13 O11 1.981714 1_554
Li13 O4 1.987176 1_555
Li13 O3 2.112486 1_555
Li13 O15 2.125613 1_555
Li14 O5 2.001991 1_555
Li14 O8 2.013116 1_655
Li14 O12 2.092571 1_545
Li14 O2 2.107915 1_655
Li15 O9 1.980580 1_654
Li15 O4 1.990912 1_555
Li15 O3 2.117402 1_655
Li15 O13 2.130121 1_555
Li16 O3 2.010532 1_555
Li16 O12 2.017170 1_455
Li16 O8 2.082462 1_565
Li16 O4 2.086213 1_455
Li17 O13 1.981644 1_456
Li17 O2 1.985997 1_555
Li17 O5 2.111822 1_455
Li17 O9 2.126284 1_555
Li18 O3 2.001751 1_555
Li18 O14 2.012246 1_555
Li18 O10 2.087551 1_565
Li18 O4 2.102246 1_555
Li19 O15 1.980032 1_556
Li19 O2 1.987161 1_555
Li19 O5 2.117137 1_555
Li19 O11 2.127463 1_555
Li20 O12 2.001445 1_455
Li20 O0 2.008759 1_555
Li20 O9 2.090097 1_555
Li20 O6 2.095214 1_455
Li21 O1 1.983666 1_544
Li21 O13 1.991385 1_455
Li21 O7 2.105719 1_455
Li21 O8 2.131970 1_555
Li22 O14 2.002330 1_555
Li22 O0 2.008869 1_555
Li22 O11 2.087933 1_555
Li22 O6 2.098876 1_555
Li23 O1 1.966822 1_544
Li23 O15 1.980114 1_555
Li23 O7 2.145483 1_555
Li23 O10 2.152064 1_555
Ni0 O5 1.994645 1_555
Ni0 O6 2.004383 1_555
Ni0 O11 2.005393 1_555
Ni0 O9 2.006919 1_655
Ni1 O3 1.994833 1_555
Ni1 O0 2.003124 1_555
Ni1 O13 2.005232 1_455
Ni1 O15 2.008690 1_555
Ni2 O7 1.994508 1_555
Ni2 O8 1.996477 1_655
Ni2 O10 1.996897 1_555
Ni2 O4 2.010221 1_545
Ni3 O12 1.992514 1_455
Ni3 O14 1.995387 1_555
Ni3 O1 2.001013 1_555
Ni3 O2 2.007414 1_565
