# generated using pymatgen
data_Lu2B2N2O13
_symmetry_space_group_name_H-M   'P 1'
_cell_length_a   7.97707500
_cell_length_b   9.90753483
_cell_length_c   14.59598124
_cell_angle_alpha   90.99938443
_cell_angle_beta   100.06157550
_cell_angle_gamma   109.44685506
_symmetry_Int_Tables_number   1
_chemical_formula_structural   Lu2B2N2O13
_chemical_formula_sum   'Lu8 B8 N8 O52'
_cell_volume   1067.46998954
_cell_formula_units_Z   4
loop_
 _symmetry_equiv_pos_site_id
 _symmetry_equiv_pos_as_xyz
  1  'x, y, z'
loop_
 _atom_site_type_symbol
 _atom_site_label
 _atom_site_symmetry_multiplicity
 _atom_site_fract_x
 _atom_site_fract_y
 _atom_site_fract_z
 _atom_site_occupancy
  Lu  Lu0  1  0.94726500  0.54979000  0.10381800  1
  Lu  Lu1  1  0.05273500  0.45021000  0.89618200  1
  Lu  Lu2  1  0.04013000  0.98044000  0.12449900  1
  Lu  Lu3  1  0.95987000  0.01956000  0.87550100  1
  Lu  Lu4  1  0.03105100  0.47441800  0.38354500  1
  Lu  Lu5  1  0.96894900  0.52558200  0.61645500  1
  Lu  Lu6  1  0.93458200  0.04647900  0.38543000  1
  Lu  Lu7  1  0.06541800  0.95352100  0.61457000  1
  B  B0  1  0.01345400  0.24733900  0.06507500  1
  B  B1  1  0.98654600  0.75266100  0.93492500  1
  B  B2  1  0.97734600  0.29309200  0.23188600  1
  B  B3  1  0.02265400  0.70690800  0.76811400  1
  B  B4  1  0.00644300  0.80097300  0.26546400  1
  B  B5  1  0.99355700  0.19902700  0.73453600  1
  B  B6  1  0.97864600  0.73767600  0.43227000  1
  B  B7  1  0.02135400  0.26232400  0.56773000  1
  N  N0  1  0.57726600  0.44009300  0.08890300  1
  N  N1  1  0.42273400  0.55990700  0.91109700  1
  N  N2  1  0.41470200  0.09045900  0.16592900  1
  N  N3  1  0.58529800  0.90954100  0.83407100  1
  N  N4  1  0.40834600  0.57069600  0.41080800  1
  N  N5  1  0.59165400  0.42930400  0.58919200  1
  N  N6  1  0.56025000  0.95641300  0.35217800  1
  N  N7  1  0.43975000  0.04358700  0.64782200  1
  O  O0  1  0.98920700  0.20829800  0.15713000  1
  O  O1  1  0.01079300  0.79170200  0.84287000  1
  O  O2  1  0.01596700  0.37617900  0.03462300  1
  O  O3  1  0.98403300  0.62382100  0.96537700  1
  O  O4  1  0.03137600  0.13757500  0.01454400  1
  O  O5  1  0.96862400  0.86242500  0.98545600  1
  O  O6  1  0.98319800  0.43337500  0.22574500  1
  O  O7  1  0.01680200  0.56662500  0.77425500  1
  O  O8  1  0.96588200  0.24191900  0.31769900  1
  O  O9  1  0.03411800  0.75808100  0.68230100  1
  O  O10  1  0.99229400  0.70787300  0.33805600  1
  O  O11  1  0.00770600  0.29212700  0.66194400  1
  O  O12  1  0.02946100  0.75931700  0.17966600  1
  O  O13  1  0.97053900  0.24068300  0.82033400  1
  O  O14  1  0.99411000  0.93547700  0.27271100  1
  O  O15  1  0.00589000  0.06452300  0.72728900  1
  O  O16  1  0.97528600  0.62427800  0.48461200  1
  O  O17  1  0.02471400  0.37572200  0.51538800  1
  O  O18  1  0.97650600  0.86649100  0.46426300  1
  O  O19  1  0.02349400  0.13350900  0.53573700  1
  O  O20  1  0.41303700  0.39132900  0.08450800  1
  O  O21  1  0.58696300  0.60867100  0.91549200  1
  O  O22  1  0.66291700  0.37573700  0.04721200  1
  O  O23  1  0.33708300  0.62426300  0.95278800  1
  O  O24  1  0.67827400  0.56033400  0.13571600  1
  O  O25  1  0.32172600  0.43966600  0.86428400  1
  O  O26  1  0.58133500  0.13744800  0.18637700  1
  O  O27  1  0.41866500  0.86255200  0.81362300  1
  O  O28  1  0.31558900  0.14023400  0.20746700  1
  O  O29  1  0.68441100  0.85976600  0.79253300  1
  O  O30  1  0.32733200  0.98785800  0.10186200  1
  O  O31  1  0.67266800  0.01214200  0.89813800  1
  O  O32  1  0.30954200  0.45078400  0.36488400  1
  O  O33  1  0.69045800  0.54921600  0.63511600  1
  O  O34  1  0.57533600  0.61235400  0.42577800  1
  O  O35  1  0.42466400  0.38764600  0.57422200  1
  O  O36  1  0.32077200  0.64483500  0.44099500  1
  O  O37  1  0.67922800  0.35516500  0.55900500  1
  O  O38  1  0.39440300  0.92089600  0.33488800  1
  O  O39  1  0.60559700  0.07910400  0.66511200  1
  O  O40  1  0.66089300  0.05551200  0.41614900  1
  O  O41  1  0.33910700  0.94448800  0.58385100  1
  O  O42  1  0.64668700  0.89735000  0.30706700  1
  O  O43  1  0.35331300  0.10265000  0.69293300  1
  O  O44  1  0.27056100  0.63618700  0.15078600  1
  O  O45  1  0.72943900  0.36381300  0.84921400  1
  O  O46  1  0.71668200  0.90335400  0.09484800  1
  O  O47  1  0.28331800  0.09664600  0.90515200  1
  O  O48  1  0.70782600  0.39627600  0.34426200  1
  O  O49  1  0.29217400  0.60372400  0.65573800  1
  O  O50  1  0.26172600  0.13554000  0.41739900  1
  O  O51  1  0.73827400  0.86446000  0.58260100  1
loop_
_geom_bond_atom_site_label_1
_geom_bond_atom_site_label_2
_geom_bond_distance
_geom_bond_site_symmetry_2
Lu0 O6 2.166355 1_555
Lu0 O12 2.173649 1_655
Lu0 O3 2.196063 1_554
Lu0 O2 2.244876 1_655
Lu0 O24 2.308378 1_555
Lu0 O22 2.343566 1_555
Lu0 O44 2.396986 1_655
Lu1 O7 2.166355 1_555
Lu1 O13 2.173649 1_455
Lu1 O2 2.196063 1_556
Lu1 O3 2.244876 1_455
Lu1 O25 2.308378 1_555
Lu1 O23 2.343566 1_555
Lu1 O45 2.396986 1_455
Lu2 O5 2.209042 1_454
Lu2 O4 2.263771 1_565
Lu2 O14 2.283701 1_455
Lu2 O12 2.327333 1_555
Lu2 O28 2.342701 1_565
Lu2 O30 2.348750 1_555
Lu2 O46 2.390404 1_455
Lu2 O0 2.475668 1_465
Lu3 O4 2.209042 1_656
Lu3 O5 2.263771 1_545
Lu3 O15 2.283701 1_655
Lu3 O13 2.327333 1_555
Lu3 O29 2.342701 1_545
Lu3 O31 2.348750 1_555
Lu3 O47 2.390404 1_655
Lu3 O1 2.475668 1_645
Lu4 O17 2.174549 1_555
Lu4 O16 2.274017 1_455
Lu4 O6 2.274373 1_455
Lu4 O8 2.334705 1_455
Lu4 O36 2.360160 1_555
Lu4 O32 2.370622 1_555
Lu4 O48 2.390606 1_455
Lu4 O10 2.518774 1_455
Lu5 O16 2.174549 1_555
Lu5 O17 2.274017 1_655
Lu5 O7 2.274373 1_655
Lu5 O9 2.334705 1_655
Lu5 O37 2.360160 1_555
Lu5 O33 2.370622 1_555
Lu5 O49 2.390606 1_655
Lu5 O11 2.518774 1_655
Lu6 O8 2.149451 1_555
Lu6 O14 2.167806 1_545
Lu6 O18 2.224856 1_545
Lu6 O19 2.245602 1_655
Lu6 O40 2.333735 1_555
Lu6 O42 2.351440 1_545
Lu6 O50 2.415259 1_655
Lu7 O9 2.149451 1_555
Lu7 O15 2.167806 1_565
Lu7 O19 2.224856 1_565
Lu7 O18 2.245602 1_455
Lu7 O41 2.333735 1_555
Lu7 O43 2.351440 1_565
Lu7 O51 2.415259 1_455
B0 O2 1.353974 1_555
B0 O4 1.363614 1_555
B0 O0 1.432304 1_455
B1 O3 1.353974 1_555
B1 O5 1.363614 1_555
B1 O1 1.432304 1_655
B2 O8 1.365844 1_555
B2 O6 1.380046 1_555
B2 O0 1.400830 1_555
B3 O9 1.365844 1_555
B3 O7 1.380046 1_555
B3 O1 1.400830 1_555
B4 O14 1.372120 1_455
B4 O12 1.372985 1_555
B4 O10 1.411648 1_455
B5 O15 1.372120 1_655
B5 O13 1.372985 1_555
B5 O11 1.411648 1_655
B6 O18 1.357807 1_555
B6 O16 1.365164 1_555
B6 O10 1.431649 1_555
B7 O19 1.357807 1_555
B7 O17 1.365164 1_555
B7 O11 1.431649 1_555
N0 O20 1.225525 1_555
N0 O22 1.290537 1_555
N0 O24 1.294359 1_555
N1 O21 1.225525 1_555
N1 O23 1.290537 1_555
N1 O25 1.294359 1_555
N2 O26 1.231738 1_555
N2 O28 1.285519 1_555
N2 O30 1.288754 1_545
N3 O27 1.231738 1_555
N3 O29 1.285519 1_555
N3 O31 1.288754 1_565
N4 O34 1.233540 1_555
N4 O32 1.282991 1_555
N4 O36 1.288269 1_555
N5 O35 1.233540 1_555
N5 O33 1.282991 1_555
N5 O37 1.288269 1_555
N6 O38 1.228019 1_555
N6 O40 1.289027 1_565
N6 O42 1.290447 1_555
N7 O39 1.228019 1_555
N7 O41 1.289027 1_545
N7 O43 1.290447 1_555
