# generated using pymatgen
data_Mg5Cd
_symmetry_space_group_name_H-M   'P 1'
_cell_length_a   6.29799727
_cell_length_b   6.29799727
_cell_length_c   31.82561200
_cell_angle_alpha   90.00000000
_cell_angle_beta   90.00000000
_cell_angle_gamma   120.00001338
_symmetry_Int_Tables_number   1
_chemical_formula_structural   Mg5Cd
_chemical_formula_sum   'Mg40 Cd8'
_cell_volume   1093.23184425
_cell_formula_units_Z   8
loop_
 _symmetry_equiv_pos_site_id
 _symmetry_equiv_pos_as_xyz
  1  'x, y, z'
loop_
 _atom_site_type_symbol
 _atom_site_label
 _atom_site_symmetry_multiplicity
 _atom_site_fract_x
 _atom_site_fract_y
 _atom_site_fract_z
 _atom_site_occupancy
  Mg  Mg0_0  1  0.33333350  0.16666650  0.41747600  1
  Mg  Mg0_1  1  0.33333350  0.16666650  0.91747600  1
  Mg  Mg0_2  1  0.33333350  0.66666650  0.41747600  1
  Mg  Mg0_3  1  0.33333350  0.66666650  0.91747600  1
  Mg  Mg0_4  1  0.83333350  0.16666650  0.41747600  1
  Mg  Mg0_5  1  0.83333350  0.16666650  0.91747600  1
  Mg  Mg0_6  1  0.83333350  0.66666650  0.41747600  1
  Mg  Mg0_7  1  0.83333350  0.66666650  0.91747600  1
  Mg  Mg1_0  1  0.00000000  0.00000000  0.33366050  1
  Mg  Mg1_1  1  0.00000000  0.00000000  0.83366050  1
  Mg  Mg1_2  1  0.00000000  0.50000000  0.33366050  1
  Mg  Mg1_3  1  0.00000000  0.50000000  0.83366050  1
  Mg  Mg1_4  1  0.50000000  0.00000000  0.33366050  1
  Mg  Mg1_5  1  0.50000000  0.00000000  0.83366050  1
  Mg  Mg1_6  1  0.50000000  0.50000000  0.33366050  1
  Mg  Mg1_7  1  0.50000000  0.50000000  0.83366050  1
  Mg  Mg2_0  1  0.33333350  0.16666650  0.25000000  1
  Mg  Mg2_1  1  0.33333350  0.16666650  0.75000000  1
  Mg  Mg2_2  1  0.33333350  0.66666650  0.25000000  1
  Mg  Mg2_3  1  0.33333350  0.66666650  0.75000000  1
  Mg  Mg2_4  1  0.83333350  0.16666650  0.25000000  1
  Mg  Mg2_5  1  0.83333350  0.16666650  0.75000000  1
  Mg  Mg2_6  1  0.83333350  0.66666650  0.25000000  1
  Mg  Mg2_7  1  0.83333350  0.66666650  0.75000000  1
  Mg  Mg3_0  1  0.00000000  0.00000000  0.16633950  1
  Mg  Mg3_1  1  0.00000000  0.00000000  0.66633950  1
  Mg  Mg3_2  1  0.00000000  0.50000000  0.16633950  1
  Mg  Mg3_3  1  0.00000000  0.50000000  0.66633950  1
  Mg  Mg3_4  1  0.50000000  0.00000000  0.16633950  1
  Mg  Mg3_5  1  0.50000000  0.00000000  0.66633950  1
  Mg  Mg3_6  1  0.50000000  0.50000000  0.16633950  1
  Mg  Mg3_7  1  0.50000000  0.50000000  0.66633950  1
  Mg  Mg4_0  1  0.33333350  0.16666650  0.08252400  1
  Mg  Mg4_1  1  0.33333350  0.16666650  0.58252400  1
  Mg  Mg4_2  1  0.33333350  0.66666650  0.08252400  1
  Mg  Mg4_3  1  0.33333350  0.66666650  0.58252400  1
  Mg  Mg4_4  1  0.83333350  0.16666650  0.08252400  1
  Mg  Mg4_5  1  0.83333350  0.16666650  0.58252400  1
  Mg  Mg4_6  1  0.83333350  0.66666650  0.08252400  1
  Mg  Mg4_7  1  0.83333350  0.66666650  0.58252400  1
  Cd  Cd0_0  1  0.00000000  0.00000000  0.00000000  1
  Cd  Cd0_1  1  0.00000000  0.00000000  0.50000000  1
  Cd  Cd0_2  1  0.00000000  0.50000000  0.00000000  1
  Cd  Cd0_3  1  0.00000000  0.50000000  0.50000000  1
  Cd  Cd0_4  1  0.50000000  0.00000000  0.00000000  1
  Cd  Cd0_5  1  0.50000000  0.00000000  0.50000000  1
  Cd  Cd0_6  1  0.50000000  0.50000000  0.00000000  1
  Cd  Cd0_7  1  0.50000000  0.50000000  0.50000000  1
loop_
_geom_bond_atom_site_label_1
_geom_bond_atom_site_label_2
_geom_bond_distance
_geom_bond_site_symmetry_2
Mg0_0 Mg0_6 3.148998 1_445
Mg0_0 Mg0_6 3.148998 1_555
Mg0_0 Mg0_2 3.148999 1_545
Mg0_0 Mg0_4 3.148999 1_455
Mg0_0 Mg0_4 3.148999 1_555
Mg0_0 Mg0_2 3.148999 1_555
Mg0_0 Mg1_4 3.228132 1_555
Mg0_0 Mg1_0 3.228134 1_555
Mg0_0 Mg1_6 3.228134 1_555
Mg0_1 Mg0_7 3.148998 1_445
Mg0_1 Mg0_7 3.148998 1_555
Mg0_1 Mg0_5 3.148999 1_555
Mg0_1 Mg0_3 3.148999 1_545
Mg0_1 Mg0_3 3.148999 1_555
Mg0_1 Mg0_5 3.148999 1_455
Mg0_1 Mg1_5 3.228132 1_555
Mg0_1 Mg1_7 3.228134 1_555
Mg0_1 Mg1_1 3.228134 1_555
Mg0_2 Mg0_4 3.148998 1_455
Mg0_2 Mg0_4 3.148998 1_565
Mg0_2 Mg0_6 3.148999 1_555
Mg0_2 Mg0_6 3.148999 1_455
Mg0_2 Mg1_6 3.228132 1_555
Mg0_2 Mg1_4 3.228134 1_565
Mg0_2 Mg1_2 3.228134 1_555
Mg0_3 Mg0_5 3.148998 1_455
Mg0_3 Mg0_5 3.148998 1_565
Mg0_3 Mg0_7 3.148999 1_455
Mg0_3 Mg0_7 3.148999 1_555
Mg0_3 Mg1_7 3.228132 1_555
Mg0_3 Mg1_3 3.228134 1_555
Mg0_3 Mg1_5 3.228134 1_565
Mg0_4 Mg0_6 3.148999 1_555
Mg0_4 Mg0_6 3.148999 1_545
Mg0_4 Mg1_0 3.228132 1_655
Mg0_4 Mg1_2 3.228134 1_655
Mg0_4 Mg1_4 3.228134 1_555
Mg0_5 Mg0_7 3.148999 1_545
Mg0_5 Mg0_7 3.148999 1_555
Mg0_5 Mg1_1 3.228132 1_655
Mg0_5 Mg1_3 3.228134 1_655
Mg0_5 Mg1_5 3.228134 1_555
Mg0_6 Mg1_2 3.228132 1_655
Mg0_6 Mg1_6 3.228134 1_555
Mg0_6 Mg1_0 3.228134 1_665
Mg0_7 Mg1_3 3.228132 1_655
Mg0_7 Mg1_1 3.228134 1_665
Mg0_7 Mg1_7 3.228134 1_555
Mg1_0 Mg1_6 3.148998 1_555
Mg1_0 Mg1_6 3.148998 1_445
Mg1_0 Mg1_4 3.148999 1_555
Mg1_0 Mg1_2 3.148999 1_545
Mg1_0 Mg1_2 3.148999 1_555
Mg1_0 Mg1_4 3.148999 1_455
Mg1_0 Mg2_4 3.224057 1_455
Mg1_0 Mg2_0 3.224059 1_555
Mg1_0 Mg2_6 3.224059 1_445
Mg1_1 Mg1_7 3.148998 1_445
Mg1_1 Mg1_7 3.148998 1_555
Mg1_1 Mg1_5 3.148999 1_455
Mg1_1 Mg1_5 3.148999 1_555
Mg1_1 Mg1_3 3.148999 1_555
Mg1_1 Mg1_3 3.148999 1_545
Mg1_1 Mg2_5 3.224057 1_455
Mg1_1 Mg2_1 3.224059 1_555
Mg1_1 Mg2_7 3.224059 1_445
Mg1_2 Mg1_4 3.148998 1_565
Mg1_2 Mg1_4 3.148998 1_455
Mg1_2 Mg1_6 3.148999 1_455
Mg1_2 Mg1_6 3.148999 1_555
Mg1_2 Mg2_6 3.224057 1_455
Mg1_2 Mg2_4 3.224059 1_455
Mg1_2 Mg2_2 3.224059 1_555
Mg1_3 Mg1_5 3.148998 1_565
Mg1_3 Mg1_5 3.148998 1_455
Mg1_3 Mg1_7 3.148999 1_555
Mg1_3 Mg1_7 3.148999 1_455
Mg1_3 Mg2_7 3.224057 1_455
Mg1_3 Mg2_5 3.224059 1_455
Mg1_3 Mg2_3 3.224059 1_555
Mg1_4 Mg1_6 3.148999 1_555
Mg1_4 Mg1_6 3.148999 1_545
Mg1_4 Mg2_0 3.224057 1_555
Mg1_4 Mg2_4 3.224059 1_555
Mg1_4 Mg2_2 3.224059 1_545
Mg1_5 Mg1_7 3.148999 1_545
Mg1_5 Mg1_7 3.148999 1_555
Mg1_5 Mg2_1 3.224057 1_555
Mg1_5 Mg2_5 3.224059 1_555
Mg1_5 Mg2_3 3.224059 1_545
Mg1_6 Mg2_2 3.224057 1_555
Mg1_6 Mg2_0 3.224059 1_555
Mg1_6 Mg2_6 3.224059 1_555
Mg1_7 Mg2_3 3.224057 1_555
Mg1_7 Mg2_1 3.224059 1_555
Mg1_7 Mg2_7 3.224059 1_555
Mg2_0 Mg2_6 3.148998 1_445
Mg2_0 Mg2_6 3.148998 1_555
Mg2_0 Mg2_2 3.148999 1_555
Mg2_0 Mg2_2 3.148999 1_545
Mg2_0 Mg2_4 3.148999 1_455
Mg2_0 Mg2_4 3.148999 1_555
Mg2_0 Mg3_4 3.224057 1_555
Mg2_0 Mg3_6 3.224059 1_555
Mg2_0 Mg3_0 3.224059 1_555
Mg2_1 Mg2_7 3.148998 1_445
Mg2_1 Mg2_7 3.148998 1_555
Mg2_1 Mg2_5 3.148999 1_555
Mg2_1 Mg2_3 3.148999 1_555
Mg2_1 Mg2_3 3.148999 1_545
Mg2_1 Mg2_5 3.148999 1_455
Mg2_1 Mg3_5 3.224057 1_555
Mg2_1 Mg3_1 3.224059 1_555
Mg2_1 Mg3_7 3.224059 1_555
Mg2_2 Mg2_4 3.148998 1_455
Mg2_2 Mg2_4 3.148998 1_565
Mg2_2 Mg2_6 3.148999 1_455
Mg2_2 Mg2_6 3.148999 1_555
Mg2_2 Mg3_6 3.224057 1_555
Mg2_2 Mg3_4 3.224059 1_565
Mg2_2 Mg3_2 3.224059 1_555
Mg2_3 Mg2_5 3.148998 1_455
Mg2_3 Mg2_5 3.148998 1_565
Mg2_3 Mg2_7 3.148999 1_455
Mg2_3 Mg2_7 3.148999 1_555
Mg2_3 Mg3_7 3.224057 1_555
Mg2_3 Mg3_5 3.224059 1_565
Mg2_3 Mg3_3 3.224059 1_555
Mg2_4 Mg2_6 3.148999 1_555
Mg2_4 Mg2_6 3.148999 1_545
Mg2_4 Mg3_0 3.224057 1_655
Mg2_4 Mg3_2 3.224059 1_655
Mg2_4 Mg3_4 3.224059 1_555
Mg2_5 Mg2_7 3.148999 1_545
Mg2_5 Mg2_7 3.148999 1_555
Mg2_5 Mg3_1 3.224057 1_655
Mg2_5 Mg3_3 3.224059 1_655
Mg2_5 Mg3_5 3.224059 1_555
Mg2_6 Mg3_2 3.224057 1_655
Mg2_6 Mg3_0 3.224059 1_665
Mg2_6 Mg3_6 3.224059 1_555
Mg2_7 Mg3_3 3.224057 1_655
Mg2_7 Mg3_7 3.224059 1_555
Mg2_7 Mg3_1 3.224059 1_665
Mg3_0 Mg3_6 3.148998 1_555
Mg3_0 Mg3_6 3.148998 1_445
Mg3_0 Mg3_4 3.148999 1_555
Mg3_0 Mg3_2 3.148999 1_555
Mg3_0 Mg3_4 3.148999 1_455
Mg3_0 Mg3_2 3.148999 1_545
Mg3_0 Mg4_4 3.228132 1_455
Mg3_0 Mg4_6 3.228134 1_445
Mg3_0 Mg4_0 3.228134 1_555
Mg3_1 Mg3_7 3.148998 1_445
Mg3_1 Mg3_7 3.148998 1_555
Mg3_1 Mg3_3 3.148999 1_555
Mg3_1 Mg3_5 3.148999 1_555
Mg3_1 Mg3_5 3.148999 1_455
Mg3_1 Mg3_3 3.148999 1_545
Mg3_1 Mg4_5 3.228132 1_455
Mg3_1 Mg4_1 3.228134 1_555
Mg3_1 Mg4_7 3.228134 1_445
Mg3_2 Mg3_4 3.148998 1_455
Mg3_2 Mg3_4 3.148998 1_565
Mg3_2 Mg3_6 3.148999 1_455
Mg3_2 Mg3_6 3.148999 1_555
Mg3_2 Mg4_6 3.228132 1_455
Mg3_2 Mg4_4 3.228134 1_455
Mg3_2 Mg4_2 3.228134 1_555
Mg3_3 Mg3_5 3.148998 1_455
Mg3_3 Mg3_5 3.148998 1_565
Mg3_3 Mg3_7 3.148999 1_555
Mg3_3 Mg3_7 3.148999 1_455
Mg3_3 Mg4_7 3.228132 1_455
Mg3_3 Mg4_5 3.228134 1_455
Mg3_3 Mg4_3 3.228134 1_555
Mg3_4 Mg3_6 3.148999 1_545
Mg3_4 Mg3_6 3.148999 1_555
Mg3_4 Mg4_0 3.228132 1_555
Mg3_4 Mg4_2 3.228134 1_545
Mg3_4 Mg4_4 3.228134 1_555
Mg3_5 Mg3_7 3.148999 1_555
Mg3_5 Mg3_7 3.148999 1_545
Mg3_5 Mg4_1 3.228132 1_555
Mg3_5 Mg4_3 3.228134 1_545
Mg3_5 Mg4_5 3.228134 1_555
Mg3_6 Mg4_2 3.228132 1_555
Mg3_6 Mg4_6 3.228134 1_555
Mg3_6 Mg4_0 3.228134 1_555
Mg3_7 Mg4_3 3.228132 1_555
Mg3_7 Mg4_1 3.228134 1_555
Mg3_7 Mg4_7 3.228134 1_555
Mg4_0 Mg4_6 3.148998 1_445
Mg4_0 Mg4_6 3.148998 1_555
Mg4_0 Mg4_2 3.148999 1_555
Mg4_0 Mg4_2 3.148999 1_545
Mg4_0 Mg4_4 3.148999 1_455
Mg4_0 Mg4_4 3.148999 1_555
Mg4_1 Mg4_7 3.148998 1_445
Mg4_1 Mg4_7 3.148998 1_555
Mg4_1 Mg4_3 3.148999 1_555
Mg4_1 Mg4_3 3.148999 1_545
Mg4_1 Mg4_5 3.148999 1_455
Mg4_1 Mg4_5 3.148999 1_555
Mg4_2 Mg4_4 3.148998 1_455
Mg4_2 Mg4_4 3.148998 1_565
Mg4_2 Mg4_6 3.148999 1_555
Mg4_2 Mg4_6 3.148999 1_455
Mg4_3 Mg4_5 3.148998 1_455
Mg4_3 Mg4_5 3.148998 1_565
Mg4_3 Mg4_7 3.148999 1_455
Mg4_3 Mg4_7 3.148999 1_555
Mg4_4 Mg4_6 3.148999 1_555
Mg4_4 Mg4_6 3.148999 1_545
Mg4_5 Mg4_7 3.148999 1_555
Mg4_5 Mg4_7 3.148999 1_545
Cd0_0 Cd0_6 3.148998 1_555
Cd0_0 Cd0_6 3.148998 1_445
Cd0_0 Cd0_2 3.148999 1_545
Cd0_0 Cd0_4 3.148999 1_555
Cd0_0 Cd0_2 3.148999 1_555
Cd0_0 Cd0_4 3.148999 1_455
Cd0_0 Mg4_4 3.194252 1_455
Cd0_0 Mg0_5 3.194252 1_454
Cd0_0 Mg4_6 3.194253 1_445
Cd0_0 Mg4_0 3.194253 1_555
Cd0_0 Mg0_1 3.194253 1_554
Cd0_0 Mg0_7 3.194253 1_444
Cd0_1 Cd0_7 3.148998 1_445
Cd0_1 Cd0_7 3.148998 1_555
Cd0_1 Cd0_5 3.148999 1_455
Cd0_1 Cd0_3 3.148999 1_545
Cd0_1 Cd0_5 3.148999 1_555
Cd0_1 Cd0_3 3.148999 1_555
Cd0_1 Mg0_4 3.194252 1_455
Cd0_1 Mg4_5 3.194252 1_455
Cd0_1 Mg0_0 3.194253 1_555
Cd0_1 Mg4_1 3.194253 1_555
Cd0_1 Mg4_7 3.194253 1_445
Cd0_1 Mg0_6 3.194253 1_445
Cd0_2 Cd0_4 3.148998 1_565
Cd0_2 Cd0_4 3.148998 1_455
Cd0_2 Cd0_6 3.148999 1_455
Cd0_2 Cd0_6 3.148999 1_555
Cd0_2 Mg4_6 3.194252 1_455
Cd0_2 Mg0_7 3.194252 1_454
Cd0_2 Mg4_2 3.194253 1_555
Cd0_2 Mg4_4 3.194253 1_455
Cd0_2 Mg0_5 3.194253 1_454
Cd0_2 Mg0_3 3.194253 1_554
Cd0_3 Cd0_5 3.148998 1_565
Cd0_3 Cd0_5 3.148998 1_455
Cd0_3 Cd0_7 3.148999 1_455
Cd0_3 Cd0_7 3.148999 1_555
Cd0_3 Mg0_6 3.194252 1_455
Cd0_3 Mg4_7 3.194252 1_455
Cd0_3 Mg4_5 3.194253 1_455
Cd0_3 Mg0_4 3.194253 1_455
Cd0_3 Mg4_3 3.194253 1_555
Cd0_3 Mg0_2 3.194253 1_555
Cd0_4 Cd0_6 3.148999 1_545
Cd0_4 Cd0_6 3.148999 1_555
Cd0_4 Mg4_0 3.194252 1_555
Cd0_4 Mg0_1 3.194252 1_554
Cd0_4 Mg4_4 3.194253 1_555
Cd0_4 Mg4_2 3.194253 1_545
Cd0_4 Mg0_5 3.194253 1_554
Cd0_4 Mg0_3 3.194253 1_544
Cd0_5 Cd0_7 3.148999 1_555
Cd0_5 Cd0_7 3.148999 1_545
Cd0_5 Mg0_0 3.194252 1_555
Cd0_5 Mg4_1 3.194252 1_555
Cd0_5 Mg0_4 3.194253 1_555
Cd0_5 Mg4_3 3.194253 1_545
Cd0_5 Mg4_5 3.194253 1_555
Cd0_5 Mg0_2 3.194253 1_545
Cd0_6 Mg4_2 3.194252 1_555
Cd0_6 Mg0_3 3.194252 1_554
Cd0_6 Mg4_6 3.194253 1_555
Cd0_6 Mg4_0 3.194253 1_555
Cd0_6 Mg0_1 3.194253 1_554
Cd0_6 Mg0_7 3.194253 1_554
Cd0_7 Mg4_3 3.194252 1_555
Cd0_7 Mg0_2 3.194252 1_555
Cd0_7 Mg4_1 3.194253 1_555
Cd0_7 Mg0_0 3.194253 1_555
Cd0_7 Mg4_7 3.194253 1_555
Cd0_7 Mg0_6 3.194253 1_555
