# generated using pymatgen
data_LiMg3
_symmetry_space_group_name_H-M   'P 1'
_cell_length_a   11.91232460
_cell_length_b   11.91232460
_cell_length_c   11.91232460
_cell_angle_alpha   149.43863666
_cell_angle_beta   125.49022461
_cell_angle_gamma   63.79084947
_symmetry_Int_Tables_number   1
_chemical_formula_structural   LiMg3
_chemical_formula_sum   'Li8 Mg24'
_cell_volume   692.85378096
_cell_formula_units_Z   8
loop_
 _symmetry_equiv_pos_site_id
 _symmetry_equiv_pos_as_xyz
  1  'x, y, z'
loop_
 _atom_site_type_symbol
 _atom_site_label
 _atom_site_symmetry_multiplicity
 _atom_site_fract_x
 _atom_site_fract_y
 _atom_site_fract_z
 _atom_site_occupancy
  Li  Li0_0  1  0.41581399  0.25000000  0.16581399  1
  Li  Li0_1  1  0.41581399  0.25000000  0.66581399  1
  Li  Li0_2  1  0.41581399  0.75000000  0.16581399  1
  Li  Li0_3  1  0.41581399  0.75000000  0.66581399  1
  Li  Li0_4  1  0.91581399  0.25000000  0.16581400  1
  Li  Li0_5  1  0.91581399  0.25000000  0.66581399  1
  Li  Li0_6  1  0.91581399  0.75000000  0.16581400  1
  Li  Li0_7  1  0.91581399  0.75000000  0.66581399  1
  Mg  Mg0_0  1  0.16772262  0.00000000  0.16772262  1
  Mg  Mg0_1  1  0.16772262  0.00000000  0.66772262  1
  Mg  Mg0_2  1  0.16772262  0.50000000  0.16772262  1
  Mg  Mg0_3  1  0.16772262  0.50000000  0.66772262  1
  Mg  Mg0_4  1  0.66772262  0.00000000  0.16772262  1
  Mg  Mg0_5  1  0.66772262  0.00000000  0.66772262  1
  Mg  Mg0_6  1  0.66772262  0.50000000  0.16772262  1
  Mg  Mg0_7  1  0.66772262  0.50000000  0.66772262  1
  Mg  Mg1_0  1  0.37534871  0.37545027  0.49989794  1
  Mg  Mg1_1  1  0.37534871  0.37545028  0.99989794  1
  Mg  Mg1_2  1  0.37534871  0.87545027  0.49989794  1
  Mg  Mg1_3  1  0.37534871  0.87545027  0.99989794  1
  Mg  Mg1_4  1  0.87534871  0.37545028  0.49989794  1
  Mg  Mg1_5  1  0.87534871  0.37545028  0.99989794  1
  Mg  Mg1_6  1  0.87534871  0.87545027  0.49989794  1
  Mg  Mg1_7  1  0.87534871  0.87545028  0.99989794  1
  Mg  Mg2_0  1  0.12444767  0.12454973  0.49989794  1
  Mg  Mg2_1  1  0.12444767  0.12454972  0.99989794  1
  Mg  Mg2_2  1  0.12444767  0.62454972  0.49989794  1
  Mg  Mg2_3  1  0.12444767  0.62454973  0.99989794  1
  Mg  Mg2_4  1  0.62444767  0.12454973  0.49989794  1
  Mg  Mg2_5  1  0.62444767  0.12454973  0.99989794  1
  Mg  Mg2_6  1  0.62444767  0.62454973  0.49989794  1
  Mg  Mg2_7  1  0.62444767  0.62454972  0.99989794  1
loop_
_geom_bond_atom_site_label_1
_geom_bond_atom_site_label_2
_geom_bond_distance
_geom_bond_site_symmetry_2
Li0_0 Mg1_0 3.106872 1_555
Li0_0 Mg1_3 3.106873 1_544
Li0_0 Mg2_6 3.106876 1_555
Li0_0 Mg2_5 3.106876 1_554
Li0_0 Mg2_1 3.117054 1_554
Li0_0 Mg1_1 3.117057 1_554
Li0_0 Mg0_2 3.129029 1_555
Li0_0 Mg0_1 3.129029 1_554
Li0_0 Li0_3 3.139467 1_555
Li0_0 Li0_3 3.139467 1_544
Li0_0 Mg0_7 3.165126 1_555
Li0_0 Mg0_4 3.165126 1_555
Li0_1 Mg1_1 3.106872 1_555
Li0_1 Mg1_2 3.106873 1_545
Li0_1 Mg2_7 3.106876 1_555
Li0_1 Mg2_4 3.106876 1_555
Li0_1 Mg2_0 3.117054 1_555
Li0_1 Mg1_0 3.117057 1_555
Li0_1 Mg0_0 3.129029 1_555
Li0_1 Mg0_3 3.129029 1_555
Li0_1 Li0_2 3.139467 1_545
Li0_1 Li0_2 3.139467 1_556
Li0_1 Mg0_5 3.165126 1_555
Li0_1 Mg0_6 3.165126 1_556
Li0_2 Mg1_2 3.106872 1_555
Li0_2 Mg1_1 3.106873 1_554
Li0_2 Mg2_4 3.106876 1_565
Li0_2 Mg2_7 3.106876 1_554
Li0_2 Mg2_3 3.117054 1_554
Li0_2 Mg1_3 3.117057 1_554
Li0_2 Mg0_0 3.129029 1_565
Li0_2 Mg0_3 3.129029 1_554
Li0_2 Mg0_6 3.165126 1_555
Li0_2 Mg0_5 3.165126 1_565
Li0_3 Mg1_3 3.106872 1_555
Li0_3 Mg1_0 3.106873 1_555
Li0_3 Mg2_5 3.106876 1_565
Li0_3 Mg2_6 3.106876 1_555
Li0_3 Mg2_2 3.117054 1_555
Li0_3 Mg1_2 3.117057 1_555
Li0_3 Mg0_1 3.129029 1_565
Li0_3 Mg0_2 3.129029 1_555
Li0_3 Mg0_7 3.165126 1_555
Li0_3 Mg0_4 3.165126 1_566
Li0_4 Mg1_4 3.106872 1_555
Li0_4 Mg1_7 3.106873 1_544
Li0_4 Mg2_2 3.106876 1_655
Li0_4 Mg2_1 3.106876 1_654
Li0_4 Mg2_5 3.117054 1_554
Li0_4 Mg1_5 3.117057 1_554
Li0_4 Mg0_6 3.129029 1_555
Li0_4 Mg0_5 3.129029 1_554
Li0_4 Li0_7 3.139467 1_555
Li0_4 Li0_7 3.139467 1_544
Li0_4 Mg0_3 3.165126 1_655
Li0_4 Mg0_0 3.165126 1_655
Li0_5 Mg1_5 3.106872 1_555
Li0_5 Mg1_6 3.106873 1_545
Li0_5 Mg2_3 3.106876 1_655
Li0_5 Mg2_0 3.106876 1_655
Li0_5 Mg2_4 3.117054 1_555
Li0_5 Mg1_4 3.117057 1_555
Li0_5 Mg0_4 3.129029 1_555
Li0_5 Mg0_7 3.129029 1_555
Li0_5 Li0_6 3.139467 1_545
Li0_5 Li0_6 3.139467 1_556
Li0_5 Mg0_1 3.165126 1_655
Li0_5 Mg0_2 3.165126 1_656
Li0_6 Mg1_6 3.106872 1_555
Li0_6 Mg1_5 3.106873 1_554
Li0_6 Mg2_0 3.106876 1_665
Li0_6 Mg2_3 3.106876 1_654
Li0_6 Mg2_7 3.117054 1_554
Li0_6 Mg1_7 3.117057 1_554
Li0_6 Mg0_4 3.129029 1_565
Li0_6 Mg0_7 3.129029 1_554
Li0_6 Mg0_1 3.165126 1_665
Li0_6 Mg0_2 3.165126 1_655
Li0_7 Mg1_7 3.106872 1_555
Li0_7 Mg1_4 3.106873 1_555
Li0_7 Mg2_1 3.106876 1_665
Li0_7 Mg2_2 3.106876 1_655
Li0_7 Mg2_6 3.117054 1_555
Li0_7 Mg1_6 3.117057 1_555
Li0_7 Mg0_6 3.129029 1_555
Li0_7 Mg0_5 3.129029 1_565
Li0_7 Mg0_0 3.165126 1_666
Li0_7 Mg0_3 3.165126 1_655
Mg0_0 Mg1_7 3.114435 1_444
Mg0_0 Mg2_1 3.114440 1_554
Mg0_0 Mg2_0 3.115609 1_555
Mg0_0 Mg2_3 3.115609 1_544
Mg0_0 Mg1_0 3.115613 1_555
Mg0_0 Mg1_3 3.115614 1_544
Mg0_0 Mg0_3 3.139467 1_544
Mg0_0 Mg0_3 3.139467 1_555
Mg0_1 Mg1_6 3.114435 1_445
Mg0_1 Mg2_0 3.114440 1_555
Mg0_1 Mg2_1 3.115609 1_555
Mg0_1 Mg2_2 3.115609 1_545
Mg0_1 Mg1_1 3.115613 1_555
Mg0_1 Mg1_2 3.115614 1_545
Mg0_1 Mg0_2 3.139467 1_545
Mg0_1 Mg0_2 3.139467 1_556
Mg0_2 Mg1_5 3.114435 1_454
Mg0_2 Mg2_3 3.114440 1_554
Mg0_2 Mg2_2 3.115609 1_555
Mg0_2 Mg2_1 3.115609 1_554
Mg0_2 Mg1_2 3.115613 1_555
Mg0_2 Mg1_1 3.115614 1_554
Mg0_3 Mg1_4 3.114435 1_455
Mg0_3 Mg2_2 3.114440 1_555
Mg0_3 Mg2_3 3.115609 1_555
Mg0_3 Mg2_0 3.115609 1_555
Mg0_3 Mg1_3 3.115613 1_555
Mg0_3 Mg1_0 3.115614 1_555
Mg0_4 Mg1_3 3.114435 1_544
Mg0_4 Mg2_5 3.114440 1_554
Mg0_4 Mg2_4 3.115609 1_555
Mg0_4 Mg2_7 3.115609 1_544
Mg0_4 Mg1_4 3.115613 1_555
Mg0_4 Mg1_7 3.115614 1_544
Mg0_4 Mg0_7 3.139467 1_544
Mg0_4 Mg0_7 3.139467 1_555
Mg0_5 Mg1_2 3.114435 1_545
Mg0_5 Mg2_4 3.114440 1_555
Mg0_5 Mg2_5 3.115609 1_555
Mg0_5 Mg2_6 3.115609 1_545
Mg0_5 Mg1_5 3.115613 1_555
Mg0_5 Mg1_6 3.115614 1_545
Mg0_5 Mg0_6 3.139467 1_556
Mg0_5 Mg0_6 3.139467 1_545
Mg0_6 Mg1_1 3.114435 1_554
Mg0_6 Mg2_7 3.114440 1_554
Mg0_6 Mg2_6 3.115609 1_555
Mg0_6 Mg2_5 3.115609 1_554
Mg0_6 Mg1_6 3.115613 1_555
Mg0_6 Mg1_5 3.115614 1_554
Mg0_7 Mg1_0 3.114435 1_555
Mg0_7 Mg2_6 3.114440 1_555
Mg0_7 Mg2_7 3.115609 1_555
Mg0_7 Mg2_4 3.115609 1_555
Mg0_7 Mg1_7 3.115613 1_555
Mg0_7 Mg1_4 3.115614 1_555
Mg1_0 Mg1_3 3.139467 1_555
Mg1_0 Mg1_3 3.139467 1_544
Mg1_0 Mg2_4 3.147110 1_555
Mg1_0 Mg2_7 3.147112 1_555
Mg1_0 Mg2_1 3.147115 1_554
Mg1_0 Mg2_2 3.147117 1_555
Mg1_1 Mg1_2 3.139467 1_556
Mg1_1 Mg1_2 3.139467 1_545
Mg1_1 Mg2_5 3.147110 1_555
Mg1_1 Mg2_6 3.147112 1_556
Mg1_1 Mg2_0 3.147115 1_555
Mg1_1 Mg2_3 3.147117 1_555
Mg1_2 Mg2_6 3.147110 1_555
Mg1_2 Mg2_5 3.147112 1_565
Mg1_2 Mg2_3 3.147115 1_554
Mg1_2 Mg2_0 3.147117 1_565
Mg1_3 Mg2_7 3.147110 1_555
Mg1_3 Mg2_4 3.147112 1_566
Mg1_3 Mg2_2 3.147115 1_555
Mg1_3 Mg2_1 3.147117 1_565
Mg1_4 Mg1_7 3.139467 1_544
Mg1_4 Mg1_7 3.139467 1_555
Mg1_4 Mg2_0 3.147110 1_655
Mg1_4 Mg2_3 3.147112 1_655
Mg1_4 Mg2_5 3.147115 1_554
Mg1_4 Mg2_6 3.147117 1_555
Mg1_5 Mg1_6 3.139467 1_545
Mg1_5 Mg1_6 3.139467 1_556
Mg1_5 Mg2_1 3.147110 1_655
Mg1_5 Mg2_2 3.147112 1_656
Mg1_5 Mg2_4 3.147115 1_555
Mg1_5 Mg2_7 3.147117 1_555
Mg1_6 Mg2_2 3.147110 1_655
Mg1_6 Mg2_1 3.147112 1_665
Mg1_6 Mg2_7 3.147115 1_554
Mg1_6 Mg2_4 3.147117 1_565
Mg1_7 Mg2_3 3.147110 1_655
Mg1_7 Mg2_0 3.147112 1_666
Mg1_7 Mg2_6 3.147115 1_555
Mg1_7 Mg2_5 3.147117 1_565
Mg2_0 Mg2_3 3.139467 1_544
Mg2_0 Mg2_3 3.139467 1_555
Mg2_1 Mg2_2 3.139467 1_556
Mg2_1 Mg2_2 3.139467 1_545
Mg2_4 Mg2_7 3.139467 1_555
Mg2_4 Mg2_7 3.139467 1_544
Mg2_5 Mg2_6 3.139467 1_556
Mg2_5 Mg2_6 3.139467 1_545
