# generated using pymatgen
data_SrCa7TiMn7O23
_symmetry_space_group_name_H-M   'P 1'
_cell_length_a   10.89782388
_cell_length_b   15.40463718
_cell_length_c   10.79776950
_cell_angle_alpha   90.07747705
_cell_angle_beta   90.29285391
_cell_angle_gamma   90.07431539
_symmetry_Int_Tables_number   1
_chemical_formula_structural   SrCa7TiMn7O23
_chemical_formula_sum   'Sr4 Ca28 Ti4 Mn28 O92'
_cell_volume   1812.67052172
_cell_formula_units_Z   4
loop_
 _symmetry_equiv_pos_site_id
 _symmetry_equiv_pos_as_xyz
  1  'x, y, z'
loop_
 _atom_site_type_symbol
 _atom_site_label
 _atom_site_symmetry_multiplicity
 _atom_site_fract_x
 _atom_site_fract_y
 _atom_site_fract_z
 _atom_site_occupancy
  Sr  Sr0  1  0.01329772  0.11937331  0.50569249  1
  Sr  Sr1  1  0.49653104  0.38189457  0.99652431  1
  Sr  Sr2  1  0.23968441  0.38511254  0.25312176  1
  Sr  Sr3  1  0.24748565  0.11806072  0.26461191  1
  Ca  Ca0  1  0.01092283  0.11775843  0.99204236  1
  Ca  Ca1  1  0.02035010  0.62562603  0.49706549  1
  Ca  Ca2  1  0.02061879  0.62618498  0.99462147  1
  Ca  Ca3  1  0.52653356  0.12924230  0.50638763  1
  Ca  Ca4  1  0.53633681  0.12157669  0.97237590  1
  Ca  Ca5  1  0.52467959  0.62510573  0.49781847  1
  Ca  Ca6  1  0.52160502  0.62512913  0.99472610  1
  Ca  Ca7  1  0.47923067  0.38452137  0.51105094  1
  Ca  Ca8  1  0.48648106  0.86767942  0.99605750  1
  Ca  Ca9  1  0.48151892  0.86479441  0.51548601  1
  Ca  Ca10  1  0.96787451  0.38606437  0.99896789  1
  Ca  Ca11  1  0.97563709  0.38104933  0.50688324  1
  Ca  Ca12  1  0.97404956  0.87098126  0.00358850  1
  Ca  Ca13  1  0.97303869  0.87187967  0.50719438  1
  Ca  Ca14  1  0.22378800  0.38081969  0.72743966  1
  Ca  Ca15  1  0.22760032  0.86869143  0.24666073  1
  Ca  Ca16  1  0.22671446  0.86958861  0.74382505  1
  Ca  Ca17  1  0.73597252  0.38734515  0.24697491  1
  Ca  Ca18  1  0.72868392  0.38045315  0.74755337  1
  Ca  Ca19  1  0.73434460  0.86565154  0.24724254  1
  Ca  Ca20  1  0.72859466  0.87184843  0.74545153  1
  Ca  Ca21  1  0.27320881  0.11555600  0.73392119  1
  Ca  Ca22  1  0.27374917  0.62672611  0.25595743  1
  Ca  Ca23  1  0.27211596  0.62501897  0.75488846  1
  Ca  Ca24  1  0.77154876  0.11694351  0.24969481  1
  Ca  Ca25  1  0.77415646  0.12344639  0.75681483  1
  Ca  Ca26  1  0.77094889  0.62504623  0.25457575  1
  Ca  Ca27  1  0.77074185  0.62584477  0.75423711  1
  Ti  Ti0  1  0.99593321  0.99171103  0.24988489  1
  Ti  Ti1  1  0.25088815  0.99311512  0.99349970  1
  Ti  Ti2  1  0.25630228  0.24560328  0.95933967  1
  Ti  Ti3  1  0.98401424  0.25174266  0.26821455  1
  Mn  Mn0  1  0.99529542  0.99600485  0.75292067  1
  Mn  Mn1  1  0.00076473  0.50333723  0.24900159  1
  Mn  Mn2  1  0.00020023  0.50170783  0.74983441  1
  Mn  Mn3  1  0.50918725  0.98416707  0.24052541  1
  Mn  Mn4  1  0.50227471  0.99796965  0.74794378  1
  Mn  Mn5  1  0.50143451  0.50616487  0.25133985  1
  Mn  Mn6  1  0.49992625  0.50296647  0.74871415  1
  Mn  Mn7  1  0.24238209  0.99162856  0.50742707  1
  Mn  Mn8  1  0.24934490  0.50399887  0.00150325  1
  Mn  Mn9  1  0.25022076  0.50424486  0.50127492  1
  Mn  Mn10  1  0.75047477  0.99719461  0.99564049  1
  Mn  Mn11  1  0.74478546  0.99951153  0.50134975  1
  Mn  Mn12  1  0.75016759  0.50452386  0.00074356  1
  Mn  Mn13  1  0.75063249  0.50145424  0.50089262  1
  Mn  Mn14  1  0.25173068  0.25094434  0.49889524  1
  Mn  Mn15  1  0.25002005  0.74799104  0.00155986  1
  Mn  Mn16  1  0.25049797  0.74893893  0.50018666  1
  Mn  Mn17  1  0.75225331  0.24962245  0.99896551  1
  Mn  Mn18  1  0.74763298  0.25058513  0.50663594  1
  Mn  Mn19  1  0.74982450  0.74930586  0.00004971  1
  Mn  Mn20  1  0.75040998  0.74882989  0.50024607  1
  Mn  Mn21  1  0.99465653  0.25194785  0.74558404  1
  Mn  Mn22  1  0.00037999  0.74695238  0.25003240  1
  Mn  Mn23  1  0.00020748  0.74919058  0.75034622  1
  Mn  Mn24  1  0.52213831  0.25828276  0.26563867  1
  Mn  Mn25  1  0.50507958  0.25007911  0.74287587  1
  Mn  Mn26  1  0.49982106  0.74845099  0.25208083  1
  Mn  Mn27  1  0.50039642  0.74801388  0.75139953  1
  O  O0  1  0.09871630  0.26855455  0.60205451  1
  O  O1  1  0.10574953  0.77193322  0.10456971  1
  O  O2  1  0.10584499  0.77213943  0.60316304  1
  O  O3  1  0.59259152  0.25175299  0.10711296  1
  O  O4  1  0.59801300  0.26795312  0.59421624  1
  O  O5  1  0.60728009  0.77296630  0.10870424  1
  O  O6  1  0.60799391  0.76658194  0.60686294  1
  O  O7  1  0.39954830  0.22127459  0.37188594  1
  O  O8  1  0.40626945  0.23142775  0.89036083  1
  O  O9  1  0.39603736  0.72640376  0.39722231  1
  O  O10  1  0.39676944  0.73040868  0.89794562  1
  O  O11  1  0.88977885  0.23410166  0.40099200  1
  O  O12  1  0.90014333  0.23494737  0.90311871  1
  O  O13  1  0.89670023  0.72978717  0.39557360  1
  O  O14  1  0.89567425  0.73010514  0.89601348  1
  O  O15  1  0.14334725  0.24278767  0.34934613  1
  O  O16  1  0.14457443  0.23026115  0.84028634  1
  O  O17  1  0.14688714  0.73067301  0.35137104  1
  O  O18  1  0.14720154  0.73043538  0.85288179  1
  O  O19  1  0.65425766  0.21950486  0.35718366  1
  O  O20  1  0.64915093  0.22959279  0.85141253  1
  O  O21  1  0.64688968  0.72853369  0.35401321  1
  O  O22  1  0.64470176  0.72895589  0.85608920  1
  O  O23  1  0.35157572  0.26425546  0.64613554  1
  O  O24  1  0.35747788  0.77299305  0.14557779  1
  O  O25  1  0.35531371  0.76943609  0.64608634  1
  O  O26  1  0.86012680  0.27189556  0.14234250  1
  O  O27  1  0.84952560  0.27361324  0.64962099  1
  O  O28  1  0.85699066  0.76957613  0.14430806  1
  O  O29  1  0.85651356  0.77125653  0.64489669  1
  O  O30  1  0.36158334  0.49031055  0.14198120  1
  O  O31  1  0.35531802  0.48442728  0.64498410  1
  O  O32  1  0.35729595  0.99131138  0.15785349  1
  O  O33  1  0.35515989  0.97873446  0.64574946  1
  O  O34  1  0.85752488  0.48248813  0.14368684  1
  O  O35  1  0.85591166  0.47924055  0.64510576  1
  O  O36  1  0.85347856  0.98028287  0.14266782  1
  O  O37  1  0.85252298  0.97770036  0.64648533  1
  O  O38  1  0.13643321  0.00571762  0.36342127  1
  O  O39  1  0.14548920  0.02257793  0.86150883  1
  O  O40  1  0.14589203  0.52154456  0.35315337  1
  O  O41  1  0.14754823  0.51615155  0.85235744  1
  O  O42  1  0.62181954  0.03031279  0.35520267  1
  O  O43  1  0.64855742  0.01981225  0.84915575  1
  O  O44  1  0.64673507  0.52060364  0.35530230  1
  O  O45  1  0.64387565  0.52026051  0.85655148  1
  O  O46  1  0.39474850  0.02099413  0.89612140  1
  O  O47  1  0.39491137  0.52190995  0.39579738  1
  O  O48  1  0.39398315  0.51775011  0.89376348  1
  O  O49  1  0.88083666  0.01661525  0.38705235  1
  O  O50  1  0.89530447  0.01464545  0.89876843  1
  O  O51  1  0.89714906  0.51847748  0.39568131  1
  O  O52  1  0.89577457  0.51865476  0.89653534  1
  O  O53  1  0.10210573  0.48399745  0.10346199  1
  O  O54  1  0.10481002  0.48142221  0.60396857  1
  O  O55  1  0.10911753  0.98475768  0.10927495  1
  O  O56  1  0.09897118  0.97833673  0.61573414  1
  O  O57  1  0.61334414  0.48644203  0.11299537  1
  O  O58  1  0.60736036  0.48350003  0.60415332  1
  O  O59  1  0.60381741  0.98599531  0.09349926  1
  O  O60  1  0.59788045  0.98073272  0.59829497  1
  O  O61  1  0.00667317  0.37684737  0.27659220  1
  O  O62  1  0.01126159  0.37597338  0.78766761  1
  O  O63  1  0.00392522  0.87132661  0.28373835  1
  O  O64  1  0.01114129  0.87331876  0.79248080  1
  O  O65  1  0.50036340  0.37967914  0.28074974  1
  O  O66  1  0.50932187  0.37556196  0.77180831  1
  O  O67  1  0.50915663  0.87121063  0.30111264  1
  O  O68  1  0.51065067  0.87414705  0.78497652  1
  O  O69  1  0.49257343  0.12357788  0.71556518  1
  O  O70  1  0.49166272  0.62885946  0.20994818  1
  O  O71  1  0.49037689  0.62577951  0.71264588  1
  O  O72  1  0.99855379  0.13060644  0.21652824  1
  O  O73  1  0.98602140  0.12511339  0.72513807  1
  O  O74  1  0.98782805  0.62571585  0.20915461  1
  O  O75  1  0.98925873  0.62528641  0.71212359  1
  O  O76  1  0.23220171  0.15013872  0.05330997  1
  O  O77  1  0.25688487  0.11790139  0.51738433  1
  O  O78  1  0.23737799  0.62922035  0.03955407  1
  O  O79  1  0.23722541  0.62698107  0.54004310  1
  O  O80  1  0.74764461  0.12363273  0.03514415  1
  O  O81  1  0.74464183  0.12542237  0.54323946  1
  O  O82  1  0.74100417  0.62713533  0.03857536  1
  O  O83  1  0.74382954  0.62492339  0.53886470  1
  O  O84  1  0.26437283  0.37740395  0.47607301  1
  O  O85  1  0.25062357  0.35829409  0.00912901  1
  O  O86  1  0.26935166  0.87384910  0.45874487  1
  O  O87  1  0.26199702  0.87726508  0.96526977  1
  O  O88  1  0.75621566  0.37497860  0.46128509  1
  O  O89  1  0.74771068  0.37549113  0.96720005  1
  O  O90  1  0.75509003  0.87425231  0.46133670  1
  O  O91  1  0.75604824  0.87393661  0.96088559  1
loop_
_geom_bond_atom_site_label_1
_geom_bond_atom_site_label_2
_geom_bond_distance
_geom_bond_site_symmetry_2
Ca0 O50 2.258872 1_455
Ca0 O12 2.374202 1_455
Ca0 O72 2.436180 1_456
Ca0 O39 2.511592 1_555
Ca0 O76 2.545834 1_556
Ca0 O55 2.635159 1_546
Ca0 O16 2.799207 1_555
Ca0 O73 2.895722 1_455
Ca0 O80 2.910511 1_456
Ca1 O75 2.348462 1_455
Ca1 O13 2.363611 1_455
Ca1 O51 2.387430 1_455
Ca1 O79 2.406327 1_555
Ca1 O40 2.622568 1_555
Ca1 O17 2.649215 1_555
Ca1 O54 2.667520 1_555
Ca1 O2 2.692795 1_555
Ca2 O74 2.345704 1_456
Ca2 O14 2.354968 1_455
Ca2 O52 2.385647 1_455
Ca2 O78 2.409465 1_556
Ca2 O18 2.616644 1_555
Ca2 O53 2.639836 1_556
Ca2 O41 2.677120 1_555
Ca2 O1 2.699478 1_556
Ca3 O69 2.292396 1_555
Ca3 O81 2.408784 1_555
Ca3 O7 2.454457 1_555
Ca3 O4 2.460628 1_555
Ca3 O42 2.465851 1_555
Ca3 O19 2.547611 1_555
Ca3 O60 2.612661 1_545
Ca3 O77 2.946555 1_555
Ca4 O46 2.331723 1_555
Ca4 O8 2.377910 1_555
Ca4 O43 2.395693 1_555
Ca4 O80 2.397295 1_556
Ca4 O20 2.450142 1_555
Ca4 O3 2.548246 1_556
Ca4 O59 2.571968 1_546
Ca4 O69 2.811511 1_555
Ca5 O71 2.351483 1_555
Ca5 O9 2.361137 1_555
Ca5 O47 2.390417 1_555
Ca5 O83 2.426812 1_555
Ca5 O21 2.597250 1_555
Ca5 O44 2.597814 1_555
Ca5 O58 2.624866 1_555
Ca5 O6 2.633906 1_555
Ca6 O70 2.349003 1_556
Ca6 O10 2.359836 1_555
Ca6 O48 2.415081 1_555
Ca6 O82 2.435176 1_556
Ca6 O22 2.572949 1_555
Ca6 O45 2.574999 1_555
Ca6 O57 2.682263 1_556
Ca6 O5 2.747362 1_556
Ca7 O58 2.293722 1_555
Ca7 O84 2.372212 1_555
Ca7 O4 2.388529 1_555
Ca7 O65 2.499574 1_555
Ca7 O31 2.510549 1_555
Ca7 O47 2.621607 1_555
Ca7 O23 2.741636 1_555
Ca7 O66 2.836531 1_555
Ca7 O7 3.050715 1_555
Ca7 O88 3.072366 1_555
Ca8 O68 2.297990 1_555
Ca8 O5 2.309687 1_556
Ca8 O59 2.457450 1_556
Ca8 O87 2.471819 1_555
Ca8 O10 2.554932 1_555
Ca8 O24 2.595146 1_556
Ca8 O46 2.782748 1_565
Ca8 O32 2.946927 1_556
Ca8 O91 2.965527 1_555
Ca9 O6 2.271062 1_555
Ca9 O67 2.337999 1_555
Ca9 O60 2.361254 1_555
Ca9 O86 2.393221 1_555
Ca9 O25 2.461361 1_555
Ca9 O33 2.640979 1_555
Ca9 O9 2.649272 1_555
Ca10 O62 2.337425 1_655
Ca10 O53 2.379428 1_656
Ca10 O89 2.427197 1_555
Ca10 O52 2.452332 1_555
Ca10 O34 2.472231 1_556
Ca10 O26 2.624727 1_556
Ca10 O12 2.648832 1_555
Ca11 O54 2.333713 1_655
Ca11 O0 2.419701 1_655
Ca11 O88 2.440561 1_555
Ca11 O35 2.497356 1_555
Ca11 O61 2.511998 1_655
Ca11 O51 2.579975 1_555
Ca11 O27 2.650657 1_555
Ca11 O11 2.698816 1_555
Ca12 O64 2.317408 1_654
Ca12 O1 2.360313 1_655
Ca12 O91 2.418256 1_554
Ca12 O28 2.529304 1_555
Ca12 O55 2.551773 1_655
Ca12 O14 2.601256 1_554
Ca12 O36 2.614542 1_555
Ca12 O50 2.630020 1_564
Ca13 O2 2.350307 1_655
Ca13 O90 2.424084 1_555
Ca13 O56 2.432881 1_655
Ca13 O63 2.437900 1_655
Ca13 O29 2.499300 1_555
Ca13 O37 2.581368 1_555
Ca13 O13 2.629418 1_555
Ca13 O49 2.768383 1_565
Ca14 O31 2.324994 1_555
Ca14 O62 2.409935 1_555
Ca14 O54 2.419394 1_555
Ca14 O23 2.439073 1_555
Ca14 O0 2.578820 1_555
Ca14 O41 2.619950 1_555
Ca14 O84 2.752673 1_555
Ca14 O16 2.760849 1_555
Ca14 O85 3.074312 1_556
Ca15 O24 2.320502 1_555
Ca15 O86 2.333744 1_555
Ca15 O63 2.472626 1_555
Ca15 O1 2.511341 1_555
Ca15 O32 2.548933 1_555
Ca15 O17 2.565980 1_555
Ca15 O38 2.653917 1_565
Ca15 O55 2.656735 1_555
Ca16 O25 2.339754 1_555
Ca16 O64 2.410667 1_555
Ca16 O87 2.422591 1_555
Ca16 O33 2.433445 1_555
Ca16 O2 2.502734 1_555
Ca16 O56 2.578755 1_555
Ca16 O18 2.597115 1_555
Ca16 O39 2.821584 1_565
Ca17 O34 2.271819 1_555
Ca17 O88 2.331517 1_555
Ca17 O57 2.490113 1_555
Ca17 O26 2.507276 1_555
Ca17 O44 2.556995 1_555
Ca17 O65 2.597798 1_555
Ca17 O19 2.984497 1_555
Ca18 O35 2.340229 1_555
Ca18 O27 2.361433 1_555
Ca18 O89 2.381024 1_555
Ca18 O66 2.407296 1_555
Ca18 O58 2.580051 1_555
Ca18 O45 2.624337 1_555
Ca18 O20 2.724220 1_555
Ca18 O4 2.781061 1_555
Ca19 O28 2.286498 1_555
Ca19 O90 2.325200 1_555
Ca19 O36 2.468459 1_555
Ca19 O5 2.482273 1_555
Ca19 O67 2.526478 1_555
Ca19 O21 2.590691 1_555
Ca19 O59 2.864799 1_555
Ca20 O91 2.344023 1_555
Ca20 O29 2.353713 1_555
Ca20 O37 2.374566 1_555
Ca20 O68 2.415597 1_555
Ca20 O6 2.562044 1_555
Ca20 O22 2.668593 1_555
Ca20 O43 2.686682 1_565
Ca20 O60 2.712505 1_555
Ca21 O77 2.344297 1_555
Ca21 O69 2.402843 1_555
Ca21 O39 2.430324 1_555
Ca21 O33 2.480829 1_545
Ca21 O16 2.534534 1_555
Ca21 O23 2.623749 1_555
Ca21 O46 2.632849 1_555
Ca21 O8 2.846451 1_555
Ca22 O17 2.356411 1_555
Ca22 O78 2.368426 1_555
Ca22 O40 2.383679 1_555
Ca22 O70 2.428865 1_555
Ca22 O9 2.535357 1_555
Ca22 O47 2.573383 1_555
Ca22 O30 2.618609 1_555
Ca22 O24 2.709799 1_555
Ca23 O79 2.349127 1_555
Ca23 O18 2.371832 1_555
Ca23 O41 2.403438 1_555
Ca23 O71 2.424214 1_555
Ca23 O48 2.595192 1_555
Ca23 O10 2.614049 1_555
Ca23 O31 2.632514 1_555
Ca23 O25 2.676611 1_555
Ca24 O80 2.332376 1_555
Ca24 O19 2.343612 1_555
Ca24 O42 2.399751 1_555
Ca24 O49 2.449445 1_555
Ca24 O72 2.510070 1_555
Ca24 O36 2.563878 1_545
Ca24 O11 2.747852 1_555
Ca24 O26 2.825969 1_555
Ca25 O81 2.327077 1_555
Ca25 O43 2.329996 1_555
Ca25 O73 2.335906 1_555
Ca25 O20 2.363973 1_555
Ca25 O50 2.625564 1_555
Ca25 O37 2.682814 1_545
Ca25 O12 2.700989 1_555
Ca25 O27 2.716167 1_555
Ca26 O21 2.353276 1_555
Ca26 O82 2.353658 1_555
Ca26 O44 2.370234 1_555
Ca26 O74 2.416325 1_555
Ca26 O13 2.601075 1_555
Ca26 O51 2.626619 1_555
Ca26 O34 2.675126 1_555
Ca26 O28 2.695741 1_555
Ca27 O83 2.342496 1_555
Ca27 O22 2.373929 1_555
Ca27 O45 2.406678 1_555
Ca27 O75 2.426692 1_555
Ca27 O14 2.596753 1_555
Ca27 O52 2.633498 1_555
Ca27 O29 2.701532 1_555
Ca27 O35 2.712892 1_555
Mn0 O56 1.887249 1_655
Mn0 O50 1.940899 1_565
Mn0 O64 1.945872 1_655
Mn0 O37 1.949584 1_555
Mn0 O73 2.014358 1_565
Mn0 O39 2.049087 1_665
Mn1 O74 1.939390 1_455
Mn1 O53 1.948179 1_555
Mn1 O34 1.952585 1_455
Mn1 O40 1.955656 1_555
Mn1 O51 1.963642 1_455
Mn1 O61 1.972656 1_555
Mn2 O75 1.950954 1_455
Mn2 O41 1.957994 1_555
Mn2 O35 1.962261 1_455
Mn2 O52 1.972434 1_455
Mn2 O54 1.973816 1_555
Mn2 O62 1.983737 1_555
Mn3 O67 1.859799 1_555
Mn3 O42 1.877511 1_565
Mn3 O32 1.880047 1_555
Mn3 O59 1.897737 1_555
Mn4 O60 1.945216 1_555
Mn4 O68 1.951591 1_555
Mn4 O43 1.956714 1_565
Mn4 O33 1.963568 1_555
Mn4 O69 1.969624 1_565
Mn4 O46 2.019304 1_565
Mn5 O30 1.938211 1_555
Mn5 O70 1.945703 1_555
Mn5 O44 1.948642 1_555
Mn5 O57 1.956909 1_555
Mn5 O47 1.964103 1_555
Mn5 O65 1.974628 1_555
Mn6 O71 1.934902 1_555
Mn6 O31 1.949234 1_555
Mn6 O48 1.963686 1_555
Mn6 O45 1.966505 1_555
Mn6 O58 1.978771 1_555
Mn6 O66 1.981446 1_555
Mn7 O86 1.911792 1_555
Mn7 O33 1.939950 1_555
Mn7 O38 1.944553 1_565
Mn7 O77 1.954164 1_565
Mn7 O56 1.967397 1_555
Mn8 O30 1.955497 1_555
Mn8 O41 1.960190 1_554
Mn8 O53 1.974681 1_555
Mn8 O48 1.975181 1_554
Mn8 O78 1.976330 1_555
Mn8 O85 2.246209 1_555
Mn9 O79 1.941449 1_555
Mn9 O31 1.948562 1_555
Mn9 O47 1.968659 1_555
Mn9 O54 1.970254 1_555
Mn9 O40 1.976123 1_555
Mn9 O84 1.978758 1_555
Mn10 O50 1.916780 1_565
Mn10 O59 1.928139 1_556
Mn10 O91 1.936068 1_555
Mn10 O36 1.957535 1_556
Mn10 O43 1.959933 1_565
Mn10 O80 1.993641 1_566
Mn11 O60 1.938874 1_555
Mn11 O49 1.951774 1_565
Mn11 O90 1.980236 1_555
Mn11 O37 1.982670 1_555
Mn11 O81 1.991061 1_565
Mn11 O42 2.119725 1_565
Mn12 O82 1.934728 1_555
Mn12 O57 1.946361 1_555
Mn12 O45 1.951399 1_554
Mn12 O52 1.962001 1_554
Mn12 O34 1.962223 1_555
Mn12 O89 2.020069 1_554
Mn13 O58 1.942942 1_555
Mn13 O83 1.946733 1_555
Mn13 O44 1.955579 1_555
Mn13 O35 1.960212 1_555
Mn13 O51 1.981697 1_555
Mn13 O88 1.995205 1_555
Mn14 O23 1.932492 1_555
Mn14 O84 1.968658 1_555
Mn14 O15 1.999506 1_555
Mn14 O0 2.028379 1_555
Mn14 O77 2.060258 1_555
Mn14 O7 2.169665 1_555
Mn15 O78 1.880625 1_555
Mn15 O1 1.965549 1_555
Mn15 O18 1.971189 1_554
Mn15 O10 1.975164 1_554
Mn15 O24 1.979029 1_555
Mn15 O87 2.034280 1_554
Mn16 O79 1.933346 1_555
Mn16 O25 1.966124 1_555
Mn16 O2 1.966580 1_555
Mn16 O9 1.972456 1_555
Mn16 O17 1.978781 1_555
Mn16 O86 1.986763 1_555
Mn17 O12 1.933148 1_555
Mn17 O26 1.968607 1_556
Mn17 O20 1.968643 1_555
Mn17 O89 1.970163 1_555
Mn17 O80 1.980892 1_556
Mn17 O3 2.100718 1_556
Mn18 O4 1.908068 1_555
Mn18 O27 1.929380 1_555
Mn18 O11 1.945165 1_555
Mn18 O19 1.961828 1_555
Mn18 O81 1.968965 1_555
Mn18 O88 1.980668 1_555
Mn19 O82 1.930347 1_555
Mn19 O22 1.951041 1_554
Mn19 O28 1.966448 1_555
Mn19 O91 1.967630 1_554
Mn19 O14 1.973406 1_554
Mn19 O5 1.985290 1_555
Mn20 O83 1.955607 1_555
Mn20 O6 1.956373 1_555
Mn20 O21 1.960411 1_555
Mn20 O29 1.968493 1_555
Mn20 O90 1.978442 1_555
Mn20 O13 1.980865 1_555
Mn21 O27 1.916277 1_555
Mn21 O0 1.942066 1_655
Mn21 O16 1.952372 1_655
Mn21 O73 1.968051 1_555
Mn21 O62 1.971147 1_655
Mn21 O12 2.010312 1_555
Mn22 O74 1.923012 1_455
Mn22 O17 1.947643 1_555
Mn22 O63 1.950014 1_555
Mn22 O13 1.958248 1_455
Mn22 O28 1.962333 1_455
Mn22 O1 1.988118 1_555
Mn23 O75 1.955628 1_455
Mn23 O29 1.961735 1_455
Mn23 O18 1.964519 1_555
Mn23 O64 1.968249 1_555
Mn23 O14 1.968968 1_455
Mn23 O2 1.998790 1_555
Mn24 O19 1.842899 1_555
Mn24 O7 1.855106 1_555
Mn24 O3 1.882228 1_555
Mn24 O65 1.892302 1_555
Mn25 O4 1.922304 1_555
Mn25 O8 1.948366 1_555
Mn25 O66 1.958132 1_555
Mn25 O69 1.974927 1_555
Mn25 O23 1.980150 1_555
Mn25 O20 1.980315 1_555
Mn26 O70 1.898870 1_555
Mn26 O24 1.963720 1_555
Mn26 O21 1.964292 1_555
Mn26 O67 1.965459 1_555
Mn26 O9 1.967038 1_555
Mn26 O5 1.982360 1_555
Mn27 O71 1.931190 1_555
Mn27 O22 1.954755 1_555
Mn27 O10 1.967592 1_555
Mn27 O25 1.971250 1_555
Mn27 O6 1.977751 1_555
Mn27 O68 1.979000 1_555
O0 Sr0 2.684852 1_555
O3 Sr1 2.557361 1_554
O7 Sr3 2.566015 1_555
O8 Ti2 1.812831 1_555
O8 Sr1 2.762176 1_555
O11 Ti3 1.788680 1_555
O11 Sr0 2.491905 1_655
O15 Ti3 1.945996 1_455
O15 Sr3 2.414180 1_555
O15 Sr2 2.645750 1_555
O15 Sr0 2.915329 1_555
O16 Ti2 1.781390 1_555
O26 Ti3 1.936461 1_555
O30 Sr2 2.418060 1_555
O30 Sr1 2.727955 1_554
O32 Ti1 2.115196 1_554
O32 Sr3 2.566584 1_565
O36 Ti0 1.939518 1_555
O38 Ti0 1.968026 1_445
O38 Sr3 2.368698 1_555
O38 Sr0 2.691830 1_555
O39 Ti1 1.882259 1_545
O40 Sr2 2.576667 1_555
O46 Ti1 1.940165 1_545
O48 Sr1 2.619085 1_555
O49 Ti0 1.983134 1_545
O49 Sr0 2.490041 1_655
O53 Sr2 2.677232 1_555
O55 Ti0 1.963952 1_455
O55 Ti1 1.996502 1_554
O56 Sr0 2.646641 1_565
O57 Sr1 2.401828 1_554
O61 Ti3 1.944556 1_455
O61 Sr2 2.556245 1_555
O63 Ti0 1.892676 1_455
O65 Sr2 2.856284 1_555
O66 Sr1 2.432975 1_555
O72 Ti3 1.953871 1_555
O72 Ti0 2.170393 1_545
O72 Sr3 2.766499 1_655
O73 Sr0 2.391133 1_655
O76 Ti2 1.807470 1_554
O76 Sr3 2.340290 1_555
O76 Ti1 2.511570 1_544
O77 Sr0 2.657053 1_555
O77 Sr3 2.730781 1_555
O84 Sr2 2.424084 1_555
O85 Ti2 1.817832 1_554
O85 Sr2 2.669509 1_555
O85 Sr1 2.708074 1_554
O87 Ti1 1.814369 1_555
O89 Sr1 2.759047 1_555
