# generated using pymatgen
data_Sr2YCr2GaO7
_symmetry_space_group_name_H-M   'P 1'
_cell_length_a   12.20506344
_cell_length_b   12.20506344
_cell_length_c   12.20506344
_cell_angle_alpha   153.42834037
_cell_angle_beta   152.79186075
_cell_angle_gamma   38.39690270
_symmetry_Int_Tables_number   1
_chemical_formula_structural   Sr2YCr2GaO7
_chemical_formula_sum   'Sr4 Y2 Cr4 Ga2 O14'
_cell_volume   371.23963811
_cell_formula_units_Z   2
loop_
 _symmetry_equiv_pos_site_id
 _symmetry_equiv_pos_as_xyz
  1  'x, y, z'
loop_
 _atom_site_type_symbol
 _atom_site_label
 _atom_site_symmetry_multiplicity
 _atom_site_fract_x
 _atom_site_fract_y
 _atom_site_fract_z
 _atom_site_occupancy
  Sr  Sr0  1  0.87215100  0.82961200  0.01021500  1
  Sr  Sr1  1  0.12784900  0.13806400  0.95746000  1
  Sr  Sr2  1  0.31939700  0.32961200  0.95746000  1
  Sr  Sr3  1  0.68060300  0.63806400  0.01021500  1
  Y  Y0  1  0.50000000  0.49508400  0.99508400  1
  Y  Y1  1  0.00000000  0.99508400  0.99508400  1
  Cr  Cr0  1  0.07709400  0.57301000  0.49991600  1
  Cr  Cr1  1  0.42690600  0.92282200  0.49991600  1
  Cr  Cr2  1  0.57309400  0.07301000  0.49591600  1
  Cr  Cr3  1  0.92290600  0.42282200  0.49591600  1
  Ga  Ga0  1  0.32199200  0.71418300  0.53617500  1
  Ga  Ga1  1  0.67800800  0.21418300  0.39219000  1
  O  O0  1  0.22472600  0.64556200  0.99855400  1
  O  O1  1  0.38324200  0.37608300  0.25932500  1
  O  O2  1  0.14700700  0.14556200  0.42083600  1
  O  O3  1  0.73178500  0.20641200  0.58220100  1
  O  O4  1  0.27342300  0.86022500  0.99943600  1
  O  O5  1  0.36078900  0.36022500  0.58680200  1
  O  O6  1  0.61675800  0.87608300  0.99284100  1
  O  O7  1  0.85299200  0.27382800  0.99855400  1
  O  O8  1  0.77527400  0.77382800  0.42083600  1
  O  O9  1  0.12421000  0.70641200  0.47462600  1
  O  O10  1  0.26821500  0.85041600  0.47462600  1
  O  O11  1  0.87579000  0.35041600  0.58220100  1
  O  O12  1  0.72657700  0.72601300  0.58680200  1
  O  O13  1  0.63921100  0.22601300  0.99943600  1
loop_
_geom_bond_atom_site_label_1
_geom_bond_atom_site_label_2
_geom_bond_distance
_geom_bond_site_symmetry_2
Cr0 O4 2.037734 1_555
Cr0 O5 2.039215 1_555
Cr0 O7 2.043415 1_454
Cr0 O8 2.064954 1_455
Cr0 O9 2.399834 1_555
Cr1 O13 2.037734 1_565
Cr1 O12 2.039215 1_555
Cr1 O0 2.043415 1_554
Cr1 O2 2.064957 1_565
Cr1 O10 2.399822 1_555
Cr2 O5 2.037734 1_555
Cr2 O4 2.039215 1_544
Cr2 O8 2.043415 1_545
Cr2 O7 2.064954 1_555
Cr2 O3 2.399834 1_555
Cr3 O12 2.037734 1_555
Cr3 O13 2.039215 1_554
Cr3 O2 2.043410 1_655
Cr3 O0 2.064954 1_655
Cr3 O11 2.399822 1_555
Ga0 O9 1.845642 1_555
Ga0 O10 1.845651 1_555
Ga0 O6 1.920699 1_555
Ga0 O1 1.928956 1_555
Ga1 O11 1.845642 1_555
Ga1 O3 1.845652 1_555
Ga1 O1 1.920698 1_555
Ga1 O6 1.928953 1_544
O0 Y0 2.259365 1_555
O0 Sr2 2.654047 1_555
O0 Y1 2.738496 1_555
O0 Sr0 2.991587 1_456
O1 Sr1 2.520142 1_554
O1 Sr2 2.520162 1_554
O2 Y1 2.259372 1_544
O2 Sr0 2.654047 1_445
O2 Y0 2.738502 1_555
O2 Sr2 2.991568 1_555
O3 Sr1 2.484620 1_655
O3 Sr3 2.617626 1_556
O4 Y1 2.253866 1_555
O4 Sr1 2.638759 1_565
O4 Y0 2.833993 1_555
O5 Y0 2.253866 1_555
O5 Sr3 2.638750 1_556
O5 Y1 2.833993 1_544
O6 Sr3 2.520150 1_556
O6 Sr0 2.520150 1_556
O7 Y1 2.259365 1_645
O7 Sr1 2.654065 1_655
O7 Y0 2.738496 1_555
O7 Sr3 2.991587 1_556
O8 Y0 2.259365 1_554
O8 Sr3 2.654056 1_555
O8 Y1 2.738496 1_655
O8 Sr1 2.991592 1_665
O9 Sr3 2.484619 1_455
O9 Sr1 2.617621 1_565
O10 Sr0 2.484619 1_455
O10 Sr2 2.617626 1_565
O11 Sr2 2.484619 1_655
O11 Sr0 2.617626 1_556
O12 Y1 2.253866 1_655
O12 Sr0 2.638750 1_556
O12 Y0 2.833993 1_554
O13 Y0 2.253866 1_555
O13 Sr2 2.638741 1_555
O13 Y1 2.833993 1_645
