# generated using pymatgen
data_Ba6Mg(IrO3)6
_symmetry_space_group_name_H-M   'P 1'
_cell_length_a   5.76395564
_cell_length_b   5.76395544
_cell_length_c   15.16574049
_cell_angle_alpha   91.67462419
_cell_angle_beta   91.67462705
_cell_angle_gamma   119.31687396
_symmetry_Int_Tables_number   1
_chemical_formula_structural   Ba6Mg(IrO3)6
_chemical_formula_sum   'Ba6 Mg1 Ir6 O18'
_cell_volume   438.58734757
_cell_formula_units_Z   1
loop_
 _symmetry_equiv_pos_site_id
 _symmetry_equiv_pos_as_xyz
  1  'x, y, z'
loop_
 _atom_site_type_symbol
 _atom_site_label
 _atom_site_symmetry_multiplicity
 _atom_site_fract_x
 _atom_site_fract_y
 _atom_site_fract_z
 _atom_site_occupancy
  Ba  Ba0  1  0.99889669  0.00110331  0.75000000  1
  Ba  Ba1  1  0.01274616  0.98725384  0.25000000  1
  Ba  Ba2  1  0.34270351  0.67669108  0.89716180  1
  Ba  Ba3  1  0.32330892  0.65729649  0.60283820  1
  Ba  Ba4  1  0.70844422  0.37487054  0.05427398  1
  Ba  Ba5  1  0.62512946  0.29155578  0.44572602  1
  Mg  Mg0  1  0.68130983  0.31869017  0.25000000  1
  Ir  Ir0  1  0.03246184  0.03475165  0.00064107  1
  Ir  Ir1  1  0.96524835  0.96753816  0.49935893  1
  Ir  Ir2  1  0.36971439  0.69532048  0.15184900  1
  Ir  Ir3  1  0.30467952  0.63028561  0.34815100  1
  Ir  Ir4  1  0.66881831  0.33737894  0.84239378  1
  Ir  Ir5  1  0.66262106  0.33118169  0.65760622  1
  O  O0  1  0.07338204  0.25462066  0.40331584  1
  O  O1  1  0.74537934  0.92661896  0.09668416  1
  O  O2  1  0.85944642  0.68588507  0.59361238  1
  O  O3  1  0.31411493  0.14055458  0.90638762  1
  O  O4  1  0.24698836  0.94697806  0.09470614  1
  O  O5  1  0.05302194  0.75301164  0.40529386  1
  O  O6  1  0.81719825  0.12854255  0.91047132  1
  O  O7  1  0.87145745  0.18280175  0.58952868  1
  O  O8  1  0.57134488  0.76840798  0.45410352  1
  O  O9  1  0.23159202  0.42865512  0.04589648  1
  O  O10  1  0.32773800  0.14924219  0.57215307  1
  O  O11  1  0.85075781  0.67226200  0.92784693  1
  O  O12  1  0.51463645  0.48536355  0.75000000  1
  O  O13  1  0.49093903  0.50906097  0.25000000  1
  O  O14  1  0.51631247  0.03918061  0.74573731  1
  O  O15  1  0.96081939  0.48368753  0.75426269  1
  O  O16  1  0.48991621  0.95404527  0.27050688  1
  O  O17  1  0.04595473  0.51008379  0.22949312  1
loop_
_geom_bond_atom_site_label_1
_geom_bond_atom_site_label_2
_geom_bond_distance
_geom_bond_site_symmetry_2
Ba0 O3 2.789070 1_655
Ba0 O2 2.789070 1_545
Ba0 O15 2.884083 1_545
Ba0 O14 2.884083 1_655
Ba0 O7 2.890845 1_555
Ba0 O6 2.890845 1_555
Ba0 O15 2.894439 1_555
Ba0 O14 2.894439 1_555
Ba0 O12 2.915892 1_545
Ba0 O12 2.915892 1_655
Ba0 O11 3.231874 1_545
Ba0 O10 3.231875 1_655
Ba1 O0 2.668154 1_565
Ba1 O1 2.668155 1_455
Ba1 O5 2.807914 1_555
Ba1 O4 2.807914 1_555
Ba1 O17 2.857801 1_555
Ba1 O16 2.857801 1_555
Ba1 O13 2.919756 1_565
Ba1 O13 2.919756 1_455
Ba1 O17 2.950988 1_565
Ba1 O16 2.950988 1_455
Ba2 O9 2.630293 1_556
Ba2 O6 2.695454 1_565
Ba2 O3 2.757947 1_565
Ba2 O15 2.821636 1_455
Ba2 O12 2.869662 1_555
Ba2 O11 2.874805 1_455
Ba2 O11 2.964289 1_555
Ba2 O14 3.001312 1_565
Ba2 O3 3.020666 1_555
Ba2 O6 3.146299 1_455
Ba3 O8 2.630293 1_555
Ba3 O7 2.695454 1_455
Ba3 O2 2.757942 1_455
Ba3 O14 2.821636 1_565
Ba3 O12 2.869662 1_555
Ba3 O10 2.874805 1_565
Ba3 O10 2.964289 1_555
Ba3 O15 3.001312 1_455
Ba3 O2 3.020672 1_555
Ba3 O7 3.146299 1_565
Ba4 O11 2.488878 1_554
Ba4 O4 2.700575 1_545
Ba4 O1 2.786090 1_545
Ba4 O6 2.817012 1_554
Ba4 O9 2.883426 1_655
Ba4 O9 2.912580 1_555
Ba4 O3 2.922191 1_554
Ba4 Mg0 2.995667 1_555
Ba4 O17 3.089566 1_655
Ba4 O1 3.127689 1_555
Ba4 O4 3.260726 1_655
Ba5 O10 2.488878 1_555
Ba5 O5 2.700575 1_655
Ba5 O0 2.786096 1_655
Ba5 O7 2.817012 1_555
Ba5 O8 2.883426 1_545
Ba5 O8 2.912580 1_555
Ba5 O2 2.922192 1_555
Ba5 Mg0 2.995667 1_555
Ba5 O16 3.089566 1_545
Ba5 O0 3.127684 1_555
Ba5 O5 3.260726 1_545
Mg0 O16 1.875879 1_545
Mg0 O17 1.875879 1_655
Mg0 O13 1.893985 1_555
Ir0 O9 2.062588 1_555
Ir0 O3 2.065855 1_554
Ir0 O6 2.074296 1_454
Ir0 O11 2.082267 1_444
Ir0 O4 2.090871 1_545
Ir0 O1 2.105264 1_445
Ir1 O8 2.062588 1_555
Ir1 O2 2.065856 1_555
Ir1 O7 2.074296 1_565
Ir1 O10 2.082267 1_665
Ir1 O5 2.090871 1_655
Ir1 O0 2.105264 1_665
Ir2 O9 2.039815 1_555
Ir2 O17 2.063917 1_555
Ir2 O4 2.097133 1_555
Ir2 O1 2.123683 1_555
Ir2 O13 2.150297 1_555
Ir2 O16 2.168118 1_555
Ir3 O8 2.039815 1_555
Ir3 O16 2.063917 1_555
Ir3 O5 2.097133 1_555
Ir3 O0 2.123682 1_555
Ir3 O13 2.150298 1_555
Ir3 O17 2.168118 1_555
Ir4 O15 2.034152 1_555
Ir4 O14 2.042938 1_555
Ir4 O12 2.054306 1_555
Ir4 O6 2.067739 1_555
Ir4 O11 2.072970 1_555
Ir4 O3 2.077944 1_555
Ir5 O14 2.034152 1_555
Ir5 O15 2.042938 1_555
Ir5 O12 2.054307 1_555
Ir5 O7 2.067739 1_555
Ir5 O10 2.072970 1_555
Ir5 O2 2.077944 1_555
