# generated using pymatgen
data_HfCoSn
_symmetry_space_group_name_H-M   'P 1'
_cell_length_a   6.55559269
_cell_length_b   6.55559269
_cell_length_c   4.31845800
_cell_angle_alpha   90.00000000
_cell_angle_beta   90.00000000
_cell_angle_gamma   120.00000691
_symmetry_Int_Tables_number   1
_chemical_formula_structural   HfCoSn
_chemical_formula_sum   'Hf3 Co3 Sn3'
_cell_volume   160.72492268
_cell_formula_units_Z   3
loop_
 _symmetry_equiv_pos_site_id
 _symmetry_equiv_pos_as_xyz
  1  'x, y, z'
loop_
 _atom_site_type_symbol
 _atom_site_label
 _atom_site_symmetry_multiplicity
 _atom_site_fract_x
 _atom_site_fract_y
 _atom_site_fract_z
 _atom_site_occupancy
  Hf  Hf0  1  0.46821000  0.00000000  0.50000000  1
  Hf  Hf1  1  0.00000000  0.46821000  0.50000000  1
  Hf  Hf2  1  0.53179000  0.53179000  0.50000000  1
  Co  Co0  1  0.76481700  0.00000000  0.00000000  1
  Co  Co1  1  0.00000000  0.76481700  0.00000000  1
  Co  Co2  1  0.23518300  0.23518300  0.00000000  1
  Sn  Sn0  1  0.33333300  0.66666700  0.00000000  1
  Sn  Sn1  1  0.66666700  0.33333300  0.00000000  1
  Sn  Sn2  1  0.00000000  0.00000000  0.50000000  1
loop_
_geom_bond_atom_site_label_1
_geom_bond_atom_site_label_2
_geom_bond_distance
_geom_bond_site_symmetry_2
Hf0 Sn0 2.878717 1_546
Hf0 Sn0 2.878717 1_545
Hf0 Sn1 2.878717 1_555
Hf0 Sn1 2.878717 1_556
Hf0 Sn2 3.069394 1_555
Hf1 Sn1 2.878717 1_456
Hf1 Sn1 2.878717 1_455
Hf1 Sn0 2.878717 1_555
Hf1 Sn0 2.878717 1_556
Hf1 Sn2 3.069394 1_555
Hf2 Sn1 2.878721 1_556
Hf2 Sn0 2.878721 1_555
Hf2 Sn0 2.878721 1_556
Hf2 Sn1 2.878721 1_555
Hf2 Sn2 3.069394 1_665
Co0 Sn1 2.568094 1_555
Co0 Sn0 2.568098 1_545
Co0 Sn2 2.653169 1_654
Co0 Sn2 2.653169 1_655
Co0 Co2 2.670413 1_655
Co0 Co1 2.670414 1_645
Co0 Hf0 2.905701 1_555
Co0 Hf0 2.905701 1_554
Co1 Sn0 2.568094 1_555
Co1 Sn1 2.568098 1_455
Co1 Sn2 2.653169 1_564
Co1 Sn2 2.653169 1_565
Co1 Co2 2.670413 1_565
Co1 Hf1 2.905701 1_555
Co1 Hf1 2.905701 1_554
Co2 Sn1 2.568100 1_555
Co2 Sn0 2.568100 1_555
Co2 Sn2 2.653169 1_554
Co2 Sn2 2.653169 1_555
Co2 Hf2 2.905700 1_554
Co2 Hf2 2.905700 1_555
