# generated using pymatgen
data_Sr4Mn2Bi4O13
_symmetry_space_group_name_H-M   'P 1'
_cell_length_a   5.53239476
_cell_length_b   22.22436058
_cell_length_c   23.77490815
_cell_angle_alpha   90.00000000
_cell_angle_beta   90.00000000
_cell_angle_gamma   90.00000000
_symmetry_Int_Tables_number   1
_chemical_formula_structural   Sr4Mn2Bi4O13
_chemical_formula_sum   'Sr32 Mn16 Bi32 O104'
_cell_volume   2923.21853549
_cell_formula_units_Z   8
loop_
 _symmetry_equiv_pos_site_id
 _symmetry_equiv_pos_as_xyz
  1  'x, y, z'
loop_
 _atom_site_type_symbol
 _atom_site_label
 _atom_site_symmetry_multiplicity
 _atom_site_fract_x
 _atom_site_fract_y
 _atom_site_fract_z
 _atom_site_occupancy
  Sr  Sr0  1  0.75425459  0.38327641  0.68110210  1
  Sr  Sr1  1  0.25425459  0.61672359  0.31889790  1
  Sr  Sr2  1  0.25425459  0.11672359  0.18110210  1
  Sr  Sr3  1  0.75425459  0.88327641  0.81889790  1
  Sr  Sr4  1  0.24763971  0.26265609  0.66728132  1
  Sr  Sr5  1  0.74763971  0.73734391  0.33271868  1
  Sr  Sr6  1  0.74763971  0.23734391  0.16728132  1
  Sr  Sr7  1  0.24763971  0.76265609  0.83271868  1
  Sr  Sr8  1  0.74704239  0.13092625  0.64896587  1
  Sr  Sr9  1  0.24704239  0.86907375  0.35103413  1
  Sr  Sr10  1  0.24704239  0.36907375  0.14896587  1
  Sr  Sr11  1  0.74704239  0.63092625  0.85103413  1
  Sr  Sr12  1  0.24482447  0.99015559  0.64683910  1
  Sr  Sr13  1  0.74482447  0.00984441  0.35316090  1
  Sr  Sr14  1  0.74482447  0.50984441  0.14683910  1
  Sr  Sr15  1  0.24482447  0.49015559  0.85316090  1
  Sr  Sr16  1  0.74940428  0.86150486  0.66662059  1
  Sr  Sr17  1  0.24940428  0.13849514  0.33337941  1
  Sr  Sr18  1  0.24940428  0.63849514  0.16662059  1
  Sr  Sr19  1  0.74940428  0.36150486  0.83337941  1
  Sr  Sr20  1  0.25341615  0.73904185  0.68070353  1
  Sr  Sr21  1  0.75341615  0.26095815  0.31929647  1
  Sr  Sr22  1  0.75341615  0.76095815  0.18070353  1
  Sr  Sr23  1  0.25341615  0.23904185  0.81929647  1
  Sr  Sr24  1  0.75160297  0.61929613  0.69147047  1
  Sr  Sr25  1  0.25160297  0.38070387  0.30852953  1
  Sr  Sr26  1  0.25160297  0.88070387  0.19147047  1
  Sr  Sr27  1  0.75160297  0.11929613  0.80852953  1
  Sr  Sr28  1  0.25188205  0.50213874  0.69198855  1
  Sr  Sr29  1  0.75188205  0.49786126  0.30801145  1
  Sr  Sr30  1  0.75188205  0.99786126  0.19198855  1
  Sr  Sr31  1  0.25188205  0.00213874  0.80801145  1
  Mn  Mn0  1  0.25126947  0.37351286  0.76182190  1
  Mn  Mn1  1  0.75126947  0.62648714  0.23817810  1
  Mn  Mn2  1  0.75126947  0.12648714  0.26182190  1
  Mn  Mn3  1  0.25126947  0.87351286  0.73817810  1
  Mn  Mn4  1  0.74962126  0.24897307  0.74157944  1
  Mn  Mn5  1  0.24962126  0.75102693  0.25842056  1
  Mn  Mn6  1  0.24962126  0.25102693  0.24157944  1
  Mn  Mn7  1  0.74962126  0.74897307  0.75842056  1
  Mn  Mn8  1  0.24851718  0.12483426  0.72477775  1
  Mn  Mn9  1  0.74851718  0.87516574  0.27522225  1
  Mn  Mn10  1  0.74851718  0.37516574  0.22477775  1
  Mn  Mn11  1  0.24851718  0.62483426  0.77522225  1
  Mn  Mn12  1  0.74820809  0.99717784  0.72338685  1
  Mn  Mn13  1  0.24820809  0.00282216  0.27661315  1
  Mn  Mn14  1  0.24820809  0.50282216  0.22338685  1
  Mn  Mn15  1  0.74820809  0.49717784  0.77661315  1
  Bi  Bi0  1  0.27655119  0.39152726  0.56628000  1
  Bi  Bi1  1  0.77655119  0.60847274  0.43372000  1
  Bi  Bi2  1  0.77655119  0.10847274  0.06628000  1
  Bi  Bi3  1  0.27655119  0.89152726  0.93372000  1
  Bi  Bi4  1  0.72838417  0.27232456  0.55747307  1
  Bi  Bi5  1  0.22838417  0.72767544  0.44252693  1
  Bi  Bi6  1  0.22838417  0.22767544  0.05747307  1
  Bi  Bi7  1  0.72838417  0.77232456  0.94252693  1
  Bi  Bi8  1  0.25989350  0.12870535  0.55389849  1
  Bi  Bi9  1  0.75989350  0.87129465  0.44610151  1
  Bi  Bi10  1  0.75989350  0.37129465  0.05389849  1
  Bi  Bi11  1  0.25989350  0.62870535  0.94610151  1
  Bi  Bi12  1  0.75384045  0.99779550  0.55152346  1
  Bi  Bi13  1  0.25384045  0.00220450  0.44847654  1
  Bi  Bi14  1  0.25384045  0.50220450  0.05152346  1
  Bi  Bi15  1  0.75384045  0.49779550  0.94847654  1
  Bi  Bi16  1  0.23146109  0.85061355  0.55625985  1
  Bi  Bi17  1  0.73146109  0.14938645  0.44374015  1
  Bi  Bi18  1  0.73146109  0.64938645  0.05625985  1
  Bi  Bi19  1  0.23146109  0.35061355  0.94374015  1
  Bi  Bi20  1  0.77452766  0.73112464  0.56781941  1
  Bi  Bi21  1  0.27452766  0.26887536  0.43218059  1
  Bi  Bi22  1  0.27452766  0.76887536  0.06781941  1
  Bi  Bi23  1  0.77452766  0.23112464  0.93218059  1
  Bi  Bi24  1  0.23135870  0.61662119  0.57438202  1
  Bi  Bi25  1  0.73135870  0.38337881  0.42561798  1
  Bi  Bi26  1  0.73135870  0.88337881  0.07438202  1
  Bi  Bi27  1  0.23135870  0.11662119  0.92561798  1
  Bi  Bi28  1  0.73022786  0.50385919  0.57367651  1
  Bi  Bi29  1  0.23022786  0.49614081  0.42632349  1
  Bi  Bi30  1  0.23022786  0.99614081  0.07367651  1
  Bi  Bi31  1  0.73022786  0.00385919  0.92632349  1
  O  O0  1  0.66113377  0.40063142  0.57224562  1
  O  O1  1  0.16113377  0.59936858  0.42775438  1
  O  O2  1  0.16113377  0.09936858  0.07224562  1
  O  O3  1  0.66113377  0.90063142  0.92775438  1
  O  O4  1  0.34444923  0.29289802  0.56015169  1
  O  O5  1  0.84444923  0.70710198  0.43984831  1
  O  O6  1  0.84444923  0.20710198  0.06015169  1
  O  O7  1  0.34444923  0.79289802  0.93984831  1
  O  O8  1  0.66055286  0.17914461  0.54865977  1
  O  O9  1  0.16055286  0.82085539  0.45134023  1
  O  O10  1  0.16055286  0.32085539  0.04865977  1
  O  O11  1  0.66055286  0.67914461  0.95134023  1
  O  O12  1  0.98957456  0.06282788  0.58294374  1
  O  O13  1  0.48957456  0.93717212  0.41705626  1
  O  O14  1  0.48957456  0.43717212  0.08294374  1
  O  O15  1  0.98957456  0.56282788  0.91705626  1
  O  O16  1  0.48726261  0.06059382  0.58483093  1
  O  O17  1  0.98726261  0.93940618  0.41516907  1
  O  O18  1  0.98726261  0.43940618  0.08483093  1
  O  O19  1  0.48726261  0.56059382  0.91516907  1
  O  O20  1  0.16393877  0.94292556  0.54606118  1
  O  O21  1  0.66393877  0.05707444  0.45393882  1
  O  O22  1  0.66393877  0.55707444  0.04606118  1
  O  O23  1  0.16393877  0.44292556  0.95393882  1
  O  O24  1  0.84962909  0.82818297  0.56607324  1
  O  O25  1  0.34962909  0.17181703  0.43392676  1
  O  O26  1  0.34962909  0.67181703  0.06607324  1
  O  O27  1  0.84962909  0.32818297  0.93392676  1
  O  O28  1  0.15944460  0.71947611  0.57291490  1
  O  O29  1  0.65944460  0.28052389  0.42708510  1
  O  O30  1  0.65944460  0.78052389  0.07291490  1
  O  O31  1  0.15944460  0.21947611  0.92708510  1
  O  O32  1  0.84271780  0.61020580  0.57922077  1
  O  O33  1  0.34271780  0.38979420  0.42077923  1
  O  O34  1  0.34271780  0.88979420  0.07922077  1
  O  O35  1  0.84271780  0.11020580  0.92077923  1
  O  O36  1  0.34078914  0.50962264  0.57926980  1
  O  O37  1  0.84078914  0.49037736  0.42073020  1
  O  O38  1  0.84078914  0.99037736  0.07926980  1
  O  O39  1  0.34078914  0.00962264  0.92073020  1
  O  O40  1  0.22729591  0.38524865  0.65395194  1
  O  O41  1  0.72729591  0.61475135  0.34604806  1
  O  O42  1  0.72729591  0.11475135  0.15395194  1
  O  O43  1  0.22729591  0.88524865  0.84604806  1
  O  O44  1  0.76352007  0.26673027  0.64675976  1
  O  O45  1  0.26352007  0.73326973  0.35324024  1
  O  O46  1  0.26352007  0.23326973  0.14675976  1
  O  O47  1  0.76352007  0.76673027  0.85324024  1
  O  O48  1  0.23199149  0.15670205  0.63863407  1
  O  O49  1  0.73199149  0.84329795  0.36136593  1
  O  O50  1  0.73199149  0.34329795  0.13863407  1
  O  O51  1  0.23199149  0.65670205  0.86136593  1
  O  O52  1  0.73301312  0.96799118  0.63822061  1
  O  O53  1  0.23301312  0.03200882  0.36177939  1
  O  O54  1  0.23301312  0.53200882  0.13822061  1
  O  O55  1  0.73301312  0.46799118  0.86177939  1
  O  O56  1  0.26441030  0.85770312  0.64942280  1
  O  O57  1  0.76441030  0.14229688  0.35057720  1
  O  O58  1  0.76441030  0.64229688  0.14942280  1
  O  O59  1  0.26441030  0.35770312  0.85057720  1
  O  O60  1  0.72750181  0.73445362  0.65657063  1
  O  O61  1  0.22750181  0.26554638  0.34342937  1
  O  O62  1  0.22750181  0.76554638  0.15657063  1
  O  O63  1  0.72750181  0.23445362  0.84342937  1
  O  O64  1  0.27110881  0.61815873  0.66272163  1
  O  O65  1  0.77110881  0.38184127  0.33727837  1
  O  O66  1  0.77110881  0.88184127  0.16272163  1
  O  O67  1  0.27110881  0.11815873  0.83727837  1
  O  O68  1  0.77161741  0.50245979  0.66167371  1
  O  O69  1  0.27161741  0.49754021  0.33832629  1
  O  O70  1  0.27161741  0.99754021  0.16167371  1
  O  O71  1  0.77161741  0.00245979  0.83832629  1
  O  O72  1  0.00865573  0.43779390  0.76256196  1
  O  O73  1  0.50865573  0.56220610  0.23743804  1
  O  O74  1  0.50865573  0.06220610  0.26256196  1
  O  O75  1  0.00865573  0.93779390  0.73743804  1
  O  O76  1  0.50737948  0.43380924  0.75838262  1
  O  O77  1  0.00737948  0.56619076  0.24161738  1
  O  O78  1  0.00737948  0.06619076  0.25838262  1
  O  O79  1  0.50737948  0.93380924  0.74161738  1
  O  O80  1  0.99308306  0.31307536  0.75117952  1
  O  O81  1  0.49308306  0.68692464  0.24882048  1
  O  O82  1  0.49308306  0.18692464  0.25117952  1
  O  O83  1  0.99308306  0.81307536  0.74882048  1
  O  O84  1  0.49259244  0.30964392  0.74841867  1
  O  O85  1  0.99259244  0.69035608  0.25158133  1
  O  O86  1  0.99259244  0.19035608  0.24841867  1
  O  O87  1  0.49259244  0.80964392  0.75158133  1
  O  O88  1  0.00749995  0.18862688  0.74135882  1
  O  O89  1  0.50749995  0.81137312  0.25864118  1
  O  O90  1  0.50749995  0.31137312  0.24135882  1
  O  O91  1  0.00749995  0.68862688  0.75864118  1
  O  O92  1  0.50838598  0.18458081  0.73748323  1
  O  O93  1  0.00838598  0.81541919  0.26251677  1
  O  O94  1  0.00838598  0.31541919  0.23748323  1
  O  O95  1  0.50838598  0.68458081  0.76251677  1
  O  O96  1  0.98883155  0.06352452  0.72608893  1
  O  O97  1  0.48883155  0.93647548  0.27391107  1
  O  O98  1  0.48883155  0.43647548  0.22608893  1
  O  O99  1  0.98883155  0.56352452  0.77391107  1
  O  O100  1  0.48969323  0.05876442  0.72603749  1
  O  O101  1  0.98969323  0.94123558  0.27396251  1
  O  O102  1  0.98969323  0.44123558  0.22603749  1
  O  O103  1  0.48969323  0.55876442  0.77396251  1
loop_
_geom_bond_atom_site_label_1
_geom_bond_atom_site_label_2
_geom_bond_distance
_geom_bond_site_symmetry_2
Mn0 O76 1.951929 1_555
Mn0 O72 1.960310 1_555
Mn0 O84 1.974550 1_555
Mn0 O80 1.976983 1_455
Mn0 O59 2.140437 1_555
Mn0 O40 2.581237 1_555
Mn1 O77 1.951929 1_655
Mn1 O73 1.960310 1_555
Mn1 O85 1.974550 1_555
Mn1 O81 1.976983 1_555
Mn1 O58 2.140437 1_555
Mn1 O41 2.581237 1_555
Mn2 O78 1.951929 1_655
Mn2 O74 1.960310 1_555
Mn2 O86 1.974550 1_555
Mn2 O82 1.976983 1_555
Mn2 O57 2.140437 1_555
Mn2 O42 2.581237 1_555
Mn3 O79 1.951929 1_555
Mn3 O75 1.960310 1_555
Mn3 O87 1.974550 1_555
Mn3 O83 1.976983 1_455
Mn3 O56 2.140437 1_555
Mn3 O43 2.581237 1_555
Mn4 O88 1.958101 1_655
Mn4 O92 1.959246 1_555
Mn4 O84 1.966363 1_555
Mn4 O80 1.973799 1_555
Mn4 O44 2.289903 1_555
Mn4 O63 2.445942 1_555
Mn5 O89 1.958101 1_555
Mn5 O93 1.959246 1_555
Mn5 O85 1.966363 1_455
Mn5 O81 1.973799 1_555
Mn5 O45 2.289903 1_555
Mn5 O62 2.445942 1_555
Mn6 O90 1.958101 1_555
Mn6 O94 1.959246 1_555
Mn6 O86 1.966363 1_455
Mn6 O82 1.973799 1_555
Mn6 O46 2.289903 1_555
Mn6 O61 2.445942 1_555
Mn7 O91 1.958101 1_655
Mn7 O95 1.959246 1_555
Mn7 O87 1.966363 1_555
Mn7 O83 1.973799 1_555
Mn7 O47 2.289903 1_555
Mn7 O60 2.445942 1_555
Mn8 O92 1.980240 1_555
Mn8 O96 1.980310 1_455
Mn8 O100 1.984259 1_555
Mn8 O88 1.985795 1_555
Mn8 O48 2.168987 1_555
Mn8 O67 2.681718 1_555
Mn9 O93 1.980240 1_655
Mn9 O97 1.980310 1_555
Mn9 O101 1.984259 1_555
Mn9 O89 1.985795 1_555
Mn9 O49 2.168987 1_555
Mn9 O66 2.681718 1_555
Mn10 O94 1.980240 1_655
Mn10 O98 1.980310 1_555
Mn10 O102 1.984259 1_555
Mn10 O90 1.985795 1_555
Mn10 O50 2.168987 1_555
Mn10 O65 2.681718 1_555
Mn11 O95 1.980240 1_555
Mn11 O99 1.980310 1_455
Mn11 O103 1.984259 1_555
Mn11 O91 1.985795 1_555
Mn11 O51 2.168987 1_555
Mn11 O64 2.681718 1_555
Mn12 O100 1.980622 1_565
Mn12 O75 1.982318 1_655
Mn12 O79 1.986561 1_555
Mn12 O96 1.987579 1_565
Mn12 O52 2.127843 1_555
Mn12 O71 2.738259 1_565
Mn13 O101 1.980622 1_445
Mn13 O74 1.982318 1_555
Mn13 O78 1.986561 1_555
Mn13 O97 1.987579 1_545
Mn13 O53 2.127843 1_555
Mn13 O70 2.738259 1_545
Mn14 O102 1.980622 1_455
Mn14 O73 1.982318 1_555
Mn14 O77 1.986561 1_555
Mn14 O98 1.987579 1_555
Mn14 O54 2.127843 1_555
Mn14 O69 2.738259 1_555
Mn15 O103 1.980622 1_555
Mn15 O72 1.982318 1_655
Mn15 O76 1.986561 1_555
Mn15 O99 1.987579 1_555
Mn15 O55 2.127843 1_555
Mn15 O68 2.738259 1_555
Bi0 O40 2.106755 1_555
Bi0 O0 2.141963 1_555
Bi0 O4 2.228693 1_555
Bi0 O36 2.666491 1_555
Bi1 O41 2.106755 1_555
Bi1 O1 2.141963 1_655
Bi1 O5 2.228693 1_555
Bi1 O37 2.666491 1_555
Bi2 O42 2.106755 1_555
Bi2 O2 2.141963 1_655
Bi2 O6 2.228693 1_555
Bi2 O38 2.666491 1_545
Bi3 O43 2.106755 1_555
Bi3 O3 2.141963 1_555
Bi3 O7 2.228693 1_555
Bi3 O39 2.666491 1_565
Bi4 O8 2.114997 1_555
Bi4 O44 2.135287 1_555
Bi4 O4 2.173668 1_555
Bi5 O9 2.114997 1_555
Bi5 O45 2.135287 1_555
Bi5 O5 2.173668 1_455
Bi6 O10 2.114997 1_555
Bi6 O46 2.135287 1_555
Bi6 O6 2.173668 1_455
Bi7 O11 2.114997 1_555
Bi7 O47 2.135287 1_555
Bi7 O7 2.173668 1_555
Bi8 O16 2.101079 1_555
Bi8 O48 2.114121 1_555
Bi8 O12 2.203850 1_455
Bi8 O8 2.487057 1_555
Bi9 O17 2.101079 1_555
Bi9 O49 2.114121 1_555
Bi9 O13 2.203850 1_555
Bi9 O9 2.487057 1_655
Bi10 O18 2.101079 1_555
Bi10 O50 2.114121 1_555
Bi10 O14 2.203850 1_555
Bi10 O10 2.487057 1_655
Bi11 O19 2.101079 1_555
Bi11 O51 2.114121 1_555
Bi11 O15 2.203850 1_455
Bi11 O11 2.487057 1_555
Bi12 O12 2.085138 1_565
Bi12 O52 2.168096 1_555
Bi12 O16 2.179449 1_565
Bi12 O20 2.579049 1_655
Bi12 O21 2.713987 1_565
Bi13 O13 2.085138 1_545
Bi13 O53 2.168096 1_555
Bi13 O17 2.179449 1_445
Bi13 O21 2.579049 1_555
Bi13 O20 2.713987 1_545
Bi14 O14 2.085138 1_555
Bi14 O54 2.168096 1_555
Bi14 O18 2.179449 1_455
Bi14 O22 2.579049 1_555
Bi14 O23 2.713987 1_554
Bi15 O15 2.085138 1_555
Bi15 O55 2.168096 1_555
Bi15 O19 2.179449 1_555
Bi15 O23 2.579049 1_655
Bi15 O22 2.713987 1_556
Bi16 O20 2.099357 1_555
Bi16 O24 2.182972 1_455
Bi16 O56 2.228007 1_555
Bi16 O9 2.610285 1_555
Bi17 O21 2.099357 1_555
Bi17 O25 2.182972 1_555
Bi17 O57 2.228007 1_555
Bi17 O8 2.610285 1_555
Bi18 O22 2.099357 1_555
Bi18 O26 2.182972 1_555
Bi18 O58 2.228007 1_555
Bi18 O11 2.610285 1_554
Bi19 O23 2.099357 1_555
Bi19 O27 2.182972 1_455
Bi19 O59 2.228007 1_555
Bi19 O10 2.610285 1_556
Bi20 O60 2.127317 1_555
Bi20 O28 2.148609 1_655
Bi20 O24 2.197103 1_555
Bi20 O32 2.727199 1_555
Bi21 O61 2.127317 1_555
Bi21 O29 2.148609 1_555
Bi21 O25 2.197103 1_555
Bi21 O33 2.727199 1_555
Bi22 O62 2.127317 1_555
Bi22 O30 2.148609 1_555
Bi22 O26 2.197103 1_555
Bi22 O34 2.727199 1_555
Bi23 O63 2.127317 1_555
Bi23 O31 2.148609 1_655
Bi23 O27 2.197103 1_555
Bi23 O35 2.727199 1_555
Bi24 O64 2.112024 1_555
Bi24 O32 2.157906 1_455
Bi24 O28 2.320512 1_555
Bi24 O36 2.456581 1_555
Bi25 O65 2.112024 1_555
Bi25 O33 2.157906 1_555
Bi25 O29 2.320512 1_555
Bi25 O37 2.456581 1_555
Bi26 O66 2.112024 1_555
Bi26 O34 2.157906 1_555
Bi26 O30 2.320512 1_555
Bi26 O38 2.456581 1_555
Bi27 O67 2.112024 1_555
Bi27 O35 2.157906 1_455
Bi27 O31 2.320512 1_555
Bi27 O39 2.456581 1_555
Bi28 O68 2.104849 1_555
Bi28 O36 2.162426 1_555
Bi28 O0 2.326048 1_555
Bi28 O32 2.447600 1_555
Bi29 O69 2.104849 1_555
Bi29 O37 2.162426 1_455
Bi29 O1 2.326048 1_555
Bi29 O33 2.447600 1_555
Bi30 O70 2.104849 1_555
Bi30 O38 2.162426 1_455
Bi30 O2 2.326048 1_565
Bi30 O34 2.447600 1_555
Bi31 O71 2.104849 1_555
Bi31 O39 2.162426 1_555
Bi31 O3 2.326048 1_545
Bi31 O35 2.447600 1_555
O0 Sr0 2.666870 1_555
O1 Sr1 2.666870 1_555
O2 Sr2 2.666870 1_555
O3 Sr3 2.666870 1_555
O4 Sr4 2.688081 1_555
O5 Sr5 2.688081 1_555
O6 Sr6 2.688081 1_555
O7 Sr7 2.688081 1_555
O8 Sr8 2.657903 1_555
O9 Sr9 2.657903 1_555
O10 Sr10 2.657903 1_555
O11 Sr11 2.657903 1_555
O12 Sr8 2.560226 1_555
O12 Sr12 2.628757 1_645
O13 Sr9 2.560226 1_555
O13 Sr13 2.628757 1_565
O14 Sr10 2.560226 1_555
O14 Sr14 2.628757 1_555
O15 Sr11 2.560226 1_555
O15 Sr15 2.628757 1_655
O16 Sr12 2.534361 1_545
O16 Sr8 2.614161 1_555
O17 Sr13 2.534361 1_565
O17 Sr9 2.614161 1_655
O18 Sr14 2.534361 1_555
O18 Sr10 2.614161 1_655
O19 Sr15 2.534361 1_555
O19 Sr11 2.614161 1_555
O20 Sr12 2.653823 1_555
O21 Sr13 2.653823 1_555
O22 Sr14 2.653823 1_555
O23 Sr15 2.653823 1_555
O24 Sr16 2.563277 1_555
O25 Sr17 2.563277 1_555
O26 Sr18 2.563277 1_555
O27 Sr19 2.563277 1_555
O28 Sr20 2.650777 1_555
O29 Sr21 2.650777 1_555
O30 Sr22 2.650777 1_555
O31 Sr23 2.650777 1_555
O32 Sr24 2.723420 1_555
O33 Sr25 2.723420 1_555
O34 Sr26 2.723420 1_555
O35 Sr27 2.723420 1_555
O36 Sr28 2.729715 1_555
O37 Sr29 2.729715 1_555
O38 Sr30 2.729715 1_555
O39 Sr31 2.729715 1_555
O40 Sr0 2.695837 1_455
O40 Sr4 2.745218 1_555
O40 Sr28 2.754069 1_555
O40 Sr0 2.986270 1_555
O41 Sr1 2.695837 1_555
O41 Sr5 2.745218 1_555
O41 Sr29 2.754069 1_555
O41 Sr1 2.986270 1_655
O42 Sr2 2.695837 1_555
O42 Sr6 2.745218 1_555
O42 Sr30 2.754069 1_545
O42 Sr2 2.986270 1_655
O43 Sr3 2.695837 1_455
O43 Sr7 2.745218 1_555
O43 Sr31 2.754069 1_565
O43 Sr3 2.986270 1_555
O44 Sr0 2.716289 1_555
O44 Sr4 2.723922 1_655
O44 Sr4 2.896872 1_555
O44 Sr8 3.019989 1_555
O45 Sr1 2.716289 1_555
O45 Sr5 2.723922 1_555
O45 Sr5 2.896872 1_455
O45 Sr9 3.019989 1_555
O46 Sr2 2.716289 1_555
O46 Sr6 2.723922 1_555
O46 Sr6 2.896872 1_455
O46 Sr10 3.019989 1_555
O47 Sr3 2.716289 1_555
O47 Sr7 2.723922 1_655
O47 Sr7 2.896872 1_555
O47 Sr11 3.019989 1_555
O48 Sr4 2.452809 1_555
O48 Sr8 2.754380 1_455
O48 Sr8 2.916838 1_555
O49 Sr5 2.452809 1_555
O49 Sr9 2.754380 1_555
O49 Sr9 2.916838 1_655
O50 Sr6 2.452809 1_555
O50 Sr10 2.754380 1_555
O50 Sr10 2.916838 1_655
O51 Sr7 2.452809 1_555
O51 Sr11 2.754380 1_455
O51 Sr11 2.916838 1_555
O52 Sr16 2.462697 1_555
O52 Sr12 2.753041 1_555
O52 Sr12 2.881365 1_655
O53 Sr17 2.462697 1_555
O53 Sr13 2.753041 1_455
O53 Sr13 2.881365 1_555
O54 Sr18 2.462697 1_555
O54 Sr14 2.753041 1_455
O54 Sr14 2.881365 1_555
O55 Sr19 2.462697 1_555
O55 Sr15 2.753041 1_555
O55 Sr15 2.881365 1_655
O56 Sr16 2.715467 1_555
O56 Sr20 2.740703 1_555
O56 Sr16 2.879645 1_455
O56 Sr12 2.946305 1_555
O57 Sr17 2.715467 1_655
O57 Sr21 2.740703 1_555
O57 Sr17 2.879645 1_555
O57 Sr13 2.946305 1_555
O58 Sr18 2.715467 1_655
O58 Sr22 2.740703 1_555
O58 Sr18 2.879645 1_555
O58 Sr14 2.946305 1_555
O59 Sr19 2.715467 1_555
O59 Sr23 2.740703 1_555
O59 Sr19 2.879645 1_455
O59 Sr15 2.946305 1_555
O60 Sr20 2.686788 1_555
O60 Sr24 2.693747 1_555
O60 Sr16 2.836314 1_555
O60 Sr20 2.967350 1_655
O61 Sr21 2.686788 1_455
O61 Sr25 2.693747 1_555
O61 Sr17 2.836314 1_555
O61 Sr21 2.967350 1_555
O62 Sr22 2.686788 1_455
O62 Sr26 2.693747 1_555
O62 Sr18 2.836314 1_555
O62 Sr22 2.967350 1_555
O63 Sr23 2.686788 1_555
O63 Sr27 2.693747 1_555
O63 Sr19 2.836314 1_555
O63 Sr23 2.967350 1_655
O64 Sr28 2.672824 1_555
O64 Sr20 2.722114 1_555
O64 Sr24 2.744865 1_555
O64 Sr24 2.954375 1_455
O65 Sr29 2.672824 1_555
O65 Sr21 2.722114 1_555
O65 Sr25 2.744865 1_655
O65 Sr25 2.954375 1_555
O66 Sr30 2.672824 1_555
O66 Sr22 2.722114 1_555
O66 Sr26 2.744865 1_655
O66 Sr26 2.954375 1_555
O67 Sr31 2.672824 1_555
O67 Sr23 2.722114 1_555
O67 Sr27 2.744865 1_555
O67 Sr27 2.954375 1_455
O68 Sr0 2.690463 1_555
O68 Sr24 2.693791 1_555
O68 Sr28 2.753040 1_655
O68 Sr28 2.964342 1_555
O69 Sr1 2.690463 1_555
O69 Sr25 2.693791 1_555
O69 Sr29 2.753040 1_555
O69 Sr29 2.964342 1_455
O70 Sr2 2.690463 1_565
O70 Sr26 2.693791 1_555
O70 Sr30 2.753040 1_555
O70 Sr30 2.964342 1_455
O71 Sr3 2.690463 1_545
O71 Sr27 2.693791 1_555
O71 Sr31 2.753040 1_655
O71 Sr31 2.964342 1_555
O72 Sr28 2.582816 1_555
O72 Sr0 2.683232 1_455
O72 Sr15 2.775066 1_555
O72 Sr19 2.786857 1_455
O73 Sr29 2.582816 1_555
O73 Sr1 2.683232 1_555
O73 Sr14 2.775066 1_555
O73 Sr18 2.786857 1_555
O74 Sr30 2.582816 1_545
O74 Sr2 2.683232 1_555
O74 Sr13 2.775066 1_555
O74 Sr17 2.786857 1_555
O75 Sr31 2.582816 1_565
O75 Sr3 2.683232 1_455
O75 Sr12 2.775066 1_555
O75 Sr16 2.786857 1_455
O76 Sr0 2.550002 1_555
O76 Sr28 2.606876 1_555
O76 Sr19 2.748506 1_555
O76 Sr15 2.958994 1_555
O77 Sr1 2.550002 1_555
O77 Sr29 2.606876 1_455
O77 Sr18 2.748506 1_555
O77 Sr14 2.958994 1_455
O78 Sr2 2.550002 1_555
O78 Sr30 2.606876 1_445
O78 Sr17 2.748506 1_555
O78 Sr13 2.958994 1_455
O79 Sr3 2.550002 1_555
O79 Sr31 2.606876 1_565
O79 Sr16 2.748506 1_555
O79 Sr12 2.958994 1_555
O80 Sr19 2.606754 1_555
O80 Sr0 2.637384 1_555
O80 Sr4 2.686568 1_655
O80 Sr23 2.721071 1_655
O81 Sr18 2.606754 1_555
O81 Sr1 2.637384 1_555
O81 Sr5 2.686568 1_555
O81 Sr22 2.721071 1_555
O82 Sr17 2.606754 1_555
O82 Sr2 2.637384 1_555
O82 Sr6 2.686568 1_555
O82 Sr21 2.721071 1_555
O83 Sr16 2.606754 1_555
O83 Sr3 2.637384 1_555
O83 Sr7 2.686568 1_655
O83 Sr20 2.721071 1_655
O84 Sr4 2.578406 1_555
O84 Sr23 2.655662 1_555
O84 Sr0 2.708310 1_555
O84 Sr19 2.725288 1_555
O85 Sr5 2.578406 1_555
O85 Sr22 2.655662 1_555
O85 Sr1 2.708310 1_655
O85 Sr18 2.725288 1_655
O86 Sr6 2.578406 1_555
O86 Sr21 2.655662 1_555
O86 Sr2 2.708310 1_655
O86 Sr17 2.725288 1_655
O87 Sr7 2.578406 1_555
O87 Sr20 2.655662 1_555
O87 Sr3 2.708310 1_555
O87 Sr16 2.725288 1_555
O88 Sr23 2.557308 1_555
O88 Sr27 2.632256 1_455
O88 Sr4 2.752030 1_555
O88 Sr8 2.923353 1_455
O89 Sr22 2.557308 1_555
O89 Sr26 2.632256 1_555
O89 Sr5 2.752030 1_555
O89 Sr9 2.923353 1_555
O90 Sr21 2.557308 1_555
O90 Sr25 2.632256 1_555
O90 Sr6 2.752030 1_555
O90 Sr10 2.923353 1_555
O91 Sr20 2.557308 1_555
O91 Sr24 2.632256 1_455
O91 Sr7 2.752030 1_555
O91 Sr11 2.923353 1_455
O92 Sr27 2.601697 1_555
O92 Sr23 2.690385 1_555
O92 Sr8 2.755739 1_555
O92 Sr4 2.806686 1_555
O93 Sr26 2.601697 1_555
O93 Sr22 2.690385 1_455
O93 Sr9 2.755739 1_555
O93 Sr5 2.806686 1_455
O94 Sr25 2.601697 1_555
O94 Sr21 2.690385 1_455
O94 Sr10 2.755739 1_555
O94 Sr6 2.806686 1_455
O95 Sr24 2.601697 1_555
O95 Sr20 2.690385 1_555
O95 Sr11 2.755739 1_555
O95 Sr7 2.806686 1_555
O96 Sr27 2.664677 1_555
O96 Sr8 2.719434 1_555
O96 Sr31 2.787945 1_655
O96 Sr12 2.866114 1_645
O97 Sr26 2.664677 1_555
O97 Sr9 2.719434 1_555
O97 Sr30 2.787945 1_555
O97 Sr13 2.866114 1_565
O98 Sr25 2.664677 1_555
O98 Sr10 2.719434 1_555
O98 Sr29 2.787945 1_555
O98 Sr14 2.866114 1_555
O99 Sr24 2.664677 1_555
O99 Sr11 2.719434 1_555
O99 Sr28 2.787945 1_655
O99 Sr15 2.866114 1_655
O100 Sr31 2.667025 1_555
O100 Sr12 2.775907 1_545
O100 Sr27 2.784925 1_555
O100 Sr8 2.820759 1_555
O101 Sr30 2.667025 1_555
O101 Sr13 2.775907 1_565
O101 Sr26 2.784925 1_655
O101 Sr9 2.820759 1_655
O102 Sr29 2.667025 1_555
O102 Sr14 2.775907 1_555
O102 Sr25 2.784925 1_655
O102 Sr10 2.820759 1_655
O103 Sr28 2.667025 1_555
O103 Sr15 2.775907 1_555
O103 Sr24 2.784925 1_555
O103 Sr11 2.820759 1_555
