# generated using pymatgen
data_HfMg14CuO16
_symmetry_space_group_name_H-M   'P 1'
_cell_length_a   8.67650177
_cell_length_b   8.73961299
_cell_length_c   4.26767535
_cell_angle_alpha   90.00000000
_cell_angle_beta   90.00000000
_cell_angle_gamma   90.00000000
_symmetry_Int_Tables_number   1
_chemical_formula_structural   HfMg14CuO16
_chemical_formula_sum   'Hf1 Mg14 Cu1 O16'
_cell_volume   323.61469605
_cell_formula_units_Z   1
loop_
 _symmetry_equiv_pos_site_id
 _symmetry_equiv_pos_as_xyz
  1  'x, y, z'
loop_
 _atom_site_type_symbol
 _atom_site_label
 _atom_site_symmetry_multiplicity
 _atom_site_fract_x
 _atom_site_fract_y
 _atom_site_fract_z
 _atom_site_occupancy
  Hf  Hf0  1  0.00000000  0.50000000  0.00000000  1
  Mg  Mg0  1  0.50000000  0.00000000  0.00000000  1
  Mg  Mg1  1  0.50000000  0.50000000  0.00000000  1
  Mg  Mg2  1  -0.00000000  0.23294262  0.50000000  1
  Mg  Mg3  1  0.00000000  0.76705738  0.50000000  1
  Mg  Mg4  1  0.50000000  0.24701600  0.50000000  1
  Mg  Mg5  1  0.50000000  0.75298400  0.50000000  1
  Mg  Mg6  1  0.24876196  0.00000000  0.50000000  1
  Mg  Mg7  1  0.25810882  0.50000000  0.50000000  1
  Mg  Mg8  1  0.75123804  -0.00000000  0.50000000  1
  Mg  Mg9  1  0.74189118  0.50000000  0.50000000  1
  Mg  Mg10  1  0.25438741  0.23970560  -0.00000000  1
  Mg  Mg11  1  0.25438741  0.76029440  -0.00000000  1
  Mg  Mg12  1  0.74561259  0.23970560  0.00000000  1
  Mg  Mg13  1  0.74561259  0.76029440  0.00000000  1
  Cu  Cu0  1  0.00000000  0.00000000  0.00000000  1
  O  O0  1  0.26723046  0.00000000  0.00000000  1
  O  O1  1  0.25339663  0.50000000  -0.00000000  1
  O  O2  1  0.73276954  0.00000000  0.00000000  1
  O  O3  1  0.74660337  0.50000000  0.00000000  1
  O  O4  1  0.24793706  0.25078132  0.50000000  1
  O  O5  1  0.24793706  0.74921868  0.50000000  1
  O  O6  1  0.75206294  0.25078132  0.50000000  1
  O  O7  1  0.75206294  0.74921868  0.50000000  1
  O  O8  1  0.00000000  0.00000000  0.50000000  1
  O  O9  1  0.00000000  0.50000000  0.50000000  1
  O  O10  1  0.50000000  0.00000000  0.50000000  1
  O  O11  1  0.50000000  0.50000000  0.50000000  1
  O  O12  1  0.00000000  0.26613128  0.00000000  1
  O  O13  1  0.00000000  0.73386872  -0.00000000  1
  O  O14  1  0.50000000  0.25418952  -0.00000000  1
  O  O15  1  0.50000000  0.74581048  0.00000000  1
loop_
_geom_bond_atom_site_label_1
_geom_bond_atom_site_label_2
_geom_bond_distance
_geom_bond_site_symmetry_2
Hf0 O12 2.043922 1_555
Hf0 O13 2.043922 1_555
Hf0 O9 2.133838 1_554
Hf0 O9 2.133838 1_555
Hf0 O1 2.198596 1_555
Hf0 O3 2.198596 1_455
Mg0 O0 2.019625 1_555
Mg0 O2 2.019625 1_555
Mg0 O10 2.133838 1_555
Mg0 O10 2.133838 1_554
Mg0 O15 2.221518 1_545
Mg0 O14 2.221518 1_555
Mg1 O11 2.133838 1_554
Mg1 O11 2.133838 1_555
Mg1 O3 2.139655 1_555
Mg1 O1 2.139655 1_555
Mg1 O14 2.148288 1_555
Mg1 O15 2.148288 1_555
Mg2 O8 2.035828 1_555
Mg2 O12 2.153461 1_555
Mg2 O12 2.153461 1_556
Mg2 O4 2.156868 1_555
Mg2 O6 2.156868 1_455
Mg2 O9 2.333978 1_555
Mg3 O8 2.035828 1_565
Mg3 O13 2.153461 1_555
Mg3 O13 2.153461 1_556
Mg3 O5 2.156868 1_555
Mg3 O7 2.156868 1_455
Mg3 O9 2.333978 1_555
Mg4 O14 2.134758 1_556
Mg4 O14 2.134758 1_555
Mg4 O10 2.158824 1_555
Mg4 O6 2.187272 1_555
Mg4 O4 2.187272 1_555
Mg4 O11 2.210982 1_555
Mg5 O15 2.134758 1_556
Mg5 O15 2.134758 1_555
Mg5 O10 2.158824 1_565
Mg5 O7 2.187272 1_555
Mg5 O5 2.187272 1_555
Mg5 O11 2.210982 1_555
Mg6 O0 2.139846 1_555
Mg6 O0 2.139846 1_556
Mg6 O8 2.158384 1_555
Mg6 O10 2.179867 1_555
Mg6 O4 2.191743 1_555
Mg6 O5 2.191743 1_545
Mg7 O11 2.098769 1_555
Mg7 O1 2.134229 1_556
Mg7 O1 2.134229 1_555
Mg7 O4 2.179862 1_555
Mg7 O5 2.179862 1_555
Mg7 O9 2.239482 1_555
Mg8 O2 2.139846 1_555
Mg8 O2 2.139846 1_556
Mg8 O8 2.158384 1_655
Mg8 O10 2.179867 1_555
Mg8 O6 2.191743 1_555
Mg8 O7 2.191743 1_545
Mg9 O11 2.098769 1_555
Mg9 O3 2.134229 1_556
Mg9 O3 2.134229 1_555
Mg9 O6 2.179862 1_555
Mg9 O7 2.179862 1_555
Mg9 O9 2.239482 1_655
Mg10 O0 2.097896 1_555
Mg10 O14 2.134814 1_555
Mg10 O4 2.136765 1_554
Mg10 O4 2.136765 1_555
Mg10 O12 2.219243 1_555
Mg10 O1 2.274889 1_555
Mg11 O0 2.097896 1_565
Mg11 O15 2.134814 1_555
Mg11 O5 2.136765 1_554
Mg11 O5 2.136765 1_555
Mg11 O13 2.219243 1_555
Mg11 O1 2.274889 1_555
Mg12 O2 2.097896 1_555
Mg12 O14 2.134814 1_555
Mg12 O6 2.136765 1_555
Mg12 O6 2.136765 1_554
Mg12 O12 2.219243 1_655
Mg12 O3 2.274889 1_555
Mg13 O2 2.097896 1_565
Mg13 O15 2.134814 1_555
Mg13 O7 2.136765 1_555
Mg13 O7 2.136765 1_554
Mg13 O13 2.219243 1_655
Mg13 O3 2.274889 1_555
Cu0 O8 2.133838 1_555
Cu0 O8 2.133838 1_554
Cu0 O2 2.318626 1_455
Cu0 O0 2.318626 1_555
Cu0 O13 2.325884 1_545
Cu0 O12 2.325884 1_555
