# generated using pymatgen
data_Nb5Ge3B
_symmetry_space_group_name_H-M   'P 1'
_cell_length_a   5.35856899
_cell_length_b   7.75821075
_cell_length_c   7.75860533
_cell_angle_alpha   119.99830920
_cell_angle_beta   90.00000000
_cell_angle_gamma   90.00000000
_symmetry_Int_Tables_number   1
_chemical_formula_structural   Nb5Ge3B
_chemical_formula_sum   'Nb10 Ge6 B2'
_cell_volume   279.33933224
_cell_formula_units_Z   2
loop_
 _symmetry_equiv_pos_site_id
 _symmetry_equiv_pos_as_xyz
  1  'x, y, z'
loop_
 _atom_site_type_symbol
 _atom_site_label
 _atom_site_symmetry_multiplicity
 _atom_site_fract_x
 _atom_site_fract_y
 _atom_site_fract_z
 _atom_site_occupancy
  Nb  Nb0  1  0.49999904  0.33331141  0.66662588  1
  Nb  Nb1  1  0.49999904  0.66668653  0.33337412  1
  Nb  Nb2  1  0.99999904  0.66668859  0.33337412  1
  Nb  Nb3  1  0.99999904  0.33331347  0.66662588  1
  Nb  Nb4  1  0.75000242  0.24428549  0.00000000  1
  Nb  Nb5  1  0.74999997  0.75561076  0.75570503  1
  Nb  Nb6  1  0.74999997  0.99990472  0.24429497  1
  Nb  Nb7  1  0.25000242  0.75571451  -0.00000000  1
  Nb  Nb8  1  0.24999997  0.24439024  0.24429497  1
  Nb  Nb9  1  0.24999997  0.00009528  0.75570503  1
  Ge  Ge0  1  0.74999989  0.59941913  0.00000000  1
  Ge  Ge1  1  0.74999920  0.40040795  0.40041081  1
  Ge  Ge2  1  0.74999920  0.99999714  0.59958919  1
  Ge  Ge3  1  0.24999989  0.40058087  -0.00000000  1
  Ge  Ge4  1  0.24999920  0.59959205  0.59958919  1
  Ge  Ge5  1  0.24999920  0.00000286  0.40041081  1
  B  B0  1  0.50000026  0.00000244  -0.00000000  1
  B  B1  1  0.00000026  0.99999856  0.00000000  1
loop_
_geom_bond_atom_site_label_1
_geom_bond_atom_site_label_2
_geom_bond_distance
_geom_bond_site_symmetry_2
Ge0 Nb6 2.712471 1_555
Ge0 Nb5 2.712477 1_554
Ge0 Nb2 2.721629 1_555
Ge0 Nb3 2.721631 1_554
Ge0 Nb1 2.721638 1_555
Ge0 Nb0 2.721640 1_554
Ge0 Nb4 2.755202 1_555
Ge0 Nb7 2.940888 1_555
Ge0 Nb7 2.940913 1_655
Ge1 Nb4 2.712116 1_555
Ge1 Nb6 2.712630 1_545
Ge1 Nb3 2.721542 1_555
Ge1 Nb0 2.721552 1_555
Ge1 Nb1 2.721634 1_555
Ge1 Nb2 2.721647 1_555
Ge1 Nb5 2.756233 1_555
Ge1 Nb8 2.940192 1_555
Ge1 Nb8 2.940199 1_655
Ge2 Nb4 2.712116 1_566
Ge2 Nb5 2.712623 1_555
Ge2 Nb2 2.721538 1_555
Ge2 Nb1 2.721548 1_555
Ge2 Nb0 2.721627 1_565
Ge2 Nb3 2.721640 1_565
Ge2 Nb6 2.756229 1_555
Ge2 Nb9 2.940192 1_565
Ge2 Nb9 2.940199 1_665
Ge3 Nb8 2.712471 1_555
Ge3 Nb9 2.712471 1_554
Ge3 Nb0 2.721629 1_554
Ge3 Nb1 2.721631 1_555
Ge3 Nb3 2.721638 1_454
Ge3 Nb2 2.721640 1_455
Ge3 Nb7 2.755202 1_555
Ge3 Nb4 2.940888 1_455
Ge3 Nb4 2.940913 1_555
Ge4 Nb7 2.712116 1_556
Ge4 Nb9 2.712630 1_565
Ge4 Nb1 2.721542 1_555
Ge4 Nb2 2.721552 1_455
Ge4 Nb3 2.721634 1_455
Ge4 Nb0 2.721647 1_555
Ge4 Nb8 2.756230 1_555
Ge4 Nb5 2.940193 1_455
Ge4 Nb5 2.940201 1_555
Ge5 Nb7 2.712116 1_545
Ge5 Nb8 2.712630 1_555
Ge5 Nb0 2.721538 1_555
Ge5 Nb3 2.721548 1_455
Ge5 Nb2 2.721627 1_445
Ge5 Nb1 2.721640 1_545
Ge5 Nb9 2.756229 1_555
Ge5 Nb6 2.940192 1_445
Ge5 Nb6 2.940199 1_545
B0 Nb4 2.320873 1_555
B0 Nb7 2.320891 1_545
B0 Nb9 2.321316 1_554
B0 Nb8 2.321316 1_555
B0 Nb5 2.321327 1_544
B0 Nb6 2.321330 1_545
B1 Nb7 2.320880 1_555
B1 Nb4 2.320885 1_465
B1 Nb5 2.321316 1_454
B1 Nb6 2.321319 1_455
B1 Nb9 2.321326 1_564
B1 Nb8 2.321327 1_565
