# generated using pymatgen
data_LiCr4(HgO4)2
_symmetry_space_group_name_H-M   'P 1'
_cell_length_a   6.48643019
_cell_length_b   6.48508205
_cell_length_c   6.48666610
_cell_angle_alpha   59.99107147
_cell_angle_beta   59.97924739
_cell_angle_gamma   59.99156561
_symmetry_Int_Tables_number   1
_chemical_formula_structural   LiCr4(HgO4)2
_chemical_formula_sum   'Li1 Cr4 Hg2 O8'
_cell_volume   192.88685234
_cell_formula_units_Z   1
loop_
 _symmetry_equiv_pos_site_id
 _symmetry_equiv_pos_as_xyz
  1  'x, y, z'
loop_
 _atom_site_type_symbol
 _atom_site_label
 _atom_site_symmetry_multiplicity
 _atom_site_fract_x
 _atom_site_fract_y
 _atom_site_fract_z
 _atom_site_occupancy
  Li  Li0  1  0.87501200  0.87498500  0.87498000  1
  Cr  Cr0  1  0.00826600  0.47520600  0.00827200  1
  Cr  Cr1  1  0.47524600  0.00822800  0.00823300  1
  Cr  Cr2  1  0.00824400  0.00822700  0.47522800  1
  Cr  Cr3  1  0.00822100  0.00824300  0.00822300  1
  Hg  Hg0  1  0.62504500  0.62514800  0.62500300  1
  Hg  Hg1  1  0.37495800  0.37492300  0.37499100  1
  O  O0  1  0.76845800  0.76842700  0.76852200  1
  O  O1  1  0.22639800  0.22629300  0.82097800  1
  O  O2  1  0.22628100  0.82095000  0.22627400  1
  O  O3  1  0.82096900  0.22627900  0.22640400  1
  O  O4  1  0.76847000  0.19473200  0.76853100  1
  O  O5  1  0.19470100  0.76851900  0.76839800  1
  O  O6  1  0.22629900  0.22634300  0.22628100  1
  O  O7  1  0.76843100  0.76849700  0.19468000  1
loop_
_geom_bond_atom_site_label_1
_geom_bond_atom_site_label_2
_geom_bond_distance
_geom_bond_site_symmetry_2
Li0 O0 1.692556 1_555
Li0 O5 1.692785 1_655
Li0 O7 1.692896 1_556
Li0 O4 1.692942 1_565
Cr0 O6 2.009945 1_555
Cr0 O1 2.010157 1_554
Cr0 O3 2.010194 1_455
Cr0 Li0 2.116682 1_454
Cr0 O0 2.226654 1_454
Cr0 O7 2.226752 1_455
Cr0 O5 2.226927 1_554
Cr1 O6 2.009972 1_555
Cr1 O1 2.010254 1_554
Cr1 O2 2.010336 1_545
Cr1 Li0 2.116801 1_544
Cr1 O0 2.225889 1_544
Cr1 O4 2.226821 1_554
Cr1 O7 2.227018 1_545
Cr2 O6 2.009963 1_555
Cr2 O3 2.010235 1_455
Cr2 O2 2.010336 1_545
Cr2 Li0 2.116793 1_445
Cr2 O0 2.226227 1_445
Cr2 O5 2.227006 1_545
Cr2 O4 2.227291 1_455
Cr3 O1 2.010310 1_554
Cr3 O3 2.010313 1_455
Cr3 O2 2.010346 1_545
Cr3 Li0 2.117006 1_444
Cr3 O7 2.225958 1_445
Cr3 O5 2.226066 1_544
Cr3 O4 2.226158 1_454
Hg0 O0 2.278550 1_555
Hg0 O7 2.278675 1_555
Hg0 O5 2.278714 1_555
Hg0 O4 2.278893 1_555
Hg1 O2 2.361548 1_555
Hg1 O1 2.361620 1_555
Hg1 O3 2.361673 1_555
Hg1 O6 2.361904 1_555
