# generated using pymatgen
data_Zr9NiMo4
_symmetry_space_group_name_H-M   'P 1'
_cell_length_a   8.83774776
_cell_length_b   8.83774776
_cell_length_c   8.39777100
_cell_angle_alpha   90.00000000
_cell_angle_beta   90.00000000
_cell_angle_gamma   119.99999818
_symmetry_Int_Tables_number   1
_chemical_formula_structural   Zr9NiMo4
_chemical_formula_sum   'Zr18 Ni2 Mo8'
_cell_volume   568.03862989
_cell_formula_units_Z   2
loop_
 _symmetry_equiv_pos_site_id
 _symmetry_equiv_pos_as_xyz
  1  'x, y, z'
loop_
 _atom_site_type_symbol
 _atom_site_label
 _atom_site_symmetry_multiplicity
 _atom_site_fract_x
 _atom_site_fract_y
 _atom_site_fract_z
 _atom_site_occupancy
  Zr  Zr0  1  0.19905600  0.80094400  0.44431600  1
  Zr  Zr1  1  0.19905600  0.39811200  0.44431600  1
  Zr  Zr2  1  0.60188800  0.80094400  0.44431600  1
  Zr  Zr3  1  0.80094400  0.19905600  0.55568400  1
  Zr  Zr4  1  0.80094400  0.60188800  0.55568400  1
  Zr  Zr5  1  0.39811200  0.19905600  0.55568400  1
  Zr  Zr6  1  0.80094400  0.19905600  0.94431600  1
  Zr  Zr7  1  0.80094400  0.60188800  0.94431600  1
  Zr  Zr8  1  0.39811200  0.19905600  0.94431600  1
  Zr  Zr9  1  0.19905600  0.80094400  0.05568400  1
  Zr  Zr10  1  0.19905600  0.39811200  0.05568400  1
  Zr  Zr11  1  0.60188800  0.80094400  0.05568400  1
  Zr  Zr12  1  0.54108700  0.45891300  0.25000000  1
  Zr  Zr13  1  0.54108700  0.08217500  0.25000000  1
  Zr  Zr14  1  0.91782500  0.45891300  0.25000000  1
  Zr  Zr15  1  0.45891300  0.54108700  0.75000000  1
  Zr  Zr16  1  0.45891300  0.91782500  0.75000000  1
  Zr  Zr17  1  0.08217500  0.54108700  0.75000000  1
  Ni  Ni0  1  0.33333300  0.66666700  0.25000000  1
  Ni  Ni1  1  0.66666700  0.33333300  0.75000000  1
  Mo  Mo0  1  0.89004100  0.10995900  0.25000000  1
  Mo  Mo1  1  0.89004100  0.78008100  0.25000000  1
  Mo  Mo2  1  0.21991900  0.10995900  0.25000000  1
  Mo  Mo3  1  0.10995900  0.89004100  0.75000000  1
  Mo  Mo4  1  0.10995900  0.21991900  0.75000000  1
  Mo  Mo5  1  0.78008100  0.89004100  0.75000000  1
  Mo  Mo6  1  0.00000000  0.00000000  0.50000000  1
  Mo  Mo7  1  0.00000000  0.00000000  0.00000000  1
loop_
_geom_bond_atom_site_label_1
_geom_bond_atom_site_label_2
_geom_bond_distance
_geom_bond_site_symmetry_2
Zr0 Zr5 3.187335 1_565
Zr0 Zr4 3.187335 1_455
Zr0 Zr14 3.234895 1_455
Zr0 Zr13 3.234895 1_565
Zr0 Zr17 3.249419 1_555
Zr0 Zr16 3.249419 1_555
Zr0 Zr9 3.263643 1_555
Zr0 Zr2 3.560128 1_555
Zr0 Zr1 3.560128 1_555
Zr1 Zr5 3.187335 1_555
Zr1 Zr3 3.187335 1_455
Zr1 Zr12 3.234892 1_555
Zr1 Zr14 3.234899 1_455
Zr1 Zr17 3.249414 1_555
Zr1 Zr15 3.249419 1_555
Zr1 Zr10 3.263643 1_555
Zr1 Zr2 3.560128 1_555
Zr2 Zr4 3.187335 1_555
Zr2 Zr3 3.187335 1_565
Zr3 Zr6 3.263643 1_555
Zr3 Zr4 3.560128 1_555
Zr3 Zr5 3.560128 1_555
Zr4 Zr7 3.263643 1_555
Zr4 Zr5 3.560128 1_555
Zr5 Zr8 3.263643 1_555
Zr6 Zr8 3.560128 1_555
Zr6 Zr7 3.560128 1_555
Zr7 Zr9 3.187335 1_656
Zr7 Zr8 3.560128 1_555
Zr8 Zr9 3.187335 1_546
Zr10 Zr8 3.187335 1_554
Zr10 Zr6 3.187335 1_454
Zr10 Zr12 3.234892 1_555
Zr10 Zr14 3.234899 1_455
Zr10 Zr17 3.249414 1_554
Zr10 Zr15 3.249419 1_554
Zr10 Zr9 3.560128 1_555
Zr10 Zr11 3.560128 1_555
Zr11 Zr7 3.187335 1_554
Zr11 Zr6 3.187335 1_564
Zr11 Zr12 3.234892 1_555
Zr11 Zr13 3.234899 1_565
Zr11 Zr16 3.249414 1_554
Zr11 Zr15 3.249419 1_554
Zr11 Zr2 3.263643 1_555
Zr11 Zr9 3.560128 1_555
Zr12 Zr2 3.234892 1_555
Zr12 Zr5 3.249419 1_555
Zr12 Zr4 3.249419 1_555
Zr12 Zr7 3.249419 1_554
Zr12 Zr8 3.249419 1_554
Zr12 Zr13 3.329515 1_555
Zr12 Zr14 3.329515 1_555
Zr13 Zr9 3.234895 1_545
Zr13 Zr2 3.234899 1_545
Zr13 Zr5 3.249414 1_555
Zr13 Zr8 3.249414 1_554
Zr13 Zr3 3.249419 1_555
Zr13 Zr6 3.249419 1_554
Zr13 Zr14 3.329516 1_555
Zr14 Zr9 3.234895 1_655
Zr14 Zr4 3.249414 1_555
Zr14 Zr7 3.249414 1_554
Zr14 Zr3 3.249419 1_555
Zr14 Zr6 3.249419 1_554
Zr15 Zr7 3.234892 1_555
Zr15 Zr8 3.234892 1_555
Zr15 Zr4 3.234892 1_555
Zr15 Zr5 3.234892 1_555
Zr15 Zr2 3.249419 1_555
Zr15 Zr17 3.329515 1_555
Zr15 Zr16 3.329515 1_555
Zr16 Zr6 3.234895 1_565
Zr16 Zr3 3.234895 1_565
Zr16 Zr8 3.234899 1_565
Zr16 Zr5 3.234899 1_565
Zr16 Zr2 3.249414 1_555
Zr16 Zr9 3.249419 1_556
Zr16 Zr17 3.329516 1_555
Zr17 Zr6 3.234895 1_455
Zr17 Zr3 3.234895 1_455
Zr17 Zr7 3.234899 1_455
Zr17 Zr4 3.234899 1_455
Zr17 Zr9 3.249419 1_556
Ni0 Zr9 2.624434 1_555
Ni0 Zr0 2.624434 1_555
Ni0 Zr2 2.624440 1_555
Ni0 Zr11 2.624440 1_555
Ni0 Zr1 2.624440 1_555
Ni0 Zr10 2.624440 1_555
Ni0 Zr12 3.180179 1_555
Ni0 Zr13 3.180179 1_565
Ni0 Zr14 3.180179 1_455
Ni1 Zr6 2.624434 1_555
Ni1 Zr3 2.624434 1_555
Ni1 Zr7 2.624440 1_555
Ni1 Zr4 2.624440 1_555
Ni1 Zr8 2.624440 1_555
Ni1 Zr5 2.624440 1_555
Ni1 Zr15 3.180179 1_555
Ni1 Zr17 3.180179 1_655
Ni1 Zr16 3.180179 1_545
Mo0 Mo7 2.690871 1_655
Mo0 Mo6 2.690871 1_655
Mo0 Zr3 2.906870 1_555
Mo0 Zr6 2.906870 1_554
Mo0 Mo2 2.915379 1_655
Mo0 Mo1 2.915379 1_545
Mo0 Zr14 2.968819 1_555
Mo0 Zr13 2.968819 1_555
Mo0 Zr10 3.106711 1_655
Mo0 Zr1 3.106711 1_655
Mo0 Zr11 3.106711 1_545
Mo0 Zr2 3.106711 1_545
Mo1 Mo7 2.690876 1_665
Mo1 Mo6 2.690876 1_665
Mo1 Zr4 2.906867 1_555
Mo1 Zr7 2.906867 1_554
Mo1 Mo2 2.915379 1_665
Mo1 Zr14 2.968801 1_555
Mo1 Zr12 2.968811 1_555
Mo1 Zr0 3.106708 1_655
Mo1 Zr9 3.106708 1_655
Mo1 Zr2 3.106715 1_555
Mo1 Zr11 3.106715 1_555
Mo2 Mo6 2.690876 1_555
Mo2 Mo7 2.690876 1_555
Mo2 Zr5 2.906867 1_555
Mo2 Zr8 2.906867 1_554
Mo2 Zr13 2.968801 1_555
Mo2 Zr12 2.968811 1_555
Mo2 Zr0 3.106708 1_545
Mo2 Zr9 3.106708 1_545
Mo2 Zr1 3.106715 1_555
Mo2 Zr10 3.106715 1_555
Mo3 Mo7 2.690871 1_566
Mo3 Mo6 2.690871 1_565
Mo3 Zr0 2.906870 1_555
Mo3 Zr9 2.906870 1_556
Mo3 Mo4 2.915379 1_565
Mo3 Mo5 2.915379 1_455
Mo3 Zr16 2.968819 1_555
Mo3 Zr17 2.968819 1_555
Mo3 Zr8 3.106711 1_565
Mo3 Zr5 3.106711 1_565
Mo3 Zr7 3.106711 1_455
Mo3 Zr4 3.106711 1_455
Mo4 Mo6 2.690876 1_555
Mo4 Mo7 2.690876 1_556
Mo4 Zr1 2.906867 1_555
Mo4 Zr10 2.906867 1_556
Mo4 Mo5 2.915379 1_445
Mo4 Zr17 2.968801 1_555
Mo4 Zr15 2.968811 1_555
Mo4 Zr6 3.106708 1_455
Mo4 Zr3 3.106708 1_455
Mo4 Zr8 3.106715 1_555
Mo4 Zr5 3.106715 1_555
Mo5 Mo7 2.690876 1_666
Mo5 Mo6 2.690876 1_665
Mo5 Zr2 2.906867 1_555
Mo5 Zr11 2.906867 1_556
Mo5 Zr16 2.968801 1_555
Mo5 Zr15 2.968811 1_555
Mo5 Zr6 3.106708 1_565
Mo5 Zr3 3.106708 1_565
Mo5 Zr7 3.106715 1_555
Mo5 Zr4 3.106715 1_555
Mo6 Zr3 3.082709 1_455
Mo6 Zr0 3.082709 1_545
Mo6 Zr1 3.082709 1_555
Mo6 Zr5 3.082709 1_555
Mo6 Zr4 3.082709 1_445
Mo6 Zr2 3.082709 1_445
Mo7 Zr9 3.082709 1_545
Mo7 Zr6 3.082709 1_454
Mo7 Zr10 3.082709 1_555
Mo7 Zr8 3.082709 1_554
Mo7 Zr11 3.082709 1_445
Mo7 Zr7 3.082709 1_444
