# generated using pymatgen
data_Mg3Cu
_symmetry_space_group_name_H-M   'P 1'
_cell_length_a   6.11274400
_cell_length_b   9.51682600
_cell_length_c   10.37329600
_cell_angle_alpha   90.00000000
_cell_angle_beta   90.00000000
_cell_angle_gamma   90.00000000
_symmetry_Int_Tables_number   1
_chemical_formula_structural   Mg3Cu
_chemical_formula_sum   'Mg24 Cu8'
_cell_volume   603.45530233
_cell_formula_units_Z   8
loop_
 _symmetry_equiv_pos_site_id
 _symmetry_equiv_pos_as_xyz
  1  'x, y, z'
loop_
 _atom_site_type_symbol
 _atom_site_label
 _atom_site_symmetry_multiplicity
 _atom_site_fract_x
 _atom_site_fract_y
 _atom_site_fract_z
 _atom_site_occupancy
  Mg  Mg0_0  1  0.00000000  0.00000000  0.33415950  1
  Mg  Mg0_1  1  0.00000000  0.00000000  0.83415950  1
  Mg  Mg0_2  1  0.00000000  0.50000000  0.33415950  1
  Mg  Mg0_3  1  0.00000000  0.50000000  0.83415950  1
  Mg  Mg0_4  1  0.50000000  0.00000000  0.33415950  1
  Mg  Mg0_5  1  0.50000000  0.00000000  0.83415950  1
  Mg  Mg0_6  1  0.50000000  0.50000000  0.33415950  1
  Mg  Mg0_7  1  0.50000000  0.50000000  0.83415950  1
  Mg  Mg1_0  1  0.00000000  0.25000000  0.16140950  1
  Mg  Mg1_1  1  0.00000000  0.25000000  0.66140950  1
  Mg  Mg1_2  1  0.00000000  0.75000000  0.16140950  1
  Mg  Mg1_3  1  0.00000000  0.75000000  0.66140950  1
  Mg  Mg1_4  1  0.50000000  0.25000000  0.16140950  1
  Mg  Mg1_5  1  0.50000000  0.25000000  0.66140950  1
  Mg  Mg1_6  1  0.50000000  0.75000000  0.16140950  1
  Mg  Mg1_7  1  0.50000000  0.75000000  0.66140950  1
  Mg  Mg2_0  1  0.25000000  0.25000000  0.42185950  1
  Mg  Mg2_1  1  0.25000000  0.25000000  0.92185950  1
  Mg  Mg2_2  1  0.25000000  0.75000000  0.42185950  1
  Mg  Mg2_3  1  0.25000000  0.75000000  0.92185950  1
  Mg  Mg2_4  1  0.75000000  0.25000000  0.42185950  1
  Mg  Mg2_5  1  0.75000000  0.25000000  0.92185950  1
  Mg  Mg2_6  1  0.75000000  0.75000000  0.42185950  1
  Mg  Mg2_7  1  0.75000000  0.75000000  0.92185950  1
  Cu  Cu0_0  1  0.25000000  0.00000000  0.08257100  1
  Cu  Cu0_1  1  0.25000000  0.00000000  0.58257100  1
  Cu  Cu0_2  1  0.25000000  0.50000000  0.08257100  1
  Cu  Cu0_3  1  0.25000000  0.50000000  0.58257100  1
  Cu  Cu0_4  1  0.75000000  0.00000000  0.08257100  1
  Cu  Cu0_5  1  0.75000000  0.00000000  0.58257100  1
  Cu  Cu0_6  1  0.75000000  0.50000000  0.08257100  1
  Cu  Cu0_7  1  0.75000000  0.50000000  0.58257100  1
loop_
_geom_bond_atom_site_label_1
_geom_bond_atom_site_label_2
_geom_bond_distance
_geom_bond_site_symmetry_2
Mg0_0 Mg2_4 2.970454 1_455
Mg0_0 Mg2_0 2.970454 1_555
Mg0_0 Mg2_2 2.970454 1_545
Mg0_0 Mg2_6 2.970454 1_445
Mg0_0 Mg1_0 2.978564 1_555
Mg0_0 Mg1_2 2.978564 1_545
Mg0_0 Mg0_4 3.056372 1_455
Mg0_0 Mg0_4 3.056372 1_555
Mg0_1 Mg2_1 2.970454 1_555
Mg0_1 Mg2_5 2.970454 1_455
Mg0_1 Mg2_3 2.970454 1_545
Mg0_1 Mg2_7 2.970454 1_445
Mg0_1 Mg1_1 2.978564 1_555
Mg0_1 Mg1_3 2.978564 1_545
Mg0_1 Mg0_5 3.056372 1_455
Mg0_1 Mg0_5 3.056372 1_555
Mg0_2 Mg2_6 2.970454 1_455
Mg0_2 Mg2_2 2.970454 1_555
Mg0_2 Mg2_4 2.970454 1_455
Mg0_2 Mg2_0 2.970454 1_555
Mg0_2 Mg1_2 2.978564 1_555
Mg0_2 Mg1_0 2.978564 1_555
Mg0_2 Mg0_6 3.056372 1_455
Mg0_2 Mg0_6 3.056372 1_555
Mg0_3 Mg2_3 2.970454 1_555
Mg0_3 Mg2_7 2.970454 1_455
Mg0_3 Mg2_1 2.970454 1_555
Mg0_3 Mg2_5 2.970454 1_455
Mg0_3 Mg1_3 2.978564 1_555
Mg0_3 Mg1_1 2.978564 1_555
Mg0_3 Mg0_7 3.056372 1_455
Mg0_3 Mg0_7 3.056372 1_555
Mg0_4 Mg2_4 2.970454 1_555
Mg0_4 Mg2_0 2.970454 1_555
Mg0_4 Mg2_2 2.970454 1_545
Mg0_4 Mg2_6 2.970454 1_545
Mg0_4 Mg1_4 2.978564 1_555
Mg0_4 Mg1_6 2.978564 1_545
Mg0_5 Mg2_5 2.970454 1_555
Mg0_5 Mg2_1 2.970454 1_555
Mg0_5 Mg2_7 2.970454 1_545
Mg0_5 Mg2_3 2.970454 1_545
Mg0_5 Mg1_5 2.978564 1_555
Mg0_5 Mg1_7 2.978564 1_545
Mg0_6 Mg2_6 2.970454 1_555
Mg0_6 Mg2_2 2.970454 1_555
Mg0_6 Mg2_4 2.970454 1_555
Mg0_6 Mg2_0 2.970454 1_555
Mg0_6 Mg1_6 2.978564 1_555
Mg0_6 Mg1_4 2.978564 1_555
Mg0_7 Mg2_3 2.970454 1_555
Mg0_7 Mg2_7 2.970454 1_555
Mg0_7 Mg2_5 2.970454 1_555
Mg0_7 Mg2_1 2.970454 1_555
Mg0_7 Mg1_7 2.978564 1_555
Mg0_7 Mg1_5 2.978564 1_555
Mg1_0 Mg2_1 2.917224 1_554
Mg1_0 Mg2_5 2.917224 1_454
Mg1_0 Mg1_4 3.056372 1_555
Mg1_0 Mg1_4 3.056372 1_455
Mg1_0 Mg2_0 3.103977 1_555
Mg1_0 Mg2_4 3.103977 1_455
Mg1_1 Mg2_0 2.917224 1_555
Mg1_1 Mg2_4 2.917224 1_455
Mg1_1 Mg1_5 3.056372 1_455
Mg1_1 Mg1_5 3.056372 1_555
Mg1_1 Mg2_1 3.103977 1_555
Mg1_1 Mg2_5 3.103977 1_455
Mg1_2 Mg2_7 2.917224 1_454
Mg1_2 Mg2_3 2.917224 1_554
Mg1_2 Mg1_6 3.056372 1_455
Mg1_2 Mg1_6 3.056372 1_555
Mg1_2 Mg2_6 3.103977 1_455
Mg1_2 Mg2_2 3.103977 1_555
Mg1_3 Mg2_6 2.917224 1_455
Mg1_3 Mg2_2 2.917224 1_555
Mg1_3 Mg1_7 3.056372 1_455
Mg1_3 Mg1_7 3.056372 1_555
Mg1_3 Mg2_7 3.103977 1_455
Mg1_3 Mg2_3 3.103977 1_555
Mg1_4 Mg2_1 2.917224 1_554
Mg1_4 Mg2_5 2.917224 1_554
Mg1_4 Mg2_0 3.103977 1_555
Mg1_4 Mg2_4 3.103977 1_555
Mg1_5 Mg2_0 2.917224 1_555
Mg1_5 Mg2_4 2.917224 1_555
Mg1_5 Mg2_5 3.103977 1_555
Mg1_5 Mg2_1 3.103977 1_555
Mg1_6 Mg2_3 2.917224 1_554
Mg1_6 Mg2_7 2.917224 1_554
Mg1_6 Mg2_6 3.103977 1_555
Mg1_6 Mg2_2 3.103977 1_555
Mg1_7 Mg2_6 2.917224 1_555
Mg1_7 Mg2_2 2.917224 1_555
Mg1_7 Mg2_3 3.103977 1_555
Mg1_7 Mg2_7 3.103977 1_555
Mg2_0 Mg2_4 3.056372 1_555
Mg2_0 Mg2_4 3.056372 1_455
Mg2_1 Mg2_5 3.056372 1_555
Mg2_1 Mg2_5 3.056372 1_455
Mg2_2 Mg2_6 3.056372 1_455
Mg2_2 Mg2_6 3.056372 1_555
Mg2_3 Mg2_7 3.056372 1_555
Mg2_3 Mg2_7 3.056372 1_455
Cu0_0 Mg2_1 2.905146 1_554
Cu0_0 Mg2_3 2.905146 1_544
Cu0_0 Mg1_0 2.943603 1_555
Cu0_0 Mg1_4 2.943603 1_555
Cu0_0 Mg1_2 2.943603 1_545
Cu0_0 Mg1_6 2.943603 1_545
Cu0_0 Mg0_1 2.995912 1_554
Cu0_0 Mg0_5 2.995912 1_554
Cu0_0 Mg0_0 3.024305 1_555
Cu0_0 Mg0_4 3.024305 1_555
Cu0_0 Cu0_4 3.056372 1_455
Cu0_0 Cu0_4 3.056372 1_555
Cu0_1 Mg2_0 2.905146 1_555
Cu0_1 Mg2_2 2.905146 1_545
Cu0_1 Mg1_1 2.943603 1_555
Cu0_1 Mg1_5 2.943603 1_555
Cu0_1 Mg1_3 2.943603 1_545
Cu0_1 Mg1_7 2.943603 1_545
Cu0_1 Mg0_4 2.995912 1_555
Cu0_1 Mg0_0 2.995912 1_555
Cu0_1 Mg0_1 3.024305 1_555
Cu0_1 Mg0_5 3.024305 1_555
Cu0_1 Cu0_5 3.056372 1_455
Cu0_1 Cu0_5 3.056372 1_555
Cu0_2 Mg2_3 2.905146 1_554
Cu0_2 Mg2_1 2.905146 1_554
Cu0_2 Mg1_6 2.943603 1_555
Cu0_2 Mg1_2 2.943603 1_555
Cu0_2 Mg1_0 2.943603 1_555
Cu0_2 Mg1_4 2.943603 1_555
Cu0_2 Mg0_7 2.995912 1_554
Cu0_2 Mg0_3 2.995912 1_554
Cu0_2 Mg0_6 3.024305 1_555
Cu0_2 Mg0_2 3.024305 1_555
Cu0_2 Cu0_6 3.056372 1_555
Cu0_2 Cu0_6 3.056372 1_455
Cu0_3 Mg2_2 2.905146 1_555
Cu0_3 Mg2_0 2.905146 1_555
Cu0_3 Mg1_7 2.943603 1_555
Cu0_3 Mg1_3 2.943603 1_555
Cu0_3 Mg1_1 2.943603 1_555
Cu0_3 Mg1_5 2.943603 1_555
Cu0_3 Mg0_6 2.995912 1_555
Cu0_3 Mg0_2 2.995912 1_555
Cu0_3 Mg0_3 3.024305 1_555
Cu0_3 Mg0_7 3.024305 1_555
Cu0_3 Cu0_7 3.056372 1_455
Cu0_3 Cu0_7 3.056372 1_555
Cu0_4 Mg2_5 2.905146 1_554
Cu0_4 Mg2_7 2.905146 1_544
Cu0_4 Mg1_4 2.943603 1_555
Cu0_4 Mg1_0 2.943603 1_655
Cu0_4 Mg1_2 2.943603 1_645
Cu0_4 Mg1_6 2.943603 1_545
Cu0_4 Mg0_1 2.995912 1_654
Cu0_4 Mg0_5 2.995912 1_554
Cu0_4 Mg0_4 3.024305 1_555
Cu0_4 Mg0_0 3.024305 1_655
Cu0_5 Mg2_4 2.905146 1_555
Cu0_5 Mg2_6 2.905146 1_545
Cu0_5 Mg1_5 2.943603 1_555
Cu0_5 Mg1_1 2.943603 1_655
Cu0_5 Mg1_3 2.943603 1_645
Cu0_5 Mg1_7 2.943603 1_545
Cu0_5 Mg0_4 2.995912 1_555
Cu0_5 Mg0_0 2.995912 1_655
Cu0_5 Mg0_1 3.024305 1_655
Cu0_5 Mg0_5 3.024305 1_555
Cu0_6 Mg2_7 2.905146 1_554
Cu0_6 Mg2_5 2.905146 1_554
Cu0_6 Mg1_2 2.943603 1_655
Cu0_6 Mg1_6 2.943603 1_555
Cu0_6 Mg1_4 2.943603 1_555
Cu0_6 Mg1_0 2.943603 1_655
Cu0_6 Mg0_3 2.995912 1_654
Cu0_6 Mg0_7 2.995912 1_554
Cu0_6 Mg0_2 3.024305 1_655
Cu0_6 Mg0_6 3.024305 1_555
Cu0_7 Mg2_6 2.905146 1_555
Cu0_7 Mg2_4 2.905146 1_555
Cu0_7 Mg1_3 2.943603 1_655
Cu0_7 Mg1_7 2.943603 1_555
Cu0_7 Mg1_5 2.943603 1_555
Cu0_7 Mg1_1 2.943603 1_655
Cu0_7 Mg0_6 2.995912 1_555
Cu0_7 Mg0_2 2.995912 1_655
Cu0_7 Mg0_3 3.024305 1_655
Cu0_7 Mg0_7 3.024305 1_555
