# generated using pymatgen
data_RbMg6Co
_symmetry_space_group_name_H-M   'P 1'
_cell_length_a   17.00230410
_cell_length_b   17.00230410
_cell_length_c   9.04522600
_cell_angle_alpha   90.00000000
_cell_angle_beta   90.00000000
_cell_angle_gamma   137.63406766
_symmetry_Int_Tables_number   1
_chemical_formula_structural   RbMg6Co
_chemical_formula_sum   'Rb8 Mg48 Co8'
_cell_volume   1762.00328626
_cell_formula_units_Z   8
loop_
 _symmetry_equiv_pos_site_id
 _symmetry_equiv_pos_as_xyz
  1  'x, y, z'
loop_
 _atom_site_type_symbol
 _atom_site_label
 _atom_site_symmetry_multiplicity
 _atom_site_fract_x
 _atom_site_fract_y
 _atom_site_fract_z
 _atom_site_occupancy
  Rb  Rb0_0  1  0.14050200  0.35949800  0.25000000  1
  Rb  Rb0_1  1  0.14050200  0.35949800  0.75000000  1
  Rb  Rb0_2  1  0.14050200  0.85949800  0.25000000  1
  Rb  Rb0_3  1  0.14050200  0.85949800  0.75000000  1
  Rb  Rb0_4  1  0.64050200  0.35949800  0.25000000  1
  Rb  Rb0_5  1  0.64050200  0.35949800  0.75000000  1
  Rb  Rb0_6  1  0.64050200  0.85949800  0.25000000  1
  Rb  Rb0_7  1  0.64050200  0.85949800  0.75000000  1
  Mg  Mg0_0  1  0.10603150  0.14119700  0.00000000  1
  Mg  Mg0_1  1  0.10603150  0.14119700  0.50000000  1
  Mg  Mg0_2  1  0.10603150  0.64119700  0.00000000  1
  Mg  Mg0_3  1  0.10603150  0.64119700  0.50000000  1
  Mg  Mg0_4  1  0.60603150  0.14119700  0.00000000  1
  Mg  Mg0_5  1  0.60603150  0.14119700  0.50000000  1
  Mg  Mg0_6  1  0.60603150  0.64119700  0.00000000  1
  Mg  Mg0_7  1  0.60603150  0.64119700  0.50000000  1
  Mg  Mg1_0  1  0.35880300  0.39396850  0.00000000  1
  Mg  Mg1_1  1  0.35880300  0.39396850  0.50000000  1
  Mg  Mg1_2  1  0.35880300  0.89396850  0.00000000  1
  Mg  Mg1_3  1  0.35880300  0.89396850  0.50000000  1
  Mg  Mg1_4  1  0.85880300  0.39396850  0.00000000  1
  Mg  Mg1_5  1  0.85880300  0.39396850  0.50000000  1
  Mg  Mg1_6  1  0.85880300  0.89396850  0.00000000  1
  Mg  Mg1_7  1  0.85880300  0.89396850  0.50000000  1
  Mg  Mg2_0  1  0.33266700  0.16733300  0.00000000  1
  Mg  Mg2_1  1  0.33266700  0.16733300  0.50000000  1
  Mg  Mg2_2  1  0.33266700  0.66733300  0.00000000  1
  Mg  Mg2_3  1  0.33266700  0.66733300  0.50000000  1
  Mg  Mg2_4  1  0.83266700  0.16733300  0.00000000  1
  Mg  Mg2_5  1  0.83266700  0.16733300  0.50000000  1
  Mg  Mg2_6  1  0.83266700  0.66733300  0.00000000  1
  Mg  Mg2_7  1  0.83266700  0.66733300  0.50000000  1
  Mg  Mg3_0  1  0.15727350  0.07430650  0.25000000  1
  Mg  Mg3_1  1  0.15727350  0.07430650  0.75000000  1
  Mg  Mg3_2  1  0.15727350  0.57430650  0.25000000  1
  Mg  Mg3_3  1  0.15727350  0.57430650  0.75000000  1
  Mg  Mg3_4  1  0.65727350  0.07430650  0.25000000  1
  Mg  Mg3_5  1  0.65727350  0.07430650  0.75000000  1
  Mg  Mg3_6  1  0.65727350  0.57430650  0.25000000  1
  Mg  Mg3_7  1  0.65727350  0.57430650  0.75000000  1
  Mg  Mg4_0  1  0.42569350  0.34272650  0.25000000  1
  Mg  Mg4_1  1  0.42569350  0.34272650  0.75000000  1
  Mg  Mg4_2  1  0.42569350  0.84272650  0.25000000  1
  Mg  Mg4_3  1  0.42569350  0.84272650  0.75000000  1
  Mg  Mg4_4  1  0.92569350  0.34272650  0.25000000  1
  Mg  Mg4_5  1  0.92569350  0.34272650  0.75000000  1
  Mg  Mg4_6  1  0.92569350  0.84272650  0.25000000  1
  Mg  Mg4_7  1  0.92569350  0.84272650  0.75000000  1
  Mg  Mg5_0  1  0.43133500  0.06866500  0.25000000  1
  Mg  Mg5_1  1  0.43133500  0.06866500  0.75000000  1
  Mg  Mg5_2  1  0.43133500  0.56866500  0.25000000  1
  Mg  Mg5_3  1  0.43133500  0.56866500  0.75000000  1
  Mg  Mg5_4  1  0.93133500  0.06866500  0.25000000  1
  Mg  Mg5_5  1  0.93133500  0.06866500  0.75000000  1
  Mg  Mg5_6  1  0.93133500  0.56866500  0.25000000  1
  Mg  Mg5_7  1  0.93133500  0.56866500  0.75000000  1
  Co  Co0_0  1  0.04769550  0.45230450  0.00000000  1
  Co  Co0_1  1  0.04769550  0.45230450  0.50000000  1
  Co  Co0_2  1  0.04769550  0.95230450  0.00000000  1
  Co  Co0_3  1  0.04769550  0.95230450  0.50000000  1
  Co  Co0_4  1  0.54769550  0.45230450  0.00000000  1
  Co  Co0_5  1  0.54769550  0.45230450  0.50000000  1
  Co  Co0_6  1  0.54769550  0.95230450  0.00000000  1
  Co  Co0_7  1  0.54769550  0.95230450  0.50000000  1
loop_
_geom_bond_atom_site_label_1
_geom_bond_atom_site_label_2
_geom_bond_distance
_geom_bond_site_symmetry_2
Rb0_0 Rb0_1 4.522613 1_555
Rb0_0 Rb0_1 4.522613 1_554
Rb0_2 Rb0_3 4.522613 1_554
Rb0_2 Rb0_3 4.522613 1_555
Rb0_4 Rb0_5 4.522613 1_555
Rb0_4 Rb0_5 4.522613 1_554
Rb0_6 Rb0_7 4.522613 1_555
Rb0_6 Rb0_7 4.522613 1_554
Mg0_0 Mg3_1 2.937715 1_554
Mg0_0 Mg3_0 2.937715 1_555
Mg0_0 Mg1_6 3.037814 1_445
Mg0_0 Mg1_0 3.105924 1_555
Mg0_0 Mg5_4 3.169210 1_455
Mg0_0 Mg5_5 3.169210 1_454
Mg0_0 Rb0_0 4.002331 1_555
Mg0_0 Rb0_1 4.002331 1_554
Mg0_1 Mg3_1 2.937715 1_555
Mg0_1 Mg3_0 2.937715 1_555
Mg0_1 Mg1_7 3.037814 1_445
Mg0_1 Mg1_1 3.105924 1_555
Mg0_1 Mg5_5 3.169210 1_455
Mg0_1 Mg5_4 3.169210 1_455
Mg0_1 Rb0_0 4.002331 1_555
Mg0_1 Rb0_1 4.002331 1_555
Mg0_2 Mg3_2 2.937715 1_555
Mg0_2 Mg3_3 2.937715 1_554
Mg0_2 Mg1_4 3.037814 1_455
Mg0_2 Mg1_2 3.105924 1_555
Mg0_2 Mg5_6 3.169210 1_455
Mg0_2 Mg5_7 3.169210 1_454
Mg0_2 Rb0_2 4.002331 1_555
Mg0_2 Rb0_3 4.002331 1_554
Mg0_3 Mg3_2 2.937715 1_555
Mg0_3 Mg3_3 2.937715 1_555
Mg0_3 Mg1_5 3.037814 1_455
Mg0_3 Mg1_3 3.105924 1_555
Mg0_3 Mg5_6 3.169210 1_455
Mg0_3 Mg5_7 3.169210 1_455
Mg0_3 Rb0_2 4.002331 1_555
Mg0_3 Rb0_3 4.002331 1_555
Mg0_4 Mg3_4 2.937715 1_555
Mg0_4 Mg3_5 2.937715 1_554
Mg0_4 Mg1_2 3.037814 1_545
Mg0_4 Mg1_4 3.105924 1_555
Mg0_4 Mg5_1 3.169210 1_554
Mg0_4 Mg5_0 3.169210 1_555
Mg0_4 Rb0_5 4.002331 1_554
Mg0_4 Rb0_4 4.002331 1_555
Mg0_5 Mg3_4 2.937715 1_555
Mg0_5 Mg3_5 2.937715 1_555
Mg0_5 Mg1_3 3.037814 1_545
Mg0_5 Mg1_5 3.105924 1_555
Mg0_5 Mg5_1 3.169210 1_555
Mg0_5 Mg5_0 3.169210 1_555
Mg0_5 Rb0_5 4.002331 1_555
Mg0_5 Rb0_4 4.002331 1_555
Mg0_6 Mg3_7 2.937715 1_554
Mg0_6 Mg3_6 2.937715 1_555
Mg0_6 Mg1_0 3.037814 1_555
Mg0_6 Mg1_6 3.105924 1_555
Mg0_6 Mg5_3 3.169210 1_554
Mg0_6 Mg5_2 3.169210 1_555
Mg0_6 Rb0_6 4.002331 1_555
Mg0_6 Rb0_7 4.002331 1_554
Mg0_7 Mg3_7 2.937715 1_555
Mg0_7 Mg3_6 2.937715 1_555
Mg0_7 Mg1_1 3.037814 1_555
Mg0_7 Mg1_7 3.105924 1_555
Mg0_7 Mg5_3 3.169210 1_555
Mg0_7 Mg5_2 3.169210 1_555
Mg0_7 Rb0_7 4.002331 1_555
Mg0_7 Rb0_6 4.002331 1_555
Mg1_0 Mg4_0 2.937715 1_555
Mg1_0 Mg4_1 2.937715 1_554
Mg1_0 Mg5_2 3.169210 1_555
Mg1_0 Mg5_3 3.169210 1_554
Mg1_0 Rb0_0 4.002331 1_555
Mg1_0 Rb0_1 4.002331 1_554
Mg1_1 Mg4_0 2.937715 1_555
Mg1_1 Mg4_1 2.937715 1_555
Mg1_1 Mg5_2 3.169210 1_555
Mg1_1 Mg5_3 3.169210 1_555
Mg1_1 Rb0_0 4.002331 1_555
Mg1_1 Rb0_1 4.002331 1_555
Mg1_2 Mg4_3 2.937715 1_554
Mg1_2 Mg4_2 2.937715 1_555
Mg1_2 Mg5_1 3.169210 1_564
Mg1_2 Mg5_0 3.169210 1_565
Mg1_2 Rb0_3 4.002331 1_554
Mg1_2 Rb0_2 4.002331 1_555
Mg1_3 Mg4_2 2.937715 1_555
Mg1_3 Mg4_3 2.937715 1_555
Mg1_3 Mg5_0 3.169210 1_565
Mg1_3 Mg5_1 3.169210 1_565
Mg1_3 Rb0_2 4.002331 1_555
Mg1_3 Rb0_3 4.002331 1_555
Mg1_4 Mg4_4 2.937715 1_555
Mg1_4 Mg4_5 2.937715 1_554
Mg1_4 Mg5_6 3.169210 1_555
Mg1_4 Mg5_7 3.169210 1_554
Mg1_4 Rb0_5 4.002331 1_554
Mg1_4 Rb0_4 4.002331 1_555
Mg1_5 Mg4_4 2.937715 1_555
Mg1_5 Mg4_5 2.937715 1_555
Mg1_5 Mg5_6 3.169210 1_555
Mg1_5 Mg5_7 3.169210 1_555
Mg1_5 Rb0_5 4.002331 1_555
Mg1_5 Rb0_4 4.002331 1_555
Mg1_6 Mg4_6 2.937715 1_555
Mg1_6 Mg4_7 2.937715 1_554
Mg1_6 Mg5_5 3.169210 1_564
Mg1_6 Mg5_4 3.169210 1_565
Mg1_6 Rb0_7 4.002331 1_554
Mg1_6 Rb0_6 4.002331 1_555
Mg1_7 Mg4_7 2.937715 1_555
Mg1_7 Mg4_6 2.937715 1_555
Mg1_7 Mg5_4 3.169210 1_565
Mg1_7 Mg5_5 3.169210 1_565
Mg1_7 Rb0_6 4.002331 1_555
Mg1_7 Rb0_7 4.002331 1_555
Mg2_0 Mg4_1 3.088392 1_554
Mg2_0 Mg4_0 3.088392 1_555
Mg2_0 Mg3_0 3.088392 1_555
Mg2_0 Mg3_1 3.088392 1_554
Mg2_0 Rb0_3 4.232329 1_544
Mg2_0 Rb0_2 4.232329 1_545
Mg2_0 Rb0_4 4.232329 1_555
Mg2_0 Rb0_5 4.232329 1_554
Mg2_1 Mg4_0 3.088392 1_555
Mg2_1 Mg4_1 3.088392 1_555
Mg2_1 Mg3_0 3.088392 1_555
Mg2_1 Mg3_1 3.088392 1_555
Mg2_1 Rb0_3 4.232329 1_545
Mg2_1 Rb0_2 4.232329 1_545
Mg2_1 Rb0_4 4.232329 1_555
Mg2_1 Rb0_5 4.232329 1_555
Mg2_2 Mg4_3 3.088392 1_554
Mg2_2 Mg4_2 3.088392 1_555
Mg2_2 Mg3_3 3.088392 1_554
Mg2_2 Mg3_2 3.088392 1_555
Mg2_2 Rb0_1 4.232329 1_554
Mg2_2 Rb0_0 4.232329 1_555
Mg2_2 Rb0_7 4.232329 1_554
Mg2_2 Rb0_6 4.232329 1_555
Mg2_3 Mg4_2 3.088392 1_555
Mg2_3 Mg4_3 3.088392 1_555
Mg2_3 Mg3_3 3.088392 1_555
Mg2_3 Mg3_2 3.088392 1_555
Mg2_3 Rb0_0 4.232329 1_555
Mg2_3 Rb0_1 4.232329 1_555
Mg2_3 Rb0_7 4.232329 1_555
Mg2_3 Rb0_6 4.232329 1_555
Mg2_4 Mg4_5 3.088392 1_554
Mg2_4 Mg4_4 3.088392 1_555
Mg2_4 Mg3_4 3.088392 1_555
Mg2_4 Mg3_5 3.088392 1_554
Mg2_4 Rb0_6 4.232329 1_545
Mg2_4 Rb0_7 4.232329 1_544
Mg2_4 Rb0_0 4.232329 1_655
Mg2_4 Rb0_1 4.232329 1_654
Mg2_5 Mg4_4 3.088392 1_555
Mg2_5 Mg4_5 3.088392 1_555
Mg2_5 Mg3_4 3.088392 1_555
Mg2_5 Mg3_5 3.088392 1_555
Mg2_5 Rb0_6 4.232329 1_545
Mg2_5 Rb0_7 4.232329 1_545
Mg2_5 Rb0_0 4.232329 1_655
Mg2_5 Rb0_1 4.232329 1_655
Mg2_6 Mg4_7 3.088392 1_554
Mg2_6 Mg4_6 3.088392 1_555
Mg2_6 Mg3_7 3.088392 1_554
Mg2_6 Mg3_6 3.088392 1_555
Mg2_6 Rb0_4 4.232329 1_555
Mg2_6 Rb0_5 4.232329 1_554
Mg2_6 Rb0_2 4.232329 1_655
Mg2_6 Rb0_3 4.232329 1_654
Mg2_7 Mg4_6 3.088392 1_555
Mg2_7 Mg4_7 3.088392 1_555
Mg2_7 Mg3_6 3.088392 1_555
Mg2_7 Mg3_7 3.088392 1_555
Mg2_7 Rb0_4 4.232329 1_555
Mg2_7 Rb0_5 4.232329 1_555
Mg2_7 Rb0_2 4.232329 1_655
Mg2_7 Rb0_3 4.232329 1_655
Mg3_0 Mg4_6 2.845534 1_445
Mg3_0 Mg4_0 3.298204 1_555
Mg3_0 Rb0_2 3.446912 1_545
Mg3_1 Mg4_7 2.845534 1_445
Mg3_1 Mg4_1 3.298204 1_555
Mg3_1 Rb0_3 3.446912 1_545
Mg3_2 Mg4_4 2.845534 1_455
Mg3_2 Mg4_2 3.298204 1_555
Mg3_2 Rb0_0 3.446912 1_555
Mg3_3 Mg4_5 2.845534 1_455
Mg3_3 Mg4_3 3.298204 1_555
Mg3_3 Rb0_1 3.446912 1_555
Mg3_4 Mg4_2 2.845534 1_545
Mg3_4 Mg4_4 3.298204 1_555
Mg3_4 Rb0_6 3.446912 1_545
Mg3_5 Mg4_3 2.845534 1_545
Mg3_5 Mg4_5 3.298204 1_555
Mg3_5 Rb0_7 3.446912 1_545
Mg3_6 Mg4_0 2.845534 1_555
Mg3_6 Mg4_6 3.298204 1_555
Mg3_6 Rb0_4 3.446912 1_555
Mg3_7 Mg4_1 2.845534 1_555
Mg3_7 Mg4_7 3.298204 1_555
Mg3_7 Rb0_5 3.446912 1_555
Mg4_0 Rb0_4 3.446912 1_555
Mg4_1 Rb0_5 3.446912 1_555
Mg4_2 Rb0_6 3.446912 1_555
Mg4_3 Rb0_7 3.446912 1_555
Mg4_4 Rb0_0 3.446912 1_655
Mg4_5 Rb0_1 3.446912 1_655
Mg4_6 Rb0_2 3.446912 1_655
Mg4_7 Rb0_3 3.446912 1_655
Mg5_0 Rb0_2 3.333557 1_545
Mg5_0 Rb0_4 3.333557 1_555
Mg5_1 Rb0_3 3.333557 1_545
Mg5_1 Rb0_5 3.333557 1_555
Mg5_2 Rb0_0 3.333557 1_555
Mg5_2 Rb0_6 3.333557 1_555
Mg5_3 Rb0_7 3.333557 1_555
Mg5_3 Rb0_1 3.333557 1_555
Mg5_4 Rb0_6 3.333557 1_545
Mg5_4 Rb0_0 3.333557 1_655
Mg5_5 Rb0_7 3.333557 1_545
Mg5_5 Rb0_1 3.333557 1_655
Mg5_6 Rb0_2 3.333557 1_655
Mg5_6 Rb0_4 3.333557 1_555
Mg5_7 Rb0_5 3.333557 1_555
Mg5_7 Rb0_3 3.333557 1_655
Co0_0 Mg1_4 2.567303 1_455
Co0_0 Mg0_2 2.567303 1_555
Co0_0 Mg4_5 2.678912 1_454
Co0_0 Mg4_4 2.678912 1_455
Co0_0 Mg3_3 2.678912 1_554
Co0_0 Mg3_2 2.678912 1_555
Co0_0 Mg2_4 3.265870 1_455
Co0_0 Mg2_2 3.265870 1_555
Co0_0 Rb0_0 3.711128 1_555
Co0_0 Rb0_1 3.711128 1_554
Co0_1 Mg1_5 2.567303 1_455
Co0_1 Mg0_3 2.567303 1_555
Co0_1 Mg4_5 2.678912 1_455
Co0_1 Mg4_4 2.678912 1_455
Co0_1 Mg3_3 2.678912 1_555
Co0_1 Mg3_2 2.678912 1_555
Co0_1 Mg2_5 3.265870 1_455
Co0_1 Mg2_3 3.265870 1_555
Co0_1 Rb0_0 3.711128 1_555
Co0_1 Rb0_1 3.711128 1_555
Co0_2 Mg1_6 2.567303 1_455
Co0_2 Mg0_0 2.567303 1_565
Co0_2 Mg4_6 2.678912 1_455
Co0_2 Mg4_7 2.678912 1_454
Co0_2 Mg3_0 2.678912 1_565
Co0_2 Mg3_1 2.678912 1_564
Co0_2 Mg2_0 3.265870 1_565
Co0_2 Mg2_6 3.265870 1_455
Co0_2 Rb0_2 3.711128 1_555
Co0_2 Rb0_3 3.711128 1_554
Co0_3 Mg1_7 2.567303 1_455
Co0_3 Mg0_1 2.567303 1_565
Co0_3 Mg4_6 2.678912 1_455
Co0_3 Mg4_7 2.678912 1_455
Co0_3 Mg3_0 2.678912 1_565
Co0_3 Mg3_1 2.678912 1_565
Co0_3 Mg2_1 3.265870 1_565
Co0_3 Mg2_7 3.265870 1_455
Co0_3 Rb0_2 3.711128 1_555
Co0_3 Rb0_3 3.711128 1_555
Co0_4 Mg1_0 2.567303 1_555
Co0_4 Mg0_6 2.567303 1_555
Co0_4 Mg4_0 2.678912 1_555
Co0_4 Mg4_1 2.678912 1_554
Co0_4 Mg3_7 2.678912 1_554
Co0_4 Mg3_6 2.678912 1_555
Co0_4 Mg2_6 3.265870 1_555
Co0_4 Mg2_0 3.265870 1_555
Co0_4 Rb0_4 3.711128 1_555
Co0_4 Rb0_5 3.711128 1_554
Co0_5 Mg1_1 2.567303 1_555
Co0_5 Mg0_7 2.567303 1_555
Co0_5 Mg4_0 2.678912 1_555
Co0_5 Mg4_1 2.678912 1_555
Co0_5 Mg3_7 2.678912 1_555
Co0_5 Mg3_6 2.678912 1_555
Co0_5 Mg2_7 3.265870 1_555
Co0_5 Mg2_1 3.265870 1_555
Co0_5 Rb0_4 3.711128 1_555
Co0_5 Rb0_5 3.711128 1_555
Co0_6 Mg1_2 2.567303 1_555
Co0_6 Mg0_4 2.567303 1_565
Co0_6 Mg4_2 2.678912 1_555
Co0_6 Mg4_3 2.678912 1_554
Co0_6 Mg3_5 2.678912 1_564
Co0_6 Mg3_4 2.678912 1_565
Co0_6 Mg2_2 3.265870 1_555
Co0_6 Mg2_4 3.265870 1_565
Co0_6 Rb0_7 3.711128 1_554
Co0_6 Rb0_6 3.711128 1_555
Co0_7 Mg1_3 2.567303 1_555
Co0_7 Mg0_5 2.567303 1_565
Co0_7 Mg4_2 2.678912 1_555
Co0_7 Mg4_3 2.678912 1_555
Co0_7 Mg3_5 2.678912 1_565
Co0_7 Mg3_4 2.678912 1_565
Co0_7 Mg2_3 3.265870 1_555
Co0_7 Mg2_5 3.265870 1_565
Co0_7 Rb0_7 3.711128 1_555
Co0_7 Rb0_6 3.711128 1_555
