# generated using pymatgen
data_Tb3Fe5O12
_symmetry_space_group_name_H-M   'P 1'
_cell_length_a   10.88814596
_cell_length_b   10.88814596
_cell_length_c   10.88814596
_cell_angle_alpha   109.47122063
_cell_angle_beta   109.47122063
_cell_angle_gamma   109.47122063
_symmetry_Int_Tables_number   1
_chemical_formula_structural   Tb3Fe5O12
_chemical_formula_sum   'Tb12 Fe20 O48'
_cell_volume   993.66481365
_cell_formula_units_Z   4
loop_
 _symmetry_equiv_pos_site_id
 _symmetry_equiv_pos_as_xyz
  1  'x, y, z'
loop_
 _atom_site_type_symbol
 _atom_site_label
 _atom_site_symmetry_multiplicity
 _atom_site_fract_x
 _atom_site_fract_y
 _atom_site_fract_z
 _atom_site_occupancy
  Tb  Tb0  1  0.62500000  0.25000000  0.87500000  1
  Tb  Tb1  1  0.25000000  0.87500000  0.62500000  1
  Tb  Tb2  1  0.62500000  0.87500000  0.75000000  1
  Tb  Tb3  1  0.37500000  0.75000000  0.12500000  1
  Tb  Tb4  1  0.75000000  0.12500000  0.37500000  1
  Tb  Tb5  1  0.37500000  0.12500000  0.25000000  1
  Tb  Tb6  1  0.12500000  0.25000000  0.37500000  1
  Tb  Tb7  1  0.25000000  0.37500000  0.12500000  1
  Tb  Tb8  1  0.12500000  0.37500000  0.75000000  1
  Tb  Tb9  1  0.87500000  0.75000000  0.62500000  1
  Tb  Tb10  1  0.75000000  0.62500000  0.87500000  1
  Tb  Tb11  1  0.87500000  0.62500000  0.25000000  1
  Fe  Fe0  1  0.50000000  0.00000000  0.00000000  1
  Fe  Fe1  1  0.50000000  0.00000000  0.50000000  1
  Fe  Fe2  1  0.50000000  0.50000000  0.50000000  1
  Fe  Fe3  1  0.00000000  0.50000000  0.00000000  1
  Fe  Fe4  1  0.00000000  0.00000000  0.50000000  1
  Fe  Fe5  1  0.50000000  0.50000000  0.00000000  1
  Fe  Fe6  1  0.00000000  0.50000000  0.50000000  1
  Fe  Fe7  1  0.00000000  0.00000000  0.00000000  1
  Fe  Fe8  1  0.37500000  0.25000000  0.62500000  1
  Fe  Fe9  1  0.25000000  0.62500000  0.37500000  1
  Fe  Fe10  1  0.87500000  0.12500000  0.75000000  1
  Fe  Fe11  1  0.62500000  0.75000000  0.37500000  1
  Fe  Fe12  1  0.75000000  0.37500000  0.62500000  1
  Fe  Fe13  1  0.12500000  0.87500000  0.25000000  1
  Fe  Fe14  1  0.12500000  0.75000000  0.87500000  1
  Fe  Fe15  1  0.75000000  0.87500000  0.12500000  1
  Fe  Fe16  1  0.62500000  0.37500000  0.25000000  1
  Fe  Fe17  1  0.87500000  0.25000000  0.12500000  1
  Fe  Fe18  1  0.25000000  0.12500000  0.87500000  1
  Fe  Fe19  1  0.37500000  0.62500000  0.75000000  1
  O  O0  1  0.40551100  0.08330200  0.87741100  1
  O  O1  1  0.41669800  0.82220900  0.79410900  1
  O  O2  1  0.67779100  0.09448900  0.97190000  1
  O  O3  1  0.59448900  0.91669800  0.12258900  1
  O  O4  1  0.58330200  0.17779100  0.20589100  1
  O  O5  1  0.32220900  0.90551100  0.02810000  1
  O  O6  1  0.52810000  0.40551100  0.82220900  1
  O  O7  1  0.09448900  0.62258900  0.41669800  1
  O  O8  1  0.87741100  0.97190000  0.79410900  1
  O  O9  1  0.47190000  0.59448900  0.17779100  1
  O  O10  1  0.90551100  0.37741100  0.58330200  1
  O  O11  1  0.12258900  0.02810000  0.20589100  1
  O  O12  1  0.82220900  0.52810000  0.40551100  1
  O  O13  1  0.97190000  0.79410900  0.87741100  1
  O  O14  1  0.70589100  0.67779100  0.08330200  1
  O  O15  1  0.17779100  0.47190000  0.59448900  1
  O  O16  1  0.02810000  0.20589100  0.12258900  1
  O  O17  1  0.29410900  0.32220900  0.91669800  1
  O  O18  1  0.79410900  0.87741100  0.97190000  1
  O  O19  1  0.62258900  0.41669800  0.09448900  1
  O  O20  1  0.08330200  0.70589100  0.67779100  1
  O  O21  1  0.20589100  0.12258900  0.02810000  1
  O  O22  1  0.37741100  0.58330200  0.90551100  1
  O  O23  1  0.91669800  0.29410900  0.32220900  1
  O  O24  1  0.67779100  0.08330200  0.70589100  1
  O  O25  1  0.41669800  0.09448900  0.62258900  1
  O  O26  1  0.40551100  0.82220900  0.52810000  1
  O  O27  1  0.32220900  0.91669800  0.29410900  1
  O  O28  1  0.58330200  0.90551100  0.37741100  1
  O  O29  1  0.59448900  0.17779100  0.47190000  1
  O  O30  1  0.87741100  0.40551100  0.08330200  1
  O  O31  1  0.09448900  0.97190000  0.67779100  1
  O  O32  1  0.52810000  0.62258900  0.70589100  1
  O  O33  1  0.12258900  0.59448900  0.91669800  1
  O  O34  1  0.90551100  0.02810000  0.32220900  1
  O  O35  1  0.47190000  0.37741100  0.29410900  1
  O  O36  1  0.70589100  0.52810000  0.62258900  1
  O  O37  1  0.97190000  0.67779100  0.09448900  1
  O  O38  1  0.82220900  0.79410900  0.41669800  1
  O  O39  1  0.29410900  0.47190000  0.37741100  1
  O  O40  1  0.02810000  0.32220900  0.90551100  1
  O  O41  1  0.17779100  0.20589100  0.58330200  1
  O  O42  1  0.08330200  0.87741100  0.40551100  1
  O  O43  1  0.62258900  0.70589100  0.52810000  1
  O  O44  1  0.79410900  0.41669800  0.82220900  1
  O  O45  1  0.91669800  0.12258900  0.59448900  1
  O  O46  1  0.37741100  0.29410900  0.47190000  1
  O  O47  1  0.20589100  0.58330200  0.17779100  1
loop_
_geom_bond_atom_site_label_1
_geom_bond_atom_site_label_2
_geom_bond_distance
_geom_bond_site_symmetry_2
Fe0 O5 2.043627 1_545
Fe0 O0 2.043627 1_554
Fe0 O2 2.043627 1_554
Fe0 O3 2.043627 1_545
Fe0 O4 2.043627 1_555
Fe0 O1 2.043627 1_544
Fe1 O27 2.043627 1_545
Fe1 O28 2.043627 1_545
Fe1 O25 2.043627 1_555
Fe1 O29 2.043627 1_555
Fe1 O24 2.043627 1_555
Fe1 O26 2.043627 1_545
Fe2 O35 2.043627 1_555
Fe2 O39 2.043627 1_555
Fe2 O36 2.043627 1_555
Fe2 O46 2.043627 1_555
Fe2 O43 2.043627 1_555
Fe2 O32 2.043627 1_555
Fe3 O30 2.043627 1_455
Fe3 O40 2.043627 1_554
Fe3 O47 2.043627 1_555
Fe3 O37 2.043627 1_455
Fe3 O33 2.043627 1_554
Fe3 O44 2.043627 1_454
Fe4 O42 2.043627 1_545
Fe4 O34 2.043627 1_455
Fe4 O45 2.043627 1_455
Fe4 O41 2.043627 1_555
Fe4 O31 2.043627 1_545
Fe4 O38 2.043627 1_445
Fe5 O19 2.043627 1_555
Fe5 O17 2.043627 1_554
Fe5 O22 2.043627 1_554
Fe5 O9 2.043627 1_555
Fe5 O6 2.043627 1_554
Fe5 O14 2.043627 1_555
Fe6 O23 2.043627 1_455
Fe6 O7 2.043627 1_555
Fe6 O20 2.043627 1_555
Fe6 O10 2.043627 1_455
Fe6 O12 2.043627 1_455
Fe6 O15 2.043627 1_555
Fe7 O11 2.043627 1_555
Fe7 O16 2.043627 1_555
Fe7 O21 2.043627 1_555
Fe7 O13 2.043627 1_444
Fe7 O18 2.043627 1_444
Fe7 O8 2.043627 1_444
Fe8 O41 1.888027 1_555
Fe8 O25 1.888027 1_555
Fe8 O6 1.888027 1_555
Fe8 O46 1.888027 1_555
Fe9 O7 1.888027 1_555
Fe9 O47 1.888027 1_555
Fe9 O26 1.888027 1_555
Fe9 O39 1.888027 1_555
Fe10 O24 1.888027 1_555
Fe10 O45 1.888027 1_555
Fe10 O8 1.888027 1_545
Fe10 O40 1.888027 1_655
Fe11 O28 1.888027 1_555
Fe11 O38 1.888027 1_555
Fe11 O43 1.888027 1_555
Fe11 O9 1.888027 1_555
Fe12 O44 1.888027 1_555
Fe12 O10 1.888027 1_555
Fe12 O29 1.888027 1_555
Fe12 O36 1.888027 1_555
Fe13 O37 1.888027 1_455
Fe13 O11 1.888027 1_565
Fe13 O42 1.888027 1_555
Fe13 O27 1.888027 1_555
Fe14 O33 1.888027 1_555
Fe14 O20 1.888027 1_555
Fe14 O13 1.888027 1_455
Fe14 O5 1.888027 1_556
Fe15 O3 1.888027 1_555
Fe15 O14 1.888027 1_555
Fe15 O18 1.888027 1_554
Fe15 O34 1.888027 1_565
Fe16 O12 1.888027 1_555
Fe16 O35 1.888027 1_555
Fe16 O19 1.888027 1_555
Fe16 O4 1.888027 1_555
Fe17 O2 1.888027 1_554
Fe17 O16 1.888027 1_655
Fe17 O30 1.888027 1_555
Fe17 O23 1.888027 1_555
Fe18 O31 1.888027 1_545
Fe18 O0 1.888027 1_555
Fe18 O21 1.888027 1_556
Fe18 O17 1.888027 1_555
Fe19 O22 1.888027 1_555
Fe19 O1 1.888027 1_555
Fe19 O32 1.888027 1_555
Fe19 O15 1.888027 1_555
O0 Tb1 2.397097 1_545
O0 Tb0 2.487600 1_555
O1 Tb2 2.397097 1_555
O1 Tb1 2.487600 1_555
O2 Tb0 2.397097 1_555
O2 Tb2 2.487600 1_545
O3 Tb4 2.397097 1_565
O3 Tb3 2.487600 1_555
O4 Tb5 2.397097 1_555
O4 Tb4 2.487600 1_555
O5 Tb3 2.397097 1_555
O5 Tb5 2.487600 1_565
O6 Tb0 2.397097 1_555
O6 Tb10 2.487600 1_555
O7 Tb1 2.397097 1_555
O7 Tb11 2.487600 1_455
O8 Tb2 2.397097 1_555
O8 Tb9 2.487600 1_555
O9 Tb3 2.397097 1_555
O9 Tb7 2.487600 1_555
O10 Tb4 2.397097 1_555
O10 Tb8 2.487600 1_655
O11 Tb5 2.397097 1_555
O11 Tb6 2.487600 1_555
O12 Tb11 2.397097 1_555
O12 Tb9 2.487600 1_555
O13 Tb9 2.397097 1_555
O13 Tb10 2.487600 1_555
O14 Tb10 2.397097 1_554
O14 Tb11 2.487600 1_555
O15 Tb8 2.397097 1_555
O15 Tb6 2.487600 1_555
O16 Tb6 2.397097 1_555
O16 Tb7 2.487600 1_555
O17 Tb7 2.397097 1_556
O17 Tb8 2.487600 1_555
O18 Tb10 2.397097 1_555
O18 Tb2 2.487600 1_555
O19 Tb11 2.397097 1_555
O19 Tb0 2.487600 1_554
O20 Tb9 2.397097 1_455
O20 Tb1 2.487600 1_555
O21 Tb7 2.397097 1_555
O21 Tb5 2.487600 1_555
O22 Tb8 2.397097 1_555
O22 Tb3 2.487600 1_556
O23 Tb6 2.397097 1_655
O23 Tb4 2.487600 1_555
O24 Tb2 2.397097 1_545
O24 Tb0 2.487600 1_555
O25 Tb0 2.397097 1_555
O25 Tb1 2.487600 1_545
O26 Tb1 2.397097 1_555
O26 Tb2 2.487600 1_555
O27 Tb5 2.397097 1_565
O27 Tb3 2.487600 1_555
O28 Tb3 2.397097 1_555
O28 Tb4 2.487600 1_565
O29 Tb4 2.397097 1_555
O29 Tb5 2.487600 1_555
O30 Tb0 2.397097 1_554
O30 Tb11 2.487600 1_555
O31 Tb1 2.397097 1_555
O31 Tb9 2.487600 1_455
O32 Tb2 2.397097 1_555
O32 Tb10 2.487600 1_555
O33 Tb3 2.397097 1_556
O33 Tb8 2.487600 1_555
O34 Tb4 2.397097 1_555
O34 Tb6 2.487600 1_655
O35 Tb5 2.397097 1_555
O35 Tb7 2.487600 1_555
O36 Tb10 2.397097 1_555
O36 Tb9 2.487600 1_555
O37 Tb11 2.397097 1_555
O37 Tb10 2.487600 1_554
O38 Tb9 2.397097 1_555
O38 Tb11 2.487600 1_555
O39 Tb7 2.397097 1_555
O39 Tb6 2.487600 1_555
O40 Tb8 2.397097 1_555
O40 Tb7 2.487600 1_556
O41 Tb6 2.397097 1_555
O41 Tb8 2.487600 1_555
O42 Tb11 2.397097 1_455
O42 Tb1 2.487600 1_555
O43 Tb9 2.397097 1_555
O43 Tb2 2.487600 1_555
O44 Tb10 2.397097 1_555
O44 Tb0 2.487600 1_555
O45 Tb8 2.397097 1_655
O45 Tb4 2.487600 1_555
O46 Tb6 2.397097 1_555
O46 Tb5 2.487600 1_555
O47 Tb7 2.397097 1_555
O47 Tb3 2.487600 1_555
