# generated using pymatgen
data_CeSiIr2
_symmetry_space_group_name_H-M   'P 1'
_cell_length_a   18.25676305
_cell_length_b   18.25676305
_cell_length_c   18.25676305
_cell_angle_alpha   167.25521247
_cell_angle_beta   167.25521247
_cell_angle_gamma   18.06140536
_symmetry_Int_Tables_number   1
_chemical_formula_structural   CeSiIr2
_chemical_formula_sum   'Ce4 Si4 Ir8'
_cell_volume   296.13029275
_cell_formula_units_Z   4
loop_
 _symmetry_equiv_pos_site_id
 _symmetry_equiv_pos_as_xyz
  1  'x, y, z'
loop_
 _atom_site_type_symbol
 _atom_site_label
 _atom_site_symmetry_multiplicity
 _atom_site_fract_x
 _atom_site_fract_y
 _atom_site_fract_z
 _atom_site_occupancy
  Ce  Ce0  1  0.67569800  0.67569800  0.00000000  1
  Ce  Ce1  1  0.42569800  0.92569800  0.50000000  1
  Ce  Ce2  1  0.07430200  0.57430200  0.50000000  1
  Ce  Ce3  1  0.32430200  0.32430200  0.00000000  1
  Si  Si0  1  0.78618700  0.78618700  0.00000000  1
  Si  Si1  1  0.53618700  0.03618700  0.50000000  1
  Si  Si2  1  0.96381300  0.46381300  0.50000000  1
  Si  Si3  1  0.21381300  0.21381300  0.00000000  1
  Ir  Ir0  1  0.75000000  0.25000000  0.50000000  1
  Ir  Ir1  1  0.00000000  0.00000000  0.00000000  1
  Ir  Ir2  1  0.50000000  0.50000000  0.00000000  1
  Ir  Ir3  1  0.25000000  0.75000000  0.50000000  1
  Ir  Ir4  1  0.85235800  0.85235800  0.00000000  1
  Ir  Ir5  1  0.60235800  0.10235800  0.50000000  1
  Ir  Ir6  1  0.89764200  0.39764200  0.50000000  1
  Ir  Ir7  1  0.14764200  0.14764200  0.00000000  1
loop_
_geom_bond_atom_site_label_1
_geom_bond_atom_site_label_2
_geom_bond_distance
_geom_bond_site_symmetry_2
Ce0 Ir7 3.039002 1_666
Ce0 Ir7 3.039002 1_554
Ce0 Ir7 3.039002 1_565
Ce0 Ir7 3.039002 1_655
Ce0 Si3 3.178221 1_655
Ce0 Si3 3.178221 1_554
Ce0 Si3 3.178221 1_565
Ce0 Si3 3.178221 1_666
Ce0 Ir5 3.331734 1_554
Ce0 Ir5 3.331734 1_565
Ce0 Ir0 3.359337 1_565
Ce0 Ir3 3.359337 1_554
Ce0 Ir0 3.359337 1_554
Ce0 Ir3 3.359337 1_655
Ce1 Ir6 3.039002 1_566
Ce1 Ir6 3.039002 1_465
Ce1 Ir6 3.039002 1_454
Ce1 Ir6 3.039002 1_555
Ce1 Si2 3.178221 1_555
Ce1 Si2 3.178221 1_454
Ce1 Si2 3.178221 1_465
Ce1 Si2 3.178221 1_566
Ce1 Ir4 3.331734 1_556
Ce1 Ir4 3.331734 1_455
Ce1 Ir2 3.359337 1_555
Ce1 Ir2 3.359337 1_566
Ce1 Ir1 3.359337 1_565
Ce1 Ir1 3.359337 1_666
Ce2 Ir5 3.039002 1_454
Ce2 Ir5 3.039002 1_566
Ce2 Ir5 3.039002 1_465
Ce2 Ir5 3.039002 1_555
Ce2 Si1 3.178221 1_555
Ce2 Si1 3.178221 1_566
Ce2 Si1 3.178221 1_465
Ce2 Si1 3.178221 1_454
Ce2 Ir7 3.331734 1_555
Ce2 Ir7 3.331734 1_566
Ce2 Ir2 3.359337 1_556
Ce2 Ir1 3.359337 1_555
Ce2 Ir1 3.359337 1_566
Ce2 Ir2 3.359337 1_455
Ce3 Ir4 3.039002 1_545
Ce3 Ir4 3.039002 1_556
Ce3 Ir4 3.039002 1_455
Ce3 Ir4 3.039002 1_444
Ce3 Si0 3.178221 1_444
Ce3 Si0 3.178221 1_455
Ce3 Si0 3.178221 1_556
Ce3 Si0 3.178221 1_545
Ce3 Ir6 3.331734 1_454
Ce3 Ir6 3.331734 1_555
Ce3 Ir3 3.359337 1_544
Ce3 Ir3 3.359337 1_555
Ce3 Ir0 3.359337 1_555
Ce3 Ir0 3.359337 1_454
Ir0 Si3 2.410152 1_656
Ir0 Si0 2.410152 1_556
Ir0 Si3 2.410152 1_555
Ir0 Si0 2.410152 1_545
Ir1 Si1 2.410152 1_454
Ir1 Si1 2.410152 1_555
Ir1 Si2 2.410152 1_444
Ir1 Si2 2.410152 1_455
Ir2 Si2 2.410152 1_454
Ir2 Si1 2.410152 1_554
Ir2 Si2 2.410152 1_555
Ir2 Si1 2.410152 1_565
Ir3 Si0 2.410152 1_556
Ir3 Si0 2.410152 1_455
Ir3 Si3 2.410152 1_566
Ir3 Si3 2.410152 1_555
Ir4 Si0 2.386187 1_555
Ir4 Ir6 2.602423 1_554
Ir4 Ir6 2.602423 1_565
Ir5 Si1 2.386187 1_555
Ir5 Ir7 2.602423 1_656
Ir5 Ir7 2.602423 1_555
Ir6 Si2 2.386187 1_555
Ir7 Si3 2.386187 1_555
