# generated using pymatgen
data_Zn4Te3O
_symmetry_space_group_name_H-M   'P 1'
_cell_length_a   4.16942827
_cell_length_b   4.16942827
_cell_length_c   13.62856262
_cell_angle_alpha   98.79888150
_cell_angle_beta   90.00000000
_cell_angle_gamma   120.00000000
_symmetry_Int_Tables_number   1
_chemical_formula_structural   Zn4Te3O
_chemical_formula_sum   'Zn4 Te3 O1'
_cell_volume   201.95338307
_cell_formula_units_Z   1
loop_
 _symmetry_equiv_pos_site_id
 _symmetry_equiv_pos_as_xyz
  1  'x, y, z'
loop_
 _atom_site_type_symbol
 _atom_site_label
 _atom_site_symmetry_multiplicity
 _atom_site_fract_x
 _atom_site_fract_y
 _atom_site_fract_z
 _atom_site_occupancy
  Zn  Zn0  1  0.98867100  0.97734100  0.96601200  1
  Zn  Zn1  1  0.74619200  0.49238400  0.23857500  1
  Zn  Zn2  1  0.50426300  0.00852500  0.51278800  1
  Zn  Zn3  1  0.26336800  0.52673600  0.79010500  1
  Te  Te0  1  0.05426200  0.10852400  0.16278600  1
  Te  Te1  1  0.81189500  0.62379000  0.43568600  1
  Te  Te2  1  0.56966900  0.13933900  0.70900800  1
  O  O0  1  0.31168000  0.62336100  0.93504100  1
loop_
_geom_bond_atom_site_label_1
_geom_bond_atom_site_label_2
_geom_bond_distance
_geom_bond_site_symmetry_2
Te0 Zn1 2.613099 1_445
Te0 Zn1 2.613102 1_555
Te0 Zn1 2.613102 1_455
Te0 Zn0 2.639582 1_444
Te1 Zn2 2.620003 1_565
Te1 Zn2 2.620003 1_555
Te1 Zn2 2.620006 1_665
Te1 Zn1 2.644103 1_555
Te2 Zn2 2.632151 1_555
Te2 Zn3 2.641615 1_555
Te2 Zn3 2.641618 1_655
Te2 Zn3 2.641621 1_545
O0 Zn3 1.944213 1_555
O0 Zn0 2.442804 1_455
O0 Zn0 2.442811 1_445
O0 Zn0 2.442811 1_555
