# generated using pymatgen
data_SrCa7Ti3Mn5O22
_symmetry_space_group_name_H-M   'P 1'
_cell_length_a   7.81134784
_cell_length_b   7.71770830
_cell_length_c   7.78189498
_cell_angle_alpha   89.95585507
_cell_angle_beta   90.30831878
_cell_angle_gamma   90.07725638
_symmetry_Int_Tables_number   1
_chemical_formula_structural   SrCa7Ti3Mn5O22
_chemical_formula_sum   'Sr1 Ca7 Ti3 Mn5 O22'
_cell_volume   469.12966219
_cell_formula_units_Z   1
loop_
 _symmetry_equiv_pos_site_id
 _symmetry_equiv_pos_as_xyz
  1  'x, y, z'
loop_
 _atom_site_type_symbol
 _atom_site_label
 _atom_site_symmetry_multiplicity
 _atom_site_fract_x
 _atom_site_fract_y
 _atom_site_fract_z
 _atom_site_occupancy
  Sr  Sr0  1  0.24576800  0.25032300  0.25416400  1
  Ca  Ca0  1  0.26939200  0.27142100  0.75087700  1
  Ca  Ca1  1  0.23982700  0.73334700  0.26805900  1
  Ca  Ca2  1  0.28453200  0.73789000  0.76361200  1
  Ca  Ca3  1  0.75265200  0.25213300  0.24108300  1
  Ca  Ca4  1  0.73796200  0.28096500  0.74547600  1
  Ca  Ca5  1  0.75809200  0.73906200  0.25891600  1
  Ca  Ca6  1  0.75319700  0.75251300  0.75081400  1
  Ti  Ti0  1  0.00551200  0.99622300  0.98039800  1
  Ti  Ti1  1  0.99548400  0.99665500  0.51272000  1
  Ti  Ti2  1  0.50636600  0.99799800  0.99943800  1
  Mn  Mn0  1  0.99589900  0.50332100  0.02020400  1
  Mn  Mn1  1  0.99793200  0.49838400  0.51438500  1
  Mn  Mn2  1  0.50266600  0.99460700  0.48158100  1
  Mn  Mn3  1  0.50167800  0.50496700  0.99442700  1
  Mn  Mn4  1  0.50502100  0.50295000  0.50920700  1
  O  O0  1  0.96474800  0.97311900  0.74750300  1
  O  O1  1  0.04267400  0.49298500  0.26807400  1
  O  O2  1  0.94774000  0.51140400  0.77156900  1
  O  O3  1  0.49569900  0.05247200  0.23328500  1
  O  O4  1  0.51177400  0.94660500  0.72352100  1
  O  O5  1  0.54014900  0.54582600  0.75046600  1
  O  O6  1  0.24678500  0.00931300  0.94984600  1
  O  O7  1  0.21509900  0.98319900  0.42665700  1
  O  O8  1  0.25239900  0.49445400  0.97429200  1
  O  O9  1  0.25656400  0.51849700  0.54187300  1
  O  O10  1  0.74286700  0.98357900  0.99171500  1
  O  O11  1  0.78785900  0.01017900  0.40411800  1
  O  O12  1  0.73780100  0.50355100  0.06276600  1
  O  O13  1  0.74261600  0.47282100  0.45720700  1
  O  O14  1  0.98801200  0.21945900  0.06189000  1
  O  O15  1  0.01580700  0.24871500  0.54161100  1
  O  O16  1  0.00681400  0.78441500  0.08602900  1
  O  O17  1  0.97269500  0.74224300  0.50020300  1
  O  O18  1  0.50867000  0.25745700  0.95514800  1
  O  O19  1  0.48670200  0.24918500  0.53296500  1
  O  O20  1  0.47735500  0.74737200  0.04487700  1
  O  O21  1  0.50718900  0.74039200  0.42902300  1
loop_
_geom_bond_atom_site_label_1
_geom_bond_atom_site_label_2
_geom_bond_distance
_geom_bond_site_symmetry_2
Ca0 O19 2.412208 1_555
Ca0 O18 2.449545 1_555
Ca0 O8 2.451718 1_555
Ca0 O9 2.507084 1_555
Ca0 O6 2.552990 1_555
Ca0 O15 2.563434 1_555
Ca1 O7 2.299144 1_555
Ca1 O16 2.334132 1_555
Ca1 O1 2.409394 1_555
Ca1 O21 2.430077 1_555
Ca1 O20 2.550397 1_555
Ca1 O9 2.701660 1_555
Ca1 O17 2.768308 1_455
Ca1 O8 2.940134 1_554
Ca2 O4 2.416682 1_555
Ca2 O9 2.427274 1_555
Ca2 O5 2.490971 1_555
Ca2 O8 2.505815 1_555
Ca2 O6 2.566369 1_565
Ca2 O20 2.651268 1_556
Ca3 O11 2.272925 1_555
Ca3 O14 2.327552 1_555
Ca3 O12 2.387211 1_555
Ca3 O13 2.396222 1_555
Ca3 O3 2.529283 1_555
Ca4 O2 2.424550 1_555
Ca4 O18 2.435830 1_555
Ca4 O5 2.564531 1_555
Ca4 O19 2.571286 1_555
Ca4 O13 2.687318 1_555
Ca4 O15 2.707084 1_655
Ca4 O0 2.965503 1_545
Ca4 O10 2.988920 1_545
Ca4 O12 3.009010 1_556
Ca4 O4 3.129691 1_545
Ca4 O14 3.170534 1_556
Ca5 O21 2.370991 1_555
Ca5 O12 2.379004 1_555
Ca5 O11 2.389246 1_565
Ca5 O16 2.394335 1_655
Ca5 O17 2.510467 1_555
Ca5 O13 2.571817 1_555
Ca5 O20 2.747417 1_555
Ca5 O10 2.809064 1_554
Ca5 O1 2.926246 1_655
Ca6 O5 2.303659 1_555
Ca6 O0 2.371281 1_555
Ca6 O2 2.408845 1_555
Ca6 O4 2.418296 1_555
Ca6 O10 2.590021 1_555
Ca6 O17 2.605002 1_555
Mn0 O1 1.962847 1_655
Mn0 O2 1.970051 1_554
Mn0 O8 2.038358 1_654
Mn0 O12 2.044880 1_555
Mn0 O14 2.215227 1_555
Mn0 O16 2.230854 1_655
Mn1 O17 1.895662 1_555
Mn1 O15 1.943451 1_655
Mn1 O1 1.950705 1_655
Mn1 O9 2.036142 1_655
Mn1 O2 2.044063 1_555
Mn1 O13 2.050344 1_555
Mn2 O4 1.919535 1_555
Mn2 O3 1.983293 1_565
Mn2 O21 2.004840 1_555
Mn2 O19 2.009509 1_565
Mn2 O7 2.285919 1_555
Mn2 O11 2.313930 1_565
Mn3 O12 1.916868 1_556
Mn3 O20 1.921733 1_556
Mn3 O18 1.935634 1_555
Mn3 O5 1.949084 1_555
Mn3 O8 1.954239 1_555
Mn4 O13 1.916171 1_555
Mn4 O5 1.924782 1_555
Mn4 O21 1.935458 1_555
Mn4 O9 1.962560 1_555
Mn4 O19 1.972128 1_555
O0 Ti0 1.847156 1_655
O0 Ti1 1.852799 1_555
O1 Sr0 2.458869 1_555
O3 Ti2 1.870339 1_544
O3 Sr0 2.486222 1_555
O4 Ti2 2.184427 1_555
O6 Ti0 1.903411 1_545
O6 Ti2 2.063986 1_545
O6 Sr0 3.012489 1_556
O7 Ti1 1.848021 1_455
O7 Sr0 2.471279 1_565
O8 Sr0 2.879351 1_556
O9 Sr0 3.050923 1_555
O10 Ti2 1.852191 1_555
O10 Ti0 2.056156 1_655
O11 Ti1 1.827852 1_545
O14 Ti0 1.841842 1_644
O14 Sr0 2.513209 1_655
O15 Ti1 1.964560 1_445
O15 Sr0 2.876395 1_555
O16 Ti0 1.829164 1_554
O17 Ti1 1.973724 1_555
O18 Ti2 2.031685 1_545
O18 Sr0 3.112206 1_556
O19 Sr0 2.864491 1_555
O20 Ti2 1.978982 1_554
