# generated using pymatgen
data_Fe7Sb10(Br4O9)2
_symmetry_space_group_name_H-M   'P 1'
_cell_length_a   10.12084100
_cell_length_b   10.16782459
_cell_length_c   10.32828074
_cell_angle_alpha   72.63188554
_cell_angle_beta   64.44405333
_cell_angle_gamma   64.83051295
_symmetry_Int_Tables_number   1
_chemical_formula_structural   Fe7Sb10(Br4O9)2
_chemical_formula_sum   'Fe7 Sb10 Br8 O18'
_cell_volume   859.16951913
_cell_formula_units_Z   1
loop_
 _symmetry_equiv_pos_site_id
 _symmetry_equiv_pos_as_xyz
  1  'x, y, z'
loop_
 _atom_site_type_symbol
 _atom_site_label
 _atom_site_symmetry_multiplicity
 _atom_site_fract_x
 _atom_site_fract_y
 _atom_site_fract_z
 _atom_site_occupancy
  Fe  Fe0  1  0.85440500  0.73455800  0.69963700  1
  Fe  Fe1  1  0.14559500  0.26544200  0.30036300  1
  Fe  Fe2  1  0.51700600  0.63830500  0.86822300  1
  Fe  Fe3  1  0.48299400  0.36169500  0.13177700  1
  Fe  Fe4  1  0.15839200  0.53269100  0.40545000  1
  Fe  Fe5  1  0.84160800  0.46730900  0.59455000  1
  Fe  Fe6  1  0.50000000  0.00000000  0.00000000  1
  Sb  Sb0  1  0.16580900  0.91487600  0.52125500  1
  Sb  Sb1  1  0.83419100  0.08512400  0.47874500  1
  Sb  Sb2  1  0.17094400  0.86026400  0.13368000  1
  Sb  Sb3  1  0.82905600  0.13973600  0.86632000  1
  Sb  Sb4  1  0.48176700  0.67318000  0.23033900  1
  Sb  Sb5  1  0.51823300  0.32682000  0.76966100  1
  Sb  Sb6  1  0.82349900  0.43173400  0.96613400  1
  Sb  Sb7  1  0.17650100  0.56826600  0.03386600  1
  Sb  Sb8  1  0.81346000  0.78836100  0.34802900  1
  Sb  Sb9  1  0.18654000  0.21163900  0.65197100  1
  Br  Br0  1  0.14123700  0.55693300  0.68295300  1
  Br  Br1  1  0.85876300  0.44306700  0.31704700  1
  Br  Br2  1  0.52215600  0.64209900  0.60682300  1
  Br  Br3  1  0.47784400  0.35790100  0.39317700  1
  Br  Br4  1  0.78221000  0.78105100  0.98672100  1
  Br  Br5  1  0.21779000  0.21894900  0.01327900  1
  Br  Br6  1  0.56724500  0.93485500  0.71632900  1
  Br  Br7  1  0.43275500  0.06514500  0.28367100  1
  O  O0  1  0.75969300  0.56222700  0.79506900  1
  O  O1  1  0.24030700  0.43777300  0.20493100  1
  O  O2  1  0.06192100  0.08622300  0.38877600  1
  O  O3  1  0.93807900  0.91377700  0.61122400  1
  O  O4  1  0.90592300  0.65470700  0.49761100  1
  O  O5  1  0.09407700  0.34529300  0.50238900  1
  O  O6  1  0.56708100  0.54745000  0.07485000  1
  O  O7  1  0.43291900  0.45255000  0.92515000  1
  O  O8  1  0.24679000  0.69988200  0.29339400  1
  O  O9  1  0.75321000  0.30011800  0.70660600  1
  O  O10  1  0.59761000  0.15012200  0.90689800  1
  O  O11  1  0.40239000  0.84987800  0.09310200  1
  O  O12  1  0.02259200  0.73037600  0.18756600  1
  O  O13  1  0.97740800  0.26962400  0.81243400  1
  O  O14  1  0.87246900  0.95649700  0.34666300  1
  O  O15  1  0.12753100  0.04350300  0.65333700  1
  O  O16  1  0.28162400  0.72182600  0.98070400  1
  O  O17  1  0.71837600  0.27817400  0.01929600  1
loop_
_geom_bond_atom_site_label_1
_geom_bond_atom_site_label_2
_geom_bond_distance
_geom_bond_site_symmetry_2
Fe0 O3 2.126888 1_555
Fe0 O0 2.131450 1_555
Fe0 O4 2.235520 1_555
Fe1 O2 2.126888 1_555
Fe1 O1 2.131450 1_555
Fe1 O5 2.235520 1_555
Fe2 O16 2.055814 1_555
Fe2 O0 2.081780 1_555
Fe2 O7 2.215795 1_555
Fe2 O6 2.241105 1_556
Fe3 O17 2.055814 1_555
Fe3 O1 2.081780 1_555
Fe3 O6 2.215795 1_555
Fe3 O7 2.241105 1_554
Fe4 O8 2.062879 1_555
Fe4 O5 2.100125 1_555
Fe4 O4 2.210064 1_455
Fe4 O1 2.222433 1_555
Fe5 O9 2.062879 1_555
Fe5 O4 2.100125 1_555
Fe5 O5 2.210064 1_655
Fe5 O0 2.222433 1_555
Fe6 O10 1.953785 1_554
Fe6 O11 1.953785 1_545
Br0 Fe0 2.648286 1_455
Br0 Fe4 2.874304 1_555
Br1 Fe1 2.648286 1_655
Br1 Fe5 2.874304 1_555
Br2 Fe2 2.666704 1_555
Br2 Fe5 2.919090 1_555
Br2 Sb5 3.152541 1_555
Br3 Fe3 2.666704 1_555
Br3 Fe4 2.919090 1_555
Br3 Sb4 3.152541 1_555
Br4 Fe6 2.751102 1_566
Br4 Fe0 2.867557 1_555
Br5 Fe6 2.751102 1_555
Br5 Fe1 2.867557 1_555
Br6 Fe0 2.714166 1_555
Br6 Fe6 2.922441 1_566
Br6 Fe2 3.098914 1_555
Br7 Fe1 2.714166 1_555
Br7 Fe6 2.922441 1_555
Br7 Fe3 3.098914 1_555
O0 Sb6 2.038412 1_555
O1 Sb7 2.038412 1_555
O2 Sb0 2.067112 1_545
O2 Sb1 2.084145 1_455
O3 Sb1 2.067112 1_565
O3 Sb0 2.084145 1_655
O4 Sb8 2.005372 1_555
O5 Sb9 2.005372 1_555
O6 Sb4 2.012283 1_555
O6 Sb6 2.248865 1_554
O7 Sb5 2.012283 1_555
O7 Sb7 2.248865 1_556
O8 Sb4 2.091315 1_555
O8 Sb2 2.095561 1_555
O9 Sb5 2.091315 1_555
O9 Sb3 2.095561 1_555
O10 Sb5 2.028980 1_555
O10 Sb3 2.154710 1_555
O11 Sb4 2.028980 1_555
O11 Sb2 2.154710 1_555
O12 Sb8 2.017330 1_455
O12 Sb2 2.198900 1_555
O12 Sb7 2.215421 1_555
O13 Sb9 2.017330 1_655
O13 Sb3 2.198900 1_555
O13 Sb6 2.215421 1_555
O14 Sb1 1.974788 1_565
O14 Sb8 2.031332 1_555
O15 Sb0 1.974788 1_545
O15 Sb9 2.031332 1_555
O16 Sb2 2.047456 1_556
O16 Sb7 2.066028 1_556
O17 Sb3 2.047456 1_554
O17 Sb6 2.066028 1_554
