# generated using pymatgen
data_U2Co3CuGe4
_symmetry_space_group_name_H-M   'P 1'
_cell_length_a   4.06136800
_cell_length_b   4.06136800
_cell_length_c   9.80650500
_cell_angle_alpha   90.00000000
_cell_angle_beta   90.00000000
_cell_angle_gamma   90.00000000
_symmetry_Int_Tables_number   1
_chemical_formula_structural   U2Co3CuGe4
_chemical_formula_sum   'U2 Co3 Cu1 Ge4'
_cell_volume   161.75545640
_cell_formula_units_Z   1
loop_
 _symmetry_equiv_pos_site_id
 _symmetry_equiv_pos_as_xyz
  1  'x, y, z'
loop_
 _atom_site_type_symbol
 _atom_site_label
 _atom_site_symmetry_multiplicity
 _atom_site_fract_x
 _atom_site_fract_y
 _atom_site_fract_z
 _atom_site_occupancy
  U  U0  1  0.50000000  0.00000000  0.74584000  1
  U  U1  1  0.00000000  0.50000000  0.25416000  1
  Co  Co0  1  0.00000000  0.00000000  0.50000000  1
  Co  Co1  1  0.00000000  0.00000000  0.00000000  1
  Co  Co2  1  0.50000000  0.50000000  0.50000000  1
  Cu  Cu0  1  0.50000000  0.50000000  0.00000000  1
  Ge  Ge0  1  0.00000000  0.50000000  0.87276500  1
  Ge  Ge1  1  0.50000000  0.00000000  0.38003500  1
  Ge  Ge2  1  0.50000000  0.00000000  0.12723500  1
  Ge  Ge3  1  0.00000000  0.50000000  0.61996500  1
loop_
_geom_bond_atom_site_label_1
_geom_bond_atom_site_label_2
_geom_bond_distance
_geom_bond_site_symmetry_2
Co0 Ge3 2.346845 1_545
Co0 Ge3 2.346845 1_555
Co0 Ge1 2.346845 1_555
Co0 Ge1 2.346845 1_455
Co0 U1 3.152108 1_545
Co0 U1 3.152108 1_555
Co0 U0 3.152108 1_555
Co0 U0 3.152108 1_455
Co1 Ge2 2.383382 1_555
Co1 Ge0 2.383382 1_554
Co1 Ge0 2.383382 1_544
Co1 Ge2 2.383382 1_455
Co1 U0 3.214940 1_554
Co1 U0 3.214940 1_454
Co1 U1 3.214940 1_545
Co1 U1 3.214940 1_555
Co2 Ge3 2.346845 1_655
Co2 Ge3 2.346845 1_555
Co2 Ge1 2.346845 1_565
Co2 Ge1 2.346845 1_555
Co2 U1 3.152108 1_555
Co2 U1 3.152108 1_655
Co2 U0 3.152108 1_565
Co2 U0 3.152108 1_555
Cu0 Ge2 2.383382 1_565
Cu0 Ge0 2.383382 1_654
Cu0 Ge2 2.383382 1_555
Cu0 Ge0 2.383382 1_554
Cu0 U0 3.214940 1_554
Cu0 U0 3.214940 1_564
Cu0 U1 3.214940 1_555
Cu0 U1 3.214940 1_655
Ge0 Ge3 2.479084 1_555
Ge0 U0 3.129954 1_465
Ge0 U0 3.129954 1_565
Ge0 U0 3.129954 1_555
Ge0 U0 3.129954 1_455
Ge1 Ge2 2.479084 1_555
Ge1 U1 3.125873 1_545
Ge1 U1 3.125873 1_645
Ge1 U1 3.125873 1_555
Ge1 U1 3.125873 1_655
Ge2 U1 3.129954 1_655
Ge2 U1 3.129954 1_645
Ge2 U1 3.129954 1_545
Ge2 U1 3.129954 1_555
Ge3 U0 3.125873 1_465
Ge3 U0 3.125873 1_565
Ge3 U0 3.125873 1_555
Ge3 U0 3.125873 1_455
