# generated using pymatgen
data_Co(SbO9)2
_symmetry_space_group_name_H-M   'P 1'
_cell_length_a   14.31036400
_cell_length_b   14.31036334
_cell_length_c   8.74485100
_cell_angle_alpha   90.00000000
_cell_angle_beta   90.00000000
_cell_angle_gamma   120.00000152
_symmetry_Int_Tables_number   1
_chemical_formula_structural   Co(SbO9)2
_chemical_formula_sum   'Co6 Sb12 O108'
_cell_volume   1550.90208719
_cell_formula_units_Z   6
loop_
 _symmetry_equiv_pos_site_id
 _symmetry_equiv_pos_as_xyz
  1  'x, y, z'
loop_
 _atom_site_type_symbol
 _atom_site_label
 _atom_site_symmetry_multiplicity
 _atom_site_fract_x
 _atom_site_fract_y
 _atom_site_fract_z
 _atom_site_occupancy
  Co  Co0  1  0.33913600  0.00556400  0.03806600  1
  Co  Co1  1  0.99443600  0.33357200  0.03806600  1
  Co  Co2  1  0.66642800  0.66086400  0.03806600  1
  Co  Co3  1  0.66934700  0.99562800  0.05709100  1
  Co  Co4  1  0.00437200  0.67371900  0.05709100  1
  Co  Co5  1  0.32628100  0.33065300  0.05709100  1
  Sb  Sb0  1  0.00000000  0.00000000  0.00673700  1
  Sb  Sb1  1  0.33333300  0.66666700  0.01473100  1
  Sb  Sb2  1  0.66666700  0.33333300  0.08516800  1
  Sb  Sb3  1  0.00000000  0.00000000  0.51359500  1
  Sb  Sb4  1  0.33333300  0.66666700  0.52250800  1
  Sb  Sb5  1  0.66666700  0.33333300  0.57974500  1
  Sb  Sb6  1  0.32235600  0.99026800  0.54073700  1
  Sb  Sb7  1  0.00973200  0.33208800  0.54073700  1
  Sb  Sb8  1  0.66791200  0.67764400  0.54073700  1
  Sb  Sb9  1  0.66498100  0.00882800  0.54911500  1
  Sb  Sb10  1  0.99117200  0.65615300  0.54911500  1
  Sb  Sb11  1  0.34384700  0.33501900  0.54911500  1
  O  O0  1  0.90233000  0.86571600  0.12649000  1
  O  O1  1  0.13428400  0.03661400  0.12649000  1
  O  O2  1  0.96338600  0.09767000  0.12649000  1
  O  O3  1  0.02573200  0.90200000  0.86543200  1
  O  O4  1  0.09800000  0.12373200  0.86543200  1
  O  O5  1  0.87626800  0.97426800  0.86543200  1
  O  O6  1  0.46815900  0.69995200  0.13081600  1
  O  O7  1  0.30004800  0.76820700  0.13081600  1
  O  O8  1  0.23179300  0.53184100  0.13081600  1
  O  O9  1  0.35939700  0.56784100  0.87624800  1
  O  O10  1  0.43215900  0.79155600  0.87624800  1
  O  O11  1  0.20844400  0.64060300  0.87624800  1
  O  O12  1  0.80035700  0.43500200  0.96735500  1
  O  O13  1  0.56499800  0.36535500  0.96735500  1
  O  O14  1  0.63464500  0.19964300  0.96735500  1
  O  O15  1  0.54441600  0.23411900  0.22745800  1
  O  O16  1  0.76588100  0.31029700  0.22745800  1
  O  O17  1  0.68970300  0.45558400  0.22745800  1
  O  O18  1  0.22684900  0.92519600  0.16564400  1
  O  O19  1  0.07480400  0.30165300  0.16564400  1
  O  O20  1  0.69834700  0.77315100  0.16564400  1
  O  O21  1  0.31089600  0.88922000  0.92091400  1
  O  O22  1  0.11078000  0.42167600  0.92091400  1
  O  O23  1  0.57832400  0.68910400  0.92091400  1
  O  O24  1  0.42161000  0.97211300  0.15141800  1
  O  O25  1  0.02788700  0.44949700  0.15141800  1
  O  O26  1  0.55050300  0.57839000  0.15141800  1
  O  O27  1  0.44556600  0.08864900  0.91130700  1
  O  O28  1  0.91135100  0.35691800  0.91130700  1
  O  O29  1  0.64308200  0.55443400  0.91130700  1
  O  O30  1  0.36306800  0.11514200  0.16202800  1
  O  O31  1  0.88485800  0.24792700  0.16202800  1
  O  O32  1  0.75207300  0.63693200  0.16202800  1
  O  O33  1  0.25054300  0.02956400  0.92013300  1
  O  O34  1  0.97043600  0.22097900  0.92013300  1
  O  O35  1  0.77902100  0.74945700  0.92013300  1
  O  O36  1  0.55776400  0.96868300  0.93315500  1
  O  O37  1  0.03131700  0.58908100  0.93315500  1
  O  O38  1  0.41091900  0.44223600  0.93315500  1
  O  O39  1  0.58385700  0.89004100  0.18713400  1
  O  O40  1  0.10995900  0.69381600  0.18713400  1
  O  O41  1  0.30618400  0.41614300  0.18713400  1
  O  O42  1  0.69429900  0.90632700  0.94719600  1
  O  O43  1  0.09367300  0.78797200  0.94719600  1
  O  O44  1  0.21202800  0.30570100  0.94719600  1
  O  O45  1  0.78085700  0.02218100  0.18144100  1
  O  O46  1  0.97781900  0.75867600  0.18144100  1
  O  O47  1  0.24132400  0.21914300  0.18144100  1
  O  O48  1  0.74970200  0.10964000  0.93836900  1
  O  O49  1  0.89036000  0.64006200  0.93836900  1
  O  O50  1  0.35993800  0.25029800  0.93836900  1
  O  O51  1  0.64333600  0.08571000  0.17414300  1
  O  O52  1  0.91429000  0.55762600  0.17414300  1
  O  O53  1  0.44237400  0.35666400  0.17414300  1
  O  O54  1  0.92437100  0.86734300  0.65140100  1
  O  O55  1  0.13265700  0.05702800  0.65140100  1
  O  O56  1  0.94297200  0.07562900  0.65140100  1
  O  O57  1  0.08831000  0.95861200  0.37476000  1
  O  O58  1  0.04138800  0.12969900  0.37476000  1
  O  O59  1  0.87030100  0.91169000  0.37476000  1
  O  O60  1  0.42370400  0.63176000  0.37935300  1
  O  O61  1  0.36824000  0.79194400  0.37935300  1
  O  O62  1  0.20805600  0.57629600  0.37935300  1
  O  O63  1  0.46746800  0.73248300  0.66030300  1
  O  O64  1  0.26751700  0.73498500  0.66030300  1
  O  O65  1  0.26501500  0.53253200  0.66030300  1
  O  O66  1  0.59523100  0.39576600  0.44125400  1
  O  O67  1  0.60423400  0.19946400  0.44125400  1
  O  O68  1  0.80053600  0.40476900  0.44125400  1
  O  O69  1  0.70698100  0.24491400  0.71897700  1
  O  O70  1  0.75508600  0.46206700  0.71897700  1
  O  O71  1  0.53793300  0.29301900  0.71897700  1
  O  O72  1  0.19380500  0.93746600  0.68328700  1
  O  O73  1  0.06253400  0.25633900  0.68328700  1
  O  O74  1  0.74366100  0.80619500  0.68328700  1
  O  O75  1  0.25036400  0.85997800  0.40110400  1
  O  O76  1  0.14002200  0.39038600  0.40110400  1
  O  O77  1  0.60961400  0.74963600  0.40110400  1
  O  O78  1  0.38116700  0.91770400  0.68048500  1
  O  O79  1  0.08229600  0.46346300  0.68048500  1
  O  O80  1  0.53653700  0.61883300  0.68048500  1
  O  O81  1  0.45733000  0.04139700  0.40849300  1
  O  O82  1  0.95860300  0.41593300  0.40849300  1
  O  O83  1  0.58406700  0.54267000  0.40849300  1
  O  O84  1  0.39579900  0.12884300  0.66859800  1
  O  O85  1  0.87115700  0.26695600  0.66859800  1
  O  O86  1  0.73304400  0.60420100  0.66859800  1
  O  O87  1  0.27275700  0.06881900  0.39765200  1
  O  O88  1  0.93118100  0.20393900  0.39765200  1
  O  O89  1  0.79606100  0.72724300  0.39765200  1
  O  O90  1  0.52855400  0.93664700  0.41858300  1
  O  O91  1  0.06335300  0.59190700  0.41858300  1
  O  O92  1  0.40809300  0.47144600  0.41858300  1
  O  O93  1  0.62473800  0.87835000  0.68531400  1
  O  O94  1  0.12165000  0.74638800  0.68531400  1
  O  O95  1  0.25361200  0.37526200  0.68531400  1
  O  O96  1  0.72735800  0.93498000  0.41671100  1
  O  O97  1  0.06502000  0.79237700  0.41671100  1
  O  O98  1  0.20762300  0.27264200  0.41671100  1
  O  O99  1  0.79995800  0.09204300  0.68006500  1
  O  O100  1  0.90795700  0.70791500  0.68006500  1
  O  O101  1  0.29208500  0.20004200  0.68006500  1
  O  O102  1  0.72069800  0.13784000  0.40694200  1
  O  O103  1  0.86216000  0.58285800  0.40694200  1
  O  O104  1  0.41714200  0.27930200  0.40694200  1
  O  O105  1  0.59215500  0.06155500  0.69512000  1
  O  O106  1  0.93844500  0.53060000  0.69512000  1
  O  O107  1  0.46940000  0.40784500  0.69512000  1
loop_
_geom_bond_atom_site_label_1
_geom_bond_atom_site_label_2
_geom_bond_distance
_geom_bond_site_symmetry_2
Co0 O27 1.775169 1_554
Co0 O24 1.780349 1_545
Co0 O30 1.792851 1_555
Co0 O33 1.795630 1_554
Co0 O18 1.816967 1_545
Co0 O21 1.819892 1_544
Co1 O28 1.775177 1_554
Co1 O25 1.780349 1_655
Co1 O31 1.792847 1_555
Co1 O34 1.795630 1_554
Co1 O19 1.816967 1_655
Co1 O22 1.819892 1_654
Co2 O29 1.775166 1_554
Co2 O26 1.780349 1_555
Co2 O32 1.792839 1_555
Co2 O35 1.795630 1_554
Co2 O20 1.816967 1_555
Co2 O23 1.819892 1_554
Co3 O42 1.772137 1_554
Co3 O48 1.784934 1_564
Co3 O39 1.795684 1_555
Co3 O36 1.804812 1_554
Co3 O45 1.807465 1_565
Co3 O51 1.824267 1_565
Co4 O43 1.772137 1_554
Co4 O49 1.784935 1_454
Co4 O40 1.795684 1_555
Co4 O37 1.804812 1_554
Co4 O46 1.807465 1_455
Co4 O52 1.824267 1_455
Co5 O44 1.772137 1_554
Co5 O50 1.784934 1_554
Co5 O41 1.795684 1_555
Co5 O38 1.804812 1_554
Co5 O47 1.807465 1_555
Co5 O53 1.824267 1_555
O0 Sb0 2.014222 1_665
O1 Sb0 2.014222 1_555
O2 Sb0 2.014222 1_655
O3 Sb0 2.036103 1_566
O4 Sb0 2.036103 1_556
O5 Sb0 2.036103 1_666
O6 Sb1 2.015194 1_555
O7 Sb1 2.015182 1_555
O8 Sb1 2.015190 1_555
O9 Sb1 2.033033 1_556
O10 Sb1 2.033025 1_556
O11 Sb1 2.033022 1_556
O12 Sb2 2.013676 1_556
O13 Sb2 2.013684 1_556
O14 Sb2 2.013672 1_556
O15 Sb2 2.034904 1_555
O16 Sb2 2.034896 1_555
O17 Sb2 2.034908 1_555
O54 Sb3 2.042748 1_665
O55 Sb3 2.042748 1_555
O56 Sb3 2.042748 1_655
O57 Sb3 2.042146 1_565
O58 Sb3 2.042157 1_555
O59 Sb3 2.042154 1_665
O60 Sb4 2.033519 1_555
O61 Sb4 2.033508 1_555
O62 Sb4 2.033511 1_555
O63 Sb4 2.053231 1_555
O64 Sb4 2.053221 1_555
O65 Sb4 2.053231 1_555
O66 Sb5 2.055077 1_555
O67 Sb5 2.055077 1_555
O68 Sb5 2.055077 1_555
O69 Sb5 2.036235 1_555
O70 Sb5 2.036244 1_555
O71 Sb5 2.036246 1_555
O72 Sb6 2.029543 1_555
O73 Sb7 2.029543 1_555
O74 Sb8 2.029543 1_555
O75 Sb6 2.026789 1_555
O76 Sb7 2.026789 1_555
O77 Sb8 2.026789 1_555
O78 Sb6 2.038141 1_555
O79 Sb7 2.038141 1_555
O80 Sb8 2.038141 1_555
O81 Sb6 2.047018 1_545
O82 Sb7 2.047018 1_655
O83 Sb8 2.047018 1_555
O84 Sb6 2.050154 1_545
O85 Sb7 2.050154 1_655
O86 Sb8 2.050154 1_555
O87 Sb6 2.032456 1_545
O88 Sb7 2.032447 1_655
O89 Sb8 2.032445 1_555
O90 Sb9 2.040802 1_565
O91 Sb10 2.040802 1_455
O92 Sb11 2.040802 1_555
O93 Sb9 2.039931 1_565
O94 Sb10 2.039931 1_455
O95 Sb11 2.039931 1_555
O96 Sb9 2.048796 1_565
O97 Sb10 2.048786 1_455
O98 Sb11 2.048786 1_555
O99 Sb9 2.039660 1_555
O100 Sb10 2.039660 1_555
O101 Sb11 2.039660 1_555
O102 Sb9 2.029269 1_555
O103 Sb10 2.029269 1_555
O104 Sb11 2.029269 1_555
O105 Sb9 2.017920 1_555
O106 Sb10 2.017920 1_555
O107 Sb11 2.017920 1_555
