# generated using pymatgen
data_CrInNiS4
_symmetry_space_group_name_H-M   'P 1'
_cell_length_a   7.21001546
_cell_length_b   7.21001546
_cell_length_c   7.21001546
_cell_angle_alpha   120.95206854
_cell_angle_beta   119.23217543
_cell_angle_gamma   89.84698526
_symmetry_Int_Tables_number   1
_chemical_formula_structural   CrInNiS4
_chemical_formula_sum   'Cr2 In2 Ni2 S8'
_cell_volume   264.58428795
_cell_formula_units_Z   2
loop_
 _symmetry_equiv_pos_site_id
 _symmetry_equiv_pos_as_xyz
  1  'x, y, z'
loop_
 _atom_site_type_symbol
 _atom_site_label
 _atom_site_symmetry_multiplicity
 _atom_site_fract_x
 _atom_site_fract_y
 _atom_site_fract_z
 _atom_site_occupancy
  Cr  Cr0  1  0.00000000  0.00000000  0.50000000  1
  Cr  Cr1  1  0.00000000  0.50000000  0.00000000  1
  In  In0  1  0.00000000  0.00000000  0.00000000  1
  In  In1  1  0.50000000  0.00000000  0.50000000  1
  Ni  Ni0  1  0.37906700  0.62906700  0.75000000  1
  Ni  Ni1  1  0.62093300  0.37093300  0.25000000  1
  S  S0  1  0.23683600  0.72894800  0.99211300  1
  S  S1  1  0.23683600  0.24472300  0.50788700  1
  S  S2  1  0.21921800  0.74098000  0.47823900  1
  S  S3  1  0.76274100  0.74098000  0.02176100  1
  S  S4  1  0.76316400  0.27105200  0.00788700  1
  S  S5  1  0.76316400  0.75527700  0.49211300  1
  S  S6  1  0.78078200  0.25902000  0.52176100  1
  S  S7  1  0.23725900  0.25902000  0.97823900  1
loop_
_geom_bond_atom_site_label_1
_geom_bond_atom_site_label_2
_geom_bond_distance
_geom_bond_site_symmetry_2
Cr0 S1 2.418771 1_555
Cr0 S5 2.418771 1_445
Cr0 S6 2.436296 1_455
Cr0 S2 2.436296 1_545
Cr0 S7 2.436301 1_555
Cr0 S3 2.436301 1_445
Cr1 S0 2.418766 1_554
Cr1 S4 2.418766 1_455
Cr1 S3 2.436301 1_455
Cr1 S7 2.436301 1_554
Cr1 S6 2.436302 1_454
Cr1 S2 2.436302 1_555
In0 S1 2.588633 1_555
In0 S5 2.588633 1_444
In0 S0 2.588638 1_544
In0 S4 2.588638 1_455
In0 S3 2.649380 1_445
In0 S7 2.649380 1_554
In1 S1 2.588633 1_555
In1 S5 2.588633 1_545
In1 S0 2.588633 1_544
In1 S4 2.588633 1_556
In1 S6 2.649386 1_555
In1 S2 2.649386 1_545
Ni0 S1 2.251409 1_555
Ni0 S0 2.251410 1_555
Ni0 S3 2.287869 1_556
Ni0 S2 2.287869 1_555
Ni1 S5 2.251409 1_555
Ni1 S4 2.251410 1_555
Ni1 S7 2.287869 1_554
Ni1 S6 2.287869 1_555
