# generated using pymatgen
data_Ba(GdS2)2
_symmetry_space_group_name_H-M   'P 1'
_cell_length_a   4.09672914
_cell_length_b   12.36121926
_cell_length_c   14.67673017
_cell_angle_alpha   90.00000000
_cell_angle_beta   90.00000000
_cell_angle_gamma   90.00000000
_symmetry_Int_Tables_number   1
_chemical_formula_structural   Ba(GdS2)2
_chemical_formula_sum   'Ba4 Gd8 S16'
_cell_volume   743.23793969
_cell_formula_units_Z   4
loop_
 _symmetry_equiv_pos_site_id
 _symmetry_equiv_pos_as_xyz
  1  'x, y, z'
loop_
 _atom_site_type_symbol
 _atom_site_label
 _atom_site_symmetry_multiplicity
 _atom_site_fract_x
 _atom_site_fract_y
 _atom_site_fract_z
 _atom_site_occupancy
  Ba  Ba0  1  0.25000000  0.75763238  0.33887069  1
  Ba  Ba1  1  0.25000000  0.25763238  0.16112931  1
  Ba  Ba2  1  0.75000000  0.24236762  0.66112931  1
  Ba  Ba3  1  0.75000000  0.74236762  0.83887069  1
  Gd  Gd0  1  0.25000000  0.43198740  0.39107389  1
  Gd  Gd1  1  0.25000000  0.93198740  0.10892611  1
  Gd  Gd2  1  0.75000000  0.56801260  0.60892611  1
  Gd  Gd3  1  0.75000000  0.06801260  0.89107389  1
  Gd  Gd4  1  0.25000000  0.42043427  0.89784236  1
  Gd  Gd5  1  0.25000000  0.92043427  0.60215764  1
  Gd  Gd6  1  0.75000000  0.57956573  0.10215764  1
  Gd  Gd7  1  0.75000000  0.07956573  0.39784236  1
  S  S0  1  0.25000000  0.20708314  0.83392217  1
  S  S1  1  0.25000000  0.70708314  0.66607783  1
  S  S2  1  0.75000000  0.79291686  0.16607783  1
  S  S3  1  0.75000000  0.29291686  0.33392217  1
  S  S4  1  0.25000000  0.12474221  0.52341251  1
  S  S5  1  0.25000000  0.62474221  0.97658749  1
  S  S6  1  0.75000000  0.87525779  0.47658749  1
  S  S7  1  0.75000000  0.37525779  0.02341251  1
  S  S8  1  0.25000000  0.52279637  0.21697880  1
  S  S9  1  0.25000000  0.02279637  0.28302120  1
  S  S10  1  0.75000000  0.47720363  0.78302120  1
  S  S11  1  0.75000000  0.97720363  0.71697880  1
  S  S12  1  0.25000000  0.41897469  0.57721242  1
  S  S13  1  0.25000000  0.91897469  0.92278758  1
  S  S14  1  0.75000000  0.58102531  0.42278758  1
  S  S15  1  0.75000000  0.08102531  0.07721242  1
loop_
_geom_bond_atom_site_label_1
_geom_bond_atom_site_label_2
_geom_bond_distance
_geom_bond_site_symmetry_2
Ba0 S6 3.224170 1_555
Ba0 S6 3.224170 1_455
Ba0 S14 3.237056 1_555
Ba0 S14 3.237056 1_455
Ba0 S2 3.288997 1_455
Ba0 S2 3.288997 1_555
Ba0 S9 3.378688 1_565
Ba0 S8 3.409842 1_555
Ba1 S7 3.224170 1_455
Ba1 S7 3.224170 1_555
Ba1 S15 3.237056 1_455
Ba1 S15 3.237056 1_555
Ba1 S3 3.288997 1_455
Ba1 S3 3.288997 1_555
Ba1 S8 3.378688 1_555
Ba1 S9 3.409842 1_555
Ba2 S4 3.224170 1_555
Ba2 S4 3.224170 1_655
Ba2 S12 3.237056 1_555
Ba2 S12 3.237056 1_655
Ba2 S0 3.288997 1_655
Ba2 S0 3.288997 1_555
Ba2 S11 3.378688 1_545
Ba2 S10 3.409842 1_555
Ba3 S5 3.224170 1_555
Ba3 S5 3.224170 1_655
Ba3 S13 3.237056 1_655
Ba3 S13 3.237056 1_555
Ba3 S1 3.288997 1_555
Ba3 S1 3.288997 1_655
Ba3 S10 3.378688 1_555
Ba3 S11 3.409842 1_555
Gd0 S12 2.736636 1_555
Gd0 S8 2.790843 1_555
Gd0 S14 2.794007 1_455
Gd0 S14 2.794007 1_555
Gd0 S3 2.802610 1_455
Gd0 S3 2.802610 1_555
Gd1 S13 2.736636 1_554
Gd1 S9 2.790843 1_565
Gd1 S15 2.794007 1_565
Gd1 S15 2.794007 1_465
Gd1 S2 2.802610 1_555
Gd1 S2 2.802610 1_455
Gd2 S14 2.736636 1_555
Gd2 S10 2.790843 1_555
Gd2 S12 2.794007 1_555
Gd2 S12 2.794007 1_655
Gd2 S1 2.802610 1_555
Gd2 S1 2.802610 1_655
Gd3 S15 2.736636 1_556
Gd3 S11 2.790843 1_545
Gd3 S13 2.794007 1_545
Gd3 S13 2.794007 1_645
Gd3 S0 2.802610 1_555
Gd3 S0 2.802610 1_655
Gd4 S10 2.743744 1_555
Gd4 S10 2.743744 1_455
Gd4 S5 2.777376 1_555
Gd4 S0 2.799170 1_555
Gd4 S7 2.811432 1_456
Gd4 S7 2.811432 1_556
Gd5 S11 2.743744 1_555
Gd5 S11 2.743744 1_455
Gd5 S4 2.777376 1_565
Gd5 S1 2.799170 1_555
Gd5 S6 2.811432 1_555
Gd5 S6 2.811432 1_455
Gd6 S8 2.743744 1_655
Gd6 S8 2.743744 1_555
Gd6 S7 2.777376 1_555
Gd6 S2 2.799170 1_555
Gd6 S5 2.811432 1_654
Gd6 S5 2.811432 1_554
Gd7 S9 2.743744 1_555
Gd7 S9 2.743744 1_655
Gd7 S6 2.777376 1_545
Gd7 S3 2.799170 1_555
Gd7 S4 2.811432 1_655
Gd7 S4 2.811432 1_555
