# generated using pymatgen
data_RbHfMg6O7
_symmetry_space_group_name_H-M   'P 1'
_cell_length_a   12.21291265
_cell_length_b   4.17859618
_cell_length_c   4.17859618
_cell_angle_alpha   90.00000000
_cell_angle_beta   90.00000000
_cell_angle_gamma   90.00000000
_symmetry_Int_Tables_number   1
_chemical_formula_structural   RbHfMg6O7
_chemical_formula_sum   'Rb1 Hf1 Mg6 O7'
_cell_volume   213.24558910
_cell_formula_units_Z   1
loop_
 _symmetry_equiv_pos_site_id
 _symmetry_equiv_pos_as_xyz
  1  'x, y, z'
loop_
 _atom_site_type_symbol
 _atom_site_label
 _atom_site_symmetry_multiplicity
 _atom_site_fract_x
 _atom_site_fract_y
 _atom_site_fract_z
 _atom_site_occupancy
  Rb  Rb0  1  0.07804347  0.00000000  -0.00000000  1
  Hf  Hf0  1  0.89875917  0.50000000  0.50000000  1
  Mg  Mg0  1  0.52773904  0.00000000  -0.00000000  1
  Mg  Mg1  1  0.53286158  0.50000000  0.50000000  1
  Mg  Mg2  1  0.34860732  0.00000000  0.50000000  1
  Mg  Mg3  1  0.71335729  0.00000000  0.50000000  1
  Mg  Mg4  1  0.34860732  0.50000000  -0.00000000  1
  Mg  Mg5  1  0.71335729  0.50000000  0.00000000  1
  O  O0  1  0.34607114  -0.00000000  0.00000000  1
  O  O1  1  0.69345120  0.00000000  0.00000000  1
  O  O2  1  0.71797884  0.50000000  0.50000000  1
  O  O3  1  0.89065059  0.00000000  0.50000000  1
  O  O4  1  0.52493258  0.00000000  0.50000000  1
  O  O5  1  0.89065059  0.50000000  -0.00000000  1
  O  O6  1  0.52493258  0.50000000  -0.00000000  1
loop_
_geom_bond_atom_site_label_1
_geom_bond_atom_site_label_2
_geom_bond_distance
_geom_bond_site_symmetry_2
Hf0 O3 2.091644 1_565
Hf0 O5 2.091644 1_556
Hf0 O5 2.091644 1_555
Hf0 O3 2.091644 1_555
Hf0 O2 2.207854 1_555
Mg0 O1 2.023828 1_555
Mg0 O6 2.089579 1_555
Mg0 O4 2.089579 1_555
Mg0 O4 2.089579 1_554
Mg0 O6 2.089579 1_545
Mg0 O0 2.218694 1_555
Mg1 O4 2.091541 1_555
Mg1 O4 2.091541 1_565
Mg1 O6 2.091541 1_556
Mg1 O6 2.091541 1_555
Mg1 O2 2.260821 1_555
Mg2 O0 2.089528 1_556
Mg2 O0 2.089528 1_555
Mg2 O4 2.153445 1_555
Mg3 O2 2.090060 1_545
Mg3 O2 2.090060 1_555
Mg3 O1 2.103395 1_555
Mg3 O1 2.103395 1_556
Mg3 O3 2.165268 1_555
Mg3 O4 2.301215 1_555
Mg4 O0 2.089528 1_555
Mg4 O0 2.089528 1_565
Mg4 O6 2.153445 1_555
Mg5 O2 2.090060 1_554
Mg5 O2 2.090060 1_555
Mg5 O1 2.103395 1_555
Mg5 O1 2.103395 1_565
Mg5 O5 2.165268 1_555
Mg5 O6 2.301215 1_555
O0 Rb0 3.273399 1_555
O3 Rb0 3.098857 1_656
O3 Rb0 3.098857 1_655
O5 Rb0 3.098857 1_655
O5 Rb0 3.098857 1_665
