# generated using pymatgen
data_Ag
_symmetry_space_group_name_H-M   'P 1'
_cell_length_a   5.80443731
_cell_length_b   5.80443652
_cell_length_c   5.80443476
_cell_angle_alpha   60.00001004
_cell_angle_beta   60.00001453
_cell_angle_gamma   59.99999145
_symmetry_Int_Tables_number   1
_chemical_formula_structural   Ag
_chemical_formula_sum   Ag8
_cell_volume   138.28184961
_cell_formula_units_Z   8
loop_
 _symmetry_equiv_pos_site_id
 _symmetry_equiv_pos_as_xyz
  1  'x, y, z'
loop_
 _atom_site_type_symbol
 _atom_site_label
 _atom_site_symmetry_multiplicity
 _atom_site_fract_x
 _atom_site_fract_y
 _atom_site_fract_z
 _atom_site_occupancy
  Ag  Ag0_0  1  0.00000000  0.00000000  0.00000000  1
  Ag  Ag0_1  1  0.00000000  0.00000000  0.50000000  1
  Ag  Ag0_2  1  0.00000000  0.50000000  0.00000000  1
  Ag  Ag0_3  1  0.00000000  0.50000000  0.50000000  1
  Ag  Ag0_4  1  0.50000000  0.00000000  0.00000000  1
  Ag  Ag0_5  1  0.50000000  0.00000000  0.50000000  1
  Ag  Ag0_6  1  0.50000000  0.50000000  1.00000000  1
  Ag  Ag0_7  1  0.50000000  0.50000000  0.50000000  1
loop_
_geom_bond_atom_site_label_1
_geom_bond_atom_site_label_2
_geom_bond_distance
_geom_bond_site_symmetry_2
Ag0_0 Ag0_1 2.902217 1_555
Ag0_0 Ag0_1 2.902217 1_554
Ag0_0 Ag0_6 2.902218 1_454
Ag0_0 Ag0_6 2.902218 1_544
Ag0_0 Ag0_2 2.902218 1_545
Ag0_0 Ag0_2 2.902218 1_555
Ag0_0 Ag0_3 2.902218 1_545
Ag0_0 Ag0_3 2.902218 1_554
Ag0_0 Ag0_5 2.902219 1_554
Ag0_0 Ag0_4 2.902219 1_555
Ag0_0 Ag0_4 2.902219 1_455
Ag0_0 Ag0_5 2.902219 1_455
Ag0_1 Ag0_7 2.902218 1_455
Ag0_1 Ag0_7 2.902218 1_545
Ag0_1 Ag0_2 2.902218 1_546
Ag0_1 Ag0_2 2.902218 1_555
Ag0_1 Ag0_3 2.902218 1_545
Ag0_1 Ag0_3 2.902218 1_555
Ag0_1 Ag0_4 2.902219 1_555
Ag0_1 Ag0_4 2.902219 1_456
Ag0_1 Ag0_5 2.902219 1_555
Ag0_1 Ag0_5 2.902219 1_455
Ag0_2 Ag0_3 2.902217 1_555
Ag0_2 Ag0_3 2.902217 1_554
Ag0_2 Ag0_4 2.902218 1_465
Ag0_2 Ag0_4 2.902218 1_555
Ag0_2 Ag0_7 2.902219 1_455
Ag0_2 Ag0_6 2.902219 1_454
Ag0_2 Ag0_6 2.902219 1_554
Ag0_2 Ag0_7 2.902219 1_554
Ag0_3 Ag0_5 2.902218 1_555
Ag0_3 Ag0_5 2.902218 1_465
Ag0_3 Ag0_6 2.902219 1_455
Ag0_3 Ag0_7 2.902219 1_555
Ag0_3 Ag0_7 2.902219 1_455
Ag0_3 Ag0_6 2.902219 1_554
Ag0_4 Ag0_5 2.902217 1_555
Ag0_4 Ag0_5 2.902217 1_554
Ag0_4 Ag0_7 2.902218 1_545
Ag0_4 Ag0_6 2.902218 1_544
Ag0_4 Ag0_6 2.902218 1_554
Ag0_4 Ag0_7 2.902218 1_554
Ag0_5 Ag0_7 2.902218 1_555
Ag0_5 Ag0_6 2.902218 1_545
Ag0_5 Ag0_6 2.902218 1_554
Ag0_5 Ag0_7 2.902218 1_545
Ag0_6 Ag0_7 2.902217 1_556
Ag0_6 Ag0_7 2.902217 1_555
