# generated using pymatgen
data_Nb4Pb3O13
_symmetry_space_group_name_H-M   'P 1'
_cell_length_a   7.52596630
_cell_length_b   7.53753820
_cell_length_c   10.65715717
_cell_angle_alpha   90.00000000
_cell_angle_beta   90.00000000
_cell_angle_gamma   90.00000000
_symmetry_Int_Tables_number   1
_chemical_formula_structural   Nb4Pb3O13
_chemical_formula_sum   'Nb8 Pb6 O26'
_cell_volume   604.55130942
_cell_formula_units_Z   2
loop_
 _symmetry_equiv_pos_site_id
 _symmetry_equiv_pos_as_xyz
  1  'x, y, z'
loop_
 _atom_site_type_symbol
 _atom_site_label
 _atom_site_symmetry_multiplicity
 _atom_site_fract_x
 _atom_site_fract_y
 _atom_site_fract_z
 _atom_site_occupancy
  Nb  Nb0  1  0.75124235  0.75000000  0.25263573  1
  Nb  Nb1  1  -0.00000000  0.00000000  -0.00000000  1
  Nb  Nb2  1  0.24875765  0.25000000  0.74736427  1
  Nb  Nb3  1  0.50000000  0.00000000  0.50000000  1
  Nb  Nb4  1  0.50000000  0.50000000  0.50000000  1
  Nb  Nb5  1  0.75124235  0.25000000  0.74736427  1
  Nb  Nb6  1  -0.00000000  0.50000000  -0.00000000  1
  Nb  Nb7  1  0.24875765  0.75000000  0.25263573  1
  Pb  Pb0  1  0.75077065  0.75000000  0.73659010  1
  Pb  Pb1  1  0.24922935  0.75000000  0.73659010  1
  Pb  Pb2  1  0.24922935  0.25000000  0.26340990  1
  Pb  Pb3  1  0.50000000  0.00000000  -0.00000000  1
  Pb  Pb4  1  0.50000000  0.50000000  -0.00000000  1
  Pb  Pb5  1  0.75077065  0.25000000  0.26340990  1
  O  O0  1  0.31667681  0.93965075  0.37212204  1
  O  O1  1  0.50000000  0.75000000  0.17767280  1
  O  O2  1  0.50000000  0.25000000  0.15512747  1
  O  O3  1  0.50000000  0.75000000  0.56627863  1
  O  O4  1  0.68332319  0.93965075  0.37212204  1
  O  O5  1  0.80770809  0.44409266  0.87524288  1
  O  O6  1  0.80770809  0.94409266  0.12475712  1
  O  O7  1  0.80770809  0.05590734  0.87524288  1
  O  O8  1  -0.00000000  0.25000000  0.69929300  1
  O  O9  1  -0.00000000  0.75000000  0.93739666  1
  O  O10  1  -0.00000000  0.75000000  0.30070700  1
  O  O11  1  -0.00000000  0.25000000  0.06260334  1
  O  O12  1  0.19229191  0.94409266  0.12475712  1
  O  O13  1  0.19229191  0.44409266  0.87524288  1
  O  O14  1  0.19229191  0.05590734  0.87524288  1
  O  O15  1  0.31667681  0.43965075  0.62787796  1
  O  O16  1  0.31667681  0.56034925  0.37212204  1
  O  O17  1  0.31667681  0.06034925  0.62787796  1
  O  O18  1  0.50000000  0.25000000  0.43372137  1
  O  O19  1  0.50000000  0.25000000  0.82232720  1
  O  O20  1  0.50000000  0.75000000  0.84487253  1
  O  O21  1  0.68332319  0.06034925  0.62787796  1
  O  O22  1  0.68332319  0.43965075  0.62787796  1
  O  O23  1  0.68332319  0.56034925  0.37212204  1
  O  O24  1  0.80770809  0.55590734  0.12475712  1
  O  O25  1  0.19229191  0.55590734  0.12475712  1
loop_
_geom_bond_atom_site_label_1
_geom_bond_atom_site_label_2
_geom_bond_distance
_geom_bond_site_symmetry_2
Nb0 O10 1.940971 1_655
Nb0 O4 1.981479 1_555
Nb0 O23 1.981479 1_555
Nb0 O6 2.044062 1_555
Nb0 O24 2.044062 1_555
Nb0 O1 2.052683 1_555
Nb1 O11 1.999006 1_555
Nb1 O9 1.999006 1_544
Nb1 O7 2.009885 1_454
Nb1 O14 2.009885 1_554
Nb1 O6 2.009885 1_445
Nb1 O12 2.009885 1_545
Nb2 O8 1.940971 1_555
Nb2 O17 1.981479 1_555
Nb2 O15 1.981479 1_555
Nb2 O14 2.044062 1_555
Nb2 O13 2.044062 1_555
Nb2 O19 2.052683 1_555
Nb3 O4 1.991912 1_545
Nb3 O0 1.991912 1_545
Nb3 O17 1.991912 1_555
Nb3 O21 1.991912 1_555
Nb3 O3 2.012417 1_545
Nb3 O18 2.012417 1_555
Nb4 O23 1.991912 1_555
Nb4 O16 1.991912 1_555
Nb4 O15 1.991912 1_555
Nb4 O22 1.991912 1_555
Nb4 O18 2.012417 1_555
Nb4 O3 2.012417 1_555
Nb5 O8 1.940971 1_655
Nb5 O21 1.981479 1_555
Nb5 O22 1.981479 1_555
Nb5 O7 2.044062 1_555
Nb5 O5 2.044062 1_555
Nb5 O19 2.052683 1_555
Nb6 O9 1.999006 1_554
Nb6 O11 1.999006 1_555
Nb6 O5 2.009885 1_454
Nb6 O13 2.009885 1_554
Nb6 O25 2.009885 1_555
Nb6 O24 2.009885 1_455
Nb7 O10 1.940971 1_555
Nb7 O0 1.981479 1_555
Nb7 O16 1.981479 1_555
Nb7 O12 2.044062 1_555
Nb7 O25 2.044062 1_555
Nb7 O1 2.052683 1_555
O1 Pb4 2.671366 1_555
O1 Pb3 2.671366 1_565
O2 Pb2 2.212136 1_555
O2 Pb5 2.212136 1_555
O2 Pb4 2.506798 1_555
O2 Pb3 2.506798 1_555
O5 Pb4 2.703375 1_556
O6 Pb3 2.703375 1_565
O7 Pb3 2.703375 1_556
O12 Pb3 2.703375 1_565
O13 Pb4 2.703375 1_556
O14 Pb3 2.703375 1_556
O19 Pb3 2.671366 1_556
O19 Pb4 2.671366 1_556
O20 Pb0 2.212136 1_555
O20 Pb1 2.212136 1_555
O20 Pb4 2.506798 1_556
O20 Pb3 2.506798 1_566
O24 Pb4 2.703375 1_555
O25 Pb4 2.703375 1_555
