# generated using pymatgen
data_Li9Mn2Co5O16
_symmetry_space_group_name_H-M   'P 1'
_cell_length_a   2.85039600
_cell_length_b   5.26053700
_cell_length_c   19.61637488
_cell_angle_alpha   83.33069294
_cell_angle_beta   90.00000000
_cell_angle_gamma   90.00000000
_symmetry_Int_Tables_number   1
_chemical_formula_structural   Li9Mn2Co5O16
_chemical_formula_sum   'Li9 Mn2 Co5 O16'
_cell_volume   292.14951881
_cell_formula_units_Z   1
loop_
 _symmetry_equiv_pos_site_id
 _symmetry_equiv_pos_as_xyz
  1  'x, y, z'
loop_
 _atom_site_type_symbol
 _atom_site_label
 _atom_site_symmetry_multiplicity
 _atom_site_fract_x
 _atom_site_fract_y
 _atom_site_fract_z
 _atom_site_occupancy
  Li  Li0  1  0.50000000  0.75359400  0.87469900  1
  Li  Li1  1  0.00000000  0.00279500  0.74871000  1
  Li  Li2  1  0.50000000  0.26001600  0.62349500  1
  Li  Li3  1  0.00000000  0.50000000  0.50000000  1
  Li  Li4  1  0.50000000  0.73998400  0.37650500  1
  Li  Li5  1  0.00000000  0.50000000  0.00000000  1
  Li  Li6  1  0.50000000  0.24640600  0.12530100  1
  Li  Li7  1  0.00000000  0.99720500  0.25129000  1
  Li  Li8  1  0.50000000  0.00000000  0.50000000  1
  Mn  Mn0  1  0.00000000  0.24789300  0.87373400  1
  Mn  Mn1  1  0.00000000  0.75210700  0.12626600  1
  Co  Co0  1  0.50000000  0.50468400  0.74734400  1
  Co  Co1  1  0.00000000  0.79317200  0.61616300  1
  Co  Co2  1  0.00000000  0.20682800  0.38383700  1
  Co  Co3  1  0.50000000  0.49531600  0.25265600  1
  Co  Co4  1  0.50000000  0.00000000  0.00000000  1
  O  O0  1  0.50000000  0.36027400  0.93308000  1
  O  O1  1  0.00000000  0.61832600  0.80407500  1
  O  O2  1  0.50000000  0.85417000  0.67982400  1
  O  O3  1  0.00000000  0.10524500  0.56719100  1
  O  O4  1  0.50000000  0.36511700  0.42977700  1
  O  O5  1  0.00000000  0.12389300  0.05749600  1
  O  O6  1  0.50000000  0.87208100  0.18209000  1
  O  O7  1  0.00000000  0.61920000  0.30431400  1
  O  O8  1  0.50000000  0.12791900  0.81791000  1
  O  O9  1  0.00000000  0.38080000  0.69568600  1
  O  O10  1  0.50000000  0.63488300  0.57022300  1
  O  O11  1  0.00000000  0.89475500  0.43280900  1
  O  O12  1  0.50000000  0.14583000  0.32017600  1
  O  O13  1  0.00000000  0.87610700  0.94250400  1
  O  O14  1  0.50000000  0.63972600  0.06692000  1
  O  O15  1  0.00000000  0.38167400  0.19592500  1
loop_
_geom_bond_atom_site_label_1
_geom_bond_atom_site_label_2
_geom_bond_distance
_geom_bond_site_symmetry_2
Li0 O13 2.101142 1_555
Li0 O13 2.101142 1_655
Li0 O8 2.146860 1_565
Li0 O1 2.164675 1_655
Li0 O1 2.164675 1_555
Li0 O0 2.245487 1_555
Li1 O8 2.124773 1_455
Li1 O8 2.124773 1_555
Li1 O9 2.134393 1_555
Li1 O2 2.171145 1_445
Li1 O2 2.171145 1_545
Li1 O1 2.181714 1_545
Li2 O3 2.030475 1_655
Li2 O3 2.030475 1_555
Li2 O10 2.121829 1_555
Li2 O9 2.156228 1_555
Li2 O9 2.156228 1_655
Li2 O2 2.287157 1_545
Li3 O4 2.158532 1_455
Li3 O4 2.158532 1_555
Li3 O10 2.158532 1_455
Li3 O10 2.158532 1_555
Li3 O11 2.326766 1_555
Li3 O3 2.326766 1_555
Li4 O11 2.030475 1_555
Li4 O11 2.030475 1_655
Li4 O4 2.121829 1_555
Li4 O7 2.156228 1_655
Li4 O7 2.156228 1_555
Li4 O12 2.287157 1_565
Li5 O14 2.125757 1_555
Li5 O0 2.125757 1_554
Li5 O14 2.125757 1_455
Li5 O0 2.125757 1_454
Li5 O13 2.160627 1_554
Li5 O5 2.160627 1_555
Li6 O5 2.101142 1_655
Li6 O5 2.101142 1_555
Li6 O6 2.146860 1_545
Li6 O15 2.164675 1_655
Li6 O15 2.164675 1_555
Li6 O14 2.245487 1_555
Li7 O6 2.124773 1_455
Li7 O6 2.124773 1_555
Li7 O7 2.134393 1_555
Li7 O12 2.171145 1_565
Li7 O12 2.171145 1_465
Li7 O15 2.181714 1_565
Li8 O11 2.060207 1_545
Li8 O3 2.060207 1_555
Li8 O11 2.060207 1_645
Li8 O3 2.060207 1_655
Li8 O4 2.229828 1_555
Li8 O10 2.229828 1_545
Mn0 O8 1.946589 1_555
Mn0 O8 1.946589 1_455
Mn0 O0 1.973778 1_555
Mn0 O0 1.973778 1_455
Mn0 O13 2.243243 1_545
Mn0 O1 2.246339 1_555
Mn1 O6 1.946589 1_455
Mn1 O6 1.946589 1_555
Mn1 O14 1.973778 1_555
Mn1 O14 1.973778 1_455
Mn1 O5 2.243243 1_565
Mn1 O15 2.246339 1_555
Co0 O9 1.906870 1_555
Co0 O9 1.906870 1_655
Co0 O1 1.944622 1_655
Co0 O1 1.944622 1_555
Co0 O2 2.137453 1_555
Co0 O8 2.281917 1_555
Co1 O3 1.803225 1_565
Co1 O10 1.926388 1_455
Co1 O10 1.926388 1_555
Co1 O2 1.945952 1_555
Co1 O2 1.945952 1_455
Co1 O9 2.520571 1_555
Co2 O11 1.803225 1_545
Co2 O4 1.926388 1_455
Co2 O4 1.926388 1_555
Co2 O12 1.945952 1_455
Co2 O12 1.945952 1_555
Co2 O7 2.520571 1_555
Co3 O7 1.906870 1_555
Co3 O7 1.906870 1_655
Co3 O15 1.944622 1_655
Co3 O15 1.944622 1_555
Co3 O12 2.137453 1_555
Co3 O6 2.281917 1_555
Co4 O13 1.974532 1_644
Co4 O13 1.974532 1_544
Co4 O5 1.974532 1_555
Co4 O5 1.974532 1_655
Co4 O14 2.176529 1_545
Co4 O0 2.176529 1_554
