# generated using pymatgen
data_ErRh5
_symmetry_space_group_name_H-M   'P 1'
_cell_length_a   5.22686623
_cell_length_b   5.22686623
_cell_length_c   4.33755000
_cell_angle_alpha   90.00000000
_cell_angle_beta   90.00000000
_cell_angle_gamma   120.00000287
_symmetry_Int_Tables_number   1
_chemical_formula_structural   ErRh5
_chemical_formula_sum   'Er1 Rh5'
_cell_volume   102.62611379
_cell_formula_units_Z   1
loop_
 _symmetry_equiv_pos_site_id
 _symmetry_equiv_pos_as_xyz
  1  'x, y, z'
loop_
 _atom_site_type_symbol
 _atom_site_label
 _atom_site_symmetry_multiplicity
 _atom_site_fract_x
 _atom_site_fract_y
 _atom_site_fract_z
 _atom_site_occupancy
  Er  Er0  1  0.00000000  0.00000000  0.00000000  1
  Rh  Rh0  1  0.00000000  0.50000000  0.50000000  1
  Rh  Rh1  1  0.33333300  0.66666700  0.00000000  1
  Rh  Rh2  1  0.66666700  0.33333300  0.00000000  1
  Rh  Rh3  1  0.50000000  0.00000000  0.50000000  1
  Rh  Rh4  1  0.50000000  0.50000000  0.50000000  1
loop_
_geom_bond_atom_site_label_1
_geom_bond_atom_site_label_2
_geom_bond_distance
_geom_bond_site_symmetry_2
Er0 Rh2 3.017730 1_455
Er0 Rh1 3.017730 1_545
Er0 Rh1 3.017734 1_555
Er0 Rh1 3.017734 1_445
Er0 Rh2 3.017734 1_555
Er0 Rh2 3.017734 1_445
Er0 Rh4 3.396118 1_554
Er0 Rh4 3.396118 1_555
Er0 Rh4 3.396118 1_444
Er0 Rh4 3.396118 1_445
Er0 Rh3 3.396118 1_555
Er0 Rh3 3.396118 1_454
Er0 Rh0 3.396118 1_555
Er0 Rh0 3.396118 1_545
Er0 Rh3 3.396118 1_455
Er0 Rh3 3.396118 1_554
Er0 Rh0 3.396118 1_554
Er0 Rh0 3.396118 1_544
Rh0 Rh3 2.613433 1_455
Rh0 Rh3 2.613433 1_565
Rh0 Rh4 2.613433 1_555
Rh0 Rh4 2.613433 1_455
Rh0 Rh2 2.642018 1_456
Rh0 Rh1 2.642018 1_555
Rh0 Rh2 2.642018 1_455
Rh0 Rh1 2.642018 1_556
Rh1 Rh3 2.642018 1_565
Rh1 Rh3 2.642018 1_564
Rh1 Rh4 2.642020 1_555
Rh1 Rh4 2.642020 1_554
Rh1 Rh2 3.017730 1_455
Rh1 Rh2 3.017730 1_565
Rh1 Rh2 3.017739 1_555
Rh2 Rh3 2.642018 1_555
Rh2 Rh3 2.642018 1_554
Rh2 Rh4 2.642020 1_555
Rh2 Rh4 2.642020 1_554
Rh3 Rh4 2.613433 1_555
Rh3 Rh4 2.613433 1_545
