# generated using pymatgen
data_CrP2H15O14
_symmetry_space_group_name_H-M   'P 1'
_cell_length_a   7.09131100
_cell_length_b   8.92740730
_cell_length_c   10.67344348
_cell_angle_alpha   110.97675712
_cell_angle_beta   89.16461300
_cell_angle_gamma   111.01671543
_symmetry_Int_Tables_number   1
_chemical_formula_structural   CrP2H15O14
_chemical_formula_sum   'Cr2 P4 H30 O28'
_cell_volume   583.90830674
_cell_formula_units_Z   2
loop_
 _symmetry_equiv_pos_site_id
 _symmetry_equiv_pos_as_xyz
  1  'x, y, z'
loop_
 _atom_site_type_symbol
 _atom_site_label
 _atom_site_symmetry_multiplicity
 _atom_site_fract_x
 _atom_site_fract_y
 _atom_site_fract_z
 _atom_site_occupancy
  Cr  Cr0  1  0.73158600  0.41455600  0.72808400  1
  Cr  Cr1  1  0.26841400  0.58544400  0.27191600  1
  P  P0  1  0.30884100  0.18206800  0.78230600  1
  P  P1  1  0.69115900  0.81793200  0.21769400  1
  P  P2  1  0.30687800  0.23728200  0.52893000  1
  P  P3  1  0.69312200  0.76271800  0.47107000  1
  H  H0  1  0.08040200  0.97233900  0.82344800  1
  H  H1  1  0.91959800  0.02766100  0.17655200  1
  H  H2  1  0.07953600  0.61802900  0.67299300  1
  H  H3  1  0.92046400  0.38197100  0.32700700  1
  H  H4  1  0.89007900  0.62073200  0.58593900  1
  H  H5  1  0.10992100  0.37926800  0.41406100  1
  H  H6  1  0.06366300  0.58251100  0.90824900  1
  H  H7  1  0.93633700  0.41748900  0.09175100  1
  H  H8  1  0.05395700  0.38589500  0.84454900  1
  H  H9  1  0.94604300  0.61410500  0.15545100  1
  H  H10  1  0.91534100  0.23741600  0.55885200  1
  H  H11  1  0.08465900  0.76258400  0.44114800  1
  H  H12  1  0.72685000  0.09677800  0.59842300  1
  H  H13  1  0.27315000  0.90322200  0.40157700  1
  H  H14  1  0.72105600  0.63425300  0.96904100  1
  H  H15  1  0.27894400  0.36574700  0.03095900  1
  H  H16  1  0.74493900  0.72920500  0.86121000  1
  H  H17  1  0.25506100  0.27079500  0.13879000  1
  H  H18  1  0.80534900  0.01165200  0.90888800  1
  H  H19  1  0.19465100  0.98834800  0.09111200  1
  H  H20  1  0.77205100  0.90502500  0.74949800  1
  H  H21  1  0.22794900  0.09497500  0.25050200  1
  H  H22  1  0.57904600  0.23712300  0.32879400  1
  H  H23  1  0.42095400  0.76287700  0.67120600  1
  H  H24  1  0.63387500  0.41960700  0.32226400  1
  H  H25  1  0.36612500  0.58039300  0.67773600  1
  H  H26  1  0.33450100  0.77619200  0.04755900  1
  H  H27  1  0.66549900  0.22380800  0.95244100  1
  H  H28  1  0.31986000  0.78158400  0.90038800  1
  H  H29  1  0.68014000  0.21841600  0.09961200  1
  O  O0  1  0.54243700  0.24728400  0.80432200  1
  O  O1  1  0.45756300  0.75271600  0.19567800  1
  O  O2  1  0.22941700  0.00837000  0.80839500  1
  O  O3  1  0.77058300  0.99163000  0.19160500  1
  O  O4  1  0.21706600  0.30780800  0.86694600  1
  O  O5  1  0.78293400  0.69219200  0.13305400  1
  O  O6  1  0.23414300  0.12165700  0.62399800  1
  O  O7  1  0.76585700  0.87834300  0.37600200  1
  O  O8  1  0.50060900  0.39468000  0.61022200  1
  O  O9  1  0.49939100  0.60532000  0.38977800  1
  O  O10  1  0.34060900  0.11383800  0.39636700  1
  O  O11  1  0.65939100  0.88616200  0.60363300  1
  O  O12  1  0.13641200  0.29840000  0.51543000  1
  O  O13  1  0.86358800  0.70160000  0.48457000  1
  O  O14  1  0.92729300  0.57907600  0.65567800  1
  O  O15  1  0.07270700  0.42092400  0.34432200  1
  O  O16  1  0.97022300  0.45943800  0.85561000  1
  O  O17  1  0.02977700  0.54056200  0.14439000  1
  O  O18  1  0.77478800  0.21151600  0.58910700  1
  O  O19  1  0.22521200  0.78848400  0.41089300  1
  O  O20  1  0.68440000  0.61479500  0.87189000  1
  O  O21  1  0.31560000  0.38520500  0.12811000  1
  O  O22  1  0.83663500  0.91863900  0.83883000  1
  O  O23  1  0.16336500  0.08136100  0.16117000  1
  O  O24  1  0.66853800  0.31610800  0.28804600  1
  O  O25  1  0.33146200  0.68389200  0.71195400  1
  O  O26  1  0.24936800  0.78801900  0.98184800  1
  O  O27  1  0.75063200  0.21198100  0.01815200  1
loop_
_geom_bond_atom_site_label_1
_geom_bond_atom_site_label_2
_geom_bond_distance
_geom_bond_site_symmetry_2
Cr0 O8 1.997158 1_555
Cr0 O14 1.999958 1_555
Cr0 O18 2.009919 1_555
Cr0 O16 2.016752 1_555
Cr0 O0 2.023044 1_555
Cr0 O20 2.028058 1_555
Cr1 O9 1.997158 1_555
Cr1 O15 1.999958 1_555
Cr1 O19 2.009919 1_555
Cr1 O17 2.016752 1_555
Cr1 O1 2.023044 1_555
Cr1 O21 2.028058 1_555
H0 O2 1.016939 1_565
H0 O22 1.642740 1_455
H1 O3 1.016939 1_545
H1 O23 1.642740 1_655
H2 O14 1.005555 1_455
H3 O15 1.005555 1_655
H4 O14 1.017994 1_555
H4 O13 1.545827 1_555
H5 O15 1.017994 1_555
H5 O12 1.545827 1_555
H6 O16 1.004285 1_455
H7 O17 1.004285 1_655
H8 O16 1.009783 1_455
H8 O4 1.608324 1_555
H9 O17 1.009783 1_655
H9 O5 1.608324 1_555
H10 O18 1.014857 1_555
H10 O12 1.586225 1_655
H11 O19 1.014857 1_555
H11 O13 1.586225 1_455
H12 O18 0.998419 1_555
H13 O19 0.998419 1_555
H14 O20 1.009695 1_555
H14 O5 1.654063 1_556
H15 O21 1.009695 1_555
H15 O4 1.654063 1_554
H16 O20 1.003962 1_555
H17 O21 1.003962 1_555
H18 O22 0.990260 1_545
H19 O23 0.990260 1_565
H20 O22 1.011674 1_555
H21 O23 1.011674 1_555
H22 O24 0.989775 1_555
H23 O25 0.989775 1_555
H24 O24 0.982966 1_555
H25 O25 0.982966 1_555
H26 O26 0.989244 1_554
H27 O27 0.989244 1_556
H28 O26 0.990607 1_555
H29 O27 0.990607 1_555
O0 P0 1.536169 1_555
O1 P1 1.536169 1_555
O2 P0 1.574000 1_555
O3 P1 1.574000 1_555
O4 P0 1.510150 1_555
O5 P1 1.510150 1_555
O6 P0 1.610975 1_555
O6 P2 1.647402 1_555
O7 P1 1.610975 1_555
O7 P3 1.647402 1_555
O8 P2 1.546557 1_555
O9 P3 1.546557 1_555
O10 P2 1.528546 1_555
O11 P3 1.528546 1_555
O12 P2 1.521248 1_555
O13 P3 1.521248 1_555
