# generated using pymatgen
data_AlFeN2
_symmetry_space_group_name_H-M   'P 1'
_cell_length_a   5.11199200
_cell_length_b   10.59897500
_cell_length_c   12.80555400
_cell_angle_alpha   90.00000000
_cell_angle_beta   90.00000000
_cell_angle_gamma   90.00000000
_symmetry_Int_Tables_number   1
_chemical_formula_structural   AlFeN2
_chemical_formula_sum   'Al16 Fe16 N32'
_cell_volume   693.82893136
_cell_formula_units_Z   16
loop_
 _symmetry_equiv_pos_site_id
 _symmetry_equiv_pos_as_xyz
  1  'x, y, z'
loop_
 _atom_site_type_symbol
 _atom_site_label
 _atom_site_symmetry_multiplicity
 _atom_site_fract_x
 _atom_site_fract_y
 _atom_site_fract_z
 _atom_site_occupancy
  Al  Al0  1  0.62171900  0.04130600  0.18420300  1
  Al  Al1  1  0.12171900  0.45869400  0.81579700  1
  Al  Al2  1  0.37828100  0.54130600  0.31579700  1
  Al  Al3  1  0.87828100  0.95869400  0.68420300  1
  Al  Al4  1  0.37828100  0.95869400  0.81579700  1
  Al  Al5  1  0.87828100  0.54130600  0.18420300  1
  Al  Al6  1  0.62171900  0.45869400  0.68420300  1
  Al  Al7  1  0.12171900  0.04130600  0.31579700  1
  Al  Al8  1  0.80502500  0.29340500  0.06405200  1
  Al  Al9  1  0.30502500  0.20659500  0.93594800  1
  Al  Al10  1  0.19497500  0.79340500  0.43594800  1
  Al  Al11  1  0.69497500  0.70659500  0.56405200  1
  Al  Al12  1  0.19497500  0.70659500  0.93594800  1
  Al  Al13  1  0.69497500  0.79340500  0.06405200  1
  Al  Al14  1  0.80502500  0.20659500  0.56405200  1
  Al  Al15  1  0.30502500  0.29340500  0.43594800  1
  Fe  Fe0  1  0.65453200  0.95252500  0.44020500  1
  Fe  Fe1  1  0.15453200  0.54747500  0.55979500  1
  Fe  Fe2  1  0.34546800  0.45252500  0.05979500  1
  Fe  Fe3  1  0.84546800  0.04747500  0.94020500  1
  Fe  Fe4  1  0.34546800  0.04747500  0.55979500  1
  Fe  Fe5  1  0.84546800  0.45252500  0.44020500  1
  Fe  Fe6  1  0.65453200  0.54747500  0.94020500  1
  Fe  Fe7  1  0.15453200  0.95252500  0.05979500  1
  Fe  Fe8  1  0.78986100  0.29413100  0.30458400  1
  Fe  Fe9  1  0.28986100  0.20586900  0.69541600  1
  Fe  Fe10  1  0.21013900  0.79413100  0.19541600  1
  Fe  Fe11  1  0.71013900  0.70586900  0.80458400  1
  Fe  Fe12  1  0.21013900  0.70586900  0.69541600  1
  Fe  Fe13  1  0.71013900  0.79413100  0.30458400  1
  Fe  Fe14  1  0.78986100  0.20586900  0.80458400  1
  Fe  Fe15  1  0.28986100  0.29413100  0.19541600  1
  N  N0  1  0.72016200  0.47533600  0.30564100  1
  N  N1  1  0.22016200  0.02466400  0.69435900  1
  N  N2  1  0.27983800  0.97533600  0.19435900  1
  N  N3  1  0.77983800  0.52466400  0.80564100  1
  N  N4  1  0.27983800  0.52466400  0.69435900  1
  N  N5  1  0.77983800  0.97533600  0.30564100  1
  N  N6  1  0.72016200  0.02466400  0.80564100  1
  N  N7  1  0.22016200  0.47533600  0.19435900  1
  N  N8  1  0.67543500  0.29118400  0.44560600  1
  N  N9  1  0.17543500  0.20881600  0.55439400  1
  N  N10  1  0.32456500  0.79118400  0.05439400  1
  N  N11  1  0.82456500  0.70881600  0.94560600  1
  N  N12  1  0.32456500  0.70881600  0.55439400  1
  N  N13  1  0.82456500  0.79118400  0.44560600  1
  N  N14  1  0.67543500  0.20881600  0.94560600  1
  N  N15  1  0.17543500  0.29118400  0.05439400  1
  N  N16  1  0.70971400  0.46767000  0.06765500  1
  N  N17  1  0.20971400  0.03233000  0.93234500  1
  N  N18  1  0.29028600  0.96767000  0.43234500  1
  N  N19  1  0.79028600  0.53233000  0.56765500  1
  N  N20  1  0.29028600  0.53233000  0.93234500  1
  N  N21  1  0.79028600  0.96767000  0.06765500  1
  N  N22  1  0.70971400  0.03233000  0.56765500  1
  N  N23  1  0.20971400  0.46767000  0.43234500  1
  N  N24  1  0.64314900  0.21769700  0.18179300  1
  N  N25  1  0.14314900  0.28230300  0.81820700  1
  N  N26  1  0.35685100  0.71769700  0.31820700  1
  N  N27  1  0.85685100  0.78230300  0.68179300  1
  N  N28  1  0.35685100  0.78230300  0.81820700  1
  N  N29  1  0.85685100  0.71769700  0.18179300  1
  N  N30  1  0.64314900  0.28230300  0.68179300  1
  N  N31  1  0.14314900  0.21769700  0.31820700  1
loop_
_geom_bond_atom_site_label_1
_geom_bond_atom_site_label_2
_geom_bond_distance
_geom_bond_site_symmetry_2
Al0 N24 1.873025 1_555
Al0 N2 1.886861 1_545
Al0 N5 1.886937 1_545
Al0 N21 1.891856 1_545
Al1 N25 1.873025 1_555
Al1 N3 1.886861 1_455
Al1 N4 1.886937 1_555
Al1 N20 1.891856 1_555
Al2 N26 1.873025 1_555
Al2 N0 1.886861 1_555
Al2 N7 1.886937 1_555
Al2 N23 1.891856 1_555
Al3 N27 1.873025 1_555
Al3 N1 1.886861 1_665
Al3 N6 1.886937 1_565
Al3 N22 1.891856 1_565
Al4 N28 1.873025 1_555
Al4 N6 1.886861 1_565
Al4 N1 1.886937 1_565
Al4 N17 1.891856 1_565
Al5 N29 1.873025 1_555
Al5 N7 1.886861 1_655
Al5 N0 1.886937 1_555
Al5 N16 1.891856 1_555
Al6 N30 1.873025 1_555
Al6 N4 1.886861 1_555
Al6 N3 1.886937 1_555
Al6 N19 1.891856 1_555
Al7 N31 1.873025 1_555
Al7 N5 1.886861 1_445
Al7 N2 1.886937 1_545
Al7 N18 1.891856 1_545
Al8 N14 1.882353 1_554
Al8 N15 1.897714 1_655
Al8 N24 1.897877 1_555
Al8 N16 1.910770 1_555
Al9 N15 1.882353 1_556
Al9 N14 1.897714 1_555
Al9 N25 1.897877 1_555
Al9 N17 1.910770 1_555
Al10 N12 1.882353 1_555
Al10 N13 1.897714 1_455
Al10 N26 1.897877 1_555
Al10 N18 1.910770 1_555
Al11 N13 1.882353 1_555
Al11 N12 1.897714 1_555
Al11 N27 1.897877 1_555
Al11 N19 1.910770 1_555
Al12 N10 1.882353 1_556
Al12 N11 1.897714 1_455
Al12 N28 1.897877 1_555
Al12 N20 1.910770 1_555
Al13 N11 1.882353 1_554
Al13 N10 1.897714 1_555
Al13 N29 1.897877 1_555
Al13 N21 1.910770 1_555
Al14 N8 1.882353 1_555
Al14 N9 1.897714 1_655
Al14 N30 1.897877 1_555
Al14 N22 1.910770 1_555
Al15 N9 1.882353 1_555
Al15 N8 1.897714 1_555
Al15 N31 1.897877 1_555
Al15 N23 1.910770 1_555
Fe0 N5 1.854206 1_555
Fe0 N22 1.859754 1_565
Fe0 N18 1.871637 1_555
Fe0 N13 1.919524 1_555
Fe1 N4 1.854206 1_555
Fe1 N23 1.859754 1_555
Fe1 N19 1.871637 1_455
Fe1 N12 1.919524 1_555
Fe2 N7 1.854206 1_555
Fe2 N20 1.859754 1_554
Fe2 N16 1.871637 1_555
Fe2 N15 1.919524 1_555
Fe3 N6 1.854206 1_555
Fe3 N21 1.859754 1_546
Fe3 N17 1.871637 1_655
Fe3 N14 1.919524 1_555
Fe4 N1 1.854206 1_555
Fe4 N18 1.859754 1_545
Fe4 N22 1.871637 1_555
Fe4 N9 1.919524 1_555
Fe5 N0 1.854206 1_555
Fe5 N19 1.859754 1_555
Fe5 N23 1.871637 1_655
Fe5 N8 1.919524 1_555
Fe6 N3 1.854206 1_555
Fe6 N16 1.859754 1_556
Fe6 N20 1.871637 1_555
Fe6 N11 1.919524 1_555
Fe7 N2 1.854206 1_555
Fe7 N17 1.859754 1_564
Fe7 N21 1.871637 1_455
Fe7 N10 1.919524 1_555
Fe8 N8 1.898495 1_555
Fe8 N24 1.921262 1_555
Fe8 N0 1.953404 1_555
Fe8 N31 1.987055 1_655
Fe9 N9 1.898495 1_555
Fe9 N25 1.921262 1_555
Fe9 N1 1.953404 1_555
Fe9 N30 1.987055 1_555
Fe10 N10 1.898495 1_555
Fe10 N26 1.921262 1_555
Fe10 N2 1.953404 1_555
Fe10 N29 1.987055 1_455
Fe11 N11 1.898495 1_555
Fe11 N27 1.921262 1_555
Fe11 N3 1.953404 1_555
Fe11 N28 1.987055 1_555
Fe12 N12 1.898495 1_555
Fe12 N28 1.921262 1_555
Fe12 N4 1.953404 1_555
Fe12 N27 1.987055 1_455
Fe13 N13 1.898495 1_555
Fe13 N29 1.921262 1_555
Fe13 N5 1.953404 1_555
Fe13 N26 1.987055 1_555
Fe14 N14 1.898495 1_555
Fe14 N30 1.921262 1_555
Fe14 N6 1.953404 1_555
Fe14 N25 1.987055 1_655
Fe15 N15 1.898495 1_555
Fe15 N31 1.921262 1_555
Fe15 N7 1.953404 1_555
Fe15 N24 1.987055 1_555
