# generated using pymatgen
data_LaYS3
_symmetry_space_group_name_H-M   'P 1'
_cell_length_a   4.02574354
_cell_length_b   11.13395924
_cell_length_c   21.76026455
_cell_angle_alpha   78.71040024
_cell_angle_beta   90.00000000
_cell_angle_gamma   90.00000000
_symmetry_Int_Tables_number   1
_chemical_formula_structural   LaYS3
_chemical_formula_sum   'La8 Y8 S24'
_cell_volume   956.47589339
_cell_formula_units_Z   8
loop_
 _symmetry_equiv_pos_site_id
 _symmetry_equiv_pos_as_xyz
  1  'x, y, z'
loop_
 _atom_site_type_symbol
 _atom_site_label
 _atom_site_symmetry_multiplicity
 _atom_site_fract_x
 _atom_site_fract_y
 _atom_site_fract_z
 _atom_site_occupancy
  La  La0  1  0.25000000  0.30196102  0.76644823  1
  La  La1  1  0.75000000  0.69803898  0.23355177  1
  La  La2  1  0.25000000  0.90845386  0.86397155  1
  La  La3  1  0.75000000  0.09154614  0.13602845  1
  La  La4  1  0.25000000  0.69079009  0.73317782  1
  La  La5  1  0.75000000  0.30920991  0.26682218  1
  La  La6  1  0.25000000  0.80006191  0.53685747  1
  La  La7  1  0.75000000  0.19993809  0.46314253  1
  Y  Y0  1  0.25000000  0.55313436  0.41651559  1
  Y  Y1  1  0.75000000  0.44686564  0.58348441  1
  Y  Y2  1  0.25000000  0.97043162  0.35036564  1
  Y  Y3  1  0.75000000  0.02956838  0.64963436  1
  Y  Y4  1  0.25000000  0.82025833  0.04639593  1
  Y  Y5  1  0.75000000  0.17974167  0.95360407  1
  Y  Y6  1  0.25000000  0.47731822  0.08755443  1
  Y  Y7  1  0.75000000  0.52268178  0.91244557  1
  S  S0  1  0.25000000  0.08622818  0.03639015  1
  S  S1  1  0.75000000  0.91377182  0.96360985  1
  S  S2  1  0.25000000  0.20536238  0.36505456  1
  S  S3  1  0.75000000  0.79463762  0.63494544  1
  S  S4  1  0.25000000  0.74538676  0.32361556  1
  S  S5  1  0.75000000  0.25461324  0.67638444  1
  S  S6  1  0.25000000  0.63627124  0.96446454  1
  S  S7  1  0.75000000  0.36372876  0.03553546  1
  S  S8  1  0.25000000  0.50659427  0.22047937  1
  S  S9  1  0.75000000  0.49340573  0.77952063  1
  S  S10  1  0.25000000  0.25193026  0.17326181  1
  S  S11  1  0.75000000  0.74806974  0.82673819  1
  S  S12  1  0.25000000  0.87537733  0.16334902  1
  S  S13  1  0.75000000  0.12462267  0.83665098  1
  S  S14  1  0.25000000  0.35612012  0.51364859  1
  S  S15  1  0.75000000  0.64387988  0.48635141  1
  S  S16  1  0.25000000  0.05773609  0.55632210  1
  S  S17  1  0.75000000  0.94226391  0.44367790  1
  S  S18  1  0.25000000  0.96231180  0.72963969  1
  S  S19  1  0.75000000  0.03768820  0.27036031  1
  S  S20  1  0.25000000  0.54664782  0.63419685  1
  S  S21  1  0.75000000  0.45335218  0.36580315  1
  S  S22  1  0.25000000  0.34236750  0.90132756  1
  S  S23  1  0.75000000  0.65763250  0.09867244  1
loop_
_geom_bond_atom_site_label_1
_geom_bond_atom_site_label_2
_geom_bond_distance
_geom_bond_site_symmetry_2
La0 S5 2.928299 1_455
La0 S5 2.928299 1_555
La0 S9 2.985536 1_455
La0 S9 2.985536 1_555
La0 S13 3.017100 1_555
La0 S13 3.017100 1_455
La0 S22 3.055105 1_555
La0 S20 3.554457 1_555
La1 S4 2.928299 1_555
La1 S4 2.928299 1_655
La1 S8 2.985536 1_655
La1 S8 2.985536 1_555
La1 S12 3.017100 1_555
La1 S12 3.017100 1_655
La1 S23 3.055105 1_555
La1 S21 3.554457 1_555
La2 S18 2.866666 1_555
La2 S11 2.909179 1_555
La2 S11 2.909179 1_455
La2 S1 2.967545 1_455
La2 S1 2.967545 1_555
La2 S13 3.104450 1_565
La2 S13 3.104450 1_465
La2 S6 3.372087 1_555
La3 S19 2.866666 1_555
La3 S10 2.909179 1_555
La3 S10 2.909179 1_655
La3 S0 2.967545 1_555
La3 S0 2.967545 1_655
La3 S12 3.104450 1_545
La3 S12 3.104450 1_645
La3 S7 3.372087 1_555
La4 S20 2.927133 1_555
La4 S3 2.998335 1_555
La4 S3 2.998335 1_455
La4 S9 3.005098 1_455
La4 S9 3.005098 1_555
La4 S18 3.008987 1_555
La4 S11 3.018547 1_555
La4 S11 3.018547 1_455
La5 S21 2.927133 1_555
La5 S2 2.998335 1_655
La5 S2 2.998335 1_555
La5 S8 3.005098 1_655
La5 S8 3.005098 1_555
La5 S19 3.008987 1_555
La5 S10 3.018547 1_555
La5 S10 3.018547 1_655
La6 S3 2.925847 1_455
La6 S3 2.925847 1_555
La6 S16 2.980932 1_565
La6 S15 3.005269 1_555
La6 S15 3.005269 1_455
La6 S17 3.068009 1_555
La6 S17 3.068009 1_455
La6 S20 3.179215 1_555
La7 S2 2.925847 1_555
La7 S2 2.925847 1_655
La7 S17 2.980932 1_545
La7 S14 3.005269 1_555
La7 S14 3.005269 1_655
La7 S16 3.068009 1_555
La7 S16 3.068009 1_655
La7 S21 3.179215 1_555
S0 Y5 2.765237 1_454
S0 Y5 2.765237 1_554
S0 Y4 2.926473 1_545
S1 Y4 2.765237 1_556
S1 Y4 2.765237 1_656
S1 Y5 2.926473 1_565
S2 Y2 2.696564 1_545
S3 Y3 2.696564 1_565
S4 Y0 2.640874 1_555
S4 Y2 2.681067 1_555
S5 Y1 2.640874 1_555
S5 Y3 2.681067 1_555
S6 Y7 2.737323 1_555
S6 Y7 2.737323 1_455
S6 Y6 2.906941 1_556
S6 Y4 2.967302 1_556
S7 Y6 2.737323 1_655
S7 Y6 2.737323 1_555
S7 Y7 2.906941 1_554
S7 Y5 2.967302 1_554
S8 Y6 2.973525 1_555
S9 Y7 2.973525 1_555
S10 Y6 2.818370 1_555
S11 Y7 2.818370 1_555
S12 Y4 2.732177 1_555
S13 Y5 2.732177 1_555
S14 Y0 2.731999 1_555
S14 Y1 2.825413 1_555
S14 Y1 2.825413 1_455
S15 Y1 2.731999 1_555
S15 Y0 2.825413 1_555
S15 Y0 2.825413 1_655
S16 Y3 2.832597 1_555
S16 Y3 2.832597 1_455
S17 Y2 2.832597 1_655
S17 Y2 2.832597 1_555
S18 Y3 2.670736 1_565
S18 Y3 2.670736 1_465
S19 Y2 2.670736 1_645
S19 Y2 2.670736 1_545
S20 Y1 2.642663 1_455
S20 Y1 2.642663 1_555
S21 Y0 2.642663 1_655
S21 Y0 2.642663 1_555
S22 Y5 2.796022 1_555
S22 Y5 2.796022 1_455
S22 Y7 2.886323 1_555
S22 Y7 2.886323 1_455
S23 Y4 2.796022 1_655
S23 Y4 2.796022 1_555
S23 Y6 2.886323 1_555
S23 Y6 2.886323 1_655
