# generated using pymatgen
data_Sb(Mo3S4)2
_symmetry_space_group_name_H-M   'P 1'
_cell_length_a   6.54880137
_cell_length_b   6.54880137
_cell_length_c   6.54880129
_cell_angle_alpha   90.28538918
_cell_angle_beta   90.28538918
_cell_angle_gamma   90.28538406
_symmetry_Int_Tables_number   1
_chemical_formula_structural   Sb(Mo3S4)2
_chemical_formula_sum   'Sb1 Mo6 S8'
_cell_volume   280.84664069
_cell_formula_units_Z   1
loop_
 _symmetry_equiv_pos_site_id
 _symmetry_equiv_pos_as_xyz
  1  'x, y, z'
loop_
 _atom_site_type_symbol
 _atom_site_label
 _atom_site_symmetry_multiplicity
 _atom_site_fract_x
 _atom_site_fract_y
 _atom_site_fract_z
 _atom_site_occupancy
  Sb  Sb0  1  0.00000000  0.00000000  0.00000000  1
  Mo  Mo0  1  0.77624000  0.58529200  0.43985800  1
  Mo  Mo1  1  0.43985800  0.77624000  0.58529200  1
  Mo  Mo2  1  0.58529200  0.43985800  0.77624000  1
  Mo  Mo3  1  0.22376000  0.41470800  0.56014200  1
  Mo  Mo4  1  0.56014200  0.22376000  0.41470800  1
  Mo  Mo5  1  0.41470800  0.56014200  0.22376000  1
  S  S0  1  0.76278300  0.76278300  0.76278300  1
  S  S1  1  0.23721700  0.23721700  0.23721700  1
  S  S2  1  0.25885100  0.62591000  0.87260700  1
  S  S3  1  0.87260700  0.25885100  0.62591000  1
  S  S4  1  0.62591000  0.87260700  0.25885100  1
  S  S5  1  0.74114900  0.37409000  0.12739300  1
  S  S6  1  0.12739300  0.74114900  0.37409000  1
  S  S7  1  0.37409000  0.12739300  0.74114900  1
loop_
_geom_bond_atom_site_label_1
_geom_bond_atom_site_label_2
_geom_bond_distance
_geom_bond_site_symmetry_2
Mo0 S0 2.410286 1_555
Mo0 S4 2.437965 1_555
Mo0 S5 2.473259 1_555
Mo0 S3 2.546511 1_555
Mo0 S6 2.550775 1_655
Mo1 S0 2.410286 1_555
Mo1 S2 2.437965 1_555
Mo1 S6 2.473259 1_555
Mo1 S4 2.546511 1_555
Mo1 S7 2.550775 1_565
Mo2 S0 2.410286 1_555
Mo2 S3 2.437965 1_555
Mo2 S7 2.473259 1_555
Mo2 S2 2.546511 1_555
Mo2 S5 2.550775 1_556
Mo3 S1 2.410286 1_555
Mo3 S7 2.437965 1_555
Mo3 S2 2.473259 1_555
Mo3 S6 2.546511 1_555
Mo3 S3 2.550775 1_455
Mo4 S1 2.410286 1_555
Mo4 S5 2.437965 1_555
Mo4 S3 2.473259 1_555
Mo4 S7 2.546511 1_555
Mo4 S4 2.550775 1_545
Mo5 S1 2.410286 1_555
Mo5 S6 2.437965 1_555
Mo5 S4 2.473259 1_555
Mo5 S5 2.546511 1_555
Mo5 S2 2.550775 1_554
S0 Sb0 2.677283 1_666
S1 Sb0 2.677283 1_555
S2 Sb0 3.099421 1_566
S3 Sb0 3.099421 1_656
S4 Sb0 3.099421 1_665
S5 Sb0 3.099421 1_655
S6 Sb0 3.099421 1_565
S7 Sb0 3.099421 1_556
