# generated using pymatgen
data_Sr3YRhO6
_symmetry_space_group_name_H-M   'P 1'
_cell_length_a   6.86380976
_cell_length_b   6.86380976
_cell_length_c   6.86381026
_cell_angle_alpha   92.05698322
_cell_angle_beta   92.05698322
_cell_angle_gamma   92.05698496
_symmetry_Int_Tables_number   1
_chemical_formula_structural   Sr3YRhO6
_chemical_formula_sum   'Sr6 Y2 Rh2 O12'
_cell_volume   322.72653871
_cell_formula_units_Z   2
loop_
 _symmetry_equiv_pos_site_id
 _symmetry_equiv_pos_as_xyz
  1  'x, y, z'
loop_
 _atom_site_type_symbol
 _atom_site_label
 _atom_site_symmetry_multiplicity
 _atom_site_fract_x
 _atom_site_fract_y
 _atom_site_fract_z
 _atom_site_occupancy
  Sr  Sr0  1  0.25000000  0.88126400  0.61873600  1
  Sr  Sr1  1  0.88126400  0.61873600  0.25000000  1
  Sr  Sr2  1  0.75000000  0.11873600  0.38126400  1
  Sr  Sr3  1  0.38126400  0.75000000  0.11873600  1
  Sr  Sr4  1  0.11873600  0.38126400  0.75000000  1
  Sr  Sr5  1  0.61873600  0.25000000  0.88126400  1
  Y  Y0  1  0.75000000  0.75000000  0.75000000  1
  Y  Y1  1  0.25000000  0.25000000  0.25000000  1
  Rh  Rh0  1  0.50000000  0.50000000  0.50000000  1
  Rh  Rh1  1  0.00000000  0.00000000  0.00000000  1
  O  O0  1  0.59028700  0.79196600  0.45594100  1
  O  O1  1  0.45594100  0.59028700  0.79196600  1
  O  O2  1  0.79196600  0.45594100  0.59028700  1
  O  O3  1  0.90971300  0.04405900  0.70803400  1
  O  O4  1  0.70803400  0.90971300  0.04405900  1
  O  O5  1  0.04405900  0.70803400  0.90971300  1
  O  O6  1  0.40971300  0.20803400  0.54405900  1
  O  O7  1  0.54405900  0.40971300  0.20803400  1
  O  O8  1  0.20803400  0.54405900  0.40971300  1
  O  O9  1  0.09028700  0.95594100  0.29196600  1
  O  O10  1  0.95594100  0.29196600  0.09028700  1
  O  O11  1  0.29196600  0.09028700  0.95594100  1
loop_
_geom_bond_atom_site_label_1
_geom_bond_atom_site_label_2
_geom_bond_distance
_geom_bond_site_symmetry_2
O0 Rh0 2.111709 1_555
O0 Y0 2.294358 1_555
O0 Sr2 2.537986 1_565
O0 Sr3 2.679996 1_555
O0 Sr0 2.705649 1_555
O0 Sr1 2.766441 1_555
O1 Rh0 2.111709 1_555
O1 Y0 2.294358 1_555
O1 Sr3 2.537986 1_556
O1 Sr4 2.679996 1_555
O1 Sr5 2.705649 1_555
O1 Sr0 2.766441 1_555
O2 Rh0 2.111709 1_555
O2 Y0 2.294358 1_555
O2 Sr4 2.537986 1_655
O2 Sr2 2.679996 1_555
O2 Sr1 2.705649 1_555
O2 Sr5 2.766441 1_555
O3 Rh1 2.111709 1_656
O3 Y0 2.294358 1_545
O3 Sr2 2.537986 1_555
O3 Sr4 2.679996 1_655
O3 Sr0 2.705649 1_645
O3 Sr5 2.766441 1_555
O4 Rh1 2.111709 1_665
O4 Y0 2.294358 1_554
O4 Sr3 2.537986 1_555
O4 Sr2 2.679996 1_565
O4 Sr5 2.705649 1_564
O4 Sr1 2.766441 1_555
O5 Rh1 2.111709 1_566
O5 Y0 2.294358 1_455
O5 Sr4 2.537986 1_555
O5 Sr3 2.679996 1_556
O5 Sr1 2.705649 1_456
O5 Sr0 2.766441 1_555
O6 Rh0 2.111709 1_555
O6 Y1 2.294358 1_555
O6 Sr0 2.537986 1_545
O6 Sr5 2.679996 1_555
O6 Sr2 2.705649 1_555
O6 Sr4 2.766441 1_555
O7 Rh0 2.111709 1_555
O7 Y1 2.294358 1_555
O7 Sr5 2.537986 1_554
O7 Sr1 2.679996 1_555
O7 Sr3 2.705649 1_555
O7 Sr2 2.766441 1_555
O8 Rh0 2.111709 1_555
O8 Y1 2.294358 1_555
O8 Sr1 2.537986 1_455
O8 Sr0 2.679996 1_555
O8 Sr4 2.705649 1_555
O8 Sr3 2.766441 1_555
O9 Rh1 2.111709 1_565
O9 Y1 2.294358 1_565
O9 Sr0 2.537986 1_555
O9 Sr1 2.679996 1_455
O9 Sr2 2.705649 1_465
O9 Sr3 2.766441 1_555
O10 Rh1 2.111709 1_655
O10 Y1 2.294358 1_655
O10 Sr1 2.537986 1_555
O10 Sr5 2.679996 1_554
O10 Sr4 2.705649 1_654
O10 Sr2 2.766441 1_555
O11 Rh1 2.111709 1_556
O11 Y1 2.294358 1_556
O11 Sr5 2.537986 1_555
O11 Sr0 2.679996 1_545
O11 Sr3 2.705649 1_546
O11 Sr4 2.766441 1_555
