# generated using pymatgen
data_TlPHO3
_symmetry_space_group_name_H-M   'P 1'
_cell_length_a   5.75847094
_cell_length_b   8.01708281
_cell_length_c   8.44698000
_cell_angle_alpha   90.00000000
_cell_angle_beta   90.00000000
_cell_angle_gamma   94.79219130
_symmetry_Int_Tables_number   1
_chemical_formula_structural   TlPHO3
_chemical_formula_sum   'Tl4 P4 H4 O12'
_cell_volume   388.60123125
_cell_formula_units_Z   4
loop_
 _symmetry_equiv_pos_site_id
 _symmetry_equiv_pos_as_xyz
  1  'x, y, z'
loop_
 _atom_site_type_symbol
 _atom_site_label
 _atom_site_symmetry_multiplicity
 _atom_site_fract_x
 _atom_site_fract_y
 _atom_site_fract_z
 _atom_site_occupancy
  Tl  Tl0  1  0.95849000  0.40683400  0.74357500  1
  Tl  Tl1  1  0.04151000  0.09316600  0.24357500  1
  Tl  Tl2  1  0.04151000  0.59316600  0.25642500  1
  Tl  Tl3  1  0.95849000  0.90683400  0.75642500  1
  P  P0  1  0.52121500  0.37460000  0.04936200  1
  P  P1  1  0.47878500  0.12540000  0.54936200  1
  P  P2  1  0.47878500  0.62540000  0.95063800  1
  P  P3  1  0.52121500  0.87460000  0.45063800  1
  H  H0  1  0.44045500  0.19337200  0.85417400  1
  H  H1  1  0.55954500  0.30662800  0.35417400  1
  H  H2  1  0.55954500  0.80662800  0.14582600  1
  H  H3  1  0.44045500  0.69337200  0.64582600  1
  O  O0  1  0.77569300  0.33834300  0.03287000  1
  O  O1  1  0.22430700  0.16165700  0.53287000  1
  O  O2  1  0.22430700  0.66165700  0.96713000  1
  O  O3  1  0.77569300  0.83834300  0.46713000  1
  O  O4  1  0.41817300  0.37206700  0.21682700  1
  O  O5  1  0.58182700  0.12793300  0.71682700  1
  O  O6  1  0.58182700  0.62793300  0.78317300  1
  O  O7  1  0.41817300  0.87206700  0.28317300  1
  O  O8  1  0.35325800  0.24836300  0.94483000  1
  O  O9  1  0.64674200  0.25163700  0.44483000  1
  O  O10  1  0.64674200  0.75163700  0.05517000  1
  O  O11  1  0.35325800  0.74836300  0.55517000  1
loop_
_geom_bond_atom_site_label_1
_geom_bond_atom_site_label_2
_geom_bond_distance
_geom_bond_site_symmetry_2
H0 O8 1.034350 1_555
H0 O5 1.534706 1_555
H1 O9 1.034350 1_555
H1 O4 1.534706 1_555
H2 O10 1.034350 1_555
H2 O7 1.534706 1_555
H3 O11 1.034350 1_555
H3 O6 1.534706 1_555
O0 P0 1.523968 1_555
O0 Tl0 2.698979 1_554
O1 P1 1.523968 1_555
O1 Tl1 2.698979 1_555
O2 P2 1.523968 1_555
O2 Tl2 2.698979 1_556
O3 P3 1.523968 1_555
O3 Tl3 2.698979 1_555
O4 P0 1.533460 1_555
O5 P1 1.533460 1_555
O6 P2 1.533460 1_555
O7 P3 1.533460 1_555
O8 P0 1.604925 1_556
O9 P1 1.604925 1_555
O10 P2 1.604925 1_554
O11 P3 1.604925 1_555
