# generated using pymatgen
data_K8La(PS4)4
_symmetry_space_group_name_H-M   'P 1'
_cell_length_a   11.34517914
_cell_length_b   11.34517914
_cell_length_c   11.34517914
_cell_angle_alpha   133.52387360
_cell_angle_beta   128.56033812
_cell_angle_gamma   71.82048739
_symmetry_Int_Tables_number   1
_chemical_formula_structural   K8La(PS4)4
_chemical_formula_sum   'K8 La1 P4 S16'
_cell_volume   810.04763589
_cell_formula_units_Z   1
loop_
 _symmetry_equiv_pos_site_id
 _symmetry_equiv_pos_as_xyz
  1  'x, y, z'
loop_
 _atom_site_type_symbol
 _atom_site_label
 _atom_site_symmetry_multiplicity
 _atom_site_fract_x
 _atom_site_fract_y
 _atom_site_fract_z
 _atom_site_occupancy
  K  K0  1  0.25512100  0.75512100  0.50000000  1
  K  K1  1  0.74487900  0.24487900  0.50000000  1
  K  K2  1  0.23423900  0.23423900  0.00000000  1
  K  K3  1  0.76576100  0.76576100  0.00000000  1
  K  K4  1  0.32211400  0.71190000  0.87416900  1
  K  K5  1  0.16226900  0.28810000  0.61021400  1
  K  K6  1  0.67788600  0.55205500  0.38978600  1
  K  K7  1  0.83773100  0.44794500  0.12583100  1
  La  La0  1  0.50000000  0.00000000  0.50000000  1
  P  P0  1  0.61872400  0.08016300  0.95192700  1
  P  P1  1  0.87176300  0.91983700  0.53856100  1
  P  P2  1  0.38127600  0.33320300  0.46143900  1
  P  P3  1  0.12823700  0.66679700  0.04807300  1
  S  S0  1  0.50203900  0.21910900  0.87118100  1
  S  S1  1  0.65207200  0.78089100  0.28293000  1
  S  S2  1  0.49796100  0.36914200  0.71707000  1
  S  S3  1  0.34792800  0.63085800  0.12881900  1
  S  S4  1  0.99777000  0.77795900  0.60778000  1
  S  S5  1  0.82982100  0.22204100  0.21981100  1
  S  S6  1  0.00223000  0.61001000  0.78018900  1
  S  S7  1  0.17017900  0.38999000  0.39222000  1
  S  S8  1  0.50835200  0.01139900  0.99233700  1
  S  S9  1  0.98093900  0.98860100  0.49695400  1
  S  S10  1  0.49164800  0.48398500  0.50304600  1
  S  S11  1  0.01906100  0.51601500  0.00766300  1
  S  S12  1  0.15939100  0.91219800  0.28444900  1
  S  S13  1  0.37225100  0.08780200  0.24719300  1
  S  S14  1  0.84060900  0.12505800  0.75280700  1
  S  S15  1  0.62775000  0.87494200  0.71555100  1
loop_
_geom_bond_atom_site_label_1
_geom_bond_atom_site_label_2
_geom_bond_distance
_geom_bond_site_symmetry_2
K0 S8 3.278018 1_565
K0 S11 3.278018 1_555
K0 S9 3.397704 1_455
K0 S10 3.397710 1_555
K0 S12 3.437891 1_555
K0 S15 3.437902 1_555
K0 S4 3.691796 1_455
K0 S7 3.691796 1_555
K1 S10 3.278018 1_555
K1 S9 3.278025 1_545
K1 S11 3.397710 1_656
K1 S8 3.397712 1_554
K1 S13 3.437891 1_555
K1 S14 3.437891 1_555
K1 S6 3.691796 1_655
K1 S5 3.691796 1_555
K2 S8 3.346456 1_554
K2 S11 3.346461 1_555
K2 S9 3.352777 1_444
K2 S10 3.352778 1_555
K2 S14 3.520841 1_454
K2 S13 3.520841 1_555
K3 S10 3.346461 1_554
K3 S9 3.346463 1_555
K3 S11 3.352778 1_655
K3 S8 3.352784 1_564
K3 S12 3.520841 1_655
K3 S15 3.520844 1_554
K4 S13 3.174213 1_566
K4 S4 3.281848 1_455
K4 S7 3.298582 1_555
K4 S1 3.364311 1_556
K4 S3 3.422493 1_556
K4 S6 3.426360 1_555
K4 S2 3.510620 1_555
K4 S8 3.532927 1_565
K5 S12 3.174213 1_545
K5 S5 3.281848 1_455
K5 S6 3.298582 1_555
K5 S0 3.364311 1_555
K5 S2 3.422493 1_555
K5 S7 3.426360 1_555
K5 S3 3.510620 1_556
K5 S9 3.532927 1_445
K6 S15 3.174207 1_555
K6 S6 3.281848 1_655
K6 S5 3.298582 1_555
K6 S3 3.364311 1_555
K6 S1 3.422493 1_555
K6 S4 3.426360 1_555
K6 S0 3.510620 1_554
K6 S10 3.532917 1_555
K7 S14 3.174213 1_554
K7 S7 3.281848 1_655
K7 S4 3.298582 1_555
K7 S2 3.364311 1_554
K7 S0 3.422493 1_554
K7 S5 3.426360 1_555
K7 S1 3.510620 1_555
K7 S11 3.532917 1_655
La0 S15 3.028354 1_545
La0 S13 3.028356 1_555
La0 S12 3.028356 1_545
La0 S14 3.028356 1_555
La0 S1 3.067562 1_545
La0 S0 3.067562 1_555
La0 S3 3.067562 1_545
La0 S2 3.067562 1_555
P0 S5 2.038832 1_556
P0 S8 2.050524 1_555
P0 S15 2.053515 1_545
P0 S0 2.061926 1_555
P1 S4 2.038834 1_555
P1 S9 2.050534 1_555
P1 S14 2.053503 1_565
P1 S1 2.061920 1_555
P2 S7 2.038832 1_555
P2 S10 2.050533 1_555
P2 S13 2.053509 1_555
P2 S2 2.061926 1_555
P3 S6 2.038831 1_554
P3 S11 2.050541 1_555
P3 S12 2.053511 1_555
P3 S3 2.061916 1_555
