# generated using pymatgen
data_Ba2Yb2CuPtO8
_symmetry_space_group_name_H-M   'P 1'
_cell_length_a   5.66444800
_cell_length_b   10.33844500
_cell_length_c   13.31861200
_cell_angle_alpha   90.00000000
_cell_angle_beta   90.00000000
_cell_angle_gamma   90.00000000
_symmetry_Int_Tables_number   1
_chemical_formula_structural   Ba2Yb2CuPtO8
_chemical_formula_sum   'Ba8 Yb8 Cu4 Pt4 O32'
_cell_volume   779.95901678
_cell_formula_units_Z   4
loop_
 _symmetry_equiv_pos_site_id
 _symmetry_equiv_pos_as_xyz
  1  'x, y, z'
loop_
 _atom_site_type_symbol
 _atom_site_label
 _atom_site_symmetry_multiplicity
 _atom_site_fract_x
 _atom_site_fract_y
 _atom_site_fract_z
 _atom_site_occupancy
  Ba  Ba0  1  0.25000000  0.39902900  0.42291900  1
  Ba  Ba1  1  0.75000000  0.60097100  0.57708100  1
  Ba  Ba2  1  0.75000000  0.89902900  0.07708100  1
  Ba  Ba3  1  0.25000000  0.10097100  0.92291900  1
  Ba  Ba4  1  0.25000000  0.68186200  0.20430300  1
  Ba  Ba5  1  0.75000000  0.31813800  0.79569700  1
  Ba  Ba6  1  0.75000000  0.18186200  0.29569700  1
  Ba  Ba7  1  0.25000000  0.81813800  0.70430300  1
  Yb  Yb0  1  0.25000000  0.01699100  0.41870800  1
  Yb  Yb1  1  0.75000000  0.98300900  0.58129200  1
  Yb  Yb2  1  0.75000000  0.51699100  0.08129200  1
  Yb  Yb3  1  0.25000000  0.48300900  0.91870800  1
  Yb  Yb4  1  0.25000000  0.31484600  0.13984400  1
  Yb  Yb5  1  0.75000000  0.68515400  0.86015600  1
  Yb  Yb6  1  0.75000000  0.81484600  0.36015600  1
  Yb  Yb7  1  0.25000000  0.18515400  0.63984400  1
  Cu  Cu0  1  0.25000000  0.74119200  0.44984800  1
  Cu  Cu1  1  0.75000000  0.25880800  0.55015200  1
  Cu  Cu2  1  0.75000000  0.24119200  0.05015200  1
  Cu  Cu3  1  0.25000000  0.75880800  0.94984800  1
  Pt  Pt0  1  0.25000000  0.03646000  0.19460000  1
  Pt  Pt1  1  0.75000000  0.96354000  0.80540000  1
  Pt  Pt2  1  0.75000000  0.53646000  0.30540000  1
  Pt  Pt3  1  0.25000000  0.46354000  0.69460000  1
  O  O0  1  0.25000000  0.18527400  0.29262600  1
  O  O1  1  0.75000000  0.81472600  0.70737400  1
  O  O2  1  0.75000000  0.68527400  0.20737400  1
  O  O3  1  0.25000000  0.31472600  0.79262600  1
  O  O4  1  0.51039500  0.44702400  0.22174600  1
  O  O5  1  0.48960500  0.55297600  0.77825400  1
  O  O6  1  0.48960500  0.94702400  0.27825400  1
  O  O7  1  0.01039500  0.55297600  0.77825400  1
  O  O8  1  0.51039500  0.05297600  0.72174600  1
  O  O9  1  0.98960500  0.44702400  0.22174600  1
  O  O10  1  0.98960500  0.05297600  0.72174600  1
  O  O11  1  0.01039500  0.94702400  0.27825400  1
  O  O12  1  0.99671900  0.13652700  0.11016700  1
  O  O13  1  0.00328100  0.86347300  0.88983300  1
  O  O14  1  0.00328100  0.63652700  0.38983300  1
  O  O15  1  0.49671900  0.86347300  0.88983300  1
  O  O16  1  0.99671900  0.36347300  0.61016700  1
  O  O17  1  0.50328100  0.13652700  0.11016700  1
  O  O18  1  0.50328100  0.36347300  0.61016700  1
  O  O19  1  0.49671900  0.63652700  0.38983300  1
  O  O20  1  0.51867500  0.35431500  0.00347600  1
  O  O21  1  0.48132500  0.64568500  0.99652400  1
  O  O22  1  0.48132500  0.85431500  0.49652400  1
  O  O23  1  0.01867500  0.64568500  0.99652400  1
  O  O24  1  0.51867500  0.14568500  0.50347600  1
  O  O25  1  0.98132500  0.35431500  0.00347600  1
  O  O26  1  0.98132500  0.14568500  0.50347600  1
  O  O27  1  0.01867500  0.85431500  0.49652400  1
  O  O28  1  0.25000000  0.60213700  0.59207600  1
  O  O29  1  0.75000000  0.39786300  0.40792400  1
  O  O30  1  0.75000000  0.10213700  0.90792400  1
  O  O31  1  0.25000000  0.89786300  0.09207600  1
loop_
_geom_bond_atom_site_label_1
_geom_bond_atom_site_label_2
_geom_bond_distance
_geom_bond_site_symmetry_2
Ba0 O0 2.809800 1_555
Ba0 O29 2.839282 1_455
Ba0 O29 2.839282 1_555
Ba0 O14 2.859380 1_555
Ba0 O19 2.859380 1_555
Ba0 O16 2.900506 1_455
Ba0 O18 2.900506 1_555
Ba0 O28 3.079768 1_555
Ba0 O4 3.098501 1_555
Ba0 O9 3.098501 1_455
Ba0 O24 3.213630 1_555
Ba0 O26 3.213630 1_455
Ba1 O1 2.809800 1_555
Ba1 O28 2.839282 1_655
Ba1 O28 2.839282 1_555
Ba1 O18 2.859380 1_555
Ba1 O16 2.859380 1_555
Ba1 O14 2.900506 1_655
Ba1 O19 2.900506 1_555
Ba1 O29 3.079768 1_555
Ba1 O7 3.098501 1_655
Ba1 O5 3.098501 1_555
Ba1 O27 3.213630 1_655
Ba1 O22 3.213630 1_555
Ba2 O2 2.809800 1_555
Ba2 O31 2.839282 1_555
Ba2 O31 2.839282 1_655
Ba2 O12 2.859380 1_565
Ba2 O17 2.859380 1_565
Ba2 O15 2.900506 1_554
Ba2 O13 2.900506 1_654
Ba2 O30 3.079768 1_564
Ba2 O6 3.098501 1_555
Ba2 O11 3.098501 1_655
Ba2 O21 3.213630 1_554
Ba2 O23 3.213630 1_654
Ba3 O3 2.809800 1_555
Ba3 O30 2.839282 1_555
Ba3 O30 2.839282 1_455
Ba3 O13 2.859380 1_545
Ba3 O15 2.859380 1_545
Ba3 O17 2.900506 1_556
Ba3 O12 2.900506 1_456
Ba3 O31 3.079768 1_546
Ba3 O8 3.098501 1_555
Ba3 O10 3.098501 1_455
Ba3 O25 3.213630 1_456
Ba3 O20 3.213630 1_556
Ba4 O31 2.687183 1_555
Ba4 O2 2.832739 1_555
Ba4 O2 2.832739 1_455
Ba4 O4 2.850277 1_555
Ba4 O9 2.850277 1_455
Ba4 O19 2.877257 1_555
Ba4 O14 2.877257 1_555
Ba4 O21 3.084631 1_554
Ba4 O23 3.084631 1_554
Ba4 O6 3.213599 1_555
Ba4 O11 3.213599 1_555
Ba5 O30 2.687183 1_555
Ba5 O3 2.832739 1_655
Ba5 O3 2.832739 1_555
Ba5 O7 2.850277 1_655
Ba5 O5 2.850277 1_555
Ba5 O16 2.877257 1_555
Ba5 O18 2.877257 1_555
Ba5 O20 3.084631 1_556
Ba5 O25 3.084631 1_556
Ba5 O10 3.213599 1_555
Ba5 O8 3.213599 1_555
Ba6 O29 2.687183 1_555
Ba6 O0 2.832739 1_555
Ba6 O0 2.832739 1_655
Ba6 O11 2.850277 1_645
Ba6 O6 2.850277 1_545
Ba6 O12 2.877257 1_555
Ba6 O17 2.877257 1_555
Ba6 O26 3.084631 1_555
Ba6 O24 3.084631 1_555
Ba6 O4 3.213599 1_555
Ba6 O9 3.213599 1_555
Ba7 O28 2.687183 1_555
Ba7 O1 2.832739 1_555
Ba7 O1 2.832739 1_455
Ba7 O8 2.850277 1_565
Ba7 O10 2.850277 1_465
Ba7 O13 2.877257 1_555
Ba7 O15 2.877257 1_555
Ba7 O27 3.084631 1_555
Ba7 O22 3.084631 1_555
Ba7 O7 3.213599 1_555
Ba7 O5 3.213599 1_555
Cu0 O27 1.863113 1_555
Cu0 O22 1.863113 1_555
Cu0 O19 1.939812 1_555
Cu0 O14 1.939812 1_555
Cu0 O28 2.378030 1_555
Cu1 O26 1.863113 1_555
Cu1 O24 1.863113 1_555
Cu1 O16 1.939812 1_555
Cu1 O18 1.939812 1_555
Cu1 O29 2.378030 1_555
Cu2 O25 1.863113 1_555
Cu2 O20 1.863113 1_555
Cu2 O12 1.939812 1_555
Cu2 O17 1.939812 1_555
Cu2 O30 2.378030 1_554
Cu3 O23 1.863113 1_555
Cu3 O21 1.863113 1_555
Cu3 O15 1.939812 1_555
Cu3 O13 1.939812 1_555
Cu3 O31 2.378030 1_556
O0 Pt0 2.017799 1_555
O0 Yb0 2.417993 1_555
O0 Yb4 2.436195 1_555
O1 Pt1 2.017799 1_555
O1 Yb1 2.417993 1_555
O1 Yb5 2.436195 1_555
O2 Pt2 2.017799 1_555
O2 Yb2 2.417993 1_555
O2 Yb6 2.436195 1_555
O3 Pt3 2.017799 1_555
O3 Yb3 2.417993 1_555
O3 Yb7 2.436195 1_555
O4 Pt2 1.984529 1_555
O4 Yb4 2.287545 1_555
O4 Yb2 2.421704 1_555
O5 Pt3 1.984529 1_555
O5 Yb5 2.287545 1_555
O5 Yb3 2.421704 1_555
O6 Pt0 1.984529 1_565
O6 Yb6 2.287545 1_555
O6 Yb0 2.421704 1_565
O7 Pt3 1.984529 1_555
O7 Yb5 2.287545 1_455
O7 Yb3 2.421704 1_555
O8 Pt1 1.984529 1_545
O8 Yb7 2.287545 1_555
O8 Yb1 2.421704 1_545
O9 Pt2 1.984529 1_555
O9 Yb4 2.287545 1_655
O9 Yb2 2.421704 1_555
O10 Pt1 1.984529 1_545
O10 Yb7 2.287545 1_655
O10 Yb1 2.421704 1_545
O11 Pt0 1.984529 1_565
O11 Yb6 2.287545 1_455
O11 Yb0 2.421704 1_565
O12 Pt0 2.095994 1_655
O12 Yb4 2.369225 1_655
O13 Pt1 2.095994 1_455
O13 Yb5 2.369225 1_455
O14 Pt2 2.095994 1_455
O14 Yb6 2.369225 1_455
O15 Pt1 2.095994 1_555
O15 Yb5 2.369225 1_555
O16 Pt3 2.095994 1_655
O16 Yb7 2.369225 1_655
O17 Pt0 2.095994 1_555
O17 Yb4 2.369225 1_555
O18 Pt3 2.095994 1_555
O18 Yb7 2.369225 1_555
O19 Pt2 2.095994 1_555
O19 Yb6 2.369225 1_555
O20 Yb3 2.315385 1_554
O20 Yb2 2.370569 1_555
O20 Yb4 2.404448 1_555
O21 Yb2 2.315385 1_556
O21 Yb3 2.370569 1_555
O21 Yb5 2.404448 1_555
O22 Yb1 2.315385 1_555
O22 Yb0 2.370569 1_565
O22 Yb6 2.404448 1_555
O23 Yb2 2.315385 1_456
O23 Yb3 2.370569 1_555
O23 Yb5 2.404448 1_455
O24 Yb0 2.315385 1_555
O24 Yb1 2.370569 1_545
O24 Yb7 2.404448 1_555
O25 Yb3 2.315385 1_654
O25 Yb2 2.370569 1_555
O25 Yb4 2.404448 1_655
O26 Yb0 2.315385 1_655
O26 Yb1 2.370569 1_545
O26 Yb7 2.404448 1_655
O27 Yb1 2.315385 1_455
O27 Yb0 2.370569 1_565
O27 Yb6 2.404448 1_455
O28 Pt3 1.979310 1_555
O29 Pt2 1.979310 1_555
O30 Pt1 1.979310 1_545
O31 Pt0 1.979310 1_565
