# generated using pymatgen
data_LiMg14Mn
_symmetry_space_group_name_H-M   'P 1'
_cell_length_a   6.26439614
_cell_length_b   6.36157395
_cell_length_c   9.95020477
_cell_angle_alpha   90.00000000
_cell_angle_beta   90.00000000
_cell_angle_gamma   120.51450234
_symmetry_Int_Tables_number   1
_chemical_formula_structural   LiMg14Mn
_chemical_formula_sum   'Li1 Mg14 Mn1'
_cell_volume   341.61067273
_cell_formula_units_Z   1
loop_
 _symmetry_equiv_pos_site_id
 _symmetry_equiv_pos_as_xyz
  1  'x, y, z'
loop_
 _atom_site_type_symbol
 _atom_site_label
 _atom_site_symmetry_multiplicity
 _atom_site_fract_x
 _atom_site_fract_y
 _atom_site_fract_z
 _atom_site_occupancy
  Li  Li0  1  0.16629486  0.83314693  0.12500000  1
  Mg  Mg0  1  0.17007540  0.33503720  0.62500000  1
  Mg  Mg1  1  0.17303704  0.83651802  0.62500000  1
  Mg  Mg2  1  0.67506152  0.33967266  0.12500000  1
  Mg  Mg3  1  0.66529542  0.32956658  0.62500000  1
  Mg  Mg4  1  0.67506152  0.83538785  0.12500000  1
  Mg  Mg5  1  0.66529542  0.83572784  0.62500000  1
  Mg  Mg6  1  0.32180192  0.16784237  0.35532462  1
  Mg  Mg7  1  0.32180192  0.16784237  0.89467538  1
  Mg  Mg8  1  0.32180192  0.65396055  0.35532462  1
  Mg  Mg9  1  0.32180192  0.65396055  0.89467538  1
  Mg  Mg10  1  0.84314868  0.17157484  0.36175763  1
  Mg  Mg11  1  0.84314868  0.17157484  0.88824237  1
  Mg  Mg12  1  0.83256541  0.66628320  0.37487641  1
  Mg  Mg13  1  0.83256541  0.66628320  0.87512359  1
  Mn  Mn0  1  0.17124299  0.33562099  0.12500000  1
loop_
_geom_bond_atom_site_label_1
_geom_bond_atom_site_label_2
_geom_bond_distance
_geom_bond_site_symmetry_2
Li0 Mg8 2.937395 1_555
Li0 Mg9 2.937395 1_554
Li0 Mg6 2.937402 1_565
Li0 Mg7 2.937402 1_564
Li0 Mg12 3.070119 1_455
Li0 Mg13 3.070119 1_454
Li0 Mg2 3.084543 1_455
Li0 Mg4 3.084543 1_455
Li0 Mg2 3.179901 1_565
Li0 Mg4 3.179901 1_555
Li0 Mn0 3.180899 1_565
Li0 Mn0 3.180899 1_555
Mg0 Mg5 3.120069 1_555
Mg0 Mg3 3.120069 1_555
Mg0 Mg5 3.144614 1_445
Mg0 Mg3 3.144614 1_455
Mg0 Mg11 3.158125 1_455
Mg0 Mg10 3.158125 1_455
Mg0 Mg1 3.180827 1_555
Mg0 Mg1 3.180827 1_545
Mg0 Mg6 3.203367 1_555
Mg0 Mg7 3.203367 1_555
Mg0 Mg9 3.203373 1_555
Mg0 Mg8 3.203373 1_555
Mg1 Mg3 3.086257 1_565
Mg1 Mg5 3.086257 1_555
Mg1 Mg13 3.093583 1_455
Mg1 Mg12 3.093583 1_455
Mg1 Mg3 3.178145 1_455
Mg1 Mg5 3.178145 1_455
Mg1 Mg8 3.242921 1_555
Mg1 Mg9 3.242921 1_555
Mg1 Mg6 3.242927 1_565
Mg1 Mg7 3.242927 1_565
Mg2 Mg7 2.981238 1_554
Mg2 Mg6 2.981238 1_555
Mg2 Mn0 3.121444 1_655
Mg2 Mn0 3.143110 1_555
Mg2 Mg4 3.153529 1_555
Mg2 Mg4 3.208045 1_545
Mg3 Mg5 3.141592 1_545
Mg3 Mg5 3.219982 1_555
Mg3 Mg6 3.262012 1_555
Mg3 Mg7 3.262012 1_555
Mg4 Mg9 2.981238 1_554
Mg4 Mg8 2.981238 1_555
Mg4 Mn0 3.121443 1_665
Mg4 Mn0 3.143110 1_555
Mg5 Mg8 3.262012 1_555
Mg5 Mg9 3.262012 1_555
Mg6 Mn0 2.881542 1_555
Mg7 Mn0 2.881542 1_556
Mg8 Mn0 2.881549 1_555
Mg9 Mn0 2.881549 1_556
Mg10 Mn0 2.947023 1_655
Mg10 Mg2 2.990900 1_555
Mg10 Mg4 2.990907 1_545
Mg10 Mg8 3.011280 1_655
Mg10 Mg6 3.011280 1_655
Mg10 Mg12 3.183977 1_555
Mg10 Mg12 3.183977 1_545
Mg10 Mg3 3.201480 1_555
Mg10 Mg5 3.201487 1_545
Mg10 Mg8 3.254560 1_545
Mg10 Mg6 3.254560 1_555
Mg11 Mn0 2.947023 1_656
Mg11 Mg2 2.990900 1_556
Mg11 Mg4 2.990907 1_546
Mg11 Mg9 3.011280 1_655
Mg11 Mg7 3.011280 1_655
Mg11 Mg13 3.183977 1_555
Mg11 Mg13 3.183977 1_545
Mg11 Mg3 3.201480 1_555
Mg11 Mg5 3.201487 1_545
Mg11 Mg9 3.254560 1_545
Mg11 Mg7 3.254560 1_555
Mg12 Mg4 3.064390 1_555
Mg12 Mg2 3.064396 1_555
Mg12 Mg5 3.098546 1_555
Mg12 Mg3 3.098552 1_555
Mg12 Mg6 3.111397 1_665
Mg12 Mg8 3.111398 1_655
Mg12 Mg6 3.166524 1_555
Mg12 Mg8 3.166525 1_555
Mg13 Mg4 3.064390 1_556
Mg13 Mg2 3.064396 1_556
Mg13 Mg5 3.098546 1_555
Mg13 Mg3 3.098552 1_555
Mg13 Mg7 3.111397 1_665
Mg13 Mg9 3.111398 1_655
Mg13 Mg7 3.166524 1_555
Mg13 Mg9 3.166525 1_555
