# generated using pymatgen
data_Li13Mn2O9
_symmetry_space_group_name_H-M   'P 1'
_cell_length_a   5.68966177
_cell_length_b   10.03866050
_cell_length_c   8.22263768
_cell_angle_alpha   89.97964880
_cell_angle_beta   88.42229632
_cell_angle_gamma   89.99547037
_symmetry_Int_Tables_number   1
_chemical_formula_structural   Li13Mn2O9
_chemical_formula_sum   'Li26 Mn4 O18'
_cell_volume   469.47089459
_cell_formula_units_Z   2
loop_
 _symmetry_equiv_pos_site_id
 _symmetry_equiv_pos_as_xyz
  1  'x, y, z'
loop_
 _atom_site_type_symbol
 _atom_site_label
 _atom_site_symmetry_multiplicity
 _atom_site_fract_x
 _atom_site_fract_y
 _atom_site_fract_z
 _atom_site_occupancy
  Li  Li0  1  0.12777500  0.15220700  0.44236100  1
  Li  Li1  1  0.63876200  0.66395100  0.42370400  1
  Li  Li2  1  0.17601500  0.15141500  0.93975300  1
  Li  Li3  1  0.68468200  0.65687800  0.94498500  1
  Li  Li4  1  0.43616500  0.15294400  0.21689900  1
  Li  Li5  1  0.97042300  0.66739200  0.21514000  1
  Li  Li6  1  0.52084100  0.49564200  0.21335300  1
  Li  Li7  1  0.01732600  0.98246400  0.21591500  1
  Li  Li8  1  0.65122700  0.31044600  0.42114800  1
  Li  Li9  1  0.16383100  0.81516900  0.41720000  1
  Li  Li10  1  0.61952700  0.34607300  0.96471500  1
  Li  Li11  1  0.14577500  0.85498200  0.94453400  1
  Li  Li12  1  0.68238400  0.02443300  0.42861300  1
  Li  Li13  1  0.18699600  0.52435000  0.42193100  1
  Li  Li14  1  0.80694600  0.15201500  0.06800600  1
  Li  Li15  1  0.32218500  0.65870700  0.05952200  1
  Li  Li16  1  0.82179100  0.48413100  0.56991700  1
  Li  Li17  1  0.32102900  0.98571900  0.58626000  1
  Li  Li18  1  0.95407000  0.30822700  0.75088100  1
  Li  Li19  1  0.48577700  0.80908400  0.74666900  1
  Li  Li20  1  0.96926200  0.01255600  0.75116100  1
  Li  Li21  1  0.49349500  0.50822100  0.75126700  1
  Li  Li22  1  0.15055800  0.47255500  0.93635700  1
  Li  Li23  1  0.64816400  0.97058500  0.93410300  1
  Li  Li24  1  0.30242300  0.33512200  0.59058200  1
  Li  Li25  1  0.81547400  0.83810900  0.57411600  1
  Mn  Mn0  1  0.03600100  0.66261700  0.73487000  1
  Mn  Mn1  1  0.52118200  0.84952900  0.21736700  1
  Mn  Mn2  1  0.53224500  0.16326100  0.74230700  1
  Mn  Mn3  1  0.02393500  0.33869500  0.22365600  1
  O  O0  1  0.17447100  0.16249400  0.67575400  1
  O  O1  1  0.70694300  0.65974500  0.65444100  1
  O  O2  1  0.50058100  0.16163100  0.99102600  1
  O  O3  1  0.02133300  0.66167500  0.96741500  1
  O  O4  1  0.63818600  0.34422700  0.65546500  1
  O  O5  1  0.13625300  0.83566000  0.67170500  1
  O  O6  1  0.13126400  0.48648800  0.67736000  1
  O  O7  1  0.64380200  0.98065500  0.66481300  1
  O  O8  1  0.84861000  0.49186800  0.32711600  1
  O  O9  1  0.33071500  0.99772600  0.34878000  1
  O  O10  1  0.84783000  0.17476600  0.30704900  1
  O  O11  1  0.33774700  0.66795600  0.30693300  1
  O  O12  1  0.95951500  0.32069500  0.00204100  1
  O  O13  1  0.47987400  0.81328300  0.97889400  1
  O  O14  1  0.97050200  0.00626400  0.98753600  1
  O  O15  1  0.47485100  0.50655800  0.98583400  1
  O  O16  1  0.30113600  0.33317700  0.35095900  1
  O  O17  1  0.83583300  0.83030200  0.33971500  1
loop_
_geom_bond_atom_site_label_1
_geom_bond_atom_site_label_2
_geom_bond_distance
_geom_bond_site_symmetry_2
Li0 O0 1.947419 1_555
Li0 O10 1.980795 1_455
Li0 O9 2.069277 1_545
Li0 O16 2.190125 1_555
Li1 O1 1.947398 1_555
Li1 O11 1.986781 1_555
Li1 O17 2.116536 1_555
Li1 O8 2.233595 1_555
Li2 O14 1.902472 1_455
Li2 O2 1.908242 1_555
Li2 O12 2.152440 1_456
Li2 O0 2.173835 1_555
Li3 O3 1.929943 1_655
Li3 O15 1.947588 1_555
Li3 O13 1.970526 1_555
Li3 O1 2.389072 1_555
Li4 O2 1.885152 1_554
Li4 O9 1.981657 1_545
Li4 O16 2.243543 1_555
Li4 O10 2.485827 1_555
Li5 O3 2.050357 1_654
Li5 O17 2.065912 1_555
Li5 O8 2.096842 1_555
Li5 O11 2.241536 1_655
Li6 O15 1.899263 1_554
Li6 O8 2.109579 1_555
Li6 O11 2.150826 1_555
Li6 O16 2.328935 1_555
Li7 O14 1.918777 1_464
Li7 O17 2.092153 1_455
Li7 O9 2.122222 1_555
Li7 O10 2.275776 1_465
Li8 O4 1.955832 1_555
Li8 O10 1.982304 1_555
Li8 O16 2.101419 1_555
Li8 O8 2.264387 1_555
Li9 O11 1.984063 1_555
Li9 O17 1.994259 1_455
Li9 O5 2.104414 1_555
Li9 O9 2.132308 1_555
Li10 O15 1.815312 1_555
Li10 O2 1.981137 1_555
Li10 O12 1.983338 1_556
Li11 O14 1.845698 1_465
Li11 O13 1.974304 1_555
Li11 O3 2.072448 1_555
Li11 O5 2.253950 1_555
Li12 O7 1.997335 1_545
Li12 O10 2.027340 1_555
Li12 O9 2.139822 1_545
Li12 O17 2.249458 1_545
Li13 O11 1.913801 1_555
Li13 O16 2.103583 1_555
Li13 O8 2.122232 1_455
Li13 O6 2.149198 1_555
Li14 O14 1.846930 1_554
Li14 O2 1.873262 1_554
Li14 O12 1.971987 1_555
Li14 O10 1.998804 1_555
Li15 O15 1.850934 1_554
Li15 O3 1.891011 1_554
Li15 O13 1.902398 1_554
Li15 O11 2.040877 1_555
Li16 O4 1.875540 1_555
Li16 O6 1.991772 1_655
Li16 O1 1.998407 1_555
Li16 O8 1.999576 1_555
Li17 O9 1.955648 1_555
Li17 O5 1.956252 1_555
Li17 O7 1.964100 1_555
Li17 O0 2.086360 1_565
Li18 O0 2.012983 1_655
Li18 O4 2.013378 1_555
Li18 O12 2.070115 1_556
Li18 O6 2.133108 1_655
Li19 O13 1.909353 1_555
Li19 O7 2.047922 1_555
Li19 O1 2.086631 1_555
Li19 O5 2.115005 1_555
Li20 O14 1.944837 1_555
Li20 O0 1.993234 1_655
Li20 O7 2.026901 1_545
Li20 O5 2.109365 1_645
Li21 O15 1.928822 1_555
Li21 O4 1.993366 1_555
Li21 O1 2.090141 1_555
Li21 O6 2.175695 1_555
Li22 O15 1.930808 1_555
Li22 O12 1.940250 1_456
Li22 O3 2.049375 1_555
Li22 O6 2.140008 1_555
Li23 O13 1.877883 1_555
Li23 O14 1.931177 1_565
Li23 O2 2.140337 1_565
Li23 O7 2.217366 1_555
Li24 O6 1.930982 1_555
Li24 O16 1.970652 1_555
Li24 O0 1.998713 1_555
Li24 O4 1.999679 1_555
Li25 O7 1.875720 1_555
Li25 O17 1.929306 1_555
Li25 O1 2.000111 1_555
Li25 O5 2.014005 1_655
Mn0 O5 1.896287 1_555
Mn0 O6 1.905230 1_555
Mn0 O3 1.911677 1_555
Mn0 O1 2.002909 1_455
Mn1 O13 2.014589 1_554
Mn1 O17 2.086466 1_555
Mn1 O9 2.119353 1_555
Mn1 O11 2.216100 1_555
Mn2 O7 2.036567 1_545
Mn2 O4 2.036913 1_555
Mn2 O2 2.048159 1_555
Mn2 O0 2.122404 1_555
Mn3 O12 1.877405 1_455
Mn3 O16 1.917587 1_555
Mn3 O8 2.009261 1_455
Mn3 O10 2.035651 1_455
