# generated using pymatgen
data_RbUF5
_symmetry_space_group_name_H-M   'P 1'
_cell_length_a   13.69680238
_cell_length_b   8.21490527
_cell_length_c   8.25878925
_cell_angle_alpha   77.93356968
_cell_angle_beta   90.00000000
_cell_angle_gamma   90.00000000
_symmetry_Int_Tables_number   1
_chemical_formula_structural   RbUF5
_chemical_formula_sum   'Rb8 U8 F40'
_cell_volume   908.73068498
_cell_formula_units_Z   8
loop_
 _symmetry_equiv_pos_site_id
 _symmetry_equiv_pos_as_xyz
  1  'x, y, z'
loop_
 _atom_site_type_symbol
 _atom_site_label
 _atom_site_symmetry_multiplicity
 _atom_site_fract_x
 _atom_site_fract_y
 _atom_site_fract_z
 _atom_site_occupancy
  Rb  Rb0  1  0.51717777  0.72961012  0.76832755  1
  Rb  Rb1  1  0.01717777  0.27038988  0.73167245  1
  Rb  Rb2  1  0.48282223  0.27038988  0.23167245  1
  Rb  Rb3  1  0.98282223  0.72961012  0.26832755  1
  Rb  Rb4  1  0.51691952  0.78152320  0.29312309  1
  Rb  Rb5  1  0.01691952  0.21847680  0.20687691  1
  Rb  Rb6  1  0.48308048  0.21847680  0.70687691  1
  Rb  Rb7  1  0.98308048  0.78152320  0.79312309  1
  U  U0  1  0.24736138  0.94462690  0.54224944  1
  U  U1  1  0.74736138  0.05537310  0.95775056  1
  U  U2  1  0.75263862  0.05537310  0.45775056  1
  U  U3  1  0.25263862  0.94462690  0.04224944  1
  U  U4  1  0.24666975  0.51486363  0.41245703  1
  U  U5  1  0.74666975  0.48513637  0.08754297  1
  U  U6  1  0.75333025  0.48513637  0.58754297  1
  U  U7  1  0.25333025  0.51486363  0.91245703  1
  F  F0  1  0.31640805  0.67020900  0.64476612  1
  F  F1  1  0.81640805  0.32979100  0.85523388  1
  F  F2  1  0.68359195  0.32979100  0.35523388  1
  F  F3  1  0.18359195  0.67020900  0.14476612  1
  F  F4  1  0.40269591  0.97667201  0.49686635  1
  F  F5  1  0.90269591  0.02332799  0.00313365  1
  F  F6  1  0.59730409  0.02332799  0.50313365  1
  F  F7  1  0.09730409  0.97667201  0.99686635  1
  F  F8  1  0.26651158  0.22845535  0.47717381  1
  F  F9  1  0.76651158  0.77154465  0.02282619  1
  F  F10  1  0.73348842  0.77154465  0.52282619  1
  F  F11  1  0.23348842  0.22845535  0.97717381  1
  F  F12  1  0.10251286  0.03040136  0.58239679  1
  F  F13  1  0.60251286  0.96959864  0.91760321  1
  F  F14  1  0.89748714  0.96959864  0.41760321  1
  F  F15  1  0.39748714  0.03040136  0.08239679  1
  F  F16  1  0.19261693  0.03151058  0.27225202  1
  F  F17  1  0.69261693  0.96848942  0.22774798  1
  F  F18  1  0.80738307  0.96848942  0.72774798  1
  F  F19  1  0.30738307  0.03151058  0.77225202  1
  F  F20  1  0.14784527  0.72557688  0.48829772  1
  F  F21  1  0.64784527  0.27442312  0.01170228  1
  F  F22  1  0.85215473  0.27442312  0.51170228  1
  F  F23  1  0.35215473  0.72557688  0.98829772  1
  F  F24  1  0.30951583  0.79029675  0.31631117  1
  F  F25  1  0.80951583  0.20970325  0.18368883  1
  F  F26  1  0.69048417  0.20970325  0.68368883  1
  F  F27  1  0.19048417  0.79029675  0.81631117  1
  F  F28  1  0.40306958  0.48367507  0.44016824  1
  F  F29  1  0.90306958  0.51632493  0.05983176  1
  F  F30  1  0.59693042  0.51632493  0.55983176  1
  F  F31  1  0.09693042  0.48367507  0.94016824  1
  F  F32  1  0.09826561  0.43236982  0.39003088  1
  F  F33  1  0.59826561  0.56763018  0.10996912  1
  F  F34  1  0.90173439  0.56763018  0.60996912  1
  F  F35  1  0.40173439  0.43236982  0.89003088  1
  F  F36  1  0.20601662  0.41662459  0.68427229  1
  F  F37  1  0.70601662  0.58337541  0.81572771  1
  F  F38  1  0.79398338  0.58337541  0.31572771  1
  F  F39  1  0.29398338  0.41662459  0.18427229  1
loop_
_geom_bond_atom_site_label_1
_geom_bond_atom_site_label_2
_geom_bond_distance
_geom_bond_site_symmetry_2
F0 U0 2.427999 1_555
F0 U7 2.466388 1_555
F0 U4 2.691764 1_555
F0 Rb0 3.008261 1_555
F1 U1 2.427999 1_555
F1 U6 2.466388 1_555
F1 U5 2.691764 1_556
F1 Rb1 3.008261 1_655
F2 U2 2.427999 1_555
F2 U5 2.466388 1_555
F2 U6 2.691764 1_555
F2 Rb2 3.008261 1_555
F3 U3 2.427999 1_555
F3 U4 2.466388 1_555
F3 U7 2.691764 1_554
F3 Rb3 3.008261 1_455
F4 U0 2.166830 1_555
F4 Rb4 2.996145 1_555
F4 Rb6 3.099472 1_565
F4 Rb2 3.100614 1_565
F4 Rb0 3.114781 1_555
F5 U1 2.166830 1_554
F5 Rb5 2.996145 1_655
F5 Rb7 3.099472 1_544
F5 Rb3 3.100614 1_545
F5 Rb1 3.114781 1_654
F6 U2 2.166830 1_555
F6 Rb6 2.996145 1_555
F6 Rb4 3.099472 1_545
F6 Rb0 3.100614 1_545
F6 Rb2 3.114781 1_555
F7 U3 2.166830 1_556
F7 Rb7 2.996145 1_455
F7 Rb5 3.099472 1_566
F7 Rb1 3.100614 1_565
F7 Rb3 3.114781 1_456
F8 U0 2.295691 1_545
F8 U4 2.317221 1_555
F9 U1 2.295691 1_564
F9 U5 2.317221 1_555
F10 U2 2.295691 1_565
F10 U6 2.317221 1_555
F11 U3 2.295691 1_546
F11 U7 2.317221 1_555
F12 U0 2.154118 1_545
F12 Rb1 2.790868 1_555
F12 Rb7 2.897787 1_445
F13 U1 2.154118 1_565
F13 Rb0 2.790868 1_555
F13 Rb6 2.897787 1_565
F14 U2 2.154118 1_565
F14 Rb3 2.790868 1_555
F14 Rb5 2.897787 1_665
F15 U3 2.154118 1_545
F15 Rb2 2.790868 1_555
F15 Rb4 2.897787 1_545
F16 U3 2.315251 1_545
F16 U0 2.319158 1_545
F16 Rb5 2.845177 1_555
F17 U2 2.315251 1_565
F17 U1 2.319158 1_564
F17 Rb4 2.845177 1_555
F18 U1 2.315251 1_565
F18 U2 2.319158 1_565
F18 Rb7 2.845177 1_555
F19 U0 2.315251 1_545
F19 U3 2.319158 1_546
F19 Rb6 2.845177 1_555
F20 U0 2.372717 1_555
F20 U4 2.382041 1_555
F20 Rb3 2.895719 1_455
F21 U1 2.372717 1_554
F21 U5 2.382041 1_555
F21 Rb2 2.895719 1_555
F22 U2 2.372717 1_555
F22 U6 2.382041 1_555
F22 Rb1 2.895719 1_655
F23 U3 2.372717 1_556
F23 U7 2.382041 1_555
F23 Rb0 2.895719 1_555
F24 U4 2.395813 1_555
F24 U3 2.477408 1_555
F24 U0 2.608261 1_555
F24 Rb4 2.849140 1_555
F25 U5 2.395813 1_555
F25 U2 2.477408 1_555
F25 U1 2.608261 1_554
F25 Rb5 2.849140 1_655
F26 U6 2.395813 1_555
F26 U1 2.477408 1_555
F26 U2 2.608261 1_555
F26 Rb6 2.849140 1_555
F27 U7 2.395813 1_555
F27 U0 2.477408 1_555
F27 U3 2.608261 1_556
F27 Rb7 2.849140 1_455
F28 U4 2.163892 1_555
F28 Rb2 2.913685 1_555
F28 Rb4 2.941249 1_555
F28 Rb6 2.965253 1_555
F29 U5 2.163892 1_555
F29 Rb3 2.913685 1_555
F29 Rb5 2.941249 1_655
F29 Rb7 2.965253 1_554
F30 U6 2.163892 1_555
F30 Rb0 2.913685 1_555
F30 Rb6 2.941249 1_555
F30 Rb4 2.965253 1_555
F31 U7 2.163892 1_555
F31 Rb1 2.913685 1_555
F31 Rb7 2.941249 1_455
F31 Rb5 2.965253 1_556
F32 U4 2.162809 1_555
F32 Rb5 2.779949 1_555
F32 Rb3 2.906329 1_455
F32 Rb1 3.065218 1_555
F33 U5 2.162809 1_555
F33 Rb4 2.779949 1_555
F33 Rb2 2.906329 1_555
F33 Rb0 3.065218 1_554
F34 U6 2.162809 1_555
F34 Rb7 2.779949 1_555
F34 Rb1 2.906329 1_655
F34 Rb3 3.065218 1_555
F35 U7 2.162809 1_555
F35 Rb6 2.779949 1_555
F35 Rb0 2.906329 1_555
F35 Rb2 3.065218 1_556
F36 U4 2.289828 1_555
F36 U7 2.293156 1_555
F36 Rb1 2.844237 1_555
F37 U5 2.289828 1_556
F37 U6 2.293156 1_555
F37 Rb0 2.844237 1_555
F38 U6 2.289828 1_555
F38 U5 2.293156 1_555
F38 Rb3 2.844237 1_555
F39 U7 2.289828 1_554
F39 U4 2.293156 1_555
F39 Rb2 2.844237 1_555
