# generated using pymatgen
data_LuAl
_symmetry_space_group_name_H-M   'P 1'
_cell_length_a   5.49251222
_cell_length_b   5.71793401
_cell_length_c   11.13312532
_cell_angle_alpha   90.00029494
_cell_angle_beta   90.00000587
_cell_angle_gamma   89.99997730
_symmetry_Int_Tables_number   1
_chemical_formula_structural   LuAl
_chemical_formula_sum   'Lu8 Al8'
_cell_volume   349.64495681
_cell_formula_units_Z   8
loop_
 _symmetry_equiv_pos_site_id
 _symmetry_equiv_pos_as_xyz
  1  'x, y, z'
loop_
 _atom_site_type_symbol
 _atom_site_label
 _atom_site_symmetry_multiplicity
 _atom_site_fract_x
 _atom_site_fract_y
 _atom_site_fract_z
 _atom_site_occupancy
  Lu  Lu0  1  0.25000020  0.39549437  0.33070574  1
  Lu  Lu1  1  0.74999980  0.60450563  0.66929426  1
  Lu  Lu2  1  0.74999970  0.39550729  0.16918212  1
  Lu  Lu3  1  0.25000030  0.60449271  0.83081788  1
  Lu  Lu4  1  0.24999985  0.15868857  0.01739320  1
  Lu  Lu5  1  0.75000015  0.84131143  0.98260680  1
  Lu  Lu6  1  0.75000045  0.15871918  0.48260013  1
  Lu  Lu7  1  0.24999955  0.84128082  0.51739987  1
  Al  Al0  1  -0.00000165  0.92938226  0.24996401  1
  Al  Al1  1  0.49999796  0.07061803  0.75003596  1
  Al  Al2  1  0.00000165  0.07061774  0.75003599  1
  Al  Al3  1  0.50000204  0.92938197  0.24996404  1
  Al  Al4  1  0.25000036  0.65656277  0.09638804  1
  Al  Al5  1  0.74999964  0.34343723  0.90361196  1
  Al  Al6  1  0.75000094  0.65654425  0.40357228  1
  Al  Al7  1  0.24999906  0.34345575  0.59642772  1
loop_
_geom_bond_atom_site_label_1
_geom_bond_atom_site_label_2
_geom_bond_distance
_geom_bond_site_symmetry_2
Al0 Al4 2.691156 1_555
Al0 Al6 2.691443 1_455
Al0 Al3 2.746236 1_455
Al0 Al3 2.746276 1_555
Al0 Lu0 3.129985 1_565
Al0 Lu2 3.130175 1_465
Al0 Lu4 3.210738 1_565
Al0 Lu6 3.211376 1_465
Al0 Lu5 3.316431 1_454
Al0 Lu7 3.317255 1_555
Al0 Lu0 3.465943 1_555
Al0 Lu2 3.465980 1_455
Al1 Al5 2.691154 1_555
Al1 Al7 2.691446 1_555
Al1 Al2 2.746236 1_555
Al1 Al2 2.746276 1_655
Al1 Lu1 3.129985 1_545
Al1 Lu3 3.130175 1_545
Al1 Lu5 3.210740 1_545
Al1 Lu7 3.211378 1_545
Al1 Lu4 3.316431 1_556
Al1 Lu6 3.317257 1_555
Al1 Lu1 3.465943 1_555
Al1 Lu3 3.465976 1_555
Al2 Al5 2.691156 1_455
Al2 Al7 2.691443 1_555
Al2 Lu1 3.129985 1_445
Al2 Lu3 3.130175 1_545
Al2 Lu5 3.210738 1_445
Al2 Lu7 3.211376 1_545
Al2 Lu4 3.316431 1_556
Al2 Lu6 3.317255 1_455
Al2 Lu1 3.465943 1_455
Al2 Lu3 3.465980 1_555
Al3 Al4 2.691154 1_555
Al3 Al6 2.691446 1_555
Al3 Lu0 3.129985 1_565
Al3 Lu2 3.130175 1_565
Al3 Lu4 3.210740 1_565
Al3 Lu6 3.211378 1_565
Al3 Lu5 3.316431 1_554
Al3 Lu7 3.317257 1_555
Al3 Lu0 3.465943 1_555
Al3 Lu2 3.465976 1_555
Al4 Lu3 2.971577 1_554
Al4 Lu4 2.979557 1_555
Al4 Lu4 3.002802 1_565
Al4 Lu0 3.005605 1_555
Al4 Lu5 3.203515 1_554
Al4 Lu5 3.203516 1_454
Al4 Lu2 3.229063 1_555
Al4 Lu2 3.229070 1_455
Al5 Lu2 2.971577 1_556
Al5 Lu5 2.979557 1_555
Al5 Lu5 3.002802 1_545
Al5 Lu1 3.005605 1_555
Al5 Lu4 3.203515 1_556
Al5 Lu4 3.203516 1_656
Al5 Lu3 3.229063 1_555
Al5 Lu3 3.229070 1_655
Al6 Lu1 2.973244 1_555
Al6 Lu6 2.979406 1_555
Al6 Lu6 3.003169 1_565
Al6 Lu2 3.006203 1_555
Al6 Lu7 3.203686 1_655
Al6 Lu7 3.203698 1_555
Al6 Lu0 3.229247 1_655
Al6 Lu0 3.229255 1_555
Al7 Lu0 2.973244 1_555
Al7 Lu7 2.979406 1_555
Al7 Lu7 3.003169 1_545
Al7 Lu3 3.006203 1_555
Al7 Lu6 3.203686 1_455
Al7 Lu6 3.203698 1_555
Al7 Lu1 3.229247 1_455
Al7 Lu1 3.229255 1_555
