# generated using pymatgen
data_Ba4Pd3BrO6
_symmetry_space_group_name_H-M   'P 1'
_cell_length_a   7.10616106
_cell_length_b   7.10616106
_cell_length_c   7.10616106
_cell_angle_alpha   109.47122063
_cell_angle_beta   109.47122063
_cell_angle_gamma   109.47122063
_symmetry_Int_Tables_number   1
_chemical_formula_structural   Ba4Pd3BrO6
_chemical_formula_sum   'Ba4 Pd3 Br1 O6'
_cell_volume   276.23789022
_cell_formula_units_Z   1
loop_
 _symmetry_equiv_pos_site_id
 _symmetry_equiv_pos_as_xyz
  1  'x, y, z'
loop_
 _atom_site_type_symbol
 _atom_site_label
 _atom_site_symmetry_multiplicity
 _atom_site_fract_x
 _atom_site_fract_y
 _atom_site_fract_z
 _atom_site_occupancy
  Ba  Ba0  1  0.00000000  0.50000000  0.00000000  1
  Ba  Ba1  1  0.50000000  0.00000000  0.00000000  1
  Ba  Ba2  1  0.00000000  0.00000000  0.50000000  1
  Ba  Ba3  1  0.50000000  0.50000000  0.50000000  1
  Pd  Pd0  1  0.50000000  0.00000000  0.50000000  1
  Pd  Pd1  1  0.00000000  0.50000000  0.50000000  1
  Pd  Pd2  1  0.50000000  0.50000000  0.00000000  1
  Br  Br0  1  0.00000000  0.00000000  0.00000000  1
  O  O0  1  0.25000000  0.75000000  0.50000000  1
  O  O1  1  0.75000000  0.25000000  0.50000000  1
  O  O2  1  0.50000000  0.25000000  0.75000000  1
  O  O3  1  0.50000000  0.75000000  0.25000000  1
  O  O4  1  0.25000000  0.50000000  0.75000000  1
  O  O5  1  0.75000000  0.50000000  0.25000000  1
loop_
_geom_bond_atom_site_label_1
_geom_bond_atom_site_label_2
_geom_bond_distance
_geom_bond_site_symmetry_2
Ba0 O4 2.901078 1_554
Ba0 O5 2.901078 1_455
Ba0 O2 2.901078 1_454
Ba0 O1 2.901078 1_454
Ba0 O3 2.901078 1_555
Ba0 O0 2.901078 1_555
Ba0 Br0 3.553081 1_565
Ba0 Br0 3.553081 1_555
Ba1 O1 2.901078 1_555
Ba1 O2 2.901078 1_554
Ba1 O3 2.901078 1_545
Ba1 O0 2.901078 1_544
Ba1 O4 2.901078 1_544
Ba1 O5 2.901078 1_555
Ba1 Br0 3.553081 1_655
Ba1 Br0 3.553081 1_555
Ba2 O4 2.901078 1_555
Ba2 O1 2.901078 1_455
Ba2 O0 2.901078 1_545
Ba2 O2 2.901078 1_555
Ba2 O5 2.901078 1_445
Ba2 O3 2.901078 1_445
Ba2 Br0 3.553081 1_555
Ba2 Br0 3.553081 1_556
Ba3 O4 2.901078 1_555
Ba3 O1 2.901078 1_555
Ba3 O5 2.901078 1_555
Ba3 O2 2.901078 1_555
Ba3 O3 2.901078 1_555
Ba3 O0 2.901078 1_555
Ba3 Br0 3.553081 1_666
Ba3 Br0 3.553081 1_555
O0 Pd1 2.051372 1_555
O0 Pd0 2.051372 1_565
O1 Pd1 2.051372 1_655
O1 Pd0 2.051372 1_555
O2 Pd2 2.051372 1_556
O2 Pd0 2.051372 1_555
O3 Pd0 2.051372 1_565
O3 Pd2 2.051372 1_555
O4 Pd2 2.051372 1_556
O4 Pd1 2.051372 1_555
O5 Pd1 2.051372 1_655
O5 Pd2 2.051372 1_555
