# generated using pymatgen
data_Tl2Pt2O7
_symmetry_space_group_name_H-M   'P 1'
_cell_length_a   7.21623167
_cell_length_b   7.21623167
_cell_length_c   7.21623167
_cell_angle_alpha   60.00000000
_cell_angle_beta   60.00000000
_cell_angle_gamma   60.00000000
_symmetry_Int_Tables_number   1
_chemical_formula_structural   Tl2Pt2O7
_chemical_formula_sum   'Tl4 Pt4 O14'
_cell_volume   265.71520372
_cell_formula_units_Z   2
loop_
 _symmetry_equiv_pos_site_id
 _symmetry_equiv_pos_as_xyz
  1  'x, y, z'
loop_
 _atom_site_type_symbol
 _atom_site_label
 _atom_site_symmetry_multiplicity
 _atom_site_fract_x
 _atom_site_fract_y
 _atom_site_fract_z
 _atom_site_occupancy
  Tl  Tl0  1  0.62500000  0.62500000  0.62500000  1
  Tl  Tl1  1  0.12500000  0.62500000  0.62500000  1
  Tl  Tl2  1  0.62500000  0.62500000  0.12500000  1
  Tl  Tl3  1  0.62500000  0.12500000  0.62500000  1
  Pt  Pt0  1  0.12500000  0.12500000  0.12500000  1
  Pt  Pt1  1  0.62500000  0.12500000  0.12500000  1
  Pt  Pt2  1  0.12500000  0.12500000  0.62500000  1
  Pt  Pt3  1  0.12500000  0.62500000  0.12500000  1
  O  O0  1  0.46003549  0.46003549  0.03996451  1
  O  O1  1  0.21003549  0.21003549  0.78996451  1
  O  O2  1  0.03996451  0.46003549  0.03996451  1
  O  O3  1  0.03996451  0.46003549  0.46003549  1
  O  O4  1  0.46003549  0.03996451  0.03996451  1
  O  O5  1  0.46003549  0.03996451  0.46003549  1
  O  O6  1  0.21003549  0.78996451  0.21003549  1
  O  O7  1  0.78996451  0.21003549  0.78996451  1
  O  O8  1  0.75000000  0.75000000  0.75000000  1
  O  O9  1  0.50000000  0.50000000  0.50000000  1
  O  O10  1  0.03996451  0.03996451  0.46003549  1
  O  O11  1  0.78996451  0.21003549  0.21003549  1
  O  O12  1  0.21003549  0.78996451  0.78996451  1
  O  O13  1  0.78996451  0.78996451  0.21003549  1
loop_
_geom_bond_atom_site_label_1
_geom_bond_atom_site_label_2
_geom_bond_distance
_geom_bond_site_symmetry_2
O0 Pt3 2.001930 1_555
O0 Pt1 2.001930 1_555
O0 Tl0 2.467556 1_554
O0 Tl2 2.467556 1_555
O1 Pt2 2.001930 1_555
O1 Pt0 2.001930 1_556
O1 Tl1 2.467556 1_555
O1 Tl3 2.467556 1_555
O2 Pt3 2.001930 1_555
O2 Pt0 2.001930 1_555
O2 Tl1 2.467556 1_554
O2 Tl2 2.467556 1_455
O3 Pt3 2.001930 1_555
O3 Pt2 2.001930 1_555
O3 Tl1 2.467556 1_555
O3 Tl0 2.467556 1_455
O4 Pt1 2.001930 1_555
O4 Pt0 2.001930 1_555
O4 Tl3 2.467556 1_554
O4 Tl2 2.467556 1_545
O5 Pt1 2.001930 1_555
O5 Pt2 2.001930 1_555
O5 Tl3 2.467556 1_555
O5 Tl0 2.467556 1_545
O6 Pt3 2.001930 1_555
O6 Pt0 2.001930 1_565
O6 Tl1 2.467556 1_555
O6 Tl2 2.467556 1_555
O7 Pt1 2.001930 1_556
O7 Pt2 2.001930 1_655
O7 Tl3 2.467556 1_555
O7 Tl0 2.467556 1_555
O8 Tl1 2.209511 1_655
O8 Tl0 2.209511 1_555
O8 Tl2 2.209511 1_556
O8 Tl3 2.209511 1_565
O9 Tl1 2.209511 1_555
O9 Tl0 2.209511 1_555
O9 Tl2 2.209511 1_555
O9 Tl3 2.209511 1_555
O10 Pt0 2.001930 1_555
O10 Pt2 2.001930 1_555
O10 Tl3 2.467556 1_455
O10 Tl1 2.467556 1_545
O11 Pt0 2.001930 1_655
O11 Pt1 2.001930 1_555
O11 Tl3 2.467556 1_555
O11 Tl2 2.467556 1_555
O12 Pt2 2.001930 1_565
O12 Pt3 2.001930 1_556
O12 Tl1 2.467556 1_555
O12 Tl0 2.467556 1_555
O13 Pt1 2.001930 1_565
O13 Pt3 2.001930 1_655
O13 Tl2 2.467556 1_555
O13 Tl0 2.467556 1_555
