# generated using pymatgen
data_BaCa(SnO2)4
_symmetry_space_group_name_H-M   'P 1'
_cell_length_a   6.12574630
_cell_length_b   6.12574630
_cell_length_c   7.06289100
_cell_angle_alpha   90.00000000
_cell_angle_beta   90.00000000
_cell_angle_gamma   120.00000324
_symmetry_Int_Tables_number   1
_chemical_formula_structural   BaCa(SnO2)4
_chemical_formula_sum   'Ba1 Ca1 Sn4 O8'
_cell_volume   229.52560153
_cell_formula_units_Z   1
loop_
 _symmetry_equiv_pos_site_id
 _symmetry_equiv_pos_as_xyz
  1  'x, y, z'
loop_
 _atom_site_type_symbol
 _atom_site_label
 _atom_site_symmetry_multiplicity
 _atom_site_fract_x
 _atom_site_fract_y
 _atom_site_fract_z
 _atom_site_occupancy
  Ba  Ba0  1  0.00000000  0.00000000  0.00000000  1
  Ca  Ca0  1  0.00000000  0.00000000  0.50000000  1
  Sn  Sn0  1  0.33333300  0.66666700  0.71435600  1
  Sn  Sn1  1  0.66666700  0.33333300  0.71435600  1
  Sn  Sn2  1  0.33333300  0.66666700  0.28564400  1
  Sn  Sn3  1  0.66666700  0.33333300  0.28564400  1
  O  O0  1  0.30535200  0.30535200  0.70842100  1
  O  O1  1  0.69464800  0.00000000  0.70842100  1
  O  O2  1  0.00000000  0.69464800  0.70842100  1
  O  O3  1  0.69464800  0.69464800  0.29157900  1
  O  O4  1  0.00000000  0.30535200  0.29157900  1
  O  O5  1  0.30535200  0.00000000  0.29157900  1
  O  O6  1  0.33333300  0.66666700  0.00000000  1
  O  O7  1  0.66666700  0.33333300  0.00000000  1
loop_
_geom_bond_atom_site_label_1
_geom_bond_atom_site_label_2
_geom_bond_distance
_geom_bond_site_symmetry_2
Ba0 O3 2.782066 1_445
Ba0 O0 2.782066 1_554
Ba0 O1 2.782066 1_454
Ba0 O2 2.782066 1_544
Ba0 O4 2.782066 1_555
Ba0 O5 2.782066 1_555
Ca0 O3 2.380283 1_445
Ca0 O0 2.380283 1_555
Ca0 O2 2.380283 1_545
Ca0 O1 2.380283 1_455
Ca0 O5 2.380283 1_555
Ca0 O4 2.380283 1_555
O0 Sn0 2.133206 1_555
O0 Sn1 2.133206 1_555
O1 Sn1 2.133200 1_555
O1 Sn0 2.133203 1_545
O2 Sn0 2.133200 1_555
O2 Sn1 2.133203 1_455
O3 Sn2 2.133206 1_555
O3 Sn3 2.133206 1_555
O4 Sn3 2.133200 1_455
O4 Sn2 2.133203 1_555
O5 Sn2 2.133200 1_545
O5 Sn3 2.133203 1_555
O6 Sn0 2.017472 1_554
O6 Sn2 2.017472 1_555
O7 Sn1 2.017472 1_554
O7 Sn3 2.017472 1_555
