# generated using pymatgen
data_K5NaRu(IO11)2
_symmetry_space_group_name_H-M   'P 1'
_cell_length_a   14.11590376
_cell_length_b   14.11590376
_cell_length_c   11.83425640
_cell_angle_alpha   82.15855813
_cell_angle_beta   82.15855813
_cell_angle_gamma   30.19326024
_symmetry_Int_Tables_number   1
_chemical_formula_structural   K5NaRu(IO11)2
_chemical_formula_sum   'K10 Na2 Ru2 I4 O44'
_cell_volume   1174.02095349
_cell_formula_units_Z   2
loop_
 _symmetry_equiv_pos_site_id
 _symmetry_equiv_pos_as_xyz
  1  'x, y, z'
loop_
 _atom_site_type_symbol
 _atom_site_label
 _atom_site_symmetry_multiplicity
 _atom_site_fract_x
 _atom_site_fract_y
 _atom_site_fract_z
 _atom_site_occupancy
  K  K0  1  0.50914900  0.18684500  0.75935900  1
  K  K1  1  0.79356000  0.52465900  0.76186200  1
  K  K2  1  0.52465900  0.79356000  0.26186200  1
  K  K3  1  0.18684500  0.50914900  0.25935900  1
  K  K4  1  0.61583700  0.05614300  0.44132400  1
  K  K5  1  0.96616700  0.38153800  0.07383000  1
  K  K6  1  0.38153800  0.96616700  0.57383000  1
  K  K7  1  0.05614300  0.61583700  0.94132400  1
  K  K8  1  0.26849100  0.68881300  0.58479300  1
  K  K9  1  0.68881300  0.26849100  0.08479300  1
  Na  Na0  1  0.25458700  0.83149700  0.21712200  1
  Na  Na1  1  0.83149700  0.25458700  0.71712200  1
  Ru  Ru0  1  0.99435400  0.49945400  0.50991100  1
  Ru  Ru1  1  0.49945400  0.99435400  0.00991100  1
  I  I0  1  0.07366700  0.62712500  0.59468700  1
  I  I1  1  0.33066000  0.96438200  0.90755600  1
  I  I2  1  0.96438200  0.33066000  0.40755600  1
  I  I3  1  0.62712500  0.07366700  0.09468700  1
  O  O0  1  0.97230200  0.65131300  0.45945900  1
  O  O1  1  0.32990300  0.00852900  0.05816500  1
  O  O2  1  0.00852900  0.32990300  0.55816500  1
  O  O3  1  0.65131300  0.97230200  0.95945900  1
  O  O4  1  0.98810700  0.81867800  0.52269500  1
  O  O5  1  0.17129300  0.96390600  0.00610900  1
  O  O6  1  0.96390600  0.17129300  0.50610900  1
  O  O7  1  0.81867800  0.98810700  0.02269500  1
  O  O8  1  0.16960700  0.57718500  0.72534000  1
  O  O9  1  0.40326600  0.83653100  0.78883100  1
  O  O10  1  0.83653100  0.40326600  0.28883100  1
  O  O11  1  0.57718500  0.16960700  0.22534000  1
  O  O12  1  0.81584400  0.10911100  0.68270200  1
  O  O13  1  0.77457700  0.32896900  0.90108500  1
  O  O14  1  0.32896900  0.77457700  0.40108500  1
  O  O15  1  0.10911100  0.81584400  0.18270200  1
  O  O16  1  0.81513400  0.85442400  0.64750700  1
  O  O17  1  0.10808400  0.20667900  0.86168500  1
  O  O18  1  0.20667900  0.10808400  0.36168500  1
  O  O19  1  0.85442400  0.81513400  0.14750700  1
  O  O20  1  0.30610800  0.43170900  0.51802400  1
  O  O21  1  0.57406100  0.61779600  0.00164600  1
  O  O22  1  0.61779600  0.57406100  0.50164600  1
  O  O23  1  0.43170900  0.30610800  0.01802400  1
  O  O24  1  0.28351200  0.65547300  0.34004300  1
  O  O25  1  0.55372400  0.60450600  0.10822100  1
  O  O26  1  0.60450600  0.55372400  0.60822100  1
  O  O27  1  0.65547300  0.28351200  0.84004300  1
  O  O28  1  0.08337800  0.47331100  0.64521800  1
  O  O29  1  0.51324400  0.90703300  0.86332800  1
  O  O30  1  0.90703300  0.51324400  0.36332800  1
  O  O31  1  0.47331100  0.08337800  0.14521800  1
  O  O32  1  0.46667600  0.04334300  0.69119800  1
  O  O33  1  0.94976700  0.55687200  0.81366600  1
  O  O34  1  0.55687200  0.94976700  0.31366600  1
  O  O35  1  0.04334300  0.46667600  0.19119800  1
  O  O36  1  0.12441800  0.76729500  0.29372900  1
  O  O37  1  0.02975100  0.10754300  0.06992800  1
  O  O38  1  0.10754300  0.02975100  0.56992800  1
  O  O39  1  0.76729600  0.12441800  0.79372900  1
  O  O40  1  0.75977100  0.67911400  0.55976400  1
  O  O41  1  0.28373100  0.22409400  0.95701300  1
  O  O42  1  0.22409400  0.28373100  0.45701300  1
  O  O43  1  0.67911400  0.75977100  0.05976400  1
loop_
_geom_bond_atom_site_label_1
_geom_bond_atom_site_label_2
_geom_bond_distance
_geom_bond_site_symmetry_2
K0 O16 2.743260 1_545
K0 O3 2.764107 1_545
K0 O8 2.786238 1_555
K0 O32 2.791173 1_555
K0 O39 2.996034 1_555
K1 O17 2.605646 1_655
K1 O33 2.760946 1_555
K1 O40 2.791410 1_555
K1 O9 2.794964 1_555
K1 O2 2.822811 1_655
K1 O29 3.127994 1_555
K1 O26 3.134295 1_555
K1 O13 3.214677 1_555
K1 O21 3.310308 1_556
K2 O18 2.605646 1_565
K2 O34 2.760946 1_555
K2 O43 2.791410 1_555
K2 O10 2.794964 1_555
K2 O1 2.822811 1_565
K2 O30 3.127994 1_555
K2 O25 3.134295 1_555
K2 O14 3.214677 1_555
K2 O22 3.310308 1_555
K3 O19 2.743260 1_455
K3 O0 2.764107 1_455
K3 O11 2.786238 1_555
K3 O35 2.791173 1_555
K3 O36 2.996020 1_555
K4 O11 2.673759 1_555
K4 O16 2.847042 1_545
K4 O20 2.864758 1_555
K4 O0 2.876494 1_545
K4 O34 2.890083 1_545
K4 O4 3.134923 1_545
K4 O42 3.179107 1_555
K5 O1 2.719104 1_655
K5 O43 2.737859 1_555
K5 O35 2.773442 1_655
K5 O10 2.808703 1_555
K5 O17 2.859972 1_654
K5 O41 2.978323 1_654
K5 O37 3.131007 1_655
K5 O21 3.330277 1_555
K6 O2 2.719104 1_565
K6 O40 2.737859 1_555
K6 O32 2.773442 1_565
K6 O9 2.808703 1_555
K6 O18 2.859972 1_565
K6 O42 2.978323 1_565
K6 O38 3.131007 1_565
K6 O22 3.330277 1_555
K7 O8 2.673759 1_555
K7 O19 2.847042 1_456
K7 O23 2.864758 1_556
K7 O3 2.876494 1_455
K7 O33 2.890083 1_455
K7 O7 3.134923 1_456
K7 O41 3.179107 1_555
K8 O4 2.729311 1_455
K8 O14 2.735496 1_555
K8 O24 2.947482 1_555
K8 O38 3.054668 1_565
K8 O8 3.106647 1_555
K8 O26 3.284797 1_555
K9 O7 2.729311 1_545
K9 O13 2.735496 1_554
K9 O27 2.947482 1_554
K9 O37 3.054668 1_655
K9 O11 3.106647 1_555
K9 O25 3.284797 1_555
Na0 O14 2.275017 1_555
Na0 O15 2.338563 1_555
Na0 O24 2.424613 1_555
Na0 O25 2.451742 1_555
Na0 O37 2.562977 1_565
Na0 O5 2.615426 1_555
Na1 O13 2.275017 1_555
Na1 O12 2.338563 1_555
Na1 O27 2.424613 1_555
Na1 O26 2.451742 1_555
Na1 O38 2.562977 1_655
Na1 O6 2.615426 1_555
I0 O8 1.829016 1_555
I0 O20 1.850044 1_555
I0 O4 1.871550 1_455
I0 O16 1.920164 1_455
I0 O28 2.060142 1_555
I0 O0 2.087140 1_455
I1 O17 1.801849 1_565
I1 O9 1.839313 1_555
I1 O29 1.926845 1_555
I1 O1 1.962545 1_566
I1 O5 2.393557 1_556
I2 O18 1.801849 1_655
I2 O10 1.839313 1_555
I2 O30 1.926845 1_555
I2 O2 1.962545 1_655
I2 O6 2.393557 1_555
I3 O11 1.829016 1_555
I3 O23 1.850044 1_555
I3 O7 1.871550 1_545
I3 O19 1.920164 1_545
I3 O31 2.060142 1_555
I3 O3 2.087140 1_544
O0 Ru0 1.896444 1_555
O1 Ru1 2.219173 1_545
O2 Ru0 2.219173 1_455
O3 Ru1 1.896444 1_556
O12 O39 1.348523 1_555
O15 O36 1.348526 1_555
O21 O25 1.279868 1_555
O22 O26 1.279868 1_555
O24 O36 1.344360 1_555
O27 O39 1.344356 1_555
O28 Ru0 1.966101 1_455
O29 Ru1 2.154750 1_556
O30 Ru0 2.154750 1_555
O31 Ru1 1.966101 1_545
O37 O5 1.294819 1_545
O38 O6 1.294819 1_455
O40 Ru0 1.761512 1_555
O41 Ru1 1.754060 1_546
O42 Ru0 1.754060 1_455
O43 Ru1 1.761512 1_555
