# generated using pymatgen
data_Si
_symmetry_space_group_name_H-M   'P 1'
_cell_length_a   10.36662954
_cell_length_b   10.36662717
_cell_length_c   16.97027249
_cell_angle_alpha   90.00000000
_cell_angle_beta   90.00000000
_cell_angle_gamma   119.99996436
_symmetry_Int_Tables_number   1
_chemical_formula_structural   Si
_chemical_formula_sum   Si68
_cell_volume   1579.40919510
_cell_formula_units_Z   68
loop_
 _symmetry_equiv_pos_site_id
 _symmetry_equiv_pos_as_xyz
  1  'x, y, z'
loop_
 _atom_site_type_symbol
 _atom_site_label
 _atom_site_symmetry_multiplicity
 _atom_site_fract_x
 _atom_site_fract_y
 _atom_site_fract_z
 _atom_site_occupancy
  Si  Si0  1  0.95006076  0.66941597  0.56452266  1
  Si  Si1  1  0.71935521  0.04993924  0.56452366  1
  Si  Si2  1  0.33058503  0.28064479  0.56452266  1
  Si  Si3  1  0.71935321  0.66941397  0.56452366  1
  Si  Si4  1  0.33058603  0.04993924  0.56452366  1
  Si  Si5  1  0.95006076  0.28064579  0.56452366  1
  Si  Si6  1  0.04993924  0.33058403  0.43547534  1
  Si  Si7  1  0.28064479  0.95006076  0.43547534  1
  Si  Si8  1  0.66941597  0.71935521  0.43547534  1
  Si  Si9  1  0.28064679  0.33058603  0.43547534  1
  Si  Si10  1  0.66941497  0.95006076  0.43547534  1
  Si  Si11  1  0.04993924  0.71935421  0.43547534  1
  Si  Si12  1  0.04994024  0.33058403  0.06452466  1
  Si  Si13  1  0.28064479  0.95005976  0.06452466  1
  Si  Si14  1  0.66941497  0.71935521  0.06452466  1
  Si  Si15  1  0.28064679  0.33058603  0.06452466  1
  Si  Si16  1  0.66941397  0.95005976  0.06452466  1
  Si  Si17  1  0.04994024  0.71935421  0.06452466  1
  Si  Si18  1  0.95005976  0.66941597  0.93547734  1
  Si  Si19  1  0.71935521  0.04994024  0.93547634  1
  Si  Si20  1  0.33058503  0.28064479  0.93547634  1
  Si  Si21  1  0.71935321  0.66941397  0.93547634  1
  Si  Si22  1  0.33058603  0.04994024  0.93547634  1
  Si  Si23  1  0.95005976  0.28064579  0.93547634  1
  Si  Si24  1  0.91572454  0.45786277  0.86478307  1
  Si  Si25  1  0.54213923  0.08427546  0.86478307  1
  Si  Si26  1  0.54213723  0.45786077  0.86478307  1
  Si  Si27  1  0.08427546  0.54213723  0.13521793  1
  Si  Si28  1  0.45786077  0.91572454  0.13521793  1
  Si  Si29  1  0.45786277  0.54213923  0.13521793  1
  Si  Si30  1  0.08427646  0.54213723  0.36478107  1
  Si  Si31  1  0.45786077  0.91572354  0.36478107  1
  Si  Si32  1  0.45786277  0.54214023  0.36478107  1
  Si  Si33  1  0.91572354  0.45786277  0.63521793  1
  Si  Si34  1  0.54213923  0.08427646  0.63521793  1
  Si  Si35  1  0.54213723  0.45785977  0.63521793  1
  Si  Si36  1  0.87645037  0.12354863  0.36130919  1
  Si  Si37  1  0.24709825  0.12354963  0.36130919  1
  Si  Si38  1  0.87645037  0.75290175  0.36130919  1
  Si  Si39  1  0.12354963  0.87645137  0.63868881  1
  Si  Si40  1  0.75290175  0.87645037  0.63868881  1
  Si  Si41  1  0.12354963  0.24709825  0.63868881  1
  Si  Si42  1  0.12354963  0.87645137  0.86131119  1
  Si  Si43  1  0.75290175  0.87645037  0.86131119  1
  Si  Si44  1  0.12354963  0.24709825  0.86131119  1
  Si  Si45  1  0.87645037  0.12354863  0.13869081  1
  Si  Si46  1  0.24709825  0.12354963  0.13868981  1
  Si  Si47  1  0.87645037  0.75290175  0.13868981  1
  Si  Si48  1  0.66666700  0.33333300  0.81965040  1
  Si  Si49  1  0.33333300  0.66666700  0.18035160  1
  Si  Si50  1  0.33333300  0.66666700  0.31964840  1
  Si  Si51  1  0.66666700  0.33333300  0.68035060  1
  Si  Si52  1  -0.00000000  -0.00000000  0.81830178  1
  Si  Si53  1  -0.00000000  -0.00000000  0.18169922  1
  Si  Si54  1  -0.00000000  -0.00000000  0.31829978  1
  Si  Si55  1  -0.00000000  -0.00000000  0.68169922  1
  Si  Si56  1  0.93042857  0.46521428  0.25000000  1
  Si  Si57  1  0.53478672  0.06957143  0.25000000  1
  Si  Si58  1  0.53478472  0.46521328  0.25000000  1
  Si  Si59  1  0.06957243  0.53478572  0.75000000  1
  Si  Si60  1  0.46521228  0.93042757  0.75000000  1
  Si  Si61  1  0.46521428  0.53478772  0.75000000  1
  Si  Si62  1  0.79765372  0.20234828  0.25000000  1
  Si  Si63  1  0.40469355  0.20234628  0.25000000  1
  Si  Si64  1  0.79765172  0.59530645  0.25000000  1
  Si  Si65  1  0.20234628  0.79765172  0.75000000  1
  Si  Si66  1  0.59530545  0.79765272  0.75000000  1
  Si  Si67  1  0.20234928  0.40469455  0.75000000  1
loop_
_geom_bond_atom_site_label_1
_geom_bond_atom_site_label_2
_geom_bond_distance
_geom_bond_site_symmetry_2
Si0 Si39 2.359047 1_655
Si0 Si33 2.365382 1_555
Si0 Si11 2.366433 1_655
Si0 Si3 2.391649 1_555
Si1 Si40 2.359037 1_545
Si1 Si34 2.365374 1_555
Si1 Si10 2.366449 1_545
Si1 Si5 2.391645 1_555
Si2 Si41 2.359047 1_555
Si2 Si35 2.365375 1_555
Si2 Si9 2.366436 1_555
Si2 Si4 2.391644 1_555
Si3 Si40 2.359039 1_555
Si3 Si35 2.365380 1_555
Si3 Si8 2.366449 1_555
Si4 Si7 2.366449 1_545
Si5 Si6 2.366449 1_655
Si6 Si9 2.391649 1_555
Si10 Si36 2.359044 1_565
Si10 Si31 2.365383 1_555
Si10 Si8 2.391644 1_555
Si11 Si38 2.359052 1_455
Si11 Si30 2.365382 1_555
Si11 Si7 2.391645 1_555
Si12 Si45 2.359050 1_455
Si12 Si27 2.365372 1_555
Si12 Si23 2.366456 1_454
Si12 Si15 2.391639 1_555
Si13 Si46 2.359046 1_565
Si13 Si28 2.365354 1_555
Si13 Si22 2.366456 1_564
Si13 Si17 2.391635 1_555
Si14 Si47 2.359038 1_555
Si14 Si29 2.365361 1_555
Si14 Si21 2.366452 1_554
Si14 Si16 2.391633 1_555
Si15 Si46 2.359039 1_555
Si15 Si29 2.365366 1_555
Si15 Si20 2.366452 1_554
Si16 Si45 2.359053 1_565
Si16 Si28 2.365372 1_555
Si16 Si19 2.366456 1_564
Si17 Si47 2.359051 1_455
Si17 Si27 2.365363 1_555
Si17 Si18 2.366440 1_454
Si18 Si42 2.359050 1_655
Si18 Si24 2.365380 1_555
Si18 Si21 2.391639 1_555
Si19 Si43 2.359046 1_545
Si19 Si25 2.365354 1_555
Si19 Si23 2.391635 1_555
Si20 Si44 2.359038 1_555
Si20 Si26 2.365361 1_555
Si20 Si22 2.391633 1_555
Si21 Si43 2.359039 1_555
Si21 Si26 2.365366 1_555
Si22 Si42 2.359044 1_545
Si22 Si25 2.365372 1_555
Si23 Si44 2.359051 1_655
Si23 Si24 2.365363 1_555
Si24 Si48 2.363521 1_555
Si24 Si59 2.387898 1_655
Si25 Si48 2.363521 1_555
Si25 Si60 2.387898 1_545
Si26 Si48 2.363520 1_555
Si26 Si61 2.387908 1_555
Si27 Si49 2.363527 1_555
Si27 Si56 2.387879 1_455
Si28 Si49 2.363526 1_555
Si28 Si57 2.387879 1_565
Si29 Si49 2.363526 1_555
Si29 Si58 2.387884 1_555
Si30 Si50 2.363513 1_555
Si30 Si6 2.365374 1_555
Si30 Si56 2.387870 1_455
Si31 Si50 2.363512 1_555
Si31 Si7 2.365374 1_555
Si31 Si57 2.387870 1_565
Si32 Si50 2.363512 1_555
Si32 Si8 2.365372 1_555
Si32 Si9 2.365380 1_555
Si32 Si58 2.387875 1_555
Si33 Si51 2.363513 1_555
Si33 Si5 2.365382 1_555
Si33 Si59 2.387889 1_655
Si34 Si51 2.363512 1_555
Si34 Si4 2.365374 1_555
Si34 Si60 2.387889 1_545
Si35 Si51 2.363512 1_555
Si35 Si61 2.387899 1_555
Si36 Si54 2.335375 1_655
Si36 Si6 2.359047 1_655
Si36 Si62 2.360076 1_555
Si37 Si54 2.335377 1_555
Si37 Si7 2.359046 1_545
Si37 Si9 2.359048 1_555
Si37 Si63 2.360071 1_555
Si38 Si54 2.335376 1_665
Si38 Si8 2.359038 1_555
Si38 Si64 2.360071 1_555
Si39 Si55 2.335381 1_565
Si39 Si4 2.359040 1_565
Si39 Si65 2.360103 1_555
Si40 Si55 2.335382 1_665
Si40 Si66 2.360103 1_555
Si41 Si55 2.335381 1_555
Si41 Si5 2.359043 1_455
Si41 Si67 2.360103 1_555
Si42 Si52 2.335375 1_565
Si42 Si65 2.360103 1_555
Si43 Si52 2.335377 1_665
Si43 Si66 2.360103 1_555
Si44 Si52 2.335376 1_555
Si44 Si67 2.360103 1_555
Si45 Si53 2.335370 1_655
Si45 Si62 2.360076 1_555
Si46 Si53 2.335377 1_555
Si46 Si63 2.360084 1_555
Si47 Si53 2.335376 1_665
Si47 Si64 2.360084 1_555
Si48 Si51 2.363956 1_555
Si49 Si50 2.363905 1_555
Si52 Si55 2.318183 1_555
Si53 Si54 2.318149 1_555
Si56 Si62 2.359990 1_555
Si56 Si64 2.360017 1_555
Si57 Si62 2.360000 1_555
Si57 Si63 2.360007 1_555
Si58 Si63 2.359999 1_555
Si58 Si64 2.360000 1_555
Si59 Si65 2.359990 1_555
Si59 Si67 2.360008 1_555
Si60 Si65 2.359991 1_555
Si60 Si66 2.360007 1_555
Si61 Si66 2.359981 1_555
Si61 Si67 2.359982 1_555
