# generated using pymatgen
data_Ca4Fe5(TeO6)3
_symmetry_space_group_name_H-M   'P 1'
_cell_length_a   9.06091101
_cell_length_b   9.06091101
_cell_length_c   10.81541885
_cell_angle_alpha   84.17158052
_cell_angle_beta   84.17158052
_cell_angle_gamma   68.10425070
_symmetry_Int_Tables_number   1
_chemical_formula_structural   Ca4Fe5(TeO6)3
_chemical_formula_sum   'Ca8 Fe10 Te6 O36'
_cell_volume   817.68214088
_cell_formula_units_Z   2
loop_
 _symmetry_equiv_pos_site_id
 _symmetry_equiv_pos_as_xyz
  1  'x, y, z'
loop_
 _atom_site_type_symbol
 _atom_site_label
 _atom_site_symmetry_multiplicity
 _atom_site_fract_x
 _atom_site_fract_y
 _atom_site_fract_z
 _atom_site_occupancy
  Ca  Ca0  1  0.38004000  0.05348100  0.14080000  1
  Ca  Ca1  1  0.37416800  0.71667200  0.98203900  1
  Ca  Ca2  1  0.94651900  0.61996000  0.35920000  1
  Ca  Ca3  1  0.28332800  0.62583200  0.51796100  1
  Ca  Ca4  1  0.71667200  0.37416800  0.48203900  1
  Ca  Ca5  1  0.05348100  0.38004000  0.64080000  1
  Ca  Ca6  1  0.61996000  0.94651900  0.85920000  1
  Ca  Ca7  1  0.62583200  0.28332800  0.01796100  1
  Fe  Fe0  1  0.25870700  0.99143600  0.72001900  1
  Fe  Fe1  1  0.99143600  0.25870700  0.22001900  1
  Fe  Fe2  1  0.13637300  0.51675700  0.07648400  1
  Fe  Fe3  1  0.51675700  0.13637300  0.57648400  1
  Fe  Fe4  1  0.48324300  0.86362700  0.42351600  1
  Fe  Fe5  1  0.84037700  0.15962300  0.75000000  1
  Fe  Fe6  1  0.15962300  0.84037700  0.25000000  1
  Fe  Fe7  1  0.86362700  0.48324300  0.92351600  1
  Fe  Fe8  1  0.74129300  0.00856400  0.27998100  1
  Fe  Fe9  1  0.00856400  0.74129300  0.77998100  1
  Te  Te0  1  0.64910500  0.67241000  0.66364700  1
  Te  Te1  1  0.00000000  0.00000000  0.00000000  1
  Te  Te2  1  0.00000000  0.00000000  0.50000000  1
  Te  Te3  1  0.67241000  0.64910500  0.16364700  1
  Te  Te4  1  0.35089500  0.32759000  0.33635300  1
  Te  Te5  1  0.32759000  0.35089500  0.83635300  1
  O  O0  1  0.83367600  0.57014500  0.55569200  1
  O  O1  1  0.21802900  0.91868800  0.56342900  1
  O  O2  1  0.37993900  0.82238200  0.29883700  1
  O  O3  1  0.92618000  0.92944000  0.16523900  1
  O  O4  1  0.08131200  0.78197100  0.93657100  1
  O  O5  1  0.07056000  0.07382000  0.33476100  1
  O  O6  1  0.64523300  0.52685700  0.02856900  1
  O  O7  1  0.94687100  0.20511800  0.56808200  1
  O  O8  1  0.05312900  0.79488200  0.43191800  1
  O  O9  1  0.17970400  0.30662100  0.18171800  1
  O  O10  1  0.42361100  0.83939400  0.80290600  1
  O  O11  1  0.82029600  0.69337900  0.81828200  1
  O  O12  1  0.78197100  0.08131200  0.43657100  1
  O  O13  1  0.59302700  0.89136600  0.58553100  1
  O  O14  1  0.16060600  0.57638900  0.69709400  1
  O  O15  1  0.35476700  0.47314300  0.97143100  1
  O  O16  1  0.57638900  0.16060600  0.19709400  1
  O  O17  1  0.10863400  0.40697300  0.91446900  1
  O  O18  1  0.17761800  0.62006100  0.20116300  1
  O  O19  1  0.83939400  0.42361100  0.30290600  1
  O  O20  1  0.57014500  0.83367600  0.05569200  1
  O  O21  1  0.40697300  0.10863400  0.41446900  1
  O  O22  1  0.79488200  0.05312900  0.93191800  1
  O  O23  1  0.52685700  0.64523300  0.52856900  1
  O  O24  1  0.62006100  0.17761800  0.70116300  1
  O  O25  1  0.92944000  0.92618000  0.66523900  1
  O  O26  1  0.30662100  0.17970400  0.68171800  1
  O  O27  1  0.47314300  0.35476700  0.47143100  1
  O  O28  1  0.91868800  0.21802900  0.06342900  1
  O  O29  1  0.89136600  0.59302700  0.08553100  1
  O  O30  1  0.16632400  0.42985500  0.44430800  1
  O  O31  1  0.07382000  0.07056000  0.83476100  1
  O  O32  1  0.20511800  0.94687100  0.06808200  1
  O  O33  1  0.69337900  0.82029600  0.31828200  1
  O  O34  1  0.82238200  0.37993900  0.79883700  1
  O  O35  1  0.42985500  0.16632400  0.94430800  1
loop_
_geom_bond_atom_site_label_1
_geom_bond_atom_site_label_2
_geom_bond_distance
_geom_bond_site_symmetry_2
Ca0 O20 2.296211 1_545
Ca0 O35 2.339546 1_554
Ca0 O32 2.369202 1_545
Ca0 O9 2.385274 1_555
Ca0 O16 2.471042 1_555
Ca0 O2 2.565227 1_545
Ca1 O10 2.224505 1_555
Ca1 O15 2.293022 1_555
Ca1 O32 2.298843 1_556
Ca1 O6 2.483618 1_556
Ca1 O4 2.582273 1_555
Ca1 O20 2.602808 1_556
Ca2 O30 2.296211 1_655
Ca2 O0 2.339546 1_555
Ca2 O8 2.369202 1_655
Ca2 O33 2.385274 1_555
Ca2 O19 2.471042 1_555
Ca2 O18 2.565227 1_655
Ca3 O14 2.224505 1_555
Ca3 O23 2.293022 1_555
Ca3 O8 2.298843 1_555
Ca3 O27 2.483618 1_555
Ca3 O1 2.582273 1_555
Ca3 O30 2.602808 1_555
Ca4 O19 2.224505 1_555
Ca4 O27 2.293022 1_555
Ca4 O7 2.298843 1_555
Ca4 O23 2.483618 1_555
Ca4 O12 2.582273 1_555
Ca4 O0 2.602808 1_555
Ca5 O0 2.296211 1_455
Ca5 O30 2.339546 1_555
Ca5 O7 2.369202 1_455
Ca5 O26 2.385274 1_555
Ca5 O14 2.471042 1_555
Ca5 O34 2.565227 1_455
Ca6 O35 2.296211 1_565
Ca6 O20 2.339546 1_556
Ca6 O22 2.369202 1_565
Ca6 O11 2.385274 1_555
Ca6 O10 2.471042 1_555
Ca6 O24 2.565227 1_565
Ca7 O16 2.224505 1_555
Ca7 O6 2.293022 1_555
Ca7 O22 2.298843 1_554
Ca7 O15 2.483618 1_554
Ca7 O28 2.582273 1_555
Ca7 O35 2.602808 1_554
Fe0 O10 1.849339 1_555
Fe0 O26 1.908513 1_565
Fe0 O31 1.929550 1_565
Fe0 O1 1.993313 1_555
Fe1 O19 1.849339 1_555
Fe1 O9 1.908513 1_655
Fe1 O5 1.929550 1_655
Fe1 O28 1.993313 1_555
Fe2 O18 1.858426 1_555
Fe2 O9 2.041547 1_555
Fe2 O29 2.059337 1_455
Fe2 O15 2.101011 1_554
Fe2 O17 2.180146 1_554
Fe2 O4 2.614215 1_554
Fe3 O24 1.858426 1_555
Fe3 O26 2.041547 1_555
Fe3 O13 2.059337 1_545
Fe3 O27 2.101011 1_555
Fe3 O21 2.180146 1_555
Fe3 O12 2.614215 1_555
Fe4 O2 1.858426 1_555
Fe4 O33 2.041547 1_555
Fe4 O21 2.059337 1_565
Fe4 O23 2.101011 1_555
Fe4 O13 2.180146 1_555
Fe4 O1 2.614215 1_555
Fe5 O34 2.060227 1_555
Fe5 O24 2.060227 1_555
Fe5 O7 2.172214 1_555
Fe5 O22 2.172214 1_555
Fe5 O25 2.221752 1_545
Fe5 O31 2.221752 1_655
Fe6 O2 2.060227 1_555
Fe6 O18 2.060227 1_555
Fe6 O32 2.172214 1_555
Fe6 O8 2.172214 1_555
Fe6 O3 2.221752 1_455
Fe6 O5 2.221752 1_565
Fe7 O34 1.858426 1_555
Fe7 O11 2.041547 1_555
Fe7 O17 2.059337 1_655
Fe7 O6 2.101011 1_556
Fe7 O29 2.180146 1_556
Fe7 O28 2.614215 1_556
Fe8 O16 1.849339 1_555
Fe8 O33 1.908513 1_545
Fe8 O3 1.929550 1_545
Fe8 O12 1.993313 1_555
Fe9 O14 1.849339 1_555
Fe9 O11 1.908513 1_455
Fe9 O25 1.929550 1_455
Fe9 O4 1.993313 1_555
O0 Te0 1.919916 1_555
O1 Te2 2.000805 1_565
O3 Te1 1.973345 1_665
O4 Te1 2.000805 1_566
O5 Te2 1.973345 1_555
O6 Te3 2.006753 1_555
O7 Te2 1.940828 1_655
O8 Te2 1.940828 1_565
O9 Te4 2.459765 1_555
O10 Te0 2.502891 1_555
O11 Te0 2.459765 1_555
O12 Te2 2.000805 1_655
O13 Te0 1.975574 1_555
O14 Te5 2.502891 1_555
O15 Te5 2.006753 1_555
O16 Te4 2.502891 1_555
O17 Te5 1.975574 1_555
O19 Te3 2.502891 1_555
O20 Te3 1.919916 1_555
O21 Te4 1.975574 1_555
O22 Te1 1.940828 1_656
O23 Te0 2.006753 1_555
O25 Te2 1.973345 1_665
O26 Te5 2.459765 1_555
O27 Te4 2.006753 1_555
O28 Te1 2.000805 1_655
O29 Te3 1.975574 1_555
O30 Te4 1.919916 1_555
O31 Te1 1.973345 1_556
O32 Te1 1.940828 1_565
O33 Te3 2.459765 1_555
O35 Te5 1.919916 1_555
