# generated using pymatgen
data_La2(InSn)3
_symmetry_space_group_name_H-M   'P 1'
_cell_length_a   4.82852643
_cell_length_b   4.81947643
_cell_length_c   9.42311331
_cell_angle_alpha   90.00000000
_cell_angle_beta   90.00000000
_cell_angle_gamma   90.00000000
_symmetry_Int_Tables_number   1
_chemical_formula_structural   La2(InSn)3
_chemical_formula_sum   'La2 In3 Sn3'
_cell_volume   219.28498075
_cell_formula_units_Z   1
loop_
 _symmetry_equiv_pos_site_id
 _symmetry_equiv_pos_as_xyz
  1  'x, y, z'
loop_
 _atom_site_type_symbol
 _atom_site_label
 _atom_site_symmetry_multiplicity
 _atom_site_fract_x
 _atom_site_fract_y
 _atom_site_fract_z
 _atom_site_occupancy
  La  La0  1  0.00000000  -0.00000000  0.74726456  1
  La  La1  1  0.00000000  -0.00000000  0.25273544  1
  In  In0  1  0.50000000  0.50000000  0.75318800  1
  In  In1  1  0.50000000  0.50000000  0.24681200  1
  In  In2  1  0.50000000  -0.00000000  -0.00000000  1
  Sn  Sn0  1  0.50000000  -0.00000000  0.50000000  1
  Sn  Sn1  1  -0.00000000  0.50000000  -0.00000000  1
  Sn  Sn2  1  0.00000000  0.50000000  0.50000000  1
loop_
_geom_bond_atom_site_label_1
_geom_bond_atom_site_label_2
_geom_bond_distance
_geom_bond_site_symmetry_2
La0 Sn2 3.351977 1_545
La0 Sn2 3.351977 1_555
La0 Sn0 3.355231 1_555
La0 Sn0 3.355231 1_455
La0 Sn1 3.388014 1_546
La0 Sn1 3.388014 1_556
La1 Sn2 3.351977 1_545
La1 Sn2 3.351977 1_555
La1 Sn0 3.355231 1_555
La1 Sn0 3.355231 1_455
La1 Sn1 3.388014 1_545
La1 Sn1 3.388014 1_555
In0 In2 3.349014 1_566
In0 In2 3.349014 1_556
In0 Sn1 3.352271 1_556
In0 Sn1 3.352271 1_656
In0 Sn0 3.391013 1_555
In0 Sn0 3.391013 1_565
In0 Sn2 3.394230 1_655
In0 Sn2 3.394230 1_555
In0 La0 3.411542 1_565
In0 La0 3.411542 1_655
In0 La0 3.411542 1_665
In0 La0 3.411542 1_555
In1 In2 3.349014 1_565
In1 In2 3.349014 1_555
In1 Sn1 3.352271 1_655
In1 Sn1 3.352271 1_555
In1 Sn0 3.391013 1_555
In1 Sn0 3.391013 1_565
In1 Sn2 3.394230 1_555
In1 Sn2 3.394230 1_655
In1 La1 3.411542 1_555
In1 La1 3.411542 1_565
In1 La1 3.411542 1_655
In1 La1 3.411542 1_665
In2 La1 3.391234 1_555
In2 La1 3.391234 1_655
In2 La0 3.391234 1_654
In2 La0 3.391234 1_554
In2 Sn1 3.411086 1_545
In2 Sn1 3.411086 1_645
In2 Sn1 3.411086 1_555
In2 Sn1 3.411086 1_655
Sn0 Sn2 3.411086 1_545
Sn0 Sn2 3.411086 1_555
Sn0 Sn2 3.411086 1_655
Sn0 Sn2 3.411086 1_645
