# generated using pymatgen
data_La2MnCrO6
_symmetry_space_group_name_H-M   'P 1'
_cell_length_a   5.62783375
_cell_length_b   7.71386655
_cell_length_c   5.73284808
_cell_angle_alpha   89.99664107
_cell_angle_beta   89.98061467
_cell_angle_gamma   89.37998398
_symmetry_Int_Tables_number   1
_chemical_formula_structural   La2MnCrO6
_chemical_formula_sum   'La4 Mn2 Cr2 O12'
_cell_volume   248.86187030
_cell_formula_units_Z   2
loop_
 _symmetry_equiv_pos_site_id
 _symmetry_equiv_pos_as_xyz
  1  'x, y, z'
loop_
 _atom_site_type_symbol
 _atom_site_label
 _atom_site_symmetry_multiplicity
 _atom_site_fract_x
 _atom_site_fract_y
 _atom_site_fract_z
 _atom_site_occupancy
  La  La0  1  0.49079100  0.74973200  0.54342900  1
  La  La1  1  0.00916900  0.75022900  0.04327200  1
  La  La2  1  0.50915400  0.25027000  0.45671800  1
  La  La3  1  0.99083600  0.24970600  0.95658600  1
  Mn  Mn0  1  0.99997500  0.50010900  0.49998700  1
  Mn  Mn1  1  0.50004800  0.00002100  0.00021400  1
  Cr  Cr0  1  0.50013000  0.50014400  0.00012500  1
  Cr  Cr1  1  0.99996200  0.99990800  0.49968500  1
  O  O0  1  0.71180600  0.04204100  0.70062300  1
  O  O1  1  0.78808000  0.45790800  0.20063700  1
  O  O2  1  0.28818000  0.95787700  0.29927900  1
  O  O3  1  0.21194200  0.54206900  0.79942000  1
  O  O4  1  0.29739300  0.54079300  0.28985300  1
  O  O5  1  0.20249800  0.95920000  0.78966500  1
  O  O6  1  0.70260700  0.45924400  0.71023600  1
  O  O7  1  0.79747800  0.04076500  0.21021800  1
  O  O8  1  0.92247700  0.74345800  0.47963800  1
  O  O9  1  0.57749800  0.75653100  0.97971300  1
  O  O10  1  0.07746800  0.25650800  0.52031000  1
  O  O11  1  0.42251000  0.24348600  0.02039200  1
loop_
_geom_bond_atom_site_label_1
_geom_bond_atom_site_label_2
_geom_bond_distance
_geom_bond_site_symmetry_2
La0 O2 2.407995 1_555
La0 O4 2.436164 1_555
La0 O8 2.456664 1_555
La0 O9 2.549120 1_555
La0 O5 2.679164 1_555
La0 O3 2.689811 1_555
La0 O6 2.701725 1_555
La0 O0 2.739562 1_565
La1 O3 2.407165 1_554
La1 O5 2.435707 1_554
La1 O9 2.456629 1_454
La1 O8 2.549230 1_455
La1 O4 2.680306 1_555
La1 O2 2.691011 1_555
La1 O7 2.701816 1_465
La1 O1 2.739790 1_455
La2 O0 2.407715 1_555
La2 O6 2.436287 1_555
La2 O10 2.456493 1_555
La2 O11 2.549286 1_555
La2 O7 2.680236 1_555
La2 O1 2.690232 1_555
La2 O4 2.701932 1_555
La2 O2 2.740454 1_545
La3 O1 2.407997 1_556
La3 O7 2.435712 1_556
La3 O11 2.456851 1_656
La3 O10 2.548665 1_655
La3 O6 2.680093 1_555
La3 O0 2.691016 1_555
La3 O5 2.701504 1_645
La3 O3 2.739727 1_655
Mn0 O8 1.926099 1_555
Mn0 O10 1.927974 1_655
Mn0 O4 2.088382 1_655
Mn0 O6 2.088759 1_555
Mn0 O1 2.117309 1_555
Mn0 O3 2.117628 1_655
Mn1 O11 1.926954 1_555
Mn1 O9 1.927147 1_544
Mn1 O7 2.088755 1_555
Mn1 O5 2.091195 1_544
Mn1 O2 2.115144 1_545
Mn1 O0 2.117087 1_554
Cr0 O1 2.010829 1_555
Cr0 O3 2.012173 1_554
Cr0 O9 2.033050 1_554
Cr0 O11 2.035359 1_555
Cr0 O4 2.037150 1_555
Cr0 O6 2.037374 1_554
Cr1 O2 2.010848 1_655
Cr1 O0 2.012431 1_565
Cr1 O8 2.033582 1_555
Cr1 O10 2.034927 1_665
Cr1 O7 2.035972 1_565
Cr1 O5 2.038363 1_655
