# generated using pymatgen
data_Eu11(ZnSb2)6
_symmetry_space_group_name_H-M   'P 1'
_cell_length_a   15.96000371
_cell_length_b   15.96000371
_cell_length_c   12.14964256
_cell_angle_alpha   70.53692134
_cell_angle_beta   70.53692134
_cell_angle_gamma   17.28700121
_symmetry_Int_Tables_number   1
_chemical_formula_structural   Eu11(ZnSb2)6
_chemical_formula_sum   'Eu11 Zn6 Sb12'
_cell_volume   865.83526829
_cell_formula_units_Z   1
loop_
 _symmetry_equiv_pos_site_id
 _symmetry_equiv_pos_as_xyz
  1  'x, y, z'
loop_
 _atom_site_type_symbol
 _atom_site_label
 _atom_site_symmetry_multiplicity
 _atom_site_fract_x
 _atom_site_fract_y
 _atom_site_fract_z
 _atom_site_occupancy
  Eu  Eu0  1  0.01830200  0.01830200  0.32336400  1
  Eu  Eu1  1  0.98169800  0.98169800  0.67663600  1
  Eu  Eu2  1  0.11445200  0.11445200  0.48964200  1
  Eu  Eu3  1  0.88554800  0.88554800  0.51035800  1
  Eu  Eu4  1  0.12626900  0.12626900  0.98044700  1
  Eu  Eu5  1  0.87373100  0.87373100  0.01955300  1
  Eu  Eu6  1  0.20048400  0.20048400  0.65344000  1
  Eu  Eu7  1  0.79951600  0.79951600  0.34656000  1
  Eu  Eu8  1  0.28097900  0.28097900  0.86067600  1
  Eu  Eu9  1  0.71902100  0.71902100  0.13932400  1
  Eu  Eu10  1  0.00000000  0.00000000  0.00000000  1
  Zn  Zn0  1  0.21747900  0.21747900  0.32814000  1
  Zn  Zn1  1  0.78252100  0.78252100  0.67186000  1
  Zn  Zn2  1  0.40134500  0.40134500  0.74324000  1
  Zn  Zn3  1  0.59865500  0.59865500  0.25676000  1
  Zn  Zn4  1  0.54500800  0.54500800  0.75567500  1
  Zn  Zn5  1  0.45499200  0.45499200  0.24432500  1
  Sb  Sb0  1  0.08709300  0.08709300  0.76508000  1
  Sb  Sb1  1  0.91290700  0.91290700  0.23492000  1
  Sb  Sb2  1  0.14692000  0.14692000  0.21626100  1
  Sb  Sb3  1  0.85308000  0.85308000  0.78373900  1
  Sb  Sb4  1  0.30780200  0.30780200  0.54001800  1
  Sb  Sb5  1  0.69219800  0.69219800  0.45998200  1
  Sb  Sb6  1  0.45327500  0.45327500  0.88322200  1
  Sb  Sb7  1  0.54672500  0.54672500  0.11677800  1
  Sb  Sb8  1  0.45443500  0.45443500  0.50233700  1
  Sb  Sb9  1  0.54556500  0.54556500  0.49766300  1
  Sb  Sb10  1  0.70530600  0.70530600  0.85996500  1
  Sb  Sb11  1  0.29469400  0.29469400  0.14003500  1
loop_
_geom_bond_atom_site_label_1
_geom_bond_atom_site_label_2
_geom_bond_distance
_geom_bond_site_symmetry_2
Eu0 Sb7 3.367487 1_545
Eu0 Sb7 3.367487 1_455
Eu0 Zn3 3.384491 1_455
Eu0 Zn3 3.384491 1_545
Eu0 Sb8 3.404328 1_545
Eu0 Sb8 3.404328 1_455
Eu0 Zn5 3.458342 1_545
Eu0 Zn5 3.458342 1_455
Eu0 Sb9 3.493699 1_545
Eu0 Sb9 3.493699 1_455
Eu0 Sb2 3.821978 1_555
Eu0 Sb1 3.824400 1_445
Eu1 Sb6 3.367487 1_655
Eu1 Sb6 3.367487 1_565
Eu1 Zn2 3.384491 1_565
Eu1 Zn2 3.384491 1_655
Eu1 Sb9 3.404328 1_565
Eu1 Sb9 3.404328 1_655
Eu1 Zn4 3.458342 1_565
Eu1 Zn4 3.458342 1_655
Eu1 Sb8 3.493699 1_565
Eu1 Sb8 3.493699 1_655
Eu1 Sb3 3.821978 1_555
Eu1 Sb0 3.824400 1_665
Eu2 Sb2 3.128595 1_555
Eu2 Sb0 3.161768 1_555
Eu2 Zn0 3.181314 1_555
Eu2 Sb9 3.216466 1_545
Eu2 Sb9 3.216466 1_455
Eu2 Sb5 3.362518 1_455
Eu2 Sb5 3.362518 1_545
Eu3 Sb3 3.128595 1_555
Eu3 Sb1 3.161768 1_555
Eu3 Zn1 3.181314 1_555
Eu3 Sb8 3.216466 1_565
Eu3 Sb8 3.216466 1_655
Eu3 Sb4 3.362518 1_655
Eu3 Sb4 3.362518 1_565
Eu4 Sb2 3.145123 1_556
Eu4 Sb0 3.248955 1_555
Eu4 Sb10 3.414078 1_545
Eu4 Sb10 3.414078 1_455
Eu4 Sb7 3.463412 1_546
Eu4 Sb7 3.463412 1_456
Eu5 Sb3 3.145123 1_554
Eu5 Sb1 3.248955 1_555
Eu5 Sb11 3.414078 1_565
Eu5 Sb11 3.414078 1_655
Eu5 Sb6 3.463412 1_564
Eu5 Sb6 3.463412 1_654
Eu6 Sb4 3.197316 1_555
Eu6 Sb0 3.372338 1_555
Eu6 Sb5 3.429338 1_545
Eu6 Sb5 3.429338 1_455
Eu6 Sb10 3.511374 1_455
Eu6 Sb10 3.511374 1_545
Eu6 Zn1 3.591105 1_455
Eu6 Zn1 3.591105 1_545
Eu6 Zn0 3.805176 1_555
Eu7 Sb5 3.197316 1_555
Eu7 Sb1 3.372338 1_555
Eu7 Sb4 3.429338 1_565
Eu7 Sb4 3.429338 1_655
Eu7 Sb11 3.511374 1_565
Eu7 Sb11 3.511374 1_655
Eu7 Zn0 3.591105 1_655
Eu7 Zn0 3.591105 1_565
Eu7 Zn1 3.805176 1_555
Eu8 Sb3 3.220305 1_545
Eu8 Sb3 3.220305 1_455
Eu8 Zn1 3.308004 1_455
Eu8 Zn1 3.308004 1_545
Eu8 Sb10 3.386720 1_545
Eu8 Sb10 3.386720 1_455
Eu8 Sb11 3.563357 1_556
Eu8 Zn2 3.579224 1_555
Eu8 Sb4 3.697504 1_555
Eu9 Sb2 3.220305 1_565
Eu9 Sb2 3.220305 1_655
Eu9 Zn0 3.308004 1_565
Eu9 Zn0 3.308004 1_655
Eu9 Sb11 3.386720 1_565
Eu9 Sb11 3.386720 1_655
Eu9 Sb10 3.563357 1_554
Eu9 Zn3 3.579224 1_555
Eu9 Sb5 3.697504 1_555
Eu10 Sb1 3.226865 1_445
Eu10 Sb0 3.226865 1_554
Eu10 Sb6 3.369054 1_544
Eu10 Sb7 3.369054 1_455
Eu10 Sb6 3.369054 1_454
Eu10 Sb7 3.369054 1_545
Sb0 Zn4 2.762663 1_545
Sb0 Zn4 2.762663 1_455
Sb1 Zn5 2.762663 1_565
Sb1 Zn5 2.762663 1_655
Sb2 Zn3 2.794630 1_455
Sb2 Zn3 2.794630 1_545
Sb2 Zn0 2.974197 1_555
Sb3 Zn2 2.794630 1_655
Sb3 Zn2 2.794630 1_565
Sb3 Zn1 2.974197 1_555
Sb4 Zn1 2.845008 1_455
Sb4 Zn1 2.845008 1_545
Sb5 Zn0 2.845008 1_655
Sb5 Zn0 2.845008 1_565
Sb6 Zn2 2.730707 1_555
Sb6 Zn4 2.785286 1_555
Sb7 Zn3 2.730707 1_555
Sb7 Zn5 2.785286 1_555
Sb8 Zn2 2.840465 1_555
Sb8 Sb9 2.857194 1_555
Sb8 Zn5 3.128873 1_555
Sb9 Zn3 2.840465 1_555
Sb9 Zn4 3.128873 1_555
Sb10 Zn1 2.721567 1_555
Sb11 Zn0 2.721567 1_555
