# generated using pymatgen
data_MgV8(OF)8
_symmetry_space_group_name_H-M   'P 1'
_cell_length_a   4.90967213
_cell_length_b   10.68755756
_cell_length_c   5.65857929
_cell_angle_alpha   84.78931012
_cell_angle_beta   89.17459364
_cell_angle_gamma   89.84303531
_symmetry_Int_Tables_number   1
_chemical_formula_structural   MgV8(OF)8
_chemical_formula_sum   'Mg1 V8 O8 F8'
_cell_volume   295.66124068
_cell_formula_units_Z   1
loop_
 _symmetry_equiv_pos_site_id
 _symmetry_equiv_pos_as_xyz
  1  'x, y, z'
loop_
 _atom_site_type_symbol
 _atom_site_label
 _atom_site_symmetry_multiplicity
 _atom_site_fract_x
 _atom_site_fract_y
 _atom_site_fract_z
 _atom_site_occupancy
  Mg  Mg0  1  0.49100560  0.85731500  0.87060340  1
  V  V0  1  0.47591361  0.26660117  0.73321249  1
  V  V1  1  0.51254345  0.00199968  0.45381537  1
  V  V2  1  0.52809625  0.71059047  0.30631439  1
  V  V3  1  0.49304424  0.50852503  0.01131214  1
  V  V4  1  0.97883250  0.24184876  0.24350032  1
  V  V5  1  0.00970493  0.75294499  0.75211023  1
  V  V6  1  0.98731449  0.47681012  0.52077771  1
  V  V7  1  0.01744464  0.02445416  0.96915999  1
  O  O0  1  0.80694080  0.30763919  0.52493443  1
  O  O1  1  0.80042596  0.07010648  0.24961032  1
  O  O2  1  0.65279990  0.82818340  0.54555978  1
  O  O3  1  0.71563288  0.55701983  0.30679109  1
  O  O4  1  0.31059968  0.42604998  0.72208064  1
  O  O5  1  0.34611432  0.69435581  0.99340701  1
  O  O6  1  0.18825948  0.94136748  0.70261181  1
  O  O7  1  0.18932549  0.18363490  0.96319750  1
  F  F0  1  0.82514716  0.57144107  0.79441199  1
  F  F1  1  0.82711687  0.83598490  0.04779295  1
  F  F2  1  0.66719050  0.06649757  0.76581230  1
  F  F3  1  0.68913469  0.32333815  0.02397636  1
  F  F4  1  0.32888307  0.93085931  0.17116036  1
  F  F5  1  0.30457133  0.17547094  0.44992771  1
  F  F6  1  0.18292969  0.65781471  0.48183268  1
  F  F7  1  0.18491745  0.41414692  0.22942004  1
loop_
_geom_bond_atom_site_label_1
_geom_bond_atom_site_label_2
_geom_bond_distance
_geom_bond_site_symmetry_2
Mg0 O5 1.948060 1_555
Mg0 O6 1.948903 1_555
Mg0 O2 2.042419 1_555
O0 V4 1.975893 1_555
O0 V6 2.013504 1_555
O0 V0 2.019303 1_555
O1 V1 1.915351 1_555
O1 V7 1.995198 1_654
O1 V4 2.033204 1_555
O2 V1 2.005682 1_565
O2 V2 2.030821 1_555
O2 V5 2.227945 1_655
O3 V2 1.879525 1_555
O3 V6 1.957546 1_555
O3 V3 2.114621 1_555
O4 V0 1.881792 1_555
O4 V6 2.011527 1_455
O4 V3 2.136939 1_556
O5 V2 2.016356 1_556
O5 V3 2.105436 1_556
O5 V5 2.210972 1_555
O6 V7 1.992368 1_565
O6 V1 2.170750 1_565
O6 V5 2.191438 1_555
O7 V7 1.898461 1_555
O7 V4 2.024689 1_456
O7 V0 2.050400 1_555
F0 V6 2.073352 1_555
F0 V3 2.101323 1_556
F0 V5 2.135496 1_655
F1 Mg0 1.945378 1_554
F1 V5 2.147747 1_654
F1 V7 2.228008 1_664
F1 V2 2.384137 1_555
F2 V1 2.105003 1_555
F2 V7 2.107587 1_655
F2 V0 2.326364 1_555
F2 Mg0 2.419301 1_545
F3 V4 2.042587 1_555
F3 V0 2.098796 1_554
F3 V3 2.194312 1_555
F4 V1 2.053173 1_565
F4 Mg0 2.084280 1_554
F4 V7 2.116471 1_564
F4 V2 2.601035 1_555
F5 V4 2.079051 1_455
F5 V1 2.112629 1_555
F5 V0 2.133722 1_555
F6 V2 2.007836 1_555
F6 V5 2.082368 1_555
F6 V6 2.154036 1_455
F7 V6 2.063678 1_455
F7 V4 2.098158 1_455
F7 V3 2.134863 1_555
