# generated using pymatgen
data_K2Mn7H18(C9O20)2
_symmetry_space_group_name_H-M   'P 1'
_cell_length_a   6.99123300
_cell_length_b   10.89434948
_cell_length_c   14.89067618
_cell_angle_alpha   111.30425750
_cell_angle_beta   96.76428080
_cell_angle_gamma   92.89934612
_symmetry_Int_Tables_number   1
_chemical_formula_structural   K2Mn7H18(C9O20)2
_chemical_formula_sum   'K2 Mn7 H18 C18 O40'
_cell_volume   1043.93158776
_cell_formula_units_Z   1
loop_
 _symmetry_equiv_pos_site_id
 _symmetry_equiv_pos_as_xyz
  1  'x, y, z'
loop_
 _atom_site_type_symbol
 _atom_site_label
 _atom_site_symmetry_multiplicity
 _atom_site_fract_x
 _atom_site_fract_y
 _atom_site_fract_z
 _atom_site_occupancy
  K  K0  1  0.07726000  0.36730100  0.16793600  1
  K  K1  1  0.92274000  0.63269900  0.83206400  1
  Mn  Mn0  1  0.50000000  0.50000000  0.00000000  1
  Mn  Mn1  1  0.16755000  0.77213600  0.42916300  1
  Mn  Mn2  1  0.83245000  0.22786400  0.57083700  1
  Mn  Mn3  1  0.29940600  0.01588400  0.23462100  1
  Mn  Mn4  1  0.70059400  0.98411600  0.76537900  1
  Mn  Mn5  1  0.09469800  0.74160100  0.21049800  1
  Mn  Mn6  1  0.90530200  0.25839900  0.78950200  1
  H  H0  1  0.68239800  0.12824100  0.18792300  1
  H  H1  1  0.31760200  0.87175900  0.81207700  1
  H  H2  1  0.74556300  0.73245800  0.05735300  1
  H  H3  1  0.25443700  0.26754200  0.94264700  1
  H  H4  1  0.81832700  0.09247000  0.04690700  1
  H  H5  1  0.18167300  0.90753000  0.95309300  1
  H  H6  1  0.55174100  0.85186300  0.07691300  1
  H  H7  1  0.44825900  0.14813700  0.92308700  1
  H  H8  1  0.33537500  0.42328700  0.44244600  1
  H  H9  1  0.66462500  0.57671300  0.55755400  1
  H  H10  1  0.62292700  0.66918700  0.33696300  1
  H  H11  1  0.37707300  0.33081300  0.66303700  1
  H  H12  1  0.97783900  0.12921600  0.39495300  1
  H  H13  1  0.02216100  0.87078400  0.60504700  1
  H  H14  1  0.72156300  0.90713000  0.45413100  1
  H  H15  1  0.27843700  0.09287000  0.54586900  1
  H  H16  1  0.40724300  0.62500300  0.62447600  1
  H  H17  1  0.59275700  0.37499700  0.37552400  1
  C  C0  1  0.57872200  0.21059800  0.14722800  1
  C  C1  1  0.42127800  0.78940200  0.85277200  1
  C  C2  1  0.84392400  0.65003800  0.06881800  1
  C  C3  1  0.15607600  0.34996200  0.93118200  1
  C  C4  1  0.94118800  0.03072700  0.09550100  1
  C  C5  1  0.05881200  0.96927300  0.90449900  1
  C  C6  1  0.44153600  0.86057600  0.12014400  1
  C  C7  1  0.55846400  0.13942400  0.87985600  1
  C  C8  1  0.27417400  0.52385600  0.40367500  1
  C  C9  1  0.72582600  0.47614400  0.59632500  1
  C  C10  1  0.77821200  0.69248400  0.33305700  1
  C  C11  1  0.22178800  0.30751600  0.66694300  1
  C  C12  1  0.06531200  0.06108300  0.37764400  1
  C  C13  1  0.93468800  0.93891700  0.62235600  1
  C  C14  1  0.57197800  0.90455900  0.41785500  1
  C  C15  1  0.42802200  0.09544100  0.58214500  1
  C  C16  1  0.26808100  0.64963400  0.64149800  1
  C  C17  1  0.73191900  0.35036600  0.35850200  1
  O  O0  1  0.63833600  0.30995000  0.08326300  1
  O  O1  1  0.36166400  0.69005000  0.91673700  1
  O  O2  1  0.79861800  0.56912000  0.02693000  1
  O  O3  1  0.20138200  0.43088000  0.97307000  1
  O  O4  1  0.44931500  0.51066800  0.10499900  1
  O  O5  1  0.55068500  0.48933200  0.89500100  1
  O  O6  1  0.40620300  0.19616200  0.16869500  1
  O  O7  1  0.59379700  0.80383800  0.83130500  1
  O  O8  1  0.00682700  0.64059100  0.12366600  1
  O  O9  1  0.99317300  0.35940900  0.87633400  1
  O  O10  1  0.18932500  0.84243800  0.29171400  1
  O  O11  1  0.81067500  0.15756200  0.70828600  1
  O  O12  1  0.05597200  0.09048600  0.14094700  1
  O  O13  1  0.94402800  0.90951400  0.85905300  1
  O  O14  1  0.42726000  0.97067400  0.12826400  1
  O  O15  1  0.57274000  0.02932600  0.87173600  1
  O  O16  1  0.18339500  0.11169900  0.31823900  1
  O  O17  1  0.81660500  0.88830100  0.68176100  1
  O  O18  1  0.54853300  0.96899900  0.32592000  1
  O  O19  1  0.45146700  0.03100100  0.67408000  1
  O  O20  1  0.95224700  0.91410800  0.10010800  1
  O  O21  1  0.04775300  0.08589200  0.89989200  1
  O  O22  1  0.34280000  0.75741400  0.15496100  1
  O  O23  1  0.65720000  0.24258600  0.84503900  1
  O  O24  1  0.20143000  0.55420300  0.31583800  1
  O  O25  1  0.79857000  0.44579700  0.68416200  1
  O  O26  1  0.82904500  0.70827600  0.25128300  1
  O  O27  1  0.17095500  0.29172400  0.74871700  1
  O  O28  1  0.28907300  0.59512700  0.45583400  1
  O  O29  1  0.71092700  0.40487300  0.54416600  1
  O  O30  1  0.87961900  0.70012900  0.40803200  1
  O  O31  1  0.12038100  0.29987100  0.59196800  1
  O  O32  1  0.03523200  0.93905200  0.42171300  1
  O  O33  1  0.96476800  0.06094800  0.57828700  1
  O  O34  1  0.44852500  0.83991800  0.46949200  1
  O  O35  1  0.55147400  0.16008200  0.53050800  1
  O  O36  1  0.13686600  0.70913100  0.56685700  1
  O  O37  1  0.86313400  0.29086900  0.43314300  1
  O  O38  1  0.23805600  0.62337000  0.72591100  1
  O  O39  1  0.76194400  0.37663000  0.27408900  1
loop_
_geom_bond_atom_site_label_1
_geom_bond_atom_site_label_2
_geom_bond_distance
_geom_bond_site_symmetry_2
K0 O24 2.421211 1_555
K1 O25 2.421211 1_555
Mn0 O5 1.608186 1_554
Mn0 O4 1.608186 1_555
Mn0 O3 2.123840 1_554
Mn0 O2 2.123840 1_555
Mn1 O34 2.004440 1_555
Mn1 O30 2.068385 1_455
Mn1 O32 2.113615 1_555
Mn1 O28 2.289328 1_555
Mn1 O24 2.404264 1_555
Mn1 O36 2.415054 1_555
Mn1 O10 2.449376 1_555
Mn2 O35 2.004446 1_555
Mn2 O31 2.068385 1_655
Mn2 O33 2.113615 1_555
Mn2 O29 2.289328 1_555
Mn2 O25 2.404264 1_555
Mn2 O37 2.415054 1_555
Mn2 O11 2.449376 1_555
Mn3 O16 1.636119 1_555
Mn3 O14 1.833295 1_545
Mn3 O18 2.275846 1_545
Mn4 O17 1.636119 1_555
Mn4 O15 1.833295 1_565
Mn4 O19 2.275846 1_565
Mn5 O10 1.371009 1_555
Mn5 O8 1.403841 1_555
Mn5 O22 2.033078 1_555
Mn5 O26 2.075500 1_455
Mn6 O11 1.371009 1_555
Mn6 O9 1.403841 1_555
Mn6 O23 2.033078 1_555
Mn6 O27 2.075500 1_655
C0 O6 1.299925 1_555
C0 H0 1.433521 1_555
C0 O0 1.746272 1_555
C1 O7 1.299925 1_555
C1 H1 1.433521 1_555
C1 O1 1.746272 1_555
C2 O2 0.890040 1_555
C2 H2 1.206015 1_555
C2 O8 1.352230 1_655
C3 O3 0.890040 1_555
C3 H3 1.206015 1_555
C3 O9 1.352230 1_455
C4 O12 1.012354 1_655
C4 O20 1.302630 1_545
C4 H4 1.406967 1_555
C5 O13 1.012354 1_455
C5 O21 1.302630 1_565
C5 H5 1.406967 1_555
C6 H6 1.047314 1_555
C6 O14 1.171675 1_555
C6 O22 1.561287 1_555
C7 H7 1.047314 1_555
C7 O15 1.171675 1_555
C7 O23 1.561287 1_555
C8 O28 0.866901 1_555
C8 H8 1.471616 1_555
C8 O24 1.501071 1_555
C9 O29 0.866901 1_555
C9 H9 1.471616 1_555
C9 O25 1.501071 1_555
C10 H10 1.115405 1_555
C10 O30 1.223102 1_555
C10 O26 1.373535 1_555
C11 H11 1.115405 1_555
C11 O31 1.223102 1_555
C11 O27 1.373535 1_555
C12 H12 0.967166 1_455
C12 O16 1.499500 1_555
C12 O32 1.697183 1_545
C13 H13 0.967166 1_655
C13 O17 1.499500 1_555
C13 O33 1.697183 1_565
C14 H14 1.113195 1_555
C14 O34 1.523280 1_555
C14 O18 1.746693 1_555
C15 H15 1.113195 1_555
C15 O35 1.523276 1_555
C15 O19 1.746693 1_555
C16 H16 1.057305 1_555
C16 O38 1.422434 1_555
C16 O36 1.685368 1_555
C17 H17 1.057305 1_555
C17 O39 1.422434 1_555
C17 O37 1.685368 1_555
