# generated using pymatgen
data_Cd4FeCu10(SnSe4)5
_symmetry_space_group_name_H-M   'P 1'
_cell_length_a   7.15859634
_cell_length_b   7.15859634
_cell_length_c   26.33526480
_cell_angle_alpha   89.48601889
_cell_angle_beta   89.48601889
_cell_angle_gamma   48.61424132
_symmetry_Int_Tables_number   1
_chemical_formula_structural   Cd4FeCu10(SnSe4)5
_chemical_formula_sum   'Cd4 Fe1 Cu10 Sn5 Se20'
_cell_volume   1012.49553541
_cell_formula_units_Z   1
loop_
 _symmetry_equiv_pos_site_id
 _symmetry_equiv_pos_as_xyz
  1  'x, y, z'
loop_
 _atom_site_type_symbol
 _atom_site_label
 _atom_site_symmetry_multiplicity
 _atom_site_fract_x
 _atom_site_fract_y
 _atom_site_fract_z
 _atom_site_occupancy
  Cd  Cd0  1  0.99998900  0.39928600  0.69973400  1
  Cd  Cd1  1  0.20040200  0.59947800  0.90010600  1
  Cd  Cd2  1  0.40052200  0.79959800  0.09989400  1
  Cd  Cd3  1  0.60071400  0.00001100  0.30026600  1
  Fe  Fe0  1  0.79858000  0.20142000  0.50000000  1
  Cu  Cu0  1  0.29940000  0.70094500  0.74989200  1
  Cu  Cu1  1  0.70025100  0.10002300  0.14983000  1
  Cu  Cu2  1  0.49999300  0.90040100  0.94997200  1
  Cu  Cu3  1  0.10412700  0.49808800  0.54864200  1
  Cu  Cu4  1  0.89790300  0.30100000  0.35132300  1
  Cu  Cu5  1  0.69900000  0.10209700  0.64867700  1
  Cu  Cu6  1  0.09959900  0.50000700  0.05002800  1
  Cu  Cu7  1  0.89997700  0.29974900  0.85017000  1
  Cu  Cu8  1  0.50191200  0.89587300  0.45135800  1
  Cu  Cu9  1  0.29905500  0.70060000  0.25010800  1
  Sn  Sn0  1  0.39783500  0.79899600  0.59774300  1
  Sn  Sn1  1  0.79917400  0.20082600  0.00000000  1
  Sn  Sn2  1  0.59958600  0.00072600  0.79964600  1
  Sn  Sn3  1  0.20100400  0.60216500  0.40225700  1
  Sn  Sn4  1  0.99927400  0.40041400  0.20035400  1
  Se  Se0  1  0.50756800  0.37510200  0.57225900  1
  Se  Se1  1  0.68409000  0.59233900  0.77909200  1
  Se  Se2  1  0.88343900  0.79303100  0.97925100  1
  Se  Se3  1  0.08356900  0.99284100  0.17921800  1
  Se  Se4  1  0.28469900  0.19213800  0.38021500  1
  Se  Se5  1  0.09301300  0.97832900  0.67657600  1
  Se  Se6  1  0.29134100  0.18112500  0.87726100  1
  Se  Se7  1  0.49061400  0.38157300  0.07744300  1
  Se  Se8  1  0.69027500  0.58123300  0.27834800  1
  Se  Se9  1  0.87901300  0.81820700  0.47979200  1
  Se  Se10  1  0.41876700  0.30972500  0.72165200  1
  Se  Se11  1  0.61842700  0.50938600  0.92255700  1
  Se  Se12  1  0.81887500  0.70865900  0.12273900  1
  Se  Se13  1  0.02167100  0.90698700  0.32342400  1
  Se  Se14  1  0.18179300  0.12098700  0.52020800  1
  Se  Se15  1  0.00715900  0.91643100  0.82078200  1
  Se  Se16  1  0.20696900  0.11656100  0.02074900  1
  Se  Se17  1  0.40766100  0.31591000  0.22090800  1
  Se  Se18  1  0.62489800  0.49243200  0.42774100  1
  Se  Se19  1  0.80786200  0.71530100  0.61978500  1
loop_
_geom_bond_atom_site_label_1
_geom_bond_atom_site_label_2
_geom_bond_distance
_geom_bond_site_symmetry_2
Cd0 Se10 2.685967 1_655
Cd0 Se1 2.688166 1_555
Cd0 Se5 2.696040 1_645
Cd0 Se19 2.700888 1_555
Cd1 Se11 2.682059 1_555
Cd1 Se6 2.683677 1_555
Cd1 Se2 2.687473 1_455
Cd1 Se15 2.691162 1_555
Cd2 Se7 2.682059 1_555
Cd2 Se12 2.683677 1_555
Cd2 Se16 2.687473 1_565
Cd2 Se3 2.691162 1_555
Cd3 Se8 2.685967 1_545
Cd3 Se17 2.688166 1_555
Cd3 Se13 2.696040 1_645
Cd3 Se4 2.700888 1_555
Fe0 Se0 2.460386 1_555
Fe0 Se18 2.460386 1_555
Fe0 Se14 2.464227 1_655
Fe0 Se9 2.464227 1_545
Cu0 Se15 2.440497 1_555
Cu0 Se5 2.440698 1_555
Cu0 Se1 2.444533 1_555
Cu0 Se10 2.447088 1_555
Cu1 Se7 2.435463 1_555
Cu1 Se12 2.440989 1_545
Cu1 Se3 2.441495 1_645
Cu1 Se17 2.445563 1_555
Cu2 Se6 2.439164 1_565
Cu2 Se2 2.440827 1_555
Cu2 Se16 2.441004 1_566
Cu2 Se11 2.441822 1_555
Cu3 Se19 2.458974 1_455
Cu3 Se0 2.482589 1_555
Cu3 Se14 2.490277 1_555
Cu3 Se9 2.496181 1_455
Cu4 Se8 2.442627 1_555
Cu4 Se13 2.449823 1_645
Cu4 Se4 2.455021 1_655
Cu4 Se18 2.486998 1_555
Cu5 Se10 2.442627 1_555
Cu5 Se5 2.449823 1_645
Cu5 Se19 2.455021 1_545
Cu5 Se0 2.486998 1_555
Cu6 Se12 2.439164 1_455
Cu6 Se16 2.440827 1_555
Cu6 Se2 2.441004 1_454
Cu6 Se7 2.441822 1_555
Cu7 Se11 2.435463 1_555
Cu7 Se6 2.440989 1_655
Cu7 Se15 2.441495 1_645
Cu7 Se1 2.445563 1_555
Cu8 Se4 2.458974 1_565
Cu8 Se18 2.482589 1_555
Cu8 Se9 2.490277 1_555
Cu8 Se14 2.496181 1_565
Cu9 Se3 2.440497 1_555
Cu9 Se13 2.440698 1_555
Cu9 Se17 2.444533 1_555
Cu9 Se8 2.447088 1_555
Se0 Sn0 2.674102 1_555
Se1 Sn2 2.624839 1_565
Se2 Sn1 2.622731 1_566
Se3 Sn4 2.623316 1_465
Se4 Sn3 2.647725 1_555
Se5 Sn0 2.642397 1_555
Se6 Sn2 2.629322 1_555
Se7 Sn1 2.626821 1_555
Se8 Sn4 2.639620 1_555
Se9 Sn3 2.670746 1_655
Se10 Sn2 2.639620 1_555
Se11 Sn1 2.626821 1_556
Se12 Sn4 2.629322 1_555
Se13 Sn3 2.642397 1_555
Se14 Sn0 2.670746 1_545
Se15 Sn2 2.623316 1_465
Se16 Sn1 2.622731 1_455
Se17 Sn4 2.624839 1_455
Se18 Sn3 2.674102 1_555
Se19 Sn0 2.647725 1_555
