# generated using pymatgen
data_Mg3V2O8
_symmetry_space_group_name_H-M   'P 1'
_cell_length_a   6.47659315
_cell_length_b   6.47659315
_cell_length_c   8.29334275
_cell_angle_alpha   90.00000000
_cell_angle_beta   90.00000000
_cell_angle_gamma   124.45156962
_symmetry_Int_Tables_number   1
_chemical_formula_structural   Mg3V2O8
_chemical_formula_sum   'Mg6 V4 O16'
_cell_volume   286.85909976
_cell_formula_units_Z   2
loop_
 _symmetry_equiv_pos_site_id
 _symmetry_equiv_pos_as_xyz
  1  'x, y, z'
loop_
 _atom_site_type_symbol
 _atom_site_label
 _atom_site_symmetry_multiplicity
 _atom_site_fract_x
 _atom_site_fract_y
 _atom_site_fract_z
 _atom_site_occupancy
  Mg  Mg0  1  0.50000000  0.50000000  -0.00000000  1
  Mg  Mg1  1  0.00000000  0.00000000  0.50000000  1
  Mg  Mg2  1  0.11384361  0.38615639  0.75000000  1
  Mg  Mg3  1  0.38615639  0.11384361  0.25000000  1
  Mg  Mg4  1  0.61384361  0.88615639  0.75000000  1
  Mg  Mg5  1  0.88615639  0.61384361  0.25000000  1
  V  V0  1  0.12027091  0.87972909  0.88022022  1
  V  V1  1  0.87972909  0.12027091  0.11977978  1
  V  V2  1  0.37972909  0.62027091  0.38022022  1
  V  V3  1  0.62027091  0.37972909  0.61977978  1
  O  O0  1  0.84769141  0.61228354  0.50046957  1
  O  O1  1  0.61228354  0.84769141  0.49953043  1
  O  O2  1  0.65230859  0.88771646  0.00046957  1
  O  O3  1  0.88771646  0.65230859  0.99953043  1
  O  O4  1  0.15230859  0.38771646  0.49953043  1
  O  O5  1  0.38771646  0.15230859  0.50046957  1
  O  O6  1  0.34769141  0.11228354  0.99953043  1
  O  O7  1  0.11228354  0.34769141  0.00046957  1
  O  O8  1  0.99737016  0.00262984  0.74595645  1
  O  O9  1  0.00262984  0.99737016  0.25404355  1
  O  O10  1  0.24841934  0.75158066  0.77291155  1
  O  O11  1  0.75158066  0.24841934  0.22708845  1
  O  O12  1  0.25158066  0.74841934  0.27291155  1
  O  O13  1  0.74841934  0.25158066  0.72708845  1
  O  O14  1  0.49737016  0.50262984  0.75404355  1
  O  O15  1  0.50262984  0.49737016  0.24595645  1
loop_
_geom_bond_atom_site_label_1
_geom_bond_atom_site_label_2
_geom_bond_distance
_geom_bond_site_symmetry_2
Mg0 O15 2.040024 1_555
Mg0 O14 2.040024 1_554
Mg0 O6 2.115668 1_554
Mg0 O7 2.115668 1_555
Mg0 O2 2.115668 1_555
Mg0 O3 2.115668 1_554
Mg1 O8 2.040024 1_455
Mg1 O9 2.040024 1_545
Mg1 O5 2.115668 1_555
Mg1 O4 2.115668 1_555
Mg1 O0 2.115668 1_445
Mg1 O1 2.115668 1_445
Mg2 O13 2.015732 1_455
Mg2 O10 2.015732 1_555
Mg2 O7 2.091459 1_556
Mg2 O4 2.091459 1_555
Mg2 O14 2.149451 1_555
Mg2 O8 2.149451 1_455
Mg3 O12 2.015732 1_545
Mg3 O11 2.015732 1_555
Mg3 O5 2.091459 1_555
Mg3 O6 2.091459 1_554
Mg3 O9 2.149451 1_545
Mg3 O15 2.149451 1_555
Mg4 O10 2.015732 1_555
Mg4 O13 2.015732 1_565
Mg4 O2 2.091459 1_556
Mg4 O1 2.091459 1_555
Mg4 O14 2.149451 1_555
Mg4 O8 2.149451 1_565
Mg5 O11 2.015732 1_555
Mg5 O12 2.015732 1_655
Mg5 O3 2.091459 1_554
Mg5 O0 2.091459 1_555
Mg5 O15 2.149451 1_555
Mg5 O9 2.149451 1_655
O0 V3 1.705014 1_555
O1 V2 1.705014 1_555
O2 V1 1.705014 1_565
O3 V0 1.705014 1_655
O4 V2 1.705014 1_555
O5 V3 1.705014 1_555
O6 V0 1.705014 1_545
O7 V1 1.705014 1_455
O8 V0 1.795517 1_645
O9 V1 1.795517 1_465
O10 V0 1.717283 1_555
O11 V1 1.717283 1_555
O12 V2 1.717283 1_555
O13 V3 1.717283 1_555
O14 V3 1.795517 1_555
O15 V2 1.795517 1_555
