# generated using pymatgen
data_NiSeO5
_symmetry_space_group_name_H-M   'P 1'
_cell_length_a   9.21860500
_cell_length_b   7.02843600
_cell_length_c   7.57499735
_cell_angle_alpha   58.45829009
_cell_angle_beta   90.00000000
_cell_angle_gamma   90.00000000
_symmetry_Int_Tables_number   1
_chemical_formula_structural   NiSeO5
_chemical_formula_sum   'Ni4 Se4 O20'
_cell_volume   418.29076286
_cell_formula_units_Z   4
loop_
 _symmetry_equiv_pos_site_id
 _symmetry_equiv_pos_as_xyz
  1  'x, y, z'
loop_
 _atom_site_type_symbol
 _atom_site_label
 _atom_site_symmetry_multiplicity
 _atom_site_fract_x
 _atom_site_fract_y
 _atom_site_fract_z
 _atom_site_occupancy
  Ni  Ni0  1  0.14885700  0.90289100  0.09647400  1
  Ni  Ni1  1  0.85114300  0.09710900  0.90352600  1
  Ni  Ni2  1  0.64885700  0.09710900  0.40352600  1
  Ni  Ni3  1  0.35114300  0.90289100  0.59647400  1
  Se  Se0  1  0.62603300  0.84023800  0.92062400  1
  Se  Se1  1  0.37396700  0.15976200  0.07937600  1
  Se  Se2  1  0.12603300  0.15976200  0.57937600  1
  Se  Se3  1  0.87396700  0.84023800  0.42062400  1
  O  O0  1  0.23581000  0.60073900  0.47505700  1
  O  O1  1  0.76419000  0.39926100  0.52494300  1
  O  O2  1  0.73581000  0.39926100  0.02494300  1
  O  O3  1  0.26419000  0.60073900  0.97505700  1
  O  O4  1  0.55700600  0.88212500  0.68455300  1
  O  O5  1  0.44299400  0.11787500  0.31544700  1
  O  O6  1  0.05700600  0.11787500  0.81544700  1
  O  O7  1  0.94299400  0.88212500  0.18455300  1
  O  O8  1  0.80632800  0.84800700  0.86104200  1
  O  O9  1  0.19367200  0.15199300  0.13895800  1
  O  O10  1  0.30632800  0.15199300  0.63895800  1
  O  O11  1  0.69367200  0.84800700  0.36104200  1
  O  O12  1  0.15338700  0.61974200  0.05935800  1
  O  O13  1  0.84661300  0.38025800  0.94064200  1
  O  O14  1  0.65338700  0.38025800  0.44064200  1
  O  O15  1  0.34661300  0.61974200  0.55935800  1
  O  O16  1  0.36416700  0.90099000  0.09828200  1
  O  O17  1  0.63583300  0.09901000  0.90171800  1
  O  O18  1  0.86416700  0.09901000  0.40171800  1
  O  O19  1  0.13583300  0.90099000  0.59828200  1
loop_
_geom_bond_atom_site_label_1
_geom_bond_atom_site_label_2
_geom_bond_distance
_geom_bond_site_symmetry_2
Ni0 O9 1.982176 1_565
Ni0 O16 1.984902 1_555
Ni0 O7 1.991508 1_455
Ni0 O6 2.041194 1_564
Ni0 O12 2.150968 1_555
Ni0 O0 2.646656 1_555
Ni1 O8 1.982176 1_545
Ni1 O17 1.984902 1_555
Ni1 O6 1.991508 1_655
Ni1 O7 2.041194 1_546
Ni1 O13 2.150968 1_555
Ni1 O1 2.646656 1_555
Ni2 O11 1.982176 1_545
Ni2 O18 1.984902 1_555
Ni2 O5 1.991508 1_555
Ni2 O4 2.041194 1_545
Ni2 O14 2.150968 1_555
Ni2 O2 2.646656 1_555
Ni3 O10 1.982176 1_565
Ni3 O19 1.984902 1_555
Ni3 O4 1.991508 1_555
Ni3 O5 2.041194 1_565
Ni3 O15 2.150968 1_555
Ni3 O3 2.646656 1_555
O0 O15 1.248285 1_555
O1 O14 1.248285 1_555
O4 Se0 1.771605 1_555
O5 Se1 1.771605 1_555
O6 Se2 1.771605 1_555
O7 Se3 1.771605 1_555
O8 Se0 1.715625 1_555
O9 Se1 1.715625 1_555
O10 Se2 1.715625 1_555
O11 Se3 1.715625 1_555
O12 O3 1.248285 1_554
O13 O2 1.248285 1_556
O16 Se1 1.750444 1_565
O17 Se0 1.750444 1_545
O18 Se3 1.750444 1_545
O19 Se2 1.750444 1_565
