# generated using pymatgen
data_NdAgPb
_symmetry_space_group_name_H-M   'P 1'
_cell_length_a   4.95540726
_cell_length_b   4.95540726
_cell_length_c   8.05570579
_cell_angle_alpha   90.85017255
_cell_angle_beta   89.14982745
_cell_angle_gamma   119.52953066
_symmetry_Int_Tables_number   1
_chemical_formula_structural   NdAgPb
_chemical_formula_sum   'Nd2 Ag2 Pb2'
_cell_volume   172.09502028
_cell_formula_units_Z   2
loop_
 _symmetry_equiv_pos_site_id
 _symmetry_equiv_pos_as_xyz
  1  'x, y, z'
loop_
 _atom_site_type_symbol
 _atom_site_label
 _atom_site_symmetry_multiplicity
 _atom_site_fract_x
 _atom_site_fract_y
 _atom_site_fract_z
 _atom_site_occupancy
  Nd  Nd0  1  0.99933700  0.00066300  0.78213600  1
  Nd  Nd1  1  0.00066300  0.99933700  0.21786400  1
  Ag  Ag0  1  0.66674000  0.33326000  0.99075300  1
  Ag  Ag1  1  0.33326000  0.66674000  0.00924700  1
  Pb  Pb0  1  0.33056800  0.66943200  0.42846100  1
  Pb  Pb1  1  0.66943200  0.33056800  0.57153900  1
loop_
_geom_bond_atom_site_label_1
_geom_bond_atom_site_label_2
_geom_bond_distance
_geom_bond_site_symmetry_2
Nd0 Pb1 3.320014 1_555
Nd0 Pb1 3.337823 1_655
Nd0 Pb1 3.337823 1_545
Nd0 Pb0 3.985455 1_645
Nd0 Pb0 4.071075 1_545
Nd0 Pb0 4.071075 1_655
Nd1 Pb0 3.320014 1_555
Nd1 Pb0 3.337823 1_565
Nd1 Pb0 3.337823 1_455
Nd1 Pb1 3.985455 1_465
Nd1 Pb1 4.071075 1_455
Nd1 Pb1 4.071075 1_565
Ag0 Ag1 2.856783 1_556
Ag0 Ag1 2.879072 1_546
Ag0 Ag1 2.879072 1_656
Ag0 Nd0 3.281827 1_555
Ag0 Nd0 3.344876 1_455
Ag0 Nd0 3.344876 1_565
Ag0 Pb1 3.376747 1_555
Ag0 Nd1 3.392140 1_656
Ag0 Nd1 3.392140 1_546
Ag0 Nd1 3.420848 1_646
Ag1 Nd1 3.281827 1_555
Ag1 Nd1 3.344876 1_655
Ag1 Nd1 3.344876 1_545
Ag1 Pb0 3.376747 1_555
Ag1 Nd0 3.392140 1_454
Ag1 Nd0 3.392140 1_564
Ag1 Nd0 3.420848 1_464
Pb0 Pb1 3.066606 1_455
Pb0 Pb1 3.066606 1_565
Pb0 Pb1 3.140442 1_555
