# generated using pymatgen
data_LaCuGe2
_symmetry_space_group_name_H-M   'P 1'
_cell_length_a   8.90393036
_cell_length_b   8.90393036
_cell_length_c   4.23077819
_cell_angle_alpha   90.00000000
_cell_angle_beta   90.00000000
_cell_angle_gamma   151.39110089
_symmetry_Int_Tables_number   1
_chemical_formula_structural   LaCuGe2
_chemical_formula_sum   'La2 Cu2 Ge4'
_cell_volume   160.60664251
_cell_formula_units_Z   2
loop_
 _symmetry_equiv_pos_site_id
 _symmetry_equiv_pos_as_xyz
  1  'x, y, z'
loop_
 _atom_site_type_symbol
 _atom_site_label
 _atom_site_symmetry_multiplicity
 _atom_site_fract_x
 _atom_site_fract_y
 _atom_site_fract_z
 _atom_site_occupancy
  La  La0  1  0.89429550  0.10570450  0.75000000  1
  La  La1  1  0.10570450  0.89429550  0.25000000  1
  Cu  Cu0  1  0.67908006  0.32091994  0.75000000  1
  Cu  Cu1  1  0.32091994  0.67908006  0.25000000  1
  Ge  Ge0  1  0.54008796  0.45991204  0.75000000  1
  Ge  Ge1  1  0.45991204  0.54008796  0.25000000  1
  Ge  Ge2  1  0.24808022  0.75191978  0.75000000  1
  Ge  Ge3  1  0.75191978  0.24808022  0.25000000  1
loop_
_geom_bond_atom_site_label_1
_geom_bond_atom_site_label_2
_geom_bond_distance
_geom_bond_site_symmetry_2
Cu0 Ge0 2.398414 1_555
Cu0 Ge3 2.460626 1_555
Cu0 Ge3 2.460626 1_556
Cu0 Ge2 2.501469 1_545
Cu0 Ge2 2.501469 1_655
Cu0 La1 3.304196 1_546
Cu0 La1 3.304196 1_545
Cu0 La1 3.304196 1_655
Cu0 La1 3.304196 1_656
Cu1 Ge1 2.398414 1_555
Cu1 Ge2 2.460626 1_555
Cu1 Ge2 2.460626 1_554
Cu1 Ge3 2.501469 1_455
Cu1 Ge3 2.501469 1_565
Cu1 La0 3.304196 1_455
Cu1 La0 3.304196 1_454
Cu1 La0 3.304196 1_565
Cu1 La0 3.304196 1_564
Ge0 Ge1 2.527634 1_555
Ge0 Ge1 2.527634 1_556
Ge0 La1 3.255241 1_546
Ge0 La1 3.255241 1_545
Ge0 La1 3.255241 1_655
Ge0 La1 3.255241 1_656
Ge0 La0 3.341967 1_565
Ge0 La0 3.341967 1_455
Ge1 La0 3.255241 1_454
Ge1 La0 3.255241 1_455
Ge1 La0 3.255241 1_564
Ge1 La0 3.255241 1_565
Ge1 La1 3.341967 1_545
Ge1 La1 3.341967 1_655
Ge2 La1 3.242027 1_556
Ge2 La1 3.242027 1_555
Ge2 La0 3.347463 1_565
Ge2 La0 3.347463 1_455
Ge3 La0 3.242027 1_555
Ge3 La0 3.242027 1_554
Ge3 La1 3.347463 1_655
Ge3 La1 3.347463 1_545
