# generated using pymatgen
data_Dy(Al5Re)2
_symmetry_space_group_name_H-M   'P 1'
_cell_length_a   6.90253442
_cell_length_b   6.90253442
_cell_length_c   17.96400381
_cell_angle_alpha   90.00000000
_cell_angle_beta   90.00000000
_cell_angle_gamma   96.40256498
_symmetry_Int_Tables_number   1
_chemical_formula_structural   Dy(Al5Re)2
_chemical_formula_sum   'Dy4 Al40 Re8'
_cell_volume   850.55635211
_cell_formula_units_Z   4
loop_
 _symmetry_equiv_pos_site_id
 _symmetry_equiv_pos_as_xyz
  1  'x, y, z'
loop_
 _atom_site_type_symbol
 _atom_site_label
 _atom_site_symmetry_multiplicity
 _atom_site_fract_x
 _atom_site_fract_y
 _atom_site_fract_z
 _atom_site_occupancy
  Dy  Dy0  1  0.25665068  0.74334932  0.75000000  1
  Dy  Dy1  1  0.74334932  0.25665068  0.25000000  1
  Dy  Dy2  1  -0.00000000  0.00000000  0.50000000  1
  Dy  Dy3  1  -0.00000000  0.00000000  0.00000000  1
  Al  Al0  1  0.35006575  0.35006575  0.50000000  1
  Al  Al1  1  0.64993425  0.64993425  0.50000000  1
  Al  Al2  1  0.64993425  0.64993425  0.00000000  1
  Al  Al3  1  0.35006575  0.35006575  0.00000000  1
  Al  Al4  1  0.90794085  0.65200293  0.63021230  1
  Al  Al5  1  0.09205915  0.34799707  0.36978770  1
  Al  Al6  1  0.09205915  0.34799707  0.13021230  1
  Al  Al7  1  0.34799707  0.09205915  0.86978770  1
  Al  Al8  1  0.90794085  0.65200293  0.86978770  1
  Al  Al9  1  0.65200293  0.90794085  0.13021230  1
  Al  Al10  1  0.65200293  0.90794085  0.36978770  1
  Al  Al11  1  0.34799707  0.09205915  0.63021230  1
  Al  Al12  1  0.91052369  0.38857274  0.75000000  1
  Al  Al13  1  0.08947631  0.61142726  0.25000000  1
  Al  Al14  1  0.61142726  0.08947631  0.75000000  1
  Al  Al15  1  0.38857274  0.91052369  0.25000000  1
  Al  Al16  1  0.71734695  0.28265305  0.07427938  1
  Al  Al17  1  0.28265305  0.71734695  0.92572062  1
  Al  Al18  1  0.28265305  0.71734695  0.57427938  1
  Al  Al19  1  0.71734695  0.28265305  0.42572062  1
  Al  Al20  1  0.96523932  0.03476068  0.67447751  1
  Al  Al21  1  0.03476068  0.96523932  0.32552249  1
  Al  Al22  1  0.03476068  0.96523932  0.17447751  1
  Al  Al23  1  0.96523932  0.03476068  0.82552249  1
  Al  Al24  1  -0.00000000  0.50000000  0.50000000  1
  Al  Al25  1  -0.00000000  0.50000000  0.00000000  1
  Al  Al26  1  0.50000000  0.00000000  0.00000000  1
  Al  Al27  1  0.50000000  0.00000000  0.50000000  1
  Al  Al28  1  0.75070716  0.24929284  0.59242448  1
  Al  Al29  1  0.24929284  0.75070716  0.40757552  1
  Al  Al30  1  0.24929284  0.75070716  0.09242448  1
  Al  Al31  1  0.75070716  0.24929284  0.90757552  1
  Al  Al32  1  0.26846122  0.29179164  0.75000000  1
  Al  Al33  1  0.73153878  0.70820836  0.25000000  1
  Al  Al34  1  0.70820836  0.73153878  0.75000000  1
  Al  Al35  1  0.29179164  0.26846122  0.25000000  1
  Al  Al36  1  0.50526568  0.49473432  0.64315147  1
  Al  Al37  1  0.49473432  0.50526568  0.35684853  1
  Al  Al38  1  0.49473432  0.50526568  0.14315147  1
  Al  Al39  1  0.50526568  0.49473432  0.85684853  1
  Re  Re0  1  0.12987703  0.37395757  0.62111679  1
  Re  Re1  1  0.87012297  0.62604243  0.37888321  1
  Re  Re2  1  0.87012297  0.62604243  0.12111679  1
  Re  Re3  1  0.62604243  0.87012297  0.87888321  1
  Re  Re4  1  0.12987703  0.37395757  0.87888321  1
  Re  Re5  1  0.37395757  0.12987703  0.12111679  1
  Re  Re6  1  0.37395757  0.12987703  0.37888321  1
  Re  Re7  1  0.62604243  0.87012297  0.62111679  1
loop_
_geom_bond_atom_site_label_1
_geom_bond_atom_site_label_2
_geom_bond_distance
_geom_bond_site_symmetry_2
Dy2 Re1 3.418233 1_445
Dy2 Re7 3.418233 1_445
Dy2 Re0 3.418233 1_555
Dy2 Re6 3.418233 1_555
Dy3 Re3 3.418233 1_444
Dy3 Re4 3.418233 1_554
Dy3 Re2 3.418233 1_445
Dy3 Re5 3.418233 1_555
Al0 Re6 2.669631 1_555
Al0 Re0 2.669631 1_555
Al0 Al27 2.732674 1_555
Al0 Al24 2.732674 1_555
Al0 Al1 2.759179 1_555
Al0 Al37 2.918766 1_555
Al0 Al36 2.918766 1_555
Al0 Al11 2.938994 1_555
Al0 Al5 2.938994 1_555
Al0 Al19 2.947408 1_555
Al0 Al18 2.947408 1_555
Al0 Dy2 3.221059 1_555
Al1 Re1 2.669631 1_555
Al1 Re7 2.669631 1_555
Al1 Al24 2.732674 1_655
Al1 Al27 2.732674 1_565
Al1 Al37 2.918766 1_555
Al1 Al36 2.918766 1_555
Al1 Al4 2.938994 1_555
Al1 Al10 2.938994 1_555
Al1 Al19 2.947408 1_555
Al1 Al18 2.947408 1_555
Al1 Dy2 3.221059 1_665
Al2 Re3 2.669631 1_554
Al2 Re2 2.669631 1_555
Al2 Al25 2.732674 1_655
Al2 Al26 2.732674 1_565
Al2 Al3 2.759179 1_555
Al2 Al39 2.918766 1_554
Al2 Al38 2.918766 1_555
Al2 Al9 2.938994 1_555
Al2 Al8 2.938994 1_554
Al2 Dy3 3.221059 1_665
Al3 Re4 2.669631 1_554
Al3 Re5 2.669631 1_555
Al3 Al39 2.918766 1_554
Al3 Al38 2.918766 1_555
Al3 Al6 2.938994 1_555
Al3 Al7 2.938994 1_554
Al3 Dy3 3.221059 1_555
Al4 Re0 2.590868 1_655
Al4 Re7 2.594810 1_555
Al4 Dy0 3.237772 1_655
Al4 Dy2 3.362263 1_665
Al5 Re1 2.590868 1_455
Al5 Re6 2.594810 1_555
Al5 Dy1 3.237772 1_455
Al5 Dy2 3.362263 1_555
Al6 Re2 2.590868 1_455
Al6 Re5 2.594810 1_555
Al6 Dy1 3.237772 1_455
Al6 Dy3 3.362263 1_555
Al7 Re3 2.590868 1_545
Al7 Re4 2.594810 1_555
Al7 Dy0 3.237772 1_545
Al7 Dy3 3.362263 1_556
Al8 Re4 2.590868 1_655
Al8 Re3 2.594810 1_555
Al8 Dy0 3.237772 1_655
Al8 Dy3 3.362263 1_666
Al9 Re5 2.590868 1_565
Al9 Re2 2.594810 1_555
Al9 Dy1 3.237772 1_565
Al9 Dy3 3.362263 1_665
Al10 Re6 2.590868 1_565
Al10 Re1 2.594810 1_555
Al10 Al21 2.745150 1_655
Al10 Al19 2.764531 1_565
Al10 Al15 2.818585 1_555
Al10 Al37 2.878372 1_555
Al10 Al29 2.948339 1_555
Al10 Dy1 3.237772 1_565
Al10 Dy2 3.362263 1_665
Al11 Re7 2.590868 1_545
Al11 Re0 2.594810 1_555
Al11 Al20 2.745150 1_455
Al11 Al18 2.764531 1_545
Al11 Al14 2.818585 1_555
Al11 Al36 2.878372 1_555
Al11 Al28 2.948339 1_555
Al11 Dy0 3.237772 1_545
Al11 Dy2 3.362263 1_555
Al12 Al32 2.630326 1_655
Al12 Al14 2.752075 1_555
Al12 Re0 2.774373 1_655
Al12 Re4 2.774373 1_655
Al12 Al8 2.818585 1_555
Al12 Al4 2.818585 1_555
Al12 Al23 2.855396 1_555
Al12 Al20 2.855396 1_555
Al12 Al34 2.879544 1_555
Al12 Dy0 3.224918 1_655
Al13 Al33 2.630326 1_455
Al13 Al15 2.752075 1_555
Al13 Re2 2.774373 1_455
Al13 Re1 2.774373 1_455
Al13 Al5 2.818585 1_555
Al13 Al6 2.818585 1_555
Al13 Al21 2.855396 1_555
Al13 Al22 2.855396 1_555
Al13 Al35 2.879544 1_555
Al13 Dy1 3.224918 1_455
Al14 Al34 2.630326 1_545
Al14 Re3 2.774373 1_545
Al14 Re7 2.774373 1_545
Al14 Al7 2.818585 1_555
Al14 Al20 2.855396 1_555
Al14 Al23 2.855396 1_555
Al14 Al32 2.879544 1_555
Al14 Dy0 3.224918 1_545
Al15 Al35 2.630326 1_565
Al15 Re5 2.774373 1_565
Al15 Re6 2.774373 1_565
Al15 Al9 2.818585 1_555
Al15 Al21 2.855396 1_555
Al15 Al22 2.855396 1_555
Al15 Al33 2.879544 1_555
Al15 Dy1 3.224918 1_565
Al16 Al38 2.603752 1_555
Al16 Re5 2.623099 1_555
Al16 Re2 2.623099 1_555
Al16 Al25 2.680471 1_655
Al16 Al26 2.680471 1_555
Al16 Al9 2.764531 1_545
Al16 Al6 2.764531 1_655
Al16 Al2 2.947408 1_555
Al16 Al3 2.947408 1_555
Al16 Al31 3.014285 1_554
Al16 Dy1 3.167969 1_555
Al16 Dy3 3.200380 1_655
Al17 Al39 2.603752 1_555
Al17 Re4 2.623099 1_555
Al17 Re3 2.623099 1_555
Al17 Al26 2.680471 1_566
Al17 Al25 2.680471 1_556
Al17 Al8 2.764531 1_455
Al17 Al7 2.764531 1_565
Al17 Al2 2.947408 1_556
Al17 Al3 2.947408 1_556
Al17 Al30 3.014285 1_556
Al17 Dy0 3.167969 1_555
Al17 Dy3 3.200380 1_566
Al18 Al36 2.603752 1_555
Al18 Re7 2.623099 1_555
Al18 Re0 2.623099 1_555
Al18 Al27 2.680471 1_565
Al18 Al24 2.680471 1_555
Al18 Al4 2.764531 1_455
Al18 Al29 3.014285 1_555
Al18 Dy0 3.167969 1_555
Al18 Dy2 3.200380 1_565
Al19 Al37 2.603752 1_555
Al19 Re6 2.623099 1_555
Al19 Re1 2.623099 1_555
Al19 Al24 2.680471 1_655
Al19 Al27 2.680471 1_555
Al19 Al5 2.764531 1_655
Al19 Al28 3.014285 1_555
Al19 Dy1 3.167969 1_555
Al19 Dy2 3.200380 1_655
Al20 Al28 2.654687 1_555
Al20 Re7 2.664332 1_545
Al20 Re0 2.664332 1_655
Al20 Al23 2.713373 1_555
Al20 Al4 2.745150 1_545
Al20 Al32 2.922454 1_655
Al20 Al34 2.922454 1_545
Al20 Dy2 3.154664 1_655
Al20 Dy0 3.291664 1_645
Al21 Al29 2.654687 1_555
Al21 Re1 2.664332 1_455
Al21 Re6 2.664332 1_565
Al21 Al22 2.713373 1_555
Al21 Al5 2.745150 1_565
Al21 Al33 2.922454 1_455
Al21 Al35 2.922454 1_565
Al21 Dy2 3.154664 1_565
Al21 Dy1 3.291664 1_465
Al22 Al30 2.654687 1_555
Al22 Re2 2.664332 1_455
Al22 Re5 2.664332 1_565
Al22 Al6 2.745150 1_565
Al22 Al9 2.745150 1_455
Al22 Al33 2.922454 1_455
Al22 Al35 2.922454 1_565
Al22 Dy3 3.154664 1_565
Al22 Dy1 3.291664 1_465
Al23 Al31 2.654687 1_555
Al23 Re3 2.664332 1_545
Al23 Re4 2.664332 1_655
Al23 Al7 2.745150 1_655
Al23 Al8 2.745150 1_545
Al23 Al32 2.922454 1_655
Al23 Al34 2.922454 1_545
Al23 Dy3 3.154664 1_656
Al23 Dy0 3.291664 1_645
Al24 Re1 2.543306 1_455
Al24 Re0 2.543306 1_555
Al24 Al29 2.836932 1_555
Al24 Al28 2.836932 1_455
Al24 Dy2 3.451267 1_565
Al24 Dy2 3.451267 1_555
Al25 Re4 2.543306 1_554
Al25 Re2 2.543306 1_455
Al25 Al3 2.732674 1_555
Al25 Al31 2.836932 1_454
Al25 Al30 2.836932 1_555
Al25 Dy3 3.451267 1_555
Al25 Dy3 3.451267 1_565
Al26 Re3 2.543306 1_544
Al26 Re5 2.543306 1_555
Al26 Al3 2.732674 1_555
Al26 Al30 2.836932 1_545
Al26 Al31 2.836932 1_554
Al26 Dy3 3.451267 1_555
Al26 Dy3 3.451267 1_655
Al27 Re6 2.543306 1_555
Al27 Re7 2.543306 1_545
Al27 Al29 2.836932 1_545
Al27 Al28 2.836932 1_555
Al27 Dy2 3.451267 1_655
Al27 Dy2 3.451267 1_555
Al28 Al36 2.685319 1_555
Al28 Re7 2.711781 1_545
Al28 Re0 2.711781 1_655
Al28 Al4 2.948339 1_555
Al28 Dy2 3.055978 1_655
Al29 Al37 2.685319 1_555
Al29 Re6 2.711781 1_565
Al29 Re1 2.711781 1_455
Al29 Al5 2.948339 1_555
Al29 Dy2 3.055978 1_565
Al30 Al38 2.685319 1_555
Al30 Re5 2.711781 1_565
Al30 Re2 2.711781 1_455
Al30 Al9 2.948339 1_555
Al30 Al6 2.948339 1_555
Al30 Dy3 3.055978 1_565
Al31 Al39 2.685319 1_555
Al31 Re3 2.711781 1_545
Al31 Re4 2.711781 1_655
Al31 Al8 2.948339 1_555
Al31 Al7 2.948339 1_555
Al31 Dy3 3.055978 1_656
Al32 Re0 2.591936 1_555
Al32 Re4 2.591936 1_555
Al32 Al36 2.794206 1_555
Al32 Al39 2.794206 1_555
Al32 Dy0 3.127033 1_555
Al33 Re2 2.591936 1_555
Al33 Re1 2.591936 1_555
Al33 Al37 2.794206 1_555
Al33 Al38 2.794206 1_555
Al33 Dy1 3.127033 1_555
Al34 Re7 2.591936 1_555
Al34 Re3 2.591936 1_555
Al34 Al36 2.794206 1_555
Al34 Al39 2.794206 1_555
Al34 Dy0 3.127033 1_555
Al35 Re5 2.591936 1_555
Al35 Re6 2.591936 1_555
Al35 Al37 2.794206 1_555
Al35 Al38 2.794206 1_555
Al35 Dy1 3.127033 1_555
Al36 Re0 2.661556 1_555
Al36 Re7 2.661556 1_555
Al36 Al4 2.878372 1_555
Al36 Dy0 3.198564 1_555
Al37 Re1 2.661556 1_555
Al37 Re6 2.661556 1_555
Al37 Al5 2.878372 1_555
Al37 Dy1 3.198564 1_555
Al38 Re5 2.661556 1_555
Al38 Re2 2.661556 1_555
Al38 Al9 2.878372 1_555
Al38 Al6 2.878372 1_555
Al38 Dy1 3.198564 1_555
Al39 Re4 2.661556 1_555
Al39 Re3 2.661556 1_555
Al39 Al7 2.878372 1_555
Al39 Al8 2.878372 1_555
Al39 Dy0 3.198564 1_555
