# generated using pymatgen
data_AlCuSeS
_symmetry_space_group_name_H-M   'P 1'
_cell_length_a   5.48828600
_cell_length_b   5.47383600
_cell_length_c   6.67511559
_cell_angle_alpha   65.79403015
_cell_angle_beta   65.72601808
_cell_angle_gamma   90.00000000
_symmetry_Int_Tables_number   1
_chemical_formula_structural   AlCuSeS
_chemical_formula_sum   'Al2 Cu2 Se2 S2'
_cell_volume   163.26958567
_cell_formula_units_Z   2
loop_
 _symmetry_equiv_pos_site_id
 _symmetry_equiv_pos_as_xyz
  1  'x, y, z'
loop_
 _atom_site_type_symbol
 _atom_site_label
 _atom_site_symmetry_multiplicity
 _atom_site_fract_x
 _atom_site_fract_y
 _atom_site_fract_z
 _atom_site_occupancy
  Al  Al0  1  0.24407900  0.74407900  0.51184100  1
  Al  Al1  1  0.50592100  0.50592100  0.98815900  1
  Cu  Cu0  1  0.73780200  0.23780200  0.52439700  1
  Cu  Cu1  1  0.01219800  0.01219800  0.97560300  1
  Se  Se0  1  0.12402400  0.12500000  0.25000000  1
  Se  Se1  1  0.62597600  0.62500000  0.25000000  1
  S  S0  1  0.37500000  0.86480700  0.75000000  1
  S  S1  1  0.87500000  0.38519300  0.75000000  1
loop_
_geom_bond_atom_site_label_1
_geom_bond_atom_site_label_2
_geom_bond_distance
_geom_bond_site_symmetry_2
Al0 S1 2.298028 1_455
Al0 S0 2.298035 1_555
Al0 Se0 2.407282 1_565
Al0 Se1 2.407282 1_555
Al1 S1 2.298031 1_555
Al1 S0 2.298031 1_555
Al1 Se1 2.407279 1_556
Al1 Se0 2.407285 1_556
Cu0 S1 2.326877 1_555
Cu0 S0 2.326883 1_545
Cu0 Se0 2.442227 1_655
Cu0 Se1 2.442227 1_555
Cu1 S0 2.326880 1_545
Cu1 S1 2.326880 1_455
Cu1 Se1 2.442224 1_446
Cu1 Se0 2.442230 1_556
