# generated using pymatgen
data_LiCoAsO4
_symmetry_space_group_name_H-M   'P 1'
_cell_length_a   5.86507563
_cell_length_b   10.11084762
_cell_length_c   5.86445274
_cell_angle_alpha   72.79632123
_cell_angle_beta   118.43636215
_cell_angle_gamma   89.54917287
_symmetry_Int_Tables_number   1
_chemical_formula_structural   LiCoAsO4
_chemical_formula_sum   'Li4 Co4 As4 O16'
_cell_volume   287.51172912
_cell_formula_units_Z   4
loop_
 _symmetry_equiv_pos_site_id
 _symmetry_equiv_pos_as_xyz
  1  'x, y, z'
loop_
 _atom_site_type_symbol
 _atom_site_label
 _atom_site_symmetry_multiplicity
 _atom_site_fract_x
 _atom_site_fract_y
 _atom_site_fract_z
 _atom_site_occupancy
  Li  Li0  1  0.00050000  0.00029200  0.49906300  1
  Li  Li1  1  0.49950000  0.49970800  0.50093700  1
  Li  Li2  1  0.75000000  0.25000000  0.50000000  1
  Li  Li3  1  0.25000000  0.75000000  0.50000000  1
  Co  Co0  1  0.25000000  0.75000000  0.00000000  1
  Co  Co1  1  0.75000000  0.75000000  0.50000000  1
  Co  Co2  1  0.75000000  0.25000000  0.00000000  1
  Co  Co3  1  0.25000000  0.25000000  0.50000000  1
  As  As0  1  0.31527300  0.06524900  0.11946200  1
  As  As1  1  0.81529500  0.56554300  0.11902700  1
  As  As2  1  0.18472700  0.43475100  0.88053800  1
  As  As3  1  0.68470500  0.93445700  0.88097300  1
  O  O0  1  0.87418700  0.38062600  0.24476800  1
  O  O1  1  0.37274000  0.88129700  0.24587000  1
  O  O2  1  0.13123700  0.12255200  0.24602200  1
  O  O3  1  0.63048500  0.62411200  0.24524900  1
  O  O4  1  0.62581300  0.11937400  0.75523200  1
  O  O5  1  0.12726000  0.61870300  0.75413000  1
  O  O6  1  0.36876300  0.37744800  0.75397700  1
  O  O7  1  0.86951500  0.87588800  0.75475100  1
  O  O8  1  0.13369200  0.12357400  0.76277000  1
  O  O9  1  0.63396700  0.62378500  0.76289300  1
  O  O10  1  0.61368200  0.12343900  0.24310100  1
  O  O11  1  0.11325700  0.62372100  0.24228600  1
  O  O12  1  0.36630800  0.37642500  0.23723000  1
  O  O13  1  0.86603300  0.87621500  0.23710700  1
  O  O14  1  0.88631800  0.37656100  0.75689900  1
  O  O15  1  0.38674400  0.87627900  0.75771400  1
loop_
_geom_bond_atom_site_label_1
_geom_bond_atom_site_label_2
_geom_bond_distance
_geom_bond_site_symmetry_2
Li0 O2 2.081248 1_555
Li0 O7 2.101744 1_445
Li0 O10 2.134780 1_455
Li0 O13 2.134846 1_445
Li0 O8 2.135580 1_555
Li0 O15 2.136017 1_545
Li1 O6 2.081244 1_555
Li1 O3 2.101744 1_555
Li1 O14 2.134780 1_555
Li1 O9 2.134846 1_555
Li1 O12 2.135588 1_555
Li1 O11 2.136012 1_555
Li2 O0 2.097448 1_555
Li2 O4 2.097448 1_555
Li2 O14 2.134437 1_555
Li2 O10 2.134437 1_555
Li2 O12 2.135352 1_555
Li2 O8 2.135356 1_655
Li3 O1 2.090000 1_555
Li3 O5 2.090000 1_555
Li3 O11 2.135604 1_555
Li3 O15 2.135604 1_555
Li3 O9 2.135723 1_555
Li3 O13 2.135723 1_455
Co0 O11 2.078588 1_555
Co0 O15 2.078593 1_554
Co0 O3 2.117620 1_555
Co0 O7 2.117620 1_454
Co0 O5 2.125650 1_554
Co0 O1 2.125650 1_555
Co1 O13 2.077896 1_555
Co1 O9 2.077896 1_555
Co1 O7 2.117778 1_555
Co1 O3 2.117778 1_555
Co1 O1 2.126546 1_555
Co1 O5 2.126546 1_655
Co2 O14 2.081266 1_554
Co2 O10 2.081266 1_555
Co2 O0 2.115706 1_555
Co2 O4 2.115706 1_554
Co2 O6 2.127033 1_554
Co2 O2 2.127033 1_655
Co3 O12 2.079330 1_555
Co3 O8 2.079334 1_555
Co3 O4 2.117989 1_555
Co3 O0 2.117989 1_455
Co3 O6 2.127329 1_555
Co3 O2 2.127333 1_555
As0 O10 1.730619 1_555
As0 O8 1.731009 1_554
As0 O1 1.748998 1_545
As0 O2 1.749034 1_555
As1 O9 1.728306 1_554
As1 O11 1.728343 1_655
As1 O3 1.756937 1_555
As1 O0 1.757964 1_555
As2 O14 1.730619 1_455
As2 O12 1.731009 1_556
As2 O5 1.748998 1_555
As2 O6 1.749039 1_555
As3 O13 1.728306 1_556
As3 O15 1.728338 1_555
As3 O7 1.756937 1_555
As3 O4 1.757964 1_565
