# generated using pymatgen
data_ZnCr4O6
_symmetry_space_group_name_H-M   'P 1'
_cell_length_a   5.26734341
_cell_length_b   5.26734341
_cell_length_c   15.41064700
_cell_angle_alpha   90.00000000
_cell_angle_beta   90.00000000
_cell_angle_gamma   146.91570754
_symmetry_Int_Tables_number   1
_chemical_formula_structural   ZnCr4O6
_chemical_formula_sum   'Zn2 Cr8 O12'
_cell_volume   233.39695297
_cell_formula_units_Z   2
loop_
 _symmetry_equiv_pos_site_id
 _symmetry_equiv_pos_as_xyz
  1  'x, y, z'
loop_
 _atom_site_type_symbol
 _atom_site_label
 _atom_site_symmetry_multiplicity
 _atom_site_fract_x
 _atom_site_fract_y
 _atom_site_fract_z
 _atom_site_occupancy
  Zn  Zn0  1  0.33854900  0.66145100  0.75000000  1
  Zn  Zn1  1  0.66145100  0.33854900  0.25000000  1
  Cr  Cr0  1  0.13633000  0.86367000  0.04578200  1
  Cr  Cr1  1  0.59552700  0.40447300  0.63528400  1
  Cr  Cr2  1  0.86367000  0.13633000  0.95421800  1
  Cr  Cr3  1  0.40447300  0.59552700  0.36471600  1
  Cr  Cr4  1  0.13633000  0.86367000  0.45421800  1
  Cr  Cr5  1  0.86367000  0.13633000  0.54578200  1
  Cr  Cr6  1  0.40447300  0.59552700  0.13528400  1
  Cr  Cr7  1  0.59552700  0.40447300  0.86471600  1
  O  O0  1  0.50000000  0.50000000  0.50000000  1
  O  O1  1  0.50000000  0.50000000  0.00000000  1
  O  O2  1  0.96017900  0.03982100  0.83999500  1
  O  O3  1  0.03982100  0.96017900  0.16000500  1
  O  O4  1  0.03982100  0.96017900  0.33999500  1
  O  O5  1  0.96017900  0.03982100  0.66000500  1
  O  O6  1  0.21511200  0.78488800  0.92038200  1
  O  O7  1  0.78488800  0.21511200  0.07961800  1
  O  O8  1  0.78488800  0.21511200  0.42038200  1
  O  O9  1  0.21511200  0.78488800  0.57961800  1
  O  O10  1  0.69923800  0.30076200  0.75000000  1
  O  O11  1  0.30076200  0.69923800  0.25000000  1
loop_
_geom_bond_atom_site_label_1
_geom_bond_atom_site_label_2
_geom_bond_distance
_geom_bond_site_symmetry_2
Cr0 O3 2.012051 1_555
Cr0 O6 2.089858 1_554
Cr0 O1 2.154618 1_565
Cr0 O1 2.154618 1_455
Cr0 O7 2.184438 1_565
Cr0 O7 2.184438 1_455
Cr1 O10 2.054802 1_555
Cr1 O5 2.064590 1_565
Cr1 O5 2.064590 1_455
Cr1 O9 2.107957 1_655
Cr1 O9 2.107957 1_545
Cr1 O0 2.297191 1_555
Cr2 O2 2.012051 1_555
Cr2 O7 2.089858 1_556
Cr2 O1 2.154618 1_656
Cr2 O1 2.154618 1_546
Cr2 O6 2.184438 1_655
Cr2 O6 2.184438 1_545
Cr3 O11 2.054802 1_555
Cr3 O4 2.064590 1_655
Cr3 O4 2.064590 1_545
Cr3 O8 2.107957 1_565
Cr3 O8 2.107957 1_455
Cr3 O0 2.297191 1_555
Cr4 O4 2.012051 1_555
Cr4 O9 2.089858 1_555
Cr4 O0 2.154618 1_565
Cr4 O0 2.154618 1_455
Cr4 O8 2.184438 1_565
Cr4 O8 2.184438 1_455
Cr5 O5 2.012051 1_555
Cr5 O8 2.089858 1_555
Cr5 O0 2.154618 1_655
Cr5 O0 2.154618 1_545
Cr5 O9 2.184438 1_655
Cr5 O9 2.184438 1_545
Cr6 O11 2.054802 1_555
Cr6 O3 2.064590 1_655
Cr6 O3 2.064590 1_545
Cr6 O7 2.107957 1_565
Cr6 O7 2.107957 1_455
Cr6 O1 2.297191 1_555
Cr7 O10 2.054802 1_555
Cr7 O2 2.064590 1_455
Cr7 O2 2.064590 1_565
Cr7 O6 2.107957 1_655
Cr7 O6 2.107957 1_545
Cr7 O1 2.297191 1_556
O2 Zn0 2.383553 1_545
O2 Zn0 2.383553 1_655
O3 Zn1 2.383553 1_455
O3 Zn1 2.383553 1_565
O4 Zn1 2.383553 1_455
O4 Zn1 2.383553 1_565
O5 Zn0 2.383553 1_545
O5 Zn0 2.383553 1_655
O10 Zn0 2.056308 1_545
O10 Zn0 2.056308 1_655
O11 Zn1 2.056308 1_455
O11 Zn1 2.056308 1_565
