# generated using pymatgen
data_CaMn2(P2O7)2
_symmetry_space_group_name_H-M   'P 1'
_cell_length_a   5.16439604
_cell_length_b   6.23272846
_cell_length_c   10.02167817
_cell_angle_alpha   106.91353012
_cell_angle_beta   102.72078656
_cell_angle_gamma   104.79568336
_symmetry_Int_Tables_number   1
_chemical_formula_structural   CaMn2(P2O7)2
_chemical_formula_sum   'Ca1 Mn2 P4 O14'
_cell_volume   282.86798942
_cell_formula_units_Z   1
loop_
 _symmetry_equiv_pos_site_id
 _symmetry_equiv_pos_as_xyz
  1  'x, y, z'
loop_
 _atom_site_type_symbol
 _atom_site_label
 _atom_site_symmetry_multiplicity
 _atom_site_fract_x
 _atom_site_fract_y
 _atom_site_fract_z
 _atom_site_occupancy
  Ca  Ca0  1  0.20451400  0.75808400  0.02838100  1
  Mn  Mn0  1  0.08322400  0.60307400  0.36723000  1
  Mn  Mn1  1  0.90488100  0.38781300  0.63064700  1
  P  P0  1  0.24057500  0.15240700  0.39155000  1
  P  P1  1  0.59781500  0.67666400  0.84610700  1
  P  P2  1  0.40774900  0.32442200  0.15094900  1
  P  P3  1  0.74353400  0.84623800  0.61450200  1
  O  O0  1  0.04965900  0.89574200  0.35012200  1
  O  O1  1  0.06737000  0.32037600  0.42375100  1
  O  O2  1  0.27502800  0.55364100  0.78374100  1
  O  O3  1  0.26747900  0.51532800  0.17735500  1
  O  O4  1  0.30704400  0.13630300  0.99957600  1
  O  O5  1  0.46787500  0.75988400  0.49105100  1
  O  O6  1  0.67660400  0.86333000  0.76427600  1
  O  O7  1  0.30955600  0.14936300  0.24371800  1
  O  O8  1  0.51153300  0.23425300  0.51652400  1
  O  O9  1  0.67401200  0.81511400  0.00911000  1
  O  O10  1  0.77873400  0.51898600  0.81956700  1
  O  O11  1  0.73058000  0.42809800  0.21650700  1
  O  O12  1  0.91378200  0.67466600  0.58236500  1
  O  O13  1  0.93845000  0.09454800  0.64158400  1
loop_
_geom_bond_atom_site_label_1
_geom_bond_atom_site_label_2
_geom_bond_distance
_geom_bond_site_symmetry_2
Ca0 O4 2.397184 1_564
Ca0 O9 2.418402 1_555
Ca0 O10 2.433201 1_454
Ca0 O3 2.444547 1_555
Ca0 O2 2.565072 1_554
Ca0 O7 2.577854 1_565
Ca0 O9 2.823832 1_455
Mn0 O11 1.898233 1_455
Mn0 O5 1.912668 1_555
Mn0 O0 1.928014 1_555
Mn0 O1 1.989871 1_555
Mn0 O3 2.298517 1_555
Mn0 O12 2.466533 1_455
Mn1 O13 1.911314 1_555
Mn1 O8 1.922906 1_555
Mn1 O2 1.962892 1_655
Mn1 O12 1.975835 1_555
Mn1 O10 2.142892 1_555
Mn1 O1 2.370518 1_655
O0 P0 1.526860 1_565
O1 P0 1.552134 1_555
O2 P1 1.538482 1_555
O3 P2 1.533633 1_555
O4 P2 1.500900 1_556
O5 P3 1.514110 1_555
O6 P3 1.593124 1_555
O6 P1 1.628503 1_555
O7 P0 1.594277 1_555
O7 P2 1.681444 1_555
O8 P0 1.509573 1_555
O9 P1 1.513695 1_554
O10 P1 1.528362 1_555
O11 P2 1.532704 1_555
O12 P3 1.557186 1_555
O13 P3 1.523731 1_545
