# generated using pymatgen
data_PmTm
_symmetry_space_group_name_H-M   'P 1'
_cell_length_a   7.25098279
_cell_length_b   7.25098279
_cell_length_c   11.70136060
_cell_angle_alpha   90.00000000
_cell_angle_beta   90.00000000
_cell_angle_gamma   119.99999046
_symmetry_Int_Tables_number   1
_chemical_formula_structural   PmTm
_chemical_formula_sum   'Pm8 Tm8'
_cell_volume   532.79579159
_cell_formula_units_Z   8
loop_
 _symmetry_equiv_pos_site_id
 _symmetry_equiv_pos_as_xyz
  1  'x, y, z'
loop_
 _atom_site_type_symbol
 _atom_site_label
 _atom_site_symmetry_multiplicity
 _atom_site_fract_x
 _atom_site_fract_y
 _atom_site_fract_z
 _atom_site_occupancy
  Pm  Pm0_0  1  0.16666650  0.33333350  0.25000000  1
  Pm  Pm0_1  1  0.16666650  0.33333350  0.75000000  1
  Pm  Pm0_2  1  0.16666650  0.83333350  0.25000000  1
  Pm  Pm0_3  1  0.16666650  0.83333350  0.75000000  1
  Pm  Pm0_4  1  0.66666650  0.33333350  0.25000000  1
  Pm  Pm0_5  1  0.66666650  0.33333350  0.75000000  1
  Pm  Pm0_6  1  0.66666650  0.83333350  0.25000000  1
  Pm  Pm0_7  1  0.66666650  0.83333350  0.75000000  1
  Tm  Tm0_0  1  0.00000000  0.00000000  0.00000000  1
  Tm  Tm0_1  1  0.00000000  0.00000000  0.50000000  1
  Tm  Tm0_2  1  0.00000000  0.50000000  0.00000000  1
  Tm  Tm0_3  1  0.00000000  0.50000000  0.50000000  1
  Tm  Tm0_4  1  0.50000000  0.00000000  0.00000000  1
  Tm  Tm0_5  1  0.50000000  0.00000000  0.50000000  1
  Tm  Tm0_6  1  0.50000000  0.50000000  0.00000000  1
  Tm  Tm0_7  1  0.50000000  0.50000000  0.50000000  1
loop_
_geom_bond_atom_site_label_1
_geom_bond_atom_site_label_2
_geom_bond_distance
_geom_bond_site_symmetry_2
Pm0_0 Tm0_3 3.597082 1_555
Pm0_0 Tm0_2 3.597082 1_555
Pm0_0 Tm0_1 3.597084 1_555
Pm0_0 Tm0_0 3.597084 1_555
Pm0_0 Tm0_7 3.597084 1_555
Pm0_0 Tm0_6 3.597084 1_555
Pm0_0 Pm0_2 3.625491 1_555
Pm0_0 Pm0_4 3.625491 1_455
Pm0_0 Pm0_4 3.625491 1_555
Pm0_0 Pm0_2 3.625491 1_545
Pm0_0 Pm0_6 3.625492 1_555
Pm0_0 Pm0_6 3.625492 1_445
Pm0_1 Tm0_3 3.597082 1_555
Pm0_1 Tm0_2 3.597082 1_556
Pm0_1 Tm0_1 3.597084 1_555
Pm0_1 Tm0_6 3.597084 1_556
Pm0_1 Tm0_7 3.597084 1_555
Pm0_1 Tm0_0 3.597084 1_556
Pm0_1 Pm0_3 3.625491 1_555
Pm0_1 Pm0_5 3.625491 1_455
Pm0_1 Pm0_5 3.625491 1_555
Pm0_1 Pm0_3 3.625491 1_545
Pm0_1 Pm0_7 3.625492 1_555
Pm0_1 Pm0_7 3.625492 1_445
Pm0_2 Tm0_0 3.597082 1_565
Pm0_2 Tm0_1 3.597082 1_565
Pm0_2 Tm0_4 3.597084 1_565
Pm0_2 Tm0_3 3.597084 1_555
Pm0_2 Tm0_5 3.597084 1_565
Pm0_2 Tm0_2 3.597084 1_555
Pm0_2 Pm0_6 3.625491 1_455
Pm0_2 Pm0_6 3.625491 1_555
Pm0_2 Pm0_4 3.625492 1_565
Pm0_2 Pm0_4 3.625492 1_455
Pm0_3 Tm0_0 3.597082 1_566
Pm0_3 Tm0_1 3.597082 1_565
Pm0_3 Tm0_3 3.597084 1_555
Pm0_3 Tm0_4 3.597084 1_566
Pm0_3 Tm0_5 3.597084 1_565
Pm0_3 Tm0_2 3.597084 1_556
Pm0_3 Pm0_7 3.625491 1_555
Pm0_3 Pm0_7 3.625491 1_455
Pm0_3 Pm0_5 3.625492 1_565
Pm0_3 Pm0_5 3.625492 1_455
Pm0_4 Tm0_7 3.597082 1_555
Pm0_4 Tm0_6 3.597082 1_555
Pm0_4 Tm0_4 3.597084 1_555
Pm0_4 Tm0_5 3.597084 1_555
Pm0_4 Tm0_2 3.597084 1_655
Pm0_4 Tm0_3 3.597084 1_655
Pm0_4 Pm0_6 3.625491 1_555
Pm0_4 Pm0_6 3.625491 1_545
Pm0_5 Tm0_6 3.597082 1_556
Pm0_5 Tm0_7 3.597082 1_555
Pm0_5 Tm0_4 3.597084 1_556
Pm0_5 Tm0_5 3.597084 1_555
Pm0_5 Tm0_2 3.597084 1_656
Pm0_5 Tm0_3 3.597084 1_655
Pm0_5 Pm0_7 3.625491 1_555
Pm0_5 Pm0_7 3.625491 1_545
Pm0_6 Tm0_4 3.597082 1_565
Pm0_6 Tm0_5 3.597082 1_565
Pm0_6 Tm0_0 3.597084 1_665
Pm0_6 Tm0_1 3.597084 1_665
Pm0_6 Tm0_7 3.597084 1_555
Pm0_6 Tm0_6 3.597084 1_555
Pm0_7 Tm0_5 3.597082 1_565
Pm0_7 Tm0_4 3.597082 1_566
Pm0_7 Tm0_0 3.597084 1_666
Pm0_7 Tm0_1 3.597084 1_665
Pm0_7 Tm0_6 3.597084 1_556
Pm0_7 Tm0_7 3.597084 1_555
Tm0_0 Tm0_2 3.625491 1_555
Tm0_0 Tm0_4 3.625491 1_455
Tm0_0 Tm0_2 3.625491 1_545
Tm0_0 Tm0_4 3.625491 1_555
Tm0_0 Tm0_6 3.625492 1_555
Tm0_0 Tm0_6 3.625492 1_445
Tm0_1 Tm0_5 3.625491 1_555
Tm0_1 Tm0_3 3.625491 1_545
Tm0_1 Tm0_3 3.625491 1_555
Tm0_1 Tm0_5 3.625491 1_455
Tm0_1 Tm0_7 3.625492 1_445
Tm0_1 Tm0_7 3.625492 1_555
Tm0_2 Tm0_6 3.625491 1_455
Tm0_2 Tm0_6 3.625491 1_555
Tm0_2 Tm0_4 3.625492 1_455
Tm0_2 Tm0_4 3.625492 1_565
Tm0_3 Tm0_7 3.625491 1_555
Tm0_3 Tm0_7 3.625491 1_455
Tm0_3 Tm0_5 3.625492 1_455
Tm0_3 Tm0_5 3.625492 1_565
Tm0_4 Tm0_6 3.625491 1_555
Tm0_4 Tm0_6 3.625491 1_545
Tm0_5 Tm0_7 3.625491 1_555
Tm0_5 Tm0_7 3.625491 1_545
