# generated using pymatgen
data_KEuNbBiO6
_symmetry_space_group_name_H-M   'P 1'
_cell_length_a   8.58757885
_cell_length_b   8.63790862
_cell_length_c   8.61022813
_cell_angle_alpha   90.00000000
_cell_angle_beta   90.00000000
_cell_angle_gamma   90.00000000
_symmetry_Int_Tables_number   1
_chemical_formula_structural   KEuNbBiO6
_chemical_formula_sum   'K4 Eu4 Nb4 Bi4 O24'
_cell_volume   638.69571342
_cell_formula_units_Z   4
loop_
 _symmetry_equiv_pos_site_id
 _symmetry_equiv_pos_as_xyz
  1  'x, y, z'
loop_
 _atom_site_type_symbol
 _atom_site_label
 _atom_site_symmetry_multiplicity
 _atom_site_fract_x
 _atom_site_fract_y
 _atom_site_fract_z
 _atom_site_occupancy
  K  K0  1  0.50000000  0.00000000  0.50000000  1
  K  K1  1  0.50000000  0.50000000  -0.00000000  1
  K  K2  1  -0.00000000  0.50000000  -0.00000000  1
  K  K3  1  -0.00000000  0.00000000  0.50000000  1
  Eu  Eu0  1  -0.00000000  0.50000000  0.50000000  1
  Eu  Eu1  1  0.50000000  0.00000000  -0.00000000  1
  Eu  Eu2  1  -0.00000000  0.00000000  -0.00000000  1
  Eu  Eu3  1  0.50000000  0.50000000  0.50000000  1
  Nb  Nb0  1  0.25000000  0.25000000  0.25000000  1
  Nb  Nb1  1  0.75000000  0.75000000  0.25000000  1
  Nb  Nb2  1  0.75000000  0.25000000  0.75000000  1
  Nb  Nb3  1  0.25000000  0.75000000  0.75000000  1
  Bi  Bi0  1  0.75000000  0.75000000  0.75000000  1
  Bi  Bi1  1  0.25000000  0.25000000  0.75000000  1
  Bi  Bi2  1  0.25000000  0.75000000  0.25000000  1
  Bi  Bi3  1  0.75000000  0.25000000  0.25000000  1
  O  O0  1  0.01519963  0.23938705  0.25972921  1
  O  O1  1  0.98480037  0.76061295  0.25972921  1
  O  O2  1  0.98480037  0.23938705  0.74027079  1
  O  O3  1  0.01519963  0.76061295  0.74027079  1
  O  O4  1  0.26034790  0.01469452  0.23287396  1
  O  O5  1  0.26034790  0.98530548  0.76712604  1
  O  O6  1  0.73965210  0.98530548  0.23287396  1
  O  O7  1  0.73965210  0.01469452  0.76712604  1
  O  O8  1  0.23885098  0.25456044  0.01518059  1
  O  O9  1  0.76114902  0.25456044  0.98481941  1
  O  O10  1  0.23885098  0.74543956  0.98481941  1
  O  O11  1  0.76114902  0.74543956  0.01518059  1
  O  O12  1  0.48480037  0.26061295  0.24027079  1
  O  O13  1  0.51519963  0.73938705  0.24027079  1
  O  O14  1  0.51519963  0.26061295  0.75972921  1
  O  O15  1  0.48480037  0.73938705  0.75972921  1
  O  O16  1  0.23965210  0.48530548  0.26712604  1
  O  O17  1  0.23965210  0.51469452  0.73287396  1
  O  O18  1  0.76034790  0.51469452  0.26712604  1
  O  O19  1  0.76034790  0.48530548  0.73287396  1
  O  O20  1  0.26114902  0.24543956  0.48481941  1
  O  O21  1  0.73885098  0.24543956  0.51518059  1
  O  O22  1  0.26114902  0.75456044  0.51518059  1
  O  O23  1  0.73885098  0.75456044  0.48481941  1
loop_
_geom_bond_atom_site_label_1
_geom_bond_atom_site_label_2
_geom_bond_distance
_geom_bond_site_symmetry_2
K0 O22 2.952806 1_545
K0 O20 2.952806 1_555
K0 O21 2.952806 1_555
K0 O23 2.952806 1_545
K0 O4 3.088961 1_555
K0 O5 3.088961 1_545
K0 O7 3.088961 1_555
K0 O6 3.088961 1_545
K0 O13 3.175827 1_545
K0 O12 3.175827 1_555
K0 O15 3.175827 1_545
K0 O14 3.175827 1_555
K1 O14 2.927922 1_554
K1 O15 2.927922 1_554
K1 O12 2.927922 1_555
K1 O13 2.927922 1_555
K1 O9 3.088894 1_554
K1 O10 3.088894 1_554
K1 O11 3.088894 1_555
K1 O8 3.088894 1_555
K1 O19 3.210109 1_554
K1 O17 3.210109 1_554
K1 O18 3.210109 1_555
K1 O16 3.210109 1_555
K2 O8 2.952806 1_555
K2 O10 2.952806 1_554
K2 O11 2.952806 1_455
K2 O9 2.952806 1_454
K2 O17 3.088961 1_554
K2 O19 3.088961 1_454
K2 O16 3.088961 1_555
K2 O18 3.088961 1_455
K2 O1 3.175827 1_455
K2 O3 3.175827 1_554
K2 O0 3.175827 1_555
K2 O2 3.175827 1_454
K3 O2 2.927922 1_455
K3 O3 2.927922 1_545
K3 O1 2.927922 1_445
K3 O0 2.927922 1_555
K3 O21 3.088894 1_455
K3 O20 3.088894 1_555
K3 O22 3.088894 1_545
K3 O23 3.088894 1_445
K3 O7 3.210109 1_455
K3 O5 3.210109 1_545
K3 O6 3.210109 1_445
K3 O4 3.210109 1_555
Eu0 O18 2.876112 1_455
Eu0 O16 2.876112 1_555
Eu0 O19 2.876112 1_455
Eu0 O17 2.876112 1_555
Eu0 O3 3.060162 1_555
Eu0 O1 3.060162 1_455
Eu0 O2 3.060162 1_455
Eu0 O0 3.060162 1_555
Eu0 O22 3.143491 1_555
Eu0 O23 3.143491 1_455
Eu0 O20 3.143491 1_555
Eu0 O21 3.143491 1_455
Eu1 O5 2.876112 1_544
Eu1 O4 2.876112 1_555
Eu1 O6 2.876112 1_545
Eu1 O7 2.876112 1_554
Eu1 O15 3.060162 1_544
Eu1 O13 3.060162 1_545
Eu1 O14 3.060162 1_554
Eu1 O12 3.060162 1_555
Eu1 O8 3.143491 1_555
Eu1 O11 3.143491 1_545
Eu1 O10 3.143491 1_544
Eu1 O9 3.143491 1_554
Eu2 O7 3.005852 1_454
Eu2 O6 3.005852 1_445
Eu2 O4 3.005852 1_555
Eu2 O5 3.005852 1_544
Eu2 O8 3.009873 1_555
Eu2 O10 3.009873 1_544
Eu2 O9 3.009873 1_454
Eu2 O11 3.009873 1_445
Eu2 O2 3.048608 1_454
Eu2 O1 3.048608 1_445
Eu2 O0 3.048608 1_555
Eu2 O3 3.048608 1_544
Eu3 O19 3.005852 1_555
Eu3 O17 3.005852 1_555
Eu3 O18 3.005852 1_555
Eu3 O16 3.005852 1_555
Eu3 O22 3.009873 1_555
Eu3 O20 3.009873 1_555
Eu3 O23 3.009873 1_555
Eu3 O21 3.009873 1_555
Eu3 O14 3.048608 1_555
Eu3 O12 3.048608 1_555
Eu3 O13 3.048608 1_555
Eu3 O15 3.048608 1_555
Nb0 O0 2.020187 1_555
Nb0 O12 2.020187 1_555
Nb0 O8 2.024498 1_555
Nb0 O20 2.024498 1_555
Nb0 O16 2.039826 1_555
Nb0 O4 2.039826 1_555
Nb1 O1 2.020187 1_555
Nb1 O13 2.020187 1_555
Nb1 O23 2.024498 1_555
Nb1 O11 2.024498 1_555
Nb1 O18 2.039826 1_555
Nb1 O6 2.039826 1_555
Nb2 O14 2.020187 1_555
Nb2 O2 2.020187 1_555
Nb2 O21 2.024498 1_555
Nb2 O9 2.024498 1_555
Nb2 O19 2.039826 1_555
Nb2 O7 2.039826 1_555
Nb3 O3 2.020187 1_555
Nb3 O15 2.020187 1_555
Nb3 O10 2.024498 1_555
Nb3 O22 2.024498 1_555
Nb3 O17 2.039826 1_555
Nb3 O5 2.039826 1_555
Bi0 O3 2.280806 1_655
Bi0 O15 2.280806 1_555
Bi0 O11 2.285611 1_556
Bi0 O23 2.285611 1_555
Bi0 O7 2.292880 1_565
Bi0 O19 2.292880 1_555
Bi1 O2 2.280806 1_455
Bi1 O14 2.280806 1_555
Bi1 O8 2.285611 1_556
Bi1 O20 2.285611 1_555
Bi1 O5 2.292880 1_545
Bi1 O17 2.292880 1_555
Bi2 O13 2.280806 1_555
Bi2 O1 2.280806 1_455
Bi2 O22 2.285611 1_555
Bi2 O10 2.285611 1_554
Bi2 O4 2.292880 1_565
Bi2 O16 2.292880 1_555
Bi3 O0 2.280806 1_655
Bi3 O12 2.280806 1_555
Bi3 O21 2.285611 1_555
Bi3 O9 2.285611 1_554
Bi3 O6 2.292880 1_545
Bi3 O18 2.292880 1_555
