# generated using pymatgen
data_K2H4OsO6
_symmetry_space_group_name_H-M   'P 1'
_cell_length_a   5.70432395
_cell_length_b   5.70432395
_cell_length_c   5.70432395
_cell_angle_alpha   105.26827385
_cell_angle_beta   111.61269448
_cell_angle_gamma   111.61269448
_symmetry_Int_Tables_number   1
_chemical_formula_structural   K2H4OsO6
_chemical_formula_sum   'K2 H4 Os1 O6'
_cell_volume   142.31519876
_cell_formula_units_Z   1
loop_
 _symmetry_equiv_pos_site_id
 _symmetry_equiv_pos_as_xyz
  1  'x, y, z'
loop_
 _atom_site_type_symbol
 _atom_site_label
 _atom_site_symmetry_multiplicity
 _atom_site_fract_x
 _atom_site_fract_y
 _atom_site_fract_z
 _atom_site_occupancy
  K  K0  1  0.50000000  0.25000000  0.75000000  1
  K  K1  1  0.50000000  0.75000000  0.25000000  1
  H  H0  1  0.65511200  0.82755600  0.82755600  1
  H  H1  1  0.34488800  0.17244400  0.17244400  1
  H  H2  1  0.00000000  0.17244400  0.82755600  1
  H  H3  1  0.00000000  0.82755600  0.17244400  1
  Os  Os0  1  0.00000000  0.50000000  0.50000000  1
  O  O0  1  0.00000000  0.23875500  0.23875500  1
  O  O1  1  0.00000000  0.76124500  0.76124500  1
  O  O2  1  0.44081900  0.72040900  0.72040900  1
  O  O3  1  0.55918100  0.27959100  0.27959100  1
  O  O4  1  0.00000000  0.27959100  0.72040900  1
  O  O5  1  0.00000000  0.72040900  0.27959100  1
loop_
_geom_bond_atom_site_label_1
_geom_bond_atom_site_label_2
_geom_bond_distance
_geom_bond_site_symmetry_2
K0 O2 2.864752 1_555
K0 O3 2.864752 1_555
K0 O5 2.864755 1_656
K0 O4 2.864755 1_555
K0 O4 2.864755 1_655
K0 O5 2.864755 1_545
K0 O3 2.864756 1_556
K0 O2 2.864756 1_545
K1 O2 2.864752 1_555
K1 O3 2.864752 1_555
K1 O4 2.864755 1_665
K1 O5 2.864755 1_555
K1 O4 2.864755 1_554
K1 O5 2.864755 1_655
K1 O3 2.864756 1_565
K1 O2 2.864756 1_554
H0 O2 0.971532 1_555
H1 O3 0.971532 1_555
H2 O4 0.971537 1_555
H3 O5 0.971537 1_555
O0 Os0 1.808844 1_555
O1 Os0 1.808844 1_555
O2 Os0 1.998524 1_555
O3 Os0 1.998524 1_655
O4 Os0 1.998520 1_555
O5 Os0 1.998520 1_555
