# generated using pymatgen
data_ErSiNi
_symmetry_space_group_name_H-M   'P 1'
_cell_length_a   4.11154046
_cell_length_b   6.75861429
_cell_length_c   7.08640201
_cell_angle_alpha   90.00000000
_cell_angle_beta   90.00000000
_cell_angle_gamma   90.00000000
_symmetry_Int_Tables_number   1
_chemical_formula_structural   ErSiNi
_chemical_formula_sum   'Er4 Si4 Ni4'
_cell_volume   196.91917911
_cell_formula_units_Z   4
loop_
 _symmetry_equiv_pos_site_id
 _symmetry_equiv_pos_as_xyz
  1  'x, y, z'
loop_
 _atom_site_type_symbol
 _atom_site_label
 _atom_site_symmetry_multiplicity
 _atom_site_fract_x
 _atom_site_fract_y
 _atom_site_fract_z
 _atom_site_occupancy
  Er  Er0  1  0.25000000  0.49115706  0.20291681  1
  Er  Er1  1  0.75000000  0.50884294  0.79708319  1
  Er  Er2  1  0.75000000  0.00884294  0.70291681  1
  Er  Er3  1  0.25000000  0.99115706  0.29708319  1
  Si  Si0  1  0.25000000  0.80683169  0.91129817  1
  Si  Si1  1  0.75000000  0.19316831  0.08870183  1
  Si  Si2  1  0.75000000  0.69316831  0.41129817  1
  Si  Si3  1  0.25000000  0.30683169  0.58870183  1
  Ni  Ni0  1  0.25000000  0.68640474  0.58103082  1
  Ni  Ni1  1  0.75000000  0.31359526  0.41896918  1
  Ni  Ni2  1  0.75000000  0.81359526  0.08103082  1
  Ni  Ni3  1  0.25000000  0.18640474  0.91896918  1
loop_
_geom_bond_atom_site_label_1
_geom_bond_atom_site_label_2
_geom_bond_distance
_geom_bond_site_symmetry_2
Er0 Ni1 2.830270 1_455
Er0 Ni1 2.830270 1_555
Er0 Si2 2.875908 1_555
Er0 Si2 2.875908 1_455
Er0 Ni3 2.879443 1_554
Er0 Si0 2.970262 1_554
Er0 Ni0 2.986788 1_555
Er0 Si1 2.989555 1_455
Er0 Si1 2.989555 1_555
Er0 Si3 3.004296 1_555
Er0 Ni2 3.117899 1_455
Er0 Ni2 3.117899 1_555
Er1 Ni0 2.830270 1_555
Er1 Ni0 2.830270 1_655
Er1 Si3 2.875908 1_555
Er1 Si3 2.875908 1_655
Er1 Ni2 2.879443 1_556
Er1 Si1 2.970262 1_556
Er1 Ni1 2.986788 1_555
Er1 Si0 2.989555 1_655
Er1 Si0 2.989555 1_555
Er1 Si2 3.004296 1_555
Er1 Ni3 3.117899 1_655
Er1 Ni3 3.117899 1_555
Er2 Ni3 2.830270 1_555
Er2 Ni3 2.830270 1_655
Er2 Si0 2.875908 1_645
Er2 Si0 2.875908 1_545
Er2 Ni1 2.879443 1_555
Er2 Si2 2.970262 1_545
Er2 Ni2 2.986788 1_546
Er2 Si3 2.989555 1_555
Er2 Si3 2.989555 1_655
Er2 Si1 3.004296 1_556
Er2 Ni0 3.117899 1_545
Er2 Ni0 3.117899 1_645
Er3 Ni2 2.830270 1_455
Er3 Ni2 2.830270 1_555
Er3 Si1 2.875908 1_565
Er3 Si1 2.875908 1_465
Er3 Ni0 2.879443 1_555
Er3 Si3 2.970262 1_565
Er3 Ni3 2.986788 1_564
Er3 Si2 2.989555 1_455
Er3 Si2 2.989555 1_555
Er3 Si0 3.004296 1_554
Er3 Ni1 3.117899 1_465
Er3 Ni1 3.117899 1_565
Ni0 Si2 2.382225 1_555
Ni0 Si2 2.382225 1_455
Ni0 Si0 2.477896 1_555
Ni0 Si3 2.565964 1_555
Ni1 Si3 2.382225 1_555
Ni1 Si3 2.382225 1_655
Ni1 Si1 2.477896 1_555
Ni1 Si2 2.565964 1_555
Ni2 Si0 2.382225 1_654
Ni2 Si0 2.382225 1_554
Ni2 Si2 2.477896 1_555
Ni2 Si1 2.565964 1_565
Ni3 Si1 2.382225 1_556
Ni3 Si1 2.382225 1_456
Ni3 Si3 2.477896 1_555
Ni3 Si0 2.565964 1_545
