# generated using pymatgen
data_CeSe2
_symmetry_space_group_name_H-M   'P 1'
_cell_length_a   6.88403600
_cell_length_b   5.64078300
_cell_length_c   16.47190800
_cell_angle_alpha   90.00000000
_cell_angle_beta   90.00000000
_cell_angle_gamma   90.00000000
_symmetry_Int_Tables_number   1
_chemical_formula_structural   CeSe2
_chemical_formula_sum   'Ce8 Se16'
_cell_volume   639.62647809
_cell_formula_units_Z   8
loop_
 _symmetry_equiv_pos_site_id
 _symmetry_equiv_pos_as_xyz
  1  'x, y, z'
loop_
 _atom_site_type_symbol
 _atom_site_label
 _atom_site_symmetry_multiplicity
 _atom_site_fract_x
 _atom_site_fract_y
 _atom_site_fract_z
 _atom_site_occupancy
  Ce  Ce0  1  0.00147400  0.50000000  0.46037100  1
  Ce  Ce1  1  0.99852600  0.50000000  0.96037100  1
  Ce  Ce2  1  0.49115100  0.50000000  0.20049600  1
  Ce  Ce3  1  0.50884900  0.50000000  0.70049600  1
  Ce  Ce4  1  0.00366600  0.00000000  0.76500600  1
  Ce  Ce5  1  0.99633400  0.00000000  0.26500600  1
  Ce  Ce6  1  0.47165300  0.00000000  0.00667700  1
  Ce  Ce7  1  0.52834700  0.00000000  0.50667700  1
  Se  Se0  1  0.61761500  0.00000000  0.17306800  1
  Se  Se1  1  0.38238500  0.00000000  0.67306800  1
  Se  Se2  1  0.13880400  0.00000000  0.43482500  1
  Se  Se3  1  0.86119600  0.00000000  0.93482500  1
  Se  Se4  1  0.60534300  0.50000000  0.02901400  1
  Se  Se5  1  0.39465700  0.50000000  0.52901400  1
  Se  Se6  1  0.13265000  0.50000000  0.29389700  1
  Se  Se7  1  0.86735000  0.50000000  0.79389700  1
  Se  Se8  1  0.67902500  0.74563000  0.36052700  1
  Se  Se9  1  0.67902500  0.25437000  0.36052700  1
  Se  Se10  1  0.32097500  0.25437000  0.86052700  1
  Se  Se11  1  0.32097500  0.74563000  0.86052700  1
  Se  Se12  1  0.15589900  0.75319800  0.10604600  1
  Se  Se13  1  0.15589900  0.24680200  0.10604600  1
  Se  Se14  1  0.84410100  0.24680200  0.60604600  1
  Se  Se15  1  0.84410100  0.75319800  0.60604600  1
loop_
_geom_bond_atom_site_label_1
_geom_bond_atom_site_label_2
_geom_bond_distance
_geom_bond_site_symmetry_2
Ce0 Se6 2.887006 1_555
Ce0 Se5 2.933358 1_555
Ce0 Se15 2.995220 1_455
Ce0 Se14 2.995220 1_455
Ce0 Se2 3.004235 1_555
Ce0 Se2 3.004235 1_565
Ce0 Se8 3.090600 1_455
Ce0 Se9 3.090600 1_455
Ce1 Se7 2.887006 1_555
Ce1 Se4 2.933358 1_556
Ce1 Se13 2.995220 1_656
Ce1 Se12 2.995220 1_656
Ce1 Se3 3.004235 1_565
Ce1 Se3 3.004235 1_555
Ce1 Se10 3.090600 1_655
Ce1 Se11 3.090600 1_655
Ce2 Se6 2.908205 1_555
Ce2 Se4 2.931983 1_555
Ce2 Se0 2.986074 1_565
Ce2 Se0 2.986074 1_555
Ce2 Se12 3.128358 1_555
Ce2 Se13 3.128358 1_555
Ce2 Se9 3.246694 1_555
Ce2 Se8 3.246694 1_555
Ce3 Se7 2.908205 1_555
Ce3 Se5 2.931983 1_555
Ce3 Se1 2.986074 1_555
Ce3 Se1 2.986074 1_565
Ce3 Se15 3.128358 1_555
Ce3 Se14 3.128358 1_555
Ce3 Se11 3.246694 1_555
Ce3 Se10 3.246694 1_555
Ce4 Se3 2.964199 1_455
Ce4 Se7 3.010263 1_445
Ce4 Se7 3.010263 1_455
Ce4 Se1 3.015036 1_555
Ce4 Se10 3.050552 1_555
Ce4 Se11 3.050552 1_545
Ce4 Se15 3.162369 1_445
Ce4 Se14 3.162369 1_455
Ce5 Se2 2.964199 1_655
Ce5 Se6 3.010263 1_655
Ce5 Se6 3.010263 1_645
Ce5 Se0 3.015036 1_555
Ce5 Se8 3.050552 1_545
Ce5 Se9 3.050552 1_555
Ce5 Se12 3.162369 1_645
Ce5 Se13 3.162369 1_655
Ce6 Se0 2.919161 1_555
Ce6 Se3 2.931193 1_554
Ce6 Se11 2.988335 1_544
Ce6 Se10 2.988335 1_554
Ce6 Se4 2.989479 1_555
Ce6 Se4 2.989479 1_545
Ce6 Se12 3.056470 1_545
Ce6 Se13 3.056470 1_555
Ce7 Se1 2.919161 1_555
Ce7 Se2 2.931193 1_555
Ce7 Se8 2.988335 1_545
Ce7 Se9 2.988335 1_555
Ce7 Se5 2.989479 1_545
Ce7 Se5 2.989479 1_555
Ce7 Se15 3.056470 1_545
Ce7 Se14 3.056470 1_555
Se8 Se9 2.771091 1_555
Se8 Se9 2.869692 1_565
Se10 Se11 2.771091 1_555
Se10 Se11 2.869692 1_545
Se12 Se13 2.784313 1_565
Se12 Se13 2.856470 1_555
Se14 Se15 2.784313 1_545
Se14 Se15 2.856470 1_555
