# generated using pymatgen
data_MgV3CoSn2(PO4)6
_symmetry_space_group_name_H-M   'P 1'
_cell_length_a   9.28266397
_cell_length_b   8.71043893
_cell_length_c   8.72303864
_cell_angle_alpha   60.01382171
_cell_angle_beta   62.21617739
_cell_angle_gamma   62.23017035
_symmetry_Int_Tables_number   1
_chemical_formula_structural   MgV3CoSn2(PO4)6
_chemical_formula_sum   'Mg1 V3 Co1 Sn2 P6 O24'
_cell_volume   514.89382577
_cell_formula_units_Z   1
loop_
 _symmetry_equiv_pos_site_id
 _symmetry_equiv_pos_as_xyz
  1  'x, y, z'
loop_
 _atom_site_type_symbol
 _atom_site_label
 _atom_site_symmetry_multiplicity
 _atom_site_fract_x
 _atom_site_fract_y
 _atom_site_fract_z
 _atom_site_occupancy
  Mg  Mg0  1  0.74738300  0.74754800  0.75253200  1
  V  V0  1  0.08723200  0.63676500  0.64036600  1
  V  V1  1  0.40262400  0.87101400  0.86648300  1
  V  V2  1  0.97443700  0.34550100  0.34031800  1
  Co  Co0  1  0.53311000  0.15159400  0.15986900  1
  Sn  Sn0  1  0.93919300  0.02127600  0.01844800  1
  Sn  Sn1  1  0.55045900  0.48515300  0.48051200  1
  P  P0  1  0.25347600  0.25139600  0.53700500  1
  P  P1  1  0.25320200  0.96068300  0.24888200  1
  P  P2  1  0.25697700  0.53401600  0.95870200  1
  P  P3  1  0.75467900  0.45486800  0.04795800  1
  P  P4  1  0.75058600  0.04628900  0.74525300  1
  P  P5  1  0.75332800  0.74494700  0.45649600  1
  O  O0  1  0.08655500  0.12669400  0.29383100  1
  O  O1  1  0.08327000  0.50436500  0.12019200  1
  O  O2  1  0.08247500  0.30014200  0.49648200  1
  O  O3  1  0.25956400  0.06517200  0.70414100  1
  O  O4  1  0.40961200  0.24543600  0.36852600  1
  O  O5  1  0.22848500  0.40334000  0.59702800  1
  O  O6  1  0.25924700  0.97730100  0.06006700  1
  O  O7  1  0.21987500  0.77708300  0.39756400  1
  O  O8  1  0.59774500  0.62937300  0.01063600  1
  O  O9  1  0.22829200  0.60034500  0.77118400  1
  O  O10  1  0.73557400  0.27885100  0.06690300  1
  O  O11  1  0.59351500  0.00520300  0.76712700  1
  O  O12  1  0.41344400  0.97016900  0.24531000  1
  O  O13  1  0.27957200  0.69363300  0.96807100  1
  O  O14  1  0.77868200  0.42167500  0.22901000  1
  O  O15  1  0.40662000  0.35845800  0.97730300  1
  O  O16  1  0.77199500  0.22814600  0.57399400  1
  O  O17  1  0.73281700  0.06460700  0.92062800  1
  O  O18  1  0.77483600  0.57419300  0.42294700  1
  O  O19  1  0.59546800  0.76788700  0.62924700  1
  O  O20  1  0.73776500  0.92080700  0.28039800  1
  O  O21  1  0.90902700  0.70649800  0.50826800  1
  O  O22  1  0.90997200  0.50292300  0.87750500  1
  O  O23  1  0.90605000  0.87665600  0.71081400  1
loop_
_geom_bond_atom_site_label_1
_geom_bond_atom_site_label_2
_geom_bond_distance
_geom_bond_site_symmetry_2
Mg0 O8 2.039184 1_556
Mg0 O19 2.041345 1_555
Mg0 O21 2.049464 1_555
Mg0 O23 2.049663 1_555
Mg0 O22 2.054703 1_555
Mg0 O11 2.054782 1_565
Co0 O4 1.990958 1_555
Co0 O12 1.993328 1_545
Co0 O15 2.016181 1_554
Co0 O20 2.224027 1_545
Co0 O17 2.242962 1_554
Co0 O10 2.245072 1_555
O0 P1 1.598300 1_545
O0 V2 1.846831 1_455
O1 P2 1.599349 1_554
O1 V2 1.860305 1_455
O2 P0 1.603098 1_555
O2 V2 1.839548 1_455
O3 P0 1.545129 1_555
O3 V1 1.973712 1_545
O4 P0 1.511147 1_555
O5 P0 1.540434 1_555
O5 V0 1.954006 1_555
O6 P1 1.555616 1_555
O6 V1 1.949166 1_554
O7 P1 1.532663 1_555
O7 V0 1.969587 1_555
O8 P3 1.556507 1_555
O8 V1 2.284125 1_554
O9 P2 1.548660 1_555
O9 V0 1.939448 1_555
O10 P3 1.543438 1_555
O10 Sn0 2.244195 1_555
O11 P4 1.564918 1_555
O11 V1 2.177822 1_545
O12 P1 1.512984 1_555
O13 P2 1.544343 1_555
O13 V1 1.951806 1_555
O14 P3 1.561762 1_555
O14 V2 2.135955 1_555
O14 Sn1 2.322692 1_555
O15 P2 1.508978 1_555
O16 P4 1.559357 1_555
O16 V2 2.206223 1_555
O16 Sn1 2.313913 1_555
O17 P4 1.541813 1_555
O17 Sn0 2.251397 1_556
O18 P5 1.562561 1_555
O18 V2 2.161357 1_555
O18 Sn1 2.309275 1_555
O19 P5 1.558048 1_555
O19 V1 2.280355 1_555
O20 P5 1.541294 1_555
O20 Sn0 2.241879 1_565
O21 P5 1.552830 1_555
O21 V0 2.138761 1_655
O22 P3 1.551113 1_556
O22 V0 2.132930 1_655
O23 P4 1.551973 1_565
O23 V0 2.148887 1_655
