# generated using pymatgen
data_Mn3CoAs3Rh2
_symmetry_space_group_name_H-M   'P 1'
_cell_length_a   3.65374500
_cell_length_b   6.42506562
_cell_length_c   6.42506653
_cell_angle_alpha   58.92709818
_cell_angle_beta   90.00000000
_cell_angle_gamma   90.00000000
_symmetry_Int_Tables_number   1
_chemical_formula_structural   Mn3CoAs3Rh2
_chemical_formula_sum   'Mn3 Co1 As3 Rh2'
_cell_volume   129.18929252
_cell_formula_units_Z   1
loop_
 _symmetry_equiv_pos_site_id
 _symmetry_equiv_pos_as_xyz
  1  'x, y, z'
loop_
 _atom_site_type_symbol
 _atom_site_label
 _atom_site_symmetry_multiplicity
 _atom_site_fract_x
 _atom_site_fract_y
 _atom_site_fract_z
 _atom_site_occupancy
  Mn  Mn0  1  0.50000000  0.58705100  0.41294900  1
  Mn  Mn1  1  0.50000000  0.40648600  0.99766200  1
  Mn  Mn2  1  0.50000000  0.00233800  0.59351400  1
  Co  Co0  1  0.00000000  0.25992600  0.74007400  1
  As  As0  1  0.00000000  0.32878500  0.34813100  1
  As  As1  1  0.00000000  0.65186900  0.67121500  1
  As  As2  1  0.50000000  0.01939800  0.98060200  1
  Rh  Rh0  1  0.00000000  0.74118100  0.99713500  1
  Rh  Rh1  1  0.00000000  0.00286500  0.25881900  1
loop_
_geom_bond_atom_site_label_1
_geom_bond_atom_site_label_2
_geom_bond_distance
_geom_bond_site_symmetry_2
Mn0 Rh1 2.953764 1_665
Mn0 Rh1 2.953764 1_565
Mn0 Rh0 2.953764 1_654
Mn0 Rh0 2.953764 1_554
Mn1 Rh0 2.820344 1_555
Mn1 Rh0 2.820344 1_655
Mn1 Rh1 2.895922 1_556
Mn1 Rh1 2.895922 1_656
Mn2 Rh1 2.820344 1_555
Mn2 Rh1 2.820344 1_655
Mn2 Rh0 2.895922 1_545
Mn2 Rh0 2.895922 1_645
Co0 Mn0 2.759081 1_455
Co0 Mn0 2.759081 1_555
Co0 Rh0 2.855551 1_545
Co0 Rh1 2.855552 1_556
Co0 Mn2 2.927799 1_455
Co0 Mn2 2.927799 1_555
Co0 Mn1 2.927799 1_455
Co0 Mn1 2.927799 1_555
As0 Co0 2.321055 1_555
As0 Rh0 2.436872 1_554
As0 Rh1 2.440240 1_555
As0 Mn2 2.609388 1_455
As0 Mn2 2.609388 1_555
As0 Mn0 2.641550 1_455
As0 Mn0 2.641550 1_555
As0 Mn1 2.738030 1_454
As0 Mn1 2.738030 1_554
As1 Co0 2.321054 1_555
As1 Rh1 2.436873 1_565
As1 Rh0 2.440240 1_555
As1 Mn1 2.609388 1_455
As1 Mn1 2.609388 1_555
As1 Mn0 2.641550 1_555
As1 Mn0 2.641550 1_455
As1 Mn2 2.738030 1_465
As1 Mn2 2.738030 1_565
As2 Co0 2.376702 1_555
As2 Co0 2.376702 1_655
As2 Rh0 2.519547 1_645
As2 Rh0 2.519547 1_545
As2 Rh1 2.519547 1_656
As2 Rh1 2.519547 1_556
As2 Mn1 2.545371 1_555
As2 Mn2 2.545372 1_555
As2 Mn0 2.732689 1_546
