# generated using pymatgen
data_Li3MnCoO5
_symmetry_space_group_name_H-M   'P 1'
_cell_length_a   10.70516849
_cell_length_b   10.70516849
_cell_length_c   5.90033624
_cell_angle_alpha   82.28057429
_cell_angle_beta   82.28057429
_cell_angle_gamma   15.49804543
_symmetry_Int_Tables_number   1
_chemical_formula_structural   Li3MnCoO5
_chemical_formula_sum   'Li6 Mn2 Co2 O10'
_cell_volume   179.01179167
_cell_formula_units_Z   2
loop_
 _symmetry_equiv_pos_site_id
 _symmetry_equiv_pos_as_xyz
  1  'x, y, z'
loop_
 _atom_site_type_symbol
 _atom_site_label
 _atom_site_symmetry_multiplicity
 _atom_site_fract_x
 _atom_site_fract_y
 _atom_site_fract_z
 _atom_site_occupancy
  Li  Li0  1  0.79796900  0.79796900  0.10237200  1
  Li  Li1  1  0.60025600  0.60025600  0.70493300  1
  Li  Li2  1  0.40197400  0.40197400  0.29606100  1
  Li  Li3  1  0.19298900  0.19298900  0.91110900  1
  Li  Li4  1  0.00923200  0.00923200  0.49143900  1
  Li  Li5  1  0.60113700  0.60113700  0.19583100  1
  Mn  Mn0  1  0.00510300  0.00510300  0.00033500  1
  Mn  Mn1  1  0.79802200  0.79802200  0.60100100  1
  Co  Co0  1  0.40076100  0.40076100  0.80000900  1
  Co  Co1  1  0.18907300  0.18907300  0.39276000  1
  O  O0  1  0.70700400  0.70700400  0.62698500  1
  O  O1  1  0.49875400  0.49875400  0.22461400  1
  O  O2  1  0.29809400  0.29809400  0.82313000  1
  O  O3  1  0.10485700  0.10485700  0.45204000  1
  O  O4  1  0.90520400  0.90520400  0.02686100  1
  O  O5  1  0.89291300  0.89291300  0.57316700  1
  O  O6  1  0.70274000  0.70274000  0.16752000  1
  O  O7  1  0.50052800  0.50052800  0.77527000  1
  O  O8  1  0.30141400  0.30141400  0.37851100  1
  O  O9  1  0.09197700  0.09197700  0.95605300  1
loop_
_geom_bond_atom_site_label_1
_geom_bond_atom_site_label_2
_geom_bond_distance
_geom_bond_site_symmetry_2
Li0 O6 2.004667 1_555
Li0 O8 2.185349 1_655
Li0 O8 2.185349 1_565
Li0 O2 2.190193 1_564
Li0 O2 2.190193 1_654
Li0 O4 2.258140 1_555
Li1 O9 2.058924 1_655
Li1 O9 2.058924 1_565
Li1 O3 2.068822 1_655
Li1 O3 2.068822 1_565
Li1 O7 2.100099 1_555
Li1 O0 2.248941 1_555
Li2 O1 2.039254 1_555
Li2 O8 2.122857 1_555
Li2 O4 2.140461 1_455
Li2 O4 2.140461 1_545
Li2 O5 2.169905 1_455
Li2 O5 2.169905 1_545
Li3 O6 2.121323 1_456
Li3 O6 2.121323 1_546
Li3 O9 2.123321 1_555
Li3 O0 2.201621 1_545
Li3 O0 2.201621 1_455
Li3 O2 2.219817 1_555
Li4 O3 2.010391 1_555
Li4 O1 2.169414 1_545
Li4 O1 2.169414 1_455
Li4 O7 2.199621 1_545
Li4 O7 2.199621 1_455
Li4 O5 2.449365 1_445
Li5 O9 2.048742 1_654
Li5 O9 2.048742 1_564
Li5 O3 2.099365 1_655
Li5 O3 2.099365 1_565
Li5 O6 2.139257 1_555
Li5 O1 2.155592 1_555
Mn0 O9 1.826040 1_554
Mn0 O1 1.950503 1_455
Mn0 O1 1.950503 1_545
Mn0 O7 1.972639 1_454
Mn0 O7 1.972639 1_544
Mn0 O4 2.103845 1_445
Mn1 O0 1.916178 1_555
Mn1 O8 1.945863 1_565
Mn1 O8 1.945863 1_655
Mn1 O2 1.949814 1_565
Mn1 O2 1.949814 1_655
Mn1 O5 1.997471 1_555
Co0 O4 1.979430 1_546
Co0 O4 1.979430 1_456
Co0 O5 1.990737 1_545
Co0 O5 1.990737 1_455
Co0 O7 2.101733 1_555
Co0 O2 2.163794 1_555
Co1 O3 1.773401 1_555
Co1 O6 1.956854 1_545
Co1 O6 1.956854 1_455
Co1 O0 2.068972 1_455
Co1 O0 2.068972 1_545
Co1 O8 2.373359 1_555
