# generated using pymatgen
data_K6CoSe4
_symmetry_space_group_name_H-M   'P 1'
_cell_length_a   10.21702371
_cell_length_b   10.21702371
_cell_length_c   8.01614000
_cell_angle_alpha   90.00000000
_cell_angle_beta   90.00000000
_cell_angle_gamma   119.99999812
_symmetry_Int_Tables_number   1
_chemical_formula_structural   K6CoSe4
_chemical_formula_sum   'K12 Co2 Se8'
_cell_volume   724.67743052
_cell_formula_units_Z   2
loop_
 _symmetry_equiv_pos_site_id
 _symmetry_equiv_pos_as_xyz
  1  'x, y, z'
loop_
 _atom_site_type_symbol
 _atom_site_label
 _atom_site_symmetry_multiplicity
 _atom_site_fract_x
 _atom_site_fract_y
 _atom_site_fract_z
 _atom_site_occupancy
  K  K0  1  0.14668400  0.85331600  0.54341700  1
  K  K1  1  0.29336800  0.14668400  0.04341700  1
  K  K2  1  0.85331600  0.70663200  0.04341700  1
  K  K3  1  0.14668400  0.29336800  0.54341700  1
  K  K4  1  0.70663200  0.85331600  0.54341700  1
  K  K5  1  0.85331600  0.14668400  0.04341700  1
  K  K6  1  0.52815800  0.47184200  0.36637200  1
  K  K7  1  0.05631700  0.52815800  0.86637200  1
  K  K8  1  0.47184200  0.94368300  0.86637200  1
  K  K9  1  0.52815800  0.05631700  0.36637200  1
  K  K10  1  0.94368300  0.47184200  0.36637200  1
  K  K11  1  0.47184200  0.52815800  0.86637200  1
  Co  Co0  1  0.33333300  0.66666700  0.25264200  1
  Co  Co1  1  0.66666700  0.33333300  0.75264200  1
  Se  Se0  1  0.33333300  0.66666700  0.56330200  1
  Se  Se1  1  0.66666700  0.33333300  0.06330200  1
  Se  Se2  1  0.19892900  0.80107100  0.15479700  1
  Se  Se3  1  0.39785700  0.19892900  0.65479700  1
  Se  Se4  1  0.80107100  0.60214300  0.65479700  1
  Se  Se5  1  0.19892900  0.39785700  0.15479700  1
  Se  Se6  1  0.60214300  0.80107100  0.15479700  1
  Se  Se7  1  0.80107100  0.19892900  0.65479700  1
loop_
_geom_bond_atom_site_label_1
_geom_bond_atom_site_label_2
_geom_bond_distance
_geom_bond_site_symmetry_2
K0 Se2 3.249533 1_555
K0 Se3 3.284803 1_565
K0 Se4 3.284803 1_455
K0 Se0 3.306860 1_555
K1 Se3 3.249530 1_554
K1 Se5 3.284796 1_555
K1 Se2 3.284805 1_545
K1 Se1 3.306869 1_555
K2 Se4 3.249530 1_554
K2 Se6 3.284796 1_555
K2 Se2 3.284805 1_655
K2 Se1 3.306869 1_555
K3 Se5 3.249530 1_555
K3 Se3 3.284796 1_555
K3 Se7 3.284805 1_455
K3 Se0 3.306869 1_555
K4 Se6 3.249530 1_555
K4 Se4 3.284796 1_555
K4 Se7 3.284805 1_565
K4 Se0 3.306869 1_555
K5 Se7 3.249533 1_554
K5 Se5 3.284803 1_655
K5 Se6 3.284803 1_545
K5 Se1 3.306860 1_555
K6 Se4 3.343765 1_555
K6 Se3 3.343765 1_555
K6 Se1 3.451113 1_555
K6 Se5 3.495703 1_555
K6 Se6 3.495703 1_555
K7 Se5 3.343765 1_556
K7 Se2 3.343765 1_556
K7 Se0 3.451100 1_555
K7 Se7 3.495708 1_455
K7 Se4 3.495720 1_455
K8 Se6 3.343765 1_556
K8 Se2 3.343765 1_556
K8 Se0 3.451100 1_555
K8 Se7 3.495708 1_565
K8 Se3 3.495720 1_565
K9 Se3 3.343765 1_555
K9 Se7 3.343765 1_555
K9 Se1 3.451100 1_555
K9 Se2 3.495708 1_545
K9 Se6 3.495720 1_545
K10 Se4 3.343765 1_555
K10 Se7 3.343765 1_555
K10 Se1 3.451100 1_555
K10 Se2 3.495708 1_655
K10 Se5 3.495720 1_655
K11 Se5 3.343765 1_556
K11 Se6 3.343765 1_556
K11 Se0 3.451113 1_555
K11 Se3 3.495703 1_555
K11 Se4 3.495703 1_555
Co0 Se0 2.490294 1_555
Co0 Se2 2.504455 1_555
Co0 Se5 2.504472 1_555
Co0 Se6 2.504472 1_555
Co1 Se1 2.490294 1_556
Co1 Se7 2.504455 1_555
Co1 Se3 2.504472 1_555
Co1 Se4 2.504472 1_555
