# generated using pymatgen
data_Ca2Mn2O5
_symmetry_space_group_name_H-M   'P 1'
_cell_length_a   7.85824318
_cell_length_b   7.85824318
_cell_length_c   7.66577821
_cell_angle_alpha   87.68013975
_cell_angle_beta   87.68013975
_cell_angle_gamma   90.05269548
_symmetry_Int_Tables_number   1
_chemical_formula_structural   Ca2Mn2O5
_chemical_formula_sum   'Ca8 Mn8 O20'
_cell_volume   472.59985776
_cell_formula_units_Z   4
loop_
 _symmetry_equiv_pos_site_id
 _symmetry_equiv_pos_as_xyz
  1  'x, y, z'
loop_
 _atom_site_type_symbol
 _atom_site_label
 _atom_site_symmetry_multiplicity
 _atom_site_fract_x
 _atom_site_fract_y
 _atom_site_fract_z
 _atom_site_occupancy
  Ca  Ca0  1  0.25181400  0.25181400  0.24547800  1
  Ca  Ca1  1  0.26823900  0.26823900  0.68220000  1
  Ca  Ca2  1  0.25128600  0.73068900  0.25211700  1
  Ca  Ca3  1  0.24837100  0.72287400  0.69855900  1
  Ca  Ca4  1  0.73068900  0.25128600  0.25211700  1
  Ca  Ca5  1  0.72287400  0.24837100  0.69855900  1
  Ca  Ca6  1  0.74140300  0.74140300  0.27040400  1
  Ca  Ca7  1  0.72611600  0.72611600  0.73941900  1
  Mn  Mn0  1  0.01924100  0.01924100  0.99525800  1
  Mn  Mn1  1  0.00174000  0.00174000  0.52726800  1
  Mn  Mn2  1  0.99976800  0.48789700  0.00434000  1
  Mn  Mn3  1  0.00011800  0.50899900  0.48930300  1
  Mn  Mn4  1  0.48789700  0.99976800  0.00434000  1
  Mn  Mn5  1  0.50899900  0.00011800  0.48930300  1
  Mn  Mn6  1  0.49858800  0.49858800  0.99104300  1
  Mn  Mn7  1  0.50249000  0.50249000  0.48803600  1
  O  O0  1  0.93019100  0.93019100  0.80087900  1
  O  O1  1  0.98831600  0.57866400  0.23058200  1
  O  O2  1  0.02779200  0.50906900  0.75188600  1
  O  O3  1  0.57866400  0.98831600  0.23058200  1
  O  O4  1  0.50906900  0.02779200  0.75188600  1
  O  O5  1  0.48348300  0.48348300  0.74104500  1
  O  O6  1  0.23047300  0.98375700  0.08877500  1
  O  O7  1  0.25349600  0.00838600  0.51329800  1
  O  O8  1  0.25308000  0.50248500  0.03970800  1
  O  O9  1  0.26135500  0.49933000  0.45974800  1
  O  O10  1  0.76137500  0.01665200  0.48975300  1
  O  O11  1  0.74758900  0.51001700  0.00401400  1
  O  O12  1  0.74496300  0.49989400  0.48740300  1
  O  O13  1  0.98375700  0.23047300  0.08877500  1
  O  O14  1  0.00838600  0.25349600  0.51329800  1
  O  O15  1  0.01665200  0.76137500  0.48975300  1
  O  O16  1  0.50248500  0.25308000  0.03970800  1
  O  O17  1  0.49933000  0.26135500  0.45974800  1
  O  O18  1  0.51001700  0.74758900  0.00401400  1
  O  O19  1  0.49989400  0.74496300  0.48740300  1
loop_
_geom_bond_atom_site_label_1
_geom_bond_atom_site_label_2
_geom_bond_distance
_geom_bond_site_symmetry_2
Ca0 O8 2.472982 1_555
Ca0 O16 2.472982 1_555
Ca0 O6 2.475641 1_545
Ca0 O13 2.475641 1_455
Ca0 O9 2.599059 1_555
Ca0 O17 2.599059 1_555
Ca0 O14 2.749316 1_555
Ca0 O7 2.749316 1_555
Ca1 O9 2.442449 1_555
Ca1 O17 2.442449 1_555
Ca1 O5 2.458393 1_555
Ca1 O7 2.466841 1_555
Ca1 O14 2.466841 1_555
Ca1 O2 2.728335 1_555
Ca1 O4 2.728335 1_555
Ca2 O6 2.316249 1_555
Ca2 O9 2.370909 1_555
Ca2 O1 2.400798 1_455
Ca2 O8 2.470210 1_555
Ca2 O15 2.557482 1_555
Ca2 O19 2.717280 1_555
Ca2 O18 2.726658 1_555
Ca2 O7 3.021163 1_565
Ca3 O2 2.424083 1_555
Ca3 O15 2.483367 1_555
Ca3 O19 2.504899 1_555
Ca3 O9 2.587120 1_555
Ca3 O7 2.605686 1_565
Ca3 O5 2.657813 1_555
Ca4 O13 2.316249 1_555
Ca4 O17 2.370909 1_555
Ca4 O3 2.400798 1_545
Ca4 O16 2.470210 1_555
Ca4 O10 2.557482 1_555
Ca4 O12 2.717280 1_555
Ca4 O11 2.726658 1_555
Ca4 O14 3.021163 1_655
Ca5 O4 2.424083 1_555
Ca5 O10 2.483367 1_555
Ca5 O12 2.504899 1_555
Ca5 O17 2.587120 1_555
Ca5 O14 2.605686 1_655
Ca5 O5 2.657813 1_555
Ca6 O1 2.341285 1_555
Ca6 O3 2.341285 1_555
Ca6 O12 2.473454 1_555
Ca6 O19 2.473454 1_555
Ca6 O18 2.787719 1_555
Ca6 O11 2.787719 1_555
Ca6 O10 2.801007 1_565
Ca6 O15 2.801007 1_655
Ca7 O0 2.341601 1_555
Ca7 O18 2.603020 1_556
Ca7 O11 2.603020 1_556
Ca7 O12 2.677642 1_555
Ca7 O19 2.677642 1_555
Ca7 O5 2.694512 1_555
Ca7 O4 2.924169 1_565
Ca7 O2 2.924169 1_655
Ca7 O10 2.924797 1_565
Ca7 O15 2.924797 1_655
Mn0 O0 1.835102 1_445
Mn0 O13 1.851481 1_456
Mn0 O6 1.851481 1_546
Mn1 O15 1.925053 1_545
Mn1 O10 1.925053 1_455
Mn1 O14 1.977450 1_555
Mn1 O7 1.977450 1_555
Mn1 O0 2.199997 1_445
Mn2 O1 1.900618 1_555
Mn2 O2 1.939268 1_654
Mn2 O11 1.989546 1_555
Mn2 O8 2.023580 1_655
Mn2 O13 2.100914 1_555
Mn3 O15 1.987516 1_555
Mn3 O12 2.006943 1_455
Mn3 O14 2.010135 1_555
Mn3 O2 2.033371 1_555
Mn3 O1 2.041777 1_455
Mn3 O9 2.058004 1_555
Mn4 O3 1.900618 1_555
Mn4 O4 1.939268 1_564
Mn4 O18 1.989546 1_555
Mn4 O16 2.023580 1_565
Mn4 O6 2.100914 1_555
Mn5 O10 1.987516 1_555
Mn5 O19 2.006943 1_545
Mn5 O7 2.010135 1_555
Mn5 O4 2.033371 1_555
Mn5 O3 2.041777 1_545
Mn5 O17 2.058004 1_555
Mn6 O5 1.933309 1_555
Mn6 O16 1.950622 1_556
Mn6 O8 1.950622 1_556
Mn6 O11 1.965406 1_556
Mn6 O18 1.965406 1_556
Mn7 O12 1.905352 1_555
Mn7 O19 1.905352 1_555
Mn7 O9 1.916218 1_555
Mn7 O17 1.916218 1_555
Mn7 O5 1.938911 1_555
