# generated using pymatgen
data_LiFeWClO4
_symmetry_space_group_name_H-M   'P 1'
_cell_length_a   5.13321093
_cell_length_b   7.08517201
_cell_length_c   7.16682524
_cell_angle_alpha   89.99523684
_cell_angle_beta   92.24726308
_cell_angle_gamma   89.99876972
_symmetry_Int_Tables_number   1
_chemical_formula_structural   LiFeWClO4
_chemical_formula_sum   'Li2 Fe2 W2 Cl2 O8'
_cell_volume   260.45468977
_cell_formula_units_Z   2
loop_
 _symmetry_equiv_pos_site_id
 _symmetry_equiv_pos_as_xyz
  1  'x, y, z'
loop_
 _atom_site_type_symbol
 _atom_site_label
 _atom_site_symmetry_multiplicity
 _atom_site_fract_x
 _atom_site_fract_y
 _atom_site_fract_z
 _atom_site_occupancy
  Li  Li0  1  0.00073100  0.99425300  0.99536300  1
  Li  Li1  1  0.00074200  0.50576500  0.99538200  1
  Fe  Fe0  1  0.68541900  0.25001500  0.74807400  1
  Fe  Fe1  1  0.31584500  0.75000600  0.24991500  1
  W  W0  1  0.49995400  0.75000100  0.76497300  1
  W  W1  1  0.49902900  0.24999100  0.23626400  1
  Cl  Cl0  1  0.19149900  0.25000600  0.77890100  1
  Cl  Cl1  1  0.80955600  0.74998800  0.22528000  1
  O  O0  1  0.74627900  0.25000500  0.05870000  1
  O  O1  1  0.24572500  0.75000500  0.93898200  1
  O  O2  1  0.65953900  0.24997200  0.46382000  1
  O  O3  1  0.34458200  0.75000100  0.53687400  1
  O  O4  1  0.29428300  0.04089400  0.20905300  1
  O  O5  1  0.70626000  0.95750200  0.79466200  1
  O  O6  1  0.70626700  0.54249300  0.79470100  1
  O  O7  1  0.29429000  0.45910200  0.20905500  1
loop_
_geom_bond_atom_site_label_1
_geom_bond_atom_site_label_2
_geom_bond_distance
_geom_bond_site_symmetry_2
Li0 O5 2.061846 1_455
Li0 O4 2.131759 1_566
Li0 O1 2.186204 1_555
Li0 O0 2.289571 1_466
Li1 O6 2.061706 1_455
Li1 O7 2.131635 1_556
Li1 O1 2.186144 1_555
Li1 O0 2.289604 1_456
Fe0 O2 2.036321 1_555
Fe0 O6 2.101116 1_555
Fe0 O5 2.101256 1_545
Fe0 O0 2.235852 1_556
Fe1 O3 2.056091 1_555
Fe1 O4 2.083998 1_565
Fe1 O7 2.084159 1_555
Fe1 O1 2.243308 1_554
Cl0 Fe0 2.553619 1_555
Cl0 Fe0 2.598547 1_455
Cl0 Li0 2.601518 1_545
Cl0 Li1 2.601758 1_555
Cl1 Fe1 2.547362 1_555
Cl1 Fe1 2.597962 1_655
Cl1 Li1 2.607531 1_654
Cl1 Li0 2.607641 1_654
O0 W1 1.832194 1_555
O1 W0 1.840088 1_555
O2 W1 1.798101 1_555
O3 W0 1.790598 1_555
O4 W1 1.822495 1_555
O5 W0 1.819521 1_555
O6 W0 1.819543 1_555
O7 W1 1.822491 1_555
