# generated using pymatgen
data_Te4Mo3W(SeS)2
_symmetry_space_group_name_H-M   'P 1'
_cell_length_a   3.39637969
_cell_length_b   3.39637969
_cell_length_c   45.67614100
_cell_angle_alpha   90.00000000
_cell_angle_beta   90.00000000
_cell_angle_gamma   119.99999391
_symmetry_Int_Tables_number   1
_chemical_formula_structural   Te4Mo3W(SeS)2
_chemical_formula_sum   'Te4 Mo3 W1 Se2 S2'
_cell_volume   456.30216880
_cell_formula_units_Z   1
loop_
 _symmetry_equiv_pos_site_id
 _symmetry_equiv_pos_as_xyz
  1  'x, y, z'
loop_
 _atom_site_type_symbol
 _atom_site_label
 _atom_site_symmetry_multiplicity
 _atom_site_fract_x
 _atom_site_fract_y
 _atom_site_fract_z
 _atom_site_occupancy
  Te  Te0  1  0.33333300  0.66666700  0.70369100  1
  Te  Te1  1  0.66666700  0.33333300  0.42368900  1
  Te  Te2  1  0.66666700  0.33333300  0.50576100  1
  Te  Te3  1  0.33333300  0.66666700  0.62163800  1
  Mo  Mo0  1  0.33333300  0.66666700  0.09384400  1
  Mo  Mo1  1  0.33333300  0.66666700  0.46468500  1
  Mo  Mo2  1  0.66666700  0.33333300  0.66268600  1
  W  W0  1  0.66666700  0.33333300  0.28167600  1
  Se  Se0  1  0.66666700  0.33333300  0.05778100  1
  Se  Se1  1  0.66666700  0.33333300  0.12999200  1
  S  S0  1  0.33333300  0.66666700  0.31461400  1
  S  S1  1  0.33333300  0.66666700  0.24869000  1
loop_
_geom_bond_atom_site_label_1
_geom_bond_atom_site_label_2
_geom_bond_distance
_geom_bond_site_symmetry_2
Mo0 Se0 2.560948 1_455
Mo0 Se0 2.560948 1_565
Mo0 Se0 2.560952 1_555
Mo0 Se1 2.563447 1_455
Mo0 Se1 2.563447 1_565
Mo0 Se1 2.563451 1_555
Mo1 Te1 2.711370 1_455
Mo1 Te1 2.711370 1_565
Mo1 Te1 2.711374 1_555
Mo1 Te2 2.713895 1_455
Mo1 Te2 2.713895 1_565
Mo1 Te2 2.713899 1_555
Mo2 Te0 2.711654 1_545
Mo2 Te0 2.711654 1_655
Mo2 Te0 2.711658 1_555
Mo2 Te3 2.713011 1_545
Mo2 Te3 2.713011 1_655
Mo2 Te3 2.713015 1_555
S0 W0 2.471556 1_455
S0 W0 2.471556 1_565
S0 W0 2.471560 1_555
S1 W0 2.472891 1_455
S1 W0 2.472891 1_565
S1 W0 2.472895 1_555
