# generated using pymatgen
data_KGaAs3H7O13
_symmetry_space_group_name_H-M   'P 1'
_cell_length_a   4.71264785
_cell_length_b   8.72210500
_cell_length_c   14.22174890
_cell_angle_alpha   90.00000000
_cell_angle_beta   94.32632605
_cell_angle_gamma   90.00000000
_symmetry_Int_Tables_number   1
_chemical_formula_structural   KGaAs3H7O13
_chemical_formula_sum   'K2 Ga2 As6 H14 O26'
_cell_volume   582.90804659
_cell_formula_units_Z   2
loop_
 _symmetry_equiv_pos_site_id
 _symmetry_equiv_pos_as_xyz
  1  'x, y, z'
loop_
 _atom_site_type_symbol
 _atom_site_label
 _atom_site_symmetry_multiplicity
 _atom_site_fract_x
 _atom_site_fract_y
 _atom_site_fract_z
 _atom_site_occupancy
  K  K0  1  0.12676400  0.00681300  0.51255000  1
  K  K1  1  0.62676400  0.99318700  0.01255000  1
  Ga  Ga0  1  0.25136700  0.22969000  0.74888100  1
  Ga  Ga1  1  0.75136700  0.77031000  0.24888100  1
  As  As0  1  0.71011200  0.35384300  0.60415000  1
  As  As1  1  0.29485600  0.65671200  0.39423800  1
  As  As2  1  0.79485600  0.34328800  0.89423800  1
  As  As3  1  0.21011200  0.64615700  0.10415000  1
  As  As4  1  0.75000800  0.97347800  0.74872800  1
  As  As5  1  0.25000800  0.02652200  0.24872800  1
  H  H0  1  0.41372100  0.32586900  0.46983400  1
  H  H1  1  0.59810900  0.66544700  0.52781500  1
  H  H2  1  0.09810900  0.33455300  0.02781500  1
  H  H3  1  0.91372100  0.67413100  0.96983400  1
  H  H4  1  0.35467000  0.58964700  0.71138900  1
  H  H5  1  0.64556800  0.40876200  0.28823200  1
  H  H6  1  0.14556800  0.59123800  0.78823200  1
  H  H7  1  0.85467000  0.41035300  0.21138900  1
  H  H8  1  0.48532300  0.77865800  0.80850100  1
  H  H9  1  0.51297800  0.22338900  0.19062300  1
  H  H10  1  0.01297800  0.77661100  0.69062300  1
  H  H11  1  0.98532300  0.22134200  0.30850100  1
  H  H12  1  0.02607700  0.49786100  0.48525300  1
  H  H13  1  0.52607700  0.50213900  0.98525300  1
  O  O0  1  0.53640900  0.25192700  0.50755600  1
  O  O1  1  0.45898300  0.74247100  0.49604600  1
  O  O2  1  0.95898300  0.25752900  0.99604600  1
  O  O3  1  0.03640900  0.74807300  0.00755600  1
  O  O4  1  0.24877300  0.66368700  0.74937500  1
  O  O5  1  0.74877300  0.33631300  0.24937500  1
  O  O6  1  0.63493600  0.85125100  0.83689400  1
  O  O7  1  0.37410300  0.14575100  0.16085000  1
  O  O8  1  0.87410300  0.85424900  0.66085000  1
  O  O9  1  0.13493600  0.14874900  0.33689400  1
  O  O10  1  0.47876200  0.39331800  0.68959000  1
  O  O11  1  0.52794400  0.60626600  0.31299000  1
  O  O12  1  0.02794400  0.39373400  0.81299000  1
  O  O13  1  0.97876200  0.60668200  0.18959000  1
  O  O14  1  0.97626000  0.22655900  0.63588100  1
  O  O15  1  0.02148600  0.78029200  0.36552500  1
  O  O16  1  0.52148600  0.21970800  0.86552500  1
  O  O17  1  0.47626000  0.77344100  0.13588100  1
  O  O18  1  0.46867100  0.06310400  0.68949800  1
  O  O19  1  0.51891400  0.93002900  0.30966800  1
  O  O20  1  0.01891400  0.06997100  0.80966800  1
  O  O21  1  0.96867100  0.93689600  0.18949800  1
  O  O22  1  0.82566100  0.52247000  0.55966100  1
  O  O23  1  0.16764400  0.47926200  0.43160300  1
  O  O24  1  0.66764400  0.52073800  0.93160300  1
  O  O25  1  0.32566100  0.47753000  0.05966100  1
loop_
_geom_bond_atom_site_label_1
_geom_bond_atom_site_label_2
_geom_bond_distance
_geom_bond_site_symmetry_2
K0 O14 2.727775 1_455
K0 O9 2.790927 1_555
K0 O1 2.806709 1_545
K0 O8 2.831185 1_445
K0 O0 2.885008 1_555
K0 O15 2.892277 1_545
K0 O18 2.925468 1_555
K1 O17 2.727775 1_555
K1 O6 2.790927 1_554
K1 O2 2.806709 1_564
K1 O7 2.831185 1_565
K1 O3 2.885008 1_655
K1 O16 2.892277 1_564
K1 O21 2.925468 1_555
Ga0 O14 1.987435 1_455
Ga0 O18 2.000901 1_555
Ga0 O20 2.007730 1_555
Ga0 O10 2.008133 1_555
Ga0 O16 2.015275 1_555
Ga0 O12 2.032720 1_555
Ga1 O17 1.987435 1_555
Ga1 O21 2.000901 1_555
Ga1 O19 2.007730 1_555
Ga1 O13 2.008133 1_555
Ga1 O15 2.015275 1_655
Ga1 O11 2.032720 1_555
As0 O22 1.706468 1_555
As0 O14 1.709951 1_555
As0 O10 1.727309 1_555
As0 O0 1.782632 1_555
As1 O15 1.705552 1_555
As1 O11 1.710809 1_555
As1 O1 1.756467 1_555
As1 O23 1.756515 1_555
As2 O16 1.705552 1_555
As2 O12 1.710809 1_655
As2 O2 1.756467 1_555
As2 O24 1.756515 1_555
As3 O25 1.706468 1_555
As3 O17 1.709951 1_555
As3 O13 1.727309 1_455
As3 O3 1.782632 1_555
As4 O20 1.702848 1_665
As4 O18 1.705877 1_565
As4 O8 1.759454 1_555
As4 O6 1.762213 1_555
As5 O19 1.702848 1_545
As5 O21 1.705877 1_445
As5 O7 1.759454 1_555
As5 O9 1.762213 1_555
H0 O0 0.995609 1_555
H1 O1 1.020122 1_555
H1 O22 1.684336 1_555
H2 O2 1.020122 1_454
H2 O25 1.684336 1_555
H3 O3 0.995609 1_656
H4 O4 0.999308 1_555
H5 O5 0.990856 1_555
H6 O4 0.990856 1_555
H7 O5 0.999308 1_555
H8 O6 1.009021 1_555
H9 O7 1.012108 1_555
H9 O5 1.662220 1_555
H10 O8 1.012108 1_455
H10 O4 1.662220 1_555
H11 O9 1.009021 1_655
H12 O23 1.063192 1_555
H12 O22 1.486183 1_455
H13 O24 1.063192 1_555
H13 O25 1.486183 1_556
