# generated using pymatgen
data_BaCa3O4
_symmetry_space_group_name_H-M   'P 1'
_cell_length_a   5.10824600
_cell_length_b   5.10824600
_cell_length_c   5.10824600
_cell_angle_alpha   90.00000000
_cell_angle_beta   90.00000000
_cell_angle_gamma   90.00000000
_symmetry_Int_Tables_number   1
_chemical_formula_structural   BaCa3O4
_chemical_formula_sum   'Ba1 Ca3 O4'
_cell_volume   133.29547629
_cell_formula_units_Z   1
loop_
 _symmetry_equiv_pos_site_id
 _symmetry_equiv_pos_as_xyz
  1  'x, y, z'
loop_
 _atom_site_type_symbol
 _atom_site_label
 _atom_site_symmetry_multiplicity
 _atom_site_fract_x
 _atom_site_fract_y
 _atom_site_fract_z
 _atom_site_occupancy
  Ba  Ba0  1  0.50000000  0.50000000  0.50000000  1
  Ca  Ca0  1  0.00000000  0.00000000  0.50000000  1
  Ca  Ca1  1  0.00000000  0.50000000  0.00000000  1
  Ca  Ca2  1  0.50000000  0.00000000  0.00000000  1
  O  O0  1  0.00000000  0.00000000  0.00000000  1
  O  O1  1  0.50000000  0.50000000  0.00000000  1
  O  O2  1  0.50000000  0.00000000  0.50000000  1
  O  O3  1  0.00000000  0.50000000  0.50000000  1
loop_
_geom_bond_atom_site_label_1
_geom_bond_atom_site_label_2
_geom_bond_distance
_geom_bond_site_symmetry_2
Ba0 O3 2.554123 1_555
Ba0 O2 2.554123 1_555
Ba0 O2 2.554123 1_565
Ba0 O1 2.554123 1_555
Ba0 O1 2.554123 1_556
Ba0 O3 2.554123 1_655
Ca0 O3 2.554123 1_555
Ca0 O0 2.554123 1_555
Ca0 O0 2.554123 1_556
Ca0 O2 2.554123 1_555
Ca0 O3 2.554123 1_545
Ca0 O2 2.554123 1_455
Ca1 O3 2.554123 1_555
Ca1 O0 2.554123 1_555
Ca1 O3 2.554123 1_554
Ca1 O1 2.554123 1_455
Ca1 O1 2.554123 1_555
Ca1 O0 2.554123 1_565
Ca2 O2 2.554123 1_554
Ca2 O1 2.554123 1_545
Ca2 O0 2.554123 1_555
Ca2 O2 2.554123 1_555
Ca2 O0 2.554123 1_655
Ca2 O1 2.554123 1_555
