# generated using pymatgen
data_MgCuP4(RuO7)2
_symmetry_space_group_name_H-M   'P 1'
_cell_length_a   5.05446022
_cell_length_b   6.82174807
_cell_length_c   8.70147382
_cell_angle_alpha   90.81279688
_cell_angle_beta   93.25233030
_cell_angle_gamma   106.12811031
_symmetry_Int_Tables_number   1
_chemical_formula_structural   MgCuP4(RuO7)2
_chemical_formula_sum   'Mg1 Cu1 P4 Ru2 O14'
_cell_volume   287.61627156
_cell_formula_units_Z   1
loop_
 _symmetry_equiv_pos_site_id
 _symmetry_equiv_pos_as_xyz
  1  'x, y, z'
loop_
 _atom_site_type_symbol
 _atom_site_label
 _atom_site_symmetry_multiplicity
 _atom_site_fract_x
 _atom_site_fract_y
 _atom_site_fract_z
 _atom_site_occupancy
  Mg  Mg0  1  0.46227200  0.91933600  0.06249700  1
  Cu  Cu0  1  0.00002100  0.00406000  0.50030800  1
  P  P0  1  0.39130100  0.73277700  0.79733300  1
  P  P1  1  0.60865900  0.27256000  0.19949900  1
  P  P2  1  0.00658700  0.66015600  0.28341400  1
  P  P3  1  0.98712500  0.33872800  0.71912500  1
  Ru  Ru0  1  0.49887600  0.50086200  0.50139200  1
  Ru  Ru1  1  0.99069600  0.00591800  0.99609000  1
  O  O0  1  0.13128900  0.83459200  0.17584300  1
  O  O1  1  0.85752300  0.16625700  0.82302400  1
  O  O2  1  0.46914200  0.74850200  0.63031800  1
  O  O3  1  0.52660400  0.26027400  0.36635800  1
  O  O4  1  0.21487800  0.50349700  0.82843400  1
  O  O5  1  0.78349800  0.50154900  0.16824800  1
  O  O6  1  0.23094500  0.88289700  0.84423000  1
  O  O7  1  0.78605200  0.12047900  0.17593400  1
  O  O8  1  0.21926400  0.55822500  0.34090400  1
  O  O9  1  0.78593400  0.44866600  0.65446400  1
  O  O10  1  0.63376900  0.76100700  0.92349600  1
  O  O11  1  0.37528400  0.21819900  0.07310400  1
  O  O12  1  0.16058900  0.27188600  0.59279800  1
  O  O13  1  0.83802500  0.73401700  0.40568800  1
loop_
_geom_bond_atom_site_label_1
_geom_bond_atom_site_label_2
_geom_bond_distance
_geom_bond_site_symmetry_2
Mg0 O0 1.942102 1_555
Mg0 O10 1.995728 1_554
Mg0 O7 2.016443 1_565
Mg0 O6 2.146902 1_554
Mg0 O11 2.203563 1_565
Cu0 O12 1.924791 1_555
Cu0 O13 1.945342 1_445
O0 P2 1.539894 1_555
O0 Ru1 2.169002 1_464
O1 P3 1.516551 1_555
O1 Ru1 2.063503 1_555
O2 P0 1.524523 1_555
O2 Ru0 2.059467 1_555
O3 P1 1.529566 1_555
O3 Ru0 2.045888 1_555
O4 P0 1.606020 1_555
O4 P3 1.618591 1_455
O5 P1 1.602326 1_555
O5 P2 1.615421 1_655
O6 P0 1.535907 1_555
O6 Ru1 2.154479 1_465
O7 P1 1.566502 1_555
O7 Ru1 2.174321 1_554
O8 P2 1.501146 1_555
O8 Ru0 2.049266 1_555
O9 P3 1.511255 1_555
O9 Ru0 2.021696 1_555
O10 P0 1.566666 1_555
O10 Ru1 2.147372 1_565
O11 P1 1.528643 1_555
O11 Ru1 2.141394 1_454
O12 P3 1.581832 1_455
O12 Ru0 2.168373 1_555
O13 P2 1.561386 1_655
O13 Ru0 2.201497 1_555
