# generated using pymatgen
data_PrInNi
_symmetry_space_group_name_H-M   'P 1'
_cell_length_a   7.61640695
_cell_length_b   7.61640695
_cell_length_c   3.90241805
_cell_angle_alpha   90.00000000
_cell_angle_beta   90.00000000
_cell_angle_gamma   119.99999835
_symmetry_Int_Tables_number   1
_chemical_formula_structural   PrInNi
_chemical_formula_sum   'Pr3 In3 Ni3'
_cell_volume   196.04903638
_cell_formula_units_Z   3
loop_
 _symmetry_equiv_pos_site_id
 _symmetry_equiv_pos_as_xyz
  1  'x, y, z'
loop_
 _atom_site_type_symbol
 _atom_site_label
 _atom_site_symmetry_multiplicity
 _atom_site_fract_x
 _atom_site_fract_y
 _atom_site_fract_z
 _atom_site_occupancy
  Pr  Pr0  1  0.41703853  -0.00000000  0.50000000  1
  Pr  Pr1  1  -0.00000000  0.41703853  0.50000000  1
  Pr  Pr2  1  0.58296147  0.58296147  0.50000000  1
  In  In0  1  0.75488255  -0.00000000  0.00000000  1
  In  In1  1  -0.00000000  0.75488255  -0.00000000  1
  In  In2  1  0.24511745  0.24511745  0.00000000  1
  Ni  Ni0  1  0.00000000  0.00000000  0.50000000  1
  Ni  Ni1  1  0.33333300  0.66666700  0.00000000  1
  Ni  Ni2  1  0.66666700  0.33333300  -0.00000000  1
loop_
_geom_bond_atom_site_label_1
_geom_bond_atom_site_label_2
_geom_bond_distance
_geom_bond_site_symmetry_2
In0 Ni0 2.700479 1_654
In0 Ni0 2.700479 1_655
In0 Ni2 2.933039 1_555
In0 Ni1 2.933044 1_545
In0 Pr0 3.229297 1_554
In0 Pr0 3.229297 1_555
In0 Pr2 3.384043 1_545
In0 Pr2 3.384043 1_544
In0 Pr1 3.384043 1_654
In0 Pr1 3.384043 1_655
In1 Ni0 2.700479 1_564
In1 Ni0 2.700479 1_565
In1 Ni1 2.933039 1_555
In1 Ni2 2.933044 1_455
In1 Pr1 3.229297 1_555
In1 Pr1 3.229297 1_554
In1 Pr2 3.384043 1_455
In1 Pr2 3.384043 1_454
In1 Pr0 3.384043 1_565
In1 Pr0 3.384043 1_564
In2 Ni0 2.700479 1_554
In2 Ni0 2.700479 1_555
In2 Ni1 2.933046 1_555
In2 Ni2 2.933046 1_555
In2 Pr2 3.229297 1_555
In2 Pr2 3.229297 1_554
In2 Pr0 3.384043 1_554
In2 Pr1 3.384043 1_554
In2 Pr0 3.384043 1_555
In2 Pr1 3.384043 1_555
Ni0 Pr1 3.176335 1_555
Ni0 Pr0 3.176335 1_555
Ni0 Pr2 3.176335 1_445
Ni1 Pr0 3.006759 1_565
Ni1 Pr0 3.006759 1_564
Ni1 Pr1 3.006760 1_555
Ni1 Pr1 3.006760 1_554
Ni1 Pr2 3.006764 1_555
Ni1 Pr2 3.006764 1_554
Ni2 Pr1 3.006759 1_655
Ni2 Pr1 3.006759 1_654
Ni2 Pr0 3.006760 1_554
Ni2 Pr0 3.006760 1_555
Ni2 Pr2 3.006764 1_555
Ni2 Pr2 3.006764 1_554
