# generated using pymatgen
data_Sr2AlTlFe2O7
_symmetry_space_group_name_H-M   'P 1'
_cell_length_a   3.73703700
_cell_length_b   3.73703700
_cell_length_c   13.16892000
_cell_angle_alpha   90.00000000
_cell_angle_beta   90.00000000
_cell_angle_gamma   90.00000000
_symmetry_Int_Tables_number   1
_chemical_formula_structural   Sr2AlTlFe2O7
_chemical_formula_sum   'Sr2 Al1 Tl1 Fe2 O7'
_cell_volume   183.90983507
_cell_formula_units_Z   1
loop_
 _symmetry_equiv_pos_site_id
 _symmetry_equiv_pos_as_xyz
  1  'x, y, z'
loop_
 _atom_site_type_symbol
 _atom_site_label
 _atom_site_symmetry_multiplicity
 _atom_site_fract_x
 _atom_site_fract_y
 _atom_site_fract_z
 _atom_site_occupancy
  Sr  Sr0  1  0.50000000  0.50000000  0.81323800  1
  Sr  Sr1  1  0.50000000  0.50000000  0.18676200  1
  Al  Al0  1  0.50000000  0.50000000  0.50000000  1
  Tl  Tl0  1  0.00000000  0.00000000  0.00000000  1
  Fe  Fe0  1  0.00000000  0.00000000  0.63913700  1
  Fe  Fe1  1  0.00000000  0.00000000  0.36086300  1
  O  O0  1  0.50000000  0.00000000  0.59280000  1
  O  O1  1  0.00000000  0.50000000  0.59280000  1
  O  O2  1  0.50000000  0.00000000  0.40720000  1
  O  O3  1  0.00000000  0.50000000  0.40720000  1
  O  O4  1  0.00000000  0.00000000  0.78550600  1
  O  O5  1  0.00000000  0.00000000  0.21449400  1
  O  O6  1  0.50000000  0.50000000  0.00000000  1
loop_
_geom_bond_atom_site_label_1
_geom_bond_atom_site_label_2
_geom_bond_distance
_geom_bond_site_symmetry_2
Al0 O2 2.232673 1_565
Al0 O1 2.232673 1_555
Al0 O0 2.232673 1_555
Al0 O0 2.232673 1_565
Al0 O2 2.232673 1_555
Al0 O1 2.232673 1_655
Al0 O3 2.232673 1_555
Al0 O3 2.232673 1_655
Fe0 O4 1.927522 1_555
Fe0 O0 1.965634 1_455
Fe0 O1 1.965634 1_545
Fe0 O1 1.965634 1_555
Fe0 O0 1.965634 1_555
Fe1 O5 1.927522 1_555
Fe1 O3 1.965634 1_545
Fe1 O2 1.965634 1_455
Fe1 O2 1.965634 1_555
Fe1 O3 1.965634 1_555
O4 Sr0 2.667601 1_545
O4 Sr0 2.667601 1_455
O4 Sr0 2.667601 1_555
O4 Sr0 2.667601 1_445
O4 Tl0 2.824654 1_556
O5 Sr1 2.667601 1_445
O5 Sr1 2.667601 1_545
O5 Sr1 2.667601 1_555
O5 Sr1 2.667601 1_455
O5 Tl0 2.824654 1_555
O6 Sr1 2.459454 1_555
O6 Sr0 2.459454 1_554
O6 Tl0 2.642484 1_555
O6 Tl0 2.642484 1_565
O6 Tl0 2.642484 1_665
O6 Tl0 2.642484 1_655
