# generated using pymatgen
data_CeAlCo
_symmetry_space_group_name_H-M   'P 1'
_cell_length_a   5.36744518
_cell_length_b   5.36744518
_cell_length_c   8.30492400
_cell_angle_alpha   90.00000000
_cell_angle_beta   90.00000000
_cell_angle_gamma   119.61232562
_symmetry_Int_Tables_number   1
_chemical_formula_structural   CeAlCo
_chemical_formula_sum   'Ce4 Al4 Co4'
_cell_volume   208.01031130
_cell_formula_units_Z   4
loop_
 _symmetry_equiv_pos_site_id
 _symmetry_equiv_pos_as_xyz
  1  'x, y, z'
loop_
 _atom_site_type_symbol
 _atom_site_label
 _atom_site_symmetry_multiplicity
 _atom_site_fract_x
 _atom_site_fract_y
 _atom_site_fract_z
 _atom_site_occupancy
  Ce  Ce0  1  0.66602200  0.33397800  0.28374800  1
  Ce  Ce1  1  0.32883300  0.67116700  0.16764200  1
  Ce  Ce2  1  0.32883300  0.67116700  0.83235800  1
  Ce  Ce3  1  0.66602200  0.33397800  0.71625200  1
  Al  Al0  1  0.00394800  0.99605200  0.23664700  1
  Al  Al1  1  0.00394800  0.99605200  0.76335300  1
  Al  Al2  1  0.66062000  0.83256000  0.50000000  1
  Al  Al3  1  0.16744000  0.33938000  0.50000000  1
  Co  Co0  1  0.16661500  0.83338500  0.50000000  1
  Co  Co1  1  0.33718100  0.16600800  0.00000000  1
  Co  Co2  1  0.83399200  0.66281900  0.00000000  1
  Co  Co3  1  0.83716800  0.16283200  0.00000000  1
loop_
_geom_bond_atom_site_label_1
_geom_bond_atom_site_label_2
_geom_bond_distance
_geom_bond_site_symmetry_2
Ce0 Co1 2.812238 1_555
Ce0 Co2 2.812238 1_555
Ce0 Co3 2.841616 1_555
Ce0 Ce1 3.240177 1_655
Ce0 Ce1 3.240177 1_545
Ce0 Co0 3.242288 1_545
Ce0 Co0 3.242288 1_655
Ce0 Ce1 3.273823 1_555
Ce1 Ce2 2.784508 1_554
Ce1 Co1 2.979475 1_565
Ce1 Co2 2.979475 1_455
Ce1 Co3 3.038304 1_455
Ce1 Co3 3.038304 1_565
Ce1 Co2 3.067932 1_555
Ce1 Co1 3.067932 1_555
Ce1 Co0 3.143912 1_555
Ce2 Co2 2.979475 1_456
Ce2 Co1 2.979475 1_566
Ce2 Co3 3.038304 1_456
Ce2 Co3 3.038304 1_566
Ce2 Co2 3.067932 1_556
Ce2 Co1 3.067932 1_556
Ce2 Co0 3.143912 1_555
Ce2 Ce3 3.240177 1_455
Ce2 Ce3 3.240177 1_565
Ce2 Ce3 3.273823 1_555
Ce3 Co1 2.812238 1_556
Ce3 Co2 2.812238 1_556
Ce3 Co3 2.841616 1_556
Ce3 Co0 3.242288 1_545
Ce3 Co0 3.242288 1_655
Al0 Co3 2.501437 1_465
Al0 Co2 2.506266 1_455
Al0 Co1 2.506266 1_565
Al0 Co0 2.657351 1_555
Al0 Al3 2.711338 1_565
Al0 Al2 2.711338 1_455
Al0 Ce1 3.068429 1_555
Al0 Ce0 3.114702 1_455
Al0 Ce0 3.114702 1_565
Al0 Ce0 3.159745 1_465
Al0 Ce1 3.202395 1_565
Al0 Ce1 3.202395 1_455
Al1 Co3 2.501437 1_466
Al1 Co1 2.506266 1_566
Al1 Co2 2.506266 1_456
Al1 Co0 2.657351 1_555
Al1 Al2 2.711338 1_455
Al1 Al3 2.711338 1_565
Al1 Ce2 3.068429 1_555
Al1 Ce3 3.114702 1_455
Al1 Ce3 3.114702 1_565
Al1 Ce3 3.159745 1_465
Al1 Ce2 3.202395 1_455
Al1 Ce2 3.202395 1_565
Al2 Co0 2.653736 1_555
Al2 Al3 2.662613 1_555
Al2 Co0 2.713715 1_655
Al2 Al3 2.736253 1_665
Al2 Ce1 3.164808 1_555
Al2 Ce2 3.164808 1_555
Al2 Ce0 3.223734 1_565
Al2 Ce3 3.223734 1_565
Al2 Ce0 3.234897 1_555
Al2 Ce3 3.234897 1_555
Al3 Co0 2.653736 1_555
Al3 Co0 2.713715 1_545
Al3 Ce1 3.164808 1_555
Al3 Ce2 3.164808 1_555
Al3 Ce0 3.223734 1_455
Al3 Ce3 3.223734 1_455
Al3 Ce0 3.234897 1_555
Al3 Ce3 3.234897 1_555
Co1 Co3 2.675410 1_455
Co1 Co2 2.682216 1_555
Co1 Co3 2.692117 1_555
Co1 Co2 2.716650 1_445
Co2 Co3 2.675410 1_565
Co2 Co3 2.692117 1_555
