# generated using pymatgen
data_Li2Co(CO3)2
_symmetry_space_group_name_H-M   'P 1'
_cell_length_a   7.59359523
_cell_length_b   10.38650193
_cell_length_c   7.60066015
_cell_angle_alpha   89.98031770
_cell_angle_beta   89.98264414
_cell_angle_gamma   69.41123413
_symmetry_Int_Tables_number   1
_chemical_formula_structural   Li2Co(CO3)2
_chemical_formula_sum   'Li8 Co4 C8 O24'
_cell_volume   561.18169895
_cell_formula_units_Z   4
loop_
 _symmetry_equiv_pos_site_id
 _symmetry_equiv_pos_as_xyz
  1  'x, y, z'
loop_
 _atom_site_type_symbol
 _atom_site_label
 _atom_site_symmetry_multiplicity
 _atom_site_fract_x
 _atom_site_fract_y
 _atom_site_fract_z
 _atom_site_occupancy
  Li  Li0  1  0.39578900  0.78802300  0.11782900  1
  Li  Li1  1  0.89649100  0.28791800  0.11794300  1
  Li  Li2  1  0.60355500  0.71206700  0.61790100  1
  Li  Li3  1  0.10429200  0.21193500  0.61778900  1
  Li  Li4  1  0.39644000  0.28793500  0.38209300  1
  Li  Li5  1  0.89570100  0.78806700  0.38220500  1
  Li  Li6  1  0.60421200  0.21197800  0.88217000  1
  Li  Li7  1  0.10350500  0.71208200  0.88205500  1
  Co  Co0  1  0.49999800  0.50000000  0.99999700  1
  Co  Co1  1  0.00000100  0.49999900  0.50000000  1
  Co  Co2  1  0.99999900  0.00000300  0.00000000  1
  Co  Co3  1  0.49999900  0.00000300  0.50000300  1
  C  C0  1  0.25526100  0.92832300  0.76255000  1
  C  C1  1  0.75509500  0.42812100  0.76320600  1
  C  C2  1  0.24478500  0.07163000  0.26274800  1
  C  C3  1  0.74498400  0.57169100  0.26335500  1
  C  C4  1  0.75521600  0.92836900  0.73725000  1
  C  C5  1  0.25501600  0.42830400  0.73664400  1
  C  C6  1  0.74473500  0.07168100  0.23744900  1
  C  C7  1  0.24490600  0.57187800  0.23679500  1
  O  O0  1  0.25254800  0.84833000  0.89522100  1
  O  O1  1  0.75194600  0.34828000  0.89608800  1
  O  O2  1  0.24743000  0.15162600  0.39532800  1
  O  O3  1  0.74825100  0.65131500  0.39640400  1
  O  O4  1  0.75257100  0.84837400  0.60467300  1
  O  O5  1  0.25174800  0.34868200  0.60359400  1
  O  O6  1  0.74744900  0.15167400  0.10477800  1
  O  O7  1  0.24805200  0.65172000  0.10391300  1
  O  O8  1  0.11839200  0.11646400  0.14277200  1
  O  O9  1  0.61888500  0.61681700  0.14343700  1
  O  O10  1  0.38174200  0.88337500  0.64268400  1
  O  O11  1  0.88097600  0.38314000  0.64309500  1
  O  O12  1  0.61825300  0.11663000  0.35731400  1
  O  O13  1  0.11902800  0.61685900  0.35690900  1
  O  O14  1  0.88161100  0.88353600  0.85722900  1
  O  O15  1  0.38111600  0.38317800  0.85656100  1
  O  O16  1  0.12590800  0.04940400  0.76012800  1
  O  O17  1  0.62604400  0.54930100  0.76141900  1
  O  O18  1  0.37426400  0.95055900  0.26041600  1
  O  O19  1  0.87422700  0.45060500  0.26123200  1
  O  O20  1  0.62573800  0.04944200  0.73958500  1
  O  O21  1  0.12577400  0.54939100  0.73876900  1
  O  O22  1  0.87408600  0.95060100  0.23987200  1
  O  O23  1  0.37395600  0.45069900  0.23857800  1
loop_
_geom_bond_atom_site_label_1
_geom_bond_atom_site_label_2
_geom_bond_distance
_geom_bond_site_symmetry_2
Li0 O18 1.964249 1_555
Li0 O9 1.987759 1_555
Li0 O0 1.989832 1_554
Li0 O7 2.095515 1_555
Li1 O19 1.967279 1_555
Li1 O8 1.983864 1_655
Li1 O1 1.989386 1_554
Li1 O6 2.102374 1_555
Li2 O17 1.967968 1_555
Li2 O10 1.982586 1_555
Li2 O3 1.987883 1_555
Li2 O4 2.102729 1_555
Li3 O16 1.962430 1_555
Li3 O2 1.988349 1_555
Li3 O11 1.988448 1_455
Li3 O5 2.097876 1_555
Li4 O23 1.967946 1_555
Li4 O12 1.982564 1_555
Li4 O5 1.987889 1_555
Li4 O2 2.102714 1_555
Li5 O22 1.962433 1_555
Li5 O4 1.988365 1_555
Li5 O13 1.988504 1_655
Li5 O3 2.097888 1_555
Li6 O20 1.964239 1_555
Li6 O15 1.987723 1_555
Li6 O6 1.989815 1_556
Li6 O1 2.095489 1_555
Li7 O21 1.967292 1_555
Li7 O14 1.983834 1_455
Li7 O7 1.989412 1_556
Li7 O0 2.102416 1_555
Co0 O15 2.060985 1_555
Co0 O9 2.060987 1_556
Co0 O1 2.155654 1_555
Co0 O7 2.155664 1_556
Co0 O17 2.193078 1_555
Co0 O23 2.193081 1_556
Co1 O11 2.059872 1_455
Co1 O13 2.059873 1_555
Co1 O5 2.152091 1_555
Co1 O3 2.152107 1_455
Co1 O21 2.194340 1_555
Co1 O19 2.194346 1_455
Co2 O8 2.053132 1_655
Co2 O14 2.053150 1_544
Co2 O6 2.160751 1_555
Co2 O0 2.160758 1_644
Co2 O16 2.201078 1_654
Co2 O22 2.201098 1_545
Co3 O10 2.052663 1_545
Co3 O12 2.052673 1_555
Co3 O2 2.160375 1_555
Co3 O4 2.160402 1_545
Co3 O20 2.199510 1_555
Co3 O18 2.199546 1_545
C0 O10 1.286407 1_555
C0 O16 1.295351 1_565
C0 O0 1.311117 1_555
C1 O11 1.284950 1_555
C1 O17 1.295063 1_555
C1 O1 1.312134 1_555
C2 O8 1.286653 1_555
C2 O18 1.295672 1_545
C2 O2 1.310930 1_555
C3 O9 1.285267 1_555
C3 O19 1.295013 1_555
C3 O3 1.312340 1_555
C4 O14 1.286677 1_555
C4 O20 1.295683 1_565
C4 O4 1.310906 1_555
C5 O15 1.285266 1_555
C5 O21 1.295018 1_555
C5 O5 1.312334 1_555
C6 O12 1.286407 1_555
C6 O22 1.295338 1_545
C6 O6 1.311118 1_555
C7 O13 1.284952 1_555
C7 O23 1.295053 1_555
C7 O7 1.312135 1_555
