# generated using pymatgen
data_Li7Mn2(CoO4)3
_symmetry_space_group_name_H-M   'P 1'
_cell_length_a   2.86467900
_cell_length_b   5.23821100
_cell_length_c   14.41990127
_cell_angle_alpha   87.77186102
_cell_angle_beta   90.00000000
_cell_angle_gamma   90.00000000
_symmetry_Int_Tables_number   1
_chemical_formula_structural   Li7Mn2(CoO4)3
_chemical_formula_sum   'Li7 Mn2 Co3 O12'
_cell_volume   216.21845704
_cell_formula_units_Z   1
loop_
 _symmetry_equiv_pos_site_id
 _symmetry_equiv_pos_as_xyz
  1  'x, y, z'
loop_
 _atom_site_type_symbol
 _atom_site_label
 _atom_site_symmetry_multiplicity
 _atom_site_fract_x
 _atom_site_fract_y
 _atom_site_fract_z
 _atom_site_occupancy
  Li  Li0  1  0.50000000  0.84384300  0.34386500  1
  Li  Li1  1  0.50000000  0.15615700  0.65613500  1
  Li  Li2  1  0.50000000  0.50000000  0.00000000  1
  Li  Li3  1  0.00000000  0.34014900  0.34043500  1
  Li  Li4  1  0.00000000  0.65985100  0.65956500  1
  Li  Li5  1  0.00000000  0.00000000  0.00000000  1
  Li  Li6  1  0.50000000  0.50000000  0.50000000  1
  Mn  Mn0  1  0.00000000  0.66931200  0.16986400  1
  Mn  Mn1  1  0.00000000  0.33068800  0.83013600  1
  Co  Co0  1  0.00000000  0.00000000  0.50000000  1
  Co  Co1  1  0.50000000  0.17060500  0.16758300  1
  Co  Co2  1  0.50000000  0.82939500  0.83241700  1
  O  O0  1  0.50000000  0.52174900  0.24804200  1
  O  O1  1  0.50000000  0.84768100  0.57513000  1
  O  O2  1  0.50000000  0.18696700  0.90985800  1
  O  O3  1  0.00000000  0.02698300  0.24165800  1
  O  O4  1  0.00000000  0.27864700  0.57002800  1
  O  O5  1  0.00000000  0.68634100  0.90800400  1
  O  O6  1  0.50000000  0.15231900  0.42487000  1
  O  O7  1  0.50000000  0.47825100  0.75195800  1
  O  O8  1  0.50000000  0.81303300  0.09014200  1
  O  O9  1  0.00000000  0.72135300  0.42997200  1
  O  O10  1  0.00000000  0.97301700  0.75834200  1
  O  O11  1  0.00000000  0.31365900  0.09199600  1
loop_
_geom_bond_atom_site_label_1
_geom_bond_atom_site_label_2
_geom_bond_distance
_geom_bond_site_symmetry_2
Li0 O9 1.985709 1_555
Li0 O9 1.985709 1_655
Li0 O6 2.030319 1_565
Li0 O0 2.221973 1_555
Li0 O3 2.243679 1_665
Li0 O3 2.243679 1_565
Li1 O4 1.985709 1_555
Li1 O4 1.985709 1_655
Li1 O1 2.030319 1_545
Li1 O7 2.221973 1_555
Li1 O10 2.243679 1_545
Li1 O10 2.243679 1_645
Li2 O8 2.131674 1_555
Li2 O2 2.131674 1_554
Li2 O11 2.159506 1_655
Li2 O11 2.159506 1_555
Li2 O5 2.159506 1_654
Li2 O5 2.159506 1_554
Li3 O6 2.099740 1_555
Li3 O6 2.099740 1_455
Li3 O0 2.152432 1_455
Li3 O0 2.152432 1_555
Li3 O3 2.213928 1_555
Li3 O9 2.419662 1_555
Li4 O1 2.099740 1_455
Li4 O1 2.099740 1_555
Li4 O7 2.152432 1_455
Li4 O7 2.152432 1_555
Li4 O10 2.213928 1_555
Li4 O4 2.419662 1_555
Li5 O8 2.145078 1_445
Li5 O8 2.145078 1_545
Li5 O2 2.145078 1_554
Li5 O2 2.145078 1_454
Li5 O11 2.151456 1_555
Li5 O5 2.151456 1_544
Li6 O4 2.079584 1_655
Li6 O4 2.079584 1_555
Li6 O9 2.079584 1_655
Li6 O9 2.079584 1_555
Li6 O1 2.154987 1_555
Li6 O6 2.154987 1_555
Mn0 O0 1.962693 1_555
Mn0 O0 1.962693 1_455
Mn0 O8 1.967895 1_555
Mn0 O8 1.967895 1_455
Mn0 O3 2.175500 1_565
Mn0 O11 2.212275 1_555
Mn1 O7 1.962693 1_455
Mn1 O7 1.962693 1_555
Mn1 O2 1.967895 1_455
Mn1 O2 1.967895 1_555
Mn1 O10 2.175500 1_545
Mn1 O5 2.212275 1_555
Co0 O4 1.806866 1_555
Co0 O9 1.806866 1_545
Co0 O6 1.947994 1_555
Co0 O6 1.947994 1_455
Co0 O1 1.947994 1_445
Co0 O1 1.947994 1_545
Co1 O3 1.922512 1_655
Co1 O3 1.922512 1_555
Co1 O11 1.933291 1_655
Co1 O11 1.933291 1_555
Co1 O0 2.212531 1_555
Co1 O8 2.217635 1_545
Co2 O10 1.922512 1_655
Co2 O10 1.922512 1_555
Co2 O5 1.933291 1_655
Co2 O5 1.933291 1_555
Co2 O7 2.212531 1_555
Co2 O2 2.217635 1_565
