# generated using pymatgen
data_MgAl
_symmetry_space_group_name_H-M   'P 1'
_cell_length_a   5.92105782
_cell_length_b   9.75097366
_cell_length_c   10.40295882
_cell_angle_alpha   90.00000000
_cell_angle_beta   90.00000000
_cell_angle_gamma   90.00000000
_symmetry_Int_Tables_number   1
_chemical_formula_structural   MgAl
_chemical_formula_sum   'Mg16 Al16'
_cell_volume   600.62605062
_cell_formula_units_Z   16
loop_
 _symmetry_equiv_pos_site_id
 _symmetry_equiv_pos_as_xyz
  1  'x, y, z'
loop_
 _atom_site_type_symbol
 _atom_site_label
 _atom_site_symmetry_multiplicity
 _atom_site_fract_x
 _atom_site_fract_y
 _atom_site_fract_z
 _atom_site_occupancy
  Mg  Mg0_0  1  0.25000000  0.12500000  0.16644924  1
  Mg  Mg0_1  1  0.25000000  0.12500000  0.66644925  1
  Mg  Mg0_2  1  0.25000000  0.62500000  0.16644924  1
  Mg  Mg0_3  1  0.25000000  0.62500000  0.66644925  1
  Mg  Mg0_4  1  0.75000000  0.12500000  0.16644924  1
  Mg  Mg0_5  1  0.75000000  0.12500000  0.66644925  1
  Mg  Mg0_6  1  0.75000000  0.62500000  0.16644924  1
  Mg  Mg0_7  1  0.75000000  0.62500000  0.66644925  1
  Mg  Mg1_0  1  0.25000000  0.37500000  0.33355076  1
  Mg  Mg1_1  1  0.25000000  0.37500000  0.83355075  1
  Mg  Mg1_2  1  0.25000000  0.87500000  0.33355076  1
  Mg  Mg1_3  1  0.25000000  0.87500000  0.83355075  1
  Mg  Mg1_4  1  0.75000000  0.37500000  0.33355076  1
  Mg  Mg1_5  1  0.75000000  0.37500000  0.83355075  1
  Mg  Mg1_6  1  0.75000000  0.87500000  0.33355076  1
  Mg  Mg1_7  1  0.75000000  0.87500000  0.83355075  1
  Al  Al0_0  1  0.00000000  0.37500000  0.07875366  1
  Al  Al0_1  1  0.00000000  0.37500000  0.57875365  1
  Al  Al0_2  1  0.00000000  0.87500000  0.07875366  1
  Al  Al0_3  1  0.00000000  0.87500000  0.57875365  1
  Al  Al0_4  1  0.50000000  0.37500000  0.07875366  1
  Al  Al0_5  1  0.50000000  0.37500000  0.57875365  1
  Al  Al0_6  1  0.50000000  0.87500000  0.07875366  1
  Al  Al0_7  1  0.50000000  0.87500000  0.57875365  1
  Al  Al1_0  1  0.00000000  0.12500000  0.42124635  1
  Al  Al1_1  1  0.00000000  0.12500000  0.92124635  1
  Al  Al1_2  1  0.00000000  0.62500000  0.42124635  1
  Al  Al1_3  1  0.00000000  0.62500000  0.92124635  1
  Al  Al1_4  1  0.50000000  0.12500000  0.42124635  1
  Al  Al1_5  1  0.50000000  0.12500000  0.92124635  1
  Al  Al1_6  1  0.50000000  0.62500000  0.42124635  1
  Al  Al1_7  1  0.50000000  0.62500000  0.92124635  1
loop_
_geom_bond_atom_site_label_1
_geom_bond_atom_site_label_2
_geom_bond_distance
_geom_bond_site_symmetry_2
Mg0_0 Mg0_4 2.960529 1_555
Mg0_0 Mg0_4 2.960529 1_455
Mg0_0 Mg1_2 2.994070 1_545
Mg0_0 Mg1_0 2.994070 1_555
Mg0_1 Mg0_5 2.960529 1_555
Mg0_1 Mg0_5 2.960529 1_455
Mg0_1 Mg1_3 2.994070 1_545
Mg0_1 Mg1_1 2.994070 1_555
Mg0_2 Mg0_6 2.960529 1_555
Mg0_2 Mg0_6 2.960529 1_455
Mg0_2 Mg1_0 2.994070 1_555
Mg0_2 Mg1_2 2.994070 1_555
Mg0_3 Mg0_7 2.960529 1_555
Mg0_3 Mg0_7 2.960529 1_455
Mg0_3 Mg1_1 2.994070 1_555
Mg0_3 Mg1_3 2.994070 1_555
Mg0_4 Mg1_6 2.994070 1_545
Mg0_4 Mg1_4 2.994070 1_555
Mg0_5 Mg1_7 2.994070 1_545
Mg0_5 Mg1_5 2.994070 1_555
Mg0_6 Mg1_4 2.994070 1_555
Mg0_6 Mg1_6 2.994070 1_555
Mg0_7 Mg1_5 2.994070 1_555
Mg0_7 Mg1_7 2.994070 1_555
Mg1_0 Mg1_4 2.960529 1_555
Mg1_0 Mg1_4 2.960529 1_455
Mg1_1 Mg1_5 2.960529 1_555
Mg1_1 Mg1_5 2.960529 1_455
Mg1_2 Mg1_6 2.960529 1_555
Mg1_2 Mg1_6 2.960529 1_455
Mg1_3 Mg1_7 2.960529 1_555
Mg1_3 Mg1_7 2.960529 1_455
Al0_0 Al1_1 2.937246 1_554
Al0_0 Al1_3 2.937246 1_554
Al0_0 Mg1_1 2.949228 1_554
Al0_0 Mg1_5 2.949228 1_454
Al0_0 Al0_4 2.960529 1_455
Al0_0 Al0_4 2.960529 1_555
Al0_0 Mg0_0 2.994337 1_555
Al0_0 Mg0_2 2.994337 1_555
Al0_0 Mg0_6 2.994337 1_455
Al0_0 Mg0_4 2.994337 1_455
Al0_0 Mg1_0 3.035967 1_555
Al0_0 Mg1_4 3.035967 1_455
Al0_1 Al1_0 2.937246 1_555
Al0_1 Al1_2 2.937246 1_555
Al0_1 Mg1_0 2.949228 1_555
Al0_1 Mg1_4 2.949228 1_455
Al0_1 Al0_5 2.960529 1_455
Al0_1 Al0_5 2.960529 1_555
Al0_1 Mg0_3 2.994337 1_555
Al0_1 Mg0_1 2.994337 1_555
Al0_1 Mg0_7 2.994337 1_455
Al0_1 Mg0_5 2.994337 1_455
Al0_1 Mg1_1 3.035967 1_555
Al0_1 Mg1_5 3.035967 1_455
Al0_2 Al1_1 2.937246 1_564
Al0_2 Al1_3 2.937246 1_554
Al0_2 Mg1_3 2.949228 1_554
Al0_2 Mg1_7 2.949228 1_454
Al0_2 Al0_6 2.960529 1_455
Al0_2 Al0_6 2.960529 1_555
Al0_2 Mg0_0 2.994337 1_565
Al0_2 Mg0_4 2.994337 1_465
Al0_2 Mg0_2 2.994337 1_555
Al0_2 Mg0_6 2.994337 1_455
Al0_2 Mg1_2 3.035967 1_555
Al0_2 Mg1_6 3.035967 1_455
Al0_3 Al1_0 2.937246 1_565
Al0_3 Al1_2 2.937246 1_555
Al0_3 Mg1_2 2.949228 1_555
Al0_3 Mg1_6 2.949228 1_455
Al0_3 Al0_7 2.960529 1_555
Al0_3 Al0_7 2.960529 1_455
Al0_3 Mg0_1 2.994337 1_565
Al0_3 Mg0_5 2.994337 1_465
Al0_3 Mg0_3 2.994337 1_555
Al0_3 Mg0_7 2.994337 1_455
Al0_3 Mg1_3 3.035967 1_555
Al0_3 Mg1_7 3.035967 1_455
Al0_4 Al1_7 2.937246 1_554
Al0_4 Al1_5 2.937246 1_554
Al0_4 Mg1_5 2.949228 1_554
Al0_4 Mg1_1 2.949228 1_554
Al0_4 Mg0_6 2.994337 1_555
Al0_4 Mg0_4 2.994337 1_555
Al0_4 Mg0_2 2.994337 1_555
Al0_4 Mg0_0 2.994337 1_555
Al0_4 Mg1_0 3.035967 1_555
Al0_4 Mg1_4 3.035967 1_555
Al0_5 Al1_4 2.937246 1_555
Al0_5 Al1_6 2.937246 1_555
Al0_5 Mg1_4 2.949228 1_555
Al0_5 Mg1_0 2.949228 1_555
Al0_5 Mg0_3 2.994337 1_555
Al0_5 Mg0_7 2.994337 1_555
Al0_5 Mg0_1 2.994337 1_555
Al0_5 Mg0_5 2.994337 1_555
Al0_5 Mg1_1 3.035967 1_555
Al0_5 Mg1_5 3.035967 1_555
Al0_6 Al1_5 2.937246 1_564
Al0_6 Al1_7 2.937246 1_554
Al0_6 Mg1_7 2.949228 1_554
Al0_6 Mg1_3 2.949228 1_554
Al0_6 Mg0_4 2.994337 1_565
Al0_6 Mg0_0 2.994337 1_565
Al0_6 Mg0_2 2.994337 1_555
Al0_6 Mg0_6 2.994337 1_555
Al0_6 Mg1_2 3.035967 1_555
Al0_6 Mg1_6 3.035967 1_555
Al0_7 Al1_4 2.937246 1_565
Al0_7 Al1_6 2.937246 1_555
Al0_7 Mg1_6 2.949228 1_555
Al0_7 Mg1_2 2.949228 1_555
Al0_7 Mg0_5 2.994337 1_565
Al0_7 Mg0_1 2.994337 1_565
Al0_7 Mg0_3 2.994337 1_555
Al0_7 Mg0_7 2.994337 1_555
Al0_7 Mg1_3 3.035967 1_555
Al0_7 Mg1_7 3.035967 1_555
Al1_0 Mg0_1 2.949228 1_555
Al1_0 Mg0_5 2.949228 1_455
Al1_0 Al1_4 2.960529 1_455
Al1_0 Al1_4 2.960529 1_555
Al1_0 Mg1_2 2.994337 1_545
Al1_0 Mg1_0 2.994337 1_555
Al1_0 Mg1_6 2.994337 1_445
Al1_0 Mg1_4 2.994337 1_455
Al1_0 Mg0_0 3.035967 1_555
Al1_0 Mg0_4 3.035967 1_455
Al1_1 Mg0_0 2.949228 1_556
Al1_1 Mg0_4 2.949228 1_456
Al1_1 Al1_5 2.960529 1_455
Al1_1 Al1_5 2.960529 1_555
Al1_1 Mg1_3 2.994337 1_545
Al1_1 Mg1_7 2.994337 1_445
Al1_1 Mg1_1 2.994337 1_555
Al1_1 Mg1_5 2.994337 1_455
Al1_1 Mg0_1 3.035967 1_555
Al1_1 Mg0_5 3.035967 1_455
Al1_2 Mg0_3 2.949228 1_555
Al1_2 Mg0_7 2.949228 1_455
Al1_2 Al1_6 2.960529 1_455
Al1_2 Al1_6 2.960529 1_555
Al1_2 Mg1_0 2.994337 1_555
Al1_2 Mg1_4 2.994337 1_455
Al1_2 Mg1_2 2.994337 1_555
Al1_2 Mg1_6 2.994337 1_455
Al1_2 Mg0_2 3.035967 1_555
Al1_2 Mg0_6 3.035967 1_455
Al1_3 Mg0_2 2.949228 1_556
Al1_3 Mg0_6 2.949228 1_456
Al1_3 Al1_7 2.960529 1_455
Al1_3 Al1_7 2.960529 1_555
Al1_3 Mg1_1 2.994337 1_555
Al1_3 Mg1_5 2.994337 1_455
Al1_3 Mg1_3 2.994337 1_555
Al1_3 Mg1_7 2.994337 1_455
Al1_3 Mg0_3 3.035967 1_555
Al1_3 Mg0_7 3.035967 1_455
Al1_4 Mg0_5 2.949228 1_555
Al1_4 Mg0_1 2.949228 1_555
Al1_4 Mg1_6 2.994337 1_545
Al1_4 Mg1_2 2.994337 1_545
Al1_4 Mg1_0 2.994337 1_555
Al1_4 Mg1_4 2.994337 1_555
Al1_4 Mg0_4 3.035967 1_555
Al1_4 Mg0_0 3.035967 1_555
Al1_5 Mg0_0 2.949228 1_556
Al1_5 Mg0_4 2.949228 1_556
Al1_5 Mg1_7 2.994337 1_545
Al1_5 Mg1_3 2.994337 1_545
Al1_5 Mg1_5 2.994337 1_555
Al1_5 Mg1_1 2.994337 1_555
Al1_5 Mg0_5 3.035967 1_555
Al1_5 Mg0_1 3.035967 1_555
Al1_6 Mg0_7 2.949228 1_555
Al1_6 Mg0_3 2.949228 1_555
Al1_6 Mg1_0 2.994337 1_555
Al1_6 Mg1_4 2.994337 1_555
Al1_6 Mg1_2 2.994337 1_555
Al1_6 Mg1_6 2.994337 1_555
Al1_6 Mg0_6 3.035967 1_555
Al1_6 Mg0_2 3.035967 1_555
Al1_7 Mg0_2 2.949228 1_556
Al1_7 Mg0_6 2.949228 1_556
Al1_7 Mg1_5 2.994337 1_555
Al1_7 Mg1_1 2.994337 1_555
Al1_7 Mg1_3 2.994337 1_555
Al1_7 Mg1_7 2.994337 1_555
Al1_7 Mg0_3 3.035967 1_555
Al1_7 Mg0_7 3.035967 1_555
