# generated using pymatgen
data_YW3O8
_symmetry_space_group_name_H-M   'P 1'
_cell_length_a   5.85626400
_cell_length_b   5.44692600
_cell_length_c   10.97110319
_cell_angle_alpha   62.69522535
_cell_angle_beta   90.00000000
_cell_angle_gamma   90.00000000
_symmetry_Int_Tables_number   1
_chemical_formula_structural   YW3O8
_chemical_formula_sum   'Y2 W6 O16'
_cell_volume   310.96998387
_cell_formula_units_Z   2
loop_
 _symmetry_equiv_pos_site_id
 _symmetry_equiv_pos_as_xyz
  1  'x, y, z'
loop_
 _atom_site_type_symbol
 _atom_site_label
 _atom_site_symmetry_multiplicity
 _atom_site_fract_x
 _atom_site_fract_y
 _atom_site_fract_z
 _atom_site_occupancy
  Y  Y0  1  0.67377500  0.50000000  0.75000000  1
  Y  Y1  1  0.32622500  0.50000000  0.25000000  1
  W  W0  1  0.34113900  0.00000000  0.75000000  1
  W  W1  1  0.65886100  0.00000000  0.25000000  1
  W  W2  1  0.15077900  0.75441300  0.49813500  1
  W  W3  1  0.15077900  0.24558700  0.00186500  1
  W  W4  1  0.84922100  0.24558700  0.50186500  1
  W  W5  1  0.84922100  0.75441300  0.99813500  1
  O  O0  1  0.35870700  0.20016300  0.85798500  1
  O  O1  1  0.35870700  0.79983700  0.64201500  1
  O  O2  1  0.64129300  0.79983700  0.14201500  1
  O  O3  1  0.64129300  0.20016300  0.35798500  1
  O  O4  1  0.89285100  0.70108700  0.38140200  1
  O  O5  1  0.89285100  0.29891300  0.11859800  1
  O  O6  1  0.10714900  0.29891300  0.61859800  1
  O  O7  1  0.10714900  0.70108700  0.88140200  1
  O  O8  1  0.59623300  0.73996600  0.87017200  1
  O  O9  1  0.59623300  0.26003400  0.62982800  1
  O  O10  1  0.40376700  0.26003400  0.12982800  1
  O  O11  1  0.40376700  0.73996600  0.37017200  1
  O  O12  1  0.88812600  0.18345100  0.89734900  1
  O  O13  1  0.11187400  0.81654900  0.10265100  1
  O  O14  1  0.88812600  0.81654900  0.60265100  1
  O  O15  1  0.11187400  0.18345100  0.39734900  1
loop_
_geom_bond_atom_site_label_1
_geom_bond_atom_site_label_2
_geom_bond_distance
_geom_bond_site_symmetry_2
O0 W0 1.946243 1_555
O0 W3 2.096191 1_556
O0 Y0 2.387508 1_555
O1 W0 1.946243 1_565
O1 W2 2.096191 1_555
O1 Y0 2.387508 1_555
O2 W1 1.946243 1_565
O2 W5 2.096191 1_554
O2 Y1 2.387508 1_555
O3 W1 1.946243 1_555
O3 W4 2.096191 1_555
O3 Y1 2.387508 1_555
O4 W2 2.085045 1_655
O4 W1 2.110331 1_565
O4 W4 2.226960 1_555
O5 W3 2.085045 1_655
O5 W1 2.110331 1_555
O5 W5 2.226960 1_554
O6 W4 2.085045 1_455
O6 W0 2.110331 1_555
O6 W2 2.226960 1_555
O7 W5 2.085045 1_455
O7 W0 2.110331 1_565
O7 W3 2.226960 1_556
O8 W0 2.064674 1_565
O8 W5 2.067245 1_555
O8 Y0 2.287773 1_555
O9 W0 2.064674 1_555
O9 W4 2.067245 1_555
O9 Y0 2.287773 1_555
O10 W1 2.064674 1_555
O10 W3 2.067245 1_555
O10 Y1 2.287773 1_555
O11 W1 2.064674 1_565
O11 W2 2.067245 1_555
O11 Y1 2.287773 1_555
O12 W3 2.037491 1_656
O12 W5 2.089288 1_545
O12 Y0 2.145879 1_555
O13 W5 2.037491 1_454
O13 W3 2.089288 1_565
O13 Y1 2.145879 1_555
O14 W2 2.037491 1_655
O14 W4 2.089288 1_565
O14 Y0 2.145879 1_555
O15 W4 2.037491 1_455
O15 W2 2.089288 1_545
O15 Y1 2.145879 1_555
