# generated using pymatgen
data_AlCr4AgS8
_symmetry_space_group_name_H-M   'P 1'
_cell_length_a   7.16089017
_cell_length_b   7.16089017
_cell_length_c   7.16089017
_cell_angle_alpha   60.00000000
_cell_angle_beta   60.00000000
_cell_angle_gamma   60.00000000
_symmetry_Int_Tables_number   1
_chemical_formula_structural   AlCr4AgS8
_chemical_formula_sum   'Al1 Cr4 Ag1 S8'
_cell_volume   259.64863328
_cell_formula_units_Z   1
loop_
 _symmetry_equiv_pos_site_id
 _symmetry_equiv_pos_as_xyz
  1  'x, y, z'
loop_
 _atom_site_type_symbol
 _atom_site_label
 _atom_site_symmetry_multiplicity
 _atom_site_fract_x
 _atom_site_fract_y
 _atom_site_fract_z
 _atom_site_occupancy
  Al  Al0  1  0.00000000  0.00000000  0.00000000  1
  Cr  Cr0  1  0.62152200  0.62152200  0.13543300  1
  Cr  Cr1  1  0.62152200  0.13543300  0.62152200  1
  Cr  Cr2  1  0.13543300  0.62152200  0.62152200  1
  Cr  Cr3  1  0.62152200  0.62152200  0.62152200  1
  Ag  Ag0  1  0.25000000  0.25000000  0.25000000  1
  S  S0  1  0.86734400  0.86734400  0.39796900  1
  S  S1  1  0.86734400  0.39796900  0.86734400  1
  S  S2  1  0.39796900  0.86734400  0.86734400  1
  S  S3  1  0.86734400  0.86734400  0.86734400  1
  S  S4  1  0.38989000  0.38989000  0.83033000  1
  S  S5  1  0.38989000  0.83033000  0.38989000  1
  S  S6  1  0.83033000  0.38989000  0.38989000  1
  S  S7  1  0.38989000  0.38989000  0.38989000  1
loop_
_geom_bond_atom_site_label_1
_geom_bond_atom_site_label_2
_geom_bond_distance
_geom_bond_site_symmetry_2
Al0 S3 2.326856 1_444
Al0 S1 2.326862 1_454
Al0 S0 2.326862 1_445
Al0 S2 2.326862 1_544
Cr0 S7 2.351431 1_555
Cr0 S6 2.351436 1_555
Cr0 S5 2.351436 1_555
Cr0 S1 2.494538 1_554
Cr0 S2 2.494538 1_554
Cr0 S3 2.494548 1_554
Cr1 S7 2.351431 1_555
Cr1 S6 2.351436 1_555
Cr1 S4 2.351436 1_555
Cr1 S0 2.494538 1_545
Cr1 S2 2.494538 1_545
Cr1 S3 2.494548 1_545
Cr2 S7 2.351431 1_555
Cr2 S4 2.351436 1_555
Cr2 S5 2.351436 1_555
Cr2 S0 2.494538 1_455
Cr2 S1 2.494538 1_455
Cr2 S3 2.494548 1_455
Cr3 S5 2.351431 1_555
Cr3 S6 2.351431 1_555
Cr3 S4 2.351431 1_555
Cr3 S1 2.494548 1_555
Cr3 S2 2.494548 1_555
Cr3 S0 2.494548 1_555
Ag0 S4 2.453744 1_554
Ag0 S5 2.453744 1_545
Ag0 S6 2.453744 1_455
Ag0 S7 2.453744 1_555
