# generated using pymatgen
data_HIN2
_symmetry_space_group_name_H-M   'P 1'
_cell_length_a   5.17949200
_cell_length_b   5.17949200
_cell_length_c   3.56334400
_cell_angle_alpha   90.00000000
_cell_angle_beta   90.00000000
_cell_angle_gamma   90.00000000
_symmetry_Int_Tables_number   1
_chemical_formula_structural   HIN2
_chemical_formula_sum   'H1 I1 N2'
_cell_volume   95.59431901
_cell_formula_units_Z   1
loop_
 _symmetry_equiv_pos_site_id
 _symmetry_equiv_pos_as_xyz
  1  'x, y, z'
loop_
 _atom_site_type_symbol
 _atom_site_label
 _atom_site_symmetry_multiplicity
 _atom_site_fract_x
 _atom_site_fract_y
 _atom_site_fract_z
 _atom_site_occupancy
  H  H0  1  0.50000000  0.50000000  0.50000000  1
  I  I0  1  0.00000000  0.00000000  0.00000000  1
  N  N0  1  0.50000000  0.50000000  0.84181200  1
  N  N1  1  0.50000000  0.50000000  0.15818800  1
loop_
_geom_bond_atom_site_label_1
_geom_bond_atom_site_label_2
_geom_bond_distance
_geom_bond_site_symmetry_2
H0 N0 1.217994 1_555
H0 N1 1.217994 1_555
N0 N1 1.127357 1_556
