# generated using pymatgen
data_Sr2MnTeO6
_symmetry_space_group_name_H-M   'P 1'
_cell_length_a   8.16301918
_cell_length_b   8.15353987
_cell_length_c   8.13980137
_cell_angle_alpha   90.08392952
_cell_angle_beta   90.09389232
_cell_angle_gamma   90.10383144
_symmetry_Int_Tables_number   1
_chemical_formula_structural   Sr2MnTeO6
_chemical_formula_sum   'Sr8 Mn4 Te4 O24'
_cell_volume   541.76264807
_cell_formula_units_Z   4
loop_
 _symmetry_equiv_pos_site_id
 _symmetry_equiv_pos_as_xyz
  1  'x, y, z'
loop_
 _atom_site_type_symbol
 _atom_site_label
 _atom_site_symmetry_multiplicity
 _atom_site_fract_x
 _atom_site_fract_y
 _atom_site_fract_z
 _atom_site_occupancy
  Sr  Sr0  1  0.76105000  0.23322900  0.74972500  1
  Sr  Sr1  1  0.26097900  0.73321400  0.74977600  1
  Sr  Sr2  1  0.23902100  0.76671000  0.25024400  1
  Sr  Sr3  1  0.73894700  0.26670000  0.25029600  1
  Sr  Sr4  1  0.26664000  0.23898900  0.75029400  1
  Sr  Sr5  1  0.76671300  0.73898400  0.75026900  1
  Sr  Sr6  1  0.73331400  0.76110000  0.24971000  1
  Sr  Sr7  1  0.23339000  0.26108600  0.24968700  1
  Mn  Mn0  1  0.49998400  0.50030300  0.49980600  1
  Mn  Mn1  1  0.99996000  0.49994200  0.00011300  1
  Mn  Mn2  1  0.00002000  0.00000800  0.49975000  1
  Mn  Mn3  1  0.49995300  0.00003000  0.00002400  1
  Te  Te0  1  0.99998500  0.99997000  0.00001800  1
  Te  Te1  1  0.49997200  0.50004500  0.00002900  1
  Te  Te2  1  0.49999300  0.99998200  0.49996300  1
  Te  Te3  1  0.00002800  0.50001200  0.50000400  1
  O  O0  1  0.76351400  0.97049700  0.96654700  1
  O  O1  1  0.26349600  0.47054300  0.96657400  1
  O  O2  1  0.23647300  0.02938200  0.03356600  1
  O  O3  1  0.73644700  0.52942900  0.03360000  1
  O  O4  1  0.52931600  0.23671600  0.53331800  1
  O  O5  1  0.02938200  0.73669400  0.53332400  1
  O  O6  1  0.47062900  0.76335900  0.46660700  1
  O  O7  1  0.97069100  0.26333600  0.46662100  1
  O  O8  1  0.52579300  0.53977100  0.76375700  1
  O  O9  1  0.02580200  0.03963900  0.76367300  1
  O  O10  1  0.47412800  0.46034200  0.23630400  1
  O  O11  1  0.97414400  0.96021800  0.23622500  1
  O  O12  1  0.46009200  0.97417700  0.73626500  1
  O  O13  1  0.96011500  0.47423500  0.73628800  1
  O  O14  1  0.53994700  0.02569400  0.26374300  1
  O  O15  1  0.03999600  0.52573300  0.26377100  1
  O  O16  1  0.53164600  0.26398200  0.96450700  1
  O  O17  1  0.03165200  0.76397800  0.96443800  1
  O  O18  1  0.46835100  0.73597600  0.03568200  1
  O  O19  1  0.96835000  0.23596300  0.03560400  1
  O  O20  1  0.73579700  0.96827400  0.53585400  1
  O  O21  1  0.23579800  0.46835500  0.53595200  1
  O  O22  1  0.26424400  0.03165900  0.46400000  1
  O  O23  1  0.76424800  0.53174200  0.46407300  1
loop_
_geom_bond_atom_site_label_1
_geom_bond_atom_site_label_2
_geom_bond_distance
_geom_bond_site_symmetry_2
Mn0 O6 2.175804 1_555
Mn0 O10 2.178836 1_555
Mn0 O4 2.180373 1_555
Mn0 O8 2.181806 1_555
Mn0 O23 2.191816 1_555
Mn0 O21 2.192127 1_555
Mn1 O15 2.180139 1_655
Mn1 O13 2.181182 1_554
Mn1 O3 2.182378 1_555
Mn1 O1 2.182536 1_654
Mn1 O19 2.186952 1_555
Mn1 O17 2.187688 1_654
Mn2 O7 2.177896 1_455
Mn2 O5 2.178270 1_545
Mn2 O11 2.178830 1_445
Mn2 O9 2.181755 1_555
Mn2 O22 2.191713 1_555
Mn2 O20 2.192174 1_445
Mn3 O14 2.180479 1_555
Mn3 O12 2.180785 1_544
Mn3 O2 2.182046 1_555
Mn3 O0 2.182796 1_544
Mn3 O16 2.186843 1_554
Mn3 O18 2.187728 1_545
O0 Te0 1.963289 1_556
O0 Sr5 2.579480 1_555
O0 Sr0 2.777653 1_565
O0 Sr6 2.880994 1_556
O1 Te1 1.963340 1_556
O1 Sr4 2.579730 1_555
O1 Sr1 2.777147 1_555
O1 Sr7 2.880892 1_556
O2 Te0 1.963452 1_445
O2 Sr7 2.579737 1_555
O2 Sr2 2.776534 1_545
O2 Sr4 2.882698 1_554
O3 Te1 1.963346 1_555
O3 Sr6 2.579484 1_555
O3 Sr3 2.776983 1_555
O3 Sr5 2.882900 1_554
O4 Te2 1.962992 1_545
O4 Sr0 2.582921 1_555
O4 Sr4 2.780248 1_555
O4 Sr3 2.882418 1_555
O5 Te3 1.962566 1_555
O5 Sr1 2.582352 1_555
O5 Sr5 2.780044 1_455
O5 Sr2 2.882857 1_555
O6 Te2 1.962143 1_555
O6 Sr2 2.581911 1_555
O6 Sr6 2.779895 1_555
O6 Sr1 2.883580 1_555
O7 Te3 1.962572 1_655
O7 Sr3 2.582514 1_555
O7 Sr7 2.780174 1_655
O7 Sr0 2.883086 1_555
O8 Te1 1.962390 1_556
O8 Sr5 2.551015 1_555
O8 Sr1 2.680597 1_555
O9 Te0 1.962892 1_446
O9 Sr4 2.551170 1_555
O9 Sr0 2.680884 1_455
O10 Te1 1.962403 1_555
O10 Sr7 2.550056 1_555
O10 Sr3 2.681591 1_555
O11 Te0 1.961924 1_555
O11 Sr6 2.549957 1_555
O11 Sr2 2.681338 1_655
O12 Te2 1.962909 1_555
O12 Sr1 2.550215 1_555
O12 Sr4 2.679728 1_565
O13 Te3 1.962757 1_655
O13 Sr0 2.550208 1_555
O13 Sr5 2.679056 1_555
O14 Te2 1.962246 1_545
O14 Sr3 2.549875 1_555
O14 Sr6 2.677885 1_545
O15 Te3 1.962376 1_555
O15 Sr2 2.549852 1_555
O15 Sr7 2.678382 1_555
O16 Te1 1.963551 1_556
O16 Sr0 2.576287 1_555
O16 Sr4 2.783252 1_555
O16 Sr3 2.874433 1_556
O17 Te0 1.963045 1_456
O17 Sr1 2.575174 1_555
O17 Sr5 2.782604 1_455
O17 Sr2 2.874871 1_556
O18 Te1 1.962594 1_555
O18 Sr2 2.574615 1_555
O18 Sr6 2.782114 1_555
O18 Sr1 2.875545 1_554
O19 Te0 1.963025 1_545
O19 Sr3 2.575770 1_555
O19 Sr7 2.782882 1_655
O19 Sr0 2.875021 1_554
O20 Te2 1.964053 1_555
O20 Sr5 2.571905 1_555
O20 Sr0 2.779621 1_565
O20 Sr6 2.875234 1_555
O21 Te3 1.963794 1_555
O21 Sr4 2.571893 1_555
O21 Sr1 2.778732 1_555
O21 Sr7 2.876483 1_555
O22 Te2 1.963666 1_545
O22 Sr7 2.572105 1_555
O22 Sr2 2.778980 1_545
O22 Sr4 2.876965 1_555
O23 Te3 1.963933 1_655
O23 Sr6 2.572036 1_555
O23 Sr3 2.779722 1_555
O23 Sr5 2.875901 1_555
