# generated using pymatgen
data_ZrN
_symmetry_space_group_name_H-M   'P 1'
_cell_length_a   3.15091301
_cell_length_b   3.15091301
_cell_length_c   2.93526200
_cell_angle_alpha   90.00000000
_cell_angle_beta   90.00000000
_cell_angle_gamma   120.00002115
_symmetry_Int_Tables_number   1
_chemical_formula_structural   ZrN
_chemical_formula_sum   'Zr1 N1'
_cell_volume   25.23772695
_cell_formula_units_Z   1
loop_
 _symmetry_equiv_pos_site_id
 _symmetry_equiv_pos_as_xyz
  1  'x, y, z'
loop_
 _atom_site_type_symbol
 _atom_site_label
 _atom_site_symmetry_multiplicity
 _atom_site_fract_x
 _atom_site_fract_y
 _atom_site_fract_z
 _atom_site_occupancy
  Zr  Zr0  1  0.66666700  0.33333300  0.00000000  1
  N  N0  1  0.00000000  0.00000000  0.50000000  1
loop_
_geom_bond_atom_site_label_1
_geom_bond_atom_site_label_2
_geom_bond_distance
_geom_bond_site_symmetry_2
N0 Zr0 2.337382 1_456
N0 Zr0 2.337382 1_455
N0 Zr0 2.337383 1_445
N0 Zr0 2.337383 1_446
N0 Zr0 2.337383 1_555
N0 Zr0 2.337383 1_556
