# generated using pymatgen
data_Mg2CdGa
_symmetry_space_group_name_H-M   'P 1'
_cell_length_a   11.69647188
_cell_length_b   11.69647188
_cell_length_c   11.69647188
_cell_angle_alpha   123.67941046
_cell_angle_beta   118.83234093
_cell_angle_gamma   87.89140273
_symmetry_Int_Tables_number   1
_chemical_formula_structural   Mg2CdGa
_chemical_formula_sum   'Mg2 Cd1 Ga1'
_cell_volume   1106.59400740
_cell_formula_units_Z   1
loop_
 _symmetry_equiv_pos_site_id
 _symmetry_equiv_pos_as_xyz
  1  'x, y, z'
loop_
 _atom_site_type_symbol
 _atom_site_label
 _atom_site_symmetry_multiplicity
 _atom_site_fract_x
 _atom_site_fract_y
 _atom_site_fract_z
 _atom_site_occupancy
  Mg  Mg0  1  0.00000000  0.24562500  0.24562500  1
  Mg  Mg1  1  0.00000000  0.75437500  0.75437500  1
  Cd  Cd0  1  0.00000000  0.50000000  0.50000000  1
  Ga  Ga0  1  0.00000000  0.00000000  0.00000000  1
loop_
_geom_bond_atom_site_label_1
_geom_bond_atom_site_label_2
_geom_bond_distance
_geom_bond_site_symmetry_2
Cd0 Mg1 2.808316 1_555
Cd0 Mg0 2.808316 1_555
Ga0 Mg1 2.711716 1_544
Ga0 Mg0 2.711716 1_555
