# generated using pymatgen
data_Nd2MgCu2
_symmetry_space_group_name_H-M   'P 1'
_cell_length_a   3.80573836
_cell_length_b   7.81144814
_cell_length_c   7.81144814
_cell_angle_alpha   90.00000000
_cell_angle_beta   90.00000000
_cell_angle_gamma   90.00000000
_symmetry_Int_Tables_number   1
_chemical_formula_structural   Nd2MgCu2
_chemical_formula_sum   'Nd4 Mg2 Cu4'
_cell_volume   232.22129116
_cell_formula_units_Z   2
loop_
 _symmetry_equiv_pos_site_id
 _symmetry_equiv_pos_as_xyz
  1  'x, y, z'
loop_
 _atom_site_type_symbol
 _atom_site_label
 _atom_site_symmetry_multiplicity
 _atom_site_fract_x
 _atom_site_fract_y
 _atom_site_fract_z
 _atom_site_occupancy
  Nd  Nd0  1  0.50000000  0.82970521  0.32970521  1
  Nd  Nd1  1  0.50000000  0.67029479  0.82970521  1
  Nd  Nd2  1  0.50000000  0.32970521  0.17029479  1
  Nd  Nd3  1  0.50000000  0.17029479  0.67029479  1
  Mg  Mg0  1  -0.00000000  0.50000000  0.50000000  1
  Mg  Mg1  1  -0.00000000  -0.00000000  -0.00000000  1
  Cu  Cu0  1  0.00000000  0.62097040  0.12097040  1
  Cu  Cu1  1  0.00000000  0.87902960  0.62097040  1
  Cu  Cu2  1  -0.00000000  0.37902960  0.87902960  1
  Cu  Cu3  1  -0.00000000  0.12097040  0.37902960  1
loop_
_geom_bond_atom_site_label_1
_geom_bond_atom_site_label_2
_geom_bond_distance
_geom_bond_site_symmetry_2
Mg0 Nd0 3.467498 1_555
Mg0 Nd0 3.467498 1_455
Mg0 Nd3 3.467498 1_455
Mg0 Nd3 3.467498 1_555
Mg0 Nd1 3.467498 1_455
Mg0 Nd2 3.467498 1_455
Mg0 Nd1 3.467498 1_555
Mg0 Nd2 3.467498 1_555
Mg1 Nd3 3.467498 1_454
Mg1 Nd1 3.467498 1_444
Mg1 Nd1 3.467498 1_544
Mg1 Nd3 3.467498 1_554
Mg1 Nd2 3.467498 1_555
Mg1 Nd0 3.467498 1_445
Mg1 Nd0 3.467498 1_545
Mg1 Nd2 3.467498 1_455
Cu0 Cu2 2.672734 1_554
Cu0 Nd0 2.989667 1_455
Cu0 Nd0 2.989667 1_555
Cu0 Nd1 2.990972 1_554
Cu0 Nd2 2.990972 1_455
Cu0 Nd1 2.990972 1_454
Cu0 Nd2 2.990972 1_555
Cu0 Mg1 3.107909 1_565
Cu0 Mg0 3.107909 1_555
Cu1 Cu3 2.672734 1_565
Cu1 Nd1 2.989667 1_555
Cu1 Nd1 2.989667 1_455
Cu1 Nd0 2.990972 1_555
Cu1 Nd3 2.990972 1_565
Cu1 Nd3 2.990972 1_465
Cu1 Nd0 2.990972 1_455
Cu1 Mg1 3.107909 1_566
Cu1 Mg0 3.107909 1_555
Cu2 Nd3 2.989667 1_455
Cu2 Nd3 2.989667 1_555
Cu2 Nd1 2.990972 1_455
Cu2 Nd2 2.990972 1_556
Cu2 Nd2 2.990972 1_456
Cu2 Nd1 2.990972 1_555
Cu2 Mg0 3.107909 1_555
Cu2 Mg1 3.107909 1_556
Cu3 Nd2 2.989667 1_455
Cu3 Nd2 2.989667 1_555
Cu3 Nd3 2.990972 1_455
Cu3 Nd0 2.990972 1_445
Cu3 Nd0 2.990972 1_545
Cu3 Nd3 2.990972 1_555
Cu3 Mg0 3.107909 1_555
Cu3 Mg1 3.107909 1_555
