# generated using pymatgen
data_La2Mn3ZnO9
_symmetry_space_group_name_H-M   'P 1'
_cell_length_a   5.43810800
_cell_length_b   7.86306100
_cell_length_c   16.66842900
_cell_angle_alpha   90.00000000
_cell_angle_beta   90.00000000
_cell_angle_gamma   90.00000000
_symmetry_Int_Tables_number   1
_chemical_formula_structural   La2Mn3ZnO9
_chemical_formula_sum   'La8 Mn12 Zn4 O36'
_cell_volume   712.74493982
_cell_formula_units_Z   4
loop_
 _symmetry_equiv_pos_site_id
 _symmetry_equiv_pos_as_xyz
  1  'x, y, z'
loop_
 _atom_site_type_symbol
 _atom_site_label
 _atom_site_symmetry_multiplicity
 _atom_site_fract_x
 _atom_site_fract_y
 _atom_site_fract_z
 _atom_site_occupancy
  La  La0  1  0.99910700  0.75000000  0.00876000  1
  La  La1  1  0.97544100  0.75000000  0.67410200  1
  La  La2  1  0.52455900  0.75000000  0.17410200  1
  La  La3  1  0.50089300  0.75000000  0.50876000  1
  La  La4  1  0.02455900  0.25000000  0.32589800  1
  La  La5  1  0.00089300  0.25000000  0.99124000  1
  La  La6  1  0.49910700  0.25000000  0.49124000  1
  La  La7  1  0.47544100  0.25000000  0.82589800  1
  Mn  Mn0  1  0.51268800  0.50479200  0.33421400  1
  Mn  Mn1  1  0.50000000  0.50000000  0.00000000  1
  Mn  Mn2  1  0.48731200  0.49520800  0.66578600  1
  Mn  Mn3  1  0.00000000  0.00000000  0.50000000  1
  Mn  Mn4  1  0.01268800  0.00479200  0.16578600  1
  Mn  Mn5  1  0.98731200  0.99520800  0.83421400  1
  Mn  Mn6  1  0.51268800  0.99520800  0.33421400  1
  Mn  Mn7  1  0.50000000  0.00000000  0.00000000  1
  Mn  Mn8  1  0.48731200  0.00479200  0.66578600  1
  Mn  Mn9  1  0.00000000  0.50000000  0.50000000  1
  Mn  Mn10  1  0.01268800  0.49520800  0.16578600  1
  Mn  Mn11  1  0.98731200  0.50479200  0.83421400  1
  Zn  Zn0  1  0.02886600  0.75000000  0.30726100  1
  Zn  Zn1  1  0.47113400  0.75000000  0.80726100  1
  Zn  Zn2  1  0.97113400  0.25000000  0.69273900  1
  Zn  Zn3  1  0.52886600  0.25000000  0.19273900  1
  O  O0  1  0.23817500  0.45620500  0.40434100  1
  O  O1  1  0.20838000  0.47088800  0.06839700  1
  O  O2  1  0.18385300  0.44493600  0.73178200  1
  O  O3  1  0.31614700  0.05506400  0.23178200  1
  O  O4  1  0.26182500  0.04379500  0.90434100  1
  O  O5  1  0.29162000  0.02911200  0.56839700  1
  O  O6  1  0.81614700  0.94493600  0.26821800  1
  O  O7  1  0.79162000  0.97088900  0.93160300  1
  O  O8  1  0.76182500  0.95620500  0.59565900  1
  O  O9  1  0.70838000  0.52911100  0.43160300  1
  O  O10  1  0.73817500  0.54379500  0.09565900  1
  O  O11  1  0.68385300  0.55506400  0.76821800  1
  O  O12  1  0.81614700  0.55506400  0.26821800  1
  O  O13  1  0.79162000  0.52911100  0.93160300  1
  O  O14  1  0.76182500  0.54379500  0.59565900  1
  O  O15  1  0.70838000  0.97088900  0.43160300  1
  O  O16  1  0.73817500  0.95620500  0.09565900  1
  O  O17  1  0.68385300  0.94493600  0.76821800  1
  O  O18  1  0.23817500  0.04379500  0.40434100  1
  O  O19  1  0.20838000  0.02911200  0.06839700  1
  O  O20  1  0.18385300  0.05506400  0.73178200  1
  O  O21  1  0.31614700  0.44493600  0.23178200  1
  O  O22  1  0.26182500  0.45620500  0.90434100  1
  O  O23  1  0.29162000  0.47088800  0.56839700  1
  O  O24  1  0.08599000  0.75000000  0.16415000  1
  O  O25  1  0.11164200  0.75000000  0.82568900  1
  O  O26  1  0.05484300  0.75000000  0.50763000  1
  O  O27  1  0.38835800  0.75000000  0.32568900  1
  O  O28  1  0.44515700  0.75000000  0.00763000  1
  O  O29  1  0.41401000  0.75000000  0.66415000  1
  O  O30  1  0.94515700  0.25000000  0.49237000  1
  O  O31  1  0.88835800  0.25000000  0.17431100  1
  O  O32  1  0.91401000  0.25000000  0.83585000  1
  O  O33  1  0.58599000  0.25000000  0.33585000  1
  O  O34  1  0.55484300  0.25000000  0.99237000  1
  O  O35  1  0.61164200  0.25000000  0.67431100  1
loop_
_geom_bond_atom_site_label_1
_geom_bond_atom_site_label_2
_geom_bond_distance
_geom_bond_site_symmetry_2
La0 O28 2.425741 1_655
La0 O13 2.438003 1_554
La0 O7 2.438003 1_554
La0 O16 2.596248 1_555
La0 O10 2.596248 1_555
La0 O24 2.632849 1_655
La0 O19 2.664563 1_665
La0 O1 2.664563 1_655
La1 O14 2.384959 1_555
La1 O8 2.384959 1_555
La1 O29 2.390748 1_655
La1 O25 2.633040 1_655
La1 O17 2.706453 1_555
La1 O11 2.706453 1_555
La1 O26 2.808222 1_655
La1 O20 2.821846 1_665
La1 O2 2.821846 1_655
La2 O16 2.384959 1_555
La2 O10 2.384959 1_555
La2 O24 2.390748 1_555
La2 O27 2.633040 1_555
La2 O12 2.706453 1_555
La2 O6 2.706453 1_555
La2 O28 2.808222 1_555
La2 O21 2.821846 1_555
La2 O3 2.821846 1_565
La3 O26 2.425741 1_555
La3 O15 2.438003 1_555
La3 O9 2.438003 1_555
La3 O14 2.596248 1_555
La3 O8 2.596248 1_555
La3 O29 2.632849 1_555
La3 O5 2.664563 1_565
La3 O23 2.664563 1_555
La4 O0 2.384959 1_555
La4 O18 2.384959 1_555
La4 O33 2.390748 1_455
La4 O31 2.633040 1_455
La4 O3 2.706453 1_555
La4 O21 2.706453 1_555
La4 O30 2.808222 1_455
La4 O12 2.821846 1_455
La4 O6 2.821846 1_445
La5 O34 2.425741 1_455
La5 O19 2.437997 1_556
La5 O1 2.437997 1_556
La5 O4 2.596248 1_555
La5 O22 2.596248 1_555
La5 O32 2.632849 1_455
La5 O7 2.664557 1_445
La5 O13 2.664557 1_455
La6 O30 2.425741 1_555
La6 O23 2.437997 1_555
La6 O5 2.437997 1_555
La6 O18 2.596248 1_555
La6 O0 2.596248 1_555
La6 O33 2.632849 1_555
La6 O9 2.664557 1_555
La6 O15 2.664557 1_545
La7 O4 2.384959 1_555
La7 O22 2.384959 1_555
La7 O32 2.390748 1_555
La7 O35 2.633040 1_555
La7 O20 2.706453 1_555
La7 O2 2.706453 1_555
La7 O34 2.808222 1_555
La7 O17 2.821846 1_545
La7 O11 2.821846 1_555
Mn0 O0 1.934126 1_555
Mn0 O9 1.950448 1_555
Mn0 O12 2.022292 1_555
Mn0 O33 2.042899 1_555
Mn0 O27 2.048132 1_555
Mn0 O21 2.068579 1_555
Mn1 O13 1.966497 1_554
Mn1 O1 1.966498 1_555
Mn1 O28 1.992324 1_555
Mn1 O34 1.992324 1_554
Mn1 O10 2.082923 1_555
Mn1 O22 2.082923 1_554
Mn2 O14 1.934126 1_555
Mn2 O23 1.950449 1_555
Mn2 O2 2.022292 1_555
Mn2 O29 2.042899 1_555
Mn2 O35 2.048132 1_555
Mn2 O11 2.068579 1_555
Mn3 O15 1.966497 1_445
Mn3 O5 1.966498 1_555
Mn3 O30 1.992324 1_455
Mn3 O26 1.992324 1_545
Mn3 O18 2.082923 1_555
Mn3 O8 2.082923 1_445
Mn4 O16 1.934126 1_445
Mn4 O19 1.950449 1_555
Mn4 O3 2.022292 1_555
Mn4 O24 2.042899 1_545
Mn4 O31 2.048132 1_455
Mn4 O6 2.068579 1_445
Mn5 O4 1.934126 1_665
Mn5 O7 1.950448 1_555
Mn5 O17 2.022292 1_555
Mn5 O32 2.042899 1_565
Mn5 O25 2.048132 1_655
Mn5 O20 2.068579 1_665
Mn6 O18 1.934126 1_565
Mn6 O15 1.950448 1_555
Mn6 O6 2.022292 1_555
Mn6 O33 2.042899 1_565
Mn6 O27 2.048132 1_555
Mn6 O3 2.068579 1_565
Mn7 O7 1.966497 1_544
Mn7 O19 1.966498 1_555
Mn7 O34 1.992324 1_554
Mn7 O28 1.992324 1_545
Mn7 O16 2.082923 1_545
Mn7 O4 2.082923 1_554
Mn8 O8 1.934126 1_545
Mn8 O5 1.950449 1_555
Mn8 O20 2.022292 1_555
Mn8 O29 2.042899 1_545
Mn8 O35 2.048132 1_555
Mn8 O17 2.068579 1_545
Mn9 O9 1.966497 1_455
Mn9 O23 1.966498 1_555
Mn9 O30 1.992324 1_455
Mn9 O26 1.992324 1_555
Mn9 O0 2.082923 1_555
Mn9 O14 2.082923 1_455
Mn10 O10 1.934126 1_455
Mn10 O1 1.950449 1_555
Mn10 O21 2.022292 1_555
Mn10 O24 2.042899 1_555
Mn10 O31 2.048132 1_455
Mn10 O12 2.068579 1_455
Mn11 O22 1.934126 1_655
Mn11 O13 1.950448 1_555
Mn11 O11 2.022292 1_555
Mn11 O32 2.042899 1_555
Mn11 O25 2.048132 1_655
Mn11 O2 2.068579 1_655
O2 Zn2 2.027594 1_455
O3 Zn3 2.027594 1_555
O6 Zn0 2.027594 1_655
O11 Zn1 2.027594 1_555
O12 Zn0 2.027594 1_655
O17 Zn1 2.027594 1_555
O20 Zn2 2.027594 1_455
O21 Zn3 2.027594 1_555
O24 Zn0 2.405578 1_555
O25 Zn1 1.978940 1_555
O27 Zn0 1.978940 1_555
O29 Zn1 2.405578 1_555
O31 Zn3 1.978940 1_555
O32 Zn2 2.405578 1_555
O33 Zn3 2.405578 1_555
O35 Zn2 1.978940 1_555
