# generated using pymatgen
data_ThPO5
_symmetry_space_group_name_H-M   'P 1'
_cell_length_a   5.95766598
_cell_length_b   5.95766598
_cell_length_c   12.90380500
_cell_angle_alpha   90.00000000
_cell_angle_beta   90.00000000
_cell_angle_gamma   105.69927631
_symmetry_Int_Tables_number   1
_chemical_formula_structural   ThPO5
_chemical_formula_sum   'Th4 P4 O20'
_cell_volume   440.91906970
_cell_formula_units_Z   4
loop_
 _symmetry_equiv_pos_site_id
 _symmetry_equiv_pos_as_xyz
  1  'x, y, z'
loop_
 _atom_site_type_symbol
 _atom_site_label
 _atom_site_symmetry_multiplicity
 _atom_site_fract_x
 _atom_site_fract_y
 _atom_site_fract_z
 _atom_site_occupancy
  Th  Th0  1  0.28950200  0.71049800  0.42426200  1
  Th  Th1  1  0.71049800  0.28950200  0.57573800  1
  Th  Th2  1  0.21049800  0.78950200  0.92426200  1
  Th  Th3  1  0.78950200  0.21049800  0.07573800  1
  P  P0  1  0.10390900  0.89609100  0.63826200  1
  P  P1  1  0.89609100  0.10390900  0.36173800  1
  P  P2  1  0.39609100  0.60390900  0.13826200  1
  P  P3  1  0.60390900  0.39609100  0.86173800  1
  O  O0  1  0.00014700  0.66180100  0.57803400  1
  O  O1  1  0.66180100  0.00014700  0.42196600  1
  O  O2  1  0.16180100  0.50014700  0.07803400  1
  O  O3  1  0.50014700  0.16180100  0.92196600  1
  O  O4  1  0.99985300  0.33819900  0.42196600  1
  O  O5  1  0.33819900  0.99985300  0.57803400  1
  O  O6  1  0.83819900  0.49985300  0.92196600  1
  O  O7  1  0.49985300  0.83819900  0.07803400  1
  O  O8  1  0.15228900  0.84771100  0.75166900  1
  O  O9  1  0.84771100  0.15228900  0.24833100  1
  O  O10  1  0.34771100  0.65228900  0.25166900  1
  O  O11  1  0.65228900  0.34771100  0.74833100  1
  O  O12  1  0.94305500  0.05694500  0.63094000  1
  O  O13  1  0.05694500  0.94305500  0.36906000  1
  O  O14  1  0.55694500  0.44305500  0.13094000  1
  O  O15  1  0.44305500  0.55694500  0.86906000  1
  O  O16  1  0.46469500  0.53530500  0.55239900  1
  O  O17  1  0.53530500  0.46469500  0.44760100  1
  O  O18  1  0.03530500  0.96469500  0.05239900  1
  O  O19  1  0.96469500  0.03530500  0.94760100  1
loop_
_geom_bond_atom_site_label_1
_geom_bond_atom_site_label_2
_geom_bond_distance
_geom_bond_site_symmetry_2
O0 P0 1.570826 1_555
O0 Th1 2.413917 1_455
O0 Th0 2.592778 1_555
O1 P1 1.570826 1_555
O1 Th0 2.413917 1_545
O1 Th1 2.592778 1_555
O2 P2 1.570826 1_555
O2 Th3 2.413917 1_455
O2 Th2 2.592778 1_554
O3 P3 1.570826 1_555
O3 Th2 2.413917 1_545
O3 Th3 2.592778 1_556
O4 P1 1.570826 1_555
O4 Th0 2.413917 1_655
O4 Th1 2.592778 1_555
O5 P0 1.570826 1_555
O5 Th1 2.413917 1_565
O5 Th0 2.592778 1_555
O6 P3 1.570826 1_555
O6 Th2 2.413917 1_655
O6 Th3 2.592778 1_556
O7 P2 1.570826 1_555
O7 Th3 2.413917 1_565
O7 Th2 2.592778 1_554
O8 P0 1.533819 1_555
O8 Th2 2.294692 1_555
O9 P1 1.533819 1_555
O9 Th3 2.294692 1_555
O10 P2 1.533819 1_555
O10 Th0 2.294692 1_555
O11 P3 1.533819 1_555
O11 Th1 2.294692 1_555
O12 P0 1.530574 1_645
O12 Th1 2.320655 1_555
O13 P1 1.530574 1_465
O13 Th0 2.320655 1_555
O14 P2 1.530574 1_555
O14 Th3 2.320655 1_555
O15 P3 1.530574 1_555
O15 Th2 2.320655 1_555
O16 O17 1.509435 1_555
O16 Th0 2.345690 1_555
O16 Th1 2.353776 1_555
O17 Th1 2.345690 1_555
O17 Th0 2.353776 1_555
O18 O19 1.509435 1_464
O18 Th2 2.345690 1_554
O18 Th3 2.353776 1_465
O19 Th3 2.345690 1_556
O19 Th2 2.353776 1_645
