# generated using pymatgen
data_Hf7Tl18Pb2S25
_symmetry_space_group_name_H-M   'P 1'
_cell_length_a   17.71495090
_cell_length_b   17.71495090
_cell_length_c   17.71495090
_cell_angle_alpha   90.00000000
_cell_angle_beta   90.00000000
_cell_angle_gamma   90.00000000
_symmetry_Int_Tables_number   1
_chemical_formula_structural   Hf7Tl18Pb2S25
_chemical_formula_sum   'Hf28 Tl72 Pb8 S100'
_cell_volume   5559.29677514
_cell_formula_units_Z   4
loop_
 _symmetry_equiv_pos_site_id
 _symmetry_equiv_pos_as_xyz
  1  'x, y, z'
loop_
 _atom_site_type_symbol
 _atom_site_label
 _atom_site_symmetry_multiplicity
 _atom_site_fract_x
 _atom_site_fract_y
 _atom_site_fract_z
 _atom_site_occupancy
  Hf  Hf0  1  0.14997471  0.51207489  0.15934379  1
  Hf  Hf1  1  0.85002529  0.01207489  0.34065621  1
  Hf  Hf2  1  0.35002529  0.48792511  0.65934379  1
  Hf  Hf3  1  0.64997471  0.98792511  0.84065621  1
  Hf  Hf4  1  0.15934379  0.14997471  0.51207489  1
  Hf  Hf5  1  0.34065621  0.85002529  0.01207489  1
  Hf  Hf6  1  0.65934379  0.35002529  0.48792511  1
  Hf  Hf7  1  0.84065621  0.64997471  0.98792511  1
  Hf  Hf8  1  0.51207489  0.15934379  0.14997471  1
  Hf  Hf9  1  0.01207489  0.34065621  0.85002529  1
  Hf  Hf10  1  0.48792511  0.65934379  0.35002529  1
  Hf  Hf11  1  0.98792511  0.84065621  0.64997471  1
  Hf  Hf12  1  0.85002529  0.48792511  0.84065621  1
  Hf  Hf13  1  0.14997471  0.98792511  0.65934379  1
  Hf  Hf14  1  0.64997471  0.51207489  0.34065621  1
  Hf  Hf15  1  0.35002529  0.01207489  0.15934379  1
  Hf  Hf16  1  0.84065621  0.85002529  0.48792511  1
  Hf  Hf17  1  0.65934379  0.14997471  0.98792511  1
  Hf  Hf18  1  0.34065621  0.64997471  0.51207489  1
  Hf  Hf19  1  0.15934379  0.35002529  0.01207489  1
  Hf  Hf20  1  0.48792511  0.84065621  0.85002529  1
  Hf  Hf21  1  0.98792511  0.65934379  0.14997471  1
  Hf  Hf22  1  0.51207489  0.34065621  0.64997471  1
  Hf  Hf23  1  0.01207489  0.15934379  0.35002529  1
  Hf  Hf24  1  -0.00000000  0.00000000  0.50000000  1
  Hf  Hf25  1  -0.00000000  0.50000000  -0.00000000  1
  Hf  Hf26  1  0.50000000  0.00000000  -0.00000000  1
  Hf  Hf27  1  0.50000000  0.50000000  0.50000000  1
  Tl  Tl0  1  0.17627523  0.81538098  0.48495340  1
  Tl  Tl1  1  0.82372477  0.31538098  0.01504660  1
  Tl  Tl2  1  0.32372477  0.18461902  0.98495340  1
  Tl  Tl3  1  0.67627523  0.68461902  0.51504660  1
  Tl  Tl4  1  0.48495340  0.17627523  0.81538098  1
  Tl  Tl5  1  0.01504660  0.82372477  0.31538098  1
  Tl  Tl6  1  0.98495340  0.32372477  0.18461902  1
  Tl  Tl7  1  0.51504660  0.67627523  0.68461902  1
  Tl  Tl8  1  0.81538098  0.48495340  0.17627523  1
  Tl  Tl9  1  0.31538098  0.01504660  0.82372477  1
  Tl  Tl10  1  0.18461902  0.98495340  0.32372477  1
  Tl  Tl11  1  0.68461902  0.51504660  0.67627523  1
  Tl  Tl12  1  0.82372477  0.18461902  0.51504660  1
  Tl  Tl13  1  0.17627523  0.68461902  0.98495340  1
  Tl  Tl14  1  0.67627523  0.81538098  0.01504660  1
  Tl  Tl15  1  0.32372477  0.31538098  0.48495340  1
  Tl  Tl16  1  0.51504660  0.82372477  0.18461902  1
  Tl  Tl17  1  0.98495340  0.17627523  0.68461902  1
  Tl  Tl18  1  0.01504660  0.67627523  0.81538098  1
  Tl  Tl19  1  0.48495340  0.32372477  0.31538098  1
  Tl  Tl20  1  0.18461902  0.51504660  0.82372477  1
  Tl  Tl21  1  0.68461902  0.98495340  0.17627523  1
  Tl  Tl22  1  0.81538098  0.01504660  0.67627523  1
  Tl  Tl23  1  0.31538098  0.48495340  0.32372477  1
  Tl  Tl24  1  0.15547979  0.66744564  0.32367282  1
  Tl  Tl25  1  0.84452021  0.16744564  0.17632718  1
  Tl  Tl26  1  0.34452021  0.33255436  0.82367282  1
  Tl  Tl27  1  0.65547979  0.83255436  0.67632718  1
  Tl  Tl28  1  0.32367282  0.15547979  0.66744564  1
  Tl  Tl29  1  0.17632718  0.84452021  0.16744564  1
  Tl  Tl30  1  0.82367282  0.34452021  0.33255436  1
  Tl  Tl31  1  0.67632718  0.65547979  0.83255436  1
  Tl  Tl32  1  0.66744564  0.32367282  0.15547979  1
  Tl  Tl33  1  0.16744564  0.17632718  0.84452021  1
  Tl  Tl34  1  0.33255436  0.82367282  0.34452021  1
  Tl  Tl35  1  0.83255436  0.67632718  0.65547979  1
  Tl  Tl36  1  0.84452021  0.33255436  0.67632718  1
  Tl  Tl37  1  0.15547979  0.83255436  0.82367282  1
  Tl  Tl38  1  0.65547979  0.66744564  0.17632718  1
  Tl  Tl39  1  0.34452021  0.16744564  0.32367282  1
  Tl  Tl40  1  0.67632718  0.84452021  0.33255436  1
  Tl  Tl41  1  0.82367282  0.15547979  0.83255436  1
  Tl  Tl42  1  0.17632718  0.65547979  0.66744564  1
  Tl  Tl43  1  0.32367282  0.34452021  0.16744564  1
  Tl  Tl44  1  0.33255436  0.67632718  0.84452021  1
  Tl  Tl45  1  0.83255436  0.82367282  0.15547979  1
  Tl  Tl46  1  0.66744564  0.17632718  0.65547979  1
  Tl  Tl47  1  0.16744564  0.32367282  0.34452021  1
  Tl  Tl48  1  0.01372077  0.66617198  0.48079135  1
  Tl  Tl49  1  0.98627923  0.16617198  0.01920865  1
  Tl  Tl50  1  0.48627923  0.33382802  0.98079135  1
  Tl  Tl51  1  0.51372077  0.83382802  0.51920865  1
  Tl  Tl52  1  0.48079135  0.01372077  0.66617198  1
  Tl  Tl53  1  0.01920865  0.98627923  0.16617198  1
  Tl  Tl54  1  0.98079135  0.48627923  0.33382802  1
  Tl  Tl55  1  0.51920865  0.51372077  0.83382802  1
  Tl  Tl56  1  0.66617198  0.48079135  0.01372077  1
  Tl  Tl57  1  0.16617198  0.01920865  0.98627923  1
  Tl  Tl58  1  0.33382802  0.98079135  0.48627923  1
  Tl  Tl59  1  0.83382802  0.51920865  0.51372077  1
  Tl  Tl60  1  0.98627923  0.33382802  0.51920865  1
  Tl  Tl61  1  0.01372077  0.83382802  0.98079135  1
  Tl  Tl62  1  0.51372077  0.66617198  0.01920865  1
  Tl  Tl63  1  0.48627923  0.16617198  0.48079135  1
  Tl  Tl64  1  0.51920865  0.98627923  0.33382802  1
  Tl  Tl65  1  0.98079135  0.01372077  0.83382802  1
  Tl  Tl66  1  0.01920865  0.51372077  0.66617198  1
  Tl  Tl67  1  0.48079135  0.48627923  0.16617198  1
  Tl  Tl68  1  0.33382802  0.51920865  0.98627923  1
  Tl  Tl69  1  0.83382802  0.98079135  0.01372077  1
  Tl  Tl70  1  0.66617198  0.01920865  0.51372077  1
  Tl  Tl71  1  0.16617198  0.48079135  0.48627923  1
  Pb  Pb0  1  0.32336438  0.67663562  0.17663562  1
  Pb  Pb1  1  0.67663562  0.17663562  0.32336438  1
  Pb  Pb2  1  0.17663562  0.32336438  0.67663562  1
  Pb  Pb3  1  0.82336438  0.82336438  0.82336438  1
  Pb  Pb4  1  0.67663562  0.32336438  0.82336438  1
  Pb  Pb5  1  0.32336438  0.82336438  0.67663562  1
  Pb  Pb6  1  0.82336438  0.67663562  0.32336438  1
  Pb  Pb7  1  0.17663562  0.17663562  0.17663562  1
  S  S0  1  0.14596628  0.50911783  0.29839992  1
  S  S1  1  0.85403372  0.00911783  0.20160008  1
  S  S2  1  0.35403372  0.49088217  0.79839992  1
  S  S3  1  0.64596628  0.99088217  0.70160008  1
  S  S4  1  0.29839992  0.14596628  0.50911783  1
  S  S5  1  0.20160008  0.85403372  0.00911783  1
  S  S6  1  0.79839992  0.35403372  0.49088217  1
  S  S7  1  0.70160008  0.64596628  0.99088217  1
  S  S8  1  0.50911783  0.29839992  0.14596628  1
  S  S9  1  0.00911783  0.20160008  0.85403372  1
  S  S10  1  0.49088217  0.79839992  0.35403372  1
  S  S11  1  0.99088217  0.70160008  0.64596628  1
  S  S12  1  0.85403372  0.49088217  0.70160008  1
  S  S13  1  0.14596628  0.99088217  0.79839992  1
  S  S14  1  0.64596628  0.50911783  0.20160008  1
  S  S15  1  0.35403372  0.00911783  0.29839992  1
  S  S16  1  0.70160008  0.85403372  0.49088217  1
  S  S17  1  0.79839992  0.14596628  0.99088217  1
  S  S18  1  0.20160008  0.64596628  0.50911783  1
  S  S19  1  0.29839992  0.35403372  0.00911783  1
  S  S20  1  0.49088217  0.70160008  0.85403372  1
  S  S21  1  0.99088217  0.79839992  0.14596628  1
  S  S22  1  0.50911783  0.20160008  0.64596628  1
  S  S23  1  0.00911783  0.29839992  0.35403372  1
  S  S24  1  0.00175609  0.50951425  0.14425316  1
  S  S25  1  0.99824391  0.00951425  0.35574684  1
  S  S26  1  0.49824391  0.49048575  0.64425316  1
  S  S27  1  0.50175609  0.99048575  0.85574684  1
  S  S28  1  0.14425316  0.00175609  0.50951425  1
  S  S29  1  0.35574684  0.99824391  0.00951425  1
  S  S30  1  0.64425316  0.49824391  0.49048575  1
  S  S31  1  0.85574684  0.50175609  0.99048575  1
  S  S32  1  0.50951425  0.14425316  0.00175609  1
  S  S33  1  0.00951425  0.35574684  0.99824391  1
  S  S34  1  0.49048575  0.64425316  0.49824391  1
  S  S35  1  0.99048575  0.85574684  0.50175609  1
  S  S36  1  0.99824391  0.49048575  0.85574684  1
  S  S37  1  0.00175609  0.99048575  0.64425316  1
  S  S38  1  0.50175609  0.50951425  0.35574684  1
  S  S39  1  0.49824391  0.00951425  0.14425316  1
  S  S40  1  0.85574684  0.99824391  0.49048575  1
  S  S41  1  0.64425316  0.00175609  0.99048575  1
  S  S42  1  0.35574684  0.50175609  0.50951425  1
  S  S43  1  0.14425316  0.49824391  0.00951425  1
  S  S44  1  0.49048575  0.85574684  0.99824391  1
  S  S45  1  0.99048575  0.64425316  0.00175609  1
  S  S46  1  0.50951425  0.35574684  0.50175609  1
  S  S47  1  0.00951425  0.14425316  0.49824391  1
  S  S48  1  0.29126577  0.52520602  0.15596260  1
  S  S49  1  0.70873423  0.02520602  0.34403740  1
  S  S50  1  0.20873423  0.47479398  0.65596260  1
  S  S51  1  0.79126577  0.97479398  0.84403740  1
  S  S52  1  0.15596260  0.29126577  0.52520602  1
  S  S53  1  0.34403740  0.70873423  0.02520602  1
  S  S54  1  0.65596260  0.20873423  0.47479398  1
  S  S55  1  0.84403740  0.79126577  0.97479398  1
  S  S56  1  0.52520602  0.15596260  0.29126577  1
  S  S57  1  0.02520602  0.34403740  0.70873423  1
  S  S58  1  0.47479398  0.65596260  0.20873423  1
  S  S59  1  0.97479398  0.84403740  0.79126577  1
  S  S60  1  0.70873423  0.47479398  0.84403740  1
  S  S61  1  0.29126577  0.97479398  0.65596260  1
  S  S62  1  0.79126577  0.52520602  0.34403740  1
  S  S63  1  0.20873423  0.02520602  0.15596260  1
  S  S64  1  0.84403740  0.70873423  0.47479398  1
  S  S65  1  0.65596260  0.29126577  0.97479398  1
  S  S66  1  0.34403740  0.79126577  0.52520602  1
  S  S67  1  0.15596260  0.20873423  0.02520602  1
  S  S68  1  0.47479398  0.84403740  0.70873423  1
  S  S69  1  0.97479398  0.65596260  0.29126577  1
  S  S70  1  0.52520602  0.34403740  0.79126577  1
  S  S71  1  0.02520602  0.15596260  0.20873423  1
  S  S72  1  0.34479366  0.64863038  0.36508776  1
  S  S73  1  0.65520634  0.14863038  0.13491224  1
  S  S74  1  0.15520634  0.35136962  0.86508776  1
  S  S75  1  0.84479366  0.85136962  0.63491224  1
  S  S76  1  0.36508776  0.34479366  0.64863038  1
  S  S77  1  0.13491224  0.65520634  0.14863038  1
  S  S78  1  0.86508776  0.15520634  0.35136962  1
  S  S79  1  0.63491224  0.84479366  0.85136962  1
  S  S80  1  0.64863038  0.36508776  0.34479366  1
  S  S81  1  0.14863038  0.13491224  0.65520634  1
  S  S82  1  0.35136962  0.86508776  0.15520634  1
  S  S83  1  0.85136962  0.63491224  0.84479366  1
  S  S84  1  0.65520634  0.35136962  0.63491224  1
  S  S85  1  0.34479366  0.85136962  0.86508776  1
  S  S86  1  0.84479366  0.64863038  0.13491224  1
  S  S87  1  0.15520634  0.14863038  0.36508776  1
  S  S88  1  0.63491224  0.65520634  0.35136962  1
  S  S89  1  0.86508776  0.34479366  0.85136962  1
  S  S90  1  0.13491224  0.84479366  0.64863038  1
  S  S91  1  0.36508776  0.15520634  0.14863038  1
  S  S92  1  0.35136962  0.63491224  0.65520634  1
  S  S93  1  0.85136962  0.86508776  0.34479366  1
  S  S94  1  0.64863038  0.13491224  0.84479366  1
  S  S95  1  0.14863038  0.36508776  0.15520634  1
  S  S96  1  0.50000000  0.50000000  -0.00000000  1
  S  S97  1  0.50000000  -0.00000000  0.50000000  1
  S  S98  1  -0.00000000  0.50000000  0.50000000  1
  S  S99  1  -0.00000000  0.00000000  -0.00000000  1
loop_
_geom_bond_atom_site_label_1
_geom_bond_atom_site_label_2
_geom_bond_distance
_geom_bond_site_symmetry_2
Hf0 S0 2.464952 1_555
Hf0 S48 2.514464 1_555
Hf0 S77 2.556622 1_555
Hf0 S95 2.605010 1_555
Hf0 S24 2.639649 1_555
Hf0 S43 2.667434 1_555
Hf1 S1 2.464952 1_555
Hf1 S49 2.514464 1_555
Hf1 S78 2.556622 1_555
Hf1 S93 2.605010 1_545
Hf1 S25 2.639649 1_555
Hf1 S40 2.667434 1_545
Hf2 S2 2.464952 1_555
Hf2 S50 2.514464 1_555
Hf2 S76 2.556622 1_555
Hf2 S92 2.605010 1_555
Hf2 S26 2.639649 1_555
Hf2 S42 2.667434 1_555
Hf3 S3 2.464952 1_555
Hf3 S51 2.514464 1_555
Hf3 S79 2.556622 1_555
Hf3 S94 2.605010 1_565
Hf3 S27 2.639649 1_555
Hf3 S41 2.667434 1_565
Hf4 S4 2.464952 1_555
Hf4 S52 2.514464 1_555
Hf4 S81 2.556622 1_555
Hf4 S87 2.605010 1_555
Hf4 S28 2.639649 1_555
Hf4 S47 2.667434 1_555
Hf5 S5 2.464952 1_555
Hf5 S53 2.514464 1_555
Hf5 S82 2.556622 1_555
Hf5 S85 2.605010 1_554
Hf5 S29 2.639649 1_555
Hf5 S44 2.667434 1_554
Hf6 S6 2.464952 1_555
Hf6 S54 2.514464 1_555
Hf6 S80 2.556622 1_555
Hf6 S84 2.605010 1_555
Hf6 S30 2.639649 1_555
Hf6 S46 2.667434 1_555
Hf7 S7 2.464952 1_555
Hf7 S55 2.514464 1_555
Hf7 S83 2.556622 1_555
Hf7 S86 2.605010 1_556
Hf7 S31 2.639649 1_555
Hf7 S45 2.667434 1_556
Hf8 S8 2.464952 1_555
Hf8 S56 2.514464 1_555
Hf8 S73 2.556622 1_555
Hf8 S91 2.605010 1_555
Hf8 S32 2.639649 1_555
Hf8 S39 2.667434 1_555
Hf9 S9 2.464952 1_555
Hf9 S57 2.514464 1_555
Hf9 S74 2.556622 1_555
Hf9 S89 2.605010 1_455
Hf9 S33 2.639649 1_555
Hf9 S36 2.667434 1_455
Hf10 S10 2.464952 1_555
Hf10 S58 2.514464 1_555
Hf10 S72 2.556622 1_555
Hf10 S88 2.605010 1_555
Hf10 S34 2.639649 1_555
Hf10 S38 2.667434 1_555
Hf11 S11 2.464952 1_555
Hf11 S59 2.514464 1_555
Hf11 S75 2.556622 1_555
Hf11 S90 2.605010 1_655
Hf11 S35 2.639649 1_555
Hf11 S37 2.667434 1_655
Hf12 S12 2.464952 1_555
Hf12 S60 2.514464 1_555
Hf12 S89 2.556622 1_555
Hf12 S83 2.605010 1_555
Hf12 S36 2.639649 1_555
Hf12 S31 2.667434 1_555
Hf13 S13 2.464952 1_555
Hf13 S61 2.514464 1_555
Hf13 S90 2.556622 1_555
Hf13 S81 2.605010 1_565
Hf13 S37 2.639649 1_555
Hf13 S28 2.667434 1_565
Hf14 S14 2.464952 1_555
Hf14 S62 2.514464 1_555
Hf14 S88 2.556622 1_555
Hf14 S80 2.605010 1_555
Hf14 S38 2.639649 1_555
Hf14 S30 2.667434 1_555
Hf15 S15 2.464952 1_555
Hf15 S63 2.514464 1_555
Hf15 S91 2.556622 1_555
Hf15 S82 2.605010 1_545
Hf15 S39 2.639649 1_555
Hf15 S29 2.667434 1_545
Hf16 S16 2.464952 1_555
Hf16 S64 2.514464 1_555
Hf16 S93 2.556622 1_555
Hf16 S75 2.605010 1_555
Hf16 S40 2.639649 1_555
Hf16 S35 2.667434 1_555
Hf17 S17 2.464952 1_555
Hf17 S65 2.514464 1_555
Hf17 S94 2.556622 1_555
Hf17 S73 2.605010 1_556
Hf17 S41 2.639649 1_555
Hf17 S32 2.667434 1_556
Hf18 S18 2.464952 1_555
Hf18 S66 2.514464 1_555
Hf18 S92 2.556622 1_555
Hf18 S72 2.605010 1_555
Hf18 S42 2.639649 1_555
Hf18 S34 2.667434 1_555
Hf19 S19 2.464952 1_555
Hf19 S67 2.514464 1_555
Hf19 S95 2.556622 1_555
Hf19 S74 2.605010 1_554
Hf19 S43 2.639649 1_555
Hf19 S33 2.667434 1_554
Hf20 S20 2.464952 1_555
Hf20 S68 2.514464 1_555
Hf20 S85 2.556622 1_555
Hf20 S79 2.605010 1_555
Hf20 S44 2.639649 1_555
Hf20 S27 2.667434 1_555
Hf21 S21 2.464952 1_555
Hf21 S69 2.514464 1_555
Hf21 S86 2.556622 1_555
Hf21 S77 2.605010 1_655
Hf21 S45 2.639649 1_555
Hf21 S24 2.667434 1_655
Hf22 S22 2.464952 1_555
Hf22 S70 2.514464 1_555
Hf22 S84 2.556622 1_555
Hf22 S76 2.605010 1_555
Hf22 S46 2.639649 1_555
Hf22 S26 2.667434 1_555
Hf23 S23 2.464952 1_555
Hf23 S71 2.514464 1_555
Hf23 S87 2.556622 1_555
Hf23 S78 2.605010 1_455
Hf23 S47 2.639649 1_555
Hf23 S25 2.667434 1_455
Hf24 S40 2.561179 1_445
Hf24 S47 2.561179 1_555
Hf24 S25 2.561179 1_455
Hf24 S37 2.561179 1_545
Hf24 S28 2.561179 1_555
Hf24 S35 2.561179 1_445
Hf25 S43 2.561179 1_555
Hf25 S31 2.561179 1_454
Hf25 S36 2.561179 1_454
Hf25 S33 2.561179 1_554
Hf25 S45 2.561179 1_455
Hf25 S24 2.561179 1_555
Hf26 S44 2.561179 1_544
Hf26 S32 2.561179 1_555
Hf26 S41 2.561179 1_554
Hf26 S27 2.561179 1_544
Hf26 S39 2.561179 1_555
Hf26 S29 2.561179 1_545
Hf27 S34 2.561179 1_555
Hf27 S38 2.561179 1_555
Hf27 S42 2.561179 1_555
Hf27 S26 2.561179 1_555
Hf27 S46 2.561179 1_555
Hf27 S30 2.561179 1_555
Pb0 S48 2.766518 1_555
Pb0 S58 2.766518 1_555
Pb0 S53 2.766518 1_555
Pb1 S56 2.766518 1_555
Pb1 S54 2.766518 1_555
Pb1 S49 2.766518 1_555
Pb2 S52 2.766518 1_555
Pb2 S57 2.766518 1_555
Pb2 S50 2.766518 1_555
Pb3 S51 2.766518 1_555
Pb3 S59 2.766518 1_555
Pb3 S55 2.766518 1_555
Pb4 S60 2.766518 1_555
Pb4 S70 2.766518 1_555
Pb4 S65 2.766518 1_555
Pb5 S68 2.766518 1_555
Pb5 S66 2.766518 1_555
Pb5 S61 2.766518 1_555
Pb6 S64 2.766518 1_555
Pb6 S62 2.766518 1_555
Pb6 S69 2.766518 1_555
Pb7 S67 2.766518 1_555
Pb7 S71 2.766518 1_555
Pb7 S63 2.766518 1_555
S0 Tl24 2.845273 1_555
S0 Tl54 3.019841 1_455
S0 Tl23 3.064564 1_555
S1 Tl25 2.845273 1_555
S1 Tl53 3.019841 1_645
S1 Tl21 3.064564 1_545
S2 Tl26 2.845273 1_555
S2 Tl55 3.019841 1_555
S2 Tl20 3.064564 1_555
S3 Tl27 2.845273 1_555
S3 Tl52 3.019841 1_565
S3 Tl22 3.064564 1_565
S4 Tl28 2.845273 1_555
S4 Tl58 3.019841 1_545
S4 Tl15 3.064564 1_555
S5 Tl29 2.845273 1_555
S5 Tl57 3.019841 1_564
S5 Tl13 3.064564 1_554
S6 Tl30 2.845273 1_555
S6 Tl59 3.019841 1_555
S6 Tl12 3.064564 1_555
S7 Tl31 2.845273 1_555
S7 Tl56 3.019841 1_556
S7 Tl14 3.064564 1_556
S8 Tl32 2.845273 1_555
S8 Tl50 3.019841 1_554
S8 Tl19 3.064564 1_555
S9 Tl33 2.845273 1_555
S9 Tl49 3.019841 1_456
S9 Tl17 3.064564 1_455
S10 Tl34 2.845273 1_555
S10 Tl51 3.019841 1_555
S10 Tl16 3.064564 1_555
S11 Tl35 2.845273 1_555
S11 Tl48 3.019841 1_655
S11 Tl18 3.064564 1_655
S12 Tl36 2.845273 1_555
S12 Tl66 3.019841 1_655
S12 Tl11 3.064564 1_555
S13 Tl37 2.845273 1_555
S13 Tl65 3.019841 1_465
S13 Tl9 3.064564 1_565
S14 Tl38 2.845273 1_555
S14 Tl67 3.019841 1_555
S14 Tl8 3.064564 1_555
S15 Tl39 2.845273 1_555
S15 Tl64 3.019841 1_545
S15 Tl10 3.064564 1_545
S16 Tl40 2.845273 1_555
S16 Tl70 3.019841 1_565
S16 Tl3 3.064564 1_555
S17 Tl41 2.845273 1_555
S17 Tl69 3.019841 1_546
S17 Tl1 3.064564 1_556
S18 Tl42 2.845273 1_555
S18 Tl71 3.019841 1_555
S18 Tl0 3.064564 1_555
S19 Tl43 2.845273 1_555
S19 Tl68 3.019841 1_554
S19 Tl2 3.064564 1_554
S20 Tl44 2.845273 1_555
S20 Tl62 3.019841 1_556
S20 Tl7 3.064564 1_555
S21 Tl45 2.845273 1_555
S21 Tl61 3.019841 1_654
S21 Tl5 3.064564 1_655
S22 Tl46 2.845273 1_555
S22 Tl63 3.019841 1_555
S22 Tl4 3.064564 1_555
S23 Tl47 2.845273 1_555
S23 Tl60 3.019841 1_455
S23 Tl6 3.064564 1_455
S48 Tl23 3.085961 1_555
S48 Tl68 3.100873 1_554
S49 Tl21 3.085961 1_545
S49 Tl70 3.100873 1_555
S50 Tl20 3.085961 1_555
S50 Tl71 3.100873 1_555
S51 Tl22 3.085961 1_565
S51 Tl69 3.100873 1_556
S52 Tl15 3.085961 1_555
S52 Tl60 3.100873 1_455
S53 Tl13 3.085961 1_554
S53 Tl62 3.100873 1_555
S54 Tl12 3.085961 1_555
S54 Tl63 3.100873 1_555
S55 Tl14 3.085961 1_556
S55 Tl61 3.100873 1_655
S56 Tl19 3.085961 1_555
S56 Tl64 3.100873 1_545
S57 Tl17 3.085961 1_455
S57 Tl66 3.100873 1_555
S58 Tl16 3.085961 1_555
S58 Tl67 3.100873 1_555
S59 Tl18 3.085961 1_655
S59 Tl65 3.100873 1_565
S60 Tl11 3.085961 1_555
S60 Tl56 3.100873 1_556
S61 Tl9 3.085961 1_565
S61 Tl58 3.100873 1_555
S62 Tl8 3.085961 1_555
S62 Tl59 3.100873 1_555
S63 Tl10 3.085961 1_545
S63 Tl57 3.100873 1_554
S64 Tl3 3.085961 1_555
S64 Tl48 3.100873 1_655
S65 Tl1 3.085961 1_556
S65 Tl50 3.100873 1_555
S66 Tl0 3.085961 1_555
S66 Tl51 3.100873 1_555
S67 Tl2 3.085961 1_554
S67 Tl49 3.100873 1_455
S68 Tl7 3.085961 1_555
S68 Tl52 3.100873 1_565
S69 Tl5 3.085961 1_655
S69 Tl54 3.100873 1_555
S70 Tl4 3.085961 1_555
S70 Tl55 3.100873 1_555
S71 Tl6 3.085961 1_455
S71 Tl53 3.100873 1_545
S72 Tl23 3.035733 1_555
S72 Tl34 3.129720 1_555
S73 Tl21 3.035733 1_545
S73 Tl32 3.129720 1_555
S74 Tl20 3.035733 1_555
S74 Tl33 3.129720 1_555
S75 Tl22 3.035733 1_565
S75 Tl35 3.129720 1_555
S76 Tl15 3.035733 1_555
S76 Tl26 3.129720 1_555
S77 Tl13 3.035733 1_554
S77 Tl24 3.129720 1_555
S78 Tl12 3.035733 1_555
S78 Tl25 3.129720 1_555
S79 Tl14 3.035733 1_556
S79 Tl27 3.129720 1_555
S80 Tl19 3.035733 1_555
S80 Tl30 3.129720 1_555
S81 Tl17 3.035733 1_455
S81 Tl28 3.129720 1_555
S82 Tl16 3.035733 1_555
S82 Tl29 3.129720 1_555
S83 Tl18 3.035733 1_655
S83 Tl31 3.129720 1_555
S84 Tl11 3.035733 1_555
S84 Tl46 3.129720 1_555
S85 Tl9 3.035733 1_565
S85 Tl44 3.129720 1_555
S86 Tl8 3.035733 1_555
S86 Tl45 3.129720 1_555
S87 Tl10 3.035733 1_545
S87 Tl47 3.129720 1_555
S88 Tl3 3.035733 1_555
S88 Tl38 3.129720 1_555
S89 Tl1 3.035733 1_556
S89 Tl36 3.129720 1_555
S90 Tl0 3.035733 1_555
S90 Tl37 3.129720 1_555
S91 Tl2 3.035733 1_554
S91 Tl39 3.129720 1_555
S92 Tl7 3.035733 1_555
S92 Tl42 3.129720 1_555
S93 Tl5 3.035733 1_655
S93 Tl40 3.129720 1_555
S94 Tl4 3.035733 1_555
S94 Tl41 3.129720 1_555
S95 Tl6 3.035733 1_455
S95 Tl43 3.129720 1_555
S96 Tl67 2.973282 1_555
S96 Tl50 2.973282 1_554
S96 Tl62 2.973282 1_555
S96 Tl68 2.973282 1_554
S96 Tl56 2.973282 1_555
S96 Tl55 2.973282 1_554
S97 Tl63 2.973282 1_555
S97 Tl52 2.973282 1_555
S97 Tl51 2.973282 1_545
S97 Tl64 2.973282 1_545
S97 Tl70 2.973282 1_555
S97 Tl58 2.973282 1_545
S98 Tl66 2.973282 1_555
S98 Tl60 2.973282 1_455
S98 Tl48 2.973282 1_555
S98 Tl54 2.973282 1_455
S98 Tl59 2.973282 1_455
S98 Tl71 2.973282 1_555
S99 Tl57 2.973282 1_554
S99 Tl49 2.973282 1_455
S99 Tl61 2.973282 1_544
S99 Tl65 2.973282 1_454
S99 Tl53 2.973282 1_545
S99 Tl69 2.973282 1_445
