# generated using pymatgen
data_MnNi5N4
_symmetry_space_group_name_H-M   'P 1'
_cell_length_a   8.51230200
_cell_length_b   5.81423400
_cell_length_c   4.20776600
_cell_angle_alpha   90.00000000
_cell_angle_beta   90.00000000
_cell_angle_gamma   90.00000000
_symmetry_Int_Tables_number   1
_chemical_formula_structural   MnNi5N4
_chemical_formula_sum   'Mn2 Ni10 N8'
_cell_volume   208.25292484
_cell_formula_units_Z   2
loop_
 _symmetry_equiv_pos_site_id
 _symmetry_equiv_pos_as_xyz
  1  'x, y, z'
loop_
 _atom_site_type_symbol
 _atom_site_label
 _atom_site_symmetry_multiplicity
 _atom_site_fract_x
 _atom_site_fract_y
 _atom_site_fract_z
 _atom_site_occupancy
  Mn  Mn0  1  0.75000000  0.25000000  0.73801900  1
  Mn  Mn1  1  0.25000000  0.75000000  0.26198100  1
  Ni  Ni0  1  0.59228000  0.53657800  0.29713500  1
  Ni  Ni1  1  0.90772000  0.53657800  0.29713500  1
  Ni  Ni2  1  0.59228000  0.96342200  0.29713500  1
  Ni  Ni3  1  0.90772000  0.96342200  0.29713500  1
  Ni  Ni4  1  0.40772000  0.46342200  0.70286500  1
  Ni  Ni5  1  0.09228000  0.46342200  0.70286500  1
  Ni  Ni6  1  0.40772000  0.03657800  0.70286500  1
  Ni  Ni7  1  0.09228000  0.03657800  0.70286500  1
  Ni  Ni8  1  0.75000000  0.75000000  0.81880900  1
  Ni  Ni9  1  0.25000000  0.25000000  0.18119100  1
  N  N0  1  0.75000000  0.02584700  0.01729100  1
  N  N1  1  0.75000000  0.47415300  0.01729100  1
  N  N2  1  0.25000000  0.97415300  0.98270900  1
  N  N3  1  0.25000000  0.52584700  0.98270900  1
  N  N4  1  0.43980800  0.75000000  0.47523400  1
  N  N5  1  0.06019200  0.75000000  0.47523400  1
  N  N6  1  0.56019200  0.25000000  0.52476600  1
  N  N7  1  0.93980800  0.25000000  0.52476600  1
loop_
_geom_bond_atom_site_label_1
_geom_bond_atom_site_label_2
_geom_bond_distance
_geom_bond_site_symmetry_2
Mn0 N1 1.754828 1_556
Mn0 N0 1.754828 1_556
Mn0 N7 1.848155 1_555
Mn0 N6 1.848155 1_555
Mn1 N2 1.754828 1_554
Mn1 N3 1.754828 1_554
Mn1 N4 1.848155 1_555
Mn1 N5 1.848155 1_555
N0 Ni8 1.808259 1_544
N0 Ni2 1.822293 1_545
N0 Ni3 1.822293 1_545
N1 Ni8 1.808259 1_554
N1 Ni1 1.822293 1_555
N1 Ni0 1.822293 1_555
N2 Ni9 1.808259 1_566
N2 Ni6 1.822293 1_565
N2 Ni7 1.822293 1_565
N3 Ni9 1.808259 1_556
N3 Ni5 1.822293 1_555
N3 Ni4 1.822293 1_555
N4 Ni6 1.941224 1_565
N4 Ni4 1.941224 1_555
N4 Ni0 1.945741 1_555
N4 Ni2 1.945741 1_555
N5 Ni7 1.941224 1_565
N5 Ni5 1.941224 1_555
N5 Ni1 1.945741 1_455
N5 Ni3 1.945741 1_455
N6 Ni0 1.941224 1_555
N6 Ni2 1.941224 1_545
N6 Ni4 1.945741 1_555
N6 Ni6 1.945741 1_555
N7 Ni1 1.941224 1_555
N7 Ni3 1.941224 1_545
N7 Ni7 1.945741 1_655
N7 Ni5 1.945741 1_655
