# generated using pymatgen
data_Ba2V3O7
_symmetry_space_group_name_H-M   'P 1'
_cell_length_a   3.89435800
_cell_length_b   3.90073100
_cell_length_c   12.50106050
_cell_angle_alpha   88.57272643
_cell_angle_beta   90.00000000
_cell_angle_gamma   90.00000000
_symmetry_Int_Tables_number   1
_chemical_formula_structural   Ba2V3O7
_chemical_formula_sum   'Ba2 V3 O7'
_cell_volume   189.84272940
_cell_formula_units_Z   1
loop_
 _symmetry_equiv_pos_site_id
 _symmetry_equiv_pos_as_xyz
  1  'x, y, z'
loop_
 _atom_site_type_symbol
 _atom_site_label
 _atom_site_symmetry_multiplicity
 _atom_site_fract_x
 _atom_site_fract_y
 _atom_site_fract_z
 _atom_site_occupancy
  Ba  Ba0  1  0.50000000  0.49228300  0.80916000  1
  Ba  Ba1  1  0.50000000  0.51355800  0.20087200  1
  V  V0  1  0.00000000  0.00379200  0.66246100  1
  V  V1  1  0.00000000  0.00047000  0.37318400  1
  V  V2  1  0.00000000  0.98553900  0.98711900  1
  O  O0  1  0.50000000  0.96018300  0.97822100  1
  O  O1  1  0.00000000  0.50290800  0.65801300  1
  O  O2  1  0.00000000  0.50197600  0.35102300  1
  O  O3  1  0.50000000  0.00226800  0.65567400  1
  O  O4  1  0.50000000  0.00061200  0.35656400  1
  O  O5  1  0.00000000  0.99155700  0.82656700  1
  O  O6  1  0.00000000  0.02580900  0.13048000  1
loop_
_geom_bond_atom_site_label_1
_geom_bond_atom_site_label_2
_geom_bond_distance
_geom_bond_site_symmetry_2
Ba0 O1 2.712844 1_655
Ba0 O1 2.712844 1_555
Ba0 O3 2.729245 1_565
Ba0 O3 2.741855 1_555
Ba0 O5 2.762728 1_645
Ba0 O5 2.762728 1_545
Ba0 O5 2.766380 1_655
Ba0 O5 2.766380 1_555
Ba0 O0 2.826654 1_555
Ba0 O0 2.925088 1_545
Ba1 O2 2.704187 1_555
Ba1 O2 2.704187 1_655
Ba1 O4 2.753515 1_565
Ba1 O4 2.756375 1_555
Ba1 O6 2.875598 1_655
Ba1 O6 2.875598 1_555
Ba1 O6 2.910479 1_565
Ba1 O6 2.910479 1_665
Ba1 O0 3.246651 1_554
O0 V2 1.953000 1_555
O0 V2 1.953000 1_655
O1 V0 1.946326 1_555
O1 V0 1.955989 1_565
O2 V1 1.968915 1_555
O2 V1 1.970946 1_565
O3 V0 1.949042 1_655
O3 V0 1.949042 1_555
O4 V1 1.958231 1_655
O4 V1 1.958231 1_555
O5 V2 2.006623 1_555
O5 V0 2.050865 1_565
O6 V2 1.802929 1_544
