# generated using pymatgen
data_Mn3N4
_symmetry_space_group_name_H-M   'P 1'
_cell_length_a   9.85038700
_cell_length_b   5.72773400
_cell_length_c   4.68115600
_cell_angle_alpha   90.00000000
_cell_angle_beta   90.00000000
_cell_angle_gamma   90.00000000
_symmetry_Int_Tables_number   1
_chemical_formula_structural   Mn3N4
_chemical_formula_sum   'Mn12 N16'
_cell_volume   264.11267775
_cell_formula_units_Z   4
loop_
 _symmetry_equiv_pos_site_id
 _symmetry_equiv_pos_as_xyz
  1  'x, y, z'
loop_
 _atom_site_type_symbol
 _atom_site_label
 _atom_site_symmetry_multiplicity
 _atom_site_fract_x
 _atom_site_fract_y
 _atom_site_fract_z
 _atom_site_occupancy
  Mn  Mn0  1  0.50000000  0.00000000  0.50000000  1
  Mn  Mn1  1  0.00000000  0.50000000  0.00000000  1
  Mn  Mn2  1  0.50000000  0.50000000  0.50000000  1
  Mn  Mn3  1  0.00000000  0.00000000  0.00000000  1
  Mn  Mn4  1  0.75752500  0.25000000  0.50541700  1
  Mn  Mn5  1  0.25752500  0.25000000  0.99458300  1
  Mn  Mn6  1  0.24247500  0.75000000  0.49458300  1
  Mn  Mn7  1  0.74247500  0.75000000  0.00541700  1
  Mn  Mn8  1  0.58735000  0.25000000  0.09594600  1
  Mn  Mn9  1  0.08735000  0.25000000  0.40405400  1
  Mn  Mn10  1  0.41265000  0.75000000  0.90405400  1
  Mn  Mn11  1  0.91265000  0.75000000  0.59594600  1
  N  N0  1  0.58637700  0.25000000  0.71736300  1
  N  N1  1  0.08637700  0.25000000  0.78263700  1
  N  N2  1  0.41362300  0.75000000  0.28263700  1
  N  N3  1  0.91362300  0.75000000  0.21736300  1
  N  N4  1  0.92155300  0.25000000  0.25006000  1
  N  N5  1  0.42155300  0.25000000  0.24994000  1
  N  N6  1  0.07844700  0.75000000  0.74994000  1
  N  N7  1  0.57844700  0.75000000  0.75006000  1
  N  N8  1  0.66780100  0.00402200  0.26031100  1
  N  N9  1  0.16780100  0.49597800  0.23968900  1
  N  N10  1  0.33219900  0.50402200  0.73968900  1
  N  N11  1  0.83219900  0.99597800  0.76031100  1
  N  N12  1  0.33219900  0.99597800  0.73968900  1
  N  N13  1  0.83219900  0.50402200  0.76031100  1
  N  N14  1  0.66780100  0.49597800  0.26031100  1
  N  N15  1  0.16780100  0.00402200  0.23968900  1
loop_
_geom_bond_atom_site_label_1
_geom_bond_atom_site_label_2
_geom_bond_distance
_geom_bond_site_symmetry_2
Mn0 N2 1.951845 1_545
Mn0 N0 1.951845 1_555
Mn0 N12 1.997888 1_545
Mn0 N8 1.997888 1_555
Mn0 N7 2.004441 1_545
Mn0 N5 2.004441 1_555
Mn1 N3 1.951845 1_455
Mn1 N1 1.951845 1_554
Mn1 N13 1.997888 1_454
Mn1 N9 1.997888 1_555
Mn1 N6 2.004441 1_554
Mn1 N4 2.004441 1_455
Mn2 N2 1.951845 1_555
Mn2 N0 1.951845 1_555
Mn2 N14 1.997888 1_555
Mn2 N10 1.997888 1_555
Mn2 N7 2.004441 1_555
Mn2 N5 2.004441 1_555
Mn3 N3 1.951845 1_445
Mn3 N1 1.951845 1_554
Mn3 N11 1.997888 1_444
Mn3 N15 1.997888 1_555
Mn3 N6 2.004441 1_544
Mn3 N4 2.004441 1_455
Mn4 N0 1.956154 1_555
Mn4 N4 2.009854 1_555
Mn4 N13 2.020327 1_555
Mn4 N11 2.020327 1_545
Mn4 N14 2.020544 1_555
Mn4 N8 2.020544 1_555
Mn5 N1 1.956154 1_555
Mn5 N5 2.009854 1_556
Mn5 N12 2.020327 1_545
Mn5 N10 2.020327 1_555
Mn5 N15 2.020544 1_556
Mn5 N9 2.020544 1_556
Mn6 N2 1.956154 1_555
Mn6 N6 2.009854 1_555
Mn6 N15 2.020327 1_565
Mn6 N9 2.020327 1_555
Mn6 N12 2.020544 1_555
Mn6 N10 2.020544 1_555
Mn7 N3 1.956154 1_555
Mn7 N7 2.009854 1_554
Mn7 N8 2.020327 1_565
Mn7 N14 2.020327 1_555
Mn7 N11 2.020544 1_554
Mn7 N13 2.020544 1_554
Mn8 N0 1.772232 1_554
Mn8 N5 1.785183 1_555
Mn8 N14 1.790254 1_555
Mn8 N8 1.790254 1_555
Mn9 N1 1.772232 1_555
Mn9 N4 1.785183 1_455
Mn9 N9 1.790254 1_555
Mn9 N15 1.790254 1_555
Mn10 N2 1.772232 1_556
Mn10 N7 1.785183 1_555
Mn10 N10 1.790254 1_555
Mn10 N12 1.790254 1_555
Mn11 N3 1.772232 1_555
Mn11 N6 1.785183 1_655
Mn11 N11 1.790254 1_555
Mn11 N13 1.790254 1_555
