# generated using pymatgen
data_Yb3Ni
_symmetry_space_group_name_H-M   'P 1'
_cell_length_a   6.36694300
_cell_length_b   7.22421800
_cell_length_c   9.61211500
_cell_angle_alpha   90.00000000
_cell_angle_beta   90.00000000
_cell_angle_gamma   90.00000000
_symmetry_Int_Tables_number   1
_chemical_formula_structural   Yb3Ni
_chemical_formula_sum   'Yb12 Ni4'
_cell_volume   442.12061234
_cell_formula_units_Z   4
loop_
 _symmetry_equiv_pos_site_id
 _symmetry_equiv_pos_as_xyz
  1  'x, y, z'
loop_
 _atom_site_type_symbol
 _atom_site_label
 _atom_site_symmetry_multiplicity
 _atom_site_fract_x
 _atom_site_fract_y
 _atom_site_fract_z
 _atom_site_occupancy
  Yb  Yb0  1  0.33072800  0.67207800  0.07005600  1
  Yb  Yb1  1  0.16927200  0.17207800  0.42994400  1
  Yb  Yb2  1  0.66927200  0.32792200  0.57005600  1
  Yb  Yb3  1  0.83072800  0.82792200  0.92994400  1
  Yb  Yb4  1  0.66927200  0.32792200  0.92994400  1
  Yb  Yb5  1  0.83072800  0.82792200  0.57005600  1
  Yb  Yb6  1  0.33072800  0.67207800  0.42994400  1
  Yb  Yb7  1  0.16927200  0.17207800  0.07005600  1
  Yb  Yb8  1  0.85568800  0.54628600  0.25000000  1
  Yb  Yb9  1  0.64431200  0.04628600  0.25000000  1
  Yb  Yb10  1  0.14431200  0.45371400  0.75000000  1
  Yb  Yb11  1  0.35568800  0.95371400  0.75000000  1
  Ni  Ni0  1  0.05235200  0.88696900  0.25000000  1
  Ni  Ni1  1  0.44764800  0.38696900  0.25000000  1
  Ni  Ni2  1  0.94764800  0.11303100  0.75000000  1
  Ni  Ni3  1  0.55235200  0.61303100  0.75000000  1
loop_
_geom_bond_atom_site_label_1
_geom_bond_atom_site_label_2
_geom_bond_distance
_geom_bond_site_symmetry_2
Ni0 Yb8 2.761381 1_455
Ni0 Yb7 2.790726 1_565
Ni0 Yb1 2.790726 1_565
Ni0 Yb9 2.841496 1_465
Ni0 Yb0 2.922856 1_555
Ni0 Yb6 2.922856 1_555
Ni0 Yb3 3.411364 1_454
Ni0 Yb5 3.411364 1_455
Ni1 Yb9 2.761381 1_555
Ni1 Yb0 2.790726 1_555
Ni1 Yb6 2.790726 1_555
Ni1 Yb8 2.841496 1_555
Ni1 Yb7 2.922856 1_555
Ni1 Yb1 2.922856 1_555
Ni1 Yb2 3.411364 1_555
Ni1 Yb4 3.411364 1_554
Ni2 Yb10 2.761381 1_655
Ni2 Yb3 2.790726 1_545
Ni2 Yb5 2.790726 1_545
Ni2 Yb11 2.841496 1_645
Ni2 Yb2 2.922856 1_555
Ni2 Yb4 2.922856 1_555
Ni2 Yb7 3.411364 1_656
Ni2 Yb1 3.411364 1_655
Ni3 Yb11 2.761381 1_555
Ni3 Yb2 2.790726 1_555
Ni3 Yb4 2.790726 1_555
Ni3 Yb10 2.841496 1_555
Ni3 Yb5 2.922856 1_555
Ni3 Yb3 2.922856 1_555
Ni3 Yb0 3.411364 1_556
Ni3 Yb6 3.411364 1_555
