# generated using pymatgen
data_Sr2HoCu3(PbO4)2
_symmetry_space_group_name_H-M   'P 1'
_cell_length_a   5.45458000
_cell_length_b   5.42179100
_cell_length_c   15.93012698
_cell_angle_alpha   89.50688727
_cell_angle_beta   90.00000000
_cell_angle_gamma   90.00000000
_symmetry_Int_Tables_number   1
_chemical_formula_structural   Sr2HoCu3(PbO4)2
_chemical_formula_sum   'Sr4 Ho2 Cu6 Pb4 O16'
_cell_volume   471.09363998
_cell_formula_units_Z   2
loop_
 _symmetry_equiv_pos_site_id
 _symmetry_equiv_pos_as_xyz
  1  'x, y, z'
loop_
 _atom_site_type_symbol
 _atom_site_label
 _atom_site_symmetry_multiplicity
 _atom_site_fract_x
 _atom_site_fract_y
 _atom_site_fract_z
 _atom_site_occupancy
  Sr  Sr0  1  0.00070700  0.99423300  0.22041400  1
  Sr  Sr1  1  0.99929300  0.00576700  0.77958600  1
  Sr  Sr2  1  0.50070700  0.50576700  0.77958600  1
  Sr  Sr3  1  0.49929300  0.49423300  0.22041400  1
  Ho  Ho0  1  0.00000000  0.00000000  0.00000000  1
  Ho  Ho1  1  0.50000000  0.50000000  0.00000000  1
  Cu  Cu0  1  0.50000000  0.50000000  0.50000000  1
  Cu  Cu1  1  0.50086900  0.99776800  0.10304100  1
  Cu  Cu2  1  0.00086900  0.50223200  0.89695900  1
  Cu  Cu3  1  0.99913100  0.49776800  0.10304100  1
  Cu  Cu4  1  0.00000000  0.00000000  0.50000000  1
  Cu  Cu5  1  0.49913100  0.00223200  0.89695900  1
  Pb  Pb0  1  0.49512100  0.00406500  0.38831400  1
  Pb  Pb1  1  0.50487900  0.99593500  0.61168600  1
  Pb  Pb2  1  0.99512100  0.49593500  0.61168600  1
  Pb  Pb3  1  0.00487900  0.50406500  0.38831400  1
  O  O0  1  0.74952800  0.75201400  0.90841800  1
  O  O1  1  0.25047200  0.24798600  0.09158200  1
  O  O2  1  0.24956600  0.25197300  0.91036500  1
  O  O3  1  0.75043400  0.74802700  0.08963500  1
  O  O4  1  0.25043400  0.75197300  0.91036500  1
  O  O5  1  0.74956600  0.24802700  0.08963500  1
  O  O6  1  0.75047200  0.25201400  0.90841800  1
  O  O7  1  0.24952800  0.74798600  0.09158200  1
  O  O8  1  0.55833800  0.54693000  0.61460900  1
  O  O9  1  0.44166200  0.45307000  0.38539100  1
  O  O10  1  0.99108700  0.49299600  0.25066200  1
  O  O11  1  0.05833800  0.95307000  0.38539100  1
  O  O12  1  0.49108700  0.00700400  0.74933800  1
  O  O13  1  0.50891300  0.99299600  0.25066200  1
  O  O14  1  0.00891300  0.50700400  0.74933800  1
  O  O15  1  0.94166200  0.04693000  0.61460900  1
loop_
_geom_bond_atom_site_label_1
_geom_bond_atom_site_label_2
_geom_bond_distance
_geom_bond_site_symmetry_2
Ho0 O3 2.392643 1_445
Ho0 O2 2.392643 1_554
Ho0 O4 2.397141 1_544
Ho0 O5 2.397141 1_455
Ho0 O7 2.411138 1_545
Ho0 O6 2.411138 1_454
Ho0 O1 2.415885 1_555
Ho0 O0 2.415885 1_444
Ho1 O4 2.392643 1_554
Ho1 O5 2.392643 1_555
Ho1 O2 2.397141 1_554
Ho1 O3 2.397141 1_555
Ho1 O1 2.411138 1_555
Ho1 O0 2.411138 1_554
Ho1 O6 2.415885 1_554
Ho1 O7 2.415885 1_555
Cu0 O8 1.872781 1_555
Cu0 O9 1.872781 1_555
Cu1 O5 1.929213 1_565
Cu1 O1 1.932600 1_565
Cu1 O3 1.933153 1_555
Cu1 O7 1.936787 1_555
Cu1 O13 2.351950 1_555
Cu2 O2 1.929213 1_555
Cu2 O6 1.932600 1_455
Cu2 O4 1.933153 1_555
Cu2 O0 1.936787 1_455
Cu2 O14 2.351950 1_555
Cu3 O3 1.929213 1_555
Cu3 O7 1.932600 1_655
Cu3 O5 1.933153 1_555
Cu3 O1 1.936787 1_655
Cu3 O10 2.351950 1_555
Cu4 O15 1.872781 1_455
Cu4 O11 1.872781 1_545
Cu5 O4 1.929213 1_545
Cu5 O0 1.932600 1_545
Cu5 O2 1.933153 1_555
Cu5 O6 1.936787 1_555
Cu5 O12 2.351950 1_555
O0 Sr2 2.807786 1_555
O0 Sr1 2.812867 1_565
O1 Sr3 2.807786 1_555
O1 Sr0 2.812867 1_545
O2 Sr1 2.834361 1_455
O2 Sr2 2.839167 1_555
O3 Sr0 2.834361 1_655
O3 Sr3 2.839167 1_555
O4 Sr2 2.834361 1_555
O4 Sr1 2.839167 1_465
O5 Sr3 2.834361 1_555
O5 Sr0 2.839167 1_645
O6 Sr1 2.807786 1_555
O6 Sr2 2.812867 1_555
O7 Sr0 2.807786 1_555
O7 Sr3 2.812867 1_555
O8 Pb2 2.398955 1_555
O8 Pb1 2.451857 1_555
O8 Sr2 2.654329 1_555
O9 Pb3 2.398955 1_555
O9 Pb0 2.451857 1_555
O9 Sr3 2.654329 1_555
O10 Pb3 2.195440 1_655
O10 Sr3 2.725461 1_555
O10 Sr0 2.751364 1_645
O10 Sr0 2.756403 1_655
O10 Sr3 2.813616 1_655
O11 Pb0 2.398955 1_565
O11 Pb3 2.451857 1_555
O11 Sr0 2.654329 1_555
O12 Pb1 2.195440 1_545
O12 Sr1 2.725461 1_455
O12 Sr2 2.751364 1_555
O12 Sr2 2.756403 1_545
O12 Sr1 2.813616 1_555
O13 Pb0 2.195440 1_565
O13 Sr0 2.725461 1_655
O13 Sr3 2.751364 1_555
O13 Sr3 2.756403 1_565
O13 Sr0 2.813616 1_555
O14 Pb2 2.195440 1_455
O14 Sr2 2.725461 1_555
O14 Sr1 2.751364 1_465
O14 Sr1 2.756403 1_455
O14 Sr2 2.813616 1_455
O15 Pb1 2.398955 1_545
O15 Pb2 2.451857 1_555
O15 Sr1 2.654329 1_555
