# generated using pymatgen
data_MnZnF4
_symmetry_space_group_name_H-M   'P 1'
_cell_length_a   6.33082896
_cell_length_b   6.33082896
_cell_length_c   5.20248065
_cell_angle_alpha   67.09065928
_cell_angle_beta   67.09065928
_cell_angle_gamma   49.37651199
_symmetry_Int_Tables_number   1
_chemical_formula_structural   MnZnF4
_chemical_formula_sum   'Mn2 Zn2 F8'
_cell_volume   143.00092113
_cell_formula_units_Z   2
loop_
 _symmetry_equiv_pos_site_id
 _symmetry_equiv_pos_as_xyz
  1  'x, y, z'
loop_
 _atom_site_type_symbol
 _atom_site_label
 _atom_site_symmetry_multiplicity
 _atom_site_fract_x
 _atom_site_fract_y
 _atom_site_fract_z
 _atom_site_occupancy
  Mn  Mn0  1  0.99660400  0.50181400  0.25077800  1
  Mn  Mn1  1  0.49818600  0.00339600  0.74922200  1
  Zn  Zn0  1  0.73731400  0.26268600  0.00000000  1
  Zn  Zn1  1  0.25755000  0.74245000  0.50000000  1
  F  F0  1  0.67829900  0.56666200  0.65365100  1
  F  F1  1  0.92038000  0.82687400  0.41631800  1
  F  F2  1  0.31736200  0.43294800  0.85307900  1
  F  F3  1  0.43333800  0.32170100  0.34634900  1
  F  F4  1  0.07311900  0.17475600  0.08506000  1
  F  F5  1  0.17312600  0.07962000  0.58368200  1
  F  F6  1  0.56705200  0.68263800  0.14692100  1
  F  F7  1  0.82524400  0.92688100  0.91494000  1
loop_
_geom_bond_atom_site_label_1
_geom_bond_atom_site_label_2
_geom_bond_distance
_geom_bond_site_symmetry_2
F0 Zn0 1.994477 1_556
F0 Mn0 2.219602 1_555
F0 Mn1 2.390723 1_565
F0 Zn1 2.465310 1_555
F1 Zn1 2.021955 1_655
F1 Mn0 2.229942 1_555
F1 Mn1 2.325036 1_565
F2 Zn1 2.032247 1_555
F2 Mn0 2.207466 1_456
F2 Mn1 2.367759 1_555
F2 Zn0 2.454277 1_556
F3 Zn0 1.994477 1_555
F3 Mn1 2.219602 1_555
F3 Mn0 2.390723 1_455
F3 Zn1 2.465310 1_555
F4 Zn0 2.006208 1_455
F4 Mn0 2.241364 1_455
F4 Mn1 2.341977 1_554
F5 Zn1 2.021955 1_545
F5 Mn1 2.229942 1_555
F5 Mn0 2.325036 1_455
F6 Zn1 2.032247 1_555
F6 Mn1 2.207466 1_564
F6 Mn0 2.367759 1_555
F6 Zn0 2.454277 1_555
F7 Zn0 2.006208 1_566
F7 Mn1 2.241364 1_565
F7 Mn0 2.341977 1_556
