# generated using pymatgen
data_CaZn2(SiO4)2
_symmetry_space_group_name_H-M   'P 1'
_cell_length_a   5.33276584
_cell_length_b   5.33276584
_cell_length_c   12.74836300
_cell_angle_alpha   90.00000000
_cell_angle_beta   90.00000000
_cell_angle_gamma   107.67325752
_symmetry_Int_Tables_number   1
_chemical_formula_structural   CaZn2(SiO4)2
_chemical_formula_sum   'Ca2 Zn4 Si4 O16'
_cell_volume   345.43210188
_cell_formula_units_Z   2
loop_
 _symmetry_equiv_pos_site_id
 _symmetry_equiv_pos_as_xyz
  1  'x, y, z'
loop_
 _atom_site_type_symbol
 _atom_site_label
 _atom_site_symmetry_multiplicity
 _atom_site_fract_x
 _atom_site_fract_y
 _atom_site_fract_z
 _atom_site_occupancy
  Ca  Ca0  1  0.86219100  0.65280800  0.25000000  1
  Ca  Ca1  1  0.34719200  0.13780900  0.75000000  1
  Zn  Zn0  1  0.99971400  0.00028600  0.50000000  1
  Zn  Zn1  1  0.99971400  0.00028600  0.00000000  1
  Zn  Zn2  1  0.49209600  0.50790400  0.50000000  1
  Zn  Zn3  1  0.49209600  0.50790400  0.00000000  1
  Si  Si0  1  0.49358800  0.02550000  0.36723200  1
  Si  Si1  1  0.97450000  0.50641200  0.63276800  1
  Si  Si2  1  0.49358800  0.02550000  0.13276800  1
  Si  Si3  1  0.97450000  0.50641200  0.86723200  1
  O  O0  1  0.62968000  0.87743400  0.45454400  1
  O  O1  1  0.12256600  0.37032000  0.54545600  1
  O  O2  1  0.62968000  0.87743400  0.04545600  1
  O  O3  1  0.12256600  0.37032000  0.95454400  1
  O  O4  1  0.60947500  0.34469400  0.37634200  1
  O  O5  1  0.65530600  0.39052500  0.62365800  1
  O  O6  1  0.60947500  0.34469400  0.12365800  1
  O  O7  1  0.65530600  0.39052500  0.87634200  1
  O  O8  1  0.17328400  0.90896600  0.37523600  1
  O  O9  1  0.09103400  0.82671600  0.62476400  1
  O  O10  1  0.17328400  0.90896600  0.12476400  1
  O  O11  1  0.09103400  0.82671600  0.87523600  1
  O  O12  1  0.58439200  0.93531000  0.25000000  1
  O  O13  1  0.06469000  0.41560800  0.75000000  1
  O  O14  1  0.12147100  0.34222200  0.25000000  1
  O  O15  1  0.65777800  0.87852900  0.75000000  1
loop_
_geom_bond_atom_site_label_1
_geom_bond_atom_site_label_2
_geom_bond_distance
_geom_bond_site_symmetry_2
Ca0 O4 2.401187 1_555
Ca0 O6 2.401187 1_555
Ca0 O8 2.406504 1_655
Ca0 O10 2.406504 1_655
Ca0 O12 2.412333 1_555
Ca0 O14 2.458775 1_655
Ca1 O7 2.401187 1_555
Ca1 O5 2.401187 1_555
Ca1 O11 2.406504 1_545
Ca1 O9 2.406504 1_545
Ca1 O13 2.412333 1_555
Ca1 O15 2.458775 1_545
O0 Si0 1.654412 1_565
O0 Zn0 1.968247 1_565
O0 Zn2 1.969664 1_555
O1 Si1 1.654412 1_455
O1 Zn0 1.968247 1_455
O1 Zn2 1.969664 1_555
O2 Si2 1.654412 1_565
O2 Zn1 1.968247 1_565
O2 Zn3 1.969664 1_555
O3 Si3 1.654412 1_455
O3 Zn1 1.968247 1_456
O3 Zn3 1.969664 1_556
O4 Si0 1.629150 1_555
O4 Zn2 1.991305 1_555
O5 Si1 1.629150 1_555
O5 Zn2 1.991305 1_555
O6 Si2 1.629150 1_555
O6 Zn3 1.991305 1_555
O7 Si3 1.629150 1_555
O7 Zn3 1.991305 1_556
O8 Si0 1.633927 1_565
O8 Zn0 1.974185 1_465
O9 Si1 1.633927 1_455
O9 Zn0 1.974185 1_465
O10 Si2 1.633927 1_565
O10 Zn1 1.974185 1_465
O11 Si3 1.633927 1_455
O11 Zn1 1.974185 1_466
O12 Si2 1.685467 1_565
O12 Si0 1.685467 1_565
O13 Si3 1.685467 1_455
O13 Si1 1.685467 1_455
