# generated using pymatgen
data_Na2FePCO7
_symmetry_space_group_name_H-M   'P 1'
_cell_length_a   5.24834700
_cell_length_b   8.95433284
_cell_length_c   19.59544215
_cell_angle_alpha   89.94522411
_cell_angle_beta   89.99155860
_cell_angle_gamma   89.64297776
_symmetry_Int_Tables_number   1
_chemical_formula_structural   Na2FePCO7
_chemical_formula_sum   'Na12 Fe6 P6 C6 O42'
_cell_volume   920.87823306
_cell_formula_units_Z   6
loop_
 _symmetry_equiv_pos_site_id
 _symmetry_equiv_pos_as_xyz
  1  'x, y, z'
loop_
 _atom_site_type_symbol
 _atom_site_label
 _atom_site_symmetry_multiplicity
 _atom_site_fract_x
 _atom_site_fract_y
 _atom_site_fract_z
 _atom_site_occupancy
  Na  Na0  1  0.23542800  0.91561500  0.92007800  1
  Na  Na1  1  0.23606600  0.91895300  0.58639500  1
  Na  Na2  1  0.21963200  0.90400200  0.24881800  1
  Na  Na3  1  0.74926400  0.73589800  0.50485700  1
  Na  Na4  1  0.74852300  0.73505400  0.83832700  1
  Na  Na5  1  0.25442300  0.26312700  0.16414300  1
  Na  Na6  1  0.25030600  0.26558900  0.34112100  1
  Na  Na7  1  0.25390900  0.26108300  0.99906500  1
  Na  Na8  1  0.25124600  0.26406900  0.67146800  1
  Na  Na9  1  0.76306700  0.07873700  0.41968500  1
  Na  Na10  1  0.76388500  0.08086700  0.75303700  1
  Na  Na11  1  0.75405800  0.06518600  0.08290600  1
  Fe  Fe0  1  0.21712800  0.65447800  0.74624800  1
  Fe  Fe1  1  0.21726200  0.65452000  0.41253800  1
  Fe  Fe2  1  0.21200900  0.66018500  0.08256800  1
  Fe  Fe3  1  0.78253300  0.34606800  0.91267700  1
  Fe  Fe4  1  0.78306700  0.34563000  0.57979200  1
  Fe  Fe5  1  0.78205600  0.35224500  0.24912000  1
  P  P0  1  0.29253200  0.57765100  0.24876500  1
  P  P1  1  0.28898300  0.57546400  0.58239300  1
  P  P2  1  0.28870800  0.57579900  0.91656800  1
  P  P3  1  0.71114000  0.42455700  0.74911000  1
  P  P4  1  0.71283200  0.42587800  0.08213900  1
  P  P5  1  0.71181700  0.42406900  0.41654200  1
  C  C0  1  0.27076800  0.93393900  0.41798200  1
  C  C1  1  0.27046500  0.93416800  0.75117500  1
  C  C2  1  0.26991100  0.93907000  0.08308500  1
  C  C3  1  0.72952600  0.06573600  0.58458700  1
  C  C4  1  0.73102500  0.06514000  0.91738100  1
  C  C5  1  0.72851100  0.06989700  0.25040500  1
  O  O0  1  0.70466500  0.92503000  0.91260200  1
  O  O1  1  0.70298800  0.92562900  0.57938300  1
  O  O2  1  0.69821700  0.93180700  0.25059900  1
  O  O3  1  0.04528700  0.87043700  0.41982400  1
  O  O4  1  0.04508800  0.87051900  0.75305300  1
  O  O5  1  0.04670500  0.87583300  0.08291800  1
  O  O6  1  0.46471100  0.84073400  0.41998100  1
  O  O7  1  0.46471700  0.84121800  0.75338900  1
  O  O8  1  0.46527800  0.85066800  0.08295400  1
  O  O9  1  0.23716000  0.67715900  0.64495500  1
  O  O10  1  0.24077600  0.67472500  0.97981100  1
  O  O11  1  0.22430700  0.67535700  0.85358200  1
  O  O12  1  0.23446700  0.67278800  0.18538100  1
  O  O13  1  0.22413700  0.67406700  0.51929700  1
  O  O14  1  0.23076900  0.67528600  0.31172200  1
  O  O15  1  0.87257600  0.56793700  0.75222800  1
  O  O16  1  0.87263100  0.56741300  0.41930800  1
  O  O17  1  0.87447300  0.56682100  0.08259700  1
  O  O18  1  0.57609500  0.53058700  0.57897800  1
  O  O19  1  0.57535300  0.52954700  0.91226400  1
  O  O20  1  0.57480700  0.52685900  0.24996500  1
  O  O21  1  0.42415000  0.46973700  0.74575200  1
  O  O22  1  0.42480000  0.46856700  0.41240300  1
  O  O23  1  0.42035300  0.46272800  0.08317300  1
  O  O24  1  0.12645500  0.43235200  0.91833100  1
  O  O25  1  0.13380800  0.43012000  0.25004500  1
  O  O26  1  0.12805000  0.43191400  0.58549100  1
  O  O27  1  0.76279500  0.32241700  0.81154300  1
  O  O28  1  0.77578100  0.32598100  0.68606600  1
  O  O29  1  0.76966900  0.32375200  0.01927700  1
  O  O30  1  0.76262300  0.32203100  0.47895500  1
  O  O31  1  0.78038500  0.32421400  0.35394000  1
  O  O32  1  0.77443700  0.32251900  0.14500300  1
  O  O33  1  0.53628300  0.15759500  0.91915000  1
  O  O34  1  0.53525800  0.15849900  0.58692200  1
  O  O35  1  0.53543000  0.16758200  0.25051200  1
  O  O36  1  0.95609100  0.12889100  0.91963800  1
  O  O37  1  0.95493400  0.12920900  0.58659800  1
  O  O38  1  0.95620600  0.13450200  0.24991000  1
  O  O39  1  0.29768500  0.07390900  0.41354900  1
  O  O40  1  0.29699500  0.07418200  0.74617200  1
  O  O41  1  0.29168600  0.08316100  0.08308900  1
loop_
_geom_bond_atom_site_label_1
_geom_bond_atom_site_label_2
_geom_bond_distance
_geom_bond_site_symmetry_2
Na0 O36 2.400334 1_465
Na0 O10 2.453153 1_555
Na0 O0 2.469010 1_555
Na0 O11 2.517244 1_555
Na0 O33 2.689050 1_565
Na0 O0 2.790244 1_455
Na1 O37 2.384746 1_465
Na1 O9 2.449404 1_555
Na1 O1 2.455494 1_555
Na1 O13 2.558952 1_555
Na1 O34 2.666228 1_565
Na1 O1 2.801434 1_455
Na2 O14 2.389728 1_555
Na2 O12 2.416734 1_555
Na2 O38 2.477177 1_465
Na2 O2 2.525882 1_555
Na2 O2 2.746544 1_455
Na2 O35 2.892666 1_565
Na3 O1 2.253325 1_555
Na3 O16 2.344753 1_555
Na3 O6 2.420335 1_555
Na3 O18 2.516089 1_555
Na3 O13 2.565319 1_655
Na3 O3 2.580743 1_655
Na3 O13 2.828585 1_555
Na4 O0 2.250522 1_555
Na4 O15 2.345635 1_555
Na4 O7 2.423349 1_555
Na4 O19 2.515300 1_555
Na4 O11 2.567837 1_655
Na4 O4 2.589411 1_655
Na4 O11 2.821764 1_555
Na5 O41 2.271263 1_555
Na5 O25 2.337272 1_555
Na5 O35 2.398675 1_555
Na5 O23 2.546334 1_555
Na5 O38 2.572695 1_455
Na5 O32 2.598601 1_455
Na5 O32 2.808827 1_555
Na6 O39 2.238787 1_555
Na6 O25 2.390288 1_555
Na6 O22 2.473693 1_555
Na6 O35 2.479471 1_555
Na6 O31 2.530866 1_455
Na6 O38 2.642390 1_455
Na6 O31 2.845534 1_555
Na7 O41 2.297732 1_556
Na7 O24 2.298925 1_555
Na7 O33 2.343557 1_555
Na7 O36 2.508776 1_455
Na7 O23 2.601037 1_556
Na7 O29 2.629285 1_456
Na7 O29 2.796190 1_556
Na8 O40 2.254295 1_555
Na8 O26 2.344923 1_555
Na8 O34 2.417621 1_555
Na8 O21 2.521952 1_555
Na8 O28 2.568865 1_455
Na8 O37 2.582737 1_455
Na8 O28 2.826200 1_555
Na9 O3 2.374534 1_645
Na9 O39 2.446115 1_555
Na9 O30 2.469756 1_555
Na9 O31 2.548841 1_555
Na9 O6 2.652432 1_545
Na9 O39 2.808484 1_655
Na10 O4 2.385616 1_645
Na10 O27 2.448915 1_555
Na10 O40 2.455216 1_555
Na10 O28 2.557257 1_555
Na10 O7 2.666873 1_545
Na10 O40 2.801428 1_655
Na11 O5 2.280657 1_645
Na11 O41 2.431022 1_555
Na11 O8 2.454200 1_545
Na11 O32 2.609617 1_555
Na11 O29 2.630339 1_555
Na11 O41 2.827249 1_655
Fe0 O21 1.973510 1_555
Fe0 O15 1.975223 1_455
Fe0 O9 1.997871 1_555
Fe0 O11 2.112091 1_555
Fe0 O7 2.128782 1_555
Fe0 O4 2.134021 1_555
Fe1 O16 1.978596 1_455
Fe1 O22 1.984023 1_555
Fe1 O14 1.985386 1_555
Fe1 O13 2.099800 1_555
Fe1 O6 2.125016 1_555
Fe1 O3 2.133493 1_555
Fe2 O17 1.963570 1_455
Fe2 O12 2.021430 1_555
Fe2 O10 2.023329 1_554
Fe2 O23 2.073121 1_555
Fe2 O5 2.112007 1_555
Fe2 O8 2.168978 1_555
Fe3 O19 1.964520 1_555
Fe3 O24 1.971019 1_655
Fe3 O27 1.996024 1_555
Fe3 O29 2.099336 1_556
Fe3 O33 2.135717 1_555
Fe3 O36 2.146520 1_555
Fe4 O18 1.975004 1_555
Fe4 O26 1.976184 1_655
Fe4 O30 1.990395 1_555
Fe4 O28 2.090102 1_555
Fe4 O34 2.132007 1_555
Fe4 O37 2.136506 1_555
Fe5 O20 1.899195 1_555
Fe5 O25 1.977576 1_655
Fe5 O32 2.058188 1_555
Fe5 O31 2.069059 1_555
Fe5 O35 2.106398 1_555
Fe5 O38 2.148225 1_555
C0 O39 1.265051 1_565
C0 O6 1.312827 1_555
C0 O3 1.316588 1_555
C1 O40 1.266009 1_565
C1 O7 1.312771 1_555
C1 O4 1.316692 1_555
C2 O8 1.291451 1_555
C2 O41 1.295999 1_565
C2 O5 1.304316 1_555
C3 O1 1.267342 1_545
C3 O34 1.311907 1_555
C3 O37 1.316266 1_555
C4 O0 1.266610 1_545
C4 O33 1.311758 1_555
C4 O36 1.315896 1_555
C5 O2 1.247668 1_545
C5 O38 1.330951 1_555
C5 O35 1.334526 1_555
O9 P1 1.550820 1_555
O10 P2 1.543692 1_555
O11 P2 1.557749 1_555
O12 P0 1.534957 1_555
O13 P1 1.555103 1_555
O14 P0 1.545883 1_555
O15 P3 1.543908 1_555
O16 P5 1.541569 1_555
O17 P4 1.525095 1_555
O18 P1 1.558547 1_555
O19 P2 1.560179 1_555
O20 P0 1.547182 1_555
O21 P3 1.558553 1_555
O22 P5 1.557873 1_555
O23 P4 1.568216 1_555
O24 P2 1.545883 1_555
O25 P0 1.566326 1_555
O26 P1 1.543598 1_555
O27 P3 1.549698 1_555
O28 P3 1.555187 1_555
O29 P4 1.562446 1_555
O30 P5 1.548094 1_555
O31 P5 1.559412 1_555
O32 P4 1.572503 1_555
