# generated using pymatgen
data_PrVO3
_symmetry_space_group_name_H-M   'P 1'
_cell_length_a   3.93590500
_cell_length_b   3.93590500
_cell_length_c   3.93590500
_cell_angle_alpha   90.00000000
_cell_angle_beta   90.00000000
_cell_angle_gamma   90.00000000
_symmetry_Int_Tables_number   1
_chemical_formula_structural   PrVO3
_chemical_formula_sum   'Pr1 V1 O3'
_cell_volume   60.97247472
_cell_formula_units_Z   1
loop_
 _symmetry_equiv_pos_site_id
 _symmetry_equiv_pos_as_xyz
  1  'x, y, z'
loop_
 _atom_site_type_symbol
 _atom_site_label
 _atom_site_symmetry_multiplicity
 _atom_site_fract_x
 _atom_site_fract_y
 _atom_site_fract_z
 _atom_site_occupancy
  Pr  Pr0  1  0.00000000  0.00000000  0.00000000  1
  V  V0  1  0.50000000  0.50000000  0.50000000  1
  O  O0  1  0.00000000  0.50000000  0.50000000  1
  O  O1  1  0.50000000  0.50000000  0.00000000  1
  O  O2  1  0.50000000  0.00000000  0.50000000  1
loop_
_geom_bond_atom_site_label_1
_geom_bond_atom_site_label_2
_geom_bond_distance
_geom_bond_site_symmetry_2
O0 V0 1.967952 1_555
O0 V0 1.967952 1_455
O0 Pr0 2.783105 1_555
O0 Pr0 2.783105 1_556
O0 Pr0 2.783105 1_565
O0 Pr0 2.783105 1_566
O1 V0 1.967952 1_554
O1 V0 1.967952 1_555
O1 Pr0 2.783105 1_555
O1 Pr0 2.783105 1_565
O1 Pr0 2.783105 1_655
O1 Pr0 2.783105 1_665
O2 V0 1.967952 1_545
O2 V0 1.967952 1_555
O2 Pr0 2.783105 1_555
O2 Pr0 2.783105 1_556
O2 Pr0 2.783105 1_656
O2 Pr0 2.783105 1_655
