# generated using pymatgen
data_Li6V3P8O29
_symmetry_space_group_name_H-M   'P 1'
_cell_length_a   9.75061700
_cell_length_b   9.80416230
_cell_length_c   13.99402197
_cell_angle_alpha   89.26191708
_cell_angle_beta   89.47463203
_cell_angle_gamma   60.50973899
_symmetry_Int_Tables_number   1
_chemical_formula_structural   Li6V3P8O29
_chemical_formula_sum   'Li12 V6 P16 O58'
_cell_volume   1164.35482311
_cell_formula_units_Z   2
loop_
 _symmetry_equiv_pos_site_id
 _symmetry_equiv_pos_as_xyz
  1  'x, y, z'
loop_
 _atom_site_type_symbol
 _atom_site_label
 _atom_site_symmetry_multiplicity
 _atom_site_fract_x
 _atom_site_fract_y
 _atom_site_fract_z
 _atom_site_occupancy
  Li  Li0  1  0.23124600  0.10028200  0.55383600  1
  Li  Li1  1  0.10159200  0.66104400  0.56060400  1
  Li  Li2  1  0.23800600  0.66316100  0.06468500  1
  Li  Li3  1  0.66292100  0.10131800  0.06437900  1
  Li  Li4  1  0.66826000  0.22991000  0.55464000  1
  Li  Li5  1  0.32144500  0.91154600  0.94053100  1
  Li  Li6  1  0.76354600  0.32464000  0.94001300  1
  Li  Li7  1  0.66378700  0.67906500  0.60846900  1
  Li  Li8  1  0.67483000  0.66889900  0.11168700  1
  Li  Li9  1  0.90974400  0.32287100  0.43079700  1
  Li  Li10  1  0.00353500  0.00130700  0.01306200  1
  Li  Li11  1  0.02388400  0.95301800  0.48828800  1
  V  V0  1  0.43708600  0.56323200  0.25458500  1
  V  V1  1  0.56251900  0.43490100  0.74778300  1
  V  V2  1  0.43348300  0.00411800  0.75178100  1
  V  V3  1  0.56409100  0.99710000  0.25433000  1
  V  V4  1  0.00628800  0.43749900  0.24404700  1
  V  V5  1  0.99825900  0.56568000  0.75511400  1
  P  P0  1  0.07915300  0.22241000  0.84045500  1
  P  P1  1  0.22030000  0.08645000  0.34062400  1
  P  P2  1  0.08513600  0.68706800  0.34661000  1
  P  P3  1  0.34078100  0.33110600  0.12956800  1
  P  P4  1  0.32972400  0.33485600  0.62968900  1
  P  P5  1  0.23003800  0.68459700  0.84483000  1
  P  P6  1  0.30983200  0.78099700  0.65971500  1
  P  P7  1  0.68888600  0.08415100  0.84696200  1
  P  P8  1  0.31181100  0.90864500  0.15647300  1
  P  P9  1  0.68645900  0.22363400  0.34123900  1
  P  P10  1  0.77577100  0.31929300  0.15777100  1
  P  P11  1  0.67038200  0.66091500  0.36894800  1
  P  P12  1  0.66350700  0.66534400  0.86962600  1
  P  P13  1  0.90974300  0.32133600  0.65360200  1
  P  P14  1  0.78245900  0.91278700  0.66203900  1
  P  P15  1  0.91346500  0.78669600  0.16144400  1
  O  O0  1  0.99651900  0.24477900  0.56283900  1
  O  O1  1  0.07925400  0.25426600  0.33296700  1
  O  O2  1  0.22480600  0.98972500  0.06653400  1
  O  O3  1  0.25009200  0.08216100  0.83900300  1
  O  O4  1  0.07599200  0.38060700  0.83549300  1
  O  O5  1  0.18988700  0.33538000  0.17330000  1
  O  O6  1  0.07780900  0.53491900  0.33255500  1
  O  O7  1  0.01285300  0.79546900  0.08153400  1
  O  O8  1  0.09033500  0.65715900  0.83752000  1
  O  O9  1  0.32293100  0.18942100  0.67222800  1
  O  O10  1  0.37776700  0.08695400  0.33189200  1
  O  O11  1  0.18412600  0.48494700  0.67285600  1
  O  O12  1  0.34896200  0.32903300  0.02328500  1
  O  O13  1  0.32674300  0.33669100  0.52320400  1
  O  O14  1  0.33993900  0.48075000  0.16951800  1
  O  O15  1  0.53109200  0.08393200  0.82896600  1
  O  O16  1  0.48602000  0.18116700  0.17333800  1
  O  O17  1  0.25335800  0.65618600  0.33500900  1
  O  O18  1  0.21679400  0.80096700  0.75890600  1
  O  O19  1  0.20529000  0.78849100  0.58001800  1
  O  O20  1  0.23427500  0.76273400  0.93606300  1
  O  O21  1  0.38565700  0.52898400  0.82714200  1
  O  O22  1  0.48464400  0.32845600  0.66803200  1
  O  O23  1  0.33646700  0.74090200  0.16020100  1
  O  O24  1  0.52819900  0.37585100  0.33021400  1
  O  O25  1  0.66391800  0.08102100  0.33824100  1
  O  O26  1  0.20610800  0.99614300  0.24867200  1
  O  O27  1  0.20479800  0.01118600  0.43164300  1
  O  O28  1  0.79066300  0.01063100  0.58178500  1
  O  O29  1  0.34008400  0.92297800  0.65730900  1
  O  O30  1  0.47377000  0.63081300  0.66754200  1
  O  O31  1  0.66401400  0.25194000  0.83470400  1
  O  O32  1  0.52040900  0.66324500  0.32740600  1
  O  O33  1  0.62403400  0.48015600  0.16773700  1
  O  O34  1  0.77290200  0.22938000  0.07074200  1
  O  O35  1  0.77455000  0.22477000  0.42989600  1
  O  O36  1  0.79562500  0.21132900  0.24982900  1
  O  O37  1  0.74138400  0.34139900  0.65510000  1
  O  O38  1  0.50916400  0.81216700  0.83254400  1
  O  O39  1  0.47558000  0.89804500  0.16736300  1
  O  O40  1  0.67182100  0.51182300  0.82973600  1
  O  O41  1  0.66413900  0.65999900  0.97682600  1
  O  O42  1  0.67187000  0.65953100  0.47588900  1
  O  O43  1  0.81530400  0.51188700  0.32821300  1
  O  O44  1  0.62821300  0.90222300  0.67011500  1
  O  O45  1  0.66823800  0.80929000  0.32378000  1
  O  O46  1  0.91511500  0.34950500  0.15575700  1
  O  O47  1  0.00428800  0.20622300  0.74016000  1
  O  O48  1  0.98726800  0.20196800  0.92030200  1
  O  O49  1  0.89184000  0.48521900  0.67007000  1
  O  O50  1  0.80714500  0.67231400  0.82443500  1
  O  O51  1  0.90186700  0.63323600  0.16669500  1
  O  O52  1  0.74340600  0.92444900  0.15753000  1
  O  O53  1  0.76271400  0.01604200  0.94128400  1
  O  O54  1  0.80301000  0.98292500  0.76198800  1
  O  O55  1  0.92184200  0.74330500  0.65960500  1
  O  O56  1  0.01403300  0.76763900  0.43935800  1
  O  O57  1  0.98349900  0.80461000  0.26101300  1
loop_
_geom_bond_atom_site_label_1
_geom_bond_atom_site_label_2
_geom_bond_distance
_geom_bond_site_symmetry_2
Li0 O27 2.005463 1_555
Li0 O0 2.016965 1_455
Li0 O29 2.095650 1_545
Li0 O9 2.267503 1_555
Li1 O56 1.949965 1_555
Li1 O19 1.978666 1_555
Li1 O55 2.057733 1_455
Li1 O11 2.163642 1_555
Li2 O7 1.937148 1_555
Li2 O23 2.014818 1_555
Li2 O20 2.028569 1_554
Li2 O14 2.132484 1_555
Li3 O53 1.954111 1_554
Li3 O52 1.985643 1_545
Li3 O34 2.016077 1_555
Li3 O16 2.136843 1_555
Li4 O28 1.910931 1_555
Li4 O35 2.010394 1_555
Li4 O37 2.122455 1_555
Li4 O22 2.222879 1_555
Li5 O2 1.969226 1_556
Li5 O20 2.019703 1_555
Li5 O3 2.027763 1_565
Li5 O38 2.194221 1_555
Li6 O48 1.922404 1_555
Li6 O34 2.025469 1_556
Li6 O31 2.087107 1_555
Li6 O40 2.210353 1_555
Li7 O42 1.864602 1_555
Li7 O44 2.224251 1_555
Li7 O49 2.265357 1_555
Li7 O30 2.272614 1_555
Li8 O41 1.896573 1_554
Li8 O51 2.208564 1_555
Li8 O33 2.267734 1_555
Li8 O39 2.269092 1_555
Li9 O35 1.977834 1_555
Li9 O1 1.986502 1_655
Li9 O0 2.017640 1_555
Li9 O43 2.149080 1_555
Li10 O7 2.184092 1_545
Li10 O2 2.239190 1_545
Li10 O48 2.282820 1_454
Li10 O34 2.402308 1_455
Li10 O53 2.499834 1_454
Li10 O20 2.556016 1_544
Li11 O56 1.996617 1_555
Li11 O19 2.134864 1_555
Li11 O27 2.240209 1_565
Li11 O28 2.429421 1_465
O0 P13 1.507357 1_555
O1 P1 1.542807 1_555
O1 V4 1.995516 1_555
O2 P8 1.505173 1_555
O3 P0 1.553340 1_555
O3 V2 1.977323 1_555
O4 P0 1.536730 1_555
O4 V5 1.934190 1_455
O5 P3 1.569867 1_555
O5 V4 1.848180 1_555
O6 P2 1.543269 1_555
O6 V4 1.906510 1_555
O7 P15 1.502254 1_455
O8 P5 1.517377 1_555
O8 V5 1.943883 1_455
O9 P4 1.569157 1_555
O9 V2 1.934860 1_555
O10 P1 1.541565 1_555
O10 V3 1.915086 1_545
O11 P4 1.579910 1_555
O11 V5 1.951658 1_455
O12 P3 1.488598 1_555
O13 P4 1.490408 1_555
O14 P3 1.572987 1_555
O14 V0 1.941130 1_555
O15 P7 1.562387 1_555
O15 V2 1.859757 1_555
O16 P3 1.576311 1_555
O16 V3 1.931671 1_545
O17 P2 1.521819 1_555
O17 V0 1.920564 1_555
O18 P5 1.608297 1_555
O18 P6 1.611556 1_555
O19 P6 1.494431 1_555
O20 P5 1.508608 1_555
O21 P5 1.554009 1_555
O21 V1 1.866346 1_555
O22 P4 1.579346 1_555
O22 V1 1.933125 1_555
O23 P8 1.540751 1_555
O23 V0 2.005802 1_555
O24 P9 1.537304 1_555
O24 V0 1.909091 1_555
O25 P9 1.519630 1_555
O25 V3 1.958988 1_545
O26 P8 1.611371 1_555
O26 P1 1.616199 1_565
O27 P1 1.507243 1_555
O28 P14 1.494678 1_545
O29 P6 1.558427 1_555
O29 V2 1.993102 1_565
O30 P6 1.554664 1_555
O30 V1 2.006196 1_555
O31 P7 1.547603 1_555
O31 V1 1.973497 1_555
O32 P11 1.568197 1_555
O32 V0 1.866892 1_555
O33 P10 1.549294 1_555
O33 V0 1.996597 1_555
O34 P10 1.521076 1_555
O35 P9 1.518710 1_555
O36 P10 1.607857 1_555
O36 P9 1.623727 1_555
O37 P13 1.554205 1_555
O37 V1 1.994829 1_555
O38 P12 1.571127 1_555
O38 V2 1.989154 1_565
O39 P8 1.557118 1_555
O39 V3 2.010971 1_555
O40 P12 1.576175 1_555
O40 V1 1.963645 1_555
O41 P12 1.500363 1_555
O42 P11 1.496560 1_555
O43 P11 1.559001 1_555
O43 V4 2.007921 1_655
O44 P14 1.560590 1_555
O44 V2 2.007826 1_565
O45 P11 1.569302 1_555
O45 V3 1.870101 1_555
O46 P10 1.526395 1_555
O46 V4 1.965657 1_655
O47 P13 1.597407 1_455
O47 P0 1.632954 1_555
O48 P0 1.498020 1_655
O49 P13 1.548495 1_555
O49 V5 1.992010 1_555
O50 P12 1.563024 1_555
O50 V5 1.892479 1_555
O51 P15 1.564086 1_555
O51 V4 1.983451 1_655
O52 P15 1.539952 1_555
O52 V3 2.038295 1_555
O53 P7 1.492584 1_555
O54 P7 1.598771 1_565
O54 P14 1.623244 1_555
O55 P14 1.544820 1_555
O55 V5 2.013710 1_555
O56 P2 1.503316 1_555
O57 P15 1.606388 1_555
O57 P2 1.614554 1_655
