# generated using pymatgen
data_Sm2Zn17
_symmetry_space_group_name_H-M   'P 1'
_cell_length_a   9.04454000
_cell_length_b   9.04453965
_cell_length_c   8.73332200
_cell_angle_alpha   90.00000000
_cell_angle_beta   90.00000000
_cell_angle_gamma   120.00000128
_symmetry_Int_Tables_number   1
_chemical_formula_structural   Sm2Zn17
_chemical_formula_sum   'Sm4 Zn34'
_cell_volume   618.70417952
_cell_formula_units_Z   2
loop_
 _symmetry_equiv_pos_site_id
 _symmetry_equiv_pos_as_xyz
  1  'x, y, z'
loop_
 _atom_site_type_symbol
 _atom_site_label
 _atom_site_symmetry_multiplicity
 _atom_site_fract_x
 _atom_site_fract_y
 _atom_site_fract_z
 _atom_site_occupancy
  Sm  Sm0  1  0.00000000  0.00000000  0.25000000  1
  Sm  Sm1  1  0.00000000  0.00000000  0.75000000  1
  Sm  Sm2  1  0.33333300  0.66666700  0.75000000  1
  Sm  Sm3  1  0.66666700  0.33333300  0.25000000  1
  Zn  Zn0  1  0.33333300  0.66666700  0.40140300  1
  Zn  Zn1  1  0.66666700  0.33333300  0.59859700  1
  Zn  Zn2  1  0.66666700  0.33333300  0.90140300  1
  Zn  Zn3  1  0.33333300  0.66666700  0.09859700  1
  Zn  Zn4  1  0.50000000  0.50000000  0.50000000  1
  Zn  Zn5  1  0.50000000  0.00000000  0.50000000  1
  Zn  Zn6  1  0.00000000  0.50000000  0.50000000  1
  Zn  Zn7  1  0.50000000  0.50000000  0.00000000  1
  Zn  Zn8  1  0.50000000  0.00000000  0.00000000  1
  Zn  Zn9  1  0.00000000  0.50000000  0.00000000  1
  Zn  Zn10  1  0.32886400  0.36559700  0.25000000  1
  Zn  Zn11  1  0.63440300  0.96326700  0.25000000  1
  Zn  Zn12  1  0.03673300  0.67113600  0.25000000  1
  Zn  Zn13  1  0.63440300  0.67113600  0.25000000  1
  Zn  Zn14  1  0.03673300  0.36559700  0.25000000  1
  Zn  Zn15  1  0.32886400  0.96326700  0.25000000  1
  Zn  Zn16  1  0.67113600  0.63440300  0.75000000  1
  Zn  Zn17  1  0.36559700  0.03673300  0.75000000  1
  Zn  Zn18  1  0.96326700  0.32886400  0.75000000  1
  Zn  Zn19  1  0.36559700  0.32886400  0.75000000  1
  Zn  Zn20  1  0.96326700  0.63440300  0.75000000  1
  Zn  Zn21  1  0.67113600  0.03673300  0.75000000  1
  Zn  Zn22  1  0.16171800  0.83828200  0.51831200  1
  Zn  Zn23  1  0.16171800  0.32343600  0.51831200  1
  Zn  Zn24  1  0.67656400  0.83828200  0.51831200  1
  Zn  Zn25  1  0.83828200  0.16171800  0.48168800  1
  Zn  Zn26  1  0.83828200  0.67656400  0.48168800  1
  Zn  Zn27  1  0.32343600  0.16171800  0.48168800  1
  Zn  Zn28  1  0.83828200  0.16171800  0.01831200  1
  Zn  Zn29  1  0.83828200  0.67656400  0.01831200  1
  Zn  Zn30  1  0.32343600  0.16171800  0.01831200  1
  Zn  Zn31  1  0.16171800  0.83828200  0.98168800  1
  Zn  Zn32  1  0.16171800  0.32343600  0.98168800  1
  Zn  Zn33  1  0.67656400  0.83828200  0.98168800  1
loop_
_geom_bond_atom_site_label_1
_geom_bond_atom_site_label_2
_geom_bond_distance
_geom_bond_site_symmetry_2
Sm0 Zn10 3.153692 1_555
Sm0 Zn14 3.153692 1_555
Sm0 Zn13 3.153692 1_445
Sm0 Zn12 3.153692 1_545
Sm0 Zn11 3.153693 1_445
Sm0 Zn15 3.153693 1_545
Sm0 Zn29 3.242273 1_445
Sm0 Zn26 3.242273 1_445
Sm0 Zn25 3.242273 1_455
Sm0 Zn28 3.242273 1_455
Sm0 Zn27 3.242273 1_555
Sm0 Zn30 3.242273 1_555
Sm0 Zn23 3.450943 1_555
Sm0 Zn32 3.450943 1_554
Sm0 Zn24 3.450943 1_445
Sm0 Zn33 3.450943 1_444
Sm0 Zn22 3.450943 1_545
Sm0 Zn31 3.450943 1_544
Sm1 Zn20 3.153692 1_445
Sm1 Zn16 3.153692 1_445
Sm1 Zn19 3.153692 1_555
Sm1 Zn18 3.153692 1_455
Sm1 Zn17 3.153693 1_555
Sm1 Zn21 3.153693 1_455
Sm1 Zn23 3.242273 1_555
Sm1 Zn32 3.242273 1_555
Sm1 Zn22 3.242273 1_545
Sm1 Zn31 3.242273 1_545
Sm1 Zn33 3.242273 1_445
Sm1 Zn24 3.242273 1_445
Sm1 Zn26 3.450943 1_445
Sm1 Zn29 3.450943 1_446
Sm1 Zn27 3.450943 1_555
Sm1 Zn25 3.450943 1_455
Sm1 Zn30 3.450943 1_556
Sm1 Zn28 3.450943 1_456
Sm2 Zn0 3.044410 1_555
Sm2 Zn3 3.044410 1_556
Sm2 Zn17 3.211130 1_565
Sm2 Zn20 3.211130 1_455
Sm2 Zn21 3.211134 1_565
Sm2 Zn18 3.211134 1_455
Sm2 Zn19 3.211139 1_555
Sm2 Zn16 3.211139 1_555
Sm2 Zn22 3.364810 1_555
Sm2 Zn31 3.364810 1_555
Sm2 Zn23 3.364816 1_555
Sm2 Zn32 3.364816 1_555
Sm2 Zn24 3.364816 1_555
Sm2 Zn33 3.364816 1_555
Sm2 Zn8 3.403512 1_566
Sm2 Zn5 3.403512 1_565
Sm2 Zn6 3.403512 1_555
Sm2 Zn9 3.403512 1_556
Sm2 Zn7 3.403518 1_556
Sm2 Zn4 3.403518 1_555
Sm3 Zn2 3.044410 1_554
Sm3 Zn1 3.044410 1_555
Sm3 Zn11 3.211130 1_545
Sm3 Zn14 3.211130 1_655
Sm3 Zn15 3.211134 1_545
Sm3 Zn12 3.211134 1_655
Sm3 Zn13 3.211139 1_555
Sm3 Zn10 3.211139 1_555
Sm3 Zn28 3.364810 1_555
Sm3 Zn25 3.364810 1_555
Sm3 Zn29 3.364816 1_555
Sm3 Zn26 3.364816 1_555
Sm3 Zn30 3.364816 1_555
Sm3 Zn27 3.364816 1_555
Sm3 Zn5 3.403512 1_555
Sm3 Zn8 3.403512 1_555
Sm3 Zn9 3.403512 1_655
Sm3 Zn6 3.403512 1_655
Sm3 Zn7 3.403518 1_555
Sm3 Zn4 3.403518 1_555
Zn0 Zn3 2.644502 1_555
Zn0 Zn5 2.749258 1_565
Zn0 Zn6 2.749258 1_555
Zn0 Zn4 2.749265 1_555
Zn0 Zn22 2.875800 1_555
Zn0 Zn23 2.875807 1_555
Zn0 Zn24 2.875807 1_555
Zn0 Zn15 3.009121 1_555
Zn0 Zn12 3.009122 1_555
Zn0 Zn14 3.009126 1_555
Zn0 Zn11 3.009126 1_555
Zn0 Zn10 3.009130 1_555
Zn0 Zn13 3.009130 1_555
Zn1 Zn2 2.644502 1_555
Zn1 Zn5 2.749258 1_555
Zn1 Zn6 2.749258 1_655
Zn1 Zn4 2.749265 1_555
Zn1 Zn25 2.875800 1_555
Zn1 Zn26 2.875807 1_555
Zn1 Zn27 2.875807 1_555
Zn1 Zn21 3.009121 1_555
Zn1 Zn18 3.009122 1_555
Zn1 Zn20 3.009126 1_555
Zn1 Zn17 3.009126 1_555
Zn1 Zn16 3.009130 1_555
Zn1 Zn19 3.009130 1_555
Zn2 Zn8 2.749258 1_556
Zn2 Zn9 2.749258 1_656
Zn2 Zn7 2.749265 1_556
Zn2 Zn28 2.875800 1_556
Zn2 Zn29 2.875807 1_556
Zn2 Zn30 2.875807 1_556
Zn2 Zn21 3.009121 1_555
Zn2 Zn20 3.009126 1_555
Zn3 Zn8 2.749258 1_565
Zn3 Zn9 2.749258 1_555
Zn3 Zn7 2.749265 1_555
Zn3 Zn31 2.875800 1_554
Zn3 Zn32 2.875807 1_554
Zn3 Zn33 2.875807 1_554
Zn10 Zn4 2.599787 1_555
Zn10 Zn7 2.599787 1_555
Zn10 Zn14 2.642191 1_555
Zn10 Zn23 2.710202 1_555
Zn10 Zn32 2.710202 1_554
Zn10 Zn30 2.721463 1_555
Zn10 Zn27 2.721463 1_555
Zn10 Zn13 2.763460 1_555
Zn10 Zn3 3.009130 1_555
Zn11 Zn5 2.599787 1_565
Zn11 Zn8 2.599787 1_565
Zn11 Zn13 2.642190 1_555
Zn11 Zn24 2.710202 1_555
Zn11 Zn33 2.710202 1_554
Zn11 Zn28 2.721463 1_565
Zn11 Zn25 2.721463 1_565
Zn11 Zn15 2.763460 1_555
Zn11 Zn3 3.009126 1_555
Zn12 Zn9 2.599787 1_555
Zn12 Zn6 2.599787 1_555
Zn12 Zn15 2.642190 1_555
Zn12 Zn22 2.710202 1_555
Zn12 Zn31 2.710202 1_554
Zn12 Zn29 2.721463 1_455
Zn12 Zn26 2.721463 1_455
Zn12 Zn14 2.763460 1_555
Zn12 Zn3 3.009122 1_555
Zn13 Zn7 2.599787 1_555
Zn13 Zn4 2.599787 1_555
Zn13 Zn24 2.710202 1_555
Zn13 Zn33 2.710202 1_554
Zn13 Zn26 2.721463 1_555
Zn13 Zn29 2.721463 1_555
Zn13 Zn3 3.009130 1_555
Zn14 Zn9 2.599787 1_555
Zn14 Zn6 2.599787 1_555
Zn14 Zn32 2.710202 1_554
Zn14 Zn23 2.710202 1_555
Zn14 Zn25 2.721463 1_455
Zn14 Zn28 2.721463 1_455
Zn14 Zn3 3.009126 1_555
Zn15 Zn5 2.599787 1_565
Zn15 Zn8 2.599787 1_565
Zn15 Zn22 2.710202 1_555
Zn15 Zn31 2.710202 1_554
Zn15 Zn30 2.721463 1_565
Zn15 Zn27 2.721463 1_565
Zn15 Zn3 3.009121 1_555
Zn16 Zn4 2.599787 1_555
Zn16 Zn7 2.599787 1_556
Zn16 Zn20 2.642191 1_555
Zn16 Zn26 2.710202 1_555
Zn16 Zn29 2.710202 1_556
Zn16 Zn24 2.721463 1_555
Zn16 Zn33 2.721463 1_555
Zn16 Zn19 2.763460 1_555
Zn16 Zn2 3.009130 1_555
Zn17 Zn5 2.599787 1_555
Zn17 Zn8 2.599787 1_556
Zn17 Zn19 2.642190 1_555
Zn17 Zn27 2.710202 1_555
Zn17 Zn30 2.710202 1_556
Zn17 Zn22 2.721463 1_545
Zn17 Zn31 2.721463 1_545
Zn17 Zn21 2.763460 1_555
Zn17 Zn2 3.009126 1_555
Zn18 Zn6 2.599787 1_655
Zn18 Zn9 2.599787 1_656
Zn18 Zn21 2.642190 1_555
Zn18 Zn25 2.710202 1_555
Zn18 Zn28 2.710202 1_556
Zn18 Zn23 2.721463 1_655
Zn18 Zn32 2.721463 1_655
Zn18 Zn20 2.763460 1_555
Zn18 Zn2 3.009122 1_555
Zn19 Zn4 2.599787 1_555
Zn19 Zn7 2.599787 1_556
Zn19 Zn27 2.710202 1_555
Zn19 Zn30 2.710202 1_556
Zn19 Zn23 2.721463 1_555
Zn19 Zn32 2.721463 1_555
Zn19 Zn2 3.009130 1_555
Zn20 Zn6 2.599787 1_655
Zn20 Zn9 2.599787 1_656
Zn20 Zn26 2.710202 1_555
Zn20 Zn29 2.710202 1_556
Zn20 Zn31 2.721463 1_655
Zn20 Zn22 2.721463 1_655
Zn21 Zn5 2.599787 1_555
Zn21 Zn8 2.599787 1_556
Zn21 Zn25 2.710202 1_555
Zn21 Zn28 2.710202 1_556
Zn21 Zn24 2.721463 1_545
Zn21 Zn33 2.721463 1_545
Zn22 Zn27 2.553521 1_565
Zn22 Zn26 2.553521 1_455
Zn22 Zn6 2.655366 1_555
Zn22 Zn5 2.655366 1_565
Zn23 Zn27 2.553521 1_555
Zn23 Zn25 2.553521 1_455
Zn23 Zn4 2.655366 1_555
Zn23 Zn6 2.655366 1_555
Zn24 Zn25 2.553521 1_565
Zn24 Zn26 2.553521 1_555
Zn24 Zn4 2.655366 1_555
Zn24 Zn5 2.655366 1_565
Zn25 Zn6 2.655366 1_655
Zn25 Zn5 2.655366 1_555
Zn26 Zn4 2.655366 1_555
Zn26 Zn6 2.655366 1_655
Zn27 Zn4 2.655366 1_555
Zn27 Zn5 2.655366 1_555
Zn28 Zn33 2.553521 1_544
Zn28 Zn32 2.553521 1_654
Zn28 Zn9 2.655366 1_655
Zn28 Zn8 2.655366 1_555
Zn29 Zn33 2.553521 1_554
Zn29 Zn31 2.553521 1_654
Zn29 Zn7 2.655366 1_555
Zn29 Zn9 2.655366 1_655
Zn30 Zn31 2.553521 1_544
Zn30 Zn32 2.553521 1_554
Zn30 Zn7 2.655366 1_555
Zn30 Zn8 2.655366 1_555
Zn31 Zn9 2.655366 1_556
Zn31 Zn8 2.655366 1_566
Zn32 Zn7 2.655366 1_556
Zn32 Zn9 2.655366 1_556
Zn33 Zn7 2.655366 1_556
Zn33 Zn8 2.655366 1_566
