# generated using pymatgen
data_EuAlSi
_symmetry_space_group_name_H-M   'P 1'
_cell_length_a   4.21529875
_cell_length_b   4.21529875
_cell_length_c   4.48668017
_cell_angle_alpha   90.00000000
_cell_angle_beta   90.00000000
_cell_angle_gamma   119.99999766
_symmetry_Int_Tables_number   1
_chemical_formula_structural   EuAlSi
_chemical_formula_sum   'Eu1 Al1 Si1'
_cell_volume   69.04185857
_cell_formula_units_Z   1
loop_
 _symmetry_equiv_pos_site_id
 _symmetry_equiv_pos_as_xyz
  1  'x, y, z'
loop_
 _atom_site_type_symbol
 _atom_site_label
 _atom_site_symmetry_multiplicity
 _atom_site_fract_x
 _atom_site_fract_y
 _atom_site_fract_z
 _atom_site_occupancy
  Eu  Eu0  1  0.33333300  0.66666700  -0.00000000  1
  Al  Al0  1  0.00000000  0.00000000  0.50000000  1
  Si  Si0  1  0.66666700  0.33333300  0.50000000  1
loop_
_geom_bond_atom_site_label_1
_geom_bond_atom_site_label_2
_geom_bond_distance
_geom_bond_site_symmetry_2
Eu0 Si0 3.309906 1_454
Eu0 Si0 3.309906 1_455
Eu0 Si0 3.309906 1_565
Eu0 Si0 3.309906 1_564
Eu0 Si0 3.309911 1_555
Eu0 Si0 3.309911 1_554
Al0 Si0 2.433701 1_455
Al0 Si0 2.433705 1_555
Al0 Si0 2.433705 1_445
Al0 Eu0 3.309906 1_545
Al0 Eu0 3.309906 1_546
Al0 Eu0 3.309909 1_445
Al0 Eu0 3.309909 1_446
Al0 Eu0 3.309909 1_555
Al0 Eu0 3.309909 1_556
