# generated using pymatgen
data_Ce2Cd(SeO)2
_symmetry_space_group_name_H-M   'P 1'
_cell_length_a   3.99287000
_cell_length_b   3.99287000
_cell_length_c   18.86023300
_cell_angle_alpha   90.00000000
_cell_angle_beta   90.00000000
_cell_angle_gamma   90.00000000
_symmetry_Int_Tables_number   1
_chemical_formula_structural   Ce2Cd(SeO)2
_chemical_formula_sum   'Ce4 Cd2 Se4 O4'
_cell_volume   300.68889911
_cell_formula_units_Z   2
loop_
 _symmetry_equiv_pos_site_id
 _symmetry_equiv_pos_as_xyz
  1  'x, y, z'
loop_
 _atom_site_type_symbol
 _atom_site_label
 _atom_site_symmetry_multiplicity
 _atom_site_fract_x
 _atom_site_fract_y
 _atom_site_fract_z
 _atom_site_occupancy
  Ce  Ce0  1  0.50000000  0.00000000  0.68449600  1
  Ce  Ce1  1  0.00000000  0.50000000  0.81550400  1
  Ce  Ce2  1  0.00000000  0.50000000  0.31550400  1
  Ce  Ce3  1  0.50000000  0.00000000  0.18449600  1
  Cd  Cd0  1  0.50000000  0.50000000  0.50000000  1
  Cd  Cd1  1  0.00000000  0.00000000  0.00000000  1
  Se  Se0  1  0.00000000  0.50000000  0.09712800  1
  Se  Se1  1  0.50000000  0.00000000  0.40287200  1
  Se  Se2  1  0.50000000  0.00000000  0.90287200  1
  Se  Se3  1  0.00000000  0.50000000  0.59712800  1
  O  O0  1  0.50000000  0.50000000  0.74934600  1
  O  O1  1  0.00000000  0.00000000  0.75065400  1
  O  O2  1  0.50000000  0.50000000  0.25065400  1
  O  O3  1  0.00000000  0.00000000  0.24934600  1
loop_
_geom_bond_atom_site_label_1
_geom_bond_atom_site_label_2
_geom_bond_distance
_geom_bond_site_symmetry_2
Ce0 O0 2.341301 1_545
Ce0 O0 2.341301 1_555
Ce0 O1 2.354282 1_655
Ce0 O1 2.354282 1_555
Ce0 Se3 3.269050 1_555
Ce0 Se3 3.269050 1_655
Ce0 Se3 3.269050 1_545
Ce0 Se3 3.269050 1_645
Ce1 O1 2.341301 1_555
Ce1 O1 2.341301 1_565
Ce1 O0 2.354282 1_455
Ce1 O0 2.354282 1_555
Ce1 Se2 3.269050 1_555
Ce1 Se2 3.269050 1_465
Ce1 Se2 3.269050 1_565
Ce1 Se2 3.269050 1_455
Ce2 O2 2.341301 1_455
Ce2 O2 2.341301 1_555
Ce2 O3 2.354282 1_555
Ce2 O3 2.354282 1_565
Ce2 Se1 3.269050 1_455
Ce2 Se1 3.269050 1_565
Ce2 Se1 3.269050 1_465
Ce2 Se1 3.269050 1_555
Ce3 O3 2.341301 1_555
Ce3 O3 2.341301 1_655
Ce3 O2 2.354282 1_555
Ce3 O2 2.354282 1_545
Ce3 Se0 3.269050 1_555
Ce3 Se0 3.269050 1_655
Ce3 Se0 3.269050 1_545
Ce3 Se0 3.269050 1_645
Cd0 Se1 2.709511 1_555
Cd0 Se3 2.709511 1_555
Cd0 Se1 2.709511 1_565
Cd0 Se3 2.709511 1_655
Cd1 Se0 2.709511 1_555
Cd1 Se0 2.709511 1_545
Cd1 Se2 2.709511 1_454
Cd1 Se2 2.709511 1_554
