# generated using pymatgen
data_Li4VCr3O8
_symmetry_space_group_name_H-M   'P 1'
_cell_length_a   5.95589517
_cell_length_b   5.95589517
_cell_length_c   5.14389560
_cell_angle_alpha   73.25351333
_cell_angle_beta   73.25351333
_cell_angle_gamma   60.13744345
_symmetry_Int_Tables_number   1
_chemical_formula_structural   Li4VCr3O8
_chemical_formula_sum   'Li4 V1 Cr3 O8'
_cell_volume   149.21204717
_cell_formula_units_Z   1
loop_
 _symmetry_equiv_pos_site_id
 _symmetry_equiv_pos_as_xyz
  1  'x, y, z'
loop_
 _atom_site_type_symbol
 _atom_site_label
 _atom_site_symmetry_multiplicity
 _atom_site_fract_x
 _atom_site_fract_y
 _atom_site_fract_z
 _atom_site_occupancy
  Li  Li0  1  0.75079000  0.75079000  0.49789300  1
  Li  Li1  1  0.24921000  0.24921000  0.50210700  1
  Li  Li2  1  0.24796200  0.75203800  0.50000000  1
  Li  Li3  1  0.75203800  0.24796200  0.50000000  1
  V  V0  1  0.50000000  0.50000000  0.00000000  1
  Cr  Cr0  1  0.00000000  0.50000000  0.00000000  1
  Cr  Cr1  1  0.50000000  0.00000000  0.00000000  1
  Cr  Cr2  1  0.00000000  0.00000000  0.00000000  1
  O  O0  1  0.62999600  0.62999600  0.22569100  1
  O  O1  1  0.87198400  0.36889100  0.77465600  1
  O  O2  1  0.12964600  0.12964600  0.22428900  1
  O  O3  1  0.36889100  0.87198400  0.77465600  1
  O  O4  1  0.12801600  0.63110900  0.22534400  1
  O  O5  1  0.37000400  0.37000400  0.77430900  1
  O  O6  1  0.63110900  0.12801600  0.22534400  1
  O  O7  1  0.87035400  0.87035400  0.77571100  1
loop_
_geom_bond_atom_site_label_1
_geom_bond_atom_site_label_2
_geom_bond_distance
_geom_bond_site_symmetry_2
Li0 O0 2.161510 1_555
Li0 O4 2.165006 1_655
Li0 O6 2.165006 1_565
Li0 O7 2.175850 1_555
Li0 O3 2.193739 1_555
Li0 O1 2.193739 1_555
Li1 O5 2.161510 1_555
Li1 O1 2.165006 1_455
Li1 O3 2.165006 1_545
Li1 O2 2.175850 1_555
Li1 O6 2.193739 1_555
Li1 O4 2.193739 1_555
Li2 O3 2.169219 1_555
Li2 O4 2.169219 1_555
Li2 O2 2.173830 1_565
Li2 O7 2.173830 1_455
Li2 O5 2.188701 1_555
Li2 O0 2.188701 1_555
Li3 O1 2.169219 1_555
Li3 O6 2.169219 1_555
Li3 O2 2.173830 1_655
Li3 O7 2.173830 1_545
Li3 O5 2.188701 1_555
Li3 O0 2.188701 1_555
Cr0 O7 2.035560 1_454
Cr0 O2 2.035560 1_555
Cr0 O0 2.036685 1_455
Cr0 O5 2.036685 1_554
Cr0 O4 2.039247 1_555
Cr0 O1 2.039247 1_454
Cr1 O7 2.035560 1_544
Cr1 O2 2.035560 1_555
Cr1 O0 2.036685 1_545
Cr1 O5 2.036685 1_554
Cr1 O6 2.039247 1_555
Cr1 O3 2.039247 1_544
Cr2 O3 2.031154 1_544
Cr2 O1 2.031154 1_454
Cr2 O6 2.031154 1_455
Cr2 O4 2.031154 1_545
Cr2 O2 2.035688 1_555
Cr2 O7 2.035688 1_444
O0 V0 2.044403 1_555
O1 V0 2.044669 1_556
O3 V0 2.044669 1_556
O4 V0 2.044669 1_555
O5 V0 2.044403 1_556
O6 V0 2.044669 1_555
