# generated using pymatgen
data_Y3Bi
_symmetry_space_group_name_H-M   'P 1'
_cell_length_a   7.00585936
_cell_length_b   7.00585936
_cell_length_c   5.60461600
_cell_angle_alpha   90.00000000
_cell_angle_beta   90.00000000
_cell_angle_gamma   119.99999399
_symmetry_Int_Tables_number   1
_chemical_formula_structural   Y3Bi
_chemical_formula_sum   'Y6 Bi2'
_cell_volume   238.23159051
_cell_formula_units_Z   2
loop_
 _symmetry_equiv_pos_site_id
 _symmetry_equiv_pos_as_xyz
  1  'x, y, z'
loop_
 _atom_site_type_symbol
 _atom_site_label
 _atom_site_symmetry_multiplicity
 _atom_site_fract_x
 _atom_site_fract_y
 _atom_site_fract_z
 _atom_site_occupancy
  Y  Y0  1  0.16762600  0.33525100  0.25000000  1
  Y  Y1  1  0.66474900  0.83237400  0.25000000  1
  Y  Y2  1  0.16762600  0.83237400  0.25000000  1
  Y  Y3  1  0.83237400  0.66474900  0.75000000  1
  Y  Y4  1  0.33525100  0.16762600  0.75000000  1
  Y  Y5  1  0.83237400  0.16762600  0.75000000  1
  Bi  Bi0  1  0.33333300  0.66666700  0.75000000  1
  Bi  Bi1  1  0.66666700  0.33333300  0.25000000  1
loop_
_geom_bond_atom_site_label_1
_geom_bond_atom_site_label_2
_geom_bond_distance
_geom_bond_site_symmetry_2
Y0 Y4 3.462698 1_554
Y0 Y4 3.462698 1_555
Y0 Y5 3.462705 1_454
Y0 Y5 3.462705 1_455
Y0 Y2 3.482774 1_555
Y0 Y1 3.482774 1_555
Y0 Y2 3.523086 1_545
Y0 Y1 3.523086 1_445
Y1 Y3 3.462698 1_554
Y1 Y3 3.462698 1_555
Y1 Y5 3.462705 1_565
Y1 Y5 3.462705 1_564
Y1 Y2 3.482774 1_555
Y1 Y2 3.523086 1_655
Y2 Y3 3.462705 1_455
Y2 Y3 3.462705 1_454
Y2 Y4 3.462705 1_564
Y2 Y4 3.462705 1_565
Y3 Y5 3.482774 1_555
Y3 Y4 3.482774 1_555
Y3 Y5 3.523086 1_565
Y3 Y4 3.523086 1_665
Y4 Y5 3.482774 1_555
Y4 Y5 3.523086 1_455
Bi0 Y2 3.449077 1_556
Bi0 Y2 3.449077 1_555
Bi0 Y1 3.449085 1_556
Bi0 Y1 3.449085 1_555
Bi0 Y0 3.449085 1_555
Bi0 Y0 3.449085 1_556
Bi0 Y4 3.502949 1_555
Bi0 Y3 3.502949 1_555
Bi0 Y3 3.502949 1_455
Bi0 Y4 3.502949 1_565
Bi0 Y5 3.502949 1_565
Bi0 Y5 3.502949 1_455
Bi1 Y5 3.449077 1_554
Bi1 Y5 3.449077 1_555
Bi1 Y3 3.449085 1_554
Bi1 Y3 3.449085 1_555
Bi1 Y4 3.449085 1_554
Bi1 Y4 3.449085 1_555
Bi1 Y0 3.502949 1_555
Bi1 Y1 3.502949 1_555
Bi1 Y1 3.502949 1_545
Bi1 Y0 3.502949 1_655
Bi1 Y2 3.502949 1_655
Bi1 Y2 3.502949 1_545
