# generated using pymatgen
data_Na2CaV4O12
_symmetry_space_group_name_H-M   'P 1'
_cell_length_a   10.55097200
_cell_length_b   10.55097200
_cell_length_c   5.05984900
_cell_angle_alpha   90.00000000
_cell_angle_beta   90.00000000
_cell_angle_gamma   90.00000000
_symmetry_Int_Tables_number   1
_chemical_formula_structural   Na2CaV4O12
_chemical_formula_sum   'Na4 Ca2 V8 O24'
_cell_volume   563.27762156
_cell_formula_units_Z   2
loop_
 _symmetry_equiv_pos_site_id
 _symmetry_equiv_pos_as_xyz
  1  'x, y, z'
loop_
 _atom_site_type_symbol
 _atom_site_label
 _atom_site_symmetry_multiplicity
 _atom_site_fract_x
 _atom_site_fract_y
 _atom_site_fract_z
 _atom_site_occupancy
  Na  Na0  1  0.75000000  0.75000000  0.50000000  1
  Na  Na1  1  0.75000000  0.25000000  0.50000000  1
  Na  Na2  1  0.25000000  0.75000000  0.50000000  1
  Na  Na3  1  0.25000000  0.25000000  0.50000000  1
  Ca  Ca0  1  0.00000000  0.00000000  0.50000000  1
  Ca  Ca1  1  0.50000000  0.50000000  0.50000000  1
  V  V0  1  0.27669500  0.00000000  0.00000000  1
  V  V1  1  0.00000000  0.27669500  0.00000000  1
  V  V2  1  0.72330500  0.00000000  0.00000000  1
  V  V3  1  0.00000000  0.72330500  0.00000000  1
  V  V4  1  0.50000000  0.22330500  0.00000000  1
  V  V5  1  0.22330500  0.50000000  0.00000000  1
  V  V6  1  0.77669500  0.50000000  0.00000000  1
  V  V7  1  0.50000000  0.77669500  0.00000000  1
  O  O0  1  0.43468400  0.31059400  0.24253000  1
  O  O1  1  0.56531600  0.68940600  0.24253000  1
  O  O2  1  0.68940600  0.43468400  0.24253000  1
  O  O3  1  0.31059400  0.56531600  0.24253000  1
  O  O4  1  0.31059400  0.43468400  0.75747000  1
  O  O5  1  0.43468400  0.68940600  0.75747000  1
  O  O6  1  0.56531600  0.31059400  0.75747000  1
  O  O7  1  0.68940600  0.56531600  0.75747000  1
  O  O8  1  0.06531600  0.18940600  0.75747000  1
  O  O9  1  0.93468400  0.81059400  0.75747000  1
  O  O10  1  0.81059400  0.06531600  0.75747000  1
  O  O11  1  0.18940600  0.93468400  0.75747000  1
  O  O12  1  0.18940600  0.06531600  0.24253000  1
  O  O13  1  0.06531600  0.81059400  0.24253000  1
  O  O14  1  0.12168000  0.37832000  0.14603000  1
  O  O15  1  0.37832000  0.87832000  0.14603000  1
  O  O16  1  0.62168000  0.12168000  0.14603000  1
  O  O17  1  0.87832000  0.62168000  0.14603000  1
  O  O18  1  0.87832000  0.37832000  0.85397000  1
  O  O19  1  0.12168000  0.62168000  0.85397000  1
  O  O20  1  0.37832000  0.12168000  0.85397000  1
  O  O21  1  0.62168000  0.87832000  0.85397000  1
  O  O22  1  0.81059400  0.93468400  0.24253000  1
  O  O23  1  0.93468400  0.18940600  0.24253000  1
loop_
_geom_bond_atom_site_label_1
_geom_bond_atom_site_label_2
_geom_bond_distance
_geom_bond_site_symmetry_2
Na0 O7 2.429598 1_555
Na0 O1 2.429598 1_555
Na0 O9 2.429598 1_555
Na0 O22 2.429598 1_555
Na0 O17 2.621812 1_555
Na0 O21 2.621812 1_555
Na1 O23 2.429598 1_555
Na1 O6 2.429598 1_555
Na1 O10 2.429598 1_555
Na1 O2 2.429598 1_555
Na1 O16 2.621812 1_555
Na1 O18 2.621812 1_555
Na2 O11 2.429598 1_555
Na2 O3 2.429598 1_555
Na2 O13 2.429598 1_555
Na2 O5 2.429598 1_555
Na2 O15 2.621812 1_555
Na2 O19 2.621812 1_555
Na3 O0 2.429598 1_555
Na3 O8 2.429598 1_555
Na3 O12 2.429598 1_555
Na3 O4 2.429598 1_555
Na3 O20 2.621812 1_555
Na3 O14 2.621812 1_555
Ca0 O9 2.483098 1_445
Ca0 O8 2.483098 1_555
Ca0 O22 2.483098 1_445
Ca0 O12 2.483098 1_555
Ca0 O13 2.483098 1_545
Ca0 O11 2.483098 1_545
Ca0 O10 2.483098 1_455
Ca0 O23 2.483098 1_455
Ca1 O1 2.483098 1_555
Ca1 O7 2.483098 1_555
Ca1 O4 2.483098 1_555
Ca1 O2 2.483098 1_555
Ca1 O5 2.483098 1_555
Ca1 O0 2.483098 1_555
Ca1 O6 2.483098 1_555
Ca1 O3 2.483098 1_555
O0 V4 1.681984 1_555
O1 V7 1.681984 1_555
O2 V6 1.681984 1_555
O3 V5 1.681984 1_555
O4 V5 1.681984 1_556
O5 V7 1.681984 1_556
O6 V4 1.681984 1_556
O7 V6 1.681984 1_556
O8 V1 1.681984 1_556
O9 V3 1.681984 1_656
O10 V2 1.681984 1_556
O11 V0 1.681984 1_566
O12 V0 1.681984 1_555
O13 V3 1.681984 1_555
O14 V1 1.828637 1_555
O14 V5 1.828637 1_555
O15 V7 1.828637 1_555
O15 V0 1.828637 1_565
O16 V2 1.828637 1_555
O16 V4 1.828637 1_555
O17 V6 1.828637 1_555
O17 V3 1.828637 1_655
O18 V1 1.828637 1_656
O18 V6 1.828637 1_556
O19 V3 1.828637 1_556
O19 V5 1.828637 1_556
O20 V0 1.828637 1_556
O20 V4 1.828637 1_556
O21 V7 1.828637 1_556
O21 V2 1.828637 1_566
O22 V2 1.681984 1_565
O23 V1 1.681984 1_655
