# generated using pymatgen
data_V2Cd3(GeO4)3
_symmetry_space_group_name_H-M   'P 1'
_cell_length_a   10.83857989
_cell_length_b   10.83857989
_cell_length_c   10.83857989
_cell_angle_alpha   109.47122063
_cell_angle_beta   109.47122063
_cell_angle_gamma   109.47122063
_symmetry_Int_Tables_number   1
_chemical_formula_structural   V2Cd3(GeO4)3
_chemical_formula_sum   'V8 Cd12 Ge12 O48'
_cell_volume   980.15612717
_cell_formula_units_Z   4
loop_
 _symmetry_equiv_pos_site_id
 _symmetry_equiv_pos_as_xyz
  1  'x, y, z'
loop_
 _atom_site_type_symbol
 _atom_site_label
 _atom_site_symmetry_multiplicity
 _atom_site_fract_x
 _atom_site_fract_y
 _atom_site_fract_z
 _atom_site_occupancy
  V  V0  1  -0.00000000  -0.00000000  -0.00000000  1
  V  V1  1  0.50000000  -0.00000000  0.50000000  1
  V  V2  1  0.50000000  0.50000000  -0.00000000  1
  V  V3  1  -0.00000000  -0.00000000  0.50000000  1
  V  V4  1  -0.00000000  0.50000000  0.50000000  1
  V  V5  1  0.50000000  0.50000000  0.50000000  1
  V  V6  1  0.50000000  -0.00000000  -0.00000000  1
  V  V7  1  -0.00000000  0.50000000  -0.00000000  1
  Cd  Cd0  1  0.87500000  0.62500000  0.75000000  1
  Cd  Cd1  1  0.12500000  0.37500000  0.25000000  1
  Cd  Cd2  1  0.62500000  0.87500000  0.25000000  1
  Cd  Cd3  1  0.62500000  0.75000000  0.87500000  1
  Cd  Cd4  1  0.87500000  0.25000000  0.62500000  1
  Cd  Cd5  1  0.37500000  0.12500000  0.75000000  1
  Cd  Cd6  1  0.37500000  0.25000000  0.12500000  1
  Cd  Cd7  1  0.12500000  0.75000000  0.37500000  1
  Cd  Cd8  1  0.75000000  0.87500000  0.62500000  1
  Cd  Cd9  1  0.25000000  0.12500000  0.37500000  1
  Cd  Cd10  1  0.25000000  0.62500000  0.87500000  1
  Cd  Cd11  1  0.75000000  0.37500000  0.12500000  1
  Ge  Ge0  1  0.62500000  0.37500000  0.75000000  1
  Ge  Ge1  1  0.37500000  0.62500000  0.25000000  1
  Ge  Ge2  1  0.87500000  0.12500000  0.25000000  1
  Ge  Ge3  1  0.37500000  0.75000000  0.62500000  1
  Ge  Ge4  1  0.62500000  0.25000000  0.37500000  1
  Ge  Ge5  1  0.12500000  0.87500000  0.75000000  1
  Ge  Ge6  1  0.12500000  0.25000000  0.87500000  1
  Ge  Ge7  1  0.87500000  0.75000000  0.12500000  1
  Ge  Ge8  1  0.75000000  0.62500000  0.37500000  1
  Ge  Ge9  1  0.25000000  0.37500000  0.62500000  1
  Ge  Ge10  1  0.25000000  0.87500000  0.12500000  1
  Ge  Ge11  1  0.75000000  0.12500000  0.87500000  1
  O  O0  1  0.70094123  0.61973700  0.51577510  1
  O  O1  1  0.29905877  0.38026300  0.48422490  1
  O  O2  1  0.79905877  0.81483387  0.41879577  1
  O  O3  1  0.39603810  0.88026300  0.08120423  1
  O  O4  1  0.61973700  0.51577510  0.70094123  1
  O  O5  1  0.70094123  0.08120423  0.68516613  1
  O  O6  1  0.20094123  0.18516613  0.58120423  1
  O  O7  1  0.60396190  0.11973700  0.91879577  1
  O  O8  1  0.38026300  0.48422490  0.29905877  1
  O  O9  1  0.29905877  0.91879577  0.31483387  1
  O  O10  1  0.10396190  0.68516613  0.98422490  1
  O  O11  1  0.81483387  0.41879577  0.79905877  1
  O  O12  1  0.79905877  0.98422490  0.88026300  1
  O  O13  1  0.89603810  0.31483387  0.01577510  1
  O  O14  1  0.18516613  0.58120423  0.20094123  1
  O  O15  1  0.20094123  0.01577510  0.11973700  1
  O  O16  1  0.88026300  0.08120423  0.39603810  1
  O  O17  1  0.39603810  0.51577510  0.81483387  1
  O  O18  1  0.11973700  0.91879577  0.60396190  1
  O  O19  1  0.60396190  0.48422490  0.18516613  1
  O  O20  1  0.68516613  0.98422490  0.10396190  1
  O  O21  1  0.10396190  0.41879577  0.61973700  1
  O  O22  1  0.31483387  0.01577510  0.89603810  1
  O  O23  1  0.89603810  0.58120423  0.38026300  1
  O  O24  1  0.51577510  0.70094123  0.61973700  1
  O  O25  1  0.61973700  0.10396190  0.41879577  1
  O  O26  1  0.48422490  0.29905877  0.38026300  1
  O  O27  1  0.38026300  0.89603810  0.58120423  1
  O  O28  1  0.08120423  0.39603810  0.88026300  1
  O  O29  1  0.88026300  0.79905877  0.98422490  1
  O  O30  1  0.91879577  0.60396190  0.11973700  1
  O  O31  1  0.11973700  0.20094123  0.01577510  1
  O  O32  1  0.98422490  0.10396190  0.68516613  1
  O  O33  1  0.68516613  0.70094123  0.08120423  1
  O  O34  1  0.01577510  0.89603810  0.31483387  1
  O  O35  1  0.31483387  0.29905877  0.91879577  1
  O  O36  1  0.41879577  0.79905877  0.81483387  1
  O  O37  1  0.81483387  0.39603810  0.51577510  1
  O  O38  1  0.58120423  0.20094123  0.18516613  1
  O  O39  1  0.18516613  0.60396190  0.48422490  1
  O  O40  1  0.08120423  0.68516613  0.70094123  1
  O  O41  1  0.91879577  0.31483387  0.29905877  1
  O  O42  1  0.98422490  0.88026300  0.79905877  1
  O  O43  1  0.01577510  0.11973700  0.20094123  1
  O  O44  1  0.41879577  0.61973700  0.10396190  1
  O  O45  1  0.58120423  0.38026300  0.89603810  1
  O  O46  1  0.51577510  0.81483387  0.39603810  1
  O  O47  1  0.48422490  0.18516613  0.60396190  1
loop_
_geom_bond_atom_site_label_1
_geom_bond_atom_site_label_2
_geom_bond_distance
_geom_bond_site_symmetry_2
Cd0 O11 2.398923 1_555
Cd0 O40 2.398923 1_655
Cd0 O4 2.398923 1_555
Cd0 O42 2.398923 1_555
Cd0 O10 2.577980 1_655
Cd0 O29 2.577980 1_555
Cd0 O37 2.577980 1_555
Cd0 O0 2.577980 1_555
Cd1 O41 2.398923 1_455
Cd1 O14 2.398923 1_555
Cd1 O43 2.398923 1_555
Cd1 O8 2.398923 1_555
Cd1 O1 2.577980 1_555
Cd1 O31 2.577980 1_555
Cd1 O13 2.577980 1_455
Cd1 O39 2.577980 1_555
Cd2 O16 2.398923 1_565
Cd2 O46 2.398923 1_555
Cd2 O20 2.398923 1_555
Cd2 O44 2.398923 1_555
Cd2 O3 2.577980 1_555
Cd2 O25 2.577980 1_565
Cd2 O33 2.577980 1_555
Cd2 O2 2.577980 1_555
Cd3 O24 2.398923 1_555
Cd3 O29 2.398923 1_555
Cd3 O36 2.398923 1_555
Cd3 O33 2.398923 1_556
Cd3 O17 2.577980 1_555
Cd3 O20 2.577980 1_556
Cd3 O4 2.577980 1_555
Cd3 O12 2.577980 1_555
Cd4 O37 2.398923 1_555
Cd4 O32 2.398923 1_555
Cd4 O28 2.398923 1_655
Cd4 O25 2.398923 1_555
Cd4 O16 2.577980 1_555
Cd4 O5 2.577980 1_555
Cd4 O11 2.577980 1_555
Cd4 O21 2.577980 1_655
Cd5 O22 2.398923 1_555
Cd5 O47 2.398923 1_555
Cd5 O18 2.398923 1_545
Cd5 O45 2.398923 1_555
Cd5 O35 2.577980 1_555
Cd5 O6 2.577980 1_555
Cd5 O27 2.577980 1_545
Cd5 O7 2.577980 1_555
Cd6 O35 2.398923 1_554
Cd6 O38 2.398923 1_555
Cd6 O26 2.398923 1_555
Cd6 O31 2.398923 1_555
Cd6 O8 2.577980 1_555
Cd6 O15 2.577980 1_555
Cd6 O22 2.577980 1_554
Cd6 O19 2.577980 1_555
Cd7 O34 2.398923 1_555
Cd7 O39 2.398923 1_555
Cd7 O30 2.398923 1_455
Cd7 O27 2.398923 1_555
Cd7 O9 2.577980 1_555
Cd7 O14 2.577980 1_555
Cd7 O18 2.577980 1_555
Cd7 O23 2.577980 1_455
Cd8 O12 2.398923 1_555
Cd8 O2 2.398923 1_555
Cd8 O0 2.398923 1_555
Cd8 O5 2.398923 1_565
Cd8 O46 2.577980 1_555
Cd8 O32 2.577980 1_565
Cd8 O42 2.577980 1_555
Cd8 O24 2.577980 1_555
Cd9 O9 2.398923 1_545
Cd9 O6 2.398923 1_555
Cd9 O15 2.398923 1_555
Cd9 O1 2.398923 1_555
Cd9 O34 2.577980 1_545
Cd9 O26 2.577980 1_555
Cd9 O43 2.577980 1_555
Cd9 O47 2.577980 1_555
Cd10 O10 2.398923 1_555
Cd10 O17 2.398923 1_555
Cd10 O21 2.398923 1_555
Cd10 O3 2.398923 1_556
Cd10 O28 2.577980 1_555
Cd10 O36 2.577980 1_555
Cd10 O40 2.577980 1_555
Cd10 O44 2.577980 1_556
Cd11 O19 2.398923 1_555
Cd11 O13 2.398923 1_555
Cd11 O23 2.398923 1_555
Cd11 O7 2.398923 1_554
Cd11 O41 2.577980 1_555
Cd11 O38 2.577980 1_555
Cd11 O30 2.577980 1_555
Cd11 O45 2.577980 1_554
Ge0 O11 1.786823 1_555
Ge0 O47 1.786823 1_555
Ge0 O45 1.786823 1_555
Ge0 O4 1.786823 1_555
Ge1 O8 1.786823 1_555
Ge1 O14 1.786823 1_555
Ge1 O46 1.786823 1_555
Ge1 O44 1.786823 1_555
Ge2 O43 1.786823 1_655
Ge2 O20 1.786823 1_545
Ge2 O16 1.786823 1_555
Ge2 O41 1.786823 1_555
Ge3 O27 1.786823 1_555
Ge3 O36 1.786823 1_555
Ge3 O39 1.786823 1_555
Ge3 O24 1.786823 1_555
Ge4 O26 1.786823 1_555
Ge4 O37 1.786823 1_555
Ge4 O38 1.786823 1_555
Ge4 O25 1.786823 1_555
Ge5 O40 1.786823 1_555
Ge5 O18 1.786823 1_555
Ge5 O22 1.786823 1_565
Ge5 O42 1.786823 1_455
Ge6 O31 1.786823 1_556
Ge6 O32 1.786823 1_455
Ge6 O28 1.786823 1_555
Ge6 O35 1.786823 1_555
Ge7 O30 1.786823 1_555
Ge7 O33 1.786823 1_555
Ge7 O34 1.786823 1_655
Ge7 O29 1.786823 1_554
Ge8 O23 1.786823 1_555
Ge8 O2 1.786823 1_555
Ge8 O19 1.786823 1_555
Ge8 O0 1.786823 1_555
Ge9 O6 1.786823 1_555
Ge9 O1 1.786823 1_555
Ge9 O17 1.786823 1_555
Ge9 O21 1.786823 1_555
Ge10 O15 1.786823 1_565
Ge10 O3 1.786823 1_555
Ge10 O10 1.786823 1_554
Ge10 O9 1.786823 1_555
Ge11 O7 1.786823 1_555
Ge11 O5 1.786823 1_555
Ge11 O13 1.786823 1_556
Ge11 O12 1.786823 1_545
O0 V5 2.043601 1_555
O1 V5 2.043601 1_555
O2 V3 2.043601 1_665
O3 V6 2.043601 1_565
O4 V5 2.043601 1_555
O5 V1 2.043601 1_555
O6 V3 2.043601 1_555
O7 V6 2.043601 1_556
O8 V5 2.043601 1_555
O9 V1 2.043601 1_565
O10 V7 2.043601 1_556
O11 V7 2.043601 1_656
O12 V0 2.043601 1_666
O13 V7 2.043601 1_655
O14 V7 2.043601 1_555
O15 V0 2.043601 1_555
O16 V3 2.043601 1_655
O17 V2 2.043601 1_556
O18 V3 2.043601 1_565
O19 V2 2.043601 1_555
O20 V6 2.043601 1_565
O21 V4 2.043601 1_555
O22 V6 2.043601 1_556
O23 V4 2.043601 1_655
O24 V5 2.043601 1_555
O25 V1 2.043601 1_555
O26 V5 2.043601 1_555
O27 V1 2.043601 1_565
O28 V7 2.043601 1_556
O29 V0 2.043601 1_666
O30 V7 2.043601 1_655
O31 V0 2.043601 1_555
O32 V3 2.043601 1_655
O33 V2 2.043601 1_555
O34 V3 2.043601 1_565
O35 V2 2.043601 1_556
O36 V6 2.043601 1_566
O37 V4 2.043601 1_655
O38 V6 2.043601 1_555
O39 V4 2.043601 1_555
O40 V4 2.043601 1_555
O41 V4 2.043601 1_655
O42 V0 2.043601 1_666
O43 V0 2.043601 1_555
O44 V2 2.043601 1_555
O45 V2 2.043601 1_556
O46 V1 2.043601 1_565
O47 V1 2.043601 1_555
