# generated using pymatgen
data_TaRu3
_symmetry_space_group_name_H-M   'P 1'
_cell_length_a   5.56669760
_cell_length_b   5.56669760
_cell_length_c   17.98829200
_cell_angle_alpha   90.00000000
_cell_angle_beta   90.00000000
_cell_angle_gamma   120.00001903
_symmetry_Int_Tables_number   1
_chemical_formula_structural   TaRu3
_chemical_formula_sum   'Ta8 Ru24'
_cell_volume   482.74272414
_cell_formula_units_Z   8
loop_
 _symmetry_equiv_pos_site_id
 _symmetry_equiv_pos_as_xyz
  1  'x, y, z'
loop_
 _atom_site_type_symbol
 _atom_site_label
 _atom_site_symmetry_multiplicity
 _atom_site_fract_x
 _atom_site_fract_y
 _atom_site_fract_z
 _atom_site_occupancy
  Ta  Ta0_0  1  0.16666650  0.33333350  0.00000000  1
  Ta  Ta0_1  1  0.16666650  0.33333350  0.50000000  1
  Ta  Ta0_2  1  0.16666650  0.83333350  0.00000000  1
  Ta  Ta0_3  1  0.16666650  0.83333350  0.50000000  1
  Ta  Ta0_4  1  0.66666650  0.33333350  0.00000000  1
  Ta  Ta0_5  1  0.66666650  0.33333350  0.50000000  1
  Ta  Ta0_6  1  0.66666650  0.83333350  0.00000000  1
  Ta  Ta0_7  1  0.66666650  0.83333350  0.50000000  1
  Ru  Ru0_0  1  0.16666650  0.33333350  0.25000000  1
  Ru  Ru0_1  1  0.16666650  0.33333350  0.75000000  1
  Ru  Ru0_2  1  0.16666650  0.83333350  0.25000000  1
  Ru  Ru0_3  1  0.16666650  0.83333350  0.75000000  1
  Ru  Ru0_4  1  0.66666650  0.33333350  0.25000000  1
  Ru  Ru0_5  1  0.66666650  0.33333350  0.75000000  1
  Ru  Ru0_6  1  0.66666650  0.83333350  0.25000000  1
  Ru  Ru0_7  1  0.66666650  0.83333350  0.75000000  1
  Ru  Ru1_0  1  0.00000000  0.00000000  0.13255250  1
  Ru  Ru1_1  1  0.00000000  0.00000000  0.63255250  1
  Ru  Ru1_2  1  0.00000000  0.50000000  0.13255250  1
  Ru  Ru1_3  1  0.00000000  0.50000000  0.63255250  1
  Ru  Ru1_4  1  0.50000000  0.00000000  0.13255250  1
  Ru  Ru1_5  1  0.50000000  0.00000000  0.63255250  1
  Ru  Ru1_6  1  0.50000000  0.50000000  0.13255250  1
  Ru  Ru1_7  1  0.50000000  0.50000000  0.63255250  1
  Ru  Ru2_0  1  0.00000000  0.00000000  0.36744750  1
  Ru  Ru2_1  1  0.00000000  0.00000000  0.86744750  1
  Ru  Ru2_2  1  0.00000000  0.50000000  0.36744750  1
  Ru  Ru2_3  1  0.00000000  0.50000000  0.86744750  1
  Ru  Ru2_4  1  0.50000000  0.00000000  0.36744750  1
  Ru  Ru2_5  1  0.50000000  0.00000000  0.86744750  1
  Ru  Ru2_6  1  0.50000000  0.50000000  0.36744750  1
  Ru  Ru2_7  1  0.50000000  0.50000000  0.86744750  1
loop_
_geom_bond_atom_site_label_1
_geom_bond_atom_site_label_2
_geom_bond_distance
_geom_bond_site_symmetry_2
Ta0_0 Ta0_6 2.783348 1_445
Ta0_0 Ta0_6 2.783348 1_555
Ta0_0 Ta0_4 2.783349 1_455
Ta0_0 Ta0_4 2.783349 1_555
Ta0_0 Ta0_2 2.783349 1_555
Ta0_0 Ta0_2 2.783349 1_545
Ta0_1 Ta0_7 2.783348 1_445
Ta0_1 Ta0_7 2.783348 1_555
Ta0_1 Ta0_5 2.783349 1_555
Ta0_1 Ta0_3 2.783349 1_555
Ta0_1 Ta0_5 2.783349 1_455
Ta0_1 Ta0_3 2.783349 1_545
Ta0_2 Ta0_4 2.783348 1_565
Ta0_2 Ta0_4 2.783348 1_455
Ta0_2 Ta0_6 2.783349 1_455
Ta0_2 Ta0_6 2.783349 1_555
Ta0_3 Ta0_5 2.783348 1_455
Ta0_3 Ta0_5 2.783348 1_565
Ta0_3 Ta0_7 2.783349 1_455
Ta0_3 Ta0_7 2.783349 1_555
Ta0_4 Ta0_6 2.783349 1_545
Ta0_4 Ta0_6 2.783349 1_555
Ta0_5 Ta0_7 2.783349 1_545
Ta0_5 Ta0_7 2.783349 1_555
Ru0_0 Ru2_2 2.654384 1_555
Ru0_0 Ru1_2 2.654384 1_555
Ru0_0 Ru2_0 2.654385 1_555
Ru0_0 Ru2_6 2.654385 1_555
Ru0_0 Ru1_6 2.654385 1_555
Ru0_0 Ru1_0 2.654385 1_555
Ru0_0 Ru0_6 2.783348 1_445
Ru0_0 Ru0_6 2.783348 1_555
Ru0_0 Ru0_4 2.783349 1_455
Ru0_0 Ru0_4 2.783349 1_555
Ru0_0 Ru0_2 2.783349 1_555
Ru0_0 Ru0_2 2.783349 1_545
Ru0_1 Ru1_3 2.654384 1_555
Ru0_1 Ru2_3 2.654384 1_555
Ru0_1 Ru1_1 2.654385 1_555
Ru0_1 Ru2_1 2.654385 1_555
Ru0_1 Ru2_7 2.654385 1_555
Ru0_1 Ru1_7 2.654385 1_555
Ru0_1 Ru0_7 2.783348 1_445
Ru0_1 Ru0_7 2.783348 1_555
Ru0_1 Ru0_5 2.783349 1_455
Ru0_1 Ru0_5 2.783349 1_555
Ru0_1 Ru0_3 2.783349 1_555
Ru0_1 Ru0_3 2.783349 1_545
Ru0_2 Ru2_0 2.654384 1_565
Ru0_2 Ru1_0 2.654384 1_565
Ru0_2 Ru2_4 2.654385 1_565
Ru0_2 Ru2_2 2.654385 1_555
Ru0_2 Ru1_4 2.654385 1_565
Ru0_2 Ru1_2 2.654385 1_555
Ru0_2 Ru0_4 2.783348 1_455
Ru0_2 Ru0_4 2.783348 1_565
Ru0_2 Ru0_6 2.783349 1_455
Ru0_2 Ru0_6 2.783349 1_555
Ru0_3 Ru2_1 2.654384 1_565
Ru0_3 Ru1_1 2.654384 1_565
Ru0_3 Ru1_5 2.654385 1_565
Ru0_3 Ru2_5 2.654385 1_565
Ru0_3 Ru2_3 2.654385 1_555
Ru0_3 Ru1_3 2.654385 1_555
Ru0_3 Ru0_5 2.783348 1_565
Ru0_3 Ru0_5 2.783348 1_455
Ru0_3 Ru0_7 2.783349 1_455
Ru0_3 Ru0_7 2.783349 1_555
Ru0_4 Ru2_6 2.654384 1_555
Ru0_4 Ru1_6 2.654384 1_555
Ru0_4 Ru2_4 2.654385 1_555
Ru0_4 Ru2_2 2.654385 1_655
Ru0_4 Ru1_2 2.654385 1_655
Ru0_4 Ru1_4 2.654385 1_555
Ru0_4 Ru0_6 2.783349 1_545
Ru0_4 Ru0_6 2.783349 1_555
Ru0_5 Ru1_7 2.654384 1_555
Ru0_5 Ru2_7 2.654384 1_555
Ru0_5 Ru2_3 2.654385 1_655
Ru0_5 Ru1_5 2.654385 1_555
Ru0_5 Ru1_3 2.654385 1_655
Ru0_5 Ru2_5 2.654385 1_555
Ru0_5 Ru0_7 2.783349 1_545
Ru0_5 Ru0_7 2.783349 1_555
Ru0_6 Ru2_4 2.654384 1_565
Ru0_6 Ru1_4 2.654384 1_565
Ru0_6 Ru2_0 2.654385 1_665
Ru0_6 Ru2_6 2.654385 1_555
Ru0_6 Ru1_0 2.654385 1_665
Ru0_6 Ru1_6 2.654385 1_555
Ru0_7 Ru2_5 2.654384 1_565
Ru0_7 Ru1_5 2.654384 1_565
Ru0_7 Ru1_1 2.654385 1_665
Ru0_7 Ru2_1 2.654385 1_665
Ru0_7 Ru1_7 2.654385 1_555
Ru0_7 Ru2_7 2.654385 1_555
Ru1_0 Ru1_6 2.783348 1_445
Ru1_0 Ru1_6 2.783348 1_555
Ru1_0 Ru1_2 2.783349 1_545
Ru1_0 Ru1_2 2.783349 1_555
Ru1_0 Ru1_4 2.783349 1_555
Ru1_0 Ru1_4 2.783349 1_455
Ru1_0 Ta0_2 2.875355 1_545
Ru1_0 Ta0_0 2.875357 1_555
Ru1_0 Ta0_6 2.875357 1_445
Ru1_1 Ru1_7 2.783348 1_555
Ru1_1 Ru1_7 2.783348 1_445
Ru1_1 Ru1_5 2.783349 1_555
Ru1_1 Ru1_3 2.783349 1_555
Ru1_1 Ru1_3 2.783349 1_545
Ru1_1 Ru1_5 2.783349 1_455
Ru1_1 Ta0_3 2.875355 1_545
Ru1_1 Ta0_7 2.875357 1_445
Ru1_1 Ta0_1 2.875357 1_555
Ru1_2 Ru1_4 2.783348 1_455
Ru1_2 Ru1_4 2.783348 1_565
Ru1_2 Ru1_6 2.783349 1_555
Ru1_2 Ru1_6 2.783349 1_455
Ru1_2 Ta0_0 2.875355 1_555
Ru1_2 Ta0_2 2.875357 1_555
Ru1_2 Ta0_4 2.875357 1_455
Ru1_3 Ru1_5 2.783348 1_565
Ru1_3 Ru1_5 2.783348 1_455
Ru1_3 Ru1_7 2.783349 1_555
Ru1_3 Ru1_7 2.783349 1_455
Ru1_3 Ta0_1 2.875355 1_555
Ru1_3 Ta0_3 2.875357 1_555
Ru1_3 Ta0_5 2.875357 1_455
Ru1_4 Ru1_6 2.783349 1_555
Ru1_4 Ru1_6 2.783349 1_545
Ru1_4 Ta0_6 2.875355 1_545
Ru1_4 Ta0_2 2.875357 1_545
Ru1_4 Ta0_4 2.875357 1_555
Ru1_5 Ru1_7 2.783349 1_555
Ru1_5 Ru1_7 2.783349 1_545
Ru1_5 Ta0_7 2.875355 1_545
Ru1_5 Ta0_5 2.875357 1_555
Ru1_5 Ta0_3 2.875357 1_545
Ru1_6 Ta0_4 2.875355 1_555
Ru1_6 Ta0_0 2.875357 1_555
Ru1_6 Ta0_6 2.875357 1_555
Ru1_7 Ta0_5 2.875355 1_555
Ru1_7 Ta0_1 2.875357 1_555
Ru1_7 Ta0_7 2.875357 1_555
Ru2_0 Ru2_6 2.783348 1_555
Ru2_0 Ru2_6 2.783348 1_445
Ru2_0 Ru2_4 2.783349 1_555
Ru2_0 Ru2_2 2.783349 1_545
Ru2_0 Ru2_2 2.783349 1_555
Ru2_0 Ru2_4 2.783349 1_455
Ru2_0 Ta0_3 2.875355 1_545
Ru2_0 Ta0_7 2.875357 1_445
Ru2_0 Ta0_1 2.875357 1_555
Ru2_1 Ru2_7 2.783348 1_445
Ru2_1 Ru2_7 2.783348 1_555
Ru2_1 Ru2_3 2.783349 1_545
Ru2_1 Ru2_3 2.783349 1_555
Ru2_1 Ru2_5 2.783349 1_555
Ru2_1 Ru2_5 2.783349 1_455
Ru2_1 Ta0_2 2.875355 1_546
Ru2_1 Ta0_6 2.875357 1_446
Ru2_1 Ta0_0 2.875357 1_556
Ru2_2 Ru2_4 2.783348 1_565
Ru2_2 Ru2_4 2.783348 1_455
Ru2_2 Ru2_6 2.783349 1_555
Ru2_2 Ru2_6 2.783349 1_455
Ru2_2 Ta0_1 2.875355 1_555
Ru2_2 Ta0_3 2.875357 1_555
Ru2_2 Ta0_5 2.875357 1_455
Ru2_3 Ru2_5 2.783348 1_455
Ru2_3 Ru2_5 2.783348 1_565
Ru2_3 Ru2_7 2.783349 1_555
Ru2_3 Ru2_7 2.783349 1_455
Ru2_3 Ta0_0 2.875355 1_556
Ru2_3 Ta0_2 2.875357 1_556
Ru2_3 Ta0_4 2.875357 1_456
Ru2_4 Ru2_6 2.783349 1_555
Ru2_4 Ru2_6 2.783349 1_545
Ru2_4 Ta0_7 2.875355 1_545
Ru2_4 Ta0_5 2.875357 1_555
Ru2_4 Ta0_3 2.875357 1_545
Ru2_5 Ru2_7 2.783349 1_555
Ru2_5 Ru2_7 2.783349 1_545
Ru2_5 Ta0_6 2.875355 1_546
Ru2_5 Ta0_2 2.875357 1_546
Ru2_5 Ta0_4 2.875357 1_556
Ru2_6 Ta0_5 2.875355 1_555
Ru2_6 Ta0_1 2.875357 1_555
Ru2_6 Ta0_7 2.875357 1_555
Ru2_7 Ta0_4 2.875355 1_556
Ru2_7 Ta0_0 2.875357 1_556
Ru2_7 Ta0_6 2.875357 1_556
