# generated using pymatgen
data_TbSi3Ni8
_symmetry_space_group_name_H-M   'P 1'
_cell_length_a   7.50270915
_cell_length_b   7.50270915
_cell_length_c   7.48297969
_cell_angle_alpha   80.27460182
_cell_angle_beta   80.27460182
_cell_angle_gamma   130.28566417
_symmetry_Int_Tables_number   1
_chemical_formula_structural   TbSi3Ni8
_chemical_formula_sum   'Tb2 Si6 Ni16'
_cell_volume   294.23320766
_cell_formula_units_Z   2
loop_
 _symmetry_equiv_pos_site_id
 _symmetry_equiv_pos_as_xyz
  1  'x, y, z'
loop_
 _atom_site_type_symbol
 _atom_site_label
 _atom_site_symmetry_multiplicity
 _atom_site_fract_x
 _atom_site_fract_y
 _atom_site_fract_z
 _atom_site_occupancy
  Tb  Tb0  1  0.36957100  0.63042900  0.25000000  1
  Tb  Tb1  1  0.63042900  0.36957100  0.75000000  1
  Si  Si0  1  0.81609900  0.72361500  0.32435700  1
  Si  Si1  1  0.27638500  0.18390100  0.17564300  1
  Si  Si2  1  0.18390100  0.27638500  0.67564300  1
  Si  Si3  1  0.72361500  0.81609900  0.82435700  1
  Si  Si4  1  0.00000000  0.50000000  0.00000000  1
  Si  Si5  1  0.50000000  0.00000000  0.50000000  1
  Ni  Ni0  1  0.13761900  0.79960200  0.42187100  1
  Ni  Ni1  1  0.20039800  0.86238100  0.07812900  1
  Ni  Ni2  1  0.86238100  0.20039800  0.57812900  1
  Ni  Ni3  1  0.79960200  0.13761900  0.92187100  1
  Ni  Ni4  1  0.85187900  0.43293900  0.32790900  1
  Ni  Ni5  1  0.56706100  0.14812100  0.17209100  1
  Ni  Ni6  1  0.14812100  0.56706100  0.67209100  1
  Ni  Ni7  1  0.43293900  0.85187900  0.82790900  1
  Ni  Ni8  1  0.71045100  0.56030000  0.06875800  1
  Ni  Ni9  1  0.43970000  0.28954900  0.43124200  1
  Ni  Ni10  1  0.28954900  0.43970000  0.93124200  1
  Ni  Ni11  1  0.56030000  0.71045100  0.56875800  1
  Ni  Ni12  1  0.87726100  0.12273900  0.25000000  1
  Ni  Ni13  1  0.12273900  0.87726100  0.75000000  1
  Ni  Ni14  1  0.00000000  0.00000000  0.00000000  1
  Ni  Ni15  1  0.00000000  0.00000000  0.50000000  1
loop_
_geom_bond_atom_site_label_1
_geom_bond_atom_site_label_2
_geom_bond_distance
_geom_bond_site_symmetry_2
Si0 Si1 2.659115 1_665
Si0 Tb0 3.123178 1_555
Si0 Tb1 3.162041 1_555
Si1 Tb0 3.123178 1_555
Si1 Tb1 3.162041 1_554
Si2 Si3 2.659115 1_445
Si2 Tb1 3.123178 1_555
Si2 Tb0 3.162041 1_555
Si3 Tb1 3.123178 1_555
Si3 Tb0 3.162041 1_556
Si4 Tb0 3.317784 1_555
Si4 Tb1 3.317784 1_454
Si5 Tb1 3.317784 1_555
Si5 Tb0 3.317784 1_545
Ni0 Si5 2.354165 1_565
Ni0 Si0 2.373457 1_455
Ni0 Ni6 2.383262 1_555
Ni0 Ni15 2.401895 1_565
Ni0 Ni1 2.440173 1_555
Ni0 Ni5 2.476104 1_565
Ni0 Ni4 2.488810 1_455
Ni0 Si1 2.543071 1_565
Ni0 Ni13 2.618340 1_555
Ni0 Ni9 2.832124 1_565
Ni0 Tb0 2.990891 1_555
Ni0 Tb1 3.034556 1_455
Ni1 Si4 2.354165 1_555
Ni1 Si1 2.373457 1_565
Ni1 Ni7 2.383262 1_554
Ni1 Ni14 2.401895 1_565
Ni1 Ni4 2.476104 1_455
Ni1 Ni5 2.488810 1_565
Ni1 Si0 2.543071 1_455
Ni1 Ni13 2.618340 1_554
Ni1 Ni8 2.832124 1_455
Ni1 Tb0 2.990891 1_555
Ni1 Tb1 3.034556 1_564
Ni2 Si5 2.354165 1_555
Ni2 Si2 2.373457 1_655
Ni2 Ni4 2.383262 1_555
Ni2 Ni3 2.440173 1_555
Ni2 Ni7 2.476104 1_545
Ni2 Ni6 2.488810 1_655
Ni2 Si3 2.543071 1_545
Ni2 Tb1 2.990891 1_555
Ni2 Tb0 3.034556 1_655
Ni3 Si4 2.354165 1_656
Ni3 Si3 2.373457 1_545
Ni3 Ni5 2.383262 1_556
Ni3 Ni6 2.476104 1_655
Ni3 Ni7 2.488810 1_545
Ni3 Si2 2.543071 1_655
Ni3 Tb1 2.990891 1_555
Ni3 Tb0 3.034556 1_546
Ni4 Si4 2.333992 1_655
Ni4 Si5 2.351065 1_555
Ni4 Si0 2.359837 1_555
Ni4 Ni9 2.434605 1_555
Ni4 Ni5 2.504121 1_555
Ni4 Ni8 2.679541 1_555
Ni4 Tb0 3.020291 1_655
Ni4 Tb1 3.108186 1_555
Ni5 Si5 2.333992 1_555
Ni5 Si4 2.351065 1_655
Ni5 Si1 2.359837 1_555
Ni5 Ni8 2.434605 1_555
Ni5 Ni9 2.679541 1_555
Ni5 Tb0 3.020291 1_545
Ni5 Tb1 3.108186 1_554
Ni6 Si4 2.333992 1_556
Ni6 Si5 2.351065 1_565
Ni6 Si2 2.359837 1_555
Ni6 Ni7 2.504121 1_555
Ni6 Tb1 3.020291 1_455
Ni6 Tb0 3.108186 1_555
Ni7 Si5 2.333992 1_565
Ni7 Si4 2.351065 1_556
Ni7 Si3 2.359837 1_555
Ni7 Tb1 3.020291 1_565
Ni7 Tb0 3.108186 1_556
Ni8 Si3 2.354938 1_554
Ni8 Si1 2.384146 1_555
Ni8 Si0 2.415749 1_555
Ni8 Si4 2.482082 1_655
Ni8 Ni9 2.559470 1_555
Ni8 Tb1 2.936599 1_554
Ni8 Tb0 3.076776 1_555
Ni9 Si2 2.354938 1_555
Ni9 Si0 2.384146 1_555
Ni9 Si1 2.415749 1_555
Ni9 Si5 2.482082 1_555
Ni9 Tb1 2.936599 1_555
Ni9 Tb0 3.076776 1_555
Ni10 Si1 2.354938 1_556
Ni10 Ni14 2.376577 1_556
Ni10 Si3 2.384146 1_555
Ni10 Si2 2.415749 1_555
Ni10 Ni7 2.434605 1_555
Ni10 Si4 2.482082 1_556
Ni10 Ni11 2.559470 1_555
Ni10 Ni12 2.644063 1_456
Ni10 Ni6 2.679541 1_555
Ni10 Ni3 2.832124 1_455
Ni10 Tb0 2.936599 1_556
Ni10 Tb1 3.076776 1_555
Ni11 Si0 2.354938 1_555
Ni11 Ni15 2.376577 1_665
Ni11 Si2 2.384146 1_555
Ni11 Si3 2.415749 1_555
Ni11 Ni6 2.434605 1_555
Ni11 Si5 2.482082 1_565
Ni11 Ni12 2.644063 1_565
Ni11 Ni7 2.679541 1_555
Ni11 Ni2 2.832124 1_565
Ni11 Tb0 2.936599 1_555
Ni11 Tb1 3.076776 1_555
Ni12 Ni14 2.508456 1_655
Ni12 Ni15 2.508456 1_655
Ni12 Si5 2.572465 1_555
Ni12 Si4 2.572465 1_655
Ni12 Ni4 2.605130 1_555
Ni12 Ni5 2.605130 1_555
Ni12 Ni2 2.618340 1_555
Ni12 Ni3 2.618340 1_554
Ni12 Si0 2.657266 1_545
Ni12 Si1 2.657266 1_655
Ni12 Tb0 3.155558 1_545
Ni12 Tb0 3.155558 1_655
Ni13 Ni14 2.508456 1_566
Ni13 Ni15 2.508456 1_565
Ni13 Si4 2.572465 1_556
Ni13 Si5 2.572465 1_565
Ni13 Ni7 2.605130 1_555
Ni13 Ni6 2.605130 1_555
Ni13 Ni8 2.644063 1_456
Ni13 Ni9 2.644063 1_565
Ni13 Si3 2.657266 1_455
Ni13 Si2 2.657266 1_565
Ni13 Tb1 3.155558 1_455
Ni13 Tb1 3.155558 1_565
Ni14 Si0 2.358590 1_445
Ni14 Si2 2.358590 1_554
Ni14 Ni8 2.376577 1_445
Ni14 Si1 2.400971 1_555
Ni14 Si3 2.400971 1_444
Ni14 Ni3 2.401895 1_454
Ni14 Tb0 3.443524 1_445
Ni14 Tb1 3.443524 1_554
Ni15 Si3 2.358590 1_445
Ni15 Si1 2.358590 1_555
Ni15 Ni9 2.376577 1_555
Ni15 Si2 2.400971 1_555
Ni15 Si0 2.400971 1_445
Ni15 Ni2 2.401895 1_455
Ni15 Tb1 3.443524 1_445
Ni15 Tb0 3.443524 1_555
