# generated using pymatgen
data_MgNiP2O7
_symmetry_space_group_name_H-M   'P 1'
_cell_length_a   6.41963135
_cell_length_b   9.00937016
_cell_length_c   9.40040401
_cell_angle_alpha   73.82232490
_cell_angle_beta   73.24399983
_cell_angle_gamma   95.02241805
_symmetry_Int_Tables_number   1
_chemical_formula_structural   MgNiP2O7
_chemical_formula_sum   'Mg4 Ni4 P8 O28'
_cell_volume   491.58965902
_cell_formula_units_Z   4
loop_
 _symmetry_equiv_pos_site_id
 _symmetry_equiv_pos_as_xyz
  1  'x, y, z'
loop_
 _atom_site_type_symbol
 _atom_site_label
 _atom_site_symmetry_multiplicity
 _atom_site_fract_x
 _atom_site_fract_y
 _atom_site_fract_z
 _atom_site_occupancy
  Mg  Mg0  1  0.65771700  0.16140900  0.49237900  1
  Mg  Mg1  1  0.65776600  0.66142800  0.99239400  1
  Mg  Mg2  1  0.34222400  0.83857000  0.50761500  1
  Mg  Mg3  1  0.34227200  0.33859400  0.00762900  1
  Ni  Ni0  1  0.16255900  0.47433300  0.72876200  1
  Ni  Ni1  1  0.83757400  0.02554000  0.77117900  1
  Ni  Ni2  1  0.16230700  0.97456400  0.22878100  1
  Ni  Ni3  1  0.83769400  0.52545100  0.27121100  1
  P  P0  1  0.68647300  0.95507700  0.13999100  1
  P  P1  1  0.68663900  0.45505000  0.64001700  1
  P  P2  1  0.31339100  0.04495400  0.85998400  1
  P  P3  1  0.31352400  0.54493700  0.36000300  1
  P  P4  1  0.19758000  0.19001200  0.42390700  1
  P  P5  1  0.19757400  0.69000200  0.92386300  1
  P  P6  1  0.80241700  0.81000500  0.57612100  1
  P  P7  1  0.80241000  0.30999400  0.07609000  1
  O  O0  1  0.69255600  0.39642100  0.49986400  1
  O  O1  1  0.69248000  0.89643900  0.99982900  1
  O  O2  1  0.30750600  0.60355500  0.50018200  1
  O  O3  1  0.30742300  0.10359200  0.00013900  1
  O  O4  1  0.86821000  0.91401100  0.20792400  1
  O  O5  1  0.86832000  0.41391200  0.70795200  1
  O  O6  1  0.13167100  0.08609900  0.79205700  1
  O  O7  1  0.13178500  0.58599200  0.29207900  1
  O  O8  1  0.45221500  0.90862900  0.26203400  1
  O  O9  1  0.45236300  0.40859000  0.76207100  1
  O  O10  1  0.54764200  0.09141200  0.73793400  1
  O  O11  1  0.54777600  0.59137700  0.23797000  1
  O  O12  1  0.64698800  0.91264600  0.51867600  1
  O  O13  1  0.64705200  0.41269600  0.01863200  1
  O  O14  1  0.35293000  0.08730800  0.48137300  1
  O  O15  1  0.35300800  0.58736300  0.98132600  1
  O  O16  1  0.21355800  0.20163000  0.25401300  1
  O  O17  1  0.21347100  0.70152400  0.75403300  1
  O  O18  1  0.78652000  0.79847400  0.74597000  1
  O  O19  1  0.78643100  0.29837800  0.24599100  1
  O  O20  1  0.28032200  0.35667700  0.43609200  1
  O  O21  1  0.28014800  0.85672500  0.93602100  1
  O  O22  1  0.71983700  0.64328600  0.56399000  1
  O  O23  1  0.71967100  0.14332800  0.06391200  1
  O  O24  1  0.04423000  0.85941300  0.46671800  1
  O  O25  1  0.04425600  0.35929900  0.96677400  1
  O  O26  1  0.95573500  0.14070200  0.53323600  1
  O  O27  1  0.95576000  0.64059500  0.03328900  1
loop_
_geom_bond_atom_site_label_1
_geom_bond_atom_site_label_2
_geom_bond_distance
_geom_bond_site_symmetry_2
Mg0 O14 2.052135 1_555
Mg0 O26 2.070932 1_555
Mg0 O10 2.096583 1_555
Mg0 O0 2.132405 1_555
Mg0 O19 2.166885 1_555
Mg0 O12 2.177901 1_545
Mg1 O15 2.052120 1_555
Mg1 O27 2.071069 1_556
Mg1 O11 2.096752 1_556
Mg1 O1 2.132214 1_555
Mg1 O18 2.167327 1_555
Mg1 O13 2.177733 1_556
Mg2 O12 2.052154 1_555
Mg2 O24 2.071088 1_555
Mg2 O8 2.096792 1_555
Mg2 O2 2.132244 1_555
Mg2 O17 2.167282 1_555
Mg2 O14 2.177785 1_565
Mg3 O13 2.052084 1_555
Mg3 O25 2.070910 1_554
Mg3 O9 2.096609 1_554
Mg3 O3 2.132333 1_555
Mg3 O16 2.166844 1_555
Mg3 O15 2.177940 1_554
Ni0 O5 1.998729 1_455
Ni0 O2 2.025297 1_555
Ni0 O25 2.060868 1_555
Ni0 O9 2.082202 1_555
Ni0 O17 2.133408 1_555
Ni1 O6 1.998419 1_655
Ni1 O1 2.025640 1_545
Ni1 O26 2.060507 1_555
Ni1 O10 2.083168 1_555
Ni1 O18 2.132154 1_545
Ni2 O4 1.998319 1_455
Ni2 O3 2.025441 1_565
Ni2 O24 2.060437 1_555
Ni2 O8 2.083227 1_555
Ni2 O16 2.132374 1_565
Ni3 O7 1.998305 1_655
Ni3 O0 2.025539 1_555
Ni3 O27 2.060308 1_555
Ni3 O11 2.083225 1_555
Ni3 O19 2.132396 1_555
O0 P1 1.542299 1_555
O1 P0 1.542315 1_556
O2 P3 1.542347 1_555
O3 P2 1.542301 1_554
O4 P0 1.509752 1_555
O5 P1 1.509560 1_555
O6 P2 1.509758 1_555
O7 P3 1.509696 1_555
O8 P0 1.542844 1_555
O9 P1 1.542967 1_555
O10 P2 1.542834 1_555
O11 P3 1.542781 1_555
O12 P6 1.528498 1_555
O13 P7 1.528485 1_555
O14 P4 1.528482 1_555
O15 P5 1.528577 1_555
O16 P4 1.543577 1_555
O17 P5 1.543297 1_555
O18 P6 1.543457 1_555
O19 P7 1.543645 1_555
O20 P4 1.594108 1_555
O20 P3 1.614492 1_555
O21 P5 1.594194 1_555
O21 P2 1.614159 1_565
O22 P6 1.594062 1_555
O22 P1 1.614231 1_555
O23 P7 1.594083 1_555
O23 P0 1.614410 1_545
O24 P6 1.539156 1_455
O25 P7 1.539067 1_456
O26 P4 1.539099 1_655
O27 P5 1.539225 1_654
