# generated using pymatgen
data_Pr4Fe3Si4Ru
_symmetry_space_group_name_H-M   'P 1'
_cell_length_a   4.13963000
_cell_length_b   4.13963000
_cell_length_c   14.15132400
_cell_angle_alpha   90.00000000
_cell_angle_beta   90.00000000
_cell_angle_gamma   90.00000000
_symmetry_Int_Tables_number   1
_chemical_formula_structural   Pr4Fe3Si4Ru
_chemical_formula_sum   'Pr4 Fe3 Si4 Ru1'
_cell_volume   242.50468077
_cell_formula_units_Z   1
loop_
 _symmetry_equiv_pos_site_id
 _symmetry_equiv_pos_as_xyz
  1  'x, y, z'
loop_
 _atom_site_type_symbol
 _atom_site_label
 _atom_site_symmetry_multiplicity
 _atom_site_fract_x
 _atom_site_fract_y
 _atom_site_fract_z
 _atom_site_occupancy
  Pr  Pr0  1  0.50000000  0.00000000  0.16150300  1
  Pr  Pr1  1  0.50000000  0.00000000  0.65545900  1
  Pr  Pr2  1  0.00000000  0.50000000  0.34454100  1
  Pr  Pr3  1  0.00000000  0.50000000  0.83849700  1
  Fe  Fe0  1  0.50000000  0.50000000  0.50000000  1
  Fe  Fe1  1  0.00000000  0.00000000  0.00000000  1
  Fe  Fe2  1  0.00000000  0.00000000  0.50000000  1
  Si  Si0  1  0.50000000  0.00000000  0.42074500  1
  Si  Si1  1  0.50000000  0.00000000  0.91584300  1
  Si  Si2  1  0.00000000  0.50000000  0.08415700  1
  Si  Si3  1  0.00000000  0.50000000  0.57925500  1
  Ru  Ru0  1  0.50000000  0.50000000  0.00000000  1
loop_
_geom_bond_atom_site_label_1
_geom_bond_atom_site_label_2
_geom_bond_distance
_geom_bond_site_symmetry_2
Pr0 Ru0 3.083433 1_545
Pr0 Ru0 3.083433 1_555
Pr0 Si2 3.125109 1_645
Pr0 Si2 3.125109 1_545
Pr0 Si2 3.125109 1_555
Pr0 Si2 3.125109 1_655
Pr0 Si0 3.668618 1_555
Pr1 Si3 3.119485 1_655
Pr1 Si3 3.119485 1_645
Pr1 Si3 3.119485 1_545
Pr1 Si3 3.119485 1_555
Pr1 Si1 3.684778 1_555
Pr2 Si0 3.119485 1_565
Pr2 Si0 3.119485 1_555
Pr2 Si0 3.119485 1_455
Pr2 Si0 3.119485 1_465
Pr2 Si2 3.684778 1_555
Pr3 Ru0 3.083433 1_456
Pr3 Ru0 3.083433 1_556
Pr3 Si1 3.125109 1_465
Pr3 Si1 3.125109 1_565
Pr3 Si1 3.125109 1_455
Pr3 Si1 3.125109 1_555
Pr3 Si3 3.668618 1_555
Fe0 Si3 2.354153 1_655
Fe0 Si3 2.354153 1_555
Fe0 Si0 2.354153 1_565
Fe0 Si0 2.354153 1_555
Fe0 Pr1 3.020582 1_555
Fe0 Pr2 3.020582 1_655
Fe0 Pr2 3.020582 1_555
Fe0 Pr1 3.020582 1_565
Fe1 Si2 2.387981 1_545
Fe1 Si2 2.387981 1_555
Fe1 Si1 2.387981 1_554
Fe1 Si1 2.387981 1_454
Fe1 Ru0 2.927160 1_555
Fe1 Ru0 2.927160 1_545
Fe1 Ru0 2.927160 1_445
Fe1 Ru0 2.927160 1_455
Fe1 Pr0 3.083433 1_555
Fe1 Pr0 3.083433 1_455
Fe1 Pr3 3.083433 1_554
Fe1 Pr3 3.083433 1_544
Fe2 Si3 2.354153 1_545
Fe2 Si3 2.354153 1_555
Fe2 Si0 2.354153 1_455
Fe2 Si0 2.354153 1_555
Fe2 Pr1 3.020582 1_555
Fe2 Pr1 3.020582 1_455
Fe2 Pr2 3.020582 1_545
Fe2 Pr2 3.020582 1_555
Ru0 Si2 2.387981 1_555
Ru0 Si2 2.387981 1_655
Ru0 Si1 2.387981 1_554
Ru0 Si1 2.387981 1_564
