# generated using pymatgen
data_MgCu2(SbO4)2
_symmetry_space_group_name_H-M   'P 1'
_cell_length_a   8.71332300
_cell_length_b   6.58257900
_cell_length_c   12.30505213
_cell_angle_alpha   88.19019379
_cell_angle_beta   90.00000000
_cell_angle_gamma   90.00000000
_symmetry_Int_Tables_number   1
_chemical_formula_structural   MgCu2(SbO4)2
_chemical_formula_sum   'Mg4 Cu8 Sb8 O32'
_cell_volume   705.41819634
_cell_formula_units_Z   4
loop_
 _symmetry_equiv_pos_site_id
 _symmetry_equiv_pos_as_xyz
  1  'x, y, z'
loop_
 _atom_site_type_symbol
 _atom_site_label
 _atom_site_symmetry_multiplicity
 _atom_site_fract_x
 _atom_site_fract_y
 _atom_site_fract_z
 _atom_site_occupancy
  Mg  Mg0  1  0.83449100  0.89241700  0.05071800  1
  Mg  Mg1  1  0.16550900  0.10758300  0.94928200  1
  Mg  Mg2  1  0.33449100  0.10758300  0.44928200  1
  Mg  Mg3  1  0.66550900  0.89241700  0.55071800  1
  Cu  Cu0  1  0.82065400  0.23980900  0.87105600  1
  Cu  Cu1  1  0.94060800  0.62101300  0.62433500  1
  Cu  Cu2  1  0.05939200  0.37898700  0.37566500  1
  Cu  Cu3  1  0.17934600  0.76019100  0.12894400  1
  Cu  Cu4  1  0.67934600  0.23980900  0.37105600  1
  Cu  Cu5  1  0.55939200  0.62101300  0.12433500  1
  Cu  Cu6  1  0.32065400  0.76019100  0.62894400  1
  Cu  Cu7  1  0.44060800  0.37898700  0.87566500  1
  Sb  Sb0  1  0.54675100  0.90262300  0.84252200  1
  Sb  Sb1  1  0.95324900  0.90262300  0.34252200  1
  Sb  Sb2  1  0.91394000  0.39201300  0.13475200  1
  Sb  Sb3  1  0.04675100  0.09737700  0.65747800  1
  Sb  Sb4  1  0.08606000  0.60798700  0.86524800  1
  Sb  Sb5  1  0.41394000  0.60798700  0.36524800  1
  Sb  Sb6  1  0.58606000  0.39201300  0.63475200  1
  Sb  Sb7  1  0.45324900  0.09737700  0.15747800  1
  O  O0  1  0.75407900  0.96701300  0.39845700  1
  O  O1  1  0.97755200  0.34491700  0.58974200  1
  O  O2  1  0.42533700  0.81260200  0.47460500  1
  O  O3  1  0.92533700  0.18739800  0.02539500  1
  O  O4  1  0.74592100  0.96701300  0.89845700  1
  O  O5  1  0.24592100  0.03298700  0.60154300  1
  O  O6  1  0.89169700  0.90912100  0.61240200  1
  O  O7  1  0.11881800  0.48523000  0.14834200  1
  O  O8  1  0.38118200  0.48523000  0.64834200  1
  O  O9  1  0.12600900  0.70275200  0.71461900  1
  O  O10  1  0.62600900  0.29724800  0.78538100  1
  O  O11  1  0.88118200  0.51477000  0.85165800  1
  O  O12  1  0.10830300  0.09087900  0.38759800  1
  O  O13  1  0.46128400  0.12287600  0.31031300  1
  O  O14  1  0.72520700  0.59288000  0.57959900  1
  O  O15  1  0.77479300  0.59288000  0.07959900  1
  O  O16  1  0.96128400  0.87712400  0.18968700  1
  O  O17  1  0.61881800  0.51477000  0.35165800  1
  O  O18  1  0.53871600  0.87712400  0.68968700  1
  O  O19  1  0.57466300  0.18739800  0.52539500  1
  O  O20  1  0.52244800  0.34491700  0.08974200  1
  O  O21  1  0.87399100  0.29724800  0.28538100  1
  O  O22  1  0.25407900  0.03298700  0.10154300  1
  O  O23  1  0.60830300  0.90912100  0.11240200  1
  O  O24  1  0.07466300  0.81260200  0.97460500  1
  O  O25  1  0.22520700  0.40712000  0.92040100  1
  O  O26  1  0.02244800  0.65508300  0.41025800  1
  O  O27  1  0.47755200  0.65508300  0.91025800  1
  O  O28  1  0.39169700  0.09087900  0.88759800  1
  O  O29  1  0.27479300  0.40712000  0.42040100  1
  O  O30  1  0.37399100  0.70275200  0.21461900  1
  O  O31  1  0.03871600  0.12287600  0.81031300  1
loop_
_geom_bond_atom_site_label_1
_geom_bond_atom_site_label_2
_geom_bond_distance
_geom_bond_site_symmetry_2
Mg0 O16 2.035679 1_555
Mg0 O15 2.059202 1_555
Mg0 O4 2.070963 1_554
Mg0 O3 2.110877 1_565
Mg0 O23 2.116064 1_555
Mg0 O24 2.358742 1_654
Mg1 O31 2.035679 1_555
Mg1 O25 2.059202 1_555
Mg1 O22 2.070963 1_556
Mg1 O24 2.110877 1_545
Mg1 O28 2.116064 1_555
Mg1 O3 2.358742 1_456
Mg2 O13 2.035679 1_555
Mg2 O29 2.059202 1_555
Mg2 O5 2.070963 1_555
Mg2 O2 2.110877 1_545
Mg2 O12 2.116064 1_555
Mg2 O19 2.358742 1_555
Mg3 O18 2.035679 1_555
Mg3 O14 2.059202 1_555
Mg3 O0 2.070963 1_555
Mg3 O19 2.110877 1_565
Mg3 O6 2.116064 1_555
Mg3 O2 2.358742 1_555
Cu0 O11 1.893084 1_555
Cu0 O4 1.929769 1_545
Cu0 O10 2.026234 1_555
Cu0 O3 2.125183 1_556
Cu0 O31 2.190355 1_655
Cu1 O1 1.907016 1_555
Cu1 O6 1.944810 1_555
Cu1 O14 1.966306 1_555
Cu1 O9 2.042345 1_655
Cu2 O26 1.907016 1_555
Cu2 O12 1.944810 1_555
Cu2 O29 1.966306 1_555
Cu2 O21 2.042345 1_455
Cu3 O7 1.893084 1_555
Cu3 O22 1.929769 1_565
Cu3 O30 2.026234 1_555
Cu3 O24 2.125183 1_554
Cu3 O16 2.190355 1_455
Cu4 O17 1.893084 1_555
Cu4 O0 1.929769 1_545
Cu4 O21 2.026234 1_555
Cu4 O19 2.125183 1_555
Cu4 O13 2.190355 1_555
Cu5 O20 1.907016 1_555
Cu5 O23 1.944810 1_555
Cu5 O15 1.966306 1_555
Cu5 O30 2.042345 1_555
Cu6 O8 1.893084 1_555
Cu6 O5 1.929769 1_565
Cu6 O9 2.026234 1_555
Cu6 O2 2.125183 1_555
Cu6 O18 2.190355 1_555
Cu7 O27 1.907016 1_555
Cu7 O28 1.944810 1_555
Cu7 O25 1.966306 1_555
Cu7 O10 2.042345 1_555
O0 Sb1 1.919254 1_555
O1 Sb3 1.904624 1_655
O2 Sb5 1.936291 1_555
O3 Sb2 1.936291 1_555
O4 Sb0 1.919254 1_555
O5 Sb3 1.919254 1_555
O6 Sb3 1.926656 1_665
O7 Sb2 1.896783 1_455
O8 Sb6 1.896783 1_555
O9 Sb4 1.967921 1_555
O10 Sb6 1.967921 1_555
O11 Sb4 1.896783 1_655
O12 Sb1 1.926656 1_445
O13 Sb7 1.894685 1_555
O14 Sb6 1.903199 1_555
O15 Sb2 1.903199 1_555
O16 Sb1 1.894685 1_555
O17 Sb5 1.896783 1_555
O18 Sb0 1.894685 1_555
O19 Sb6 1.936291 1_555
O20 Sb7 1.904624 1_555
O21 Sb2 1.967921 1_555
O22 Sb7 1.919254 1_555
O23 Sb7 1.926656 1_565
O24 Sb4 1.936291 1_555
O25 Sb4 1.903199 1_555
O26 Sb1 1.904624 1_455
O27 Sb0 1.904624 1_555
O28 Sb0 1.926656 1_545
O29 Sb5 1.903199 1_555
O30 Sb5 1.967921 1_555
O31 Sb3 1.894685 1_555
