# generated using pymatgen
data_Li12Cu11As12
_symmetry_space_group_name_H-M   'P 1'
_cell_length_a   4.07992060
_cell_length_b   4.07992090
_cell_length_c   35.99458597
_cell_angle_alpha   89.99734299
_cell_angle_beta   89.99730750
_cell_angle_gamma   59.99605915
_symmetry_Int_Tables_number   1
_chemical_formula_structural   Li12Cu11As12
_chemical_formula_sum   'Li12 Cu11 As12'
_cell_volume   518.86457522
_cell_formula_units_Z   1
loop_
 _symmetry_equiv_pos_site_id
 _symmetry_equiv_pos_as_xyz
  1  'x, y, z'
loop_
 _atom_site_type_symbol
 _atom_site_label
 _atom_site_symmetry_multiplicity
 _atom_site_fract_x
 _atom_site_fract_y
 _atom_site_fract_z
 _atom_site_occupancy
  Li  Li0  1  0.99998932  0.99999317  0.13147098  1
  Li  Li1  1  0.00002377  0.00002121  0.38399937  1
  Li  Li2  1  0.00003343  0.00002712  0.63550915  1
  Li  Li3  1  0.99982243  0.99981869  0.88645715  1
  Li  Li4  1  0.00002230  0.00001622  0.04537093  1
  Li  Li5  1  0.00008006  0.00007224  0.29811140  1
  Li  Li6  1  0.00001849  0.00001567  0.55112292  1
  Li  Li7  1  -0.00003147  -0.00003088  0.80147342  1
  Li  Li8  1  0.00002841  0.00002528  0.21296910  1
  Li  Li9  1  0.99988498  0.99988725  0.46631507  1
  Li  Li10  1  0.99980263  0.99977480  0.71718988  1
  Li  Li11  1  0.00010669  0.00010311  0.97048480  1
  Cu  Cu0  1  0.66667447  0.66667105  0.09725824  1
  Cu  Cu1  1  0.66673722  0.66673082  0.35010359  1
  Cu  Cu2  1  0.66665556  0.66665054  0.60300498  1
  Cu  Cu3  1  0.66663706  0.66663887  0.85469980  1
  Cu  Cu4  1  0.33331818  0.33331757  0.17467579  1
  Cu  Cu5  1  0.33329806  0.33330673  0.42630588  1
  Cu  Cu6  1  0.33337453  0.33336728  0.67651298  1
  Cu  Cu7  1  0.33336063  0.33336063  0.93620907  1
  Cu  Cu8  1  0.66669231  0.66668823  0.24548417  1
  Cu  Cu9  1  0.66666394  0.66667452  0.49841598  1
  Cu  Cu10  1  0.66664056  0.66663923  0.74850750  1
  As  As0  1  0.33338484  0.33337089  0.26191635  1
  As  As1  1  0.33333808  0.33338133  0.51497925  1
  As  As2  1  0.33327648  0.33327742  0.76539653  1
  As  As3  1  0.33342134  0.33348899  0.01045742  1
  As  As4  1  0.66660877  0.66660696  0.17064705  1
  As  As5  1  0.66657212  0.66658889  0.42441360  1
  As  As6  1  0.66670371  0.66668711  0.67571847  1
  As  As7  1  0.66667253  0.66667357  0.92346645  1
  As  As8  1  0.33337203  0.33336034  0.07854645  1
  As  As9  1  0.33353911  0.33351881  0.33382956  1
  As  As10  1  0.33327341  0.33326105  0.58632900  1
  As  As11  1  0.33330502  0.33331226  0.83589671  1
loop_
_geom_bond_atom_site_label_1
_geom_bond_atom_site_label_2
_geom_bond_distance
_geom_bond_site_symmetry_2
Cu0 Li0 2.657951 1_545
Cu0 Li0 2.657973 1_455
Cu0 Li0 2.658035 1_555
Cu0 Li4 3.006045 1_565
Cu0 Li4 3.006051 1_655
Cu0 Li4 3.006149 1_665
Cu1 Li1 2.652580 1_665
Cu1 Li1 2.652784 1_655
Cu1 Li1 2.652795 1_565
Cu1 Li5 3.008406 1_565
Cu1 Li5 3.008408 1_655
Cu1 Li5 3.008471 1_665
Cu2 Li2 2.629846 1_565
Cu2 Li2 2.629851 1_655
Cu2 Li2 2.630476 1_665
Cu2 Li6 3.005878 1_655
Cu2 Li6 3.005886 1_565
Cu2 Li6 3.006129 1_665
Cu3 Li3 2.617392 1_555
Cu3 Li3 2.618610 1_455
Cu3 Li3 2.618629 1_545
Cu3 Li7 3.036241 1_665
Cu3 Li7 3.036272 1_565
Cu3 Li7 3.036274 1_655
Cu4 Li8 2.728901 1_555
Cu4 Li8 2.729259 1_565
Cu4 Li8 2.729267 1_655
Cu4 Li0 2.822494 1_545
Cu4 Li0 2.822509 1_455
Cu4 Li0 2.822664 1_445
Cu5 Li9 2.760583 1_455
Cu5 Li9 2.760603 1_545
Cu5 Li9 2.761364 1_445
Cu5 Li1 2.804701 1_555
Cu5 Li1 2.804940 1_565
Cu5 Li1 2.804971 1_655
Cu6 Li10 2.772678 1_455
Cu6 Li10 2.772741 1_545
Cu6 Li10 2.774969 1_445
Cu6 Li2 2.779595 1_655
Cu6 Li2 2.779600 1_565
Cu6 Li2 2.779883 1_555
Cu7 Li11 2.658576 1_555
Cu7 Li11 2.659262 1_565
Cu7 Li11 2.659275 1_655
Cu7 Li3 2.958279 1_455
Cu7 Li3 2.958288 1_545
Cu7 Li3 2.960255 1_445
Cu8 Li8 2.630206 1_655
Cu8 Li8 2.630210 1_565
Cu8 Li8 2.630280 1_665
Cu8 Li5 3.022474 1_565
Cu8 Li5 3.022486 1_655
Cu8 Li5 3.023142 1_665
Cu9 Li9 2.622922 1_555
Cu9 Li9 2.623976 1_455
Cu9 Li9 2.624001 1_545
Cu9 Li6 3.024364 1_565
Cu9 Li6 3.024403 1_655
Cu9 Li6 3.024732 1_665
Cu10 Li10 2.610192 1_555
Cu10 Li10 2.611871 1_455
Cu10 Li10 2.611954 1_545
Cu10 Li7 3.030290 1_655
Cu10 Li7 3.030293 1_565
Cu10 Li7 3.030484 1_665
As0 Cu8 2.428537 1_555
As0 Cu8 2.428646 1_545
As0 Cu8 2.428680 1_455
As0 As9 2.588486 1_555
As0 Li5 2.691612 1_555
As0 Li5 2.691866 1_655
As0 Li5 2.691884 1_565
As0 Li8 2.941360 1_655
As0 Li8 2.941392 1_565
As0 Li8 2.941752 1_555
As1 Cu9 2.429671 1_555
As1 Cu9 2.429771 1_455
As1 Cu9 2.429882 1_545
As1 Li6 2.690782 1_565
As1 Li6 2.690926 1_655
As1 Li6 2.690971 1_555
As1 Li9 2.934880 1_455
As1 Li9 2.934994 1_545
As1 Li9 2.936356 1_445
As2 Cu10 2.432544 1_455
As2 Cu10 2.432551 1_545
As2 Cu10 2.432940 1_555
As2 Li7 2.689596 1_555
As2 Li7 2.689798 1_565
As2 Li7 2.689800 1_655
As2 Li10 2.925057 1_455
As2 Li10 2.925137 1_545
As2 Li10 2.926645 1_445
As3 As8 2.450836 1_555
As3 Li4 2.669320 1_565
As3 Li4 2.669551 1_655
As3 Li4 2.670429 1_555
As3 Cu7 2.672539 1_554
As3 Li11 2.759933 1_564
As3 Li11 2.760146 1_654
As3 Li11 2.760412 1_554
As4 Cu4 2.359736 1_555
As4 Cu4 2.360064 1_655
As4 Cu4 2.360068 1_565
As4 Cu0 2.641600 1_555
As4 Cu8 2.693731 1_555
As4 Li0 2.745159 1_545
As4 Li0 2.745177 1_455
As4 Li0 2.745646 1_555
As4 Li8 2.804844 1_565
As4 Li8 2.804849 1_655
As4 Li8 2.805830 1_665
As5 Cu5 2.356181 1_555
As5 Cu5 2.356617 1_565
As5 Cu5 2.356646 1_655
As5 Cu9 2.663685 1_555
As5 Cu1 2.674758 1_555
As5 Li1 2.768121 1_565
As5 Li1 2.768178 1_655
As5 Li1 2.769149 1_665
As5 Li9 2.796965 1_555
As5 Li9 2.796969 1_455
As5 Li9 2.797014 1_545
As6 Cu6 2.355639 1_655
As6 Cu6 2.355672 1_565
As6 Cu6 2.355700 1_555
As6 Cu2 2.617292 1_555
As6 Cu10 2.620011 1_555
As6 Li2 2.764587 1_655
As6 Li2 2.764619 1_565
As6 Li2 2.764637 1_665
As6 Li10 2.787380 1_555
As6 Li10 2.789291 1_455
As6 Li10 2.789326 1_545
As7 Cu7 2.399660 1_555
As7 Cu7 2.399774 1_565
As7 Cu7 2.399778 1_655
As7 Cu3 2.475227 1_555
As7 Li3 2.704970 1_555
As7 Li3 2.706650 1_455
As7 Li3 2.706663 1_545
As7 Li11 2.900084 1_565
As7 Li11 2.900098 1_655
As7 Li11 2.901164 1_665
As8 Cu0 2.449840 1_555
As8 Cu0 2.449912 1_545
As8 Cu0 2.449940 1_455
As8 Li4 2.640773 1_655
As8 Li4 2.640792 1_565
As8 Li4 2.641123 1_555
As8 Li0 3.029287 1_545
As8 Li0 3.029328 1_455
As8 Li0 3.029640 1_445
As9 Cu1 2.426483 1_555
As9 Cu1 2.427597 1_545
As9 Cu1 2.427644 1_455
As9 Li5 2.683059 1_655
As9 Li5 2.683099 1_565
As9 Li5 2.684405 1_555
As9 Li1 2.967560 1_655
As9 Li1 2.967608 1_565
As9 Li1 2.969036 1_555
As10 Cu2 2.430520 1_545
As10 Cu2 2.430545 1_455
As10 Cu2 2.431255 1_555
As10 Li6 2.674364 1_555
As10 Li6 2.674912 1_655
As10 Li6 2.674943 1_565
As10 Li2 2.945984 1_555
As10 Li2 2.946795 1_655
As10 Li2 2.946811 1_565
As11 Cu3 2.450744 1_455
As11 Cu3 2.450764 1_545
As11 Cu3 2.450901 1_555
As11 As2 2.537625 1_555
As11 Li7 2.661405 1_565
As11 Li7 2.661425 1_655
As11 Li7 2.661688 1_555
As11 Li3 2.976197 1_455
As11 Li3 2.976229 1_545
As11 Li3 2.977506 1_445
