# generated using pymatgen
data_K2BaV2ClO7
_symmetry_space_group_name_H-M   'P 1'
_cell_length_a   5.90223796
_cell_length_b   5.90223796
_cell_length_c   15.40027700
_cell_angle_alpha   90.00000000
_cell_angle_beta   90.00000000
_cell_angle_gamma   119.99999954
_symmetry_Int_Tables_number   1
_chemical_formula_structural   K2BaV2ClO7
_chemical_formula_sum   'K4 Ba2 V4 Cl2 O14'
_cell_volume   464.61432501
_cell_formula_units_Z   2
loop_
 _symmetry_equiv_pos_site_id
 _symmetry_equiv_pos_as_xyz
  1  'x, y, z'
loop_
 _atom_site_type_symbol
 _atom_site_label
 _atom_site_symmetry_multiplicity
 _atom_site_fract_x
 _atom_site_fract_y
 _atom_site_fract_z
 _atom_site_occupancy
  K  K0  1  0.33333300  0.66666700  0.54576900  1
  K  K1  1  0.66666700  0.33333300  0.45423100  1
  K  K2  1  0.66666700  0.33333300  0.04576900  1
  K  K3  1  0.33333300  0.66666700  0.95423100  1
  Ba  Ba0  1  0.33333300  0.66666700  0.25000000  1
  Ba  Ba1  1  0.66666700  0.33333300  0.75000000  1
  V  V0  1  0.00000000  0.00000000  0.13170400  1
  V  V1  1  0.00000000  0.00000000  0.86829600  1
  V  V2  1  0.00000000  0.00000000  0.63170400  1
  V  V3  1  0.00000000  0.00000000  0.36829600  1
  Cl  Cl0  1  0.33333300  0.66666700  0.75000000  1
  Cl  Cl1  1  0.66666700  0.33333300  0.25000000  1
  O  O0  1  0.00000000  0.00000000  0.25000000  1
  O  O1  1  0.00000000  0.00000000  0.75000000  1
  O  O2  1  0.15892300  0.31784600  0.09638700  1
  O  O3  1  0.84107700  0.68215400  0.90361300  1
  O  O4  1  0.68215400  0.84107700  0.09638700  1
  O  O5  1  0.84107700  0.68215400  0.59638700  1
  O  O6  1  0.31784600  0.15892300  0.90361300  1
  O  O7  1  0.15892300  0.31784600  0.40361300  1
  O  O8  1  0.15892300  0.84107700  0.09638700  1
  O  O9  1  0.31784600  0.15892300  0.59638700  1
  O  O10  1  0.84107700  0.15892300  0.90361300  1
  O  O11  1  0.68215400  0.84107700  0.40361300  1
  O  O12  1  0.84107700  0.15892300  0.59638700  1
  O  O13  1  0.15892300  0.84107700  0.40361300  1
loop_
_geom_bond_atom_site_label_1
_geom_bond_atom_site_label_2
_geom_bond_distance
_geom_bond_site_symmetry_2
K0 O13 2.823443 1_555
K0 O7 2.823446 1_555
K0 O11 2.823446 1_555
K0 O9 3.053362 1_565
K0 O5 3.053362 1_455
K0 O12 3.053365 1_565
K0 O12 3.053365 1_455
K0 O5 3.053368 1_555
K0 O9 3.053368 1_555
K1 O12 2.823443 1_555
K1 O9 2.823446 1_555
K1 O5 2.823446 1_555
K1 O7 3.053362 1_655
K1 O11 3.053362 1_545
K1 O13 3.053365 1_655
K1 O13 3.053365 1_545
K1 O11 3.053368 1_555
K1 O7 3.053368 1_555
K2 O10 2.823443 1_554
K2 O6 2.823446 1_554
K2 O3 2.823446 1_554
K2 O2 3.053362 1_655
K2 O4 3.053362 1_545
K2 O8 3.053365 1_655
K2 O8 3.053365 1_545
K2 O4 3.053368 1_555
K2 O2 3.053368 1_555
K3 O8 2.823443 1_556
K3 O2 2.823446 1_556
K3 O4 2.823446 1_556
K3 O6 3.053362 1_565
K3 O3 3.053362 1_455
K3 O10 3.053365 1_565
K3 O10 3.053365 1_455
K3 O3 3.053368 1_555
K3 O6 3.053368 1_555
Ba0 O8 2.962348 1_555
Ba0 O13 2.962348 1_555
Ba0 O7 2.962351 1_555
Ba0 O2 2.962351 1_555
Ba0 O11 2.962351 1_555
Ba0 O4 2.962351 1_555
Ba0 O0 3.407655 1_565
Ba0 Cl1 3.407655 1_455
Ba0 Cl1 3.407655 1_565
Ba0 O0 3.407660 1_665
Ba0 O0 3.407660 1_555
Ba0 Cl1 3.407665 1_555
Ba1 O12 2.962348 1_555
Ba1 O10 2.962348 1_555
Ba1 O9 2.962351 1_555
Ba1 O6 2.962351 1_555
Ba1 O3 2.962351 1_555
Ba1 O5 2.962351 1_555
Ba1 O1 3.407655 1_655
Ba1 Cl0 3.407655 1_545
Ba1 Cl0 3.407655 1_655
Ba1 O1 3.407660 1_555
Ba1 O1 3.407660 1_665
Ba1 Cl0 3.407665 1_555
Cl0 K3 3.145214 1_555
Cl0 K0 3.145214 1_555
Cl1 K1 3.145214 1_555
Cl1 K2 3.145214 1_555
O0 V3 1.821791 1_555
O0 V0 1.821791 1_555
O1 V2 1.821791 1_555
O1 V1 1.821791 1_555
O2 V0 1.713289 1_555
O3 V1 1.713289 1_665
O4 V0 1.713289 1_665
O5 V2 1.713289 1_665
O6 V1 1.713289 1_555
O7 V3 1.713289 1_555
O8 V0 1.713289 1_565
O9 V2 1.713289 1_555
O10 V1 1.713289 1_655
O11 V3 1.713289 1_665
O12 V2 1.713289 1_655
O13 V3 1.713289 1_565
