# generated using pymatgen
data_Sr3ErRhO6
_symmetry_space_group_name_H-M   'P 1'
_cell_length_a   6.84441015
_cell_length_b   6.84441015
_cell_length_c   6.84441013
_cell_angle_alpha   92.22870076
_cell_angle_beta   92.22870076
_cell_angle_gamma   92.22870421
_symmetry_Int_Tables_number   1
_chemical_formula_structural   Sr3ErRhO6
_chemical_formula_sum   'Sr6 Er2 Rh2 O12'
_cell_volume   319.88582699
_cell_formula_units_Z   2
loop_
 _symmetry_equiv_pos_site_id
 _symmetry_equiv_pos_as_xyz
  1  'x, y, z'
loop_
 _atom_site_type_symbol
 _atom_site_label
 _atom_site_symmetry_multiplicity
 _atom_site_fract_x
 _atom_site_fract_y
 _atom_site_fract_z
 _atom_site_occupancy
  Sr  Sr0  1  0.88129300  0.61870700  0.25000000  1
  Sr  Sr1  1  0.61870700  0.25000000  0.88129300  1
  Sr  Sr2  1  0.25000000  0.88129300  0.61870700  1
  Sr  Sr3  1  0.11870700  0.38129300  0.75000000  1
  Sr  Sr4  1  0.75000000  0.11870700  0.38129300  1
  Sr  Sr5  1  0.38129300  0.75000000  0.11870700  1
  Er  Er0  1  0.75000000  0.75000000  0.75000000  1
  Er  Er1  1  0.25000000  0.25000000  0.25000000  1
  Rh  Rh0  1  0.50000000  0.50000000  0.50000000  1
  Rh  Rh1  1  0.00000000  0.00000000  0.00000000  1
  O  O0  1  0.59249800  0.79213000  0.45797700  1
  O  O1  1  0.45797700  0.59249800  0.79213000  1
  O  O2  1  0.79213000  0.45797700  0.59249800  1
  O  O3  1  0.90750200  0.04202300  0.70787000  1
  O  O4  1  0.70787000  0.90750200  0.04202300  1
  O  O5  1  0.04202300  0.70787000  0.90750200  1
  O  O6  1  0.40750200  0.20787000  0.54202300  1
  O  O7  1  0.54202300  0.40750200  0.20787000  1
  O  O8  1  0.20787000  0.54202300  0.40750200  1
  O  O9  1  0.09249800  0.95797700  0.29213000  1
  O  O10  1  0.95797700  0.29213000  0.09249800  1
  O  O11  1  0.29213000  0.09249800  0.95797700  1
loop_
_geom_bond_atom_site_label_1
_geom_bond_atom_site_label_2
_geom_bond_distance
_geom_bond_site_symmetry_2
Er0 O1 2.267504 1_555
Er0 O3 2.267504 1_565
Er0 O4 2.267504 1_556
Er0 O0 2.267504 1_555
Er0 O5 2.267504 1_655
Er0 O2 2.267504 1_555
Er1 O7 2.267504 1_555
Er1 O9 2.267504 1_545
Er1 O6 2.267504 1_555
Er1 O11 2.267504 1_554
Er1 O10 2.267504 1_455
Er1 O8 2.267504 1_555
O0 Rh0 2.107559 1_555
O0 Sr4 2.526194 1_565
O0 Sr5 2.686897 1_555
O0 Sr2 2.708789 1_555
O0 Sr0 2.759020 1_555
O1 Rh0 2.107559 1_555
O1 Sr5 2.526194 1_556
O1 Sr3 2.686897 1_555
O1 Sr1 2.708789 1_555
O1 Sr2 2.759020 1_555
O2 Rh0 2.107559 1_555
O2 Sr3 2.526194 1_655
O2 Sr4 2.686897 1_555
O2 Sr0 2.708789 1_555
O2 Sr1 2.759020 1_555
O3 Rh1 2.107559 1_656
O3 Sr4 2.526194 1_555
O3 Sr3 2.686897 1_655
O3 Sr2 2.708789 1_645
O3 Sr1 2.759020 1_555
O4 Rh1 2.107559 1_665
O4 Sr5 2.526194 1_555
O4 Sr4 2.686897 1_565
O4 Sr1 2.708789 1_564
O4 Sr0 2.759020 1_555
O5 Rh1 2.107559 1_566
O5 Sr3 2.526194 1_555
O5 Sr5 2.686897 1_556
O5 Sr0 2.708789 1_456
O5 Sr2 2.759020 1_555
O6 Rh0 2.107559 1_555
O6 Sr2 2.526194 1_545
O6 Sr1 2.686897 1_555
O6 Sr4 2.708789 1_555
O6 Sr3 2.759020 1_555
O7 Rh0 2.107559 1_555
O7 Sr1 2.526194 1_554
O7 Sr0 2.686897 1_555
O7 Sr5 2.708789 1_555
O7 Sr4 2.759020 1_555
O8 Rh0 2.107559 1_555
O8 Sr0 2.526194 1_455
O8 Sr2 2.686897 1_555
O8 Sr3 2.708789 1_555
O8 Sr5 2.759020 1_555
O9 Rh1 2.107559 1_565
O9 Sr2 2.526194 1_555
O9 Sr0 2.686897 1_455
O9 Sr4 2.708789 1_465
O9 Sr5 2.759020 1_555
O10 Rh1 2.107559 1_655
O10 Sr0 2.526194 1_555
O10 Sr1 2.686897 1_554
O10 Sr3 2.708789 1_654
O10 Sr4 2.759020 1_555
O11 Rh1 2.107559 1_556
O11 Sr1 2.526194 1_555
O11 Sr2 2.686897 1_545
O11 Sr5 2.708789 1_546
O11 Sr3 2.759020 1_555
