# generated using pymatgen
data_Zn(GaS2)2
_symmetry_space_group_name_H-M   'P 1'
_cell_length_a   6.39455476
_cell_length_b   12.47526264
_cell_length_c   13.03950224
_cell_angle_alpha   115.35860598
_cell_angle_beta   98.48170879
_cell_angle_gamma   101.78556602
_symmetry_Int_Tables_number   1
_chemical_formula_structural   Zn(GaS2)2
_chemical_formula_sum   'Zn6 Ga12 S24'
_cell_volume   887.10918703
_cell_formula_units_Z   6
loop_
 _symmetry_equiv_pos_site_id
 _symmetry_equiv_pos_as_xyz
  1  'x, y, z'
loop_
 _atom_site_type_symbol
 _atom_site_label
 _atom_site_symmetry_multiplicity
 _atom_site_fract_x
 _atom_site_fract_y
 _atom_site_fract_z
 _atom_site_occupancy
  Zn  Zn0  1  0.12447900  0.87447900  0.74895900  1
  Zn  Zn1  1  0.87552100  0.12552100  0.25104100  1
  Zn  Zn2  1  0.29353900  0.04353900  0.08707900  1
  Zn  Zn3  1  0.70646100  0.95646100  0.91292100  1
  Zn  Zn4  1  0.46497700  0.21497600  0.42995300  1
  Zn  Zn5  1  0.53502300  0.78502300  0.57004700  1
  Ga  Ga0  1  0.53379200  0.16024400  0.74644900  1
  Ga  Ga1  1  0.71265700  0.58620500  0.74644900  1
  Ga  Ga2  1  0.46620800  0.83975600  0.25355100  1
  Ga  Ga3  1  0.28734300  0.41379500  0.25355100  1
  Ga  Ga4  1  0.70122700  0.32424000  0.08151100  1
  Ga  Ga5  1  0.88028500  0.75727100  0.08151100  1
  Ga  Ga6  1  0.29877300  0.67576000  0.91848900  1
  Ga  Ga7  1  0.11971500  0.24272900  0.91848900  1
  Ga  Ga8  1  0.86093600  0.51457100  0.40506100  1
  Ga  Ga9  1  0.04412500  0.89049000  0.40506100  1
  Ga  Ga10  1  0.13906400  0.48542900  0.59493900  1
  Ga  Ga11  1  0.95587500  0.10951000  0.59493900  1
  S  S0  1  0.48404300  0.96978500  0.73622900  1
  S  S1  1  0.75218600  0.76644400  0.73622900  1
  S  S2  1  0.51595700  0.03021500  0.26377100  1
  S  S3  1  0.24781400  0.23355600  0.26377100  1
  S  S4  1  0.65992700  0.14552600  0.08641800  1
  S  S5  1  0.92649100  0.94089200  0.08641800  1
  S  S6  1  0.34007300  0.85447400  0.91358200  1
  S  S7  1  0.07350900  0.05910800  0.91358200  1
  S  S8  1  0.84645500  0.34152000  0.43253000  1
  S  S9  1  0.08607400  0.09101000  0.43253000  1
  S  S10  1  0.15354500  0.65848000  0.56747000  1
  S  S11  1  0.91392600  0.90899000  0.56747000  1
  S  S12  1  0.98354900  0.48890900  0.23725800  1
  S  S13  1  0.75370900  0.74835000  0.23725800  1
  S  S14  1  0.01645100  0.51109100  0.76274200  1
  S  S15  1  0.24629100  0.25165000  0.76274200  1
  S  S16  1  0.81425500  0.31892100  0.91725700  1
  S  S17  1  0.60300200  0.59833600  0.91725700  1
  S  S18  1  0.18574500  0.68107900  0.08274300  1
  S  S19  1  0.39699800  0.40166400  0.08274300  1
  S  S20  1  0.66019600  0.18010400  0.59920800  1
  S  S21  1  0.43901200  0.41910400  0.59920800  1
  S  S22  1  0.33980400  0.81989600  0.40079200  1
  S  S23  1  0.56098800  0.58089600  0.40079200  1
loop_
_geom_bond_atom_site_label_1
_geom_bond_atom_site_label_2
_geom_bond_distance
_geom_bond_site_symmetry_2
Ga0 S0 2.274195 1_545
Ga0 S20 2.276921 1_555
Ga0 S15 2.342946 1_555
Ga0 S16 2.385487 1_555
Ga1 S1 2.274195 1_555
Ga1 S21 2.276921 1_555
Ga1 S14 2.342954 1_655
Ga1 S17 2.385487 1_555
Ga2 S2 2.274195 1_565
Ga2 S22 2.276921 1_555
Ga2 S13 2.342946 1_555
Ga2 S18 2.385487 1_555
Ga3 S3 2.274195 1_555
Ga3 S23 2.276921 1_555
Ga3 S12 2.342954 1_455
Ga3 S19 2.385487 1_555
Ga4 S4 2.220626 1_555
Ga4 S12 2.331012 1_555
Ga4 S16 2.338494 1_554
Ga4 S19 2.341222 1_555
Ga5 S5 2.220627 1_555
Ga5 S13 2.331011 1_555
Ga5 S17 2.338497 1_554
Ga5 S18 2.341216 1_655
Ga6 S6 2.220626 1_555
Ga6 S14 2.331012 1_555
Ga6 S18 2.338494 1_556
Ga6 S17 2.341222 1_555
Ga7 S7 2.220627 1_555
Ga7 S15 2.331011 1_555
Ga7 S19 2.338497 1_556
Ga7 S16 2.341216 1_455
Ga8 S23 2.241168 1_555
Ga8 S8 2.321207 1_555
Ga8 S10 2.326195 1_655
Ga8 S12 2.348077 1_555
Ga9 S22 2.241168 1_555
Ga9 S9 2.321208 1_565
Ga9 S11 2.326192 1_455
Ga9 S13 2.348075 1_455
Ga10 S21 2.241168 1_555
Ga10 S10 2.321207 1_555
Ga10 S8 2.326195 1_455
Ga10 S14 2.348077 1_555
Ga11 S20 2.241168 1_555
Ga11 S11 2.321208 1_545
Ga11 S9 2.326192 1_655
Ga11 S15 2.348075 1_655
S0 Zn0 2.427481 1_555
S0 Zn5 2.520266 1_555
S0 Zn3 2.610890 1_555
S1 Zn0 2.427471 1_655
S1 Zn5 2.520262 1_555
S1 Zn3 2.610894 1_555
S2 Zn1 2.427481 1_555
S2 Zn4 2.520259 1_555
S2 Zn2 2.610890 1_555
S3 Zn1 2.427471 1_455
S3 Zn4 2.520269 1_555
S3 Zn2 2.610894 1_555
S4 Zn2 2.430153 1_555
S4 Zn1 2.509433 1_555
S4 Zn3 2.585430 1_544
S5 Zn2 2.430143 1_665
S5 Zn1 2.509437 1_565
S5 Zn3 2.585434 1_554
S6 Zn3 2.430153 1_555
S6 Zn0 2.509433 1_555
S6 Zn2 2.585430 1_566
S7 Zn3 2.430143 1_445
S7 Zn0 2.509437 1_545
S7 Zn2 2.585434 1_556
S8 Zn4 2.607906 1_555
S8 Zn1 2.787144 1_555
S9 Zn4 2.607911 1_555
S9 Zn1 2.787147 1_455
S10 Zn5 2.607901 1_555
S10 Zn0 2.787144 1_555
S11 Zn5 2.607916 1_555
S11 Zn0 2.787147 1_655
S20 Zn4 2.617251 1_555
S21 Zn4 2.617261 1_555
S22 Zn5 2.617259 1_555
S23 Zn5 2.617253 1_555
