# generated using pymatgen
data_Ca2PrGaCu2O7
_symmetry_space_group_name_H-M   'P 1'
_cell_length_a   11.76488873
_cell_length_b   11.76488873
_cell_length_c   11.76488873
_cell_angle_alpha   153.26066622
_cell_angle_beta   152.40776876
_cell_angle_gamma   38.80080984
_symmetry_Int_Tables_number   1
_chemical_formula_structural   Ca2PrGaCu2O7
_chemical_formula_sum   'Ca4 Pr2 Ga2 Cu4 O14'
_cell_volume   338.77830759
_cell_formula_units_Z   2
loop_
 _symmetry_equiv_pos_site_id
 _symmetry_equiv_pos_as_xyz
  1  'x, y, z'
loop_
 _atom_site_type_symbol
 _atom_site_label
 _atom_site_symmetry_multiplicity
 _atom_site_fract_x
 _atom_site_fract_y
 _atom_site_fract_z
 _atom_site_occupancy
  Ca  Ca0  1  0.69720400  0.62093100  0.00919400  1
  Ca  Ca1  1  0.30279600  0.31199100  0.92372800  1
  Ca  Ca2  1  0.11173700  0.12093100  0.92372800  1
  Ca  Ca3  1  0.88826300  0.81199100  0.00919400  1
  Pr  Pr0  1  0.00000000  0.99438700  0.99438700  1
  Pr  Pr1  1  0.50000000  0.49438700  0.99438700  1
  Ga  Ga0  1  0.32286600  0.69533300  0.51820000  1
  Ga  Ga1  1  0.67713400  0.19533300  0.37246700  1
  Cu  Cu0  1  0.57612100  0.07229600  0.48809400  1
  Cu  Cu1  1  0.42387900  0.91197300  0.49617600  1
  Cu  Cu2  1  0.08420200  0.57229600  0.49617600  1
  Cu  Cu3  1  0.91579800  0.41197300  0.48809400  1
  O  O0  1  0.36450000  0.34215700  0.20665700  1
  O  O1  1  0.63550000  0.84215700  0.97765700  1
  O  O2  1  0.74775000  0.21968000  0.60864200  1
  O  O3  1  0.25225000  0.86089200  0.47193000  1
  O  O4  1  0.11103800  0.71968000  0.47193000  1
  O  O5  1  0.88896200  0.36089200  0.60864200  1
  O  O6  1  0.81705800  0.81210800  0.49016200  1
  O  O7  1  0.18294200  0.67310400  0.99505000  1
  O  O8  1  0.82194600  0.31210800  0.99505000  1
  O  O9  1  0.17805400  0.17310400  0.49016200  1
  O  O10  1  0.32484700  0.31780400  0.49618900  1
  O  O11  1  0.67515300  0.17134200  0.99295700  1
  O  O12  1  0.32161500  0.81780400  0.99295700  1
  O  O13  1  0.67838500  0.67134200  0.49618900  1
loop_
_geom_bond_atom_site_label_1
_geom_bond_atom_site_label_2
_geom_bond_distance
_geom_bond_site_symmetry_2
Ca0 O4 2.286780 1_655
Ca0 O2 2.388151 1_554
Ca0 O1 2.396071 1_554
Ca0 O8 2.534599 1_554
Ca0 O6 2.671026 1_555
Ca0 O10 2.715989 1_554
Ca0 O12 2.875480 1_554
Ca1 O5 2.286779 1_455
Ca1 O3 2.388156 1_545
Ca1 O0 2.396070 1_556
Ca1 O9 2.534602 1_555
Ca1 O7 2.671023 1_555
Ca1 O11 2.715992 1_555
Ca1 O13 2.875477 1_556
Ca2 O2 2.286785 1_455
Ca2 O4 2.388156 1_545
Ca2 O0 2.396079 1_556
Ca2 O6 2.534594 1_445
Ca2 O8 2.671018 1_455
Ca2 O12 2.715981 1_545
Ca2 O10 2.875470 1_556
Ca3 O3 2.286785 1_655
Ca3 O5 2.388156 1_554
Ca3 O1 2.396079 1_554
Ca3 O7 2.534594 1_654
Ca3 O9 2.671018 1_665
Ca3 O13 2.715981 1_554
Ca3 O11 2.875470 1_564
Ga0 O4 1.830385 1_555
Ga0 O3 1.830404 1_555
Ga0 O1 1.927543 1_555
Ga0 O0 1.935731 1_555
Ga1 O5 1.830395 1_555
Ga1 O2 1.830395 1_555
Ga1 O0 1.927547 1_555
Ga1 O1 1.935729 1_544
Cu0 O12 1.941060 1_544
Cu0 O10 1.946752 1_555
Cu0 O6 1.972856 1_545
Cu0 O8 1.996074 1_555
Cu0 O2 2.254765 1_555
Cu1 O13 1.941061 1_555
Cu1 O11 1.946749 1_565
Cu1 O7 1.972861 1_554
Cu1 O9 1.996075 1_565
Cu1 O3 2.254755 1_555
Cu2 O10 1.941059 1_555
Cu2 O12 1.946747 1_555
Cu2 O8 1.972859 1_454
Cu2 O6 1.996073 1_455
Cu2 O4 2.254776 1_555
Cu3 O11 1.941060 1_554
Cu3 O13 1.946752 1_555
Cu3 O9 1.972856 1_655
Cu3 O7 1.996074 1_655
Cu3 O5 2.254765 1_555
O6 Pr1 2.476437 1_554
O6 Pr0 2.502481 1_655
O7 Pr1 2.476437 1_555
O7 Pr0 2.502481 1_555
O8 Pr0 2.476437 1_645
O8 Pr1 2.502481 1_555
O9 Pr0 2.476437 1_544
O9 Pr1 2.502481 1_555
O10 Pr1 2.536011 1_555
O10 Pr0 2.547104 1_544
O11 Pr1 2.536011 1_555
O11 Pr0 2.547104 1_645
O12 Pr0 2.536011 1_555
O12 Pr1 2.547104 1_555
O13 Pr0 2.536011 1_655
O13 Pr1 2.547104 1_554
