# generated using pymatgen
data_LuFe5P3
_symmetry_space_group_name_H-M   'P 1'
_cell_length_a   3.63126200
_cell_length_b   10.21477800
_cell_length_c   11.74761700
_cell_angle_alpha   90.00000000
_cell_angle_beta   90.00000000
_cell_angle_gamma   90.00000000
_symmetry_Int_Tables_number   1
_chemical_formula_structural   LuFe5P3
_chemical_formula_sum   'Lu4 Fe20 P12'
_cell_volume   435.74889697
_cell_formula_units_Z   4
loop_
 _symmetry_equiv_pos_site_id
 _symmetry_equiv_pos_as_xyz
  1  'x, y, z'
loop_
 _atom_site_type_symbol
 _atom_site_label
 _atom_site_symmetry_multiplicity
 _atom_site_fract_x
 _atom_site_fract_y
 _atom_site_fract_z
 _atom_site_occupancy
  Lu  Lu0  1  0.25000000  0.58158200  0.70520000  1
  Lu  Lu1  1  0.25000000  0.91841800  0.20520000  1
  Lu  Lu2  1  0.75000000  0.41841800  0.29480000  1
  Lu  Lu3  1  0.75000000  0.08158200  0.79480000  1
  Fe  Fe0  1  0.25000000  0.70758200  0.98744700  1
  Fe  Fe1  1  0.25000000  0.79241800  0.48744700  1
  Fe  Fe2  1  0.75000000  0.29241800  0.01255300  1
  Fe  Fe3  1  0.75000000  0.20758200  0.51255300  1
  Fe  Fe4  1  0.25000000  0.40588900  0.48969800  1
  Fe  Fe5  1  0.25000000  0.09411100  0.98969800  1
  Fe  Fe6  1  0.75000000  0.59411100  0.51030200  1
  Fe  Fe7  1  0.75000000  0.90588900  0.01030200  1
  Fe  Fe8  1  0.25000000  0.21945800  0.17670900  1
  Fe  Fe9  1  0.25000000  0.28054200  0.67670900  1
  Fe  Fe10  1  0.75000000  0.78054200  0.82329100  1
  Fe  Fe11  1  0.75000000  0.71945800  0.32329100  1
  Fe  Fe12  1  0.25000000  0.87745300  0.69995000  1
  Fe  Fe13  1  0.25000000  0.62254700  0.19995000  1
  Fe  Fe14  1  0.75000000  0.12254700  0.30005000  1
  Fe  Fe15  1  0.75000000  0.37745300  0.80005000  1
  Fe  Fe16  1  0.25000000  0.46330200  0.93292500  1
  Fe  Fe17  1  0.25000000  0.03669800  0.43292500  1
  Fe  Fe18  1  0.75000000  0.53669800  0.06707500  1
  Fe  Fe19  1  0.75000000  0.96330200  0.56707500  1
  P  P0  1  0.25000000  0.42107500  0.11376600  1
  P  P1  1  0.25000000  0.07892500  0.61376600  1
  P  P2  1  0.75000000  0.57892500  0.88623400  1
  P  P3  1  0.75000000  0.92107500  0.38623400  1
  P  P4  1  0.25000000  0.26498100  0.87063500  1
  P  P5  1  0.25000000  0.23501900  0.37063500  1
  P  P6  1  0.75000000  0.73501900  0.12936500  1
  P  P7  1  0.75000000  0.76498100  0.62936500  1
  P  P8  1  0.25000000  0.60005200  0.39373100  1
  P  P9  1  0.25000000  0.89994800  0.89373100  1
  P  P10  1  0.75000000  0.39994800  0.60626900  1
  P  P11  1  0.75000000  0.10005200  0.10626900  1
loop_
_geom_bond_atom_site_label_1
_geom_bond_atom_site_label_2
_geom_bond_distance
_geom_bond_site_symmetry_2
Lu0 P7 2.756762 1_455
Lu0 P7 2.756762 1_555
Lu0 P2 2.796459 1_455
Lu0 P2 2.796459 1_555
Lu0 P10 2.844215 1_555
Lu0 P10 2.844215 1_455
Lu1 P6 2.756762 1_555
Lu1 P6 2.756762 1_455
Lu1 P3 2.796459 1_555
Lu1 P3 2.796459 1_455
Lu1 P11 2.844215 1_465
Lu1 P11 2.844215 1_565
Lu2 P5 2.756762 1_555
Lu2 P5 2.756762 1_655
Lu2 P0 2.796459 1_555
Lu2 P0 2.796459 1_655
Lu2 P8 2.844215 1_655
Lu2 P8 2.844215 1_555
Lu3 P4 2.756762 1_655
Lu3 P4 2.756762 1_555
Lu3 P1 2.796459 1_655
Lu3 P1 2.796459 1_555
Lu3 P9 2.844215 1_545
Lu3 P9 2.844215 1_645
Fe0 P9 2.252376 1_555
Fe0 P6 2.480849 1_556
Fe0 P6 2.480849 1_456
Fe0 P2 2.537202 1_555
Fe0 P2 2.537202 1_455
Fe1 P8 2.252376 1_555
Fe1 P7 2.480849 1_555
Fe1 P7 2.480849 1_455
Fe1 P3 2.537202 1_455
Fe1 P3 2.537202 1_555
Fe2 P11 2.252376 1_555
Fe2 P4 2.480849 1_654
Fe2 P4 2.480849 1_554
Fe2 P0 2.537202 1_655
Fe2 P0 2.537202 1_555
Fe3 P10 2.252376 1_555
Fe3 P5 2.480849 1_655
Fe3 P5 2.480849 1_555
Fe3 P1 2.537202 1_655
Fe3 P1 2.537202 1_555
Fe4 P5 2.236694 1_555
Fe4 P10 2.274982 1_555
Fe4 P10 2.274982 1_455
Fe4 P8 2.281359 1_555
Fe4 Lu2 2.924911 1_555
Fe4 Lu2 2.924911 1_455
Fe4 Lu0 3.103224 1_555
Fe5 P4 2.236694 1_555
Fe5 P11 2.274982 1_456
Fe5 P11 2.274982 1_556
Fe5 P9 2.281359 1_545
Fe5 Lu3 2.924911 1_455
Fe5 Lu3 2.924911 1_555
Fe5 Lu1 3.103224 1_546
Fe6 P7 2.236694 1_555
Fe6 P8 2.274982 1_655
Fe6 P8 2.274982 1_555
Fe6 P10 2.281359 1_555
Fe6 Lu0 2.924911 1_555
Fe6 Lu0 2.924911 1_655
Fe6 Lu2 3.103224 1_555
Fe7 P6 2.236694 1_555
Fe7 P9 2.274982 1_654
Fe7 P9 2.274982 1_554
Fe7 P11 2.281359 1_565
Fe7 Lu1 2.924911 1_655
Fe7 Lu1 2.924911 1_555
Fe7 Lu3 3.103224 1_564
Fe8 P0 2.188192 1_555
Fe8 P5 2.283707 1_555
Fe8 P11 2.338580 1_455
Fe8 P11 2.338580 1_555
Fe8 Lu2 3.058015 1_455
Fe8 Lu2 3.058015 1_555
Fe8 Lu1 3.093218 1_545
Fe9 P1 2.188192 1_555
Fe9 P4 2.283707 1_555
Fe9 P10 2.338580 1_455
Fe9 P10 2.338580 1_555
Fe9 Lu3 3.058015 1_555
Fe9 Lu3 3.058015 1_455
Fe9 Lu0 3.093218 1_555
Fe10 P2 2.188192 1_555
Fe10 P7 2.283707 1_555
Fe10 P9 2.338580 1_555
Fe10 P9 2.338580 1_655
Fe10 Lu0 3.058015 1_555
Fe10 Lu0 3.058015 1_655
Fe10 Lu3 3.093218 1_565
Fe11 P3 2.188192 1_555
Fe11 P6 2.283707 1_555
Fe11 P8 2.338580 1_655
Fe11 P8 2.338580 1_555
Fe11 Lu1 3.058015 1_655
Fe11 Lu1 3.058015 1_555
Fe11 Lu2 3.093218 1_555
Fe12 P9 2.288032 1_555
Fe12 P1 2.293556 1_565
Fe12 P7 2.303045 1_555
Fe12 P7 2.303045 1_455
Fe12 Lu3 2.980918 1_465
Fe12 Lu3 2.980918 1_565
Fe12 Lu0 3.022886 1_555
Fe13 P8 2.288032 1_555
Fe13 P0 2.293556 1_555
Fe13 P6 2.303045 1_455
Fe13 P6 2.303045 1_555
Fe13 Lu2 2.980918 1_455
Fe13 Lu2 2.980918 1_555
Fe13 Lu1 3.022886 1_555
Fe14 P11 2.288032 1_555
Fe14 P3 2.293556 1_545
Fe14 P5 2.303045 1_555
Fe14 P5 2.303045 1_655
Fe14 Lu1 2.980918 1_545
Fe14 Lu1 2.980918 1_645
Fe14 Lu2 3.022886 1_555
Fe15 P10 2.288032 1_555
Fe15 P2 2.293556 1_555
Fe15 P4 2.303045 1_555
Fe15 P4 2.303045 1_655
Fe15 Lu0 2.980918 1_555
Fe15 Lu0 2.980918 1_655
Fe15 Lu3 3.022886 1_555
Fe16 P4 2.153917 1_555
Fe16 P0 2.167797 1_556
Fe16 P2 2.234343 1_555
Fe16 P2 2.234343 1_455
Fe16 Lu0 2.935403 1_555
Fe17 P5 2.153917 1_555
Fe17 P1 2.167797 1_555
Fe17 P3 2.234343 1_445
Fe17 P3 2.234343 1_545
Fe17 Lu1 2.935403 1_545
Fe18 P6 2.153917 1_555
Fe18 P2 2.167797 1_554
Fe18 P0 2.234343 1_555
Fe18 P0 2.234343 1_655
Fe18 Lu2 2.935403 1_555
Fe19 P7 2.153917 1_555
Fe19 P3 2.167797 1_555
Fe19 P1 2.234343 1_565
Fe19 P1 2.234343 1_665
Fe19 Lu3 2.935403 1_565
