# generated using pymatgen
data_Li2Ti2Mn3O10
_symmetry_space_group_name_H-M   'P 1'
_cell_length_a   5.15602021
_cell_length_b   10.10570592
_cell_length_c   8.21016477
_cell_angle_alpha   113.57040246
_cell_angle_beta   97.85012983
_cell_angle_gamma   98.47890582
_symmetry_Int_Tables_number   1
_chemical_formula_structural   Li2Ti2Mn3O10
_chemical_formula_sum   'Li4 Ti4 Mn6 O20'
_cell_volume   378.68670117
_cell_formula_units_Z   2
loop_
 _symmetry_equiv_pos_site_id
 _symmetry_equiv_pos_as_xyz
  1  'x, y, z'
loop_
 _atom_site_type_symbol
 _atom_site_label
 _atom_site_symmetry_multiplicity
 _atom_site_fract_x
 _atom_site_fract_y
 _atom_site_fract_z
 _atom_site_occupancy
  Li  Li0  1  0.23972300  0.45874300  0.40275600  1
  Li  Li1  1  0.23949600  0.95876600  0.40271000  1
  Li  Li2  1  0.76746300  0.03872600  0.59350000  1
  Li  Li3  1  0.76690500  0.53884800  0.59310000  1
  Ti  Ti0  1  0.13050000  0.34281600  0.68159700  1
  Ti  Ti1  1  0.13110800  0.84264800  0.68177900  1
  Ti  Ti2  1  0.86089500  0.15213600  0.32014000  1
  Ti  Ti3  1  0.86129900  0.65225100  0.32022400  1
  Mn  Mn0  1  0.99563100  0.74905800  0.99692100  1
  Mn  Mn1  1  0.69382500  0.94278900  0.89683000  1
  Mn  Mn2  1  0.30390400  0.56038900  0.10495500  1
  Mn  Mn3  1  0.99561800  0.24904900  0.99702600  1
  Mn  Mn4  1  0.69342000  0.44280200  0.89685600  1
  Mn  Mn5  1  0.30423000  0.06056800  0.10502000  1
  O  O0  1  0.00894000  0.04054300  0.85063000  1
  O  O1  1  0.00865300  0.54060400  0.85083400  1
  O  O2  1  0.95451900  0.45786900  0.12550100  1
  O  O3  1  0.95464900  0.95777400  0.12528700  1
  O  O4  1  0.35192900  0.36429900  0.93545400  1
  O  O5  1  0.35222000  0.86438000  0.93552000  1
  O  O6  1  0.64999000  0.13445900  0.06553100  1
  O  O7  1  0.64972800  0.63456700  0.06585500  1
  O  O8  1  0.09496200  0.14546800  0.51712700  1
  O  O9  1  0.09526200  0.64537300  0.51719900  1
  O  O10  1  0.92310600  0.35622300  0.48446000  1
  O  O11  1  0.92387500  0.85618100  0.48480100  1
  O  O12  1  0.17830800  0.24106000  0.21063200  1
  O  O13  1  0.17827400  0.74106400  0.21060300  1
  O  O14  1  0.81793400  0.26457400  0.78252800  1
  O  O15  1  0.81794800  0.76453500  0.78250100  1
  O  O16  1  0.47492800  0.43618500  0.68746800  1
  O  O17  1  0.47526300  0.93623300  0.68761400  1
  O  O18  1  0.55257800  0.06450200  0.34350100  1
  O  O19  1  0.55291800  0.56452000  0.34353700  1
loop_
_geom_bond_atom_site_label_1
_geom_bond_atom_site_label_2
_geom_bond_distance
_geom_bond_site_symmetry_2
Li0 O19 2.026779 1_555
Li0 O9 2.045221 1_555
Li0 O12 2.076222 1_555
Li0 O10 2.131794 1_455
Li0 O2 2.531757 1_455
Li0 O16 2.592306 1_555
Li1 O18 2.026086 1_565
Li1 O8 2.045979 1_565
Li1 O13 2.076426 1_555
Li1 O11 2.130294 1_455
Li1 O3 2.531519 1_455
Li1 O17 2.594588 1_555
Li2 O11 2.041711 1_545
Li2 O17 2.106552 1_545
Li2 O14 2.137087 1_555
Li2 O8 2.168212 1_655
Li2 O0 2.291601 1_655
Li2 O18 2.323745 1_555
Li3 O10 2.041646 1_555
Li3 O16 2.108052 1_555
Li3 O15 2.136324 1_555
Li3 O9 2.168121 1_655
Li3 O1 2.296639 1_655
Li3 O19 2.318369 1_555
Mn0 O13 1.911969 1_656
Mn0 O15 1.945447 1_555
Mn0 O1 1.980848 1_655
Mn0 O3 2.004660 1_556
Mn0 O7 2.242924 1_556
Mn0 O5 2.254742 1_655
Mn1 O17 1.892884 1_555
Mn1 O15 1.920263 1_555
Mn1 O0 1.937591 1_665
Mn1 O5 1.942574 1_555
Mn1 O6 1.946876 1_566
Mn1 O3 2.091253 1_556
Mn2 O13 1.934251 1_555
Mn2 O7 1.949101 1_555
Mn2 O4 1.989513 1_554
Mn2 O2 2.004846 1_455
Mn2 O19 2.172300 1_555
Mn2 O1 2.327964 1_554
Mn3 O12 1.911494 1_656
Mn3 O14 1.946256 1_555
Mn3 O0 1.982176 1_655
Mn3 O2 2.005869 1_556
Mn3 O6 2.240360 1_556
Mn3 O4 2.254046 1_655
Mn4 O16 1.893606 1_555
Mn4 O14 1.921140 1_555
Mn4 O1 1.937546 1_655
Mn4 O4 1.942045 1_555
Mn4 O7 1.948116 1_556
Mn4 O2 2.092864 1_556
Mn5 O12 1.933518 1_555
Mn5 O6 1.949314 1_555
Mn5 O5 1.990171 1_544
Mn5 O3 2.005900 1_445
Mn5 O18 2.170884 1_555
Mn5 O0 2.328881 1_554
O0 Ti1 2.170447 1_545
O1 Ti0 2.169817 1_555
O2 Ti3 2.149971 1_555
O3 Ti2 2.151543 1_565
O4 Ti0 2.146986 1_555
O5 Ti1 2.144623 1_555
O6 Ti2 2.146448 1_555
O7 Ti3 2.145949 1_555
O8 Ti0 1.872234 1_555
O8 Ti2 1.911714 1_455
O9 Ti1 1.871677 1_555
O9 Ti3 1.912349 1_455
O10 Ti0 1.877971 1_655
O10 Ti2 1.907372 1_555
O11 Ti1 1.877164 1_655
O11 Ti3 1.906514 1_555
O12 Ti2 2.215562 1_455
O13 Ti3 2.214011 1_455
O14 Ti0 2.102891 1_655
O15 Ti1 2.103575 1_655
O16 Ti0 1.868818 1_555
O17 Ti1 1.868456 1_555
O18 Ti2 1.775433 1_555
O19 Ti3 1.775942 1_555
