# generated using pymatgen
data_FeCo(BiO3)2
_symmetry_space_group_name_H-M   'P 1'
_cell_length_a   3.76283700
_cell_length_b   3.76283700
_cell_length_c   9.76354100
_cell_angle_alpha   90.00000000
_cell_angle_beta   90.00000000
_cell_angle_gamma   90.00000000
_symmetry_Int_Tables_number   1
_chemical_formula_structural   FeCo(BiO3)2
_chemical_formula_sum   'Fe1 Co1 Bi2 O6'
_cell_volume   138.24141355
_cell_formula_units_Z   1
loop_
 _symmetry_equiv_pos_site_id
 _symmetry_equiv_pos_as_xyz
  1  'x, y, z'
loop_
 _atom_site_type_symbol
 _atom_site_label
 _atom_site_symmetry_multiplicity
 _atom_site_fract_x
 _atom_site_fract_y
 _atom_site_fract_z
 _atom_site_occupancy
  Fe  Fe0  1  0.50000000  0.50000000  0.78773900  1
  Co  Co0  1  0.50000000  0.50000000  0.28600200  1
  Bi  Bi0  1  0.00000000  0.00000000  0.00413800  1
  Bi  Bi1  1  0.00000000  0.00000000  0.49775600  1
  O  O0  1  0.50000000  0.50000000  0.10530900  1
  O  O1  1  0.50000000  0.50000000  0.60095000  1
  O  O2  1  0.00000000  0.50000000  0.36279200  1
  O  O3  1  0.00000000  0.50000000  0.86816100  1
  O  O4  1  0.50000000  0.00000000  0.36279200  1
  O  O5  1  0.50000000  0.00000000  0.86816100  1
loop_
_geom_bond_atom_site_label_1
_geom_bond_atom_site_label_2
_geom_bond_distance
_geom_bond_site_symmetry_2
Fe0 O1 1.823722 1_555
Fe0 O5 2.038696 1_565
Fe0 O3 2.038696 1_555
Fe0 O3 2.038696 1_655
Fe0 O5 2.038696 1_555
Co0 O0 1.764204 1_555
Co0 O2 2.025302 1_555
Co0 O4 2.025302 1_555
Co0 O2 2.025302 1_655
Co0 O4 2.025302 1_565
Bi0 O5 2.302673 1_454
Bi0 O5 2.302673 1_554
Bi0 O3 2.302673 1_554
Bi0 O3 2.302673 1_544
Bi1 O2 2.296985 1_555
Bi1 O4 2.296985 1_455
Bi1 O4 2.296985 1_555
Bi1 O2 2.296985 1_545
