# generated using pymatgen
data_LiMg3
_symmetry_space_group_name_H-M   'P 1'
_cell_length_a   6.96737000
_cell_length_b   6.96737100
_cell_length_c   6.96737100
_cell_angle_alpha   90.00000000
_cell_angle_beta   90.00000000
_cell_angle_gamma   90.00000000
_symmetry_Int_Tables_number   1
_chemical_formula_structural   LiMg3
_chemical_formula_sum   'Li4 Mg12'
_cell_volume   338.22581140
_cell_formula_units_Z   4
loop_
 _symmetry_equiv_pos_site_id
 _symmetry_equiv_pos_as_xyz
  1  'x, y, z'
loop_
 _atom_site_type_symbol
 _atom_site_label
 _atom_site_symmetry_multiplicity
 _atom_site_fract_x
 _atom_site_fract_y
 _atom_site_fract_z
 _atom_site_occupancy
  Li  Li0  1  0.50000000  0.00000000  0.00000000  1
  Li  Li1  1  0.50000000  0.50000000  0.50000000  1
  Li  Li2  1  0.00000000  0.00000000  0.50000000  1
  Li  Li3  1  0.00000000  0.50000000  0.00000000  1
  Mg  Mg0  1  0.00000000  0.00000000  0.00000000  1
  Mg  Mg1  1  0.25000000  0.25000000  0.25000000  1
  Mg  Mg2  1  0.25000000  0.25000000  0.75000000  1
  Mg  Mg3  1  0.00000000  0.50000000  0.50000000  1
  Mg  Mg4  1  0.25000000  0.75000000  0.75000000  1
  Mg  Mg5  1  0.25000000  0.75000000  0.25000000  1
  Mg  Mg6  1  0.50000000  0.00000000  0.50000000  1
  Mg  Mg7  1  0.75000000  0.25000000  0.75000000  1
  Mg  Mg8  1  0.75000000  0.25000000  0.25000000  1
  Mg  Mg9  1  0.50000000  0.50000000  0.00000000  1
  Mg  Mg10  1  0.75000000  0.75000000  0.25000000  1
  Mg  Mg11  1  0.75000000  0.75000000  0.75000000  1
loop_
_geom_bond_atom_site_label_1
_geom_bond_atom_site_label_2
_geom_bond_distance
_geom_bond_site_symmetry_2
Li0 Mg4 3.016960 1_544
Li0 Mg2 3.016960 1_554
Li0 Mg8 3.016960 1_555
Li0 Mg10 3.016960 1_545
Li0 Mg11 3.016960 1_544
Li0 Mg1 3.016960 1_555
Li0 Mg5 3.016960 1_545
Li0 Mg7 3.016960 1_554
Li1 Mg4 3.016960 1_555
Li1 Mg10 3.016960 1_555
Li1 Mg7 3.016960 1_555
Li1 Mg8 3.016960 1_555
Li1 Mg1 3.016960 1_555
Li1 Mg5 3.016960 1_555
Li1 Mg2 3.016960 1_555
Li1 Mg11 3.016960 1_555
Li2 Mg7 3.016960 1_455
Li2 Mg4 3.016960 1_545
Li2 Mg11 3.016960 1_445
Li2 Mg10 3.016960 1_445
Li2 Mg8 3.016960 1_455
Li2 Mg1 3.016960 1_555
Li2 Mg2 3.016960 1_555
Li2 Mg5 3.016960 1_545
Li3 Mg2 3.016960 1_554
Li3 Mg7 3.016960 1_454
Li3 Mg10 3.016960 1_455
Li3 Mg11 3.016960 1_454
Li3 Mg8 3.016960 1_455
Li3 Mg1 3.016960 1_555
Li3 Mg5 3.016960 1_555
Li3 Mg4 3.016960 1_554
Mg0 Mg11 3.016960 1_444
Mg0 Mg2 3.016960 1_554
Mg0 Mg4 3.016960 1_544
Mg0 Mg7 3.016960 1_454
Mg0 Mg10 3.016960 1_445
Mg0 Mg8 3.016960 1_455
Mg0 Mg1 3.016960 1_555
Mg0 Mg5 3.016960 1_545
Mg1 Mg9 3.016960 1_555
Mg1 Mg3 3.016960 1_555
Mg1 Mg6 3.016960 1_555
Mg2 Mg3 3.016960 1_555
Mg2 Mg6 3.016960 1_555
Mg2 Mg9 3.016960 1_556
Mg3 Mg7 3.016960 1_455
Mg3 Mg4 3.016960 1_555
Mg3 Mg8 3.016960 1_455
Mg3 Mg5 3.016960 1_555
Mg4 Mg9 3.016960 1_556
Mg4 Mg6 3.016960 1_565
Mg5 Mg9 3.016960 1_555
Mg5 Mg6 3.016960 1_565
Mg6 Mg7 3.016960 1_555
Mg6 Mg8 3.016960 1_555
Mg7 Mg9 3.016960 1_556
Mg8 Mg9 3.016960 1_555
Mg10 Mg9 3.016960 1_555
Mg10 Mg6 3.016960 1_565
Mg10 Mg3 3.016960 1_655
Mg11 Mg9 3.016960 1_556
Mg11 Mg6 3.016960 1_565
Mg11 Mg3 3.016960 1_655
