# generated using pymatgen
data_LiV6O11F
_symmetry_space_group_name_H-M   'P 1'
_cell_length_a   4.68307311
_cell_length_b   4.71637470
_cell_length_c   8.99882678
_cell_angle_alpha   89.81307799
_cell_angle_beta   90.22458717
_cell_angle_gamma   91.69309327
_symmetry_Int_Tables_number   1
_chemical_formula_structural   LiV6O11F
_chemical_formula_sum   'Li1 V6 O11 F1'
_cell_volume   198.66895176
_cell_formula_units_Z   1
loop_
 _symmetry_equiv_pos_site_id
 _symmetry_equiv_pos_as_xyz
  1  'x, y, z'
loop_
 _atom_site_type_symbol
 _atom_site_label
 _atom_site_symmetry_multiplicity
 _atom_site_fract_x
 _atom_site_fract_y
 _atom_site_fract_z
 _atom_site_occupancy
  Li  Li0  1  0.00444000  0.50341200  0.40702800  1
  V  V0  1  0.01729600  0.98261100  0.01481200  1
  V  V1  1  0.99914000  0.00239600  0.32858000  1
  V  V2  1  0.00650000  0.99319800  0.66171900  1
  V  V3  1  0.52438000  0.47615700  0.16218300  1
  V  V4  1  0.46134300  0.53850200  0.83560300  1
  V  V5  1  0.51044100  0.48865400  0.50756100  1
  O  O0  1  0.20164300  0.79795200  0.15503100  1
  O  O1  1  0.19782000  0.79957000  0.49647400  1
  O  O2  1  0.19531700  0.80365600  0.84018800  1
  O  O3  1  0.30236600  0.30510900  0.99965500  1
  O  O4  1  0.30014200  0.31358300  0.32970700  1
  O  O5  1  0.30166600  0.31068600  0.67060700  1
  O  O6  1  0.69372100  0.69842500  0.99983200  1
  O  O7  1  0.69720400  0.69335700  0.33098400  1
  O  O8  1  0.68971100  0.69702600  0.67058800  1
  O  O9  1  0.80002000  0.20363900  0.16087900  1
  O  O10  1  0.79033500  0.21360600  0.49632200  1
  F  F0  1  0.80651500  0.19234700  0.83938600  1
loop_
_geom_bond_atom_site_label_1
_geom_bond_atom_site_label_2
_geom_bond_distance
_geom_bond_site_symmetry_2
Li0 O4 1.813351 1_555
Li0 O1 1.829184 1_555
Li0 O7 1.845385 1_455
Li0 O10 1.854029 1_455
O0 V0 1.767677 1_555
O0 V1 2.084127 1_465
O0 V3 2.173949 1_555
O1 V2 1.978784 1_555
O1 V1 2.023760 1_465
O1 V5 2.104378 1_555
O2 V4 1.791783 1_555
O2 V0 1.984247 1_556
O2 V2 2.046098 1_555
O3 V3 1.953740 1_556
O3 V4 1.973563 1_555
O3 V0 1.998607 1_546
O4 V3 1.980046 1_555
O4 V1 2.004724 1_455
O4 V5 2.039962 1_555
O5 V5 1.941109 1_555
O5 V4 1.967847 1_555
O5 V2 2.009203 1_545
O6 V3 1.952494 1_556
O6 V4 1.970643 1_555
O6 V0 1.997604 1_656
O7 V3 1.990816 1_555
O7 V1 2.000628 1_565
O7 V5 2.042777 1_555
O8 V5 1.942646 1_555
O8 V4 1.966152 1_555
O8 V2 2.009039 1_655
O9 V3 1.848420 1_555
O9 V0 1.982898 1_645
O9 V1 2.019839 1_555
O10 V5 1.874435 1_555
O10 V1 2.075083 1_555
O10 V2 2.088289 1_645
F0 V2 2.094991 1_645
F0 V0 2.116657 1_646
F0 V4 2.331232 1_555
