# generated using pymatgen
data_Rb5Dy3Br12
_symmetry_space_group_name_H-M   'P 1'
_cell_length_a   4.08214919
_cell_length_b   14.18679750
_cell_length_c   14.18309527
_cell_angle_alpha   120.00881051
_cell_angle_beta   89.99903903
_cell_angle_gamma   89.99933651
_symmetry_Int_Tables_number   1
_chemical_formula_structural   Rb5Dy3Br12
_chemical_formula_sum   'Rb5 Dy3 Br12'
_cell_volume   711.27301171
_cell_formula_units_Z   1
loop_
 _symmetry_equiv_pos_site_id
 _symmetry_equiv_pos_as_xyz
  1  'x, y, z'
loop_
 _atom_site_type_symbol
 _atom_site_label
 _atom_site_symmetry_multiplicity
 _atom_site_fract_x
 _atom_site_fract_y
 _atom_site_fract_z
 _atom_site_occupancy
  Rb  Rb0  1  -0.00005203  0.66653176  0.33323214  1
  Rb  Rb1  1  -0.00004639  0.33316765  0.66661398  1
  Rb  Rb2  1  -0.00004897  0.27445773  0.27448080  1
  Rb  Rb3  1  -0.00002026  -0.00005083  0.72543128  1
  Rb  Rb4  1  -0.00006405  0.72535946  -0.00001347  1
  Dy  Dy0  1  0.49995864  0.66360602  0.66366899  1
  Dy  Dy1  1  0.50001570  -0.00012285  0.33645860  1
  Dy  Dy2  1  0.50010849  0.33675772  -0.00004785  1
  Br  Br0  1  0.99997661  0.80986855  0.80979800  1
  Br  Br1  1  0.00005067  -0.00003816  0.19019334  1
  Br  Br2  1  0.00022706  0.19062709  -0.00002807  1
  Br  Br3  1  -0.00004599  0.52064705  0.52072870  1
  Br  Br4  1  0.00000031  -0.00028375  0.47948216  1
  Br  Br5  1  0.00011467  0.47980704  0.00003760  1
  Br  Br6  1  0.49998167  0.77128683  0.21364699  1
  Br  Br7  1  0.50001127  0.44230326  0.22865554  1
  Br  Br8  1  0.49995374  0.55768816  0.78636509  1
  Br  Br9  1  0.49996365  0.78622362  0.55767257  1
  Br  Br10  1  0.49996727  0.21358175  0.77130077  1
  Br  Br11  1  0.49994695  0.22858292  0.44232383  1
loop_
_geom_bond_atom_site_label_1
_geom_bond_atom_site_label_2
_geom_bond_distance
_geom_bond_site_symmetry_2
Br0 Dy0 2.909444 1_655
Br0 Dy0 2.909630 1_555
Br0 Rb3 3.454164 1_665
Br0 Rb4 3.456672 1_656
Br1 Dy1 2.910595 1_555
Br1 Dy1 2.910747 1_455
Br1 Rb2 3.455060 1_555
Br1 Rb4 3.455722 1_545
Br2 Dy2 2.909044 1_555
Br2 Dy2 2.909690 1_455
Br2 Rb2 3.455614 1_555
Br2 Rb3 3.455940 1_554
Br3 Dy0 2.876852 1_455
Br3 Dy0 2.876961 1_555
Br3 Rb2 3.492133 1_555
Br4 Dy1 2.878434 1_455
Br4 Dy1 2.878475 1_555
Br4 Rb3 3.486668 1_555
Br5 Dy2 2.877819 1_555
Br5 Dy2 2.877888 1_455
Br5 Rb4 3.483965 1_555
Br6 Dy1 2.810800 1_565
Br6 Rb0 3.431047 1_655
Br6 Rb0 3.431198 1_555
Br6 Rb4 3.434770 1_655
Br6 Rb4 3.435061 1_555
Br7 Dy2 2.811674 1_555
Br7 Rb0 3.430003 1_655
Br7 Rb0 3.430237 1_555
Br7 Rb2 3.435908 1_655
Br7 Rb2 3.436220 1_555
Br8 Dy0 2.811022 1_555
Br8 Rb1 3.432889 1_655
Br8 Rb1 3.432968 1_555
Br8 Rb4 3.434391 1_556
Br8 Rb4 3.434398 1_656
Br9 Dy0 2.811047 1_555
Br9 Rb0 3.431497 1_655
Br9 Rb0 3.431660 1_555
Br9 Rb3 3.435682 1_565
Br9 Rb3 3.435849 1_665
Br10 Dy2 2.811063 1_556
Br10 Rb1 3.430486 1_655
Br10 Rb1 3.430558 1_555
Br10 Rb3 3.435473 1_555
Br10 Rb3 3.435479 1_655
Br11 Dy1 2.812273 1_555
Br11 Rb1 3.430077 1_555
Br11 Rb1 3.430193 1_655
Br11 Rb2 3.436005 1_655
Br11 Rb2 3.436023 1_555
