# generated using pymatgen
data_MnSb2(OF4)2
_symmetry_space_group_name_H-M   'P 1'
_cell_length_a   7.64260700
_cell_length_b   7.25204700
_cell_length_c   8.84393641
_cell_angle_alpha   64.19501439
_cell_angle_beta   90.00000000
_cell_angle_gamma   90.00000000
_symmetry_Int_Tables_number   1
_chemical_formula_structural   MnSb2(OF4)2
_chemical_formula_sum   'Mn2 Sb4 O4 F16'
_cell_volume   441.29172508
_cell_formula_units_Z   2
loop_
 _symmetry_equiv_pos_site_id
 _symmetry_equiv_pos_as_xyz
  1  'x, y, z'
loop_
 _atom_site_type_symbol
 _atom_site_label
 _atom_site_symmetry_multiplicity
 _atom_site_fract_x
 _atom_site_fract_y
 _atom_site_fract_z
 _atom_site_occupancy
  Mn  Mn0  1  0.50000000  0.50000000  0.00000000  1
  Mn  Mn1  1  0.00000000  0.50000000  0.50000000  1
  Sb  Sb0  1  0.19905200  0.05675200  0.14245000  1
  Sb  Sb1  1  0.69905200  0.94324800  0.35755000  1
  Sb  Sb2  1  0.80094800  0.94324800  0.85755000  1
  Sb  Sb3  1  0.30094800  0.05675200  0.64245000  1
  O  O0  1  0.42605400  0.56899800  0.15888200  1
  O  O1  1  0.92605400  0.43100200  0.34111800  1
  O  O2  1  0.57394600  0.43100200  0.84111800  1
  O  O3  1  0.07394600  0.56899800  0.65888200  1
  F  F0  1  0.26455200  0.37491000  0.00215400  1
  F  F1  1  0.76455200  0.62509000  0.49784600  1
  F  F2  1  0.73544800  0.62509000  0.99784600  1
  F  F3  1  0.23544800  0.37491000  0.50215400  1
  F  F4  1  0.96210900  0.14694000  0.06110400  1
  F  F5  1  0.46210900  0.85306000  0.43889600  1
  F  F6  1  0.03789100  0.85306000  0.93889600  1
  F  F7  1  0.53789100  0.14694000  0.56110400  1
  F  F8  1  0.16563300  0.14298900  0.32185300  1
  F  F9  1  0.66563300  0.85701100  0.17814700  1
  F  F10  1  0.83436700  0.85701100  0.67814700  1
  F  F11  1  0.33436700  0.14298900  0.82185300  1
  F  F12  1  0.06214400  0.78949500  0.31952500  1
  F  F13  1  0.56214400  0.21050500  0.18047500  1
  F  F14  1  0.93785600  0.21050500  0.68047500  1
  F  F15  1  0.43785600  0.78949500  0.81952500  1
loop_
_geom_bond_atom_site_label_1
_geom_bond_atom_site_label_2
_geom_bond_distance
_geom_bond_site_symmetry_2
Mn0 O2 1.776603 1_554
Mn0 O0 1.776603 1_555
Mn1 O3 1.776603 1_555
Mn1 O1 1.776603 1_455
F0 Mn0 2.011523 1_555
F0 Sb0 2.149719 1_555
F1 Mn1 2.011523 1_655
F1 Sb1 2.149719 1_555
F2 Mn0 2.011523 1_556
F2 Sb2 2.149719 1_555
F3 Mn1 2.011523 1_555
F3 Sb3 2.149719 1_555
F4 Sb0 1.953179 1_655
F5 Sb1 1.953179 1_555
F6 Sb2 1.953179 1_455
F7 Sb3 1.953179 1_555
F8 Sb0 1.958987 1_555
F9 Sb1 1.958987 1_555
F10 Sb2 1.958987 1_555
F11 Sb3 1.958987 1_555
F12 Mn1 2.064793 1_555
F12 Sb0 2.158988 1_565
F13 Mn0 2.064793 1_555
F13 Sb1 2.158988 1_545
F14 Mn1 2.064793 1_655
F14 Sb2 2.158988 1_545
F15 Mn0 2.064793 1_556
F15 Sb3 2.158988 1_565
