# generated using pymatgen
data_NaAuC2
_symmetry_space_group_name_H-M   'P 1'
_cell_length_a   3.81066300
_cell_length_b   3.81066300
_cell_length_c   5.24604400
_cell_angle_alpha   90.00000000
_cell_angle_beta   90.00000000
_cell_angle_gamma   90.00000000
_symmetry_Int_Tables_number   1
_chemical_formula_structural   NaAuC2
_chemical_formula_sum   'Na1 Au1 C2'
_cell_volume   76.17860494
_cell_formula_units_Z   1
loop_
 _symmetry_equiv_pos_site_id
 _symmetry_equiv_pos_as_xyz
  1  'x, y, z'
loop_
 _atom_site_type_symbol
 _atom_site_label
 _atom_site_symmetry_multiplicity
 _atom_site_fract_x
 _atom_site_fract_y
 _atom_site_fract_z
 _atom_site_occupancy
  Na  Na0  1  0.50000000  0.50000000  0.50000000  1
  Au  Au0  1  0.00000000  0.00000000  0.00000000  1
  C  C0  1  0.00000000  0.00000000  0.61894300  1
  C  C1  1  0.00000000  0.00000000  0.38105700  1
loop_
_geom_bond_atom_site_label_1
_geom_bond_atom_site_label_2
_geom_bond_distance
_geom_bond_site_symmetry_2
Au0 C1 1.999042 1_555
Au0 C0 1.999042 1_554
C0 C1 1.247960 1_555
C0 Na0 2.765850 1_555
C0 Na0 2.765850 1_445
C0 Na0 2.765850 1_545
C0 Na0 2.765850 1_455
C1 Na0 2.765850 1_555
C1 Na0 2.765850 1_445
C1 Na0 2.765850 1_545
C1 Na0 2.765850 1_455
