# generated using pymatgen
data_Li7Mn2(CoO4)3
_symmetry_space_group_name_H-M   'P 1'
_cell_length_a   2.91309800
_cell_length_b   8.28289900
_cell_length_c   9.80410317
_cell_angle_alpha   65.60391092
_cell_angle_beta   90.00000000
_cell_angle_gamma   90.00000000
_symmetry_Int_Tables_number   1
_chemical_formula_structural   Li7Mn2(CoO4)3
_chemical_formula_sum   'Li7 Mn2 Co3 O12'
_cell_volume   215.43999195
_cell_formula_units_Z   1
loop_
 _symmetry_equiv_pos_site_id
 _symmetry_equiv_pos_as_xyz
  1  'x, y, z'
loop_
 _atom_site_type_symbol
 _atom_site_label
 _atom_site_symmetry_multiplicity
 _atom_site_fract_x
 _atom_site_fract_y
 _atom_site_fract_z
 _atom_site_occupancy
  Li  Li0  1  0.00000000  0.14540600  0.66962600  1
  Li  Li1  1  0.00000000  0.51945900  0.99284300  1
  Li  Li2  1  0.00000000  0.83604800  0.33715700  1
  Li  Li3  1  0.50000000  0.67250000  0.14884600  1
  Li  Li4  1  0.50000000  0.99328000  0.50682800  1
  Li  Li5  1  0.50000000  0.33254400  0.84210000  1
  Li  Li6  1  0.50000000  0.82796400  0.83578500  1
  Mn  Mn0  1  0.00000000  0.99163200  0.99697000  1
  Mn  Mn1  1  0.50000000  0.49849000  0.50374900  1
  Co  Co0  1  0.00000000  0.32731200  0.33244700  1
  Co  Co1  1  0.00000000  0.68410600  0.67512800  1
  Co  Co2  1  0.50000000  0.17456900  0.16190100  1
  O  O0  1  0.00000000  0.76834800  0.00102600  1
  O  O1  1  0.00000000  0.09796100  0.32563400  1
  O  O2  1  0.00000000  0.43009000  0.64635000  1
  O  O3  1  0.50000000  0.26788600  0.49511400  1
  O  O4  1  0.50000000  0.58341100  0.82016900  1
  O  O5  1  0.50000000  0.92976100  0.14890600  1
  O  O6  1  0.00000000  0.56545100  0.35504500  1
  O  O7  1  0.00000000  0.90646700  0.66003600  1
  O  O8  1  0.00000000  0.23223500  0.00771600  1
  O  O9  1  0.50000000  0.07435900  0.85360700  1
  O  O10  1  0.50000000  0.41186900  0.17795400  1
  O  O11  1  0.50000000  0.72885200  0.50506100  1
loop_
_geom_bond_atom_site_label_1
_geom_bond_atom_site_label_2
_geom_bond_distance
_geom_bond_site_symmetry_2
Li0 O7 2.019758 1_545
Li0 O3 2.155032 1_455
Li0 O3 2.155032 1_555
Li0 O9 2.201035 1_555
Li0 O9 2.201035 1_455
Li0 O2 2.273272 1_555
Li1 O0 2.095933 1_556
Li1 O4 2.127743 1_455
Li1 O4 2.127743 1_555
Li1 O10 2.207562 1_456
Li1 O10 2.207562 1_556
Li1 O8 2.322618 1_556
Li2 O11 2.100544 1_455
Li2 O11 2.100544 1_555
Li2 O1 2.125228 1_565
Li2 O6 2.174763 1_555
Li2 O5 2.224174 1_455
Li2 O5 2.224174 1_555
Li3 O0 1.975262 1_555
Li3 O0 1.975262 1_655
Li3 O10 2.057389 1_555
Li3 O5 2.131110 1_555
Li3 O6 2.348153 1_655
Li3 O6 2.348153 1_555
Li4 O7 2.000638 1_655
Li4 O7 2.000638 1_555
Li4 O1 2.180981 1_665
Li4 O1 2.180981 1_565
Li4 O11 2.197443 1_555
Li4 O3 2.229552 1_565
Li5 O4 1.998711 1_555
Li5 O8 2.081792 1_656
Li5 O8 2.081792 1_556
Li5 O9 2.094444 1_555
Li5 O2 2.275205 1_555
Li5 O2 2.275205 1_655
Li6 O0 2.080639 1_556
Li6 O0 2.080639 1_656
Li6 O4 2.093493 1_555
Li6 O9 2.119019 1_565
Li6 O7 2.141901 1_555
Li6 O7 2.141901 1_655
Mn0 O0 1.833372 1_556
Mn0 O9 1.941909 1_465
Mn0 O9 1.941909 1_565
Mn0 O5 1.993100 1_456
Mn0 O5 1.993100 1_556
Mn0 O8 2.038665 1_566
Mn1 O11 1.913414 1_555
Mn1 O2 1.934632 1_655
Mn1 O2 1.934632 1_555
Mn1 O3 1.946565 1_555
Mn1 O6 1.971466 1_555
Mn1 O6 1.971466 1_655
Co0 O1 1.928240 1_555
Co0 O10 2.007469 1_555
Co0 O10 2.007469 1_455
Co0 O3 2.063672 1_455
Co0 O3 2.063672 1_555
Co0 O6 2.073831 1_555
Co1 O7 1.785770 1_555
Co1 O4 1.964561 1_455
Co1 O4 1.964561 1_555
Co1 O11 2.128022 1_455
Co1 O11 2.128022 1_555
Co1 O2 2.235343 1_555
Co2 O8 2.009551 1_555
Co2 O8 2.009551 1_655
Co2 O10 2.035591 1_555
Co2 O1 2.063873 1_655
Co2 O1 2.063873 1_555
Co2 O5 2.083576 1_545
