# generated using pymatgen
data_ScH3(CO2)3
_symmetry_space_group_name_H-M   'P 1'
_cell_length_a   7.24803859
_cell_length_b   7.24803859
_cell_length_c   7.24803788
_cell_angle_alpha   103.80513496
_cell_angle_beta   103.80513496
_cell_angle_gamma   103.80513980
_symmetry_Int_Tables_number   1
_chemical_formula_structural   ScH3(CO2)3
_chemical_formula_sum   'Sc2 H6 C6 O12'
_cell_volume   340.99692481
_cell_formula_units_Z   2
loop_
 _symmetry_equiv_pos_site_id
 _symmetry_equiv_pos_as_xyz
  1  'x, y, z'
loop_
 _atom_site_type_symbol
 _atom_site_label
 _atom_site_symmetry_multiplicity
 _atom_site_fract_x
 _atom_site_fract_y
 _atom_site_fract_z
 _atom_site_occupancy
  Sc  Sc0  1  0.50000000  0.50000000  0.50000000  1
  Sc  Sc1  1  0.00000000  0.00000000  0.00000000  1
  H  H0  1  0.05145400  0.75000000  0.44854600  1
  H  H1  1  0.44854600  0.05145400  0.75000000  1
  H  H2  1  0.75000000  0.44854600  0.05145400  1
  H  H3  1  0.94854600  0.25000000  0.55145400  1
  H  H4  1  0.55145400  0.94854600  0.25000000  1
  H  H5  1  0.25000000  0.55145400  0.94854600  1
  C  C0  1  0.95439300  0.75000000  0.54560700  1
  C  C1  1  0.54560700  0.95439300  0.75000000  1
  C  C2  1  0.75000000  0.54560700  0.95439300  1
  C  C3  1  0.04560700  0.25000000  0.45439300  1
  C  C4  1  0.45439300  0.04560700  0.25000000  1
  C  C5  1  0.25000000  0.45439300  0.04560700  1
  O  O0  1  0.78668000  0.61457600  0.47820600  1
  O  O1  1  0.47820600  0.78668000  0.61457600  1
  O  O2  1  0.61457600  0.47820600  0.78668000  1
  O  O3  1  0.97820600  0.11457600  0.28668000  1
  O  O4  1  0.28668000  0.97820600  0.11457600  1
  O  O5  1  0.11457600  0.28668000  0.97820600  1
  O  O6  1  0.21332000  0.38542400  0.52179400  1
  O  O7  1  0.52179400  0.21332000  0.38542400  1
  O  O8  1  0.38542400  0.52179400  0.21332000  1
  O  O9  1  0.02179400  0.88542400  0.71332000  1
  O  O10  1  0.71332000  0.02179400  0.88542400  1
  O  O11  1  0.88542400  0.71332000  0.02179400  1
loop_
_geom_bond_atom_site_label_1
_geom_bond_atom_site_label_2
_geom_bond_distance
_geom_bond_site_symmetry_2
C0 H0 1.107259 1_655
C0 O9 1.264156 1_655
C0 O0 1.264156 1_555
C1 H1 1.107259 1_565
C1 O1 1.264156 1_555
C1 O10 1.264156 1_565
C2 H2 1.107259 1_556
C2 O2 1.264156 1_555
C2 O11 1.264156 1_556
C3 H3 1.107259 1_455
C3 O3 1.264156 1_455
C3 O6 1.264156 1_555
C4 H4 1.107259 1_545
C4 O4 1.264156 1_545
C4 O7 1.264156 1_555
C5 H5 1.107259 1_554
C5 O8 1.264156 1_555
C5 O5 1.264156 1_554
O0 Sc0 2.104251 1_555
O1 Sc0 2.104251 1_555
O2 Sc0 2.104251 1_555
O3 Sc1 2.104251 1_655
O4 Sc1 2.104251 1_565
O5 Sc1 2.104251 1_556
O6 Sc0 2.104251 1_555
O7 Sc0 2.104251 1_555
O8 Sc0 2.104251 1_555
O9 Sc1 2.104251 1_566
O10 Sc1 2.104251 1_656
O11 Sc1 2.104251 1_665
