# generated using pymatgen
data_Mg2Bi3
_symmetry_space_group_name_H-M   'P 1'
_cell_length_a   5.19819035
_cell_length_b   5.19819035
_cell_length_c   6.53980000
_cell_angle_alpha   90.00000000
_cell_angle_beta   90.00000000
_cell_angle_gamma   120.00000448
_symmetry_Int_Tables_number   1
_chemical_formula_structural   Mg2Bi3
_chemical_formula_sum   'Mg2 Bi3'
_cell_volume   153.03805472
_cell_formula_units_Z   1
loop_
 _symmetry_equiv_pos_site_id
 _symmetry_equiv_pos_as_xyz
  1  'x, y, z'
loop_
 _atom_site_type_symbol
 _atom_site_label
 _atom_site_symmetry_multiplicity
 _atom_site_fract_x
 _atom_site_fract_y
 _atom_site_fract_z
 _atom_site_occupancy
  Mg  Mg0  1  0.66666700  0.33333300  0.80737400  1
  Mg  Mg1  1  0.33333300  0.66666700  0.19262600  1
  Bi  Bi0  1  0.66666700  0.33333300  0.30719700  1
  Bi  Bi1  1  0.33333300  0.66666700  0.69280300  1
  Bi  Bi2  1  0.00000000  0.00000000  0.00000000  1
loop_
_geom_bond_atom_site_label_1
_geom_bond_atom_site_label_2
_geom_bond_distance
_geom_bond_site_symmetry_2
Bi0 Mg1 3.093291 1_545
Bi0 Mg1 3.093291 1_655
Bi0 Mg1 3.093300 1_555
Bi0 Mg0 3.268742 1_554
Bi0 Mg0 3.271058 1_555
Bi1 Mg0 3.093291 1_455
Bi1 Mg0 3.093291 1_565
Bi1 Mg0 3.093300 1_555
Bi1 Mg1 3.268742 1_556
Bi1 Mg1 3.271058 1_555
Bi2 Mg0 3.254839 1_454
Bi2 Mg1 3.254839 1_545
Bi2 Mg1 3.254843 1_445
Bi2 Mg1 3.254843 1_555
Bi2 Mg0 3.254843 1_444
Bi2 Mg0 3.254843 1_554
