# generated using pymatgen
data_Cs3Tl2Br9
_symmetry_space_group_name_H-M   'P 1'
_cell_length_a   7.86464566
_cell_length_b   7.86465318
_cell_length_c   9.62537980
_cell_angle_alpha   90.00017192
_cell_angle_beta   89.99990074
_cell_angle_gamma   119.99992124
_symmetry_Int_Tables_number   1
_chemical_formula_structural   Cs3Tl2Br9
_chemical_formula_sum   'Cs3 Tl2 Br9'
_cell_volume   515.59368215
_cell_formula_units_Z   1
loop_
 _symmetry_equiv_pos_site_id
 _symmetry_equiv_pos_as_xyz
  1  'x, y, z'
loop_
 _atom_site_type_symbol
 _atom_site_label
 _atom_site_symmetry_multiplicity
 _atom_site_fract_x
 _atom_site_fract_y
 _atom_site_fract_z
 _atom_site_occupancy
  Cs  Cs0  1  0.33333302  0.66666710  0.66304378  1
  Cs  Cs1  1  0.66666694  0.33333304  0.33695565  1
  Cs  Cs2  1  -0.00000017  -0.00000012  0.00000002  1
  Tl  Tl0  1  0.33333289  0.66666741  0.19160463  1
  Tl  Tl1  1  0.66666745  0.33333163  0.80839498  1
  Br  Br0  1  0.49999992  0.00000107  -0.00000089  1
  Br  Br1  1  -0.00000011  0.50000040  0.00000011  1
  Br  Br2  1  0.49999962  0.50000017  0.00000004  1
  Br  Br3  1  0.16391921  0.83608070  0.32898707  1
  Br  Br4  1  0.83608280  0.16391651  0.67101470  1
  Br  Br5  1  0.16391641  0.32783693  0.32898647  1
  Br  Br6  1  0.83608281  0.67216153  0.67101438  1
  Br  Br7  1  0.67216260  0.83608346  0.32898646  1
  Br  Br8  1  0.32783762  0.16391916  0.67101059  1
loop_
_geom_bond_atom_site_label_1
_geom_bond_atom_site_label_2
_geom_bond_distance
_geom_bond_site_symmetry_2
Br0 Tl1 2.925003 1_554
Br0 Tl0 2.925028 1_545
Br0 Cs2 3.932319 1_555
Br0 Cs2 3.932327 1_655
Br0 Cs0 3.958981 1_544
Br0 Cs1 3.958983 1_555
Br1 Tl0 2.925014 1_555
Br1 Tl1 2.925015 1_454
Br1 Cs2 3.932323 1_565
Br1 Cs2 3.932330 1_555
Br1 Cs1 3.958982 1_455
Br1 Cs0 3.958989 1_554
Br2 Tl0 2.925014 1_555
Br2 Tl1 2.925029 1_554
Br2 Cs2 3.932329 1_665
Br2 Cs2 3.932330 1_555
Br2 Cs1 3.958993 1_555
Br2 Cs0 3.958994 1_554
Br3 Tl0 2.659756 1_555
Br3 Cs2 3.874714 1_565
Br3 Cs1 3.933255 1_455
Br3 Cs1 3.933256 1_565
Br3 Cs0 3.957864 1_555
Br4 Tl1 2.659766 1_555
Br4 Cs2 3.874681 1_656
Br4 Cs0 3.933253 1_545
Br4 Cs0 3.933260 1_655
Br4 Cs1 3.957902 1_555
Br5 Tl0 2.659783 1_555
Br5 Cs2 3.874696 1_555
Br5 Cs1 3.933229 1_455
Br5 Cs1 3.933269 1_555
Br5 Cs0 3.957872 1_555
Br6 Tl1 2.659774 1_555
Br6 Cs2 3.874695 1_666
Br6 Cs0 3.933229 1_655
Br6 Cs0 3.933270 1_555
Br6 Cs1 3.957876 1_555
Br7 Tl0 2.659774 1_555
Br7 Cs2 3.874700 1_665
Br7 Cs1 3.933232 1_565
Br7 Cs1 3.933273 1_555
Br7 Cs0 3.957872 1_555
Br8 Tl1 2.659787 1_555
Br8 Cs2 3.874725 1_556
Br8 Cs0 3.933250 1_545
Br8 Cs0 3.933254 1_555
Br8 Cs1 3.957853 1_555
