# generated using pymatgen
data_ZrTa2N3
_symmetry_space_group_name_H-M   'P 1'
_cell_length_a   5.28279777
_cell_length_b   5.28279777
_cell_length_c   2.98443600
_cell_angle_alpha   90.00000000
_cell_angle_beta   90.00000000
_cell_angle_gamma   119.99999706
_symmetry_Int_Tables_number   1
_chemical_formula_structural   ZrTa2N3
_chemical_formula_sum   'Zr1 Ta2 N3'
_cell_volume   72.13082268
_cell_formula_units_Z   1
loop_
 _symmetry_equiv_pos_site_id
 _symmetry_equiv_pos_as_xyz
  1  'x, y, z'
loop_
 _atom_site_type_symbol
 _atom_site_label
 _atom_site_symmetry_multiplicity
 _atom_site_fract_x
 _atom_site_fract_y
 _atom_site_fract_z
 _atom_site_occupancy
  Zr  Zr0  1  0.00000000  0.00000000  0.00000000  1
  Ta  Ta0  1  0.66666700  0.33333300  0.50000000  1
  Ta  Ta1  1  0.33333300  0.66666700  0.50000000  1
  N  N0  1  0.50000000  0.50000000  0.00000000  1
  N  N1  1  0.50000000  0.00000000  0.00000000  1
  N  N2  1  0.00000000  0.50000000  0.00000000  1
loop_
_geom_bond_atom_site_label_1
_geom_bond_atom_site_label_2
_geom_bond_distance
_geom_bond_site_symmetry_2
N0 Ta0 2.133632 1_555
N0 Ta1 2.133632 1_555
N0 Ta0 2.133632 1_554
N0 Ta1 2.133632 1_554
N0 Zr0 2.641399 1_665
N0 Zr0 2.641399 1_555
N1 Ta0 2.133629 1_555
N1 Ta1 2.133629 1_545
N1 Ta1 2.133629 1_544
N1 Ta0 2.133629 1_554
N1 Zr0 2.641399 1_655
N1 Zr0 2.641399 1_555
N2 Ta0 2.133629 1_455
N2 Ta0 2.133629 1_454
N2 Ta1 2.133629 1_554
N2 Ta1 2.133629 1_555
N2 Zr0 2.641399 1_565
N2 Zr0 2.641399 1_555
