# generated using pymatgen
data_Ho2Mn(GeO3)4
_symmetry_space_group_name_H-M   'P 1'
_cell_length_a   5.02015700
_cell_length_b   10.01356682
_cell_length_c   10.01356682
_cell_angle_alpha   90.57214957
_cell_angle_beta   90.00000000
_cell_angle_gamma   90.00000000
_symmetry_Int_Tables_number   1
_chemical_formula_structural   Ho2Mn(GeO3)4
_chemical_formula_sum   'Ho4 Mn2 Ge8 O24'
_cell_volume   503.35367720
_cell_formula_units_Z   2
loop_
 _symmetry_equiv_pos_site_id
 _symmetry_equiv_pos_as_xyz
  1  'x, y, z'
loop_
 _atom_site_type_symbol
 _atom_site_label
 _atom_site_symmetry_multiplicity
 _atom_site_fract_x
 _atom_site_fract_y
 _atom_site_fract_z
 _atom_site_occupancy
  Ho  Ho0  1  0.50000000  0.00000000  0.50000000  1
  Ho  Ho1  1  0.50000000  0.50000000  0.00000000  1
  Ho  Ho2  1  0.50000000  0.75000000  0.75000000  1
  Ho  Ho3  1  0.50000000  0.25000000  0.25000000  1
  Mn  Mn0  1  0.50000000  0.50000000  0.50000000  1
  Mn  Mn1  1  0.50000000  0.00000000  0.00000000  1
  Ge  Ge0  1  0.99645600  0.74687000  0.47854700  1
  Ge  Ge1  1  0.00354400  0.25313000  0.52145300  1
  Ge  Ge2  1  0.00354400  0.24687000  0.97854700  1
  Ge  Ge3  1  0.99645600  0.75313000  0.02145300  1
  Ge  Ge4  1  0.00354400  0.47854700  0.74687000  1
  Ge  Ge5  1  0.99645600  0.52145300  0.25313000  1
  Ge  Ge6  1  0.99645600  0.97854700  0.24687000  1
  Ge  Ge7  1  0.00354400  0.02145300  0.75313000  1
  O  O0  1  0.26116300  0.56388900  0.66863500  1
  O  O1  1  0.25370800  0.06295100  0.32979400  1
  O  O2  1  0.25370800  0.43704900  0.17020600  1
  O  O3  1  0.26116300  0.93611100  0.83136500  1
  O  O4  1  0.73883700  0.43611100  0.33136500  1
  O  O5  1  0.74629200  0.93704900  0.67020600  1
  O  O6  1  0.74629200  0.56295100  0.82979400  1
  O  O7  1  0.73883700  0.06388900  0.16863500  1
  O  O8  1  0.73883700  0.66863500  0.56388900  1
  O  O9  1  0.74629200  0.32979400  0.06295100  1
  O  O10  1  0.74629200  0.17020600  0.43704900  1
  O  O11  1  0.73883700  0.83136500  0.93611100  1
  O  O12  1  0.26116300  0.33136500  0.43611100  1
  O  O13  1  0.25370800  0.67020600  0.93704900  1
  O  O14  1  0.25370800  0.82979400  0.56295100  1
  O  O15  1  0.26116300  0.16863500  0.06388900  1
  O  O16  1  0.83128600  0.36928800  0.63071200  1
  O  O17  1  0.83100300  0.87246900  0.37246900  1
  O  O18  1  0.83100300  0.62753100  0.12753100  1
  O  O19  1  0.83128600  0.13071200  0.86928800  1
  O  O20  1  0.16871400  0.63071200  0.36928800  1
  O  O21  1  0.16899700  0.12753100  0.62753100  1
  O  O22  1  0.16899700  0.37246900  0.87246900  1
  O  O23  1  0.16871400  0.86928800  0.13071200  1
loop_
_geom_bond_atom_site_label_1
_geom_bond_atom_site_label_2
_geom_bond_distance
_geom_bond_site_symmetry_2
Ho0 O1 2.202824 1_555
Ho0 O5 2.202824 1_545
Ho0 O10 2.202824 1_555
Ho0 O14 2.202824 1_545
Ho0 O17 2.447508 1_545
Ho0 O21 2.447508 1_555
Ho1 O9 2.202824 1_555
Ho1 O13 2.202824 1_554
Ho1 O2 2.202824 1_555
Ho1 O6 2.202824 1_554
Ho1 O18 2.447508 1_555
Ho1 O22 2.447508 1_554
Ho2 O3 2.354620 1_555
Ho2 O11 2.354620 1_555
Ho2 O8 2.354620 1_555
Ho2 O0 2.354620 1_555
Ho2 O5 2.388578 1_555
Ho2 O13 2.388578 1_555
Ho2 O6 2.388578 1_555
Ho2 O14 2.388578 1_555
Ho3 O12 2.354620 1_555
Ho3 O4 2.354620 1_555
Ho3 O7 2.354620 1_555
Ho3 O15 2.354620 1_555
Ho3 O10 2.388578 1_555
Ho3 O2 2.388578 1_555
Ho3 O9 2.388578 1_555
Ho3 O1 2.388578 1_555
Mn0 O0 2.162593 1_555
Mn0 O8 2.162593 1_555
Mn0 O12 2.162593 1_555
Mn0 O4 2.162593 1_555
Mn0 O16 2.495305 1_555
Mn0 O20 2.495305 1_555
Mn1 O7 2.162593 1_555
Mn1 O15 2.162593 1_555
Mn1 O3 2.162593 1_544
Mn1 O11 2.162593 1_544
Mn1 O23 2.495305 1_545
Mn1 O19 2.495305 1_554
Ge0 O8 1.740690 1_555
Ge0 O14 1.748616 1_655
Ge0 O20 1.808957 1_655
Ge0 O17 1.851130 1_555
Ge1 O12 1.740690 1_555
Ge1 O10 1.748616 1_455
Ge1 O16 1.808957 1_455
Ge1 O21 1.851130 1_555
Ge2 O15 1.740690 1_556
Ge2 O9 1.748616 1_456
Ge2 O19 1.808957 1_455
Ge2 O22 1.851130 1_555
Ge3 O11 1.740690 1_554
Ge3 O13 1.748616 1_654
Ge3 O23 1.808957 1_655
Ge3 O18 1.851130 1_555
Ge4 O0 1.740690 1_555
Ge4 O6 1.748616 1_455
Ge4 O16 1.808957 1_455
Ge4 O22 1.851130 1_555
Ge5 O4 1.740690 1_555
Ge5 O2 1.748616 1_655
Ge5 O20 1.808957 1_655
Ge5 O18 1.851130 1_555
Ge6 O7 1.740690 1_565
Ge6 O1 1.748616 1_665
Ge6 O23 1.808957 1_655
Ge6 O17 1.851130 1_555
Ge7 O3 1.740690 1_545
Ge7 O5 1.748616 1_445
Ge7 O19 1.808957 1_455
Ge7 O21 1.851130 1_555
