# generated using pymatgen
data_Ce2Co12P7
_symmetry_space_group_name_H-M   'P 1'
_cell_length_a   9.01966163
_cell_length_b   9.01966163
_cell_length_c   3.63282800
_cell_angle_alpha   90.00000000
_cell_angle_beta   90.00000000
_cell_angle_gamma   119.99999730
_symmetry_Int_Tables_number   1
_chemical_formula_structural   Ce2Co12P7
_chemical_formula_sum   'Ce2 Co12 P7'
_cell_volume   255.95049319
_cell_formula_units_Z   1
loop_
 _symmetry_equiv_pos_site_id
 _symmetry_equiv_pos_as_xyz
  1  'x, y, z'
loop_
 _atom_site_type_symbol
 _atom_site_label
 _atom_site_symmetry_multiplicity
 _atom_site_fract_x
 _atom_site_fract_y
 _atom_site_fract_z
 _atom_site_occupancy
  Ce  Ce0  1  0.33333300  0.66666700  0.00000000  1
  Ce  Ce1  1  0.00000000  0.00000000  0.50000000  1
  Co  Co0  1  0.72855000  0.96102300  0.00000000  1
  Co  Co1  1  0.23247300  0.27145000  0.00000000  1
  Co  Co2  1  0.03897700  0.76752700  0.00000000  1
  Co  Co3  1  0.93919100  0.45255100  0.00000000  1
  Co  Co4  1  0.51336100  0.06080900  0.00000000  1
  Co  Co5  1  0.54744900  0.48663900  0.00000000  1
  Co  Co6  1  0.10089100  0.38590400  0.50000000  1
  Co  Co7  1  0.28501200  0.89910900  0.50000000  1
  Co  Co8  1  0.61409600  0.71498800  0.50000000  1
  Co  Co9  1  0.76539400  0.20942800  0.50000000  1
  Co  Co10  1  0.44403400  0.23460600  0.50000000  1
  Co  Co11  1  0.79057200  0.55596600  0.50000000  1
  P  P0  1  0.96171600  0.22469200  0.00000000  1
  P  P1  1  0.26297600  0.03828400  0.00000000  1
  P  P2  1  0.77530800  0.73702400  0.00000000  1
  P  P3  1  0.06316500  0.62388300  0.50000000  1
  P  P4  1  0.56071800  0.93683500  0.50000000  1
  P  P5  1  0.37611700  0.43928200  0.50000000  1
  P  P6  1  0.66666700  0.33333300  0.00000000  1
loop_
_geom_bond_atom_site_label_1
_geom_bond_atom_site_label_2
_geom_bond_distance
_geom_bond_site_symmetry_2
Ce0 P3 2.906204 1_554
Ce0 P3 2.906204 1_555
Ce0 P4 2.906207 1_554
Ce0 P4 2.906207 1_555
Ce0 P5 2.906211 1_554
Ce0 P5 2.906211 1_555
Ce0 Co7 2.966241 1_554
Ce0 Co7 2.966241 1_555
Ce0 Co8 2.966241 1_555
Ce0 Co8 2.966241 1_554
Ce0 Co6 2.966241 1_554
Ce0 Co6 2.966241 1_555
Ce0 Co4 3.082579 1_565
Ce0 Co3 3.082580 1_455
Ce0 Co5 3.082595 1_555
Ce0 Co2 3.208096 1_555
Ce0 Co0 3.208103 1_555
Ce0 Co1 3.208105 1_555
Ce1 P0 2.868050 1_455
Ce1 P0 2.868050 1_456
Ce1 P1 2.868050 1_556
Ce1 P1 2.868050 1_555
Ce1 P2 2.868050 1_446
Ce1 P2 2.868050 1_445
Ce1 Co2 2.925201 1_545
Ce1 Co2 2.925201 1_546
Ce1 Co0 2.925201 1_446
Ce1 Co0 2.925201 1_445
Ce1 Co1 2.925201 1_555
Ce1 Co1 2.925201 1_556
Co0 P0 2.253275 1_565
Co0 P2 2.260961 1_555
Co0 P4 2.303964 1_554
Co0 P4 2.303964 1_555
Co1 P1 2.253275 1_555
Co1 P0 2.260961 1_455
Co1 P5 2.303964 1_555
Co1 P5 2.303964 1_554
Co2 P2 2.253275 1_455
Co2 P1 2.260962 1_565
Co2 P3 2.303964 1_555
Co2 P3 2.303964 1_554
Co3 P6 2.134299 1_555
Co3 P0 2.163960 1_555
Co3 P3 2.282508 1_655
Co3 P3 2.282508 1_654
Co4 P6 2.134299 1_555
Co4 P1 2.163969 1_555
Co4 P4 2.282504 1_545
Co4 P4 2.282504 1_544
Co5 P6 2.134298 1_555
Co5 P2 2.163965 1_555
Co5 P5 2.282509 1_555
Co5 P5 2.282509 1_554
Co6 P0 2.272485 1_455
Co6 P0 2.272485 1_456
Co6 P5 2.280165 1_555
Co6 P3 2.335296 1_555
Co7 P1 2.272482 1_565
Co7 P1 2.272482 1_566
Co7 P3 2.280162 1_555
Co7 P4 2.335305 1_555
Co8 P2 2.272487 1_555
Co8 P2 2.272487 1_556
Co8 P4 2.280156 1_555
Co8 P5 2.335301 1_555
Co9 P4 2.216819 1_545
Co9 P0 2.492009 1_555
Co9 P0 2.492009 1_556
Co9 P6 2.517240 1_555
Co9 P6 2.517240 1_556
Co10 P5 2.216819 1_555
Co10 P1 2.492009 1_556
Co10 P1 2.492009 1_555
Co10 P6 2.517246 1_555
Co10 P6 2.517246 1_556
Co11 P3 2.216819 1_655
Co11 P2 2.492009 1_556
Co11 P2 2.492009 1_555
Co11 P6 2.517245 1_555
Co11 P6 2.517245 1_556
