# generated using pymatgen
data_Li2BeH4
_symmetry_space_group_name_H-M   'P 1'
_cell_length_a   4.85787600
_cell_length_b   6.75953043
_cell_length_c   12.46281209
_cell_angle_alpha   81.49984076
_cell_angle_beta   84.62942978
_cell_angle_gamma   86.07017375
_symmetry_Int_Tables_number   1
_chemical_formula_structural   Li2BeH4
_chemical_formula_sum   'Li12 Be6 H24'
_cell_volume   402.34653132
_cell_formula_units_Z   6
loop_
 _symmetry_equiv_pos_site_id
 _symmetry_equiv_pos_as_xyz
  1  'x, y, z'
loop_
 _atom_site_type_symbol
 _atom_site_label
 _atom_site_symmetry_multiplicity
 _atom_site_fract_x
 _atom_site_fract_y
 _atom_site_fract_z
 _atom_site_occupancy
  Li  Li0  1  0.62781200  0.56922000  0.15282500  1
  Li  Li1  1  0.63881100  0.99666200  0.18052100  1
  Li  Li2  1  0.65402100  0.73304800  0.37233500  1
  Li  Li3  1  0.61413200  0.26499200  0.34209000  1
  Li  Li4  1  0.61673900  0.53718900  0.83853400  1
  Li  Li5  1  0.54477400  0.97821000  0.84093200  1
  Li  Li6  1  0.32818200  0.02893800  0.65166200  1
  Li  Li7  1  0.01734100  0.48691200  0.59337700  1
  Li  Li8  1  0.09050700  0.77182400  0.19599600  1
  Li  Li9  1  0.10910600  0.27045300  0.13057000  1
  Li  Li10  1  0.11103600  0.25772000  0.83711300  1
  Li  Li11  1  0.11505800  0.67213200  0.79558500  1
  Be  Be0  1  0.13607900  0.39487300  0.31993900  1
  Be  Be1  1  0.14701900  0.06161900  0.31963900  1
  Be  Be2  1  0.14006800  0.77375200  0.42023600  1
  Be  Be3  1  0.09187300  0.22252000  0.46020400  1
  Be  Be4  1  0.02458700  0.59831100  0.98281800  1
  Be  Be5  1  0.01000600  0.95798600  0.97654600  1
  H  H0  1  0.93645800  0.48279700  0.74365700  1
  H  H1  1  0.72736600  0.74021200  0.23094700  1
  H  H2  1  0.82682900  0.07833200  0.90289800  1
  H  H3  1  0.84109500  0.70448700  0.90584900  1
  H  H4  1  0.49334700  0.43434700  0.62381600  1
  H  H5  1  0.57398900  0.06947700  0.52442900  1
  H  H6  1  0.05120500  0.00259300  0.43328700  1
  H  H7  1  0.88848600  0.37505900  0.41166100  1
  H  H8  1  0.48841200  0.81260200  0.08537900  1
  H  H9  1  0.50829200  0.25016100  0.07367900  1
  H  H10  1  0.06920300  0.20082200  0.57488900  1
  H  H11  1  0.90543400  0.69370900  0.48520000  1
  H  H12  1  0.96819000  0.00794600  0.08794700  1
  H  H13  1  0.87170400  0.45511300  0.05534800  1
  H  H14  1  0.37328900  0.74511200  0.47978400  1
  H  H15  1  0.30240200  0.38100600  0.41652700  1
  H  H16  1  0.24153100  0.49554500  0.91645500  1
  H  H17  1  0.27267400  0.02790600  0.93662600  1
  H  H18  1  0.41054200  0.19233300  0.74502000  1
  H  H19  1  0.43418600  0.79034300  0.74887000  1
  H  H20  1  0.66165800  0.98504500  0.55434700  1
  H  H21  1  0.49161700  0.52717800  0.58071700  1
  H  H22  1  0.45259600  0.17612100  0.04101400  1
  H  H23  1  0.37234600  0.75539400  0.06073400  1
loop_
_geom_bond_atom_site_label_1
_geom_bond_atom_site_label_2
_geom_bond_distance
_geom_bond_site_symmetry_2
Be0 H15 1.499658 1_555
Be0 H7 1.578215 1_455
Be0 Li9 2.637079 1_555
Be1 H6 1.454970 1_555
Be1 Li9 2.577047 1_555
Be2 H14 1.398820 1_555
Be2 H11 1.424684 1_455
Be2 H6 1.604769 1_565
Be3 H10 1.409719 1_555
Be3 H7 1.480946 1_455
Be3 H15 1.537370 1_555
Be3 H6 1.600513 1_555
Be4 H13 1.421199 1_456
Be4 H3 1.448676 1_455
Be4 H16 1.477698 1_555
Be5 H17 1.411881 1_565
Be5 H2 1.459108 1_465
Be5 H12 1.469452 1_466
H0 Li11 1.819801 1_655
H0 Li7 1.873846 1_655
H0 Li4 1.911043 1_555
H0 Li10 1.968430 1_655
H1 Li0 1.736432 1_555
H1 Li2 1.758942 1_555
H1 Li1 1.792012 1_555
H1 Li8 1.796590 1_655
H2 Li5 1.847036 1_545
H2 Li10 1.942263 1_655
H3 Li11 1.847725 1_655
H3 Li4 1.947069 1_555
H5 Li6 1.891376 1_555
H7 Li3 1.903825 1_555
H8 Li0 1.848429 1_555
H8 Li1 2.051973 1_555
H9 Li9 2.004226 1_555
H9 Li1 2.108518 1_545
H10 Li6 1.882688 1_555
H10 Li7 1.977461 1_555
H11 Li7 1.882299 1_655
H11 Li2 1.925469 1_555
H12 Li1 1.882105 1_545
H12 Li8 2.024415 1_645
H12 Li9 2.100615 1_655
H13 Li0 1.832158 1_555
H13 Li9 1.850966 1_655
H14 Li2 1.826173 1_555
H15 Li3 1.886303 1_555
H16 Li11 1.900688 1_555
H16 Li4 2.000690 1_555
H16 Li10 2.165855 1_555
H17 Li5 1.744958 1_545
H17 Li10 2.003349 1_555
H18 Li6 1.805902 1_555
H18 Li10 1.838149 1_555
H18 Li5 1.858494 1_545
H19 Li11 1.801148 1_555
H19 Li6 1.938891 1_565
H19 Li5 1.963994 1_555
H19 Li4 2.091793 1_555
H20 H5 0.761332 1_565
H20 Li6 1.963674 1_565
H21 H4 0.763423 1_555
H22 H9 0.767346 1_555
H22 Li9 2.037784 1_555
H23 H8 0.811911 1_555
H23 Li0 2.016594 1_555
H23 Li8 2.081122 1_555
