# generated using pymatgen
data_CeNiGe3
_symmetry_space_group_name_H-M   'P 1'
_cell_length_a   4.15286200
_cell_length_b   4.17015600
_cell_length_c   11.10566145
_cell_angle_alpha   90.00000000
_cell_angle_beta   100.77603818
_cell_angle_gamma   90.00000000
_symmetry_Int_Tables_number   1
_chemical_formula_structural   CeNiGe3
_chemical_formula_sum   'Ce2 Ni2 Ge6'
_cell_volume   188.93714426
_cell_formula_units_Z   2
loop_
 _symmetry_equiv_pos_site_id
 _symmetry_equiv_pos_as_xyz
  1  'x, y, z'
loop_
 _atom_site_type_symbol
 _atom_site_label
 _atom_site_symmetry_multiplicity
 _atom_site_fract_x
 _atom_site_fract_y
 _atom_site_fract_z
 _atom_site_occupancy
  Ce  Ce0  1  0.66842300  0.50000000  0.33684600  1
  Ce  Ce1  1  0.33157700  0.50000000  0.66315400  1
  Ni  Ni0  1  0.89042700  0.00000000  0.78085300  1
  Ni  Ni1  1  0.10957300  0.00000000  0.21914700  1
  Ge  Ge0  1  0.94272600  0.50000000  0.88545200  1
  Ge  Ge1  1  0.05727400  0.50000000  0.11454800  1
  Ge  Ge2  1  0.78353400  0.00000000  0.56706800  1
  Ge  Ge3  1  0.21646600  0.00000000  0.43293200  1
  Ge  Ge4  1  0.55715900  0.00000000  0.11431700  1
  Ge  Ge5  1  0.44284100  0.00000000  0.88568300  1
loop_
_geom_bond_atom_site_label_1
_geom_bond_atom_site_label_2
_geom_bond_distance
_geom_bond_site_symmetry_2
Ce0 Ge3 3.123781 1_565
Ce0 Ge3 3.123781 1_655
Ce0 Ge3 3.123781 1_665
Ce0 Ge3 3.123781 1_555
Ce0 Ge1 3.192696 1_555
Ce0 Ge1 3.192696 1_655
Ce0 Ge4 3.200238 1_565
Ce0 Ge4 3.200238 1_555
Ce0 Ni1 3.210600 1_655
Ce0 Ni1 3.210600 1_665
Ce0 Ni1 3.210603 1_555
Ce0 Ni1 3.210603 1_565
Ce0 Ge2 3.264366 1_565
Ce0 Ge2 3.264366 1_555
Ce1 Ge2 3.123781 1_555
Ce1 Ge2 3.123781 1_565
Ce1 Ge2 3.123781 1_455
Ce1 Ge2 3.123781 1_465
Ce1 Ge0 3.192696 1_555
Ce1 Ge0 3.192696 1_455
Ce1 Ge5 3.200238 1_565
Ce1 Ge5 3.200238 1_555
Ce1 Ni0 3.210600 1_455
Ce1 Ni0 3.210600 1_465
Ce1 Ni0 3.210603 1_555
Ce1 Ni0 3.210603 1_565
Ce1 Ge3 3.264366 1_565
Ce1 Ge3 3.264366 1_555
Ge0 Ni0 2.376928 1_555
Ge0 Ni0 2.376928 1_565
Ge0 Ge1 2.499396 1_656
Ge0 Ge5 2.942637 1_665
Ge0 Ge5 2.942637 1_655
Ge0 Ge5 2.942640 1_565
Ge0 Ge5 2.942640 1_555
Ge1 Ni1 2.376928 1_555
Ge1 Ni1 2.376928 1_565
Ge1 Ge4 2.942637 1_465
Ge1 Ge4 2.942637 1_455
Ge1 Ge4 2.942640 1_555
Ge1 Ge4 2.942640 1_565
Ge2 Ni0 2.332356 1_555
Ge2 Ge3 2.540296 1_555
Ge2 Ge3 2.540296 1_655
Ge3 Ni1 2.332356 1_555
Ge4 Ni1 2.370558 1_655
Ge4 Ni1 2.370565 1_555
Ge4 Ge5 2.494356 1_554
Ge5 Ni0 2.370558 1_455
Ge5 Ni0 2.370565 1_555
