# generated using pymatgen
data_FeAgSb(S2N3)2
_symmetry_space_group_name_H-M   'P 1'
_cell_length_a   8.62912000
_cell_length_b   7.29651300
_cell_length_c   7.29651300
_cell_angle_alpha   90.00000000
_cell_angle_beta   90.00000000
_cell_angle_gamma   90.00000000
_symmetry_Int_Tables_number   1
_chemical_formula_structural   FeAgSb(S2N3)2
_chemical_formula_sum   'Fe2 Ag2 Sb2 S8 N12'
_cell_volume   459.40659950
_cell_formula_units_Z   2
loop_
 _symmetry_equiv_pos_site_id
 _symmetry_equiv_pos_as_xyz
  1  'x, y, z'
loop_
 _atom_site_type_symbol
 _atom_site_label
 _atom_site_symmetry_multiplicity
 _atom_site_fract_x
 _atom_site_fract_y
 _atom_site_fract_z
 _atom_site_occupancy
  Fe  Fe0  1  0.25000000  0.00000000  0.50000000  1
  Fe  Fe1  1  0.75000000  0.50000000  0.00000000  1
  Ag  Ag0  1  0.00000000  0.50000000  0.50000000  1
  Ag  Ag1  1  0.50000000  0.00000000  0.00000000  1
  Sb  Sb0  1  0.50000000  0.50000000  0.50000000  1
  Sb  Sb1  1  0.00000000  0.00000000  0.00000000  1
  S  S0  1  0.24622600  0.40455400  0.70727400  1
  S  S1  1  0.74622600  0.09544600  0.20727400  1
  S  S2  1  0.75377400  0.29272600  0.40455400  1
  S  S3  1  0.25377400  0.20727400  0.90455400  1
  S  S4  1  0.24622600  0.59544600  0.29272600  1
  S  S5  1  0.74622600  0.90455400  0.79272600  1
  S  S6  1  0.75377400  0.70727400  0.59544600  1
  S  S7  1  0.25377400  0.79272600  0.09544600  1
  N  N0  1  0.00875800  0.94562000  0.44366200  1
  N  N1  1  0.50875800  0.55438000  0.94366200  1
  N  N2  1  0.99124200  0.55633800  0.94562000  1
  N  N3  1  0.49124200  0.94366200  0.44562000  1
  N  N4  1  0.00875800  0.05438000  0.55633800  1
  N  N5  1  0.50875800  0.44562000  0.05633800  1
  N  N6  1  0.99124200  0.44366200  0.05438000  1
  N  N7  1  0.49124200  0.05633800  0.55438000  1
  N  N8  1  0.25000000  0.83760300  0.66239700  1
  N  N9  1  0.75000000  0.66239700  0.16239700  1
  N  N10  1  0.75000000  0.33760300  0.83760300  1
  N  N11  1  0.25000000  0.16239700  0.33760300  1
loop_
_geom_bond_atom_site_label_1
_geom_bond_atom_site_label_2
_geom_bond_distance
_geom_bond_site_symmetry_2
Fe0 N8 1.675747 1_545
Fe0 N11 1.675747 1_555
Fe0 N0 2.158684 1_545
Fe0 N3 2.158684 1_545
Fe0 N4 2.158684 1_555
Fe0 N7 2.158684 1_555
Fe1 N10 1.675747 1_554
Fe1 N9 1.675747 1_555
Fe1 N5 2.158684 1_555
Fe1 N6 2.158684 1_555
Fe1 N1 2.158684 1_554
Fe1 N2 2.158684 1_554
Ag0 S6 2.699389 1_455
Ag0 S0 2.699389 1_555
Ag0 S2 2.699389 1_455
Ag0 S4 2.699389 1_555
Ag1 S1 2.699389 1_555
Ag1 S5 2.699389 1_544
Ag1 S7 2.699389 1_545
Ag1 S3 2.699389 1_554
S0 S3 2.036740 1_555
S0 Sb0 2.750948 1_555
S1 S2 2.036740 1_555
S1 Sb1 2.750948 1_655
S2 Sb0 2.750948 1_555
S3 Sb1 2.750948 1_556
S4 S7 2.036740 1_555
S4 Sb0 2.750948 1_555
S5 S6 2.036740 1_555
S5 Sb1 2.750948 1_666
S6 Sb0 2.750948 1_555
S7 Sb1 2.750948 1_565
N0 N4 1.142659 1_565
N1 N5 1.142659 1_556
N2 N6 1.142659 1_556
N3 N7 1.142659 1_565
