# generated using pymatgen
data_ZrN2O9
_symmetry_space_group_name_H-M   'P 1'
_cell_length_a   8.21936925
_cell_length_b   9.38387715
_cell_length_c   10.37714086
_cell_angle_alpha   98.65103149
_cell_angle_beta   103.14163553
_cell_angle_gamma   85.06322260
_symmetry_Int_Tables_number   1
_chemical_formula_structural   ZrN2O9
_chemical_formula_sum   'Zr4 N8 O36'
_cell_volume   769.43662162
_cell_formula_units_Z   4
loop_
 _symmetry_equiv_pos_site_id
 _symmetry_equiv_pos_as_xyz
  1  'x, y, z'
loop_
 _atom_site_type_symbol
 _atom_site_label
 _atom_site_symmetry_multiplicity
 _atom_site_fract_x
 _atom_site_fract_y
 _atom_site_fract_z
 _atom_site_occupancy
  Zr  Zr0  1  0.98974200  0.10011000  0.14053200  1
  Zr  Zr1  1  0.01025800  0.89989000  0.85946800  1
  Zr  Zr2  1  0.40101700  0.86835900  0.41020800  1
  Zr  Zr3  1  0.59898300  0.13164100  0.58979200  1
  N  N0  1  0.65465800  0.14024000  0.11780400  1
  N  N1  1  0.34534200  0.85976000  0.88219600  1
  N  N2  1  0.05083000  0.35981500  0.29306000  1
  N  N3  1  0.94917000  0.64018500  0.70694000  1
  N  N4  1  0.41412000  0.65651500  0.19337600  1
  N  N5  1  0.58588000  0.34348500  0.80662400  1
  N  N6  1  0.39891500  0.67030500  0.57258100  1
  N  N7  1  0.60108500  0.32969500  0.42741900  1
  O  O0  1  0.16978700  0.24592600  0.86623000  1
  O  O1  1  0.83021300  0.75407400  0.13377000  1
  O  O2  1  0.19277200  0.20320500  0.66303000  1
  O  O3  1  0.80722800  0.79679500  0.33697000  1
  O  O4  1  0.05132100  0.10388400  0.95997700  1
  O  O5  1  0.94867900  0.89611600  0.04002300  1
  O  O6  1  0.13668000  0.96175100  0.30239200  1
  O  O7  1  0.86332000  0.03824900  0.69760800  1
  O  O8  1  0.25354700  0.01144400  0.24787400  1
  O  O9  1  0.74645300  0.98855600  0.75212600  1
  O  O10  1  0.37438500  0.04054400  0.54878500  1
  O  O11  1  0.62561500  0.95945600  0.45121500  1
  O  O12  1  0.74543600  0.05888000  0.19941000  1
  O  O13  1  0.25456400  0.94112000  0.80059000  1
  O  O14  1  0.74311500  0.20347400  0.05362500  1
  O  O15  1  0.25688500  0.79652600  0.94637500  1
  O  O16  1  0.50375900  0.15720300  0.10029900  1
  O  O17  1  0.49624100  0.84279700  0.89970100  1
  O  O18  1  0.99619600  0.25036700  0.33315300  1
  O  O19  1  0.00380400  0.74963300  0.66684700  1
  O  O20  1  0.09365100  0.32595000  0.17846100  1
  O  O21  1  0.90634900  0.67405000  0.82153900  1
  O  O22  1  0.05722900  0.47935500  0.35586300  1
  O  O23  1  0.94277100  0.52064500  0.64413700  1
  O  O24  1  0.29146600  0.67479100  0.25508400  1
  O  O25  1  0.70853400  0.32520900  0.74491600  1
  O  O26  1  0.51825900  0.76290000  0.23505500  1
  O  O27  1  0.48174100  0.23710000  0.76494500  1
  O  O28  1  0.43237600  0.55732500  0.10964700  1
  O  O29  1  0.56762400  0.44267500  0.89035300  1
  O  O30  1  0.26585700  0.74392700  0.52151100  1
  O  O31  1  0.73414300  0.25607300  0.47848900  1
  O  O32  1  0.53401000  0.70329300  0.53734100  1
  O  O33  1  0.46599000  0.29670700  0.46265900  1
  O  O34  1  0.40132800  0.58128200  0.64602000  1
  O  O35  1  0.59867200  0.41871800  0.35398000  1
loop_
_geom_bond_atom_site_label_1
_geom_bond_atom_site_label_2
_geom_bond_distance
_geom_bond_site_symmetry_2
N0 O16 1.211997 1_555
N0 O12 1.290690 1_555
N0 O14 1.318176 1_555
N1 O17 1.211997 1_555
N1 O13 1.290690 1_555
N1 O15 1.318176 1_555
N2 O22 1.208495 1_555
N2 O20 1.302486 1_555
N2 O18 1.312424 1_455
N3 O23 1.208495 1_555
N3 O21 1.302486 1_555
N3 O19 1.312424 1_655
N4 O28 1.198234 1_555
N4 O24 1.298677 1_555
N4 O26 1.328599 1_555
N5 O29 1.198234 1_555
N5 O25 1.298677 1_555
N5 O27 1.328599 1_555
N6 O34 1.208646 1_555
N6 O30 1.292583 1_555
N6 O32 1.319239 1_555
N7 O35 1.208646 1_555
N7 O31 1.292583 1_555
N7 O33 1.319239 1_555
O4 Zr1 2.053442 1_545
O4 Zr0 2.054810 1_456
O5 Zr0 2.053442 1_565
O5 Zr1 2.054810 1_654
O6 O8 1.365203 1_565
O6 Zr0 2.330078 1_465
O6 Zr2 2.366909 1_555
O7 O9 1.365203 1_545
O7 Zr1 2.330078 1_645
O7 Zr3 2.366909 1_555
O8 Zr0 2.346200 1_455
O8 Zr2 2.362548 1_545
O9 Zr1 2.346200 1_655
O9 Zr3 2.362548 1_565
O10 Zr2 2.027269 1_545
O10 Zr3 2.030941 1_555
O11 Zr3 2.027269 1_565
O11 Zr2 2.030941 1_555
O12 Zr0 2.306065 1_555
O13 Zr1 2.306065 1_555
O14 Zr0 2.226387 1_555
O15 Zr1 2.226387 1_555
O18 Zr0 2.259008 1_555
O19 Zr1 2.259008 1_555
O20 Zr0 2.298547 1_455
O21 Zr1 2.298547 1_655
O24 Zr2 2.333285 1_555
O25 Zr3 2.333285 1_555
O26 Zr2 2.302781 1_555
O27 Zr3 2.302781 1_555
O30 Zr2 2.268053 1_555
O31 Zr3 2.268053 1_555
O32 Zr2 2.236570 1_555
O33 Zr3 2.236570 1_555
