# generated using pymatgen
data_Mg5Sn(BO5)2
_symmetry_space_group_name_H-M   'P 1'
_cell_length_a   9.83946271
_cell_length_b   9.83946271
_cell_length_c   15.51133301
_cell_angle_alpha   55.03324052
_cell_angle_beta   55.03324052
_cell_angle_gamma   36.19989433
_symmetry_Int_Tables_number   1
_chemical_formula_structural   Mg5Sn(BO5)2
_chemical_formula_sum   'Mg20 Sn4 B8 O40'
_cell_volume   707.58141485
_cell_formula_units_Z   4
loop_
 _symmetry_equiv_pos_site_id
 _symmetry_equiv_pos_as_xyz
  1  'x, y, z'
loop_
 _atom_site_type_symbol
 _atom_site_label
 _atom_site_symmetry_multiplicity
 _atom_site_fract_x
 _atom_site_fract_y
 _atom_site_fract_z
 _atom_site_occupancy
  Mg  Mg0  1  0.05803106  0.05803106  0.62056465  1
  Mg  Mg1  1  0.94196894  0.94196894  0.37943535  1
  Mg  Mg2  1  0.82322485  0.82322485  0.11743865  1
  Mg  Mg3  1  0.17677515  0.17677515  0.88256135  1
  Mg  Mg4  1  0.76120110  0.23879890  0.00000000  1
  Mg  Mg5  1  0.23879890  0.76120110  0.00000000  1
  Mg  Mg6  1  0.75891218  0.24108782  0.50000000  1
  Mg  Mg7  1  0.24108782  0.75891218  0.50000000  1
  Mg  Mg8  1  0.61189801  0.10252166  0.28215039  1
  Mg  Mg9  1  0.38810199  0.89747834  0.71784961  1
  Mg  Mg10  1  0.88647906  0.39198427  0.21797255  1
  Mg  Mg11  1  0.11352094  0.60801573  0.78202745  1
  Mg  Mg12  1  0.60801573  0.11352094  0.78202745  1
  Mg  Mg13  1  0.39198427  0.88647906  0.21797255  1
  Mg  Mg14  1  0.10252166  0.61189801  0.28215039  1
  Mg  Mg15  1  0.89747834  0.38810199  0.71784961  1
  Mg  Mg16  1  0.24323042  0.24323042  0.00163045  1
  Mg  Mg17  1  0.75676958  0.75676958  0.99836955  1
  Mg  Mg18  1  0.24484132  0.24484132  0.49977166  1
  Mg  Mg19  1  0.75515868  0.75515868  0.50022834  1
  Sn  Sn0  1  0.32214186  0.32214186  0.11575002  1
  Sn  Sn1  1  0.67785814  0.67785814  0.88424998  1
  Sn  Sn2  1  0.56300968  0.56300968  0.61345653  1
  Sn  Sn3  1  0.43699032  0.43699032  0.38654347  1
  B  B0  1  0.54482726  0.54482726  0.13904076  1
  B  B1  1  0.45517274  0.45517274  0.86095924  1
  B  B2  1  0.18091195  0.18091195  0.36203004  1
  B  B3  1  0.81908805  0.81908805  0.63796996  1
  B  B4  1  0.03983599  0.03983599  0.14119945  1
  B  B5  1  0.96016401  0.96016401  0.85880055  1
  B  B6  1  0.68406826  0.68406826  0.35771521  1
  B  B7  1  0.31593174  0.31593174  0.64228479  1
  O  O0  1  0.61698847  0.61698847  0.14108224  1
  O  O1  1  0.38301153  0.38301153  0.85891776  1
  O  O2  1  0.55272620  0.55272620  0.04390226  1
  O  O3  1  0.44727380  0.44727380  0.95609774  1
  O  O4  1  0.54225972  0.54225972  0.76464369  1
  O  O5  1  0.45774028  0.45774028  0.23535631  1
  O  O6  1  0.09593820  0.09593820  0.45738314  1
  O  O7  1  0.90406180  0.90406180  0.54261686  1
  O  O8  1  0.25736710  0.25736710  0.35607671  1
  O  O9  1  0.74263290  0.74263290  0.64392329  1
  O  O10  1  0.19070625  0.19070625  0.26454024  1
  O  O11  1  0.80929375  0.80929375  0.73545976  1
  O  O12  1  0.04638749  0.04638749  0.76279124  1
  O  O13  1  0.95361251  0.95361251  0.23720876  1
  O  O14  1  0.11232385  0.11232385  0.14477496  1
  O  O15  1  0.88767615  0.88767615  0.85522504  1
  O  O16  1  0.05283616  0.05283616  0.04320842  1
  O  O17  1  0.94716384  0.94716384  0.95679158  1
  O  O18  1  0.69348580  0.69348580  0.26271768  1
  O  O19  1  0.30651420  0.30651420  0.73728232  1
  O  O20  1  0.75746033  0.75746033  0.35864352  1
  O  O21  1  0.24253967  0.24253967  0.64135648  1
  O  O22  1  0.59645982  0.59645982  0.45538063  1
  O  O23  1  0.40354018  0.40354018  0.54461937  1
  O  O24  1  0.62345943  0.13045287  0.14308615  1
  O  O25  1  0.37654057  0.86954713  0.85691385  1
  O  O26  1  0.13045287  0.62345943  0.14308615  1
  O  O27  1  0.86954713  0.37654057  0.85691385  1
  O  O28  1  0.02603764  0.51006301  0.07689995  1
  O  O29  1  0.97396236  0.48993699  0.92310005  1
  O  O30  1  0.51006301  0.02603764  0.07689995  1
  O  O31  1  0.48993699  0.97396236  0.92310005  1
  O  O32  1  0.76669115  0.27315194  0.35702695  1
  O  O33  1  0.23330885  0.72684806  0.64297305  1
  O  O34  1  0.72684806  0.23330885  0.64297305  1
  O  O35  1  0.27315194  0.76669115  0.35702695  1
  O  O36  1  0.58701828  0.10286091  0.42309529  1
  O  O37  1  0.41298172  0.89713909  0.57690471  1
  O  O38  1  0.89713909  0.41298172  0.57690471  1
  O  O39  1  0.10286091  0.58701828  0.42309529  1
loop_
_geom_bond_atom_site_label_1
_geom_bond_atom_site_label_2
_geom_bond_distance
_geom_bond_site_symmetry_2
Mg0 O34 2.008145 1_455
Mg0 O33 2.008145 1_545
Mg0 O12 2.082070 1_555
Mg0 O6 2.178375 1_555
Mg0 O38 2.181057 1_455
Mg0 O37 2.181057 1_545
Mg1 O32 2.008145 1_565
Mg1 O35 2.008145 1_655
Mg1 O13 2.082070 1_555
Mg1 O7 2.178375 1_555
Mg1 O39 2.181057 1_655
Mg1 O36 2.181057 1_565
Mg2 O26 2.013078 1_655
Mg2 O24 2.013078 1_565
Mg2 O18 2.091141 1_555
Mg2 O17 2.148876 1_554
Mg2 O30 2.175058 1_565
Mg2 O28 2.175058 1_655
Mg3 O27 2.013078 1_455
Mg3 O25 2.013078 1_545
Mg3 O19 2.091141 1_555
Mg3 O16 2.148876 1_556
Mg3 O31 2.175058 1_545
Mg3 O29 2.175058 1_455
Mg4 O24 2.017763 1_555
Mg4 O27 2.017763 1_554
Mg4 O16 2.087146 1_655
Mg4 O17 2.087146 1_544
Mg4 O2 2.190085 1_555
Mg4 O3 2.190085 1_554
Mg5 O26 2.017763 1_555
Mg5 O25 2.017763 1_554
Mg5 O16 2.087146 1_565
Mg5 O17 2.087146 1_454
Mg5 O3 2.190085 1_554
Mg5 O2 2.190085 1_555
Mg6 O34 2.016444 1_555
Mg6 O32 2.016444 1_555
Mg6 O6 2.097472 1_655
Mg6 O7 2.097472 1_545
Mg6 O22 2.175844 1_555
Mg6 O23 2.175844 1_555
Mg7 O33 2.016444 1_555
Mg7 O35 2.016444 1_555
Mg7 O6 2.097472 1_565
Mg7 O7 2.097472 1_455
Mg7 O22 2.175844 1_555
Mg7 O23 2.175844 1_555
Mg8 O24 1.957328 1_555
Mg8 O36 2.057474 1_555
Mg8 O20 2.113968 1_545
Mg8 O13 2.114493 1_545
Mg8 O8 2.155199 1_555
Mg8 O5 2.200354 1_555
Mg9 O25 1.957328 1_555
Mg9 O37 2.057474 1_555
Mg9 O21 2.113968 1_565
Mg9 O12 2.114493 1_565
Mg9 O9 2.155199 1_555
Mg9 O4 2.200354 1_555
Mg10 O32 1.956585 1_555
Mg10 O28 2.059242 1_655
Mg10 O0 2.116347 1_555
Mg10 O14 2.149280 1_655
Mg10 O18 2.155440 1_555
Mg10 O10 2.162253 1_655
Mg11 O33 1.956585 1_555
Mg11 O29 2.059242 1_455
Mg11 O1 2.116347 1_555
Mg11 O15 2.149280 1_455
Mg11 O19 2.155440 1_555
Mg11 O11 2.162253 1_455
Mg12 O34 1.956585 1_555
Mg12 O31 2.059242 1_545
Mg12 O1 2.116347 1_555
Mg12 O15 2.149280 1_545
Mg12 O19 2.155440 1_555
Mg12 O11 2.162253 1_545
Mg13 O35 1.956585 1_555
Mg13 O30 2.059242 1_565
Mg13 O0 2.116347 1_555
Mg13 O14 2.149280 1_565
Mg13 O18 2.155440 1_555
Mg13 O10 2.162253 1_565
Mg14 O26 1.957328 1_555
Mg14 O39 2.057474 1_555
Mg14 O20 2.113968 1_455
Mg14 O13 2.114493 1_455
Mg14 O8 2.155199 1_555
Mg14 O5 2.200354 1_555
Mg15 O27 1.957328 1_555
Mg15 O38 2.057474 1_555
Mg15 O21 2.113968 1_655
Mg15 O12 2.114493 1_655
Mg15 O9 2.155199 1_555
Mg15 O4 2.200354 1_555
Mg16 O29 2.079917 1_454
Mg16 O31 2.079917 1_544
Mg16 O14 2.090368 1_555
Mg16 O30 2.102744 1_555
Mg16 O28 2.102744 1_555
Mg16 O1 2.181076 1_554
Mg17 O30 2.079917 1_566
Mg17 O28 2.079917 1_656
Mg17 O15 2.090368 1_555
Mg17 O31 2.102744 1_555
Mg17 O29 2.102744 1_555
Mg17 O0 2.181076 1_556
Mg18 O37 2.077339 1_545
Mg18 O38 2.077339 1_455
Mg18 O8 2.095986 1_555
Mg18 O39 2.103652 1_555
Mg18 O36 2.103652 1_555
Mg18 O21 2.170483 1_555
Mg19 O36 2.077339 1_565
Mg19 O39 2.077339 1_655
Mg19 O9 2.095986 1_555
Mg19 O37 2.103652 1_555
Mg19 O38 2.103652 1_555
Mg19 O20 2.170483 1_555
B0 O0 1.369111 1_555
B0 O2 1.391642 1_555
B0 O5 1.396730 1_555
B1 O1 1.369111 1_555
B1 O3 1.391642 1_555
B1 O4 1.396730 1_555
B2 O6 1.370795 1_555
B2 O8 1.376399 1_555
B2 O10 1.409336 1_555
B3 O7 1.370795 1_555
B3 O9 1.376399 1_555
B3 O11 1.409336 1_555
B4 O13 1.386600 1_445
B4 O16 1.386990 1_555
B4 O14 1.390039 1_555
B5 O12 1.386600 1_665
B5 O17 1.386990 1_555
B5 O15 1.390039 1_555
B6 O18 1.374530 1_555
B6 O20 1.381538 1_555
B6 O22 1.409532 1_555
B7 O19 1.374530 1_555
B7 O21 1.381538 1_555
B7 O23 1.409532 1_555
O2 Sn1 2.149759 1_554
O3 Sn0 2.149759 1_556
O4 Sn2 2.133684 1_555
O5 Sn3 2.133684 1_555
O10 Sn0 2.128058 1_555
O11 Sn1 2.128058 1_555
O22 Sn2 2.133921 1_555
O23 Sn3 2.133921 1_555
O24 Sn0 2.006625 1_555
O25 Sn1 2.006625 1_555
O26 Sn0 2.006625 1_555
O27 Sn1 2.006625 1_555
O28 Sn0 2.076379 1_555
O29 Sn1 2.076379 1_555
O30 Sn0 2.076379 1_555
O31 Sn1 2.076379 1_555
O32 Sn3 2.008898 1_555
O33 Sn2 2.008898 1_555
O34 Sn2 2.008898 1_555
O35 Sn3 2.008898 1_555
O36 Sn3 2.073490 1_555
O37 Sn2 2.073490 1_555
O38 Sn2 2.073490 1_555
O39 Sn3 2.073490 1_555
