# generated using pymatgen
data_Ta2(PdRu)3
_symmetry_space_group_name_H-M   'P 1'
_cell_length_a   3.92643900
_cell_length_b   4.03388500
_cell_length_c   7.66279500
_cell_angle_alpha   90.00000000
_cell_angle_beta   90.00000000
_cell_angle_gamma   90.00000000
_symmetry_Int_Tables_number   1
_chemical_formula_structural   Ta2(PdRu)3
_chemical_formula_sum   'Ta2 Pd3 Ru3'
_cell_volume   121.36950339
_cell_formula_units_Z   1
loop_
 _symmetry_equiv_pos_site_id
 _symmetry_equiv_pos_as_xyz
  1  'x, y, z'
loop_
 _atom_site_type_symbol
 _atom_site_label
 _atom_site_symmetry_multiplicity
 _atom_site_fract_x
 _atom_site_fract_y
 _atom_site_fract_z
 _atom_site_occupancy
  Ta  Ta0  1  0.00000000  0.00000000  0.24402600  1
  Ta  Ta1  1  0.00000000  0.00000000  0.75597400  1
  Pd  Pd0  1  0.50000000  0.50000000  0.24945800  1
  Pd  Pd1  1  0.50000000  0.50000000  0.75054200  1
  Pd  Pd2  1  0.00000000  0.50000000  0.50000000  1
  Ru  Ru0  1  0.00000000  0.50000000  0.00000000  1
  Ru  Ru1  1  0.50000000  0.00000000  0.50000000  1
  Ru  Ru2  1  0.50000000  0.00000000  0.00000000  1
loop_
_geom_bond_atom_site_label_1
_geom_bond_atom_site_label_2
_geom_bond_distance
_geom_bond_site_symmetry_2
Pd0 Ru0 2.740116 1_655
Pd0 Ru0 2.740116 1_555
Pd0 Pd2 2.745917 1_555
Pd0 Pd2 2.745917 1_655
Pd0 Ru2 2.778860 1_565
Pd0 Ru2 2.778860 1_555
Pd0 Ru1 2.784581 1_565
Pd0 Ru1 2.784581 1_555
Pd0 Ta0 2.814964 1_665
Pd0 Ta0 2.814964 1_655
Pd0 Ta0 2.814964 1_565
Pd0 Ta0 2.814964 1_555
Pd1 Ru0 2.740116 1_656
Pd1 Ru0 2.740116 1_556
Pd1 Pd2 2.745917 1_555
Pd1 Pd2 2.745917 1_655
Pd1 Ru2 2.778860 1_566
Pd1 Ru2 2.778860 1_556
Pd1 Ru1 2.784581 1_555
Pd1 Ru1 2.784581 1_565
Pd1 Ta1 2.814964 1_555
Pd1 Ta1 2.814964 1_565
Pd1 Ta1 2.814964 1_655
Pd1 Ta1 2.814964 1_665
Pd2 Ta1 2.813440 1_555
Pd2 Ta1 2.813440 1_565
Pd2 Ta0 2.813440 1_565
Pd2 Ta0 2.813440 1_555
Pd2 Ru1 2.814656 1_565
Pd2 Ru1 2.814656 1_555
Pd2 Ru1 2.814656 1_455
Pd2 Ru1 2.814656 1_465
Ru0 Ta0 2.750393 1_565
Ru0 Ta0 2.750393 1_555
Ru0 Ta1 2.750393 1_554
Ru0 Ta1 2.750393 1_564
Ru0 Ru2 2.814656 1_555
Ru0 Ru2 2.814656 1_465
Ru0 Ru2 2.814656 1_455
Ru0 Ru2 2.814656 1_565
Ru1 Ta1 2.775179 1_555
Ru1 Ta1 2.775179 1_655
Ru1 Ta0 2.775179 1_555
Ru1 Ta0 2.775179 1_655
Ru2 Ta0 2.711243 1_555
Ru2 Ta0 2.711243 1_655
Ru2 Ta1 2.711243 1_654
Ru2 Ta1 2.711243 1_554
