# generated using pymatgen
data_NaMnP2NO10
_symmetry_space_group_name_H-M   'P 1'
_cell_length_a   9.14755780
_cell_length_b   9.14755780
_cell_length_c   5.42519236
_cell_angle_alpha   81.90943070
_cell_angle_beta   81.90943070
_cell_angle_gamma   121.66394605
_symmetry_Int_Tables_number   1
_chemical_formula_structural   NaMnP2NO10
_chemical_formula_sum   'Na2 Mn2 P4 N2 O20'
_cell_volume   369.93046828
_cell_formula_units_Z   2
loop_
 _symmetry_equiv_pos_site_id
 _symmetry_equiv_pos_as_xyz
  1  'x, y, z'
loop_
 _atom_site_type_symbol
 _atom_site_label
 _atom_site_symmetry_multiplicity
 _atom_site_fract_x
 _atom_site_fract_y
 _atom_site_fract_z
 _atom_site_occupancy
  Na  Na0  1  0.94493464  0.79785984  0.88414420  1
  Na  Na1  1  0.79785984  0.94493464  0.38414420  1
  Mn  Mn0  1  0.13218367  0.60325072  0.60858023  1
  Mn  Mn1  1  0.60325072  0.13218367  0.10858023  1
  P  P0  1  0.34004473  0.78262760  0.01067496  1
  P  P1  1  0.78262760  0.34004473  0.51067496  1
  P  P2  1  0.19505917  0.94457199  0.25334428  1
  P  P3  1  0.94457199  0.19505917  0.75334428  1
  N  N0  1  0.35809103  0.43867002  0.17594600  1
  N  N1  1  0.43867002  0.35809103  0.67594600  1
  O  O0  1  0.31687948  0.68052560  0.27598487  1
  O  O1  1  0.68052560  0.31687948  0.77598487  1
  O  O2  1  0.31009772  0.68363006  0.80313071  1
  O  O3  1  0.68363006  0.31009772  0.30313071  1
  O  O4  1  0.52049919  0.96145262  0.91763701  1
  O  O5  1  0.96145262  0.52049919  0.41763701  1
  O  O6  1  0.19736448  0.83333144  0.04540040  1
  O  O7  1  0.83333144  0.19736448  0.54540040  1
  O  O8  1  0.16394631  0.83071789  0.51724436  1
  O  O9  1  0.83071789  0.16394631  0.01724436  1
  O  O10  1  0.05277646  0.97148753  0.22365525  1
  O  O11  1  0.97148753  0.05277646  0.72365525  1
  O  O12  1  0.38423084  0.11440604  0.17334789  1
  O  O13  1  0.11440604  0.38423084  0.67334789  1
  O  O14  1  0.97382831  0.54463895  0.88077380  1
  O  O15  1  0.54463895  0.97382831  0.38077380  1
  O  O16  1  0.63136109  0.70448478  0.00769348  1
  O  O17  1  0.70448478  0.63136109  0.50769348  1
  O  O18  1  0.52736982  0.51347499  0.65744156  1
  O  O19  1  0.51347499  0.52736982  0.15744156  1
loop_
_geom_bond_atom_site_label_1
_geom_bond_atom_site_label_2
_geom_bond_distance
_geom_bond_site_symmetry_2
Na0 O11 2.242548 1_565
Na0 O6 2.462632 1_656
Na0 O14 2.467591 1_555
Na0 O16 2.476318 1_556
Na0 O8 2.478519 1_655
Na0 O10 2.564829 1_656
Na1 O10 2.242548 1_655
Na1 O7 2.462632 1_565
Na1 O15 2.467591 1_555
Na1 O17 2.476318 1_555
Na1 O9 2.478519 1_565
Na1 O11 2.564829 1_565
Mn0 O14 1.710585 1_455
Mn0 O5 1.876210 1_455
Mn0 O13 1.899371 1_555
Mn0 O8 1.922002 1_555
Mn0 O2 1.936226 1_555
Mn0 O0 2.034458 1_555
Mn1 O15 1.710585 1_545
Mn1 O4 1.876210 1_544
Mn1 O12 1.899371 1_555
Mn1 O9 1.922002 1_555
Mn1 O3 1.936226 1_555
Mn1 O1 2.034458 1_554
N0 O19 1.189477 1_555
N1 O18 1.189477 1_555
O0 P0 1.522150 1_555
O1 P1 1.522150 1_555
O2 P0 1.508746 1_556
O3 P1 1.508746 1_555
O4 P0 1.534163 1_556
O5 P1 1.534163 1_555
O6 P0 1.595318 1_555
O6 P2 1.627133 1_555
O7 P1 1.595318 1_555
O7 P3 1.627133 1_555
O8 P2 1.539442 1_555
O9 P3 1.539442 1_554
O10 P2 1.471343 1_555
O11 P3 1.471343 1_555
O12 P2 1.540381 1_545
O13 P3 1.540381 1_455
O16 O19 1.412968 1_555
O17 O18 1.412968 1_555
