# generated using pymatgen
data_Tb4MgAl2(FeO6)2
_symmetry_space_group_name_H-M   'P 1'
_cell_length_a   5.43280785
_cell_length_b   5.83165189
_cell_length_c   8.35603122
_cell_angle_alpha   85.59948478
_cell_angle_beta   93.89892498
_cell_angle_gamma   89.04253654
_symmetry_Int_Tables_number   1
_chemical_formula_structural   Tb4MgAl2(FeO6)2
_chemical_formula_sum   'Tb4 Mg1 Al2 Fe2 O12'
_cell_volume   263.28248776
_cell_formula_units_Z   1
loop_
 _symmetry_equiv_pos_site_id
 _symmetry_equiv_pos_as_xyz
  1  'x, y, z'
loop_
 _atom_site_type_symbol
 _atom_site_label
 _atom_site_symmetry_multiplicity
 _atom_site_fract_x
 _atom_site_fract_y
 _atom_site_fract_z
 _atom_site_occupancy
  Tb  Tb0  1  0.52039500  0.62873800  0.28043900  1
  Tb  Tb1  1  0.93248100  0.11792000  0.29355700  1
  Tb  Tb2  1  0.47704300  0.40641100  0.73064100  1
  Tb  Tb3  1  0.05061100  0.91759500  0.72022100  1
  Mg  Mg0  1  0.38313300  0.21968400  0.11514900  1
  Al  Al0  1  0.97001000  0.50773500  0.54681600  1
  Al  Al1  1  0.53046500  0.90023000  0.91786100  1
  Fe  Fe0  1  0.96932500  0.54731100  0.00707500  1
  Fe  Fe1  1  0.48728000  0.00767900  0.50672100  1
  O  O0  1  0.32880700  0.97867700  0.28126300  1
  O  O1  1  0.17308700  0.44027600  0.21050000  1
  O  O2  1  0.65624700  0.01683500  0.73863900  1
  O  O3  1  0.87253500  0.53737700  0.75773400  1
  O  O4  1  0.74563800  0.85508500  0.08575100  1
  O  O5  1  0.70442000  0.34823800  0.46409000  1
  O  O6  1  0.16487500  0.22443900  0.56101100  1
  O  O7  1  0.32934200  0.66805200  0.89598900  1
  O  O8  1  0.29423100  0.12723200  0.90453500  1
  O  O9  1  0.26518300  0.67118400  0.56198000  1
  O  O10  1  0.81308700  0.80190900  0.45893300  1
  O  O11  1  0.69430600  0.36310500  0.12181000  1
loop_
_geom_bond_atom_site_label_1
_geom_bond_atom_site_label_2
_geom_bond_distance
_geom_bond_site_symmetry_2
Mg0 O11 1.897938 1_555
Mg0 O8 1.913089 1_554
Mg0 O0 1.938904 1_545
Mg0 O1 1.955443 1_555
Al0 O5 1.852787 1_555
Al0 O9 1.881005 1_655
Al0 O3 1.893970 1_555
Al0 O6 1.938716 1_655
Al0 O10 1.970217 1_555
Al1 O4 1.764647 1_556
Al1 O7 1.766590 1_555
Al1 O2 1.780605 1_565
Al1 O8 1.820207 1_565
Fe0 O1 2.015604 1_655
Fe0 O11 2.096648 1_555
Fe0 O3 2.119290 1_554
Fe0 O4 2.312417 1_555
Fe0 O7 2.318533 1_654
Fe1 O0 2.037704 1_545
Fe1 O2 2.092036 1_555
Fe1 O10 2.197985 1_545
Fe1 O6 2.234661 1_555
Fe1 O5 2.343012 1_555
Fe1 O9 2.352802 1_545
O0 Tb0 2.275990 1_555
O0 Tb1 2.300105 1_465
O1 Tb0 2.264416 1_555
O1 Tb1 2.393647 1_455
O2 Tb3 2.228455 1_645
O2 Tb2 2.451052 1_555
O3 Tb2 2.294866 1_555
O3 Tb3 2.440678 1_655
O4 Tb0 2.425182 1_555
O4 Tb1 2.572095 1_565
O5 Tb0 2.319866 1_555
O5 Tb1 2.418247 1_555
O5 Tb2 2.660463 1_555
O6 Tb3 2.267450 1_545
O6 Tb2 2.444496 1_555
O6 Tb1 2.613427 1_455
O7 Tb2 2.305273 1_555
O7 Tb3 2.421544 1_555
O8 Tb2 2.373963 1_555
O8 Tb3 2.384146 1_545
O9 Tb2 2.254156 1_555
O9 Tb3 2.370116 1_555
O9 Tb0 2.835446 1_555
O10 Tb1 2.344687 1_565
O10 Tb0 2.394835 1_555
O10 Tb3 2.599854 1_655
O11 Tb1 2.269157 1_555
O11 Tb0 2.342180 1_555
