# generated using pymatgen
data_Zn2AsO6
_symmetry_space_group_name_H-M   'P 1'
_cell_length_a   8.01256900
_cell_length_b   10.48587200
_cell_length_c   13.73527111
_cell_angle_alpha   73.47050403
_cell_angle_beta   90.00000000
_cell_angle_gamma   90.00000000
_symmetry_Int_Tables_number   1
_chemical_formula_structural   Zn2AsO6
_chemical_formula_sum   'Zn16 As8 O48'
_cell_volume   1106.32887110
_cell_formula_units_Z   8
loop_
 _symmetry_equiv_pos_site_id
 _symmetry_equiv_pos_as_xyz
  1  'x, y, z'
loop_
 _atom_site_type_symbol
 _atom_site_label
 _atom_site_symmetry_multiplicity
 _atom_site_fract_x
 _atom_site_fract_y
 _atom_site_fract_z
 _atom_site_occupancy
  Zn  Zn0  1  0.54042200  0.12306800  0.40750000  1
  Zn  Zn1  1  0.04042200  0.37693200  0.59250000  1
  Zn  Zn2  1  0.45957800  0.87693200  0.59250000  1
  Zn  Zn3  1  0.95957800  0.62306800  0.40750000  1
  Zn  Zn4  1  0.83296300  0.04043100  0.28357900  1
  Zn  Zn5  1  0.33296300  0.45956900  0.71642100  1
  Zn  Zn6  1  0.16703700  0.95956900  0.71642100  1
  Zn  Zn7  1  0.66703700  0.54043100  0.28357900  1
  Zn  Zn8  1  0.28957600  0.39317300  0.36950100  1
  Zn  Zn9  1  0.78957600  0.10682700  0.63049900  1
  Zn  Zn10  1  0.71042400  0.60682700  0.63049900  1
  Zn  Zn11  1  0.21042400  0.89317300  0.36950100  1
  Zn  Zn12  1  0.83572800  0.09632000  0.05020900  1
  Zn  Zn13  1  0.33572800  0.40368000  0.94979100  1
  Zn  Zn14  1  0.16427200  0.90368000  0.94979100  1
  Zn  Zn15  1  0.66427200  0.59632000  0.05020900  1
  As  As0  1  0.56301100  0.27471300  0.15648500  1
  As  As1  1  0.06301100  0.22528700  0.84351500  1
  As  As2  1  0.43698900  0.72528700  0.84351500  1
  As  As3  1  0.93698900  0.77471300  0.15648500  1
  As  As4  1  0.92906700  0.28047500  0.39813300  1
  As  As5  1  0.42906700  0.21952500  0.60186700  1
  As  As6  1  0.07093300  0.71952500  0.60186700  1
  As  As7  1  0.57093300  0.78047500  0.39813300  1
  O  O0  1  0.45786100  0.22882300  0.26808600  1
  O  O1  1  0.95786100  0.27117700  0.73191400  1
  O  O2  1  0.54213900  0.77117700  0.73191400  1
  O  O3  1  0.04213900  0.72882300  0.26808600  1
  O  O4  1  0.66630000  0.42368000  0.14166800  1
  O  O5  1  0.16630000  0.07632000  0.85833200  1
  O  O6  1  0.33370000  0.57632000  0.85833200  1
  O  O7  1  0.83370000  0.92368000  0.14166800  1
  O  O8  1  0.71570100  0.15675300  0.15383100  1
  O  O9  1  0.21570100  0.34324700  0.84616900  1
  O  O10  1  0.28429900  0.84324700  0.84616900  1
  O  O11  1  0.78429900  0.65675300  0.15383100  1
  O  O12  1  0.43346400  0.27728900  0.05614200  1
  O  O13  1  0.93346400  0.22271100  0.94385800  1
  O  O14  1  0.56653600  0.72271100  0.94385800  1
  O  O15  1  0.06653600  0.77728900  0.05614200  1
  O  O16  1  0.44667800  0.26967300  0.47024700  1
  O  O17  1  0.94667800  0.23032700  0.52975300  1
  O  O18  1  0.55332200  0.73032700  0.52975300  1
  O  O19  1  0.05332200  0.76967300  0.47024700  1
  O  O20  1  0.85267800  0.44221400  0.36390400  1
  O  O21  1  0.35267800  0.05778600  0.63609600  1
  O  O22  1  0.14732200  0.55778600  0.63609600  1
  O  O23  1  0.64732200  0.94221400  0.36390400  1
  O  O24  1  0.78962200  0.17812100  0.36112700  1
  O  O25  1  0.28962200  0.32187900  0.63887300  1
  O  O26  1  0.21037800  0.82187900  0.63887300  1
  O  O27  1  0.71037800  0.67812100  0.36112700  1
  O  O28  1  0.11666500  0.27340000  0.34102600  1
  O  O29  1  0.61666500  0.22660000  0.65897400  1
  O  O30  1  0.88333500  0.72660000  0.65897400  1
  O  O31  1  0.38333500  0.77340000  0.34102600  1
  O  O32  1  0.05288900  0.43784200  0.11939700  1
  O  O33  1  0.55288900  0.06215800  0.88060300  1
  O  O34  1  0.94711100  0.56215800  0.88060300  1
  O  O35  1  0.44711100  0.93784200  0.11939700  1
  O  O36  1  0.13896100  0.47775800  0.44673500  1
  O  O37  1  0.63896100  0.02224200  0.55326500  1
  O  O38  1  0.86103900  0.52224200  0.55326500  1
  O  O39  1  0.36103900  0.97775800  0.44673500  1
  O  O40  1  0.06339000  0.00410000  0.27193000  1
  O  O41  1  0.56339000  0.49590000  0.72807000  1
  O  O42  1  0.93661000  0.99590000  0.72807000  1
  O  O43  1  0.43661000  0.50410000  0.27193000  1
  O  O44  1  0.31187600  0.99627400  0.09910000  1
  O  O45  1  0.81187600  0.50372600  0.90090000  1
  O  O46  1  0.68812400  0.00372600  0.90090000  1
  O  O47  1  0.18812400  0.49627400  0.09910000  1
loop_
_geom_bond_atom_site_label_1
_geom_bond_atom_site_label_2
_geom_bond_distance
_geom_bond_site_symmetry_2
As0 O0 1.694511 1_555
As0 O12 1.719459 1_555
As0 O4 1.727849 1_555
As0 O8 1.747496 1_555
As1 O1 1.694511 1_455
As1 O13 1.719459 1_455
As1 O5 1.727849 1_555
As1 O9 1.747496 1_555
As2 O2 1.694511 1_555
As2 O14 1.719459 1_555
As2 O6 1.727849 1_555
As2 O10 1.747496 1_555
As3 O3 1.694511 1_655
As3 O15 1.719459 1_655
As3 O7 1.727849 1_555
As3 O11 1.747496 1_555
As4 O28 1.706840 1_655
As4 O24 1.723099 1_555
As4 O20 1.737322 1_555
As4 O17 1.738898 1_555
As5 O29 1.706840 1_555
As5 O25 1.723099 1_555
As5 O21 1.737322 1_555
As5 O16 1.738898 1_555
As6 O30 1.706840 1_455
As6 O26 1.723099 1_555
As6 O22 1.737322 1_555
As6 O19 1.738898 1_555
As7 O31 1.706840 1_555
As7 O27 1.723099 1_555
As7 O23 1.737322 1_555
As7 O18 1.738898 1_555
O0 Zn0 2.031219 1_555
O1 Zn1 2.031219 1_655
O2 Zn2 2.031219 1_555
O3 Zn3 2.031219 1_455
O4 Zn15 1.887181 1_555
O5 Zn14 1.887181 1_545
O6 Zn13 1.887181 1_555
O7 Zn12 1.887181 1_565
O8 Zn12 1.966063 1_555
O8 Zn4 2.075965 1_555
O9 Zn13 1.966063 1_555
O9 Zn5 2.075965 1_555
O10 Zn14 1.966063 1_555
O10 Zn6 2.075965 1_555
O11 Zn15 1.966063 1_555
O11 Zn7 2.075965 1_555
O12 Zn13 1.844440 1_554
O13 Zn12 1.844440 1_556
O14 Zn15 1.844440 1_556
O15 Zn14 1.844440 1_554
O16 Zn8 2.038810 1_555
O16 Zn0 2.103355 1_555
O17 Zn9 2.038810 1_555
O17 Zn1 2.103355 1_655
O18 Zn10 2.038810 1_555
O18 Zn2 2.103355 1_555
O19 Zn11 2.038810 1_555
O19 Zn3 2.103355 1_455
O20 Zn7 1.960587 1_555
O20 Zn3 2.309713 1_555
O21 Zn6 1.960587 1_545
O21 Zn2 2.309713 1_545
O22 Zn5 1.960587 1_555
O22 Zn1 2.309713 1_555
O23 Zn4 1.960587 1_565
O23 Zn0 2.309713 1_565
O24 Zn4 2.052986 1_555
O24 Zn0 2.125245 1_555
O25 Zn5 2.052986 1_555
O25 Zn1 2.125245 1_555
O26 Zn6 2.052986 1_555
O26 Zn2 2.125245 1_555
O27 Zn7 2.052986 1_555
O27 Zn3 2.125245 1_555
O28 Zn8 1.982252 1_555
O29 Zn9 1.982252 1_555
O30 Zn10 1.982252 1_555
O31 Zn11 1.982252 1_555
O32 O47 1.236966 1_555
O33 O46 1.236966 1_555
O34 O45 1.236966 1_555
O35 O44 1.236966 1_555
O36 Zn8 1.975809 1_555
O36 Zn3 2.052007 1_455
O36 Zn1 2.131946 1_555
O37 Zn9 1.975809 1_555
O37 Zn2 2.052007 1_545
O37 Zn0 2.131946 1_555
O38 Zn10 1.975809 1_555
O38 Zn1 2.052007 1_655
O38 Zn3 2.131946 1_555
O39 Zn11 1.975809 1_555
O39 Zn0 2.052007 1_565
O39 Zn2 2.131946 1_555
O40 Zn4 1.901128 1_455
O40 Zn11 1.910486 1_545
O41 Zn5 1.901128 1_555
O41 Zn10 1.910486 1_555
O42 Zn6 1.901128 1_655
O42 Zn9 1.910486 1_565
O43 Zn7 1.901128 1_555
O43 Zn8 1.910486 1_555
