# generated using pymatgen
data_Rb2Nd2Mg(WO4)4
_symmetry_space_group_name_H-M   'P 1'
_cell_length_a   7.59699955
_cell_length_b   8.21496275
_cell_length_c   7.57271337
_cell_angle_alpha   62.99300488
_cell_angle_beta   61.89179067
_cell_angle_gamma   87.39200752
_symmetry_Int_Tables_number   1
_chemical_formula_structural   Rb2Nd2Mg(WO4)4
_chemical_formula_sum   'Rb2 Nd2 Mg1 W4 O16'
_cell_volume   362.77611673
_cell_formula_units_Z   1
loop_
 _symmetry_equiv_pos_site_id
 _symmetry_equiv_pos_as_xyz
  1  'x, y, z'
loop_
 _atom_site_type_symbol
 _atom_site_label
 _atom_site_symmetry_multiplicity
 _atom_site_fract_x
 _atom_site_fract_y
 _atom_site_fract_z
 _atom_site_occupancy
  Rb  Rb0  1  0.76868600  0.13557200  0.78253800  1
  Rb  Rb1  1  0.26184000  0.87583000  0.17819800  1
  Nd  Nd0  1  0.24673700  0.80020500  0.73048000  1
  Nd  Nd1  1  0.75073100  0.20104800  0.25779300  1
  Mg  Mg0  1  0.00773900  0.51933400  0.60953900  1
  W  W0  1  0.67992800  0.68845000  0.81024000  1
  W  W1  1  0.70629100  0.67258900  0.30474600  1
  W  W2  1  0.30189800  0.31837800  0.19492200  1
  W  W3  1  0.30820800  0.31858800  0.69226100  1
  O  O0  1  0.61781300  0.38783700  0.44516200  1
  O  O1  1  0.26001400  0.06929300  0.77700800  1
  O  O2  1  0.02025200  0.33037000  0.87919400  1
  O  O3  1  0.36730100  0.09771600  0.36056600  1
  O  O4  1  0.77194300  0.60569300  0.55909100  1
  O  O5  1  0.37258900  0.26837000  0.94251700  1
  O  O6  1  0.62736300  0.91489400  0.64392100  1
  O  O7  1  0.39154700  0.60741000  0.55041300  1
  O  O8  1  0.02940900  0.23746200  0.31154100  1
  O  O9  1  0.72287600  0.91861300  0.24203800  1
  O  O10  1  0.35761900  0.58862400  0.97834900  1
  O  O11  1  0.97143700  0.67860500  0.11234700  1
  O  O12  1  0.21990200  0.39522700  0.44148100  1
  O  O13  1  0.63290300  0.73186200  0.07181600  1
  O  O14  1  0.98091200  0.73117100  0.68169400  1
  O  O15  1  0.62406400  0.41519200  0.03143200  1
loop_
_geom_bond_atom_site_label_1
_geom_bond_atom_site_label_2
_geom_bond_distance
_geom_bond_site_symmetry_2
Nd0 O14 2.352422 1_455
Nd0 O11 2.366878 1_456
Nd0 O10 2.376464 1_555
Nd0 O1 2.404577 1_565
Nd0 O7 2.442828 1_555
Nd0 O3 2.495494 1_565
Nd0 O6 2.753148 1_555
Nd1 O2 2.332622 1_654
Nd1 O15 2.370790 1_555
Nd1 O8 2.391131 1_655
Nd1 O9 2.400456 1_545
Nd1 O0 2.423589 1_555
Nd1 O6 2.515937 1_545
Nd1 O3 2.701892 1_555
Mg0 O2 1.969570 1_555
Mg0 O14 2.023583 1_455
Mg0 O4 2.034993 1_455
Mg0 O12 2.086385 1_555
Mg0 Rb1 2.976198 1_555
O0 W1 2.065200 1_555
O0 W3 2.089286 1_555
O0 Rb0 3.141697 1_555
O1 W3 1.842062 1_555
O1 Rb1 2.721877 1_546
O2 W3 1.996506 1_555
O2 Rb0 3.067454 1_455
O3 W2 1.883225 1_555
O3 Rb1 3.055056 1_545
O4 W1 2.044383 1_555
O4 W0 2.108621 1_555
O5 W2 1.958677 1_556
O5 W3 2.036143 1_555
O5 Rb1 2.810151 1_546
O5 Rb0 3.029729 1_555
O6 W0 1.866735 1_555
O6 Rb0 2.916913 1_565
O7 W3 2.089358 1_555
O7 W1 2.117862 1_555
O7 Rb1 3.248516 1_555
O8 W2 1.837534 1_555
O8 Rb0 2.850967 1_455
O9 W1 1.849672 1_555
O9 Rb0 2.947653 1_564
O10 W2 1.980457 1_556
O10 W0 2.141513 1_555
O10 Rb1 3.230412 1_556
O11 W1 1.833290 1_555
O11 Rb1 3.136353 1_655
O12 W2 2.052201 1_555
O12 W3 2.128174 1_555
O13 W1 1.944539 1_555
O13 W0 2.035119 1_554
O13 Rb1 2.901095 1_555
O13 Rb0 2.906151 1_564
O14 W0 1.991125 1_555
O14 Rb1 2.992124 1_655
O15 W0 2.006714 1_554
O15 W2 2.140843 1_555
