# generated using pymatgen
data_H12PdC2(N3Cl2)2
_symmetry_space_group_name_H-M   'P 1'
_cell_length_a   11.80565304
_cell_length_b   11.80565304
_cell_length_c   13.57197477
_cell_angle_alpha   90.00000000
_cell_angle_beta   90.00000000
_cell_angle_gamma   90.00000000
_symmetry_Int_Tables_number   1
_chemical_formula_structural   H12PdC2(N3Cl2)2
_chemical_formula_sum   'H48 Pd4 C8 N24 Cl16'
_cell_volume   1891.57286152
_cell_formula_units_Z   4
loop_
 _symmetry_equiv_pos_site_id
 _symmetry_equiv_pos_as_xyz
  1  'x, y, z'
loop_
 _atom_site_type_symbol
 _atom_site_label
 _atom_site_symmetry_multiplicity
 _atom_site_fract_x
 _atom_site_fract_y
 _atom_site_fract_z
 _atom_site_occupancy
  H  H0  1  0.58782607  0.30581332  0.44233087  1
  H  H1  1  0.91217393  0.19418668  0.44233087  1
  H  H2  1  0.80581332  0.41217393  0.94233087  1
  H  H3  1  0.69418668  0.08782607  0.94233087  1
  H  H4  1  0.41217393  0.69418668  0.55766913  1
  H  H5  1  0.08782607  0.80581332  0.55766913  1
  H  H6  1  0.19418668  0.58782607  0.05766913  1
  H  H7  1  0.30581332  0.91217393  0.05766913  1
  H  H8  1  0.59738729  0.36555926  0.33386547  1
  H  H9  1  0.90261271  0.13444074  0.33386547  1
  H  H10  1  0.86555926  0.40261271  0.83386547  1
  H  H11  1  0.63444074  0.09738729  0.83386547  1
  H  H12  1  0.40261271  0.63444074  0.66613453  1
  H  H13  1  0.09738729  0.86555926  0.66613453  1
  H  H14  1  0.13444074  0.59738729  0.16613453  1
  H  H15  1  0.36555926  0.90261271  0.16613453  1
  H  H16  1  0.31466373  0.53792306  0.36327756  1
  H  H17  1  0.18533627  0.96207694  0.36327756  1
  H  H18  1  0.03792306  0.68533627  0.86327756  1
  H  H19  1  0.46207694  0.81466373  0.86327756  1
  H  H20  1  0.68533627  0.46207694  0.63672244  1
  H  H21  1  0.81466373  0.03792306  0.63672244  1
  H  H22  1  0.96207694  0.31466373  0.13672244  1
  H  H23  1  0.53792306  0.18533627  0.13672244  1
  H  H24  1  0.42917010  0.48550822  0.30736747  1
  H  H25  1  0.07082990  0.01449178  0.30736747  1
  H  H26  1  0.98550822  0.57082990  0.80736747  1
  H  H27  1  0.51449178  0.92917010  0.80736747  1
  H  H28  1  0.57082990  0.51449178  0.69263253  1
  H  H29  1  0.92917010  0.98550822  0.69263253  1
  H  H30  1  0.01449178  0.42917010  0.19263253  1
  H  H31  1  0.48550822  0.07082990  0.19263253  1
  H  H32  1  0.32058201  0.34418274  0.54542225  1
  H  H33  1  0.17941799  0.15581726  0.54542225  1
  H  H34  1  0.84418274  0.67941799  0.04542225  1
  H  H35  1  0.65581726  0.82058201  0.04542225  1
  H  H36  1  0.67941799  0.65581726  0.45457775  1
  H  H37  1  0.82058201  0.84418274  0.45457775  1
  H  H38  1  0.15581726  0.32058201  0.95457775  1
  H  H39  1  0.34418274  0.17941799  0.95457775  1
  H  H40  1  0.43895421  0.27499257  0.56313517  1
  H  H41  1  0.06104579  0.22500743  0.56313517  1
  H  H42  1  0.77499257  0.56104579  0.06313517  1
  H  H43  1  0.72500743  0.93895421  0.06313517  1
  H  H44  1  0.56104579  0.72500743  0.43686483  1
  H  H45  1  0.93895421  0.77499257  0.43686483  1
  H  H46  1  0.22500743  0.43895421  0.93686483  1
  H  H47  1  0.27499257  0.06104579  0.93686483  1
  Pd  Pd0  1  0.50000000  -0.00000000  0.50000000  1
  Pd  Pd1  1  -0.00000000  0.50000000  0.50000000  1
  Pd  Pd2  1  0.50000000  0.50000000  0.00000000  1
  Pd  Pd3  1  -0.00000000  -0.00000000  0.00000000  1
  C  C0  1  0.47429359  0.40900289  0.75770546  1
  C  C1  1  0.02570641  0.09099711  0.75770546  1
  C  C2  1  0.90900289  0.52570641  0.25770546  1
  C  C3  1  0.59099711  0.97429359  0.25770546  1
  C  C4  1  0.52570641  0.59099711  0.24229454  1
  C  C5  1  0.97429359  0.90900289  0.24229454  1
  C  C6  1  0.09099711  0.47429359  0.74229454  1
  C  C7  1  0.40900289  0.02570641  0.74229454  1
  N  N0  1  0.60217459  0.28779184  0.36864077  1
  N  N1  1  0.89782541  0.21220816  0.36864077  1
  N  N2  1  0.78779184  0.39782541  0.86864077  1
  N  N3  1  0.71220816  0.10217459  0.86864077  1
  N  N4  1  0.39782541  0.71220816  0.63135923  1
  N  N5  1  0.10217459  0.78779184  0.63135923  1
  N  N6  1  0.21220816  0.60217459  0.13135923  1
  N  N7  1  0.28779184  0.89782541  0.13135923  1
  N  N8  1  0.36069255  0.46404272  0.35326428  1
  N  N9  1  0.13930745  0.03595728  0.35326428  1
  N  N10  1  0.96404272  0.63930745  0.85326428  1
  N  N11  1  0.53595728  0.86069255  0.85326428  1
  N  N12  1  0.63930745  0.53595728  0.64673572  1
  N  N13  1  0.86069255  0.96404272  0.64673572  1
  N  N14  1  0.03595728  0.36069255  0.14673572  1
  N  N15  1  0.46404272  0.13930745  0.14673572  1
  N  N16  1  0.40633520  0.35649103  0.55746849  1
  N  N17  1  0.09366480  0.14350897  0.55746849  1
  N  N18  1  0.85649103  0.59366480  0.05746849  1
  N  N19  1  0.64350897  0.90633520  0.05746849  1
  N  N20  1  0.59366480  0.64350897  0.44253151  1
  N  N21  1  0.90633520  0.85649103  0.44253151  1
  N  N22  1  0.14350897  0.40633520  0.94253151  1
  N  N23  1  0.35649103  0.09366480  0.94253151  1
  Cl  Cl0  1  0.62751366  0.02332873  0.36225311  1
  Cl  Cl1  1  0.87248634  0.47667127  0.36225311  1
  Cl  Cl2  1  0.52332873  0.37248634  0.86225311  1
  Cl  Cl3  1  -0.02332873  0.12751366  0.86225311  1
  Cl  Cl4  1  0.37248634  -0.02332873  0.63774689  1
  Cl  Cl5  1  0.12751366  0.52332873  0.63774689  1
  Cl  Cl6  1  0.47667127  0.62751366  0.13774689  1
  Cl  Cl7  1  0.02332873  0.87248634  0.13774689  1
  Cl  Cl8  1  0.39674801  0.87010507  0.40666990  1
  Cl  Cl9  1  0.10325199  0.62989493  0.40666990  1
  Cl  Cl10  1  0.37010507  0.60325199  0.90666990  1
  Cl  Cl11  1  0.12989493  0.89674801  0.90666990  1
  Cl  Cl12  1  0.60325199  0.12989493  0.59333010  1
  Cl  Cl13  1  0.89674801  0.37010507  0.59333010  1
  Cl  Cl14  1  0.62989493  0.39674801  0.09333010  1
  Cl  Cl15  1  0.87010507  0.10325199  0.09333010  1
loop_
_geom_bond_atom_site_label_1
_geom_bond_atom_site_label_2
_geom_bond_distance
_geom_bond_site_symmetry_2
H0 N0 1.036436 1_555
H1 N1 1.036436 1_555
H2 N2 1.036436 1_555
H3 N3 1.036436 1_555
H4 N4 1.036436 1_555
H5 N5 1.036436 1_555
H6 N6 1.036436 1_555
H7 N7 1.036436 1_555
H8 N0 1.033851 1_555
H9 N1 1.033851 1_555
H10 N2 1.033851 1_555
H11 N3 1.033851 1_555
H12 N4 1.033851 1_555
H13 N5 1.033851 1_555
H14 N6 1.033851 1_555
H15 N7 1.033851 1_555
H16 N8 1.036579 1_555
H17 N9 1.036579 1_565
H18 N10 1.036579 1_455
H19 N11 1.036579 1_555
H20 N12 1.036579 1_555
H21 N13 1.036579 1_545
H22 N14 1.036579 1_655
H23 N15 1.036579 1_555
H24 N8 1.051562 1_555
H25 N9 1.051562 1_555
H26 N10 1.051562 1_555
H27 N11 1.051562 1_555
H28 N12 1.051562 1_555
H29 N13 1.051562 1_555
H30 N14 1.051562 1_555
H31 N15 1.051562 1_555
H32 N16 1.035732 1_555
H33 N17 1.035732 1_555
H34 N18 1.035732 1_555
H35 N19 1.035732 1_555
H36 N20 1.035732 1_555
H37 N21 1.035732 1_555
H38 N22 1.035732 1_555
H39 N23 1.035732 1_555
H40 N16 1.039195 1_555
H41 N17 1.039195 1_555
H42 N18 1.039195 1_555
H43 N19 1.039195 1_555
H44 N20 1.039195 1_555
H45 N21 1.039195 1_555
H46 N22 1.039195 1_555
H47 N23 1.039195 1_555
C0 Cl2 1.591946 1_555
C1 Cl3 1.591946 1_555
C2 Cl1 1.591946 1_555
C3 Cl0 1.591946 1_565
C4 Cl6 1.591946 1_555
C5 Cl7 1.591946 1_655
C6 Cl5 1.591946 1_555
C7 Cl4 1.591946 1_555
Cl0 Pd0 2.415998 1_555
Cl1 Pd1 2.415998 1_655
Cl2 Pd2 2.415998 1_556
Cl3 Pd3 2.415998 1_556
Cl4 Pd0 2.415998 1_555
Cl5 Pd1 2.415998 1_555
Cl6 Pd2 2.415998 1_555
Cl7 Pd3 2.415998 1_565
Cl8 Pd0 2.332793 1_565
Cl9 Pd1 2.332793 1_555
Cl10 Pd2 2.332793 1_556
Cl11 Pd3 2.332793 1_566
Cl12 Pd0 2.332793 1_555
Cl13 Pd1 2.332793 1_655
Cl14 Pd2 2.332793 1_555
Cl15 Pd3 2.332793 1_655
