# generated using pymatgen
data_LaCe(SiPd)4
_symmetry_space_group_name_H-M   'P 1'
_cell_length_a   4.24298300
_cell_length_b   4.24298300
_cell_length_c   9.95616300
_cell_angle_alpha   90.00000000
_cell_angle_beta   90.00000000
_cell_angle_gamma   90.00000000
_symmetry_Int_Tables_number   1
_chemical_formula_structural   LaCe(SiPd)4
_chemical_formula_sum   'La1 Ce1 Si4 Pd4'
_cell_volume   179.23985405
_cell_formula_units_Z   1
loop_
 _symmetry_equiv_pos_site_id
 _symmetry_equiv_pos_as_xyz
  1  'x, y, z'
loop_
 _atom_site_type_symbol
 _atom_site_label
 _atom_site_symmetry_multiplicity
 _atom_site_fract_x
 _atom_site_fract_y
 _atom_site_fract_z
 _atom_site_occupancy
  La  La0  1  0.50000000  0.50000000  0.50000000  1
  Ce  Ce0  1  0.00000000  0.00000000  0.00000000  1
  Si  Si0  1  0.50000000  0.50000000  0.11762400  1
  Si  Si1  1  0.00000000  0.00000000  0.61983600  1
  Si  Si2  1  0.00000000  0.00000000  0.38016400  1
  Si  Si3  1  0.50000000  0.50000000  0.88237600  1
  Pd  Pd0  1  0.00000000  0.50000000  0.24786100  1
  Pd  Pd1  1  0.50000000  0.00000000  0.75213900  1
  Pd  Pd2  1  0.50000000  0.00000000  0.24786100  1
  Pd  Pd3  1  0.00000000  0.50000000  0.75213900  1
loop_
_geom_bond_atom_site_label_1
_geom_bond_atom_site_label_2
_geom_bond_distance
_geom_bond_site_symmetry_2
La0 Si1 3.228770 1_555
La0 Si1 3.228770 1_565
La0 Si1 3.228770 1_655
La0 Si1 3.228770 1_665
La0 Si2 3.228770 1_555
La0 Si2 3.228770 1_565
La0 Si2 3.228770 1_665
La0 Si2 3.228770 1_655
La0 Pd1 3.286718 1_555
La0 Pd3 3.286718 1_655
La0 Pd1 3.286718 1_565
La0 Pd0 3.286718 1_555
La0 Pd3 3.286718 1_555
La0 Pd2 3.286718 1_555
La0 Pd2 3.286718 1_565
La0 Pd0 3.286718 1_655
Ce0 Si0 3.220697 1_445
Ce0 Si0 3.220697 1_555
Ce0 Si0 3.220697 1_545
Ce0 Si0 3.220697 1_455
Ce0 Si3 3.220697 1_454
Ce0 Si3 3.220697 1_444
Ce0 Si3 3.220697 1_544
Ce0 Si3 3.220697 1_554
Ce0 Pd2 3.254303 1_555
Ce0 Pd0 3.254303 1_555
Ce0 Pd2 3.254303 1_455
Ce0 Pd3 3.254303 1_544
Ce0 Pd1 3.254303 1_554
Ce0 Pd0 3.254303 1_545
Ce0 Pd1 3.254303 1_454
Ce0 Pd3 3.254303 1_554
Si0 Si3 2.342167 1_554
Si1 Si2 2.386213 1_555
Pd0 Si0 2.486374 1_455
Pd0 Si0 2.486374 1_555
Pd0 Si2 2.497163 1_565
Pd0 Si2 2.497163 1_555
Pd1 Si3 2.486374 1_545
Pd1 Si3 2.486374 1_555
Pd1 Si1 2.497163 1_555
Pd1 Si1 2.497163 1_655
Pd2 Si0 2.486374 1_545
Pd2 Si0 2.486374 1_555
Pd2 Si2 2.497163 1_555
Pd2 Si2 2.497163 1_655
Pd3 Si3 2.486374 1_455
Pd3 Si3 2.486374 1_555
Pd3 Si1 2.497163 1_565
Pd3 Si1 2.497163 1_555
