# generated using pymatgen
data_LaSbPt
_symmetry_space_group_name_H-M   'P 1'
_cell_length_a   4.59057376
_cell_length_b   4.59057376
_cell_length_c   8.58920012
_cell_angle_alpha   86.24003010
_cell_angle_beta   86.24003010
_cell_angle_gamma   68.50825871
_symmetry_Int_Tables_number   1
_chemical_formula_structural   LaSbPt
_chemical_formula_sum   'La2 Sb2 Pt2'
_cell_volume   167.88738287
_cell_formula_units_Z   2
loop_
 _symmetry_equiv_pos_site_id
 _symmetry_equiv_pos_as_xyz
  1  'x, y, z'
loop_
 _atom_site_type_symbol
 _atom_site_label
 _atom_site_symmetry_multiplicity
 _atom_site_fract_x
 _atom_site_fract_y
 _atom_site_fract_z
 _atom_site_occupancy
  La  La0  1  0.02323600  0.02323600  0.29470900  1
  La  La1  1  0.97676400  0.97676400  0.70529100  1
  Sb  Sb0  1  0.30974400  0.30974400  0.95179200  1
  Sb  Sb1  1  0.69025600  0.69025600  0.04820800  1
  Pt  Pt0  1  0.69091700  0.69091700  0.49475800  1
  Pt  Pt1  1  0.30908300  0.30908300  0.50524200  1
loop_
_geom_bond_atom_site_label_1
_geom_bond_atom_site_label_2
_geom_bond_distance
_geom_bond_site_symmetry_2
La0 Pt1 2.932205 1_555
La0 Pt0 2.936770 1_445
La0 Pt0 3.405134 1_545
La0 Pt0 3.405134 1_455
La0 Sb1 3.422974 1_445
La0 Pt1 3.481542 1_455
La0 Pt1 3.481542 1_545
La0 Sb1 3.512800 1_455
La0 Sb1 3.512800 1_545
La0 Sb0 3.519424 1_554
La1 Pt0 2.932205 1_555
La1 Pt1 2.936770 1_665
La1 Pt1 3.405134 1_565
La1 Pt1 3.405134 1_655
La1 Sb0 3.422974 1_665
La1 Pt0 3.481542 1_655
La1 Pt0 3.481542 1_565
La1 Sb0 3.512800 1_655
La1 Sb0 3.512800 1_565
La1 Sb1 3.519424 1_556
Sb0 Sb1 2.839939 1_456
Sb0 Sb1 2.839939 1_546
Sb0 Sb1 3.066492 1_556
Pt0 Pt1 2.738873 1_565
Pt0 Pt1 2.738873 1_655
Pt0 Pt1 2.891861 1_555
