# generated using pymatgen
data_CaCeMg14
_symmetry_space_group_name_H-M   'P 1'
_cell_length_a   6.63073415
_cell_length_b   6.63073357
_cell_length_c   10.35285271
_cell_angle_alpha   90.00000000
_cell_angle_beta   90.00000000
_cell_angle_gamma   120.00000293
_symmetry_Int_Tables_number   1
_chemical_formula_structural   CaCeMg14
_chemical_formula_sum   'Ca1 Ce1 Mg14'
_cell_volume   394.19748403
_cell_formula_units_Z   1
loop_
 _symmetry_equiv_pos_site_id
 _symmetry_equiv_pos_as_xyz
  1  'x, y, z'
loop_
 _atom_site_type_symbol
 _atom_site_label
 _atom_site_symmetry_multiplicity
 _atom_site_fract_x
 _atom_site_fract_y
 _atom_site_fract_z
 _atom_site_occupancy
  Ca  Ca0  1  0.16666700  0.33333300  0.12500000  1
  Ce  Ce0  1  0.16666700  0.33333300  0.62500000  1
  Mg  Mg0  1  0.17347857  0.83673879  0.12500000  1
  Mg  Mg1  1  0.17776163  0.83888031  0.62500000  1
  Mg  Mg2  1  0.66326121  0.32652143  0.12500000  1
  Mg  Mg3  1  0.66111969  0.32223837  0.62500000  1
  Mg  Mg4  1  0.66326121  0.83673879  0.12500000  1
  Mg  Mg5  1  0.66111969  0.83888031  0.62500000  1
  Mg  Mg6  1  0.33843079  0.16156921  0.37563784  1
  Mg  Mg7  1  0.33843079  0.16156921  0.87436216  1
  Mg  Mg8  1  0.33843079  0.67686258  0.37563784  1
  Mg  Mg9  1  0.33843079  0.67686258  0.87436216  1
  Mg  Mg10  1  0.82313742  0.16156921  0.37563784  1
  Mg  Mg11  1  0.82313742  0.16156921  0.87436216  1
  Mg  Mg12  1  0.83333300  0.66666700  0.37956598  1
  Mg  Mg13  1  0.83333300  0.66666700  0.87043402  1
loop_
_geom_bond_atom_site_label_1
_geom_bond_atom_site_label_2
_geom_bond_distance
_geom_bond_site_symmetry_2
Ca0 Mg6 3.259523 1_555
Ca0 Mg7 3.259523 1_554
Ca0 Mg8 3.259530 1_555
Ca0 Mg9 3.259530 1_554
Ca0 Mg11 3.259530 1_454
Ca0 Mg10 3.259530 1_455
Ca0 Mg0 3.315597 1_545
Ca0 Mg4 3.315598 1_555
Ca0 Mg4 3.315598 1_445
Ca0 Mg0 3.315598 1_555
Ca0 Mg2 3.315598 1_555
Ca0 Mg2 3.315598 1_455
Ce0 Mg6 3.249019 1_555
Ce0 Mg7 3.249019 1_555
Ce0 Mg9 3.249026 1_555
Ce0 Mg8 3.249026 1_555
Ce0 Mg11 3.249026 1_455
Ce0 Mg10 3.249026 1_455
Ce0 Mg1 3.315979 1_555
Ce0 Mg5 3.315979 1_555
Ce0 Mg5 3.315979 1_445
Ce0 Mg1 3.315979 1_545
Ce0 Mg3 3.315979 1_455
Ce0 Mg3 3.315979 1_555
Mg0 Mg8 3.195726 1_555
Mg0 Mg9 3.195726 1_554
Mg0 Mg7 3.195732 1_564
Mg0 Mg6 3.195732 1_565
Mg0 Mg2 3.247618 1_565
Mg0 Mg4 3.247618 1_555
Mg0 Mg13 3.280388 1_454
Mg0 Mg12 3.280388 1_455
Mg0 Mg2 3.383115 1_455
Mg0 Mg4 3.383116 1_455
Mg1 Mg9 3.177784 1_555
Mg1 Mg8 3.177784 1_555
Mg1 Mg7 3.177790 1_565
Mg1 Mg6 3.177790 1_565
Mg1 Mg3 3.205019 1_565
Mg1 Mg5 3.205019 1_555
Mg1 Mg12 3.219976 1_455
Mg1 Mg13 3.219976 1_455
Mg1 Mg3 3.425715 1_455
Mg1 Mg5 3.425715 1_455
Mg2 Mg7 3.195732 1_554
Mg2 Mg6 3.195732 1_555
Mg2 Mg4 3.247618 1_545
Mg2 Mg4 3.383115 1_555
Mg3 Mg6 3.177790 1_555
Mg3 Mg7 3.177790 1_555
Mg3 Mg5 3.205019 1_545
Mg3 Mg5 3.425715 1_555
Mg4 Mg8 3.195732 1_555
Mg4 Mg9 3.195732 1_554
Mg5 Mg8 3.177790 1_555
Mg5 Mg9 3.177790 1_555
Mg6 Mg8 3.213961 1_545
Mg6 Mg8 3.416773 1_555
Mg7 Mg9 3.213961 1_545
Mg7 Mg9 3.416773 1_555
Mg10 Mg3 3.177784 1_555
Mg10 Mg5 3.177790 1_545
Mg10 Mg2 3.195726 1_555
Mg10 Mg4 3.195732 1_545
Mg10 Mg8 3.213961 1_545
Mg10 Mg6 3.213961 1_555
Mg10 Mg12 3.316133 1_555
Mg10 Mg12 3.316133 1_545
Mg10 Mg8 3.416773 1_655
Mg10 Mg6 3.416773 1_655
Mg11 Mg3 3.177784 1_555
Mg11 Mg5 3.177790 1_545
Mg11 Mg2 3.195726 1_556
Mg11 Mg4 3.195732 1_546
Mg11 Mg9 3.213961 1_545
Mg11 Mg7 3.213961 1_555
Mg11 Mg13 3.316133 1_555
Mg11 Mg13 3.316133 1_545
Mg11 Mg9 3.416773 1_655
Mg11 Mg7 3.416773 1_655
Mg12 Mg5 3.219969 1_555
Mg12 Mg3 3.219976 1_555
Mg12 Mg4 3.280382 1_555
Mg12 Mg2 3.280388 1_555
Mg12 Mg6 3.316133 1_555
Mg12 Mg6 3.316133 1_665
Mg12 Mg8 3.316133 1_655
Mg12 Mg8 3.316133 1_555
Mg13 Mg5 3.219969 1_555
Mg13 Mg3 3.219976 1_555
Mg13 Mg4 3.280382 1_556
Mg13 Mg2 3.280388 1_556
Mg13 Mg7 3.316133 1_555
Mg13 Mg7 3.316133 1_665
Mg13 Mg9 3.316133 1_655
Mg13 Mg9 3.316133 1_555
