# generated using pymatgen
data_KAlSi2
_symmetry_space_group_name_H-M   'P 1'
_cell_length_a   9.71678384
_cell_length_b   9.71678384
_cell_length_c   9.71678384
_cell_angle_alpha   109.64626595
_cell_angle_beta   109.64626595
_cell_angle_gamma   109.12169439
_symmetry_Int_Tables_number   1
_chemical_formula_structural   KAlSi2
_chemical_formula_sum   'K8 Al8 Si16'
_cell_volume   706.20960539
_cell_formula_units_Z   8
loop_
 _symmetry_equiv_pos_site_id
 _symmetry_equiv_pos_as_xyz
  1  'x, y, z'
loop_
 _atom_site_type_symbol
 _atom_site_label
 _atom_site_symmetry_multiplicity
 _atom_site_fract_x
 _atom_site_fract_y
 _atom_site_fract_z
 _atom_site_occupancy
  K  K0  1  0.87652600  0.62347400  0.50000000  1
  K  K1  1  0.12347400  0.37652600  0.50000000  1
  K  K2  1  0.62652600  0.87347400  0.00000000  1
  K  K3  1  0.87347400  0.62652600  0.00000000  1
  K  K4  1  0.37652600  0.87652600  0.25305100  1
  K  K5  1  0.62347400  0.12347400  0.74694900  1
  K  K6  1  0.12652600  0.12652600  0.75305100  1
  K  K7  1  0.37347400  0.37347400  0.24694900  1
  Al  Al0  1  0.66646700  0.83353300  0.50000000  1
  Al  Al1  1  0.33353300  0.16646700  0.50000000  1
  Al  Al2  1  0.41646700  0.08353300  0.00000000  1
  Al  Al3  1  0.08353300  0.41646700  0.00000000  1
  Al  Al4  1  0.16646700  0.66646700  0.83293500  1
  Al  Al5  1  0.83353300  0.33353300  0.16706500  1
  Al  Al6  1  0.91646700  0.91646700  0.33293500  1
  Al  Al7  1  0.58353300  0.58353300  0.66706500  1
  Si  Si0  1  0.84072400  0.87866000  0.79679400  1
  Si  Si1  1  0.08186600  0.04393000  0.20320600  1
  Si  Si2  1  0.66813400  0.20607000  0.29679400  1
  Si  Si3  1  0.90927600  0.37134000  0.70320600  1
  Si  Si4  1  0.12134000  0.91813400  0.96206400  1
  Si  Si5  1  0.95607000  0.15927600  0.03793600  1
  Si  Si6  1  0.79393000  0.09072400  0.46206400  1
  Si  Si7  1  0.62866000  0.33186600  0.53793600  1
  Si  Si8  1  0.34072400  0.54393000  0.96206400  1
  Si  Si9  1  0.58186600  0.37866000  0.03793600  1
  Si  Si10  1  0.16813400  0.87134000  0.46206400  1
  Si  Si11  1  0.40927600  0.70607000  0.53793600  1
  Si  Si12  1  0.45607000  0.41813400  0.79679400  1
  Si  Si13  1  0.62134000  0.65927600  0.20320600  1
  Si  Si14  1  0.12866000  0.59072400  0.29679400  1
  Si  Si15  1  0.29393000  0.83186600  0.70320600  1
loop_
_geom_bond_atom_site_label_1
_geom_bond_atom_site_label_2
_geom_bond_distance
_geom_bond_site_symmetry_2
K0 Si7 3.285355 1_555
K0 Si10 3.285355 1_655
K0 Si2 3.315821 1_555
K0 Si15 3.315821 1_655
K0 Si13 3.319262 1_555
K0 Si0 3.319262 1_555
K1 Si6 3.285355 1_455
K1 Si11 3.285355 1_555
K1 Si3 3.315821 1_455
K1 Si14 3.315821 1_555
K1 Si1 3.319262 1_555
K1 Si12 3.319262 1_555
K2 Si8 3.285355 1_554
K2 Si5 3.285355 1_565
K2 Si13 3.315821 1_555
K2 Si0 3.315821 1_554
K2 Si15 3.319262 1_554
K2 Si2 3.319262 1_565
K3 Si9 3.285355 1_555
K3 Si4 3.285355 1_654
K3 Si12 3.315821 1_554
K3 Si1 3.315821 1_665
K3 Si14 3.319262 1_655
K3 Si3 3.319262 1_554
K4 Si2 3.285350 1_565
K4 Si14 3.285361 1_555
K4 Si6 3.315821 1_565
K4 Si10 3.315829 1_555
K4 Si4 3.319255 1_554
K4 Si8 3.319257 1_554
K5 Si15 3.285350 1_545
K5 Si3 3.285361 1_555
K5 Si11 3.315821 1_545
K5 Si7 3.315829 1_555
K5 Si9 3.319255 1_556
K5 Si5 3.319257 1_556
K6 Si12 3.285350 1_555
K6 Si0 3.285361 1_445
K6 Si8 3.315821 1_555
K6 Si4 3.315829 1_545
K6 Si10 3.319255 1_545
K6 Si6 3.319257 1_455
K7 Si1 3.285350 1_555
K7 Si13 3.285361 1_555
K7 Si5 3.315821 1_455
K7 Si9 3.315829 1_555
K7 Si7 3.319255 1_555
K7 Si11 3.319257 1_555
Al0 Si0 2.599197 1_555
Al0 Si13 2.599197 1_555
Al0 Si11 2.610326 1_555
Al0 Si6 2.610326 1_565
Al0 K5 3.281597 1_565
Al0 K4 3.281597 1_555
Al0 K0 3.325895 1_555
Al1 Si1 2.599197 1_555
Al1 Si12 2.599197 1_555
Al1 Si10 2.610326 1_545
Al1 Si7 2.610326 1_555
Al1 K5 3.281597 1_555
Al1 K4 3.281597 1_545
Al1 K1 3.325895 1_555
Al2 Si2 2.599197 1_555
Al2 Si15 2.599197 1_544
Al2 Si4 2.610326 1_544
Al2 Si9 2.610326 1_555
Al2 K7 3.281597 1_555
Al2 K6 3.281597 1_554
Al2 K2 3.325895 1_545
Al3 Si14 2.599197 1_555
Al3 Si3 2.599197 1_454
Al3 Si8 2.610326 1_554
Al3 Si5 2.610326 1_455
Al3 K7 3.281597 1_555
Al3 K6 3.281597 1_554
Al3 K3 3.325895 1_455
Al4 Si8 2.599193 1_555
Al4 Si4 2.599195 1_555
Al4 Si3 2.610324 1_455
Al4 Si15 2.610334 1_555
Al4 K1 3.281599 1_555
Al4 K0 3.281599 1_455
Al4 K4 3.325879 1_556
Al5 Si5 2.599193 1_555
Al5 Si9 2.599195 1_555
Al5 Si14 2.610324 1_655
Al5 Si2 2.610334 1_555
Al5 K1 3.281599 1_655
Al5 K0 3.281599 1_555
Al5 K5 3.325879 1_554
Al6 Si6 2.599193 1_565
Al6 Si10 2.599195 1_655
Al6 Si13 2.610324 1_555
Al6 Si1 2.610334 1_665
Al6 K2 3.281599 1_555
Al6 K3 3.281599 1_555
Al6 K6 3.325879 1_665
Al7 Si11 2.599193 1_555
Al7 Si7 2.599195 1_555
Al7 Si0 2.610324 1_555
Al7 Si12 2.610334 1_555
Al7 K3 3.281599 1_556
Al7 K2 3.281599 1_556
Al7 K7 3.325879 1_555
Si0 Si5 2.473269 1_566
Si0 Si4 2.473269 1_655
Si1 Si5 2.473269 1_455
Si1 Si4 2.473269 1_544
Si2 Si6 2.473269 1_555
Si2 Si7 2.473269 1_555
Si3 Si6 2.473269 1_555
Si3 Si7 2.473269 1_555
Si10 Si14 2.473269 1_555
Si10 Si15 2.473269 1_555
Si11 Si14 2.473269 1_555
Si11 Si15 2.473269 1_555
Si12 Si9 2.473269 1_556
Si12 Si8 2.473269 1_555
Si13 Si9 2.473269 1_555
Si13 Si8 2.473269 1_554
