# generated using pymatgen
data_ErBO3
_symmetry_space_group_name_H-M   'P 1'
_cell_length_a   6.47112624
_cell_length_b   6.47112624
_cell_length_c   9.48599388
_cell_angle_alpha   70.42592957
_cell_angle_beta   70.42592957
_cell_angle_gamma   60.08046882
_symmetry_Int_Tables_number   1
_chemical_formula_structural   ErBO3
_chemical_formula_sum   'Er6 B6 O18'
_cell_volume   317.46155011
_cell_formula_units_Z   6
loop_
 _symmetry_equiv_pos_site_id
 _symmetry_equiv_pos_as_xyz
  1  'x, y, z'
loop_
 _atom_site_type_symbol
 _atom_site_label
 _atom_site_symmetry_multiplicity
 _atom_site_fract_x
 _atom_site_fract_y
 _atom_site_fract_z
 _atom_site_occupancy
  Er  Er0  1  0.00000000  0.50000000  0.50000000  1
  Er  Er1  1  0.50000000  -0.00000000  -0.00000000  1
  Er  Er2  1  0.17059607  0.65810204  0.99937193  1
  Er  Er3  1  0.34189796  0.82940393  0.50062807  1
  Er  Er4  1  0.82940393  0.34189796  0.00062807  1
  Er  Er5  1  0.65810204  0.17059607  0.49937193  1
  B  B0  1  0.91785546  0.84079886  0.74668550  1
  B  B1  1  0.15920114  0.08214454  0.75331450  1
  B  B2  1  0.08214454  0.15920114  0.25331450  1
  B  B3  1  0.84079886  0.91785546  0.24668550  1
  B  B4  1  0.67429707  0.32570293  0.75000000  1
  B  B5  1  0.32570293  0.67429707  0.25000000  1
  O  O0  1  0.96663746  0.78153598  0.60110327  1
  O  O1  1  0.21846402  0.03336254  0.89889673  1
  O  O2  1  0.03336254  0.21846402  0.39889673  1
  O  O3  1  0.78153598  0.96663746  0.10110327  1
  O  O4  1  0.86996738  0.68263264  0.88931492  1
  O  O5  1  0.31736736  0.13003262  0.61068508  1
  O  O6  1  0.13003262  0.31736736  0.11068508  1
  O  O7  1  0.68263264  0.86996738  0.38931492  1
  O  O8  1  0.51589549  0.38671017  0.89297232  1
  O  O9  1  0.61328983  0.48410451  0.60702768  1
  O  O10  1  0.48410451  0.61328983  0.10702768  1
  O  O11  1  0.38671017  0.51589549  0.39297232  1
  O  O12  1  0.91682891  0.30147789  0.75191165  1
  O  O13  1  0.69852211  0.08317109  0.74808835  1
  O  O14  1  0.08317109  0.69852211  0.24808835  1
  O  O15  1  0.30147789  0.91682891  0.25191165  1
  O  O16  1  0.13648910  0.86351090  0.75000000  1
  O  O17  1  0.86351090  0.13648910  0.25000000  1
loop_
_geom_bond_atom_site_label_1
_geom_bond_atom_site_label_2
_geom_bond_distance
_geom_bond_site_symmetry_2
Er0 O2 2.219285 1_555
Er0 O0 2.219285 1_455
Er0 O14 2.328383 1_555
Er0 O12 2.328383 1_455
Er0 O9 2.405835 1_455
Er0 O11 2.405835 1_555
Er0 O5 2.430556 1_555
Er0 O7 2.430556 1_455
Er1 O1 2.219285 1_554
Er1 O3 2.219285 1_545
Er1 O13 2.328383 1_554
Er1 O15 2.328383 1_545
Er1 O10 2.405835 1_545
Er1 O8 2.405835 1_554
Er1 O6 2.430556 1_555
Er1 O4 2.430556 1_544
Er2 O8 2.204031 1_555
Er2 O6 2.208445 1_556
Er2 O14 2.307900 1_556
Er2 O16 2.315523 1_555
Er2 O4 2.416921 1_455
Er2 O10 2.417795 1_556
Er2 O1 2.429613 1_565
Er2 O3 2.429974 1_456
Er3 O9 2.204031 1_555
Er3 O7 2.208445 1_555
Er3 O15 2.307900 1_555
Er3 O16 2.315523 1_555
Er3 O5 2.416921 1_565
Er3 O11 2.417795 1_555
Er3 O0 2.429613 1_455
Er3 O2 2.429974 1_565
Er4 O10 2.204031 1_555
Er4 O4 2.208445 1_554
Er4 O12 2.307900 1_554
Er4 O17 2.315523 1_555
Er4 O6 2.416921 1_655
Er4 O8 2.417795 1_554
Er4 O3 2.429613 1_545
Er4 O1 2.429974 1_654
Er5 O11 2.204031 1_555
Er5 O5 2.208445 1_555
Er5 O13 2.307900 1_555
Er5 O17 2.315523 1_555
Er5 O7 2.416921 1_545
Er5 O9 2.417795 1_555
Er5 O2 2.429613 1_655
Er5 O0 2.429974 1_545
B0 O4 1.442830 1_555
B0 O0 1.447706 1_555
B0 O13 1.501754 1_565
B0 O16 1.504858 1_655
B1 O5 1.442830 1_555
B1 O1 1.447706 1_555
B1 O12 1.501754 1_455
B1 O16 1.504858 1_545
B2 O6 1.442830 1_555
B2 O2 1.447706 1_555
B2 O15 1.501754 1_545
B2 O17 1.504858 1_455
B3 O7 1.442830 1_555
B3 O3 1.447706 1_555
B3 O14 1.501754 1_655
B3 O17 1.504858 1_565
B4 O9 1.438577 1_555
B4 O8 1.438577 1_555
B4 O12 1.503270 1_555
B4 O13 1.503270 1_555
B5 O11 1.438577 1_555
B5 O10 1.438577 1_555
B5 O15 1.503270 1_555
B5 O14 1.503270 1_555
