# generated using pymatgen
data_Li2VFeO4
_symmetry_space_group_name_H-M   'P 1'
_cell_length_a   2.96662700
_cell_length_b   5.21152800
_cell_length_c   5.24287531
_cell_angle_alpha   69.69421305
_cell_angle_beta   90.00000000
_cell_angle_gamma   90.00000000
_symmetry_Int_Tables_number   1
_chemical_formula_structural   Li2VFeO4
_chemical_formula_sum   'Li2 V1 Fe1 O4'
_cell_volume   76.02085212
_cell_formula_units_Z   1
loop_
 _symmetry_equiv_pos_site_id
 _symmetry_equiv_pos_as_xyz
  1  'x, y, z'
loop_
 _atom_site_type_symbol
 _atom_site_label
 _atom_site_symmetry_multiplicity
 _atom_site_fract_x
 _atom_site_fract_y
 _atom_site_fract_z
 _atom_site_occupancy
  Li  Li0  1  0.00000000  0.00000000  0.00000000  1
  Li  Li1  1  0.50000000  0.00000000  0.50000000  1
  V  V0  1  0.50000000  0.50000000  0.00000000  1
  Fe  Fe0  1  0.00000000  0.50000000  0.50000000  1
  O  O0  1  0.00000000  0.27435700  0.24115500  1
  O  O1  1  0.50000000  0.26875400  0.73913700  1
  O  O2  1  0.00000000  0.72564300  0.75884500  1
  O  O3  1  0.50000000  0.73124600  0.26086300  1
loop_
_geom_bond_atom_site_label_1
_geom_bond_atom_site_label_2
_geom_bond_distance
_geom_bond_site_symmetry_2
Li0 O3 2.168628 1_445
Li0 O3 2.168628 1_545
Li0 O1 2.168628 1_554
Li0 O1 2.168628 1_454
Li0 O0 2.213067 1_555
Li0 O2 2.213067 1_544
Li1 O0 2.177050 1_555
Li1 O0 2.177050 1_655
Li1 O2 2.177050 1_645
Li1 O2 2.177050 1_545
Li1 O1 2.180015 1_555
Li1 O3 2.180015 1_545
Fe0 O1 2.043482 1_555
Fe0 O1 2.043482 1_455
Fe0 O3 2.043482 1_555
Fe0 O3 2.043482 1_455
Fe0 O2 2.081387 1_555
Fe0 O0 2.081387 1_555
O0 V0 2.037082 1_455
O0 V0 2.037082 1_555
O1 V0 2.113500 1_556
O2 V0 2.037082 1_556
O2 V0 2.037082 1_456
O3 V0 2.113500 1_555
