# generated using pymatgen
data_BaLi2Mg(PO4)2
_symmetry_space_group_name_H-M   'P 1'
_cell_length_a   5.10077548
_cell_length_b   5.10077548
_cell_length_c   7.19634500
_cell_angle_alpha   90.00000000
_cell_angle_beta   90.00000000
_cell_angle_gamma   119.99999332
_symmetry_Int_Tables_number   1
_chemical_formula_structural   BaLi2Mg(PO4)2
_chemical_formula_sum   'Ba1 Li2 Mg1 P2 O8'
_cell_volume   162.14929053
_cell_formula_units_Z   1
loop_
 _symmetry_equiv_pos_site_id
 _symmetry_equiv_pos_as_xyz
  1  'x, y, z'
loop_
 _atom_site_type_symbol
 _atom_site_label
 _atom_site_symmetry_multiplicity
 _atom_site_fract_x
 _atom_site_fract_y
 _atom_site_fract_z
 _atom_site_occupancy
  Ba  Ba0  1  0.00000000  0.00000000  0.50000000  1
  Li  Li0  1  0.66666700  0.33333300  0.23104500  1
  Li  Li1  1  0.33333300  0.66666700  0.76895500  1
  Mg  Mg0  1  0.00000000  0.00000000  0.00000000  1
  P  P0  1  0.66666700  0.33333300  0.75118900  1
  P  P1  1  0.33333300  0.66666700  0.24881100  1
  O  O0  1  0.66666700  0.33333300  0.53594100  1
  O  O1  1  0.33333300  0.66666700  0.46405900  1
  O  O2  1  0.35980100  0.29556800  0.82128800  1
  O  O3  1  0.93576800  0.64019900  0.82128800  1
  O  O4  1  0.70443200  0.06423200  0.82128800  1
  O  O5  1  0.64019900  0.70443200  0.17871200  1
  O  O6  1  0.06423200  0.35980100  0.17871200  1
  O  O7  1  0.29556800  0.93576800  0.17871200  1
loop_
_geom_bond_atom_site_label_1
_geom_bond_atom_site_label_2
_geom_bond_distance
_geom_bond_site_symmetry_2
Ba0 O7 2.867060 1_545
Ba0 O4 2.867060 1_455
Ba0 O2 2.867062 1_555
Ba0 O5 2.867062 1_445
Ba0 O3 2.867063 1_445
Ba0 O6 2.867063 1_555
Ba0 O1 2.956267 1_545
Ba0 O0 2.956267 1_455
Ba0 O0 2.956272 1_555
Ba0 O1 2.956272 1_445
Ba0 O1 2.956272 1_555
Ba0 O0 2.956272 1_445
Li0 O6 1.999654 1_655
Li0 O7 1.999659 1_545
Li0 O5 1.999664 1_555
Li0 O0 2.194137 1_555
Li1 O3 1.999654 1_455
Li1 O4 1.999659 1_565
Li1 O2 1.999664 1_555
Li1 O1 2.194137 1_555
Mg0 O4 2.127960 1_454
Mg0 O7 2.127960 1_545
Mg0 O2 2.127962 1_554
Mg0 O5 2.127962 1_445
Mg0 O6 2.127964 1_555
Mg0 O3 2.127964 1_444
O0 P0 1.548999 1_555
O1 P1 1.548999 1_555
O2 P0 1.562078 1_555
O3 P0 1.562078 1_555
O4 P0 1.562078 1_555
O5 P1 1.562078 1_555
O6 P1 1.562078 1_555
O7 P1 1.562078 1_555
