# generated using pymatgen
data_Ba3Sr4B3O9F5
_symmetry_space_group_name_H-M   'P 1'
_cell_length_a   10.89922325
_cell_length_b   10.89922325
_cell_length_c   7.08015300
_cell_angle_alpha   90.00000000
_cell_angle_beta   90.00000000
_cell_angle_gamma   119.99999545
_symmetry_Int_Tables_number   1
_chemical_formula_structural   Ba3Sr4B3O9F5
_chemical_formula_sum   'Ba6 Sr8 B6 O18 F10'
_cell_volume   728.39069835
_cell_formula_units_Z   2
loop_
 _symmetry_equiv_pos_site_id
 _symmetry_equiv_pos_as_xyz
  1  'x, y, z'
loop_
 _atom_site_type_symbol
 _atom_site_label
 _atom_site_symmetry_multiplicity
 _atom_site_fract_x
 _atom_site_fract_y
 _atom_site_fract_z
 _atom_site_occupancy
  Ba  Ba0  1  0.13788100  0.86211900  0.99424600  1
  Ba  Ba1  1  0.13788100  0.27576200  0.99424600  1
  Ba  Ba2  1  0.72423800  0.86211900  0.99424600  1
  Ba  Ba3  1  0.86211900  0.13788100  0.49424600  1
  Ba  Ba4  1  0.86211900  0.72423800  0.49424600  1
  Ba  Ba5  1  0.27576200  0.13788100  0.49424600  1
  Sr  Sr0  1  0.66666700  0.33333300  0.26602300  1
  Sr  Sr1  1  0.33333300  0.66666700  0.76602300  1
  Sr  Sr2  1  0.53492100  0.06984100  0.83707600  1
  Sr  Sr3  1  0.93015900  0.46507900  0.83707600  1
  Sr  Sr4  1  0.53492100  0.46507900  0.83707600  1
  Sr  Sr5  1  0.46507900  0.93015900  0.33707600  1
  Sr  Sr6  1  0.06984100  0.53492100  0.33707600  1
  Sr  Sr7  1  0.46507900  0.53492100  0.33707600  1
  B  B0  1  0.37538900  0.18769400  0.05625000  1
  B  B1  1  0.81230600  0.18769400  0.05625000  1
  B  B2  1  0.81230600  0.62461100  0.05625000  1
  B  B3  1  0.62461100  0.81230600  0.55625000  1
  B  B4  1  0.18769400  0.81230600  0.55625000  1
  B  B5  1  0.18769400  0.37538900  0.55625000  1
  O  O0  1  0.32227600  0.16113800  0.87338000  1
  O  O1  1  0.83886200  0.16113800  0.87338000  1
  O  O2  1  0.83886200  0.67772400  0.87338000  1
  O  O3  1  0.67772400  0.83886200  0.37338000  1
  O  O4  1  0.16113800  0.83886200  0.37338000  1
  O  O5  1  0.16113800  0.32227600  0.37338000  1
  O  O6  1  0.40193500  0.31080100  0.14923000  1
  O  O7  1  0.68919900  0.09113400  0.14923000  1
  O  O8  1  0.90886600  0.59806500  0.14923000  1
  O  O9  1  0.68919900  0.59806500  0.14923000  1
  O  O10  1  0.90886600  0.31080100  0.14923000  1
  O  O11  1  0.40193500  0.09113400  0.14923000  1
  O  O12  1  0.59806500  0.68919900  0.64923000  1
  O  O13  1  0.31080100  0.90886600  0.64923000  1
  O  O14  1  0.09113400  0.40193500  0.64923000  1
  O  O15  1  0.31080100  0.40193500  0.64923000  1
  O  O16  1  0.09113400  0.68919900  0.64923000  1
  O  O17  1  0.59806500  0.90886600  0.64923000  1
  F  F0  1  0.00000000  0.00000000  0.12698500  1
  F  F1  1  0.00000000  0.00000000  0.62698500  1
  F  F2  1  0.66666700  0.33333300  0.91429300  1
  F  F3  1  0.33333300  0.66666700  0.41429300  1
  F  F4  1  0.57750100  0.15500200  0.51258900  1
  F  F5  1  0.84499800  0.42249900  0.51258900  1
  F  F6  1  0.57750100  0.42249900  0.51258900  1
  F  F7  1  0.42249900  0.84499800  0.01258900  1
  F  F8  1  0.15500200  0.57750100  0.01258900  1
  F  F9  1  0.42249900  0.57750100  0.01258900  1
loop_
_geom_bond_atom_site_label_1
_geom_bond_atom_site_label_2
_geom_bond_distance
_geom_bond_site_symmetry_2
Ba0 O4 2.719995 1_556
Ba0 F0 2.767387 1_566
Ba0 O8 2.921238 1_456
Ba0 O11 2.921238 1_566
Ba0 O16 2.969598 1_555
Ba0 O13 2.969598 1_555
Ba0 O2 2.973728 1_455
Ba0 O0 2.973728 1_565
Ba0 F8 3.202137 1_556
Ba0 F7 3.202137 1_556
Ba1 O5 2.719995 1_556
Ba1 F0 2.767388 1_556
Ba1 O10 2.921238 1_456
Ba1 O6 2.921238 1_556
Ba1 O14 2.969598 1_555
Ba1 O15 2.969598 1_555
Ba1 O0 2.973727 1_555
Ba1 O1 2.973728 1_455
Ba1 F8 3.202137 1_556
Ba1 F9 3.202137 1_556
Ba2 O3 2.719995 1_556
Ba2 F0 2.767388 1_666
Ba2 O7 2.921238 1_566
Ba2 O9 2.921238 1_556
Ba2 O17 2.969598 1_555
Ba2 O12 2.969598 1_555
Ba2 O2 2.973727 1_555
Ba2 O1 2.973728 1_565
Ba2 F7 3.202137 1_556
Ba2 F9 3.202137 1_556
Ba3 O1 2.719995 1_555
Ba3 F1 2.767387 1_655
Ba3 O14 2.921238 1_655
Ba3 O17 2.921238 1_545
Ba3 O7 2.969598 1_555
Ba3 O10 2.969598 1_555
Ba3 O3 2.973728 1_545
Ba3 O5 2.973728 1_655
Ba3 F4 3.202137 1_555
Ba3 F5 3.202137 1_555
Ba4 O2 2.719995 1_555
Ba4 F1 2.767388 1_665
Ba4 O16 2.921238 1_655
Ba4 O12 2.921238 1_555
Ba4 O8 2.969598 1_555
Ba4 O9 2.969598 1_555
Ba4 O3 2.973727 1_555
Ba4 O4 2.973728 1_655
Ba4 F5 3.202137 1_555
Ba4 F6 3.202137 1_555
Ba5 O0 2.719995 1_555
Ba5 F1 2.767388 1_555
Ba5 O13 2.921238 1_545
Ba5 O15 2.921238 1_555
Ba5 O11 2.969598 1_555
Ba5 O6 2.969598 1_555
Ba5 O5 2.973727 1_555
Ba5 O4 2.973728 1_545
Ba5 F4 3.202137 1_555
Ba5 F6 3.202137 1_555
B0 O0 1.388419 1_554
B0 O11 1.388955 1_555
B0 O6 1.388964 1_555
B1 O1 1.388415 1_554
B1 O7 1.388961 1_555
B1 O10 1.388961 1_555
B2 O2 1.388419 1_554
B2 O8 1.388955 1_555
B2 O9 1.388964 1_555
B3 O3 1.388419 1_555
B3 O17 1.388955 1_555
B3 O12 1.388964 1_555
B4 O4 1.388415 1_555
B4 O13 1.388961 1_555
B4 O16 1.388961 1_555
B5 O5 1.388419 1_555
B5 O14 1.388955 1_555
B5 O15 1.388964 1_555
O0 Sr4 2.955331 1_555
O0 Sr2 2.955339 1_555
O1 Sr2 2.955329 1_555
O1 Sr3 2.955329 1_555
O2 Sr4 2.955331 1_555
O2 Sr3 2.955339 1_555
O3 Sr7 2.955331 1_555
O3 Sr5 2.955339 1_555
O4 Sr5 2.955329 1_555
O4 Sr6 2.955329 1_555
O5 Sr7 2.955331 1_555
O5 Sr6 2.955339 1_555
O6 Sr7 2.555054 1_555
O6 Sr4 2.715814 1_554
O6 Sr0 2.891518 1_555
O7 Sr5 2.555052 1_545
O7 Sr2 2.715811 1_554
O7 Sr0 2.891508 1_555
O8 Sr6 2.555045 1_655
O8 Sr3 2.715817 1_554
O8 Sr0 2.891514 1_555
O9 Sr7 2.555054 1_555
O9 Sr4 2.715814 1_554
O9 Sr0 2.891518 1_555
O10 Sr6 2.555052 1_655
O10 Sr3 2.715811 1_554
O10 Sr0 2.891508 1_555
O11 Sr5 2.555045 1_545
O11 Sr2 2.715817 1_554
O11 Sr0 2.891514 1_555
O12 Sr4 2.555054 1_555
O12 Sr7 2.715814 1_555
O12 Sr1 2.891518 1_555
O13 Sr2 2.555052 1_565
O13 Sr5 2.715811 1_555
O13 Sr1 2.891508 1_555
O14 Sr3 2.555045 1_455
O14 Sr6 2.715817 1_555
O14 Sr1 2.891514 1_555
O15 Sr4 2.555054 1_555
O15 Sr7 2.715814 1_555
O15 Sr1 2.891518 1_555
O16 Sr3 2.555052 1_455
O16 Sr6 2.715811 1_555
O16 Sr1 2.891508 1_555
O17 Sr2 2.555045 1_565
O17 Sr5 2.715817 1_555
O17 Sr1 2.891514 1_555
F2 Sr0 2.490302 1_556
F2 Sr4 2.546481 1_555
F2 Sr3 2.546481 1_555
F2 Sr2 2.546481 1_555
F3 Sr1 2.490302 1_555
F3 Sr7 2.546481 1_555
F3 Sr5 2.546481 1_555
F3 Sr6 2.546481 1_555
F4 Sr0 2.425066 1_555
F4 Sr2 2.433984 1_555
F4 Sr5 2.459336 1_545
F5 Sr0 2.425066 1_555
F5 Sr3 2.433984 1_555
F5 Sr6 2.459336 1_655
F6 Sr0 2.425072 1_555
F6 Sr4 2.433981 1_555
F6 Sr7 2.459344 1_555
F7 Sr1 2.425066 1_554
F7 Sr5 2.433984 1_555
F7 Sr2 2.459336 1_564
F8 Sr1 2.425066 1_554
F8 Sr6 2.433984 1_555
F8 Sr3 2.459336 1_454
F9 Sr1 2.425072 1_554
F9 Sr7 2.433981 1_555
F9 Sr4 2.459344 1_554
