# generated using pymatgen
data_Sr4MgFe2(SO3)2
_symmetry_space_group_name_H-M   'P 1'
_cell_length_a   3.95504900
_cell_length_b   3.95504900
_cell_length_c   16.14581600
_cell_angle_alpha   90.00000000
_cell_angle_beta   90.00000000
_cell_angle_gamma   90.00000000
_symmetry_Int_Tables_number   1
_chemical_formula_structural   Sr4MgFe2(SO3)2
_chemical_formula_sum   'Sr4 Mg1 Fe2 S2 O6'
_cell_volume   252.55951551
_cell_formula_units_Z   1
loop_
 _symmetry_equiv_pos_site_id
 _symmetry_equiv_pos_as_xyz
  1  'x, y, z'
loop_
 _atom_site_type_symbol
 _atom_site_label
 _atom_site_symmetry_multiplicity
 _atom_site_fract_x
 _atom_site_fract_y
 _atom_site_fract_z
 _atom_site_occupancy
  Sr  Sr0  1  0.50000000  0.00000000  0.69035300  1
  Sr  Sr1  1  0.00000000  0.50000000  0.30964700  1
  Sr  Sr2  1  0.50000000  0.00000000  0.91401900  1
  Sr  Sr3  1  0.00000000  0.50000000  0.08598100  1
  Mg  Mg0  1  0.00000000  0.00000000  0.50000000  1
  Fe  Fe0  1  0.00000000  0.50000000  0.81286800  1
  Fe  Fe1  1  0.50000000  0.00000000  0.18713200  1
  S  S0  1  0.00000000  0.50000000  0.59567900  1
  S  S1  1  0.50000000  0.00000000  0.40432100  1
  O  O0  1  0.50000000  0.50000000  0.79234900  1
  O  O1  1  0.00000000  0.00000000  0.79111400  1
  O  O2  1  0.00000000  0.00000000  0.20888600  1
  O  O3  1  0.50000000  0.50000000  0.20765100  1
  O  O4  1  0.00000000  0.50000000  0.93221400  1
  O  O5  1  0.50000000  0.00000000  0.06778600  1
loop_
_geom_bond_atom_site_label_1
_geom_bond_atom_site_label_2
_geom_bond_distance
_geom_bond_site_symmetry_2
Mg0 S0 2.509394 1_555
Mg0 S0 2.509394 1_545
Mg0 S1 2.509394 1_555
Mg0 S1 2.509394 1_455
Fe0 O4 1.926939 1_555
Fe0 O0 2.005084 1_455
Fe0 O0 2.005084 1_555
Fe0 O1 2.008475 1_565
Fe0 O1 2.008475 1_555
Fe1 O5 1.926939 1_555
Fe1 O3 2.005084 1_555
Fe1 O3 2.005084 1_545
Fe1 O2 2.008475 1_555
Fe1 O2 2.008475 1_655
S0 Sr0 3.187129 1_565
S0 Sr0 3.187129 1_455
S0 Sr0 3.187129 1_555
S0 Sr0 3.187129 1_465
S1 Sr1 3.187129 1_645
S1 Sr1 3.187129 1_555
S1 Sr1 3.187129 1_655
S1 Sr1 3.187129 1_545
O0 Sr0 2.573438 1_565
O0 Sr0 2.573438 1_555
O0 Sr2 2.787420 1_555
O0 Sr2 2.787420 1_565
O1 Sr0 2.560723 1_555
O1 Sr0 2.560723 1_455
O1 Sr2 2.801509 1_555
O1 Sr2 2.801509 1_455
O2 Sr1 2.560723 1_545
O2 Sr1 2.560723 1_555
O2 Sr3 2.801509 1_555
O2 Sr3 2.801509 1_545
O3 Sr1 2.573438 1_655
O3 Sr1 2.573438 1_555
O3 Sr3 2.787420 1_555
O3 Sr3 2.787420 1_655
O4 Sr3 2.482694 1_556
O4 Sr2 2.812029 1_455
O4 Sr2 2.812029 1_555
O4 Sr2 2.812029 1_565
O4 Sr2 2.812029 1_465
O5 Sr2 2.482694 1_554
O5 Sr3 2.812029 1_645
O5 Sr3 2.812029 1_555
O5 Sr3 2.812029 1_655
O5 Sr3 2.812029 1_545
