# generated using pymatgen
data_Cs2FeF5
_symmetry_space_group_name_H-M   'P 1'
_cell_length_a   5.99802236
_cell_length_b   7.83681850
_cell_length_c   12.60603936
_cell_angle_alpha   90.00000000
_cell_angle_beta   90.00000000
_cell_angle_gamma   90.00000000
_symmetry_Int_Tables_number   1
_chemical_formula_structural   Cs2FeF5
_chemical_formula_sum   'Cs8 Fe4 F20'
_cell_volume   592.55208130
_cell_formula_units_Z   4
loop_
 _symmetry_equiv_pos_site_id
 _symmetry_equiv_pos_as_xyz
  1  'x, y, z'
loop_
 _atom_site_type_symbol
 _atom_site_label
 _atom_site_symmetry_multiplicity
 _atom_site_fract_x
 _atom_site_fract_y
 _atom_site_fract_z
 _atom_site_occupancy
  Cs  Cs0  1  0.75000000  0.48906019  0.72493110  1
  Cs  Cs1  1  0.25000000  0.51093981  0.27506890  1
  Cs  Cs2  1  0.25000000  0.01093981  0.22493110  1
  Cs  Cs3  1  0.75000000  0.98906019  0.77506890  1
  Cs  Cs4  1  0.75000000  0.15103822  0.41545684  1
  Cs  Cs5  1  0.25000000  0.84896178  0.58454316  1
  Cs  Cs6  1  0.25000000  0.34896178  0.91545684  1
  Cs  Cs7  1  0.75000000  0.65103822  0.08454316  1
  Fe  Fe0  1  0.75000000  0.15476163  0.06230837  1
  Fe  Fe1  1  0.25000000  0.84523837  0.93769163  1
  Fe  Fe2  1  0.25000000  0.34523837  0.56230837  1
  Fe  Fe3  1  0.75000000  0.65476163  0.43769163  1
  F  F0  1  0.75000000  0.27574498  0.92892552  1
  F  F1  1  0.25000000  0.72425502  0.07107448  1
  F  F2  1  0.25000000  0.22425502  0.42892552  1
  F  F3  1  0.75000000  0.77574498  0.57107448  1
  F  F4  1  0.52034561  0.29669608  0.11710802  1
  F  F5  1  0.47965439  0.70330392  0.88289198  1
  F  F6  1  0.47965439  0.20330392  0.61710802  1
  F  F7  1  0.02034561  0.70330392  0.88289198  1
  F  F8  1  0.52034561  0.79669608  0.38289198  1
  F  F9  1  0.97965439  0.29669608  0.11710802  1
  F  F10  1  0.97965439  0.79669608  0.38289198  1
  F  F11  1  0.02034561  0.20330392  0.61710802  1
  F  F12  1  0.50000000  -0.00000000  -0.00000000  1
  F  F13  1  0.50000000  0.50000000  0.50000000  1
  F  F14  1  0.00000000  -0.00000000  -0.00000000  1
  F  F15  1  0.00000000  0.50000000  0.50000000  1
  F  F16  1  0.75000000  0.00886512  0.18223894  1
  F  F17  1  0.25000000  0.99113488  0.81776106  1
  F  F18  1  0.25000000  0.49113488  0.68223894  1
  F  F19  1  0.75000000  0.50886512  0.31776106  1
loop_
_geom_bond_atom_site_label_1
_geom_bond_atom_site_label_2
_geom_bond_distance
_geom_bond_site_symmetry_2
Cs0 F3 2.968062 1_555
Cs0 F18 3.046961 1_655
Cs0 F18 3.046961 1_555
Cs0 F0 3.067173 1_555
Cs0 F7 3.068145 1_655
Cs0 F5 3.068145 1_555
Cs0 F11 3.080889 1_655
Cs0 F6 3.080889 1_555
Cs0 F13 3.208718 1_555
Cs0 F15 3.208718 1_655
Cs1 F2 2.968062 1_555
Cs1 F19 3.046961 1_555
Cs1 F19 3.046961 1_455
Cs1 F1 3.067173 1_555
Cs1 F4 3.068145 1_555
Cs1 F9 3.068145 1_455
Cs1 F10 3.080889 1_455
Cs1 F8 3.080889 1_555
Cs1 F13 3.208718 1_555
Cs1 F15 3.208718 1_555
Cs2 F1 2.968062 1_545
Cs2 F16 3.046961 1_555
Cs2 F16 3.046961 1_455
Cs2 F2 3.067173 1_555
Cs2 F10 3.068145 1_445
Cs2 F8 3.068145 1_545
Cs2 F4 3.080889 1_555
Cs2 F9 3.080889 1_455
Cs2 F12 3.208718 1_555
Cs2 F14 3.208718 1_555
Cs3 F0 2.968062 1_565
Cs3 F17 3.046961 1_555
Cs3 F17 3.046961 1_655
Cs3 F3 3.067173 1_555
Cs3 F11 3.068145 1_665
Cs3 F6 3.068145 1_565
Cs3 F7 3.080889 1_655
Cs3 F5 3.080889 1_555
Cs3 F14 3.208718 1_666
Cs3 F12 3.208718 1_566
Cs4 F11 3.042867 1_655
Cs4 F6 3.042867 1_555
Cs4 F2 3.058125 1_655
Cs4 F2 3.058125 1_555
Cs4 F19 3.062745 1_555
Cs4 F10 3.126853 1_545
Cs4 F8 3.126853 1_545
Cs4 F16 3.144000 1_555
Cs4 F13 3.295938 1_555
Cs4 F15 3.295938 1_655
Cs4 F3 3.535315 1_545
Cs5 F8 3.042867 1_555
Cs5 F10 3.042867 1_455
Cs5 F3 3.058125 1_455
Cs5 F3 3.058125 1_555
Cs5 F18 3.062745 1_555
Cs5 F11 3.126853 1_565
Cs5 F6 3.126853 1_565
Cs5 F17 3.144000 1_555
Cs5 F15 3.295938 1_555
Cs5 F13 3.295938 1_555
Cs5 F2 3.535315 1_565
Cs6 F4 3.042867 1_556
Cs6 F9 3.042867 1_456
Cs6 F0 3.058125 1_455
Cs6 F0 3.058125 1_555
Cs6 F17 3.062745 1_545
Cs6 F5 3.126853 1_555
Cs6 F7 3.126853 1_555
Cs6 F18 3.144000 1_555
Cs6 F14 3.295938 1_556
Cs6 F12 3.295938 1_556
Cs6 F1 3.535315 1_556
Cs7 F7 3.042867 1_654
Cs7 F5 3.042867 1_554
Cs7 F1 3.058125 1_655
Cs7 F1 3.058125 1_555
Cs7 F16 3.062745 1_565
Cs7 F4 3.126853 1_555
Cs7 F9 3.126853 1_555
Cs7 F19 3.144000 1_555
Cs7 F14 3.295938 1_665
Cs7 F12 3.295938 1_565
Cs7 F0 3.535315 1_554
F0 Fe0 1.930323 1_556
F1 Fe1 1.930323 1_554
F2 Fe2 1.930323 1_555
F3 Fe3 1.930323 1_555
F4 Fe0 1.900496 1_555
F5 Fe1 1.900496 1_555
F6 Fe2 1.900496 1_555
F7 Fe1 1.900496 1_555
F8 Fe3 1.900496 1_555
F9 Fe0 1.900496 1_555
F10 Fe3 1.900496 1_555
F11 Fe2 1.900496 1_555
F12 Fe1 2.082413 1_544
F12 Fe0 2.082413 1_555
F13 Fe3 2.082413 1_555
F13 Fe2 2.082413 1_555
F14 Fe1 2.082413 1_544
F14 Fe0 2.082413 1_455
F15 Fe3 2.082413 1_455
F15 Fe2 2.082413 1_555
F16 Fe0 1.895513 1_555
F17 Fe1 1.895513 1_555
F18 Fe2 1.895513 1_555
F19 Fe3 1.895513 1_555
