# generated using pymatgen
data_U3(CuSi)4
_symmetry_space_group_name_H-M   'P 1'
_cell_length_a   3.94153000
_cell_length_b   3.99803700
_cell_length_c   12.16175393
_cell_angle_alpha   99.46059789
_cell_angle_beta   99.32568017
_cell_angle_gamma   90.00000000
_symmetry_Int_Tables_number   1
_chemical_formula_structural   U3(CuSi)4
_chemical_formula_sum   'U3 Cu4 Si4'
_cell_volume   186.47452186
_cell_formula_units_Z   1
loop_
 _symmetry_equiv_pos_site_id
 _symmetry_equiv_pos_as_xyz
  1  'x, y, z'
loop_
 _atom_site_type_symbol
 _atom_site_label
 _atom_site_symmetry_multiplicity
 _atom_site_fract_x
 _atom_site_fract_y
 _atom_site_fract_z
 _atom_site_occupancy
  U  U0  1  0.85312700  0.35312700  0.70625500  1
  U  U1  1  0.14687300  0.64687300  0.29374500  1
  U  U2  1  0.00000000  0.00000000  0.00000000  1
  Cu  Cu0  1  0.25011300  0.25011300  0.50022500  1
  Cu  Cu1  1  0.74988700  0.74988700  0.49977500  1
  Cu  Cu2  1  0.59643600  0.09643600  0.19287200  1
  Cu  Cu3  1  0.40356400  0.90356400  0.80712800  1
  Si  Si0  1  0.45072800  0.45072800  0.90145600  1
  Si  Si1  1  0.54927200  0.54927200  0.09854400  1
  Si  Si2  1  0.69301100  0.19301100  0.38602200  1
  Si  Si3  1  0.30698900  0.80698900  0.61397800  1
loop_
_geom_bond_atom_site_label_1
_geom_bond_atom_site_label_2
_geom_bond_distance
_geom_bond_site_symmetry_2
Cu0 Si2 2.389603 1_555
Cu0 Si2 2.389606 1_455
Cu0 Si3 2.409979 1_555
Cu0 Si3 2.409982 1_545
Cu0 Cu1 2.807131 1_555
Cu0 Cu1 2.807137 1_455
Cu0 Cu1 2.807137 1_545
Cu0 Cu1 2.807143 1_445
Cu0 U0 3.134943 1_555
Cu0 U0 3.134948 1_455
Cu0 U1 3.156903 1_545
Cu0 U1 3.156903 1_555
Cu1 Si3 2.389603 1_555
Cu1 Si3 2.389606 1_655
Cu1 Si2 2.409979 1_555
Cu1 Si2 2.409982 1_565
Cu1 U1 3.134943 1_555
Cu1 U1 3.134948 1_655
Cu1 U0 3.156903 1_565
Cu1 U0 3.156903 1_555
Cu2 Si2 2.285612 1_555
Cu2 Si1 2.289545 1_545
Cu2 Si1 2.289545 1_555
Cu2 U2 3.015445 1_655
Cu2 U2 3.015445 1_555
Cu2 U1 3.050379 1_545
Cu2 U1 3.050382 1_645
Cu2 U1 3.050382 1_555
Cu2 U1 3.050384 1_655
Cu3 Si3 2.285612 1_555
Cu3 Si0 2.289545 1_565
Cu3 Si0 2.289545 1_555
Cu3 U2 3.015445 1_666
Cu3 U2 3.015445 1_566
Cu3 U0 3.050379 1_565
Cu3 U0 3.050382 1_465
Cu3 U0 3.050382 1_555
Cu3 U0 3.050384 1_455
Si0 Si1 2.332212 1_556
Si0 U0 3.036357 1_555
Si0 U0 3.036360 1_455
Si0 U2 3.039703 1_566
Si0 U2 3.039703 1_666
Si0 U2 3.039703 1_556
Si0 U2 3.039703 1_656
Si1 U1 3.036357 1_555
Si1 U1 3.036360 1_655
Si1 U2 3.039703 1_655
Si1 U2 3.039703 1_555
Si1 U2 3.039703 1_665
Si1 U2 3.039703 1_565
Si2 U1 3.012029 1_545
Si2 U1 3.012032 1_645
Si2 U1 3.012032 1_555
Si2 U1 3.012035 1_655
Si3 U0 3.012029 1_565
Si3 U0 3.012032 1_465
Si3 U0 3.012032 1_555
Si3 U0 3.012035 1_455
