# generated using pymatgen
data_Tc8Br13O2
_symmetry_space_group_name_H-M   'P 1'
_cell_length_a   7.85693900
_cell_length_b   14.21554500
_cell_length_c   13.56121536
_cell_angle_alpha   90.00000000
_cell_angle_beta   110.28907142
_cell_angle_gamma   90.00000000
_symmetry_Int_Tables_number   1
_chemical_formula_structural   Tc8Br13O2
_chemical_formula_sum   'Tc16 Br26 O4'
_cell_volume   1420.68421180
_cell_formula_units_Z   2
loop_
 _symmetry_equiv_pos_site_id
 _symmetry_equiv_pos_as_xyz
  1  'x, y, z'
loop_
 _atom_site_type_symbol
 _atom_site_label
 _atom_site_symmetry_multiplicity
 _atom_site_fract_x
 _atom_site_fract_y
 _atom_site_fract_z
 _atom_site_occupancy
  Tc  Tc0  1  0.12677700  0.08146000  0.46482000  1
  Tc  Tc1  1  0.12677700  0.41854000  0.96482000  1
  Tc  Tc2  1  0.87322300  0.91854000  0.53518000  1
  Tc  Tc3  1  0.87322300  0.58146000  0.03518000  1
  Tc  Tc4  1  0.84101200  0.07836400  0.44908600  1
  Tc  Tc5  1  0.84101200  0.42163600  0.94908600  1
  Tc  Tc6  1  0.15898800  0.92163600  0.55091400  1
  Tc  Tc7  1  0.15898800  0.57836400  0.05091400  1
  Tc  Tc8  1  0.21965800  0.42407500  0.18101200  1
  Tc  Tc9  1  0.21965800  0.07592500  0.68101200  1
  Tc  Tc10  1  0.78034200  0.57592500  0.81898800  1
  Tc  Tc11  1  0.78034200  0.92407500  0.31898800  1
  Tc  Tc12  1  0.93139100  0.42629700  0.16165500  1
  Tc  Tc13  1  0.93139100  0.07370300  0.66165500  1
  Tc  Tc14  1  0.06860900  0.57370300  0.83834500  1
  Tc  Tc15  1  0.06860900  0.92629700  0.33834500  1
  Br  Br0  1  0.26657900  0.28014600  0.08475300  1
  Br  Br1  1  0.26657900  0.21985400  0.58475300  1
  Br  Br2  1  0.73342100  0.71985400  0.91524700  1
  Br  Br3  1  0.73342100  0.78014600  0.41524700  1
  Br  Br4  1  0.79868400  0.28130800  0.05282700  1
  Br  Br5  1  0.79868400  0.21869200  0.55282700  1
  Br  Br6  1  0.20131600  0.71869200  0.94717300  1
  Br  Br7  1  0.20131600  0.78130800  0.44717300  1
  Br  Br8  1  0.65442800  0.08542000  0.25528200  1
  Br  Br9  1  0.65442800  0.41458000  0.75528200  1
  Br  Br10  1  0.34557200  0.91458000  0.74471800  1
  Br  Br11  1  0.34557200  0.58542000  0.24471800  1
  Br  Br12  1  0.11495300  0.08913600  0.27468400  1
  Br  Br13  1  0.11495300  0.41086400  0.77468400  1
  Br  Br14  1  0.88504700  0.91086400  0.72531600  1
  Br  Br15  1  0.88504700  0.58913600  0.22531600  1
  Br  Br16  1  0.39188900  0.35572300  0.35647300  1
  Br  Br17  1  0.39188900  0.14427700  0.85647300  1
  Br  Br18  1  0.60811100  0.64427700  0.64352700  1
  Br  Br19  1  0.60811100  0.85572300  0.14352700  1
  Br  Br20  1  0.87484600  0.34934100  0.31165100  1
  Br  Br21  1  0.87484600  0.15065900  0.81165100  1
  Br  Br22  1  0.12515400  0.65065900  0.68834900  1
  Br  Br23  1  0.12515400  0.84934100  0.18834900  1
  Br  Br24  1  0.50000000  0.50000000  0.00000000  1
  Br  Br25  1  0.50000000  0.00000000  0.50000000  1
  O  O0  1  0.91682500  0.99772100  0.98857000  1
  O  O1  1  0.91682500  0.50227900  0.48857000  1
  O  O2  1  0.08317500  0.00227900  0.01143000  1
  O  O3  1  0.08317500  0.49772100  0.51143000  1
loop_
_geom_bond_atom_site_label_1
_geom_bond_atom_site_label_2
_geom_bond_distance
_geom_bond_site_symmetry_2
Tc0 Tc4 2.180898 1_455
Tc0 Tc6 2.526696 1_545
Tc0 Tc15 2.733539 1_545
Tc0 Tc9 2.765963 1_555
Tc1 Tc5 2.180898 1_455
Tc1 Tc7 2.526696 1_556
Tc1 Tc14 2.733539 1_555
Tc1 Tc8 2.765963 1_556
Tc2 Tc6 2.180898 1_655
Tc2 Tc4 2.526696 1_565
Tc3 Tc7 2.180898 1_655
Tc3 Tc5 2.526696 1_554
Tc10 Tc3 2.765963 1_556
Tc11 Tc2 2.765963 1_555
Tc12 Tc3 2.733539 1_555
Tc13 Tc2 2.733539 1_545
Br0 Tc8 2.521890 1_555
Br0 Tc1 2.546233 1_554
Br1 Tc9 2.521890 1_555
Br1 Tc0 2.546233 1_555
Br2 Tc10 2.521890 1_555
Br2 Tc3 2.546233 1_556
Br3 Tc11 2.521890 1_555
Br3 Tc2 2.546233 1_555
Br4 Tc5 2.528577 1_554
Br4 Tc12 2.538937 1_555
Br5 Tc4 2.528577 1_555
Br5 Tc13 2.538937 1_555
Br6 Tc7 2.528577 1_556
Br6 Tc14 2.538937 1_555
Br7 Tc6 2.528577 1_555
Br7 Tc15 2.538937 1_555
Br8 Tc11 2.528435 1_545
Br8 Tc4 2.528762 1_555
Br9 Tc10 2.528435 1_555
Br9 Tc5 2.528762 1_555
Br10 Tc9 2.528435 1_565
Br10 Tc6 2.528762 1_555
Br11 Tc8 2.528435 1_555
Br11 Tc7 2.528762 1_555
Br12 Tc15 2.540556 1_545
Br12 Tc0 2.550088 1_555
Br13 Tc14 2.540556 1_555
Br13 Tc1 2.550088 1_555
Br14 Tc13 2.540556 1_565
Br14 Tc2 2.550088 1_555
Br15 Tc12 2.540556 1_555
Br15 Tc3 2.550088 1_555
Br16 Tc8 2.490802 1_555
Br17 Tc9 2.490802 1_555
Br18 Tc10 2.490802 1_555
Br19 Tc11 2.490802 1_555
Br20 Tc12 2.481644 1_555
Br21 Tc13 2.481644 1_555
Br22 Tc14 2.481644 1_555
Br23 Tc15 2.481644 1_555
Br24 Tc3 3.032698 1_555
Br24 Tc1 3.032698 1_554
Br24 Tc7 3.190511 1_555
Br24 Tc5 3.190511 1_554
Br25 Tc2 3.032698 1_545
Br25 Tc0 3.032698 1_555
Br25 Tc6 3.190511 1_545
Br25 Tc4 3.190511 1_555
O0 O2 1.235944 1_666
O1 O3 1.235944 1_655
