# generated using pymatgen
data_LiFeP2O7
_symmetry_space_group_name_H-M   'P 1'
_cell_length_a   8.07703221
_cell_length_b   4.82762213
_cell_length_c   6.96158233
_cell_angle_alpha   70.54057685
_cell_angle_beta   90.00000000
_cell_angle_gamma   90.00000000
_symmetry_Int_Tables_number   1
_chemical_formula_structural   LiFeP2O7
_chemical_formula_sum   'Li2 Fe2 P4 O14'
_cell_volume   255.94602695
_cell_formula_units_Z   2
loop_
 _symmetry_equiv_pos_site_id
 _symmetry_equiv_pos_as_xyz
  1  'x, y, z'
loop_
 _atom_site_type_symbol
 _atom_site_label
 _atom_site_symmetry_multiplicity
 _atom_site_fract_x
 _atom_site_fract_y
 _atom_site_fract_z
 _atom_site_occupancy
  Li  Li0  1  0.86084321  0.82705388  0.66463828  1
  Li  Li1  1  0.36084321  0.17294612  0.33536172  1
  Fe  Fe0  1  0.00207249  0.21949331  0.26550646  1
  Fe  Fe1  1  0.50207249  0.78050669  0.73449354  1
  P  P0  1  0.78702440  0.79451430  0.08083707  1
  P  P1  1  0.28702440  0.20548570  0.91916293  1
  P  P2  1  0.18183528  0.59685531  0.52459157  1
  P  P3  1  0.68183528  0.40314469  0.47540843  1
  O  O0  1  0.65496450  0.60267587  0.24224724  1
  O  O1  1  0.82689520  0.06374342  0.13536771  1
  O  O2  1  0.32689520  0.93625658  0.86463229  1
  O  O3  1  0.69937501  0.86754174  0.87730694  1
  O  O4  1  0.03750282  0.80898046  0.48190827  1
  O  O5  1  0.34703410  0.75320964  0.51245875  1
  O  O6  1  0.68281052  0.60512961  0.60127658  1
  O  O7  1  0.53750282  0.19101954  0.51809173  1
  O  O8  1  0.15496450  0.39732413  0.75775276  1
  O  O9  1  0.43980246  0.39104954  0.91485876  1
  O  O10  1  0.93980246  0.60895046  0.08514124  1
  O  O11  1  0.18281052  0.39487039  0.39872342  1
  O  O12  1  0.84703410  0.24679036  0.48754125  1
  O  O13  1  0.19937501  0.13245826  0.12269306  1
loop_
_geom_bond_atom_site_label_1
_geom_bond_atom_site_label_2
_geom_bond_distance
_geom_bond_site_symmetry_2
Li0 O6 1.930035 1_555
Li0 O4 1.932816 1_655
Li0 O12 1.993471 1_565
Li0 O3 2.030719 1_555
Li1 O11 1.930035 1_555
Li1 O7 1.932816 1_555
Li1 O5 1.993471 1_545
Li1 O13 2.030719 1_555
Fe0 O10 1.947205 1_455
Fe0 O1 1.960099 1_455
Fe0 O13 1.995731 1_555
Fe0 O12 2.027423 1_455
Fe0 O11 2.056974 1_555
Fe0 O4 2.071169 1_545
Fe1 O9 1.947205 1_555
Fe1 O2 1.960099 1_555
Fe1 O3 1.995731 1_555
Fe1 O5 2.027423 1_555
Fe1 O6 2.056974 1_555
Fe1 O7 2.071169 1_565
O0 P0 1.601474 1_555
O0 P3 1.602470 1_555
O1 P0 1.505284 1_545
O2 P1 1.505284 1_565
O3 P0 1.516654 1_556
O4 P2 1.514361 1_555
O5 P2 1.521449 1_555
O6 P3 1.512608 1_555
O7 P3 1.514361 1_555
O8 P1 1.601474 1_555
O8 P2 1.602470 1_555
O9 P1 1.519298 1_555
O10 P0 1.519298 1_555
O11 P2 1.512608 1_555
O12 P3 1.521449 1_555
O13 P1 1.516654 1_554
