# generated using pymatgen
data_MgV2O4
_symmetry_space_group_name_H-M   'P 1'
_cell_length_a   5.10208657
_cell_length_b   5.10208657
_cell_length_c   10.00452600
_cell_angle_alpha   90.00000000
_cell_angle_beta   90.00000000
_cell_angle_gamma   147.14794055
_symmetry_Int_Tables_number   1
_chemical_formula_structural   MgV2O4
_chemical_formula_sum   'Mg2 V4 O8'
_cell_volume   141.27628827
_cell_formula_units_Z   2
loop_
 _symmetry_equiv_pos_site_id
 _symmetry_equiv_pos_as_xyz
  1  'x, y, z'
loop_
 _atom_site_type_symbol
 _atom_site_label
 _atom_site_symmetry_multiplicity
 _atom_site_fract_x
 _atom_site_fract_y
 _atom_site_fract_z
 _atom_site_occupancy
  Mg  Mg0  1  0.61658000  0.38342000  0.75000000  1
  Mg  Mg1  1  0.38342000  0.61658000  0.25000000  1
  V  V0  1  0.13064400  0.86935600  0.07422500  1
  V  V1  1  0.86935600  0.13064400  0.92577500  1
  V  V2  1  0.13064400  0.86935600  0.42577500  1
  V  V3  1  0.86935600  0.13064400  0.57422500  1
  O  O0  1  0.77274200  0.22725800  0.38472700  1
  O  O1  1  0.22725800  0.77274200  0.61527300  1
  O  O2  1  0.22725800  0.77274200  0.88472700  1
  O  O3  1  0.77274200  0.22725800  0.11527300  1
  O  O4  1  0.03593000  0.96407000  0.25000000  1
  O  O5  1  0.96407000  0.03593000  0.75000000  1
  O  O6  1  0.50000000  0.50000000  0.00000000  1
  O  O7  1  0.50000000  0.50000000  0.50000000  1
loop_
_geom_bond_atom_site_label_1
_geom_bond_atom_site_label_2
_geom_bond_distance
_geom_bond_site_symmetry_2
Mg0 O5 2.075995 1_565
Mg0 O5 2.075995 1_455
Mg0 O2 2.252070 1_655
Mg0 O2 2.252070 1_545
Mg0 O1 2.252070 1_655
Mg0 O1 2.252070 1_545
Mg1 O4 2.075995 1_545
Mg1 O4 2.075995 1_655
Mg1 O0 2.252070 1_565
Mg1 O3 2.252070 1_565
Mg1 O3 2.252070 1_455
Mg1 O0 2.252070 1_455
O0 V2 2.045616 1_655
O0 V2 2.045616 1_545
O0 V3 2.118588 1_555
O1 V3 2.045616 1_565
O1 V3 2.045616 1_455
O1 V2 2.118588 1_555
O2 V1 2.045616 1_565
O2 V1 2.045616 1_455
O2 V0 2.118588 1_556
O3 V0 2.045616 1_655
O3 V0 2.045616 1_545
O3 V1 2.118588 1_554
O4 V2 1.987931 1_555
O4 V0 1.987931 1_555
O5 V1 1.987931 1_555
O5 V3 1.987931 1_555
O6 V0 2.065927 1_655
O6 V1 2.065927 1_564
O6 V0 2.065927 1_545
O6 V1 2.065927 1_454
O7 V3 2.065927 1_565
O7 V2 2.065927 1_655
O7 V3 2.065927 1_455
O7 V2 2.065927 1_545
