# generated using pymatgen
data_LaMg2Mn3S8
_symmetry_space_group_name_H-M   'P 1'
_cell_length_a   7.63759151
_cell_length_b   7.63534176
_cell_length_c   7.63482464
_cell_angle_alpha   57.93728278
_cell_angle_beta   57.91059574
_cell_angle_gamma   57.89527205
_symmetry_Int_Tables_number   1
_chemical_formula_structural   LaMg2Mn3S8
_chemical_formula_sum   'La1 Mg2 Mn3 S8'
_cell_volume   299.75607371
_cell_formula_units_Z   1
loop_
 _symmetry_equiv_pos_site_id
 _symmetry_equiv_pos_as_xyz
  1  'x, y, z'
loop_
 _atom_site_type_symbol
 _atom_site_label
 _atom_site_symmetry_multiplicity
 _atom_site_fract_x
 _atom_site_fract_y
 _atom_site_fract_z
 _atom_site_occupancy
  La  La0  1  0.49996800  0.50005600  0.49994200  1
  Mg  Mg0  1  0.87604500  0.87600200  0.87579000  1
  Mg  Mg1  1  0.12396200  0.12408500  0.12416400  1
  Mn  Mn0  1  0.50020400  0.49985400  0.00038500  1
  Mn  Mn1  1  0.99996700  0.50002200  0.49996500  1
  Mn  Mn2  1  0.49995100  0.99987100  0.49996900  1
  S  S0  1  0.74406200  0.74440500  0.74390400  1
  S  S1  1  0.23834600  0.23840500  0.71867000  1
  S  S2  1  0.23812200  0.71878100  0.23845700  1
  S  S3  1  0.71915500  0.23821200  0.23846400  1
  S  S4  1  0.76180000  0.28129400  0.76147200  1
  S  S5  1  0.28087300  0.76175900  0.76150400  1
  S  S6  1  0.25591400  0.25560800  0.25606400  1
  S  S7  1  0.76163700  0.76164200  0.28125200  1
loop_
_geom_bond_atom_site_label_1
_geom_bond_atom_site_label_2
_geom_bond_distance
_geom_bond_site_symmetry_2
La0 S5 2.812964 1_555
La0 S3 2.813187 1_555
La0 S2 2.815367 1_555
La0 S4 2.815504 1_555
La0 S7 2.815674 1_555
La0 S1 2.815733 1_555
Mg0 S5 2.481333 1_655
Mg0 S4 2.484116 1_565
Mg0 S7 2.485181 1_556
Mg0 S0 2.503765 1_555
Mg1 S3 2.481290 1_455
Mg1 S2 2.484300 1_545
Mg1 S1 2.485454 1_554
Mg1 S6 2.503189 1_555
Mn0 S2 2.430694 1_555
Mn0 S3 2.432014 1_555
Mn0 S4 2.433003 1_554
Mn0 S5 2.438159 1_554
Mn0 S0 2.594133 1_554
Mn0 S6 2.594872 1_555
Mn1 S4 2.431969 1_555
Mn1 S2 2.432061 1_655
Mn1 S7 2.432101 1_555
Mn1 S1 2.432313 1_655
Mn1 S6 2.591481 1_655
Mn1 S0 2.591522 1_555
Mn2 S7 2.430266 1_555
Mn2 S1 2.431726 1_565
Mn2 S5 2.433435 1_555
Mn2 S3 2.435230 1_565
Mn2 S6 2.590976 1_565
Mn2 S0 2.591555 1_555
