# generated using pymatgen
data_InHg3
_symmetry_space_group_name_H-M   'P 1'
_cell_length_a   6.53141434
_cell_length_b   6.53141434
_cell_length_c   22.75895400
_cell_angle_alpha   90.00000000
_cell_angle_beta   90.00000000
_cell_angle_gamma   109.46236370
_symmetry_Int_Tables_number   1
_chemical_formula_structural   InHg3
_chemical_formula_sum   'In8 Hg24'
_cell_volume   915.40701678
_cell_formula_units_Z   8
loop_
 _symmetry_equiv_pos_site_id
 _symmetry_equiv_pos_as_xyz
  1  'x, y, z'
loop_
 _atom_site_type_symbol
 _atom_site_label
 _atom_site_symmetry_multiplicity
 _atom_site_fract_x
 _atom_site_fract_y
 _atom_site_fract_z
 _atom_site_occupancy
  In  In0_0  1  0.25000000  0.25000000  0.25000000  1
  In  In0_1  1  0.25000000  0.25000000  0.75000000  1
  In  In0_2  1  0.25000000  0.75000000  0.25000000  1
  In  In0_3  1  0.25000000  0.75000000  0.75000000  1
  In  In0_4  1  0.75000000  0.25000000  0.25000000  1
  In  In0_5  1  0.75000000  0.25000000  0.75000000  1
  In  In0_6  1  0.75000000  0.75000000  0.25000000  1
  In  In0_7  1  0.75000000  0.75000000  0.75000000  1
  Hg  Hg0_0  1  0.00000000  0.00000000  0.00000000  1
  Hg  Hg0_1  1  0.00000000  0.00000000  0.50000000  1
  Hg  Hg0_2  1  0.00000000  0.50000000  0.00000000  1
  Hg  Hg0_3  1  0.00000000  0.50000000  0.50000000  1
  Hg  Hg0_4  1  0.50000000  0.00000000  0.00000000  1
  Hg  Hg0_5  1  0.50000000  0.00000000  0.50000000  1
  Hg  Hg0_6  1  0.50000000  0.50000000  0.00000000  1
  Hg  Hg0_7  1  0.50000000  0.50000000  0.50000000  1
  Hg  Hg1_0  1  0.00000000  0.25000000  0.37461200  1
  Hg  Hg1_1  1  0.00000000  0.25000000  0.87461200  1
  Hg  Hg1_2  1  1.00000000  0.75000000  0.37461200  1
  Hg  Hg1_3  1  1.00000000  0.75000000  0.87461200  1
  Hg  Hg1_4  1  0.50000000  0.25000000  0.37461200  1
  Hg  Hg1_5  1  0.50000000  0.25000000  0.87461200  1
  Hg  Hg1_6  1  0.50000000  0.75000000  0.37461200  1
  Hg  Hg1_7  1  0.50000000  0.75000000  0.87461200  1
  Hg  Hg2_0  1  0.25000000  0.00000000  0.12538800  1
  Hg  Hg2_1  1  0.25000000  0.00000000  0.62538800  1
  Hg  Hg2_2  1  0.25000000  0.50000000  0.12538800  1
  Hg  Hg2_3  1  0.25000000  0.50000000  0.62538800  1
  Hg  Hg2_4  1  0.75000000  0.00000000  0.12538800  1
  Hg  Hg2_5  1  0.75000000  0.00000000  0.62538800  1
  Hg  Hg2_6  1  0.75000000  0.50000000  0.12538800  1
  Hg  Hg2_7  1  0.75000000  0.50000000  0.62538800  1
loop_
_geom_bond_atom_site_label_1
_geom_bond_atom_site_label_2
_geom_bond_distance
_geom_bond_site_symmetry_2
In0_0 In0_2 3.265707 1_545
In0_0 In0_4 3.265707 1_455
In0_0 In0_4 3.265707 1_555
In0_0 In0_2 3.265707 1_555
In0_1 In0_3 3.265707 1_545
In0_1 In0_5 3.265707 1_555
In0_1 In0_5 3.265707 1_455
In0_1 In0_3 3.265707 1_555
In0_2 In0_6 3.265707 1_555
In0_2 In0_6 3.265707 1_455
In0_3 In0_7 3.265707 1_555
In0_3 In0_7 3.265707 1_455
In0_4 In0_6 3.265707 1_545
In0_4 In0_6 3.265707 1_555
In0_5 In0_7 3.265707 1_545
In0_5 In0_7 3.265707 1_555
Hg0_0 Hg0_4 3.265707 1_555
Hg0_0 Hg0_2 3.265707 1_545
Hg0_0 Hg0_4 3.265707 1_455
Hg0_0 Hg0_2 3.265707 1_555
Hg0_0 Hg1_3 3.287828 1_444
Hg0_0 Hg1_1 3.287828 1_554
Hg0_0 Hg2_0 3.287828 1_555
Hg0_0 Hg2_4 3.287828 1_455
Hg0_1 Hg0_3 3.265707 1_555
Hg0_1 Hg0_5 3.265707 1_455
Hg0_1 Hg0_5 3.265707 1_555
Hg0_1 Hg0_3 3.265707 1_545
Hg0_1 Hg2_5 3.287828 1_455
Hg0_1 Hg2_1 3.287828 1_555
Hg0_1 Hg1_0 3.287828 1_555
Hg0_1 Hg1_2 3.287828 1_445
Hg0_2 Hg0_6 3.265707 1_555
Hg0_2 Hg0_6 3.265707 1_455
Hg0_2 Hg1_1 3.287828 1_554
Hg0_2 Hg1_3 3.287828 1_454
Hg0_2 Hg2_6 3.287828 1_455
Hg0_2 Hg2_2 3.287828 1_555
Hg0_3 Hg0_7 3.265707 1_555
Hg0_3 Hg0_7 3.265707 1_455
Hg0_3 Hg2_3 3.287828 1_555
Hg0_3 Hg2_7 3.287828 1_455
Hg0_3 Hg1_2 3.287828 1_455
Hg0_3 Hg1_0 3.287828 1_555
Hg0_4 Hg0_6 3.265707 1_545
Hg0_4 Hg0_6 3.265707 1_555
Hg0_4 Hg1_7 3.287828 1_544
Hg0_4 Hg1_5 3.287828 1_554
Hg0_4 Hg2_0 3.287828 1_555
Hg0_4 Hg2_4 3.287828 1_555
Hg0_5 Hg0_7 3.265707 1_545
Hg0_5 Hg0_7 3.265707 1_555
Hg0_5 Hg2_1 3.287828 1_555
Hg0_5 Hg2_5 3.287828 1_555
Hg0_5 Hg1_6 3.287828 1_545
Hg0_5 Hg1_4 3.287828 1_555
Hg0_6 Hg1_5 3.287828 1_554
Hg0_6 Hg1_7 3.287828 1_554
Hg0_6 Hg2_2 3.287828 1_555
Hg0_6 Hg2_6 3.287828 1_555
Hg0_7 Hg2_3 3.287828 1_555
Hg0_7 Hg2_7 3.287828 1_555
Hg0_7 Hg1_4 3.287828 1_555
Hg0_7 Hg1_6 3.287828 1_555
Hg1_0 Hg1_4 3.265707 1_555
Hg1_0 Hg1_2 3.265707 1_445
Hg1_0 Hg1_4 3.265707 1_455
Hg1_0 Hg1_2 3.265707 1_455
Hg1_0 In0_4 3.272511 1_455
Hg1_0 In0_0 3.272511 1_555
Hg1_1 Hg1_5 3.265707 1_555
Hg1_1 Hg1_5 3.265707 1_455
Hg1_1 Hg1_3 3.265707 1_445
Hg1_1 Hg1_3 3.265707 1_455
Hg1_1 In0_1 3.272511 1_555
Hg1_1 In0_5 3.272511 1_455
Hg1_2 Hg1_6 3.265707 1_555
Hg1_2 Hg1_6 3.265707 1_655
Hg1_2 In0_6 3.272511 1_555
Hg1_2 In0_2 3.272511 1_655
Hg1_3 Hg1_7 3.265707 1_555
Hg1_3 Hg1_7 3.265707 1_655
Hg1_3 In0_7 3.272511 1_555
Hg1_3 In0_3 3.272511 1_655
Hg1_4 Hg1_6 3.265707 1_545
Hg1_4 Hg1_6 3.265707 1_555
Hg1_4 In0_0 3.272511 1_555
Hg1_4 In0_4 3.272511 1_555
Hg1_5 Hg1_7 3.265707 1_545
Hg1_5 Hg1_7 3.265707 1_555
Hg1_5 In0_1 3.272511 1_555
Hg1_5 In0_5 3.272511 1_555
Hg1_6 In0_6 3.272511 1_555
Hg1_6 In0_2 3.272511 1_555
Hg1_7 In0_7 3.272511 1_555
Hg1_7 In0_3 3.272511 1_555
Hg2_0 Hg2_4 3.265707 1_555
Hg2_0 Hg2_2 3.265707 1_545
Hg2_0 Hg2_4 3.265707 1_455
Hg2_0 Hg2_2 3.265707 1_555
Hg2_0 In0_2 3.272511 1_545
Hg2_0 In0_0 3.272511 1_555
Hg2_1 Hg2_3 3.265707 1_545
Hg2_1 Hg2_5 3.265707 1_555
Hg2_1 Hg2_5 3.265707 1_455
Hg2_1 Hg2_3 3.265707 1_555
Hg2_1 In0_1 3.272511 1_555
Hg2_1 In0_3 3.272511 1_545
Hg2_2 Hg2_6 3.265707 1_555
Hg2_2 Hg2_6 3.265707 1_455
Hg2_2 In0_2 3.272511 1_555
Hg2_2 In0_0 3.272511 1_555
Hg2_3 Hg2_7 3.265707 1_555
Hg2_3 Hg2_7 3.265707 1_455
Hg2_3 In0_1 3.272511 1_555
Hg2_3 In0_3 3.272511 1_555
Hg2_4 Hg2_6 3.265707 1_545
Hg2_4 Hg2_6 3.265707 1_555
Hg2_4 In0_6 3.272511 1_545
Hg2_4 In0_4 3.272511 1_555
Hg2_5 Hg2_7 3.265707 1_545
Hg2_5 Hg2_7 3.265707 1_555
Hg2_5 In0_7 3.272511 1_545
Hg2_5 In0_5 3.272511 1_555
Hg2_6 In0_6 3.272511 1_555
Hg2_6 In0_4 3.272511 1_555
Hg2_7 In0_7 3.272511 1_555
Hg2_7 In0_5 3.272511 1_555
