# generated using pymatgen
data_Ta2Ni3Te5
_symmetry_space_group_name_H-M   'P 1'
_cell_length_a   3.72687800
_cell_length_b   14.29490000
_cell_length_c   17.80159000
_cell_angle_alpha   90.00000000
_cell_angle_beta   90.00000000
_cell_angle_gamma   90.00000000
_symmetry_Int_Tables_number   1
_chemical_formula_structural   Ta2Ni3Te5
_chemical_formula_sum   'Ta8 Ni12 Te20'
_cell_volume   948.38590794
_cell_formula_units_Z   4
loop_
 _symmetry_equiv_pos_site_id
 _symmetry_equiv_pos_as_xyz
  1  'x, y, z'
loop_
 _atom_site_type_symbol
 _atom_site_label
 _atom_site_symmetry_multiplicity
 _atom_site_fract_x
 _atom_site_fract_y
 _atom_site_fract_z
 _atom_site_occupancy
  Ta  Ta0  1  0.25000000  0.74397800  0.91113200  1
  Ta  Ta1  1  0.75000000  0.25602200  0.08886800  1
  Ta  Ta2  1  0.75000000  0.75602200  0.41113200  1
  Ta  Ta3  1  0.25000000  0.24397800  0.58886800  1
  Ta  Ta4  1  0.25000000  0.74203200  0.16720700  1
  Ta  Ta5  1  0.75000000  0.25796800  0.83279300  1
  Ta  Ta6  1  0.75000000  0.75796800  0.66720700  1
  Ta  Ta7  1  0.25000000  0.24203200  0.33279300  1
  Ni  Ni0  1  0.25000000  0.70050900  0.76760300  1
  Ni  Ni1  1  0.75000000  0.29949100  0.23239700  1
  Ni  Ni2  1  0.75000000  0.79949100  0.26760300  1
  Ni  Ni3  1  0.25000000  0.20050900  0.73239700  1
  Ni  Ni4  1  0.25000000  0.74356900  0.53893100  1
  Ni  Ni5  1  0.75000000  0.25643100  0.46106900  1
  Ni  Ni6  1  0.75000000  0.75643100  0.03893100  1
  Ni  Ni7  1  0.25000000  0.24356900  0.96106900  1
  Ni  Ni8  1  0.25000000  0.69585400  0.31084500  1
  Ni  Ni9  1  0.75000000  0.30414600  0.68915500  1
  Ni  Ni10  1  0.75000000  0.80414600  0.81084500  1
  Ni  Ni11  1  0.25000000  0.19585400  0.18915500  1
  Te  Te0  1  0.25000000  0.11363600  0.05913600  1
  Te  Te1  1  0.75000000  0.88636400  0.94086400  1
  Te  Te2  1  0.75000000  0.38636400  0.55913600  1
  Te  Te3  1  0.25000000  0.61363600  0.44086400  1
  Te  Te4  1  0.25000000  0.63196000  0.03860400  1
  Te  Te5  1  0.75000000  0.36804000  0.96139600  1
  Te  Te6  1  0.75000000  0.86804000  0.53860400  1
  Te  Te7  1  0.25000000  0.13196000  0.46139600  1
  Te  Te8  1  0.25000000  0.88554700  0.34163400  1
  Te  Te9  1  0.75000000  0.11445300  0.65836600  1
  Te  Te10  1  0.75000000  0.61445300  0.84163400  1
  Te  Te11  1  0.25000000  0.38554700  0.15836600  1
  Te  Te12  1  0.25000000  0.88845700  0.73592600  1
  Te  Te13  1  0.75000000  0.11154300  0.26407400  1
  Te  Te14  1  0.75000000  0.61154300  0.23592600  1
  Te  Te15  1  0.25000000  0.38845700  0.76407400  1
  Te  Te16  1  0.25000000  0.61576900  0.63855700  1
  Te  Te17  1  0.75000000  0.38423100  0.36144300  1
  Te  Te18  1  0.75000000  0.88423100  0.13855700  1
  Te  Te19  1  0.25000000  0.11576900  0.86144300  1
loop_
_geom_bond_atom_site_label_1
_geom_bond_atom_site_label_2
_geom_bond_distance
_geom_bond_site_symmetry_2
Ta0 Te4 2.777302 1_556
Ta0 Te1 2.809869 1_455
Ta0 Te1 2.809869 1_555
Ta0 Te10 2.903658 1_555
Ta0 Te10 2.903658 1_455
Ta1 Te5 2.777302 1_554
Ta1 Te0 2.809869 1_655
Ta1 Te0 2.809869 1_555
Ta1 Te11 2.903658 1_655
Ta1 Te11 2.903658 1_555
Ta2 Te6 2.777302 1_555
Ta2 Te3 2.809869 1_555
Ta2 Te3 2.809869 1_655
Ta2 Te8 2.903658 1_655
Ta2 Te8 2.903658 1_555
Ta3 Te7 2.777302 1_555
Ta3 Te2 2.809869 1_555
Ta3 Te2 2.809869 1_455
Ta3 Te9 2.903658 1_555
Ta3 Te9 2.903658 1_455
Ta4 Te4 2.777926 1_555
Ta4 Te18 2.804367 1_455
Ta4 Te18 2.804367 1_555
Ta4 Te14 2.906601 1_555
Ta4 Te14 2.906601 1_455
Ta5 Te5 2.777926 1_555
Ta5 Te19 2.804367 1_555
Ta5 Te19 2.804367 1_655
Ta5 Te15 2.906601 1_555
Ta5 Te15 2.906601 1_655
Ta6 Te6 2.777926 1_555
Ta6 Te16 2.804367 1_555
Ta6 Te16 2.804367 1_655
Ta6 Te12 2.906601 1_555
Ta6 Te12 2.906601 1_655
Ta7 Te7 2.777926 1_555
Ta7 Te17 2.804367 1_455
Ta7 Te17 2.804367 1_555
Ta7 Te13 2.906601 1_555
Ta7 Te13 2.906601 1_455
Ni0 Ni10 2.501948 1_455
Ni0 Ni10 2.501948 1_555
Ni0 Te10 2.592775 1_455
Ni0 Te10 2.592775 1_555
Ni0 Te16 2.597038 1_555
Ni0 Ta0 2.629519 1_555
Ni0 Ta6 2.709459 1_555
Ni0 Ta6 2.709459 1_455
Ni0 Te12 2.745238 1_555
Ni1 Ni11 2.501948 1_655
Ni1 Ni11 2.501948 1_555
Ni1 Te11 2.592775 1_655
Ni1 Te11 2.592775 1_555
Ni1 Te17 2.597038 1_555
Ni1 Ta1 2.629519 1_555
Ni1 Ta7 2.709459 1_555
Ni1 Ta7 2.709459 1_655
Ni1 Te13 2.745238 1_555
Ni2 Ni8 2.501948 1_555
Ni2 Ni8 2.501948 1_655
Ni2 Te8 2.592775 1_555
Ni2 Te8 2.592775 1_655
Ni2 Te18 2.597038 1_555
Ni2 Ta2 2.629519 1_555
Ni2 Ta4 2.709459 1_555
Ni2 Ta4 2.709459 1_655
Ni2 Te14 2.745238 1_555
Ni3 Ni9 2.501948 1_455
Ni3 Ni9 2.501948 1_555
Ni3 Te9 2.592775 1_455
Ni3 Te9 2.592775 1_555
Ni3 Te19 2.597038 1_555
Ni3 Ta3 2.629519 1_555
Ni3 Ta5 2.709459 1_455
Ni3 Ta5 2.709459 1_555
Ni3 Te15 2.745238 1_555
Ni4 Te16 2.546140 1_555
Ni4 Te3 2.549019 1_555
Ni4 Te6 2.576499 1_555
Ni4 Te6 2.576499 1_455
Ni4 Ta2 2.946156 1_455
Ni4 Ta2 2.946156 1_555
Ni4 Ta6 2.954525 1_555
Ni4 Ta6 2.954525 1_455
Ni5 Te17 2.546140 1_555
Ni5 Te2 2.549019 1_555
Ni5 Te7 2.576499 1_555
Ni5 Te7 2.576499 1_655
Ni5 Ta3 2.946156 1_655
Ni5 Ta3 2.946156 1_555
Ni5 Ta7 2.954525 1_555
Ni5 Ta7 2.954525 1_655
Ni6 Te18 2.546140 1_555
Ni6 Te1 2.549019 1_554
Ni6 Te4 2.576499 1_655
Ni6 Te4 2.576499 1_555
Ni6 Ta0 2.946156 1_654
Ni6 Ta0 2.946156 1_554
Ni6 Ta4 2.954525 1_555
Ni6 Ta4 2.954525 1_655
Ni7 Te19 2.546140 1_555
Ni7 Te0 2.549019 1_556
Ni7 Te5 2.576499 1_455
Ni7 Te5 2.576499 1_555
Ni7 Ta1 2.946156 1_456
Ni7 Ta1 2.946156 1_556
Ni7 Ta5 2.954525 1_555
Ni7 Ta5 2.954525 1_455
Ni8 Te14 2.589141 1_555
Ni8 Te14 2.589141 1_455
Ni8 Te3 2.595851 1_555
Ni8 Ta4 2.640817 1_555
Ni8 Ta2 2.720175 1_455
Ni8 Ta2 2.720175 1_555
Ni8 Te8 2.766480 1_555
Ni9 Te15 2.589141 1_655
Ni9 Te15 2.589141 1_555
Ni9 Te2 2.595851 1_555
Ni9 Ta5 2.640817 1_555
Ni9 Ta3 2.720175 1_555
Ni9 Ta3 2.720175 1_655
Ni9 Te9 2.766480 1_555
Ni10 Te12 2.589141 1_655
Ni10 Te12 2.589141 1_555
Ni10 Te1 2.595851 1_555
Ni10 Ta6 2.640817 1_555
Ni10 Ta0 2.720175 1_555
Ni10 Ta0 2.720175 1_655
Ni10 Te10 2.766480 1_555
Ni11 Te13 2.589141 1_555
Ni11 Te13 2.589141 1_455
Ni11 Te0 2.595851 1_555
Ni11 Ta7 2.640817 1_555
Ni11 Ta1 2.720175 1_455
Ni11 Ta1 2.720175 1_555
Ni11 Te11 2.766480 1_555
