# generated using pymatgen
data_Na3ScN2
_symmetry_space_group_name_H-M   'P 1'
_cell_length_a   9.71801600
_cell_length_b   11.22139922
_cell_length_c   11.22139894
_cell_angle_alpha   90.00000123
_cell_angle_beta   125.26439157
_cell_angle_gamma   54.73560945
_symmetry_Int_Tables_number   1
_chemical_formula_structural   Na3ScN2
_chemical_formula_sum   'Na24 Sc8 N16'
_cell_volume   706.49806741
_cell_formula_units_Z   8
loop_
 _symmetry_equiv_pos_site_id
 _symmetry_equiv_pos_as_xyz
  1  'x, y, z'
loop_
 _atom_site_type_symbol
 _atom_site_label
 _atom_site_symmetry_multiplicity
 _atom_site_fract_x
 _atom_site_fract_y
 _atom_site_fract_z
 _atom_site_occupancy
  Na  Na0  1  0.20572100  0.05523200  0.97294100  1
  Na  Na1  1  0.79427900  0.76095200  0.52705900  1
  Na  Na2  1  0.79427900  0.44476800  0.76722000  1
  Na  Na3  1  0.20572100  0.73904800  0.73278000  1
  Na  Na4  1  0.25983800  0.76722000  0.28801100  1
  Na  Na5  1  0.74016200  0.73278000  0.02817300  1
  Na  Na6  1  0.25983800  0.97294100  0.47182700  1
  Na  Na7  1  0.74016200  0.52705900  0.21198900  1
  Na  Na8  1  0.68381600  0.02817300  0.73904800  1
  Na  Na9  1  0.68381600  0.28801100  0.44476800  1
  Na  Na10  1  0.31618400  0.21198900  0.76095200  1
  Na  Na11  1  0.31618400  0.47182700  0.05523200  1
  Na  Na12  1  0.79427900  0.94476800  0.02705900  1
  Na  Na13  1  0.20572100  0.23904800  0.47294100  1
  Na  Na14  1  0.20572100  0.55523200  0.23278000  1
  Na  Na15  1  0.79427900  0.26095200  0.26722000  1
  Na  Na16  1  0.74016200  0.23278000  0.71198900  1
  Na  Na17  1  0.25983800  0.26722000  0.97182700  1
  Na  Na18  1  0.74016200  0.02705900  0.52817300  1
  Na  Na19  1  0.25983800  0.47294100  0.78801100  1
  Na  Na20  1  0.31618400  0.97182700  0.26095200  1
  Na  Na21  1  0.31618400  0.71198900  0.55523200  1
  Na  Na22  1  0.68381600  0.78801100  0.23904800  1
  Na  Na23  1  0.68381600  0.52817300  0.94476800  1
  Sc  Sc0  1  0.22163600  0.00000000  0.72163600  1
  Sc  Sc1  1  0.77836400  0.72163600  0.77836400  1
  Sc  Sc2  1  0.77836400  0.50000000  0.50000000  1
  Sc  Sc3  1  0.22163600  0.77836400  0.00000000  1
  Sc  Sc4  1  0.77836400  0.00000000  0.27836400  1
  Sc  Sc5  1  0.22163600  0.27836400  0.22163600  1
  Sc  Sc6  1  0.22163600  0.50000000  0.50000000  1
  Sc  Sc7  1  0.77836400  0.22163600  0.00000000  1
  N  N0  1  0.00000000  0.00000000  0.50000000  1
  N  N1  1  0.00000000  0.50000000  0.00000000  1
  N  N2  1  0.00000000  0.50000000  0.50000000  1
  N  N3  1  0.00000000  0.00000000  0.00000000  1
  N  N4  1  0.50000000  0.94457200  0.75000000  1
  N  N5  1  0.50000000  0.55542800  0.25000000  1
  N  N6  1  0.00000000  0.25000000  0.69457200  1
  N  N7  1  0.00000000  0.75000000  0.80542800  1
  N  N8  1  0.61085600  0.69457200  0.55542800  1
  N  N9  1  0.38914400  0.80542800  0.94457200  1
  N  N10  1  0.50000000  0.05542800  0.25000000  1
  N  N11  1  0.50000000  0.44457200  0.75000000  1
  N  N12  1  0.00000000  0.75000000  0.30542800  1
  N  N13  1  0.00000000  0.25000000  0.19457200  1
  N  N14  1  0.38914400  0.30542800  0.44457200  1
  N  N15  1  0.61085600  0.19457200  0.05542800  1
loop_
_geom_bond_atom_site_label_1
_geom_bond_atom_site_label_2
_geom_bond_distance
_geom_bond_site_symmetry_2
N0 Sc0 2.153862 1_555
N0 Sc4 2.153862 1_455
N0 Na18 2.569975 1_455
N0 Na6 2.569975 1_545
N0 Na9 2.569975 1_455
N0 Na21 2.569975 1_545
N0 Na3 2.569977 1_545
N0 Na15 2.569977 1_455
N1 Sc5 2.153862 1_555
N1 Sc1 2.153862 1_454
N1 Na23 2.569975 1_454
N1 Na11 2.569975 1_555
N1 Na17 2.569980 1_554
N1 Na5 2.569980 1_455
N1 Na14 2.569984 1_555
N1 Na2 2.569984 1_454
N2 Sc6 2.153862 1_555
N2 Sc2 2.153862 1_455
N2 Na7 2.569975 1_455
N2 Na19 2.569975 1_555
N2 Na22 2.569975 1_455
N2 Na10 2.569975 1_555
N2 Na13 2.569977 1_555
N2 Na1 2.569977 1_455
N3 Sc7 2.153862 1_455
N3 Sc3 2.153862 1_545
N3 Na8 2.569975 1_454
N3 Na20 2.569975 1_545
N3 Na4 2.569980 1_545
N3 Na16 2.569980 1_454
N3 Na0 2.569984 1_554
N3 Na12 2.569984 1_445
N4 Sc0 2.206567 1_565
N4 Sc1 2.206567 1_555
N4 Na5 2.453959 1_556
N4 Na6 2.453964 1_555
N4 Na8 2.504929 1_565
N4 Na10 2.504929 1_565
N4 Na12 2.754090 1_556
N4 Na13 2.754097 1_565
N5 Sc2 2.206567 1_555
N5 Sc3 2.206567 1_555
N5 Na4 2.453959 1_555
N5 Na7 2.453964 1_555
N5 Na11 2.504929 1_555
N5 Na9 2.504929 1_555
N5 Na14 2.754090 1_555
N5 Na15 2.754097 1_555
N6 Sc0 2.206567 1_555
N6 Sc2 2.206567 1_455
N6 Na10 2.453964 1_555
N6 Na9 2.453964 1_455
N6 Na2 2.504924 1_455
N6 Na0 2.504925 1_555
N6 Na16 2.754087 1_455
N6 Na17 2.754087 1_555
N7 Sc1 2.206567 1_455
N7 Sc3 2.206567 1_556
N7 Na8 2.453964 1_465
N7 Na11 2.453964 1_556
N7 Na3 2.504929 1_555
N7 Na1 2.504929 1_455
N7 Na19 2.754094 1_555
N7 Na18 2.754094 1_465
N8 Sc1 2.206567 1_555
N8 Sc2 2.206567 1_555
N8 Na1 2.453955 1_555
N8 Na2 2.453963 1_555
N8 Na6 2.504929 1_555
N8 Na4 2.504934 1_555
N8 Na21 2.754094 1_555
N8 Na20 2.754094 1_555
N9 Sc3 2.206567 1_556
N9 Sc0 2.206567 1_565
N9 Na3 2.453955 1_555
N9 Na0 2.453963 1_565
N9 Na7 2.504929 1_556
N9 Na5 2.504934 1_556
N9 Na22 2.754094 1_556
N9 Na23 2.754094 1_555
N10 Sc4 2.206567 1_555
N10 Sc5 2.206567 1_555
N10 Na17 2.453959 1_554
N10 Na18 2.453964 1_555
N10 Na20 2.504929 1_545
N10 Na22 2.504929 1_545
N10 Na0 2.754090 1_554
N10 Na1 2.754097 1_545
N11 Sc6 2.206567 1_555
N11 Sc7 2.206567 1_556
N11 Na16 2.453959 1_555
N11 Na19 2.453964 1_555
N11 Na23 2.504929 1_555
N11 Na21 2.504929 1_555
N11 Na2 2.754090 1_555
N11 Na3 2.754097 1_555
N12 Sc4 2.206567 1_465
N12 Sc6 2.206567 1_555
N12 Na22 2.453964 1_455
N12 Na21 2.453964 1_555
N12 Na14 2.504924 1_555
N12 Na12 2.504925 1_455
N12 Na4 2.754087 1_555
N12 Na5 2.754087 1_455
N13 Sc5 2.206567 1_555
N13 Sc7 2.206567 1_455
N13 Na20 2.453964 1_545
N13 Na23 2.453964 1_454
N13 Na15 2.504929 1_455
N13 Na13 2.504929 1_555
N13 Na7 2.754094 1_455
N13 Na6 2.754094 1_545
N14 Sc5 2.206567 1_555
N14 Sc6 2.206567 1_555
N14 Na13 2.453955 1_555
N14 Na14 2.453963 1_555
N14 Na18 2.504929 1_555
N14 Na16 2.504934 1_555
N14 Na9 2.754094 1_555
N14 Na8 2.754094 1_555
N15 Sc7 2.206567 1_555
N15 Sc4 2.206567 1_555
N15 Na15 2.453955 1_555
N15 Na12 2.453963 1_545
N15 Na19 2.504929 1_554
N15 Na17 2.504934 1_554
N15 Na10 2.754094 1_554
N15 Na11 2.754094 1_555
