# generated using pymatgen
data_Ca2CoO3
_symmetry_space_group_name_H-M   'P 1'
_cell_length_a   3.25910021
_cell_length_b   3.25910021
_cell_length_c   11.00698242
_cell_angle_alpha   84.55948686
_cell_angle_beta   84.55948686
_cell_angle_gamma   89.83593415
_symmetry_Int_Tables_number   1
_chemical_formula_structural   Ca2CoO3
_chemical_formula_sum   'Ca2 Co1 O3'
_cell_volume   115.86005276
_cell_formula_units_Z   1
loop_
 _symmetry_equiv_pos_site_id
 _symmetry_equiv_pos_as_xyz
  1  'x, y, z'
loop_
 _atom_site_type_symbol
 _atom_site_label
 _atom_site_symmetry_multiplicity
 _atom_site_fract_x
 _atom_site_fract_y
 _atom_site_fract_z
 _atom_site_occupancy
  Ca  Ca0  1  0.30574200  0.30574200  0.28906100  1
  Ca  Ca1  1  0.17476100  0.17476100  0.70259800  1
  Co  Co0  1  0.72501100  0.72501100  0.49591000  1
  O  O0  1  0.67727400  0.67727400  0.69909600  1
  O  O1  1  0.24609500  0.24609500  0.49581800  1
  O  O2  1  0.80511700  0.80511700  0.29251600  1
loop_
_geom_bond_atom_site_label_1
_geom_bond_atom_site_label_2
_geom_bond_distance
_geom_bond_site_symmetry_2
Ca0 O1 2.255471 1_555
Ca0 O2 2.301540 1_545
Ca0 O2 2.301540 1_455
Ca0 O2 2.305930 1_445
Ca0 O2 2.310343 1_555
Ca1 O1 2.255663 1_555
Ca1 O0 2.301556 1_545
Ca1 O0 2.301556 1_455
Ca1 O0 2.301708 1_445
Ca1 O0 2.314582 1_555
Co0 O1 2.210648 1_555
Co0 O0 2.217739 1_555
Co0 O2 2.219700 1_555
Co0 O1 2.303281 1_655
Co0 O1 2.303281 1_565
Co0 O1 2.405010 1_665
