# generated using pymatgen
data_La6Ti3Se9O5
_symmetry_space_group_name_H-M   'P 1'
_cell_length_a   22.50949661
_cell_length_b   22.50949661
_cell_length_c   11.25712034
_cell_angle_alpha   83.03180712
_cell_angle_beta   83.03180712
_cell_angle_gamma   10.01174395
_symmetry_Int_Tables_number   1
_chemical_formula_structural   La6Ti3Se9O5
_chemical_formula_sum   'La12 Ti6 Se18 O10'
_cell_volume   984.21278379
_cell_formula_units_Z   2
loop_
 _symmetry_equiv_pos_site_id
 _symmetry_equiv_pos_as_xyz
  1  'x, y, z'
loop_
 _atom_site_type_symbol
 _atom_site_label
 _atom_site_symmetry_multiplicity
 _atom_site_fract_x
 _atom_site_fract_y
 _atom_site_fract_z
 _atom_site_occupancy
  La  La0  1  0.63854300  0.63854300  0.34785700  1
  La  La1  1  0.53816700  0.53816700  0.25337100  1
  La  La2  1  0.46419500  0.46419500  0.74358900  1
  La  La3  1  0.11298100  0.11298100  0.98663000  1
  La  La4  1  0.04167500  0.04167500  0.74511400  1
  La  La5  1  0.21188700  0.21188700  0.53819200  1
  La  La6  1  0.36145700  0.36145700  0.65214300  1
  La  La7  1  0.96091400  0.96091400  0.25083500  1
  La  La8  1  0.78811300  0.78811300  0.46180800  1
  La  La9  1  0.21238000  0.21238000  0.99342800  1
  La  La10  1  0.78762000  0.78762000  0.00657200  1
  La  La11  1  0.88701900  0.88701900  0.01337000  1
  Ti  Ti0  1  0.73124500  0.73124500  0.25888000  1
  Ti  Ti1  1  0.35939700  0.35939700  0.34247500  1
  Ti  Ti2  1  0.64290400  0.64290400  0.65486200  1
  Ti  Ti3  1  0.00120100  0.00120100  0.49859800  1
  Ti  Ti4  1  0.26875500  0.26875500  0.74112000  1
  Ti  Ti5  1  0.50134600  0.50134600  0.99855300  1
  Se  Se0  1  0.41024500  0.41024500  0.18410500  1
  Se  Se1  1  0.58975500  0.58975500  0.81589500  1
  Se  Se2  1  0.72868100  0.72868100  0.76529300  1
  Se  Se3  1  0.83746500  0.83746500  0.22418000  1
  Se  Se4  1  0.04159400  0.04159400  0.02808500  1
  Se  Se5  1  0.09370600  0.09370600  0.25257300  1
  Se  Se6  1  0.81136900  0.81136900  0.71689900  1
  Se  Se7  1  0.88885000  0.88885000  0.44561800  1
  Se  Se8  1  0.27131900  0.27131900  0.23470700  1
  Se  Se9  1  0.34473600  0.34473600  0.93789400  1
  Se  Se10  1  0.96087000  0.96087000  0.96917600  1
  Se  Se11  1  0.16253500  0.16253500  0.77582000  1
  Se  Se12  1  0.54231200  0.54231200  0.52306000  1
  Se  Se13  1  0.90854700  0.90854700  0.74434200  1
  Se  Se14  1  0.65526400  0.65526400  0.06210600  1
  Se  Se15  1  0.11354800  0.11354800  0.55174100  1
  Se  Se16  1  0.46052800  0.46052800  0.47313400  1
  Se  Se17  1  0.18863100  0.18863100  0.28310100  1
  O  O0  1  0.73516400  0.73516400  0.43006600  1
  O  O1  1  0.01260600  0.01260600  0.32680800  1
  O  O2  1  0.51453400  0.51453400  0.82601700  1
  O  O3  1  0.73270400  0.73270400  0.08156800  1
  O  O4  1  0.26729600  0.26729600  0.91843200  1
  O  O5  1  0.32984400  0.32984400  0.46810200  1
  O  O6  1  0.98982400  0.98982400  0.66928100  1
  O  O7  1  0.26483600  0.26483600  0.56993400  1
  O  O8  1  0.48814300  0.48814300  0.17002000  1
  O  O9  1  0.67243100  0.67243100  0.53068400  1
loop_
_geom_bond_atom_site_label_1
_geom_bond_atom_site_label_2
_geom_bond_distance
_geom_bond_site_symmetry_2
La0 O9 2.703218 1_555
La0 Se17 3.006040 1_565
La0 Se17 3.006040 1_655
La0 Se5 3.094681 1_655
La0 Se5 3.094681 1_565
La0 Se15 3.123366 1_565
La0 Se15 3.123366 1_655
La0 Se14 3.212815 1_555
La1 O1 2.371603 1_655
La1 O1 2.371603 1_565
La1 O8 2.534980 1_555
La1 Se12 3.064120 1_555
La1 Se5 3.171181 1_655
La1 Se5 3.171181 1_565
La1 Se4 3.196584 1_565
La1 Se4 3.196584 1_655
La2 O6 2.375805 1_545
La2 O6 2.375805 1_455
La2 O2 2.543194 1_555
La2 Se16 3.068916 1_555
La2 Se13 3.175067 1_455
La2 Se13 3.175067 1_545
La2 Se10 3.199479 1_455
La2 Se10 3.199479 1_545
La3 Se14 2.927113 1_546
La3 Se14 2.927113 1_456
La3 Se5 3.013216 1_556
La3 Se1 3.020666 1_545
La3 Se1 3.020666 1_455
La3 Se11 3.047297 1_555
La3 Se4 3.178611 1_556
La4 O2 2.428748 1_545
La4 O2 2.428748 1_455
La4 O6 2.572860 1_445
La4 Se1 3.092021 1_545
La4 Se1 3.092021 1_455
La4 Se12 3.176425 1_455
La4 Se12 3.176425 1_545
La4 Se4 3.184998 1_556
La4 Se15 3.663234 1_555
La5 O7 2.444005 1_555
La5 O0 2.473786 1_545
La5 O0 2.473786 1_455
La5 O9 2.651884 1_455
La5 O9 2.651884 1_545
La5 Se17 3.172268 1_555
La5 Se11 3.257655 1_555
La5 Se2 3.380792 1_455
La5 Se2 3.380792 1_545
La6 O5 2.649092 1_555
La6 Se6 3.006040 1_455
La6 Se6 3.006040 1_545
La6 Se13 3.151007 1_455
La6 Se13 3.151007 1_545
La6 Se7 3.174338 1_545
La6 Se7 3.174338 1_455
La6 Se9 3.212815 1_555
La7 O8 2.430238 1_565
La7 O8 2.430238 1_655
La7 O1 2.566827 1_665
La7 Se0 3.162515 1_565
La7 Se0 3.162515 1_655
La7 Se10 3.170910 1_554
La7 Se16 3.179590 1_655
La7 Se16 3.179590 1_565
La7 Se7 3.677893 1_555
La8 O0 2.444005 1_555
La8 O7 2.473786 1_655
La8 O7 2.473786 1_565
La8 O5 2.719875 1_565
La8 O5 2.719875 1_655
La8 Se6 3.172268 1_555
La8 Se3 3.257655 1_555
La8 Se8 3.380792 1_655
La8 Se8 3.380792 1_565
La9 O3 2.427619 1_456
La9 O3 2.427619 1_546
La9 O4 2.504368 1_555
La9 Se2 3.245046 1_545
La9 Se2 3.245046 1_455
La9 Se14 3.245681 1_456
La9 Se14 3.245681 1_546
La9 Se17 3.304819 1_556
La9 Se11 3.511632 1_555
La10 O4 2.427619 1_564
La10 O4 2.427619 1_654
La10 O3 2.504368 1_555
La10 Se8 3.245046 1_565
La10 Se8 3.245046 1_655
La10 Se9 3.245681 1_654
La10 Se9 3.245681 1_564
La10 Se6 3.304819 1_554
La10 Se3 3.511632 1_555
La11 Se9 2.927113 1_564
La11 Se9 2.927113 1_654
La11 Se0 3.020666 1_655
La11 Se0 3.020666 1_565
La11 Se3 3.047297 1_555
La11 Se13 3.064583 1_554
La11 Se10 3.288712 1_554
Se0 Ti1 2.718149 1_555
Se1 Ti2 2.813396 1_555
Se2 Ti4 2.653809 1_565
Se2 Ti4 2.653809 1_655
Se3 Ti1 2.630134 1_565
Se3 Ti1 2.630134 1_655
Se4 Ti5 2.715245 1_454
Se4 Ti5 2.715245 1_544
Se6 Ti4 2.730864 1_565
Se6 Ti4 2.730864 1_655
Se7 Ti1 2.706333 1_565
Se7 Ti1 2.706333 1_655
Se8 Ti0 2.653809 1_455
Se8 Ti0 2.653809 1_545
Se10 Ti5 2.721851 1_565
Se10 Ti5 2.721851 1_655
Se11 Ti2 2.603641 1_455
Se11 Ti2 2.603641 1_545
Se12 Ti3 2.730675 1_565
Se12 Ti3 2.730675 1_655
Se15 Ti2 2.703864 1_455
Se15 Ti2 2.703864 1_545
Se16 Ti3 2.719296 1_565
Se16 Ti3 2.719296 1_655
Se17 Ti0 2.730864 1_455
Se17 Ti0 2.730864 1_545
O0 Ti0 1.956259 1_555
O1 Ti3 1.939204 1_555
O2 Ti5 1.960200 1_555
O3 Ti0 1.989115 1_555
O4 Ti4 1.989115 1_555
O5 Ti1 1.816602 1_555
O6 Ti3 1.926999 1_665
O7 Ti4 1.956259 1_555
O8 Ti5 1.948845 1_554
O9 Ti2 1.804646 1_555
