# generated using pymatgen
data_Sr6Nd4Mn3(RhO10)2
_symmetry_space_group_name_H-M   'P 1'
_cell_length_a   3.95014147
_cell_length_b   25.67009728
_cell_length_c   6.79527374
_cell_angle_alpha   56.14382414
_cell_angle_beta   105.62051507
_cell_angle_gamma   88.09420149
_symmetry_Int_Tables_number   1
_chemical_formula_structural   Sr6Nd4Mn3(RhO10)2
_chemical_formula_sum   'Sr6 Nd4 Mn3 Rh2 O20'
_cell_volume   536.41170309
_cell_formula_units_Z   1
loop_
 _symmetry_equiv_pos_site_id
 _symmetry_equiv_pos_as_xyz
  1  'x, y, z'
loop_
 _atom_site_type_symbol
 _atom_site_label
 _atom_site_symmetry_multiplicity
 _atom_site_fract_x
 _atom_site_fract_y
 _atom_site_fract_z
 _atom_site_occupancy
  Sr  Sr0  1  0.63092200  0.31756200  0.13344000  1
  Sr  Sr1  1  0.66524400  0.46656200  0.13157000  1
  Sr  Sr2  1  0.43749900  0.77517200  0.69375300  1
  Sr  Sr3  1  0.56167900  0.93106000  0.97409700  1
  Sr  Sr4  1  0.39430700  0.15298700  0.67783300  1
  Sr  Sr5  1  0.32905900  0.30497900  0.64560700  1
  Nd  Nd0  1  0.74762900  0.06902900  0.37556500  1
  Nd  Nd1  1  0.29779800  0.57076300  0.44967300  1
  Nd  Nd2  1  0.83891000  0.70143100  0.51288100  1
  Nd  Nd3  1  0.84064400  0.91102300  0.52149300  1
  Mn  Mn0  1  0.12780400  0.01408200  0.11503700  1
  Mn  Mn1  1  0.04723800  0.18819600  0.01450600  1
  Mn  Mn2  1  0.98755600  0.44975900  0.77805100  1
  Rh  Rh0  1  0.12592200  0.78708600  0.07691500  1
  Rh  Rh1  1  0.53951300  0.61485700  0.92384700  1
  O  O0  1  0.04736500  0.10261100  0.98338800  1
  O  O1  1  0.05436000  0.25537700  0.04777400  1
  O  O2  1  0.98575500  0.52281900  0.79456500  1
  O  O3  1  0.05246600  0.63499500  0.96529700  1
  O  O4  1  0.23316700  0.12226400  0.37414400  1
  O  O5  1  0.13640800  0.37580900  0.16562100  1
  O  O6  1  0.73458700  0.37847100  0.55555600  1
  O  O7  1  0.34506500  0.65412500  0.51267300  1
  O  O8  1  0.31212000  0.98567300  0.48491600  1
  O  O9  1  0.64054800  0.01334800  0.13985500  1
  O  O10  1  0.54647100  0.17968400  0.00742500  1
  O  O11  1  0.47436900  0.45711500  0.75417900  1
  O  O12  1  0.73230000  0.55342700  0.30418300  1
  O  O13  1  0.04936300  0.87870400  0.92491500  1
  O  O14  1  0.97781500  0.01888600  0.81370700  1
  O  O15  1  0.85303500  0.23895100  0.62468900  1
  O  O16  1  0.04555700  0.39618500  0.65660700  1
  O  O17  1  0.62610500  0.76943300  0.06552000  1
  O  O18  1  0.83370300  0.79548500  0.47756100  1
  O  O19  1  0.24771700  0.91208600  0.32315600  1
loop_
_geom_bond_atom_site_label_1
_geom_bond_atom_site_label_2
_geom_bond_distance
_geom_bond_site_symmetry_2
Nd0 O14 2.354170 1_555
Nd0 O4 2.390743 1_655
Nd0 O4 2.405700 1_555
Nd0 O10 2.412447 1_555
Nd0 O9 2.648329 1_555
Nd0 O8 2.668626 1_645
Nd0 O8 2.692930 1_545
Nd0 O0 2.907633 1_654
Nd0 O0 2.967905 1_554
Nd1 O12 2.339768 1_555
Nd1 O12 2.352092 1_455
Nd1 O11 2.374948 1_555
Nd1 O7 2.408655 1_555
Nd1 O3 2.573041 1_554
Nd1 O2 2.639967 1_455
Nd1 O2 2.743383 1_555
Nd2 O18 2.288147 1_555
Nd2 O7 2.305239 1_655
Nd2 O7 2.331972 1_555
Nd2 O17 2.368247 1_555
Nd2 O3 2.395250 1_655
Nd3 O13 2.255294 1_655
Nd3 O9 2.327602 1_565
Nd3 O19 2.351993 1_655
Nd3 O19 2.357469 1_555
Nd3 O8 2.648833 1_555
Nd3 O8 2.675513 1_655
Mn0 O0 1.897212 1_554
Mn0 O14 1.902484 1_454
Mn0 O9 1.976628 1_455
Mn0 O9 1.985210 1_555
Mn0 O8 2.077530 1_545
Mn0 O19 2.123830 1_545
Mn1 O1 1.860144 1_555
Mn1 O4 1.928316 1_555
Mn1 O10 1.988001 1_455
Mn1 O10 1.993279 1_555
Mn1 O15 2.072802 1_454
Mn1 O0 2.321427 1_554
Mn2 O2 1.940109 1_555
Mn2 O11 1.979352 1_655
Mn2 O11 1.983601 1_555
Mn2 O16 1.992548 1_655
Mn2 O5 2.099213 1_656
Mn2 O12 2.644320 1_555
Rh1 Sr1 3.200005 1_556
O0 Sr4 2.553463 1_555
O0 Sr4 2.557347 1_455
O1 Sr0 2.658364 1_455
O1 Sr5 2.842324 1_554
O1 Sr0 2.938921 1_555
O1 Sr5 2.993630 1_454
O2 Sr1 2.632650 1_556
O2 Sr1 2.698379 1_656
O3 Rh1 2.092070 1_455
O3 Rh1 2.106154 1_555
O4 Sr4 2.534802 1_555
O5 Sr5 2.546931 1_555
O5 Sr0 2.549378 1_555
O5 Sr0 2.568693 1_455
O5 Sr1 2.797100 1_455
O5 Sr1 3.134957 1_555
O6 Sr1 2.400808 1_555
O6 Sr5 2.437659 1_555
O6 Sr5 2.663270 1_655
O7 Rh1 2.251082 1_555
O8 Sr3 2.633985 1_555
O9 Sr3 2.886796 1_544
O9 Sr4 3.039103 1_554
O10 Sr4 2.619098 1_554
O10 Sr5 2.644885 1_554
O11 Sr1 2.620619 1_556
O11 Sr0 2.926595 1_556
O12 Rh1 2.016272 1_554
O12 Sr1 3.033864 1_555
O13 Rh0 1.940955 1_556
O13 Sr3 2.510789 1_455
O13 Sr3 2.516064 1_555
O14 Sr3 2.674420 1_645
O14 Sr3 2.728771 1_545
O15 Sr5 2.601018 1_655
O15 Sr0 2.604726 1_555
O15 Sr5 2.714880 1_555
O15 Sr4 2.820262 1_655
O15 Sr4 2.830881 1_555
O16 O6 1.455337 1_455
O16 Sr5 2.609007 1_555
O16 Sr1 2.828601 1_455
O16 Sr0 2.878752 1_556
O17 Rh0 2.031174 1_655
O17 Rh0 2.043781 1_555
O17 Sr2 2.350146 1_554
O18 Sr2 2.301199 1_655
O18 Sr2 2.306179 1_555
O18 Sr3 3.078336 1_554
O19 Sr3 2.781829 1_554
O19 Sr2 2.864009 1_555
O19 Sr3 2.893193 1_454
