# generated using pymatgen
data_SrCa3Mn4O10
_symmetry_space_group_name_H-M   'P 1'
_cell_length_a   8.01603586
_cell_length_b   7.73004168
_cell_length_c   7.74511966
_cell_angle_alpha   88.86785322
_cell_angle_beta   87.83429729
_cell_angle_gamma   90.75320070
_symmetry_Int_Tables_number   1
_chemical_formula_structural   SrCa3Mn4O10
_chemical_formula_sum   'Sr2 Ca6 Mn8 O20'
_cell_volume   479.43807541
_cell_formula_units_Z   2
loop_
 _symmetry_equiv_pos_site_id
 _symmetry_equiv_pos_as_xyz
  1  'x, y, z'
loop_
 _atom_site_type_symbol
 _atom_site_label
 _atom_site_symmetry_multiplicity
 _atom_site_fract_x
 _atom_site_fract_y
 _atom_site_fract_z
 _atom_site_occupancy
  Sr  Sr0  1  0.24830600  0.23511800  0.24565000  1
  Sr  Sr1  1  0.75894500  0.26126600  0.27461300  1
  Ca  Ca0  1  0.26925700  0.29429300  0.71609100  1
  Ca  Ca1  1  0.26151800  0.71533200  0.25006200  1
  Ca  Ca2  1  0.26087600  0.75385100  0.69162800  1
  Ca  Ca3  1  0.73267800  0.24181600  0.74670900  1
  Ca  Ca4  1  0.74335600  0.74247000  0.28313200  1
  Ca  Ca5  1  0.71732300  0.72863500  0.74825300  1
  Mn  Mn0  1  0.02675500  0.99901300  0.96713200  1
  Mn  Mn1  1  0.99821400  0.00256800  0.52533100  1
  Mn  Mn2  1  0.00431600  0.48761100  0.99521400  1
  Mn  Mn3  1  0.00342600  0.51274600  0.49717000  1
  Mn  Mn4  1  0.48664000  0.98947400  0.00403800  1
  Mn  Mn5  1  0.50719200  0.00413600  0.49773400  1
  Mn  Mn6  1  0.50216200  0.49857800  0.98669100  1
  Mn  Mn7  1  0.50366400  0.50702900  0.50483700  1
  O  O0  1  0.89484400  0.96073200  0.78422800  1
  O  O1  1  0.96506600  0.53382000  0.23610400  1
  O  O2  1  0.05464400  0.52659900  0.74964900  1
  O  O3  1  0.50833300  0.05272400  0.24741500  1
  O  O4  1  0.52585300  0.95487200  0.75279200  1
  O  O5  1  0.46104100  0.54761900  0.74543300  1
  O  O6  1  0.22606000  0.94611500  0.06143000  1
  O  O7  1  0.23528500  0.03688500  0.56344300  1
  O  O8  1  0.25675500  0.50035100  0.04285600  1
  O  O9  1  0.27281500  0.47275100  0.45406700  1
  O  O10  1  0.77841200  0.97974300  0.43888800  1
  O  O11  1  0.75385400  0.48618200  0.95543900  1
  O  O12  1  0.73915600  0.53899000  0.50955900  1
  O  O13  1  0.99096800  0.22104500  0.03794500  1
  O  O14  1  0.97000800  0.25834900  0.51628000  1
  O  O15  1  0.05223900  0.76276600  0.47183600  1
  O  O16  1  0.48936600  0.24506100  0.95752300  1
  O  O17  1  0.53284000  0.25960400  0.53209500  1
  O  O18  1  0.54140700  0.74059100  0.05834000  1
  O  O19  1  0.47642600  0.75126600  0.45039400  1
loop_
_geom_bond_atom_site_label_1
_geom_bond_atom_site_label_2
_geom_bond_distance
_geom_bond_site_symmetry_2
Ca0 O7 2.352486 1_555
Ca0 O9 2.430279 1_555
Ca0 O5 2.492901 1_555
Ca0 O2 2.513499 1_555
Ca0 O17 2.523780 1_555
Ca0 O16 2.644510 1_555
Ca0 O14 2.916570 1_455
Ca1 O6 2.310733 1_555
Ca1 O8 2.333865 1_555
Ca1 O19 2.378824 1_555
Ca1 O15 2.392154 1_555
Ca1 O9 2.432933 1_555
Ca1 O18 2.646139 1_555
Ca1 O1 2.750499 1_455
Ca2 O5 2.319725 1_555
Ca2 O7 2.399137 1_565
Ca2 O2 2.420140 1_555
Ca2 O15 2.431719 1_555
Ca2 O19 2.497027 1_555
Ca2 O4 2.677506 1_555
Ca3 O17 2.354988 1_555
Ca3 O16 2.496571 1_555
Ca3 O11 2.518628 1_555
Ca3 O14 2.559056 1_555
Ca3 O0 2.563812 1_545
Ca3 O4 2.750293 1_545
Ca4 O10 2.235572 1_555
Ca4 O12 2.331479 1_555
Ca4 O18 2.421868 1_555
Ca4 O1 2.437672 1_555
Ca4 O19 2.461516 1_555
Ca5 O0 2.303057 1_555
Ca5 O4 2.341845 1_555
Ca5 O12 2.384703 1_555
Ca5 O11 2.470702 1_555
Ca5 O5 2.471407 1_555
Ca5 O18 2.742493 1_556
Mn0 O0 1.825928 1_455
Mn0 O6 1.829376 1_556
Mn0 O13 1.834964 1_466
Mn1 O10 1.915584 1_545
Mn1 O7 1.949652 1_655
Mn1 O15 1.957865 1_645
Mn1 O14 1.993194 1_555
Mn1 O0 2.157249 1_545
Mn2 O1 1.921568 1_456
Mn2 O2 1.946043 1_555
Mn2 O11 2.042604 1_455
Mn2 O8 2.072023 1_556
Mn2 O13 2.081224 1_456
Mn3 O15 1.971327 1_555
Mn3 O14 1.983038 1_455
Mn3 O2 2.017853 1_555
Mn3 O1 2.060295 1_455
Mn3 O12 2.129478 1_455
Mn3 O9 2.199391 1_555
Mn4 O3 1.970129 1_565
Mn4 O4 1.983316 1_554
Mn4 O16 2.000948 1_564
Mn4 O18 2.018688 1_555
Mn4 O6 2.139771 1_555
Mn5 O3 1.967155 1_555
Mn5 O17 2.006757 1_555
Mn5 O19 2.009620 1_545
Mn5 O4 2.015917 1_545
Mn5 O10 2.215697 1_545
Mn5 O7 2.238208 1_555
Mn6 O5 1.940559 1_555
Mn6 O16 1.978871 1_555
Mn6 O18 1.986314 1_556
Mn6 O8 1.998881 1_556
Mn6 O11 2.026686 1_555
Mn7 O12 1.902406 1_555
Mn7 O5 1.914527 1_555
Mn7 O9 1.922337 1_555
Mn7 O17 1.938263 1_555
Mn7 O19 1.943248 1_555
O1 Sr1 2.665370 1_555
O3 Sr0 2.532067 1_555
O3 Sr1 2.576634 1_555
O6 Sr0 2.681990 1_565
O7 Sr0 2.871331 1_555
O8 Sr0 2.556600 1_555
O9 Sr0 2.479958 1_555
O10 Sr1 2.508679 1_565
O11 Sr1 2.995842 1_556
O12 Sr1 2.843722 1_555
O13 Sr1 2.587651 1_555
O13 Sr0 2.665866 1_655
O14 Sr1 2.570036 1_555
O14 Sr0 3.012374 1_655
O16 Sr0 2.895378 1_556
O17 Sr1 2.643358 1_555
