# generated using pymatgen
data_Mg6BW
_symmetry_space_group_name_H-M   'P 1'
_cell_length_a   4.79565200
_cell_length_b   5.51279300
_cell_length_c   10.76737300
_cell_angle_alpha   90.00000000
_cell_angle_beta   90.00000000
_cell_angle_gamma   90.00000000
_symmetry_Int_Tables_number   1
_chemical_formula_structural   Mg6BW
_chemical_formula_sum   'Mg12 B2 W2'
_cell_volume   284.66174293
_cell_formula_units_Z   2
loop_
 _symmetry_equiv_pos_site_id
 _symmetry_equiv_pos_as_xyz
  1  'x, y, z'
loop_
 _atom_site_type_symbol
 _atom_site_label
 _atom_site_symmetry_multiplicity
 _atom_site_fract_x
 _atom_site_fract_y
 _atom_site_fract_z
 _atom_site_occupancy
  Mg  Mg0  1  0.50000000  0.24931100  0.42786800  1
  Mg  Mg1  1  0.50000000  0.75068900  0.42786800  1
  Mg  Mg2  1  0.00000000  0.75586700  0.08081100  1
  Mg  Mg3  1  0.00000000  0.24413300  0.08081100  1
  Mg  Mg4  1  0.00000000  0.00000000  0.32374700  1
  Mg  Mg5  1  0.00000000  0.50000000  0.31057200  1
  Mg  Mg6  1  0.50000000  0.74931100  0.92786800  1
  Mg  Mg7  1  0.50000000  0.25068900  0.92786800  1
  Mg  Mg8  1  0.00000000  0.25586700  0.58081100  1
  Mg  Mg9  1  0.00000000  0.74413300  0.58081100  1
  Mg  Mg10  1  0.00000000  0.50000000  0.82374700  1
  Mg  Mg11  1  0.00000000  0.00000000  0.81057200  1
  B  B0  1  0.50000000  0.50000000  0.16794500  1
  B  B1  1  0.50000000  0.00000000  0.66794500  1
  W  W0  1  0.50000000  0.00000000  0.18037500  1
  W  W1  1  0.50000000  0.50000000  0.68037500  1
loop_
_geom_bond_atom_site_label_1
_geom_bond_atom_site_label_2
_geom_bond_distance
_geom_bond_site_symmetry_2
Mg0 Mg1 2.748800 1_545
Mg0 Mg1 2.763993 1_555
Mg0 Mg8 2.909090 1_655
Mg0 Mg8 2.909090 1_555
Mg0 Mg4 2.982521 1_555
Mg0 Mg4 2.982521 1_655
Mg0 W0 2.998399 1_555
Mg0 Mg5 3.042134 1_555
Mg0 Mg5 3.042134 1_655
Mg0 W1 3.049916 1_555
Mg1 Mg9 2.909090 1_555
Mg1 Mg9 2.909090 1_655
Mg1 Mg4 2.982521 1_565
Mg1 Mg4 2.982521 1_665
Mg1 W0 2.998399 1_565
Mg1 Mg5 3.042134 1_555
Mg1 Mg5 3.042134 1_655
Mg1 W1 3.049916 1_555
Mg2 Mg3 2.691709 1_565
Mg2 Mg3 2.821084 1_555
Mg2 Mg5 2.847792 1_555
Mg2 Mg6 2.909090 1_454
Mg2 Mg6 2.909090 1_554
Mg2 Mg4 2.941708 1_565
Mg2 W0 2.951300 1_565
Mg2 W0 2.951300 1_465
Mg3 Mg5 2.847792 1_555
Mg3 Mg7 2.909090 1_554
Mg3 Mg7 2.909090 1_454
Mg3 Mg4 2.941708 1_555
Mg3 W0 2.951300 1_455
Mg3 W0 2.951300 1_555
Mg4 W0 2.851789 1_455
Mg4 W0 2.851789 1_555
Mg4 Mg9 3.106593 1_545
Mg4 Mg8 3.106593 1_555
Mg5 Mg8 3.205940 1_555
Mg5 Mg9 3.205940 1_555
Mg6 Mg7 2.748800 1_555
Mg6 Mg7 2.763993 1_565
Mg6 W1 2.998399 1_555
Mg6 W0 3.049916 1_566
Mg7 W1 2.998399 1_555
Mg7 W0 3.049916 1_556
Mg8 Mg9 2.691709 1_555
Mg8 Mg9 2.821084 1_545
Mg8 W1 2.951300 1_555
Mg8 W1 2.951300 1_455
Mg9 W1 2.951300 1_555
Mg9 W1 2.951300 1_455
Mg10 W1 2.851789 1_555
Mg10 W1 2.851789 1_455
Mg10 Mg8 2.941708 1_555
Mg10 Mg9 2.941708 1_555
Mg10 Mg7 2.982521 1_455
Mg10 Mg7 2.982521 1_555
Mg10 Mg6 2.982521 1_455
Mg10 Mg6 2.982521 1_555
Mg10 Mg2 3.106593 1_556
Mg10 Mg3 3.106593 1_556
Mg11 Mg9 2.847792 1_545
Mg11 Mg8 2.847792 1_555
Mg11 Mg7 3.042134 1_555
Mg11 Mg6 3.042134 1_445
Mg11 Mg7 3.042134 1_455
Mg11 Mg6 3.042134 1_545
Mg11 Mg3 3.205940 1_556
Mg11 Mg2 3.205940 1_546
B0 W0 2.759644 1_565
B0 W0 2.759644 1_555
B0 Mg5 2.847455 1_555
B0 Mg5 2.847455 1_655
B0 Mg6 2.927660 1_554
B0 Mg7 2.927660 1_554
B0 Mg2 2.935886 1_555
B0 Mg2 2.935886 1_655
B0 Mg3 2.935886 1_555
B0 Mg3 2.935886 1_655
B1 W1 2.759644 1_545
B1 W1 2.759644 1_555
B1 Mg11 2.847455 1_555
B1 Mg11 2.847455 1_655
B1 Mg0 2.927660 1_555
B1 Mg1 2.927660 1_545
B1 Mg8 2.935886 1_555
B1 Mg9 2.935886 1_645
B1 Mg8 2.935886 1_655
B1 Mg9 2.935886 1_545
