# generated using pymatgen
data_Mg7Zr
_symmetry_space_group_name_H-M   'P 1'
_cell_length_a   6.43181596
_cell_length_b   6.43181596
_cell_length_c   5.06345500
_cell_angle_alpha   90.00000000
_cell_angle_beta   90.00000000
_cell_angle_gamma   119.99999957
_symmetry_Int_Tables_number   1
_chemical_formula_structural   Mg7Zr
_chemical_formula_sum   'Mg7 Zr1'
_cell_volume   181.40314242
_cell_formula_units_Z   1
loop_
 _symmetry_equiv_pos_site_id
 _symmetry_equiv_pos_as_xyz
  1  'x, y, z'
loop_
 _atom_site_type_symbol
 _atom_site_label
 _atom_site_symmetry_multiplicity
 _atom_site_fract_x
 _atom_site_fract_y
 _atom_site_fract_z
 _atom_site_occupancy
  Mg  Mg0  1  0.83218000  0.66436000  0.50000000  1
  Mg  Mg1  1  0.33564000  0.16782000  0.50000000  1
  Mg  Mg2  1  0.83218000  0.16782000  0.50000000  1
  Mg  Mg3  1  0.49745700  0.50254300  0.00000000  1
  Mg  Mg4  1  0.00508500  0.50254300  0.00000000  1
  Mg  Mg5  1  0.49745700  0.99491500  0.00000000  1
  Mg  Mg6  1  0.00000000  0.00000000  0.00000000  1
  Zr  Zr0  1  0.33333300  0.66666700  0.50000000  1
loop_
_geom_bond_atom_site_label_1
_geom_bond_atom_site_label_2
_geom_bond_distance
_geom_bond_site_symmetry_2
Mg0 Mg4 3.144369 1_656
Mg0 Mg4 3.144369 1_655
Mg0 Mg3 3.144372 1_556
Mg0 Mg3 3.144372 1_555
Mg0 Mg6 3.147201 1_665
Mg0 Mg6 3.147201 1_666
Mg0 Mg2 3.193654 1_555
Mg0 Mg1 3.193654 1_555
Mg0 Zr0 3.215930 1_655
Mg0 Zr0 3.215937 1_555
Mg0 Mg2 3.238162 1_565
Mg0 Mg1 3.238162 1_665
Mg1 Mg5 3.144369 1_545
Mg1 Mg5 3.144369 1_546
Mg1 Mg3 3.144372 1_556
Mg1 Mg3 3.144372 1_555
Mg1 Mg6 3.147201 1_555
Mg1 Mg6 3.147201 1_556
Mg1 Mg2 3.193654 1_555
Mg1 Zr0 3.215930 1_545
Mg1 Zr0 3.215937 1_555
Mg1 Mg2 3.238162 1_455
Mg2 Mg4 3.144372 1_656
Mg2 Mg4 3.144372 1_655
Mg2 Mg5 3.144372 1_546
Mg2 Mg5 3.144372 1_545
Mg2 Mg6 3.147201 1_655
Mg2 Mg6 3.147201 1_656
Mg2 Zr0 3.215934 1_545
Mg2 Zr0 3.215934 1_655
Mg3 Zr0 3.122918 1_555
Mg3 Zr0 3.122918 1_554
Mg3 Mg4 3.166846 1_555
Mg3 Mg5 3.166846 1_555
Mg3 Mg6 3.216033 1_665
Mg3 Mg6 3.216033 1_555
Mg3 Mg5 3.264970 1_545
Mg3 Mg4 3.264970 1_655
Mg4 Zr0 3.122918 1_555
Mg4 Zr0 3.122918 1_554
Mg4 Mg5 3.166846 1_555
Mg4 Mg6 3.216029 1_565
Mg4 Mg6 3.216036 1_555
Mg4 Mg5 3.264970 1_445
Mg5 Zr0 3.122918 1_555
Mg5 Zr0 3.122918 1_554
Mg5 Mg6 3.216029 1_565
Mg5 Mg6 3.216036 1_665
