# generated using pymatgen
data_CsTh3F13
_symmetry_space_group_name_H-M   'P 1'
_cell_length_a   7.58946332
_cell_length_b   8.17387763
_cell_length_c   8.62346746
_cell_angle_alpha   90.00000000
_cell_angle_beta   90.00000000
_cell_angle_gamma   90.00000000
_symmetry_Int_Tables_number   1
_chemical_formula_structural   CsTh3F13
_chemical_formula_sum   'Cs2 Th6 F26'
_cell_volume   534.95977428
_cell_formula_units_Z   2
loop_
 _symmetry_equiv_pos_site_id
 _symmetry_equiv_pos_as_xyz
  1  'x, y, z'
loop_
 _atom_site_type_symbol
 _atom_site_label
 _atom_site_symmetry_multiplicity
 _atom_site_fract_x
 _atom_site_fract_y
 _atom_site_fract_z
 _atom_site_occupancy
  Cs  Cs0  1  0.60687795  0.00000000  0.70842016  1
  Cs  Cs1  1  0.39312205  0.00000000  0.20842016  1
  Th  Th0  1  0.39004982  0.50000000  0.91433754  1
  Th  Th1  1  0.60995018  0.50000000  0.41433754  1
  Th  Th2  1  0.10444644  0.75129211  0.57616725  1
  Th  Th3  1  0.10444644  0.24870789  0.57616725  1
  Th  Th4  1  0.89555356  0.24870789  0.07616725  1
  Th  Th5  1  0.89555356  0.75129211  0.07616725  1
  F  F0  1  0.94418686  0.00000000  0.56034785  1
  F  F1  1  0.05581314  0.00000000  0.06034785  1
  F  F2  1  0.13699926  0.50000000  0.73305871  1
  F  F3  1  0.86300074  0.50000000  0.23305871  1
  F  F4  1  0.32123116  0.75115794  0.77108741  1
  F  F5  1  0.32123116  0.24884206  0.77108741  1
  F  F6  1  0.67876884  0.24884206  0.27108741  1
  F  F7  1  0.67876884  0.75115794  0.27108741  1
  F  F8  1  0.04530379  0.80184670  0.31343846  1
  F  F9  1  0.04530379  0.19815330  0.31343846  1
  F  F10  1  0.95469621  0.19815330  0.81343846  1
  F  F11  1  0.95469621  0.80184670  0.81343846  1
  F  F12  1  0.10368095  0.50000000  0.44933540  1
  F  F13  1  0.89631905  0.50000000  0.94933540  1
  F  F14  1  0.26775971  0.00000000  0.54598517  1
  F  F15  1  0.73224029  0.00000000  0.04598517  1
  F  F16  1  0.81063364  0.67001872  0.54690202  1
  F  F17  1  0.81063364  0.32998128  0.54690202  1
  F  F18  1  0.18936636  0.32998128  0.04690202  1
  F  F19  1  0.18936636  0.67001872  0.04690202  1
  F  F20  1  0.61306916  0.30559036  0.95881739  1
  F  F21  1  0.61306916  0.69440964  0.95881739  1
  F  F22  1  0.38693084  0.69440964  0.45881739  1
  F  F23  1  0.38693084  0.30559036  0.45881739  1
  F  F24  1  0.46469427  0.50000000  0.17906110  1
  F  F25  1  0.53530573  0.50000000  0.67906110  1
loop_
_geom_bond_atom_site_label_1
_geom_bond_atom_site_label_2
_geom_bond_distance
_geom_bond_site_symmetry_2
Cs0 F0 2.860775 1_555
Cs0 F14 2.930217 1_555
Cs0 F4 3.021429 1_545
Cs0 F5 3.021429 1_555
Cs0 F15 3.062521 1_556
Cs0 F10 3.226735 1_555
Cs0 F11 3.226735 1_545
Cs0 F21 3.302128 1_545
Cs0 F20 3.302128 1_555
Cs0 F16 3.406816 1_545
Cs0 F17 3.406816 1_555
Cs1 F1 2.860775 1_555
Cs1 F15 2.930217 1_555
Cs1 F7 3.021429 1_545
Cs1 F6 3.021429 1_555
Cs1 F14 3.062521 1_555
Cs1 F9 3.226735 1_555
Cs1 F8 3.226735 1_545
Cs1 F22 3.302128 1_545
Cs1 F23 3.302128 1_555
Cs1 F19 3.406816 1_545
Cs1 F18 3.406816 1_555
F0 Th2 2.372904 1_645
F0 Th3 2.372904 1_655
F1 Th5 2.372904 1_445
F1 Th4 2.372904 1_455
F2 Th3 2.471953 1_555
F2 Th2 2.471953 1_555
F2 Th0 2.476317 1_555
F3 Th4 2.471953 1_555
F3 Th5 2.471953 1_555
F3 Th1 2.476317 1_555
F4 Th2 2.352091 1_555
F4 Th0 2.452209 1_555
F5 Th3 2.352091 1_555
F5 Th0 2.452209 1_555
F6 Th4 2.352091 1_555
F6 Th1 2.452209 1_555
F7 Th5 2.352091 1_555
F7 Th1 2.452209 1_555
F8 Th2 2.346343 1_555
F8 Th5 2.376756 1_455
F9 Th3 2.346343 1_555
F9 Th4 2.376756 1_455
F10 Th4 2.346343 1_556
F10 Th3 2.376756 1_655
F11 Th5 2.346343 1_556
F11 Th2 2.376756 1_655
F12 Th3 2.327085 1_555
F12 Th2 2.327085 1_555
F13 Th4 2.327085 1_556
F13 Th5 2.327085 1_556
F14 Th2 2.395145 1_545
F14 Th3 2.395145 1_555
F15 Th5 2.395145 1_545
F15 Th4 2.395145 1_555
F16 Th2 2.340380 1_655
F16 Th1 2.357520 1_555
F17 Th3 2.340380 1_655
F17 Th1 2.357520 1_555
F18 Th4 2.340380 1_455
F18 Th0 2.357520 1_554
F19 Th5 2.340380 1_455
F19 Th0 2.357520 1_554
F20 Th0 2.353123 1_555
F20 Th4 2.415901 1_556
F21 Th0 2.353123 1_555
F21 Th5 2.415901 1_556
F22 Th1 2.353123 1_555
F22 Th2 2.415901 1_555
F23 Th1 2.353123 1_555
F23 Th3 2.415901 1_555
F24 Th1 2.309058 1_555
F24 Th0 2.352078 1_554
F25 Th0 2.309058 1_555
F25 Th1 2.352078 1_555
