# generated using pymatgen
data_Pr2MgPd2
_symmetry_space_group_name_H-M   'P 1'
_cell_length_a   7.76133561
_cell_length_b   7.76133561
_cell_length_c   4.04337634
_cell_angle_alpha   90.00000000
_cell_angle_beta   90.00000000
_cell_angle_gamma   90.00000000
_symmetry_Int_Tables_number   1
_chemical_formula_structural   Pr2MgPd2
_chemical_formula_sum   'Pr4 Mg2 Pd4'
_cell_volume   243.56624011
_cell_formula_units_Z   2
loop_
 _symmetry_equiv_pos_site_id
 _symmetry_equiv_pos_as_xyz
  1  'x, y, z'
loop_
 _atom_site_type_symbol
 _atom_site_label
 _atom_site_symmetry_multiplicity
 _atom_site_fract_x
 _atom_site_fract_y
 _atom_site_fract_z
 _atom_site_occupancy
  Pr  Pr0  1  0.67243751  0.17243751  0.50000000  1
  Pr  Pr1  1  0.32756249  0.82756249  0.50000000  1
  Pr  Pr2  1  0.17243751  0.32756249  0.50000000  1
  Pr  Pr3  1  0.82756249  0.67243751  0.50000000  1
  Mg  Mg0  1  -0.00000000  -0.00000000  -0.00000000  1
  Mg  Mg1  1  0.50000000  0.50000000  -0.00000000  1
  Pd  Pd0  1  0.12914800  0.62914800  0.00000000  1
  Pd  Pd1  1  0.87085200  0.37085200  -0.00000000  1
  Pd  Pd2  1  0.62914800  0.87085200  -0.00000000  1
  Pd  Pd3  1  0.37085200  0.12914800  0.00000000  1
loop_
_geom_bond_atom_site_label_1
_geom_bond_atom_site_label_2
_geom_bond_distance
_geom_bond_site_symmetry_2
Mg0 Pd3 3.047848 1_555
Mg0 Pd1 3.047848 1_455
Mg0 Pd0 3.047848 1_545
Mg0 Pd2 3.047848 1_445
Mg0 Pr2 3.513089 1_555
Mg0 Pr0 3.513089 1_455
Mg0 Pr2 3.513089 1_554
Mg0 Pr1 3.513089 1_545
Mg0 Pr1 3.513089 1_544
Mg0 Pr0 3.513089 1_454
Mg0 Pr3 3.513089 1_444
Mg0 Pr3 3.513089 1_445
Mg1 Pd2 3.047848 1_555
Mg1 Pd1 3.047848 1_555
Mg1 Pd0 3.047848 1_555
Mg1 Pd3 3.047848 1_555
Mg1 Pr2 3.513089 1_555
Mg1 Pr3 3.513089 1_554
Mg1 Pr2 3.513089 1_554
Mg1 Pr1 3.513089 1_555
Mg1 Pr0 3.513089 1_554
Mg1 Pr3 3.513089 1_555
Mg1 Pr1 3.513089 1_554
Mg1 Pr0 3.513089 1_555
Pd0 Pd1 2.835105 1_455
Pd0 Pr1 2.971563 1_554
Pd0 Pr1 2.971563 1_555
Pd0 Pr3 3.111112 1_454
Pd0 Pr3 3.111112 1_455
Pd0 Pr2 3.111112 1_555
Pd0 Pr2 3.111112 1_554
Pd1 Pr0 2.971563 1_554
Pd1 Pr0 2.971563 1_555
Pd1 Pr2 3.111112 1_654
Pd1 Pr2 3.111112 1_655
Pd1 Pr3 3.111112 1_554
Pd1 Pr3 3.111112 1_555
Pd2 Pd3 2.835105 1_565
Pd2 Pr3 2.971563 1_555
Pd2 Pr3 2.971563 1_554
Pd2 Pr1 3.111112 1_555
Pd2 Pr1 3.111112 1_554
Pd2 Pr0 3.111112 1_564
Pd2 Pr0 3.111112 1_565
Pd3 Pr2 2.971563 1_554
Pd3 Pr2 2.971563 1_555
Pd3 Pr1 3.111112 1_545
Pd3 Pr1 3.111112 1_544
Pd3 Pr0 3.111112 1_555
Pd3 Pr0 3.111112 1_554
