# generated using pymatgen
data_Ho2Nb2S7O30
_symmetry_space_group_name_H-M   'P 1'
_cell_length_a   12.80932800
_cell_length_b   12.80932800
_cell_length_c   7.12230700
_cell_angle_alpha   90.00000000
_cell_angle_beta   90.00000000
_cell_angle_gamma   90.00000000
_symmetry_Int_Tables_number   1
_chemical_formula_structural   Ho2Nb2S7O30
_chemical_formula_sum   'Ho4 Nb4 S14 O60'
_cell_volume   1168.62018272
_cell_formula_units_Z   2
loop_
 _symmetry_equiv_pos_site_id
 _symmetry_equiv_pos_as_xyz
  1  'x, y, z'
loop_
 _atom_site_type_symbol
 _atom_site_label
 _atom_site_symmetry_multiplicity
 _atom_site_fract_x
 _atom_site_fract_y
 _atom_site_fract_z
 _atom_site_occupancy
  Ho  Ho0  1  0.19863500  0.30136500  0.40792800  1
  Ho  Ho1  1  0.30136500  0.80136500  0.59207200  1
  Ho  Ho2  1  0.80136500  0.69863500  0.40792800  1
  Ho  Ho3  1  0.69863500  0.19863500  0.59207200  1
  Nb  Nb0  1  0.36086600  0.13913400  0.01966200  1
  Nb  Nb1  1  0.13913400  0.63913400  0.98033800  1
  Nb  Nb2  1  0.63913400  0.86086600  0.01966200  1
  Nb  Nb3  1  0.86086600  0.36086600  0.98033800  1
  S  S0  1  0.50000000  0.00000000  0.65322300  1
  S  S1  1  0.00000000  0.50000000  0.34677700  1
  S  S2  1  0.62381000  0.12381000  0.10654200  1
  S  S3  1  0.87619000  0.62381000  0.89345800  1
  S  S4  1  0.37619000  0.87619000  0.10654200  1
  S  S5  1  0.12381000  0.37619000  0.89345800  1
  S  S6  1  0.43572900  0.32289000  0.69864900  1
  S  S7  1  0.06427100  0.82289000  0.30135100  1
  S  S8  1  0.56427100  0.67711000  0.69864900  1
  S  S9  1  0.93572900  0.17711000  0.30135100  1
  S  S10  1  0.32289000  0.56427100  0.30135100  1
  S  S11  1  0.17711000  0.06427100  0.69864900  1
  S  S12  1  0.67711000  0.43572900  0.30135100  1
  S  S13  1  0.82289000  0.93572900  0.69864900  1
  O  O0  1  0.29700900  0.20299100  0.20946200  1
  O  O1  1  0.20299100  0.70299100  0.79053800  1
  O  O2  1  0.70299100  0.79700900  0.20946200  1
  O  O3  1  0.79700900  0.29700900  0.79053800  1
  O  O4  1  0.43218600  0.93218600  0.53906600  1
  O  O5  1  0.06781400  0.43218600  0.46093400  1
  O  O6  1  0.56781400  0.06781400  0.53906600  1
  O  O7  1  0.93218600  0.56781400  0.46093400  1
  O  O8  1  0.43342100  0.06657900  0.77562300  1
  O  O9  1  0.06657900  0.56657900  0.22437700  1
  O  O10  1  0.56657900  0.93342100  0.77562300  1
  O  O11  1  0.93342100  0.43342100  0.22437700  1
  O  O12  1  0.65638600  0.15638600  0.92053400  1
  O  O13  1  0.84361400  0.65638600  0.07946600  1
  O  O14  1  0.34361400  0.84361400  0.92053400  1
  O  O15  1  0.15638600  0.34361400  0.07946600  1
  O  O16  1  0.67698500  0.17698500  0.26093500  1
  O  O17  1  0.82301500  0.67698500  0.73906500  1
  O  O18  1  0.32301500  0.82301500  0.26093500  1
  O  O19  1  0.17698500  0.32301500  0.73906500  1
  O  O20  1  0.50842400  0.14250100  0.13160300  1
  O  O21  1  0.99157600  0.64250100  0.86839700  1
  O  O22  1  0.49157600  0.85749900  0.13160300  1
  O  O23  1  0.00842400  0.35749900  0.86839700  1
  O  O24  1  0.14250100  0.49157600  0.86839700  1
  O  O25  1  0.35749900  0.99157600  0.13160300  1
  O  O26  1  0.85749900  0.50842400  0.86839700  1
  O  O27  1  0.64250100  0.00842400  0.13160300  1
  O  O28  1  0.36804800  0.28784800  0.54424200  1
  O  O29  1  0.13195200  0.78784800  0.45575800  1
  O  O30  1  0.63195200  0.71215200  0.54424200  1
  O  O31  1  0.86804800  0.21215200  0.45575800  1
  O  O32  1  0.28784800  0.63195200  0.45575800  1
  O  O33  1  0.21215200  0.13195200  0.54424200  1
  O  O34  1  0.71215200  0.36804800  0.45575800  1
  O  O35  1  0.78784800  0.86804800  0.54424200  1
  O  O36  1  0.54403300  0.28979900  0.67150200  1
  O  O37  1  0.95596700  0.78979900  0.32849800  1
  O  O38  1  0.45596700  0.71020100  0.67150200  1
  O  O39  1  0.04403300  0.21020100  0.32849800  1
  O  O40  1  0.28979900  0.45596700  0.32849800  1
  O  O41  1  0.21020100  0.95596700  0.67150200  1
  O  O42  1  0.71020100  0.54403300  0.32849800  1
  O  O43  1  0.78979900  0.04403300  0.67150200  1
  O  O44  1  0.42501400  0.43573600  0.72595500  1
  O  O45  1  0.07498600  0.93573600  0.27404500  1
  O  O46  1  0.57498600  0.56426400  0.72595500  1
  O  O47  1  0.92501400  0.06426400  0.27404500  1
  O  O48  1  0.43573600  0.57498600  0.27404500  1
  O  O49  1  0.06426400  0.07498600  0.72595500  1
  O  O50  1  0.56426400  0.42501400  0.27404500  1
  O  O51  1  0.93573600  0.92501400  0.72595500  1
  O  O52  1  0.39498400  0.27058600  0.87926100  1
  O  O53  1  0.10501600  0.77058600  0.12073900  1
  O  O54  1  0.60501600  0.72941400  0.87926100  1
  O  O55  1  0.89498400  0.22941400  0.12073900  1
  O  O56  1  0.27058600  0.60501600  0.12073900  1
  O  O57  1  0.22941400  0.10501600  0.87926100  1
  O  O58  1  0.72941400  0.39498400  0.12073900  1
  O  O59  1  0.77058600  0.89498400  0.87926100  1
loop_
_geom_bond_atom_site_label_1
_geom_bond_atom_site_label_2
_geom_bond_distance
_geom_bond_site_symmetry_2
Ho0 O0 2.274601 1_555
Ho0 O40 2.367585 1_555
Ho0 O39 2.367585 1_555
Ho0 O28 2.383644 1_555
Ho0 O33 2.383644 1_555
Ho0 O19 2.390846 1_555
Ho0 O5 2.399721 1_555
Ho0 O15 2.461418 1_555
Ho1 O1 2.274601 1_555
Ho1 O38 2.367585 1_555
Ho1 O41 2.367585 1_555
Ho1 O32 2.383644 1_555
Ho1 O29 2.383644 1_555
Ho1 O18 2.390846 1_555
Ho1 O4 2.399721 1_555
Ho1 O14 2.461418 1_555
Ho2 O2 2.274601 1_555
Ho2 O37 2.367585 1_555
Ho2 O42 2.367585 1_555
Ho2 O35 2.383644 1_555
Ho2 O30 2.383644 1_555
Ho2 O17 2.390846 1_555
Ho2 O7 2.399721 1_555
Ho2 O13 2.461418 1_555
Ho3 O3 2.274601 1_555
Ho3 O43 2.367585 1_555
Ho3 O36 2.367585 1_555
Ho3 O31 2.383644 1_555
Ho3 O34 2.383644 1_555
Ho3 O16 2.390846 1_555
Ho3 O6 2.399721 1_555
Ho3 O12 2.461418 1_555
Nb0 O0 1.779195 1_555
Nb0 O57 2.006533 1_554
Nb0 O52 2.006533 1_554
Nb0 O25 2.051843 1_545
Nb0 O20 2.051843 1_555
Nb0 O8 2.179119 1_554
Nb1 O1 1.779195 1_555
Nb1 O53 2.006533 1_556
Nb1 O56 2.006533 1_556
Nb1 O21 2.051843 1_455
Nb1 O24 2.051843 1_555
Nb1 O9 2.179119 1_556
Nb2 O2 1.779195 1_555
Nb2 O54 2.006533 1_554
Nb2 O59 2.006533 1_554
Nb2 O22 2.051843 1_555
Nb2 O27 2.051843 1_565
Nb2 O10 2.179119 1_554
Nb3 O3 1.779195 1_555
Nb3 O58 2.006533 1_556
Nb3 O55 2.006533 1_556
Nb3 O23 2.051843 1_655
Nb3 O26 2.051843 1_555
Nb3 O11 2.179119 1_556
O4 S0 1.473153 1_565
O5 S1 1.473153 1_555
O6 S0 1.473153 1_555
O7 S1 1.473153 1_655
O8 S0 1.488163 1_555
O9 S1 1.488163 1_555
O10 S0 1.488163 1_565
O11 S1 1.488163 1_655
O12 S2 1.450293 1_556
O13 S3 1.450293 1_554
O14 S4 1.450293 1_556
O15 S5 1.450293 1_554
O16 S2 1.461878 1_555
O17 S3 1.461878 1_555
O18 S4 1.461878 1_555
O19 S5 1.461878 1_555
O20 S2 1.507884 1_555
O21 S3 1.507884 1_555
O22 S4 1.507884 1_555
O23 S5 1.507884 1_555
O24 S5 1.507884 1_555
O25 S4 1.507884 1_555
O26 S3 1.507884 1_555
O27 S2 1.507884 1_555
O28 S6 1.470542 1_555
O29 S7 1.470542 1_555
O30 S8 1.470542 1_555
O31 S9 1.470542 1_555
O32 S10 1.470542 1_555
O33 S11 1.470542 1_555
O34 S12 1.470542 1_555
O35 S13 1.470542 1_555
O36 S6 1.463440 1_555
O37 S7 1.463440 1_655
O38 S8 1.463440 1_555
O39 S9 1.463440 1_455
O40 S10 1.463440 1_555
O41 S11 1.463440 1_565
O42 S12 1.463440 1_555
O43 S13 1.463440 1_545
O44 S6 1.464950 1_555
O45 S7 1.464950 1_555
O46 S8 1.464950 1_555
O47 S9 1.464950 1_555
O48 S10 1.464950 1_555
O49 S11 1.464950 1_555
O50 S12 1.464950 1_555
O51 S13 1.464950 1_555
O52 S6 1.541437 1_555
O53 S7 1.541437 1_555
O54 S8 1.541437 1_555
O55 S9 1.541437 1_555
O56 S10 1.541437 1_555
O57 S11 1.541437 1_555
O58 S12 1.541437 1_555
O59 S13 1.541437 1_555
