# generated using pymatgen
data_CeZr3O8
_symmetry_space_group_name_H-M   'P 1'
_cell_length_a   7.42353577
_cell_length_b   7.42353577
_cell_length_c   5.31916673
_cell_angle_alpha   89.35914099
_cell_angle_beta   89.35914099
_cell_angle_gamma   90.36399662
_symmetry_Int_Tables_number   1
_chemical_formula_structural   CeZr3O8
_chemical_formula_sum   'Ce2 Zr6 O16'
_cell_volume   293.09051589
_cell_formula_units_Z   2
loop_
 _symmetry_equiv_pos_site_id
 _symmetry_equiv_pos_as_xyz
  1  'x, y, z'
loop_
 _atom_site_type_symbol
 _atom_site_label
 _atom_site_symmetry_multiplicity
 _atom_site_fract_x
 _atom_site_fract_y
 _atom_site_fract_z
 _atom_site_occupancy
  Ce  Ce0  1  0.63032800  0.36967200  0.75000000  1
  Ce  Ce1  1  0.36967200  0.63032800  0.25000000  1
  Zr  Zr0  1  0.62191900  0.87565100  0.74814700  1
  Zr  Zr1  1  0.37808100  0.12434900  0.25185300  1
  Zr  Zr2  1  0.12434900  0.37808100  0.75185300  1
  Zr  Zr3  1  0.87565100  0.62191900  0.24814700  1
  Zr  Zr4  1  0.11851500  0.88148500  0.75000000  1
  Zr  Zr5  1  0.88148500  0.11851500  0.25000000  1
  O  O0  1  0.37789900  0.35664400  0.02538500  1
  O  O1  1  0.62210100  0.64335600  0.97461500  1
  O  O2  1  0.64335600  0.62210100  0.47461500  1
  O  O3  1  0.35664400  0.37789900  0.52538500  1
  O  O4  1  0.35501500  0.89519800  0.03106500  1
  O  O5  1  0.64498500  0.10480200  0.96893500  1
  O  O6  1  0.61759300  0.13156000  0.45205700  1
  O  O7  1  0.38240700  0.86844000  0.54794300  1
  O  O8  1  0.86844000  0.38240700  0.04794300  1
  O  O9  1  0.13156000  0.61759300  0.95205700  1
  O  O10  1  0.10480200  0.64498500  0.46893500  1
  O  O11  1  0.89519800  0.35501500  0.53106500  1
  O  O12  1  0.90159100  0.86560500  0.06016300  1
  O  O13  1  0.09840900  0.13439500  0.93983700  1
  O  O14  1  0.13439500  0.09840900  0.43983700  1
  O  O15  1  0.86560500  0.90159100  0.56016300  1
loop_
_geom_bond_atom_site_label_1
_geom_bond_atom_site_label_2
_geom_bond_distance
_geom_bond_site_symmetry_2
Ce0 O11 2.277844 1_555
Ce0 O5 2.277844 1_555
Ce0 O0 2.366375 1_556
Ce0 O2 2.366375 1_555
Ce0 O1 2.369231 1_555
Ce0 O3 2.369231 1_555
Ce0 O6 2.389346 1_555
Ce0 O8 2.389346 1_556
Ce1 O4 2.277844 1_555
Ce1 O10 2.277844 1_555
Ce1 O1 2.366375 1_554
Ce1 O3 2.366375 1_555
Ce1 O2 2.369231 1_555
Ce1 O0 2.369231 1_555
Ce1 O7 2.389346 1_555
Ce1 O9 2.389346 1_554
O0 Zr1 2.092472 1_555
O0 Zr2 2.396862 1_554
O1 Zr0 2.092472 1_555
O1 Zr3 2.396862 1_556
O2 Zr3 2.092472 1_555
O2 Zr0 2.396862 1_555
O3 Zr2 2.092472 1_555
O3 Zr1 2.396862 1_555
O4 Zr1 2.085143 1_565
O4 Zr4 2.321141 1_554
O4 Zr0 2.480608 1_554
O5 Zr0 2.085143 1_545
O5 Zr5 2.321141 1_556
O5 Zr1 2.480608 1_556
O6 Zr1 2.083438 1_555
O6 Zr5 2.227080 1_555
O6 Zr0 2.454695 1_545
O7 Zr0 2.083438 1_555
O7 Zr4 2.227080 1_555
O7 Zr1 2.454695 1_565
O8 Zr3 2.083438 1_555
O8 Zr5 2.227080 1_555
O8 Zr2 2.454695 1_654
O9 Zr2 2.083438 1_555
O9 Zr4 2.227080 1_555
O9 Zr3 2.454695 1_456
O10 Zr3 2.085143 1_455
O10 Zr4 2.321141 1_555
O10 Zr2 2.480608 1_555
O11 Zr2 2.085143 1_655
O11 Zr5 2.321141 1_555
O11 Zr3 2.480608 1_555
O12 Zr3 2.064036 1_555
O12 Zr5 2.146969 1_565
O12 Zr4 2.294074 1_654
O12 Zr0 2.673340 1_554
O13 Zr2 2.064036 1_555
O13 Zr4 2.146969 1_545
O13 Zr5 2.294074 1_456
O13 Zr1 2.673340 1_556
O14 Zr1 2.064036 1_555
O14 Zr5 2.146969 1_455
O14 Zr4 2.294074 1_545
O14 Zr2 2.673340 1_555
O15 Zr0 2.064036 1_555
O15 Zr4 2.146969 1_655
O15 Zr5 2.294074 1_565
O15 Zr3 2.673340 1_555
