# generated using pymatgen
data_Li3Co2O5
_symmetry_space_group_name_H-M   'P 1'
_cell_length_a   2.93711400
_cell_length_b   5.92957499
_cell_length_c   10.42214348
_cell_angle_alpha   97.16256544
_cell_angle_beta   97.04897776
_cell_angle_gamma   93.13324661
_symmetry_Int_Tables_number   1
_chemical_formula_structural   Li3Co2O5
_chemical_formula_sum   'Li6 Co4 O10'
_cell_volume   178.28104462
_cell_formula_units_Z   2
loop_
 _symmetry_equiv_pos_site_id
 _symmetry_equiv_pos_as_xyz
  1  'x, y, z'
loop_
 _atom_site_type_symbol
 _atom_site_label
 _atom_site_symmetry_multiplicity
 _atom_site_fract_x
 _atom_site_fract_y
 _atom_site_fract_z
 _atom_site_occupancy
  Li  Li0  1  0.90432600  0.20822900  0.80694500  1
  Li  Li1  1  0.50000000  0.00000000  0.00000000  1
  Li  Li2  1  0.30307800  0.40218000  0.60399800  1
  Li  Li3  1  0.69692200  0.59782000  0.39600200  1
  Li  Li4  1  0.09567400  0.79177100  0.19305500  1
  Li  Li5  1  0.50000000  0.50000000  0.00000000  1
  Co  Co0  1  0.90598200  0.69580700  0.81169000  1
  Co  Co1  1  0.09401800  0.30419300  0.18831000  1
  Co  Co2  1  0.69281400  0.09728500  0.39583300  1
  Co  Co3  1  0.30718600  0.90271500  0.60416700  1
  O  O0  1  0.37527400  0.93196800  0.79857800  1
  O  O1  1  0.99032800  0.74699300  0.98227700  1
  O  O2  1  0.79023800  0.13402200  0.59649400  1
  O  O3  1  0.18215900  0.33144200  0.38592600  1
  O  O4  1  0.57019800  0.53038700  0.20034400  1
  O  O5  1  0.42980200  0.46961300  0.79965600  1
  O  O6  1  0.00967200  0.25300700  0.01772300  1
  O  O7  1  0.81784100  0.66855800  0.61407400  1
  O  O8  1  0.20976200  0.86597800  0.40350600  1
  O  O9  1  0.62472600  0.06803200  0.20142200  1
loop_
_geom_bond_atom_site_label_1
_geom_bond_atom_site_label_2
_geom_bond_distance
_geom_bond_site_symmetry_2
Li0 O5 2.141640 1_655
Li0 O5 2.142417 1_555
Li0 O6 2.161187 1_656
Li0 O2 2.163218 1_555
Li0 O0 2.181384 1_545
Li0 O0 2.201365 1_645
Li1 O6 2.035492 1_655
Li1 O1 2.035492 1_444
Li1 O9 2.070677 1_555
Li1 O0 2.070677 1_544
Li1 O6 2.142706 1_555
Li1 O1 2.142706 1_544
Li2 O5 2.012653 1_555
Li2 O7 2.109593 1_555
Li2 O2 2.116960 1_455
Li2 O7 2.185981 1_455
Li2 O2 2.197020 1_555
Li2 O3 2.239523 1_555
Li3 O4 2.012653 1_555
Li3 O3 2.109593 1_555
Li3 O8 2.116960 1_655
Li3 O3 2.185981 1_655
Li3 O8 2.197020 1_555
Li3 O7 2.239523 1_555
Li4 O4 2.141640 1_455
Li4 O4 2.142417 1_555
Li4 O1 2.161187 1_454
Li4 O8 2.163218 1_555
Li4 O9 2.181384 1_565
Li4 O9 2.201365 1_465
Li5 O6 2.038449 1_555
Li5 O1 2.038449 1_554
Li5 O5 2.056997 1_554
Li5 O4 2.056997 1_555
Li5 O6 2.158525 1_655
Li5 O1 2.158525 1_454
Co0 O1 1.750279 1_555
Co0 O5 1.865649 1_555
Co0 O0 1.939704 1_655
Co0 O7 2.028937 1_555
Co0 O5 2.100635 1_655
Co0 O0 2.154847 1_555
Co1 O6 1.750279 1_555
Co1 O4 1.865649 1_555
Co1 O9 1.939704 1_455
Co1 O3 2.028937 1_555
Co1 O4 2.100635 1_455
Co1 O9 2.154847 1_555
Co2 O8 1.934673 1_545
Co2 O3 1.964231 1_655
Co2 O9 1.996146 1_555
Co2 O2 2.058069 1_555
Co2 O3 2.100810 1_555
Co2 O8 2.101926 1_645
Co3 O2 1.934673 1_565
Co3 O7 1.964231 1_455
Co3 O0 1.996146 1_555
Co3 O8 2.058069 1_555
Co3 O7 2.100810 1_555
Co3 O2 2.101926 1_465
