# generated using pymatgen
data_CdSe2
_symmetry_space_group_name_H-M   'P 1'
_cell_length_a   6.74691700
_cell_length_b   6.74691700
_cell_length_c   6.74691700
_cell_angle_alpha   90.00000000
_cell_angle_beta   90.00000000
_cell_angle_gamma   90.00000000
_symmetry_Int_Tables_number   1
_chemical_formula_structural   CdSe2
_chemical_formula_sum   'Cd4 Se8'
_cell_volume   307.12565988
_cell_formula_units_Z   4
loop_
 _symmetry_equiv_pos_site_id
 _symmetry_equiv_pos_as_xyz
  1  'x, y, z'
loop_
 _atom_site_type_symbol
 _atom_site_label
 _atom_site_symmetry_multiplicity
 _atom_site_fract_x
 _atom_site_fract_y
 _atom_site_fract_z
 _atom_site_occupancy
  Cd  Cd0  1  0.50000000  0.50000000  0.00000000  1
  Cd  Cd1  1  0.50000000  0.00000000  0.50000000  1
  Cd  Cd2  1  0.00000000  0.50000000  0.50000000  1
  Cd  Cd3  1  0.00000000  0.00000000  0.00000000  1
  Se  Se0  1  0.10252200  0.89747800  0.39747800  1
  Se  Se1  1  0.89747800  0.39747800  0.10252200  1
  Se  Se2  1  0.39747800  0.10252200  0.89747800  1
  Se  Se3  1  0.60252200  0.60252200  0.60252200  1
  Se  Se4  1  0.89747800  0.10252200  0.60252200  1
  Se  Se5  1  0.10252200  0.60252200  0.89747800  1
  Se  Se6  1  0.60252200  0.89747800  0.10252200  1
  Se  Se7  1  0.39747800  0.39747800  0.39747800  1
loop_
_geom_bond_atom_site_label_1
_geom_bond_atom_site_label_2
_geom_bond_distance
_geom_bond_site_symmetry_2
Cd0 Se2 2.854594 1_554
Cd0 Se6 2.854594 1_555
Cd0 Se5 2.854594 1_554
Cd0 Se1 2.854594 1_555
Cd0 Se7 2.854594 1_555
Cd0 Se3 2.854594 1_554
Cd1 Se2 2.854594 1_555
Cd1 Se6 2.854594 1_545
Cd1 Se3 2.854594 1_545
Cd1 Se0 2.854594 1_545
Cd1 Se7 2.854594 1_555
Cd1 Se4 2.854594 1_555
Cd2 Se1 2.854594 1_455
Cd2 Se0 2.854594 1_555
Cd2 Se4 2.854594 1_455
Cd2 Se5 2.854594 1_555
Cd2 Se7 2.854594 1_555
Cd2 Se3 2.854594 1_455
Cd3 Se6 2.854594 1_445
Cd3 Se1 2.854594 1_455
Cd3 Se2 2.854594 1_554
Cd3 Se4 2.854594 1_454
Cd3 Se0 2.854594 1_545
Cd3 Se5 2.854594 1_544
Se0 Se4 2.396145 1_465
Se1 Se5 2.396145 1_654
Se2 Se6 2.396145 1_546
Se3 Se7 2.396145 1_555
