# generated using pymatgen
data_AlPO4
_symmetry_space_group_name_H-M   'P 1'
_cell_length_a   8.85697800
_cell_length_b   8.88534665
_cell_length_c   12.90831338
_cell_angle_alpha   70.14644243
_cell_angle_beta   71.32906018
_cell_angle_gamma   74.91025103
_symmetry_Int_Tables_number   1
_chemical_formula_structural   AlPO4
_chemical_formula_sum   'Al8 P8 O32'
_cell_volume   891.98918883
_cell_formula_units_Z   8
loop_
 _symmetry_equiv_pos_site_id
 _symmetry_equiv_pos_as_xyz
  1  'x, y, z'
loop_
 _atom_site_type_symbol
 _atom_site_label
 _atom_site_symmetry_multiplicity
 _atom_site_fract_x
 _atom_site_fract_y
 _atom_site_fract_z
 _atom_site_occupancy
  Al  Al0  1  0.30212500  0.58285500  0.63083700  1
  Al  Al1  1  0.69787500  0.41714500  0.36916300  1
  Al  Al2  1  0.68094900  0.38543300  0.81453400  1
  Al  Al3  1  0.31905100  0.61456700  0.18546600  1
  Al  Al4  1  0.02180900  0.73739700  0.94167300  1
  Al  Al5  1  0.97819100  0.26260300  0.05832700  1
  Al  Al6  1  0.48646200  0.02681200  0.17586300  1
  Al  Al7  1  0.51353800  0.97318800  0.82413700  1
  P  P0  1  0.60353600  0.32658100  0.18734200  1
  P  P1  1  0.39646400  0.67341900  0.81265800  1
  P  P2  1  0.60078700  0.29133600  0.62837400  1
  P  P3  1  0.39921300  0.70866400  0.37162600  1
  P  P4  1  0.74049200  0.00753700  0.95596600  1
  P  P5  1  0.25950800  0.99246300  0.04403400  1
  P  P6  1  0.98137600  0.51345500  0.81933300  1
  P  P7  1  0.01862400  0.48654500  0.18066700  1
  O  O0  1  0.70383300  0.29401300  0.50688800  1
  O  O1  1  0.29616700  0.70598700  0.49311200  1
  O  O2  1  0.57195800  0.11705500  0.69408400  1
  O  O3  1  0.42804200  0.88294500  0.30591600  1
  O  O4  1  0.11380800  0.52723800  0.70730200  1
  O  O5  1  0.88619200  0.47276200  0.29269800  1
  O  O6  1  0.69269800  0.35127800  0.68579400  1
  O  O7  1  0.30730200  0.64872200  0.31420600  1
  O  O8  1  0.50227500  0.19865900  0.20622600  1
  O  O9  1  0.49772500  0.80134100  0.79377400  1
  O  O10  1  0.51058200  0.49814500  0.14181100  1
  O  O11  1  0.48941800  0.50185500  0.85818900  1
  O  O12  1  0.43574100  0.40088500  0.62427100  1
  O  O13  1  0.56425900  0.59911500  0.37572900  1
  O  O14  1  0.63511400  0.31093100  0.30162100  1
  O  O15  1  0.36488600  0.68906900  0.69837900  1
  O  O16  1  0.94892600  0.66848400  0.85701800  1
  O  O17  1  0.05107400  0.33151600  0.14298200  1
  O  O18  1  0.76581200  0.29875600  0.09955500  1
  O  O19  1  0.23418800  0.70124400  0.90044500  1
  O  O20  1  0.82736000  0.49551000  0.79803500  1
  O  O21  1  0.17264000  0.50449000  0.20196500  1
  O  O22  1  0.65841700  0.93412400  0.90023400  1
  O  O23  1  0.34158300  0.06587600  0.09976600  1
  O  O24  1  0.92342400  0.94045900  0.92752900  1
  O  O25  1  0.07657600  0.05954100  0.07247100  1
  O  O26  1  0.71189700  0.19413500  0.91181000  1
  O  O27  1  0.28810300  0.80586500  0.08819000  1
  O  O28  1  0.67133300  0.95832000  0.08668800  1
  O  O29  1  0.32866700  0.04168000  0.91331200  1
  O  O30  1  0.03639900  0.36565100  0.91278300  1
  O  O31  1  0.96360100  0.63434900  0.08721700  1
loop_
_geom_bond_atom_site_label_1
_geom_bond_atom_site_label_2
_geom_bond_distance
_geom_bond_site_symmetry_2
Al0 O4 1.744759 1_555
Al0 O12 1.747728 1_555
Al0 O1 1.751916 1_555
Al0 O15 1.761279 1_555
Al1 O5 1.744759 1_555
Al1 O13 1.747728 1_555
Al1 O0 1.751916 1_555
Al1 O14 1.761279 1_555
Al2 O20 1.739432 1_555
Al2 O26 1.751875 1_555
Al2 O6 1.754980 1_555
Al2 O11 1.770756 1_555
Al3 O21 1.739432 1_555
Al3 O27 1.751875 1_555
Al3 O7 1.754980 1_555
Al3 O10 1.770756 1_555
Al4 O19 1.756494 1_555
Al4 O31 1.758118 1_456
Al4 O16 1.760018 1_455
Al4 O24 1.762833 1_455
Al5 O18 1.756494 1_555
Al5 O30 1.758118 1_654
Al5 O17 1.760018 1_655
Al5 O25 1.762833 1_655
Al6 O3 1.746612 1_545
Al6 O8 1.748627 1_555
Al6 O23 1.753704 1_555
Al6 O28 1.768243 1_545
Al7 O2 1.746612 1_565
Al7 O9 1.748627 1_555
Al7 O22 1.753704 1_555
Al7 O29 1.768243 1_565
O0 P2 1.536985 1_555
O1 P3 1.536985 1_555
O2 P2 1.535476 1_555
O3 P3 1.535476 1_555
O4 P6 1.533152 1_455
O5 P7 1.533152 1_655
O6 P2 1.541403 1_555
O7 P3 1.541403 1_555
O8 P0 1.535682 1_555
O9 P1 1.535682 1_555
O10 P0 1.547531 1_555
O11 P1 1.547531 1_555
O12 P2 1.536510 1_555
O13 P3 1.536510 1_555
O14 P0 1.542143 1_555
O15 P1 1.542143 1_555
O16 P6 1.541492 1_555
O17 P7 1.541492 1_555
O18 P0 1.540607 1_555
O19 P1 1.540607 1_555
O20 P6 1.531325 1_555
O21 P7 1.531325 1_555
O22 P4 1.540112 1_565
O23 P5 1.540112 1_545
O24 P4 1.542764 1_565
O25 P5 1.542764 1_545
O26 P4 1.539431 1_555
O27 P5 1.539431 1_555
O28 P4 1.546040 1_564
O29 P5 1.546040 1_546
O30 P6 1.544170 1_455
O31 P7 1.544170 1_655
