# generated using pymatgen
data_Li4MnSn2Se7
_symmetry_space_group_name_H-M   'P 1'
_cell_length_a   9.90910904
_cell_length_b   9.90910904
_cell_length_c   10.87464375
_cell_angle_alpha   86.98816752
_cell_angle_beta   86.98816752
_cell_angle_gamma   43.53176266
_symmetry_Int_Tables_number   1
_chemical_formula_structural   Li4MnSn2Se7
_chemical_formula_sum   'Li8 Mn2 Sn4 Se14'
_cell_volume   734.26674633
_cell_formula_units_Z   2
loop_
 _symmetry_equiv_pos_site_id
 _symmetry_equiv_pos_as_xyz
  1  'x, y, z'
loop_
 _atom_site_type_symbol
 _atom_site_label
 _atom_site_symmetry_multiplicity
 _atom_site_fract_x
 _atom_site_fract_y
 _atom_site_fract_z
 _atom_site_occupancy
  Li  Li0  1  0.52732000  0.18142900  0.41236900  1
  Li  Li1  1  0.18142900  0.52732000  0.91236900  1
  Li  Li2  1  0.91584700  0.21696400  0.33559100  1
  Li  Li3  1  0.21696400  0.91584700  0.83559100  1
  Li  Li4  1  0.68205200  0.30952300  0.69767800  1
  Li  Li5  1  0.30952300  0.68205200  0.19767800  1
  Li  Li6  1  0.04104800  0.38390200  0.61493400  1
  Li  Li7  1  0.38390200  0.04104800  0.11493400  1
  Mn  Mn0  1  0.92976500  0.63557700  0.25902100  1
  Mn  Mn1  1  0.63557700  0.92976500  0.75902100  1
  Sn  Sn0  1  0.47173600  0.80987000  0.47014100  1
  Sn  Sn1  1  0.80987000  0.47173600  0.97014100  1
  Sn  Sn2  1  0.07942900  0.76759400  0.53828200  1
  Sn  Sn3  1  0.76759400  0.07942900  0.03828200  1
  Se  Se0  1  0.36876400  0.69072700  0.63553000  1
  Se  Se1  1  0.69072700  0.36876400  0.13553000  1
  Se  Se2  1  0.21879400  0.54960700  0.35001600  1
  Se  Se3  1  0.54960700  0.21879400  0.85001600  1
  Se  Se4  1  0.99753400  0.64492700  0.70883000  1
  Se  Se5  1  0.64492700  0.99753400  0.20883000  1
  Se  Se6  1  0.27365400  0.94052700  0.27839800  1
  Se  Se7  1  0.94052700  0.27365400  0.77839800  1
  Se  Se8  1  0.41617800  0.07490100  0.57330000  1
  Se  Se9  1  0.07490100  0.41617800  0.07330000  1
  Se  Se10  1  0.83633300  0.51421300  0.41651200  1
  Se  Se11  1  0.51421300  0.83633300  0.91651200  1
  Se  Se12  1  0.79503600  0.13125000  0.49772900  1
  Se  Se13  1  0.13125000  0.79503600  0.99772900  1
loop_
_geom_bond_atom_site_label_1
_geom_bond_atom_site_label_2
_geom_bond_distance
_geom_bond_site_symmetry_2
Li0 Se12 2.538512 1_555
Li0 Se5 2.579041 1_545
Li0 Se8 2.584364 1_555
Li0 Se2 2.627118 1_555
Li1 Se13 2.538512 1_555
Li1 Se4 2.579041 1_455
Li1 Se9 2.584364 1_556
Li1 Se3 2.627118 1_555
Li2 Se6 2.515167 1_645
Li2 Se12 2.521607 1_555
Li2 Se10 2.627816 1_555
Li2 Se1 2.696798 1_555
Li3 Se7 2.515167 1_465
Li3 Se13 2.521607 1_555
Li3 Se11 2.627816 1_555
Li3 Se0 2.696798 1_555
Li4 Se7 2.518012 1_555
Li4 Se12 2.526276 1_555
Li4 Se3 2.569237 1_555
Li4 Se0 2.704006 1_555
Li5 Se6 2.518012 1_555
Li5 Se13 2.526276 1_554
Li5 Se2 2.569237 1_555
Li5 Se1 2.704006 1_555
Li6 Se4 2.555932 1_455
Li6 Se7 2.556019 1_455
Li6 Se10 2.609104 1_455
Li6 Se8 2.619801 1_555
Li7 Se5 2.555932 1_545
Li7 Se6 2.556019 1_545
Li7 Se11 2.609104 1_544
Li7 Se9 2.619801 1_555
Mn0 Se5 2.531015 1_555
Mn0 Se10 2.543224 1_555
Mn0 Se9 2.548801 1_655
Mn0 Se2 2.564963 1_655
Mn1 Se4 2.531015 1_555
Mn1 Se11 2.543224 1_555
Mn1 Se8 2.548801 1_565
Mn1 Se3 2.564963 1_565
Se0 Sn2 2.643113 1_555
Se0 Sn0 2.645837 1_555
Se1 Sn3 2.643113 1_555
Se1 Sn1 2.645837 1_554
Se2 Sn2 2.570371 1_555
Se3 Sn3 2.570371 1_556
Se4 Sn2 2.571180 1_655
Se5 Sn3 2.571180 1_565
Se6 Sn0 2.517598 1_555
Se7 Sn1 2.517598 1_555
Se8 Sn0 2.570385 1_545
Se9 Sn1 2.570385 1_454
Se10 Sn0 2.566429 1_555
Se11 Sn1 2.566429 1_555
Se12 Sn2 2.521976 1_645
Se13 Sn3 2.521976 1_466
