# generated using pymatgen
data_Nd2USe5
_symmetry_space_group_name_H-M   'P 1'
_cell_length_a   7.88983227
_cell_length_b   8.47440353
_cell_length_c   12.43895917
_cell_angle_alpha   90.00000000
_cell_angle_beta   90.00000000
_cell_angle_gamma   90.00000000
_symmetry_Int_Tables_number   1
_chemical_formula_structural   Nd2USe5
_chemical_formula_sum   'Nd8 U4 Se20'
_cell_volume   831.68899157
_cell_formula_units_Z   4
loop_
 _symmetry_equiv_pos_site_id
 _symmetry_equiv_pos_as_xyz
  1  'x, y, z'
loop_
 _atom_site_type_symbol
 _atom_site_label
 _atom_site_symmetry_multiplicity
 _atom_site_fract_x
 _atom_site_fract_y
 _atom_site_fract_z
 _atom_site_occupancy
  Nd  Nd0  1  0.52203597  0.49873862  0.32200643  1
  Nd  Nd1  1  0.97796403  0.00126138  0.82200643  1
  Nd  Nd2  1  0.47796403  0.99873862  0.67799357  1
  Nd  Nd3  1  0.02203597  0.50126138  0.17799357  1
  Nd  Nd4  1  0.47796403  0.50126138  0.67799357  1
  Nd  Nd5  1  0.02203597  0.99873862  0.17799357  1
  Nd  Nd6  1  0.52203597  0.00126138  0.32200643  1
  Nd  Nd7  1  0.97796403  0.49873862  0.82200643  1
  U  U0  1  0.07392487  0.75000000  0.49057787  1
  U  U1  1  0.42607513  0.75000000  0.99057787  1
  U  U2  1  0.92607513  0.25000000  0.50942213  1
  U  U3  1  0.57392487  0.25000000  0.00942213  1
  Se  Se0  1  0.83664215  0.95767759  0.59625268  1
  Se  Se1  1  0.66335785  0.54232241  0.09625268  1
  Se  Se2  1  0.16335785  0.45767759  0.40374732  1
  Se  Se3  1  0.33664215  0.04232241  0.90374732  1
  Se  Se4  1  0.16335785  0.04232241  0.40374732  1
  Se  Se5  1  0.33664215  0.45767759  0.90374732  1
  Se  Se6  1  0.83664215  0.54232241  0.59625268  1
  Se  Se7  1  0.66335785  0.95767759  0.09625268  1
  Se  Se8  1  0.82940664  0.75000000  0.31545822  1
  Se  Se9  1  0.67059336  0.75000000  0.81545822  1
  Se  Se10  1  0.17059336  0.25000000  0.68454178  1
  Se  Se11  1  0.32940664  0.25000000  0.18454178  1
  Se  Se12  1  0.45726328  0.75000000  0.49959827  1
  Se  Se13  1  0.04273672  0.75000000  -0.00040173  1
  Se  Se14  1  0.54273672  0.25000000  0.50040173  1
  Se  Se15  1  0.95726328  0.25000000  0.00040173  1
  Se  Se16  1  0.19697993  0.75000000  0.71432182  1
  Se  Se17  1  0.30302007  0.75000000  0.21432182  1
  Se  Se18  1  0.80302007  0.25000000  0.28567818  1
  Se  Se19  1  0.69697993  0.25000000  0.78567818  1
loop_
_geom_bond_atom_site_label_1
_geom_bond_atom_site_label_2
_geom_bond_distance
_geom_bond_site_symmetry_2
Nd0 Se2 3.027094 1_555
Nd0 Se1 3.043898 1_555
Nd0 Se17 3.051897 1_555
Nd0 Se14 3.064989 1_555
Nd0 Se18 3.092283 1_555
Nd0 Se12 3.110463 1_555
Nd0 Se11 3.110778 1_555
Nd0 Se8 3.228256 1_555
Nd1 Se3 3.027094 1_655
Nd1 Se0 3.043898 1_545
Nd1 Se16 3.051897 1_645
Nd1 Se15 3.064989 1_556
Nd1 Se19 3.092283 1_555
Nd1 Se13 3.110463 1_646
Nd1 Se10 3.110778 1_655
Nd1 Se9 3.228256 1_545
Nd2 Se0 3.027094 1_555
Nd2 Se3 3.043898 1_565
Nd2 Se19 3.051897 1_565
Nd2 Se12 3.064989 1_555
Nd2 Se16 3.092283 1_555
Nd2 Se14 3.110463 1_565
Nd2 Se9 3.110778 1_555
Nd2 Se10 3.228256 1_565
Nd3 Se1 3.027094 1_455
Nd3 Se2 3.043898 1_555
Nd3 Se18 3.051897 1_455
Nd3 Se13 3.064989 1_555
Nd3 Se17 3.092283 1_555
Nd3 Se15 3.110463 1_455
Nd3 Se8 3.110778 1_455
Nd3 Se11 3.228256 1_555
Nd4 Se6 3.027094 1_555
Nd4 Se5 3.043898 1_555
Nd4 Se19 3.051897 1_555
Nd4 Se12 3.064989 1_555
Nd4 Se16 3.092283 1_555
Nd4 Se14 3.110463 1_555
Nd4 Se9 3.110778 1_555
Nd4 Se10 3.228256 1_555
Nd5 Se7 3.027094 1_455
Nd5 Se4 3.043898 1_565
Nd5 Se18 3.051897 1_465
Nd5 Se13 3.064989 1_555
Nd5 Se17 3.092283 1_555
Nd5 Se15 3.110463 1_465
Nd5 Se8 3.110778 1_455
Nd5 Se11 3.228256 1_565
Nd6 Se4 3.027094 1_555
Nd6 Se7 3.043898 1_545
Nd6 Se17 3.051897 1_545
Nd6 Se14 3.064989 1_555
Nd6 Se18 3.092283 1_555
Nd6 Se12 3.110463 1_545
Nd6 Se11 3.110778 1_555
Nd6 Se8 3.228256 1_545
Nd7 Se5 3.027094 1_655
Nd7 Se6 3.043898 1_555
Nd7 Se16 3.051897 1_655
Nd7 Se15 3.064989 1_556
Nd7 Se19 3.092283 1_555
Nd7 Se13 3.110463 1_656
Nd7 Se10 3.110778 1_655
Nd7 Se9 3.228256 1_555
Se0 U2 2.793076 1_565
Se0 U0 2.886193 1_655
Se1 U3 2.793076 1_555
Se1 U1 2.886193 1_554
Se2 U0 2.793076 1_555
Se2 U2 2.886193 1_455
Se3 U1 2.793076 1_545
Se3 U3 2.886193 1_556
Se4 U0 2.793076 1_545
Se4 U2 2.886193 1_455
Se5 U1 2.793076 1_555
Se5 U3 2.886193 1_556
Se6 U2 2.793076 1_555
Se6 U0 2.886193 1_655
Se7 U3 2.793076 1_565
Se7 U1 2.886193 1_554
Se8 U0 2.909787 1_655
Se9 U1 2.909787 1_555
Se10 U2 2.909787 1_455
Se11 U3 2.909787 1_555
Se12 U0 3.026556 1_555
Se13 U1 3.026556 1_554
Se14 U2 3.026556 1_555
Se15 U3 3.026556 1_555
Se16 U0 2.947625 1_555
Se17 U1 2.947625 1_554
Se18 U2 2.947625 1_555
Se19 U3 2.947625 1_556
