# generated using pymatgen
data_Na5Mg4Fe8(PO4)12
_symmetry_space_group_name_H-M   'P 1'
_cell_length_a   12.91658082
_cell_length_b   9.28905275
_cell_length_c   9.28905277
_cell_angle_alpha   85.67883231
_cell_angle_beta   63.87665839
_cell_angle_gamma   63.87666242
_symmetry_Int_Tables_number   1
_chemical_formula_structural   Na5Mg4Fe8(PO4)12
_chemical_formula_sum   'Na5 Mg4 Fe8 P12 O48'
_cell_volume   888.69134898
_cell_formula_units_Z   1
loop_
 _symmetry_equiv_pos_site_id
 _symmetry_equiv_pos_as_xyz
  1  'x, y, z'
loop_
 _atom_site_type_symbol
 _atom_site_label
 _atom_site_symmetry_multiplicity
 _atom_site_fract_x
 _atom_site_fract_y
 _atom_site_fract_z
 _atom_site_occupancy
  Na  Na0  1  0.99846800  0.50047600  0.50132700  1
  Na  Na1  1  0.24826800  0.50101700  0.50207800  1
  Na  Na2  1  0.37500000  0.00644100  0.99355900  1
  Na  Na3  1  0.50173200  0.49792200  0.49898300  1
  Na  Na4  1  0.75153200  0.49867300  0.49952400  1
  Mg  Mg0  1  0.12340500  0.26160800  0.73824400  1
  Mg  Mg1  1  0.37500000  0.73387600  0.26612400  1
  Mg  Mg2  1  0.62659500  0.26175600  0.73839200  1
  Mg  Mg3  1  0.87500000  0.73811600  0.26188400  1
  Fe  Fe0  1  0.09499200  0.06132000  0.36741900  1
  Fe  Fe1  1  0.34621100  0.37501900  0.06258300  1
  Fe  Fe2  1  0.15181400  0.63395400  0.93936200  1
  Fe  Fe3  1  0.59818600  0.06063800  0.36604600  1
  Fe  Fe4  1  0.40378900  0.93741700  0.62498100  1
  Fe  Fe5  1  0.84664400  0.36619900  0.06087400  1
  Fe  Fe6  1  0.65500800  0.63258100  0.93868000  1
  Fe  Fe7  1  0.90335600  0.93912600  0.63380100  1
  P  P0  1  0.07368100  0.35047900  0.12734400  1
  P  P1  1  0.12446200  0.71182300  0.28994600  1
  P  P2  1  0.32272400  0.12809800  0.34758400  1
  P  P3  1  0.17852700  0.86888100  0.64979700  1
  P  P4  1  0.37500000  0.28788800  0.71211200  1
  P  P5  1  0.57147300  0.35020300  0.13111900  1
  P  P6  1  0.42727600  0.65241600  0.87190200  1
  P  P7  1  0.62553800  0.71005400  0.28817700  1
  P  P8  1  0.81993700  0.13101500  0.35234800  1
  P  P9  1  0.67631900  0.87265600  0.64952100  1
  P  P10  1  0.87500000  0.28993900  0.71006100  1
  P  P11  1  0.93006300  0.64765200  0.86898500  1
  O  O0  1  0.03112700  0.33097100  0.99853500  1
  O  O1  1  0.13359300  0.18397200  0.17734900  1
  O  O2  1  0.18459800  0.40550600  0.04170600  1
  O  O3  1  0.05669200  0.73838500  0.17953600  1
  O  O4  1  0.28814400  0.99482600  0.31964300  1
  O  O5  1  0.20952700  0.26707000  0.48263300  1
  O  O6  1  0.02415100  0.73863200  0.46885400  1
  O  O7  1  0.37198700  0.18758100  0.18082200  1
  O  O8  1  0.22536200  0.53109300  0.26192900  1
  O  O9  1  0.04435300  0.51231300  0.72966200  1
  O  O10  1  0.19405000  0.81900500  0.26029900  1
  O  O11  1  0.43474000  0.04521400  0.39979200  1
  O  O12  1  0.06532600  0.95291600  0.60267800  1
  O  O13  1  0.30798800  0.17520700  0.74230500  1
  O  O14  1  0.52980800  0.33278200  0.99975600  1
  O  O15  1  0.45793400  0.48465400  0.27055900  1
  O  O16  1  0.27435800  0.46676000  0.74013100  1
  O  O17  1  0.13123500  0.80977900  0.81506600  1
  O  O18  1  0.61876500  0.18493400  0.19022100  1
  O  O19  1  0.47564200  0.25986900  0.53324000  1
  O  O20  1  0.29206600  0.72944100  0.51534600  1
  O  O21  1  0.22019200  0.00024400  0.66721800  1
  O  O22  1  0.44201200  0.25769500  0.82479300  1
  O  O23  1  0.68467400  0.39732200  0.04708400  1
  O  O24  1  0.31526000  0.60020800  0.95478600  1
  O  O25  1  0.55595000  0.73970100  0.18099500  1
  O  O26  1  0.77897000  0.00058600  0.33006400  1
  O  O27  1  0.70564700  0.27033800  0.48768700  1
  O  O28  1  0.52463800  0.73807100  0.46890700  1
  O  O29  1  0.37801300  0.81917800  0.81241900  1
  O  O30  1  0.87107400  0.19100800  0.18896900  1
  O  O31  1  0.72584900  0.53114600  0.26136800  1
  O  O32  1  0.54047300  0.51736700  0.73293000  1
  O  O33  1  0.46185600  0.68035700  0.00517400  1
  O  O34  1  0.69330800  0.82046400  0.26161500  1
  O  O35  1  0.93081400  0.04351000  0.40361300  1
  O  O36  1  0.56540200  0.95829400  0.59449400  1
  O  O37  1  0.80725100  0.17887900  0.73857300  1
  O  O38  1  0.96052200  0.48312500  0.26920300  1
  O  O39  1  0.77376200  0.46831600  0.73855200  1
  O  O40  1  0.61640700  0.82265100  0.81602800  1
  O  O41  1  0.97623800  0.26144800  0.53168400  1
  O  O42  1  0.78947800  0.73079700  0.51687500  1
  O  O43  1  0.71887300  0.00146500  0.66902900  1
  O  O44  1  0.94274900  0.26142700  0.82112100  1
  O  O45  1  0.81918600  0.59638700  0.95649000  1
  O  O46  1  0.87892600  0.81103100  0.80899200  1
  O  O47  1  0.97103000  0.66993600  0.99941400  1
loop_
_geom_bond_atom_site_label_1
_geom_bond_atom_site_label_2
_geom_bond_distance
_geom_bond_site_symmetry_2
Na0 O41 2.342576 1_555
Na0 O6 2.356405 1_655
Na0 O38 2.442959 1_555
Na0 O9 2.462030 1_655
Na0 O42 2.550007 1_555
Na0 O5 2.568606 1_655
Na0 O39 2.898507 1_555
Na0 O8 2.917980 1_655
Na1 O8 2.357195 1_555
Na1 O16 2.358043 1_555
Na1 O20 2.448532 1_555
Na1 O5 2.470213 1_555
Na1 O9 2.510820 1_555
Na1 O15 2.557397 1_555
Na1 O6 2.899050 1_555
Na1 O19 2.929934 1_555
Na2 O29 2.486434 1_545
Na2 O7 2.486434 1_556
Na2 O1 2.562272 1_556
Na2 O40 2.562272 1_545
Na2 O4 2.740444 1_546
Na2 O33 2.740444 1_546
Na2 O22 2.947310 1_555
Na2 O13 2.947310 1_555
Na3 O28 2.357195 1_555
Na3 O19 2.358043 1_555
Na3 O15 2.448532 1_555
Na3 O32 2.470213 1_555
Na3 O27 2.510820 1_555
Na3 O20 2.557397 1_555
Na3 O31 2.899050 1_555
Na3 O16 2.929934 1_555
Na4 O39 2.342576 1_555
Na4 O31 2.356405 1_555
Na4 O42 2.442959 1_555
Na4 O27 2.462030 1_555
Na4 O38 2.550007 1_555
Na4 O32 2.568606 1_555
Na4 O41 2.898507 1_555
Na4 O28 2.917980 1_555
Mg0 O9 2.102861 1_555
Mg0 O44 2.111639 1_455
Mg0 O5 2.140872 1_555
Mg0 O0 2.168526 1_555
Mg0 O13 2.172434 1_555
Mg0 O21 2.175951 1_555
Mg1 O20 2.085487 1_555
Mg1 O15 2.085487 1_555
Mg1 O25 2.137371 1_555
Mg1 O10 2.137372 1_555
Mg1 O33 2.162670 1_555
Mg1 O4 2.162670 1_555
Mg2 O27 2.102861 1_555
Mg2 O37 2.111639 1_555
Mg2 O32 2.140872 1_555
Mg2 O43 2.168526 1_555
Mg2 O22 2.172434 1_555
Mg2 O14 2.175951 1_555
Mg3 O3 2.125279 1_655
Mg3 O34 2.125279 1_555
Mg3 O42 2.138459 1_555
Mg3 O38 2.138459 1_555
Mg3 O47 2.182147 1_554
Mg3 O26 2.182147 1_565
Fe0 O41 1.998071 1_455
Fe0 O1 2.021334 1_555
Fe0 O35 2.076089 1_455
Fe0 O10 2.091383 1_545
Fe0 O4 2.124167 1_545
Fe0 O12 2.281944 1_545
Fe1 O8 1.957979 1_555
Fe1 O7 1.967750 1_555
Fe1 O14 2.028472 1_554
Fe1 O2 2.074376 1_555
Fe1 O22 2.089539 1_554
Fe1 O24 2.199670 1_554
Fe2 O17 1.917036 1_555
Fe2 O16 2.007777 1_555
Fe2 O47 2.017264 1_455
Fe2 O24 2.062189 1_555
Fe2 O3 2.071385 1_556
Fe2 O2 2.201238 1_556
Fe3 O18 1.917036 1_555
Fe3 O19 2.007777 1_555
Fe3 O26 2.017264 1_555
Fe3 O11 2.062189 1_555
Fe3 O34 2.071385 1_545
Fe3 O36 2.201237 1_545
Fe4 O28 1.957979 1_555
Fe4 O29 1.967750 1_555
Fe4 O21 2.028472 1_565
Fe4 O36 2.074376 1_555
Fe4 O13 2.089539 1_565
Fe4 O11 2.199670 1_565
Fe5 O30 1.936575 1_555
Fe5 O31 2.004117 1_555
Fe5 O23 2.043198 1_555
Fe5 O0 2.060907 1_654
Fe5 O44 2.067905 1_554
Fe5 O45 2.227235 1_554
Fe6 O39 1.998071 1_555
Fe6 O40 2.021334 1_555
Fe6 O45 2.076089 1_555
Fe6 O25 2.091383 1_556
Fe6 O33 2.124167 1_556
Fe6 O23 2.281944 1_556
Fe7 O46 1.936575 1_555
Fe7 O6 2.004117 1_655
Fe7 O12 2.043198 1_655
Fe7 O43 2.060907 1_565
Fe7 O37 2.067905 1_565
Fe7 O35 2.227235 1_565
O0 P0 1.570392 1_556
O1 P0 1.536597 1_555
O2 P0 1.589532 1_555
O3 P1 1.562449 1_555
O4 P2 1.561048 1_565
O5 P2 1.531232 1_555
O6 P1 1.544246 1_555
O7 P2 1.556409 1_555
O8 P1 1.557271 1_555
O9 P11 1.537240 1_455
O10 P1 1.550410 1_555
O11 P2 1.581785 1_555
O12 P3 1.563917 1_555
O13 P4 1.569475 1_555
O14 P5 1.577826 1_556
O15 P5 1.531777 1_555
O16 P4 1.543868 1_555
O17 P3 1.540732 1_555
O18 P5 1.540732 1_555
O19 P4 1.543868 1_555
O20 P3 1.531777 1_555
O21 P3 1.577826 1_545
O22 P4 1.569475 1_555
O23 P5 1.563916 1_555
O24 P6 1.581784 1_555
O25 P7 1.550410 1_555
O26 P8 1.577829 1_555
O27 P8 1.537240 1_555
O28 P7 1.557271 1_555
O29 P6 1.556409 1_555
O30 P8 1.537534 1_555
O31 P7 1.544246 1_555
O32 P6 1.531232 1_555
O33 P6 1.561048 1_554
O34 P7 1.562449 1_555
O35 P8 1.567052 1_555
O36 P9 1.589532 1_555
O37 P10 1.565225 1_555
O38 P0 1.534158 1_655
O39 P10 1.542329 1_555
O40 P9 1.536597 1_555
O41 P10 1.542329 1_555
O42 P9 1.534158 1_555
O43 P9 1.570392 1_545
O44 P10 1.565225 1_555
O45 P11 1.567052 1_555
O46 P11 1.537534 1_555
O47 P11 1.577829 1_555
