# generated using pymatgen
data_CaSmB12
_symmetry_space_group_name_H-M   'P 1'
_cell_length_a   4.11980734
_cell_length_b   4.11980734
_cell_length_c   8.24987876
_cell_angle_alpha   90.00000000
_cell_angle_beta   90.00000000
_cell_angle_gamma   90.00000000
_symmetry_Int_Tables_number   1
_chemical_formula_structural   CaSmB12
_chemical_formula_sum   'Ca1 Sm1 B12'
_cell_volume   140.02364550
_cell_formula_units_Z   1
loop_
 _symmetry_equiv_pos_site_id
 _symmetry_equiv_pos_as_xyz
  1  'x, y, z'
loop_
 _atom_site_type_symbol
 _atom_site_label
 _atom_site_symmetry_multiplicity
 _atom_site_fract_x
 _atom_site_fract_y
 _atom_site_fract_z
 _atom_site_occupancy
  Ca  Ca0  1  -0.00000000  -0.00000000  0.00000000  1
  Sm  Sm0  1  -0.00000000  -0.00000000  0.50000000  1
  B  B0  1  0.20039677  0.50000000  0.25042259  1
  B  B1  1  0.20039677  0.50000000  0.74957741  1
  B  B2  1  0.50000000  0.50000000  0.40017606  1
  B  B3  1  0.50000000  0.50000000  0.89936809  1
  B  B4  1  0.50000000  0.20039677  0.25042259  1
  B  B5  1  0.50000000  0.20039677  0.74957741  1
  B  B6  1  0.50000000  0.50000000  0.10063191  1
  B  B7  1  0.50000000  0.50000000  0.59982494  1
  B  B8  1  0.50000000  0.79960323  0.25042259  1
  B  B9  1  0.50000000  0.79960323  0.74957741  1
  B  B10  1  0.79960323  0.50000000  0.25042259  1
  B  B11  1  0.79960323  0.50000000  0.74957741  1
loop_
_geom_bond_atom_site_label_1
_geom_bond_atom_site_label_2
_geom_bond_distance
_geom_bond_site_symmetry_2
B0 B10 1.651192 1_455
B0 B4 1.745575 1_555
B0 B8 1.745575 1_555
B0 B2 1.746381 1_555
B0 B6 1.746598 1_555
B0 Sm0 3.027247 1_555
B0 Sm0 3.027247 1_565
B0 Ca0 3.031994 1_555
B0 Ca0 3.031994 1_565
B1 B11 1.651192 1_455
B1 B9 1.745575 1_555
B1 B5 1.745575 1_555
B1 B7 1.746375 1_555
B1 B3 1.746598 1_555
B1 Sm0 3.027247 1_555
B1 Sm0 3.027247 1_565
B1 Ca0 3.031994 1_566
B1 Ca0 3.031994 1_556
B2 B7 1.647079 1_555
B2 B4 1.746381 1_555
B2 B8 1.746381 1_555
B2 Sm0 3.027312 1_565
B2 Sm0 3.027312 1_655
B2 Sm0 3.027312 1_665
B2 Sm0 3.027312 1_555
B3 B6 1.660402 1_556
B3 B5 1.746598 1_555
B3 B9 1.746598 1_555
B3 Ca0 3.029132 1_666
B3 Ca0 3.029132 1_566
B3 Ca0 3.029132 1_556
B3 Ca0 3.029132 1_656
B4 B8 1.651192 1_545
B4 B6 1.746598 1_555
B4 Sm0 3.027247 1_655
B4 Sm0 3.027247 1_555
B4 Ca0 3.031994 1_655
B4 Ca0 3.031994 1_555
B5 B9 1.651192 1_545
B5 B7 1.746375 1_555
B5 Sm0 3.027247 1_655
B5 Sm0 3.027247 1_555
B5 Ca0 3.031994 1_556
B5 Ca0 3.031994 1_656
B6 B8 1.746598 1_555
B6 Ca0 3.029132 1_555
B6 Ca0 3.029132 1_655
B6 Ca0 3.029132 1_565
B6 Ca0 3.029132 1_665
B7 B9 1.746375 1_555
B7 Sm0 3.027314 1_665
B7 Sm0 3.027314 1_555
B7 Sm0 3.027314 1_565
B7 Sm0 3.027314 1_655
B8 Sm0 3.027247 1_665
B8 Sm0 3.027247 1_565
B8 Ca0 3.031994 1_565
B8 Ca0 3.031994 1_665
B9 Sm0 3.027247 1_665
B9 Sm0 3.027247 1_565
B9 Ca0 3.031994 1_666
B9 Ca0 3.031994 1_566
B10 B4 1.745575 1_555
B10 B8 1.745575 1_555
B10 B2 1.746381 1_555
B10 B6 1.746598 1_555
B10 Sm0 3.027247 1_655
B10 Sm0 3.027247 1_665
B10 Ca0 3.031994 1_655
B10 Ca0 3.031994 1_665
B11 B9 1.745575 1_555
B11 B5 1.745575 1_555
B11 B7 1.746375 1_555
B11 B3 1.746598 1_555
B11 Sm0 3.027247 1_655
B11 Sm0 3.027247 1_665
B11 Ca0 3.031994 1_656
B11 Ca0 3.031994 1_666
