# generated using pymatgen
data_Ba3Sr5Ti8O24
_symmetry_space_group_name_H-M   'P 1'
_cell_length_a   7.95834000
_cell_length_b   7.95834000
_cell_length_c   7.95588100
_cell_angle_alpha   90.00000000
_cell_angle_beta   90.00000000
_cell_angle_gamma   90.00000000
_symmetry_Int_Tables_number   1
_chemical_formula_structural   Ba3Sr5Ti8O24
_chemical_formula_sum   'Ba3 Sr5 Ti8 O24'
_cell_volume   503.88711983
_cell_formula_units_Z   1
loop_
 _symmetry_equiv_pos_site_id
 _symmetry_equiv_pos_as_xyz
  1  'x, y, z'
loop_
 _atom_site_type_symbol
 _atom_site_label
 _atom_site_symmetry_multiplicity
 _atom_site_fract_x
 _atom_site_fract_y
 _atom_site_fract_z
 _atom_site_occupancy
  Ba  Ba0  1  0.50000000  0.00000000  0.00000000  1
  Ba  Ba1  1  0.00000000  0.00000000  0.00000000  1
  Ba  Ba2  1  0.00000000  0.50000000  0.00000000  1
  Sr  Sr0  1  0.50000000  0.00000000  0.50000000  1
  Sr  Sr1  1  0.00000000  0.00000000  0.50000000  1
  Sr  Sr2  1  0.50000000  0.50000000  0.50000000  1
  Sr  Sr3  1  0.00000000  0.50000000  0.50000000  1
  Sr  Sr4  1  0.50000000  0.50000000  0.00000000  1
  Ti  Ti0  1  0.74864300  0.25135700  0.74597000  1
  Ti  Ti1  1  0.25135700  0.25135700  0.74597000  1
  Ti  Ti2  1  0.74864300  0.25135700  0.25403000  1
  Ti  Ti3  1  0.25135700  0.25135700  0.25403000  1
  Ti  Ti4  1  0.74864300  0.74864300  0.74597000  1
  Ti  Ti5  1  0.25135700  0.74864300  0.74597000  1
  Ti  Ti6  1  0.74864300  0.74864300  0.25403000  1
  Ti  Ti7  1  0.25135700  0.74864300  0.25403000  1
  O  O0  1  0.74887800  0.00000000  0.74203200  1
  O  O1  1  0.25112200  0.00000000  0.74203200  1
  O  O2  1  0.74887800  0.00000000  0.25796800  1
  O  O3  1  0.25112200  0.00000000  0.25796800  1
  O  O4  1  0.74678900  0.50000000  0.74433900  1
  O  O5  1  0.25321100  0.50000000  0.74433900  1
  O  O6  1  0.74678900  0.50000000  0.25566100  1
  O  O7  1  0.25321100  0.50000000  0.25566100  1
  O  O8  1  0.74873900  0.25126100  0.50000000  1
  O  O9  1  0.25126100  0.25126100  0.50000000  1
  O  O10  1  0.74639100  0.25360900  0.00000000  1
  O  O11  1  0.25360900  0.25360900  0.00000000  1
  O  O12  1  0.74873900  0.74873900  0.50000000  1
  O  O13  1  0.25126100  0.74873900  0.50000000  1
  O  O14  1  0.74639100  0.74639100  0.00000000  1
  O  O15  1  0.25360900  0.74639100  0.00000000  1
  O  O16  1  0.50000000  0.25321100  0.74433900  1
  O  O17  1  0.00000000  0.25112200  0.74203200  1
  O  O18  1  0.50000000  0.25321100  0.25566100  1
  O  O19  1  0.00000000  0.25112200  0.25796800  1
  O  O20  1  0.50000000  0.74678900  0.74433900  1
  O  O21  1  0.00000000  0.74887800  0.74203200  1
  O  O22  1  0.50000000  0.74678900  0.25566100  1
  O  O23  1  0.00000000  0.74887800  0.25796800  1
loop_
_geom_bond_atom_site_label_1
_geom_bond_atom_site_label_2
_geom_bond_distance
_geom_bond_site_symmetry_2
Ba0 O14 2.813991 1_545
Ba0 O10 2.813991 1_555
Ba0 O11 2.813991 1_555
Ba0 O15 2.813991 1_545
Ba0 O1 2.852225 1_554
Ba0 O3 2.852225 1_555
Ba0 O0 2.852225 1_554
Ba0 O2 2.852225 1_555
Ba0 O20 2.863211 1_544
Ba0 O22 2.863211 1_545
Ba0 O16 2.863211 1_554
Ba0 O18 2.863211 1_555
Ba1 O15 2.854317 1_545
Ba1 O11 2.854317 1_555
Ba1 O14 2.854317 1_445
Ba1 O10 2.854317 1_455
Ba1 O3 2.864656 1_555
Ba1 O23 2.864656 1_545
Ba1 O21 2.864656 1_544
Ba1 O17 2.864656 1_554
Ba1 O1 2.864656 1_554
Ba1 O19 2.864656 1_555
Ba1 O2 2.864656 1_455
Ba1 O0 2.864656 1_454
Ba2 O15 2.813991 1_555
Ba2 O10 2.813991 1_455
Ba2 O14 2.813991 1_455
Ba2 O11 2.813991 1_555
Ba2 O17 2.852225 1_554
Ba2 O19 2.852225 1_555
Ba2 O21 2.852225 1_554
Ba2 O23 2.852225 1_555
Ba2 O6 2.863211 1_455
Ba2 O4 2.863211 1_454
Ba2 O5 2.863211 1_554
Ba2 O7 2.863211 1_555
O0 Ti0 2.000631 1_555
O0 Ti4 2.000631 1_545
O0 Sr0 2.762399 1_555
O0 Sr1 2.775231 1_655
O1 Ti1 2.000631 1_555
O1 Ti5 2.000631 1_545
O1 Sr0 2.762399 1_555
O1 Sr1 2.775231 1_555
O2 Ti2 2.000631 1_555
O2 Ti6 2.000631 1_545
O2 Sr0 2.762399 1_555
O2 Sr1 2.775231 1_655
O3 Ti3 2.000631 1_555
O3 Ti7 2.000631 1_545
O3 Sr0 2.762399 1_555
O3 Sr1 2.775231 1_555
O4 Ti4 1.978883 1_555
O4 Ti0 1.978883 1_555
O4 Sr2 2.763384 1_555
O4 Sr3 2.799939 1_655
O4 Sr4 2.827474 1_556
O5 Ti5 1.978883 1_555
O5 Ti1 1.978883 1_555
O5 Sr2 2.763384 1_555
O5 Sr3 2.799939 1_555
O5 Sr4 2.827474 1_556
O6 Ti6 1.978883 1_555
O6 Ti2 1.978883 1_555
O6 Sr2 2.763384 1_555
O6 Sr3 2.799939 1_655
O6 Sr4 2.827474 1_555
O7 Ti7 1.978883 1_555
O7 Ti3 1.978883 1_555
O7 Sr2 2.763384 1_555
O7 Sr3 2.799939 1_555
O7 Sr4 2.827474 1_555
O8 Ti2 1.956908 1_555
O8 Ti0 1.956908 1_555
O8 Sr2 2.799506 1_555
O8 Sr3 2.813734 1_655
O8 Sr0 2.813734 1_555
O8 Sr1 2.827890 1_655
O9 Ti3 1.956908 1_555
O9 Ti1 1.956908 1_555
O9 Sr2 2.799506 1_555
O9 Sr0 2.813734 1_555
O9 Sr3 2.813734 1_555
O9 Sr1 2.827890 1_555
O10 Ti0 2.021191 1_554
O10 Ti2 2.021191 1_555
O10 Sr4 2.773080 1_555
O11 Ti3 2.021191 1_555
O11 Ti1 2.021191 1_554
O11 Sr4 2.773080 1_555
O12 Ti4 1.956908 1_555
O12 Ti6 1.956908 1_555
O12 Sr2 2.799506 1_555
O12 Sr0 2.813734 1_565
O12 Sr3 2.813734 1_655
O12 Sr1 2.827890 1_665
O13 Ti5 1.956908 1_555
O13 Ti7 1.956908 1_555
O13 Sr2 2.799506 1_555
O13 Sr0 2.813734 1_565
O13 Sr3 2.813734 1_555
O13 Sr1 2.827890 1_565
O14 Ti4 2.021191 1_554
O14 Ti6 2.021191 1_555
O14 Sr4 2.773080 1_555
O15 Ti5 2.021191 1_554
O15 Ti7 2.021191 1_555
O15 Sr4 2.773080 1_555
O16 Ti0 1.978883 1_555
O16 Ti1 1.978883 1_555
O16 Sr2 2.763384 1_555
O16 Sr0 2.799939 1_555
O16 Sr4 2.827474 1_556
O17 Ti1 2.000631 1_555
O17 Ti0 2.000631 1_455
O17 Sr3 2.762399 1_555
O17 Sr1 2.775231 1_555
O18 Ti2 1.978883 1_555
O18 Ti3 1.978883 1_555
O18 Sr2 2.763384 1_555
O18 Sr0 2.799939 1_555
O18 Sr4 2.827474 1_555
O19 Ti3 2.000631 1_555
O19 Ti2 2.000631 1_455
O19 Sr3 2.762399 1_555
O19 Sr1 2.775231 1_555
O20 Ti4 1.978883 1_555
O20 Ti5 1.978883 1_555
O20 Sr2 2.763384 1_555
O20 Sr0 2.799939 1_565
O20 Sr4 2.827474 1_556
O21 Ti5 2.000631 1_555
O21 Ti4 2.000631 1_455
O21 Sr3 2.762399 1_555
O21 Sr1 2.775231 1_565
O22 Ti6 1.978883 1_555
O22 Ti7 1.978883 1_555
O22 Sr2 2.763384 1_555
O22 Sr0 2.799939 1_565
O22 Sr4 2.827474 1_555
O23 Ti7 2.000631 1_555
O23 Ti6 2.000631 1_455
O23 Sr3 2.762399 1_555
O23 Sr1 2.775231 1_565
