# generated using pymatgen
data_CaFe3O5
_symmetry_space_group_name_H-M   'P 1'
_cell_length_a   3.05341439
_cell_length_b   5.36785301
_cell_length_c   12.74636714
_cell_angle_alpha   90.00000000
_cell_angle_beta   90.00000000
_cell_angle_gamma   106.52398691
_symmetry_Int_Tables_number   1
_chemical_formula_structural   CaFe3O5
_chemical_formula_sum   'Ca2 Fe6 O10'
_cell_volume   200.28842532
_cell_formula_units_Z   2
loop_
 _symmetry_equiv_pos_site_id
 _symmetry_equiv_pos_as_xyz
  1  'x, y, z'
loop_
 _atom_site_type_symbol
 _atom_site_label
 _atom_site_symmetry_multiplicity
 _atom_site_fract_x
 _atom_site_fract_y
 _atom_site_fract_z
 _atom_site_occupancy
  O  O0  1  0.90061592  0.80123010  0.63718301  1
  O  O1  1  0.09938518  0.19877036  0.36281715  1
  O  O2  1  0.09938518  0.19877036  0.13718254  1
  O  O3  1  0.90061592  0.80123010  0.86281684  1
  O  O4  1  0.65119554  0.30238935  0.94918529  1
  O  O5  1  0.34880455  0.69760911  0.05081487  1
  O  O6  1  0.34880455  0.69760911  0.44918481  1
  O  O7  1  0.65119554  0.30238935  0.55081456  1
  O  O8  1  0.18885392  0.37770785  0.75000031  1
  O  O9  1  0.81114617  0.62229061  0.24999984  1
  Ca  Ca0  1  0.52127346  0.04254520  0.75000031  1
  Ca  Ca1  1  0.47872763  0.95745526  0.24999984  1
  Fe  Fe0  1  0.00000000  0.00000000  0.49999969  1
  Fe  Fe1  1  0.26797826  0.53595652  0.89058536  1
  Fe  Fe2  1  0.73202183  0.46404193  0.10941480  1
  Fe  Fe3  1  0.00000000  0.00000000  0.00000000  1
  Fe  Fe4  1  0.73202183  0.46404193  0.39058567  1
  Fe  Fe5  1  0.26797826  0.53595652  0.60941449  1
loop_
_geom_bond_atom_site_label_1
_geom_bond_atom_site_label_2
_geom_bond_distance
_geom_bond_site_symmetry_2
Ca0 O8 2.303426 1_655
Ca0 O8 2.303429 1_555
Ca0 O3 2.437389 1_445
Ca0 O3 2.437389 1_545
Ca0 O0 2.437395 1_445
Ca0 O0 2.437395 1_545
Ca0 O4 2.869502 1_555
Ca0 O7 2.869511 1_555
Ca1 O9 2.303433 1_455
Ca1 O9 2.303437 1_555
Ca1 O2 2.437395 1_665
Ca1 O2 2.437395 1_565
Ca1 O1 2.437395 1_665
Ca1 O1 2.437395 1_565
Ca1 O6 2.869507 1_555
Ca1 O5 2.869507 1_555
Fe0 O1 2.025799 1_555
Fe0 O0 2.025807 1_445
Fe0 O7 2.274189 1_455
Fe0 O7 2.274193 1_555
Fe0 O6 2.274197 1_545
Fe0 O6 2.274197 1_445
Fe1 O8 1.968320 1_555
Fe1 O3 2.078393 1_455
Fe1 O3 2.078397 1_555
Fe1 O4 2.081702 1_455
Fe1 O4 2.081706 1_555
Fe1 O5 2.205269 1_556
Fe2 O9 1.968320 1_555
Fe2 O2 2.078384 1_655
Fe2 O2 2.078388 1_555
Fe2 O5 2.081702 1_655
Fe2 O5 2.081706 1_555
Fe2 O4 2.205269 1_554
Fe3 O2 2.025799 1_555
Fe3 O3 2.025805 1_444
Fe3 O4 2.274189 1_454
Fe3 O4 2.274192 1_554
Fe3 O5 2.274197 1_545
Fe3 O5 2.274197 1_445
Fe4 O9 1.968329 1_555
Fe4 O1 2.078386 1_655
Fe4 O1 2.078390 1_555
Fe4 O6 2.081699 1_655
Fe4 O6 2.081703 1_555
Fe4 O7 2.205262 1_555
Fe5 O8 1.968329 1_555
Fe5 O0 2.078393 1_455
Fe5 O0 2.078397 1_555
Fe5 O7 2.081702 1_455
Fe5 O7 2.081706 1_555
Fe5 O6 2.205271 1_555
