# generated using pymatgen
data_Cu6MoC20S4N5Cl9
_symmetry_space_group_name_H-M   'P 1'
_cell_length_a   10.61632171
_cell_length_b   10.61632171
_cell_length_c   19.60376300
_cell_angle_alpha   90.00000000
_cell_angle_beta   90.00000000
_cell_angle_gamma   120.65248964
_symmetry_Int_Tables_number   1
_chemical_formula_structural   Cu6MoC20S4N5Cl9
_chemical_formula_sum   'Cu12 Mo2 C40 S8 N10 Cl18'
_cell_volume   1900.75022505
_cell_formula_units_Z   2
loop_
 _symmetry_equiv_pos_site_id
 _symmetry_equiv_pos_as_xyz
  1  'x, y, z'
loop_
 _atom_site_type_symbol
 _atom_site_label
 _atom_site_symmetry_multiplicity
 _atom_site_fract_x
 _atom_site_fract_y
 _atom_site_fract_z
 _atom_site_occupancy
  Cu  Cu0  1  0.00094900  0.24132200  0.06027000  1
  Cu  Cu1  1  0.24132200  0.00094900  0.06027000  1
  Cu  Cu2  1  0.76041000  0.76041000  0.05954100  1
  Cu  Cu3  1  0.99905100  0.75867800  0.56027000  1
  Cu  Cu4  1  0.75867800  0.99905100  0.56027000  1
  Cu  Cu5  1  0.23959000  0.23959000  0.55954100  1
  Cu  Cu6  1  0.79529800  0.00094800  0.20231800  1
  Cu  Cu7  1  0.20673700  0.20673700  0.20195400  1
  Cu  Cu8  1  0.00094800  0.79529800  0.20231800  1
  Cu  Cu9  1  0.20470200  0.99905200  0.70231800  1
  Cu  Cu10  1  0.79326300  0.79326300  0.70195400  1
  Cu  Cu11  1  0.99905200  0.20470200  0.70231800  1
  Mo  Mo0  1  0.99996000  0.99996000  0.12201700  1
  Mo  Mo1  1  0.00004000  0.00004000  0.62201700  1
  C  C0  1  0.98581900  0.33382800  0.43052100  1
  C  C1  1  0.33382800  0.98581900  0.43052100  1
  C  C2  1  0.63580200  0.63580200  0.42892700  1
  C  C3  1  0.01418100  0.66617200  0.93052100  1
  C  C4  1  0.66617200  0.01418100  0.93052100  1
  C  C5  1  0.36419800  0.36419800  0.92892700  1
  C  C6  1  0.99796200  0.23508600  0.37944300  1
  C  C7  1  0.23508600  0.99796200  0.37944300  1
  C  C8  1  0.76030000  0.76030000  0.39091400  1
  C  C9  1  0.00203800  0.76491400  0.87944300  1
  C  C10  1  0.76491400  0.00203800  0.87944300  1
  C  C11  1  0.23970000  0.23970000  0.89091400  1
  C  C12  1  0.89922400  0.33520200  0.37086900  1
  C  C13  1  0.43655100  0.10128400  0.38162500  1
  C  C14  1  0.66405200  0.56375800  0.37021700  1
  C  C15  1  0.33520200  0.89922400  0.37086900  1
  C  C16  1  0.10128400  0.43655100  0.38162500  1
  C  C17  1  0.56375800  0.66405200  0.37021700  1
  C  C18  1  0.10077600  0.66479800  0.87086900  1
  C  C19  1  0.56344900  0.89871600  0.88162500  1
  C  C20  1  0.33594800  0.43624200  0.87021700  1
  C  C21  1  0.66479800  0.10077600  0.87086900  1
  C  C22  1  0.89871600  0.56344900  0.88162500  1
  C  C23  1  0.43624200  0.33594800  0.87021700  1
  C  C24  1  0.34019600  0.57023000  0.12300600  1
  C  C25  1  0.22984000  0.65782900  0.13029100  1
  C  C26  1  0.43131200  0.77076400  0.12751200  1
  C  C27  1  0.57023000  0.34019600  0.12300600  1
  C  C28  1  0.65782900  0.22984000  0.13029100  1
  C  C29  1  0.77076400  0.43131200  0.12751200  1
  C  C30  1  0.65980400  0.42977000  0.62300600  1
  C  C31  1  0.77016000  0.34217100  0.63029100  1
  C  C32  1  0.56868800  0.22923600  0.62751200  1
  C  C33  1  0.42977000  0.65980400  0.62300600  1
  C  C34  1  0.34217100  0.77016000  0.63029100  1
  C  C35  1  0.22923600  0.56868800  0.62751200  1
  C  C36  1  0.33765300  0.66164800  0.18046700  1
  C  C37  1  0.66164800  0.33765300  0.18046700  1
  C  C38  1  0.66234700  0.33835200  0.68046700  1
  C  C39  1  0.33835200  0.66234700  0.68046700  1
  S  S0  1  0.00009800  0.00009800  0.23821900  1
  S  S1  1  0.99990200  0.99990200  0.73821900  1
  S  S2  1  0.79857900  0.99998400  0.08503400  1
  S  S3  1  0.20297500  0.20297500  0.08481900  1
  S  S4  1  0.99998400  0.79857900  0.08503400  1
  S  S5  1  0.20142100  0.00001600  0.58503400  1
  S  S6  1  0.79702500  0.79702500  0.58481900  1
  S  S7  1  0.00001600  0.20142100  0.58503400  1
  N  N0  1  0.01196300  0.33961800  0.32488200  1
  N  N1  1  0.33961800  0.01196300  0.32488200  1
  N  N2  1  0.68684900  0.68684900  0.32585400  1
  N  N3  1  0.98803700  0.66038200  0.82488200  1
  N  N4  1  0.66038200  0.98803700  0.82488200  1
  N  N5  1  0.31315100  0.31315100  0.82585400  1
  N  N6  1  0.33010400  0.67181000  0.07391600  1
  N  N7  1  0.67181000  0.33010400  0.07391600  1
  N  N8  1  0.66989600  0.32819000  0.57391600  1
  N  N9  1  0.32819000  0.66989600  0.57391600  1
  Cl  Cl0  1  0.99525200  0.32866800  0.96446200  1
  Cl  Cl1  1  0.32866800  0.99525200  0.96446200  1
  Cl  Cl2  1  0.66615700  0.66615700  0.96437200  1
  Cl  Cl3  1  0.00474800  0.67133200  0.46446200  1
  Cl  Cl4  1  0.67133200  0.00474800  0.46446200  1
  Cl  Cl5  1  0.33384300  0.33384300  0.46437200  1
  Cl  Cl6  1  0.64806300  0.99979300  0.27359100  1
  Cl  Cl7  1  0.35728300  0.35728300  0.27179000  1
  Cl  Cl8  1  0.99979300  0.64806300  0.27359100  1
  Cl  Cl9  1  0.35193700  0.00020700  0.77359100  1
  Cl  Cl10  1  0.64271700  0.64271700  0.77179000  1
  Cl  Cl11  1  0.00020700  0.35193700  0.77359100  1
  Cl  Cl12  1  0.99953500  0.32086400  0.16453800  1
  Cl  Cl13  1  0.32086400  0.99953500  0.16453800  1
  Cl  Cl14  1  0.67869900  0.67869900  0.16376700  1
  Cl  Cl15  1  0.00046500  0.67913600  0.66453800  1
  Cl  Cl16  1  0.67913600  0.00046500  0.66453800  1
  Cl  Cl17  1  0.32130100  0.32130100  0.66376700  1
loop_
_geom_bond_atom_site_label_1
_geom_bond_atom_site_label_2
_geom_bond_distance
_geom_bond_site_symmetry_2
Cu0 S2 2.408970 1_445
Cu0 S3 2.426458 1_555
Cu1 S4 2.408970 1_445
Cu1 S3 2.426458 1_555
Cu2 S4 2.414939 1_555
Cu2 S2 2.414939 1_555
Cu3 S5 2.408970 1_665
Cu3 S6 2.426458 1_555
Cu4 S7 2.408970 1_665
Cu4 S6 2.426458 1_555
Cu5 S5 2.414939 1_555
Cu5 S7 2.414939 1_555
Cu6 S0 2.289685 1_655
Cu6 S2 2.299573 1_545
Cu7 S0 2.285461 1_555
Cu7 S3 2.296627 1_555
Cu8 S0 2.289685 1_565
Cu8 S4 2.299573 1_455
Cu9 S1 2.289685 1_455
Cu9 S5 2.299573 1_565
Cu10 S1 2.285461 1_555
Cu10 S6 2.296627 1_555
Cu11 S1 2.289685 1_545
Cu11 S7 2.299573 1_655
Mo0 S3 2.255136 1_665
Mo0 S2 2.257635 1_555
Mo0 S4 2.257635 1_555
Mo0 S0 2.277997 1_665
Mo1 S6 2.255136 1_445
Mo1 S5 2.257635 1_555
Mo1 S7 2.257635 1_555
Mo1 S1 2.277997 1_445
C0 C12 1.492160 1_555
C0 C16 1.499209 1_655
C0 C6 1.501979 1_555
C1 C15 1.492160 1_555
C1 C13 1.499209 1_565
C1 C7 1.501979 1_555
C2 C8 1.505953 1_555
C3 C9 1.501979 1_555
C6 N0 1.493144 1_655
C7 N1 1.493144 1_565
C8 N2 1.490906 1_555
C9 N3 1.493144 1_455
C10 N4 1.493144 1_545
C10 C4 1.501979 1_555
C11 N5 1.490906 1_555
C11 C5 1.505953 1_555
C12 N0 1.479941 1_655
C13 N1 1.483427 1_555
C14 N2 1.483271 1_555
C14 C2 1.494483 1_555
C15 N1 1.479941 1_565
C16 N0 1.483427 1_555
C17 N2 1.483271 1_555
C17 C2 1.494483 1_555
C18 N3 1.479941 1_455
C18 C3 1.492160 1_555
C19 N4 1.483427 1_555
C19 C4 1.499209 1_565
C20 N5 1.483271 1_555
C20 C5 1.494483 1_555
C21 N4 1.479941 1_545
C21 C4 1.492160 1_555
C22 N3 1.483427 1_555
C22 C3 1.499209 1_655
C23 N5 1.483271 1_555
C23 C5 1.494483 1_555
C24 N6 1.489418 1_555
C24 C36 1.496080 1_555
C25 N6 1.488401 1_555
C25 C36 1.493964 1_555
C26 N6 1.486965 1_555
C26 C36 1.494588 1_555
C27 N7 1.489418 1_555
C27 C37 1.496080 1_555
C28 N7 1.488401 1_555
C28 C37 1.493964 1_555
C29 N7 1.486965 1_555
C29 C37 1.494588 1_555
C30 N8 1.489418 1_555
C30 C38 1.496080 1_555
C31 N8 1.488401 1_555
C31 C38 1.493964 1_555
C32 N8 1.486965 1_555
C32 C38 1.494588 1_555
C33 N9 1.489418 1_555
C33 C39 1.496080 1_555
C34 N9 1.488401 1_555
C34 C39 1.493964 1_555
C35 N9 1.486965 1_555
C35 C39 1.494588 1_555
Cl0 Cu0 2.109109 1_656
Cl1 Cu1 2.109109 1_566
Cl2 Cu2 2.112412 1_556
Cl3 Cu3 2.109109 1_455
Cl4 Cu4 2.109109 1_545
Cl5 Cu5 2.112412 1_555
Cl6 Cu6 2.091911 1_565
Cl7 Cu7 2.092477 1_555
Cl8 Cu8 2.091911 1_655
Cl9 Cu9 2.091911 1_545
Cl10 Cu10 2.092477 1_555
Cl11 Cu11 2.091911 1_455
Cl12 Cu0 2.214578 1_655
Cl13 Cu1 2.214578 1_565
Cl14 Cu2 2.216408 1_555
Cl15 Cu3 2.214578 1_455
Cl16 Cu4 2.214578 1_545
Cl17 Cu5 2.216408 1_555
