# generated using pymatgen
data_BaCa3
_symmetry_space_group_name_H-M   'P 1'
_cell_length_a   26.65263235
_cell_length_b   26.65263235
_cell_length_c   26.65263399
_cell_angle_alpha   17.34602550
_cell_angle_beta   17.34602550
_cell_angle_gamma   17.34602896
_symmetry_Int_Tables_number   1
_chemical_formula_structural   BaCa3
_chemical_formula_sum   'Ba8 Ca24'
_cell_volume   1468.58999551
_cell_formula_units_Z   8
loop_
 _symmetry_equiv_pos_site_id
 _symmetry_equiv_pos_as_xyz
  1  'x, y, z'
loop_
 _atom_site_type_symbol
 _atom_site_label
 _atom_site_symmetry_multiplicity
 _atom_site_fract_x
 _atom_site_fract_y
 _atom_site_fract_z
 _atom_site_occupancy
  Ba  Ba0_0  1  0.00000000  0.00000000  0.00000000  1
  Ba  Ba0_1  1  0.00000000  0.00000000  0.50000000  1
  Ba  Ba0_2  1  0.00000000  0.50000000  0.00000000  1
  Ba  Ba0_3  1  0.00000000  0.50000000  0.50000000  1
  Ba  Ba0_4  1  0.50000000  0.00000000  0.00000000  1
  Ba  Ba0_5  1  0.50000000  0.00000000  0.50000000  1
  Ba  Ba0_6  1  0.50000000  0.50000000  0.00000000  1
  Ba  Ba0_7  1  0.50000000  0.50000000  0.50000000  1
  Ca  Ca0_0  1  0.12287200  0.12287200  0.12287200  1
  Ca  Ca0_1  1  0.12287200  0.12287200  0.62287200  1
  Ca  Ca0_2  1  0.12287200  0.62287200  0.12287200  1
  Ca  Ca0_3  1  0.12287200  0.62287200  0.62287200  1
  Ca  Ca0_4  1  0.62287200  0.12287200  0.12287200  1
  Ca  Ca0_5  1  0.62287200  0.12287200  0.62287200  1
  Ca  Ca0_6  1  0.62287200  0.62287200  0.12287200  1
  Ca  Ca0_7  1  0.62287200  0.62287200  0.62287200  1
  Ca  Ca1_0  1  0.25000000  0.25000000  0.25000000  1
  Ca  Ca1_1  1  0.25000000  0.25000000  0.75000000  1
  Ca  Ca1_2  1  0.25000000  0.75000000  0.25000000  1
  Ca  Ca1_3  1  0.25000000  0.75000000  0.75000000  1
  Ca  Ca1_4  1  0.75000000  0.25000000  0.25000000  1
  Ca  Ca1_5  1  0.75000000  0.25000000  0.75000000  1
  Ca  Ca1_6  1  0.75000000  0.75000000  0.25000000  1
  Ca  Ca1_7  1  0.75000000  0.75000000  0.75000000  1
  Ca  Ca2_0  1  0.37712800  0.37712800  0.37712800  1
  Ca  Ca2_1  1  0.37712800  0.37712800  0.87712800  1
  Ca  Ca2_2  1  0.37712800  0.87712800  0.37712800  1
  Ca  Ca2_3  1  0.37712800  0.87712800  0.87712800  1
  Ca  Ca2_4  1  0.87712800  0.37712800  0.37712800  1
  Ca  Ca2_5  1  0.87712800  0.37712800  0.87712800  1
  Ca  Ca2_6  1  0.87712800  0.87712800  0.37712800  1
  Ca  Ca2_7  1  0.87712800  0.87712800  0.87712800  1
loop_
_geom_bond_atom_site_label_1
_geom_bond_atom_site_label_2
_geom_bond_distance
_geom_bond_site_symmetry_2
Ba0_0 Ba0_5 4.019089 1_455
Ba0_0 Ba0_5 4.019089 1_554
Ba0_0 Ba0_3 4.019089 1_545
Ba0_0 Ba0_3 4.019089 1_554
Ba0_0 Ba0_6 4.019090 1_545
Ba0_0 Ba0_6 4.019090 1_455
Ba0_0 Ca2_3 4.156284 1_544
Ba0_0 Ca2_5 4.156284 1_454
Ba0_0 Ca0_2 4.156284 1_545
Ba0_0 Ca0_4 4.156284 1_455
Ba0_0 Ca2_6 4.156284 1_445
Ba0_0 Ca0_1 4.156284 1_554
Ba0_1 Ba0_4 4.019089 1_555
Ba0_1 Ba0_2 4.019089 1_555
Ba0_1 Ba0_2 4.019089 1_546
Ba0_1 Ba0_4 4.019089 1_456
Ba0_1 Ba0_7 4.019090 1_455
Ba0_1 Ba0_7 4.019090 1_545
Ba0_1 Ca2_2 4.156284 1_545
Ba0_1 Ca2_4 4.156284 1_455
Ba0_1 Ca0_3 4.156284 1_545
Ba0_1 Ca0_5 4.156284 1_455
Ba0_1 Ca2_7 4.156284 1_445
Ba0_1 Ca0_0 4.156284 1_555
Ba0_2 Ba0_7 4.019089 1_455
Ba0_2 Ba0_7 4.019089 1_554
Ba0_2 Ba0_4 4.019090 1_465
Ba0_2 Ba0_4 4.019090 1_555
Ba0_2 Ca2_7 4.156284 1_454
Ba0_2 Ca2_1 4.156284 1_554
Ba0_2 Ca0_6 4.156284 1_455
Ba0_2 Ca0_0 4.156284 1_555
Ba0_2 Ca2_4 4.156284 1_455
Ba0_2 Ca0_3 4.156284 1_554
Ba0_3 Ba0_6 4.019089 1_555
Ba0_3 Ba0_6 4.019089 1_456
Ba0_3 Ba0_5 4.019090 1_555
Ba0_3 Ba0_5 4.019090 1_465
Ba0_3 Ca2_0 4.156284 1_555
Ba0_3 Ca2_6 4.156284 1_455
Ba0_3 Ca0_1 4.156284 1_555
Ba0_3 Ca0_7 4.156284 1_455
Ba0_3 Ca2_5 4.156284 1_455
Ba0_3 Ca0_2 4.156284 1_555
Ba0_4 Ba0_7 4.019089 1_554
Ba0_4 Ba0_7 4.019089 1_545
Ba0_4 Ca2_7 4.156284 1_544
Ba0_4 Ca2_1 4.156284 1_554
Ba0_4 Ca0_6 4.156284 1_545
Ba0_4 Ca0_0 4.156284 1_555
Ba0_4 Ca2_2 4.156284 1_545
Ba0_4 Ca0_5 4.156284 1_554
Ba0_5 Ba0_6 4.019089 1_555
Ba0_5 Ba0_6 4.019089 1_546
Ba0_5 Ca2_0 4.156284 1_555
Ba0_5 Ca2_6 4.156284 1_545
Ba0_5 Ca0_1 4.156284 1_555
Ba0_5 Ca0_7 4.156284 1_545
Ba0_5 Ca2_3 4.156284 1_545
Ba0_5 Ca0_4 4.156284 1_555
Ba0_6 Ca2_5 4.156284 1_554
Ba0_6 Ca2_3 4.156284 1_554
Ba0_6 Ca0_2 4.156284 1_555
Ba0_6 Ca0_4 4.156284 1_555
Ba0_6 Ca2_0 4.156284 1_555
Ba0_6 Ca0_7 4.156284 1_554
Ba0_7 Ca2_4 4.156284 1_555
Ba0_7 Ca2_2 4.156284 1_555
Ba0_7 Ca0_5 4.156284 1_555
Ba0_7 Ca0_3 4.156284 1_555
Ba0_7 Ca2_1 4.156284 1_555
Ba0_7 Ca0_6 4.156284 1_555
Ca0_0 Ca1_4 3.882778 1_455
Ca0_0 Ca1_2 3.882778 1_545
Ca0_0 Ca1_1 3.882778 1_554
Ca0_0 Ca0_3 4.019089 1_545
Ca0_0 Ca0_5 4.019089 1_554
Ca0_0 Ca0_5 4.019089 1_455
Ca0_0 Ca0_3 4.019089 1_554
Ca0_0 Ca0_6 4.019090 1_455
Ca0_0 Ca0_6 4.019090 1_545
Ca0_1 Ca1_5 3.882778 1_455
Ca0_1 Ca1_3 3.882778 1_545
Ca0_1 Ca1_0 3.882778 1_555
Ca0_1 Ca0_4 4.019089 1_555
Ca0_1 Ca0_2 4.019089 1_555
Ca0_1 Ca0_2 4.019089 1_546
Ca0_1 Ca0_4 4.019089 1_456
Ca0_1 Ca0_7 4.019090 1_545
Ca0_1 Ca0_7 4.019090 1_455
Ca0_2 Ca1_0 3.882778 1_555
Ca0_2 Ca1_6 3.882778 1_455
Ca0_2 Ca1_3 3.882778 1_554
Ca0_2 Ca0_7 4.019089 1_554
Ca0_2 Ca0_7 4.019089 1_455
Ca0_2 Ca0_4 4.019090 1_465
Ca0_2 Ca0_4 4.019090 1_555
Ca0_3 Ca1_1 3.882778 1_555
Ca0_3 Ca1_7 3.882778 1_455
Ca0_3 Ca1_2 3.882778 1_555
Ca0_3 Ca0_6 4.019089 1_555
Ca0_3 Ca0_6 4.019089 1_456
Ca0_3 Ca0_5 4.019090 1_555
Ca0_3 Ca0_5 4.019090 1_465
Ca0_4 Ca1_6 3.882778 1_545
Ca0_4 Ca1_0 3.882778 1_555
Ca0_4 Ca1_5 3.882778 1_554
Ca0_4 Ca0_7 4.019089 1_545
Ca0_4 Ca0_7 4.019089 1_554
Ca0_5 Ca1_1 3.882778 1_555
Ca0_5 Ca1_7 3.882778 1_545
Ca0_5 Ca1_4 3.882778 1_555
Ca0_5 Ca0_6 4.019089 1_555
Ca0_5 Ca0_6 4.019089 1_546
Ca0_6 Ca1_2 3.882778 1_555
Ca0_6 Ca1_4 3.882778 1_555
Ca0_6 Ca1_7 3.882778 1_554
Ca0_7 Ca1_5 3.882778 1_555
Ca0_7 Ca1_3 3.882778 1_555
Ca0_7 Ca1_6 3.882778 1_555
Ca1_0 Ca2_2 3.882778 1_545
Ca1_0 Ca2_4 3.882778 1_455
Ca1_0 Ca2_1 3.882778 1_554
Ca1_0 Ca1_5 4.019089 1_554
Ca1_0 Ca1_5 4.019089 1_455
Ca1_0 Ca1_3 4.019089 1_545
Ca1_0 Ca1_3 4.019089 1_554
Ca1_0 Ca1_6 4.019090 1_455
Ca1_0 Ca1_6 4.019090 1_545
Ca1_1 Ca2_5 3.882778 1_455
Ca1_1 Ca2_3 3.882778 1_545
Ca1_1 Ca2_0 3.882778 1_555
Ca1_1 Ca1_2 4.019089 1_555
Ca1_1 Ca1_4 4.019089 1_555
Ca1_1 Ca1_4 4.019089 1_456
Ca1_1 Ca1_2 4.019089 1_546
Ca1_1 Ca1_7 4.019090 1_455
Ca1_1 Ca1_7 4.019090 1_545
Ca1_2 Ca2_6 3.882778 1_455
Ca1_2 Ca2_0 3.882778 1_555
Ca1_2 Ca2_3 3.882778 1_554
Ca1_2 Ca1_7 4.019089 1_455
Ca1_2 Ca1_7 4.019089 1_554
Ca1_2 Ca1_4 4.019090 1_555
Ca1_2 Ca1_4 4.019090 1_465
Ca1_3 Ca2_1 3.882778 1_555
Ca1_3 Ca2_7 3.882778 1_455
Ca1_3 Ca2_2 3.882778 1_555
Ca1_3 Ca1_6 4.019089 1_555
Ca1_3 Ca1_6 4.019089 1_456
Ca1_3 Ca1_5 4.019090 1_555
Ca1_3 Ca1_5 4.019090 1_465
Ca1_4 Ca2_6 3.882778 1_545
Ca1_4 Ca2_0 3.882778 1_555
Ca1_4 Ca2_5 3.882778 1_554
Ca1_4 Ca1_7 4.019089 1_545
Ca1_4 Ca1_7 4.019089 1_554
Ca1_5 Ca2_1 3.882778 1_555
Ca1_5 Ca2_7 3.882778 1_545
Ca1_5 Ca2_4 3.882778 1_555
Ca1_5 Ca1_6 4.019089 1_555
Ca1_5 Ca1_6 4.019089 1_546
Ca1_6 Ca2_2 3.882778 1_555
Ca1_6 Ca2_4 3.882778 1_555
Ca1_6 Ca2_7 3.882778 1_554
Ca1_7 Ca2_5 3.882778 1_555
Ca1_7 Ca2_3 3.882778 1_555
Ca1_7 Ca2_6 3.882778 1_555
Ca2_0 Ca2_3 4.019089 1_545
Ca2_0 Ca2_5 4.019089 1_455
Ca2_0 Ca2_3 4.019089 1_554
Ca2_0 Ca2_5 4.019089 1_554
Ca2_0 Ca2_6 4.019090 1_455
Ca2_0 Ca2_6 4.019090 1_545
Ca2_1 Ca2_2 4.019089 1_555
Ca2_1 Ca2_4 4.019089 1_555
Ca2_1 Ca2_2 4.019089 1_546
Ca2_1 Ca2_4 4.019089 1_456
Ca2_1 Ca2_7 4.019090 1_455
Ca2_1 Ca2_7 4.019090 1_545
Ca2_2 Ca2_7 4.019089 1_455
Ca2_2 Ca2_7 4.019089 1_554
Ca2_2 Ca2_4 4.019090 1_555
Ca2_2 Ca2_4 4.019090 1_465
Ca2_3 Ca2_6 4.019089 1_456
Ca2_3 Ca2_6 4.019089 1_555
Ca2_3 Ca2_5 4.019090 1_465
Ca2_3 Ca2_5 4.019090 1_555
Ca2_4 Ca2_7 4.019089 1_545
Ca2_4 Ca2_7 4.019089 1_554
Ca2_5 Ca2_6 4.019089 1_546
Ca2_5 Ca2_6 4.019089 1_555
