# generated using pymatgen
data_TmAl2Ni
_symmetry_space_group_name_H-M   'P 1'
_cell_length_a   4.01326850
_cell_length_b   5.36863394
_cell_length_c   6.81751866
_cell_angle_alpha   90.00000000
_cell_angle_beta   90.00000000
_cell_angle_gamma   111.94831692
_symmetry_Int_Tables_number   1
_chemical_formula_structural   TmAl2Ni
_chemical_formula_sum   'Tm2 Al4 Ni2'
_cell_volume   136.24239733
_cell_formula_units_Z   2
loop_
 _symmetry_equiv_pos_site_id
 _symmetry_equiv_pos_as_xyz
  1  'x, y, z'
loop_
 _atom_site_type_symbol
 _atom_site_label
 _atom_site_symmetry_multiplicity
 _atom_site_fract_x
 _atom_site_fract_y
 _atom_site_fract_z
 _atom_site_occupancy
  Tm  Tm0  1  0.06176882  0.12353664  0.75000000  1
  Tm  Tm1  1  0.93823118  0.87646336  0.25000000  1
  Al  Al0  1  0.34373569  0.68747239  0.55424858  1
  Al  Al1  1  0.65626431  0.31252761  0.44575142  1
  Al  Al2  1  0.34373569  0.68747239  0.94575142  1
  Al  Al3  1  0.65626431  0.31252761  0.05424858  1
  Ni  Ni0  1  0.21459158  0.42918216  0.25000000  1
  Ni  Ni1  1  0.78540842  0.57081784  0.75000000  1
loop_
_geom_bond_atom_site_label_1
_geom_bond_atom_site_label_2
_geom_bond_distance
_geom_bond_site_symmetry_2
Al0 Ni0 2.440615 1_555
Al0 Ni1 2.478911 1_455
Al0 Ni1 2.478911 1_555
Al0 Tm1 3.035558 1_555
Al0 Tm1 3.035558 1_455
Al0 Tm0 3.109115 1_555
Al0 Tm0 3.243841 1_565
Al0 Tm0 3.243845 1_665
Al1 Ni1 2.440615 1_555
Al1 Ni0 2.478911 1_655
Al1 Ni0 2.478911 1_555
Al1 Tm0 3.035558 1_555
Al1 Tm0 3.035558 1_655
Al1 Tm1 3.109115 1_555
Al1 Tm1 3.243841 1_545
Al1 Tm1 3.243845 1_445
Al2 Ni0 2.440615 1_556
Al2 Ni1 2.478911 1_455
Al2 Ni1 2.478911 1_555
Al2 Tm1 3.035558 1_556
Al2 Tm1 3.035558 1_456
Al2 Tm0 3.109115 1_555
Al2 Tm0 3.243841 1_565
Al2 Tm0 3.243845 1_665
Al3 Ni1 2.440615 1_554
Al3 Ni0 2.478911 1_655
Al3 Ni0 2.478911 1_555
Al3 Tm0 3.035558 1_554
Al3 Tm0 3.035558 1_654
Al3 Tm1 3.109115 1_555
Al3 Tm1 3.243841 1_545
Al3 Tm1 3.243845 1_445
Ni0 Tm1 2.752276 1_445
Ni0 Tm1 2.997865 1_555
Ni0 Tm1 2.997870 1_455
Ni1 Tm0 2.752276 1_665
Ni1 Tm0 2.997865 1_555
Ni1 Tm0 2.997870 1_655
