# generated using pymatgen
data_Be13Sb
_symmetry_space_group_name_H-M   'P 1'
_cell_length_a   7.26625615
_cell_length_b   7.26625615
_cell_length_c   7.26625615
_cell_angle_alpha   60.00000000
_cell_angle_beta   60.00000000
_cell_angle_gamma   60.00000000
_symmetry_Int_Tables_number   1
_chemical_formula_structural   Be13Sb
_chemical_formula_sum   'Be26 Sb2'
_cell_volume   271.27958565
_cell_formula_units_Z   2
loop_
 _symmetry_equiv_pos_site_id
 _symmetry_equiv_pos_as_xyz
  1  'x, y, z'
loop_
 _atom_site_type_symbol
 _atom_site_label
 _atom_site_symmetry_multiplicity
 _atom_site_fract_x
 _atom_site_fract_y
 _atom_site_fract_z
 _atom_site_occupancy
  Be  Be0  1  0.71318400  0.93272200  0.28681600  1
  Be  Be1  1  0.93272200  0.71318400  0.06727800  1
  Be  Be2  1  0.00000000  0.00000000  0.00000000  1
  Be  Be3  1  0.50000000  0.50000000  0.50000000  1
  Be  Be4  1  0.06727800  0.28681600  0.93272200  1
  Be  Be5  1  0.78681600  0.56727800  0.43272200  1
  Be  Be6  1  0.56727800  0.78681600  0.21318400  1
  Be  Be7  1  0.21318400  0.56727800  0.78681600  1
  Be  Be8  1  0.78681600  0.43272200  0.21318400  1
  Be  Be9  1  0.56727800  0.43272200  0.78681600  1
  Be  Be10  1  0.21318400  0.78681600  0.43272200  1
  Be  Be11  1  0.93272200  0.06727800  0.28681600  1
  Be  Be12  1  0.28681600  0.93272200  0.06727800  1
  Be  Be13  1  0.06727800  0.71318400  0.28681600  1
  Be  Be14  1  0.06727800  0.93272200  0.71318400  1
  Be  Be15  1  0.28681600  0.71318400  0.93272200  1
  Be  Be16  1  0.71318400  0.06727800  0.93272200  1
  Be  Be17  1  0.71318400  0.28681600  0.06727800  1
  Be  Be18  1  0.93272200  0.28681600  0.71318400  1
  Be  Be19  1  0.43272200  0.78681600  0.56727800  1
  Be  Be20  1  0.43272200  0.21318400  0.78681600  1
  Be  Be21  1  0.78681600  0.21318400  0.56727800  1
  Be  Be22  1  0.43272200  0.56727800  0.21318400  1
  Be  Be23  1  0.21318400  0.43272200  0.56727800  1
  Be  Be24  1  0.56727800  0.21318400  0.43272200  1
  Be  Be25  1  0.28681600  0.06727800  0.71318400  1
  Sb  Sb0  1  0.75000000  0.75000000  0.75000000  1
  Sb  Sb1  1  0.25000000  0.25000000  0.25000000  1
loop_
_geom_bond_atom_site_label_1
_geom_bond_atom_site_label_2
_geom_bond_distance
_geom_bond_site_symmetry_2
Be0 Be2 2.140646 1_665
Be0 Be5 2.189231 1_555
Be0 Be6 2.189231 1_555
Be0 Be17 2.249518 1_565
Be0 Be13 2.249518 1_655
Be0 Be11 2.249518 1_565
Be0 Be16 2.249518 1_564
Be0 Be1 2.255981 1_555
Be0 Be24 2.297189 1_565
Be0 Be19 2.297189 1_555
Be0 Sb0 3.039465 1_555
Be0 Sb1 3.039465 1_565
Be1 Be2 2.140646 1_665
Be1 Be5 2.189231 1_555
Be1 Be6 2.189231 1_555
Be1 Be15 2.249518 1_654
Be1 Be16 2.249518 1_564
Be1 Be13 2.249518 1_655
Be1 Be14 2.249518 1_654
Be1 Be7 2.297189 1_654
Be1 Be8 2.297189 1_555
Be1 Sb1 3.039465 1_655
Be1 Sb0 3.039465 1_554
Be2 Be25 2.140646 1_554
Be2 Be4 2.140646 1_554
Be3 Be5 2.140646 1_555
Be3 Be9 2.140646 1_555
Be3 Be8 2.140646 1_555
Be3 Be7 2.140646 1_555
Be3 Be6 2.140646 1_555
Be4 Be7 2.297189 1_555
Be4 Be8 2.297189 1_456
Be4 Sb1 3.039465 1_556
Be4 Sb0 3.039465 1_455
Be5 Be8 2.249518 1_555
Be5 Be9 2.249518 1_555
Be5 Be6 2.255981 1_555
Be5 Sb1 3.039465 1_655
Be5 Sb0 3.039465 1_555
Be6 Be8 2.249518 1_555
Be6 Sb1 3.039465 1_565
Be6 Sb0 3.039465 1_554
Be7 Be9 2.249518 1_555
Be7 Sb0 3.039465 1_455
Be7 Sb1 3.039465 1_556
Be8 Sb1 3.039465 1_655
Be8 Sb0 3.039465 1_554
Be9 Sb1 3.039465 1_556
Be9 Sb0 3.039465 1_555
Be10 Be3 2.140646 1_555
Be10 Be13 2.189231 1_555
Be10 Be12 2.189231 1_555
Be10 Be6 2.249518 1_555
Be10 Be7 2.249518 1_555
Be10 Be19 2.249518 1_555
Be10 Be23 2.249518 1_555
Be10 Be22 2.255981 1_555
Be10 Be11 2.297189 1_465
Be10 Be14 2.297189 1_555
Be10 Sb1 3.039465 1_565
Be10 Sb0 3.039465 1_455
Be11 Be2 2.140646 1_655
Be11 Be8 2.189231 1_555
Be11 Be24 2.189231 1_555
Be11 Be12 2.249518 1_645
Be11 Be4 2.249518 1_654
Be11 Be13 2.249518 1_645
Be11 Be17 2.255981 1_555
Be11 Be21 2.297189 1_555
Be11 Sb1 3.039465 1_655
Be11 Sb0 3.039465 1_545
Be12 Be2 2.140646 1_565
Be12 Be22 2.189231 1_555
Be12 Be4 2.249518 1_564
Be12 Be15 2.249518 1_554
Be12 Be25 2.249518 1_564
Be12 Be13 2.255981 1_555
Be12 Be6 2.297189 1_555
Be12 Be20 2.297189 1_564
Be12 Sb1 3.039465 1_565
Be12 Sb0 3.039465 1_554
Be13 Be2 2.140646 1_565
Be13 Be22 2.189231 1_555
Be13 Be15 2.249518 1_554
Be13 Be23 2.297189 1_555
Be13 Be5 2.297189 1_455
Be13 Sb0 3.039465 1_455
Be13 Sb1 3.039465 1_555
Be14 Be2 2.140646 1_566
Be14 Be19 2.189231 1_555
Be14 Be7 2.189231 1_555
Be14 Be25 2.249518 1_565
Be14 Be18 2.249518 1_465
Be14 Be16 2.249518 1_465
Be14 Be15 2.255981 1_555
Be14 Be21 2.297189 1_465
Be14 Sb1 3.039465 1_565
Be14 Sb0 3.039465 1_455
Be15 Be2 2.140646 1_566
Be15 Be19 2.189231 1_555
Be15 Be7 2.189231 1_555
Be15 Be25 2.249518 1_565
Be15 Be22 2.297189 1_556
Be15 Be9 2.297189 1_555
Be15 Sb0 3.039465 1_555
Be15 Sb1 3.039465 1_556
Be16 Be2 2.140646 1_656
Be16 Be9 2.189231 1_555
Be16 Be21 2.189231 1_555
Be16 Be17 2.249518 1_556
Be16 Be18 2.255981 1_555
Be16 Be6 2.297189 1_546
Be16 Be20 2.297189 1_555
Be16 Sb1 3.039465 1_556
Be16 Sb0 3.039465 1_545
Be17 Be2 2.140646 1_655
Be17 Be8 2.189231 1_555
Be17 Be24 2.189231 1_555
Be17 Be4 2.249518 1_654
Be17 Be18 2.249518 1_554
Be17 Be22 2.297189 1_555
Be17 Be9 2.297189 1_554
Be17 Sb0 3.039465 1_554
Be17 Sb1 3.039465 1_555
Be18 Be2 2.140646 1_656
Be18 Be9 2.189231 1_555
Be18 Be21 2.189231 1_555
Be18 Be25 2.249518 1_655
Be18 Be4 2.249518 1_655
Be18 Be23 2.297189 1_655
Be18 Be5 2.297189 1_555
Be18 Sb1 3.039465 1_655
Be18 Sb0 3.039465 1_555
Be19 Be3 2.140646 1_555
Be19 Be6 2.249518 1_555
Be19 Be5 2.249518 1_555
Be19 Be9 2.249518 1_555
Be19 Be7 2.255981 1_555
Be19 Be25 2.297189 1_565
Be19 Sb1 3.039465 1_565
Be19 Sb0 3.039465 1_555
Be20 Be3 2.140646 1_555
Be20 Be25 2.189231 1_555
Be20 Be4 2.189231 1_555
Be20 Be7 2.249518 1_555
Be20 Be24 2.249518 1_555
Be20 Be9 2.249518 1_555
Be20 Be21 2.249518 1_555
Be20 Be23 2.255981 1_555
Be20 Sb1 3.039465 1_556
Be20 Sb0 3.039465 1_545
Be21 Be3 2.140646 1_555
Be21 Be8 2.249518 1_555
Be21 Be5 2.249518 1_555
Be21 Be24 2.249518 1_555
Be21 Be9 2.255981 1_555
Be21 Sb1 3.039465 1_655
Be21 Sb0 3.039465 1_545
Be22 Be3 2.140646 1_555
Be22 Be23 2.249518 1_555
Be22 Be24 2.249518 1_555
Be22 Be8 2.249518 1_555
Be22 Be6 2.249518 1_555
Be22 Sb1 3.039465 1_555
Be22 Sb0 3.039465 1_554
Be23 Be3 2.140646 1_555
Be23 Be25 2.189231 1_555
Be23 Be4 2.189231 1_555
Be23 Be24 2.249518 1_555
Be23 Be7 2.249518 1_555
Be23 Sb1 3.039465 1_555
Be23 Sb0 3.039465 1_455
Be24 Be3 2.140646 1_555
Be24 Be8 2.255981 1_555
Be24 Be25 2.297189 1_555
Be24 Sb1 3.039465 1_555
Be24 Sb0 3.039465 1_545
Be25 Be4 2.255981 1_555
Be25 Sb0 3.039465 1_545
Be25 Sb1 3.039465 1_555
