# generated using pymatgen
data_TiMnCr
_symmetry_space_group_name_H-M   'P 1'
_cell_length_a   5.05683574
_cell_length_b   5.05683794
_cell_length_c   7.53170150
_cell_angle_alpha   90.00024073
_cell_angle_beta   89.99975927
_cell_angle_gamma   120.71295227
_symmetry_Int_Tables_number   1
_chemical_formula_structural   TiMnCr
_chemical_formula_sum   'Ti4 Mn4 Cr4'
_cell_volume   165.58329363
_cell_formula_units_Z   4
loop_
 _symmetry_equiv_pos_site_id
 _symmetry_equiv_pos_as_xyz
  1  'x, y, z'
loop_
 _atom_site_type_symbol
 _atom_site_label
 _atom_site_symmetry_multiplicity
 _atom_site_fract_x
 _atom_site_fract_y
 _atom_site_fract_z
 _atom_site_occupancy
  Ti  Ti0  1  0.33321239  0.66678661  0.18952676  1
  Ti  Ti1  1  0.66611357  0.33388643  0.31219736  1
  Ti  Ti2  1  0.66611314  0.33388686  0.68780079  1
  Ti  Ti3  1  0.33321240  0.66678660  0.81047370  1
  Mn  Mn0  1  0.83084895  0.16915105  -0.00000472  1
  Mn  Mn1  1  0.16918302  0.33995334  0.50000538  1
  Mn  Mn2  1  0.66004666  0.83081698  0.50000538  1
  Mn  Mn3  1  0.16989894  0.83010106  0.50000321  1
  Cr  Cr0  1  0.00041747  -0.00041647  0.24743557  1
  Cr  Cr1  1  0.00041845  -0.00041745  0.75256401  1
  Cr  Cr2  1  0.82677454  0.65618554  -0.00000272  1
  Cr  Cr3  1  0.34381446  0.17322546  -0.00000272  1
loop_
_geom_bond_atom_site_label_1
_geom_bond_atom_site_label_2
_geom_bond_distance
_geom_bond_site_symmetry_2
Ti0 Ti3 2.854915 1_554
Ti0 Ti1 3.044107 1_455
Ti0 Ti1 3.044112 1_565
Ti0 Ti1 3.068593 1_555
Ti1 Ti2 2.828933 1_555
Ti2 Ti3 3.044119 1_655
Ti2 Ti3 3.044124 1_545
Ti2 Ti3 3.068586 1_555
Mn0 Ti2 2.761465 1_554
Mn0 Ti1 2.761499 1_555
Mn0 Ti3 2.879854 1_654
Mn0 Ti3 2.879859 1_544
Mn0 Ti0 2.879892 1_655
Mn0 Ti0 2.879896 1_545
Mn1 Mn2 2.455420 1_555
Mn1 Mn3 2.476751 1_555
Mn1 Mn2 2.546825 1_445
Mn1 Mn3 2.580091 1_545
Mn1 Ti3 2.736261 1_555
Mn1 Ti0 2.736334 1_555
Mn1 Ti2 2.897139 1_455
Mn1 Ti1 2.897193 1_455
Mn1 Ti2 2.897401 1_555
Mn1 Ti1 2.897440 1_555
Mn2 Mn3 2.476749 1_555
Mn2 Mn3 2.580090 1_655
Mn2 Ti3 2.736263 1_555
Mn2 Ti0 2.736335 1_555
Mn2 Ti2 2.897140 1_565
Mn2 Ti1 2.897194 1_565
Mn2 Ti2 2.897402 1_555
Mn2 Ti1 2.897441 1_555
Mn3 Ti3 2.743857 1_555
Mn3 Ti0 2.743884 1_555
Mn3 Ti2 2.873560 1_455
Mn3 Ti2 2.873560 1_565
Mn3 Ti1 2.873591 1_455
Mn3 Ti1 2.873591 1_565
Cr0 Mn0 2.386378 1_455
Cr0 Cr3 2.387895 1_555
Cr0 Cr2 2.387898 1_445
Cr0 Mn1 2.410197 1_555
Cr0 Mn2 2.410199 1_445
Cr0 Mn3 2.416190 1_545
Cr0 Ti0 2.933583 1_555
Cr0 Ti0 2.933591 1_445
Cr0 Ti1 2.935103 1_555
Cr0 Ti1 2.935109 1_445
Cr0 Ti0 2.957607 1_545
Cr0 Ti1 2.978729 1_455
Cr1 Mn0 2.386319 1_456
Cr1 Cr3 2.387868 1_556
Cr1 Cr2 2.387871 1_446
Cr1 Mn1 2.410139 1_555
Cr1 Mn2 2.410141 1_445
Cr1 Mn3 2.416133 1_545
Cr1 Ti3 2.933587 1_555
Cr1 Ti3 2.933594 1_445
Cr1 Ti2 2.935097 1_555
Cr1 Ti2 2.935102 1_445
Cr1 Ti3 2.957604 1_545
Cr1 Ti2 2.978747 1_455
Cr2 Cr3 2.415885 1_555
Cr2 Mn0 2.473441 1_555
Cr2 Mn0 2.583521 1_565
Cr2 Cr3 2.586361 1_665
Cr2 Ti2 2.737282 1_554
Cr2 Ti1 2.737313 1_555
Cr2 Ti3 2.899392 1_554
Cr2 Ti0 2.899404 1_555
Cr2 Ti3 2.908395 1_654
Cr2 Ti0 2.908427 1_655
Cr3 Mn0 2.473440 1_555
Cr3 Mn0 2.583520 1_455
Cr3 Ti2 2.737282 1_554
Cr3 Ti1 2.737312 1_555
Cr3 Ti3 2.899391 1_554
Cr3 Ti0 2.899403 1_555
Cr3 Ti3 2.908398 1_544
Cr3 Ti0 2.908430 1_545
