# generated using pymatgen
data_NaV5O8
_symmetry_space_group_name_H-M   'P 1'
_cell_length_a   3.07211702
_cell_length_b   12.09045493
_cell_length_c   9.08766473
_cell_angle_alpha   94.73065533
_cell_angle_beta   80.26803115
_cell_angle_gamma   97.31148317
_symmetry_Int_Tables_number   1
_chemical_formula_structural   NaV5O8
_chemical_formula_sum   'Na2 V10 O16'
_cell_volume   329.34100378
_cell_formula_units_Z   2
loop_
 _symmetry_equiv_pos_site_id
 _symmetry_equiv_pos_as_xyz
  1  'x, y, z'
loop_
 _atom_site_type_symbol
 _atom_site_label
 _atom_site_symmetry_multiplicity
 _atom_site_fract_x
 _atom_site_fract_y
 _atom_site_fract_z
 _atom_site_occupancy
  Na  Na0  1  0.99907700  0.99720100  0.00183100  1
  Na  Na1  1  0.00345600  0.50270400  0.49813800  1
  V  V0  1  0.49817300  0.75000900  0.75001500  1
  V  V1  1  0.84968700  0.55949200  0.86718300  1
  V  V2  1  0.84983200  0.06053700  0.36772000  1
  V  V3  1  0.15688800  0.43950800  0.13221100  1
  V  V4  1  0.15755300  0.94046200  0.63286900  1
  V  V5  1  0.50280100  0.24999500  0.25003400  1
  V  V6  1  0.79594500  0.71300600  0.11845900  1
  V  V7  1  0.80116800  0.21494100  0.61797800  1
  V  V8  1  0.20316300  0.28506500  0.88203800  1
  V  V9  1  0.20137100  0.78702300  0.38150000  1
  O  O0  1  0.91477200  0.72927800  0.89408700  1
  O  O1  1  0.92103800  0.23048900  0.39432200  1
  O  O2  1  0.08399000  0.26953900  0.10570200  1
  O  O3  1  0.07960300  0.77071100  0.60591000  1
  O  O4  1  0.42603000  0.57542900  0.72492100  1
  O  O5  1  0.42925000  0.07535300  0.22469400  1
  O  O6  1  0.57837300  0.42467500  0.27524800  1
  O  O7  1  0.57574300  0.92452900  0.77517000  1
  O  O8  1  0.30418900  0.81695000  0.16519800  1
  O  O9  1  0.32508400  0.31771900  0.66706800  1
  O  O10  1  0.67396200  0.18230200  0.83294800  1
  O  O11  1  0.65227200  0.68308000  0.33474300  1
  O  O12  1  0.27496700  0.59011700  0.05042200  1
  O  O13  1  0.27407100  0.09025600  0.54913600  1
  O  O14  1  0.73204400  0.40972000  0.95090200  1
  O  O15  1  0.73549800  0.90991000  0.44955400  1
loop_
_geom_bond_atom_site_label_1
_geom_bond_atom_site_label_2
_geom_bond_distance
_geom_bond_site_symmetry_2
Na0 O5 2.639302 1_565
Na0 O5 2.648121 1_665
Na0 O7 2.649028 1_654
Na0 O7 2.650007 1_554
Na1 O6 2.638894 1_455
Na1 O6 2.647979 1_555
Na1 O4 2.649709 1_555
Na1 O4 2.651313 1_455
O0 V0 2.029116 1_555
O0 V6 2.031206 1_556
O0 V0 2.033653 1_655
O0 V1 2.035430 1_555
O1 V7 2.023463 1_555
O1 V5 2.029938 1_655
O1 V5 2.030663 1_555
O1 V2 2.037160 1_555
O2 V8 2.023495 1_554
O2 V5 2.028833 1_455
O2 V5 2.032417 1_555
O2 V3 2.037319 1_555
O3 V0 2.029203 1_455
O3 V9 2.031620 1_555
O3 V0 2.033833 1_555
O3 V4 2.035038 1_555
O4 V1 2.005966 1_455
O4 V1 2.018982 1_555
O4 V0 2.091655 1_555
O5 V2 2.013963 1_555
O5 V2 2.016207 1_455
O5 V5 2.092481 1_555
O6 V3 2.014148 1_655
O6 V3 2.016199 1_555
O6 V5 2.092880 1_555
O7 V4 2.006421 1_555
O7 V4 2.018960 1_655
O7 V0 2.090964 1_555
O8 V6 1.958170 1_455
O8 V9 1.993215 1_555
O8 V6 2.054349 1_555
O9 V8 1.988672 1_555
O9 V7 1.993989 1_455
O9 V7 2.008202 1_555
O10 V7 1.988644 1_555
O10 V8 1.995609 1_555
O10 V8 2.006358 1_655
O11 V9 1.958250 1_555
O11 V6 1.993073 1_555
O11 V9 2.054306 1_655
O12 V3 1.990928 1_555
O12 V6 2.174679 1_555
O12 V6 2.202922 1_455
O12 V1 2.257900 1_554
O12 V1 2.264444 1_454
O13 V4 1.989316 1_545
O13 V7 2.202657 1_555
O13 V7 2.206629 1_455
O13 V2 2.248109 1_555
O13 V2 2.248398 1_455
O14 V1 1.989018 1_555
O14 V8 2.202564 1_655
O14 V8 2.206340 1_555
O14 V3 2.246435 1_556
O14 V3 2.248895 1_656
O15 V2 1.991302 1_565
O15 V9 2.174574 1_655
O15 V9 2.203069 1_555
O15 V4 2.258255 1_655
O15 V4 2.264860 1_555
