# generated using pymatgen
data_Fe2O3
_symmetry_space_group_name_H-M   'P 1'
_cell_length_a   10.68395234
_cell_length_b   9.80278411
_cell_length_c   10.67025607
_cell_angle_alpha   96.54510608
_cell_angle_beta   91.44888926
_cell_angle_gamma   101.08004958
_symmetry_Int_Tables_number   1
_chemical_formula_structural   Fe2O3
_chemical_formula_sum   'Fe32 O48'
_cell_volume   1088.26652461
_cell_formula_units_Z   16
loop_
 _symmetry_equiv_pos_site_id
 _symmetry_equiv_pos_as_xyz
  1  'x, y, z'
loop_
 _atom_site_type_symbol
 _atom_site_label
 _atom_site_symmetry_multiplicity
 _atom_site_fract_x
 _atom_site_fract_y
 _atom_site_fract_z
 _atom_site_occupancy
  Fe  Fe0  1  0.17618877  0.79174961  0.04376516  1
  Fe  Fe1  1  0.55890547  0.44637530  0.82261734  1
  Fe  Fe2  1  0.67887522  0.79432135  0.79165312  1
  Fe  Fe3  1  0.95265287  0.15818371  0.42044107  1
  Fe  Fe4  1  0.44232702  0.37834127  0.33011021  1
  Fe  Fe5  1  0.41893458  0.69629382  0.87602090  1
  Fe  Fe6  1  0.56312746  0.05303687  0.77764403  1
  Fe  Fe7  1  0.69963451  0.69525100  0.05281331  1
  Fe  Fe8  1  0.10496730  0.43227746  0.59435898  1
  Fe  Fe9  1  0.13299584  0.66493162  0.76588254  1
  Fe  Fe10  1  0.88637967  0.76258093  0.22563587  1
  Fe  Fe11  1  0.24308390  0.35164563  0.90751015  1
  Fe  Fe12  1  0.81454660  0.31728950  0.68362795  1
  Fe  Fe13  1  0.16590569  0.34026176  0.32006487  1
  Fe  Fe14  1  0.07412522  0.16098181  0.07144971  1
  Fe  Fe15  1  0.27322691  0.88295806  0.64198297  1
  Fe  Fe16  1  0.14564859  0.15030274  0.62260959  1
  Fe  Fe17  1  0.65118663  0.55472120  0.58516705  1
  Fe  Fe18  1  0.48484339  0.75445993  0.55502602  1
  Fe  Fe19  1  0.42956579  0.21188382  0.01374873  1
  Fe  Fe20  1  0.64705364  0.70683620  0.35182500  1
  Fe  Fe21  1  0.69143913  0.41136284  0.14179943  1
  Fe  Fe22  1  0.33658471  0.60968200  0.15516786  1
  Fe  Fe23  1  0.63443069  0.17489034  0.35898996  1
  Fe  Fe24  1  0.63332793  0.98274300  0.07941363  1
  Fe  Fe25  1  0.99497370  0.85940888  0.87489670  1
  Fe  Fe26  1  0.84892644  0.11416944  0.84570752  1
  Fe  Fe27  1  0.87671544  0.44270860  0.40183401  1
  Fe  Fe28  1  0.18634387  0.65974980  0.39131361  1
  Fe  Fe29  1  0.44454036  0.87478591  0.30385726  1
  Fe  Fe30  1  0.96852426  0.47392836  0.99067789  1
  Fe  Fe31  1  0.78370694  0.94602830  0.53064069  1
  O  O0  1  0.79606668  0.56730197  0.49125186  1
  O  O1  1  0.75958168  0.86623621  0.14996801  1
  O  O2  1  0.67263583  0.40710114  0.69160373  1
  O  O3  1  0.91130463  0.32206949  0.53208905  1
  O  O4  1  0.74558946  0.32559570  0.29393424  1
  O  O5  1  0.77063101  0.08939236  0.41914400  1
  O  O6  1  0.44863630  0.87300009  0.70450392  1
  O  O7  1  0.42314733  0.30950228  0.86419475  1
  O  O8  1  0.84818155  0.39020722  0.08784148  1
  O  O9  1  0.99834322  0.52836275  0.69711457  1
  O  O10  1  0.50845856  0.34027914  0.16109436  1
  O  O11  1  0.55085806  0.09766905  0.96139172  1
  O  O12  1  0.28703656  0.07088656  0.63573454  1
  O  O13  1  0.06478309  0.47762989  0.39780801  1
  O  O14  1  0.73446004  0.10743732  0.69484016  1
  O  O15  1  0.33568851  0.54318792  0.98185756  1
  O  O16  1  0.16066062  0.32165089  0.73629770  1
  O  O17  1  0.08526430  0.94207802  0.03056103  1
  O  O18  1  0.88582821  0.31272503  0.84410964  1
  O  O19  1  0.53947730  0.03304454  0.23422101  1
  O  O20  1  0.30688816  0.80644094  0.17538941  1
  O  O21  1  0.87086445  0.68553445  0.04106495  1
  O  O22  1  0.97343735  0.04772346  0.55764895  1
  O  O23  1  0.05370528  0.70346681  0.25236426  1
  O  O24  1  0.64020220  0.50821632  0.98357596  1
  O  O25  1  0.68315276  0.77601068  0.60801698  1
  O  O26  1  0.14457632  0.26692643  0.48548679  1
  O  O27  1  0.52167535  0.27905751  0.43756022  1
  O  O28  1  0.10249991  0.84756025  0.72328653  1
  O  O29  1  0.09524326  0.62353916  0.13887997  1
  O  O30  1  0.90702000  0.10967395  0.00287019  1
  O  O31  1  0.10046190  0.36229570  0.01902296  1
  O  O32  1  0.59871978  0.79293432  0.95532952  1
  O  O33  1  0.32927103  0.81085581  0.46334847  1
  O  O34  1  0.84933844  0.91780207  0.81176047  1
  O  O35  1  0.53297921  0.60448625  0.73780355  1
  O  O36  1  0.28583506  0.24207005  0.27858693  1
  O  O37  1  0.03686564  0.66939404  0.90937014  1
  O  O38  1  0.02707952  0.19498563  0.25357690  1
  O  O39  1  0.82765341  0.82073368  0.38917145  1
  O  O40  1  0.24788436  0.18505974  0.99916285  1
  O  O41  1  0.72999790  0.60419256  0.22399574  1
  O  O42  1  0.23120592  0.61999568  0.62915236  1
  O  O43  1  0.57863148  0.87344560  0.43811962  1
  O  O44  1  0.29408491  0.50594496  0.29850317  1
  O  O45  1  0.26647265  0.77568342  0.88463416  1
  O  O46  1  0.50713405  0.70561976  0.22182100  1
  O  O47  1  0.52483925  0.57572112  0.45054503  1
loop_
_geom_bond_atom_site_label_1
_geom_bond_atom_site_label_2
_geom_bond_distance
_geom_bond_site_symmetry_2
Fe0 O20 1.928878 1_555
Fe0 O17 1.930227 1_555
Fe0 O45 1.979542 1_554
Fe0 O29 2.091576 1_555
Fe0 O37 2.127081 1_554
Fe1 O7 1.876451 1_555
Fe1 O24 1.885853 1_555
Fe1 O2 1.929232 1_555
Fe1 O35 1.941675 1_555
Fe2 O25 1.949675 1_555
Fe2 O32 1.964763 1_555
Fe2 O34 1.975295 1_555
Fe2 O35 2.195193 1_555
Fe3 O5 1.931140 1_555
Fe3 O22 1.950028 1_555
Fe3 O38 2.010059 1_655
Fe3 O3 2.014554 1_555
Fe3 O26 2.177571 1_655
Fe4 O27 1.871572 1_555
Fe4 O36 1.951864 1_555
Fe4 O10 1.975650 1_555
Fe4 O47 2.211910 1_555
Fe4 O44 2.239981 1_555
Fe5 O45 1.935436 1_555
Fe5 O15 2.059871 1_555
Fe5 O32 2.082968 1_555
Fe5 O35 2.163193 1_555
Fe5 O6 2.644133 1_555
Fe6 O11 1.972861 1_555
Fe6 O6 2.006995 1_545
Fe6 O14 2.056645 1_555
Fe7 O21 1.856714 1_555
Fe7 O1 1.857951 1_555
Fe7 O24 1.878983 1_554
Fe7 O32 1.930940 1_554
Fe7 O41 2.165956 1_555
Fe8 O9 1.904516 1_455
Fe8 O26 2.003790 1_555
Fe8 O42 2.051363 1_555
Fe8 O16 2.097792 1_555
Fe8 O3 2.190294 1_455
Fe8 O13 2.240717 1_555
Fe9 O9 1.839219 1_455
Fe9 O37 1.866113 1_555
Fe9 O42 1.879386 1_555
Fe9 O45 1.953928 1_555
Fe9 O28 1.979901 1_555
Fe10 O39 1.931221 1_555
Fe10 O23 2.005760 1_655
Fe10 O21 2.018118 1_555
Fe10 O1 2.044600 1_555
Fe10 O41 2.048843 1_555
Fe11 O31 1.968012 1_556
Fe11 O16 1.973849 1_555
Fe11 O40 2.004860 1_555
Fe11 O15 2.010094 1_555
Fe11 O7 2.095748 1_555
Fe12 O18 1.865168 1_555
Fe12 O2 1.893046 1_555
Fe12 O3 1.941286 1_555
Fe12 O14 2.088776 1_555
Fe12 O9 2.552269 1_555
Fe13 O36 1.780385 1_555
Fe13 O38 1.906807 1_555
Fe13 O44 1.952551 1_555
Fe13 O26 1.982660 1_555
Fe13 O13 2.004628 1_555
Fe14 O30 1.865687 1_455
Fe14 O40 2.010595 1_554
Fe14 O38 2.026439 1_555
Fe14 O31 2.081529 1_555
Fe14 O17 2.167166 1_545
Fe15 O12 1.828667 1_565
Fe15 O6 1.997155 1_555
Fe15 O28 2.026205 1_555
Fe15 O33 2.098685 1_555
Fe15 O42 2.517297 1_555
Fe16 O12 1.836762 1_555
Fe16 O16 1.934101 1_555
Fe16 O26 1.957908 1_555
Fe16 O22 1.985528 1_455
Fe17 O0 1.857047 1_555
Fe17 O2 1.981254 1_555
Fe17 O47 2.001033 1_555
Fe17 O25 2.114759 1_555
Fe17 O35 2.155277 1_555
Fe18 O6 1.955842 1_555
Fe18 O43 1.966282 1_555
Fe18 O47 2.088543 1_555
Fe18 O33 2.102252 1_555
Fe18 O25 2.143244 1_555
Fe18 O35 2.668892 1_555
Fe19 O40 1.907971 1_554
Fe19 O11 1.922668 1_554
Fe19 O7 1.958251 1_554
Fe19 O10 1.959739 1_555
Fe20 O41 1.936264 1_555
Fe20 O46 2.010875 1_555
Fe20 O39 2.039630 1_555
Fe20 O47 2.049304 1_555
Fe20 O43 2.049341 1_555
Fe21 O8 1.825896 1_555
Fe21 O41 1.953593 1_555
Fe21 O10 1.969584 1_555
Fe21 O4 2.031586 1_555
Fe21 O24 2.137718 1_554
Fe22 O15 1.888561 1_554
Fe22 O44 1.947210 1_555
Fe22 O46 1.958009 1_555
Fe22 O20 2.002806 1_555
Fe22 O29 2.610472 1_555
Fe23 O27 1.877637 1_555
Fe23 O4 1.917267 1_555
Fe23 O19 1.924192 1_555
Fe23 O5 1.943213 1_555
Fe24 O19 2.016237 1_565
Fe24 O11 2.068892 1_564
Fe24 O1 2.104143 1_555
Fe24 O32 2.121544 1_554
Fe25 O34 1.892023 1_555
Fe25 O17 1.912535 1_656
Fe25 O28 2.013130 1_655
Fe25 O37 2.067242 1_655
Fe26 O30 1.781604 1_556
Fe26 O18 1.912367 1_555
Fe26 O34 1.918601 1_545
Fe26 O14 1.984089 1_555
Fe27 O0 1.823431 1_555
Fe27 O4 1.898708 1_555
Fe27 O13 1.974761 1_655
Fe27 O3 1.995873 1_555
Fe28 O33 1.982027 1_555
Fe28 O13 2.005081 1_555
Fe28 O23 2.159174 1_555
Fe28 O44 2.227844 1_555
Fe28 O42 2.656646 1_555
Fe29 O19 1.919313 1_565
Fe29 O20 1.949552 1_555
Fe29 O43 2.003172 1_555
Fe29 O46 2.021966 1_555
Fe29 O33 2.204099 1_555
Fe30 O8 1.804811 1_556
Fe30 O31 1.980605 1_656
Fe30 O18 2.133942 1_555
Fe30 O37 2.197850 1_655
Fe30 O29 2.254857 1_656
Fe30 O21 2.507305 1_556
Fe31 O39 1.960223 1_555
Fe31 O5 1.964223 1_565
Fe31 O25 2.069751 1_555
Fe31 O22 2.077047 1_565
Fe31 O43 2.326522 1_555
Fe31 O14 2.363192 1_565
O23 O29 1.490527 1_555
