# generated using pymatgen
data_NbCr3(AgS4)2
_symmetry_space_group_name_H-M   'P 1'
_cell_length_a   6.97332400
_cell_length_b   6.00381600
_cell_length_c   6.51599292
_cell_angle_alpha   88.81060379
_cell_angle_beta   90.00000000
_cell_angle_gamma   90.00000000
_symmetry_Int_Tables_number   1
_chemical_formula_structural   NbCr3(AgS4)2
_chemical_formula_sum   'Nb1 Cr3 Ag2 S8'
_cell_volume   272.74339349
_cell_formula_units_Z   1
loop_
 _symmetry_equiv_pos_site_id
 _symmetry_equiv_pos_as_xyz
  1  'x, y, z'
loop_
 _atom_site_type_symbol
 _atom_site_label
 _atom_site_symmetry_multiplicity
 _atom_site_fract_x
 _atom_site_fract_y
 _atom_site_fract_z
 _atom_site_occupancy
  Nb  Nb0  1  0.00000000  0.50000000  0.50000000  1
  Cr  Cr0  1  0.50000000  0.50000000  0.50000000  1
  Cr  Cr1  1  0.25005300  0.00000000  0.50000000  1
  Cr  Cr2  1  0.74994700  0.00000000  0.50000000  1
  Ag  Ag0  1  0.25260400  0.00000000  0.00000000  1
  Ag  Ag1  1  0.74739600  0.00000000  0.00000000  1
  S  S0  1  0.25595200  0.32718200  0.71388000  1
  S  S1  1  0.74404800  0.32718200  0.71388000  1
  S  S2  1  0.50000000  0.82878900  0.70307000  1
  S  S3  1  0.00000000  0.83528400  0.71629400  1
  S  S4  1  0.50000000  0.17121100  0.29693000  1
  S  S5  1  0.00000000  0.16471600  0.28370600  1
  S  S6  1  0.74404800  0.67281800  0.28612000  1
  S  S7  1  0.25595200  0.67281800  0.28612000  1
loop_
_geom_bond_atom_site_label_1
_geom_bond_atom_site_label_2
_geom_bond_distance
_geom_bond_site_symmetry_2
Nb0 S6 2.478788 1_455
Nb0 S1 2.478788 1_455
Nb0 S0 2.478788 1_555
Nb0 S7 2.478788 1_555
Nb0 S3 2.481170 1_555
Nb0 S5 2.481170 1_555
Cr0 S4 2.399152 1_555
Cr0 S2 2.399152 1_555
Cr0 S0 2.419703 1_555
Cr0 S7 2.419703 1_555
Cr0 S6 2.419703 1_555
Cr0 S1 2.419703 1_555
Cr1 S2 2.406020 1_545
Cr1 S4 2.406020 1_555
Cr1 S0 2.432326 1_555
Cr1 S7 2.432326 1_545
Cr1 S3 2.438632 1_545
Cr1 S5 2.438632 1_555
Cr2 S2 2.406020 1_545
Cr2 S4 2.406020 1_555
Cr2 S6 2.432326 1_545
Cr2 S1 2.432326 1_555
Cr2 S3 2.438632 1_645
Cr2 S5 2.438632 1_655
Ag0 S7 2.680105 1_545
Ag0 S0 2.680105 1_554
Ag0 S5 2.752114 1_555
Ag0 S3 2.752114 1_544
Ag0 S4 2.803361 1_555
Ag0 S2 2.803361 1_544
Ag1 S6 2.680105 1_545
Ag1 S1 2.680105 1_554
Ag1 S3 2.752114 1_644
Ag1 S5 2.752114 1_655
Ag1 S2 2.803361 1_544
Ag1 S4 2.803361 1_555
