# generated using pymatgen
data_Na2ZrCo(P2O7)2
_symmetry_space_group_name_H-M   'P 1'
_cell_length_a   6.62000800
_cell_length_b   6.63156680
_cell_length_c   6.97699692
_cell_angle_alpha   66.40156192
_cell_angle_beta   85.36784922
_cell_angle_gamma   82.26119527
_symmetry_Int_Tables_number   1
_chemical_formula_structural   Na2ZrCo(P2O7)2
_chemical_formula_sum   'Na2 Zr1 Co1 P4 O14'
_cell_volume   278.00476130
_cell_formula_units_Z   1
loop_
 _symmetry_equiv_pos_site_id
 _symmetry_equiv_pos_as_xyz
  1  'x, y, z'
loop_
 _atom_site_type_symbol
 _atom_site_label
 _atom_site_symmetry_multiplicity
 _atom_site_fract_x
 _atom_site_fract_y
 _atom_site_fract_z
 _atom_site_occupancy
  Na  Na0  1  0.26736100  0.17135600  0.41169200  1
  Na  Na1  1  0.51156900  0.59228200  0.06604700  1
  Zr  Zr0  1  0.00601700  0.97658400  0.00637900  1
  Co  Co0  1  0.69242900  0.77981700  0.46451700  1
  P  P0  1  0.21882700  0.67285900  0.45945800  1
  P  P1  1  0.96830400  0.53639500  0.86718600  1
  P  P2  1  0.49184200  0.11903900  0.97251000  1
  P  P3  1  0.73136000  0.24427400  0.56009000  1
  O  O0  1  0.55525500  0.25714900  0.73448000  1
  O  O1  1  0.29434200  0.51781400  0.35621000  1
  O  O2  1  0.75991200  0.63605800  0.77482600  1
  O  O3  1  0.32434500  0.97846800  0.96163700  1
  O  O4  1  0.66598000  0.09920100  0.46067300  1
  O  O5  1  0.68260300  0.95248900  0.07600600  1
  O  O6  1  0.04600100  0.67592100  0.97116200  1
  O  O7  1  0.92850200  0.13570000  0.69106800  1
  O  O8  1  0.13110000  0.52467700  0.68940300  1
  O  O9  1  0.02747700  0.83643000  0.34435900  1
  O  O10  1  0.41713600  0.27444500  0.07448000  1
  O  O11  1  0.74604100  0.48438900  0.41385900  1
  O  O12  1  0.37570700  0.80541400  0.49031700  1
  O  O13  1  0.96999100  0.29244000  0.02053900  1
loop_
_geom_bond_atom_site_label_1
_geom_bond_atom_site_label_2
_geom_bond_distance
_geom_bond_site_symmetry_2
Na0 O1 2.201772 1_555
Na0 O12 2.287685 1_545
Na0 O10 2.346013 1_555
Na0 O4 2.642727 1_555
Na0 O7 2.820474 1_455
Na1 O10 2.255337 1_555
Na1 O1 2.308873 1_555
Na1 O2 2.456067 1_554
Na1 O3 2.534349 1_554
Na1 O11 2.780144 1_555
Na1 O5 2.804794 1_555
Co0 O2 2.045664 1_555
Co0 O12 2.079671 1_555
Co0 O4 2.091118 1_565
Co0 O11 2.106190 1_555
Co0 O9 2.331376 1_655
Co0 O5 2.487227 1_555
O0 P2 1.595693 1_555
O0 P3 1.635263 1_555
O1 P0 1.490781 1_555
O2 P1 1.520617 1_555
O3 P2 1.566160 1_565
O3 Zr0 2.106223 1_556
O4 P3 1.512922 1_555
O5 P2 1.571359 1_564
O5 Zr0 2.169657 1_655
O6 P1 1.540396 1_455
O6 Zr0 2.084598 1_556
O7 P3 1.571466 1_555
O7 Zr0 2.096270 1_646
O8 P1 1.595236 1_455
O8 P0 1.617946 1_555
O9 P0 1.588383 1_555
O9 Zr0 2.169879 1_555
O10 P2 1.485190 1_554
O11 P3 1.520146 1_555
O12 P0 1.526818 1_555
O13 P1 1.540574 1_554
O13 Zr0 2.116935 1_645
