# generated using pymatgen
data_NaMn3V4O12
_symmetry_space_group_name_H-M   'P 1'
_cell_length_a   6.48165988
_cell_length_b   6.52276920
_cell_length_c   10.55785922
_cell_angle_alpha   88.78176184
_cell_angle_beta   91.29614904
_cell_angle_gamma   109.10731523
_symmetry_Int_Tables_number   1
_chemical_formula_structural   NaMn3V4O12
_chemical_formula_sum   'Na2 Mn6 V8 O24'
_cell_volume   421.62405609
_cell_formula_units_Z   2
loop_
 _symmetry_equiv_pos_site_id
 _symmetry_equiv_pos_as_xyz
  1  'x, y, z'
loop_
 _atom_site_type_symbol
 _atom_site_label
 _atom_site_symmetry_multiplicity
 _atom_site_fract_x
 _atom_site_fract_y
 _atom_site_fract_z
 _atom_site_occupancy
  Na  Na0  1  0.00020200  0.00020500  0.99982100  1
  Na  Na1  1  0.49979900  0.49975500  0.50018600  1
  Mn  Mn0  1  0.25012100  0.75001100  0.75014000  1
  Mn  Mn1  1  0.49897300  0.50166700  0.00052000  1
  Mn  Mn2  1  0.00098200  0.99840100  0.49953000  1
  Mn  Mn3  1  0.24993500  0.74994100  0.25001000  1
  Mn  Mn4  1  0.74998800  0.24997200  0.74996700  1
  Mn  Mn5  1  0.74998200  0.24991900  0.25000700  1
  V  V0  1  0.74998900  0.74996100  0.25000900  1
  V  V1  1  0.24998400  0.25002200  0.74998600  1
  V  V2  1  0.49979400  0.00144200  0.00014300  1
  V  V3  1  0.00027300  0.49863200  0.49989100  1
  V  V4  1  0.99933500  0.49996400  0.99992800  1
  V  V5  1  0.50061100  0.99998200  0.50007100  1
  V  V6  1  0.25000500  0.24999900  0.25002700  1
  V  V7  1  0.75000200  0.74998100  0.74996500  1
  O  O0  1  0.43784700  0.56669100  0.25443700  1
  O  O1  1  0.93799800  0.06640500  0.75510800  1
  O  O2  1  0.26170600  0.74939300  0.43570100  1
  O  O3  1  0.76208300  0.24911800  0.93600300  1
  O  O4  1  0.23828200  0.75063300  0.06426800  1
  O  O5  1  0.73796900  0.25083000  0.56395700  1
  O  O6  1  0.06212000  0.93329700  0.24552400  1
  O  O7  1  0.56200100  0.43359100  0.74481700  1
  O  O8  1  0.45728700  0.16602400  0.34814400  1
  O  O9  1  0.95235700  0.66445100  0.84954800  1
  O  O10  1  0.84627600  0.53318800  0.35435200  1
  O  O11  1  0.34641900  0.03660400  0.85604000  1
  O  O12  1  0.65370300  0.96671900  0.14561300  1
  O  O13  1  0.15361700  0.46354700  0.64400900  1
  O  O14  1  0.04272600  0.33402700  0.15187500  1
  O  O15  1  0.54765400  0.83560300  0.65045400  1
  O  O16  1  0.09184300  0.27311000  0.40802000  1
  O  O17  1  0.59134400  0.77526700  0.90748600  1
  O  O18  1  0.78042800  0.58458000  0.09039300  1
  O  O19  1  0.28199300  0.08341600  0.59031700  1
  O  O20  1  0.71959200  0.91542900  0.40956000  1
  O  O21  1  0.21800300  0.41659800  0.90969500  1
  O  O22  1  0.40822000  0.22691300  0.09200000  1
  O  O23  1  0.90855300  0.72471400  0.59247700  1
loop_
_geom_bond_atom_site_label_1
_geom_bond_atom_site_label_2
_geom_bond_distance
_geom_bond_site_symmetry_2
Na0 O3 2.649367 1_455
Na0 O1 2.653988 1_455
Na0 O4 2.654123 1_546
Na0 O9 2.662800 1_445
Na0 O6 2.664640 1_546
Na0 O14 2.670231 1_556
Na0 O11 2.680773 1_555
Na0 O12 2.698512 1_446
Na0 O22 2.740881 1_556
Na0 O17 2.743063 1_445
Na0 O21 2.777747 1_555
Na0 O18 2.777840 1_446
Na1 O5 2.649574 1_555
Na1 O7 2.653104 1_555
Na1 O2 2.654625 1_555
Na1 O15 2.663245 1_555
Na1 O0 2.665185 1_555
Na1 O8 2.669696 1_555
Na1 O13 2.681092 1_555
Na1 O10 2.698726 1_555
Na1 O16 2.740425 1_555
Na1 O23 2.742406 1_555
Na1 O19 2.777488 1_555
Na1 O20 2.778311 1_555
Mn0 O11 2.104206 1_565
Mn0 O13 2.104850 1_555
Mn0 O9 2.121197 1_455
Mn0 O15 2.121437 1_555
Mn1 O22 1.937167 1_555
Mn1 O17 1.939256 1_554
Mn1 O18 1.954094 1_555
Mn1 O21 1.956033 1_554
Mn2 O16 1.937090 1_565
Mn2 O23 1.939268 1_455
Mn2 O20 1.954218 1_455
Mn2 O19 1.956066 1_565
Mn3 O2 1.960231 1_555
Mn3 O4 1.960750 1_555
Mn3 O0 1.965340 1_555
Mn3 O6 1.965384 1_555
Mn4 O5 1.963612 1_555
Mn4 O3 1.963895 1_555
Mn4 O1 1.967526 1_555
Mn4 O7 1.967679 1_555
Mn5 O12 2.077816 1_545
Mn5 O10 2.077896 1_555
Mn5 O8 2.087420 1_555
Mn5 O14 2.087595 1_655
O0 V0 1.985717 1_555
O0 V6 2.026492 1_555
O1 V1 1.985755 1_655
O1 V7 2.025575 1_545
O2 V5 1.968251 1_555
O2 V3 2.048497 1_555
O3 V4 1.962198 1_555
O3 V2 2.041136 1_556
O4 V4 1.968583 1_454
O4 V2 2.048725 1_565
O5 V5 1.962409 1_545
O5 V3 2.041353 1_655
O6 V0 1.985795 1_455
O6 V6 2.026651 1_565
O7 V1 1.985855 1_555
O7 V7 2.025403 1_555
O8 V6 1.890213 1_555
O8 V5 1.982326 1_545
O9 V7 1.878471 1_555
O9 V4 1.970836 1_555
O10 V3 1.863164 1_655
O10 V0 2.020588 1_555
O11 V2 1.849760 1_556
O11 V1 2.013460 1_555
O12 V2 1.862560 1_565
O12 V0 2.020800 1_555
O13 V3 1.849633 1_555
O13 V1 2.013341 1_555
O14 V6 1.890568 1_555
O14 V4 1.982231 1_454
O15 V7 1.878336 1_555
O15 V5 1.970586 1_555
O16 V6 2.011303 1_555
O16 V3 2.028628 1_555
O17 V7 2.012628 1_555
O17 V2 2.036255 1_566
O18 V4 1.956148 1_554
O18 V0 2.067413 1_555
O19 V5 1.949337 1_545
O19 V1 2.075369 1_555
O20 V5 1.956576 1_555
O20 V0 2.067091 1_555
O21 V4 1.949302 1_455
O21 V1 2.075553 1_555
O22 V6 2.011753 1_555
O22 V2 2.028291 1_555
O23 V7 2.011916 1_555
O23 V3 2.035970 1_655
