# generated using pymatgen
data_BaSrCaWO6
_symmetry_space_group_name_H-M   'P 1'
_cell_length_a   8.50903514
_cell_length_b   8.57758506
_cell_length_c   8.54044697
_cell_angle_alpha   90.00000000
_cell_angle_beta   90.00000000
_cell_angle_gamma   90.00000000
_symmetry_Int_Tables_number   1
_chemical_formula_structural   BaSrCaWO6
_chemical_formula_sum   'Ba4 Sr4 Ca4 W4 O24'
_cell_volume   623.34136978
_cell_formula_units_Z   4
loop_
 _symmetry_equiv_pos_site_id
 _symmetry_equiv_pos_as_xyz
  1  'x, y, z'
loop_
 _atom_site_type_symbol
 _atom_site_label
 _atom_site_symmetry_multiplicity
 _atom_site_fract_x
 _atom_site_fract_y
 _atom_site_fract_z
 _atom_site_occupancy
  Ba  Ba0  1  -0.00000000  0.00000000  0.00000000  1
  Ba  Ba1  1  0.50000000  0.50000000  0.50000000  1
  Ba  Ba2  1  -0.00000000  0.50000000  -0.00000000  1
  Ba  Ba3  1  -0.00000000  0.00000000  0.50000000  1
  Sr  Sr0  1  0.74485486  0.74979107  0.74534960  1
  Sr  Sr1  1  0.25514514  0.25020893  0.74534960  1
  Sr  Sr2  1  0.25514514  0.74979107  0.25465040  1
  Sr  Sr3  1  0.74485486  0.25020893  0.25465040  1
  Ca  Ca0  1  -0.00000000  0.50000000  0.50000000  1
  Ca  Ca1  1  0.50000000  0.00000000  0.50000000  1
  Ca  Ca2  1  0.50000000  0.50000000  0.00000000  1
  Ca  Ca3  1  0.50000000  0.00000000  0.00000000  1
  W  W0  1  0.25778126  0.25132178  0.24721242  1
  W  W1  1  0.74221874  0.74867822  0.24721242  1
  W  W2  1  0.74221874  0.25132178  0.75278758  1
  W  W3  1  0.25778126  0.74867822  0.75278758  1
  O  O0  1  0.03294877  0.20594876  0.27282004  1
  O  O1  1  0.96705123  0.79405124  0.27282004  1
  O  O2  1  0.96705123  0.20594876  0.72717996  1
  O  O3  1  0.03294877  0.79405124  0.72717996  1
  O  O4  1  0.30583434  0.03080199  0.19750555  1
  O  O5  1  0.30583434  0.96919801  0.80249445  1
  O  O6  1  0.69416566  0.96919801  0.19750555  1
  O  O7  1  0.69416566  0.03080199  0.80249445  1
  O  O8  1  0.22035006  0.28572883  0.02575786  1
  O  O9  1  0.77964994  0.28572883  0.97424214  1
  O  O10  1  0.22035006  0.71427117  0.97424214  1
  O  O11  1  0.77964994  0.71427117  0.02575786  1
  O  O12  1  0.47226169  0.31976062  0.20857608  1
  O  O13  1  0.52773831  0.68023938  0.20857608  1
  O  O14  1  0.52773831  0.31976062  0.79142392  1
  O  O15  1  0.47226169  0.68023938  0.79142392  1
  O  O16  1  0.20350260  0.46669602  0.31163820  1
  O  O17  1  0.20350260  0.53330398  0.68836180  1
  O  O18  1  0.79649740  0.53330398  0.31163820  1
  O  O19  1  0.79649740  0.46669602  0.68836180  1
  O  O20  1  0.30823497  0.19771493  0.46616285  1
  O  O21  1  0.69176503  0.19771493  0.53383715  1
  O  O22  1  0.30823497  0.80228507  0.53383715  1
  O  O23  1  0.69176503  0.80228507  0.46616285  1
loop_
_geom_bond_atom_site_label_1
_geom_bond_atom_site_label_2
_geom_bond_distance
_geom_bond_site_symmetry_2
Ba0 O2 2.937380 1_454
Ba0 O3 2.937380 1_544
Ba0 O1 2.937380 1_445
Ba0 O0 2.937380 1_555
Ba0 O10 3.093642 1_544
Ba0 O11 3.093642 1_445
Ba0 O9 3.093642 1_454
Ba0 O8 3.093642 1_555
Ba0 O5 3.112443 1_544
Ba0 O7 3.112443 1_454
Ba0 O6 3.112443 1_445
Ba0 O4 3.112443 1_555
Ba1 O12 2.939466 1_555
Ba1 O14 2.939466 1_555
Ba1 O13 2.939466 1_555
Ba1 O15 2.939466 1_555
Ba1 O19 3.005755 1_555
Ba1 O18 3.005755 1_555
Ba1 O17 3.005755 1_555
Ba1 O16 3.005755 1_555
Ba1 O20 3.077187 1_555
Ba1 O21 3.077187 1_555
Ba1 O22 3.077187 1_555
Ba1 O23 3.077187 1_555
Ba2 O9 2.634744 1_454
Ba2 O8 2.634744 1_555
Ba2 O11 2.634744 1_455
Ba2 O10 2.634744 1_554
Ba3 O1 2.638887 1_445
Ba3 O3 2.638887 1_545
Ba3 O0 2.638887 1_555
Ba3 O2 2.638887 1_455
Ba3 O20 3.136659 1_555
Ba3 O21 3.136659 1_455
Ba3 O22 3.136659 1_545
Ba3 O23 3.136659 1_445
Ca0 O16 2.380752 1_555
Ca0 O17 2.380752 1_555
Ca0 O18 2.380752 1_455
Ca0 O19 2.380752 1_455
Ca1 O22 2.371119 1_545
Ca1 O23 2.371119 1_545
Ca1 O21 2.371119 1_555
Ca1 O20 2.371119 1_555
Ca2 O15 2.370449 1_554
Ca2 O12 2.370449 1_555
Ca2 O14 2.370449 1_554
Ca2 O13 2.370449 1_555
Ca2 O8 3.014737 1_555
Ca2 O9 3.014737 1_554
Ca2 O10 3.014737 1_554
Ca2 O11 3.014737 1_555
Ca3 O7 2.375856 1_554
Ca3 O6 2.375856 1_545
Ca3 O5 2.375856 1_544
Ca3 O4 2.375856 1_555
O0 W0 1.964505 1_555
O0 Sr3 2.485473 1_455
O1 W1 1.964505 1_555
O1 Sr2 2.485473 1_655
O2 W2 1.964505 1_555
O2 Sr1 2.485473 1_655
O3 W3 1.964505 1_555
O3 Sr0 2.485473 1_455
O4 W0 1.981232 1_555
O4 Sr2 2.496843 1_545
O5 W3 1.981232 1_555
O5 Sr1 2.496843 1_565
O6 W1 1.981232 1_555
O6 Sr3 2.496843 1_565
O7 W2 1.981232 1_555
O7 Sr0 2.496843 1_545
O8 W0 1.940526 1_555
O8 Sr1 2.432203 1_554
O9 W2 1.940526 1_555
O9 Sr3 2.432203 1_556
O10 W3 1.940526 1_555
O10 Sr2 2.432203 1_556
O11 W1 1.940526 1_555
O11 Sr0 2.432203 1_554
O12 W0 1.945302 1_555
O12 Sr3 2.427108 1_555
O13 W1 1.945302 1_555
O13 Sr2 2.427108 1_555
O14 W2 1.945302 1_555
O14 Sr1 2.427108 1_555
O15 W3 1.945302 1_555
O15 Sr0 2.427108 1_555
O16 W0 1.982149 1_555
O16 Sr2 2.515249 1_555
O17 W3 1.982149 1_555
O17 Sr1 2.515249 1_555
O18 W1 1.982149 1_555
O18 Sr3 2.515249 1_555
O19 W2 1.982149 1_555
O19 Sr0 2.515249 1_555
O20 W0 1.972916 1_555
O20 Sr1 2.468215 1_555
O21 W2 1.972916 1_555
O21 Sr3 2.468215 1_555
O22 W3 1.972916 1_555
O22 Sr2 2.468215 1_555
O23 W1 1.972916 1_555
O23 Sr0 2.468215 1_555
