# generated using pymatgen
data_Al2O3
_symmetry_space_group_name_H-M   'P 1'
_cell_length_a   10.14628122
_cell_length_b   10.03506910
_cell_length_c   10.30027170
_cell_angle_alpha   89.34777673
_cell_angle_beta   92.21582514
_cell_angle_gamma   89.80478048
_symmetry_Int_Tables_number   1
_chemical_formula_structural   Al2O3
_chemical_formula_sum   'Al40 O60'
_cell_volume   1047.89973524
_cell_formula_units_Z   20
loop_
 _symmetry_equiv_pos_site_id
 _symmetry_equiv_pos_as_xyz
  1  'x, y, z'
loop_
 _atom_site_type_symbol
 _atom_site_label
 _atom_site_symmetry_multiplicity
 _atom_site_fract_x
 _atom_site_fract_y
 _atom_site_fract_z
 _atom_site_occupancy
  Al  Al0  1  0.48936800  0.52832500  0.22240800  1
  Al  Al1  1  0.37874200  0.06670500  0.42769700  1
  Al  Al2  1  0.53478400  0.65818700  0.77009300  1
  Al  Al3  1  0.73286700  0.86989600  0.83462200  1
  Al  Al4  1  0.42900100  0.91647500  0.70737500  1
  Al  Al5  1  0.84788200  0.60989400  0.75114700  1
  Al  Al6  1  0.35679900  0.34327900  0.47675300  1
  Al  Al7  1  0.12341500  0.93651800  0.99168200  1
  Al  Al8  1  0.35287000  0.75244000  0.93908900  1
  Al  Al9  1  0.86172400  0.38668800  0.55012600  1
  Al  Al10  1  0.88041800  0.66050200  0.40231400  1
  Al  Al11  1  0.84546700  0.21838800  0.26488000  1
  Al  Al12  1  0.89954200  0.90207300  0.21286300  1
  Al  Al13  1  0.40322100  0.77301100  0.45108400  1
  Al  Al14  1  0.12040500  0.86421100  0.48265300  1
  Al  Al15  1  0.15954600  0.20660900  0.93395600  1
  Al  Al16  1  0.91161600  0.38941900  0.96534000  1
  Al  Al17  1  0.66636600  0.20546200  0.50737000  1
  Al  Al18  1  0.63787600  0.98745200  0.31888600  1
  Al  Al19  1  0.52116900  0.26009600  0.21860300  1
  Al  Al20  1  0.18298100  0.18417000  0.24641600  1
  Al  Al21  1  0.83945700  0.09841800  0.98256700  1
  Al  Al22  1  0.63161900  0.80045000  0.08434700  1
  Al  Al23  1  0.35274000  0.99221400  0.15918300  1
  Al  Al24  1  0.14176800  0.57075600  0.52768800  1
  Al  Al25  1  0.07523100  0.17290300  0.48961700  1
  Al  Al26  1  0.74017500  0.90325500  0.58981000  1
  Al  Al27  1  0.45603700  0.38316400  0.96136400  1
  Al  Al28  1  0.62350700  0.64495000  0.45501400  1
  Al  Al29  1  0.74338200  0.51503700  0.20173400  1
  Al  Al30  1  0.20626700  0.51174000  0.05896400  1
  Al  Al31  1  0.67743900  0.35159900  0.80862500  1
  Al  Al32  1  0.13193900  0.68597100  0.77662900  1
  Al  Al33  1  0.02768900  0.49279200  0.22355100  1
  Al  Al34  1  0.14264300  0.34348700  0.72123700  1
  Al  Al35  1  0.93348500  0.68929600  0.02366300  1
  Al  Al36  1  0.36890000  0.20511400  0.76953700  1
  Al  Al37  1  0.17194400  0.78688100  0.23093500  1
  Al  Al38  1  0.53652600  0.08896400  0.95298000  1
  Al  Al39  1  0.03962600  0.99902700  0.74412400  1
  O  O0  1  0.98456600  0.82554000  0.35713400  1
  O  O1  1  0.51293500  0.96159900  0.09231300  1
  O  O2  1  0.60381200  0.92441400  0.69544100  1
  O  O3  1  0.54011500  0.48695000  0.83745200  1
  O  O4  1  0.29717000  0.31575500  0.89536900  1
  O  O5  1  0.16707700  0.14345800  0.76804600  1
  O  O6  1  0.30742600  0.30912700  0.64475200  1
  O  O7  1  0.80542600  0.47613300  0.85024000  1
  O  O8  1  0.87937400  0.07306700  0.15150700  1
  O  O9  1  0.27828900  0.84264000  0.07480200  1
  O  O10  1  0.40553100  0.03591600  0.83144800  1
  O  O11  1  0.01686300  0.17981000  0.32566100  1
  O  O12  1  0.86293800  0.93148700  0.71843600  1
  O  O13  1  0.72195000  0.31445500  0.64208100  1
  O  O14  1  0.47958500  0.92632600  0.36218800  1
  O  O15  1  0.61965300  0.63925500  0.15182900  1
  O  O16  1  0.75269700  0.76828600  0.47997300  1
  O  O17  1  0.87565400  0.37771000  0.17720800  1
  O  O18  1  0.96943100  0.68983800  0.84721500  1
  O  O19  1  0.37908600  0.14243600  0.25392200  1
  O  O20  1  0.88490900  0.63411800  0.19889500  1
  O  O21  1  0.14548200  0.87330000  0.83080000  1
  O  O22  1  0.22850000  0.62860400  0.92349800  1
  O  O23  1  0.78916300  0.26001700  0.94302300  1
  O  O24  1  0.34174900  0.93642200  0.55383300  1
  O  O25  1  0.10356800  0.73597000  0.60078300  1
  O  O26  1  0.51222300  0.68015700  0.58153000  1
  O  O27  1  0.16624300  0.61417300  0.19521800  1
  O  O28  1  0.13294700  0.51861400  0.69855600  1
  O  O29  1  0.37138200  0.75674400  0.76208500  1
  O  O30  1  0.66032000  0.15486700  0.26451500  1
  O  O31  1  0.38318200  0.49418300  0.07982100  1
  O  O32  1  0.45655700  0.38108400  0.33324200  1
  O  O33  1  0.04400500  0.32584200  0.87780400  1
  O  O34  1  0.52880200  0.75553200  0.93910700  1
  O  O35  1  0.23536800  0.75947100  0.39775000  1
  O  O36  1  0.61395200  0.40272600  0.16017800  1
  O  O37  1  0.27657000  0.49458000  0.46882900  1
  O  O38  1  0.20565500  0.08952600  0.05921600  1
  O  O39  1  0.48233300  0.65870900  0.34446300  1
  O  O40  1  0.02695900  0.83578500  0.10360200  1
  O  O41  1  0.15276400  0.34984900  0.16444100  1
  O  O42  1  0.78859500  0.79403900  0.99398300  1
  O  O43  1  0.54030500  0.23846300  0.82442300  1
  O  O44  1  0.01335900  0.53469900  0.39986900  1
  O  O45  1  0.20798800  0.97262800  0.27659600  1
  O  O46  1  0.80137000  0.28274200  0.42244200  1
  O  O47  1  0.49043500  0.18964000  0.50512300  1
  O  O48  1  0.01266100  0.52245500  0.03325400  1
  O  O49  1  0.06358800  0.01139300  0.56337500  1
  O  O50  1  0.01660300  0.29904600  0.59198700  1
  O  O51  1  0.70649800  0.70905900  0.75662100  1
  O  O52  1  0.73711000  0.54092900  0.37779300  1
  O  O53  1  0.72865000  0.87419400  0.22933700  1
  O  O54  1  0.48459200  0.22490400  0.05020800  1
  O  O55  1  0.99191700  0.04842400  0.91705000  1
  O  O56  1  0.86880700  0.55592500  0.59369200  1
  O  O57  1  0.71665100  0.03436300  0.47720600  1
  O  O58  1  0.23967800  0.19604700  0.42991200  1
  O  O59  1  0.69537900  0.01777400  0.92487900  1
loop_
_geom_bond_atom_site_label_1
_geom_bond_atom_site_label_2
_geom_bond_distance
_geom_bond_site_symmetry_2
Al0 O31 1.823954 1_555
Al0 O39 1.827934 1_555
Al0 O15 1.892367 1_555
Al0 O32 1.895175 1_555
Al0 O36 1.915074 1_555
Al1 O47 1.845068 1_555
Al1 O24 1.881639 1_545
Al1 O14 1.884643 1_545
Al1 O58 1.914880 1_555
Al1 O19 1.936735 1_555
Al2 O51 1.827150 1_555
Al2 O3 1.845655 1_555
Al2 O29 1.926156 1_555
Al2 O26 1.956750 1_555
Al2 O34 2.008763 1_555
Al3 O59 1.807215 1_565
Al3 O51 1.827007 1_555
Al3 O42 1.868269 1_555
Al3 O12 1.914881 1_555
Al3 O2 1.975153 1_555
Al4 O10 1.784112 1_565
Al4 O2 1.784658 1_555
Al4 O24 1.791182 1_555
Al4 O29 1.799990 1_555
Al5 O56 1.736248 1_555
Al5 O7 1.742378 1_555
Al5 O51 1.746172 1_555
Al5 O18 1.753329 1_555
Al6 O37 1.719943 1_555
Al6 O6 1.848653 1_555
Al6 O32 1.859852 1_555
Al6 O58 1.952372 1_555
Al6 O47 2.060538 1_555
Al7 O21 1.802865 1_555
Al7 O40 1.837404 1_556
Al7 O55 1.876965 1_465
Al7 O38 1.877742 1_566
Al7 O9 1.989298 1_556
Al8 O22 1.778211 1_555
Al8 O34 1.785424 1_555
Al8 O29 1.840083 1_555
Al8 O9 1.857943 1_556
Al9 O56 1.762516 1_555
Al9 O46 1.779345 1_555
Al9 O50 1.832599 1_655
Al9 O13 1.878574 1_555
Al10 O44 1.845415 1_655
Al10 O16 1.891930 1_555
Al10 O52 1.899537 1_555
Al10 O0 2.026946 1_555
Al10 O20 2.117137 1_555
Al10 O56 2.229957 1_555
Al11 O46 1.824606 1_555
Al11 O17 1.859393 1_555
Al11 O11 1.863266 1_655
Al11 O8 1.917062 1_555
Al11 O30 1.985692 1_555
Al12 O53 1.771585 1_555
Al12 O8 1.829927 1_565
Al12 O0 1.847354 1_555
Al12 O40 1.871926 1_655
Al13 O35 1.775296 1_555
Al13 O39 1.804622 1_555
Al13 O26 1.935538 1_555
Al13 O14 1.958757 1_555
Al13 O24 2.069244 1_555
Al14 O25 1.774195 1_555
Al14 O49 1.806751 1_565
Al14 O35 1.822525 1_555
Al14 O0 1.897106 1_455
Al14 O24 2.449941 1_555
Al15 O33 1.750067 1_555
Al15 O38 1.782991 1_556
Al15 O4 1.830549 1_555
Al15 O5 1.833649 1_555
Al15 O55 2.333388 1_455
Al16 O33 1.767839 1_655
Al16 O7 1.787451 1_555
Al16 O23 1.810652 1_555
Al16 O48 1.816003 1_656
Al16 O17 2.228317 1_556
Al17 O47 1.791913 1_555
Al17 O57 1.823001 1_555
Al17 O46 1.824125 1_555
Al17 O13 1.848762 1_555
Al18 O53 1.753064 1_555
Al18 O30 1.782980 1_565
Al18 O14 1.791793 1_555
Al18 O57 1.854457 1_565
Al19 O54 1.798902 1_555
Al19 O30 1.805253 1_555
Al19 O36 1.824938 1_555
Al19 O32 1.839908 1_555
Al19 O19 1.909735 1_555
Al20 O41 1.875030 1_555
Al20 O11 1.901338 1_555
Al20 O58 1.959330 1_555
Al20 O19 2.030299 1_555
Al20 O45 2.154684 1_545
Al20 O38 2.178869 1_555
Al21 O23 1.737622 1_555
Al21 O59 1.759788 1_555
Al21 O55 1.784141 1_555
Al21 O8 1.786482 1_556
Al22 O15 1.759769 1_555
Al22 O34 1.851322 1_554
Al22 O42 1.876844 1_554
Al22 O53 1.914072 1_555
Al22 O1 2.017268 1_555
Al23 O1 1.816221 1_555
Al23 O19 1.819973 1_565
Al23 O9 1.888296 1_555
Al23 O45 1.947361 1_555
Al23 O38 2.022221 1_565
Al24 O37 1.700049 1_555
Al24 O28 1.835998 1_555
Al24 O44 1.855580 1_555
Al24 O25 1.874148 1_555
Al25 O11 1.768406 1_555
Al25 O50 1.772524 1_555
Al25 O49 1.788359 1_555
Al25 O58 1.815172 1_555
Al26 O57 1.753552 1_565
Al26 O16 1.781962 1_555
Al26 O2 1.806333 1_555
Al26 O12 1.808427 1_555
Al27 O31 1.836145 1_556
Al27 O54 1.840347 1_556
Al27 O4 1.857712 1_555
Al27 O3 1.871220 1_555
Al27 O43 2.227242 1_555
Al28 O52 1.769885 1_555
Al28 O26 1.794290 1_555
Al28 O39 1.799001 1_555
Al28 O16 1.818898 1_555
Al29 O36 1.776412 1_555
Al29 O15 1.821794 1_555
Al29 O52 1.838401 1_555
Al29 O20 1.872167 1_555
Al29 O17 1.945669 1_555
Al30 O27 1.807011 1_555
Al30 O31 1.807343 1_555
Al30 O22 1.833591 1_554
Al30 O48 1.974378 1_555
Al30 O41 2.031198 1_555
Al31 O43 1.809837 1_555
Al31 O13 1.832752 1_555
Al31 O7 1.847176 1_555
Al31 O23 1.971955 1_555
Al31 O3 1.975517 1_555
Al32 O18 1.828041 1_455
Al32 O22 1.855140 1_555
Al32 O28 1.870449 1_555
Al32 O25 1.885016 1_555
Al32 O21 1.970736 1_555
Al33 O44 1.879811 1_555
Al33 O27 1.892208 1_555
Al33 O17 1.977090 1_455
Al33 O48 1.979189 1_555
Al33 O41 2.026334 1_555
Al33 O20 2.030733 1_455
Al34 O28 1.772131 1_555
Al34 O50 1.868810 1_555
Al34 O6 1.907622 1_555
Al34 O33 1.937325 1_555
Al34 O5 2.070877 1_555
Al34 O4 2.349661 1_555
Al35 O42 1.818477 1_554
Al35 O48 1.854508 1_655
Al35 O18 1.867422 1_554
Al35 O40 1.927464 1_655
Al35 O20 1.963469 1_555
Al36 O6 1.741720 1_555
Al36 O10 1.838595 1_555
Al36 O43 1.840761 1_555
Al36 O4 1.882156 1_555
Al36 O5 2.140739 1_555
Al37 O27 1.776516 1_555
Al37 O35 1.828839 1_555
Al37 O45 1.959767 1_555
Al37 O40 1.989042 1_555
Al37 O9 2.044873 1_555
Al37 O0 2.377452 1_455
Al38 O54 1.791250 1_556
Al38 O59 1.795793 1_555
Al38 O10 1.873044 1_555
Al38 O1 1.933254 1_546
Al38 O43 1.991153 1_555
Al39 O21 1.852956 1_555
Al39 O49 1.889609 1_565
Al39 O12 1.928453 1_455
Al39 O55 1.933340 1_465
Al39 O5 1.957016 1_565
