# generated using pymatgen
data_Li2TiFeO4
_symmetry_space_group_name_H-M   'P 1'
_cell_length_a   5.98139627
_cell_length_b   6.03568018
_cell_length_c   10.46779528
_cell_angle_alpha   106.86973111
_cell_angle_beta   90.01318685
_cell_angle_gamma   119.74778951
_symmetry_Int_Tables_number   1
_chemical_formula_structural   Li2TiFeO4
_chemical_formula_sum   'Li8 Ti4 Fe4 O16'
_cell_volume   309.21918720
_cell_formula_units_Z   4
loop_
 _symmetry_equiv_pos_site_id
 _symmetry_equiv_pos_as_xyz
  1  'x, y, z'
loop_
 _atom_site_type_symbol
 _atom_site_label
 _atom_site_symmetry_multiplicity
 _atom_site_fract_x
 _atom_site_fract_y
 _atom_site_fract_z
 _atom_site_occupancy
  Li  Li0  1  0.74667800  0.99317100  0.24862700  1
  Li  Li1  1  0.24605600  0.99282300  0.74848800  1
  Li  Li2  1  0.99620500  0.49444300  0.50003400  1
  Li  Li3  1  0.50019700  0.49840300  0.00096000  1
  Li  Li4  1  0.24436300  0.49015300  0.25138300  1
  Li  Li5  1  0.74474300  0.49146400  0.75061100  1
  Li  Li6  1  0.74663300  0.49131300  0.25058300  1
  Li  Li7  1  0.24575100  0.49028000  0.75135900  1
  Ti  Ti0  1  0.47908700  0.98129600  0.48904700  1
  Ti  Ti1  1  0.01632300  0.00930200  0.00845000  1
  Ti  Ti2  1  0.99161200  0.00639100  0.50855300  1
  Ti  Ti3  1  0.50342000  0.98392100  0.98899000  1
  Fe  Fe0  1  0.74629300  0.99310000  0.74857500  1
  Fe  Fe1  1  0.99880200  0.49728400  0.99995700  1
  Fe  Fe2  1  0.24646300  0.99278300  0.24848800  1
  Fe  Fe3  1  0.49699200  0.49404000  0.49972400  1
  O  O0  1  0.12160300  0.21662700  0.38105300  1
  O  O1  1  0.61479200  0.23105100  0.88729000  1
  O  O2  1  0.61561200  0.22637800  0.38662900  1
  O  O3  1  0.09591700  0.21654400  0.88026100  1
  O  O4  1  0.87829600  0.76479500  0.11117800  1
  O  O5  1  0.39824300  0.77286900  0.61693800  1
  O  O6  1  0.37362300  0.77289100  0.11608900  1
  O  O7  1  0.88235500  0.76048200  0.61065800  1
  O  O8  1  0.63882500  0.77397700  0.38515700  1
  O  O9  1  0.13723300  0.77672700  0.88530400  1
  O  O10  1  0.35702100  0.23398000  0.11281500  1
  O  O11  1  0.87596300  0.23154600  0.61252800  1
  O  O12  1  0.13753400  0.75497400  0.38502000  1
  O  O13  1  0.61822100  0.75723400  0.88532200  1
  O  O14  1  0.85562700  0.21588900  0.11304500  1
  O  O15  1  0.35805300  0.21309800  0.61289000  1
loop_
_geom_bond_atom_site_label_1
_geom_bond_atom_site_label_2
_geom_bond_distance
_geom_bond_site_symmetry_2
Li0 O8 2.111832 1_555
Li0 O14 2.117627 1_565
Li0 O4 2.125143 1_555
Li0 O2 2.144309 1_565
Li0 O6 2.157666 1_555
Li0 O0 2.163726 1_665
Li1 O9 2.101908 1_555
Li1 O15 2.107834 1_565
Li1 O7 2.139521 1_455
Li1 O5 2.150840 1_555
Li1 O3 2.157637 1_565
Li1 O1 2.163773 1_565
Li2 O11 2.091433 1_555
Li2 O7 2.095072 1_555
Li2 O12 2.101642 1_655
Li2 O2 2.106709 1_555
Li2 O5 2.213403 1_655
Li2 O0 2.227530 1_655
Li3 O4 2.084372 1_555
Li3 O10 2.092887 1_555
Li3 O13 2.099441 1_554
Li3 O1 2.114972 1_554
Li3 O6 2.203772 1_555
Li3 O3 2.237549 1_554
Li4 O12 2.153187 1_555
Li4 O10 2.163659 1_555
Li4 O14 2.243038 1_455
Li4 O8 2.248914 1_555
Li4 O0 2.281488 1_555
Li4 O6 2.368450 1_555
Li5 O15 2.233195 1_555
Li5 O13 2.242019 1_555
Li5 O9 2.245463 1_655
Li5 O11 2.252269 1_555
Li5 O1 2.283618 1_555
Li5 O7 2.348409 1_555
Li6 O14 2.224439 1_555
Li6 O12 2.232932 1_655
Li6 O8 2.237901 1_555
Li6 O10 2.242650 1_555
Li6 O2 2.297354 1_555
Li6 O4 2.362800 1_555
Li7 O13 2.156610 1_555
Li7 O11 2.167150 1_455
Li7 O15 2.249281 1_555
Li7 O9 2.254652 1_555
Li7 O3 2.275655 1_555
Li7 O5 2.360224 1_555
Fe0 O5 2.046732 1_555
Fe0 O3 2.052600 1_665
Fe0 O7 2.162368 1_555
Fe0 O1 2.168168 1_565
Fe0 O13 2.182551 1_555
Fe0 O11 2.187064 1_565
Fe1 O6 2.096524 1_656
Fe1 O1 2.117774 1_555
Fe1 O3 2.126825 1_655
Fe1 O4 2.132193 1_556
Fe1 O14 2.177916 1_556
Fe1 O9 2.181773 1_655
Fe2 O6 2.048270 1_555
Fe2 O0 2.054843 1_565
Fe2 O4 2.156940 1_455
Fe2 O2 2.163359 1_565
Fe2 O12 2.188669 1_555
Fe2 O10 2.195139 1_565
Fe3 O0 2.109246 1_555
Fe3 O5 2.115393 1_555
Fe3 O7 2.117568 1_555
Fe3 O2 2.131356 1_555
Fe3 O15 2.176485 1_555
Fe3 O8 2.183298 1_555
O0 Ti2 2.000073 1_455
O1 Ti3 1.933349 1_545
O2 Ti0 1.930406 1_545
O3 Ti1 1.993827 1_556
O4 Ti1 1.930859 1_665
O5 Ti0 1.995667 1_555
O6 Ti3 1.999466 1_554
O7 Ti2 1.931542 1_565
O8 Ti0 2.014561 1_555
O8 Ti2 2.024505 1_565
O9 Ti3 2.008059 1_555
O9 Ti1 2.028025 1_566
O10 Ti1 1.892623 1_555
O10 Ti3 2.213917 1_544
O11 Ti2 1.893318 1_555
O11 Ti0 2.212393 1_545
O12 Ti0 1.895178 1_555
O12 Ti2 2.216457 1_465
O13 Ti3 1.895274 1_555
O13 Ti1 2.216166 1_666
O14 Ti1 2.018629 1_655
O14 Ti3 2.025137 1_544
O15 Ti2 2.011932 1_455
O15 Ti0 2.028545 1_545
