# generated using pymatgen
data_Li4Zn(PS4)2
_symmetry_space_group_name_H-M   'P 1'
_cell_length_a   9.46508300
_cell_length_b   5.76335000
_cell_length_c   11.49448082
_cell_angle_alpha   89.96775939
_cell_angle_beta   90.00000000
_cell_angle_gamma   90.00000000
_symmetry_Int_Tables_number   1
_chemical_formula_structural   Li4Zn(PS4)2
_chemical_formula_sum   'Li8 Zn2 P4 S16'
_cell_volume   627.03056646
_cell_formula_units_Z   2
loop_
 _symmetry_equiv_pos_site_id
 _symmetry_equiv_pos_as_xyz
  1  'x, y, z'
loop_
 _atom_site_type_symbol
 _atom_site_label
 _atom_site_symmetry_multiplicity
 _atom_site_fract_x
 _atom_site_fract_y
 _atom_site_fract_z
 _atom_site_occupancy
  Li  Li0  1  0.75264700  0.25316100  0.38305200  1
  Li  Li1  1  0.25264700  0.74683900  0.61694800  1
  Li  Li2  1  0.00740900  0.74717300  0.37226100  1
  Li  Li3  1  0.50740900  0.25282700  0.62773900  1
  Li  Li4  1  0.99950600  0.24959700  0.62495700  1
  Li  Li5  1  0.00119100  0.24470100  0.12497600  1
  Li  Li6  1  0.50119100  0.75529900  0.87502400  1
  Li  Li7  1  0.49950600  0.75040300  0.37504300  1
  Zn  Zn0  1  0.99164200  0.74837100  0.87556900  1
  Zn  Zn1  1  0.49164200  0.25162900  0.12443100  1
  P  P0  1  0.75146000  0.76053400  0.62360800  1
  P  P1  1  0.74713100  0.73854300  0.12518000  1
  P  P2  1  0.24713100  0.26145700  0.87482000  1
  P  P3  1  0.25146000  0.23946600  0.37639200  1
  S  S0  1  0.85972500  0.95408700  0.01580000  1
  S  S1  1  0.87519100  0.96293900  0.51540800  1
  S  S2  1  0.37251500  0.45587900  0.27066200  1
  S  S3  1  0.36535900  0.46442900  0.76628600  1
  S  S4  1  0.63425200  0.54023400  0.51924100  1
  S  S5  1  0.62756000  0.52771700  0.01986600  1
  S  S6  1  0.12927700  0.03126600  0.77152500  1
  S  S7  1  0.13503500  0.03692000  0.27026900  1
  S  S8  1  0.87251500  0.54412100  0.72933800  1
  S  S9  1  0.86535900  0.53557100  0.23371400  1
  S  S10  1  0.35972500  0.04591300  0.98420000  1
  S  S11  1  0.37519100  0.03706100  0.48459200  1
  S  S12  1  0.63503500  0.96308000  0.72973100  1
  S  S13  1  0.62927700  0.96873400  0.22847500  1
  S  S14  1  0.12756000  0.47228300  0.98013400  1
  S  S15  1  0.13425200  0.45976600  0.48075900  1
loop_
_geom_bond_atom_site_label_1
_geom_bond_atom_site_label_2
_geom_bond_distance
_geom_bond_site_symmetry_2
Li0 S4 2.539020 1_555
Li0 S1 2.540627 1_545
Li0 S9 2.594367 1_555
Li0 S13 2.685316 1_545
Li1 S15 2.539020 1_555
Li1 S11 2.540627 1_565
Li1 S3 2.594367 1_555
Li1 S6 2.685316 1_565
Li2 S7 2.370663 1_565
Li2 S15 2.395443 1_555
Li2 S1 2.412916 1_455
Li2 S9 2.415225 1_455
Li3 S12 2.370663 1_545
Li3 S4 2.395443 1_555
Li3 S11 2.412916 1_555
Li3 S3 2.415225 1_555
Li4 S1 2.387871 1_545
Li4 S8 2.401645 1_555
Li4 S15 2.416356 1_655
Li4 S6 2.434743 1_655
Li5 S7 2.413672 1_555
Li5 S14 2.433188 1_554
Li5 S9 2.455151 1_455
Li5 S0 2.485036 1_445
Li6 S12 2.413672 1_555
Li6 S5 2.433188 1_556
Li6 S3 2.455151 1_555
Li6 S10 2.485036 1_565
Li7 S11 2.387871 1_565
Li7 S2 2.401645 1_555
Li7 S4 2.416356 1_555
Li7 S13 2.434743 1_555
P0 S12 2.016586 1_555
P0 S1 2.068209 1_555
P0 S4 2.069697 1_555
P0 S8 2.084176 1_555
P1 S9 2.043378 1_555
P1 S5 2.055304 1_555
P1 S0 2.063468 1_555
P1 S13 2.101404 1_555
P2 S3 2.043378 1_555
P2 S14 2.055304 1_555
P2 S10 2.063468 1_555
P2 S6 2.101404 1_555
P3 S7 2.016586 1_555
P3 S11 2.068209 1_555
P3 S15 2.069697 1_555
P3 S2 2.084176 1_555
S0 Zn0 2.359027 1_554
S2 Zn1 2.341914 1_555
S5 Zn1 2.372629 1_555
S6 Zn0 2.404877 1_445
S8 Zn0 2.341914 1_555
S10 Zn1 2.359027 1_556
S13 Zn1 2.404877 1_565
S14 Zn0 2.372629 1_455
