# generated using pymatgen
data_ZrFeN2
_symmetry_space_group_name_H-M   'P 1'
_cell_length_a   6.31008900
_cell_length_b   7.20196100
_cell_length_c   4.39809200
_cell_angle_alpha   90.00000000
_cell_angle_beta   90.00000000
_cell_angle_gamma   90.00000000
_symmetry_Int_Tables_number   1
_chemical_formula_structural   ZrFeN2
_chemical_formula_sum   'Zr4 Fe4 N8'
_cell_volume   199.87135640
_cell_formula_units_Z   4
loop_
 _symmetry_equiv_pos_site_id
 _symmetry_equiv_pos_as_xyz
  1  'x, y, z'
loop_
 _atom_site_type_symbol
 _atom_site_label
 _atom_site_symmetry_multiplicity
 _atom_site_fract_x
 _atom_site_fract_y
 _atom_site_fract_z
 _atom_site_occupancy
  Zr  Zr0  1  0.60903200  0.37299500  0.93525000  1
  Zr  Zr1  1  0.39096800  0.62700500  0.43525000  1
  Zr  Zr2  1  0.89096800  0.87299500  0.43525000  1
  Zr  Zr3  1  0.10903200  0.12700500  0.93525000  1
  Fe  Fe0  1  0.56801600  0.86788300  0.93525000  1
  Fe  Fe1  1  0.43198400  0.13211700  0.43525000  1
  Fe  Fe2  1  0.93198400  0.36788300  0.43525000  1
  Fe  Fe3  1  0.06801600  0.63211700  0.93525000  1
  N  N0  1  0.59498500  0.38225900  0.43525100  1
  N  N1  1  0.40501500  0.61774100  0.93525100  1
  N  N2  1  0.90501500  0.88225900  0.93525100  1
  N  N3  1  0.09498500  0.11774100  0.43525100  1
  N  N4  1  0.55628800  0.87915900  0.43524800  1
  N  N5  1  0.44371200  0.12084100  0.93524800  1
  N  N6  1  0.94371200  0.37915900  0.93524800  1
  N  N7  1  0.05628800  0.62084100  0.43524800  1
loop_
_geom_bond_atom_site_label_1
_geom_bond_atom_site_label_2
_geom_bond_distance
_geom_bond_site_symmetry_2
Fe0 N5 1.983474 1_565
Fe0 N1 2.074455 1_555
Fe0 N2 2.129013 1_555
Fe0 N4 2.201780 1_556
Fe0 N4 2.201798 1_555
Fe1 N4 1.983474 1_545
Fe1 N0 2.074455 1_555
Fe1 N3 2.129013 1_555
Fe1 N5 2.201780 1_555
Fe1 N5 2.201798 1_554
Fe2 N7 1.983474 1_655
Fe2 N3 2.074455 1_655
Fe2 N0 2.129013 1_555
Fe2 N6 2.201780 1_555
Fe2 N6 2.201798 1_554
Fe3 N6 1.983474 1_455
Fe3 N2 2.074455 1_455
Fe3 N1 2.129013 1_555
Fe3 N7 2.201780 1_556
Fe3 N7 2.201798 1_555
N0 Zr1 2.182716 1_555
N0 Zr0 2.201838 1_555
N0 Zr0 2.201847 1_554
N1 Zr0 2.182716 1_555
N1 Zr1 2.201838 1_556
N1 Zr1 2.201847 1_555
N2 Zr3 2.182716 1_665
N2 Zr2 2.201838 1_556
N2 Zr2 2.201847 1_555
N3 Zr2 2.182716 1_445
N3 Zr3 2.201838 1_555
N3 Zr3 2.201847 1_554
N4 Zr1 2.094302 1_555
N4 Zr2 2.112327 1_555
N5 Zr0 2.094302 1_555
N5 Zr3 2.112327 1_555
N6 Zr3 2.094302 1_655
N6 Zr0 2.112327 1_555
N7 Zr2 2.094302 1_455
N7 Zr1 2.112327 1_555
