# generated using pymatgen
data_CeSe2
_symmetry_space_group_name_H-M   'P 1'
_cell_length_a   8.84094194
_cell_length_b   8.84094194
_cell_length_c   8.84094194
_cell_angle_alpha   60.00000000
_cell_angle_beta   60.00000000
_cell_angle_gamma   60.00000000
_symmetry_Int_Tables_number   1
_chemical_formula_structural   CeSe2
_chemical_formula_sum   'Ce2 Se4'
_cell_volume   488.63055201
_cell_formula_units_Z   2
loop_
 _symmetry_equiv_pos_site_id
 _symmetry_equiv_pos_as_xyz
  1  'x, y, z'
loop_
 _atom_site_type_symbol
 _atom_site_label
 _atom_site_symmetry_multiplicity
 _atom_site_fract_x
 _atom_site_fract_y
 _atom_site_fract_z
 _atom_site_occupancy
  Ce  Ce0  1  0.25000000  0.25000000  0.25000000  1
  Ce  Ce1  1  0.00000000  0.00000000  0.00000000  1
  Se  Se0  1  0.12500000  0.12500000  0.62500000  1
  Se  Se1  1  0.12500000  0.62500000  0.12500000  1
  Se  Se2  1  0.62500000  0.12500000  0.12500000  1
  Se  Se3  1  0.12500000  0.12500000  0.12500000  1
loop_
_geom_bond_atom_site_label_1
_geom_bond_atom_site_label_2
_geom_bond_distance
_geom_bond_site_symmetry_2
Ce0 Se1 2.706975 1_555
Ce0 Se2 2.706975 1_555
Ce0 Se3 2.706975 1_555
Ce0 Se0 2.706975 1_555
Ce1 Se3 2.706975 1_555
Ce1 Se1 2.706975 1_545
Ce1 Se2 2.706975 1_455
Ce1 Se0 2.706975 1_554
