# generated using pymatgen
data_Li5Mn(CoO4)2
_symmetry_space_group_name_H-M   'P 1'
_cell_length_a   2.91667200
_cell_length_b   2.91667211
_cell_length_c   20.16004354
_cell_angle_alpha   85.85172097
_cell_angle_beta   90.00000000
_cell_angle_gamma   119.99999873
_symmetry_Int_Tables_number   1
_chemical_formula_structural   Li5Mn(CoO4)2
_chemical_formula_sum   'Li5 Mn1 Co2 O8'
_cell_volume   148.00519261
_cell_formula_units_Z   1
loop_
 _symmetry_equiv_pos_site_id
 _symmetry_equiv_pos_as_xyz
  1  'x, y, z'
loop_
 _atom_site_type_symbol
 _atom_site_label
 _atom_site_symmetry_multiplicity
 _atom_site_fract_x
 _atom_site_fract_y
 _atom_site_fract_z
 _atom_site_occupancy
  Li  Li0  1  0.87408200  0.74816400  0.37775400  1
  Li  Li1  1  0.12591800  0.25183600  0.62224600  1
  Li  Li2  1  0.37705400  0.75410700  0.86883900  1
  Li  Li3  1  0.62294600  0.24589300  0.13116100  1
  Li  Li4  1  0.50000000  0.00000000  0.50000000  1
  Mn  Mn0  1  0.00000000  0.00000000  0.00000000  1
  Co  Co0  1  0.25059700  0.50119400  0.24821000  1
  Co  Co1  1  0.74940300  0.49880600  0.75179000  1
  O  O0  1  0.81166800  0.62333600  0.56499600  1
  O  O1  1  0.06290800  0.12581700  0.81127500  1
  O  O2  1  0.31522500  0.63045000  0.05432500  1
  O  O3  1  0.56591100  0.13182200  0.30226600  1
  O  O4  1  0.93709200  0.87418300  0.18872500  1
  O  O5  1  0.18833200  0.37666400  0.43500400  1
  O  O6  1  0.43408900  0.86817800  0.69773400  1
  O  O7  1  0.68477500  0.36955000  0.94567500  1
loop_
_geom_bond_atom_site_label_1
_geom_bond_atom_site_label_2
_geom_bond_distance
_geom_bond_site_symmetry_2
Li0 O5 2.039229 1_665
Li0 O5 2.039229 1_555
Li0 O5 2.039229 1_655
Li0 O3 2.266164 1_665
Li0 O3 2.266164 1_565
Li0 O3 2.266166 1_555
Li1 O0 2.039229 1_445
Li1 O0 2.039229 1_555
Li1 O0 2.039229 1_455
Li1 O6 2.266164 1_445
Li1 O6 2.266164 1_545
Li1 O6 2.266166 1_555
Li2 O1 2.042792 1_555
Li2 O1 2.042792 1_665
Li2 O1 2.042796 1_565
Li2 O7 2.284374 1_555
Li2 O7 2.284376 1_565
Li2 O7 2.284376 1_455
Li3 O4 2.042792 1_555
Li3 O4 2.042792 1_445
Li3 O4 2.042796 1_545
Li3 O2 2.284374 1_555
Li3 O2 2.284376 1_545
Li3 O2 2.284376 1_655
Li4 O0 2.130874 1_555
Li4 O5 2.130874 1_545
Li4 O0 2.130874 1_545
Li4 O0 2.130874 1_445
Li4 O5 2.130874 1_555
Li4 O5 2.130874 1_655
Mn0 O2 2.006674 1_555
Mn0 O7 2.006674 1_444
Mn0 O2 2.006674 1_445
Mn0 O2 2.006674 1_545
Mn0 O7 2.006674 1_554
Mn0 O7 2.006674 1_454
Co0 O3 2.003737 1_565
Co0 O3 2.003741 1_555
Co0 O3 2.003741 1_455
Co0 O4 2.064884 1_455
Co0 O4 2.064886 1_555
Co0 O4 2.064888 1_445
Co1 O6 2.003737 1_545
Co1 O6 2.003741 1_555
Co1 O6 2.003741 1_655
Co1 O1 2.064884 1_655
Co1 O1 2.064886 1_555
Co1 O1 2.064888 1_665
