# generated using pymatgen
data_SrMg14Sn
_symmetry_space_group_name_H-M   'P 1'
_cell_length_a   6.57515444
_cell_length_b   6.48962974
_cell_length_c   10.57600950
_cell_angle_alpha   90.00000000
_cell_angle_beta   90.00000000
_cell_angle_gamma   119.57065398
_symmetry_Int_Tables_number   1
_chemical_formula_structural   SrMg14Sn
_chemical_formula_sum   'Sr1 Mg14 Sn1'
_cell_volume   392.50125579
_cell_formula_units_Z   1
loop_
 _symmetry_equiv_pos_site_id
 _symmetry_equiv_pos_as_xyz
  1  'x, y, z'
loop_
 _atom_site_type_symbol
 _atom_site_label
 _atom_site_symmetry_multiplicity
 _atom_site_fract_x
 _atom_site_fract_y
 _atom_site_fract_z
 _atom_site_occupancy
  Sr  Sr0  1  0.16416681  0.83208290  0.12500000  1
  Mg  Mg0  1  0.16382807  0.33191353  0.62500000  1
  Mg  Mg1  1  0.16591806  0.83295853  0.62500000  1
  Mg  Mg2  1  0.66333086  0.33633062  0.12500000  1
  Mg  Mg3  1  0.66732003  0.33175697  0.62500000  1
  Mg  Mg4  1  0.66333086  0.82699924  0.12500000  1
  Mg  Mg5  1  0.66732003  0.83556206  0.62500000  1
  Mg  Mg6  1  0.33692952  0.17293224  0.38565992  1
  Mg  Mg7  1  0.33692952  0.17293224  0.86434008  1
  Mg  Mg8  1  0.33692952  0.66399828  0.38565992  1
  Mg  Mg9  1  0.33692952  0.66399828  0.86434008  1
  Mg  Mg10  1  0.83284764  0.16642432  0.37250480  1
  Mg  Mg11  1  0.83284764  0.16642432  0.87749520  1
  Mg  Mg12  1  0.82635140  0.66317620  0.38598830  1
  Mg  Mg13  1  0.82635140  0.66317620  0.86401170  1
  Sn  Sn0  1  0.17866911  0.33933406  0.12500000  1
loop_
_geom_bond_atom_site_label_1
_geom_bond_atom_site_label_2
_geom_bond_distance
_geom_bond_site_symmetry_2
Mg0 Mg7 3.150586 1_555
Mg0 Mg6 3.150586 1_555
Mg0 Mg9 3.150593 1_555
Mg0 Mg8 3.150593 1_555
Mg0 Mg1 3.244837 1_545
Mg0 Mg1 3.244837 1_555
Mg0 Mg5 3.264115 1_445
Mg0 Mg3 3.264116 1_455
Mg0 Mg10 3.273168 1_455
Mg0 Mg11 3.273168 1_455
Mg0 Mg5 3.311039 1_555
Mg0 Mg3 3.311039 1_555
Mg1 Mg9 3.176602 1_555
Mg1 Mg8 3.176602 1_555
Mg1 Mg7 3.176609 1_565
Mg1 Mg6 3.176609 1_565
Mg1 Mg12 3.187578 1_455
Mg1 Mg13 3.187578 1_455
Mg1 Mg3 3.286730 1_455
Mg1 Mg5 3.286730 1_455
Mg1 Mg3 3.288490 1_565
Mg1 Mg5 3.288490 1_555
Mg2 Mg4 3.184258 1_555
Mg2 Sn0 3.196390 1_555
Mg2 Sr0 3.276918 1_655
Mg2 Sr0 3.298486 1_545
Mg2 Mg4 3.305372 1_545
Mg2 Mg6 3.329237 1_555
Mg2 Mg7 3.329237 1_554
Mg2 Sn0 3.378852 1_655
Mg3 Mg7 3.158937 1_555
Mg3 Mg6 3.158937 1_555
Mg3 Mg5 3.220121 1_545
Mg3 Mg5 3.269508 1_555
Mg4 Sn0 3.196389 1_555
Mg4 Sr0 3.276918 1_655
Mg4 Sr0 3.298487 1_555
Mg4 Mg8 3.329237 1_555
Mg4 Mg9 3.329237 1_554
Mg4 Sn0 3.378852 1_665
Mg5 Mg9 3.158937 1_555
Mg5 Mg8 3.158937 1_555
Mg6 Mg8 3.186837 1_555
Mg6 Mg8 3.302793 1_545
Mg6 Sn0 3.310242 1_555
Mg6 Sr0 3.361974 1_545
Mg7 Mg9 3.186837 1_555
Mg7 Mg9 3.302793 1_545
Mg7 Sn0 3.310242 1_556
Mg7 Sr0 3.361974 1_546
Mg8 Sn0 3.310248 1_555
Mg8 Sr0 3.361967 1_555
Mg9 Sn0 3.310248 1_556
Mg9 Sr0 3.361967 1_556
Mg10 Mg2 3.243921 1_555
Mg10 Mg4 3.243928 1_545
Mg10 Mg12 3.248159 1_545
Mg10 Mg12 3.248159 1_555
Mg10 Mg3 3.258732 1_555
Mg10 Mg5 3.258738 1_545
Mg10 Sn0 3.280706 1_655
Mg10 Mg8 3.284734 1_545
Mg10 Mg6 3.284734 1_555
Mg10 Mg8 3.296716 1_655
Mg10 Mg6 3.296716 1_655
Mg11 Mg2 3.243921 1_556
Mg11 Mg4 3.243928 1_546
Mg11 Mg13 3.248159 1_545
Mg11 Mg13 3.248159 1_555
Mg11 Mg3 3.258732 1_555
Mg11 Mg5 3.258738 1_545
Mg11 Sn0 3.280706 1_656
Mg11 Mg9 3.284734 1_545
Mg11 Mg7 3.284734 1_555
Mg11 Mg9 3.296716 1_655
Mg11 Mg7 3.296716 1_655
Mg12 Mg5 3.144715 1_555
Mg12 Mg3 3.144722 1_555
Mg12 Mg6 3.220662 1_555
Mg12 Mg8 3.220662 1_555
Mg12 Mg4 3.320055 1_555
Mg12 Mg2 3.320061 1_555
Mg12 Mg6 3.354502 1_665
Mg12 Mg8 3.354502 1_655
Mg12 Sr0 3.369113 1_655
Mg13 Mg5 3.144715 1_555
Mg13 Mg3 3.144722 1_555
Mg13 Mg7 3.220662 1_555
Mg13 Mg9 3.220662 1_555
Mg13 Mg4 3.320055 1_556
Mg13 Mg2 3.320061 1_556
Mg13 Mg7 3.354502 1_665
Mg13 Mg9 3.354502 1_655
Mg13 Sr0 3.369113 1_656
Sn0 Sr0 3.245875 1_555
Sn0 Sr0 3.245875 1_545
