# generated using pymatgen
data_NdFeCu
_symmetry_space_group_name_H-M   'P 1'
_cell_length_a   5.26766363
_cell_length_b   5.26788382
_cell_length_c   8.78227200
_cell_angle_alpha   90.00000000
_cell_angle_beta   90.00000000
_cell_angle_gamma   58.60659548
_symmetry_Int_Tables_number   1
_chemical_formula_structural   NdFeCu
_chemical_formula_sum   'Nd4 Fe4 Cu4'
_cell_volume   208.02761576
_cell_formula_units_Z   4
loop_
 _symmetry_equiv_pos_site_id
 _symmetry_equiv_pos_as_xyz
  1  'x, y, z'
loop_
 _atom_site_type_symbol
 _atom_site_label
 _atom_site_symmetry_multiplicity
 _atom_site_fract_x
 _atom_site_fract_y
 _atom_site_fract_z
 _atom_site_occupancy
  Nd  Nd0  1  0.33357600  0.33356300  0.56524500  1
  Nd  Nd1  1  0.66884200  0.66883200  0.43610000  1
  Nd  Nd2  1  0.66884200  0.66883200  0.06390000  1
  Nd  Nd3  1  0.33357600  0.33356300  0.93475500  1
  Fe  Fe0  1  0.83694000  0.83691100  0.75000000  1
  Fe  Fe1  1  0.17046900  0.66368600  0.25000000  1
  Fe  Fe2  1  0.66367800  0.17048600  0.25000000  1
  Fe  Fe3  1  0.16494500  0.16496200  0.25000000  1
  Cu  Cu0  1  0.99731000  0.99732400  0.49839300  1
  Cu  Cu1  1  0.99731000  0.99732400  0.00160700  1
  Cu  Cu2  1  0.83670700  0.32781900  0.75000000  1
  Cu  Cu3  1  0.32780400  0.83669700  0.75000000  1
loop_
_geom_bond_atom_site_label_1
_geom_bond_atom_site_label_2
_geom_bond_distance
_geom_bond_site_symmetry_2
Fe0 Nd3 3.046423 1_655
Fe0 Nd0 3.046423 1_655
Fe0 Nd0 3.046491 1_565
Fe0 Nd3 3.046491 1_565
Fe0 Nd1 3.159836 1_555
Fe0 Nd2 3.159836 1_556
Fe1 Fe2 2.543180 1_555
Fe1 Fe2 2.613261 1_465
Fe1 Fe3 2.625623 1_565
Fe1 Fe3 2.642495 1_555
Fe1 Nd2 3.095093 1_455
Fe1 Nd1 3.095093 1_455
Fe1 Nd1 3.104525 1_555
Fe1 Nd2 3.104525 1_555
Fe1 Nd3 3.141783 1_554
Fe1 Nd0 3.141783 1_555
Fe2 Fe3 2.625465 1_655
Fe2 Fe3 2.642433 1_555
Fe2 Nd2 3.095266 1_545
Fe2 Nd1 3.095266 1_545
Fe2 Nd1 3.104540 1_555
Fe2 Nd2 3.104540 1_555
Fe2 Nd3 3.141710 1_554
Fe2 Nd0 3.141710 1_555
Fe3 Nd2 3.052760 1_455
Fe3 Nd1 3.052760 1_455
Fe3 Nd2 3.052875 1_545
Fe3 Nd1 3.052875 1_545
Fe3 Nd3 3.172511 1_554
Fe3 Nd0 3.172511 1_555
Cu0 Fe2 2.647512 1_565
Cu0 Fe1 2.647563 1_655
Cu0 Fe0 2.655964 1_555
Cu0 Cu3 2.663607 1_655
Cu0 Cu2 2.663649 1_565
Cu0 Fe3 2.670356 1_665
Cu0 Nd0 3.042114 1_565
Cu0 Nd0 3.042357 1_655
Cu0 Nd1 3.067072 1_555
Cu0 Nd1 3.070776 1_655
Cu0 Nd1 3.070802 1_565
Cu0 Nd0 3.144591 1_665
Cu1 Fe2 2.647512 1_565
Cu1 Fe1 2.647563 1_655
Cu1 Fe0 2.655964 1_554
Cu1 Cu3 2.663607 1_654
Cu1 Cu2 2.663649 1_564
Cu1 Fe3 2.670356 1_665
Cu1 Nd3 3.042114 1_564
Cu1 Nd3 3.042357 1_654
Cu1 Nd2 3.067072 1_555
Cu1 Nd2 3.070776 1_655
Cu1 Nd2 3.070802 1_565
Cu1 Nd3 3.144591 1_664
Cu2 Cu3 2.532377 1_645
Cu2 Fe0 2.585407 1_545
Cu2 Cu3 2.624064 1_555
Cu2 Fe0 2.682477 1_555
Cu2 Nd0 3.092995 1_655
Cu2 Nd3 3.092995 1_655
Cu2 Nd0 3.094239 1_555
Cu2 Nd3 3.094239 1_555
Cu2 Nd1 3.154963 1_555
Cu2 Nd2 3.154963 1_556
Cu3 Fe0 2.585119 1_455
Cu3 Fe0 2.682545 1_555
Cu3 Nd3 3.093140 1_565
Cu3 Nd0 3.093140 1_565
Cu3 Nd0 3.094283 1_555
Cu3 Nd3 3.094283 1_555
Cu3 Nd1 3.154987 1_555
Cu3 Nd2 3.154987 1_556
