# generated using pymatgen
data_Na2CuAuCl6
_symmetry_space_group_name_H-M   'P 1'
_cell_length_a   6.99417702
_cell_length_b   6.99417702
_cell_length_c   6.99417702
_cell_angle_alpha   60.00000000
_cell_angle_beta   60.00000000
_cell_angle_gamma   60.00000000
_symmetry_Int_Tables_number   1
_chemical_formula_structural   Na2CuAuCl6
_chemical_formula_sum   'Na2 Cu1 Au1 Cl6'
_cell_volume   241.93286146
_cell_formula_units_Z   1
loop_
 _symmetry_equiv_pos_site_id
 _symmetry_equiv_pos_as_xyz
  1  'x, y, z'
loop_
 _atom_site_type_symbol
 _atom_site_label
 _atom_site_symmetry_multiplicity
 _atom_site_fract_x
 _atom_site_fract_y
 _atom_site_fract_z
 _atom_site_occupancy
  Na  Na0  1  0.75000000  0.75000000  0.75000000  1
  Na  Na1  1  0.25000000  0.25000000  0.25000000  1
  Cu  Cu0  1  0.50000000  0.50000000  0.50000000  1
  Au  Au0  1  0.00000000  0.00000000  0.00000000  1
  Cl  Cl0  1  0.74254600  0.25745400  0.25745400  1
  Cl  Cl1  1  0.25745400  0.25745400  0.74254600  1
  Cl  Cl2  1  0.25745400  0.74254600  0.74254600  1
  Cl  Cl3  1  0.25745400  0.74254600  0.25745400  1
  Cl  Cl4  1  0.74254600  0.25745400  0.74254600  1
  Cl  Cl5  1  0.74254600  0.74254600  0.25745400  1
loop_
_geom_bond_atom_site_label_1
_geom_bond_atom_site_label_2
_geom_bond_distance
_geom_bond_site_symmetry_2
Au0 Cl0 2.546544 1_455
Au0 Cl3 2.546544 1_545
Au0 Cl1 2.546544 1_554
Au0 Cl5 2.546544 1_445
Au0 Cl2 2.546544 1_544
Au0 Cl4 2.546544 1_454
Cl0 Cu0 2.399086 1_555
Cl1 Cu0 2.399086 1_555
Cl2 Cu0 2.399086 1_555
Cl3 Cu0 2.399086 1_555
Cl4 Cu0 2.399086 1_555
Cl5 Cu0 2.399086 1_555
