# generated using pymatgen
data_Pb2IO2
_symmetry_space_group_name_H-M   'P 1'
_cell_length_a   7.52255609
_cell_length_b   7.52255609
_cell_length_c   7.52255609
_cell_angle_alpha   148.51104746
_cell_angle_beta   148.51104746
_cell_angle_gamma   45.13151990
_symmetry_Int_Tables_number   1
_chemical_formula_structural   Pb2IO2
_chemical_formula_sum   'Pb2 I1 O2'
_cell_volume   115.77559067
_cell_formula_units_Z   1
loop_
 _symmetry_equiv_pos_site_id
 _symmetry_equiv_pos_as_xyz
  1  'x, y, z'
loop_
 _atom_site_type_symbol
 _atom_site_label
 _atom_site_symmetry_multiplicity
 _atom_site_fract_x
 _atom_site_fract_y
 _atom_site_fract_z
 _atom_site_occupancy
  Pb  Pb0  1  0.33651900  0.33651900  0.00000000  1
  Pb  Pb1  1  0.66348100  0.66348100  0.00000000  1
  I  I0  1  0.00000000  0.00000000  0.00000000  1
  O  O0  1  0.75000000  0.25000000  0.50000000  1
  O  O1  1  0.25000000  0.75000000  0.50000000  1
loop_
_geom_bond_atom_site_label_1
_geom_bond_atom_site_label_2
_geom_bond_distance
_geom_bond_site_symmetry_2
O0 Pb0 2.368858 1_555
O0 Pb0 2.368858 1_656
O0 Pb1 2.368858 1_545
O0 Pb1 2.368858 1_556
O1 Pb0 2.368858 1_555
O1 Pb0 2.368858 1_566
O1 Pb1 2.368858 1_455
O1 Pb1 2.368858 1_556
