# generated using pymatgen
data_BaZnSnF7
_symmetry_space_group_name_H-M   'P 1'
_cell_length_a   10.43599000
_cell_length_b   5.83246200
_cell_length_c   9.96938874
_cell_angle_alpha   87.26322569
_cell_angle_beta   90.00000000
_cell_angle_gamma   90.00000000
_symmetry_Int_Tables_number   1
_chemical_formula_structural   BaZnSnF7
_chemical_formula_sum   'Ba4 Zn4 Sn4 F28'
_cell_volume   606.11981105
_cell_formula_units_Z   4
loop_
 _symmetry_equiv_pos_site_id
 _symmetry_equiv_pos_as_xyz
  1  'x, y, z'
loop_
 _atom_site_type_symbol
 _atom_site_label
 _atom_site_symmetry_multiplicity
 _atom_site_fract_x
 _atom_site_fract_y
 _atom_site_fract_z
 _atom_site_occupancy
  Ba  Ba0  1  0.32396600  0.73195000  0.49535800  1
  Ba  Ba1  1  0.82396600  0.26805000  0.00464200  1
  Ba  Ba2  1  0.67603400  0.26805000  0.50464200  1
  Ba  Ba3  1  0.17603400  0.73195000  0.99535800  1
  Zn  Zn0  1  0.39176200  0.30256900  0.80673000  1
  Zn  Zn1  1  0.89176200  0.69743100  0.69327000  1
  Zn  Zn2  1  0.10823800  0.30256900  0.30673000  1
  Zn  Zn3  1  0.60823800  0.69743100  0.19327000  1
  Sn  Sn0  1  0.60088900  0.79923400  0.81757100  1
  Sn  Sn1  1  0.39911100  0.20076600  0.18242900  1
  Sn  Sn2  1  0.89911100  0.79923400  0.31757100  1
  Sn  Sn3  1  0.10088900  0.20076600  0.68242900  1
  F  F0  1  0.44598600  0.86054600  0.12115000  1
  F  F1  1  0.07361300  0.62446500  0.38269600  1
  F  F2  1  0.71682500  0.50994400  0.75603400  1
  F  F3  1  0.28317500  0.49005600  0.24396600  1
  F  F4  1  0.46062500  0.09405300  0.37749100  1
  F  F5  1  0.79670300  0.75465100  0.50966500  1
  F  F6  1  0.78200600  0.97654000  0.75504400  1
  F  F7  1  0.96062500  0.90594700  0.12250900  1
  F  F8  1  0.42638700  0.62446500  0.88269600  1
  F  F9  1  0.21682500  0.49005600  0.74396600  1
  F  F10  1  0.05401400  0.86054600  0.62115000  1
  F  F11  1  0.55401400  0.13945400  0.87885000  1
  F  F12  1  0.28200600  0.02346000  0.74495600  1
  F  F13  1  0.96379500  0.59116100  0.86850700  1
  F  F14  1  0.53937500  0.90594700  0.62250900  1
  F  F15  1  0.03937500  0.09405300  0.87749100  1
  F  F16  1  0.21799400  0.02346000  0.24495600  1
  F  F17  1  0.94598600  0.13945400  0.37885000  1
  F  F18  1  0.46379500  0.40883900  0.63149300  1
  F  F19  1  0.92638700  0.37553500  0.61730400  1
  F  F20  1  0.03620500  0.40883900  0.13149300  1
  F  F21  1  0.71799400  0.97654000  0.25504400  1
  F  F22  1  0.53620500  0.59116100  0.36850700  1
  F  F23  1  0.29670300  0.24534900  0.99033500  1
  F  F24  1  0.20329700  0.24534900  0.49033500  1
  F  F25  1  0.70329700  0.75465100  0.00966500  1
  F  F26  1  0.57361300  0.37553500  0.11730400  1
  F  F27  1  0.78317500  0.50994400  0.25603400  1
loop_
_geom_bond_atom_site_label_1
_geom_bond_atom_site_label_2
_geom_bond_distance
_geom_bond_site_symmetry_2
Ba0 F18 2.697886 1_555
Ba0 F22 2.697891 1_555
Ba0 F4 2.763710 1_565
Ba0 F14 2.795195 1_555
Ba0 F1 2.923673 1_555
Ba0 F3 2.964878 1_555
Ba0 F9 3.008248 1_555
Ba0 F24 3.107511 1_555
Ba0 F12 3.111005 1_565
Ba0 F16 3.152822 1_565
Ba0 F10 3.187753 1_555
Ba0 F24 3.246589 1_565
Ba1 F13 2.697886 1_554
Ba1 F20 2.697891 1_655
Ba1 F7 2.763710 1_545
Ba1 F15 2.795195 1_654
Ba1 F26 2.923673 1_555
Ba1 F27 2.964878 1_555
Ba1 F2 3.008248 1_554
Ba1 F25 3.107511 1_555
Ba1 F6 3.111005 1_544
Ba1 F21 3.152822 1_545
Ba1 F11 3.187753 1_554
Ba1 F25 3.246589 1_545
Ba2 F22 2.697886 1_555
Ba2 F18 2.697891 1_555
Ba2 F14 2.763710 1_545
Ba2 F4 2.795195 1_555
Ba2 F19 2.923673 1_555
Ba2 F2 2.964878 1_555
Ba2 F27 3.008248 1_555
Ba2 F5 3.107511 1_555
Ba2 F21 3.111005 1_545
Ba2 F6 3.152822 1_545
Ba2 F17 3.187753 1_555
Ba2 F5 3.246589 1_545
Ba3 F20 2.697886 1_556
Ba3 F13 2.697891 1_455
Ba3 F15 2.763710 1_565
Ba3 F7 2.795195 1_456
Ba3 F8 2.923673 1_555
Ba3 F9 2.964878 1_555
Ba3 F3 3.008248 1_556
Ba3 F23 3.107511 1_555
Ba3 F16 3.111005 1_566
Ba3 F12 3.152822 1_565
Ba3 F0 3.187753 1_556
Ba3 F23 3.246589 1_565
F0 Zn3 2.055201 1_555
F0 Sn1 2.160049 1_565
F1 Zn2 2.089189 1_555
F1 Sn2 2.171125 1_455
F2 Sn0 2.187688 1_555
F2 Zn1 2.203387 1_555
F3 Sn1 2.187688 1_555
F3 Zn2 2.203387 1_555
F4 Sn1 2.113190 1_555
F5 Zn1 2.094671 1_555
F5 Sn2 2.197657 1_555
F6 Zn1 2.106422 1_555
F6 Sn0 2.229137 1_555
F7 Sn2 2.113190 1_555
F8 Zn0 2.089189 1_555
F8 Sn0 2.171125 1_555
F9 Sn3 2.187688 1_555
F9 Zn0 2.203387 1_555
F10 Zn1 2.055201 1_455
F10 Sn3 2.160049 1_565
F11 Zn0 2.055201 1_555
F11 Sn0 2.160049 1_545
F12 Zn0 2.106422 1_555
F12 Sn3 2.229137 1_555
F13 Zn1 1.974311 1_555
F14 Sn0 2.113190 1_555
F15 Sn3 2.113190 1_555
F16 Zn2 2.106422 1_555
F16 Sn1 2.229137 1_555
F17 Zn2 2.055201 1_655
F17 Sn2 2.160049 1_545
F18 Zn0 1.974311 1_555
F19 Zn1 2.089189 1_555
F19 Sn3 2.171125 1_655
F20 Zn2 1.974311 1_555
F21 Zn3 2.106422 1_555
F21 Sn2 2.229137 1_555
F22 Zn3 1.974311 1_555
F23 Zn0 2.094671 1_555
F23 Sn1 2.197657 1_556
F24 Zn2 2.094671 1_555
F24 Sn3 2.197657 1_555
F25 Zn3 2.094671 1_555
F25 Sn0 2.197657 1_554
F26 Zn3 2.089189 1_555
F26 Sn1 2.171125 1_555
F27 Sn2 2.187688 1_555
F27 Zn3 2.203387 1_555
