# generated using pymatgen
data_Sr2CoO4
_symmetry_space_group_name_H-M   'P 1'
_cell_length_a   6.80983308
_cell_length_b   8.69560953
_cell_length_c   7.86723280
_cell_angle_alpha   116.91875765
_cell_angle_beta   73.18218812
_cell_angle_gamma   112.63087255
_symmetry_Int_Tables_number   1
_chemical_formula_structural   Sr2CoO4
_chemical_formula_sum   'Sr8 Co4 O16'
_cell_volume   379.63355392
_cell_formula_units_Z   4
loop_
 _symmetry_equiv_pos_site_id
 _symmetry_equiv_pos_as_xyz
  1  'x, y, z'
loop_
 _atom_site_type_symbol
 _atom_site_label
 _atom_site_symmetry_multiplicity
 _atom_site_fract_x
 _atom_site_fract_y
 _atom_site_fract_z
 _atom_site_occupancy
  Sr  Sr0  1  0.28182100  0.32033600  0.33677800  1
  Sr  Sr1  1  0.28144300  0.31997100  0.84257500  1
  Sr  Sr2  1  0.28216700  0.81873600  0.09284900  1
  Sr  Sr3  1  0.28244000  0.81937600  0.58519700  1
  Sr  Sr4  1  0.71767900  0.67716700  0.65579700  1
  Sr  Sr5  1  0.71811000  0.67749100  0.16276900  1
  Sr  Sr6  1  0.71826700  0.17988600  0.40704200  1
  Sr  Sr7  1  0.71820700  0.17978800  0.91385300  1
  Co  Co0  1  0.00006100  0.49540700  0.74792500  1
  Co  Co1  1  0.99938600  0.00107600  0.50084100  1
  Co  Co2  1  0.00087500  0.49828700  0.24922100  1
  Co  Co3  1  0.00095400  0.98306600  0.99122000  1
  O  O0  1  0.68232700  0.42186200  0.29198600  1
  O  O1  1  0.69290400  0.42235100  0.78621200  1
  O  O2  1  0.68138300  0.92678200  0.04368800  1
  O  O3  1  0.69124000  0.91942100  0.53631500  1
  O  O4  1  0.30747100  0.57544500  0.71093700  1
  O  O5  1  0.31845900  0.58036500  0.21018700  1
  O  O6  1  0.30749000  0.07400100  0.46159700  1
  O  O7  1  0.31800200  0.08707200  0.96216300  1
  O  O8  1  0.00080200  0.50458200  0.49083500  1
  O  O9  1  0.99853200  0.50328400  0.01307900  1
  O  O10  1  0.00026400  0.00471700  0.24413100  1
  O  O11  1  0.99868900  0.00380900  0.76019700  1
  O  O12  1  0.99979200  0.24762100  0.62350500  1
  O  O13  1  0.00118700  0.26885500  0.13437600  1
  O  O14  1  0.99940700  0.74166200  0.37159100  1
  O  O15  1  0.00064000  0.74758300  0.87313600  1
loop_
_geom_bond_atom_site_label_1
_geom_bond_atom_site_label_2
_geom_bond_distance
_geom_bond_site_symmetry_2
Co0 O1 1.911942 1_455
Co0 O4 1.913386 1_555
Co0 O12 1.920676 1_455
Co0 O15 1.954122 1_555
Co0 O9 2.053027 1_456
Co0 O8 2.058432 1_555
Co1 O12 1.910791 1_555
Co1 O6 1.917843 1_655
Co1 O3 1.918153 1_545
Co1 O14 2.011395 1_545
Co1 O11 2.028412 1_555
Co1 O10 2.032382 1_655
Co2 O13 1.779492 1_555
Co2 O8 1.876547 1_555
Co2 O9 1.882626 1_455
Co2 O14 1.889861 1_455
Co2 O5 1.976661 1_555
Co2 O0 1.982726 1_455
Co3 O15 1.825196 1_555
Co3 O10 1.910628 1_566
Co3 O11 1.910843 1_465
Co3 O7 1.982559 1_565
Co3 O2 1.997326 1_456
Co3 O13 2.215396 1_566
O0 Sr0 2.492927 1_555
O0 Sr4 2.722617 1_555
O0 Sr5 2.742214 1_555
O0 Sr6 2.748751 1_555
O0 Sr7 2.765082 1_554
O1 Sr1 2.561061 1_555
O1 Sr6 2.767835 1_555
O1 Sr4 2.767929 1_555
O1 Sr5 2.788887 1_556
O1 Sr7 2.790082 1_555
O2 Sr2 2.485552 1_555
O2 Sr6 2.715141 1_565
O2 Sr7 2.721831 1_564
O2 Sr5 2.833891 1_555
O2 Sr4 2.839679 1_554
O3 Sr3 2.544446 1_555
O3 Sr5 2.735464 1_555
O3 Sr4 2.745228 1_555
O3 Sr6 2.802594 1_565
O3 Sr7 2.808634 1_565
O4 Sr4 2.553151 1_555
O4 Sr0 2.775444 1_555
O4 Sr1 2.777210 1_555
O4 Sr2 2.785390 1_556
O4 Sr3 2.789718 1_555
O5 Sr5 2.487607 1_555
O5 Sr2 2.732845 1_555
O5 Sr3 2.739614 1_555
O5 Sr1 2.758248 1_554
O5 Sr0 2.761841 1_555
O6 Sr6 2.556934 1_555
O6 Sr3 2.727589 1_545
O6 Sr2 2.745370 1_545
O6 Sr1 2.787365 1_555
O6 Sr0 2.806277 1_555
O7 Sr7 2.491783 1_555
O7 Sr1 2.701359 1_555
O7 Sr0 2.722595 1_556
O7 Sr3 2.829041 1_545
O7 Sr2 2.854804 1_546
O8 Sr3 2.581874 1_555
O8 Sr4 2.582455 1_455
O8 Sr0 2.637649 1_555
O8 Sr6 2.641247 1_455
O9 Sr5 2.576410 1_555
O9 Sr2 2.591172 1_655
O9 Sr7 2.628287 1_554
O9 Sr1 2.642698 1_654
O10 Sr0 2.586022 1_555
O10 Sr6 2.590325 1_455
O10 Sr2 2.653592 1_545
O10 Sr5 2.655761 1_445
O11 Sr7 2.586413 1_555
O11 Sr1 2.592437 1_655
O11 Sr4 2.649219 1_545
O11 Sr3 2.654719 1_645
O12 Sr0 2.650802 1_655
O12 Sr6 2.652250 1_555
O12 Sr1 2.654675 1_655
O12 Sr7 2.656606 1_555
O13 Sr0 2.616340 1_555
O13 Sr1 2.616453 1_554
O13 Sr6 2.622224 1_455
O13 Sr7 2.625380 1_454
O14 Sr4 2.611451 1_555
O14 Sr3 2.615195 1_655
O14 Sr5 2.616904 1_555
O14 Sr2 2.619161 1_655
O15 Sr3 2.654592 1_555
O15 Sr4 2.657460 1_455
O15 Sr2 2.661293 1_556
O15 Sr5 2.661474 1_456
