# generated using pymatgen
data_Mg4Si3
_symmetry_space_group_name_H-M   'P 1'
_cell_length_a   7.39477262
_cell_length_b   6.80355736
_cell_length_c   6.24918657
_cell_angle_alpha   103.62080754
_cell_angle_beta   99.47321983
_cell_angle_gamma   104.07708301
_symmetry_Int_Tables_number   1
_chemical_formula_structural   Mg4Si3
_chemical_formula_sum   'Mg8 Si6'
_cell_volume   288.05738193
_cell_formula_units_Z   2
loop_
 _symmetry_equiv_pos_site_id
 _symmetry_equiv_pos_as_xyz
  1  'x, y, z'
loop_
 _atom_site_type_symbol
 _atom_site_label
 _atom_site_symmetry_multiplicity
 _atom_site_fract_x
 _atom_site_fract_y
 _atom_site_fract_z
 _atom_site_occupancy
  Mg  Mg0  1  0.46448500  0.89497700  0.59431100  1
  Mg  Mg1  1  0.10356100  0.22377900  0.07094300  1
  Mg  Mg2  1  0.19489800  0.62742400  0.99104100  1
  Mg  Mg3  1  0.44050600  0.39859100  0.55958000  1
  Mg  Mg4  1  0.02862900  0.56375400  0.46010000  1
  Mg  Mg5  1  0.48619500  0.07941200  0.13681800  1
  Mg  Mg6  1  0.77318800  0.39967000  0.96777300  1
  Mg  Mg7  1  0.79462000  0.84496300  0.40704000  1
  Si  Si0  1  0.07164300  0.23960200  0.61950500  1
  Si  Si1  1  0.73383400  0.21769800  0.53749300  1
  Si  Si2  1  0.57892100  0.72739100  0.93405500  1
  Si  Si3  1  0.49978900  0.49559100  0.16947300  1
  Si  Si4  1  0.15711200  0.96231700  0.34605900  1
  Si  Si5  1  0.92257700  0.82474300  0.95587600  1
loop_
_geom_bond_atom_site_label_1
_geom_bond_atom_site_label_2
_geom_bond_distance
_geom_bond_site_symmetry_2
Mg0 Si1 2.717852 1_565
Mg0 Si4 2.731956 1_555
Mg0 Si2 2.746246 1_555
Mg0 Mg7 2.932946 1_555
Mg1 Si5 2.583596 1_444
Mg1 Si4 2.799291 1_545
Mg1 Si0 2.821743 1_554
Mg1 Si3 2.935643 1_555
Mg2 Si5 2.685904 1_455
Mg2 Si3 2.785370 1_556
Mg2 Si2 2.856759 1_555
Mg2 Si4 2.885216 1_556
Mg2 Si0 2.903732 1_555
Mg3 Si2 2.675878 1_555
Mg3 Si3 2.745840 1_555
Mg3 Si1 2.748788 1_555
Mg3 Si0 2.800386 1_555
Mg3 Si4 3.028314 1_545
Mg4 Si0 2.688658 1_555
Mg4 Mg7 2.912942 1_455
Mg4 Si4 2.939967 1_555
Mg4 Si1 2.985961 1_455
Mg5 Si1 2.655390 1_555
Mg5 Si2 2.732630 1_544
Mg5 Si3 2.766183 1_555
Mg5 Si4 2.976799 1_545
Mg6 Si1 2.616654 1_555
Mg6 Si3 2.682395 1_556
Mg6 Si5 2.857233 1_555
Mg6 Si2 2.959612 1_555
Mg7 Si1 2.645558 1_565
Mg7 Si3 2.712728 1_555
Mg7 Si4 2.721484 1_655
Mg7 Si0 2.813954 1_665
Mg7 Si2 2.938443 1_554
Mg7 Si5 3.101952 1_554
Si0 Si1 2.426209 1_455
Si0 Si4 2.509115 1_545
Si2 Si3 2.433333 1_556
Si2 Si5 2.437188 1_555
Si4 Si5 2.563748 1_454
