# generated using pymatgen
data_LaMg14Cr
_symmetry_space_group_name_H-M   'P 1'
_cell_length_a   6.56033118
_cell_length_b   6.37739045
_cell_length_c   10.38167541
_cell_angle_alpha   90.00000000
_cell_angle_beta   90.00000000
_cell_angle_gamma   119.08175638
_symmetry_Int_Tables_number   1
_chemical_formula_structural   LaMg14Cr
_chemical_formula_sum   'La1 Mg14 Cr1'
_cell_volume   379.58705335
_cell_formula_units_Z   1
loop_
 _symmetry_equiv_pos_site_id
 _symmetry_equiv_pos_as_xyz
  1  'x, y, z'
loop_
 _atom_site_type_symbol
 _atom_site_label
 _atom_site_symmetry_multiplicity
 _atom_site_fract_x
 _atom_site_fract_y
 _atom_site_fract_z
 _atom_site_occupancy
  La  La0  1  0.15392442  0.32696171  0.12500000  1
  Mg  Mg0  1  0.16752990  0.33376445  0.62500000  1
  Mg  Mg1  1  0.16338677  0.83169288  0.62500000  1
  Mg  Mg2  1  0.64985124  0.31502863  0.12500000  1
  Mg  Mg3  1  0.66611520  0.33601773  0.62500000  1
  Mg  Mg4  1  0.64985124  0.83482161  0.12500000  1
  Mg  Mg5  1  0.66611520  0.83009648  0.62500000  1
  Mg  Mg6  1  0.33910856  0.16327250  0.38053866  1
  Mg  Mg7  1  0.33910856  0.16327250  0.86946134  1
  Mg  Mg8  1  0.33910856  0.67583706  0.38053866  1
  Mg  Mg9  1  0.33910856  0.67583706  0.86946134  1
  Mg  Mg10  1  0.82949219  0.16474660  0.38666141  1
  Mg  Mg11  1  0.82949219  0.16474660  0.86333859  1
  Mg  Mg12  1  0.84558551  0.67279325  0.36096151  1
  Mg  Mg13  1  0.84558551  0.67279325  0.88903849  1
  Cr  Cr0  1  0.17663640  0.83831770  0.12500000  1
loop_
_geom_bond_atom_site_label_1
_geom_bond_atom_site_label_2
_geom_bond_distance
_geom_bond_site_symmetry_2
La0 Mg4 3.270573 1_445
La0 Mg2 3.270573 1_455
La0 Mg4 3.291106 1_555
La0 Mg2 3.291106 1_555
La0 Mg6 3.291882 1_555
La0 Mg7 3.291882 1_554
La0 Mg8 3.291888 1_555
La0 Mg9 3.291888 1_554
La0 Mg11 3.292275 1_454
La0 Mg10 3.292275 1_455
Mg0 Mg11 3.143006 1_455
Mg0 Mg10 3.143006 1_455
Mg0 Mg7 3.174899 1_555
Mg0 Mg6 3.174899 1_555
Mg0 Mg8 3.174906 1_555
Mg0 Mg9 3.174906 1_555
Mg0 Mg1 3.188784 1_555
Mg0 Mg1 3.188784 1_545
Mg0 Mg5 3.263924 1_555
Mg0 Mg3 3.263924 1_555
Mg0 Mg5 3.296455 1_445
Mg0 Mg3 3.296455 1_455
Mg1 Mg9 3.141938 1_555
Mg1 Mg8 3.141938 1_555
Mg1 Mg7 3.141944 1_565
Mg1 Mg6 3.141944 1_565
Mg1 Mg3 3.257330 1_455
Mg1 Mg5 3.257330 1_455
Mg1 Mg12 3.291470 1_455
Mg1 Mg13 3.291470 1_455
Mg1 Mg3 3.303025 1_565
Mg1 Mg5 3.303025 1_555
Mg2 Mg4 3.062468 1_545
Mg2 Mg6 3.195699 1_555
Mg2 Mg7 3.195699 1_554
Mg2 Mg4 3.314923 1_555
Mg3 Mg5 3.150933 1_555
Mg3 Mg6 3.155855 1_555
Mg3 Mg7 3.155855 1_555
Mg3 Mg5 3.226457 1_545
Mg4 Mg8 3.195698 1_555
Mg4 Mg9 3.195698 1_554
Mg5 Mg9 3.155855 1_555
Mg5 Mg8 3.155855 1_555
Mg6 Mg8 3.108566 1_545
Mg6 Mg8 3.268824 1_555
Mg7 Mg9 3.108566 1_545
Mg7 Mg9 3.268824 1_555
Mg10 Mg3 3.098755 1_555
Mg10 Mg5 3.098762 1_545
Mg10 Mg12 3.201168 1_555
Mg10 Mg12 3.201168 1_545
Mg10 Mg8 3.213149 1_545
Mg10 Mg6 3.213149 1_555
Mg10 Mg2 3.284005 1_555
Mg10 Mg4 3.284011 1_545
Mg10 Mg8 3.348435 1_655
Mg10 Mg6 3.348435 1_655
Mg11 Mg3 3.098755 1_555
Mg11 Mg5 3.098762 1_545
Mg11 Mg13 3.201168 1_555
Mg11 Mg13 3.201168 1_545
Mg11 Mg9 3.213149 1_545
Mg11 Mg7 3.213149 1_555
Mg11 Mg2 3.284005 1_556
Mg11 Mg4 3.284011 1_546
Mg11 Mg9 3.348435 1_655
Mg11 Mg7 3.348435 1_655
Mg12 Mg4 3.163446 1_555
Mg12 Mg2 3.163452 1_555
Mg12 Mg6 3.234675 1_665
Mg12 Mg8 3.234676 1_655
Mg12 Mg5 3.324873 1_555
Mg12 Mg3 3.324879 1_555
Mg12 Mg6 3.338327 1_555
Mg12 Mg8 3.338328 1_555
Mg13 Mg4 3.163446 1_556
Mg13 Mg2 3.163452 1_556
Mg13 Mg7 3.234675 1_665
Mg13 Mg9 3.234676 1_655
Mg13 Mg5 3.324873 1_555
Mg13 Mg3 3.324879 1_555
Mg13 Mg7 3.338327 1_555
Mg13 Mg9 3.338328 1_555
Cr0 Mg13 3.098920 1_454
Cr0 Mg12 3.098920 1_455
Cr0 Mg2 3.115344 1_565
Cr0 Mg4 3.115344 1_555
Cr0 La0 3.191353 1_555
Cr0 La0 3.191353 1_565
Cr0 Mg8 3.212700 1_555
Cr0 Mg9 3.212700 1_554
Cr0 Mg6 3.212706 1_565
Cr0 Mg7 3.212706 1_564
Cr0 Mg2 3.445103 1_455
Cr0 Mg4 3.445103 1_455
