# generated using pymatgen
data_MgCd
_symmetry_space_group_name_H-M   'P 1'
_cell_length_a   10.09673948
_cell_length_b   6.43665830
_cell_length_c   31.60682968
_cell_angle_alpha   90.00000000
_cell_angle_beta   90.00000000
_cell_angle_gamma   90.00000000
_symmetry_Int_Tables_number   1
_chemical_formula_structural   MgCd
_chemical_formula_sum   'Mg48 Cd48'
_cell_volume   2054.10453433
_cell_formula_units_Z   48
loop_
 _symmetry_equiv_pos_site_id
 _symmetry_equiv_pos_as_xyz
  1  'x, y, z'
loop_
 _atom_site_type_symbol
 _atom_site_label
 _atom_site_symmetry_multiplicity
 _atom_site_fract_x
 _atom_site_fract_y
 _atom_site_fract_z
 _atom_site_occupancy
  Mg  Mg0_0  1  0.00000000  0.00000000  0.33373880  1
  Mg  Mg0_1  1  0.00000000  0.00000000  0.83373880  1
  Mg  Mg0_2  1  0.00000000  0.50000000  0.33373880  1
  Mg  Mg0_3  1  0.00000000  0.50000000  0.83373880  1
  Mg  Mg0_4  1  0.50000000  0.00000000  0.33373880  1
  Mg  Mg0_5  1  0.50000000  0.00000000  0.83373880  1
  Mg  Mg0_6  1  0.50000000  0.50000000  0.33373880  1
  Mg  Mg0_7  1  0.50000000  0.50000000  0.83373880  1
  Mg  Mg1_0  1  0.25000000  0.00000000  0.27524726  1
  Mg  Mg1_1  1  0.25000000  0.00000000  0.77524726  1
  Mg  Mg1_2  1  0.25000000  0.50000000  0.27524726  1
  Mg  Mg1_3  1  0.25000000  0.50000000  0.77524726  1
  Mg  Mg1_4  1  0.75000000  0.00000000  0.27524726  1
  Mg  Mg1_5  1  0.75000000  0.00000000  0.77524726  1
  Mg  Mg1_6  1  0.75000000  0.50000000  0.27524726  1
  Mg  Mg1_7  1  0.75000000  0.50000000  0.77524726  1
  Mg  Mg2_0  1  0.25000000  0.25000000  0.36241094  1
  Mg  Mg2_1  1  0.25000000  0.25000000  0.86241093  1
  Mg  Mg2_2  1  0.25000000  0.75000000  0.36241094  1
  Mg  Mg2_3  1  0.25000000  0.75000000  0.86241093  1
  Mg  Mg2_4  1  0.75000000  0.25000000  0.36241094  1
  Mg  Mg2_5  1  0.75000000  0.25000000  0.86241093  1
  Mg  Mg2_6  1  0.75000000  0.75000000  0.36241094  1
  Mg  Mg2_7  1  0.75000000  0.75000000  0.86241093  1
  Mg  Mg3_0  1  0.00000000  0.25000000  0.08373880  1
  Mg  Mg3_1  1  0.00000000  0.25000000  0.58373880  1
  Mg  Mg3_2  1  0.00000000  0.75000000  0.08373880  1
  Mg  Mg3_3  1  0.00000000  0.75000000  0.58373880  1
  Mg  Mg3_4  1  0.50000000  0.25000000  0.08373880  1
  Mg  Mg3_5  1  0.50000000  0.25000000  0.58373880  1
  Mg  Mg3_6  1  0.50000000  0.75000000  0.08373880  1
  Mg  Mg3_7  1  0.50000000  0.75000000  0.58373880  1
  Mg  Mg4_0  1  0.25000000  0.25000000  0.02524726  1
  Mg  Mg4_1  1  0.25000000  0.25000000  0.52524726  1
  Mg  Mg4_2  1  0.25000000  0.75000000  0.02524726  1
  Mg  Mg4_3  1  0.25000000  0.75000000  0.52524726  1
  Mg  Mg4_4  1  0.75000000  0.25000000  0.02524726  1
  Mg  Mg4_5  1  0.75000000  0.25000000  0.52524726  1
  Mg  Mg4_6  1  0.75000000  0.75000000  0.02524726  1
  Mg  Mg4_7  1  0.75000000  0.75000000  0.52524726  1
  Mg  Mg5_0  1  0.25000000  0.00000000  0.11241094  1
  Mg  Mg5_1  1  0.25000000  0.00000000  0.61241094  1
  Mg  Mg5_2  1  0.25000000  0.50000000  0.11241094  1
  Mg  Mg5_3  1  0.25000000  0.50000000  0.61241094  1
  Mg  Mg5_4  1  0.75000000  0.00000000  0.11241094  1
  Mg  Mg5_5  1  0.75000000  0.00000000  0.61241094  1
  Mg  Mg5_6  1  0.75000000  0.50000000  0.11241094  1
  Mg  Mg5_7  1  0.75000000  0.50000000  0.61241094  1
  Cd  Cd0_0  1  0.00000000  0.25000000  0.25164453  1
  Cd  Cd0_1  1  0.00000000  0.25000000  0.75164453  1
  Cd  Cd0_2  1  0.00000000  0.75000000  0.25164453  1
  Cd  Cd0_3  1  0.00000000  0.75000000  0.75164453  1
  Cd  Cd0_4  1  0.50000000  0.25000000  0.25164453  1
  Cd  Cd0_5  1  0.50000000  0.25000000  0.75164453  1
  Cd  Cd0_6  1  0.50000000  0.75000000  0.25164453  1
  Cd  Cd0_7  1  0.50000000  0.75000000  0.75164453  1
  Cd  Cd1_0  1  0.00000000  0.25000000  0.41580014  1
  Cd  Cd1_1  1  0.00000000  0.25000000  0.91580014  1
  Cd  Cd1_2  1  0.00000000  0.75000000  0.41580014  1
  Cd  Cd1_3  1  0.00000000  0.75000000  0.91580014  1
  Cd  Cd1_4  1  0.50000000  0.25000000  0.41580014  1
  Cd  Cd1_5  1  0.50000000  0.25000000  0.91580014  1
  Cd  Cd1_6  1  0.50000000  0.75000000  0.41580014  1
  Cd  Cd1_7  1  0.50000000  0.75000000  0.91580014  1
  Cd  Cd2_0  1  0.25000000  0.00000000  0.44449184  1
  Cd  Cd2_1  1  0.25000000  0.00000000  0.94449184  1
  Cd  Cd2_2  1  0.25000000  0.50000000  0.44449184  1
  Cd  Cd2_3  1  0.25000000  0.50000000  0.94449184  1
  Cd  Cd2_4  1  0.75000000  0.00000000  0.44449184  1
  Cd  Cd2_5  1  0.75000000  0.00000000  0.94449184  1
  Cd  Cd2_6  1  0.75000000  0.50000000  0.44449184  1
  Cd  Cd2_7  1  0.75000000  0.50000000  0.94449184  1
  Cd  Cd3_0  1  0.00000000  0.00000000  0.00164453  1
  Cd  Cd3_1  1  0.00000000  0.00000000  0.50164453  1
  Cd  Cd3_2  1  0.00000000  0.50000000  0.00164453  1
  Cd  Cd3_3  1  0.00000000  0.50000000  0.50164453  1
  Cd  Cd3_4  1  0.50000000  0.00000000  0.00164453  1
  Cd  Cd3_5  1  0.50000000  0.00000000  0.50164453  1
  Cd  Cd3_6  1  0.50000000  0.50000000  0.00164453  1
  Cd  Cd3_7  1  0.50000000  0.50000000  0.50164453  1
  Cd  Cd4_0  1  0.00000000  0.00000000  0.16580014  1
  Cd  Cd4_1  1  0.00000000  0.00000000  0.66580014  1
  Cd  Cd4_2  1  0.00000000  0.50000000  0.16580014  1
  Cd  Cd4_3  1  0.00000000  0.50000000  0.66580014  1
  Cd  Cd4_4  1  0.50000000  0.00000000  0.16580014  1
  Cd  Cd4_5  1  0.50000000  0.00000000  0.66580014  1
  Cd  Cd4_6  1  0.50000000  0.50000000  0.16580014  1
  Cd  Cd4_7  1  0.50000000  0.50000000  0.66580014  1
  Cd  Cd5_0  1  0.25000000  0.25000000  0.19449184  1
  Cd  Cd5_1  1  0.25000000  0.25000000  0.69449184  1
  Cd  Cd5_2  1  0.25000000  0.75000000  0.19449184  1
  Cd  Cd5_3  1  0.25000000  0.75000000  0.69449184  1
  Cd  Cd5_4  1  0.75000000  0.25000000  0.19449184  1
  Cd  Cd5_5  1  0.75000000  0.25000000  0.69449184  1
  Cd  Cd5_6  1  0.75000000  0.75000000  0.19449184  1
  Cd  Cd5_7  1  0.75000000  0.75000000  0.69449184  1
loop_
_geom_bond_atom_site_label_1
_geom_bond_atom_site_label_2
_geom_bond_distance
_geom_bond_site_symmetry_2
Mg0_0 Mg2_0 3.127648 1_555
Mg0_0 Mg2_4 3.127648 1_455
Mg0_0 Mg2_2 3.127648 1_545
Mg0_0 Mg2_6 3.127648 1_445
Mg0_0 Mg1_0 3.128789 1_555
Mg0_0 Mg1_4 3.128789 1_455
Mg0_0 Mg0_2 3.218329 1_545
Mg0_0 Mg0_2 3.218329 1_555
Mg0_1 Mg2_7 3.127648 1_445
Mg0_1 Mg2_3 3.127648 1_545
Mg0_1 Mg2_1 3.127648 1_555
Mg0_1 Mg2_5 3.127648 1_455
Mg0_1 Mg1_1 3.128789 1_555
Mg0_1 Mg1_5 3.128789 1_455
Mg0_1 Mg0_3 3.218329 1_545
Mg0_1 Mg0_3 3.218329 1_555
Mg0_2 Mg2_0 3.127648 1_555
Mg0_2 Mg2_4 3.127648 1_455
Mg0_2 Mg2_2 3.127648 1_555
Mg0_2 Mg2_6 3.127648 1_455
Mg0_2 Mg1_2 3.128789 1_555
Mg0_2 Mg1_6 3.128789 1_455
Mg0_3 Mg2_1 3.127648 1_555
Mg0_3 Mg2_5 3.127648 1_455
Mg0_3 Mg2_7 3.127648 1_455
Mg0_3 Mg2_3 3.127648 1_555
Mg0_3 Mg1_3 3.128789 1_555
Mg0_3 Mg1_7 3.128789 1_455
Mg0_4 Mg2_0 3.127648 1_555
Mg0_4 Mg2_6 3.127648 1_545
Mg0_4 Mg2_4 3.127648 1_555
Mg0_4 Mg2_2 3.127648 1_545
Mg0_4 Mg1_0 3.128789 1_555
Mg0_4 Mg1_4 3.128789 1_555
Mg0_4 Mg0_6 3.218329 1_555
Mg0_4 Mg0_6 3.218329 1_545
Mg0_5 Mg2_3 3.127648 1_545
Mg0_5 Mg2_1 3.127648 1_555
Mg0_5 Mg2_7 3.127648 1_545
Mg0_5 Mg2_5 3.127648 1_555
Mg0_5 Mg1_1 3.128789 1_555
Mg0_5 Mg1_5 3.128789 1_555
Mg0_5 Mg0_7 3.218329 1_555
Mg0_5 Mg0_7 3.218329 1_545
Mg0_6 Mg2_0 3.127648 1_555
Mg0_6 Mg2_4 3.127648 1_555
Mg0_6 Mg2_2 3.127648 1_555
Mg0_6 Mg2_6 3.127648 1_555
Mg0_6 Mg1_2 3.128789 1_555
Mg0_6 Mg1_6 3.128789 1_555
Mg0_7 Mg2_1 3.127648 1_555
Mg0_7 Mg2_7 3.127648 1_555
Mg0_7 Mg2_5 3.127648 1_555
Mg0_7 Mg2_3 3.127648 1_555
Mg0_7 Mg1_3 3.128789 1_555
Mg0_7 Mg1_7 3.128789 1_555
Mg1_0 Mg2_0 3.190495 1_555
Mg1_0 Mg2_2 3.190495 1_545
Mg1_1 Mg2_1 3.190495 1_555
Mg1_1 Mg2_3 3.190495 1_545
Mg1_2 Mg2_0 3.190495 1_555
Mg1_2 Mg2_2 3.190495 1_555
Mg1_3 Mg2_1 3.190495 1_555
Mg1_3 Mg2_3 3.190495 1_555
Mg1_4 Mg2_6 3.190495 1_545
Mg1_4 Mg2_4 3.190495 1_555
Mg1_5 Mg2_7 3.190495 1_545
Mg1_5 Mg2_5 3.190495 1_555
Mg1_6 Mg2_6 3.190495 1_555
Mg1_6 Mg2_4 3.190495 1_555
Mg1_7 Mg2_7 3.190495 1_555
Mg1_7 Mg2_5 3.190495 1_555
Mg2_0 Mg2_2 3.218329 1_545
Mg2_0 Mg2_2 3.218329 1_555
Mg2_1 Mg2_3 3.218329 1_555
Mg2_1 Mg2_3 3.218329 1_545
Mg2_4 Mg2_6 3.218329 1_555
Mg2_4 Mg2_6 3.218329 1_545
Mg2_5 Mg2_7 3.218329 1_545
Mg2_5 Mg2_7 3.218329 1_555
Mg3_0 Mg5_4 3.127648 1_455
Mg3_0 Mg5_2 3.127648 1_555
Mg3_0 Mg5_6 3.127648 1_455
Mg3_0 Mg5_0 3.127648 1_555
Mg3_0 Mg4_4 3.128789 1_455
Mg3_0 Mg4_0 3.128789 1_555
Mg3_0 Mg3_2 3.218329 1_555
Mg3_0 Mg3_2 3.218329 1_545
Mg3_1 Mg5_3 3.127648 1_555
Mg3_1 Mg5_7 3.127648 1_455
Mg3_1 Mg5_5 3.127648 1_455
Mg3_1 Mg5_1 3.127648 1_555
Mg3_1 Mg4_1 3.128789 1_555
Mg3_1 Mg4_5 3.128789 1_455
Mg3_1 Mg3_3 3.218329 1_555
Mg3_1 Mg3_3 3.218329 1_545
Mg3_2 Mg5_0 3.127648 1_565
Mg3_2 Mg5_2 3.127648 1_555
Mg3_2 Mg5_6 3.127648 1_455
Mg3_2 Mg5_4 3.127648 1_465
Mg3_2 Mg4_6 3.128789 1_455
Mg3_2 Mg4_2 3.128789 1_555
Mg3_3 Mg5_5 3.127648 1_465
Mg3_3 Mg5_3 3.127648 1_555
Mg3_3 Mg5_7 3.127648 1_455
Mg3_3 Mg5_1 3.127648 1_565
Mg3_3 Mg4_7 3.128789 1_455
Mg3_3 Mg4_3 3.128789 1_555
Mg3_4 Mg5_2 3.127648 1_555
Mg3_4 Mg5_6 3.127648 1_555
Mg3_4 Mg5_0 3.127648 1_555
Mg3_4 Mg5_4 3.127648 1_555
Mg3_4 Mg4_4 3.128789 1_555
Mg3_4 Mg4_0 3.128789 1_555
Mg3_4 Mg3_6 3.218329 1_545
Mg3_4 Mg3_6 3.218329 1_555
Mg3_5 Mg5_5 3.127648 1_555
Mg3_5 Mg5_3 3.127648 1_555
Mg3_5 Mg5_1 3.127648 1_555
Mg3_5 Mg5_7 3.127648 1_555
Mg3_5 Mg4_1 3.128789 1_555
Mg3_5 Mg4_5 3.128789 1_555
Mg3_5 Mg3_7 3.218329 1_545
Mg3_5 Mg3_7 3.218329 1_555
Mg3_6 Mg5_0 3.127648 1_565
Mg3_6 Mg5_2 3.127648 1_555
Mg3_6 Mg5_6 3.127648 1_555
Mg3_6 Mg5_4 3.127648 1_565
Mg3_6 Mg4_2 3.128789 1_555
Mg3_6 Mg4_6 3.128789 1_555
Mg3_7 Mg5_3 3.127648 1_555
Mg3_7 Mg5_1 3.127648 1_565
Mg3_7 Mg5_5 3.127648 1_565
Mg3_7 Mg5_7 3.127648 1_555
Mg3_7 Mg4_7 3.128789 1_555
Mg3_7 Mg4_3 3.128789 1_555
Mg4_0 Mg5_2 3.190495 1_555
Mg4_0 Mg5_0 3.190495 1_555
Mg4_1 Mg5_3 3.190495 1_555
Mg4_1 Mg5_1 3.190495 1_555
Mg4_2 Mg5_0 3.190495 1_565
Mg4_2 Mg5_2 3.190495 1_555
Mg4_3 Mg5_3 3.190495 1_555
Mg4_3 Mg5_1 3.190495 1_565
Mg4_4 Mg5_6 3.190495 1_555
Mg4_4 Mg5_4 3.190495 1_555
Mg4_5 Mg5_5 3.190495 1_555
Mg4_5 Mg5_7 3.190495 1_555
Mg4_6 Mg5_6 3.190495 1_555
Mg4_6 Mg5_4 3.190495 1_565
Mg4_7 Mg5_5 3.190495 1_565
Mg4_7 Mg5_7 3.190495 1_555
Mg5_0 Mg5_2 3.218329 1_555
Mg5_0 Mg5_2 3.218329 1_545
Mg5_1 Mg5_3 3.218329 1_545
Mg5_1 Mg5_3 3.218329 1_555
Mg5_4 Mg5_6 3.218329 1_555
Mg5_4 Mg5_6 3.218329 1_545
Mg5_5 Mg5_7 3.218329 1_555
Mg5_5 Mg5_7 3.218329 1_545
Cd0_0 Mg0_2 3.053209 1_555
Cd0_0 Mg0_0 3.053209 1_555
Cd0_0 Mg1_6 3.085036 1_455
Cd0_0 Mg1_0 3.085036 1_555
Cd0_0 Mg1_4 3.085036 1_455
Cd0_0 Mg1_2 3.085036 1_555
Cd0_0 Cd5_4 3.103973 1_455
Cd0_0 Cd5_0 3.103973 1_555
Cd0_0 Cd4_0 3.154559 1_555
Cd0_0 Cd4_2 3.154559 1_555
Cd0_0 Cd0_2 3.218329 1_555
Cd0_0 Cd0_2 3.218329 1_545
Cd0_1 Mg0_1 3.053209 1_555
Cd0_1 Mg0_3 3.053209 1_555
Cd0_1 Mg1_5 3.085036 1_455
Cd0_1 Mg1_7 3.085036 1_455
Cd0_1 Mg1_3 3.085036 1_555
Cd0_1 Mg1_1 3.085036 1_555
Cd0_1 Cd5_5 3.103973 1_455
Cd0_1 Cd5_1 3.103973 1_555
Cd0_1 Cd4_3 3.154559 1_555
Cd0_1 Cd4_1 3.154559 1_555
Cd0_1 Cd0_3 3.218329 1_545
Cd0_1 Cd0_3 3.218329 1_555
Cd0_2 Mg0_0 3.053209 1_565
Cd0_2 Mg0_2 3.053209 1_555
Cd0_2 Mg1_4 3.085036 1_465
Cd0_2 Mg1_0 3.085036 1_565
Cd0_2 Mg1_6 3.085036 1_455
Cd0_2 Mg1_2 3.085036 1_555
Cd0_2 Cd5_2 3.103973 1_555
Cd0_2 Cd5_6 3.103973 1_455
Cd0_2 Cd4_0 3.154559 1_565
Cd0_2 Cd4_2 3.154559 1_555
Cd0_3 Mg0_1 3.053209 1_565
Cd0_3 Mg0_3 3.053209 1_555
Cd0_3 Mg1_5 3.085036 1_465
Cd0_3 Mg1_7 3.085036 1_455
Cd0_3 Mg1_3 3.085036 1_555
Cd0_3 Mg1_1 3.085036 1_565
Cd0_3 Cd5_3 3.103973 1_555
Cd0_3 Cd5_7 3.103973 1_455
Cd0_3 Cd4_1 3.154559 1_565
Cd0_3 Cd4_3 3.154559 1_555
Cd0_4 Mg0_6 3.053209 1_555
Cd0_4 Mg0_4 3.053209 1_555
Cd0_4 Mg1_0 3.085036 1_555
Cd0_4 Mg1_6 3.085036 1_555
Cd0_4 Mg1_4 3.085036 1_555
Cd0_4 Mg1_2 3.085036 1_555
Cd0_4 Cd5_4 3.103973 1_555
Cd0_4 Cd5_0 3.103973 1_555
Cd0_4 Cd4_4 3.154559 1_555
Cd0_4 Cd4_6 3.154559 1_555
Cd0_4 Cd0_6 3.218329 1_545
Cd0_4 Cd0_6 3.218329 1_555
Cd0_5 Mg0_5 3.053209 1_555
Cd0_5 Mg0_7 3.053209 1_555
Cd0_5 Mg1_5 3.085036 1_555
Cd0_5 Mg1_3 3.085036 1_555
Cd0_5 Mg1_7 3.085036 1_555
Cd0_5 Mg1_1 3.085036 1_555
Cd0_5 Cd5_1 3.103973 1_555
Cd0_5 Cd5_5 3.103973 1_555
Cd0_5 Cd4_5 3.154559 1_555
Cd0_5 Cd4_7 3.154559 1_555
Cd0_5 Cd0_7 3.218329 1_545
Cd0_5 Cd0_7 3.218329 1_555
Cd0_6 Mg0_6 3.053209 1_555
Cd0_6 Mg0_4 3.053209 1_565
Cd0_6 Mg1_0 3.085036 1_565
Cd0_6 Mg1_4 3.085036 1_565
Cd0_6 Mg1_6 3.085036 1_555
Cd0_6 Mg1_2 3.085036 1_555
Cd0_6 Cd5_2 3.103973 1_555
Cd0_6 Cd5_6 3.103973 1_555
Cd0_6 Cd4_4 3.154559 1_565
Cd0_6 Cd4_6 3.154559 1_555
Cd0_7 Mg0_7 3.053209 1_555
Cd0_7 Mg0_5 3.053209 1_565
Cd0_7 Mg1_5 3.085036 1_565
Cd0_7 Mg1_3 3.085036 1_555
Cd0_7 Mg1_7 3.085036 1_555
Cd0_7 Mg1_1 3.085036 1_565
Cd0_7 Cd5_7 3.103973 1_555
Cd0_7 Cd5_3 3.103973 1_555
Cd0_7 Cd4_5 3.154559 1_565
Cd0_7 Cd4_7 3.154559 1_555
Cd1_0 Mg2_4 3.036288 1_455
Cd1_0 Mg2_0 3.036288 1_555
Cd1_0 Mg0_0 3.052324 1_555
Cd1_0 Mg0_2 3.052324 1_555
Cd1_0 Cd2_2 3.127827 1_555
Cd1_0 Cd2_6 3.127827 1_455
Cd1_0 Cd2_0 3.127827 1_555
Cd1_0 Cd2_4 3.127827 1_455
Cd1_0 Cd3_3 3.154559 1_555
Cd1_0 Cd3_1 3.154559 1_555
Cd1_0 Cd1_2 3.218329 1_545
Cd1_0 Cd1_2 3.218329 1_555
Cd1_1 Mg2_1 3.036288 1_555
Cd1_1 Mg2_5 3.036288 1_455
Cd1_1 Mg0_1 3.052324 1_555
Cd1_1 Mg0_3 3.052324 1_555
Cd1_1 Cd2_3 3.127827 1_555
Cd1_1 Cd2_7 3.127827 1_455
Cd1_1 Cd2_1 3.127827 1_555
Cd1_1 Cd2_5 3.127827 1_455
Cd1_1 Cd3_0 3.154559 1_556
Cd1_1 Cd3_2 3.154559 1_556
Cd1_1 Cd1_3 3.218329 1_545
Cd1_1 Cd1_3 3.218329 1_555
Cd1_2 Mg2_2 3.036288 1_555
Cd1_2 Mg2_6 3.036288 1_455
Cd1_2 Mg0_0 3.052324 1_565
Cd1_2 Mg0_2 3.052324 1_555
Cd1_2 Cd2_0 3.127827 1_565
Cd1_2 Cd2_2 3.127827 1_555
Cd1_2 Cd2_6 3.127827 1_455
Cd1_2 Cd2_4 3.127827 1_465
Cd1_2 Cd3_1 3.154559 1_565
Cd1_2 Cd3_3 3.154559 1_555
Cd1_3 Mg2_3 3.036288 1_555
Cd1_3 Mg2_7 3.036288 1_455
Cd1_3 Mg0_1 3.052324 1_565
Cd1_3 Mg0_3 3.052324 1_555
Cd1_3 Cd2_5 3.127827 1_465
Cd1_3 Cd2_1 3.127827 1_565
Cd1_3 Cd2_3 3.127827 1_555
Cd1_3 Cd2_7 3.127827 1_455
Cd1_3 Cd3_2 3.154559 1_556
Cd1_3 Cd3_0 3.154559 1_566
Cd1_4 Mg2_4 3.036288 1_555
Cd1_4 Mg2_0 3.036288 1_555
Cd1_4 Mg0_6 3.052324 1_555
Cd1_4 Mg0_4 3.052324 1_555
Cd1_4 Cd2_4 3.127827 1_555
Cd1_4 Cd2_2 3.127827 1_555
Cd1_4 Cd2_0 3.127827 1_555
Cd1_4 Cd2_6 3.127827 1_555
Cd1_4 Cd3_7 3.154559 1_555
Cd1_4 Cd3_5 3.154559 1_555
Cd1_4 Cd1_6 3.218329 1_545
Cd1_4 Cd1_6 3.218329 1_555
Cd1_5 Mg2_1 3.036288 1_555
Cd1_5 Mg2_5 3.036288 1_555
Cd1_5 Mg0_5 3.052324 1_555
Cd1_5 Mg0_7 3.052324 1_555
Cd1_5 Cd2_5 3.127827 1_555
Cd1_5 Cd2_1 3.127827 1_555
Cd1_5 Cd2_3 3.127827 1_555
Cd1_5 Cd2_7 3.127827 1_555
Cd1_5 Cd3_6 3.154559 1_556
Cd1_5 Cd3_4 3.154559 1_556
Cd1_5 Cd1_7 3.218329 1_545
Cd1_5 Cd1_7 3.218329 1_555
Cd1_6 Mg2_2 3.036288 1_555
Cd1_6 Mg2_6 3.036288 1_555
Cd1_6 Mg0_4 3.052324 1_565
Cd1_6 Mg0_6 3.052324 1_555
Cd1_6 Cd2_0 3.127827 1_565
Cd1_6 Cd2_4 3.127827 1_565
Cd1_6 Cd2_2 3.127827 1_555
Cd1_6 Cd2_6 3.127827 1_555
Cd1_6 Cd3_5 3.154559 1_565
Cd1_6 Cd3_7 3.154559 1_555
Cd1_7 Mg2_7 3.036288 1_555
Cd1_7 Mg2_3 3.036288 1_555
Cd1_7 Mg0_5 3.052324 1_565
Cd1_7 Mg0_7 3.052324 1_555
Cd1_7 Cd2_1 3.127827 1_565
Cd1_7 Cd2_5 3.127827 1_565
Cd1_7 Cd2_3 3.127827 1_555
Cd1_7 Cd2_7 3.127827 1_555
Cd1_7 Cd3_6 3.154559 1_556
Cd1_7 Cd3_4 3.154559 1_566
Cd2_0 Mg4_1 3.017329 1_555
Cd2_0 Mg4_3 3.017329 1_545
Cd2_0 Mg2_2 3.052850 1_545
Cd2_0 Mg2_0 3.052850 1_555
Cd2_0 Cd3_1 3.103973 1_555
Cd2_0 Cd3_5 3.103973 1_555
Cd2_1 Mg4_0 3.017329 1_556
Cd2_1 Mg4_2 3.017329 1_546
Cd2_1 Mg2_3 3.052850 1_545
Cd2_1 Mg2_1 3.052850 1_555
Cd2_1 Cd3_4 3.103973 1_556
Cd2_1 Cd3_0 3.103973 1_556
Cd2_2 Mg4_3 3.017329 1_555
Cd2_2 Mg4_1 3.017329 1_555
Cd2_2 Mg2_2 3.052850 1_555
Cd2_2 Mg2_0 3.052850 1_555
Cd2_2 Cd3_7 3.103973 1_555
Cd2_2 Cd3_3 3.103973 1_555
Cd2_3 Mg4_2 3.017329 1_556
Cd2_3 Mg4_0 3.017329 1_556
Cd2_3 Mg2_1 3.052850 1_555
Cd2_3 Mg2_3 3.052850 1_555
Cd2_3 Cd3_6 3.103973 1_556
Cd2_3 Cd3_2 3.103973 1_556
Cd2_4 Mg4_7 3.017329 1_545
Cd2_4 Mg4_5 3.017329 1_555
Cd2_4 Mg2_4 3.052850 1_555
Cd2_4 Mg2_6 3.052850 1_545
Cd2_4 Cd3_5 3.103973 1_555
Cd2_4 Cd3_1 3.103973 1_655
Cd2_5 Mg4_4 3.017329 1_556
Cd2_5 Mg4_6 3.017329 1_546
Cd2_5 Mg2_7 3.052850 1_545
Cd2_5 Mg2_5 3.052850 1_555
Cd2_5 Cd3_0 3.103973 1_656
Cd2_5 Cd3_4 3.103973 1_556
Cd2_6 Mg4_5 3.017329 1_555
Cd2_6 Mg4_7 3.017329 1_555
Cd2_6 Mg2_4 3.052850 1_555
Cd2_6 Mg2_6 3.052850 1_555
Cd2_6 Cd3_7 3.103973 1_555
Cd2_6 Cd3_3 3.103973 1_655
Cd2_7 Mg4_6 3.017329 1_556
Cd2_7 Mg4_4 3.017329 1_556
Cd2_7 Mg2_7 3.052850 1_555
Cd2_7 Mg2_5 3.052850 1_555
Cd2_7 Cd3_2 3.103973 1_656
Cd2_7 Cd3_6 3.103973 1_556
Cd3_0 Mg3_0 3.053209 1_555
Cd3_0 Mg3_2 3.053209 1_545
Cd3_0 Mg4_2 3.085036 1_545
Cd3_0 Mg4_6 3.085036 1_445
Cd3_0 Mg4_0 3.085036 1_555
Cd3_0 Mg4_4 3.085036 1_455
Cd3_0 Cd3_2 3.218329 1_545
Cd3_0 Cd3_2 3.218329 1_555
Cd3_1 Mg3_1 3.053209 1_555
Cd3_1 Mg3_3 3.053209 1_545
Cd3_1 Mg4_7 3.085036 1_445
Cd3_1 Mg4_1 3.085036 1_555
Cd3_1 Mg4_3 3.085036 1_545
Cd3_1 Mg4_5 3.085036 1_455
Cd3_1 Cd3_3 3.218329 1_555
Cd3_1 Cd3_3 3.218329 1_545
Cd3_2 Mg3_0 3.053209 1_555
Cd3_2 Mg3_2 3.053209 1_555
Cd3_2 Mg4_2 3.085036 1_555
Cd3_2 Mg4_0 3.085036 1_555
Cd3_2 Mg4_4 3.085036 1_455
Cd3_2 Mg4_6 3.085036 1_455
Cd3_3 Mg3_3 3.053209 1_555
Cd3_3 Mg3_1 3.053209 1_555
Cd3_3 Mg4_3 3.085036 1_555
Cd3_3 Mg4_7 3.085036 1_455
Cd3_3 Mg4_1 3.085036 1_555
Cd3_3 Mg4_5 3.085036 1_455
Cd3_4 Mg3_4 3.053209 1_555
Cd3_4 Mg3_6 3.053209 1_545
Cd3_4 Mg4_2 3.085036 1_545
Cd3_4 Mg4_0 3.085036 1_555
Cd3_4 Mg4_6 3.085036 1_545
Cd3_4 Mg4_4 3.085036 1_555
Cd3_4 Cd3_6 3.218329 1_545
Cd3_4 Cd3_6 3.218329 1_555
Cd3_5 Mg3_7 3.053209 1_545
Cd3_5 Mg3_5 3.053209 1_555
Cd3_5 Mg4_1 3.085036 1_555
Cd3_5 Mg4_3 3.085036 1_545
Cd3_5 Mg4_5 3.085036 1_555
Cd3_5 Mg4_7 3.085036 1_545
Cd3_5 Cd3_7 3.218329 1_555
Cd3_5 Cd3_7 3.218329 1_545
Cd3_6 Mg3_4 3.053209 1_555
Cd3_6 Mg3_6 3.053209 1_555
Cd3_6 Mg4_2 3.085036 1_555
Cd3_6 Mg4_6 3.085036 1_555
Cd3_6 Mg4_0 3.085036 1_555
Cd3_6 Mg4_4 3.085036 1_555
Cd3_7 Mg3_7 3.053209 1_555
Cd3_7 Mg3_5 3.053209 1_555
Cd3_7 Mg4_3 3.085036 1_555
Cd3_7 Mg4_7 3.085036 1_555
Cd3_7 Mg4_1 3.085036 1_555
Cd3_7 Mg4_5 3.085036 1_555
Cd4_0 Mg5_4 3.036288 1_455
Cd4_0 Mg5_0 3.036288 1_555
Cd4_0 Mg3_0 3.052324 1_555
Cd4_0 Mg3_2 3.052324 1_545
Cd4_0 Cd5_4 3.127827 1_455
Cd4_0 Cd5_6 3.127827 1_445
Cd4_0 Cd5_2 3.127827 1_545
Cd4_0 Cd5_0 3.127827 1_555
Cd4_0 Cd4_2 3.218329 1_555
Cd4_0 Cd4_2 3.218329 1_545
Cd4_1 Mg5_1 3.036288 1_555
Cd4_1 Mg5_5 3.036288 1_455
Cd4_1 Mg3_3 3.052324 1_545
Cd4_1 Mg3_1 3.052324 1_555
Cd4_1 Cd5_5 3.127827 1_455
Cd4_1 Cd5_1 3.127827 1_555
Cd4_1 Cd5_7 3.127827 1_445
Cd4_1 Cd5_3 3.127827 1_545
Cd4_1 Cd4_3 3.218329 1_555
Cd4_1 Cd4_3 3.218329 1_545
Cd4_2 Mg5_2 3.036288 1_555
Cd4_2 Mg5_6 3.036288 1_455
Cd4_2 Mg3_0 3.052324 1_555
Cd4_2 Mg3_2 3.052324 1_555
Cd4_2 Cd5_4 3.127827 1_455
Cd4_2 Cd5_2 3.127827 1_555
Cd4_2 Cd5_6 3.127827 1_455
Cd4_2 Cd5_0 3.127827 1_555
Cd4_3 Mg5_3 3.036288 1_555
Cd4_3 Mg5_7 3.036288 1_455
Cd4_3 Mg3_3 3.052324 1_555
Cd4_3 Mg3_1 3.052324 1_555
Cd4_3 Cd5_5 3.127827 1_455
Cd4_3 Cd5_1 3.127827 1_555
Cd4_3 Cd5_3 3.127827 1_555
Cd4_3 Cd5_7 3.127827 1_455
Cd4_4 Mg5_4 3.036288 1_555
Cd4_4 Mg5_0 3.036288 1_555
Cd4_4 Mg3_4 3.052324 1_555
Cd4_4 Mg3_6 3.052324 1_545
Cd4_4 Cd5_4 3.127827 1_555
Cd4_4 Cd5_2 3.127827 1_545
Cd4_4 Cd5_6 3.127827 1_545
Cd4_4 Cd5_0 3.127827 1_555
Cd4_4 Cd4_6 3.218329 1_555
Cd4_4 Cd4_6 3.218329 1_545
Cd4_5 Mg5_5 3.036288 1_555
Cd4_5 Mg5_1 3.036288 1_555
Cd4_5 Mg3_5 3.052324 1_555
Cd4_5 Mg3_7 3.052324 1_545
Cd4_5 Cd5_7 3.127827 1_545
Cd4_5 Cd5_1 3.127827 1_555
Cd4_5 Cd5_5 3.127827 1_555
Cd4_5 Cd5_3 3.127827 1_545
Cd4_5 Cd4_7 3.218329 1_555
Cd4_5 Cd4_7 3.218329 1_545
Cd4_6 Mg5_2 3.036288 1_555
Cd4_6 Mg5_6 3.036288 1_555
Cd4_6 Mg3_4 3.052324 1_555
Cd4_6 Mg3_6 3.052324 1_555
Cd4_6 Cd5_4 3.127827 1_555
Cd4_6 Cd5_2 3.127827 1_555
Cd4_6 Cd5_6 3.127827 1_555
Cd4_6 Cd5_0 3.127827 1_555
Cd4_7 Mg5_3 3.036288 1_555
Cd4_7 Mg5_7 3.036288 1_555
Cd4_7 Mg3_5 3.052324 1_555
Cd4_7 Mg3_7 3.052324 1_555
Cd4_7 Cd5_7 3.127827 1_555
Cd4_7 Cd5_1 3.127827 1_555
Cd4_7 Cd5_5 3.127827 1_555
Cd4_7 Cd5_3 3.127827 1_555
Cd5_0 Mg1_2 3.017329 1_555
Cd5_0 Mg1_0 3.017329 1_555
Cd5_0 Mg5_2 3.052850 1_555
Cd5_0 Mg5_0 3.052850 1_555
Cd5_1 Mg1_1 3.017329 1_555
Cd5_1 Mg1_3 3.017329 1_555
Cd5_1 Mg5_3 3.052850 1_555
Cd5_1 Mg5_1 3.052850 1_555
Cd5_2 Mg1_2 3.017329 1_555
Cd5_2 Mg1_0 3.017329 1_565
Cd5_2 Mg5_0 3.052850 1_565
Cd5_2 Mg5_2 3.052850 1_555
Cd5_3 Mg1_1 3.017329 1_565
Cd5_3 Mg1_3 3.017329 1_555
Cd5_3 Mg5_3 3.052850 1_555
Cd5_3 Mg5_1 3.052850 1_565
Cd5_4 Mg1_6 3.017329 1_555
Cd5_4 Mg1_4 3.017329 1_555
Cd5_4 Mg5_4 3.052850 1_555
Cd5_4 Mg5_6 3.052850 1_555
Cd5_5 Mg1_7 3.017329 1_555
Cd5_5 Mg1_5 3.017329 1_555
Cd5_5 Mg5_7 3.052850 1_555
Cd5_5 Mg5_5 3.052850 1_555
Cd5_6 Mg1_4 3.017329 1_565
Cd5_6 Mg1_6 3.017329 1_555
Cd5_6 Mg5_6 3.052850 1_555
Cd5_6 Mg5_4 3.052850 1_565
Cd5_7 Mg1_7 3.017329 1_555
Cd5_7 Mg1_5 3.017329 1_565
Cd5_7 Mg5_5 3.052850 1_565
Cd5_7 Mg5_7 3.052850 1_555
