# generated using pymatgen
data_LaCe(SnRu)2
_symmetry_space_group_name_H-M   'P 1'
_cell_length_a   4.84637800
_cell_length_b   5.10474018
_cell_length_c   6.36380007
_cell_angle_alpha   101.64671651
_cell_angle_beta   67.61817693
_cell_angle_gamma   90.00000000
_symmetry_Int_Tables_number   1
_chemical_formula_structural   LaCe(SnRu)2
_chemical_formula_sum   'La1 Ce1 Sn2 Ru2'
_cell_volume   142.06516156
_cell_formula_units_Z   1
loop_
 _symmetry_equiv_pos_site_id
 _symmetry_equiv_pos_as_xyz
  1  'x, y, z'
loop_
 _atom_site_type_symbol
 _atom_site_label
 _atom_site_symmetry_multiplicity
 _atom_site_fract_x
 _atom_site_fract_y
 _atom_site_fract_z
 _atom_site_occupancy
  La  La0  1  0.87162700  0.31959100  0.25674700  1
  Ce  Ce0  1  0.13657900  0.67320500  0.72684200  1
  Sn  Sn0  1  0.41304700  0.80635900  0.17390600  1
  Sn  Sn1  1  0.58629700  0.19113200  0.82740600  1
  Ru  Ru0  1  0.18550200  0.15820700  0.62899500  1
  Ru  Ru1  1  0.80694800  0.85150500  0.38610400  1
loop_
_geom_bond_atom_site_label_1
_geom_bond_atom_site_label_2
_geom_bond_distance
_geom_bond_site_symmetry_2
La0 Ru1 2.655125 1_555
La0 Ru1 2.661409 1_545
La0 Sn1 3.458498 1_654
La0 Sn1 3.458501 1_554
La0 Ru0 3.483755 1_655
La0 Ru0 3.483761 1_555
La0 Sn0 3.523601 1_645
La0 Sn0 3.523604 1_545
La0 Sn1 3.559151 1_555
La0 Sn0 3.579485 1_655
La0 Sn0 3.579488 1_555
La0 Ru0 3.604872 1_654
Ce0 Ru0 2.565512 1_555
Ce0 Ru0 2.661500 1_565
Ce0 Sn0 3.466154 1_555
Ce0 Sn0 3.531808 1_456
Ce0 Sn0 3.531808 1_556
Ce0 Sn1 3.539631 1_465
Ce0 Sn1 3.539631 1_565
Ce0 Sn1 3.593564 1_555
Ce0 Sn1 3.593564 1_455
Sn0 Sn1 3.124729 1_564
Sn0 Sn1 3.350290 1_554
Ru0 Sn1 2.679090 1_455
Ru0 Sn1 2.679094 1_555
Ru0 Sn0 2.880458 1_545
Ru0 Ru1 3.064108 1_445
Ru0 Ru1 3.064112 1_545
Ru1 Sn0 2.712646 1_555
Ru1 Sn0 2.712646 1_655
Ru1 Sn1 2.789851 1_565
