# generated using pymatgen
data_Li9Mn2Co5O16
_symmetry_space_group_name_H-M   'P 1'
_cell_length_a   7.83568602
_cell_length_b   7.83568602
_cell_length_c   12.95961266
_cell_angle_alpha   88.28777426
_cell_angle_beta   88.28777426
_cell_angle_gamma   21.53336270
_symmetry_Int_Tables_number   1
_chemical_formula_structural   Li9Mn2Co5O16
_chemical_formula_sum   'Li9 Mn2 Co5 O16'
_cell_volume   291.91873835
_cell_formula_units_Z   1
loop_
 _symmetry_equiv_pos_site_id
 _symmetry_equiv_pos_as_xyz
  1  'x, y, z'
loop_
 _atom_site_type_symbol
 _atom_site_label
 _atom_site_symmetry_multiplicity
 _atom_site_fract_x
 _atom_site_fract_y
 _atom_site_fract_z
 _atom_site_occupancy
  Li  Li0  1  0.68587500  0.68587500  0.93736900  1
  Li  Li1  1  0.55549600  0.55549600  0.32645200  1
  Li  Li2  1  0.44450400  0.44450400  0.67354800  1
  Li  Li3  1  0.31412500  0.31412500  0.06263100  1
  Li  Li4  1  0.18612100  0.18612100  0.43844800  1
  Li  Li5  1  0.05989500  0.05989500  0.80811000  1
  Li  Li6  1  0.94010500  0.94010500  0.19189000  1
  Li  Li7  1  0.81387900  0.81387900  0.56155200  1
  Li  Li8  1  0.00000000  0.00000000  0.50000000  1
  Mn  Mn0  1  0.24799500  0.24799500  0.74851000  1
  Mn  Mn1  1  0.75200500  0.75200500  0.25149000  1
  Co  Co0  1  0.12407000  0.12407000  0.12379200  1
  Co  Co1  1  0.87593000  0.87593000  0.87620800  1
  Co  Co2  1  0.61603700  0.61603700  0.61044800  1
  Co  Co3  1  0.50000000  0.50000000  0.00000000  1
  Co  Co4  1  0.38396300  0.38396300  0.38955200  1
  O  O0  1  0.66762500  0.66762500  0.77970200  1
  O  O1  1  0.53781000  0.53781000  0.14877400  1
  O  O2  1  0.40120400  0.40120400  0.52505600  1
  O  O3  1  0.28652100  0.28652100  0.89685400  1
  O  O4  1  0.16785000  0.16785000  0.27491300  1
  O  O5  1  0.03700400  0.03700400  0.65826000  1
  O  O6  1  0.91001400  0.91001400  0.02681500  1
  O  O7  1  0.78507700  0.78507700  0.39081600  1
  O  O8  1  0.71347900  0.71347900  0.10314600  1
  O  O9  1  0.59879600  0.59879600  0.47494400  1
  O  O10  1  0.46219000  0.46219000  0.85122600  1
  O  O11  1  0.33237500  0.33237500  0.22029800  1
  O  O12  1  0.21492300  0.21492300  0.60918400  1
  O  O13  1  0.08998600  0.08998600  0.97318500  1
  O  O14  1  0.96299600  0.96299600  0.34174000  1
  O  O15  1  0.83215000  0.83215000  0.72508700  1
loop_
_geom_bond_atom_site_label_1
_geom_bond_atom_site_label_2
_geom_bond_distance
_geom_bond_site_symmetry_2
Li0 O0 2.070979 1_555
Li0 O13 2.120323 1_565
Li0 O13 2.120323 1_655
Li0 O3 2.183987 1_655
Li0 O3 2.183987 1_565
Li0 O8 2.202678 1_556
Li1 O14 2.047626 1_455
Li1 O14 2.047626 1_545
Li1 O9 2.055659 1_555
Li1 O1 2.326891 1_555
Li1 O4 2.347452 1_565
Li1 O4 2.347452 1_655
Li2 O5 2.047626 1_655
Li2 O5 2.047626 1_565
Li2 O2 2.055659 1_555
Li2 O10 2.326891 1_555
Li2 O15 2.347452 1_455
Li2 O15 2.347452 1_545
Li3 O11 2.070979 1_555
Li3 O6 2.120323 1_545
Li3 O6 2.120323 1_455
Li3 O8 2.183987 1_455
Li3 O8 2.183987 1_545
Li3 O3 2.202678 1_554
Li4 O9 2.033503 1_455
Li4 O9 2.033503 1_545
Li4 O4 2.146400 1_555
Li4 O7 2.188034 1_545
Li4 O7 2.188034 1_455
Li4 O12 2.269851 1_555
Li5 O5 1.984234 1_555
Li5 O10 2.160191 1_545
Li5 O10 2.160191 1_455
Li5 O13 2.202621 1_555
Li5 O0 2.234250 1_455
Li5 O0 2.234250 1_545
Li6 O14 1.984234 1_555
Li6 O1 2.160191 1_565
Li6 O1 2.160191 1_655
Li6 O6 2.202621 1_555
Li6 O11 2.234250 1_655
Li6 O11 2.234250 1_565
Li7 O2 2.033503 1_565
Li7 O2 2.033503 1_655
Li7 O15 2.146400 1_555
Li7 O12 2.188034 1_655
Li7 O12 2.188034 1_565
Li7 O7 2.269851 1_555
Li8 O2 2.128742 1_455
Li8 O9 2.128742 1_545
Li8 O2 2.128742 1_545
Li8 O9 2.128742 1_455
Li8 O5 2.145269 1_555
Li8 O14 2.145269 1_445
Mn0 O12 1.890872 1_555
Mn0 O0 1.951063 1_545
Mn0 O0 1.951063 1_455
Mn0 O15 1.972178 1_545
Mn0 O15 1.972178 1_455
Mn0 O3 2.029062 1_555
Mn1 O7 1.890872 1_555
Mn1 O11 1.951063 1_565
Mn1 O11 1.951063 1_655
Mn1 O4 1.972178 1_565
Mn1 O4 1.972178 1_655
Mn1 O8 2.029062 1_555
Co0 O1 1.996235 1_455
Co0 O1 1.996235 1_545
Co0 O8 2.021533 1_455
Co0 O8 2.021533 1_545
Co0 O13 2.036470 1_554
Co0 O4 2.090502 1_555
Co1 O10 1.996235 1_655
Co1 O10 1.996235 1_565
Co1 O3 2.021533 1_655
Co1 O3 2.021533 1_565
Co1 O6 2.036470 1_556
Co1 O15 2.090502 1_555
Co2 O9 1.783991 1_555
Co2 O5 1.990283 1_565
Co2 O5 1.990283 1_655
Co2 O12 2.111662 1_655
Co2 O12 2.111662 1_565
Co2 O0 2.355431 1_555
Co3 O1 2.030888 1_555
Co3 O10 2.030888 1_554
Co3 O13 2.037994 1_654
Co3 O13 2.037994 1_564
Co3 O6 2.037994 1_545
Co3 O6 2.037994 1_455
Co4 O2 1.783991 1_555
Co4 O14 1.990283 1_455
Co4 O14 1.990283 1_545
Co4 O7 2.111662 1_545
Co4 O7 2.111662 1_455
Co4 O11 2.355431 1_555
