# generated using pymatgen
data_CaCd6
_symmetry_space_group_name_H-M   'P 1'
_cell_length_a   13.82227226
_cell_length_b   13.82227226
_cell_length_c   13.82227226
_cell_angle_alpha   109.92917719
_cell_angle_beta   109.60082600
_cell_angle_gamma   108.88541118
_symmetry_Int_Tables_number   1
_chemical_formula_structural   CaCd6
_chemical_formula_sum   'Ca12 Cd72'
_cell_volume   2032.72591814
_cell_formula_units_Z   12
loop_
 _symmetry_equiv_pos_site_id
 _symmetry_equiv_pos_as_xyz
  1  'x, y, z'
loop_
 _atom_site_type_symbol
 _atom_site_label
 _atom_site_symmetry_multiplicity
 _atom_site_fract_x
 _atom_site_fract_y
 _atom_site_fract_z
 _atom_site_occupancy
  Ca  Ca0  1  0.81167200  0.51594900  0.70427700  1
  Ca  Ca1  1  0.18832800  0.48405100  0.29572300  1
  Ca  Ca2  1  0.18832800  0.89260500  0.70427700  1
  Ca  Ca3  1  0.81167200  0.10739500  0.29572300  1
  Ca  Ca4  1  0.11196800  0.30277000  0.80919900  1
  Ca  Ca5  1  0.88803200  0.69723000  0.19080100  1
  Ca  Ca6  1  0.49357100  0.30277000  0.19080100  1
  Ca  Ca7  1  0.50642900  0.69723000  0.80919900  1
  Ca  Ca8  1  0.30036900  0.18974300  0.49011200  1
  Ca  Ca9  1  0.69963100  0.81025700  0.50988800  1
  Ca  Ca10  1  0.30036900  0.81025700  0.11062600  1
  Ca  Ca11  1  0.69963100  0.18974300  0.88937400  1
  Cd  Cd0  1  0.73877600  0.64323000  0.90445400  1
  Cd  Cd1  1  0.26122400  0.35677000  0.09554600  1
  Cd  Cd2  1  0.26122400  0.16567800  0.90445400  1
  Cd  Cd3  1  0.73877600  0.83432200  0.09554600  1
  Cd  Cd4  1  0.85842200  0.09271100  0.76571200  1
  Cd  Cd5  1  0.14157800  0.90728900  0.23428800  1
  Cd  Cd6  1  0.32699900  0.09271100  0.23428800  1
  Cd  Cd7  1  0.67300100  0.90728900  0.76571200  1
  Cd  Cd8  1  0.09700900  0.24168100  0.33869000  1
  Cd  Cd9  1  0.90299100  0.75831900  0.66131000  1
  Cd  Cd10  1  0.09700900  0.75831900  0.85532800  1
  Cd  Cd11  1  0.90299100  0.24168100  0.14467200  1
  Cd  Cd12  1  0.77686900  0.45395400  0.92008000  1
  Cd  Cd13  1  0.46612600  0.54604600  0.32291600  1
  Cd  Cd14  1  0.22313100  0.14321000  0.67708400  1
  Cd  Cd15  1  0.53387400  0.85679000  0.07992000  1
  Cd  Cd16  1  0.85721500  0.08178400  0.54000400  1
  Cd  Cd17  1  0.14278500  0.68279000  0.22456900  1
  Cd  Cd18  1  0.54177900  0.31721000  0.45999600  1
  Cd  Cd19  1  0.45822100  0.91821600  0.77543100  1
  Cd  Cd20  1  0.31557500  0.45991500  0.54232500  1
  Cd  Cd21  1  0.91759000  0.77325100  0.45767500  1
  Cd  Cd22  1  0.08241000  0.54008500  0.85566100  1
  Cd  Cd23  1  0.68442500  0.22674900  0.14433900  1
  Cd  Cd24  1  0.22313100  0.54604600  0.07992000  1
  Cd  Cd25  1  0.53387400  0.45395400  0.67708400  1
  Cd  Cd26  1  0.77686900  0.85679000  0.32291600  1
  Cd  Cd27  1  0.46612600  0.14321000  0.92008000  1
  Cd  Cd28  1  0.14278500  0.91821600  0.45999600  1
  Cd  Cd29  1  0.85721500  0.31721000  0.77543100  1
  Cd  Cd30  1  0.45822100  0.68279000  0.54000400  1
  Cd  Cd31  1  0.54177900  0.08178400  0.22456900  1
  Cd  Cd32  1  0.68442500  0.54008500  0.45767500  1
  Cd  Cd33  1  0.08241000  0.22674900  0.54232500  1
  Cd  Cd34  1  0.91759000  0.45991500  0.14433900  1
  Cd  Cd35  1  0.31557500  0.77325100  0.85566100  1
  Cd  Cd36  1  0.59463600  0.25095000  0.65631300  1
  Cd  Cd37  1  0.40536400  0.74905000  0.34368700  1
  Cd  Cd38  1  0.40536400  0.06167700  0.65631300  1
  Cd  Cd39  1  0.59463600  0.93832300  0.34368700  1
  Cd  Cd40  1  0.93980500  0.34392200  0.59588300  1
  Cd  Cd41  1  0.06019500  0.65607800  0.40411700  1
  Cd  Cd42  1  0.74803900  0.34392200  0.40411700  1
  Cd  Cd43  1  0.25196100  0.65607800  0.59588300  1
  Cd  Cd44  1  0.34176400  0.40345300  0.74521700  1
  Cd  Cd45  1  0.65823600  0.59654700  0.25478300  1
  Cd  Cd46  1  0.34176400  0.59654700  0.93831100  1
  Cd  Cd47  1  0.65823600  0.40345300  0.06168900  1
  Cd  Cd48  1  0.99828200  0.67406300  0.00121600  1
  Cd  Cd49  1  0.32715300  0.32593700  0.32421900  1
  Cd  Cd50  1  0.00171800  0.00293400  0.67578100  1
  Cd  Cd51  1  0.67284700  0.99706600  0.99878400  1
  Cd  Cd52  1  0.00171800  0.32593700  0.99878400  1
  Cd  Cd53  1  0.67284700  0.67406300  0.67578100  1
  Cd  Cd54  1  0.99828200  0.99706600  0.32421900  1
  Cd  Cd55  1  0.32715300  0.00293400  0.00121600  1
  Cd  Cd56  1  0.50000000  0.31558600  0.81558600  1
  Cd  Cd57  1  0.50000000  0.68441400  0.18441400  1
  Cd  Cd58  1  0.68894100  0.18894100  0.50000000  1
  Cd  Cd59  1  0.31105900  0.81105900  0.50000000  1
  Cd  Cd60  1  0.18372800  0.50000000  0.68372800  1
  Cd  Cd61  1  0.81627200  0.50000000  0.31627200  1
  Cd  Cd62  1  0.58856800  0.58856800  0.00000000  1
  Cd  Cd63  1  0.41143200  0.41143200  0.00000000  1
  Cd  Cd64  1  0.59659600  0.00000000  0.59659600  1
  Cd  Cd65  1  0.40340400  0.00000000  0.40340400  1
  Cd  Cd66  1  0.00000000  0.40401500  0.40401500  1
  Cd  Cd67  1  0.00000000  0.59598500  0.59598500  1
  Cd  Cd68  1  0.91333900  0.82179900  0.90845900  1
  Cd  Cd69  1  0.08666100  0.17820100  0.09154100  1
  Cd  Cd70  1  0.08666100  0.99512000  0.90845900  1
  Cd  Cd71  1  0.91333900  0.00488000  0.09154100  1
loop_
_geom_bond_atom_site_label_1
_geom_bond_atom_site_label_2
_geom_bond_distance
_geom_bond_site_symmetry_2
Ca0 Cd53 3.377597 1_555
Ca0 Cd48 3.377597 1_556
Ca0 Cd18 3.384605 1_555
Ca0 Cd29 3.384610 1_555
Ca0 Cd0 3.386102 1_555
Ca0 Cd32 3.457759 1_555
Ca0 Cd22 3.457762 1_655
Ca0 Cd67 3.481310 1_655
Ca0 Cd9 3.505862 1_555
Ca0 Cd10 3.505862 1_655
Ca0 Cd25 3.507379 1_555
Ca0 Cd12 3.507383 1_555
Ca0 Cd36 3.571081 1_555
Ca0 Cd42 3.621237 1_555
Ca0 Cd40 3.621237 1_555
Ca0 Cd68 3.629267 1_555
Ca0 Cd58 3.795102 1_555
Ca1 Cd49 3.377597 1_555
Ca1 Cd52 3.377597 1_554
Ca1 Cd30 3.384605 1_555
Ca1 Cd17 3.384610 1_555
Ca1 Cd1 3.386102 1_555
Ca1 Cd20 3.457759 1_555
Ca1 Cd34 3.457762 1_455
Ca1 Cd66 3.481310 1_555
Ca1 Cd11 3.505862 1_455
Ca1 Cd8 3.505862 1_555
Ca1 Cd13 3.507379 1_555
Ca1 Cd24 3.507383 1_555
Ca1 Cd37 3.571081 1_555
Ca1 Cd43 3.621237 1_555
Ca1 Cd41 3.621237 1_555
Ca1 Cd69 3.629267 1_555
Ca1 Cd59 3.795102 1_555
Ca2 Cd55 3.377597 1_566
Ca2 Cd50 3.377597 1_565
Ca2 Cd28 3.384597 1_555
Ca2 Cd19 3.384610 1_555
Ca2 Cd2 3.386102 1_565
Ca2 Cd35 3.457755 1_555
Ca2 Cd21 3.457762 1_455
Ca2 Cd67 3.481310 1_555
Ca2 Cd9 3.505862 1_455
Ca2 Cd10 3.505862 1_555
Ca2 Cd14 3.507377 1_565
Ca2 Cd27 3.507379 1_565
Ca2 Cd38 3.571090 1_565
Ca2 Cd41 3.621237 1_555
Ca2 Cd43 3.621237 1_555
Ca2 Cd70 3.629256 1_555
Ca2 Cd59 3.795102 1_555
Ca3 Cd54 3.377597 1_545
Ca3 Cd51 3.377597 1_544
Ca3 Cd16 3.384597 1_555
Ca3 Cd31 3.384610 1_555
Ca3 Cd3 3.386102 1_545
Ca3 Cd23 3.457755 1_555
Ca3 Cd33 3.457762 1_655
Ca3 Cd66 3.481310 1_655
Ca3 Cd8 3.505862 1_655
Ca3 Cd11 3.505862 1_555
Ca3 Cd26 3.507377 1_545
Ca3 Cd15 3.507379 1_545
Ca3 Cd39 3.571090 1_545
Ca3 Cd40 3.621237 1_555
Ca3 Cd42 3.621237 1_555
Ca3 Cd71 3.629256 1_555
Ca3 Cd58 3.795102 1_555
Ca4 Cd22 3.308591 1_555
Ca4 Cd33 3.308603 1_555
Ca4 Cd52 3.422712 1_555
Ca4 Cd50 3.422724 1_555
Ca4 Cd4 3.447228 1_455
Ca4 Cd24 3.448230 1_556
Ca4 Cd14 3.448259 1_555
Ca4 Cd1 3.462591 1_556
Ca4 Cd2 3.462598 1_555
Ca4 Cd40 3.462971 1_455
Ca4 Cd29 3.474590 1_455
Ca4 Cd16 3.474605 1_455
Ca4 Cd63 3.506515 1_556
Ca4 Cd46 3.559478 1_555
Ca4 Cd44 3.559485 1_555
Ca4 Cd60 3.748389 1_555
Ca5 Cd34 3.308591 1_555
Ca5 Cd21 3.308603 1_555
Ca5 Cd48 3.422712 1_555
Ca5 Cd54 3.422724 1_555
Ca5 Cd5 3.447228 1_655
Ca5 Cd12 3.448230 1_554
Ca5 Cd26 3.448259 1_555
Ca5 Cd0 3.462591 1_554
Ca5 Cd3 3.462598 1_555
Ca5 Cd41 3.462971 1_655
Ca5 Cd17 3.474590 1_655
Ca5 Cd28 3.474605 1_655
Ca5 Cd62 3.506515 1_555
Ca5 Cd47 3.559478 1_555
Ca5 Cd45 3.559485 1_555
Ca5 Cd61 3.748389 1_555
Ca6 Cd32 3.308600 1_555
Ca6 Cd23 3.308612 1_555
Ca6 Cd55 3.422722 1_555
Ca6 Cd49 3.422722 1_555
Ca6 Cd6 3.447228 1_555
Ca6 Cd13 3.448236 1_555
Ca6 Cd27 3.448236 1_554
Ca6 Cd2 3.462589 1_554
Ca6 Cd1 3.462589 1_555
Ca6 Cd42 3.462977 1_555
Ca6 Cd31 3.474604 1_555
Ca6 Cd18 3.474617 1_555
Ca6 Cd63 3.506504 1_555
Ca6 Cd45 3.559473 1_555
Ca6 Cd47 3.559473 1_555
Ca6 Cd61 3.748386 1_555
Ca7 Cd20 3.308600 1_555
Ca7 Cd35 3.308612 1_555
Ca7 Cd51 3.422722 1_555
Ca7 Cd53 3.422722 1_555
Ca7 Cd7 3.447228 1_555
Ca7 Cd15 3.448236 1_556
Ca7 Cd25 3.448236 1_555
Ca7 Cd3 3.462589 1_556
Ca7 Cd0 3.462589 1_555
Ca7 Cd43 3.462977 1_555
Ca7 Cd19 3.474604 1_555
Ca7 Cd30 3.474617 1_555
Ca7 Cd62 3.506504 1_556
Ca7 Cd44 3.559473 1_555
Ca7 Cd46 3.559473 1_555
Ca7 Cd60 3.748386 1_555
Ca8 Cd14 3.282119 1_555
Ca8 Cd25 3.282127 1_555
Ca8 Cd8 3.343739 1_555
Ca8 Cd65 3.429792 1_555
Ca8 Cd44 3.455181 1_555
Ca8 Cd49 3.464095 1_555
Ca8 Cd54 3.464095 1_445
Ca8 Cd18 3.469589 1_555
Ca8 Cd28 3.469604 1_545
Ca8 Cd33 3.473253 1_555
Ca8 Cd20 3.473258 1_555
Ca8 Cd6 3.521058 1_555
Ca8 Cd5 3.521059 1_545
Ca8 Cd36 3.565882 1_555
Ca8 Cd38 3.565887 1_555
Ca8 Cd56 3.756093 1_555
Ca9 Cd26 3.282119 1_555
Ca9 Cd13 3.282127 1_555
Ca9 Cd9 3.343739 1_555
Ca9 Cd64 3.429792 1_565
Ca9 Cd45 3.455181 1_555
Ca9 Cd53 3.464095 1_555
Ca9 Cd50 3.464095 1_665
Ca9 Cd30 3.469589 1_555
Ca9 Cd16 3.469604 1_565
Ca9 Cd21 3.473253 1_555
Ca9 Cd32 3.473258 1_555
Ca9 Cd7 3.521058 1_555
Ca9 Cd4 3.521059 1_565
Ca9 Cd37 3.565882 1_555
Ca9 Cd39 3.565887 1_555
Ca9 Cd57 3.756093 1_555
Ca10 Cd15 3.282127 1_555
Ca10 Cd24 3.282128 1_555
Ca10 Cd10 3.343739 1_554
Ca10 Cd65 3.429792 1_565
Ca10 Cd46 3.455181 1_554
Ca10 Cd48 3.464095 1_455
Ca10 Cd55 3.464095 1_565
Ca10 Cd31 3.469597 1_565
Ca10 Cd17 3.469597 1_555
Ca10 Cd35 3.473247 1_554
Ca10 Cd22 3.473253 1_554
Ca10 Cd5 3.521046 1_555
Ca10 Cd6 3.521058 1_565
Ca10 Cd39 3.565887 1_555
Ca10 Cd37 3.565897 1_555
Ca10 Cd57 3.756093 1_555
Ca11 Cd27 3.282127 1_555
Ca11 Cd12 3.282128 1_555
Ca11 Cd11 3.343739 1_556
Ca11 Cd64 3.429792 1_555
Ca11 Cd47 3.455181 1_556
Ca11 Cd51 3.464095 1_545
Ca11 Cd52 3.464095 1_655
Ca11 Cd29 3.469597 1_555
Ca11 Cd19 3.469597 1_545
Ca11 Cd23 3.473247 1_556
Ca11 Cd34 3.473253 1_556
Ca11 Cd4 3.521046 1_555
Ca11 Cd7 3.521058 1_545
Ca11 Cd38 3.565887 1_555
Ca11 Cd36 3.565897 1_555
Ca11 Cd56 3.756093 1_555
Cd0 Cd68 2.806962 1_555
Cd0 Cd62 2.851333 1_556
Cd0 Cd12 2.892953 1_555
Cd0 Cd25 2.892959 1_555
Cd0 Cd3 3.032678 1_556
Cd0 Cd53 3.199970 1_555
Cd0 Cd48 3.199970 1_556
Cd1 Cd69 2.806962 1_555
Cd1 Cd63 2.851333 1_555
Cd1 Cd24 2.892953 1_555
Cd1 Cd13 2.892959 1_555
Cd1 Cd2 3.032678 1_554
Cd1 Cd52 3.199970 1_554
Cd1 Cd49 3.199970 1_555
Cd2 Cd70 2.806954 1_545
Cd2 Cd63 2.851333 1_556
Cd2 Cd27 2.892959 1_555
Cd2 Cd55 3.199970 1_556
Cd2 Cd50 3.199970 1_555
Cd3 Cd71 2.806954 1_565
Cd3 Cd62 2.851333 1_555
Cd3 Cd51 3.199970 1_554
Cd3 Cd54 3.199970 1_555
Cd4 Cd7 2.980793 1_545
Cd4 Cd52 3.033065 1_655
Cd4 Cd50 3.033078 1_655
Cd4 Cd64 3.079538 1_555
Cd5 Cd6 2.980793 1_565
Cd5 Cd54 3.033078 1_455
Cd5 Cd65 3.079538 1_565
Cd6 Cd65 3.079549 1_555
Cd10 Cd35 2.959039 1_555
Cd10 Cd22 2.959053 1_555
Cd10 Cd67 3.004473 1_555
Cd10 Cd9 3.091686 1_455
Cd10 Cd48 3.115001 1_456
Cd10 Cd55 3.115001 1_566
Cd10 Cd70 3.163545 1_555
Cd10 Cd68 3.163552 1_455
Cd11 Cd23 2.959039 1_555
Cd11 Cd34 2.959053 1_555
Cd11 Cd66 3.004473 1_655
Cd11 Cd8 3.091686 1_655
Cd11 Cd51 3.115001 1_544
Cd11 Cd52 3.115001 1_654
Cd11 Cd71 3.163545 1_555
Cd11 Cd69 3.163552 1_655
Cd12 Cd34 3.012574 1_556
Cd12 Cd29 3.012601 1_555
Cd12 Cd48 3.037078 1_556
Cd12 Cd47 3.057986 1_556
Cd12 Cd36 3.130421 1_555
Cd12 Cd56 3.171713 1_555
Cd13 Cd30 3.012579 1_555
Cd13 Cd32 3.012581 1_555
Cd13 Cd49 3.037070 1_555
Cd13 Cd45 3.057995 1_555
Cd13 Cd37 3.130413 1_555
Cd13 Cd57 3.171725 1_555
Cd14 Cd2 2.892962 1_555
Cd14 Cd33 3.012577 1_555
Cd14 Cd28 3.012578 1_545
Cd14 Cd50 3.037081 1_555
Cd14 Cd44 3.057995 1_555
Cd14 Cd38 3.130413 1_555
Cd14 Cd56 3.171714 1_555
Cd15 Cd3 2.892959 1_555
Cd15 Cd35 3.012577 1_554
Cd15 Cd31 3.012590 1_565
Cd15 Cd51 3.037070 1_554
Cd15 Cd46 3.057995 1_554
Cd15 Cd39 3.130426 1_555
Cd15 Cd57 3.171725 1_555
Cd16 Cd50 2.998016 1_655
Cd16 Cd26 3.012578 1_545
Cd16 Cd4 3.065689 1_555
Cd16 Cd39 3.087603 1_545
Cd16 Cd33 3.091368 1_655
Cd16 Cd58 3.136098 1_555
Cd16 Cd40 3.138677 1_555
Cd17 Cd48 2.998008 1_455
Cd17 Cd24 3.012601 1_555
Cd17 Cd5 3.065665 1_555
Cd17 Cd37 3.087611 1_555
Cd17 Cd34 3.091376 1_455
Cd17 Cd59 3.136099 1_555
Cd17 Cd41 3.138681 1_555
Cd18 Cd49 2.998013 1_555
Cd18 Cd25 3.012579 1_555
Cd18 Cd6 3.065675 1_555
Cd18 Cd36 3.087585 1_555
Cd18 Cd32 3.091388 1_555
Cd18 Cd58 3.136097 1_555
Cd18 Cd42 3.138689 1_555
Cd19 Cd51 2.998008 1_555
Cd19 Cd27 3.012590 1_565
Cd19 Cd7 3.065670 1_555
Cd19 Cd38 3.087607 1_565
Cd19 Cd35 3.091384 1_555
Cd19 Cd59 3.136099 1_555
Cd19 Cd43 3.138681 1_555
Cd20 Cd8 2.959048 1_555
Cd20 Cd25 3.012581 1_555
Cd20 Cd49 3.041908 1_555
Cd20 Cd43 3.047081 1_555
Cd20 Cd30 3.091388 1_555
Cd20 Cd44 3.098186 1_555
Cd20 Cd60 3.123070 1_555
Cd21 Cd9 2.959053 1_555
Cd21 Cd26 3.012577 1_555
Cd21 Cd50 3.041900 1_665
Cd21 Cd41 3.047090 1_655
Cd21 Cd28 3.091368 1_655
Cd21 Cd45 3.098187 1_555
Cd21 Cd61 3.123082 1_555
Cd22 Cd24 3.012574 1_556
Cd22 Cd48 3.041900 1_456
Cd22 Cd40 3.047090 1_455
Cd22 Cd29 3.091376 1_455
Cd22 Cd46 3.098187 1_555
Cd22 Cd60 3.123082 1_555
Cd23 Cd27 3.012577 1_554
Cd23 Cd51 3.041893 1_544
Cd23 Cd42 3.047094 1_555
Cd23 Cd31 3.091384 1_555
Cd23 Cd47 3.098191 1_555
Cd23 Cd61 3.123082 1_555
Cd24 Cd52 3.037078 1_554
Cd24 Cd46 3.057986 1_554
Cd24 Cd37 3.130421 1_555
Cd24 Cd57 3.171713 1_555
Cd25 Cd53 3.037070 1_555
Cd25 Cd44 3.057995 1_555
Cd25 Cd36 3.130413 1_555
Cd25 Cd56 3.171725 1_555
Cd26 Cd3 2.892962 1_555
Cd26 Cd54 3.037081 1_555
Cd26 Cd45 3.057995 1_555
Cd26 Cd39 3.130413 1_555
Cd26 Cd57 3.171714 1_555
Cd27 Cd55 3.037070 1_556
Cd27 Cd47 3.057995 1_556
Cd27 Cd38 3.130426 1_555
Cd27 Cd56 3.171725 1_555
Cd28 Cd54 2.998016 1_455
Cd28 Cd5 3.065689 1_555
Cd28 Cd38 3.087603 1_565
Cd28 Cd59 3.136098 1_555
Cd28 Cd41 3.138677 1_555
Cd29 Cd52 2.998008 1_655
Cd29 Cd4 3.065665 1_555
Cd29 Cd36 3.087611 1_555
Cd29 Cd58 3.136099 1_555
Cd29 Cd40 3.138681 1_555
Cd30 Cd53 2.998013 1_555
Cd30 Cd7 3.065675 1_555
Cd30 Cd37 3.087585 1_555
Cd30 Cd59 3.136097 1_555
Cd30 Cd43 3.138689 1_555
Cd31 Cd55 2.998008 1_555
Cd31 Cd6 3.065670 1_555
Cd31 Cd39 3.087607 1_545
Cd31 Cd58 3.136099 1_555
Cd31 Cd42 3.138681 1_555
Cd32 Cd9 2.959048 1_555
Cd32 Cd53 3.041908 1_555
Cd32 Cd42 3.047081 1_555
Cd32 Cd45 3.098186 1_555
Cd32 Cd61 3.123070 1_555
Cd33 Cd8 2.959053 1_555
Cd33 Cd54 3.041900 1_445
Cd33 Cd40 3.047090 1_455
Cd33 Cd44 3.098187 1_555
Cd33 Cd60 3.123082 1_555
Cd34 Cd52 3.041900 1_654
Cd34 Cd41 3.047090 1_655
Cd34 Cd47 3.098187 1_555
Cd34 Cd61 3.123082 1_555
Cd35 Cd55 3.041893 1_566
Cd35 Cd43 3.047094 1_555
Cd35 Cd46 3.098191 1_555
Cd35 Cd60 3.123082 1_555
Cd36 Cd58 2.907293 1_555
Cd36 Cd56 2.950213 1_555
Cd36 Cd38 3.042700 1_555
Cd36 Cd65 3.292091 1_555
Cd36 Cd64 3.292099 1_555
Cd37 Cd59 2.907293 1_555
Cd37 Cd57 2.950213 1_555
Cd37 Cd39 3.042700 1_555
Cd37 Cd64 3.292091 1_565
Cd37 Cd65 3.292099 1_565
Cd38 Cd59 2.907290 1_545
Cd38 Cd56 2.950216 1_555
Cd38 Cd64 3.292085 1_555
Cd38 Cd65 3.292085 1_555
Cd39 Cd58 2.907290 1_565
Cd39 Cd57 2.950216 1_555
Cd39 Cd65 3.292085 1_565
Cd39 Cd64 3.292085 1_565
Cd40 Cd60 2.873139 1_655
Cd40 Cd58 2.922626 1_555
Cd40 Cd42 3.055800 1_555
Cd40 Cd66 3.309137 1_655
Cd40 Cd67 3.309137 1_655
Cd41 Cd61 2.873139 1_455
Cd41 Cd59 2.922626 1_555
Cd41 Cd43 3.055800 1_555
Cd41 Cd67 3.309137 1_555
Cd41 Cd66 3.309137 1_555
Cd42 Cd61 2.873139 1_555
Cd42 Cd58 2.922626 1_555
Cd42 Cd67 3.309137 1_655
Cd42 Cd66 3.309137 1_655
Cd43 Cd60 2.873139 1_555
Cd43 Cd59 2.922626 1_555
Cd43 Cd66 3.309137 1_555
Cd43 Cd67 3.309137 1_555
Cd44 Cd56 2.881406 1_555
Cd44 Cd60 2.947813 1_555
Cd44 Cd46 3.064450 1_555
Cd44 Cd62 3.276106 1_556
Cd44 Cd63 3.276106 1_556
Cd45 Cd57 2.881406 1_555
Cd45 Cd61 2.947813 1_555
Cd45 Cd47 3.064450 1_555
Cd45 Cd63 3.276106 1_555
Cd45 Cd62 3.276106 1_555
Cd46 Cd57 2.881406 1_556
Cd46 Cd60 2.947813 1_555
Cd46 Cd62 3.276106 1_556
Cd46 Cd63 3.276106 1_556
Cd47 Cd56 2.881406 1_554
Cd47 Cd61 2.947813 1_555
Cd47 Cd62 3.276106 1_555
Cd47 Cd63 3.276106 1_555
Cd48 Cd5 3.033065 1_655
Cd48 Cd68 3.085324 1_554
Cd49 Cd6 3.033066 1_555
Cd49 Cd69 3.085310 1_555
Cd49 Cd8 3.115001 1_555
Cd50 Cd70 3.085311 1_545
Cd50 Cd9 3.115001 1_445
Cd51 Cd7 3.033066 1_555
Cd51 Cd71 3.085311 1_566
Cd52 Cd69 3.085324 1_556
Cd53 Cd7 3.033066 1_555
Cd53 Cd68 3.085310 1_555
Cd53 Cd9 3.115001 1_555
Cd54 Cd71 3.085311 1_565
Cd54 Cd8 3.115001 1_665
Cd55 Cd6 3.033066 1_555
Cd55 Cd70 3.085311 1_544
Cd56 Cd62 3.254651 1_556
Cd56 Cd63 3.254651 1_556
Cd57 Cd62 3.254651 1_555
Cd57 Cd63 3.254651 1_555
Cd58 Cd65 3.405136 1_555
Cd58 Cd64 3.405136 1_555
Cd59 Cd65 3.405136 1_565
Cd59 Cd64 3.405136 1_565
Cd60 Cd67 3.300299 1_555
Cd60 Cd66 3.300299 1_555
Cd61 Cd67 3.300299 1_655
Cd61 Cd66 3.300299 1_655
Cd62 Cd63 2.847597 1_555
Cd64 Cd65 3.078523 1_555
Cd64 Cd7 3.079549 1_545
Cd66 Cd8 3.004473 1_555
Cd66 Cd67 3.046612 1_555
Cd67 Cd9 3.004473 1_455
Cd68 Cd70 2.786276 1_655
Cd68 Cd71 2.905550 1_566
Cd68 Cd9 3.163544 1_555
Cd69 Cd71 2.786276 1_455
Cd69 Cd70 2.905550 1_544
Cd69 Cd8 3.163544 1_555
Cd70 Cd9 3.163545 1_455
Cd71 Cd8 3.163545 1_655
