# generated using pymatgen
data_CrNi2BO5
_symmetry_space_group_name_H-M   'P 1'
_cell_length_a   3.03186700
_cell_length_b   9.31168400
_cell_length_c   12.24052600
_cell_angle_alpha   90.00000000
_cell_angle_beta   90.00000000
_cell_angle_gamma   90.00000000
_symmetry_Int_Tables_number   1
_chemical_formula_structural   CrNi2BO5
_chemical_formula_sum   'Cr4 Ni8 B4 O20'
_cell_volume   345.57192811
_cell_formula_units_Z   4
loop_
 _symmetry_equiv_pos_site_id
 _symmetry_equiv_pos_as_xyz
  1  'x, y, z'
loop_
 _atom_site_type_symbol
 _atom_site_label
 _atom_site_symmetry_multiplicity
 _atom_site_fract_x
 _atom_site_fract_y
 _atom_site_fract_z
 _atom_site_occupancy
  Cr  Cr0  1  0.00000000  0.24098100  0.38682800  1
  Cr  Cr1  1  0.00000000  0.75901900  0.61317200  1
  Cr  Cr2  1  0.00000000  0.25901900  0.88682800  1
  Cr  Cr3  1  0.00000000  0.74098100  0.11317200  1
  Ni  Ni0  1  0.50000000  0.00000000  0.50000000  1
  Ni  Ni1  1  0.50000000  0.50000000  0.00000000  1
  Ni  Ni2  1  0.50000000  0.00084000  0.21802600  1
  Ni  Ni3  1  0.50000000  0.99916000  0.78197400  1
  Ni  Ni4  1  0.50000000  0.49916000  0.71802600  1
  Ni  Ni5  1  0.50000000  0.50084000  0.28197400  1
  Ni  Ni6  1  0.00000000  0.00000000  0.00000000  1
  Ni  Ni7  1  0.00000000  0.50000000  0.50000000  1
  B  B0  1  0.00000000  0.27265000  0.13984300  1
  B  B1  1  0.00000000  0.72735000  0.86015700  1
  B  B2  1  0.00000000  0.22735000  0.63984300  1
  B  B3  1  0.00000000  0.77265000  0.36015700  1
  O  O0  1  0.50000000  0.10844400  0.35686900  1
  O  O1  1  0.50000000  0.89155600  0.64313100  1
  O  O2  1  0.50000000  0.39155600  0.85686900  1
  O  O3  1  0.50000000  0.60844400  0.14313100  1
  O  O4  1  0.00000000  0.12465800  0.14126300  1
  O  O5  1  0.00000000  0.87534200  0.85873700  1
  O  O6  1  0.00000000  0.37534200  0.64126300  1
  O  O7  1  0.00000000  0.62465800  0.35873700  1
  O  O8  1  0.50000000  0.38240100  0.42297400  1
  O  O9  1  0.50000000  0.61759900  0.57702600  1
  O  O10  1  0.50000000  0.11759900  0.92297400  1
  O  O11  1  0.50000000  0.88240100  0.07702600  1
  O  O12  1  0.00000000  0.34772600  0.23799200  1
  O  O13  1  0.00000000  0.65227400  0.76200800  1
  O  O14  1  0.00000000  0.15227400  0.73799200  1
  O  O15  1  0.00000000  0.84772600  0.26200800  1
  O  O16  1  0.00000000  0.34874700  0.04155200  1
  O  O17  1  0.00000000  0.65125300  0.95844800  1
  O  O18  1  0.00000000  0.15125300  0.54155200  1
  O  O19  1  0.00000000  0.84874700  0.45844800  1
loop_
_geom_bond_atom_site_label_1
_geom_bond_atom_site_label_2
_geom_bond_distance
_geom_bond_site_symmetry_2
Cr0 O0 1.988879 1_455
Cr0 O0 1.988879 1_555
Cr0 O8 2.056193 1_555
Cr0 O8 2.056193 1_455
Cr0 O18 2.070015 1_555
Cr0 O12 2.075345 1_555
Cr1 O1 1.988879 1_455
Cr1 O1 1.988879 1_555
Cr1 O9 2.056193 1_455
Cr1 O9 2.056193 1_555
Cr1 O19 2.070015 1_555
Cr1 O13 2.075345 1_555
Cr2 O2 1.988879 1_555
Cr2 O2 1.988879 1_455
Cr2 O10 2.056193 1_455
Cr2 O10 2.056193 1_555
Cr2 O16 2.070015 1_556
Cr2 O14 2.075345 1_555
Cr3 O3 1.988879 1_555
Cr3 O3 1.988879 1_455
Cr3 O11 2.056193 1_455
Cr3 O11 2.056193 1_555
Cr3 O17 2.070015 1_554
Cr3 O15 2.075345 1_555
Ni0 O1 2.022174 1_545
Ni0 O0 2.022174 1_555
Ni0 O18 2.130820 1_555
Ni0 O18 2.130820 1_655
Ni0 O19 2.130820 1_645
Ni0 O19 2.130820 1_545
Ni1 O3 2.022174 1_555
Ni1 O2 2.022174 1_554
Ni1 O17 2.130820 1_654
Ni1 O17 2.130820 1_554
Ni1 O16 2.130820 1_555
Ni1 O16 2.130820 1_655
Ni2 O0 1.972889 1_555
Ni2 O11 2.048193 1_545
Ni2 O4 2.123733 1_555
Ni2 O4 2.123733 1_655
Ni2 O15 2.149570 1_645
Ni2 O15 2.149570 1_545
Ni3 O1 1.972889 1_555
Ni3 O10 2.048193 1_565
Ni3 O5 2.123733 1_655
Ni3 O5 2.123733 1_555
Ni3 O14 2.149570 1_665
Ni3 O14 2.149570 1_565
Ni4 O2 1.972889 1_555
Ni4 O9 2.048193 1_555
Ni4 O6 2.123733 1_655
Ni4 O6 2.123733 1_555
Ni4 O13 2.149570 1_655
Ni4 O13 2.149570 1_555
Ni5 O3 1.972889 1_555
Ni5 O8 2.048193 1_555
Ni5 O7 2.123733 1_655
Ni5 O7 2.123733 1_555
Ni5 O12 2.149570 1_655
Ni5 O12 2.149570 1_555
Ni6 O4 2.082619 1_555
Ni6 O5 2.082619 1_544
Ni6 O11 2.094307 1_445
Ni6 O11 2.094307 1_545
Ni6 O10 2.094307 1_454
Ni6 O10 2.094307 1_554
Ni7 O6 2.082619 1_555
Ni7 O7 2.082619 1_555
Ni7 O9 2.094307 1_455
Ni7 O9 2.094307 1_555
Ni7 O8 2.094307 1_555
Ni7 O8 2.094307 1_455
B0 O4 1.378164 1_555
B0 O12 1.389989 1_555
B0 O16 1.396292 1_555
B1 O5 1.378164 1_555
B1 O13 1.389989 1_555
B1 O17 1.396292 1_555
B2 O6 1.378164 1_555
B2 O14 1.389989 1_555
B2 O18 1.396292 1_555
B3 O7 1.378164 1_555
B3 O15 1.389989 1_555
B3 O19 1.396292 1_555
