# generated using pymatgen
data_Dy2Fe15Si2C
_symmetry_space_group_name_H-M   'P 1'
_cell_length_a   6.42428595
_cell_length_b   6.42428595
_cell_length_c   6.40814344
_cell_angle_alpha   82.26155075
_cell_angle_beta   82.26155075
_cell_angle_gamma   81.95061764
_symmetry_Int_Tables_number   1
_chemical_formula_structural   Dy2Fe15Si2C
_chemical_formula_sum   'Dy2 Fe15 Si2 C1'
_cell_volume   257.66932434
_cell_formula_units_Z   1
loop_
 _symmetry_equiv_pos_site_id
 _symmetry_equiv_pos_as_xyz
  1  'x, y, z'
loop_
 _atom_site_type_symbol
 _atom_site_label
 _atom_site_symmetry_multiplicity
 _atom_site_fract_x
 _atom_site_fract_y
 _atom_site_fract_z
 _atom_site_occupancy
  Dy  Dy0  1  0.34373200  0.34373200  0.35192200  1
  Dy  Dy1  1  0.65626800  0.65626800  0.64807800  1
  Fe  Fe0  1  0.65474800  0.65474800  0.14927100  1
  Fe  Fe1  1  0.66243700  0.15260900  0.65901900  1
  Fe  Fe2  1  0.15260900  0.66243700  0.65901900  1
  Fe  Fe3  1  0.34525200  0.34525200  0.85073000  1
  Fe  Fe4  1  0.33756300  0.84739100  0.34098100  1
  Fe  Fe5  1  0.84739100  0.33756300  0.34098100  1
  Fe  Fe6  1  0.00000000  0.00000000  0.50000000  1
  Fe  Fe7  1  0.00000000  0.50000000  0.00000000  1
  Fe  Fe8  1  0.50000000  0.00000000  0.00000000  1
  Fe  Fe9  1  0.71959500  0.28040500  0.00000000  1
  Fe  Fe10  1  0.30188900  0.00268900  0.69804500  1
  Fe  Fe11  1  0.99731100  0.69811100  0.30195500  1
  Fe  Fe12  1  0.69811100  0.99731100  0.30195500  1
  Fe  Fe13  1  0.00268900  0.30188900  0.69804500  1
  Fe  Fe14  1  0.28040500  0.71959500  0.00000000  1
  Si  Si0  1  0.10244200  0.10244200  0.10025700  1
  Si  Si1  1  0.89755800  0.89755800  0.89974300  1
  C  C0  1  0.50000000  0.50000000  0.00000000  1
loop_
_geom_bond_atom_site_label_1
_geom_bond_atom_site_label_2
_geom_bond_distance
_geom_bond_site_symmetry_2
Dy0 Fe10 2.913381 1_555
Dy0 Fe13 2.913381 1_555
Dy0 Fe11 2.969027 1_455
Dy0 Fe12 2.969027 1_545
Dy0 Fe2 3.050030 1_555
Dy0 Fe1 3.050030 1_555
Dy0 Si0 3.070165 1_555
Dy0 Fe5 3.204720 1_455
Dy0 Fe4 3.204720 1_545
Dy0 Fe4 3.221747 1_555
Dy0 Fe5 3.221747 1_555
Dy0 Fe6 3.300005 1_555
Dy0 Fe7 3.328735 1_555
Dy0 Fe8 3.328735 1_555
Dy1 Fe12 2.913381 1_555
Dy1 Fe11 2.913381 1_555
Dy1 Fe10 2.969027 1_565
Dy1 Fe13 2.969027 1_655
Dy1 Fe4 3.050030 1_555
Dy1 Fe5 3.050030 1_555
Dy1 Si1 3.070165 1_555
Dy1 Fe1 3.204720 1_565
Dy1 Fe2 3.204720 1_655
Dy1 Fe1 3.221747 1_555
Dy1 Fe2 3.221747 1_555
Dy1 Fe6 3.300005 1_665
Dy1 Fe7 3.328735 1_656
Dy1 Fe8 3.328735 1_566
Fe0 Fe7 2.426940 1_655
Fe0 Fe8 2.426940 1_565
Fe0 Fe5 2.494411 1_555
Fe0 Fe4 2.494411 1_555
Fe0 Fe12 2.589026 1_555
Fe0 Fe11 2.589026 1_555
Fe0 Si1 2.600251 1_554
Fe1 Fe6 2.404356 1_655
Fe1 Fe8 2.433143 1_556
Fe1 Fe5 2.463394 1_555
Fe1 Fe3 2.494413 1_555
Fe1 Fe9 2.523282 1_556
Fe1 Fe13 2.561091 1_655
Fe1 Si1 2.568969 1_545
Fe1 Fe12 2.587060 1_545
Fe1 Fe10 2.599833 1_555
Fe2 Fe6 2.404356 1_565
Fe2 Fe7 2.433143 1_556
Fe2 Fe4 2.463394 1_555
Fe2 Fe3 2.494413 1_555
Fe2 Si1 2.568969 1_455
Fe3 Fe7 2.426938 1_556
Fe3 Fe8 2.426938 1_556
Fe3 Si0 2.600248 1_556
Fe4 Fe6 2.404356 1_565
Fe4 Fe8 2.433143 1_565
Fe4 Si0 2.568969 1_565
Fe5 Fe6 2.404356 1_655
Fe5 Fe7 2.433143 1_655
Fe5 Fe9 2.523282 1_555
Fe5 Si0 2.568969 1_655
Fe6 Si0 2.577087 1_555
Fe6 Si1 2.577087 1_445
Fe7 Fe9 2.438635 1_455
Fe7 Si1 2.563235 1_454
Fe7 Si0 2.563235 1_555
Fe8 Fe9 2.438635 1_555
Fe8 Si1 2.563235 1_544
Fe8 Si0 2.563235 1_555
Fe9 Si0 2.685019 1_655
Fe9 Si1 2.685019 1_544
Fe10 Fe8 2.451995 1_556
Fe10 Fe6 2.459755 1_555
Fe10 Fe14 2.474151 1_546
Fe10 Fe13 2.520832 1_555
Fe10 Fe2 2.561091 1_545
Fe10 Fe4 2.587060 1_545
Fe10 Fe3 2.589030 1_555
Fe10 Si0 2.832149 1_556
Fe10 Si1 2.868104 1_445
Fe11 Fe7 2.451995 1_655
Fe11 Fe6 2.459755 1_665
Fe11 Fe14 2.474151 1_655
Fe11 Fe12 2.520832 1_555
Fe11 Fe4 2.561091 1_655
Fe11 Fe2 2.587060 1_655
Fe11 Fe5 2.599833 1_555
Fe11 Si1 2.832149 1_554
Fe11 Si0 2.868104 1_665
Fe12 Fe8 2.451995 1_565
Fe12 Fe6 2.459755 1_665
Fe12 Fe9 2.474151 1_565
Fe12 Fe5 2.561091 1_565
Fe12 Fe4 2.599833 1_555
Fe12 Si1 2.832149 1_554
Fe12 Si0 2.868104 1_665
Fe13 Fe7 2.451995 1_556
Fe13 Fe6 2.459755 1_555
Fe13 Fe9 2.474151 1_456
Fe13 Fe5 2.587060 1_455
Fe13 Fe3 2.589030 1_555
Fe13 Fe2 2.599833 1_555
Fe13 Si0 2.832149 1_556
Fe13 Si1 2.868104 1_445
Fe14 Fe7 2.438635 1_555
Fe14 Fe8 2.438635 1_565
Fe14 Fe2 2.523282 1_554
Fe14 Fe4 2.523282 1_555
Fe14 Si0 2.685019 1_565
Fe14 Si1 2.685019 1_454
Si0 Si1 2.551876 1_444
C0 Fe14 1.850141 1_555
C0 Fe9 1.850141 1_555
C0 Fe3 1.918487 1_554
C0 Fe0 1.918491 1_555
C0 Dy0 2.482801 1_555
C0 Dy1 2.482801 1_554
