# generated using pymatgen
data_Tb2Sn3(PbS4)3
_symmetry_space_group_name_H-M   'P 1'
_cell_length_a   3.95635900
_cell_length_b   11.69057400
_cell_length_c   20.54841400
_cell_angle_alpha   90.00000000
_cell_angle_beta   90.00000000
_cell_angle_gamma   90.00000000
_symmetry_Int_Tables_number   1
_chemical_formula_structural   Tb2Sn3(PbS4)3
_chemical_formula_sum   'Tb4 Sn6 Pb6 S24'
_cell_volume   950.40745657
_cell_formula_units_Z   2
loop_
 _symmetry_equiv_pos_site_id
 _symmetry_equiv_pos_as_xyz
  1  'x, y, z'
loop_
 _atom_site_type_symbol
 _atom_site_label
 _atom_site_symmetry_multiplicity
 _atom_site_fract_x
 _atom_site_fract_y
 _atom_site_fract_z
 _atom_site_occupancy
  Tb  Tb0  1  0.50000000  0.64783700  0.41235400  1
  Tb  Tb1  1  0.50000000  0.14783700  0.58764600  1
  Tb  Tb2  1  0.50000000  0.82545700  0.89484200  1
  Tb  Tb3  1  0.50000000  0.32545700  0.10515800  1
  Sn  Sn0  1  0.00000000  0.00177300  0.75026900  1
  Sn  Sn1  1  0.00000000  0.50177300  0.24973100  1
  Sn  Sn2  1  0.00000000  0.51929400  0.91201000  1
  Sn  Sn3  1  0.00000000  0.01929400  0.08799000  1
  Sn  Sn4  1  0.00000000  0.99302600  0.42623500  1
  Sn  Sn5  1  0.00000000  0.49302600  0.57376500  1
  Pb  Pb0  1  0.50000000  0.40431900  0.74157900  1
  Pb  Pb1  1  0.50000000  0.90431900  0.25842100  1
  Pb  Pb2  1  0.50000000  0.19927300  0.91396000  1
  Pb  Pb3  1  0.50000000  0.69927300  0.08604000  1
  Pb  Pb4  1  0.50000000  0.77156400  0.62215100  1
  Pb  Pb5  1  0.50000000  0.27156400  0.37784900  1
  S  S0  1  0.00000000  0.99186000  0.87570900  1
  S  S1  1  0.00000000  0.49186000  0.12429100  1
  S  S2  1  0.00000000  0.98366800  0.62611400  1
  S  S3  1  0.00000000  0.48366800  0.37388600  1
  S  S4  1  0.00000000  0.68275600  0.50925400  1
  S  S5  1  0.00000000  0.18275600  0.49074600  1
  S  S6  1  0.50000000  0.64658300  0.25846400  1
  S  S7  1  0.50000000  0.14658300  0.74153600  1
  S  S8  1  0.50000000  0.85022000  0.75703400  1
  S  S9  1  0.50000000  0.35022000  0.24296600  1
  S  S10  1  0.50000000  0.60149100  0.84146500  1
  S  S11  1  0.50000000  0.10149100  0.15853500  1
  S  S12  1  0.50000000  0.43664500  0.98234500  1
  S  S13  1  0.50000000  0.93664500  0.01765500  1
  S  S14  1  0.50000000  0.93654200  0.49242100  1
  S  S15  1  0.50000000  0.43654200  0.50757900  1
  S  S16  1  0.00000000  0.33798800  0.84268900  1
  S  S17  1  0.00000000  0.83798800  0.15731100  1
  S  S18  1  0.00000000  0.71385700  0.97001100  1
  S  S19  1  0.00000000  0.21385700  0.02998900  1
  S  S20  1  0.00000000  0.80450600  0.36076400  1
  S  S21  1  0.00000000  0.30450600  0.63923600  1
  S  S22  1  0.00000000  0.60063900  0.67639000  1
  S  S23  1  0.00000000  0.10063900  0.32361000  1
loop_
_geom_bond_atom_site_label_1
_geom_bond_atom_site_label_2
_geom_bond_distance
_geom_bond_site_symmetry_2
Pb0 S16 2.971724 1_655
Pb0 S16 2.971724 1_555
Pb0 S7 3.013082 1_555
Pb0 S10 3.086426 1_555
Pb0 S21 3.114054 1_655
Pb0 S21 3.114054 1_555
Pb1 S17 2.971724 1_655
Pb1 S17 2.971724 1_555
Pb1 S6 3.013082 1_555
Pb1 S11 3.086426 1_565
Pb1 S20 3.114054 1_555
Pb1 S20 3.114054 1_655
Pb2 S16 2.947498 1_655
Pb2 S16 2.947498 1_555
Pb2 S19 3.102697 1_656
Pb2 S19 3.102697 1_556
Pb2 S12 3.110515 1_555
Pb2 S0 3.226535 1_645
Pb2 S0 3.226535 1_545
Pb3 S17 2.947498 1_555
Pb3 S17 2.947498 1_655
Pb3 S18 3.102697 1_554
Pb3 S18 3.102697 1_654
Pb3 S13 3.110515 1_555
Pb3 S1 3.226535 1_555
Pb3 S1 3.226535 1_655
Pb4 S8 2.920186 1_555
Pb4 S22 3.024601 1_555
Pb4 S22 3.024601 1_655
Pb4 S2 3.173063 1_655
Pb4 S2 3.173063 1_555
Pb4 S4 3.220685 1_655
Pb4 S4 3.220685 1_555
Pb4 S14 3.290294 1_555
Pb5 S9 2.920186 1_555
Pb5 S23 3.024601 1_555
Pb5 S23 3.024601 1_655
Pb5 S3 3.173063 1_555
Pb5 S3 3.173063 1_655
Pb5 S5 3.220685 1_555
Pb5 S5 3.220685 1_655
Pb5 S15 3.290294 1_555
S0 Sn0 2.580197 1_565
S0 Tb2 2.802166 1_555
S0 Tb2 2.802166 1_455
S1 Sn1 2.580197 1_555
S1 Tb3 2.802166 1_555
S1 Tb3 2.802166 1_455
S2 Sn0 2.559953 1_565
S2 Tb1 2.867309 1_465
S2 Tb1 2.867309 1_565
S3 Sn1 2.559953 1_555
S3 Tb0 2.867309 1_555
S3 Tb0 2.867309 1_455
S4 Sn5 2.583983 1_555
S4 Tb0 2.836280 1_555
S4 Tb0 2.836280 1_455
S5 Sn4 2.583983 1_545
S5 Tb1 2.836280 1_455
S5 Tb1 2.836280 1_555
S6 Sn1 2.609856 1_555
S6 Sn1 2.609856 1_655
S6 Tb0 3.162229 1_555
S7 Sn0 2.609856 1_555
S7 Sn0 2.609856 1_655
S7 Tb1 3.162229 1_555
S8 Sn0 2.659245 1_665
S8 Sn0 2.659245 1_565
S8 Tb2 2.846495 1_555
S9 Sn1 2.659245 1_555
S9 Sn1 2.659245 1_655
S9 Tb3 2.846495 1_555
S10 Sn2 2.633987 1_655
S10 Sn2 2.633987 1_555
S10 Tb2 2.838740 1_555
S11 Sn3 2.633987 1_655
S11 Sn3 2.633987 1_555
S11 Tb3 2.838740 1_555
S12 Sn2 2.633548 1_555
S12 Sn2 2.633548 1_655
S12 Tb3 2.838703 1_556
S13 Sn3 2.633548 1_565
S13 Sn3 2.633548 1_665
S13 Tb2 2.838703 1_554
S14 Sn4 2.489755 1_555
S14 Sn4 2.489755 1_655
S14 Tb1 3.151262 1_565
S15 Sn5 2.489755 1_655
S15 Sn5 2.489755 1_555
S15 Tb0 3.151262 1_555
S16 Sn2 2.553743 1_555
S17 Sn3 2.553743 1_565
S18 Sn2 2.567888 1_555
S18 Tb2 2.828631 1_455
S18 Tb2 2.828631 1_555
S19 Sn3 2.567888 1_555
S19 Tb3 2.828631 1_455
S19 Tb3 2.828631 1_555
S20 Sn4 2.582074 1_555
S20 Tb0 2.896820 1_455
S20 Tb0 2.896820 1_555
S21 Sn5 2.582074 1_555
S21 Tb1 2.896820 1_455
S21 Tb1 2.896820 1_555
S22 Sn5 2.455538 1_555
S23 Sn4 2.455538 1_545
