# generated using pymatgen
data_ScGa5Fe
_symmetry_space_group_name_H-M   'P 1'
_cell_length_a   4.10923626
_cell_length_b   4.10924344
_cell_length_c   6.59155537
_cell_angle_alpha   90.00000000
_cell_angle_beta   90.00000000
_cell_angle_gamma   90.00000000
_symmetry_Int_Tables_number   1
_chemical_formula_structural   ScGa5Fe
_chemical_formula_sum   'Sc1 Ga5 Fe1'
_cell_volume   111.30402938
_cell_formula_units_Z   1
loop_
 _symmetry_equiv_pos_site_id
 _symmetry_equiv_pos_as_xyz
  1  'x, y, z'
loop_
 _atom_site_type_symbol
 _atom_site_label
 _atom_site_symmetry_multiplicity
 _atom_site_fract_x
 _atom_site_fract_y
 _atom_site_fract_z
 _atom_site_occupancy
  Sc  Sc0  1  0.00000000  -0.00000000  0.00000000  1
  Ga  Ga0  1  0.00000000  0.50000000  0.30604373  1
  Ga  Ga1  1  -0.00000000  0.50000000  0.69395627  1
  Ga  Ga2  1  0.50000000  0.00000000  0.30604373  1
  Ga  Ga3  1  0.50000000  -0.00000000  0.69395627  1
  Ga  Ga4  1  0.50000000  0.50000000  0.00000000  1
  Fe  Fe0  1  0.00000000  -0.00000000  0.50000000  1
loop_
_geom_bond_atom_site_label_1
_geom_bond_atom_site_label_2
_geom_bond_distance
_geom_bond_site_symmetry_2
Ga0 Ga1 2.556947 1_555
Ga0 Ga4 2.879405 1_455
Ga0 Ga4 2.879405 1_555
Ga0 Sc0 2.879407 1_565
Ga0 Sc0 2.879407 1_555
Ga0 Ga2 2.905671 1_565
Ga0 Ga2 2.905671 1_465
Ga0 Ga2 2.905671 1_455
Ga0 Ga2 2.905671 1_555
Ga1 Ga4 2.879405 1_456
Ga1 Ga4 2.879405 1_556
Ga1 Sc0 2.879407 1_556
Ga1 Sc0 2.879407 1_566
Ga1 Ga3 2.905671 1_555
Ga1 Ga3 2.905671 1_565
Ga1 Ga3 2.905671 1_465
Ga1 Ga3 2.905671 1_455
Ga2 Ga3 2.556947 1_555
Ga2 Sc0 2.879405 1_655
Ga2 Sc0 2.879405 1_555
Ga2 Ga4 2.879407 1_545
Ga2 Ga4 2.879407 1_555
Ga3 Sc0 2.879405 1_556
Ga3 Sc0 2.879405 1_656
Ga3 Ga4 2.879407 1_556
Ga3 Ga4 2.879407 1_546
Ga4 Sc0 2.905671 1_565
Ga4 Sc0 2.905671 1_655
Ga4 Sc0 2.905671 1_555
Ga4 Sc0 2.905671 1_665
Fe0 Ga3 2.419907 1_455
Fe0 Ga2 2.419907 1_555
Fe0 Ga3 2.419907 1_555
Fe0 Ga2 2.419907 1_455
Fe0 Ga0 2.419910 1_555
Fe0 Ga0 2.419910 1_545
Fe0 Ga1 2.419910 1_545
Fe0 Ga1 2.419910 1_555
