# generated using pymatgen
data_Mg2Ga
_symmetry_space_group_name_H-M   'P 1'
_cell_length_a   11.58566604
_cell_length_b   11.58566604
_cell_length_c   15.39490751
_cell_angle_alpha   70.93720424
_cell_angle_beta   70.93720424
_cell_angle_gamma   30.27218658
_symmetry_Int_Tables_number   1
_chemical_formula_structural   Mg2Ga
_chemical_formula_sum   'Mg32 Ga16'
_cell_volume   980.26483191
_cell_formula_units_Z   16
loop_
 _symmetry_equiv_pos_site_id
 _symmetry_equiv_pos_as_xyz
  1  'x, y, z'
loop_
 _atom_site_type_symbol
 _atom_site_label
 _atom_site_symmetry_multiplicity
 _atom_site_fract_x
 _atom_site_fract_y
 _atom_site_fract_z
 _atom_site_occupancy
  Mg  Mg0_0  1  0.41312150  0.41312150  0.06224550  1
  Mg  Mg0_1  1  0.41312150  0.41312150  0.56224550  1
  Mg  Mg0_2  1  0.41312150  0.91312150  0.06224550  1
  Mg  Mg0_3  1  0.41312150  0.91312150  0.56224550  1
  Mg  Mg0_4  1  0.91312150  0.41312150  0.06224550  1
  Mg  Mg0_5  1  0.91312150  0.41312150  0.56224550  1
  Mg  Mg0_6  1  0.91312150  0.91312150  0.06224550  1
  Mg  Mg0_7  1  0.91312150  0.91312150  0.56224550  1
  Mg  Mg1_0  1  0.06797250  0.06797250  0.23732500  1
  Mg  Mg1_1  1  0.06797250  0.06797250  0.73732500  1
  Mg  Mg1_2  1  0.06797250  0.56797250  0.23732500  1
  Mg  Mg1_3  1  0.06797250  0.56797250  0.73732500  1
  Mg  Mg1_4  1  0.56797250  0.06797250  0.23732500  1
  Mg  Mg1_5  1  0.56797250  0.06797250  0.73732500  1
  Mg  Mg1_6  1  0.56797250  0.56797250  0.23732500  1
  Mg  Mg1_7  1  0.56797250  0.56797250  0.73732500  1
  Mg  Mg2_0  1  0.43202750  0.43202750  0.26267500  1
  Mg  Mg2_1  1  0.43202750  0.43202750  0.76267500  1
  Mg  Mg2_2  1  0.43202750  0.93202750  0.26267500  1
  Mg  Mg2_3  1  0.43202750  0.93202750  0.76267500  1
  Mg  Mg2_4  1  0.93202750  0.43202750  0.26267500  1
  Mg  Mg2_5  1  0.93202750  0.43202750  0.76267500  1
  Mg  Mg2_6  1  0.93202750  0.93202750  0.26267500  1
  Mg  Mg2_7  1  0.93202750  0.93202750  0.76267500  1
  Mg  Mg3_0  1  0.08687850  0.08687850  0.43775450  1
  Mg  Mg3_1  1  0.08687850  0.08687850  0.93775450  1
  Mg  Mg3_2  1  0.08687850  0.58687850  0.43775450  1
  Mg  Mg3_3  1  0.08687850  0.58687850  0.93775450  1
  Mg  Mg3_4  1  0.58687850  0.08687850  0.43775450  1
  Mg  Mg3_5  1  0.58687850  0.08687850  0.93775450  1
  Mg  Mg3_6  1  0.58687850  0.58687850  0.43775450  1
  Mg  Mg3_7  1  0.58687850  0.58687850  0.93775450  1
  Ga  Ga0_0  1  0.26969100  0.26969100  0.10440900  1
  Ga  Ga0_1  1  0.26969100  0.26969100  0.60440900  1
  Ga  Ga0_2  1  0.26969100  0.76969100  0.10440900  1
  Ga  Ga0_3  1  0.26969100  0.76969100  0.60440900  1
  Ga  Ga0_4  1  0.76969100  0.26969100  0.10440900  1
  Ga  Ga0_5  1  0.76969100  0.26969100  0.60440900  1
  Ga  Ga0_6  1  0.76969100  0.76969100  0.10440900  1
  Ga  Ga0_7  1  0.76969100  0.76969100  0.60440900  1
  Ga  Ga1_0  1  0.23030900  0.23030900  0.39559100  1
  Ga  Ga1_1  1  0.23030900  0.23030900  0.89559100  1
  Ga  Ga1_2  1  0.23030900  0.73030900  0.39559100  1
  Ga  Ga1_3  1  0.23030900  0.73030900  0.89559100  1
  Ga  Ga1_4  1  0.73030900  0.23030900  0.39559100  1
  Ga  Ga1_5  1  0.73030900  0.23030900  0.89559100  1
  Ga  Ga1_6  1  0.73030900  0.73030900  0.39559100  1
  Ga  Ga1_7  1  0.73030900  0.73030900  0.89559100  1
loop_
_geom_bond_atom_site_label_1
_geom_bond_atom_site_label_2
_geom_bond_distance
_geom_bond_site_symmetry_2
Mg0_0 Mg0_6 3.025164 1_545
Mg0_0 Mg0_6 3.025164 1_455
Mg0_0 Mg1_2 3.193817 1_555
Mg0_0 Mg1_4 3.193817 1_555
Mg0_0 Mg2_0 3.253102 1_555
Mg0_0 Mg3_3 3.328799 1_554
Mg0_0 Mg3_5 3.328799 1_554
Mg0_1 Mg0_7 3.025164 1_545
Mg0_1 Mg0_7 3.025164 1_455
Mg0_1 Mg1_3 3.193817 1_555
Mg0_1 Mg1_5 3.193817 1_555
Mg0_1 Mg2_1 3.253102 1_555
Mg0_1 Mg3_4 3.328799 1_555
Mg0_1 Mg3_2 3.328799 1_555
Mg0_2 Mg0_4 3.025164 1_465
Mg0_2 Mg0_4 3.025164 1_555
Mg0_2 Mg1_0 3.193817 1_565
Mg0_2 Mg1_6 3.193817 1_555
Mg0_2 Mg2_2 3.253102 1_555
Mg0_2 Mg3_1 3.328799 1_564
Mg0_2 Mg3_7 3.328799 1_554
Mg0_3 Mg0_5 3.025164 1_555
Mg0_3 Mg0_5 3.025164 1_465
Mg0_3 Mg1_7 3.193817 1_555
Mg0_3 Mg1_1 3.193817 1_565
Mg0_3 Mg2_3 3.253102 1_555
Mg0_3 Mg3_6 3.328799 1_555
Mg0_3 Mg3_0 3.328799 1_565
Mg0_4 Mg1_6 3.193817 1_555
Mg0_4 Mg1_0 3.193817 1_655
Mg0_4 Mg2_4 3.253102 1_555
Mg0_4 Mg3_1 3.328799 1_654
Mg0_4 Mg3_7 3.328799 1_554
Mg0_5 Mg1_7 3.193817 1_555
Mg0_5 Mg1_1 3.193817 1_655
Mg0_5 Mg2_5 3.253102 1_555
Mg0_5 Mg3_6 3.328799 1_555
Mg0_5 Mg3_0 3.328799 1_655
Mg0_6 Mg1_2 3.193817 1_655
Mg0_6 Mg1_4 3.193817 1_565
Mg0_6 Mg2_6 3.253102 1_555
Mg0_6 Mg3_3 3.328799 1_654
Mg0_6 Mg3_5 3.328799 1_564
Mg0_7 Mg1_5 3.193817 1_565
Mg0_7 Mg1_3 3.193817 1_655
Mg0_7 Mg2_7 3.253102 1_555
Mg0_7 Mg3_4 3.328799 1_565
Mg0_7 Mg3_2 3.328799 1_655
Mg1_0 Mg2_6 2.931797 1_445
Mg1_0 Mg1_6 3.025164 1_455
Mg1_0 Mg1_6 3.025164 1_545
Mg1_0 Mg2_2 3.101958 1_545
Mg1_0 Mg2_4 3.101958 1_455
Mg1_0 Mg3_0 3.253102 1_555
Mg1_1 Mg2_7 2.931797 1_445
Mg1_1 Mg1_7 3.025164 1_455
Mg1_1 Mg1_7 3.025164 1_545
Mg1_1 Mg2_5 3.101958 1_455
Mg1_1 Mg2_3 3.101958 1_545
Mg1_1 Mg3_1 3.253102 1_555
Mg1_2 Mg2_4 2.931797 1_455
Mg1_2 Mg1_4 3.025164 1_555
Mg1_2 Mg1_4 3.025164 1_465
Mg1_2 Mg2_0 3.101958 1_555
Mg1_2 Mg2_6 3.101958 1_455
Mg1_2 Mg3_2 3.253102 1_555
Mg1_3 Mg2_5 2.931797 1_455
Mg1_3 Mg1_5 3.025164 1_465
Mg1_3 Mg1_5 3.025164 1_555
Mg1_3 Mg2_7 3.101958 1_455
Mg1_3 Mg2_1 3.101958 1_555
Mg1_3 Mg3_3 3.253102 1_555
Mg1_4 Mg2_2 2.931797 1_545
Mg1_4 Mg2_0 3.101958 1_555
Mg1_4 Mg2_6 3.101958 1_545
Mg1_4 Mg3_4 3.253102 1_555
Mg1_5 Mg2_3 2.931797 1_545
Mg1_5 Mg2_7 3.101958 1_545
Mg1_5 Mg2_1 3.101958 1_555
Mg1_5 Mg3_5 3.253102 1_555
Mg1_6 Mg2_0 2.931797 1_555
Mg1_6 Mg2_4 3.101958 1_555
Mg1_6 Mg2_2 3.101958 1_555
Mg1_6 Mg3_6 3.253102 1_555
Mg1_7 Mg2_1 2.931797 1_555
Mg1_7 Mg2_3 3.101958 1_555
Mg1_7 Mg2_5 3.101958 1_555
Mg1_7 Mg3_7 3.253102 1_555
Mg2_0 Mg2_6 3.025164 1_545
Mg2_0 Mg2_6 3.025164 1_455
Mg2_0 Mg3_4 3.193817 1_555
Mg2_0 Mg3_2 3.193817 1_555
Mg2_1 Mg2_7 3.025164 1_545
Mg2_1 Mg2_7 3.025164 1_455
Mg2_1 Mg3_5 3.193817 1_555
Mg2_1 Mg3_3 3.193817 1_555
Mg2_2 Mg2_4 3.025164 1_555
Mg2_2 Mg2_4 3.025164 1_465
Mg2_2 Mg3_6 3.193817 1_555
Mg2_2 Mg3_0 3.193817 1_565
Mg2_3 Mg2_5 3.025164 1_555
Mg2_3 Mg2_5 3.025164 1_465
Mg2_3 Mg3_7 3.193817 1_555
Mg2_3 Mg3_1 3.193817 1_565
Mg2_4 Mg3_6 3.193817 1_555
Mg2_4 Mg3_0 3.193817 1_655
Mg2_5 Mg3_7 3.193817 1_555
Mg2_5 Mg3_1 3.193817 1_655
Mg2_6 Mg3_4 3.193817 1_565
Mg2_6 Mg3_2 3.193817 1_655
Mg2_7 Mg3_3 3.193817 1_655
Mg2_7 Mg3_5 3.193817 1_565
Mg3_0 Mg3_6 3.025164 1_455
Mg3_0 Mg3_6 3.025164 1_545
Mg3_1 Mg3_7 3.025164 1_455
Mg3_1 Mg3_7 3.025164 1_545
Mg3_2 Mg3_4 3.025164 1_555
Mg3_2 Mg3_4 3.025164 1_465
Mg3_3 Mg3_5 3.025164 1_555
Mg3_3 Mg3_5 3.025164 1_465
Ga0_0 Mg3_3 2.918861 1_554
Ga0_0 Mg3_5 2.918861 1_554
Ga0_0 Mg2_4 2.972594 1_455
Ga0_0 Mg2_2 2.972594 1_545
Ga0_0 Mg1_4 3.022673 1_555
Ga0_0 Mg1_2 3.022673 1_555
Ga0_0 Ga0_6 3.025164 1_545
Ga0_0 Ga0_6 3.025164 1_455
Ga0_0 Mg0_0 3.050343 1_555
Ga0_0 Mg0_2 3.072170 1_545
Ga0_0 Mg0_4 3.072170 1_455
Ga0_1 Mg3_4 2.918861 1_555
Ga0_1 Mg3_2 2.918861 1_555
Ga0_1 Mg2_3 2.972594 1_545
Ga0_1 Mg2_5 2.972594 1_455
Ga0_1 Mg1_5 3.022673 1_555
Ga0_1 Mg1_3 3.022673 1_555
Ga0_1 Ga0_7 3.025164 1_545
Ga0_1 Ga0_7 3.025164 1_455
Ga0_1 Mg0_1 3.050343 1_555
Ga0_1 Mg0_3 3.072170 1_545
Ga0_1 Mg0_5 3.072170 1_455
Ga0_2 Mg3_7 2.918861 1_554
Ga0_2 Mg3_1 2.918861 1_564
Ga0_2 Mg2_6 2.972594 1_455
Ga0_2 Mg2_0 2.972594 1_555
Ga0_2 Mg1_0 3.022673 1_565
Ga0_2 Mg1_6 3.022673 1_555
Ga0_2 Ga0_4 3.025164 1_465
Ga0_2 Ga0_4 3.025164 1_555
Ga0_2 Mg0_2 3.050343 1_555
Ga0_2 Mg0_6 3.072170 1_455
Ga0_2 Mg0_0 3.072170 1_555
Ga0_3 Mg3_0 2.918861 1_565
Ga0_3 Mg3_6 2.918861 1_555
Ga0_3 Mg2_1 2.972594 1_555
Ga0_3 Mg2_7 2.972594 1_455
Ga0_3 Mg1_7 3.022673 1_555
Ga0_3 Mg1_1 3.022673 1_565
Ga0_3 Ga0_5 3.025164 1_555
Ga0_3 Ga0_5 3.025164 1_465
Ga0_3 Mg0_3 3.050343 1_555
Ga0_3 Mg0_1 3.072170 1_555
Ga0_3 Mg0_7 3.072170 1_455
Ga0_4 Mg3_7 2.918861 1_554
Ga0_4 Mg3_1 2.918861 1_654
Ga0_4 Mg2_6 2.972594 1_545
Ga0_4 Mg2_0 2.972594 1_555
Ga0_4 Mg1_0 3.022673 1_655
Ga0_4 Mg1_6 3.022673 1_555
Ga0_4 Mg0_4 3.050343 1_555
Ga0_4 Mg0_6 3.072170 1_545
Ga0_4 Mg0_0 3.072170 1_555
Ga0_5 Mg3_6 2.918861 1_555
Ga0_5 Mg3_0 2.918861 1_655
Ga0_5 Mg2_1 2.972594 1_555
Ga0_5 Mg2_7 2.972594 1_545
Ga0_5 Mg1_7 3.022673 1_555
Ga0_5 Mg1_1 3.022673 1_655
Ga0_5 Mg0_5 3.050343 1_555
Ga0_5 Mg0_7 3.072170 1_545
Ga0_5 Mg0_1 3.072170 1_555
Ga0_6 Mg3_3 2.918861 1_654
Ga0_6 Mg3_5 2.918861 1_564
Ga0_6 Mg2_4 2.972594 1_555
Ga0_6 Mg2_2 2.972594 1_555
Ga0_6 Mg1_2 3.022673 1_655
Ga0_6 Mg1_4 3.022673 1_565
Ga0_6 Mg0_6 3.050343 1_555
Ga0_6 Mg0_2 3.072170 1_555
Ga0_6 Mg0_4 3.072170 1_555
Ga0_7 Mg3_2 2.918861 1_655
Ga0_7 Mg3_4 2.918861 1_565
Ga0_7 Mg2_3 2.972594 1_555
Ga0_7 Mg2_5 2.972594 1_555
Ga0_7 Mg1_5 3.022673 1_565
Ga0_7 Mg1_3 3.022673 1_655
Ga0_7 Mg0_7 3.050343 1_555
Ga0_7 Mg0_5 3.072170 1_555
Ga0_7 Mg0_3 3.072170 1_555
Ga1_0 Mg0_5 2.918861 1_455
Ga1_0 Mg0_3 2.918861 1_545
Ga1_0 Mg1_4 2.972594 1_555
Ga1_0 Mg1_2 2.972594 1_555
Ga1_0 Mg2_4 3.022673 1_455
Ga1_0 Mg2_2 3.022673 1_545
Ga1_0 Ga1_6 3.025164 1_455
Ga1_0 Ga1_6 3.025164 1_545
Ga1_0 Mg3_0 3.050343 1_555
Ga1_0 Mg3_4 3.072170 1_555
Ga1_0 Mg3_2 3.072170 1_555
Ga1_1 Mg0_2 2.918861 1_546
Ga1_1 Mg0_4 2.918861 1_456
Ga1_1 Mg1_5 2.972594 1_555
Ga1_1 Mg1_3 2.972594 1_555
Ga1_1 Mg2_3 3.022673 1_545
Ga1_1 Mg2_5 3.022673 1_455
Ga1_1 Ga1_7 3.025164 1_545
Ga1_1 Ga1_7 3.025164 1_455
Ga1_1 Mg3_1 3.050343 1_555
Ga1_1 Mg3_3 3.072170 1_555
Ga1_1 Mg3_5 3.072170 1_555
Ga1_2 Mg0_7 2.918861 1_455
Ga1_2 Mg0_1 2.918861 1_555
Ga1_2 Mg1_0 2.972594 1_565
Ga1_2 Mg1_6 2.972594 1_555
Ga1_2 Mg2_6 3.022673 1_455
Ga1_2 Mg2_0 3.022673 1_555
Ga1_2 Ga1_4 3.025164 1_555
Ga1_2 Ga1_4 3.025164 1_465
Ga1_2 Mg3_2 3.050343 1_555
Ga1_2 Mg3_0 3.072170 1_565
Ga1_2 Mg3_6 3.072170 1_555
Ga1_3 Mg0_6 2.918861 1_456
Ga1_3 Mg0_0 2.918861 1_556
Ga1_3 Mg1_1 2.972594 1_565
Ga1_3 Mg1_7 2.972594 1_555
Ga1_3 Mg2_1 3.022673 1_555
Ga1_3 Mg2_7 3.022673 1_455
Ga1_3 Ga1_5 3.025164 1_555
Ga1_3 Ga1_5 3.025164 1_465
Ga1_3 Mg3_3 3.050343 1_555
Ga1_3 Mg3_7 3.072170 1_555
Ga1_3 Mg3_1 3.072170 1_565
Ga1_4 Mg0_7 2.918861 1_545
Ga1_4 Mg0_1 2.918861 1_555
Ga1_4 Mg1_0 2.972594 1_655
Ga1_4 Mg1_6 2.972594 1_555
Ga1_4 Mg2_6 3.022673 1_545
Ga1_4 Mg2_0 3.022673 1_555
Ga1_4 Mg3_4 3.050343 1_555
Ga1_4 Mg3_0 3.072170 1_655
Ga1_4 Mg3_6 3.072170 1_555
Ga1_5 Mg0_6 2.918861 1_546
Ga1_5 Mg0_0 2.918861 1_556
Ga1_5 Mg1_1 2.972594 1_655
Ga1_5 Mg1_7 2.972594 1_555
Ga1_5 Mg2_1 3.022673 1_555
Ga1_5 Mg2_7 3.022673 1_545
Ga1_5 Mg3_5 3.050343 1_555
Ga1_5 Mg3_7 3.072170 1_555
Ga1_5 Mg3_1 3.072170 1_655
Ga1_6 Mg0_5 2.918861 1_555
Ga1_6 Mg0_3 2.918861 1_555
Ga1_6 Mg1_2 2.972594 1_655
Ga1_6 Mg1_4 2.972594 1_565
Ga1_6 Mg2_4 3.022673 1_555
Ga1_6 Mg2_2 3.022673 1_555
Ga1_6 Mg3_6 3.050343 1_555
Ga1_6 Mg3_2 3.072170 1_655
Ga1_6 Mg3_4 3.072170 1_565
Ga1_7 Mg0_4 2.918861 1_556
Ga1_7 Mg0_2 2.918861 1_556
Ga1_7 Mg1_3 2.972594 1_655
Ga1_7 Mg1_5 2.972594 1_565
Ga1_7 Mg2_5 3.022673 1_555
Ga1_7 Mg2_3 3.022673 1_555
Ga1_7 Mg3_7 3.050343 1_555
Ga1_7 Mg3_5 3.072170 1_565
Ga1_7 Mg3_3 3.072170 1_655
