# generated using pymatgen
data_ZnCr2P2O9
_symmetry_space_group_name_H-M   'P 1'
_cell_length_a   6.28839000
_cell_length_b   7.39118100
_cell_length_c   14.11220800
_cell_angle_alpha   90.00000000
_cell_angle_beta   90.00000000
_cell_angle_gamma   90.00000000
_symmetry_Int_Tables_number   1
_chemical_formula_structural   ZnCr2P2O9
_chemical_formula_sum   'Zn4 Cr8 P8 O36'
_cell_volume   655.91607561
_cell_formula_units_Z   4
loop_
 _symmetry_equiv_pos_site_id
 _symmetry_equiv_pos_as_xyz
  1  'x, y, z'
loop_
 _atom_site_type_symbol
 _atom_site_label
 _atom_site_symmetry_multiplicity
 _atom_site_fract_x
 _atom_site_fract_y
 _atom_site_fract_z
 _atom_site_occupancy
  Zn  Zn0  1  0.75000000  0.93356600  0.77620900  1
  Zn  Zn1  1  0.75000000  0.56643400  0.27620900  1
  Zn  Zn2  1  0.25000000  0.43356600  0.72379100  1
  Zn  Zn3  1  0.25000000  0.06643400  0.22379100  1
  Cr  Cr0  1  0.75000000  0.35671300  0.87787800  1
  Cr  Cr1  1  0.25000000  0.64328700  0.12212200  1
  Cr  Cr2  1  0.25000000  0.85671300  0.62212200  1
  Cr  Cr3  1  0.75000000  0.14328700  0.37787800  1
  Cr  Cr4  1  0.50000000  0.00000000  0.00000000  1
  Cr  Cr5  1  0.50000000  0.50000000  0.50000000  1
  Cr  Cr6  1  0.00000000  0.50000000  0.50000000  1
  Cr  Cr7  1  0.00000000  0.00000000  0.00000000  1
  P  P0  1  0.25000000  0.36349100  0.92808900  1
  P  P1  1  0.75000000  0.63650900  0.07191100  1
  P  P2  1  0.75000000  0.86349100  0.57191100  1
  P  P3  1  0.25000000  0.13650900  0.42808900  1
  P  P4  1  0.75000000  0.38799800  0.69343400  1
  P  P5  1  0.75000000  0.11200200  0.19343400  1
  P  P6  1  0.25000000  0.88799800  0.80656600  1
  P  P7  1  0.25000000  0.61200200  0.30656600  1
  O  O0  1  0.03929600  0.60669600  0.36618200  1
  O  O1  1  0.53929600  0.39330400  0.63381800  1
  O  O2  1  0.96070400  0.10669600  0.13381800  1
  O  O3  1  0.46070400  0.89330400  0.86618200  1
  O  O4  1  0.96070400  0.39330400  0.63381800  1
  O  O5  1  0.46070400  0.60669600  0.36618200  1
  O  O6  1  0.03929600  0.89330400  0.86618200  1
  O  O7  1  0.53929600  0.10669600  0.13381800  1
  O  O8  1  0.25000000  0.32926300  0.47578000  1
  O  O9  1  0.75000000  0.67073700  0.52422000  1
  O  O10  1  0.75000000  0.82926300  0.02422000  1
  O  O11  1  0.25000000  0.17073700  0.97578000  1
  O  O12  1  0.75000000  0.12972600  0.94709400  1
  O  O13  1  0.25000000  0.87027400  0.05290600  1
  O  O14  1  0.25000000  0.62972600  0.55290600  1
  O  O15  1  0.75000000  0.37027400  0.44709400  1
  O  O16  1  0.75000000  0.21031100  0.75457700  1
  O  O17  1  0.25000000  0.78968900  0.24542300  1
  O  O18  1  0.25000000  0.71031100  0.74542300  1
  O  O19  1  0.75000000  0.28968900  0.25457700  1
  O  O20  1  0.43791500  0.12594500  0.35762100  1
  O  O21  1  0.93791500  0.87405500  0.64237900  1
  O  O22  1  0.56208500  0.62594500  0.14237900  1
  O  O23  1  0.06208500  0.37405500  0.85762100  1
  O  O24  1  0.56208500  0.87405500  0.64237900  1
  O  O25  1  0.06208500  0.12594500  0.35762100  1
  O  O26  1  0.43791500  0.37405500  0.85762100  1
  O  O27  1  0.93791500  0.62594500  0.14237900  1
  O  O28  1  0.75000000  0.49266700  0.99698400  1
  O  O29  1  0.25000000  0.04160900  0.73247400  1
  O  O30  1  0.25000000  0.45839100  0.23247400  1
  O  O31  1  0.75000000  0.54160900  0.76752600  1
  O  O32  1  0.75000000  0.00733300  0.49698400  1
  O  O33  1  0.25000000  0.99266700  0.50301600  1
  O  O34  1  0.25000000  0.50733300  0.00301600  1
  O  O35  1  0.75000000  0.95839100  0.26752600  1
loop_
_geom_bond_atom_site_label_1
_geom_bond_atom_site_label_2
_geom_bond_distance
_geom_bond_site_symmetry_2
Cr0 O12 1.941341 1_555
Cr0 O28 1.958315 1_555
Cr0 O23 1.987362 1_655
Cr0 O26 1.987362 1_555
Cr0 O16 2.049067 1_555
Cr0 O31 2.071910 1_555
Cr1 O13 1.941341 1_555
Cr1 O34 1.958315 1_555
Cr1 O22 1.987362 1_555
Cr1 O27 1.987362 1_455
Cr1 O17 2.049067 1_555
Cr1 O30 2.071910 1_555
Cr2 O14 1.941341 1_555
Cr2 O33 1.958315 1_555
Cr2 O24 1.987362 1_555
Cr2 O21 1.987362 1_455
Cr2 O18 2.049067 1_555
Cr2 O29 2.071910 1_565
Cr3 O15 1.941341 1_555
Cr3 O32 1.958315 1_555
Cr3 O25 1.987362 1_655
Cr3 O20 1.987362 1_555
Cr3 O19 2.049067 1_555
Cr3 O35 2.071910 1_545
Cr4 O13 1.987029 1_545
Cr4 O12 1.987029 1_554
Cr4 O11 2.044708 1_554
Cr4 O10 2.044708 1_545
Cr4 O7 2.061377 1_555
Cr4 O3 2.061377 1_544
Cr5 O14 1.987029 1_555
Cr5 O15 1.987029 1_555
Cr5 O9 2.044708 1_555
Cr5 O8 2.044708 1_555
Cr5 O5 2.061377 1_555
Cr5 O1 2.061377 1_555
Cr6 O15 1.987029 1_455
Cr6 O14 1.987029 1_555
Cr6 O9 2.044708 1_455
Cr6 O8 2.044708 1_555
Cr6 O4 2.061377 1_455
Cr6 O0 2.061377 1_555
Cr7 O13 1.987029 1_545
Cr7 O12 1.987029 1_454
Cr7 O11 2.044708 1_554
Cr7 O10 2.044708 1_445
Cr7 O6 2.061377 1_544
Cr7 O2 2.061377 1_455
O0 P7 1.570013 1_555
O0 Zn1 2.238359 1_455
O1 P4 1.570013 1_555
O1 Zn2 2.238359 1_555
O2 P5 1.570013 1_555
O2 Zn3 2.238359 1_655
O3 P6 1.570013 1_555
O3 Zn0 2.238359 1_555
O4 P4 1.570013 1_555
O4 Zn2 2.238359 1_655
O5 P7 1.570013 1_555
O5 Zn1 2.238359 1_555
O6 P6 1.570013 1_555
O6 Zn0 2.238359 1_455
O7 P5 1.570013 1_555
O7 Zn3 2.238359 1_555
O8 P3 1.575651 1_555
O9 P2 1.575651 1_555
O10 P1 1.575651 1_555
O11 P0 1.575651 1_555
O16 P4 1.571411 1_555
O16 Zn0 2.068127 1_545
O17 P7 1.571411 1_555
O17 Zn3 2.068127 1_565
O18 P6 1.571411 1_555
O18 Zn2 2.068127 1_555
O19 P5 1.571411 1_555
O19 Zn1 2.068127 1_555
O20 P3 1.546422 1_555
O20 Zn3 2.270858 1_555
O21 P2 1.546422 1_555
O21 Zn0 2.270858 1_555
O22 P1 1.546422 1_555
O22 Zn1 2.270858 1_555
O23 P0 1.546422 1_555
O23 Zn2 2.270858 1_555
O24 P2 1.546422 1_555
O24 Zn0 2.270858 1_555
O25 P3 1.546422 1_555
O25 Zn3 2.270858 1_555
O26 P0 1.546422 1_555
O26 Zn2 2.270858 1_555
O27 P1 1.546422 1_555
O27 Zn1 2.270858 1_555
O28 P1 1.499459 1_556
O29 P6 1.543483 1_545
O30 P7 1.543483 1_555
O31 P4 1.543483 1_555
O32 P2 1.499459 1_545
O33 P3 1.499459 1_565
O34 P0 1.499459 1_554
O35 P5 1.543483 1_565
