# generated using pymatgen
data_Ge3W5N9
_symmetry_space_group_name_H-M   'P 1'
_cell_length_a   8.40990693
_cell_length_b   13.79670865
_cell_length_c   13.44335600
_cell_angle_alpha   90.00000000
_cell_angle_beta   90.00000000
_cell_angle_gamma   145.11135105
_symmetry_Int_Tables_number   1
_chemical_formula_structural   Ge3W5N9
_chemical_formula_sum   'Ge12 W20 N36'
_cell_volume   892.19090469
_cell_formula_units_Z   4
loop_
 _symmetry_equiv_pos_site_id
 _symmetry_equiv_pos_as_xyz
  1  'x, y, z'
loop_
 _atom_site_type_symbol
 _atom_site_label
 _atom_site_symmetry_multiplicity
 _atom_site_fract_x
 _atom_site_fract_y
 _atom_site_fract_z
 _atom_site_occupancy
  Ge  Ge0  1  0.00000000  0.70678100  0.99083500  1
  Ge  Ge1  1  0.00000000  0.29321900  0.00916500  1
  Ge  Ge2  1  0.00000000  0.79321900  0.49083500  1
  Ge  Ge3  1  0.00000000  0.20678100  0.50916500  1
  Ge  Ge4  1  0.00000000  0.23055300  0.78331800  1
  Ge  Ge5  1  0.00000000  0.76944700  0.21668200  1
  Ge  Ge6  1  0.00000000  0.26944700  0.28331800  1
  Ge  Ge7  1  0.00000000  0.73055300  0.71668200  1
  Ge  Ge8  1  0.50000000  0.89631800  0.75000000  1
  Ge  Ge9  1  0.50000000  0.60368200  0.25000000  1
  Ge  Ge10  1  0.50000000  0.10368200  0.25000000  1
  Ge  Ge11  1  0.50000000  0.39631800  0.75000000  1
  W  W0  1  0.00000000  0.47451000  0.83705200  1
  W  W1  1  0.00000000  0.52549000  0.16294800  1
  W  W2  1  0.00000000  0.02549000  0.33705200  1
  W  W3  1  0.00000000  0.97451000  0.66294800  1
  W  W4  1  0.28935500  0.01570000  0.89149200  1
  W  W5  1  0.28935500  0.27365400  0.10850800  1
  W  W6  1  0.28935500  0.77365400  0.39149200  1
  W  W7  1  0.28935500  0.51570000  0.60850800  1
  W  W8  1  0.71064500  0.98430000  0.10850800  1
  W  W9  1  0.71064500  0.72634600  0.89149200  1
  W  W10  1  0.71064500  0.22634600  0.60850800  1
  W  W11  1  0.71064500  0.48430000  0.39149200  1
  W  W12  1  0.00000000  0.57053100  0.58231200  1
  W  W13  1  0.00000000  0.42946900  0.41768800  1
  W  W14  1  0.00000000  0.92946900  0.08231200  1
  W  W15  1  0.00000000  0.07053100  0.91768800  1
  W  W16  1  0.60334500  0.30167200  0.00000000  1
  W  W17  1  0.60334500  0.80167200  0.50000000  1
  W  W18  1  0.39665500  0.69832800  0.00000000  1
  W  W19  1  0.39665500  0.19832800  0.50000000  1
  N  N0  1  0.00000000  0.45654300  0.68379700  1
  N  N1  1  0.00000000  0.54345700  0.31620300  1
  N  N2  1  0.00000000  0.04345700  0.18379700  1
  N  N3  1  0.00000000  0.95654300  0.81620300  1
  N  N4  1  0.00000000  0.33070600  0.87641100  1
  N  N5  1  0.00000000  0.66929400  0.12358900  1
  N  N6  1  0.00000000  0.16929400  0.37641100  1
  N  N7  1  0.00000000  0.83070600  0.62358900  1
  N  N8  1  0.70585800  0.60709000  0.81551000  1
  N  N9  1  0.70585800  0.09876700  0.18449000  1
  N  N10  1  0.70585800  0.59876700  0.31551000  1
  N  N11  1  0.70585800  0.10709000  0.68449000  1
  N  N12  1  0.29414200  0.39291000  0.18449000  1
  N  N13  1  0.29414200  0.90123300  0.81551000  1
  N  N14  1  0.29414200  0.40123300  0.68449000  1
  N  N15  1  0.29414200  0.89291000  0.31551000  1
  N  N16  1  0.59472700  0.25052400  0.85027100  1
  N  N17  1  0.59472700  0.34420400  0.14972900  1
  N  N18  1  0.59472700  0.84420400  0.35027100  1
  N  N19  1  0.59472700  0.75052400  0.64972900  1
  N  N20  1  0.40527300  0.74947600  0.14972900  1
  N  N21  1  0.40527300  0.65579600  0.85027100  1
  N  N22  1  0.40527300  0.15579600  0.64972900  1
  N  N23  1  0.40527300  0.24947600  0.35027100  1
  N  N24  1  0.37027200  0.06369400  0.03763200  1
  N  N25  1  0.37027200  0.30657800  0.96236800  1
  N  N26  1  0.37027200  0.80657800  0.53763200  1
  N  N27  1  0.37027200  0.56369400  0.46236800  1
  N  N28  1  0.62972800  0.93630600  0.96236800  1
  N  N29  1  0.62972800  0.69342200  0.03763200  1
  N  N30  1  0.62972800  0.19342200  0.46236800  1
  N  N31  1  0.62972800  0.43630600  0.53763200  1
  N  N32  1  0.00000000  0.57556500  0.94323600  1
  N  N33  1  0.00000000  0.42443500  0.05676400  1
  N  N34  1  0.00000000  0.92443500  0.44323600  1
  N  N35  1  0.00000000  0.07556500  0.55676400  1
loop_
_geom_bond_atom_site_label_1
_geom_bond_atom_site_label_2
_geom_bond_distance
_geom_bond_site_symmetry_2
Ge0 N5 1.858091 1_556
Ge0 N32 1.920110 1_555
Ge1 N4 1.858091 1_554
Ge1 N33 1.920110 1_555
Ge2 N7 1.858091 1_555
Ge2 N34 1.920110 1_555
Ge3 N6 1.858091 1_555
Ge3 N35 1.920110 1_555
Ge4 N4 1.864277 1_555
Ge4 N11 1.968047 1_455
Ge4 N14 1.968050 1_555
Ge5 N5 1.864277 1_555
Ge5 N15 1.968047 1_555
Ge5 N10 1.968050 1_455
Ge6 N6 1.864277 1_555
Ge6 N12 1.968047 1_555
Ge6 N9 1.968050 1_455
Ge7 N7 1.864277 1_555
Ge7 N8 1.968047 1_455
Ge7 N13 1.968050 1_555
Ge8 N11 1.992474 1_565
Ge8 N13 1.992484 1_555
Ge9 N12 1.992474 1_555
Ge9 N10 1.992484 1_555
Ge10 N15 1.992474 1_545
Ge10 N9 1.992484 1_555
Ge11 N8 1.992474 1_555
Ge11 N14 1.992484 1_555
N0 W0 2.075120 1_555
N0 W12 2.081963 1_555
N0 W10 2.086605 1_455
N0 W7 2.086613 1_555
N1 W1 2.075120 1_555
N1 W13 2.081963 1_555
N1 W6 2.086605 1_555
N1 W11 2.086613 1_455
N2 W2 2.075120 1_555
N2 W14 2.081963 1_545
N2 W5 2.086605 1_555
N2 W8 2.086613 1_445
N3 W3 2.075120 1_555
N3 W15 2.081963 1_565
N3 W9 2.086605 1_455
N3 W4 2.086613 1_565
N4 W0 2.053365 1_555
N5 W1 2.053365 1_555
N6 W2 2.053365 1_555
N7 W3 2.053365 1_555
N8 W9 1.908786 1_555
N9 W8 1.908763 1_545
N10 W11 1.908763 1_555
N11 W10 1.908786 1_555
N12 W5 1.908786 1_555
N13 W4 1.908763 1_565
N14 W7 1.908763 1_555
N15 W6 1.908786 1_555
N16 W4 1.936255 1_555
N16 W0 1.979615 1_655
N16 W16 2.114457 1_556
N17 W5 1.936239 1_555
N17 W1 1.979617 1_655
N17 W16 2.114466 1_555
N18 W6 1.936239 1_555
N18 W2 1.979617 1_665
N18 W17 2.114466 1_555
N19 W7 1.936255 1_555
N19 W3 1.979615 1_655
N19 W17 2.114457 1_555
N20 W8 1.936255 1_555
N20 W1 1.979615 1_555
N20 W18 2.114457 1_555
N21 W9 1.936239 1_555
N21 W0 1.979617 1_555
N21 W18 2.114466 1_556
N22 W10 1.936239 1_555
N22 W3 1.979617 1_545
N22 W19 2.114466 1_555
N23 W11 1.936255 1_555
N23 W2 1.979615 1_555
N23 W19 2.114457 1_555
N24 W4 2.005496 1_554
N24 W14 2.006632 1_545
N24 W16 2.078511 1_555
N25 W5 2.005495 1_556
N25 W15 2.006632 1_555
N25 W16 2.078522 1_556
N26 W6 2.005495 1_555
N26 W12 2.006632 1_555
N26 W17 2.078522 1_555
N27 W7 2.005496 1_555
N27 W13 2.006632 1_555
N27 W17 2.078511 1_555
N28 W8 2.005496 1_556
N28 W15 2.006632 1_665
N28 W18 2.078511 1_556
N29 W9 2.005495 1_554
N29 W14 2.006632 1_655
N29 W18 2.078522 1_555
N30 W10 2.005495 1_555
N30 W13 2.006632 1_655
N30 W19 2.078522 1_555
N31 W11 2.005496 1_555
N31 W12 2.006632 1_655
N31 W19 2.078511 1_555
N32 W0 1.995379 1_555
N32 W18 2.304307 1_556
N32 W16 2.304313 1_456
N33 W1 1.995379 1_555
N33 W16 2.304307 1_455
N33 W18 2.304313 1_555
N34 W2 1.995379 1_565
N34 W17 2.304307 1_455
N34 W19 2.304313 1_565
N35 W3 1.995379 1_545
N35 W19 2.304307 1_555
N35 W17 2.304313 1_445
