# generated using pymatgen
data_Li4MnCo2O7
_symmetry_space_group_name_H-M   'P 1'
_cell_length_a   3.02240700
_cell_length_b   5.99729625
_cell_length_c   14.23120483
_cell_angle_alpha   82.83503872
_cell_angle_beta   84.31586727
_cell_angle_gamma   84.96366029
_symmetry_Int_Tables_number   1
_chemical_formula_structural   Li4MnCo2O7
_chemical_formula_sum   'Li8 Mn2 Co4 O14'
_cell_volume   253.94138583
_cell_formula_units_Z   2
loop_
 _symmetry_equiv_pos_site_id
 _symmetry_equiv_pos_as_xyz
  1  'x, y, z'
loop_
 _atom_site_type_symbol
 _atom_site_label
 _atom_site_symmetry_multiplicity
 _atom_site_fract_x
 _atom_site_fract_y
 _atom_site_fract_z
 _atom_site_occupancy
  Li  Li0  1  0.85918800  0.42875000  0.78462400  1
  Li  Li1  1  0.43288900  0.70878400  0.63958900  1
  Li  Li2  1  0.00000000  0.00000000  0.50000000  1
  Li  Li3  1  0.28454700  0.14405200  0.93019800  1
  Li  Li4  1  0.71545300  0.85594800  0.06980200  1
  Li  Li5  1  0.14081200  0.57125000  0.21537600  1
  Li  Li6  1  0.56711100  0.29121600  0.36041100  1
  Li  Li7  1  0.00000000  0.50000000  0.50000000  1
  Mn  Mn0  1  0.85862700  0.92852000  0.78460500  1
  Mn  Mn1  1  0.14137300  0.07148000  0.21539500  1
  Co  Co0  1  0.43617000  0.22856200  0.63656300  1
  Co  Co1  1  0.56383000  0.77143800  0.36343700  1
  Co  Co2  1  0.71639500  0.35919000  0.07093800  1
  Co  Co3  1  0.28360500  0.64081000  0.92906200  1
  O  O0  1  0.33299300  0.68362700  0.79239400  1
  O  O1  1  0.90333300  0.97555400  0.64670200  1
  O  O2  1  0.48848200  0.24345000  0.51340800  1
  O  O3  1  0.75859800  0.40428500  0.93514800  1
  O  O4  1  0.18774600  0.11801400  0.07608900  1
  O  O5  1  0.61586900  0.82639800  0.22512100  1
  O  O6  1  0.05109000  0.55395100  0.35744600  1
  O  O7  1  0.38413100  0.17360200  0.77487900  1
  O  O8  1  0.94891000  0.44604900  0.64255400  1
  O  O9  1  0.51151800  0.75655000  0.48659200  1
  O  O10  1  0.81225400  0.88198600  0.92391100  1
  O  O11  1  0.24140200  0.59571500  0.06485200  1
  O  O12  1  0.66700700  0.31637300  0.20760600  1
  O  O13  1  0.09666700  0.02444600  0.35329800  1
loop_
_geom_bond_atom_site_label_1
_geom_bond_atom_site_label_2
_geom_bond_distance
_geom_bond_site_symmetry_2
Li0 O8 2.004019 1_555
Li0 O0 2.111530 1_555
Li0 O7 2.112132 1_655
Li0 O3 2.122059 1_555
Li0 O0 2.203936 1_655
Li0 O7 2.213694 1_555
Li1 O8 2.117077 1_555
Li1 O9 2.152481 1_555
Li1 O0 2.153811 1_555
Li1 O1 2.165720 1_455
Li1 O8 2.236115 1_455
Li1 O1 2.249436 1_555
Li2 O2 2.042802 1_455
Li2 O9 2.042802 1_545
Li2 O13 2.067820 1_555
Li2 O1 2.067820 1_445
Li2 O9 2.202642 1_445
Li2 O2 2.202642 1_555
Li3 O4 2.056071 1_556
Li3 O3 2.130097 1_455
Li3 O10 2.142135 1_545
Li3 O7 2.188064 1_555
Li3 O3 2.221171 1_555
Li3 O10 2.229381 1_445
Li4 O10 2.056071 1_554
Li4 O11 2.130097 1_655
Li4 O4 2.142135 1_565
Li4 O5 2.188064 1_555
Li4 O11 2.221171 1_555
Li4 O4 2.229381 1_665
Li5 O6 2.004019 1_555
Li5 O12 2.111530 1_555
Li5 O5 2.112132 1_455
Li5 O11 2.122059 1_555
Li5 O12 2.203936 1_455
Li5 O5 2.213694 1_555
Li6 O6 2.117077 1_555
Li6 O2 2.152481 1_555
Li6 O12 2.153811 1_555
Li6 O13 2.165720 1_655
Li6 O6 2.236115 1_655
Li6 O13 2.249436 1_555
Li7 O8 2.006787 1_455
Li7 O6 2.006787 1_555
Li7 O2 2.041368 1_555
Li7 O9 2.041368 1_455
Li7 O9 2.253853 1_555
Li7 O2 2.253853 1_455
Mn0 O1 1.940465 1_555
Mn0 O10 1.960004 1_555
Mn0 O0 1.961145 1_655
Mn0 O7 1.963347 1_565
Mn0 O7 2.240044 1_665
Mn0 O0 2.242193 1_555
Mn1 O13 1.940465 1_555
Mn1 O4 1.960004 1_555
Mn1 O12 1.961145 1_455
Mn1 O5 1.963347 1_545
Mn1 O5 2.240044 1_445
Mn1 O12 2.242193 1_555
Co0 O2 1.735881 1_555
Co0 O8 1.882287 1_455
Co0 O7 1.947799 1_555
Co0 O1 1.981518 1_545
Co0 O8 2.125786 1_555
Co0 O1 2.290231 1_445
Co1 O9 1.735881 1_555
Co1 O6 1.882287 1_655
Co1 O5 1.947799 1_555
Co1 O13 1.981518 1_565
Co1 O6 2.125786 1_555
Co1 O13 2.290231 1_665
Co2 O3 1.910668 1_554
Co2 O12 1.922417 1_555
Co2 O11 1.927983 1_555
Co2 O4 1.938927 1_655
Co2 O11 2.207914 1_655
Co2 O4 2.237524 1_555
Co3 O11 1.910668 1_556
Co3 O0 1.922417 1_555
Co3 O3 1.927983 1_555
Co3 O10 1.938927 1_455
Co3 O3 2.207914 1_455
Co3 O10 2.237524 1_555
