# generated using pymatgen
data_CoI2(N3O)2
_symmetry_space_group_name_H-M   'P 1'
_cell_length_a   12.81591433
_cell_length_b   12.81591433
_cell_length_c   14.85990396
_cell_angle_alpha   54.59346325
_cell_angle_beta   54.59346325
_cell_angle_gamma   43.57001012
_symmetry_Int_Tables_number   1
_chemical_formula_structural   CoI2(N3O)2
_chemical_formula_sum   'Co4 I8 N24 O8'
_cell_volume   1314.62625715
_cell_formula_units_Z   4
loop_
 _symmetry_equiv_pos_site_id
 _symmetry_equiv_pos_as_xyz
  1  'x, y, z'
loop_
 _atom_site_type_symbol
 _atom_site_label
 _atom_site_symmetry_multiplicity
 _atom_site_fract_x
 _atom_site_fract_y
 _atom_site_fract_z
 _atom_site_occupancy
  Co  Co0  1  0.27048300  0.27048300  0.23462000  1
  Co  Co1  1  0.72951700  0.72951700  0.76538000  1
  Co  Co2  1  0.00057900  0.00057900  0.16293600  1
  Co  Co3  1  0.99942100  0.99942100  0.83706400  1
  I  I0  1  0.43560200  0.43560200  0.96277800  1
  I  I1  1  0.56439800  0.56439800  0.03722200  1
  I  I2  1  0.17560900  0.17560900  0.77085600  1
  I  I3  1  0.82439100  0.82439100  0.22914400  1
  I  I4  1  0.38944900  0.38944900  0.82636300  1
  I  I5  1  0.61055100  0.61055100  0.17363700  1
  I  I6  1  0.69292700  0.69292700  0.43415300  1
  I  I7  1  0.30707300  0.30707300  0.56584700  1
  N  N0  1  0.82724500  0.82724500  0.55067600  1
  N  N1  1  0.17275500  0.17275500  0.44932400  1
  N  N2  1  0.09065900  0.09065900  0.19986900  1
  N  N3  1  0.90934100  0.90934100  0.80013100  1
  N  N4  1  0.70441000  0.18615400  0.27717000  1
  N  N5  1  0.18615400  0.70441000  0.27717000  1
  N  N6  1  0.29559000  0.81384600  0.72283000  1
  N  N7  1  0.81384600  0.29559000  0.72283000  1
  N  N8  1  0.63912900  0.13182300  0.34170000  1
  N  N9  1  0.13182300  0.63912900  0.34170000  1
  N  N10  1  0.36087100  0.86817700  0.65830000  1
  N  N11  1  0.86817700  0.36087100  0.65830000  1
  N  N12  1  0.05212900  0.42650500  0.16083200  1
  N  N13  1  0.42650500  0.05212900  0.16083200  1
  N  N14  1  0.94787100  0.57349500  0.83916800  1
  N  N15  1  0.57349500  0.94787100  0.83916800  1
  N  N16  1  0.99747600  0.99747600  0.04113500  1
  N  N17  1  0.00252400  0.00252400  0.95886500  1
  N  N18  1  0.92491700  0.47974300  0.21039000  1
  N  N19  1  0.47974300  0.92491700  0.21039000  1
  N  N20  1  0.07508300  0.52025700  0.78961000  1
  N  N21  1  0.52025700  0.07508300  0.78961000  1
  N  N22  1  0.36544800  0.36544800  0.12929900  1
  N  N23  1  0.63455200  0.63455200  0.87070100  1
  O  O0  1  0.10705100  0.10705100  0.09967400  1
  O  O1  1  0.89294900  0.89294900  0.90032600  1
  O  O2  1  0.02269300  0.02269300  0.27963400  1
  O  O3  1  0.97730700  0.97730700  0.72036600  1
  O  O4  1  0.76051400  0.76051400  0.59814500  1
  O  O5  1  0.23948600  0.23948600  0.40185500  1
  O  O6  1  0.83746300  0.83746300  0.62606700  1
  O  O7  1  0.16253700  0.16253700  0.37393300  1
loop_
_geom_bond_atom_site_label_1
_geom_bond_atom_site_label_2
_geom_bond_distance
_geom_bond_site_symmetry_2
Co0 N22 1.773134 1_555
Co0 O7 2.061438 1_555
Co0 O5 2.105263 1_555
Co0 N12 2.436841 1_555
Co0 N13 2.436841 1_555
Co1 N23 1.773134 1_555
Co1 O6 2.061438 1_555
Co1 O4 2.105263 1_555
Co1 N15 2.436841 1_555
Co1 N14 2.436841 1_555
Co2 N16 1.856929 1_445
Co2 O0 2.081577 1_555
Co2 O2 2.103138 1_555
Co2 N4 2.660070 1_455
Co2 N5 2.660070 1_545
Co3 N17 1.856929 1_665
Co3 O1 2.081577 1_555
Co3 O3 2.103138 1_555
Co3 N6 2.660070 1_655
Co3 N7 2.660070 1_565
I0 N22 1.937845 1_556
I0 I4 2.845106 1_555
I1 N23 1.937845 1_554
I1 I5 2.845106 1_555
I2 I7 2.678871 1_555
I3 I6 2.678871 1_555
N0 O4 1.273641 1_555
N0 O6 1.286164 1_555
N1 O5 1.273641 1_555
N1 O7 1.286164 1_555
N2 O2 1.276368 1_555
N2 O0 1.282237 1_555
N3 O3 1.276368 1_555
N3 O1 1.282237 1_555
N4 N8 1.115866 1_555
N5 N9 1.115866 1_555
N10 N6 1.115866 1_555
N11 N7 1.115866 1_555
N12 N18 1.115777 1_455
N13 N19 1.115777 1_545
N14 N20 1.115777 1_655
N15 N21 1.115777 1_565
N16 N17 1.151394 1_664
