# generated using pymatgen
data_Li4Mn2Fe3Sn3O16
_symmetry_space_group_name_H-M   'P 1'
_cell_length_a   6.10149904
_cell_length_b   6.10149904
_cell_length_c   9.68051866
_cell_angle_alpha   88.98254684
_cell_angle_beta   88.98254684
_cell_angle_gamma   60.65332635
_symmetry_Int_Tables_number   1
_chemical_formula_structural   Li4Mn2Fe3Sn3O16
_chemical_formula_sum   'Li4 Mn2 Fe3 Sn3 O16'
_cell_volume   314.07405769
_cell_formula_units_Z   1
loop_
 _symmetry_equiv_pos_site_id
 _symmetry_equiv_pos_as_xyz
  1  'x, y, z'
loop_
 _atom_site_type_symbol
 _atom_site_label
 _atom_site_symmetry_multiplicity
 _atom_site_fract_x
 _atom_site_fract_y
 _atom_site_fract_z
 _atom_site_occupancy
  Li  Li0  1  0.67494800  0.67494800  0.10699800  1
  Li  Li1  1  0.98487000  0.98487000  0.00987300  1
  Li  Li2  1  0.98624300  0.98624300  0.50203000  1
  Li  Li3  1  0.34048600  0.34048600  0.60103400  1
  Mn  Mn0  1  0.67174300  0.67174300  0.50830800  1
  Mn  Mn1  1  0.34381900  0.34381900  0.01953200  1
  Fe  Fe0  1  0.83443300  0.83443300  0.78128400  1
  Fe  Fe1  1  0.16850300  0.66781900  0.28705000  1
  Fe  Fe2  1  0.66781900  0.16850300  0.28705000  1
  Sn  Sn0  1  0.34170300  0.84273500  0.79012600  1
  Sn  Sn1  1  0.84273500  0.34170300  0.79012600  1
  Sn  Sn2  1  0.17099300  0.17099300  0.28845100  1
  O  O0  1  0.31829500  0.83880800  0.39895700  1
  O  O1  1  0.52858000  0.52858000  0.65414400  1
  O  O2  1  0.67510100  0.67510100  0.90341300  1
  O  O3  1  0.00447300  0.00447300  0.68934700  1
  O  O4  1  0.99845100  0.99845100  0.19121000  1
  O  O5  1  0.83880800  0.31829500  0.39895700  1
  O  O6  1  0.52874300  0.97327100  0.66062000  1
  O  O7  1  0.97327100  0.52874300  0.66062000  1
  O  O8  1  0.16652700  0.16652700  0.91153200  1
  O  O9  1  0.82778800  0.82778800  0.39502600  1
  O  O10  1  0.05001900  0.48403100  0.14984200  1
  O  O11  1  0.48403100  0.05001900  0.14984200  1
  O  O12  1  0.33866000  0.33866000  0.39509000  1
  O  O13  1  0.16570400  0.67336700  0.90463300  1
  O  O14  1  0.48164100  0.48164100  0.14976000  1
  O  O15  1  0.67336700  0.16570400  0.90463300  1
loop_
_geom_bond_atom_site_label_1
_geom_bond_atom_site_label_2
_geom_bond_distance
_geom_bond_site_symmetry_2
Li0 O2 1.970776 1_554
Li0 O10 2.041991 1_655
Li0 O11 2.041991 1_565
Li0 O14 2.069423 1_555
Li1 O4 1.764186 1_555
Li1 O15 1.959857 1_564
Li1 O13 1.959857 1_654
Li1 O8 2.119556 1_664
Li2 O3 1.827388 1_665
Li2 O9 1.982369 1_555
Li2 O5 2.020698 1_565
Li2 O0 2.020698 1_655
Li3 O12 1.994133 1_555
Li3 O7 2.031562 1_455
Li3 O6 2.031562 1_545
Li3 O1 2.057057 1_555
Mn0 O9 1.957039 1_555
Mn0 O1 2.044366 1_555
Mn0 O0 2.167588 1_555
Mn0 O5 2.167588 1_555
Mn0 O7 2.190275 1_555
Mn0 O6 2.190275 1_555
Mn1 O14 1.942172 1_555
Mn1 O10 1.997871 1_555
Mn1 O11 1.997871 1_555
Mn1 O15 2.069516 1_554
Mn1 O13 2.069516 1_554
Mn1 O8 2.158873 1_554
Fe0 O3 1.983531 1_665
Fe0 O7 2.013558 1_555
Fe0 O6 2.013558 1_555
Fe0 O2 2.032907 1_555
Fe0 O15 2.138714 1_565
Fe0 O13 2.138714 1_655
Fe1 O4 1.980677 1_455
Fe1 O0 2.026641 1_555
Fe1 O12 2.031121 1_555
Fe1 O9 2.082581 1_455
Fe1 O10 2.103800 1_555
Fe1 O14 2.131490 1_555
Fe2 O4 1.980677 1_545
Fe2 O5 2.026641 1_555
Fe2 O12 2.031121 1_555
Fe2 O9 2.082581 1_545
Fe2 O11 2.103800 1_555
Fe2 O14 2.131490 1_555
O0 Sn2 2.057129 1_565
O1 Sn0 2.145031 1_555
O1 Sn1 2.145031 1_555
O2 Sn0 2.094496 1_555
O2 Sn1 2.094496 1_555
O3 Sn0 2.050900 1_545
O3 Sn1 2.050900 1_455
O4 Sn2 2.063855 1_665
O5 Sn2 2.057129 1_655
O6 Sn0 2.076810 1_555
O7 Sn1 2.076810 1_555
O8 Sn1 2.096382 1_455
O8 Sn0 2.096382 1_545
O10 Sn2 2.134397 1_555
O11 Sn2 2.134397 1_555
O12 Sn2 2.063897 1_555
O13 Sn0 2.110594 1_555
O15 Sn1 2.110594 1_555
