# generated using pymatgen
data_Hg3S2BrCl
_symmetry_space_group_name_H-M   'P 1'
_cell_length_a   10.23936826
_cell_length_b   10.23936826
_cell_length_c   9.49115522
_cell_angle_alpha   89.70952058
_cell_angle_beta   89.70952058
_cell_angle_gamma   55.83631228
_symmetry_Int_Tables_number   1
_chemical_formula_structural   Hg3S2BrCl
_chemical_formula_sum   'Hg12 S8 Br4 Cl4'
_cell_volume   823.36613588
_cell_formula_units_Z   4
loop_
 _symmetry_equiv_pos_site_id
 _symmetry_equiv_pos_as_xyz
  1  'x, y, z'
loop_
 _atom_site_type_symbol
 _atom_site_label
 _atom_site_symmetry_multiplicity
 _atom_site_fract_x
 _atom_site_fract_y
 _atom_site_fract_z
 _atom_site_occupancy
  Hg  Hg0  1  0.35590200  0.89319600  0.29906700  1
  Hg  Hg1  1  0.64409800  0.10680400  0.70093300  1
  Hg  Hg2  1  0.10680400  0.64409800  0.70093300  1
  Hg  Hg3  1  0.89319600  0.35590200  0.29906700  1
  Hg  Hg4  1  0.47813000  0.47813000  0.28325900  1
  Hg  Hg5  1  0.52187000  0.52187000  0.71674100  1
  Hg  Hg6  1  0.50000000  0.00000000  0.00000000  1
  Hg  Hg7  1  0.00000000  0.50000000  0.00000000  1
  Hg  Hg8  1  0.77113000  0.77113000  0.28904100  1
  Hg  Hg9  1  0.22887000  0.22887000  0.71095900  1
  Hg  Hg10  1  0.75476200  0.24523800  0.00000000  1
  Hg  Hg11  1  0.24523800  0.75476200  0.00000000  1
  S  S0  1  0.50787600  0.01030800  0.25768200  1
  S  S1  1  0.49212400  0.98969200  0.74231800  1
  S  S2  1  0.98969200  0.49212400  0.74231800  1
  S  S3  1  0.01030800  0.50787600  0.25768200  1
  S  S4  1  0.74389000  0.23716500  0.25671300  1
  S  S5  1  0.25611000  0.76283500  0.74328700  1
  S  S6  1  0.76283500  0.25611000  0.74328700  1
  S  S7  1  0.23716500  0.74389000  0.25671300  1
  Br  Br0  1  0.12497200  0.12497200  0.02230400  1
  Br  Br1  1  0.87502800  0.87502800  0.97769600  1
  Br  Br2  1  0.62517200  0.62517200  0.00637700  1
  Br  Br3  1  0.37482800  0.37482800  0.99362300  1
  Cl  Cl0  1  0.61629100  0.61629100  0.47209600  1
  Cl  Cl1  1  0.38370900  0.38370900  0.52790400  1
  Cl  Cl2  1  0.87181500  0.87181500  0.51899100  1
  Cl  Cl3  1  0.12818500  0.12818500  0.48100900  1
loop_
_geom_bond_atom_site_label_1
_geom_bond_atom_site_label_2
_geom_bond_distance
_geom_bond_site_symmetry_2
Hg0 S7 2.464893 1_555
Hg0 S0 2.469523 1_565
Hg1 S6 2.464893 1_555
Hg1 S1 2.469523 1_545
Hg2 S5 2.464893 1_555
Hg2 S2 2.469523 1_455
Hg3 S4 2.464893 1_555
Hg3 S3 2.469523 1_655
Hg4 S4 2.452507 1_555
Hg4 S7 2.452507 1_555
Hg5 S5 2.452507 1_555
Hg5 S6 2.452507 1_555
Hg6 S1 2.452197 1_544
Hg6 S0 2.452197 1_555
Hg7 S2 2.452197 1_454
Hg7 S3 2.452197 1_555
Hg8 S3 2.436973 1_655
Hg8 S0 2.436973 1_565
Hg9 S2 2.436973 1_455
Hg9 S1 2.436973 1_545
Hg10 S6 2.441580 1_554
Hg10 S4 2.441580 1_555
Hg11 S5 2.441580 1_554
Hg11 S7 2.441580 1_555
Br0 Hg11 3.270093 1_545
Br0 Hg10 3.270093 1_455
Br0 Hg6 3.302108 1_555
Br0 Hg7 3.302108 1_555
Br1 Hg11 3.270093 1_656
Br1 Hg10 3.270093 1_566
Br1 Hg7 3.302108 1_656
Br1 Hg6 3.302108 1_566
Cl0 Hg5 2.874934 1_555
Cl0 Hg0 3.058046 1_555
Cl0 Hg3 3.058046 1_555
Cl0 Hg4 3.084487 1_555
Cl1 Hg4 2.874934 1_555
Cl1 Hg2 3.058046 1_555
Cl1 Hg1 3.058046 1_555
Cl1 Hg5 3.084487 1_555
Cl2 Hg1 2.812193 1_565
Cl2 Hg2 2.812193 1_655
Cl2 Hg8 2.851023 1_555
Cl3 Hg3 2.812193 1_455
Cl3 Hg0 2.812193 1_545
Cl3 Hg9 2.851023 1_555
