# generated using pymatgen
data_Ba(TmSe2)2
_symmetry_space_group_name_H-M   'P 1'
_cell_length_a   4.15129891
_cell_length_b   12.73821766
_cell_length_c   15.00532112
_cell_angle_alpha   90.00000000
_cell_angle_beta   90.00000000
_cell_angle_gamma   90.00000000
_symmetry_Int_Tables_number   1
_chemical_formula_structural   Ba(TmSe2)2
_chemical_formula_sum   'Ba4 Tm8 Se16'
_cell_volume   793.48361793
_cell_formula_units_Z   4
loop_
 _symmetry_equiv_pos_site_id
 _symmetry_equiv_pos_as_xyz
  1  'x, y, z'
loop_
 _atom_site_type_symbol
 _atom_site_label
 _atom_site_symmetry_multiplicity
 _atom_site_fract_x
 _atom_site_fract_y
 _atom_site_fract_z
 _atom_site_occupancy
  Ba  Ba0  1  0.25000000  0.24041564  0.33520359  1
  Ba  Ba1  1  0.25000000  0.74041564  0.16479641  1
  Ba  Ba2  1  0.75000000  0.75958436  0.66479641  1
  Ba  Ba3  1  0.75000000  0.25958436  0.83520359  1
  Tm  Tm0  1  0.25000000  0.07922228  0.59964397  1
  Tm  Tm1  1  0.25000000  0.57922228  0.90035603  1
  Tm  Tm2  1  0.75000000  0.92077772  0.40035603  1
  Tm  Tm3  1  0.75000000  0.42077772  0.09964397  1
  Tm  Tm4  1  0.25000000  0.56285412  0.39102946  1
  Tm  Tm5  1  0.25000000  0.06285412  0.10897054  1
  Tm  Tm6  1  0.75000000  0.43714588  0.60897054  1
  Tm  Tm7  1  0.75000000  0.93714588  0.89102946  1
  Se  Se0  1  0.25000000  0.08396897  0.92421494  1
  Se  Se1  1  0.25000000  0.58396897  0.57578506  1
  Se  Se2  1  0.75000000  0.91603103  0.07578506  1
  Se  Se3  1  0.75000000  0.41603103  0.42421494  1
  Se  Se4  1  0.25000000  0.29399978  0.65866587  1
  Se  Se5  1  0.25000000  0.79399978  0.84133413  1
  Se  Se6  1  0.75000000  0.70600022  0.34133413  1
  Se  Se7  1  0.75000000  0.20600022  0.15866587  1
  Se  Se8  1  0.25000000  0.37657568  0.97566607  1
  Se  Se9  1  0.25000000  0.87657568  0.52433393  1
  Se  Se10  1  0.75000000  0.62342432  0.02433393  1
  Se  Se11  1  0.75000000  0.12342432  0.47566607  1
  Se  Se12  1  0.25000000  0.47494393  0.21655092  1
  Se  Se13  1  0.25000000  0.97494393  0.28344908  1
  Se  Se14  1  0.75000000  0.52505607  0.78344908  1
  Se  Se15  1  0.75000000  0.02505607  0.71655092  1
loop_
_geom_bond_atom_site_label_1
_geom_bond_atom_site_label_2
_geom_bond_distance
_geom_bond_site_symmetry_2
Ba0 Se11 3.312330 1_555
Ba0 Se11 3.312330 1_455
Ba0 Se3 3.331149 1_455
Ba0 Se3 3.331149 1_555
Ba0 Se7 3.393779 1_555
Ba0 Se7 3.393779 1_455
Ba0 Se13 3.469663 1_545
Ba0 Se12 3.477771 1_555
Ba1 Se10 3.312330 1_455
Ba1 Se10 3.312330 1_555
Ba1 Se2 3.331149 1_555
Ba1 Se2 3.331149 1_455
Ba1 Se6 3.393779 1_555
Ba1 Se6 3.393779 1_455
Ba1 Se12 3.469663 1_555
Ba1 Se13 3.477771 1_555
Ba2 Se9 3.312330 1_555
Ba2 Se9 3.312330 1_655
Ba2 Se1 3.331149 1_655
Ba2 Se1 3.331149 1_555
Ba2 Se5 3.393779 1_555
Ba2 Se5 3.393779 1_655
Ba2 Se15 3.469663 1_565
Ba2 Se14 3.477771 1_555
Ba3 Se8 3.312330 1_655
Ba3 Se8 3.312330 1_555
Ba3 Se0 3.331149 1_555
Ba3 Se0 3.331149 1_655
Ba3 Se4 3.393779 1_555
Ba3 Se4 3.393779 1_655
Ba3 Se14 3.469663 1_555
Ba3 Se15 3.477771 1_555
Se0 Tm5 2.785334 1_556
Se0 Tm7 2.837987 1_545
Se0 Tm7 2.837987 1_445
Se1 Tm4 2.785334 1_555
Se1 Tm6 2.837987 1_455
Se1 Tm6 2.837987 1_555
Se2 Tm7 2.785334 1_554
Se2 Tm5 2.837987 1_565
Se2 Tm5 2.837987 1_665
Se3 Tm6 2.785334 1_555
Se3 Tm4 2.837987 1_655
Se3 Tm4 2.837987 1_555
Se4 Tm6 2.861689 1_455
Se4 Tm6 2.861689 1_555
Se4 Tm0 2.875659 1_555
Se5 Tm7 2.861689 1_555
Se5 Tm7 2.861689 1_455
Se5 Tm1 2.875659 1_555
Se6 Tm4 2.861689 1_655
Se6 Tm4 2.861689 1_555
Se6 Tm2 2.875659 1_555
Se7 Tm5 2.861689 1_655
Se7 Tm5 2.861689 1_555
Se7 Tm3 2.875659 1_555
Se8 Tm1 2.817875 1_555
Se8 Tm3 2.843620 1_556
Se8 Tm3 2.843620 1_456
Se9 Tm0 2.817875 1_565
Se9 Tm2 2.843620 1_555
Se9 Tm2 2.843620 1_455
Se10 Tm3 2.817875 1_555
Se10 Tm1 2.843620 1_554
Se10 Tm1 2.843620 1_654
Se11 Tm2 2.817875 1_545
Se11 Tm0 2.843620 1_655
Se11 Tm0 2.843620 1_555
Se12 Tm3 2.803873 1_455
Se12 Tm3 2.803873 1_555
Se12 Tm4 2.847539 1_555
Se13 Tm2 2.803873 1_555
Se13 Tm2 2.803873 1_455
Se13 Tm5 2.847539 1_565
Se14 Tm1 2.803873 1_555
Se14 Tm1 2.803873 1_655
Se14 Tm6 2.847539 1_555
Se15 Tm0 2.803873 1_655
Se15 Tm0 2.803873 1_555
Se15 Tm7 2.847539 1_545
