# generated using pymatgen
data_CaB2O9
_symmetry_space_group_name_H-M   'P 1'
_cell_length_a   6.27104500
_cell_length_b   6.97188780
_cell_length_c   8.21110658
_cell_angle_alpha   102.49371883
_cell_angle_beta   89.13978854
_cell_angle_gamma   113.27447548
_symmetry_Int_Tables_number   1
_chemical_formula_structural   CaB2O9
_chemical_formula_sum   'Ca2 B4 O18'
_cell_volume   320.97887301
_cell_formula_units_Z   2
loop_
 _symmetry_equiv_pos_site_id
 _symmetry_equiv_pos_as_xyz
  1  'x, y, z'
loop_
 _atom_site_type_symbol
 _atom_site_label
 _atom_site_symmetry_multiplicity
 _atom_site_fract_x
 _atom_site_fract_y
 _atom_site_fract_z
 _atom_site_occupancy
  Ca  Ca0  1  0.20516300  0.11248900  0.81224800  1
  Ca  Ca1  1  0.79483700  0.88751100  0.18775200  1
  B  B0  1  0.59181700  0.37200400  0.18092200  1
  B  B1  1  0.40818300  0.62799600  0.81907800  1
  B  B2  1  0.35717600  0.02013800  0.23920000  1
  B  B3  1  0.64282400  0.97986200  0.76080000  1
  O  O0  1  0.81409400  0.92003900  0.66837200  1
  O  O1  1  0.18590600  0.07996100  0.33162800  1
  O  O2  1  0.20112600  0.94265100  0.08522600  1
  O  O3  1  0.79887400  0.05734900  0.91477400  1
  O  O4  1  0.43136400  0.86888400  0.29899100  1
  O  O5  1  0.56863600  0.13111600  0.70100900  1
  O  O6  1  0.58684300  0.18333100  0.23105700  1
  O  O7  1  0.41315700  0.81666900  0.76894300  1
  O  O8  1  0.38530600  0.31717800  0.07561500  1
  O  O9  1  0.61469400  0.68282200  0.92438500  1
  O  O10  1  0.64133400  0.57025300  0.30411400  1
  O  O11  1  0.35866600  0.42974700  0.69588600  1
  O  O12  1  0.20848500  0.52035200  0.90814000  1
  O  O13  1  0.79151500  0.47964800  0.09186000  1
  O  O14  1  0.90275200  0.26953300  0.54578500  1
  O  O15  1  0.09724800  0.73046700  0.45421500  1
  O  O16  1  0.77605500  0.32880300  0.64307200  1
  O  O17  1  0.22394500  0.67119700  0.35692800  1
loop_
_geom_bond_atom_site_label_1
_geom_bond_atom_site_label_2
_geom_bond_distance
_geom_bond_site_symmetry_2
Ca0 O8 2.335241 1_556
Ca0 O5 2.408630 1_555
Ca0 O11 2.436411 1_555
Ca0 O0 2.451740 1_445
Ca0 O3 2.578691 1_455
Ca0 O2 2.747682 1_546
Ca0 O12 2.773314 1_555
Ca0 O7 2.806425 1_545
Ca1 O9 2.335241 1_554
Ca1 O4 2.408630 1_555
Ca1 O10 2.436411 1_555
Ca1 O1 2.451740 1_665
Ca1 O2 2.578691 1_655
Ca1 O3 2.747682 1_564
Ca1 O13 2.773314 1_555
Ca1 O6 2.806425 1_565
B0 O8 1.438868 1_555
B0 O10 1.447538 1_555
B0 O6 1.449902 1_555
B0 O13 1.460665 1_555
B1 O9 1.438868 1_555
B1 O11 1.447538 1_555
B1 O7 1.449902 1_555
B1 O12 1.460665 1_555
B2 O1 1.447787 1_555
B2 O6 1.452010 1_555
B2 O2 1.473699 1_545
B2 O4 1.479213 1_545
B3 O0 1.447787 1_555
B3 O7 1.452010 1_555
B3 O3 1.473699 1_565
B3 O5 1.479213 1_565
O14 O16 1.240055 1_555
O15 O17 1.240055 1_555
O16 O5 1.632837 1_555
O17 O4 1.632837 1_555
