# generated using pymatgen
data_K5Mo8As(H3O16)2
_symmetry_space_group_name_H-M   'P 1'
_cell_length_a   12.51732859
_cell_length_b   12.51732859
_cell_length_c   15.60002800
_cell_angle_alpha   90.00000000
_cell_angle_beta   90.00000000
_cell_angle_gamma   140.46716640
_symmetry_Int_Tables_number   1
_chemical_formula_structural   K5Mo8As(H3O16)2
_chemical_formula_sum   'K10 Mo16 As2 H12 O64'
_cell_volume   1555.82570101
_cell_formula_units_Z   2
loop_
 _symmetry_equiv_pos_site_id
 _symmetry_equiv_pos_as_xyz
  1  'x, y, z'
loop_
 _atom_site_type_symbol
 _atom_site_label
 _atom_site_symmetry_multiplicity
 _atom_site_fract_x
 _atom_site_fract_y
 _atom_site_fract_z
 _atom_site_occupancy
  K  K0  1  0.61652000  0.38348000  0.25000000  1
  K  K1  1  0.38348000  0.61652000  0.75000000  1
  K  K2  1  0.13359800  0.86258200  0.97507800  1
  K  K3  1  0.86258200  0.13359800  0.02492200  1
  K  K4  1  0.13741800  0.86640200  0.52492200  1
  K  K5  1  0.86640200  0.13741800  0.47507800  1
  K  K6  1  0.37944900  0.62123300  0.03318400  1
  K  K7  1  0.62123300  0.37944900  0.96681600  1
  K  K8  1  0.37876700  0.62055100  0.46681600  1
  K  K9  1  0.62055100  0.37876700  0.53318400  1
  Mo  Mo0  1  0.42783300  0.95469200  0.14031700  1
  Mo  Mo1  1  0.95469200  0.42783300  0.85968300  1
  Mo  Mo2  1  0.42919500  0.95490600  0.35913200  1
  Mo  Mo3  1  0.95490600  0.42919500  0.64086800  1
  Mo  Mo4  1  0.57080500  0.04509400  0.85913200  1
  Mo  Mo5  1  0.04509400  0.57080500  0.14086800  1
  Mo  Mo6  1  0.57216700  0.04530800  0.64031700  1
  Mo  Mo7  1  0.04530800  0.57216700  0.35968300  1
  Mo  Mo8  1  0.20939400  0.18988100  0.14618300  1
  Mo  Mo9  1  0.18988100  0.20939400  0.85381700  1
  Mo  Mo10  1  0.20945600  0.19014000  0.35404900  1
  Mo  Mo11  1  0.19014000  0.20945600  0.64595100  1
  Mo  Mo12  1  0.79054400  0.80986000  0.85404900  1
  Mo  Mo13  1  0.80986000  0.79054400  0.14595100  1
  Mo  Mo14  1  0.79060600  0.81011900  0.64618300  1
  Mo  Mo15  1  0.81011900  0.79060600  0.35381700  1
  As  As0  1  0.12322000  0.87678000  0.25000000  1
  As  As1  1  0.87678000  0.12322000  0.75000000  1
  H  H0  1  0.93933400  0.06066600  0.25000000  1
  H  H1  1  0.06066600  0.93933400  0.75000000  1
  H  H2  1  0.31147000  0.68853000  0.25000000  1
  H  H3  1  0.68853000  0.31147000  0.75000000  1
  H  H4  1  0.50144200  0.67902700  0.24960000  1
  H  H5  1  0.67902700  0.50144200  0.75040000  1
  H  H6  1  0.49855800  0.32097300  0.74960000  1
  H  H7  1  0.32097300  0.49855800  0.25040000  1
  H  H8  1  0.23181700  0.92971200  0.77534500  1
  H  H9  1  0.92971200  0.23181700  0.22465500  1
  H  H10  1  0.76818300  0.07028800  0.27534500  1
  H  H11  1  0.07028800  0.76818300  0.72465500  1
  O  O0  1  0.25392900  0.74335200  0.07680600  1
  O  O1  1  0.74335200  0.25392900  0.92319400  1
  O  O2  1  0.25664800  0.74607100  0.42319400  1
  O  O3  1  0.74607100  0.25664800  0.57680600  1
  O  O4  1  0.38502600  0.61497400  0.25000000  1
  O  O5  1  0.61497400  0.38502600  0.75000000  1
  O  O6  1  0.12660400  0.87339600  0.75000000  1
  O  O7  1  0.87339600  0.12660400  0.25000000  1
  O  O8  1  0.48038500  0.06246500  0.25000200  1
  O  O9  1  0.06246500  0.48038500  0.74999800  1
  O  O10  1  0.51961500  0.93753500  0.75000200  1
  O  O11  1  0.93753500  0.51961500  0.24999800  1
  O  O12  1  0.58509900  0.98019900  0.13326800  1
  O  O13  1  0.98019900  0.58509900  0.86673200  1
  O  O14  1  0.58966900  0.98307000  0.36275600  1
  O  O15  1  0.98307000  0.58966900  0.63724400  1
  O  O16  1  0.41033100  0.01693000  0.86275600  1
  O  O17  1  0.01693000  0.41033100  0.13724400  1
  O  O18  1  0.41490100  0.01980100  0.63326800  1
  O  O19  1  0.01980100  0.41490100  0.36673200  1
  O  O20  1  0.48672900  0.10174100  0.07052600  1
  O  O21  1  0.10174100  0.48672900  0.92947400  1
  O  O22  1  0.48808400  0.10134400  0.42929600  1
  O  O23  1  0.10134400  0.48808400  0.57070400  1
  O  O24  1  0.51191600  0.89865600  0.92929600  1
  O  O25  1  0.89865600  0.51191600  0.07070400  1
  O  O26  1  0.51327100  0.89825900  0.57052600  1
  O  O27  1  0.89825900  0.51327100  0.42947400  1
  O  O28  1  0.30591700  0.32726700  0.25010900  1
  O  O29  1  0.32726700  0.30591700  0.74989100  1
  O  O30  1  0.69408300  0.67273300  0.75010900  1
  O  O31  1  0.67273300  0.69408300  0.24989100  1
  O  O32  1  0.38440000  0.27824000  0.09197300  1
  O  O33  1  0.27824000  0.38440000  0.90802700  1
  O  O34  1  0.38471300  0.27791500  0.40767100  1
  O  O35  1  0.27791500  0.38471300  0.59232900  1
  O  O36  1  0.61528700  0.72208500  0.90767100  1
  O  O37  1  0.72208500  0.61528700  0.09232900  1
  O  O38  1  0.61560000  0.72176000  0.59197300  1
  O  O39  1  0.72176000  0.61560000  0.40802700  1
  O  O40  1  0.24869300  0.08596100  0.24972100  1
  O  O41  1  0.08596100  0.24869300  0.75027900  1
  O  O42  1  0.75130700  0.91403900  0.74972100  1
  O  O43  1  0.91403900  0.75130700  0.25027900  1
  O  O44  1  0.03904700  0.96102700  0.10275100  1
  O  O45  1  0.96102700  0.03904700  0.89724900  1
  O  O46  1  0.03897300  0.96095300  0.39724900  1
  O  O47  1  0.96095300  0.03897300  0.60275100  1
  O  O48  1  0.15345600  0.26653300  0.09621400  1
  O  O49  1  0.26653300  0.15345600  0.90378600  1
  O  O50  1  0.15506600  0.26729700  0.40509800  1
  O  O51  1  0.26729700  0.15506600  0.59490200  1
  O  O52  1  0.84493400  0.73270300  0.90509800  1
  O  O53  1  0.73270300  0.84493400  0.09490200  1
  O  O54  1  0.84654400  0.73346700  0.59621400  1
  O  O55  1  0.73346700  0.84654400  0.40378600  1
  O  O56  1  0.16546400  0.83272300  0.16050900  1
  O  O57  1  0.83272300  0.16546400  0.83949100  1
  O  O58  1  0.16727700  0.83453600  0.33949100  1
  O  O59  1  0.83453600  0.16727700  0.66050900  1
  O  O60  1  0.98237400  0.01762600  0.25000000  1
  O  O61  1  0.01762600  0.98237400  0.75000000  1
  O  O62  1  0.26899100  0.73100900  0.25000000  1
  O  O63  1  0.73100900  0.26899100  0.75000000  1
loop_
_geom_bond_atom_site_label_1
_geom_bond_atom_site_label_2
_geom_bond_distance
_geom_bond_site_symmetry_2
K0 O8 2.913423 1_555
K0 O11 2.913423 1_555
K0 O43 2.935785 1_555
K0 O40 2.935785 1_555
K0 O37 3.209534 1_555
K0 O34 3.209534 1_555
K0 O39 3.217254 1_555
K0 O32 3.217254 1_555
K1 O9 2.913423 1_555
K1 O10 2.913423 1_555
K1 O42 2.935785 1_555
K1 O41 2.935785 1_555
K1 O36 3.209534 1_555
K1 O35 3.209534 1_555
K1 O33 3.217254 1_555
K1 O38 3.217254 1_555
K2 O52 2.798136 1_455
K2 O49 2.813713 1_565
K2 O13 2.884492 1_455
K2 O16 2.911835 1_565
K2 O56 2.982723 1_556
K2 O44 3.022539 1_556
K2 O25 3.198295 1_456
K2 O20 3.210298 1_566
K2 O0 3.237597 1_556
K3 O53 2.798136 1_545
K3 O48 2.813713 1_655
K3 O12 2.884492 1_545
K3 O17 2.911835 1_655
K3 O57 2.982723 1_554
K3 O45 3.022539 1_554
K3 O24 3.198295 1_544
K3 O21 3.210298 1_654
K3 O1 3.237597 1_554
K4 O51 2.798136 1_565
K4 O54 2.813713 1_455
K4 O18 2.884492 1_565
K4 O15 2.911835 1_455
K4 O58 2.982723 1_555
K4 O46 3.022539 1_555
K4 O22 3.198295 1_565
K4 O27 3.210298 1_455
K4 O2 3.237597 1_555
K5 O50 2.798136 1_655
K5 O55 2.813713 1_545
K5 O19 2.884492 1_655
K5 O14 2.911835 1_545
K5 O59 2.982723 1_555
K5 O47 3.022539 1_555
K5 O23 3.198295 1_655
K5 O26 3.210298 1_545
K5 O3 3.237597 1_555
K6 O36 2.897177 1_554
K6 O33 2.900383 1_554
K6 O21 2.916871 1_554
K6 O24 2.924548 1_554
K6 O0 2.995494 1_555
K6 O53 3.036629 1_555
K6 O48 3.050930 1_555
K7 O37 2.897177 1_556
K7 O32 2.900383 1_556
K7 O20 2.916871 1_556
K7 O25 2.924548 1_556
K7 O1 2.995494 1_555
K7 O52 3.036629 1_555
K7 O49 3.050930 1_555
K8 O35 2.897177 1_555
K8 O38 2.900383 1_555
K8 O26 2.916871 1_555
K8 O23 2.924548 1_555
K8 O2 2.995494 1_555
K8 O50 3.036629 1_555
K8 O55 3.050930 1_555
K9 O34 2.897177 1_555
K9 O39 2.900383 1_555
K9 O27 2.916871 1_555
K9 O22 2.924548 1_555
K9 O3 2.995494 1_555
K9 O51 3.036629 1_555
K9 O54 3.050930 1_555
Mo0 O12 1.737734 1_555
Mo0 O20 1.738887 1_565
Mo0 O8 1.952327 1_565
Mo0 O0 1.958481 1_555
Mo0 O56 2.341282 1_555
Mo0 O62 2.476543 1_555
Mo1 O13 1.737734 1_555
Mo1 O21 1.738887 1_655
Mo1 O9 1.952327 1_655
Mo1 O1 1.958481 1_555
Mo1 O57 2.341282 1_555
Mo1 O63 2.476543 1_555
Mo2 O22 1.736994 1_565
Mo2 O14 1.752156 1_555
Mo2 O2 1.946267 1_555
Mo2 O8 1.946996 1_565
Mo2 O58 2.343718 1_555
Mo2 O62 2.470850 1_555
Mo3 O23 1.736994 1_655
Mo3 O15 1.752156 1_555
Mo3 O3 1.946267 1_555
Mo3 O9 1.946996 1_655
Mo3 O59 2.343718 1_555
Mo3 O63 2.470850 1_555
Mo4 O24 1.736994 1_545
Mo4 O16 1.752156 1_555
Mo4 O1 1.946267 1_555
Mo4 O10 1.946996 1_545
Mo4 O57 2.343718 1_555
Mo4 O63 2.470850 1_555
Mo5 O25 1.736994 1_455
Mo5 O17 1.752156 1_555
Mo5 O0 1.946267 1_555
Mo5 O11 1.946996 1_455
Mo5 O56 2.343718 1_555
Mo5 O62 2.470850 1_555
Mo6 O18 1.737734 1_555
Mo6 O26 1.738887 1_545
Mo6 O10 1.952327 1_545
Mo6 O3 1.958481 1_555
Mo6 O59 2.341282 1_555
Mo6 O63 2.476543 1_555
Mo7 O19 1.737734 1_555
Mo7 O27 1.738887 1_455
Mo7 O11 1.952327 1_455
Mo7 O2 1.958481 1_555
Mo7 O58 2.341282 1_555
Mo7 O62 2.476543 1_555
Mo8 O32 1.732025 1_555
Mo8 O48 1.747803 1_555
Mo8 O44 1.946741 1_545
Mo8 O28 1.959748 1_555
Mo8 O40 2.351587 1_555
Mo8 O60 2.428151 1_455
Mo9 O33 1.732025 1_555
Mo9 O49 1.747803 1_555
Mo9 O45 1.946741 1_455
Mo9 O29 1.959748 1_555
Mo9 O41 2.351587 1_555
Mo9 O61 2.428151 1_545
Mo10 O34 1.732488 1_555
Mo10 O50 1.744918 1_555
Mo10 O46 1.948031 1_545
Mo10 O28 1.958673 1_555
Mo10 O40 2.361886 1_555
Mo10 O60 2.430897 1_455
Mo11 O35 1.732488 1_555
Mo11 O51 1.744918 1_555
Mo11 O47 1.948031 1_455
Mo11 O29 1.958673 1_555
Mo11 O41 2.361886 1_555
Mo11 O61 2.430897 1_545
Mo12 O36 1.732488 1_555
Mo12 O52 1.744918 1_555
Mo12 O45 1.948031 1_565
Mo12 O30 1.958673 1_555
Mo12 O42 2.361886 1_555
Mo12 O61 2.430897 1_655
Mo13 O37 1.732488 1_555
Mo13 O53 1.744918 1_555
Mo13 O44 1.948031 1_655
Mo13 O31 1.958673 1_555
Mo13 O43 2.361886 1_555
Mo13 O60 2.430897 1_565
Mo14 O38 1.732025 1_555
Mo14 O54 1.747803 1_555
Mo14 O47 1.946741 1_565
Mo14 O30 1.959748 1_555
Mo14 O42 2.351587 1_555
Mo14 O61 2.428151 1_655
Mo15 O39 1.732025 1_555
Mo15 O55 1.747803 1_555
Mo15 O46 1.946741 1_655
Mo15 O31 1.959748 1_555
Mo15 O43 2.351587 1_555
Mo15 O60 2.428151 1_565
As0 O40 1.726050 1_565
As0 O43 1.726050 1_455
As0 O58 1.727003 1_555
As0 O56 1.727003 1_555
As1 O41 1.726050 1_655
As1 O42 1.726050 1_545
As1 O59 1.727003 1_555
As1 O57 1.727003 1_555
H0 O60 1.014005 1_555
H0 O7 1.553473 1_555
H1 O61 1.014005 1_555
H1 O6 1.553473 1_555
H2 O62 1.000788 1_555
H3 O63 1.000788 1_555
H4 O4 0.981910 1_555
H5 O5 0.981910 1_555
H6 O5 0.981910 1_555
H7 O4 0.981910 1_555
H8 O6 0.977578 1_555
H9 O7 0.977578 1_555
H10 O7 0.977578 1_555
H11 O6 0.977578 1_555
