# generated using pymatgen
data_YCd2
_symmetry_space_group_name_H-M   'P 1'
_cell_length_a   9.80602504
_cell_length_b   9.80602434
_cell_length_c   7.03954298
_cell_angle_alpha   90.00000000
_cell_angle_beta   90.00000000
_cell_angle_gamma   119.99999535
_symmetry_Int_Tables_number   1
_chemical_formula_structural   YCd2
_chemical_formula_sum   'Y8 Cd16'
_cell_volume   586.22060843
_cell_formula_units_Z   8
loop_
 _symmetry_equiv_pos_site_id
 _symmetry_equiv_pos_as_xyz
  1  'x, y, z'
loop_
 _atom_site_type_symbol
 _atom_site_label
 _atom_site_symmetry_multiplicity
 _atom_site_fract_x
 _atom_site_fract_y
 _atom_site_fract_z
 _atom_site_occupancy
  Y  Y0_0  1  0.00000000  0.00000000  0.00000000  1
  Y  Y0_1  1  0.00000000  0.00000000  0.50000000  1
  Y  Y0_2  1  0.00000000  0.50000000  0.00000000  1
  Y  Y0_3  1  0.00000000  0.50000000  0.50000000  1
  Y  Y0_4  1  0.50000000  0.00000000  0.00000000  1
  Y  Y0_5  1  0.50000000  0.00000000  0.50000000  1
  Y  Y0_6  1  0.50000000  0.50000000  0.00000000  1
  Y  Y0_7  1  0.50000000  0.50000000  0.50000000  1
  Cd  Cd0_0  1  0.33333350  0.16666650  0.24999708  1
  Cd  Cd0_1  1  0.33333350  0.16666650  0.74999708  1
  Cd  Cd0_2  1  0.33333350  0.66666650  0.24999708  1
  Cd  Cd0_3  1  0.33333350  0.66666650  0.74999708  1
  Cd  Cd0_4  1  0.83333350  0.16666650  0.24999708  1
  Cd  Cd0_5  1  0.83333350  0.16666650  0.74999708  1
  Cd  Cd0_6  1  0.83333350  0.66666650  0.24999708  1
  Cd  Cd0_7  1  0.83333350  0.66666650  0.74999708  1
  Cd  Cd1_0  1  0.16666650  0.33333350  0.25000293  1
  Cd  Cd1_1  1  0.16666650  0.33333350  0.75000292  1
  Cd  Cd1_2  1  0.16666650  0.83333350  0.25000293  1
  Cd  Cd1_3  1  0.16666650  0.83333350  0.75000292  1
  Cd  Cd1_4  1  0.66666650  0.33333350  0.25000293  1
  Cd  Cd1_5  1  0.66666650  0.33333350  0.75000292  1
  Cd  Cd1_6  1  0.66666650  0.83333350  0.25000293  1
  Cd  Cd1_7  1  0.66666650  0.83333350  0.75000292  1
loop_
_geom_bond_atom_site_label_1
_geom_bond_atom_site_label_2
_geom_bond_distance
_geom_bond_site_symmetry_2
Y0_0 Y0_1 3.519771 1_555
Y0_0 Y0_1 3.519771 1_554
Y0_2 Y0_3 3.519771 1_554
Y0_2 Y0_3 3.519771 1_555
Y0_4 Y0_5 3.519771 1_555
Y0_4 Y0_5 3.519771 1_554
Y0_6 Y0_7 3.519771 1_555
Y0_6 Y0_7 3.519771 1_554
Cd0_0 Cd1_2 2.830753 1_545
Cd0_0 Cd1_4 2.830753 1_555
Cd0_0 Cd1_0 2.830761 1_555
Cd0_0 Y0_4 3.333210 1_555
Cd0_0 Y0_6 3.333213 1_555
Cd0_0 Y0_0 3.333213 1_555
Cd0_0 Y0_5 3.333231 1_555
Cd0_0 Y0_7 3.333235 1_555
Cd0_0 Y0_1 3.333235 1_555
Cd0_0 Cd0_1 3.519771 1_554
Cd0_0 Cd0_1 3.519771 1_555
Cd0_1 Cd1_3 2.830753 1_545
Cd0_1 Cd1_5 2.830753 1_555
Cd0_1 Cd1_1 2.830761 1_555
Cd0_1 Y0_5 3.333210 1_555
Cd0_1 Y0_7 3.333213 1_555
Cd0_1 Y0_1 3.333213 1_555
Cd0_1 Y0_4 3.333231 1_556
Cd0_1 Y0_6 3.333235 1_556
Cd0_1 Y0_0 3.333235 1_556
Cd0_2 Cd1_0 2.830753 1_555
Cd0_2 Cd1_6 2.830753 1_555
Cd0_2 Cd1_2 2.830761 1_555
Cd0_2 Y0_6 3.333210 1_555
Cd0_2 Y0_4 3.333213 1_565
Cd0_2 Y0_2 3.333213 1_555
Cd0_2 Y0_7 3.333231 1_555
Cd0_2 Y0_5 3.333235 1_565
Cd0_2 Y0_3 3.333235 1_555
Cd0_2 Cd0_3 3.519771 1_554
Cd0_2 Cd0_3 3.519771 1_555
Cd0_3 Cd1_1 2.830753 1_555
Cd0_3 Cd1_7 2.830753 1_555
Cd0_3 Cd1_3 2.830761 1_555
Cd0_3 Y0_7 3.333210 1_555
Cd0_3 Y0_5 3.333213 1_565
Cd0_3 Y0_3 3.333213 1_555
Cd0_3 Y0_6 3.333231 1_556
Cd0_3 Y0_4 3.333235 1_566
Cd0_3 Y0_2 3.333235 1_556
Cd0_4 Cd1_6 2.830753 1_545
Cd0_4 Cd1_0 2.830753 1_655
Cd0_4 Cd1_4 2.830761 1_555
Cd0_4 Y0_0 3.333210 1_655
Cd0_4 Y0_2 3.333213 1_655
Cd0_4 Y0_4 3.333213 1_555
Cd0_4 Y0_1 3.333231 1_655
Cd0_4 Y0_3 3.333235 1_655
Cd0_4 Y0_5 3.333235 1_555
Cd0_4 Cd0_5 3.519771 1_554
Cd0_4 Cd0_5 3.519771 1_555
Cd0_5 Cd1_7 2.830753 1_545
Cd0_5 Cd1_1 2.830753 1_655
Cd0_5 Cd1_5 2.830761 1_555
Cd0_5 Y0_1 3.333210 1_655
Cd0_5 Y0_3 3.333213 1_655
Cd0_5 Y0_5 3.333213 1_555
Cd0_5 Y0_0 3.333231 1_656
Cd0_5 Y0_2 3.333235 1_656
Cd0_5 Y0_4 3.333235 1_556
Cd0_6 Cd1_4 2.830753 1_555
Cd0_6 Cd1_2 2.830753 1_655
Cd0_6 Cd1_6 2.830761 1_555
Cd0_6 Y0_2 3.333210 1_655
Cd0_6 Y0_0 3.333213 1_665
Cd0_6 Y0_6 3.333213 1_555
Cd0_6 Y0_3 3.333231 1_655
Cd0_6 Y0_1 3.333235 1_665
Cd0_6 Y0_7 3.333235 1_555
Cd0_6 Cd0_7 3.519771 1_554
Cd0_6 Cd0_7 3.519771 1_555
Cd0_7 Cd1_5 2.830753 1_555
Cd0_7 Cd1_3 2.830753 1_655
Cd0_7 Cd1_7 2.830761 1_555
Cd0_7 Y0_3 3.333210 1_655
Cd0_7 Y0_1 3.333213 1_665
Cd0_7 Y0_7 3.333213 1_555
Cd0_7 Y0_2 3.333231 1_656
Cd0_7 Y0_0 3.333235 1_666
Cd0_7 Y0_6 3.333235 1_556
Cd1_0 Y0_3 3.333210 1_555
Cd1_0 Y0_1 3.333213 1_555
Cd1_0 Y0_7 3.333213 1_555
Cd1_0 Y0_2 3.333231 1_555
Cd1_0 Y0_0 3.333235 1_555
Cd1_0 Y0_6 3.333235 1_555
Cd1_0 Cd1_1 3.519771 1_555
Cd1_0 Cd1_1 3.519771 1_554
Cd1_1 Y0_2 3.333210 1_556
Cd1_1 Y0_0 3.333213 1_556
Cd1_1 Y0_6 3.333213 1_556
Cd1_1 Y0_3 3.333231 1_555
Cd1_1 Y0_1 3.333235 1_555
Cd1_1 Y0_7 3.333235 1_555
Cd1_2 Y0_1 3.333210 1_565
Cd1_2 Y0_3 3.333213 1_555
Cd1_2 Y0_5 3.333213 1_565
Cd1_2 Y0_0 3.333231 1_565
Cd1_2 Y0_2 3.333235 1_555
Cd1_2 Y0_4 3.333235 1_565
Cd1_2 Cd1_3 3.519771 1_555
Cd1_2 Cd1_3 3.519771 1_554
Cd1_3 Y0_0 3.333210 1_566
Cd1_3 Y0_2 3.333213 1_556
Cd1_3 Y0_4 3.333213 1_566
Cd1_3 Y0_1 3.333231 1_565
Cd1_3 Y0_3 3.333235 1_555
Cd1_3 Y0_5 3.333235 1_565
Cd1_4 Y0_7 3.333210 1_555
Cd1_4 Y0_5 3.333213 1_555
Cd1_4 Y0_3 3.333213 1_655
Cd1_4 Y0_6 3.333231 1_555
Cd1_4 Y0_4 3.333235 1_555
Cd1_4 Y0_2 3.333235 1_655
Cd1_4 Cd1_5 3.519771 1_555
Cd1_4 Cd1_5 3.519771 1_554
Cd1_5 Y0_6 3.333210 1_556
Cd1_5 Y0_4 3.333213 1_556
Cd1_5 Y0_2 3.333213 1_656
Cd1_5 Y0_7 3.333231 1_555
Cd1_5 Y0_5 3.333235 1_555
Cd1_5 Y0_3 3.333235 1_655
Cd1_6 Y0_5 3.333210 1_565
Cd1_6 Y0_7 3.333213 1_555
Cd1_6 Y0_1 3.333213 1_665
Cd1_6 Y0_4 3.333231 1_565
Cd1_6 Y0_6 3.333235 1_555
Cd1_6 Y0_0 3.333235 1_665
Cd1_6 Cd1_7 3.519771 1_555
Cd1_6 Cd1_7 3.519771 1_554
Cd1_7 Y0_4 3.333210 1_566
Cd1_7 Y0_6 3.333213 1_556
Cd1_7 Y0_0 3.333213 1_666
Cd1_7 Y0_5 3.333231 1_565
Cd1_7 Y0_7 3.333235 1_555
Cd1_7 Y0_1 3.333235 1_665
