# generated using pymatgen
data_Sm2ZnSb3
_symmetry_space_group_name_H-M   'P 1'
_cell_length_a   11.37785166
_cell_length_b   11.37785166
_cell_length_c   39.68106689
_cell_angle_alpha   90.00000000
_cell_angle_beta   90.00000000
_cell_angle_gamma   90.00000000
_symmetry_Int_Tables_number   1
_chemical_formula_structural   Sm2ZnSb3
_chemical_formula_sum   'Sm2 Zn1 Sb3'
_cell_volume   5136.93268798
_cell_formula_units_Z   1
loop_
 _symmetry_equiv_pos_site_id
 _symmetry_equiv_pos_as_xyz
  1  'x, y, z'
loop_
 _atom_site_type_symbol
 _atom_site_label
 _atom_site_symmetry_multiplicity
 _atom_site_fract_x
 _atom_site_fract_y
 _atom_site_fract_z
 _atom_site_occupancy
  Sm  Sm0  1  0.50000000  0.50000000  0.24168896  1
  Sm  Sm1  1  0.50000000  0.50000000  0.75831104  1
  Zn  Zn0  1  0.50000000  0.50000000  0.50000000  1
  Sb  Sb0  1  0.50000000  0.50000000  0.69066619  1
  Sb  Sb1  1  0.50000000  0.50000000  0.30933381  1
  Sb  Sb2  1  0.50000000  0.50000000  0.00000000  1
loop_
_geom_bond_atom_site_label_1
_geom_bond_atom_site_label_2
_geom_bond_distance
_geom_bond_site_symmetry_2
Sb0 Sm1 2.684220 1_555
Sb1 Sm0 2.684220 1_555
