# generated using pymatgen
data_HfCrCuS4
_symmetry_space_group_name_H-M   'P 1'
_cell_length_a   6.06148900
_cell_length_b   7.04935531
_cell_length_c   12.40193391
_cell_angle_alpha   90.73049234
_cell_angle_beta   90.12817942
_cell_angle_gamma   90.14734100
_symmetry_Int_Tables_number   1
_chemical_formula_structural   HfCrCuS4
_chemical_formula_sum   'Hf4 Cr4 Cu4 S16'
_cell_volume   529.88335998
_cell_formula_units_Z   4
loop_
 _symmetry_equiv_pos_site_id
 _symmetry_equiv_pos_as_xyz
  1  'x, y, z'
loop_
 _atom_site_type_symbol
 _atom_site_label
 _atom_site_symmetry_multiplicity
 _atom_site_fract_x
 _atom_site_fract_y
 _atom_site_fract_z
 _atom_site_occupancy
  Hf  Hf0  1  0.00686700  0.51672400  0.74569000  1
  Hf  Hf1  1  0.50001500  0.25060200  0.25010200  1
  Hf  Hf2  1  0.49965700  0.74988000  0.24997100  1
  Hf  Hf3  1  0.50339500  0.23269000  0.75187300  1
  Cr  Cr0  1  0.99507100  0.99943200  0.24583100  1
  Cr  Cr1  1  0.99885200  0.00191700  0.75524300  1
  Cr  Cr2  1  0.00246900  0.49990700  0.25370000  1
  Cr  Cr3  1  0.49983000  0.75011100  0.74987100  1
  Cu  Cu0  1  0.36183000  0.99970900  0.99909200  1
  Cu  Cu1  1  0.63700500  0.50160300  0.49328800  1
  Cu  Cu2  1  0.03094400  0.99589700  0.49967800  1
  Cu  Cu3  1  0.96470300  0.50207900  0.99687400  1
  S  S0  1  0.84589000  0.25433900  0.36644500  1
  S  S1  1  0.82206900  0.76281500  0.63482400  1
  S  S2  1  0.14886100  0.74664100  0.13517800  1
  S  S3  1  0.15878600  0.24760800  0.86994100  1
  S  S4  1  0.14998500  0.24695800  0.13608100  1
  S  S5  1  0.18089300  0.76814900  0.86705700  1
  S  S6  1  0.84662600  0.74953600  0.36688400  1
  S  S7  1  0.84583200  0.23988800  0.63332300  1
  S  S8  1  0.66621500  0.99837200  0.13040500  1
  S  S9  1  0.66906700  0.98343700  0.86488000  1
  S  S10  1  0.32814500  0.50184700  0.36818400  1
  S  S11  1  0.35578300  0.50577700  0.63331800  1
  S  S12  1  0.31401200  0.00155700  0.36424100  1
  S  S13  1  0.31459900  0.98551700  0.63925100  1
  S  S14  1  0.68397500  0.49847500  0.13491400  1
  S  S15  1  0.66862200  0.50853400  0.86386400  1
loop_
_geom_bond_atom_site_label_1
_geom_bond_atom_site_label_2
_geom_bond_distance
_geom_bond_site_symmetry_2
Hf0 S1 2.493718 1_455
Hf0 S15 2.523860 1_455
Hf0 S11 2.536230 1_555
Hf0 S5 2.536712 1_555
Hf0 S7 2.572549 1_455
Hf0 S3 2.626529 1_555
Hf1 S10 2.513355 1_555
Hf1 S8 2.515681 1_545
Hf1 S14 2.529450 1_555
Hf1 S12 2.533259 1_555
Hf1 S0 2.542280 1_555
Hf1 S4 2.547013 1_555
Hf2 S10 2.519952 1_555
Hf2 S8 2.520006 1_555
Hf2 S12 2.524990 1_565
Hf2 S14 2.525477 1_555
Hf2 S6 2.551874 1_555
Hf2 S2 2.556177 1_555
Hf3 S9 2.474984 1_545
Hf3 S13 2.493392 1_545
Hf3 S7 2.547089 1_555
Hf3 S3 2.555251 1_555
Hf3 S15 2.574522 1_555
Hf3 S11 2.596824 1_555
Cr0 S4 2.415965 1_665
Cr0 S2 2.424812 1_655
Cr0 S12 2.425042 1_665
Cr0 S8 2.451453 1_555
Cr0 S0 2.496011 1_565
Cr0 S6 2.496416 1_555
Cr1 S13 2.398945 1_645
Cr1 S9 2.424268 1_545
Cr1 S3 2.425968 1_655
Cr1 S5 2.432475 1_645
Cr1 S7 2.455023 1_555
Cr1 S1 2.477683 1_545
Cr2 S14 2.425729 1_455
Cr2 S10 2.428972 1_555
Cr2 S6 2.431223 1_455
Cr2 S0 2.431422 1_455
Cr2 S2 2.456891 1_555
Cr2 S4 2.460611 1_555
Cr3 S9 2.391039 1_555
Cr3 S11 2.396159 1_555
Cr3 S1 2.423592 1_555
Cr3 S5 2.423811 1_555
Cr3 S13 2.440756 1_555
Cr3 S15 2.451407 1_555
Cu0 S8 2.458328 1_556
Cu0 S9 2.502397 1_555
Cu0 S5 2.542320 1_555
Cu0 S3 2.684720 1_565
Cu0 S4 2.742059 1_566
Cu0 S2 2.787847 1_556
Cu1 S10 2.428846 1_555
Cu1 S11 2.436132 1_555
Cu1 S0 2.658263 1_555
Cu1 S6 2.682172 1_555
Cu1 S1 2.761941 1_555
Cu1 S7 2.847106 1_555
Cu2 S12 2.404410 1_565
Cu2 S13 2.438940 1_555
Cu2 S6 2.624015 1_455
Cu2 S7 2.628698 1_465
Cu2 S1 2.679726 1_455
Cu2 S0 2.717826 1_465
Cu3 S14 2.416801 1_556
Cu3 S15 2.435815 1_555
Cu3 S3 2.650887 1_655
Cu3 S2 2.658275 1_656
Cu3 S4 2.749030 1_656
Cu3 S5 2.810877 1_655
