# generated using pymatgen
data_Sr(CrN)2
_symmetry_space_group_name_H-M   'P 1'
_cell_length_a   3.31979401
_cell_length_b   3.31958444
_cell_length_c   6.54628101
_cell_angle_alpha   90.00159036
_cell_angle_beta   89.99146870
_cell_angle_gamma   120.00182791
_symmetry_Int_Tables_number   1
_chemical_formula_structural   Sr(CrN)2
_chemical_formula_sum   'Sr1 Cr2 N2'
_cell_volume   62.47584355
_cell_formula_units_Z   1
loop_
 _symmetry_equiv_pos_site_id
 _symmetry_equiv_pos_as_xyz
  1  'x, y, z'
loop_
 _atom_site_type_symbol
 _atom_site_label
 _atom_site_symmetry_multiplicity
 _atom_site_fract_x
 _atom_site_fract_y
 _atom_site_fract_z
 _atom_site_occupancy
  Sr  Sr0  1  0.00000300  0.00000500  0.49999400  1
  Cr  Cr0  1  0.66667600  0.33332900  0.11641200  1
  Cr  Cr1  1  0.33332300  0.66666400  0.88360100  1
  N  N0  1  0.66679500  0.33341600  0.80911800  1
  N  N1  1  0.33320200  0.66658700  0.19087500  1
loop_
_geom_bond_atom_site_label_1
_geom_bond_atom_site_label_2
_geom_bond_distance
_geom_bond_site_symmetry_2
Cr0 N1 1.977346 1_655
Cr0 N1 1.977731 1_545
Cr0 N1 1.977791 1_555
Cr0 N0 2.011633 1_554
Cr1 N0 1.977384 1_455
Cr1 N0 1.977789 1_555
Cr1 N0 1.977791 1_565
Cr1 N1 2.011502 1_556
N0 Sr0 2.786900 1_665
N0 Sr0 2.786971 1_655
N0 Sr0 2.787677 1_555
N1 Sr0 2.786863 1_555
N1 Sr0 2.786943 1_565
N1 Sr0 2.787671 1_665
