# generated using pymatgen
data_Li4MnCo2O7
_symmetry_space_group_name_H-M   'P 1'
_cell_length_a   5.12811766
_cell_length_b   5.12811766
_cell_length_c   17.93374679
_cell_angle_alpha   83.65477620
_cell_angle_beta   83.65477620
_cell_angle_gamma   32.44658357
_symmetry_Int_Tables_number   1
_chemical_formula_structural   Li4MnCo2O7
_chemical_formula_sum   'Li8 Mn2 Co4 O14'
_cell_volume   251.34555713
_cell_formula_units_Z   2
loop_
 _symmetry_equiv_pos_site_id
 _symmetry_equiv_pos_as_xyz
  1  'x, y, z'
loop_
 _atom_site_type_symbol
 _atom_site_label
 _atom_site_symmetry_multiplicity
 _atom_site_fract_x
 _atom_site_fract_y
 _atom_site_fract_z
 _atom_site_occupancy
  Li  Li0  1  0.28512400  0.28512400  0.92079900  1
  Li  Li1  1  0.86663700  0.86663700  0.79284200  1
  Li  Li2  1  0.42796200  0.42796200  0.65024800  1
  Li  Li3  1  0.00300500  0.00300500  0.49688900  1
  Li  Li4  1  0.56961600  0.56961600  0.35384100  1
  Li  Li5  1  0.14064400  0.14064400  0.21687900  1
  Li  Li6  1  0.71287500  0.71287500  0.06739700  1
  Li  Li7  1  0.56903200  0.56903200  0.85785100  1
  Mn  Mn0  1  0.99296700  0.99296700  0.99417700  1
  Mn  Mn1  1  0.71387100  0.71387100  0.57275200  1
  Co  Co0  1  0.14534900  0.14534900  0.72569200  1
  Co  Co1  1  0.28671900  0.28671900  0.42662700  1
  Co  Co2  1  0.86036800  0.86036800  0.28533500  1
  Co  Co3  1  0.42707600  0.42707600  0.14183400  1
  O  O0  1  0.36567300  0.36567300  0.03153900  1
  O  O1  1  0.93196100  0.93196100  0.90181500  1
  O  O2  1  0.51077200  0.51077200  0.74690700  1
  O  O3  1  0.08790400  0.08790400  0.60289600  1
  O  O4  1  0.65318900  0.65318900  0.47171200  1
  O  O5  1  0.22345600  0.22345600  0.32148000  1
  O  O6  1  0.80072500  0.80072500  0.17566300  1
  O  O7  1  0.21913000  0.21913000  0.81640200  1
  O  O8  1  0.77401900  0.77401900  0.67186600  1
  O  O9  1  0.34248500  0.34248500  0.53954600  1
  O  O10  1  0.92283400  0.92283400  0.39300500  1
  O  O11  1  0.49536100  0.49536100  0.24961100  1
  O  O12  1  0.04968100  0.04968100  0.10395200  1
  O  O13  1  0.62156600  0.62156600  0.97044600  1
loop_
_geom_bond_atom_site_label_1
_geom_bond_atom_site_label_2
_geom_bond_distance
_geom_bond_site_symmetry_2
Li0 O1 2.036223 1_455
Li0 O1 2.036223 1_545
Li0 O7 2.051271 1_555
Li0 O0 2.221711 1_556
Li0 O13 2.260434 1_545
Li0 O13 2.260434 1_455
Li1 O7 2.049386 1_565
Li1 O7 2.049386 1_655
Li1 O2 2.115851 1_565
Li1 O2 2.115851 1_655
Li1 O1 2.126620 1_555
Li1 O8 2.448345 1_555
Li2 O2 1.998835 1_555
Li2 O8 2.089475 1_455
Li2 O8 2.089475 1_545
Li2 O3 2.224128 1_655
Li2 O3 2.224128 1_565
Li2 O9 2.243813 1_555
Li3 O4 2.071274 1_455
Li3 O4 2.071274 1_545
Li3 O10 2.105424 1_445
Li3 O3 2.163124 1_555
Li3 O9 2.204160 1_545
Li3 O9 2.204160 1_455
Li4 O11 2.084089 1_555
Li4 O10 2.098011 1_455
Li4 O10 2.098011 1_545
Li4 O5 2.117129 1_655
Li4 O5 2.117129 1_565
Li4 O4 2.355056 1_555
Li5 O11 2.061757 1_545
Li5 O11 2.061757 1_455
Li5 O5 2.129835 1_555
Li5 O6 2.194525 1_455
Li5 O6 2.194525 1_545
Li5 O12 2.306841 1_555
Li6 O13 2.047320 1_554
Li6 O0 2.123116 1_565
Li6 O0 2.123116 1_655
Li6 O12 2.196056 1_565
Li6 O12 2.196056 1_655
Li6 O6 2.214726 1_555
Li7 O1 2.061885 1_545
Li7 O1 2.061885 1_455
Li7 O7 2.130057 1_565
Li7 O7 2.130057 1_655
Li7 O2 2.133221 1_555
Li7 O13 2.141378 1_555
Mn0 O1 1.825833 1_555
Mn0 O13 1.927046 1_565
Mn0 O13 1.927046 1_655
Mn0 O0 1.969687 1_566
Mn0 O0 1.969687 1_656
Mn0 O12 2.107306 1_666
Mn1 O3 1.931151 1_655
Mn1 O3 1.931151 1_565
Mn1 O8 1.937183 1_555
Mn1 O9 1.959037 1_655
Mn1 O9 1.959037 1_565
Mn1 O4 1.972263 1_555
Co0 O7 1.856449 1_555
Co0 O2 1.959007 1_545
Co0 O2 1.959007 1_455
Co0 O8 2.075683 1_545
Co0 O8 2.075683 1_455
Co0 O3 2.335908 1_555
Co1 O10 2.006718 1_545
Co1 O10 2.006718 1_455
Co1 O4 2.047142 1_455
Co1 O4 2.047142 1_545
Co1 O5 2.052891 1_555
Co1 O9 2.158350 1_555
Co2 O11 2.008555 1_655
Co2 O11 2.008555 1_565
Co2 O5 2.022251 1_565
Co2 O5 2.022251 1_655
Co2 O10 2.092925 1_555
Co2 O6 2.116446 1_555
Co3 O12 1.945030 1_565
Co3 O12 1.945030 1_655
Co3 O6 1.948117 1_455
Co3 O6 1.948117 1_545
Co3 O11 2.118326 1_555
Co3 O0 2.133889 1_555
