# generated using pymatgen
data_CaAs2WO7
_symmetry_space_group_name_H-M   'P 1'
_cell_length_a   8.29612800
_cell_length_b   9.61859600
_cell_length_c   11.48318326
_cell_angle_alpha   54.18055276
_cell_angle_beta   90.00000000
_cell_angle_gamma   90.00000000
_symmetry_Int_Tables_number   1
_chemical_formula_structural   CaAs2WO7
_chemical_formula_sum   'Ca4 As8 W4 O28'
_cell_volume   743.01588788
_cell_formula_units_Z   4
loop_
 _symmetry_equiv_pos_site_id
 _symmetry_equiv_pos_as_xyz
  1  'x, y, z'
loop_
 _atom_site_type_symbol
 _atom_site_label
 _atom_site_symmetry_multiplicity
 _atom_site_fract_x
 _atom_site_fract_y
 _atom_site_fract_z
 _atom_site_occupancy
  Ca  Ca0  1  0.07256300  0.71881000  0.87997300  1
  Ca  Ca1  1  0.57256300  0.28119000  0.62002700  1
  Ca  Ca2  1  0.92743700  0.28119000  0.12002700  1
  Ca  Ca3  1  0.42743700  0.71881000  0.37997300  1
  As  As0  1  0.73400600  0.54251100  0.78649000  1
  As  As1  1  0.23400600  0.45748900  0.71351000  1
  As  As2  1  0.26599400  0.45748900  0.21351000  1
  As  As3  1  0.76599400  0.54251100  0.28649000  1
  As  As4  1  0.72477400  0.93017200  0.97753400  1
  As  As5  1  0.22477400  0.06982800  0.52246600  1
  As  As6  1  0.27522600  0.06982800  0.02246600  1
  As  As7  1  0.77522600  0.93017200  0.47753400  1
  W  W0  1  0.94976200  0.17051800  0.70391300  1
  W  W1  1  0.44976200  0.82948200  0.79608700  1
  W  W2  1  0.05023800  0.82948200  0.29608700  1
  W  W3  1  0.55023800  0.17051800  0.20391300  1
  O  O0  1  0.66876100  0.24213900  0.04737400  1
  O  O1  1  0.16876100  0.75786100  0.45262600  1
  O  O2  1  0.33123900  0.75786100  0.95262600  1
  O  O3  1  0.83123900  0.24213900  0.54737400  1
  O  O4  1  0.63162900  0.70436200  0.81421600  1
  O  O5  1  0.13162900  0.29563800  0.68578400  1
  O  O6  1  0.36837100  0.29563800  0.18578400  1
  O  O7  1  0.86837100  0.70436200  0.31421600  1
  O  O8  1  0.90985600  0.52681800  0.87682100  1
  O  O9  1  0.40985600  0.47318200  0.62317900  1
  O  O10  1  0.09014400  0.47318200  0.12317900  1
  O  O11  1  0.59014400  0.52681800  0.37682100  1
  O  O12  1  0.79557000  0.70008200  0.59462900  1
  O  O13  1  0.29557000  0.29991800  0.90537100  1
  O  O14  1  0.20443000  0.29991800  0.40537100  1
  O  O15  1  0.70443000  0.70008200  0.09462900  1
  O  O16  1  0.91032700  0.98000100  0.33473100  1
  O  O17  1  0.41032700  0.01999900  0.16526900  1
  O  O18  1  0.08967300  0.01999900  0.66526900  1
  O  O19  1  0.58967300  0.98000100  0.83473100  1
  O  O20  1  0.69462300  0.25022700  0.27148500  1
  O  O21  1  0.19462300  0.74977300  0.22851500  1
  O  O22  1  0.30537700  0.74977300  0.72851500  1
  O  O23  1  0.80537700  0.25022700  0.77148500  1
  O  O24  1  0.58746500  0.93602700  0.37804900  1
  O  O25  1  0.08746500  0.06397300  0.12195100  1
  O  O26  1  0.41253500  0.06397300  0.62195100  1
  O  O27  1  0.91253500  0.93602700  0.87804900  1
loop_
_geom_bond_atom_site_label_1
_geom_bond_atom_site_label_2
_geom_bond_distance
_geom_bond_site_symmetry_2
Ca0 O8 2.304753 1_455
Ca0 O10 2.383227 1_556
Ca0 O2 2.410243 1_555
Ca0 O27 2.464606 1_455
Ca0 O18 2.476157 1_565
Ca0 O22 2.497564 1_555
Ca1 O9 2.304753 1_555
Ca1 O11 2.383227 1_555
Ca1 O3 2.410243 1_555
Ca1 O26 2.464606 1_555
Ca1 O19 2.476157 1_545
Ca1 O23 2.497564 1_555
Ca2 O10 2.304753 1_655
Ca2 O8 2.383227 1_554
Ca2 O0 2.410243 1_555
Ca2 O25 2.464606 1_655
Ca2 O16 2.476157 1_545
Ca2 O20 2.497564 1_555
Ca3 O11 2.304753 1_555
Ca3 O9 2.383227 1_555
Ca3 O1 2.410243 1_555
Ca3 O24 2.464606 1_555
Ca3 O17 2.476157 1_565
Ca3 O21 2.497564 1_555
As0 O8 1.744649 1_555
As0 O12 1.871776 1_555
As0 O4 1.956129 1_555
As1 O9 1.744649 1_555
As1 O13 1.871776 1_555
As1 O5 1.956129 1_555
As2 O10 1.744649 1_555
As2 O14 1.871776 1_555
As2 O6 1.956129 1_555
As3 O11 1.744649 1_555
As3 O15 1.871776 1_555
As3 O7 1.956129 1_555
As4 O15 1.803157 1_556
As4 O19 1.804181 1_555
As4 O27 1.912943 1_555
As5 O14 1.803157 1_555
As5 O18 1.804181 1_555
As5 O26 1.912943 1_555
As6 O13 1.803157 1_554
As6 O17 1.804181 1_555
As6 O25 1.912943 1_555
As7 O12 1.803157 1_555
As7 O16 1.804181 1_555
As7 O24 1.912943 1_555
O0 W3 1.795337 1_555
O1 W2 1.795337 1_555
O2 W1 1.795337 1_555
O3 W0 1.795337 1_555
O4 W1 1.864110 1_555
O5 W0 1.864110 1_455
O6 W3 1.864110 1_555
O7 W2 1.864110 1_655
O16 W2 2.095767 1_655
O17 W3 2.095767 1_555
O18 W0 2.095767 1_455
O19 W1 2.095767 1_555
O20 W3 1.822368 1_555
O21 W2 1.822368 1_555
O22 W1 1.822368 1_555
O23 W0 1.822368 1_555
O24 W3 1.975383 1_565
O25 W2 1.975383 1_545
O26 W1 1.975383 1_545
O27 W0 1.975383 1_565
