# generated using pymatgen
data_Hf2Al3Pd
_symmetry_space_group_name_H-M   'P 1'
_cell_length_a   5.29472706
_cell_length_b   5.29472706
_cell_length_c   8.31552766
_cell_angle_alpha   90.00000000
_cell_angle_beta   90.00000000
_cell_angle_gamma   120.00000427
_symmetry_Int_Tables_number   1
_chemical_formula_structural   Hf2Al3Pd
_chemical_formula_sum   'Hf4 Al6 Pd2'
_cell_volume   201.88664020
_cell_formula_units_Z   2
loop_
 _symmetry_equiv_pos_site_id
 _symmetry_equiv_pos_as_xyz
  1  'x, y, z'
loop_
 _atom_site_type_symbol
 _atom_site_label
 _atom_site_symmetry_multiplicity
 _atom_site_fract_x
 _atom_site_fract_y
 _atom_site_fract_z
 _atom_site_occupancy
  Hf  Hf0  1  0.33333300  0.66666700  0.93278865  1
  Hf  Hf1  1  0.66666700  0.33333300  0.06721135  1
  Hf  Hf2  1  0.66666700  0.33333300  0.43278565  1
  Hf  Hf3  1  0.33333300  0.66666700  0.56721435  1
  Al  Al0  1  0.83047663  0.16952337  0.74999800  1
  Al  Al1  1  0.83047663  0.66095427  0.74999800  1
  Al  Al2  1  0.33904573  0.16952337  0.74999800  1
  Al  Al3  1  0.16952337  0.83047663  0.25000200  1
  Al  Al4  1  0.16952337  0.33904573  0.25000200  1
  Al  Al5  1  0.66095427  0.83047663  0.25000200  1
  Pd  Pd0  1  -0.00000000  -0.00000000  0.00000000  1
  Pd  Pd1  1  -0.00000000  -0.00000000  0.50000000  1
loop_
_geom_bond_atom_site_label_1
_geom_bond_atom_site_label_2
_geom_bond_distance
_geom_bond_site_symmetry_2
Hf0 Hf3 3.039943 1_555
Hf0 Pd0 3.107581 1_566
Hf0 Pd0 3.107585 1_666
Hf0 Pd0 3.107585 1_556
Hf0 Hf1 3.254867 1_456
Hf0 Hf1 3.254867 1_566
Hf0 Hf1 3.254876 1_556
Hf1 Hf2 3.039943 1_555
Hf1 Pd0 3.107581 1_655
Hf1 Pd0 3.107585 1_665
Hf1 Pd0 3.107585 1_555
Hf2 Pd1 3.107586 1_655
Hf2 Pd1 3.107590 1_555
Hf2 Pd1 3.107590 1_665
Hf2 Hf3 3.254884 1_545
Hf2 Hf3 3.254884 1_655
Hf2 Hf3 3.254893 1_555
Hf3 Pd1 3.107586 1_565
Hf3 Pd1 3.107590 1_555
Hf3 Pd1 3.107590 1_665
Al0 Pd1 2.595887 1_655
Al0 Pd0 2.595914 1_656
Al0 Al1 2.601992 1_555
Al0 Al2 2.601992 1_555
Al0 Al1 2.692735 1_545
Al0 Al2 2.692735 1_655
Al0 Hf2 3.035572 1_555
Al0 Hf1 3.035579 1_556
Al0 Hf3 3.052776 1_655
Al0 Hf3 3.052776 1_545
Al0 Hf0 3.052805 1_545
Al0 Hf0 3.052805 1_655
Al1 Pd1 2.595884 1_665
Al1 Pd0 2.595911 1_666
Al1 Al2 2.601992 1_555
Al1 Al2 2.692734 1_665
Al1 Hf2 3.035576 1_555
Al1 Hf1 3.035583 1_556
Al1 Hf3 3.052777 1_555
Al1 Hf3 3.052777 1_655
Al1 Hf0 3.052806 1_555
Al1 Hf0 3.052806 1_655
Al2 Pd1 2.595884 1_555
Al2 Pd0 2.595911 1_556
Al2 Hf2 3.035576 1_555
Al2 Hf1 3.035583 1_556
Al2 Hf3 3.052777 1_555
Al2 Hf3 3.052777 1_545
Al2 Hf0 3.052806 1_555
Al2 Hf0 3.052806 1_545
Al3 Pd1 2.595887 1_565
Al3 Pd0 2.595914 1_565
Al3 Al4 2.601992 1_555
Al3 Al5 2.601992 1_555
Al3 Al5 2.692735 1_455
Al3 Al4 2.692735 1_565
Al3 Hf3 3.035572 1_555
Al3 Hf0 3.035579 1_554
Al3 Hf2 3.052776 1_455
Al3 Hf2 3.052776 1_565
Al3 Hf1 3.052805 1_455
Al3 Hf1 3.052805 1_565
Al4 Pd1 2.595884 1_555
Al4 Pd0 2.595911 1_555
Al4 Al5 2.601992 1_555
Al4 Al5 2.692734 1_445
Al4 Hf3 3.035576 1_555
Al4 Hf0 3.035583 1_554
Al4 Hf2 3.052777 1_555
Al4 Hf2 3.052777 1_455
Al4 Hf1 3.052806 1_555
Al4 Hf1 3.052806 1_455
Al5 Pd1 2.595884 1_665
Al5 Pd0 2.595911 1_665
Al5 Hf3 3.035576 1_555
Al5 Hf0 3.035583 1_554
Al5 Hf2 3.052777 1_555
Al5 Hf2 3.052777 1_565
Al5 Hf1 3.052806 1_555
Al5 Hf1 3.052806 1_565
