# generated using pymatgen
data_Pr2Re2Si2C
_symmetry_space_group_name_H-M   'P 1'
_cell_length_a   5.98052702
_cell_length_b   5.98052702
_cell_length_c   7.23439997
_cell_angle_alpha   54.68092499
_cell_angle_beta   54.68092499
_cell_angle_gamma   40.00000596
_symmetry_Int_Tables_number   1
_chemical_formula_structural   Pr2Re2Si2C
_chemical_formula_sum   'Pr2 Re2 Si2 C1'
_cell_volume   131.11903702
_cell_formula_units_Z   1
loop_
 _symmetry_equiv_pos_site_id
 _symmetry_equiv_pos_as_xyz
  1  'x, y, z'
loop_
 _atom_site_type_symbol
 _atom_site_label
 _atom_site_symmetry_multiplicity
 _atom_site_fract_x
 _atom_site_fract_y
 _atom_site_fract_z
 _atom_site_occupancy
  Pr  Pr0  1  0.42881100  0.42881100  0.30466400  1
  Pr  Pr1  1  0.57118900  0.57118900  0.69533600  1
  Re  Re0  1  0.79697600  0.79697600  0.08726100  1
  Re  Re1  1  0.20302400  0.20302400  0.91273900  1
  Si  Si0  1  0.84763300  0.84763300  0.70346100  1
  Si  Si1  1  0.15236700  0.15236700  0.29653900  1
  C  C0  1  0.00000000  0.00000000  0.00000000  1
loop_
_geom_bond_atom_site_label_1
_geom_bond_atom_site_label_2
_geom_bond_distance
_geom_bond_site_symmetry_2
Pr0 Si1 3.143656 1_555
Pr0 Si0 3.178195 1_545
Pr0 Si0 3.178195 1_455
Pr0 Si1 3.212370 1_655
Pr0 Si1 3.212370 1_565
Pr1 Si0 3.143656 1_555
Pr1 Si1 3.178195 1_655
Pr1 Si1 3.178195 1_565
Pr1 Si0 3.212370 1_455
Pr1 Si0 3.212370 1_545
Re0 Si0 2.467438 1_554
Re0 Si1 2.467790 1_565
Re0 Si1 2.467790 1_655
Re1 Si1 2.467438 1_556
Re1 Si0 2.467790 1_455
Re1 Si0 2.467790 1_545
Si0 Si1 2.826811 1_665
C0 Re1 1.957854 1_554
C0 Re0 1.957854 1_445
C0 Pr0 2.740807 1_455
C0 Pr0 2.740807 1_545
C0 Pr1 2.740807 1_454
C0 Pr1 2.740807 1_544
