# generated using pymatgen
data_Mg2Nb2BiO8
_symmetry_space_group_name_H-M   'P 1'
_cell_length_a   10.70623089
_cell_length_b   10.70623089
_cell_length_c   5.37346258
_cell_angle_alpha   87.81192737
_cell_angle_beta   87.81192737
_cell_angle_gamma   32.80958609
_symmetry_Int_Tables_number   1
_chemical_formula_structural   Mg2Nb2BiO8
_chemical_formula_sum   'Mg4 Nb4 Bi2 O16'
_cell_volume   333.47351068
_cell_formula_units_Z   2
loop_
 _symmetry_equiv_pos_site_id
 _symmetry_equiv_pos_as_xyz
  1  'x, y, z'
loop_
 _atom_site_type_symbol
 _atom_site_label
 _atom_site_symmetry_multiplicity
 _atom_site_fract_x
 _atom_site_fract_y
 _atom_site_fract_z
 _atom_site_occupancy
  Mg  Mg0  1  0.87808700  0.57633800  0.76339100  1
  Mg  Mg1  1  0.42366200  0.12191300  0.73660900  1
  Mg  Mg2  1  0.12191300  0.42366200  0.23660900  1
  Mg  Mg3  1  0.57633800  0.87808700  0.26339100  1
  Nb  Nb0  1  0.04421700  0.70504600  0.73055100  1
  Nb  Nb1  1  0.29495400  0.95578300  0.76944900  1
  Nb  Nb2  1  0.95578300  0.29495400  0.26944900  1
  Nb  Nb3  1  0.70504600  0.04421700  0.23055100  1
  Bi  Bi0  1  0.69884100  0.30115900  0.75000000  1
  Bi  Bi1  1  0.30115900  0.69884100  0.25000000  1
  O  O0  1  0.01164900  0.83451600  0.03508600  1
  O  O1  1  0.16548400  0.98835100  0.46491400  1
  O  O2  1  0.98835100  0.16548400  0.96491400  1
  O  O3  1  0.83451600  0.01164900  0.53508600  1
  O  O4  1  0.32735100  0.54729100  0.61476400  1
  O  O5  1  0.45270900  0.67264900  0.88523600  1
  O  O6  1  0.67264900  0.45270900  0.38523600  1
  O  O7  1  0.54729100  0.32735100  0.11476400  1
  O  O8  1  0.92324100  0.70317000  0.44056900  1
  O  O9  1  0.29683000  0.07675900  0.05943100  1
  O  O10  1  0.44806500  0.15718400  0.37165700  1
  O  O11  1  0.84281600  0.55193500  0.12834300  1
  O  O12  1  0.55193500  0.84281600  0.62834300  1
  O  O13  1  0.15718400  0.44806500  0.87165700  1
  O  O14  1  0.70317000  0.92324100  0.94056900  1
  O  O15  1  0.07675900  0.29683000  0.55943100  1
loop_
_geom_bond_atom_site_label_1
_geom_bond_atom_site_label_2
_geom_bond_distance
_geom_bond_site_symmetry_2
Mg0 O15 2.013293 1_655
Mg0 O11 2.031444 1_556
Mg0 O12 2.036810 1_555
Mg0 O13 2.080111 1_655
Mg0 O8 2.438486 1_555
Mg0 O14 2.578722 1_555
Mg1 O14 2.013293 1_545
Mg1 O10 2.031444 1_555
Mg1 O13 2.036810 1_555
Mg1 O12 2.080111 1_545
Mg1 O9 2.438486 1_556
Mg1 O15 2.578722 1_555
Mg2 O8 2.013293 1_455
Mg2 O13 2.031444 1_554
Mg2 O10 2.036810 1_555
Mg2 O11 2.080111 1_455
Mg2 O15 2.438486 1_555
Mg2 O9 2.578722 1_555
Mg3 O9 2.013293 1_565
Mg3 O12 2.031444 1_555
Mg3 O11 2.036810 1_555
Mg3 O10 2.080111 1_565
Mg3 O14 2.438486 1_554
Mg3 O8 2.578722 1_555
Nb0 O4 1.938722 1_555
Nb0 O13 1.981056 1_555
Nb0 O0 2.009473 1_556
Nb0 O8 2.075132 1_455
Nb0 O3 2.108928 1_465
Nb0 O14 2.368874 1_455
Nb1 O5 1.938722 1_555
Nb1 O12 1.981056 1_555
Nb1 O1 2.009473 1_555
Nb1 O9 2.075132 1_566
Nb1 O2 2.108928 1_465
Nb1 O15 2.368874 1_565
Nb2 O6 1.938722 1_555
Nb2 O11 1.981056 1_555
Nb2 O2 2.009473 1_554
Nb2 O15 2.075132 1_655
Nb2 O1 2.108928 1_645
Nb2 O9 2.368874 1_655
Nb3 O7 1.938722 1_555
Nb3 O10 1.981056 1_555
Nb3 O3 2.009473 1_555
Nb3 O14 2.075132 1_544
Nb3 O0 2.108928 1_645
Nb3 O8 2.368874 1_545
Bi0 O7 2.363754 1_556
Bi0 O6 2.363754 1_555
Bi0 O3 2.372323 1_555
Bi0 O2 2.372323 1_555
Bi0 O4 2.397424 1_555
Bi0 O5 2.397424 1_555
Bi1 O4 2.363754 1_555
Bi1 O5 2.363754 1_554
Bi1 O0 2.372323 1_555
Bi1 O1 2.372323 1_555
Bi1 O6 2.397424 1_555
Bi1 O7 2.397424 1_555
