# generated using pymatgen
data_KTeP2
_symmetry_space_group_name_H-M   'P 1'
_cell_length_a   6.59320533
_cell_length_b   7.03815440
_cell_length_c   10.10362872
_cell_angle_alpha   90.01980414
_cell_angle_beta   90.00000000
_cell_angle_gamma   90.00000000
_symmetry_Int_Tables_number   1
_chemical_formula_structural   KTeP2
_chemical_formula_sum   'K4 Te4 P8'
_cell_volume   468.84872989
_cell_formula_units_Z   4
loop_
 _symmetry_equiv_pos_site_id
 _symmetry_equiv_pos_as_xyz
  1  'x, y, z'
loop_
 _atom_site_type_symbol
 _atom_site_label
 _atom_site_symmetry_multiplicity
 _atom_site_fract_x
 _atom_site_fract_y
 _atom_site_fract_z
 _atom_site_occupancy
  K  K0  1  0.25000000  0.02567312  0.38846297  1
  K  K1  1  0.75000000  0.97432688  0.61153703  1
  K  K2  1  0.25000000  0.22469106  0.00846051  1
  K  K3  1  0.75000000  0.77530894  0.99153949  1
  Te  Te0  1  0.25000000  0.70640132  0.10307724  1
  Te  Te1  1  0.75000000  0.29359868  0.89692276  1
  Te  Te2  1  0.25000000  0.84319932  0.73524724  1
  Te  Te3  1  0.75000000  0.15680068  0.26475276  1
  P  P0  1  0.49439584  0.39248201  0.58024367  1
  P  P1  1  0.99439584  0.60751799  0.41975633  1
  P  P2  1  0.50560416  0.60751799  0.41975633  1
  P  P3  1  0.00560416  0.39248201  0.58024367  1
  P  P4  1  0.25000000  0.49447730  0.29909706  1
  P  P5  1  0.75000000  0.50552270  0.70090294  1
  P  P6  1  0.25000000  0.49145711  0.71359531  1
  P  P7  1  0.75000000  0.50854289  0.28640469  1
loop_
_geom_bond_atom_site_label_1
_geom_bond_atom_site_label_2
_geom_bond_distance
_geom_bond_site_symmetry_2
K0 P2 3.406195 1_545
K0 P1 3.406195 1_445
K0 P4 3.421130 1_555
K0 P3 3.607293 1_555
K0 P0 3.607293 1_555
K0 Te3 3.644507 1_555
K0 Te3 3.644507 1_455
K0 Te0 3.655008 1_545
K0 Te2 3.732151 1_545
K1 P0 3.406195 1_565
K1 P3 3.406195 1_665
K1 P5 3.421130 1_555
K1 P2 3.607293 1_555
K1 P1 3.607293 1_555
K1 Te2 3.644507 1_555
K1 Te2 3.644507 1_655
K1 Te1 3.655008 1_565
K1 Te3 3.732151 1_565
K2 P4 3.496357 1_555
K2 Te1 3.517550 1_554
K2 Te1 3.517550 1_454
K2 P6 3.522032 1_554
K2 Te0 3.522233 1_555
K2 Te0 3.771308 1_545
K2 Te2 3.850214 1_544
K3 P5 3.496357 1_555
K3 Te0 3.517550 1_556
K3 Te0 3.517550 1_656
K3 P7 3.522032 1_556
K3 Te1 3.522233 1_555
K3 Te1 3.771308 1_565
K3 Te3 3.850214 1_566
P0 P6 2.212775 1_555
P0 P2 2.219681 1_555
P0 P5 2.226785 1_555
P1 P7 2.212775 1_555
P1 P3 2.219681 1_655
P1 P4 2.226785 1_655
P2 P7 2.212775 1_555
P2 P4 2.226785 1_555
P3 P6 2.212775 1_555
P3 P5 2.226785 1_455
P4 Te0 2.479758 1_555
P5 Te1 2.479758 1_555
P6 Te2 2.485188 1_555
P7 Te3 2.485188 1_555
