# generated using pymatgen
data_Ba2AlW3O7
_symmetry_space_group_name_H-M   'P 1'
_cell_length_a   3.44532000
_cell_length_b   4.16121100
_cell_length_c   13.56467400
_cell_angle_alpha   90.00000000
_cell_angle_beta   90.00000000
_cell_angle_gamma   90.00000000
_symmetry_Int_Tables_number   1
_chemical_formula_structural   Ba2AlW3O7
_chemical_formula_sum   'Ba2 Al1 W3 O7'
_cell_volume   194.47270898
_cell_formula_units_Z   1
loop_
 _symmetry_equiv_pos_site_id
 _symmetry_equiv_pos_as_xyz
  1  'x, y, z'
loop_
 _atom_site_type_symbol
 _atom_site_label
 _atom_site_symmetry_multiplicity
 _atom_site_fract_x
 _atom_site_fract_y
 _atom_site_fract_z
 _atom_site_occupancy
  Ba  Ba0  1  0.50000000  0.50000000  0.80972500  1
  Ba  Ba1  1  0.50000000  0.50000000  0.19027500  1
  Al  Al0  1  0.50000000  0.50000000  0.50000000  1
  W  W0  1  0.00000000  0.00000000  0.59403100  1
  W  W1  1  0.00000000  0.00000000  0.00000000  1
  W  W2  1  0.00000000  0.00000000  0.40596900  1
  O  O0  1  0.00000000  0.50000000  0.00000000  1
  O  O1  1  0.50000000  0.00000000  0.67497300  1
  O  O2  1  0.50000000  0.00000000  0.32502700  1
  O  O3  1  0.00000000  0.50000000  0.62303500  1
  O  O4  1  0.00000000  0.50000000  0.37696500  1
  O  O5  1  0.00000000  0.00000000  0.85858400  1
  O  O6  1  0.00000000  0.00000000  0.14141600  1
loop_
_geom_bond_atom_site_label_1
_geom_bond_atom_site_label_2
_geom_bond_distance
_geom_bond_site_symmetry_2
Ba0 O1 2.769480 1_555
Ba0 O1 2.769480 1_565
Ba0 O5 2.781317 1_655
Ba0 O5 2.781317 1_665
Ba0 O5 2.781317 1_555
Ba0 O5 2.781317 1_565
Ba0 O3 3.062769 1_555
Ba0 O3 3.062769 1_655
Ba0 O0 3.103097 1_556
Ba0 O0 3.103097 1_656
Ba1 O2 2.769480 1_565
Ba1 O2 2.769480 1_555
Ba1 O6 2.781317 1_555
Ba1 O6 2.781317 1_565
Ba1 O6 2.781317 1_655
Ba1 O6 2.781317 1_665
Ba1 O4 3.062769 1_555
Ba1 O4 3.062769 1_655
Ba1 O0 3.103097 1_655
Ba1 O0 3.103097 1_555
Al0 O4 2.398517 1_655
Al0 O3 2.398517 1_555
Al0 O3 2.398517 1_655
Al0 O4 2.398517 1_555
O0 W1 2.080605 1_555
O0 W1 2.080605 1_565
O1 W0 2.042806 1_555
O1 W0 2.042806 1_655
O2 W2 2.042806 1_655
O2 W2 2.042806 1_555
O3 W0 2.117476 1_555
O3 W0 2.117476 1_565
O4 W2 2.117476 1_555
O4 W2 2.117476 1_565
O5 W1 1.918262 1_556
O6 W1 1.918262 1_555
