# generated using pymatgen
data_NiH14C2(NO)12
_symmetry_space_group_name_H-M   'P 1'
_cell_length_a   7.43137500
_cell_length_b   7.50927307
_cell_length_c   8.69178813
_cell_angle_alpha   96.60042790
_cell_angle_beta   96.14929383
_cell_angle_gamma   115.77952521
_symmetry_Int_Tables_number   1
_chemical_formula_structural   NiH14C2(NO)12
_chemical_formula_sum   'Ni1 H14 C2 N12 O12'
_cell_volume   427.12510561
_cell_formula_units_Z   1
loop_
 _symmetry_equiv_pos_site_id
 _symmetry_equiv_pos_as_xyz
  1  'x, y, z'
loop_
 _atom_site_type_symbol
 _atom_site_label
 _atom_site_symmetry_multiplicity
 _atom_site_fract_x
 _atom_site_fract_y
 _atom_site_fract_z
 _atom_site_occupancy
  Ni  Ni0  1  0.50000000  0.00000000  0.50000000  1
  H  H0  1  0.48180900  0.67886200  0.99923300  1
  H  H1  1  0.51819100  0.32113800  0.00076700  1
  H  H2  1  0.15451300  0.88351300  0.09114500  1
  H  H3  1  0.84548700  0.11648700  0.90885500  1
  H  H4  1  0.27408200  0.12185600  0.33696600  1
  H  H5  1  0.72591800  0.87814400  0.66303400  1
  H  H6  1  0.76841400  0.32520500  0.38298200  1
  H  H7  1  0.23158600  0.67479500  0.61701800  1
  H  H8  1  0.25549000  0.69343200  0.92849000  1
  H  H9  1  0.74451000  0.30656800  0.07151000  1
  H  H10  1  0.71323100  0.40937300  0.53849200  1
  H  H11  1  0.28676900  0.59062700  0.46150800  1
  H  H12  1  0.11847600  0.89511700  0.36685600  1
  H  H13  1  0.88152400  0.10488300  0.63314400  1
  C  C0  1  0.39522400  0.82612800  0.15832300  1
  C  C1  1  0.60477600  0.17387200  0.84167700  1
  N  N0  1  0.54006000  0.86449300  0.28647600  1
  N  N1  1  0.45994000  0.13550700  0.71352400  1
  N  N2  1  0.25920100  0.89398700  0.18420800  1
  N  N3  1  0.74079900  0.10601300  0.81579200  1
  N  N4  1  0.25728000  0.97818400  0.33673700  1
  N  N5  1  0.74272000  0.02181600  0.66326300  1
  N  N6  1  0.38088500  0.73419400  0.01423100  1
  N  N7  1  0.61911500  0.26580600  0.98576900  1
  N  N8  1  0.68021800  0.79472500  0.27493900  1
  N  N9  1  0.31978200  0.20527500  0.72506100  1
  N  N10  1  0.06655400  0.31658200  0.22126400  1
  N  N11  1  0.93344600  0.68341800  0.77873600  1
  O  O0  1  0.68387300  0.69435700  0.15082200  1
  O  O1  1  0.31612700  0.30564300  0.84917800  1
  O  O2  1  0.80730300  0.83913100  0.39726200  1
  O  O3  1  0.19269700  0.16086900  0.60273800  1
  O  O4  1  0.66652600  0.29156300  0.45215900  1
  O  O5  1  0.33347400  0.70843700  0.54784100  1
  O  O6  1  0.23675400  0.38622500  0.31212500  1
  O  O7  1  0.76324600  0.61377500  0.68787500  1
  O  O8  1  0.95432800  0.40542100  0.23617100  1
  O  O9  1  0.04567200  0.59457900  0.76382900  1
  O  O10  1  0.00885800  0.16185100  0.11812300  1
  O  O11  1  0.99114200  0.83814900  0.88187700  1
loop_
_geom_bond_atom_site_label_1
_geom_bond_atom_site_label_2
_geom_bond_distance
_geom_bond_site_symmetry_2
Ni0 O4 2.112049 1_555
Ni0 O5 2.112049 1_545
H0 N6 1.015725 1_556
H1 N7 1.015725 1_554
H2 N2 1.031047 1_555
H3 N3 1.031047 1_555
H4 N4 1.030456 1_545
H5 N5 1.030456 1_565
H6 O4 0.982205 1_555
H7 O5 0.982205 1_555
H8 N6 1.033496 1_556
H9 N7 1.033496 1_554
H10 O4 0.995338 1_555
H11 O5 0.995338 1_555
H12 N4 1.028278 1_555
H13 N5 1.028278 1_555
C0 N6 1.328591 1_555
C0 N2 1.342565 1_555
C0 N0 1.371813 1_555
C1 N7 1.328591 1_555
C1 N3 1.342565 1_555
C1 N1 1.371813 1_555
N0 N8 1.361742 1_555
N0 Ni0 2.125124 1_565
N1 N9 1.361742 1_555
N1 Ni0 2.125124 1_555
N2 N4 1.405978 1_555
N3 N5 1.405978 1_555
N4 Ni0 2.105989 1_565
N5 Ni0 2.105989 1_555
N8 O2 1.250190 1_555
N8 O0 1.252901 1_555
N9 O3 1.250190 1_555
N9 O1 1.252901 1_555
N10 O10 1.257945 1_555
N10 O6 1.269907 1_555
N10 O8 1.282419 1_455
N11 O11 1.257945 1_555
N11 O7 1.269907 1_555
N11 O9 1.282419 1_655
