# generated using pymatgen
data_LaTi2GaO6
_symmetry_space_group_name_H-M   'P 1'
_cell_length_a   3.94769522
_cell_length_b   5.55475541
_cell_length_c   5.55475541
_cell_angle_alpha   89.66418307
_cell_angle_beta   90.00000000
_cell_angle_gamma   90.00000000
_symmetry_Int_Tables_number   1
_chemical_formula_structural   LaTi2GaO6
_chemical_formula_sum   'La1 Ti2 Ga1 O6'
_cell_volume   121.80525857
_cell_formula_units_Z   1
loop_
 _symmetry_equiv_pos_site_id
 _symmetry_equiv_pos_as_xyz
  1  'x, y, z'
loop_
 _atom_site_type_symbol
 _atom_site_label
 _atom_site_symmetry_multiplicity
 _atom_site_fract_x
 _atom_site_fract_y
 _atom_site_fract_z
 _atom_site_occupancy
  La  La0  1  0.50000000  0.50000000  0.50000000  1
  Ti  Ti0  1  -0.00000000  -0.00000000  0.50000000  1
  Ti  Ti1  1  -0.00000000  0.50000000  -0.00000000  1
  Ga  Ga0  1  0.50000000  -0.00000000  -0.00000000  1
  O  O0  1  0.50000000  -0.00000000  0.50000000  1
  O  O1  1  0.50000000  0.50000000  -0.00000000  1
  O  O2  1  -0.00000000  0.29035645  0.70964355  1
  O  O3  1  0.00000000  0.70964355  0.29035645  1
  O  O4  1  0.00000000  0.76219430  0.76219430  1
  O  O5  1  -0.00000000  0.23780570  0.23780570  1
loop_
_geom_bond_atom_site_label_1
_geom_bond_atom_site_label_2
_geom_bond_distance
_geom_bond_site_symmetry_2
La0 O2 2.567564 1_655
La0 O3 2.567564 1_555
La0 O2 2.567564 1_555
La0 O3 2.567564 1_655
La0 O0 2.777378 1_555
La0 O1 2.777378 1_555
La0 O1 2.777378 1_556
La0 O0 2.777378 1_565
La0 O4 2.857147 1_555
La0 O4 2.857147 1_655
La0 O5 2.857147 1_555
La0 O5 2.857147 1_655
O0 Ti0 1.973848 1_655
O0 Ti0 1.973848 1_555
O1 Ti1 1.973848 1_555
O1 Ti1 1.973848 1_655
O2 Ti0 1.994852 1_555
O2 Ti1 1.994852 1_556
O3 Ti1 1.994852 1_555
O3 Ti0 1.994852 1_565
O4 Ti1 1.960494 1_556
O4 Ti0 1.960494 1_565
O5 Ti1 1.960494 1_555
O5 Ti0 1.960494 1_555
