# generated using pymatgen
data_Li2FeNiO4
_symmetry_space_group_name_H-M   'P 1'
_cell_length_a   4.03287931
_cell_length_b   7.85090029
_cell_length_c   5.16080369
_cell_angle_alpha   91.66652155
_cell_angle_beta   113.00202691
_cell_angle_gamma   104.88357481
_symmetry_Int_Tables_number   1
_chemical_formula_structural   Li2FeNiO4
_chemical_formula_sum   'Li4 Fe2 Ni2 O8'
_cell_volume   143.81474823
_cell_formula_units_Z   2
loop_
 _symmetry_equiv_pos_site_id
 _symmetry_equiv_pos_as_xyz
  1  'x, y, z'
loop_
 _atom_site_type_symbol
 _atom_site_label
 _atom_site_symmetry_multiplicity
 _atom_site_fract_x
 _atom_site_fract_y
 _atom_site_fract_z
 _atom_site_occupancy
  Li  Li0  1  0.62765300  0.87227400  0.38306800  1
  Li  Li1  1  0.12763900  0.37226100  0.88305500  1
  Li  Li2  1  0.24651100  0.75361300  0.73935900  1
  Li  Li3  1  0.74649400  0.25360600  0.23933200  1
  Fe  Fe0  1  0.87310100  0.62617300  0.12005500  1
  Fe  Fe1  1  0.37309800  0.12619800  0.62002200  1
  Ni  Ni0  1  0.50067300  0.49837400  0.50294000  1
  Ni  Ni1  1  0.00070100  0.99832800  0.00304700  1
  O  O0  1  0.26179200  0.23870300  0.28481000  1
  O  O1  1  0.76181900  0.73871300  0.78485600  1
  O  O2  1  0.48801800  0.01210800  0.96389000  1
  O  O3  1  0.98801200  0.51210000  0.46389400  1
  O  O4  1  0.61870700  0.38165100  0.85588100  1
  O  O5  1  0.11873700  0.88164800  0.35594100  1
  O  O6  1  0.38351400  0.61713300  0.14990200  1
  O  O7  1  0.88353000  0.11711600  0.64994800  1
loop_
_geom_bond_atom_site_label_1
_geom_bond_atom_site_label_2
_geom_bond_distance
_geom_bond_site_symmetry_2
Li0 O5 2.022310 1_655
Li0 O5 2.022618 1_555
Li0 O6 2.085779 1_555
Li0 O7 2.091189 1_565
Li0 O1 2.287568 1_555
Li0 O2 2.388688 1_564
Li1 O4 2.022329 1_555
Li1 O4 2.022641 1_455
Li1 O7 2.085694 1_455
Li1 O6 2.091297 1_556
Li1 O0 2.287414 1_556
Li1 O3 2.388636 1_455
Li2 O1 2.032858 1_455
Li2 O1 2.032918 1_555
Li2 O3 2.091054 1_455
Li2 O2 2.091811 1_565
Li2 O5 2.185468 1_555
Li2 O6 2.337451 1_556
Li3 O0 2.032846 1_555
Li3 O0 2.032913 1_655
Li3 O2 2.090910 1_554
Li3 O3 2.091860 1_555
Li3 O4 2.185652 1_554
Li3 O7 2.337806 1_555
Fe0 O1 1.913230 1_554
Fe0 O3 1.956675 1_555
Fe0 O6 2.023249 1_555
Fe0 O6 2.023314 1_655
Fe0 O4 2.083138 1_554
Fe0 O5 2.093079 1_655
Fe1 O0 1.913135 1_555
Fe1 O2 1.956871 1_555
Fe1 O7 2.023289 1_455
Fe1 O7 2.023358 1_555
Fe1 O5 2.083100 1_545
Fe1 O4 2.092886 1_555
Ni0 O4 2.006891 1_555
Ni0 O6 2.016040 1_555
Ni0 O3 2.029012 1_455
Ni0 O3 2.029018 1_555
Ni0 O0 2.088415 1_555
Ni0 O1 2.099574 1_555
Ni1 O5 2.006507 1_555
Ni1 O7 2.016425 1_464
Ni1 O2 2.029065 1_464
Ni1 O2 2.029123 1_564
Ni1 O1 2.088149 1_454
Ni1 O0 2.099414 1_565
