# generated using pymatgen
data_ZnSb4O9
_symmetry_space_group_name_H-M   'P 1'
_cell_length_a   9.33062700
_cell_length_b   9.33062700
_cell_length_c   5.15403800
_cell_angle_alpha   90.00000000
_cell_angle_beta   90.00000000
_cell_angle_gamma   90.00000000
_symmetry_Int_Tables_number   1
_chemical_formula_structural   ZnSb4O9
_chemical_formula_sum   'Zn2 Sb8 O18'
_cell_volume   448.71364180
_cell_formula_units_Z   2
loop_
 _symmetry_equiv_pos_site_id
 _symmetry_equiv_pos_as_xyz
  1  'x, y, z'
loop_
 _atom_site_type_symbol
 _atom_site_label
 _atom_site_symmetry_multiplicity
 _atom_site_fract_x
 _atom_site_fract_y
 _atom_site_fract_z
 _atom_site_occupancy
  Zn  Zn0  1  0.00000000  0.50000000  0.04530400  1
  Zn  Zn1  1  0.50000000  0.00000000  0.95469600  1
  Sb  Sb0  1  0.08058000  0.77276900  0.64159500  1
  Sb  Sb1  1  0.22723100  0.08058000  0.35840500  1
  Sb  Sb2  1  0.72723100  0.58058000  0.64159500  1
  Sb  Sb3  1  0.58058000  0.27276900  0.35840500  1
  Sb  Sb4  1  0.91942000  0.22723100  0.64159500  1
  Sb  Sb5  1  0.27276900  0.41942000  0.64159500  1
  Sb  Sb6  1  0.41942000  0.72723100  0.35840500  1
  Sb  Sb7  1  0.77276900  0.91942000  0.35840500  1
  O  O0  1  0.00000000  0.00000000  0.50000000  1
  O  O1  1  0.50000000  0.50000000  0.50000000  1
  O  O2  1  0.71023100  0.94208400  0.00870300  1
  O  O3  1  0.44208400  0.78976900  0.00870300  1
  O  O4  1  0.55791600  0.21023100  0.00870300  1
  O  O5  1  0.28976900  0.05791600  0.00870300  1
  O  O6  1  0.78976900  0.55791600  0.99129700  1
  O  O7  1  0.05791600  0.71023100  0.99129700  1
  O  O8  1  0.94208400  0.28976900  0.99129700  1
  O  O9  1  0.21023100  0.44208400  0.99129700  1
  O  O10  1  0.10933000  0.30202100  0.48649400  1
  O  O11  1  0.80202100  0.39067000  0.48649400  1
  O  O12  1  0.19797900  0.60933000  0.48649400  1
  O  O13  1  0.89067000  0.69797900  0.48649400  1
  O  O14  1  0.60933000  0.80202100  0.51350600  1
  O  O15  1  0.69797900  0.10933000  0.51350600  1
  O  O16  1  0.30202100  0.89067000  0.51350600  1
  O  O17  1  0.39067000  0.19797900  0.51350600  1
loop_
_geom_bond_atom_site_label_1
_geom_bond_atom_site_label_2
_geom_bond_distance
_geom_bond_site_symmetry_2
O0 Sb7 2.364987 1_445
O0 Sb0 2.364987 1_545
O0 Sb1 2.364987 1_555
O0 Sb4 2.364987 1_455
O1 Sb2 2.364987 1_555
O1 Sb6 2.364987 1_555
O1 Sb5 2.364987 1_555
O1 Sb3 2.364987 1_555
O2 Sb7 1.906247 1_555
O2 Zn1 2.053614 1_564
O3 Sb6 1.906247 1_555
O3 Zn1 2.053614 1_564
O4 Sb3 1.906247 1_555
O4 Zn1 2.053614 1_554
O5 Sb1 1.906247 1_555
O5 Zn1 2.053614 1_554
O6 Sb2 1.906247 1_555
O6 Zn0 2.053614 1_656
O7 Sb0 1.906247 1_555
O7 Zn0 2.053614 1_556
O8 Sb4 1.906247 1_555
O8 Zn0 2.053614 1_656
O9 Sb5 1.906247 1_555
O9 Zn0 2.053614 1_556
O10 Sb5 2.040720 1_555
O10 Sb4 2.065411 1_455
O10 Sb1 2.432107 1_555
O11 Sb4 2.040720 1_555
O11 Sb2 2.065411 1_555
O11 Sb3 2.432107 1_555
O12 Sb0 2.040720 1_555
O12 Sb5 2.065411 1_555
O12 Sb6 2.432107 1_555
O13 Sb2 2.040720 1_555
O13 Sb0 2.065411 1_655
O13 Sb7 2.432107 1_555
O14 Sb7 2.040720 1_555
O14 Sb6 2.065411 1_555
O14 Sb2 2.432107 1_555
O15 Sb3 2.040720 1_555
O15 Sb7 2.065411 1_545
O15 Sb4 2.432107 1_555
O16 Sb6 2.040720 1_555
O16 Sb1 2.065411 1_565
O16 Sb0 2.432107 1_555
O17 Sb1 2.040720 1_555
O17 Sb3 2.065411 1_555
O17 Sb5 2.432107 1_555
