# generated using pymatgen
data_ZnH2N2O7
_symmetry_space_group_name_H-M   'P 1'
_cell_length_a   6.23678000
_cell_length_b   18.15295200
_cell_length_c   10.04087600
_cell_angle_alpha   90.00000000
_cell_angle_beta   90.00000000
_cell_angle_gamma   90.00000000
_symmetry_Int_Tables_number   1
_chemical_formula_structural   ZnH2N2O7
_chemical_formula_sum   'Zn8 H16 N16 O56'
_cell_volume   1136.78749565
_cell_formula_units_Z   8
loop_
 _symmetry_equiv_pos_site_id
 _symmetry_equiv_pos_as_xyz
  1  'x, y, z'
loop_
 _atom_site_type_symbol
 _atom_site_label
 _atom_site_symmetry_multiplicity
 _atom_site_fract_x
 _atom_site_fract_y
 _atom_site_fract_z
 _atom_site_occupancy
  Zn  Zn0  1  0.53903600  0.34915800  0.09547200  1
  Zn  Zn1  1  0.96096400  0.65084200  0.59547200  1
  Zn  Zn2  1  0.03903600  0.15084200  0.90452800  1
  Zn  Zn3  1  0.46096400  0.84915800  0.40452800  1
  Zn  Zn4  1  0.46096400  0.65084200  0.90452800  1
  Zn  Zn5  1  0.03903600  0.34915800  0.40452800  1
  Zn  Zn6  1  0.96096400  0.84915800  0.09547200  1
  Zn  Zn7  1  0.53903600  0.15084200  0.59547200  1
  H  H0  1  0.28556900  0.43667100  0.96924400  1
  H  H1  1  0.21443100  0.56332900  0.46924400  1
  H  H2  1  0.78556900  0.06332900  0.03075600  1
  H  H3  1  0.71443100  0.93667100  0.53075600  1
  H  H4  1  0.71443100  0.56332900  0.03075600  1
  H  H5  1  0.78556900  0.43667100  0.53075600  1
  H  H6  1  0.21443100  0.93667100  0.96924400  1
  H  H7  1  0.28556900  0.06332900  0.46924400  1
  H  H8  1  0.30116900  0.36432400  0.88244300  1
  H  H9  1  0.19883100  0.63567600  0.38244300  1
  H  H10  1  0.80116900  0.13567600  0.11755700  1
  H  H11  1  0.69883100  0.86432400  0.61755700  1
  H  H12  1  0.69883100  0.63567600  0.11755700  1
  H  H13  1  0.80116900  0.36432400  0.61755700  1
  H  H14  1  0.19883100  0.86432400  0.88244300  1
  H  H15  1  0.30116900  0.13567600  0.38244300  1
  N  N0  1  0.81981800  0.20472400  0.37078800  1
  N  N1  1  0.68018200  0.79527600  0.87078800  1
  N  N2  1  0.31981800  0.29527600  0.62921200  1
  N  N3  1  0.18018200  0.70472400  0.12921200  1
  N  N4  1  0.18018200  0.79527600  0.62921200  1
  N  N5  1  0.31981800  0.20472400  0.12921200  1
  N  N6  1  0.68018200  0.70472400  0.37078800  1
  N  N7  1  0.81981800  0.29527600  0.87078800  1
  N  N8  1  0.84222900  0.44547000  0.16173400  1
  N  N9  1  0.65777100  0.55453000  0.66173400  1
  N  N10  1  0.34222900  0.05453000  0.83826600  1
  N  N11  1  0.15777100  0.94547000  0.33826600  1
  N  N12  1  0.15777100  0.55453000  0.83826600  1
  N  N13  1  0.34222900  0.44547000  0.33826600  1
  N  N14  1  0.65777100  0.94547000  0.16173400  1
  N  N15  1  0.84222900  0.05453000  0.66173400  1
  O  O0  1  0.76383400  0.14853800  0.31017000  1
  O  O1  1  0.73616600  0.85146200  0.81017000  1
  O  O2  1  0.26383400  0.35146200  0.68983000  1
  O  O3  1  0.23616600  0.64853800  0.18983000  1
  O  O4  1  0.23616600  0.85146200  0.68983000  1
  O  O5  1  0.26383400  0.14853800  0.18983000  1
  O  O6  1  0.73616600  0.64853800  0.31017000  1
  O  O7  1  0.76383400  0.35146200  0.81017000  1
  O  O8  1  0.75822700  0.21809100  0.49023400  1
  O  O9  1  0.74177300  0.78190900  0.99023400  1
  O  O10  1  0.25822700  0.28190900  0.50976600  1
  O  O11  1  0.24177300  0.71809100  0.00976600  1
  O  O12  1  0.24177300  0.78190900  0.50976600  1
  O  O13  1  0.25822700  0.21809100  0.00976600  1
  O  O14  1  0.74177300  0.71809100  0.49023400  1
  O  O15  1  0.75822700  0.28190900  0.99023400  1
  O  O16  1  0.94265100  0.25200200  0.31418600  1
  O  O17  1  0.55734900  0.74799800  0.81418600  1
  O  O18  1  0.44265100  0.24799800  0.68581400  1
  O  O19  1  0.05734900  0.75200200  0.18581400  1
  O  O20  1  0.05734900  0.74799800  0.68581400  1
  O  O21  1  0.44265100  0.25200200  0.18581400  1
  O  O22  1  0.55734900  0.75200200  0.31418600  1
  O  O23  1  0.94265100  0.24799800  0.81418600  1
  O  O24  1  0.97582900  0.49296700  0.18523300  1
  O  O25  1  0.52417100  0.50703300  0.68523300  1
  O  O26  1  0.47582900  0.00703300  0.81476700  1
  O  O27  1  0.02417100  0.99296700  0.31476700  1
  O  O28  1  0.02417100  0.50703300  0.81476700  1
  O  O29  1  0.47582900  0.49296700  0.31476700  1
  O  O30  1  0.52417100  0.99296700  0.18523300  1
  O  O31  1  0.97582900  0.00703300  0.68523300  1
  O  O32  1  0.70204200  0.45262500  0.06822700  1
  O  O33  1  0.79795800  0.54737500  0.56822700  1
  O  O34  1  0.20204200  0.04737500  0.93177300  1
  O  O35  1  0.29795800  0.95262500  0.43177300  1
  O  O36  1  0.29795800  0.54737500  0.93177300  1
  O  O37  1  0.20204200  0.45262500  0.43177300  1
  O  O38  1  0.79795800  0.95262500  0.06822700  1
  O  O39  1  0.70204200  0.04737500  0.56822700  1
  O  O40  1  0.82889400  0.38416300  0.22788700  1
  O  O41  1  0.67110600  0.61583700  0.72788700  1
  O  O42  1  0.32889400  0.11583700  0.77211300  1
  O  O43  1  0.17110600  0.88416300  0.27211300  1
  O  O44  1  0.17110600  0.61583700  0.77211300  1
  O  O45  1  0.32889400  0.38416300  0.27211300  1
  O  O46  1  0.67110600  0.88416300  0.22788700  1
  O  O47  1  0.82889400  0.11583700  0.72788700  1
  O  O48  1  0.29694600  0.38265800  0.97505400  1
  O  O49  1  0.20305400  0.61734200  0.47505400  1
  O  O50  1  0.79694600  0.11734200  0.02494600  1
  O  O51  1  0.70305400  0.88265800  0.52494600  1
  O  O52  1  0.70305400  0.61734200  0.02494600  1
  O  O53  1  0.79694600  0.38265800  0.52494600  1
  O  O54  1  0.20305400  0.88265800  0.97505400  1
  O  O55  1  0.29694600  0.11734200  0.47505400  1
loop_
_geom_bond_atom_site_label_1
_geom_bond_atom_site_label_2
_geom_bond_distance
_geom_bond_site_symmetry_2
H0 O48 0.984789 1_555
H1 O49 0.984789 1_555
H2 O50 0.984789 1_555
H3 O51 0.984789 1_555
H4 O52 0.984789 1_555
H5 O53 0.984789 1_555
H6 O54 0.984789 1_555
H7 O55 0.984789 1_555
H8 O48 0.988011 1_555
H9 O49 0.988011 1_555
H10 O50 0.988011 1_555
H11 O51 0.988011 1_555
H12 O52 0.988011 1_555
H13 O53 0.988011 1_555
H14 O54 0.988011 1_555
H15 O55 0.988011 1_555
N0 O0 1.238006 1_555
N0 O8 1.282520 1_555
N0 O16 1.283142 1_555
N1 O1 1.238006 1_555
N1 O9 1.282520 1_555
N1 O17 1.283142 1_555
N2 O2 1.238006 1_555
N2 O10 1.282520 1_555
N2 O18 1.283142 1_555
N3 O3 1.238006 1_555
N3 O11 1.282520 1_555
N3 O19 1.283142 1_555
N4 O4 1.238006 1_555
N4 O12 1.282520 1_555
N4 O20 1.283142 1_555
N5 O5 1.238006 1_555
N5 O13 1.282520 1_555
N5 O21 1.283142 1_555
N6 O6 1.238006 1_555
N6 O14 1.282520 1_555
N6 O22 1.283142 1_555
N7 O7 1.238006 1_555
N7 O15 1.282520 1_555
N7 O23 1.283142 1_555
N8 O24 1.222031 1_555
N8 O32 1.289502 1_555
N8 O40 1.298721 1_555
N9 O25 1.222031 1_555
N9 O33 1.289502 1_555
N9 O41 1.298721 1_555
N10 O26 1.222031 1_555
N10 O34 1.289502 1_555
N10 O42 1.298721 1_555
N11 O27 1.222031 1_555
N11 O35 1.289502 1_555
N11 O43 1.298721 1_555
N12 O28 1.222031 1_555
N12 O36 1.289502 1_555
N12 O44 1.298721 1_555
N13 O29 1.222031 1_555
N13 O37 1.289502 1_555
N13 O45 1.298721 1_555
N14 O30 1.222031 1_555
N14 O38 1.289502 1_555
N14 O46 1.298721 1_555
N15 O31 1.222031 1_555
N15 O39 1.289502 1_555
N15 O47 1.298721 1_555
O8 Zn7 2.115577 1_555
O9 Zn6 2.115577 1_556
O10 Zn5 2.115577 1_555
O11 Zn4 2.115577 1_554
O12 Zn3 2.115577 1_555
O13 Zn2 2.115577 1_554
O14 Zn1 2.115577 1_555
O15 Zn0 2.115577 1_556
O16 Zn5 2.072375 1_655
O17 Zn4 2.072375 1_555
O18 Zn7 2.072375 1_555
O19 Zn6 2.072375 1_455
O20 Zn1 2.072375 1_455
O21 Zn0 2.072375 1_555
O22 Zn3 2.072375 1_555
O23 Zn2 2.072375 1_655
O32 Zn0 2.153168 1_555
O33 Zn1 2.153168 1_555
O34 Zn2 2.153168 1_555
O35 Zn3 2.153168 1_555
O36 Zn4 2.153168 1_555
O37 Zn5 2.153168 1_555
O38 Zn6 2.153168 1_555
O39 Zn7 2.153168 1_555
O40 Zn5 2.295049 1_655
O40 Zn0 2.332294 1_555
O41 Zn4 2.295049 1_555
O41 Zn1 2.332294 1_555
O42 Zn7 2.295049 1_555
O42 Zn2 2.332294 1_555
O43 Zn6 2.295049 1_455
O43 Zn3 2.332294 1_555
O44 Zn1 2.295049 1_455
O44 Zn4 2.332294 1_555
O45 Zn0 2.295049 1_555
O45 Zn5 2.332294 1_555
O46 Zn3 2.295049 1_555
O46 Zn6 2.332294 1_555
O47 Zn2 2.295049 1_655
O47 Zn7 2.332294 1_555
O48 Zn0 2.027665 1_556
O49 Zn1 2.027665 1_455
O50 Zn2 2.027665 1_654
O51 Zn3 2.027665 1_555
O52 Zn4 2.027665 1_554
O53 Zn5 2.027665 1_655
O54 Zn6 2.027665 1_456
O55 Zn7 2.027665 1_555
