# generated using pymatgen
data_Sc5OsCl9
_symmetry_space_group_name_H-M   'P 1'
_cell_length_a   11.77405113
_cell_length_b   11.77405113
_cell_length_c   22.58564082
_cell_angle_alpha   105.10883887
_cell_angle_beta   105.10883887
_cell_angle_gamma   90.00000000
_symmetry_Int_Tables_number   1
_chemical_formula_structural   Sc5OsCl9
_chemical_formula_sum   'Sc40 Os8 Cl72'
_cell_volume   2910.52390363
_cell_formula_units_Z   8
loop_
 _symmetry_equiv_pos_site_id
 _symmetry_equiv_pos_as_xyz
  1  'x, y, z'
loop_
 _atom_site_type_symbol
 _atom_site_label
 _atom_site_symmetry_multiplicity
 _atom_site_fract_x
 _atom_site_fract_y
 _atom_site_fract_z
 _atom_site_occupancy
  Sc  Sc0  1  0.47850539  0.36276436  0.31184944  1
  Sc  Sc1  1  0.83334406  0.44908509  0.31184944  1
  Sc  Sc2  1  0.86276436  0.33334406  0.81184944  1
  Sc  Sc3  1  0.94908509  0.97850539  0.81184944  1
  Sc  Sc4  1  0.52149461  0.63723564  0.68815056  1
  Sc  Sc5  1  0.16665594  0.55091491  0.68815056  1
  Sc  Sc6  1  0.13723564  0.66665594  0.18815056  1
  Sc  Sc7  1  0.05091491  0.02149461  0.18815056  1
  Sc  Sc8  1  0.10413368  0.59264386  0.32464014  1
  Sc  Sc9  1  0.22050646  0.23199629  0.32464014  1
  Sc  Sc10  1  0.09264386  0.72050646  0.82464014  1
  Sc  Sc11  1  0.73199629  0.60413368  0.82464014  1
  Sc  Sc12  1  0.89586632  0.40735614  0.67535986  1
  Sc  Sc13  1  0.77949354  0.76800371  0.67535986  1
  Sc  Sc14  1  0.90735614  0.27949354  0.17535986  1
  Sc  Sc15  1  0.26800371  0.39586632  0.17535986  1
  Sc  Sc16  1  0.39444802  0.63159714  0.30944481  1
  Sc  Sc17  1  0.91499678  0.17784767  0.30944481  1
  Sc  Sc18  1  0.13159714  0.41499678  0.80944481  1
  Sc  Sc19  1  0.67784767  0.89444802  0.80944481  1
  Sc  Sc20  1  0.60555198  0.36840286  0.69055519  1
  Sc  Sc21  1  0.08500322  0.82215233  0.69055519  1
  Sc  Sc22  1  0.86840286  0.58500322  0.19055519  1
  Sc  Sc23  1  0.32215233  0.10555198  0.19055519  1
  Sc  Sc24  1  0.35506892  0.50829402  0.42218977  1
  Sc  Sc25  1  0.06712085  0.41389575  0.42218977  1
  Sc  Sc26  1  0.00829402  0.56712085  0.92218977  1
  Sc  Sc27  1  0.91389575  0.85506892  0.92218977  1
  Sc  Sc28  1  0.64493108  0.49170598  0.57781023  1
  Sc  Sc29  1  0.93287915  0.58610425  0.57781023  1
  Sc  Sc30  1  0.99170598  0.43287915  0.07781023  1
  Sc  Sc31  1  0.08610425  0.14493108  0.07781023  1
  Sc  Sc32  1  0.56696879  0.91756999  0.43445226  1
  Sc  Sc33  1  0.86748347  0.01688227  0.43445226  1
  Sc  Sc34  1  0.41756999  0.36748347  0.93445226  1
  Sc  Sc35  1  0.51688227  0.06696879  0.93445226  1
  Sc  Sc36  1  0.43303121  0.08243001  0.56554774  1
  Sc  Sc37  1  0.13251653  0.98311773  0.56554774  1
  Sc  Sc38  1  0.58243001  0.63251653  0.06554774  1
  Sc  Sc39  1  0.48311773  0.93303121  0.06554774  1
  Os  Os0  1  0.27024926  0.43969249  0.30024550  1
  Os  Os1  1  0.02999624  0.36055301  0.30024550  1
  Os  Os2  1  0.93969249  0.52999624  0.80024550  1
  Os  Os3  1  0.86055301  0.77024926  0.80024550  1
  Os  Os4  1  0.72975074  0.56030751  0.69975450  1
  Os  Os5  1  0.97000376  0.63944699  0.69975450  1
  Os  Os6  1  0.06030751  0.47000376  0.19975450  1
  Os  Os7  1  0.13944699  0.22975074  0.19975450  1
  Cl  Cl0  1  0.45810725  0.28194945  0.19013188  1
  Cl  Cl1  1  0.73202464  0.40818244  0.19013188  1
  Cl  Cl2  1  0.78194945  0.23202464  0.69013188  1
  Cl  Cl3  1  0.90818244  0.95810725  0.69013188  1
  Cl  Cl4  1  0.54189275  0.71805055  0.80986812  1
  Cl  Cl5  1  0.26797536  0.59181756  0.80986812  1
  Cl  Cl6  1  0.21805055  0.76797536  0.30986812  1
  Cl  Cl7  1  0.09181756  0.04189275  0.30986812  1
  Cl  Cl8  1  0.17890970  0.62053664  0.44904469  1
  Cl  Cl9  1  0.27013499  0.32850805  0.44904469  1
  Cl  Cl10  1  0.12053664  0.77013499  0.94904469  1
  Cl  Cl11  1  0.82850805  0.67890970  0.94904469  1
  Cl  Cl12  1  0.82109030  0.37946336  0.55095531  1
  Cl  Cl13  1  0.72986501  0.67149195  0.55095531  1
  Cl  Cl14  1  0.87946336  0.22986501  0.05095531  1
  Cl  Cl15  1  0.17149195  0.32109030  0.05095531  1
  Cl  Cl16  1  0.55160428  0.41611562  0.43620425  1
  Cl  Cl17  1  0.88459997  0.52008863  0.43620425  1
  Cl  Cl18  1  0.91611562  0.38459997  0.93620425  1
  Cl  Cl19  1  0.02008863  0.05160428  0.93620425  1
  Cl  Cl20  1  0.44839572  0.58388438  0.56379575  1
  Cl  Cl21  1  0.11540003  0.47991137  0.56379575  1
  Cl  Cl22  1  0.08388438  0.61540003  0.06379575  1
  Cl  Cl23  1  0.97991137  0.94839572  0.06379575  1
  Cl  Cl24  1  0.42302973  0.14851245  0.31178329  1
  Cl  Cl25  1  0.88875356  0.66327084  0.31178329  1
  Cl  Cl26  1  0.64851245  0.38875356  0.81178329  1
  Cl  Cl27  1  0.16327084  0.92302973  0.81178329  1
  Cl  Cl28  1  0.57697027  0.85148755  0.68821671  1
  Cl  Cl29  1  0.11124644  0.33672916  0.68821671  1
  Cl  Cl30  1  0.35148755  0.61124644  0.18821671  1
  Cl  Cl31  1  0.83672916  0.07697027  0.18821671  1
  Cl  Cl32  1  0.50730399  0.84140951  0.32034173  1
  Cl  Cl33  1  0.81303774  0.97893222  0.32034173  1
  Cl  Cl34  1  0.34140951  0.31303774  0.82034173  1
  Cl  Cl35  1  0.47893222  0.00730399  0.82034173  1
  Cl  Cl36  1  0.49269601  0.15859049  0.67965827  1
  Cl  Cl37  1  0.18696226  0.02106778  0.67965827  1
  Cl  Cl38  1  0.65859049  0.68696226  0.17965827  1
  Cl  Cl39  1  0.52106778  0.99269601  0.17965827  1
  Cl  Cl40  1  0.46384848  0.71577442  0.43288316  1
  Cl  Cl41  1  0.96903469  0.21710874  0.43288316  1
  Cl  Cl42  1  0.21577442  0.46903469  0.93288316  1
  Cl  Cl43  1  0.71710874  0.96384848  0.93288316  1
  Cl  Cl44  1  0.53615152  0.28422558  0.56711684  1
  Cl  Cl45  1  0.03096531  0.78289126  0.56711684  1
  Cl  Cl46  1  0.78422558  0.53096531  0.06711684  1
  Cl  Cl47  1  0.28289126  0.03615152  0.06711684  1
  Cl  Cl48  1  0.59857425  0.54421902  0.31491627  1
  Cl  Cl49  1  0.71634202  0.27069726  0.31491627  1
  Cl  Cl50  1  0.04421901  0.21634202  0.81491627  1
  Cl  Cl51  1  0.77069726  0.09857425  0.81491627  1
  Cl  Cl52  1  0.40142575  0.45578098  0.68508373  1
  Cl  Cl53  1  0.28365798  0.72930274  0.68508373  1
  Cl  Cl54  1  0.95578099  0.78365798  0.18508373  1
  Cl  Cl55  1  0.22930274  0.90142575  0.18508373  1
  Cl  Cl56  1  0.38765629  0.02690845  0.44391493  1
  Cl  Cl57  1  0.05625864  0.91700648  0.44391493  1
  Cl  Cl58  1  0.52690845  0.55625864  0.94391493  1
  Cl  Cl59  1  0.41700648  0.88765629  0.94391493  1
  Cl  Cl60  1  0.61234371  0.97309155  0.55608507  1
  Cl  Cl61  1  0.94374136  0.08299352  0.55608507  1
  Cl  Cl62  1  0.47309155  0.44374136  0.05608507  1
  Cl  Cl63  1  0.58299352  0.11234371  0.05608507  1
  Cl  Cl64  1  0.76542667  0.83597540  0.44075105  1
  Cl  Cl65  1  0.67532438  0.10477565  0.44075105  1
  Cl  Cl66  1  0.33597540  0.17532438  0.94075105  1
  Cl  Cl67  1  0.60477565  0.26542667  0.94075105  1
  Cl  Cl68  1  0.23457333  0.16402460  0.55924895  1
  Cl  Cl69  1  0.32467562  0.89522435  0.55924895  1
  Cl  Cl70  1  0.66402460  0.82467562  0.05924895  1
  Cl  Cl71  1  0.39522435  0.73457333  0.05924895  1
loop_
_geom_bond_atom_site_label_1
_geom_bond_atom_site_label_2
_geom_bond_distance
_geom_bond_site_symmetry_2
Os0 Sc24 2.577157 1_555
Os0 Sc0 2.586545 1_555
Os0 Sc16 2.623691 1_555
Os0 Sc8 2.723331 1_555
Os0 Sc15 2.724931 1_555
Os0 Sc9 2.738118 1_555
Os1 Sc25 2.577157 1_555
Os1 Sc1 2.586545 1_455
Os1 Sc17 2.623691 1_455
Os1 Sc9 2.723331 1_555
Os1 Sc14 2.724932 1_455
Os1 Sc8 2.738118 1_555
Os2 Sc26 2.577157 1_655
Os2 Sc2 2.586545 1_555
Os2 Sc18 2.623691 1_655
Os2 Sc10 2.723331 1_655
Os2 Sc12 2.724932 1_555
Os2 Sc11 2.738118 1_555
Os3 Sc27 2.577157 1_555
Os3 Sc3 2.586545 1_555
Os3 Sc19 2.623691 1_555
Os3 Sc11 2.723331 1_555
Os3 Sc13 2.724932 1_555
Os3 Sc10 2.738118 1_655
Os4 Sc28 2.577157 1_555
Os4 Sc4 2.586545 1_555
Os4 Sc20 2.623691 1_555
Os4 Sc12 2.723331 1_555
Os4 Sc11 2.724931 1_555
Os4 Sc13 2.738118 1_555
Os5 Sc29 2.577157 1_555
Os5 Sc5 2.586545 1_655
Os5 Sc21 2.623691 1_655
Os5 Sc13 2.723331 1_555
Os5 Sc10 2.724932 1_655
Os5 Sc12 2.738118 1_555
Os6 Sc30 2.577157 1_455
Os6 Sc6 2.586545 1_555
Os6 Sc22 2.623691 1_455
Os6 Sc14 2.723331 1_455
Os6 Sc8 2.724932 1_555
Os6 Sc15 2.738118 1_555
Os7 Sc31 2.577157 1_555
Os7 Sc7 2.586545 1_555
Os7 Sc23 2.623691 1_555
Os7 Sc15 2.723331 1_555
Os7 Sc9 2.724932 1_555
Os7 Sc14 2.738118 1_455
Cl0 Sc15 2.600811 1_555
Cl0 Sc0 2.610102 1_555
Cl0 Sc23 2.625711 1_555
Cl1 Sc14 2.600811 1_555
Cl1 Sc1 2.610102 1_555
Cl1 Sc22 2.625711 1_555
Cl2 Sc12 2.600811 1_555
Cl2 Sc2 2.610102 1_555
Cl2 Sc20 2.625711 1_555
Cl3 Sc13 2.600811 1_555
Cl3 Sc3 2.610102 1_555
Cl3 Sc21 2.625711 1_655
Cl4 Sc11 2.600811 1_555
Cl4 Sc4 2.610102 1_555
Cl4 Sc19 2.625711 1_555
Cl5 Sc10 2.600811 1_555
Cl5 Sc5 2.610102 1_555
Cl5 Sc18 2.625711 1_555
Cl6 Sc8 2.600811 1_555
Cl6 Sc6 2.610102 1_555
Cl6 Sc16 2.625711 1_555
Cl7 Sc9 2.600811 1_555
Cl7 Sc7 2.610102 1_555
Cl7 Sc17 2.625711 1_455
Cl8 Sc24 2.579584 1_555
Cl8 Sc25 2.614252 1_555
Cl8 Sc8 2.647092 1_555
Cl9 Sc25 2.579584 1_555
Cl9 Sc24 2.614252 1_555
Cl9 Sc9 2.647092 1_555
Cl10 Sc26 2.579584 1_555
Cl10 Sc27 2.614252 1_455
Cl10 Sc10 2.647092 1_555
Cl11 Sc27 2.579584 1_555
Cl11 Sc26 2.614252 1_655
Cl11 Sc11 2.647092 1_555
Cl12 Sc28 2.579584 1_555
Cl12 Sc29 2.614252 1_555
Cl12 Sc12 2.647092 1_555
Cl13 Sc29 2.579584 1_555
Cl13 Sc28 2.614252 1_555
Cl13 Sc13 2.647092 1_555
Cl14 Sc30 2.579584 1_555
Cl14 Sc31 2.614252 1_655
Cl14 Sc14 2.647092 1_555
Cl15 Sc31 2.579584 1_555
Cl15 Sc30 2.614252 1_455
Cl15 Sc15 2.647092 1_555
Cl16 Sc24 2.535749 1_555
Cl16 Sc0 2.616080 1_555
Cl16 Sc28 2.985378 1_555
Cl17 Sc25 2.535749 1_655
Cl17 Sc1 2.616080 1_555
Cl17 Sc29 2.985378 1_555
Cl18 Sc26 2.535749 1_655
Cl18 Sc2 2.616080 1_555
Cl18 Sc30 2.985378 1_556
Cl19 Sc27 2.535749 1_445
Cl19 Sc3 2.616080 1_445
Cl19 Sc31 2.985378 1_556
Cl20 Sc28 2.535749 1_555
Cl20 Sc4 2.616080 1_555
Cl20 Sc24 2.985378 1_555
Cl21 Sc29 2.535749 1_455
Cl21 Sc5 2.616080 1_555
Cl21 Sc25 2.985378 1_555
Cl22 Sc30 2.535749 1_455
Cl22 Sc6 2.616080 1_555
Cl22 Sc26 2.985378 1_554
Cl23 Sc31 2.535749 1_665
Cl23 Sc7 2.616080 1_665
Cl23 Sc27 2.985378 1_554
Cl24 Sc23 2.597307 1_555
Cl24 Sc0 2.605329 1_555
Cl24 Sc9 2.636019 1_555
Cl25 Sc22 2.597307 1_555
Cl25 Sc1 2.605329 1_555
Cl25 Sc8 2.636019 1_655
Cl26 Sc20 2.597307 1_555
Cl26 Sc2 2.605329 1_555
Cl26 Sc11 2.636019 1_555
Cl27 Sc21 2.597307 1_555
Cl27 Sc3 2.605329 1_455
Cl27 Sc10 2.636019 1_555
Cl28 Sc19 2.597307 1_555
Cl28 Sc4 2.605329 1_555
Cl28 Sc13 2.636019 1_555
Cl29 Sc18 2.597307 1_555
Cl29 Sc5 2.605329 1_555
Cl29 Sc12 2.636019 1_455
Cl30 Sc16 2.597307 1_555
Cl30 Sc6 2.605329 1_555
Cl30 Sc15 2.636019 1_555
Cl31 Sc17 2.597307 1_555
Cl31 Sc7 2.605329 1_655
Cl31 Sc14 2.636019 1_555
Cl32 Sc32 2.406503 1_555
Cl32 Sc16 2.727887 1_555
Cl33 Sc33 2.406503 1_565
Cl33 Sc17 2.727886 1_565
Cl34 Sc34 2.406503 1_555
Cl34 Sc18 2.727886 1_555
Cl35 Sc35 2.406503 1_555
Cl35 Sc19 2.727887 1_545
Cl36 Sc36 2.406503 1_555
Cl36 Sc20 2.727887 1_555
Cl37 Sc37 2.406503 1_545
Cl37 Sc21 2.727886 1_545
Cl38 Sc38 2.406503 1_555
Cl38 Sc22 2.727886 1_555
Cl39 Sc39 2.406503 1_555
Cl39 Sc23 2.727887 1_565
Cl40 Sc16 2.606633 1_555
Cl40 Sc32 2.655978 1_555
Cl40 Sc24 2.682830 1_555
Cl41 Sc17 2.606633 1_555
Cl41 Sc33 2.655978 1_555
Cl41 Sc25 2.682830 1_655
Cl42 Sc18 2.606633 1_555
Cl42 Sc34 2.655978 1_555
Cl42 Sc26 2.682830 1_555
Cl43 Sc19 2.606633 1_555
Cl43 Sc35 2.655978 1_565
Cl43 Sc27 2.682830 1_555
Cl44 Sc20 2.606633 1_555
Cl44 Sc36 2.655978 1_555
Cl44 Sc28 2.682830 1_555
Cl45 Sc21 2.606633 1_555
Cl45 Sc37 2.655978 1_555
Cl45 Sc29 2.682830 1_455
Cl46 Sc22 2.606633 1_555
Cl46 Sc38 2.655978 1_555
Cl46 Sc30 2.682830 1_555
Cl47 Sc23 2.606633 1_555
Cl47 Sc39 2.655978 1_545
Cl47 Sc31 2.682830 1_555
Cl48 Sc0 2.537635 1_555
Cl48 Sc16 2.600275 1_555
Cl48 Sc1 2.993254 1_555
Cl49 Sc1 2.537635 1_555
Cl49 Sc17 2.600275 1_555
Cl49 Sc0 2.993254 1_555
Cl50 Sc2 2.537635 1_455
Cl50 Sc18 2.600275 1_555
Cl50 Sc3 2.993254 1_445
Cl51 Sc3 2.537635 1_545
Cl51 Sc19 2.600275 1_545
Cl51 Sc2 2.993254 1_555
Cl52 Sc4 2.537635 1_555
Cl52 Sc20 2.600275 1_555
Cl52 Sc5 2.993254 1_555
Cl53 Sc5 2.537635 1_555
Cl53 Sc21 2.600275 1_555
Cl53 Sc4 2.993254 1_555
Cl54 Sc6 2.537635 1_655
Cl54 Sc22 2.600275 1_555
Cl54 Sc7 2.993254 1_665
Cl55 Sc7 2.537635 1_565
Cl55 Sc23 2.600275 1_565
Cl55 Sc6 2.993254 1_555
Cl56 Sc32 2.500413 1_545
Cl56 Sc36 2.560924 1_555
Cl57 Sc33 2.500413 1_465
Cl57 Sc37 2.560924 1_555
Cl58 Sc34 2.500413 1_555
Cl58 Sc38 2.560924 1_556
Cl59 Sc35 2.500413 1_565
Cl59 Sc39 2.560924 1_556
Cl60 Sc36 2.500413 1_565
Cl60 Sc32 2.560924 1_555
Cl61 Sc37 2.500413 1_645
Cl61 Sc33 2.560924 1_555
Cl62 Sc38 2.500413 1_555
Cl62 Sc34 2.560924 1_554
Cl63 Sc39 2.500413 1_545
Cl63 Sc35 2.560924 1_554
Cl64 Sc33 2.499629 1_565
Cl64 Sc32 2.510196 1_555
Cl65 Sc32 2.499629 1_545
Cl65 Sc33 2.510196 1_555
Cl66 Sc35 2.499629 1_555
Cl66 Sc34 2.510196 1_555
Cl67 Sc34 2.499629 1_555
Cl67 Sc35 2.510196 1_555
Cl68 Sc37 2.499629 1_545
Cl68 Sc36 2.510196 1_555
Cl69 Sc36 2.499629 1_565
Cl69 Sc37 2.510196 1_555
Cl70 Sc39 2.499629 1_555
Cl70 Sc38 2.510196 1_555
Cl71 Sc38 2.499629 1_555
Cl71 Sc39 2.510196 1_555
