# generated using pymatgen
data_Cr3GaP4
_symmetry_space_group_name_H-M   'P 1'
_cell_length_a   5.44113600
_cell_length_b   5.44113600
_cell_length_c   5.44113600
_cell_angle_alpha   90.00000000
_cell_angle_beta   90.00000000
_cell_angle_gamma   90.00000000
_symmetry_Int_Tables_number   1
_chemical_formula_structural   Cr3GaP4
_chemical_formula_sum   'Cr3 Ga1 P4'
_cell_volume   161.09006005
_cell_formula_units_Z   1
loop_
 _symmetry_equiv_pos_site_id
 _symmetry_equiv_pos_as_xyz
  1  'x, y, z'
loop_
 _atom_site_type_symbol
 _atom_site_label
 _atom_site_symmetry_multiplicity
 _atom_site_fract_x
 _atom_site_fract_y
 _atom_site_fract_z
 _atom_site_occupancy
  Cr  Cr0  1  0.50000000  0.50000000  0.00000000  1
  Cr  Cr1  1  0.50000000  0.00000000  0.50000000  1
  Cr  Cr2  1  0.00000000  0.50000000  0.50000000  1
  Ga  Ga0  1  0.00000000  0.00000000  0.00000000  1
  P  P0  1  0.74596300  0.74596300  0.25403700  1
  P  P1  1  0.74596300  0.25403700  0.74596300  1
  P  P2  1  0.25403700  0.74596300  0.74596300  1
  P  P3  1  0.25403700  0.25403700  0.25403700  1
loop_
_geom_bond_atom_site_label_1
_geom_bond_atom_site_label_2
_geom_bond_distance
_geom_bond_site_symmetry_2
Cr0 P3 2.343674 1_555
Cr0 P2 2.343674 1_554
Cr0 P0 2.343674 1_555
Cr0 P1 2.343674 1_554
Cr1 P3 2.343674 1_555
Cr1 P2 2.343674 1_545
Cr1 P0 2.343674 1_545
Cr1 P1 2.343674 1_555
Cr2 P3 2.343674 1_555
Cr2 P1 2.343674 1_455
Cr2 P0 2.343674 1_455
Cr2 P2 2.343674 1_555
Ga0 P0 2.394127 1_445
Ga0 P3 2.394127 1_555
Ga0 P1 2.394127 1_454
Ga0 P2 2.394127 1_544
