# generated using pymatgen
data_K2TeSO10
_symmetry_space_group_name_H-M   'P 1'
_cell_length_a   6.25215600
_cell_length_b   6.95047482
_cell_length_c   12.67664431
_cell_angle_alpha   79.87696558
_cell_angle_beta   81.83218899
_cell_angle_gamma   66.20173364
_symmetry_Int_Tables_number   1
_chemical_formula_structural   K2TeSO10
_chemical_formula_sum   'K4 Te2 S2 O20'
_cell_volume   494.63308155
_cell_formula_units_Z   2
loop_
 _symmetry_equiv_pos_site_id
 _symmetry_equiv_pos_as_xyz
  1  'x, y, z'
loop_
 _atom_site_type_symbol
 _atom_site_label
 _atom_site_symmetry_multiplicity
 _atom_site_fract_x
 _atom_site_fract_y
 _atom_site_fract_z
 _atom_site_occupancy
  K  K0  1  0.91904700  0.90463600  0.35350600  1
  K  K1  1  0.08095300  0.09536400  0.64649400  1
  K  K2  1  0.68575900  0.60294600  0.13898000  1
  K  K3  1  0.31424100  0.39705400  0.86102000  1
  Te  Te0  1  0.00000000  0.00000000  0.00000000  1
  Te  Te1  1  0.50000000  0.50000000  0.50000000  1
  S  S0  1  0.25099400  0.29403300  0.24830000  1
  S  S1  1  0.74900600  0.70596700  0.75170000  1
  O  O0  1  0.91503100  0.30300500  0.98730100  1
  O  O1  1  0.08496900  0.69699500  0.01269900  1
  O  O2  1  0.28250700  0.92177800  0.07099800  1
  O  O3  1  0.71749300  0.07822200  0.92900200  1
  O  O4  1  0.83899500  0.93873900  0.13516600  1
  O  O5  1  0.16100500  0.06126100  0.86483400  1
  O  O6  1  0.78925100  0.27641800  0.46130600  1
  O  O7  1  0.21074900  0.72358200  0.53869400  1
  O  O8  1  0.70452400  0.65446300  0.48585600  1
  O  O9  1  0.29547600  0.34553700  0.51414400  1
  O  O10  1  0.47244100  0.64215800  0.35448000  1
  O  O11  1  0.52755900  0.35784200  0.64552000  1
  O  O12  1  0.40525600  0.35246600  0.15827600  1
  O  O13  1  0.59474400  0.64753400  0.84172400  1
  O  O14  1  0.41126000  0.14782500  0.32985100  1
  O  O15  1  0.58874000  0.85217500  0.67014900  1
  O  O16  1  0.11194200  0.19124000  0.21255200  1
  O  O17  1  0.88805800  0.80876000  0.78744800  1
  O  O18  1  0.08454600  0.49311200  0.28855800  1
  O  O19  1  0.91545400  0.50688800  0.71144200  1
loop_
_geom_bond_atom_site_label_1
_geom_bond_atom_site_label_2
_geom_bond_distance
_geom_bond_site_symmetry_2
K0 O8 2.802585 1_555
K0 O4 2.834565 1_555
K0 O18 2.850790 1_655
K0 O6 2.904690 1_565
K0 O16 2.947998 1_665
K0 O7 2.957475 1_655
K0 O14 2.964402 1_565
K0 O10 3.195231 1_655
K1 O9 2.802585 1_555
K1 O5 2.834565 1_555
K1 O19 2.850790 1_455
K1 O7 2.904690 1_545
K1 O17 2.947998 1_445
K1 O6 2.957475 1_455
K1 O15 2.964402 1_545
K1 O11 3.195231 1_455
K2 O2 2.728919 1_555
K2 O4 2.849406 1_555
K2 O10 2.872101 1_555
K2 O0 2.883084 1_554
K2 O12 2.891165 1_555
K2 O1 3.005515 1_655
K2 O18 3.113359 1_655
K2 O16 3.126133 1_655
K3 O3 2.728919 1_555
K3 O5 2.849406 1_555
K3 O11 2.872101 1_555
K3 O1 2.883084 1_556
K3 O13 2.891165 1_555
K3 O0 3.005515 1_455
K3 O19 3.113359 1_455
K3 O17 3.126133 1_455
O0 Te0 1.935379 1_656
O1 Te0 1.935379 1_565
O2 Te0 1.931336 1_565
O3 Te0 1.931336 1_656
O4 Te0 1.931285 1_665
O5 Te0 1.931285 1_556
O6 Te1 1.916729 1_555
O7 Te1 1.916729 1_555
O8 Te1 1.948066 1_555
O9 Te1 1.948066 1_555
O10 Te1 1.929015 1_555
O11 Te1 1.929015 1_555
O12 S0 1.495975 1_555
O13 S1 1.495975 1_555
O14 S0 1.486174 1_555
O15 S1 1.486174 1_555
O16 S0 1.482787 1_555
O17 S1 1.482787 1_555
O18 S0 1.480963 1_555
O19 S1 1.480963 1_555
