# generated using pymatgen
data_Li4Mn3O7
_symmetry_space_group_name_H-M   'P 1'
_cell_length_a   5.07744100
_cell_length_b   5.28039680
_cell_length_c   10.18821875
_cell_angle_alpha   96.11953990
_cell_angle_beta   101.49717573
_cell_angle_gamma   102.30032238
_symmetry_Int_Tables_number   1
_chemical_formula_structural   Li4Mn3O7
_chemical_formula_sum   'Li8 Mn6 O14'
_cell_volume   258.34055132
_cell_formula_units_Z   2
loop_
 _symmetry_equiv_pos_site_id
 _symmetry_equiv_pos_as_xyz
  1  'x, y, z'
loop_
 _atom_site_type_symbol
 _atom_site_label
 _atom_site_symmetry_multiplicity
 _atom_site_fract_x
 _atom_site_fract_y
 _atom_site_fract_z
 _atom_site_occupancy
  Li  Li0  1  0.26931400  0.08824200  0.57217300  1
  Li  Li1  1  0.86559100  0.21014000  0.70582900  1
  Li  Li2  1  0.42403900  0.36807700  0.85822000  1
  Li  Li3  1  0.13440900  0.78986000  0.29417100  1
  Li  Li4  1  0.73068600  0.91175800  0.42782700  1
  Li  Li5  1  0.00000000  0.50000000  0.00000000  1
  Li  Li6  1  0.57596100  0.63192300  0.14178000  1
  Li  Li7  1  0.00000000  0.50000000  0.50000000  1
  Mn  Mn0  1  0.56853400  0.62586300  0.63786600  1
  Mn  Mn1  1  0.43146600  0.37413700  0.36213400  1
  Mn  Mn2  1  0.14226300  0.76760300  0.77771500  1
  Mn  Mn3  1  0.71670200  0.92560000  0.92650300  1
  Mn  Mn4  1  0.28329800  0.07440000  0.07349700  1
  Mn  Mn5  1  0.85773700  0.23239700  0.22228500  1
  O  O0  1  0.37676400  0.68157400  0.46451600  1
  O  O1  1  0.92052600  0.84798500  0.61806600  1
  O  O2  1  0.50260400  0.94736800  0.74238400  1
  O  O3  1  0.20699900  0.43230800  0.19341100  1
  O  O4  1  0.75942500  0.56943200  0.32541400  1
  O  O5  1  0.06643200  0.13585600  0.90369900  1
  O  O6  1  0.63309500  0.27507700  0.04548200  1
  O  O7  1  0.24057500  0.43056800  0.67458600  1
  O  O8  1  0.79300100  0.56769200  0.80658900  1
  O  O9  1  0.36690500  0.72492300  0.95451800  1
  O  O10  1  0.07947400  0.15201500  0.38193400  1
  O  O11  1  0.62323600  0.31842600  0.53548400  1
  O  O12  1  0.93356800  0.86414400  0.09630100  1
  O  O13  1  0.49739600  0.05263200  0.25761600  1
loop_
_geom_bond_atom_site_label_1
_geom_bond_atom_site_label_2
_geom_bond_distance
_geom_bond_site_symmetry_2
Li0 O7 2.036768 1_555
Li0 O11 2.068902 1_555
Li0 O10 2.081301 1_555
Li0 O1 2.112737 1_445
Li0 O2 2.189815 1_545
Li0 O0 2.519409 1_545
Li1 O7 2.111284 1_655
Li1 O1 2.120473 1_545
Li1 O11 2.124432 1_555
Li1 O2 2.180596 1_545
Li1 O5 2.185704 1_655
Li1 O8 2.188236 1_555
Li2 O7 2.011157 1_555
Li2 O5 2.126748 1_555
Li2 O9 2.132949 1_555
Li2 O8 2.137054 1_555
Li2 O6 2.149971 1_556
Li2 O2 2.548195 1_545
Li3 O4 2.111284 1_455
Li3 O10 2.120473 1_565
Li3 O0 2.124432 1_555
Li3 O13 2.180596 1_565
Li3 O12 2.185704 1_455
Li3 O3 2.188236 1_555
Li4 O4 2.036768 1_555
Li4 O0 2.068902 1_555
Li4 O1 2.081301 1_555
Li4 O10 2.112737 1_665
Li4 O13 2.189815 1_565
Li4 O11 2.519409 1_565
Li5 O8 2.144755 1_454
Li5 O3 2.144755 1_555
Li5 O6 2.148161 1_455
Li5 O9 2.148161 1_554
Li5 O12 2.186252 1_455
Li5 O5 2.186252 1_554
Li6 O4 2.011157 1_555
Li6 O12 2.126748 1_555
Li6 O6 2.132949 1_555
Li6 O3 2.137054 1_555
Li6 O9 2.149971 1_554
Li6 O13 2.548195 1_565
Li7 O7 2.062537 1_555
Li7 O4 2.062537 1_455
Li7 O0 2.068244 1_555
Li7 O11 2.068244 1_455
Li7 O1 2.241502 1_455
Li7 O10 2.241502 1_555
Mn0 O7 1.890823 1_555
Mn0 O0 1.923831 1_555
Mn0 O11 1.935754 1_555
Mn0 O8 1.956773 1_555
Mn0 O1 1.977764 1_555
Mn0 O2 2.031472 1_555
Mn1 O4 1.890823 1_555
Mn1 O11 1.923831 1_555
Mn1 O0 1.935754 1_555
Mn1 O3 1.956773 1_555
Mn1 O10 1.977764 1_555
Mn1 O13 2.031472 1_555
Mn2 O1 1.927208 1_455
Mn2 O8 1.955050 1_455
Mn2 O2 1.993365 1_555
Mn2 O9 1.993369 1_555
Mn2 O7 2.170095 1_555
Mn2 O5 2.358132 1_565
Mn3 O5 1.954302 1_665
Mn3 O12 1.955263 1_556
Mn3 O9 1.955367 1_555
Mn3 O2 2.000010 1_555
Mn3 O6 2.262078 1_566
Mn3 O8 2.285326 1_555
Mn4 O12 1.954302 1_445
Mn4 O5 1.955263 1_554
Mn4 O6 1.955367 1_555
Mn4 O13 2.000010 1_555
Mn4 O9 2.262078 1_544
Mn4 O3 2.285326 1_555
Mn5 O10 1.927208 1_655
Mn5 O3 1.955050 1_655
Mn5 O13 1.993365 1_555
Mn5 O6 1.993369 1_555
Mn5 O4 2.170095 1_555
Mn5 O12 2.358132 1_545
