# generated using pymatgen
data_SrNbO3
_symmetry_space_group_name_H-M   'P 1'
_cell_length_a   5.72665767
_cell_length_b   5.73016776
_cell_length_c   8.13508265
_cell_angle_alpha   90.00000000
_cell_angle_beta   90.00000000
_cell_angle_gamma   90.00000000
_symmetry_Int_Tables_number   1
_chemical_formula_structural   SrNbO3
_chemical_formula_sum   'Sr4 Nb4 O12'
_cell_volume   266.95037110
_cell_formula_units_Z   4
loop_
 _symmetry_equiv_pos_site_id
 _symmetry_equiv_pos_as_xyz
  1  'x, y, z'
loop_
 _atom_site_type_symbol
 _atom_site_label
 _atom_site_symmetry_multiplicity
 _atom_site_fract_x
 _atom_site_fract_y
 _atom_site_fract_z
 _atom_site_occupancy
  Sr  Sr0  1  0.00036389  0.98259447  0.75000000  1
  Sr  Sr1  1  0.49963611  0.48259447  0.75000000  1
  Sr  Sr2  1  0.50036389  0.51740553  0.25000000  1
  Sr  Sr3  1  0.99963611  0.01740553  0.25000000  1
  Nb  Nb0  1  0.50000000  0.00000000  0.50000000  1
  Nb  Nb1  1  0.00000000  0.50000000  -0.00000000  1
  Nb  Nb2  1  0.00000000  0.50000000  0.50000000  1
  Nb  Nb3  1  0.50000000  0.00000000  -0.00000000  1
  O  O0  1  0.71890513  0.28091086  0.48101357  1
  O  O1  1  0.78109487  0.78091086  0.01898643  1
  O  O2  1  0.21890513  0.21908914  0.51898643  1
  O  O3  1  0.28109487  0.71908914  0.98101357  1
  O  O4  1  0.28109487  0.71908914  0.51898643  1
  O  O5  1  0.21890513  0.21908914  0.98101357  1
  O  O6  1  0.78109487  0.78091086  0.48101357  1
  O  O7  1  0.71890513  0.28091086  0.01898643  1
  O  O8  1  0.03758898  0.49434682  0.25000000  1
  O  O9  1  0.46241102  0.99434682  0.25000000  1
  O  O10  1  0.53758898  0.00565318  0.75000000  1
  O  O11  1  0.96241102  0.50565318  0.75000000  1
loop_
_geom_bond_atom_site_label_1
_geom_bond_atom_site_label_2
_geom_bond_distance
_geom_bond_site_symmetry_2
Nb0 O9 2.045387 1_545
Nb0 O10 2.045387 1_555
Nb0 O4 2.046065 1_545
Nb0 O0 2.046065 1_555
Nb0 O6 2.047236 1_545
Nb0 O2 2.047236 1_555
Nb1 O11 2.045387 1_454
Nb1 O8 2.045387 1_555
Nb1 O5 2.046065 1_554
Nb1 O1 2.046065 1_455
Nb1 O7 2.047236 1_455
Nb1 O3 2.047236 1_554
Nb2 O11 2.045387 1_455
Nb2 O8 2.045387 1_555
Nb2 O2 2.046065 1_555
Nb2 O6 2.046065 1_455
Nb2 O4 2.047236 1_555
Nb2 O0 2.047236 1_455
Nb3 O10 2.045387 1_554
Nb3 O9 2.045387 1_545
Nb3 O7 2.046065 1_555
Nb3 O3 2.046065 1_544
Nb3 O5 2.047236 1_554
Nb3 O1 2.047236 1_545
O0 Sr2 2.633352 1_555
O0 Sr1 2.775007 1_555
O0 Sr3 2.897628 1_555
O0 Sr0 3.210662 1_645
O1 Sr3 2.633352 1_565
O1 Sr0 2.775007 1_654
O1 Sr2 2.897628 1_555
O1 Sr1 3.210662 1_554
O2 Sr0 2.633352 1_545
O2 Sr3 2.775007 1_455
O2 Sr1 2.897628 1_555
O2 Sr2 3.210662 1_555
O3 Sr1 2.633352 1_555
O3 Sr2 2.775007 1_556
O3 Sr0 2.897628 1_555
O3 Sr3 3.210662 1_466
O4 Sr1 2.633352 1_555
O4 Sr2 2.775007 1_555
O4 Sr0 2.897628 1_555
O4 Sr3 3.210662 1_465
O5 Sr0 2.633352 1_545
O5 Sr3 2.775007 1_456
O5 Sr1 2.897628 1_555
O5 Sr2 3.210662 1_556
O6 Sr3 2.633352 1_565
O6 Sr0 2.775007 1_655
O6 Sr2 2.897628 1_555
O6 Sr1 3.210662 1_555
O7 Sr2 2.633352 1_555
O7 Sr1 2.775007 1_554
O7 Sr3 2.897628 1_555
O7 Sr0 3.210662 1_644
O8 Sr2 2.653445 1_555
O8 Sr3 2.741582 1_455
O8 Sr3 3.005084 1_465
O8 Sr2 3.079340 1_455
O9 Sr3 2.653445 1_465
O9 Sr2 2.741582 1_555
O9 Sr2 3.005084 1_565
O9 Sr3 3.079340 1_565
O10 Sr0 2.653445 1_645
O10 Sr1 2.741582 1_555
O10 Sr1 3.005084 1_545
O10 Sr0 3.079340 1_545
O11 Sr1 2.653445 1_555
O11 Sr0 2.741582 1_655
O11 Sr0 3.005084 1_645
O11 Sr1 3.079340 1_655
