# generated using pymatgen
data_Fe7Si3(H4O9)2
_symmetry_space_group_name_H-M   'P 1'
_cell_length_a   5.52895900
_cell_length_b   9.06753902
_cell_length_c   9.16666388
_cell_angle_alpha   63.89163516
_cell_angle_beta   73.03491326
_cell_angle_gamma   72.95211490
_symmetry_Int_Tables_number   1
_chemical_formula_structural   Fe7Si3(H4O9)2
_chemical_formula_sum   'Fe7 Si3 H8 O18'
_cell_volume   387.38077645
_cell_formula_units_Z   1
loop_
 _symmetry_equiv_pos_site_id
 _symmetry_equiv_pos_as_xyz
  1  'x, y, z'
loop_
 _atom_site_type_symbol
 _atom_site_label
 _atom_site_symmetry_multiplicity
 _atom_site_fract_x
 _atom_site_fract_y
 _atom_site_fract_z
 _atom_site_occupancy
  Fe  Fe0  1  0.54401100  0.11442100  0.78578500  1
  Fe  Fe1  1  0.58432700  0.08382200  0.41574700  1
  Fe  Fe2  1  0.08940700  0.58098200  0.91327100  1
  Fe  Fe3  1  0.08389100  0.24846400  0.24530700  1
  Fe  Fe4  1  0.58710300  0.74662300  0.75170900  1
  Fe  Fe5  1  0.07623100  0.91847200  0.58161800  1
  Fe  Fe6  1  0.58827500  0.41045000  0.08118900  1
  Si  Si0  1  0.06670000  0.60500500  0.27499000  1
  Si  Si1  1  0.04178600  0.28548400  0.60593400  1
  Si  Si2  1  0.56506400  0.76716000  0.11993400  1
  H  H0  1  0.54124600  0.78826700  0.44034100  1
  H  H1  1  0.06233200  0.29343100  0.92823800  1
  H  H2  1  0.05420400  0.61733000  0.60195700  1
  H  H3  1  0.53018700  0.10152000  0.12128200  1
  H  H4  1  0.08339600  0.92765300  0.29176300  1
  H  H5  1  0.57390900  0.44329300  0.77919500  1
  H  H6  1  0.61642100  0.38302800  0.39528800  1
  H  H7  1  0.09890200  0.90186000  0.87625200  1
  O  O0  1  0.20897200  0.22973700  0.74829600  1
  O  O1  1  0.76444100  0.70853900  0.25378700  1
  O  O2  1  0.06256100  0.48325600  0.47305100  1
  O  O3  1  0.54564400  0.96803300  0.01369900  1
  O  O4  1  0.73922100  0.28529500  0.69445200  1
  O  O5  1  0.26557200  0.73503500  0.22793300  1
  O  O6  1  0.69475300  0.98369900  0.65744200  1
  O  O7  1  0.17291100  0.49786500  0.15991400  1
  O  O8  1  0.15102100  0.15918500  0.50432900  1
  O  O9  1  0.67048400  0.65913100  0.00403400  1
  O  O10  1  0.46634800  0.85048900  0.51238800  1
  O  O11  1  0.99498400  0.34704100  0.00886900  1
  O  O12  1  0.99889400  0.68545500  0.66849200  1
  O  O13  1  0.48405600  0.17640400  0.18109500  1
  O  O14  1  0.00012300  0.99999100  0.35355100  1
  O  O15  1  0.49360600  0.51460000  0.84333200  1
  O  O16  1  0.67757800  0.31911900  0.32551800  1
  O  O17  1  0.16923800  0.83206000  0.81221600  1
loop_
_geom_bond_atom_site_label_1
_geom_bond_atom_site_label_2
_geom_bond_distance
_geom_bond_site_symmetry_2
Fe0 O6 1.886698 1_545
Fe0 O0 1.887435 1_555
Fe0 O4 1.891558 1_555
Fe0 O3 1.920942 1_546
Fe1 O16 2.084464 1_555
Fe1 O13 2.114835 1_555
Fe1 O10 2.123451 1_545
Fe1 O14 2.186277 1_645
Fe1 O6 2.190810 1_545
Fe1 O8 2.293262 1_555
Fe2 O11 2.070391 1_456
Fe2 O15 2.117180 1_555
Fe2 O12 2.165416 1_455
Fe2 O17 2.174975 1_555
Fe2 O7 2.190484 1_556
Fe2 O9 2.234080 1_456
Fe3 O11 2.096908 1_455
Fe3 O13 2.097475 1_555
Fe3 O16 2.145822 1_455
Fe3 O14 2.156684 1_545
Fe3 O7 2.199756 1_555
Fe3 O8 2.253240 1_555
Fe4 O15 2.056220 1_555
Fe4 O6 2.130089 1_555
Fe4 O12 2.166020 1_555
Fe4 O10 2.193854 1_555
Fe4 O17 2.196922 1_555
Fe4 O9 2.232617 1_556
Fe5 O6 2.014048 1_455
Fe5 O14 2.016189 1_555
Fe5 O12 2.032588 1_455
Fe5 O10 2.049635 1_555
Fe5 O17 2.070491 1_555
Fe5 O8 2.105756 1_565
Fe6 O13 2.091179 1_555
Fe6 O15 2.117465 1_554
Fe6 O11 2.129331 1_555
Fe6 O16 2.172306 1_555
Fe6 O9 2.191163 1_555
Fe6 O7 2.211801 1_555
H0 O10 0.978435 1_555
H1 O11 0.985259 1_456
H2 O12 0.979324 1_455
H3 O13 0.985517 1_555
H4 O14 0.980176 1_555
H5 O15 0.987301 1_555
H6 O16 0.971747 1_555
H7 O17 0.972539 1_555
O0 Si1 1.631672 1_555
O1 Si0 1.679583 1_655
O1 Si2 1.695564 1_555
O2 Si0 1.655900 1_555
O2 Si1 1.682090 1_555
O3 Si2 1.631762 1_555
O4 Si1 1.632545 1_655
O5 Si0 1.679578 1_555
O5 Si2 1.696825 1_555
O7 Si0 1.614728 1_555
O8 Si1 1.657929 1_555
O9 Si2 1.627207 1_555
