# generated using pymatgen
data_EuAl3Si
_symmetry_space_group_name_H-M   'P 1'
_cell_length_a   6.23929885
_cell_length_b   6.23929885
_cell_length_c   6.23929885
_cell_angle_alpha   139.24424591
_cell_angle_beta   139.24424591
_cell_angle_gamma   59.00262184
_symmetry_Int_Tables_number   1
_chemical_formula_structural   EuAl3Si
_chemical_formula_sum   'Eu1 Al3 Si1'
_cell_volume   102.52771690
_cell_formula_units_Z   1
loop_
 _symmetry_equiv_pos_site_id
 _symmetry_equiv_pos_as_xyz
  1  'x, y, z'
loop_
 _atom_site_type_symbol
 _atom_site_label
 _atom_site_symmetry_multiplicity
 _atom_site_fract_x
 _atom_site_fract_y
 _atom_site_fract_z
 _atom_site_occupancy
  Eu  Eu0  1  0.99857200  0.99857200  0.00000000  1
  Al  Al0  1  0.75155600  0.25155600  0.50000000  1
  Al  Al1  1  0.25155600  0.75155600  0.50000000  1
  Al  Al2  1  0.61516800  0.61516800  0.00000000  1
  Si  Si0  1  0.38314900  0.38314900  0.00000000  1
loop_
_geom_bond_atom_site_label_1
_geom_bond_atom_site_label_2
_geom_bond_distance
_geom_bond_site_symmetry_2
Eu0 Si0 3.318390 1_655
Eu0 Si0 3.318390 1_565
Eu0 Si0 3.318390 1_666
Eu0 Si0 3.318390 1_554
Al0 Si0 2.600522 1_656
Al0 Si0 2.600522 1_555
Al0 Al2 2.629503 1_545
Al0 Al2 2.629503 1_556
Al0 Eu0 3.452150 1_556
Al0 Eu0 3.452150 1_545
Al0 Eu0 3.502759 1_445
Al0 Eu0 3.502759 1_546
Al1 Si0 2.600522 1_566
Al1 Si0 2.600522 1_555
Al1 Al2 2.629503 1_455
Al1 Al2 2.629503 1_556
Al1 Eu0 3.452150 1_455
Al1 Eu0 3.452150 1_556
Al1 Eu0 3.502759 1_456
Al1 Eu0 3.502759 1_445
Al2 Si0 2.519884 1_555
Al2 Eu0 3.323223 1_444
Al2 Eu0 3.323223 1_455
Al2 Eu0 3.323223 1_545
Al2 Eu0 3.323223 1_556
