# generated using pymatgen
data_LuFeO3
_symmetry_space_group_name_H-M   'P 1'
_cell_length_a   5.96201645
_cell_length_b   5.96201986
_cell_length_c   11.58159389
_cell_angle_alpha   89.99848150
_cell_angle_beta   89.99847915
_cell_angle_gamma   119.99588449
_symmetry_Int_Tables_number   1
_chemical_formula_structural   LuFeO3
_chemical_formula_sum   'Lu6 Fe6 O18'
_cell_volume   356.53614196
_cell_formula_units_Z   6
loop_
 _symmetry_equiv_pos_site_id
 _symmetry_equiv_pos_as_xyz
  1  'x, y, z'
loop_
 _atom_site_type_symbol
 _atom_site_label
 _atom_site_symmetry_multiplicity
 _atom_site_fract_x
 _atom_site_fract_y
 _atom_site_fract_z
 _atom_site_occupancy
  Lu  Lu0  1  -0.00014023  -0.00014154  0.22357232  1
  Lu  Lu1  1  0.00022269  0.00022474  0.72331725  1
  Lu  Lu2  1  0.66644927  0.33313941  0.26772162  1
  Lu  Lu3  1  0.33314087  0.66644753  0.26772152  1
  Lu  Lu4  1  0.33355366  0.66683920  0.76755112  1
  Lu  Lu5  1  0.66683636  0.33355599  0.76755095  1
  Fe  Fe0  1  0.66600260  -0.00003881  0.49918650  1
  Fe  Fe1  1  0.33394634  0.33394454  0.49916769  1
  Fe  Fe2  1  -0.00003711  0.66600162  0.49918685  1
  Fe  Fe3  1  0.33385304  0.99997732  0.99903839  1
  Fe  Fe4  1  0.66624548  0.66624559  0.99907340  1
  Fe  Fe5  1  0.99997736  0.33385352  0.99903890  1
  O  O0  1  0.69607436  -0.00021274  0.33190177  1
  O  O1  1  0.30350917  0.30350897  0.33189644  1
  O  O2  1  -0.00021085  0.69607279  0.33190224  1
  O  O3  1  0.30363053  0.00020451  0.83172837  1
  O  O4  1  0.69678720  0.69678917  0.83171525  1
  O  O5  1  0.00020454  0.30363362  0.83172891  1
  O  O6  1  0.36324150  0.99979373  0.16370309  1
  O  O7  1  0.63637020  0.63636846  0.16371542  1
  O  O8  1  0.99979410  0.36324058  0.16370339  1
  O  O9  1  0.63667933  0.00017403  0.66369712  1
  O  O10  1  0.36365604  0.36365727  0.66365198  1
  O  O11  1  0.00017097  0.63667944  0.66369729  1
  O  O12  1  0.00003688  0.00003700  0.02587136  1
  O  O13  1  0.00011957  0.00011926  0.52561337  1
  O  O14  1  0.66657271  0.33326069  0.47544937  1
  O  O15  1  0.33326325  0.66657337  0.47544923  1
  O  O16  1  0.33339406  0.66665682  0.97520994  1
  O  O17  1  0.66665411  0.33339489  0.97520896  1
loop_
_geom_bond_atom_site_label_1
_geom_bond_atom_site_label_2
_geom_bond_distance
_geom_bond_site_symmetry_2
Lu0 O1 2.202728 1_555
Lu0 O0 2.203078 1_455
Lu0 O2 2.203084 1_545
Lu0 O6 2.274907 1_545
Lu0 O8 2.274912 1_455
Lu0 O7 2.275475 1_445
Lu0 O12 2.289692 1_555
Lu1 O3 2.202046 1_555
Lu1 O5 2.202050 1_555
Lu1 O4 2.202056 1_445
Lu1 O10 2.274407 1_555
Lu1 O9 2.274655 1_455
Lu1 O11 2.274664 1_545
Lu1 O13 2.289726 1_555
Lu2 O1 2.209884 1_555
Lu2 O0 2.210111 1_555
Lu2 O2 2.210128 1_655
Lu2 O7 2.252894 1_555
Lu2 O8 2.253115 1_555
Lu2 O6 2.253217 1_545
Lu2 O14 2.405819 1_555
Lu3 O1 2.209874 1_555
Lu3 O2 2.210110 1_555
Lu3 O0 2.210126 1_565
Lu3 O7 2.252894 1_555
Lu3 O6 2.253126 1_555
Lu3 O8 2.253215 1_455
Lu3 O15 2.405818 1_555
Lu4 O4 2.210747 1_555
Lu4 O5 2.210925 1_555
Lu4 O3 2.211147 1_565
Lu4 O9 2.251883 1_565
Lu4 O10 2.252107 1_555
Lu4 O11 2.252223 1_555
Lu4 O16 2.405020 1_555
Lu5 O4 2.210745 1_555
Lu5 O3 2.210930 1_555
Lu5 O5 2.211162 1_655
Lu5 O11 2.251875 1_655
Lu5 O10 2.252094 1_555
Lu5 O9 2.252226 1_555
Lu5 O17 2.405011 1_555
Fe0 O9 1.913353 1_555
Fe0 O0 1.945745 1_555
Fe0 O14 2.004376 1_555
Fe0 O15 2.004811 1_545
Fe0 O13 2.014929 1_655
Fe1 O10 1.913219 1_555
Fe1 O1 1.945758 1_555
Fe1 O14 2.004073 1_555
Fe1 O15 2.004087 1_555
Fe1 O13 2.013812 1_555
Fe2 O11 1.913349 1_555
Fe2 O2 1.945743 1_555
Fe2 O15 2.004376 1_555
Fe2 O14 2.004823 1_455
Fe2 O13 2.014938 1_565
Fe3 O6 1.915167 1_556
Fe3 O3 1.946144 1_565
Fe3 O16 2.004988 1_555
Fe3 O17 2.005198 1_565
Fe3 O12 2.014502 1_566
Fe4 O7 1.915110 1_556
Fe4 O4 1.946800 1_555
Fe4 O17 2.004832 1_555
Fe4 O16 2.004841 1_555
Fe4 O12 2.014265 1_666
Fe5 O8 1.915163 1_556
Fe5 O5 1.946143 1_655
Fe5 O17 2.005006 1_555
Fe5 O16 2.005202 1_655
Fe5 O12 2.014504 1_656
