# generated using pymatgen
data_CrMoAs2
_symmetry_space_group_name_H-M   'P 1'
_cell_length_a   3.40642300
_cell_length_b   5.90464200
_cell_length_c   6.36410700
_cell_angle_alpha   90.00000000
_cell_angle_beta   90.00000000
_cell_angle_gamma   90.00000000
_symmetry_Int_Tables_number   1
_chemical_formula_structural   CrMoAs2
_chemical_formula_sum   'Cr2 Mo2 As4'
_cell_volume   128.00579189
_cell_formula_units_Z   2
loop_
 _symmetry_equiv_pos_site_id
 _symmetry_equiv_pos_as_xyz
  1  'x, y, z'
loop_
 _atom_site_type_symbol
 _atom_site_label
 _atom_site_symmetry_multiplicity
 _atom_site_fract_x
 _atom_site_fract_y
 _atom_site_fract_z
 _atom_site_occupancy
  Cr  Cr0  1  0.00000000  0.50520700  0.43671300  1
  Cr  Cr1  1  0.00000000  0.00520700  0.56328700  1
  Mo  Mo0  1  0.50000000  0.49524400  0.05631400  1
  Mo  Mo1  1  0.50000000  0.99524400  0.94368600  1
  As  As0  1  0.50000000  0.30568200  0.66827600  1
  As  As1  1  0.50000000  0.80568200  0.33172400  1
  As  As2  1  0.00000000  0.69386800  0.81239700  1
  As  As3  1  0.00000000  0.19386800  0.18760300  1
loop_
_geom_bond_atom_site_label_1
_geom_bond_atom_site_label_2
_geom_bond_distance
_geom_bond_site_symmetry_2
Cr0 Mo0 2.960599 1_455
Cr0 Mo0 2.960599 1_555
Cr1 Mo1 2.960599 1_545
Cr1 Mo1 2.960599 1_445
As0 Mo1 2.536153 1_545
As0 Cr0 2.541785 1_555
As0 Cr0 2.541785 1_655
As0 Cr1 2.548557 1_555
As0 Cr1 2.548557 1_655
As0 Mo0 2.711333 1_556
As1 Mo0 2.536153 1_555
As1 Cr1 2.541785 1_665
As1 Cr1 2.541785 1_565
As1 Cr0 2.548557 1_555
As1 Cr0 2.548557 1_655
As1 Mo1 2.711333 1_554
As2 Cr1 2.427527 1_565
As2 Mo0 2.585745 1_556
As2 Mo0 2.585745 1_456
As2 Mo1 2.601102 1_455
As2 Mo1 2.601102 1_555
As2 Cr0 2.637672 1_555
As3 Cr0 2.427527 1_555
As3 Mo1 2.585745 1_444
As3 Mo1 2.585745 1_544
As3 Mo0 2.601102 1_555
As3 Mo0 2.601102 1_455
As3 Cr1 2.637672 1_555
