# generated using pymatgen
data_La7SmCrFe7O24
_symmetry_space_group_name_H-M   'P 1'
_cell_length_a   7.88570998
_cell_length_b   7.88570998
_cell_length_c   7.88571004
_cell_angle_alpha   89.99578695
_cell_angle_beta   89.99578695
_cell_angle_gamma   89.99578710
_symmetry_Int_Tables_number   1
_chemical_formula_structural   La7SmCrFe7O24
_chemical_formula_sum   'La7 Sm1 Cr1 Fe7 O24'
_cell_volume   490.36831664
_cell_formula_units_Z   1
loop_
 _symmetry_equiv_pos_site_id
 _symmetry_equiv_pos_as_xyz
  1  'x, y, z'
loop_
 _atom_site_type_symbol
 _atom_site_label
 _atom_site_symmetry_multiplicity
 _atom_site_fract_x
 _atom_site_fract_y
 _atom_site_fract_z
 _atom_site_occupancy
  La  La0  1  0.74968600  0.25032800  0.74968600  1
  La  La1  1  0.25032400  0.25032400  0.74968500  1
  La  La2  1  0.74968500  0.25032400  0.25032400  1
  La  La3  1  0.25030400  0.25030400  0.25030400  1
  La  La4  1  0.25032800  0.74968600  0.74968600  1
  La  La5  1  0.74968600  0.74968600  0.25032800  1
  La  La6  1  0.25032400  0.74968500  0.25032400  1
  Sm  Sm0  1  0.74969500  0.74969500  0.74969500  1
  Cr  Cr0  1  0.50016200  0.50016200  0.50016200  1
  Fe  Fe0  1  0.50026900  0.99972500  0.99972500  1
  Fe  Fe1  1  0.99973000  0.99973000  0.99973000  1
  Fe  Fe2  1  0.50027700  0.99972000  0.50027700  1
  Fe  Fe3  1  0.99972500  0.99972500  0.50026900  1
  Fe  Fe4  1  0.50027700  0.50027700  0.99972000  1
  Fe  Fe5  1  0.99972500  0.50026900  0.99972500  1
  Fe  Fe6  1  0.99972000  0.50027700  0.50027700  1
  O  O0  1  0.50001600  0.25028000  0.99998100  1
  O  O1  1  0.99997900  0.25012500  0.99997900  1
  O  O2  1  0.50002100  0.25065700  0.50002100  1
  O  O3  1  0.99998100  0.25028000  0.50001600  1
  O  O4  1  0.50105700  0.74972700  0.99894600  1
  O  O5  1  0.99894200  0.74987800  0.99894200  1
  O  O6  1  0.50112300  0.74928400  0.50112300  1
  O  O7  1  0.99894600  0.74972700  0.50105700  1
  O  O8  1  0.50105700  0.99894600  0.74972700  1
  O  O9  1  0.99894200  0.99894200  0.74987800  1
  O  O10  1  0.50001600  0.99998100  0.25028000  1
  O  O11  1  0.99997900  0.99997900  0.25012500  1
  O  O12  1  0.50112300  0.50112300  0.74928400  1
  O  O13  1  0.99894600  0.50105700  0.74972700  1
  O  O14  1  0.50002100  0.50002100  0.25065700  1
  O  O15  1  0.99998100  0.50001600  0.25028000  1
  O  O16  1  0.74987800  0.99894200  0.99894200  1
  O  O17  1  0.25012500  0.99997900  0.99997900  1
  O  O18  1  0.74972700  0.99894600  0.50105700  1
  O  O19  1  0.25028000  0.99998100  0.50001600  1
  O  O20  1  0.74972700  0.50105700  0.99894600  1
  O  O21  1  0.25028000  0.50001600  0.99998100  1
  O  O22  1  0.74928400  0.50112300  0.50112300  1
  O  O23  1  0.25065700  0.50002100  0.50002100  1
loop_
_geom_bond_atom_site_label_1
_geom_bond_atom_site_label_2
_geom_bond_distance
_geom_bond_site_symmetry_2
La0 O12 2.784367 1_555
La0 O22 2.784367 1_555
La0 O2 2.784387 1_555
La0 O3 2.787724 1_555
La0 O0 2.787724 1_555
La0 O13 2.788073 1_555
La0 O20 2.788073 1_555
La0 O8 2.788226 1_545
La0 O18 2.788226 1_545
La0 O1 2.791390 1_555
La0 O9 2.791522 1_545
La0 O16 2.791522 1_545
La1 O2 2.784355 1_555
La1 O23 2.784355 1_555
La1 O21 2.788057 1_555
La1 O0 2.788057 1_555
La1 O3 2.788192 1_455
La1 O19 2.788192 1_545
La1 O17 2.791480 1_545
La1 O1 2.791480 1_455
La1 O12 2.797034 1_555
La1 O8 2.799690 1_545
La1 O13 2.799690 1_455
La1 O9 2.803535 1_445
La2 O14 2.784355 1_555
La2 O2 2.784355 1_555
La2 O15 2.788057 1_555
La2 O3 2.788057 1_555
La2 O10 2.788192 1_545
La2 O0 2.788192 1_554
La2 O11 2.791480 1_545
La2 O1 2.791480 1_554
La2 O22 2.797034 1_555
La2 O18 2.799690 1_545
La2 O20 2.799690 1_554
La2 O16 2.803535 1_544
La3 O14 2.784968 1_555
La3 O2 2.784968 1_555
La3 O23 2.784968 1_555
La3 O10 2.788114 1_545
La3 O15 2.788114 1_455
La3 O3 2.788114 1_455
La3 O19 2.788114 1_545
La3 O0 2.788114 1_554
La3 O21 2.788114 1_554
La3 O11 2.791747 1_445
La3 O1 2.791747 1_454
La3 O17 2.791747 1_544
La4 O12 2.784367 1_555
La4 O6 2.784367 1_555
La4 O23 2.784387 1_555
La4 O19 2.787724 1_555
La4 O21 2.787724 1_555
La4 O8 2.788073 1_555
La4 O4 2.788073 1_555
La4 O13 2.788226 1_455
La4 O7 2.788226 1_455
La4 O17 2.791390 1_555
La4 O9 2.791522 1_455
La4 O5 2.791522 1_455
La5 O6 2.784367 1_555
La5 O22 2.784367 1_555
La5 O14 2.784387 1_555
La5 O15 2.787724 1_555
La5 O10 2.787724 1_555
La5 O18 2.788073 1_555
La5 O7 2.788073 1_555
La5 O20 2.788226 1_554
La5 O4 2.788226 1_554
La5 O11 2.791390 1_555
La5 O16 2.791522 1_554
La5 O5 2.791522 1_554
La6 O14 2.784355 1_555
La6 O23 2.784355 1_555
La6 O10 2.788057 1_555
La6 O19 2.788057 1_555
La6 O15 2.788192 1_455
La6 O21 2.788192 1_554
La6 O11 2.791480 1_455
La6 O17 2.791480 1_554
La6 O6 2.797034 1_555
La6 O7 2.799690 1_455
La6 O4 2.799690 1_554
La6 O5 2.803535 1_454
Cr0 O6 1.964534 1_555
Cr0 O22 1.964534 1_555
Cr0 O12 1.964534 1_555
Cr0 O23 1.967525 1_555
Cr0 O2 1.967525 1_555
Cr0 O14 1.967525 1_555
Fe0 O16 1.968363 1_555
Fe0 O4 1.971431 1_555
Fe0 O8 1.971431 1_555
Fe0 O17 1.972565 1_555
Fe0 O0 1.975806 1_565
Fe0 O10 1.975806 1_556
Fe1 O16 1.970281 1_555
Fe1 O5 1.970281 1_555
Fe1 O9 1.970281 1_555
Fe1 O1 1.974545 1_565
Fe1 O17 1.974545 1_655
Fe1 O11 1.974545 1_556
Fe2 O18 1.967109 1_555
Fe2 O8 1.967109 1_555
Fe2 O19 1.971406 1_555
Fe2 O10 1.971406 1_555
Fe2 O6 1.974887 1_555
Fe2 O2 1.978818 1_565
Fe3 O9 1.968363 1_555
Fe3 O7 1.971431 1_555
Fe3 O18 1.971431 1_555
Fe3 O11 1.972565 1_555
Fe3 O19 1.975806 1_655
Fe3 O3 1.975806 1_565
Fe4 O4 1.967109 1_555
Fe4 O20 1.967109 1_555
Fe4 O21 1.971406 1_555
Fe4 O0 1.971406 1_555
Fe4 O12 1.974887 1_555
Fe4 O14 1.978818 1_556
Fe5 O5 1.968363 1_555
Fe5 O20 1.971431 1_555
Fe5 O13 1.971431 1_555
Fe5 O1 1.972565 1_555
Fe5 O21 1.975806 1_655
Fe5 O15 1.975806 1_556
Fe6 O7 1.967109 1_555
Fe6 O13 1.967109 1_555
Fe6 O3 1.971406 1_555
Fe6 O15 1.971406 1_555
Fe6 O22 1.974887 1_555
Fe6 O23 1.978818 1_655
O4 Sm0 2.776149 1_555
O5 Sm0 2.779725 1_555
O6 Sm0 2.772198 1_555
O7 Sm0 2.776149 1_555
O8 Sm0 2.776149 1_555
O9 Sm0 2.779725 1_555
O12 Sm0 2.772198 1_555
O13 Sm0 2.776149 1_555
O16 Sm0 2.779725 1_555
O18 Sm0 2.776149 1_555
O20 Sm0 2.776149 1_555
O22 Sm0 2.772198 1_555
