# generated using pymatgen
data_FePH5CO8
_symmetry_space_group_name_H-M   'P 1'
_cell_length_a   10.73290500
_cell_length_b   8.75803800
_cell_length_c   9.40561427
_cell_angle_alpha   77.78090645
_cell_angle_beta   90.00000000
_cell_angle_gamma   90.00000000
_symmetry_Int_Tables_number   1
_chemical_formula_structural   FePH5CO8
_chemical_formula_sum   'Fe4 P4 H20 C4 O32'
_cell_volume   864.09074858
_cell_formula_units_Z   4
loop_
 _symmetry_equiv_pos_site_id
 _symmetry_equiv_pos_as_xyz
  1  'x, y, z'
loop_
 _atom_site_type_symbol
 _atom_site_label
 _atom_site_symmetry_multiplicity
 _atom_site_fract_x
 _atom_site_fract_y
 _atom_site_fract_z
 _atom_site_occupancy
  Fe  Fe0  1  0.11627600  0.62356500  0.14463700  1
  Fe  Fe1  1  0.61627600  0.37643500  0.35536300  1
  Fe  Fe2  1  0.38372400  0.62356500  0.64463700  1
  Fe  Fe3  1  0.88372400  0.37643500  0.85536300  1
  P  P0  1  0.15548600  0.56409100  0.80978700  1
  P  P1  1  0.84451400  0.43590900  0.19021300  1
  P  P2  1  0.34451400  0.56409100  0.30978700  1
  P  P3  1  0.65548600  0.43590900  0.69021300  1
  H  H0  1  0.76971300  0.99331400  0.46796500  1
  H  H1  1  0.90571500  0.30635900  0.41359800  1
  H  H2  1  0.26971300  0.00668600  0.03203500  1
  H  H3  1  0.81260800  0.69319400  0.57053700  1
  H  H4  1  0.93952500  0.17301300  0.11794100  1
  H  H5  1  0.68739200  0.69319400  0.07053700  1
  H  H6  1  0.45798800  0.80110300  0.91406700  1
  H  H7  1  0.09428500  0.69364100  0.58640200  1
  H  H8  1  0.43952500  0.82698700  0.38205900  1
  H  H9  1  0.04201200  0.80110300  0.41406700  1
  H  H10  1  0.40571500  0.69364100  0.08640200  1
  H  H11  1  0.54201200  0.19889700  0.08593300  1
  H  H12  1  0.06047500  0.82698700  0.88205900  1
  H  H13  1  0.18739200  0.30680600  0.42946300  1
  H  H14  1  0.73028700  0.99331400  0.96796500  1
  H  H15  1  0.59428500  0.30635900  0.91359800  1
  H  H16  1  0.31260800  0.30680600  0.92946300  1
  H  H17  1  0.56047500  0.17301300  0.61794100  1
  H  H18  1  0.23028700  0.00668600  0.53203500  1
  H  H19  1  0.95798800  0.19889700  0.58593300  1
  C  C0  1  0.98093100  0.02116500  0.91898700  1
  C  C1  1  0.01906900  0.97883500  0.08101300  1
  C  C2  1  0.51906900  0.02116500  0.41898700  1
  C  C3  1  0.48093100  0.97883500  0.58101300  1
  O  O0  1  0.25814000  0.09399300  0.94887500  1
  O  O1  1  0.91976900  0.14089600  0.87091800  1
  O  O2  1  0.62237100  0.33918000  0.57505800  1
  O  O3  1  0.66256500  0.79034400  0.00083300  1
  O  O4  1  0.93888900  0.56126100  0.19909100  1
  O  O5  1  0.56111100  0.56126100  0.69909100  1
  O  O6  1  0.20828700  0.50661800  0.32508600  1
  O  O7  1  0.16256500  0.20965600  0.49916700  1
  O  O8  1  0.83743500  0.79034400  0.50083300  1
  O  O9  1  0.33743500  0.20965600  0.99916700  1
  O  O10  1  0.70828700  0.49338200  0.17491400  1
  O  O11  1  0.01407700  0.92747900  0.83491000  1
  O  O12  1  0.87762900  0.33918000  0.07505800  1
  O  O13  1  0.83598800  0.31031700  0.34466000  1
  O  O14  1  0.66401200  0.31031700  0.84466000  1
  O  O15  1  0.33598800  0.68968300  0.15534000  1
  O  O16  1  0.16401200  0.68968300  0.65534000  1
  O  O17  1  0.48592300  0.92747900  0.33491000  1
  O  O18  1  0.74186000  0.90600700  0.05112500  1
  O  O19  1  0.08023100  0.85910400  0.12908200  1
  O  O20  1  0.51407700  0.07252100  0.66509000  1
  O  O21  1  0.79171300  0.49338200  0.67491400  1
  O  O22  1  0.37762900  0.66082000  0.42494200  1
  O  O23  1  0.58023100  0.14089600  0.37091800  1
  O  O24  1  0.29171300  0.50661800  0.82508600  1
  O  O25  1  0.41976900  0.85910400  0.62908200  1
  O  O26  1  0.75814000  0.90600700  0.55112500  1
  O  O27  1  0.12237100  0.66082000  0.92494200  1
  O  O28  1  0.43888900  0.43873900  0.30090900  1
  O  O29  1  0.98592300  0.07252100  0.16509000  1
  O  O30  1  0.06111100  0.43873900  0.80090900  1
  O  O31  1  0.24186000  0.09399300  0.44887500  1
loop_
_geom_bond_atom_site_label_1
_geom_bond_atom_site_label_2
_geom_bond_distance
_geom_bond_site_symmetry_2
Fe0 O4 2.016561 1_455
Fe0 O27 2.023663 1_554
Fe0 O6 2.041823 1_555
Fe0 O19 2.073332 1_555
Fe0 O15 2.435362 1_555
Fe1 O28 2.016561 1_555
Fe1 O2 2.023663 1_555
Fe1 O10 2.041823 1_555
Fe1 O23 2.073332 1_555
Fe1 O13 2.435362 1_555
Fe2 O5 2.016561 1_555
Fe2 O22 2.023663 1_555
Fe2 O24 2.041823 1_555
Fe2 O25 2.073332 1_555
Fe2 O16 2.435362 1_555
Fe3 O30 2.016561 1_655
Fe3 O12 2.023663 1_556
Fe3 O21 2.041823 1_555
Fe3 O1 2.073332 1_555
Fe3 O14 2.435362 1_555
H0 O26 0.979145 1_555
H1 O13 0.985991 1_555
H2 O0 0.979145 1_554
H3 O8 0.994302 1_555
H4 O29 1.026662 1_555
H4 O12 1.572714 1_555
H5 O3 0.994302 1_555
H7 O16 0.985991 1_555
H8 O17 1.026662 1_555
H8 O22 1.572714 1_555
H10 O15 0.985991 1_555
H12 O11 1.026662 1_555
H12 O27 1.572714 1_555
H13 O7 0.994302 1_555
H14 O18 0.979145 1_556
H15 O14 0.985991 1_555
H16 O9 0.994302 1_555
H17 O20 1.026662 1_555
H17 O2 1.572714 1_555
H18 O31 0.979145 1_555
C0 O1 1.238639 1_555
C0 O11 1.303767 1_645
C1 O19 1.238639 1_555
C1 O29 1.303767 1_465
C2 O23 1.238639 1_555
C2 O17 1.303767 1_545
C3 O25 1.238639 1_555
C3 O20 1.303767 1_565
O2 P3 1.550972 1_555
O4 P1 1.508982 1_555
O5 P3 1.508982 1_555
O6 P2 1.543107 1_555
O10 P1 1.543107 1_555
O12 P1 1.550972 1_555
O13 P1 1.628532 1_555
O14 P3 1.628532 1_555
O15 P2 1.628532 1_555
O16 P0 1.628532 1_555
O21 P3 1.543107 1_555
O22 P2 1.550972 1_555
O24 P0 1.543107 1_555
O27 P0 1.550972 1_555
O28 P2 1.508982 1_555
O30 P0 1.508982 1_555
