# generated using pymatgen
data_CeTa7O19
_symmetry_space_group_name_H-M   'P 1'
_cell_length_a   6.29633331
_cell_length_b   6.29309899
_cell_length_c   20.14978689
_cell_angle_alpha   89.99591502
_cell_angle_beta   90.00475234
_cell_angle_gamma   120.03021481
_symmetry_Int_Tables_number   1
_chemical_formula_structural   CeTa7O19
_chemical_formula_sum   'Ce2 Ta14 O38'
_cell_volume   691.22757127
_cell_formula_units_Z   2
loop_
 _symmetry_equiv_pos_site_id
 _symmetry_equiv_pos_as_xyz
  1  'x, y, z'
loop_
 _atom_site_type_symbol
 _atom_site_label
 _atom_site_symmetry_multiplicity
 _atom_site_fract_x
 _atom_site_fract_y
 _atom_site_fract_z
 _atom_site_occupancy
  Ce  Ce0  1  0.33234965  0.66654988  0.50000278  1
  Ce  Ce1  1  0.66767541  0.33344426  0.99999605  1
  Ta  Ta0  1  0.64140523  0.99723623  0.84484320  1
  Ta  Ta1  1  0.35565550  0.35873468  0.84478429  1
  Ta  Ta2  1  0.00301601  0.64443845  0.84470213  1
  Ta  Ta3  1  0.35552560  0.99688202  0.15527322  1
  Ta  Ta4  1  0.64122358  0.64419014  0.15521981  1
  Ta  Ta5  1  0.00278358  0.35845762  0.15522400  1
  Ta  Ta6  1  0.35859529  0.00275003  0.34479200  1
  Ta  Ta7  1  0.64432656  0.64125816  0.34475276  1
  Ta  Ta8  1  0.99700499  0.35556723  0.34466026  1
  Ta  Ta9  1  0.64447988  0.00312671  0.65531647  1
  Ta  Ta10  1  0.35877298  0.35582706  0.65526725  1
  Ta  Ta11  1  0.99725479  0.64154072  0.65526703  1
  Ta  Ta12  1  0.66620534  0.33360350  0.49998863  1
  Ta  Ta13  1  0.33378258  0.66639575  -0.00001711  1
  O  O0  1  0.24289827  0.99706631  0.65439538  1
  O  O1  1  0.75415623  0.75729513  0.65439035  1
  O  O2  1  0.00324521  0.24601083  0.65435492  1
  O  O3  1  0.75402086  0.99681097  0.34562947  1
  O  O4  1  0.24275437  0.24583705  0.34559820  1
  O  O5  1  0.00307310  0.75718835  0.34563239  1
  O  O6  1  0.75707439  0.00288299  0.15439940  1
  O  O7  1  0.24585162  0.24270704  0.15438551  1
  O  O8  1  0.99672082  0.75397442  0.15434725  1
  O  O9  1  0.24598043  0.00318433  0.84563820  1
  O  O10  1  0.75724420  0.75417209  0.84559626  1
  O  O11  1  0.99693818  0.24282386  0.84562861  1
  O  O12  1  0.36924351  0.94951512  0.05538895  1
  O  O13  1  0.58025102  0.63083049  0.05529451  1
  O  O14  1  0.05049646  0.42032199  0.05540862  1
  O  O15  1  0.58005418  0.94974551  0.94467838  1
  O  O16  1  0.36908129  0.41994876  0.94466703  1
  O  O17  1  0.05047313  0.63056029  0.94456817  1
  O  O18  1  0.63070587  0.05044534  0.55535918  1
  O  O19  1  0.41977433  0.36922984  0.55528193  1
  O  O20  1  0.94956509  0.57972754  0.55539655  1
  O  O21  1  0.41988585  0.05017192  0.44468560  1
  O  O22  1  0.63087248  0.58003575  0.44467260  1
  O  O23  1  0.94957763  0.36950120  0.44459896  1
  O  O24  1  0.33348872  0.66678055  0.63437715  1
  O  O25  1  0.66679925  0.33343859  0.65828241  1
  O  O26  1  0.66676612  0.33327312  0.34172044  1
  O  O27  1  0.33333110  0.66640204  0.36562250  1
  O  O28  1  0.66651120  0.33321661  0.13438476  1
  O  O29  1  0.33319260  0.66653775  0.15828396  1
  O  O30  1  0.33324291  0.66674958  0.84171848  1
  O  O31  1  0.66669839  0.33361463  0.86561006  1
  O  O32  1  0.59968809  0.00000910  0.74993832  1
  O  O33  1  0.40031398  0.40029793  0.74997011  1
  O  O34  1  0.00002504  0.59967135  0.75000115  1
  O  O35  1  0.40033987  0.99998628  0.24997623  1
  O  O36  1  0.59967003  0.59973345  0.25000858  1
  O  O37  1  0.99993722  0.40029946  0.25003667  1
loop_
_geom_bond_atom_site_label_1
_geom_bond_atom_site_label_2
_geom_bond_distance
_geom_bond_site_symmetry_2
Ce0 O20 2.456714 1_455
Ce0 O23 2.457571 1_455
Ce0 O21 2.458111 1_565
Ce0 O18 2.463161 1_565
Ce0 O19 2.464762 1_555
Ce0 O22 2.469209 1_555
Ce0 O24 2.707622 1_555
Ce0 O27 2.707743 1_555
Ce1 O14 2.456847 1_656
Ce1 O17 2.458063 1_655
Ce1 O15 2.458507 1_545
Ce1 O12 2.463736 1_546
Ce1 O13 2.465461 1_556
Ce1 O16 2.469378 1_555
Ce1 O31 2.707857 1_555
Ce1 O28 2.707913 1_556
O0 Ta11 1.983592 1_455
O0 Ta10 1.995292 1_565
O0 Ta9 2.509689 1_565
O1 Ta9 1.984910 1_565
O1 Ta11 1.997446 1_555
O1 Ta10 2.507093 1_555
O2 Ta10 1.985066 1_555
O2 Ta9 1.995859 1_455
O2 Ta11 2.508266 1_455
O3 Ta7 1.984205 1_555
O3 Ta8 1.995231 1_565
O3 Ta6 2.508700 1_565
O4 Ta8 1.985161 1_455
O4 Ta6 1.997310 1_555
O4 Ta7 2.507580 1_555
O5 Ta6 1.984139 1_565
O5 Ta7 1.996312 1_455
O5 Ta8 2.508617 1_455
O6 Ta5 1.983901 1_655
O6 Ta4 1.994906 1_545
O6 Ta3 2.509662 1_545
O7 Ta3 1.984849 1_545
O7 Ta5 1.997242 1_555
O7 Ta4 2.507101 1_555
O8 Ta4 1.984922 1_555
O8 Ta3 1.996066 1_655
O8 Ta5 2.508409 1_655
O9 Ta1 1.984211 1_555
O9 Ta2 1.995152 1_545
O9 Ta0 2.508721 1_545
O10 Ta2 1.985307 1_655
O10 Ta0 1.997153 1_555
O10 Ta1 2.507678 1_555
O11 Ta0 1.984214 1_545
O11 Ta1 1.996158 1_655
O11 Ta2 2.508536 1_655
O12 Ta13 2.018110 1_555
O12 Ta3 2.042779 1_555
O13 Ta13 2.011913 1_555
O13 Ta4 2.043555 1_555
O14 Ta13 2.015498 1_555
O14 Ta5 2.042034 1_555
O15 Ta13 2.014534 1_556
O15 Ta0 2.042007 1_555
O16 Ta13 2.010565 1_556
O16 Ta1 2.042953 1_555
O17 Ta13 2.019080 1_556
O17 Ta2 2.042591 1_555
O18 Ta12 2.017716 1_555
O18 Ta9 2.044163 1_555
O19 Ta12 2.011865 1_555
O19 Ta10 2.044813 1_555
O20 Ta12 2.015593 1_555
O20 Ta11 2.043088 1_555
O21 Ta12 2.014872 1_555
O21 Ta6 2.043079 1_555
O22 Ta12 2.010454 1_555
O22 Ta7 2.043648 1_555
O23 Ta12 2.019144 1_555
O23 Ta8 2.044104 1_555
O24 Ta10 2.084111 1_555
O24 Ta9 2.084227 1_565
O24 Ta11 2.085147 1_455
O25 Ta9 2.012929 1_555
O25 Ta11 2.013536 1_555
O25 Ta10 2.014556 1_555
O26 Ta7 2.013541 1_555
O26 Ta8 2.013616 1_555
O26 Ta6 2.013852 1_555
O27 Ta8 2.083984 1_455
O27 Ta6 2.084382 1_565
O27 Ta7 2.084808 1_555
O28 Ta3 2.083970 1_545
O28 Ta4 2.084083 1_555
O28 Ta5 2.085108 1_655
O29 Ta3 2.013113 1_555
O29 Ta5 2.013338 1_555
O29 Ta4 2.014484 1_555
O30 Ta2 2.013528 1_555
O30 Ta1 2.013646 1_555
O30 Ta0 2.013735 1_555
O31 Ta2 2.083718 1_655
O31 Ta0 2.084288 1_545
O31 Ta1 2.084769 1_555
O32 Ta9 1.926040 1_555
O32 Ta0 1.931512 1_545
O33 Ta10 1.927395 1_555
O33 Ta1 1.929725 1_555
O34 Ta2 1.927622 1_555
O34 Ta11 1.928224 1_455
O35 Ta3 1.927641 1_555
O35 Ta6 1.929800 1_565
O36 Ta7 1.928303 1_555
O36 Ta4 1.929110 1_555
O37 Ta8 1.926034 1_555
O37 Ta5 1.929843 1_655
