# generated using pymatgen
data_CoMo
_symmetry_space_group_name_H-M   'P 1'
_cell_length_a   17.36135652
_cell_length_b   17.36135652
_cell_length_c   17.36135617
_cell_angle_alpha   15.81674946
_cell_angle_beta   15.81674946
_cell_angle_gamma   15.81674741
_symmetry_Int_Tables_number   1
_chemical_formula_structural   CoMo
_chemical_formula_sum   'Co13 Mo13'
_cell_volume   338.81265484
_cell_formula_units_Z   13
loop_
 _symmetry_equiv_pos_site_id
 _symmetry_equiv_pos_as_xyz
  1  'x, y, z'
loop_
 _atom_site_type_symbol
 _atom_site_label
 _atom_site_symmetry_multiplicity
 _atom_site_fract_x
 _atom_site_fract_y
 _atom_site_fract_z
 _atom_site_occupancy
  Co  Co0  1  0.19990200  0.70934900  0.70934900  1
  Co  Co1  1  0.70399200  0.20542100  0.20542100  1
  Co  Co2  1  0.70934900  0.19990200  0.70934900  1
  Co  Co3  1  0.20542100  0.70399200  0.20542100  1
  Co  Co4  1  0.70934900  0.70934900  0.19990200  1
  Co  Co5  1  0.20542100  0.20542100  0.70399200  1
  Co  Co6  1  0.29600800  0.79457900  0.79457900  1
  Co  Co7  1  0.80009800  0.29065100  0.29065100  1
  Co  Co8  1  0.79457900  0.29600800  0.79457900  1
  Co  Co9  1  0.29065100  0.80009800  0.29065100  1
  Co  Co10  1  0.79457900  0.79457900  0.29600800  1
  Co  Co11  1  0.29065100  0.29065100  0.80009800  1
  Co  Co12  1  0.00000000  0.00000000  0.00000000  1
  Mo  Mo0  1  0.32645400  0.32645400  0.32645400  1
  Mo  Mo1  1  0.82620100  0.82620100  0.82620100  1
  Mo  Mo2  1  0.17379900  0.17379900  0.17379900  1
  Mo  Mo3  1  0.67354600  0.67354600  0.67354600  1
  Mo  Mo4  1  0.27496500  0.27496500  0.27496500  1
  Mo  Mo5  1  0.77395300  0.77395300  0.77395300  1
  Mo  Mo6  1  0.22604700  0.22604700  0.22604700  1
  Mo  Mo7  1  0.72503500  0.72503500  0.72503500  1
  Mo  Mo8  1  0.91815200  0.91815200  0.91815200  1
  Mo  Mo9  1  0.41666700  0.41666700  0.41666700  1
  Mo  Mo10  1  0.58333300  0.58333300  0.58333300  1
  Mo  Mo11  1  0.08184800  0.08184800  0.08184800  1
  Mo  Mo12  1  0.50000000  0.50000000  0.50000000  1
loop_
_geom_bond_atom_site_label_1
_geom_bond_atom_site_label_2
_geom_bond_distance
_geom_bond_site_symmetry_2
Co0 Co2 2.343604 1_465
Co0 Co4 2.343604 1_456
Co0 Co2 2.433870 1_555
Co0 Co4 2.433870 1_555
Co0 Mo12 2.471290 1_555
Co0 Mo6 2.597756 1_556
Co0 Mo6 2.597756 1_565
Co0 Mo10 2.654691 1_555
Co0 Mo8 2.693252 1_455
Co0 Mo1 2.754856 1_455
Co0 Mo2 2.912520 1_565
Co0 Mo2 2.912520 1_556
Co1 Co3 2.381910 1_555
Co1 Co5 2.381910 1_555
Co1 Co3 2.395564 1_645
Co1 Co5 2.395564 1_654
Co1 Co12 2.405685 1_655
Co1 Mo7 2.602570 1_545
Co1 Mo7 2.602570 1_554
Co1 Mo11 2.632995 1_655
Co1 Mo9 2.694269 1_555
Co1 Mo0 2.698766 1_555
Co1 Mo3 2.883229 1_554
Co1 Mo3 2.883230 1_545
Co2 Co4 2.343604 1_546
Co2 Co4 2.433870 1_555
Co2 Mo12 2.471290 1_555
Co2 Mo6 2.597756 1_556
Co2 Mo6 2.597756 1_655
Co2 Mo10 2.654691 1_555
Co2 Mo8 2.693252 1_545
Co2 Mo1 2.754856 1_545
Co2 Mo2 2.912520 1_655
Co2 Mo2 2.912520 1_556
Co3 Co5 2.381910 1_555
Co3 Co5 2.395564 1_564
Co3 Mo7 2.602570 1_455
Co3 Mo7 2.602570 1_554
Co3 Mo11 2.632995 1_565
Co3 Mo9 2.694269 1_555
Co3 Mo0 2.698766 1_555
Co3 Mo3 2.883229 1_554
Co3 Mo3 2.883230 1_455
Co4 Mo12 2.471290 1_555
Co4 Mo6 2.597755 1_565
Co4 Mo6 2.597755 1_655
Co4 Mo10 2.654691 1_555
Co4 Mo8 2.693253 1_554
Co4 Mo1 2.754855 1_554
Co4 Mo2 2.912520 1_565
Co4 Mo2 2.912520 1_655
Co5 Mo7 2.602569 1_545
Co5 Mo7 2.602569 1_455
Co5 Mo11 2.632994 1_556
Co5 Mo9 2.694269 1_555
Co5 Mo0 2.698766 1_555
Co5 Mo3 2.883229 1_545
Co5 Mo3 2.883229 1_455
Co6 Co8 2.381910 1_555
Co6 Co8 2.395564 1_465
Co6 Mo4 2.602570 1_565
Co6 Mo4 2.602570 1_556
Co6 Mo8 2.632995 1_455
Co6 Mo10 2.694269 1_555
Co6 Mo3 2.698766 1_555
Co6 Mo0 2.883229 1_556
Co6 Mo0 2.883230 1_565
Co7 Co9 2.343604 1_645
Co7 Co9 2.433870 1_555
Co7 Mo12 2.471290 1_555
Co7 Mo5 2.597756 1_554
Co7 Mo5 2.597756 1_545
Co7 Mo9 2.654691 1_555
Co7 Mo11 2.693252 1_655
Co7 Mo2 2.754856 1_655
Co7 Mo1 2.912520 1_545
Co7 Mo1 2.912520 1_554
Co8 Mo4 2.602570 1_655
Co8 Mo4 2.602570 1_556
Co8 Mo8 2.632995 1_545
Co8 Mo10 2.694269 1_555
Co8 Mo3 2.698766 1_555
Co8 Mo0 2.883229 1_556
Co8 Mo0 2.883230 1_655
Co9 Mo12 2.471290 1_555
Co9 Mo5 2.597756 1_554
Co9 Mo5 2.597756 1_455
Co9 Mo9 2.654691 1_555
Co9 Mo11 2.693252 1_565
Co9 Mo2 2.754856 1_565
Co9 Mo1 2.912520 1_455
Co9 Mo1 2.912520 1_554
Co10 Co8 2.381910 1_555
Co10 Co6 2.381910 1_555
Co10 Co6 2.395564 1_654
Co10 Co8 2.395564 1_564
Co10 Co12 2.405685 1_665
Co10 Mo4 2.602569 1_655
Co10 Mo4 2.602569 1_565
Co10 Mo8 2.632994 1_554
Co10 Mo10 2.694269 1_555
Co10 Mo3 2.698766 1_555
Co10 Mo0 2.883229 1_565
Co10 Mo0 2.883229 1_655
Co11 Co7 2.343604 1_456
Co11 Co9 2.343604 1_546
Co11 Co9 2.433870 1_555
Co11 Co7 2.433870 1_555
Co11 Mo12 2.471290 1_555
Co11 Mo5 2.597755 1_455
Co11 Mo5 2.597755 1_545
Co11 Mo9 2.654691 1_555
Co11 Mo11 2.693253 1_556
Co11 Mo2 2.754855 1_556
Co11 Mo1 2.912520 1_545
Co11 Mo1 2.912520 1_455
Co12 Co3 2.405685 1_545
Co12 Co6 2.405685 1_544
Co12 Co8 2.405685 1_454
Co12 Co5 2.405685 1_554
Co12 Mo3 2.780868 1_454
Co12 Mo3 2.780868 1_544
Co12 Mo0 2.780868 1_455
Co12 Mo0 2.780868 1_545
Co12 Mo3 2.780868 1_445
Co12 Mo0 2.780868 1_554
Mo0 Mo4 2.647695 1_555
Mo0 Mo3 2.847569 1_455
Mo0 Mo3 2.847569 1_545
Mo0 Mo3 2.847570 1_554
Mo1 Mo5 2.686725 1_555
Mo1 Mo12 2.782553 1_655
Mo1 Mo12 2.782553 1_565
Mo1 Mo12 2.782553 1_556
Mo1 Mo2 2.854145 1_656
Mo1 Mo2 2.854145 1_566
Mo1 Mo2 2.854146 1_665
Mo2 Mo6 2.686725 1_555
Mo3 Mo7 2.647695 1_555
Mo4 Mo6 2.515488 1_555
Mo4 Mo8 3.010957 1_454
Mo4 Mo8 3.010957 1_544
Mo4 Mo8 3.010958 1_445
Mo5 Mo7 2.515488 1_555
Mo5 Mo9 3.020793 1_655
Mo5 Mo9 3.020793 1_565
Mo5 Mo9 3.020793 1_556
Mo6 Mo8 3.052740 1_544
Mo6 Mo8 3.052740 1_454
Mo6 Mo8 3.052740 1_445
Mo7 Mo9 3.042397 1_565
Mo7 Mo9 3.042397 1_655
Mo7 Mo9 3.042397 1_556
Mo10 Mo8 2.759334 1_545
Mo10 Mo8 2.759334 1_455
Mo10 Mo8 2.759334 1_554
Mo10 Mo6 3.020793 1_565
Mo10 Mo6 3.020793 1_655
Mo10 Mo6 3.020793 1_556
Mo10 Mo4 3.042397 1_565
Mo10 Mo4 3.042397 1_655
Mo10 Mo4 3.042397 1_556
Mo11 Mo9 2.759334 1_455
Mo11 Mo9 2.759334 1_545
Mo11 Mo9 2.759334 1_554
Mo11 Mo7 3.010957 1_544
Mo11 Mo7 3.010957 1_454
Mo11 Mo7 3.010958 1_445
Mo11 Mo5 3.052740 1_454
Mo11 Mo5 3.052740 1_544
Mo11 Mo5 3.052740 1_445
Mo12 Mo2 2.782553 1_655
Mo12 Mo2 2.782553 1_565
Mo12 Mo2 2.782553 1_556
