# generated using pymatgen
data_MgZn5
_symmetry_space_group_name_H-M   'P 1'
_cell_length_a   4.85107112
_cell_length_b   4.85107112
_cell_length_c   4.43580243
_cell_angle_alpha   90.00000000
_cell_angle_beta   90.00000000
_cell_angle_gamma   119.99998332
_symmetry_Int_Tables_number   1
_chemical_formula_structural   MgZn5
_chemical_formula_sum   'Mg1 Zn5'
_cell_volume   90.40202986
_cell_formula_units_Z   1
loop_
 _symmetry_equiv_pos_site_id
 _symmetry_equiv_pos_as_xyz
  1  'x, y, z'
loop_
 _atom_site_type_symbol
 _atom_site_label
 _atom_site_symmetry_multiplicity
 _atom_site_fract_x
 _atom_site_fract_y
 _atom_site_fract_z
 _atom_site_occupancy
  Mg  Mg0  1  0.00000000  0.00000000  -0.00000000  1
  Zn  Zn0  1  -0.00000000  0.36335603  0.50000000  1
  Zn  Zn1  1  0.63664397  0.63664397  0.50000000  1
  Zn  Zn2  1  0.36335603  -0.00000000  0.50000000  1
  Zn  Zn3  1  0.66666700  0.33333300  0.00000000  1
  Zn  Zn4  1  0.33333300  0.66666700  0.00000000  1
loop_
_geom_bond_atom_site_label_1
_geom_bond_atom_site_label_2
_geom_bond_distance
_geom_bond_site_symmetry_2
Mg0 Zn4 2.800764 1_545
Mg0 Zn3 2.800764 1_455
Mg0 Zn3 2.800769 1_555
Mg0 Zn4 2.800769 1_445
Mg0 Zn4 2.800769 1_555
Mg0 Zn3 2.800769 1_445
Mg0 Zn2 2.833033 1_554
Mg0 Zn0 2.833033 1_555
Mg0 Zn2 2.833033 1_555
Mg0 Zn0 2.833033 1_554
Mg0 Zn1 2.833033 1_445
Mg0 Zn1 2.833033 1_444
Zn0 Zn1 2.683544 1_455
Zn0 Zn1 2.683545 1_555
Zn0 Zn2 2.683545 1_565
Zn0 Zn2 2.683545 1_455
Zn0 Zn3 2.705467 1_455
Zn0 Zn3 2.705467 1_456
Zn0 Zn4 2.705468 1_555
Zn0 Zn4 2.705468 1_556
Zn0 Zn2 3.053027 1_555
Zn0 Zn1 3.053027 1_445
Zn1 Zn2 2.683544 1_565
Zn1 Zn2 2.683545 1_555
Zn1 Zn4 2.705469 1_555
Zn1 Zn4 2.705469 1_556
Zn1 Zn3 2.705469 1_556
Zn1 Zn3 2.705469 1_555
Zn1 Zn2 3.053027 1_665
Zn2 Zn4 2.705467 1_545
Zn2 Zn4 2.705467 1_546
Zn2 Zn3 2.705468 1_556
Zn2 Zn3 2.705468 1_555
Zn3 Zn4 2.800765 1_545
Zn3 Zn4 2.800765 1_655
Zn3 Zn4 2.800773 1_555
