# generated using pymatgen
data_La4Re(NiO4)3
_symmetry_space_group_name_H-M   'P 1'
_cell_length_a   5.48883384
_cell_length_b   5.48868549
_cell_length_c   7.92744800
_cell_angle_alpha   90.00000000
_cell_angle_beta   90.00000000
_cell_angle_gamma   90.00000324
_symmetry_Int_Tables_number   1
_chemical_formula_structural   La4Re(NiO4)3
_chemical_formula_sum   'La4 Re1 Ni3 O12'
_cell_volume   238.82612467
_cell_formula_units_Z   1
loop_
 _symmetry_equiv_pos_site_id
 _symmetry_equiv_pos_as_xyz
  1  'x, y, z'
loop_
 _atom_site_type_symbol
 _atom_site_label
 _atom_site_symmetry_multiplicity
 _atom_site_fract_x
 _atom_site_fract_y
 _atom_site_fract_z
 _atom_site_occupancy
  La  La0  1  0.50000000  -0.00000000  0.72372999  1
  La  La1  1  0.00000000  0.50000000  0.27626239  1
  La  La2  1  0.50000000  -0.00000000  0.27627001  1
  La  La3  1  0.00000000  0.50000000  0.72373761  1
  Re  Re0  1  0.50000000  0.50000000  0.00000000  1
  Ni  Ni0  1  0.00000000  -0.00000000  0.00000000  1
  Ni  Ni1  1  0.50000000  0.50000000  0.50000000  1
  Ni  Ni2  1  0.00000000  -0.00000000  0.50000000  1
  O  O0  1  0.00000000  -0.00000000  0.74875361  1
  O  O1  1  0.50000000  0.50000000  0.24825647  1
  O  O2  1  0.75010620  0.75010860  0.50000000  1
  O  O3  1  0.25400695  0.25403355  0.00000000  1
  O  O4  1  0.75010404  0.24989035  0.50000000  1
  O  O5  1  0.25400122  0.74596138  0.00000000  1
  O  O6  1  0.00000000  -0.00000000  0.25124639  1
  O  O7  1  0.50000000  0.50000000  0.75174353  1
  O  O8  1  0.24989380  0.24989140  0.50000000  1
  O  O9  1  0.74599305  0.74596645  0.00000000  1
  O  O10  1  0.24989596  0.75010965  0.50000000  1
  O  O11  1  0.74599878  0.25403862  0.00000000  1
loop_
_geom_bond_atom_site_label_1
_geom_bond_atom_site_label_2
_geom_bond_distance
_geom_bond_site_symmetry_2
La0 O10 2.628956 1_545
La0 O4 2.628956 1_555
La0 O8 2.628966 1_555
La0 O2 2.628966 1_545
La0 O0 2.751577 1_555
La0 O0 2.751577 1_655
La0 O7 2.753313 1_545
La0 O7 2.753313 1_555
La0 O9 2.926395 1_546
La0 O3 2.926395 1_556
La0 O11 2.926423 1_556
La0 O5 2.926423 1_546
La1 O2 2.629020 1_455
La1 O8 2.629020 1_555
La1 O10 2.629029 1_555
La1 O4 2.629029 1_455
La1 O6 2.751499 1_555
La1 O6 2.751499 1_565
La1 O1 2.753382 1_455
La1 O1 2.753382 1_555
La1 O11 2.926187 1_455
La1 O5 2.926187 1_555
La1 O9 2.926214 1_455
La1 O3 2.926214 1_555
La2 O10 2.628956 1_545
La2 O4 2.628956 1_555
La2 O8 2.628966 1_555
La2 O2 2.628966 1_545
La2 O6 2.751577 1_555
La2 O6 2.751577 1_655
La2 O1 2.753313 1_545
La2 O1 2.753313 1_555
La2 O9 2.926395 1_545
La2 O3 2.926395 1_555
La2 O5 2.926423 1_545
La2 O11 2.926423 1_555
La3 O2 2.629020 1_455
La3 O8 2.629020 1_555
La3 O4 2.629029 1_455
La3 O10 2.629029 1_555
La3 O0 2.751499 1_565
La3 O0 2.751499 1_555
La3 O7 2.753382 1_555
La3 O7 2.753382 1_455
La3 O11 2.926187 1_456
La3 O5 2.926187 1_556
La3 O9 2.926214 1_456
La3 O3 2.926214 1_556
Ni0 O11 1.971773 1_455
Ni0 O5 1.971773 1_545
Ni0 O9 1.971776 1_445
Ni0 O3 1.971776 1_555
Ni0 O0 1.991743 1_554
Ni0 O6 1.991743 1_555
Ni1 O10 1.941399 1_555
Ni1 O4 1.941399 1_555
Ni1 O2 1.941403 1_555
Ni1 O8 1.941403 1_555
Ni1 O1 1.995684 1_555
Ni1 O7 1.995684 1_555
Ni2 O8 1.939736 1_555
Ni2 O2 1.939736 1_445
Ni2 O10 1.939740 1_545
Ni2 O4 1.939740 1_455
Ni2 O6 1.971981 1_555
Ni2 O0 1.971981 1_555
O1 Re0 1.968040 1_555
O3 Re0 1.909363 1_555
O5 Re0 1.909366 1_555
O7 Re0 1.968040 1_556
O9 Re0 1.909363 1_555
O11 Re0 1.909366 1_555
