# generated using pymatgen
data_YbSbS
_symmetry_space_group_name_H-M   'P 1'
_cell_length_a   3.94116563
_cell_length_b   3.88165315
_cell_length_c   21.46511300
_cell_angle_alpha   90.00000000
_cell_angle_beta   90.00000000
_cell_angle_gamma   89.99621398
_symmetry_Int_Tables_number   1
_chemical_formula_structural   YbSbS
_chemical_formula_sum   'Yb4 Sb4 S4'
_cell_volume   328.37840617
_cell_formula_units_Z   4
loop_
 _symmetry_equiv_pos_site_id
 _symmetry_equiv_pos_as_xyz
  1  'x, y, z'
loop_
 _atom_site_type_symbol
 _atom_site_label
 _atom_site_symmetry_multiplicity
 _atom_site_fract_x
 _atom_site_fract_y
 _atom_site_fract_z
 _atom_site_occupancy
  Yb  Yb0  1  0.81313200  0.24509000  0.18568200  1
  Yb  Yb1  1  0.68686800  0.25491000  0.68568200  1
  Yb  Yb2  1  0.18686800  0.75491000  0.81431800  1
  Yb  Yb3  1  0.31313200  0.74509000  0.31431800  1
  Sb  Sb0  1  0.74988500  0.75321000  0.53094300  1
  Sb  Sb1  1  0.75011500  0.74679000  0.03094300  1
  Sb  Sb2  1  0.25011500  0.24679000  0.46905700  1
  Sb  Sb3  1  0.24988500  0.25321000  0.96905700  1
  S  S0  1  0.81185800  0.24563200  0.31545900  1
  S  S1  1  0.68814200  0.25436800  0.81545900  1
  S  S2  1  0.18814200  0.75436800  0.68454100  1
  S  S3  1  0.31185800  0.74563200  0.18454100  1
loop_
_geom_bond_atom_site_label_1
_geom_bond_atom_site_label_2
_geom_bond_distance
_geom_bond_site_symmetry_2
Sb0 Sb2 3.051957 1_565
Sb0 Sb2 3.053291 1_665
Sb0 Sb2 3.083653 1_555
Sb0 Sb2 3.084646 1_655
Sb0 Yb1 3.851659 1_555
Sb0 Yb1 3.858287 1_565
Sb1 Sb3 3.051957 1_654
Sb1 Sb3 3.053291 1_554
Sb1 Sb3 3.083653 1_664
Sb1 Sb3 3.084646 1_564
Sb1 Yb0 3.851659 1_565
Sb1 Yb0 3.858287 1_555
Sb2 Yb3 3.851659 1_555
Sb2 Yb3 3.858287 1_545
Sb3 Yb2 3.851659 1_545
Sb3 Yb2 3.858287 1_555
S0 Yb3 2.760829 1_555
S0 Yb3 2.763967 1_545
S0 Yb3 2.768170 1_655
S0 Yb3 2.770935 1_645
S0 Yb0 2.785683 1_555
S1 Yb2 2.760829 1_645
S1 Yb2 2.763967 1_655
S1 Yb2 2.768170 1_545
S1 Yb2 2.770935 1_555
S1 Yb1 2.785683 1_555
S2 Yb1 2.760829 1_555
S2 Yb1 2.763967 1_565
S2 Yb1 2.768170 1_455
S2 Yb1 2.770935 1_465
S2 Yb2 2.785683 1_555
S3 Yb0 2.760829 1_465
S3 Yb0 2.763967 1_455
S3 Yb0 2.768170 1_565
S3 Yb0 2.770935 1_555
S3 Yb3 2.785683 1_555
