# generated using pymatgen
data_K2Mg4U3(H13O12)4
_symmetry_space_group_name_H-M   'P 1'
_cell_length_a   6.63989100
_cell_length_b   8.38874399
_cell_length_c   18.35492866
_cell_angle_alpha   94.80274354
_cell_angle_beta   93.16385375
_cell_angle_gamma   95.12930503
_symmetry_Int_Tables_number   1
_chemical_formula_structural   K2Mg4U3(H13O12)4
_chemical_formula_sum   'K2 Mg4 U3 H52 O48'
_cell_volume   1012.68104445
_cell_formula_units_Z   1
loop_
 _symmetry_equiv_pos_site_id
 _symmetry_equiv_pos_as_xyz
  1  'x, y, z'
loop_
 _atom_site_type_symbol
 _atom_site_label
 _atom_site_symmetry_multiplicity
 _atom_site_fract_x
 _atom_site_fract_y
 _atom_site_fract_z
 _atom_site_occupancy
  K  K0  1  0.47497200  0.99725600  0.86546000  1
  K  K1  1  0.52502800  0.00274400  0.13454000  1
  Mg  Mg0  1  0.50000000  0.50000000  0.00000000  1
  Mg  Mg1  1  0.46882700  0.54597300  0.72132700  1
  Mg  Mg2  1  0.53117300  0.45402700  0.27867300  1
  Mg  Mg3  1  0.50000000  0.00000000  0.50000000  1
  U  U0  1  0.00000000  0.00000000  0.00000000  1
  U  U1  1  0.97993700  0.03476100  0.73939000  1
  U  U2  1  0.02006300  0.96523900  0.26061000  1
  H  H0  1  0.21720900  0.64920100  0.50608300  1
  H  H1  1  0.78279100  0.35079900  0.49391700  1
  H  H2  1  0.27895700  0.49204600  0.46409700  1
  H  H3  1  0.72104300  0.50795400  0.53590300  1
  H  H4  1  0.86730600  0.58473400  0.94778400  1
  H  H5  1  0.13269400  0.41526600  0.05221600  1
  H  H6  1  0.81446000  0.39631300  0.93075800  1
  H  H7  1  0.18554000  0.60368700  0.06924200  1
  H  H8  1  0.15315100  0.35338400  0.65476500  1
  H  H9  1  0.84684900  0.64661600  0.34523500  1
  H  H10  1  0.25886300  0.45022300  0.59043200  1
  H  H11  1  0.74113700  0.54977700  0.40956800  1
  H  H12  1  0.50919200  0.80258100  0.97903000  1
  H  H13  1  0.49080800  0.19741900  0.02097000  1
  H  H14  1  0.27605100  0.72342800  0.96035700  1
  H  H15  1  0.72394900  0.27657200  0.03964300  1
  H  H16  1  0.77740900  0.73981700  0.80769900  1
  H  H17  1  0.22259100  0.26018300  0.19230100  1
  H  H18  1  0.64923900  0.62236100  0.85330800  1
  H  H19  1  0.35076100  0.37763900  0.14669200  1
  H  H20  1  0.69255800  0.32237100  0.76928500  1
  H  H21  1  0.30744200  0.67762900  0.23071500  1
  H  H22  1  0.45999700  0.23796800  0.75417500  1
  H  H23  1  0.54000300  0.76203200  0.24582500  1
  H  H24  1  0.32356800  0.40249500  0.86901500  1
  H  H25  1  0.67643200  0.59750500  0.13098500  1
  H  H26  1  0.18882200  0.31333500  0.92584000  1
  H  H27  1  0.81117800  0.68666500  0.07416000  1
  H  H28  1  0.80237700  0.44237300  0.66427200  1
  H  H29  1  0.19762300  0.55762700  0.33572800  1
  H  H30  1  0.83127500  0.63338500  0.66144300  1
  H  H31  1  0.16872500  0.36661500  0.33855700  1
  H  H32  1  0.16273900  0.64983000  0.80728000  1
  H  H33  1  0.83726100  0.35017000  0.19272000  1
  H  H34  1  0.09861600  0.46238900  0.78106500  1
  H  H35  1  0.90138400  0.53761100  0.21893500  1
  H  H36  1  0.48429900  0.85231900  0.69858400  1
  H  H37  1  0.51570100  0.14768100  0.30141600  1
  H  H38  1  0.25561800  0.77605200  0.67066700  1
  H  H39  1  0.74438200  0.22394800  0.32933300  1
  H  H40  1  0.56176900  0.10618500  0.64649500  1
  H  H41  1  0.43823100  0.89381500  0.35350500  1
  H  H42  1  0.41733800  0.22590100  0.61211700  1
  H  H43  1  0.58266200  0.77409900  0.38788300  1
  H  H44  1  0.76387600  0.85409800  0.57733000  1
  H  H45  1  0.23612400  0.14590200  0.42267000  1
  H  H46  1  0.54058500  0.77551400  0.58764400  1
  H  H47  1  0.45941500  0.22448600  0.41235600  1
  H  H48  1  0.11904300  0.89460100  0.46870000  1
  H  H49  1  0.88095700  0.10539900  0.53130000  1
  H  H50  1  0.12767600  0.90244500  0.55671600  1
  H  H51  1  0.87232400  0.09755500  0.44328400  1
  O  O0  1  0.94148100  0.27618900  0.68494200  1
  O  O1  1  0.05851900  0.72381100  0.31505800  1
  O  O2  1  0.03695500  0.73177500  0.97021700  1
  O  O3  1  0.96304500  0.26822500  0.02978300  1
  O  O4  1  0.96159800  0.24186800  0.94988500  1
  O  O5  1  0.03840200  0.75813200  0.05011500  1
  O  O6  1  0.93820600  0.30832200  0.76526600  1
  O  O7  1  0.06179400  0.69167800  0.23473400  1
  O  O8  1  0.01444900  0.79807500  0.66679600  1
  O  O9  1  0.98555100  0.20192500  0.33320400  1
  O  O10  1  0.98447600  0.92386800  0.61713500  1
  O  O11  1  0.01552400  0.07613200  0.38286500  1
  O  O12  1  0.99751600  0.98006900  0.86420800  1
  O  O13  1  0.00248400  0.01993100  0.13579200  1
  O  O14  1  0.01090800  0.83262300  0.81662100  1
  O  O15  1  0.98909200  0.16737700  0.18337900  1
  O  O16  1  0.28335200  0.04437600  0.00476300  1
  O  O17  1  0.71664800  0.95562400  0.99523700  1
  O  O18  1  0.26255800  0.08332100  0.74573000  1
  O  O19  1  0.73744200  0.91667900  0.25427000  1
  O  O20  1  0.69473500  0.99359900  0.73218800  1
  O  O21  1  0.30526500  0.00640100  0.26781200  1
  O  O22  1  0.23716400  0.53594100  0.51131200  1
  O  O23  1  0.76283600  0.46405900  0.48868800  1
  O  O24  1  0.75054800  0.49982700  0.93335700  1
  O  O25  1  0.24945200  0.50017300  0.06664300  1
  O  O26  1  0.28718100  0.39882600  0.63712700  1
  O  O27  1  0.71281900  0.60117400  0.36287300  1
  O  O28  1  0.42383600  0.70720200  0.95531700  1
  O  O29  1  0.57616400  0.29279800  0.04468300  1
  O  O30  1  0.63695000  0.68445500  0.81012200  1
  O  O31  1  0.36305000  0.31554500  0.18987800  1
  O  O32  1  0.54440500  0.34122400  0.76708200  1
  O  O33  1  0.45559500  0.65877600  0.23291800  1
  O  O34  1  0.33170700  0.35279000  0.91524400  1
  O  O35  1  0.66829300  0.64721000  0.08475600  1
  O  O36  1  0.72726500  0.53846600  0.65755900  1
  O  O37  1  0.27273500  0.46153400  0.34244100  1
  O  O38  1  0.21712100  0.54899700  0.78912900  1
  O  O39  1  0.78287900  0.45100300  0.21087100  1
  O  O40  1  0.40423300  0.75474500  0.67372000  1
  O  O41  1  0.59576700  0.24525500  0.32628000  1
  O  O42  1  0.49541500  0.13231500  0.60056000  1
  O  O43  1  0.50458500  0.86768500  0.39944000  1
  O  O44  1  0.62862200  0.81854800  0.55057800  1
  O  O45  1  0.37137800  0.18145200  0.44942200  1
  O  O46  1  0.20901500  0.88089700  0.51077700  1
  O  O47  1  0.79098500  0.11910300  0.48922300  1
loop_
_geom_bond_atom_site_label_1
_geom_bond_atom_site_label_2
_geom_bond_distance
_geom_bond_site_symmetry_2
K0 O18 2.728685 1_565
K0 O17 2.861602 1_555
K0 O20 2.916084 1_555
K0 O16 2.931312 1_566
K0 O30 3.041834 1_555
K0 O12 3.159353 1_455
K0 O34 3.283595 1_565
K1 O19 2.728685 1_545
K1 O16 2.861602 1_555
K1 O21 2.916084 1_555
K1 O17 2.931312 1_544
K1 O31 3.041834 1_555
K1 O13 3.159353 1_655
K1 O35 3.283595 1_545
Mg0 O29 2.073578 1_555
Mg0 O28 2.073578 1_554
Mg0 O35 2.105594 1_555
Mg0 O34 2.105594 1_554
Mg0 O24 2.118644 1_554
Mg0 O25 2.118644 1_555
Mg1 O32 2.063104 1_555
Mg1 O40 2.088993 1_555
Mg1 O30 2.121855 1_555
Mg1 O36 2.132435 1_555
Mg1 O38 2.138821 1_555
Mg1 O26 2.139042 1_555
Mg2 O33 2.063104 1_555
Mg2 O41 2.088993 1_555
Mg2 O31 2.121855 1_555
Mg2 O37 2.132435 1_555
Mg2 O39 2.138821 1_555
Mg2 O27 2.139042 1_555
Mg3 O45 2.071166 1_555
Mg3 O44 2.071166 1_545
Mg3 O42 2.075810 1_555
Mg3 O43 2.075810 1_545
Mg3 O46 2.121446 1_545
Mg3 O47 2.121446 1_555
H0 O22 0.982777 1_555
H1 O23 0.982777 1_555
H2 O22 0.977252 1_555
H3 O23 0.977252 1_555
H4 O24 1.012665 1_555
H4 O2 1.604755 1_655
H5 O25 1.012665 1_555
H5 O3 1.604755 1_455
H6 O24 0.998794 1_555
H6 O4 1.738090 1_555
H7 O25 0.998794 1_555
H7 O5 1.738090 1_555
H8 O26 1.016826 1_555
H8 O0 1.638516 1_455
H9 O27 1.016826 1_555
H9 O1 1.638516 1_655
H10 O26 1.007188 1_555
H11 O27 1.007188 1_555
H12 O28 0.992070 1_555
H12 K0 2.765523 1_555
H13 O29 0.992070 1_555
H13 K1 2.765523 1_555
H14 O28 1.010833 1_555
H14 O2 1.614778 1_555
H15 O29 1.010833 1_555
H15 O3 1.614778 1_555
H16 O30 1.008987 1_555
H16 O14 1.664777 1_655
H17 O31 1.008987 1_555
H17 O15 1.664777 1_455
H18 O30 0.987887 1_555
H19 O31 0.987887 1_555
H20 O32 1.009381 1_555
H20 O6 1.651041 1_555
H21 O33 1.009381 1_555
H21 O7 1.651041 1_555
H22 O32 0.992320 1_555
H23 O33 0.992320 1_555
H24 O34 0.977238 1_555
H25 O35 0.977238 1_555
H26 O34 1.011178 1_555
H26 O4 1.669307 1_455
H27 O35 1.011178 1_555
H27 O5 1.669307 1_655
H28 O36 0.997723 1_555
H29 O37 0.997723 1_555
H30 O36 1.001389 1_555
H30 O8 1.749633 1_655
H31 O37 1.001389 1_555
H31 O9 1.749633 1_455
H32 O38 0.988721 1_555
H33 O39 0.988721 1_555
H34 O38 1.017754 1_555
H34 O6 1.595594 1_455
H35 O39 1.017754 1_555
H35 O7 1.595594 1_655
H36 O40 0.996869 1_555
H37 O41 0.996869 1_555
H38 O40 1.017815 1_555
H38 O8 1.626651 1_555
H39 O41 1.017815 1_555
H39 O9 1.626651 1_555
H40 O42 0.979922 1_555
H41 O43 0.979922 1_555
H42 O42 0.993539 1_555
H43 O43 0.993539 1_555
H44 O44 1.007717 1_555
H44 O10 1.636720 1_555
H45 O45 1.007717 1_555
H45 O11 1.636720 1_555
H46 O44 0.991054 1_555
H47 O45 0.991054 1_555
H48 O46 0.970981 1_555
H49 O47 0.970981 1_555
H50 O46 1.038058 1_555
H50 O10 1.509902 1_455
H51 O47 1.038058 1_555
H51 O11 1.509902 1_655
O0 O6 1.478125 1_555
O0 U1 2.359864 1_555
O1 O7 1.478125 1_555
O1 U2 2.359864 1_555
O2 O5 1.464047 1_556
O2 U0 2.308556 1_566
O3 O4 1.464047 1_554
O3 U0 2.308556 1_655
O4 U0 2.325298 1_656
O5 U0 2.325298 1_565
O6 U1 2.348262 1_555
O7 U2 2.348262 1_555
O8 U1 2.332855 1_465
O9 U2 2.332855 1_645
O10 O8 1.470586 1_655
O10 U1 2.358954 1_565
O11 O9 1.470586 1_455
O11 U2 2.358954 1_545
O12 O14 1.465624 1_655
O12 U1 2.372548 1_565
O12 U0 2.483089 1_666
O13 O15 1.465624 1_455
O13 U2 2.372548 1_545
O13 U0 2.483089 1_555
O14 U1 2.315129 1_465
O15 U2 2.315129 1_645
O16 U0 1.880730 1_555
O17 U0 1.880730 1_666
O18 U1 1.879435 1_455
O19 U2 1.879435 1_655
O20 U1 1.889615 1_565
O21 U2 1.889615 1_545
