# generated using pymatgen
data_CrO2
_symmetry_space_group_name_H-M   'P 1'
_cell_length_a   5.96475442
_cell_length_b   5.96475442
_cell_length_c   14.24597264
_cell_angle_alpha   89.87432166
_cell_angle_beta   89.87432166
_cell_angle_gamma   59.88050672
_symmetry_Int_Tables_number   1
_chemical_formula_structural   CrO2
_chemical_formula_sum   'Cr12 O24'
_cell_volume   438.41185645
_cell_formula_units_Z   12
loop_
 _symmetry_equiv_pos_site_id
 _symmetry_equiv_pos_as_xyz
  1  'x, y, z'
loop_
 _atom_site_type_symbol
 _atom_site_label
 _atom_site_symmetry_multiplicity
 _atom_site_fract_x
 _atom_site_fract_y
 _atom_site_fract_z
 _atom_site_occupancy
  Cr  Cr0  1  0.65754600  0.65754600  0.83474100  1
  Cr  Cr1  1  0.65791100  0.18481600  0.83466900  1
  Cr  Cr2  1  0.99108200  0.99108200  0.50385100  1
  Cr  Cr3  1  0.18481600  0.65791100  0.83466900  1
  Cr  Cr4  1  0.99193700  0.51782400  0.50455400  1
  Cr  Cr5  1  0.16701300  0.16701300  0.34081600  1
  Cr  Cr6  1  0.16677400  0.16677400  0.71563400  1
  Cr  Cr7  1  0.33006100  0.33006100  0.16063100  1
  Cr  Cr8  1  0.51782400  0.99193700  0.50455400  1
  Cr  Cr9  1  0.32842700  0.84276100  0.16797700  1
  Cr  Cr10  1  0.84276100  0.32842700  0.16797700  1
  Cr  Cr11  1  0.83235500  0.83235500  0.04344100  1
  O  O0  1  0.35014800  0.35014800  0.90069200  1
  O  O1  1  0.50037100  0.50037100  0.75987700  1
  O  O2  1  0.34959900  0.79948900  0.90065200  1
  O  O3  1  0.79948900  0.34959900  0.90065200  1
  O  O4  1  0.67673000  0.67673000  0.56412500  1
  O  O5  1  0.49709300  0.00154000  0.76194500  1
  O  O6  1  0.83394200  0.83394200  0.43025100  1
  O  O7  1  0.00154000  0.49709300  0.76194500  1
  O  O8  1  0.83324300  0.83324300  0.91168900  1
  O  O9  1  0.67755800  0.14664000  0.56418400  1
  O  O10  1  0.14663900  0.67755800  0.56418400  1
  O  O11  1  0.00151100  0.00151100  0.76181700  1
  O  O12  1  0.02461800  0.02461800  0.24657500  1
  O  O13  1  0.88662000  0.30736900  0.42612500  1
  O  O14  1  0.30736900  0.88662000  0.42612500  1
  O  O15  1  0.16259300  0.16259300  0.09453700  1
  O  O16  1  0.16683500  0.16683500  0.58603700  1
  O  O17  1  0.02722100  0.44518100  0.24463800  1
  O  O18  1  0.44518100  0.02722100  0.24463800  1
  O  O19  1  0.30616800  0.30616800  0.42693000  1
  O  O20  1  0.15199300  0.67372500  0.09351100  1
  O  O21  1  0.67372500  0.15199300  0.09351100  1
  O  O22  1  0.50229300  0.50229300  0.21846600  1
  O  O23  1  0.67406100  0.67406100  0.09271600  1
loop_
_geom_bond_atom_site_label_1
_geom_bond_atom_site_label_2
_geom_bond_distance
_geom_bond_site_symmetry_2
Cr0 O3 1.845960 1_555
Cr0 O2 1.845960 1_555
Cr0 O1 1.945808 1_555
Cr0 O5 2.055645 1_565
Cr0 O7 2.055645 1_655
Cr0 O8 2.123804 1_555
Cr1 O3 1.844820 1_555
Cr1 O0 1.845728 1_555
Cr1 O1 1.944608 1_555
Cr1 O11 2.054191 1_655
Cr1 O5 2.061630 1_555
Cr1 O8 2.118758 1_545
Cr2 O9 1.830824 1_565
Cr2 O10 1.830824 1_655
Cr2 O6 1.935654 1_555
Cr2 O14 1.996895 1_655
Cr2 O13 1.996895 1_565
Cr2 O16 2.163909 1_665
Cr3 O2 1.844820 1_555
Cr3 O0 1.845728 1_555
Cr3 O1 1.944608 1_555
Cr3 O11 2.054191 1_565
Cr3 O7 2.061630 1_555
Cr3 O8 2.118758 1_455
Cr4 O4 1.833448 1_555
Cr4 O10 1.835821 1_655
Cr4 O6 1.943241 1_555
Cr4 O19 1.987954 1_655
Cr4 O13 2.004854 1_555
Cr4 O16 2.149768 1_655
Cr5 O14 1.888214 1_545
Cr5 O13 1.888214 1_455
Cr5 O19 1.892943 1_555
Cr5 O17 1.982950 1_555
Cr5 O18 1.982950 1_555
Cr5 O12 1.994807 1_555
Cr6 O5 1.828273 1_555
Cr6 O7 1.828273 1_555
Cr6 O11 1.829155 1_555
Cr6 O16 1.846234 1_555
Cr7 O22 1.963732 1_555
Cr7 O15 1.972778 1_555
Cr7 O18 1.978884 1_555
Cr7 O17 1.978884 1_555
Cr7 O20 2.013742 1_555
Cr7 O21 2.013742 1_555
Cr8 O4 1.833448 1_555
Cr8 O9 1.835825 1_565
Cr8 O6 1.943241 1_555
Cr8 O19 1.987954 1_565
Cr8 O14 2.004854 1_555
Cr8 O16 2.149768 1_565
Cr9 O22 1.897422 1_555
Cr9 O18 1.914645 1_565
Cr9 O12 1.933363 1_565
Cr9 O15 1.953035 1_565
Cr9 O20 2.079418 1_555
Cr9 O23 2.079761 1_555
Cr10 O22 1.897422 1_555
Cr10 O17 1.914645 1_655
Cr10 O12 1.933363 1_655
Cr10 O15 1.953035 1_655
Cr10 O21 2.079418 1_555
Cr10 O23 2.079761 1_555
Cr11 O23 1.778938 1_555
Cr11 O21 1.797656 1_565
Cr11 O20 1.797656 1_655
Cr11 O8 1.876935 1_554
