# generated using pymatgen
data_LuGaNi2
_symmetry_space_group_name_H-M   'P 1'
_cell_length_a   4.37772920
_cell_length_b   4.37772920
_cell_length_c   4.37772920
_cell_angle_alpha   60.00000000
_cell_angle_beta   60.00000000
_cell_angle_gamma   60.00000000
_symmetry_Int_Tables_number   1
_chemical_formula_structural   LuGaNi2
_chemical_formula_sum   'Lu1 Ga1 Ni2'
_cell_volume   59.32417132
_cell_formula_units_Z   1
loop_
 _symmetry_equiv_pos_site_id
 _symmetry_equiv_pos_as_xyz
  1  'x, y, z'
loop_
 _atom_site_type_symbol
 _atom_site_label
 _atom_site_symmetry_multiplicity
 _atom_site_fract_x
 _atom_site_fract_y
 _atom_site_fract_z
 _atom_site_occupancy
  Lu  Lu0  1  0.00000000  0.00000000  0.00000000  1
  Ga  Ga0  1  0.50000000  0.50000000  0.50000000  1
  Ni  Ni0  1  0.25000000  0.25000000  0.25000000  1
  Ni  Ni1  1  0.75000000  0.75000000  0.75000000  1
loop_
_geom_bond_atom_site_label_1
_geom_bond_atom_site_label_2
_geom_bond_distance
_geom_bond_site_symmetry_2
Lu0 Ni1 2.680801 1_445
Lu0 Ni0 2.680801 1_554
Lu0 Ni0 2.680801 1_555
Lu0 Ni1 2.680801 1_444
Lu0 Ni1 2.680801 1_454
Lu0 Ni0 2.680801 1_545
Lu0 Ni1 2.680801 1_544
Lu0 Ni0 2.680801 1_455
Ga0 Ni0 2.680801 1_556
Ga0 Ni1 2.680801 1_554
Ga0 Ni0 2.680801 1_555
Ga0 Ni0 2.680801 1_565
Ga0 Ni1 2.680801 1_545
Ga0 Ni1 2.680801 1_555
Ga0 Ni1 2.680801 1_455
Ga0 Ni0 2.680801 1_655
Ga0 Lu0 3.095522 1_665
Ga0 Lu0 3.095522 1_656
Ga0 Lu0 3.095522 1_556
Ga0 Lu0 3.095522 1_655
Ga0 Lu0 3.095522 1_565
Ga0 Lu0 3.095522 1_566
