# generated using pymatgen
data_Ba2V2CuBrO8
_symmetry_space_group_name_H-M   'P 1'
_cell_length_a   6.24943500
_cell_length_b   9.79876700
_cell_length_c   15.18055000
_cell_angle_alpha   90.00000000
_cell_angle_beta   90.00000000
_cell_angle_gamma   90.00000000
_symmetry_Int_Tables_number   1
_chemical_formula_structural   Ba2V2CuBrO8
_chemical_formula_sum   'Ba8 V8 Cu4 Br4 O32'
_cell_volume   929.60765826
_cell_formula_units_Z   4
loop_
 _symmetry_equiv_pos_site_id
 _symmetry_equiv_pos_as_xyz
  1  'x, y, z'
loop_
 _atom_site_type_symbol
 _atom_site_label
 _atom_site_symmetry_multiplicity
 _atom_site_fract_x
 _atom_site_fract_y
 _atom_site_fract_z
 _atom_site_occupancy
  Ba  Ba0  1  0.75000000  0.14191100  0.53225000  1
  Ba  Ba1  1  0.75000000  0.35808900  0.03225000  1
  Ba  Ba2  1  0.25000000  0.85808900  0.46775000  1
  Ba  Ba3  1  0.25000000  0.64191100  0.96775000  1
  Ba  Ba4  1  0.75000000  0.46231100  0.75263800  1
  Ba  Ba5  1  0.75000000  0.03768900  0.25263800  1
  Ba  Ba6  1  0.25000000  0.53768900  0.24736200  1
  Ba  Ba7  1  0.25000000  0.96231100  0.74736200  1
  V  V0  1  0.25000000  0.28899200  0.63121800  1
  V  V1  1  0.25000000  0.21100800  0.13121800  1
  V  V2  1  0.75000000  0.71100800  0.36878200  1
  V  V3  1  0.75000000  0.78899200  0.86878200  1
  V  V4  1  0.25000000  0.29253300  0.86849400  1
  V  V5  1  0.25000000  0.20746700  0.36849400  1
  V  V6  1  0.75000000  0.70746700  0.13150600  1
  V  V7  1  0.75000000  0.79253300  0.63150600  1
  Cu  Cu0  1  0.00000000  0.50000000  0.50000000  1
  Cu  Cu1  1  0.50000000  0.00000000  0.00000000  1
  Cu  Cu2  1  0.50000000  0.50000000  0.50000000  1
  Cu  Cu3  1  0.00000000  0.00000000  0.00000000  1
  Br  Br0  1  0.25000000  0.61877000  0.75014000  1
  Br  Br1  1  0.25000000  0.88123000  0.25014000  1
  Br  Br2  1  0.75000000  0.38123000  0.24986000  1
  Br  Br3  1  0.75000000  0.11877000  0.74986000  1
  O  O0  1  0.25000000  0.12955900  0.58926000  1
  O  O1  1  0.25000000  0.37044100  0.08926000  1
  O  O2  1  0.75000000  0.87044100  0.41074000  1
  O  O3  1  0.75000000  0.62955900  0.91074000  1
  O  O4  1  0.01237600  0.36937500  0.59856600  1
  O  O5  1  0.48762400  0.13062500  0.09856600  1
  O  O6  1  0.51237600  0.63062500  0.40143400  1
  O  O7  1  0.98762400  0.86937500  0.90143400  1
  O  O8  1  0.98762400  0.63062500  0.40143400  1
  O  O9  1  0.51237600  0.86937500  0.90143400  1
  O  O10  1  0.48762400  0.36937500  0.59856600  1
  O  O11  1  0.01237600  0.13062500  0.09856600  1
  O  O12  1  0.47356700  0.38367700  0.89829500  1
  O  O13  1  0.02643300  0.11632300  0.39829500  1
  O  O14  1  0.97356700  0.61632300  0.10170500  1
  O  O15  1  0.52643300  0.88367700  0.60170500  1
  O  O16  1  0.52643300  0.61632300  0.10170500  1
  O  O17  1  0.97356700  0.88367700  0.60170500  1
  O  O18  1  0.02643300  0.38367700  0.89829500  1
  O  O19  1  0.47356700  0.11632300  0.39829500  1
  O  O20  1  0.25000000  0.26166400  0.74834200  1
  O  O21  1  0.25000000  0.23833600  0.24834200  1
  O  O22  1  0.75000000  0.73833600  0.25165800  1
  O  O23  1  0.75000000  0.76166400  0.75165800  1
  O  O24  1  0.75000000  0.63287400  0.58689500  1
  O  O25  1  0.75000000  0.86712600  0.08689500  1
  O  O26  1  0.25000000  0.36712600  0.41310500  1
  O  O27  1  0.25000000  0.13287400  0.91310500  1
  O  O28  1  0.25000000  0.58260500  0.53401700  1
  O  O29  1  0.25000000  0.91739500  0.03401700  1
  O  O30  1  0.75000000  0.41739500  0.46598300  1
  O  O31  1  0.75000000  0.08260500  0.96598300  1
loop_
_geom_bond_atom_site_label_1
_geom_bond_atom_site_label_2
_geom_bond_distance
_geom_bond_site_symmetry_2
Ba0 O13 2.680011 1_655
Ba0 O19 2.680011 1_555
Ba0 O30 2.880756 1_555
Ba0 O10 2.944476 1_555
Ba0 O4 2.944476 1_655
Ba0 O17 3.076777 1_545
Ba0 O15 3.076777 1_545
Ba0 O2 3.237049 1_545
Ba0 O0 3.244611 1_555
Ba0 O0 3.244611 1_655
Ba0 Br3 3.311213 1_555
Ba1 O18 2.680011 1_654
Ba1 O12 2.680011 1_554
Ba1 O31 2.880756 1_554
Ba1 O11 2.944476 1_655
Ba1 O5 2.944476 1_555
Ba1 O16 3.076777 1_555
Ba1 O14 3.076777 1_555
Ba1 O3 3.237049 1_554
Ba1 O1 3.244611 1_655
Ba1 O1 3.244611 1_555
Ba1 Br2 3.311213 1_555
Ba2 O15 2.680011 1_555
Ba2 O17 2.680011 1_455
Ba2 O28 2.880756 1_555
Ba2 O6 2.944476 1_555
Ba2 O8 2.944476 1_455
Ba2 O19 3.076777 1_565
Ba2 O13 3.076777 1_565
Ba2 O0 3.237049 1_565
Ba2 O2 3.244611 1_555
Ba2 O2 3.244611 1_455
Ba2 Br1 3.311213 1_555
Ba3 O16 2.680011 1_556
Ba3 O14 2.680011 1_456
Ba3 O29 2.880756 1_556
Ba3 O9 2.944476 1_555
Ba3 O7 2.944476 1_455
Ba3 O18 3.076777 1_555
Ba3 O12 3.076777 1_555
Ba3 O1 3.237049 1_556
Ba3 O3 3.244611 1_455
Ba3 O3 3.244611 1_555
Ba3 Br0 3.311213 1_555
Ba4 O3 2.906219 1_555
Ba4 O18 2.909867 1_655
Ba4 O12 2.909867 1_555
Ba4 O23 2.933328 1_555
Ba4 O4 2.998060 1_655
Ba4 O10 2.998060 1_555
Ba4 O24 3.020575 1_555
Ba4 Br3 3.366542 1_555
Ba4 Br0 3.480763 1_555
Ba4 Br0 3.480763 1_655
Ba5 O2 2.906219 1_545
Ba5 O13 2.909867 1_655
Ba5 O19 2.909867 1_555
Ba5 O22 2.933328 1_545
Ba5 O11 2.998060 1_655
Ba5 O5 2.998060 1_555
Ba5 O25 3.020575 1_545
Ba5 Br2 3.366542 1_555
Ba5 Br1 3.480763 1_645
Ba5 Br1 3.480763 1_545
Ba6 O1 2.906219 1_555
Ba6 O16 2.909867 1_555
Ba6 O14 2.909867 1_455
Ba6 O21 2.933328 1_555
Ba6 O8 2.998060 1_455
Ba6 O6 2.998060 1_555
Ba6 O26 3.020575 1_555
Ba6 Br1 3.366542 1_555
Ba6 Br2 3.480763 1_455
Ba6 Br2 3.480763 1_555
Ba7 O0 2.906219 1_565
Ba7 O15 2.909867 1_555
Ba7 O17 2.909867 1_455
Ba7 O20 2.933328 1_565
Ba7 O9 2.998060 1_555
Ba7 O7 2.998060 1_455
Ba7 O27 3.020575 1_565
Ba7 Br0 3.366542 1_555
Ba7 Br3 3.480763 1_465
Ba7 Br3 3.480763 1_565
Cu0 O30 1.833795 1_455
Cu0 O28 1.833795 1_555
Cu0 O8 1.970574 1_455
Cu0 O4 1.970574 1_555
Cu0 O24 2.424094 1_455
Cu0 O26 2.424094 1_555
Cu1 O31 1.833795 1_554
Cu1 O29 1.833795 1_545
Cu1 O5 1.970574 1_555
Cu1 O9 1.970574 1_544
Cu1 O27 2.424094 1_554
Cu1 O25 2.424094 1_545
Cu2 O30 1.833795 1_555
Cu2 O28 1.833795 1_555
Cu2 O6 1.970574 1_555
Cu2 O10 1.970574 1_555
Cu2 O24 2.424094 1_555
Cu2 O26 2.424094 1_555
Cu3 O31 1.833795 1_454
Cu3 O29 1.833795 1_545
Cu3 O11 1.970574 1_555
Cu3 O7 1.970574 1_444
Cu3 O27 2.424094 1_554
Cu3 O25 2.424094 1_445
O0 V0 1.687102 1_555
O1 V1 1.687102 1_555
O2 V2 1.687102 1_555
O3 V3 1.687102 1_555
O4 V0 1.752531 1_555
O5 V1 1.752531 1_555
O6 V2 1.752531 1_555
O7 V3 1.752531 1_555
O8 V2 1.752531 1_555
O9 V3 1.752531 1_555
O10 V0 1.752531 1_555
O11 V1 1.752531 1_555
O12 V4 1.718826 1_555
O13 V5 1.718826 1_555
O14 V6 1.718826 1_555
O15 V7 1.718826 1_555
O16 V6 1.718826 1_555
O17 V7 1.718826 1_555
O18 V4 1.718826 1_555
O19 V5 1.718826 1_555
O20 V0 1.798059 1_555
O20 V4 1.848884 1_555
O21 V1 1.798059 1_555
O21 V5 1.848884 1_555
O22 V2 1.798059 1_555
O22 V6 1.848884 1_555
O23 V3 1.798059 1_555
O23 V7 1.848884 1_555
O24 V7 1.704748 1_555
O25 V6 1.704748 1_555
O26 V5 1.704748 1_555
O27 V4 1.704748 1_555
