# generated using pymatgen
data_Pm2Se3
_symmetry_space_group_name_H-M   'P 1'
_cell_length_a   14.70586310
_cell_length_b   14.70586310
_cell_length_c   14.70586310
_cell_angle_alpha   144.86627394
_cell_angle_beta   144.86627394
_cell_angle_gamma   50.53385136
_symmetry_Int_Tables_number   1
_chemical_formula_structural   Pm2Se3
_chemical_formula_sum   'Pm16 Se24'
_cell_volume   1047.97264106
_cell_formula_units_Z   8
loop_
 _symmetry_equiv_pos_site_id
 _symmetry_equiv_pos_as_xyz
  1  'x, y, z'
loop_
 _atom_site_type_symbol
 _atom_site_label
 _atom_site_symmetry_multiplicity
 _atom_site_fract_x
 _atom_site_fract_y
 _atom_site_fract_z
 _atom_site_occupancy
  Pm  Pm0  1  0.84596451  0.95194227  0.37671610  1
  Pm  Pm1  1  0.57522617  0.46924841  0.62328390  1
  Pm  Pm2  1  0.16623175  0.16623175  0.00000000  1
  Pm  Pm3  1  0.87500000  0.50624714  0.13124714  1
  Pm  Pm4  1  0.17477383  0.29805773  0.39402124  1
  Pm  Pm5  1  0.58376825  0.08376825  0.50000000  1
  Pm  Pm6  1  0.90403549  0.78075159  0.60597876  1
  Pm  Pm7  1  0.37500000  0.74375286  0.86875286  1
  Pm  Pm8  1  0.21924841  0.82522617  0.12328390  1
  Pm  Pm9  1  0.91623175  0.41623175  0.50000000  1
  Pm  Pm10  1  0.49375286  0.62500000  0.36875286  1
  Pm  Pm11  1  0.25624714  0.12500000  0.63124714  1
  Pm  Pm12  1  0.70194227  0.09596451  0.87671610  1
  Pm  Pm13  1  0.83376825  0.83376825  0.00000000  1
  Pm  Pm14  1  0.53075159  0.15403549  0.10597876  1
  Pm  Pm15  1  0.04805773  0.42477383  0.89402124  1
  Se  Se0  1  0.50651518  0.11431786  0.25348123  1
  Se  Se1  1  0.07359378  0.82707739  0.61000955  1
  Se  Se2  1  0.86083662  0.25303394  0.74651877  1
  Se  Se3  1  0.88916338  0.13568214  0.89219732  1
  Se  Se4  1  0.24348482  0.99696606  0.10780268  1
  Se  Se5  1  0.67640622  0.78641577  0.25348261  1
  Se  Se6  1  0.21706684  0.46358423  0.38999045  1
  Se  Se7  1  0.84235085  0.43736722  0.24639304  1
  Se  Se8  1  0.53293316  0.42292261  0.74651739  1
  Se  Se9  1  0.40404218  0.15764915  0.59501637  1
  Se  Se10  1  0.19097418  0.59595782  0.75360696  1
  Se  Se11  1  0.21358423  0.46706684  0.88999045  1
  Se  Se12  1  0.57707739  0.32359378  0.11000955  1
  Se  Se13  1  0.00303394  0.11083662  0.24651877  1
  Se  Se14  1  0.56263278  0.80902582  0.40498363  1
  Se  Se15  1  0.17292261  0.78293316  0.24651739  1
  Se  Se16  1  0.86431786  0.75651518  0.75348123  1
  Se  Se17  1  0.74696606  0.49348482  0.60780268  1
  Se  Se18  1  0.53641577  0.92640622  0.75348261  1
  Se  Se19  1  0.55902582  0.81263278  0.90498363  1
  Se  Se20  1  0.90764915  0.65404218  0.09501637  1
  Se  Se21  1  0.34595782  0.44097418  0.25360696  1
  Se  Se22  1  0.88568214  0.13916338  0.39219732  1
  Se  Se23  1  0.18736722  0.09235085  0.74639304  1
loop_
_geom_bond_atom_site_label_1
_geom_bond_atom_site_label_2
_geom_bond_distance
_geom_bond_site_symmetry_2
Pm0 Se5 2.921768 1_555
Pm0 Se20 2.930369 1_555
Pm0 Se22 2.962253 1_565
Pm0 Se2 3.021359 1_565
Pm0 Se23 3.033173 1_665
Pm0 Se19 3.161089 1_554
Pm0 Se1 3.170704 1_655
Pm0 Se0 3.321628 1_565
Pm1 Se8 2.921781 1_555
Pm1 Se19 2.930369 1_555
Pm1 Se17 2.962253 1_555
Pm1 Se0 3.021359 1_555
Pm1 Se21 3.033173 1_555
Pm1 Se20 3.161089 1_556
Pm1 Se6 3.170715 1_555
Pm1 Se2 3.321628 1_555
Pm2 Se1 2.948894 1_544
Pm2 Se6 2.948900 1_555
Pm2 Se2 2.967730 1_454
Pm2 Se0 2.967730 1_555
Pm2 Se3 3.148609 1_454
Pm2 Se4 3.148609 1_545
Pm2 Se23 3.166287 1_554
Pm2 Se21 3.166287 1_555
Pm3 Se8 2.960093 1_554
Pm3 Se6 2.960094 1_655
Pm3 Se20 2.979502 1_555
Pm3 Se7 2.979502 1_555
Pm3 Se5 3.148374 1_555
Pm3 Se1 3.148378 1_655
Pm3 Se2 3.243316 1_554
Pm3 Se3 3.243316 1_554
Pm4 Se6 2.921755 1_555
Pm4 Se10 2.930377 1_555
Pm4 Se13 2.962264 1_555
Pm4 Se4 3.021352 1_545
Pm4 Se9 3.033182 1_555
Pm4 Se7 3.161090 1_455
Pm4 Se8 3.170708 1_555
Pm4 Se3 3.321619 1_454
Pm5 Se8 2.948892 1_555
Pm5 Se5 2.948900 1_545
Pm5 Se4 2.967730 1_545
Pm5 Se3 2.967730 1_555
Pm5 Se2 3.148609 1_555
Pm5 Se0 3.148609 1_555
Pm5 Se14 3.166287 1_545
Pm5 Se9 3.166287 1_555
Pm6 Se1 2.921792 1_655
Pm6 Se7 2.930372 1_555
Pm6 Se16 2.962238 1_555
Pm6 Se3 3.021358 1_565
Pm6 Se14 3.033169 1_555
Pm6 Se10 3.161085 1_655
Pm6 Se5 3.170727 1_555
Pm6 Se4 3.321625 1_656
Pm7 Se5 2.960094 1_556
Pm7 Se1 2.960102 1_555
Pm7 Se10 2.979502 1_555
Pm7 Se19 2.979502 1_555
Pm7 Se6 3.148374 1_555
Pm7 Se8 3.148382 1_555
Pm7 Se4 3.243316 1_556
Pm7 Se0 3.243316 1_566
Pm8 Se15 2.921781 1_555
Pm8 Se14 2.930369 1_555
Pm8 Se4 2.962253 1_555
Pm8 Se16 3.021359 1_454
Pm8 Se10 3.033173 1_554
Pm8 Se9 3.161089 1_565
Pm8 Se11 3.170715 1_554
Pm8 Se13 3.321628 1_565
Pm9 Se12 2.948894 1_555
Pm9 Se11 2.948900 1_655
Pm9 Se13 2.967730 1_655
Pm9 Se16 2.967730 1_555
Pm9 Se22 3.148609 1_555
Pm9 Se17 3.148609 1_555
Pm9 Se7 3.166287 1_555
Pm9 Se10 3.166287 1_655
Pm10 Se18 2.960094 1_555
Pm10 Se12 2.960102 1_555
Pm10 Se21 2.979502 1_555
Pm10 Se14 2.979502 1_555
Pm10 Se11 3.148374 1_554
Pm10 Se15 3.148382 1_555
Pm10 Se17 3.243316 1_555
Pm10 Se16 3.243316 1_555
Pm11 Se15 2.960093 1_545
Pm11 Se11 2.960094 1_555
Pm11 Se9 2.979502 1_555
Pm11 Se23 2.979502 1_555
Pm11 Se18 3.148374 1_545
Pm11 Se12 3.148378 1_556
Pm11 Se13 3.243316 1_555
Pm11 Se22 3.243316 1_455
Pm12 Se18 2.921768 1_545
Pm12 Se9 2.930369 1_555
Pm12 Se3 2.962253 1_555
Pm12 Se13 3.021359 1_656
Pm12 Se7 3.033173 1_556
Pm12 Se14 3.161089 1_545
Pm12 Se12 3.170704 1_556
Pm12 Se16 3.321628 1_545
Pm13 Se15 2.948892 1_655
Pm13 Se18 2.948900 1_554
Pm13 Se22 2.967730 1_565
Pm13 Se17 2.967730 1_554
Pm13 Se13 3.148609 1_665
Pm13 Se16 3.148609 1_554
Pm13 Se19 3.166287 1_554
Pm13 Se20 3.166287 1_555
Pm14 Se12 2.921792 1_555
Pm14 Se23 2.930372 1_554
Pm14 Se0 2.962238 1_555
Pm14 Se22 3.021358 1_555
Pm14 Se19 3.033169 1_544
Pm14 Se21 3.161085 1_555
Pm14 Se18 3.170727 1_544
Pm14 Se17 3.321625 1_555
Pm15 Se11 2.921755 1_555
Pm15 Se21 2.930377 1_556
Pm15 Se2 2.962264 1_455
Pm15 Se17 3.021352 1_455
Pm15 Se20 3.033182 1_456
Pm15 Se23 3.161090 1_555
Pm15 Se15 3.170708 1_556
Pm15 Se22 3.321619 1_455
