# generated using pymatgen
data_Ca(BeAs)2
_symmetry_space_group_name_H-M   'P 1'
_cell_length_a   3.88220725
_cell_length_b   3.88238041
_cell_length_c   6.78403704
_cell_angle_alpha   90.00423159
_cell_angle_beta   89.99322556
_cell_angle_gamma   119.99830104
_symmetry_Int_Tables_number   1
_chemical_formula_structural   Ca(BeAs)2
_chemical_formula_sum   'Ca1 Be2 As2'
_cell_volume   88.55295877
_cell_formula_units_Z   1
loop_
 _symmetry_equiv_pos_site_id
 _symmetry_equiv_pos_as_xyz
  1  'x, y, z'
loop_
 _atom_site_type_symbol
 _atom_site_label
 _atom_site_symmetry_multiplicity
 _atom_site_fract_x
 _atom_site_fract_y
 _atom_site_fract_z
 _atom_site_occupancy
  Ca  Ca0  1  -0.00000000  0.00000000  -0.00000000  1
  Be  Be0  1  0.66657340  0.33333595  0.37608321  1
  Be  Be1  1  0.33342660  0.66666405  0.62391679  1
  As  As0  1  0.66679687  0.33332930  0.71937088  1
  As  As1  1  0.33320313  0.66667070  0.28062912  1
loop_
_geom_bond_atom_site_label_1
_geom_bond_atom_site_label_2
_geom_bond_distance
_geom_bond_site_symmetry_2
As0 Be0 2.328877 1_555
As0 Be1 2.332922 1_655
As0 Be1 2.333181 1_545
As0 Be1 2.333286 1_555
As0 Ca0 2.940638 1_656
As0 Ca0 2.940889 1_666
As0 Ca0 2.941025 1_556
As1 Be1 2.328877 1_555
As1 Be0 2.332922 1_455
As1 Be0 2.333181 1_565
As1 Be0 2.333286 1_555
As1 Ca0 2.940638 1_565
As1 Ca0 2.940889 1_555
As1 Ca0 2.941025 1_665
