# generated using pymatgen
data_Sm(CuSn)2
_symmetry_space_group_name_H-M   'P 1'
_cell_length_a   4.39555498
_cell_length_b   4.39555498
_cell_length_c   10.65704944
_cell_angle_alpha   90.00000000
_cell_angle_beta   90.00000000
_cell_angle_gamma   90.00000000
_symmetry_Int_Tables_number   1
_chemical_formula_structural   Sm(CuSn)2
_chemical_formula_sum   'Sm2 Cu4 Sn4'
_cell_volume   205.90382470
_cell_formula_units_Z   2
loop_
 _symmetry_equiv_pos_site_id
 _symmetry_equiv_pos_as_xyz
  1  'x, y, z'
loop_
 _atom_site_type_symbol
 _atom_site_label
 _atom_site_symmetry_multiplicity
 _atom_site_fract_x
 _atom_site_fract_y
 _atom_site_fract_z
 _atom_site_occupancy
  Sm  Sm0  1  -0.00000000  0.50000000  0.23836132  1
  Sm  Sm1  1  0.50000000  -0.00000000  0.76163868  1
  Cu  Cu0  1  0.00000000  0.00000000  0.00000000  1
  Cu  Cu1  1  0.50000000  0.50000000  0.00000000  1
  Cu  Cu2  1  -0.00000000  0.50000000  0.63702695  1
  Cu  Cu3  1  0.50000000  0.00000000  0.36297305  1
  Sn  Sn0  1  -0.00000000  0.00000000  0.50000000  1
  Sn  Sn1  1  0.50000000  0.50000000  0.50000000  1
  Sn  Sn2  1  0.00000000  0.50000000  0.87216543  1
  Sn  Sn3  1  0.50000000  0.00000000  0.12783457  1
loop_
_geom_bond_atom_site_label_1
_geom_bond_atom_site_label_2
_geom_bond_distance
_geom_bond_site_symmetry_2
Sm0 Sn3 3.323834 1_455
Sm0 Sn3 3.323834 1_565
Sm0 Sn3 3.323834 1_555
Sm0 Sn3 3.323834 1_465
Sm0 Sn0 3.550327 1_555
Sm0 Sn1 3.550327 1_555
Sm0 Sn1 3.550327 1_455
Sm0 Sn0 3.550327 1_565
Sm1 Sn2 3.323834 1_555
Sm1 Sn2 3.323834 1_645
Sm1 Sn2 3.323834 1_545
Sm1 Sn2 3.323834 1_655
Sm1 Sn0 3.550327 1_655
Sm1 Sn1 3.550327 1_555
Sm1 Sn1 3.550327 1_545
Sm1 Sn0 3.550327 1_555
Cu0 Sn2 2.585768 1_544
Cu0 Sn2 2.585768 1_554
Cu0 Sn3 2.585768 1_555
Cu0 Sn3 2.585768 1_455
Cu0 Sm0 3.359016 1_555
Cu0 Sm1 3.359016 1_454
Cu0 Sm0 3.359016 1_545
Cu0 Sm1 3.359016 1_554
Cu1 Sn2 2.585768 1_654
Cu1 Sn2 2.585768 1_554
Cu1 Sn3 2.585768 1_565
Cu1 Sn3 2.585768 1_555
Cu1 Sm0 3.359016 1_555
Cu1 Sm1 3.359016 1_554
Cu1 Sm0 3.359016 1_655
Cu1 Sm1 3.359016 1_564
Cu2 Sn2 2.505882 1_555
Cu2 Sn1 2.638695 1_555
Cu2 Sn0 2.638695 1_565
Cu2 Sn0 2.638695 1_555
Cu2 Sn1 2.638695 1_455
Cu2 Sm1 3.379944 1_455
Cu2 Sm1 3.379944 1_565
Cu2 Sm1 3.379944 1_465
Cu2 Sm1 3.379944 1_555
Cu3 Sn3 2.505882 1_555
Cu3 Sn0 2.638695 1_655
Cu3 Sn1 2.638695 1_545
Cu3 Sn1 2.638695 1_555
Cu3 Sn0 2.638695 1_555
Cu3 Sm0 3.379944 1_645
Cu3 Sm0 3.379944 1_555
Cu3 Sm0 3.379944 1_545
Cu3 Sm0 3.379944 1_655
