# generated using pymatgen
data_TlO
_symmetry_space_group_name_H-M   'P 1'
_cell_length_a   3.58985043
_cell_length_b   3.58985043
_cell_length_c   22.30302496
_cell_angle_alpha   81.54313000
_cell_angle_beta   98.45687000
_cell_angle_gamma   85.70023250
_symmetry_Int_Tables_number   1
_chemical_formula_structural   TlO
_chemical_formula_sum   'Tl8 O8'
_cell_volume   279.82921153
_cell_formula_units_Z   8
loop_
 _symmetry_equiv_pos_site_id
 _symmetry_equiv_pos_as_xyz
  1  'x, y, z'
loop_
 _atom_site_type_symbol
 _atom_site_label
 _atom_site_symmetry_multiplicity
 _atom_site_fract_x
 _atom_site_fract_y
 _atom_site_fract_z
 _atom_site_occupancy
  Tl  Tl0  1  0.05309700  0.67306100  0.93933700  1
  Tl  Tl1  1  0.67306100  0.05309700  0.06066300  1
  Tl  Tl2  1  0.33916000  0.72217800  0.56074400  1
  Tl  Tl3  1  0.72217800  0.33916000  0.43925600  1
  Tl  Tl4  1  0.02797600  0.90868700  0.81156800  1
  Tl  Tl5  1  0.90868700  0.02797600  0.18843200  1
  Tl  Tl6  1  0.41205000  0.52687000  0.69033800  1
  Tl  Tl7  1  0.52687000  0.41205000  0.30966200  1
  O  O0  1  0.87711100  0.95226700  0.71052600  1
  O  O1  1  0.95226700  0.87711100  0.28947400  1
  O  O2  1  0.44755000  0.36310200  0.79134900  1
  O  O3  1  0.36310200  0.44755000  0.20865100  1
  O  O4  1  0.75854700  0.17985200  0.54064900  1
  O  O5  1  0.17985200  0.75854700  0.45935100  1
  O  O6  1  0.64005600  0.21903700  0.95948100  1
  O  O7  1  0.21903700  0.64005600  0.04051900  1
loop_
_geom_bond_atom_site_label_1
_geom_bond_atom_site_label_2
_geom_bond_distance
_geom_bond_site_symmetry_2
O0 Tl4 2.218301 1_655
O0 Tl6 2.384422 1_555
O0 Tl6 2.496836 1_565
O0 Tl6 2.497872 1_655
O1 Tl5 2.218301 1_565
O1 Tl7 2.384422 1_555
O1 Tl7 2.496836 1_655
O1 Tl7 2.497872 1_565
O2 Tl6 2.225301 1_555
O2 Tl4 2.341994 1_545
O2 Tl4 2.490700 1_645
O2 Tl4 2.514996 1_555
O3 Tl7 2.225301 1_555
O3 Tl5 2.341994 1_455
O3 Tl5 2.490700 1_465
O3 Tl5 2.514996 1_555
O4 Tl3 2.231475 1_555
O4 Tl2 2.349401 1_545
O4 Tl2 2.497954 1_645
O4 Tl2 2.504675 1_555
O5 Tl2 2.231475 1_555
O5 Tl3 2.349401 1_455
O5 Tl3 2.497954 1_465
O5 Tl3 2.504675 1_555
O6 Tl1 2.230876 1_556
O6 Tl0 2.323759 1_655
O6 Tl0 2.502211 1_645
O6 Tl0 2.507869 1_555
O7 Tl0 2.230876 1_554
O7 Tl1 2.323759 1_565
O7 Tl1 2.502211 1_465
O7 Tl1 2.507869 1_555
