# generated using pymatgen
data_Li3CuO3
_symmetry_space_group_name_H-M   'P 1'
_cell_length_a   8.63940865
_cell_length_b   8.63940865
_cell_length_c   3.55558451
_cell_angle_alpha   90.00000000
_cell_angle_beta   90.00000000
_cell_angle_gamma   90.00000000
_symmetry_Int_Tables_number   1
_chemical_formula_structural   Li3CuO3
_chemical_formula_sum   'Li12 Cu4 O12'
_cell_volume   265.38662984
_cell_formula_units_Z   4
loop_
 _symmetry_equiv_pos_site_id
 _symmetry_equiv_pos_as_xyz
  1  'x, y, z'
loop_
 _atom_site_type_symbol
 _atom_site_label
 _atom_site_symmetry_multiplicity
 _atom_site_fract_x
 _atom_site_fract_y
 _atom_site_fract_z
 _atom_site_occupancy
  Li  Li0  1  0.33409388  0.66590612  0.50000000  1
  Li  Li1  1  0.83409388  0.83409388  0.00000000  1
  Li  Li2  1  0.66590612  0.33409388  0.50000000  1
  Li  Li3  1  0.16590612  0.16590612  0.00000000  1
  Li  Li4  1  0.14105892  0.60288873  -0.00000000  1
  Li  Li5  1  0.10288873  0.35894108  0.50000000  1
  Li  Li6  1  0.89711127  0.64105892  0.50000000  1
  Li  Li7  1  0.85894108  0.39711127  0.00000000  1
  Li  Li8  1  0.35894108  0.10288873  0.50000000  1
  Li  Li9  1  0.64105892  0.89711127  0.50000000  1
  Li  Li10  1  0.60288873  0.14105892  -0.00000000  1
  Li  Li11  1  0.39711127  0.85894108  0.00000000  1
  Cu  Cu0  1  0.61378924  0.61378924  0.00000000  1
  Cu  Cu1  1  0.11378924  0.88621076  0.50000000  1
  Cu  Cu2  1  0.88621076  0.11378924  0.50000000  1
  Cu  Cu3  1  0.38621076  0.38621076  -0.00000000  1
  O  O0  1  0.60193436  0.39806564  -0.00000000  1
  O  O1  1  0.89806564  0.89806564  0.50000000  1
  O  O2  1  0.39806564  0.60193436  -0.00000000  1
  O  O3  1  0.10193436  0.10193436  0.50000000  1
  O  O4  1  0.38714400  0.17636398  -0.00000000  1
  O  O5  1  0.67636398  0.11285600  0.50000000  1
  O  O6  1  0.32363602  0.88714400  0.50000000  1
  O  O7  1  0.61285600  0.82363602  0.00000000  1
  O  O8  1  0.11285600  0.67636398  0.50000000  1
  O  O9  1  0.88714400  0.32363602  0.50000000  1
  O  O10  1  0.17636398  0.38714400  0.00000000  1
  O  O11  1  0.82363602  0.61285600  -0.00000000  1
loop_
_geom_bond_atom_site_label_1
_geom_bond_atom_site_label_2
_geom_bond_distance
_geom_bond_site_symmetry_2
Li0 O6 1.913499 1_555
Li0 O8 1.913499 1_555
Li0 O2 1.942023 1_556
Li0 O2 1.942023 1_555
Li1 O7 1.913499 1_555
Li1 O11 1.913499 1_555
Li1 O1 1.942023 1_555
Li1 O1 1.942023 1_554
Li2 O9 1.913499 1_555
Li2 O5 1.913499 1_555
Li2 O0 1.942023 1_555
Li2 O0 1.942023 1_556
Li3 O10 1.913499 1_555
Li3 O4 1.913499 1_555
Li3 O3 1.942023 1_555
Li3 O3 1.942023 1_554
Li4 O10 1.888699 1_555
Li4 O8 1.903382 1_555
Li4 O8 1.903382 1_554
Li4 O2 2.220401 1_555
Li5 O9 1.888699 1_455
Li5 O10 1.903382 1_556
Li5 O10 1.903382 1_555
Li5 O3 2.220401 1_555
Li6 O8 1.888699 1_655
Li6 O11 1.903382 1_555
Li6 O11 1.903382 1_556
Li6 O1 2.220401 1_555
Li7 O11 1.888699 1_555
Li7 O9 1.903382 1_555
Li7 O9 1.903382 1_554
Li7 O0 2.220401 1_555
Li8 O6 1.888699 1_545
Li8 O4 1.903382 1_555
Li8 O4 1.903382 1_556
Li8 O3 2.220401 1_555
Li9 O5 1.888699 1_565
Li9 O7 1.903382 1_555
Li9 O7 1.903382 1_556
Li9 O1 2.220401 1_555
Li10 O4 1.888699 1_555
Li10 O5 1.903382 1_554
Li10 O5 1.903382 1_555
Li10 O0 2.220401 1_555
Li11 O7 1.888699 1_555
Li11 O6 1.903382 1_555
Li11 O6 1.903382 1_554
Li11 O2 2.220401 1_555
Cu0 O7 1.812970 1_555
Cu0 O11 1.812970 1_555
Cu0 O0 1.866536 1_555
Cu0 O2 1.866536 1_555
Cu1 O6 1.812970 1_555
Cu1 O8 1.812970 1_555
Cu1 O1 1.866536 1_455
Cu1 O3 1.866536 1_565
Cu2 O9 1.812970 1_555
Cu2 O5 1.812970 1_555
Cu2 O3 1.866536 1_655
Cu2 O1 1.866536 1_545
Cu3 O10 1.812970 1_555
Cu3 O4 1.812970 1_555
Cu3 O0 1.866536 1_555
Cu3 O2 1.866536 1_555
