# generated using pymatgen
data_Er(BC)2
_symmetry_space_group_name_H-M   'P 1'
_cell_length_a   3.50918849
_cell_length_b   5.31561352
_cell_length_c   5.31561452
_cell_angle_alpha   90.00000000
_cell_angle_beta   90.00000000
_cell_angle_gamma   90.00000000
_symmetry_Int_Tables_number   1
_chemical_formula_structural   Er(BC)2
_chemical_formula_sum   'Er2 B4 C4'
_cell_volume   99.15476113
_cell_formula_units_Z   2
loop_
 _symmetry_equiv_pos_site_id
 _symmetry_equiv_pos_as_xyz
  1  'x, y, z'
loop_
 _atom_site_type_symbol
 _atom_site_label
 _atom_site_symmetry_multiplicity
 _atom_site_fract_x
 _atom_site_fract_y
 _atom_site_fract_z
 _atom_site_occupancy
  Er  Er0  1  -0.00000000  0.50000000  0.50000000  1
  Er  Er1  1  0.00000000  0.00000000  -0.00000000  1
  B  B0  1  0.50000000  0.63600375  0.13600375  1
  B  B1  1  0.50000000  0.86399625  0.63600375  1
  B  B2  1  0.50000000  0.36399625  0.86399625  1
  B  B3  1  0.50000000  0.13600375  0.36399625  1
  C  C0  1  0.50000000  0.66265274  0.83734726  1
  C  C1  1  0.50000000  0.83734726  0.33734726  1
  C  C2  1  0.50000000  0.16265274  0.66265274  1
  C  C3  1  0.50000000  0.33734726  0.16265274  1
loop_
_geom_bond_atom_site_label_1
_geom_bond_atom_site_label_2
_geom_bond_distance
_geom_bond_site_symmetry_2
B0 C1 1.513582 1_555
B0 C3 1.593850 1_555
B0 C0 1.593850 1_554
B0 Er1 2.710156 1_665
B0 Er1 2.710156 1_565
B0 Er0 2.710156 1_555
B0 Er0 2.710156 1_655
B1 C0 1.513582 1_555
B1 C2 1.593850 1_565
B1 C1 1.593850 1_555
B1 Er0 2.710156 1_655
B1 Er0 2.710156 1_555
B1 Er1 2.710156 1_566
B1 Er1 2.710156 1_666
B2 C2 1.513582 1_555
B2 C0 1.593850 1_555
B2 C3 1.593850 1_556
B2 Er1 2.710156 1_556
B2 Er1 2.710156 1_656
B2 Er0 2.710156 1_555
B2 Er0 2.710156 1_655
B3 C3 1.513582 1_555
B3 C1 1.593850 1_545
B3 C2 1.593850 1_555
B3 Er0 2.710156 1_655
B3 Er0 2.710156 1_555
B3 Er1 2.710156 1_555
B3 Er1 2.710156 1_655
C0 Er1 2.653625 1_566
C0 Er1 2.653625 1_666
C0 Er0 2.653625 1_555
C0 Er0 2.653625 1_655
C1 Er0 2.653625 1_655
C1 Er0 2.653625 1_555
C1 Er1 2.653625 1_665
C1 Er1 2.653625 1_565
C2 Er0 2.653625 1_555
C2 Er0 2.653625 1_655
C2 Er1 2.653625 1_556
C2 Er1 2.653625 1_656
C3 Er1 2.653625 1_555
C3 Er1 2.653625 1_655
C3 Er0 2.653625 1_555
C3 Er0 2.653625 1_655
