# generated using pymatgen
data_Hf4Al3
_symmetry_space_group_name_H-M   'P 1'
_cell_length_a   5.32683223
_cell_length_b   5.32683223
_cell_length_c   5.40543529
_cell_angle_alpha   90.00000000
_cell_angle_beta   90.00000000
_cell_angle_gamma   120.00000729
_symmetry_Int_Tables_number   1
_chemical_formula_structural   Hf4Al3
_chemical_formula_sum   'Hf4 Al3'
_cell_volume   132.83095943
_cell_formula_units_Z   1
loop_
 _symmetry_equiv_pos_site_id
 _symmetry_equiv_pos_as_xyz
  1  'x, y, z'
loop_
 _atom_site_type_symbol
 _atom_site_label
 _atom_site_symmetry_multiplicity
 _atom_site_fract_x
 _atom_site_fract_y
 _atom_site_fract_z
 _atom_site_occupancy
  Hf  Hf0  1  -0.00000000  -0.00000000  0.74031658  1
  Hf  Hf1  1  0.00000000  0.00000000  0.25968342  1
  Hf  Hf2  1  0.66666700  0.33333300  0.50000000  1
  Hf  Hf3  1  0.33333300  0.66666700  0.50000000  1
  Al  Al0  1  0.50000000  0.50000000  0.00000000  1
  Al  Al1  1  -0.00000000  0.50000000  0.00000000  1
  Al  Al2  1  0.50000000  0.00000000  -0.00000000  1
loop_
_geom_bond_atom_site_label_1
_geom_bond_atom_site_label_2
_geom_bond_distance
_geom_bond_site_symmetry_2
Hf0 Hf1 2.598031 1_555
Hf0 Hf1 2.807404 1_556
Hf0 Hf3 3.338533 1_545
Hf0 Hf2 3.338533 1_455
Hf0 Hf2 3.338537 1_445
Hf0 Hf3 3.338537 1_555
Hf0 Hf2 3.338537 1_555
Hf0 Hf3 3.338537 1_445
Hf1 Hf3 3.338533 1_545
Hf1 Hf2 3.338533 1_455
Hf1 Hf2 3.338537 1_445
Hf1 Hf3 3.338537 1_555
Hf1 Hf2 3.338537 1_555
Hf1 Hf3 3.338537 1_445
Hf2 Hf3 3.075445 1_655
Hf2 Hf3 3.075445 1_545
Hf2 Hf3 3.075454 1_555
Al0 Al1 2.663416 1_655
Al0 Al1 2.663416 1_555
Al0 Al2 2.663416 1_565
Al0 Al2 2.663416 1_555
Al0 Hf0 3.010675 1_664
Al0 Hf1 3.010675 1_555
Al0 Hf1 3.010675 1_665
Al0 Hf0 3.010675 1_554
Al0 Hf2 3.109548 1_554
Al0 Hf3 3.109548 1_554
Al0 Hf3 3.109548 1_555
Al0 Hf2 3.109548 1_555
Al1 Al2 2.663416 1_455
Al1 Al2 2.663416 1_565
Al1 Hf0 3.010675 1_554
Al1 Hf1 3.010675 1_555
Al1 Hf0 3.010675 1_564
Al1 Hf1 3.010675 1_565
Al1 Hf2 3.109545 1_454
Al1 Hf2 3.109545 1_455
Al1 Hf3 3.109545 1_554
Al1 Hf3 3.109545 1_555
Al2 Hf0 3.010675 1_554
Al2 Hf1 3.010675 1_655
Al2 Hf0 3.010675 1_654
Al2 Hf1 3.010675 1_555
Al2 Hf2 3.109545 1_554
Al2 Hf2 3.109545 1_555
Al2 Hf3 3.109545 1_544
Al2 Hf3 3.109545 1_545
