# generated using pymatgen
data_Li9Mn2Co5O16
_symmetry_space_group_name_H-M   'P 1'
_cell_length_a   2.97496200
_cell_length_b   8.08552840
_cell_length_c   11.93126650
_cell_angle_alpha   90.65130932
_cell_angle_beta   94.25762692
_cell_angle_gamma   90.99671910
_symmetry_Int_Tables_number   1
_chemical_formula_structural   Li9Mn2Co5O16
_chemical_formula_sum   'Li9 Mn2 Co5 O16'
_cell_volume   286.13796378
_cell_formula_units_Z   1
loop_
 _symmetry_equiv_pos_site_id
 _symmetry_equiv_pos_as_xyz
  1  'x, y, z'
loop_
 _atom_site_type_symbol
 _atom_site_label
 _atom_site_symmetry_multiplicity
 _atom_site_fract_x
 _atom_site_fract_y
 _atom_site_fract_z
 _atom_site_occupancy
  Li  Li0  1  0.00720700  0.99369200  0.24968600  1
  Li  Li1  1  0.50733700  0.74556000  0.61877200  1
  Li  Li2  1  0.99867100  0.50049800  0.00031300  1
  Li  Li3  1  0.49672500  0.25399700  0.37578700  1
  Li  Li4  1  0.99608600  0.99891100  0.75308600  1
  Li  Li5  1  0.49400400  0.74482900  0.12608300  1
  Li  Li6  1  0.00067800  0.51015800  0.49668400  1
  Li  Li7  1  0.50002600  0.25341400  0.87385700  1
  Li  Li8  1  0.49098700  0.74497000  0.38081400  1
  Mn  Mn0  1  0.00067400  0.00003000  0.00068200  1
  Mn  Mn1  1  0.00253600  0.99314200  0.49717400  1
  Co  Co0  1  0.00163800  0.49981200  0.74936400  1
  Co  Co1  1  0.49658900  0.25244800  0.12680500  1
  Co  Co2  1  0.50329300  0.74822800  0.87350000  1
  Co  Co3  1  0.99525500  0.51032900  0.25471900  1
  Co  Co4  1  0.51125600  0.25249800  0.62320200  1
  O  O0  1  0.47113800  0.01234000  0.12552000  1
  O  O1  1  0.99272600  0.76714600  0.50280200  1
  O  O2  1  0.47293900  0.51093500  0.86825700  1
  O  O3  1  0.97217800  0.26928000  0.24329100  1
  O  O4  1  0.52710700  0.01094600  0.61043500  1
  O  O5  1  0.97288000  0.75841700  0.99350200  1
  O  O6  1  0.47240100  0.49853100  0.36431600  1
  O  O7  1  0.97515500  0.26054500  0.74322400  1
  O  O8  1  0.47496800  0.00079700  0.39058400  1
  O  O9  1  0.02766700  0.73749500  0.75704400  1
  O  O10  1  0.52391800  0.48688700  0.13173700  1
  O  O11  1  0.03096300  0.24019700  0.50835000  1
  O  O12  1  0.52772900  0.98889700  0.87613300  1
  O  O13  1  0.00481300  0.72462100  0.24616900  1
  O  O14  1  0.52410900  0.48845800  0.63227600  1
  O  O15  1  0.02634900  0.24199200  0.00582800  1
loop_
_geom_bond_atom_site_label_1
_geom_bond_atom_site_label_2
_geom_bond_distance
_geom_bond_site_symmetry_2
Li0 O8 2.100835 1_565
Li0 O0 2.103195 1_465
Li0 O0 2.103278 1_565
Li0 O13 2.175386 1_555
Li0 O3 2.234424 1_465
Li0 O8 2.394306 1_465
Li1 O1 1.997262 1_455
Li1 O1 2.079320 1_555
Li1 O14 2.088040 1_555
Li1 O4 2.149205 1_565
Li1 O9 2.179201 1_655
Li1 O9 2.260765 1_555
Li2 O5 2.090437 1_554
Li2 O15 2.094798 1_655
Li2 O10 2.135108 1_655
Li2 O2 2.139517 1_554
Li2 O10 2.189306 1_555
Li2 O2 2.193014 1_654
Li3 O6 1.985672 1_555
Li3 O8 2.057163 1_555
Li3 O3 2.143450 1_455
Li3 O11 2.162632 1_655
Li3 O11 2.181295 1_555
Li3 O3 2.201226 1_555
Li4 O12 2.079854 1_655
Li4 O12 2.099002 1_555
Li4 O9 2.118312 1_655
Li4 O7 2.121792 1_565
Li4 O4 2.123385 1_565
Li4 O4 2.408239 1_665
Li5 O13 2.019781 1_655
Li5 O10 2.090682 1_555
Li5 O13 2.122305 1_555
Li5 O5 2.136257 1_454
Li5 O0 2.165291 1_565
Li5 O5 2.208408 1_554
Li6 O1 2.078944 1_455
Li6 O6 2.143820 1_455
Li6 O14 2.171347 1_555
Li6 O6 2.191529 1_555
Li6 O11 2.191779 1_555
Li6 O14 2.235277 1_455
Li7 O2 2.086789 1_555
Li7 O7 2.124762 1_455
Li7 O15 2.140513 1_656
Li7 O12 2.142182 1_545
Li7 O7 2.181031 1_555
Li7 O15 2.191310 1_556
Li8 O6 1.999463 1_555
Li8 O1 2.010159 1_555
Li8 O8 2.072030 1_565
Li8 O13 2.083386 1_555
Li8 O1 2.161352 1_455
Li8 O13 2.304754 1_655
Mn0 O5 1.954515 1_444
Mn0 O15 1.956641 1_555
Mn0 O0 1.967131 1_555
Mn0 O12 1.969292 1_444
Mn0 O12 2.241148 1_544
Mn0 O0 2.249591 1_455
Mn1 O1 1.829098 1_455
Mn1 O8 1.947639 1_465
Mn1 O8 1.964863 1_565
Mn1 O4 1.989195 1_565
Mn1 O11 2.000403 1_565
Mn1 O4 2.033175 1_465
Co0 O14 1.917320 1_455
Co0 O2 1.919280 1_555
Co0 O9 1.922874 1_555
Co0 O7 1.935167 1_455
Co0 O14 2.168057 1_555
Co0 O2 2.197169 1_455
Co1 O10 1.895950 1_555
Co1 O3 1.910232 1_555
Co1 O15 1.934144 1_555
Co1 O0 1.941401 1_555
Co1 O3 2.170045 1_455
Co1 O15 2.216763 1_655
Co2 O9 1.908233 1_555
Co2 O2 1.919284 1_555
Co2 O5 1.924762 1_555
Co2 O12 1.945839 1_555
Co2 O9 2.166920 1_655
Co2 O5 2.209984 1_455
Co3 O13 1.736685 1_655
Co3 O6 1.861691 1_655
Co3 O3 1.951884 1_555
Co3 O10 1.958087 1_555
Co3 O6 2.106697 1_555
Co3 O10 2.238134 1_655
Co4 O11 1.905399 1_555
Co4 O14 1.909259 1_555
Co4 O7 1.913331 1_555
Co4 O4 1.958938 1_555
Co4 O11 2.143592 1_655
Co4 O7 2.222420 1_455
