# generated using pymatgen
data_P2O5
_symmetry_space_group_name_H-M   'P 1'
_cell_length_a   12.65131977
_cell_length_b   11.91714408
_cell_length_c   11.86837893
_cell_angle_alpha   88.55675582
_cell_angle_beta   86.70155929
_cell_angle_gamma   96.01059732
_symmetry_Int_Tables_number   1
_chemical_formula_structural   P2O5
_chemical_formula_sum   'P30 O75'
_cell_volume   1775.70399456
_cell_formula_units_Z   15
loop_
 _symmetry_equiv_pos_site_id
 _symmetry_equiv_pos_as_xyz
  1  'x, y, z'
loop_
 _atom_site_type_symbol
 _atom_site_label
 _atom_site_symmetry_multiplicity
 _atom_site_fract_x
 _atom_site_fract_y
 _atom_site_fract_z
 _atom_site_occupancy
  P  P0  1  0.16927497  0.24287439  0.03281108  1
  P  P1  1  0.12357185  0.82111948  0.60192145  1
  P  P2  1  0.83993996  0.51374647  0.47833711  1
  P  P3  1  0.87924965  0.29260120  0.54388220  1
  P  P4  1  0.20359771  0.61092561  0.52649886  1
  P  P5  1  0.55742495  0.34189955  0.82988016  1
  P  P6  1  0.84405602  0.92494249  0.94981783  1
  P  P7  1  0.72027419  0.82586912  0.76381577  1
  P  P8  1  0.33701242  0.62460196  0.71305673  1
  P  P9  1  0.99034734  0.76475851  0.83049059  1
  P  P10  1  0.91979874  0.36587332  0.31039860  1
  P  P11  1  0.43910937  0.02055187  0.12692397  1
  P  P12  1  0.41297099  0.23844374  0.01427859  1
  P  P13  1  0.47199320  0.69928508  0.27429677  1
  P  P14  1  0.45667251  0.79485258  0.04071992  1
  P  P15  1  0.83835722  0.17398989  0.92942030  1
  P  P16  1  0.89664941  0.97595133  0.37896283  1
  P  P17  1  0.47848596  0.81404101  0.79509913  1
  P  P18  1  0.32016728  0.23052789  0.34931249  1
  P  P19  1  0.94278251  0.58626896  0.00478962  1
  P  P20  1  0.48235527  0.46246187  0.64062276  1
  P  P21  1  0.00305815  0.08888661  0.57644925  1
  P  P22  1  0.96750799  0.79805903  0.41084321  1
  P  P23  1  0.45558913  0.29365327  0.46896017  1
  P  P24  1  0.12180225  0.26895521  0.26771062  1
  P  P25  1  0.80191873  0.61069209  0.81576564  1
  P  P26  1  0.02015154  0.36427218  0.88912258  1
  P  P27  1  0.23443224  0.64872753  0.27771371  1
  P  P28  1  0.72167832  0.19040581  0.72717332  1
  P  P29  1  0.24915872  0.85146366  0.12204270  1
  O  O0  1  0.08400643  0.80847716  0.75132843  1
  O  O1  1  0.46084411  0.30539036  0.10238306  1
  O  O2  1  0.22677784  0.68095238  0.40949994  1
  O  O3  1  0.45149250  0.81294057  0.31027796  1
  O  O4  1  0.16356606  0.88404561  0.05587274  1
  O  O5  1  0.57888538  0.44474835  0.89214673  1
  O  O6  1  0.71582094  0.70005569  0.82476785  1
  O  O7  1  0.65927367  0.28692254  0.78259153  1
  O  O8  1  0.88834218  0.05355792  0.92800137  1
  O  O9  1  0.51458379  0.06453754  0.20581133  1
  O  O10  1  0.81984673  0.88025416  0.06414263  1
  O  O11  1  0.82798617  0.20251659  0.79628915  1
  O  O12  1  0.11151709  0.09929601  0.52196837  1
  O  O13  1  0.21763608  0.77501050  0.23097774  1
  O  O14  1  0.91349840  0.48508595  0.36167206  1
  O  O15  1  0.96968000  0.04074056  0.69037740  1
  O  O16  1  0.37803520  0.50335119  0.70817724  1
  O  O17  1  0.15554025  0.56206621  0.24052385  1
  O  O18  1  0.25211894  0.63297886  0.80007017  1
  O  O19  1  0.34391394  0.20735547  0.48106042  1
  O  O20  1  0.39935374  0.10152687  0.03193112  1
  O  O21  1  0.26067436  0.26054134  0.71542147  1
  O  O22  1  0.77879126  0.50839932  0.75439185  1
  O  O23  1  0.48960486  0.92499398  0.04383057  1
  O  O24  1  0.33111279  0.77706489  0.04974173  1
  O  O25  1  0.74644911  0.90549355  0.86835348  1
  O  O26  1  0.21938485  0.30081134  0.34930185  1
  O  O27  1  0.47994464  0.24121464  0.89234008  1
  O  O28  1  0.78766468  0.84546487  0.66114325  1
  O  O29  1  0.01768266  0.83549996  0.54483121  1
  O  O30  1  0.49144432  0.75644160  0.91993484  1
  O  O31  1  0.49497939  0.35253848  0.71646567  1
  O  O32  1  0.17884032  0.29886055  0.68796994  1
  O  O33  1  0.90728268  0.69006196  0.76302079  1
  O  O34  1  0.88277370  0.62674111  0.51391483  1
  O  O35  1  0.32905228  0.94879498  0.16917076  1
  O  O36  1  0.72987302  0.46417771  0.46935740  1
  O  O37  1  0.07477669  0.15222906  0.26213195  1
  O  O38  1  0.66142465  0.07966125  0.72534057  1
  O  O39  1  0.44502789  0.70651852  0.72447864  1
  O  O40  1  0.96990914  0.23069193  0.58398466  1
  O  O41  1  0.57057062  0.55013789  0.62178807  1
  O  O42  1  0.86590174  0.27737124  0.41354653  1
  O  O43  1  0.29771699  0.26515107  0.98088122  1
  O  O44  1  0.76864890  0.24177391  0.60603651  1
  O  O45  1  0.23180579  0.02484709  0.81248710  1
  O  O46  1  0.50751904  0.72067043  0.12193256  1
  O  O47  1  0.41305067  0.90706819  0.79441544  1
  O  O48  1  0.42616521  0.32395018  0.34078004  1
  O  O49  1  0.93970305  0.25646467  0.95520114  1
  O  O50  1  0.91134092  0.05106022  0.48780948  1
  O  O51  1  0.93975353  0.86672485  0.88174205  1
  O  O52  1  0.04648218  0.35614610  0.31860522  1
  O  O53  1  0.59858659  0.83938416  0.75108442  1
  O  O54  1  0.83091904  0.59527942  0.94511264  1
  O  O55  1  0.54172145  0.61754661  0.31175686  1
  O  O56  1  0.31326836  0.13936621  0.26958196  1
  O  O57  1  0.83593791  0.02566736  0.29386075  1
  O  O58  1  0.11964615  0.67760486  0.59124696  1
  O  O59  1  0.87900222  0.33899753  0.20114645  1
  O  O60  1  0.85121785  0.84803249  0.43001340  1
  O  O61  1  0.17429467  0.32198202  0.14770223  1
  O  O62  1  0.42783549  0.40510169  0.53506103  1
  O  O63  1  0.73977363  0.17542697  0.99878344  1
  O  O64  1  0.31466047  0.65418242  0.58501978  1
  O  O65  1  0.98334669  0.47201055  0.97001411  1
  O  O66  1  0.15002886  0.06088778  0.85175918  1
  O  O67  1  0.90019409  0.41920501  0.56679345  1
  O  O68  1  0.02228109  0.68403300  0.92623394  1
  O  O69  1  0.55394459  0.24992171  0.49755891  1
  O  O70  1  0.17937979  0.48884847  0.52384627  1
  O  O71  1  0.35275716  0.62720094  0.24986090  1
  O  O72  1  0.93816666  0.61338590  0.12312914  1
  O  O73  1  0.12876692  0.34255103  0.94759366  1
  O  O74  1  0.00948435  0.92661975  0.34738557  1
loop_
_geom_bond_atom_site_label_1
_geom_bond_atom_site_label_2
_geom_bond_distance
_geom_bond_site_symmetry_2
O0 P9 1.508680 1_455
O0 P1 1.812779 1_555
O1 P12 1.452733 1_555
O2 P4 1.598159 1_555
O2 P27 1.619829 1_555
O3 P13 1.474490 1_555
O4 P29 1.452806 1_555
O5 P5 1.456405 1_555
O6 P25 1.602278 1_555
O6 P7 1.642400 1_555
O7 P5 1.586387 1_555
O7 P28 1.596061 1_555
O8 P6 1.585459 1_545
O8 P15 1.627901 1_555
O9 P11 1.444257 1_555
O10 P6 1.449167 1_554
O11 P28 1.610846 1_555
O11 P15 1.623418 1_555
O12 P21 1.474614 1_555
O13 P29 1.570329 1_555
O13 P27 1.629764 1_555
O14 P10 1.567375 1_555
O14 P2 1.685821 1_555
O15 P21 1.476579 1_655
O16 P8 1.586957 1_555
O16 P20 1.629326 1_555
O17 P27 1.454430 1_555
O18 P8 1.459443 1_555
O19 P18 1.631302 1_555
O19 P23 1.655086 1_555
O20 P11 1.602288 1_555
O20 P12 1.629613 1_555
O21 O32 1.231617 1_555
O22 P25 1.448032 1_555
O23 P14 1.565124 1_555
O23 P11 1.677471 1_565
O24 P14 1.577493 1_555
O24 P29 1.651029 1_555
O25 P7 1.609397 1_555
O25 P6 1.613111 1_555
O26 P18 1.597156 1_555
O26 P24 1.632140 1_555
O27 P5 1.604785 1_555
O27 P12 1.632197 1_556
O28 P7 1.445933 1_555
O29 P1 1.558775 1_555
O29 P22 1.795386 1_455
O30 P14 1.568662 1_556
O30 P17 1.641179 1_555
O31 P20 1.597728 1_555
O31 P5 1.608351 1_555
O33 P9 1.573147 1_555
O33 P25 1.635084 1_555
O34 P2 1.478975 1_555
O35 P29 1.591255 1_555
O35 P11 1.603140 1_565
O36 P2 1.465374 1_555
O37 P24 1.459173 1_555
O38 P28 1.454643 1_555
O39 P17 1.582685 1_555
O39 P8 1.608539 1_555
O40 P3 1.519447 1_555
O40 P21 1.786451 1_655
O41 P20 1.450014 1_555
O42 P3 1.578625 1_555
O42 P10 1.662611 1_555
O43 P12 1.594319 1_556
O43 P0 1.696172 1_556
O44 P3 1.596921 1_555
O44 P28 1.604995 1_555
O45 O66 1.232777 1_555
O46 P14 1.507276 1_555
O46 P13 1.842887 1_555
O47 P17 1.451532 1_555
O48 P23 1.627544 1_555
O48 P18 1.647451 1_555
O49 P15 1.581124 1_555
O49 P26 1.698549 1_655
O50 P16 1.598621 1_545
O50 P21 1.646555 1_655
O51 P9 1.552932 1_555
O51 P6 1.640580 1_555
O52 P24 1.589110 1_555
O52 P10 1.627242 1_455
O53 P17 1.573970 1_555
O53 P7 1.579978 1_555
O54 P25 1.609261 1_555
O54 P19 1.630755 1_556
O55 P13 1.458760 1_555
O56 P18 1.457641 1_555
O57 P16 1.454493 1_545
O58 P4 1.569584 1_555
O58 P1 1.713896 1_555
O59 P10 1.453813 1_555
O60 P22 1.650070 1_555
O60 P16 1.658686 1_555
O61 P24 1.620781 1_555
O61 P0 1.677586 1_555
O62 P20 1.598900 1_555
O62 P23 1.619002 1_555
O63 P15 1.456217 1_555
O64 P8 1.598978 1_555
O64 P4 1.643490 1_555
O65 P19 1.561420 1_556
O65 P26 1.709634 1_655
O67 P3 1.538093 1_555
O67 P2 1.779041 1_555
O68 P9 1.568143 1_455
O68 P19 1.682307 1_456
O69 P23 1.452810 1_555
O70 P4 1.456506 1_555
O71 P27 1.563249 1_555
O71 P13 1.699739 1_555
O72 P19 1.448390 1_555
O73 P26 1.616164 1_555
O73 P0 1.680232 1_556
O74 P16 1.627620 1_455
O74 P22 1.709373 1_455
