# generated using pymatgen
data_Tm3(Co2Sn)4
_symmetry_space_group_name_H-M   'P 1'
_cell_length_a   7.51817400
_cell_length_b   8.77476304
_cell_length_c   8.77476304
_cell_angle_alpha   120.00000781
_cell_angle_beta   90.00000000
_cell_angle_gamma   90.00000000
_symmetry_Int_Tables_number   1
_chemical_formula_structural   Tm3(Co2Sn)4
_chemical_formula_sum   'Tm6 Co16 Sn8'
_cell_volume   501.31853799
_cell_formula_units_Z   2
loop_
 _symmetry_equiv_pos_site_id
 _symmetry_equiv_pos_as_xyz
  1  'x, y, z'
loop_
 _atom_site_type_symbol
 _atom_site_label
 _atom_site_symmetry_multiplicity
 _atom_site_fract_x
 _atom_site_fract_y
 _atom_site_fract_z
 _atom_site_occupancy
  Tm  Tm0  1  0.78509300  0.47531100  0.95062200  1
  Tm  Tm1  1  0.78509300  0.47531100  0.52468900  1
  Tm  Tm2  1  0.28509300  0.52468900  0.04937800  1
  Tm  Tm3  1  0.78509300  0.04937800  0.52468900  1
  Tm  Tm4  1  0.28509300  0.52468900  0.47531100  1
  Tm  Tm5  1  0.28509300  0.95062200  0.47531100  1
  Co  Co0  1  0.62956300  0.66666700  0.33333300  1
  Co  Co1  1  0.12956300  0.33333300  0.66666700  1
  Co  Co2  1  0.75475100  0.09988300  0.19976600  1
  Co  Co3  1  0.75475100  0.09988300  0.90011700  1
  Co  Co4  1  0.25475100  0.90011700  0.80023400  1
  Co  Co5  1  0.75475100  0.80023400  0.90011700  1
  Co  Co6  1  0.25475100  0.90011700  0.09988300  1
  Co  Co7  1  0.25475100  0.19976600  0.09988300  1
  Co  Co8  1  0.94069100  0.83893200  0.67786400  1
  Co  Co9  1  0.94069100  0.83893200  0.16106800  1
  Co  Co10  1  0.44069100  0.16106800  0.32213600  1
  Co  Co11  1  0.94069100  0.32213600  0.16106800  1
  Co  Co12  1  0.44069100  0.16106800  0.83893200  1
  Co  Co13  1  0.44069100  0.67786400  0.83893200  1
  Co  Co14  1  0.99704200  0.00000000  0.00000000  1
  Co  Co15  1  0.49704200  0.00000000  0.00000000  1
  Sn  Sn0  1  0.97967300  0.66666700  0.33333300  1
  Sn  Sn1  1  0.47967300  0.33333300  0.66666700  1
  Sn  Sn2  1  0.57240600  0.82873200  0.65746400  1
  Sn  Sn3  1  0.57240600  0.82873200  0.17126800  1
  Sn  Sn4  1  0.07240600  0.17126800  0.34253600  1
  Sn  Sn5  1  0.57240600  0.34253600  0.17126800  1
  Sn  Sn6  1  0.07240600  0.17126800  0.82873200  1
  Sn  Sn7  1  0.07240600  0.65746400  0.82873200  1
loop_
_geom_bond_atom_site_label_1
_geom_bond_atom_site_label_2
_geom_bond_distance
_geom_bond_site_symmetry_2
Co0 Sn3 2.500322 1_555
Co0 Sn2 2.500329 1_555
Co0 Sn5 2.500329 1_555
Co0 Sn0 2.632188 1_555
Co0 Tm3 3.134547 1_565
Co0 Tm0 3.134547 1_554
Co0 Tm1 3.134555 1_555
Co0 Tm5 3.370932 1_555
Co0 Tm2 3.370932 1_555
Co0 Tm4 3.370937 1_555
Co1 Sn6 2.500322 1_555
Co1 Sn7 2.500329 1_555
Co1 Sn4 2.500329 1_555
Co1 Sn1 2.632188 1_555
Co1 Tm2 3.134547 1_556
Co1 Tm5 3.134547 1_545
Co1 Tm4 3.134555 1_555
Co1 Tm0 3.370932 1_455
Co1 Tm3 3.370932 1_455
Co1 Tm1 3.370937 1_455
Co2 Co9 2.556381 1_545
Co2 Sn4 2.623073 1_655
Co2 Co5 2.629349 1_544
Co2 Co3 2.629349 1_554
Co2 Sn3 2.647250 1_545
Co2 Sn5 2.647250 1_555
Co2 Tm1 3.104974 1_555
Co2 Tm3 3.104974 1_555
Co3 Co8 2.556381 1_545
Co3 Sn6 2.623073 1_655
Co3 Co5 2.629349 1_545
Co3 Sn5 2.647250 1_556
Co3 Sn2 2.647250 1_545
Co3 Tm0 3.104974 1_555
Co3 Tm3 3.104974 1_555
Co4 Co8 2.537676 1_455
Co4 Sn2 2.623073 1_555
Co4 Co7 2.629349 1_566
Co4 Co6 2.629349 1_556
Co4 Sn6 2.647250 1_565
Co4 Sn7 2.647250 1_555
Co4 Tm4 3.104974 1_555
Co4 Tm5 3.104974 1_555
Co5 Co9 2.556381 1_556
Co5 Co8 2.556381 1_555
Co5 Sn7 2.623073 1_655
Co5 Sn3 2.647250 1_556
Co5 Sn2 2.647250 1_555
Co5 Tm1 3.104974 1_555
Co5 Tm0 3.104974 1_555
Co6 Co9 2.537676 1_455
Co6 Sn3 2.623073 1_555
Co6 Co7 2.629349 1_565
Co6 Sn4 2.647250 1_565
Co6 Sn7 2.647250 1_554
Co6 Tm2 3.104974 1_555
Co6 Tm5 3.104974 1_555
Co7 Sn5 2.623073 1_555
Co7 Sn6 2.647250 1_554
Co7 Sn4 2.647250 1_555
Co7 Tm4 3.104974 1_555
Co7 Tm2 3.104974 1_555
Co8 Sn0 2.634501 1_555
Co8 Sn6 2.716002 1_665
Co8 Sn7 2.716002 1_655
Co8 Sn2 2.773167 1_555
Co8 Tm1 3.011140 1_555
Co8 Tm3 3.011140 1_565
Co9 Sn0 2.634494 1_555
Co9 Sn4 2.716002 1_665
Co9 Sn7 2.716002 1_654
Co9 Sn3 2.773167 1_555
Co9 Tm0 3.011140 1_554
Co9 Tm3 3.011140 1_565
Co10 Co15 2.484355 1_555
Co10 Co2 2.537676 1_555
Co10 Co6 2.556381 1_545
Co10 Co7 2.556381 1_555
Co10 Sn1 2.634501 1_555
Co10 Sn3 2.716002 1_545
Co10 Sn5 2.716002 1_555
Co10 Sn4 2.773167 1_555
Co10 Tm4 3.011140 1_555
Co10 Tm5 3.011140 1_545
Co11 Co14 2.484355 1_555
Co11 Co7 2.537676 1_655
Co11 Co3 2.556381 1_554
Co11 Co2 2.556381 1_555
Co11 Sn0 2.634501 1_555
Co11 Sn6 2.716002 1_654
Co11 Sn4 2.716002 1_655
Co11 Sn5 2.773167 1_555
Co11 Tm1 3.011140 1_555
Co11 Tm0 3.011140 1_554
Co12 Co15 2.484355 1_556
Co12 Co3 2.537676 1_555
Co12 Co7 2.556381 1_556
Co12 Co4 2.556381 1_545
Co12 Sn1 2.634494 1_555
Co12 Sn5 2.716002 1_556
Co12 Sn2 2.716002 1_545
Co12 Sn6 2.773167 1_555
Co12 Tm2 3.011140 1_556
Co12 Tm5 3.011140 1_545
Co13 Co15 2.484355 1_566
Co13 Co5 2.537676 1_555
Co13 Co6 2.556381 1_556
Co13 Co4 2.556381 1_555
Co13 Sn1 2.634501 1_555
Co13 Sn3 2.716002 1_556
Co13 Sn2 2.716002 1_555
Co13 Sn7 2.773167 1_555
Co13 Tm4 3.011140 1_555
Co13 Tm2 3.011140 1_556
Co14 Co5 2.371216 1_544
Co14 Co2 2.371216 1_555
Co14 Co3 2.371216 1_554
Co14 Co4 2.461382 1_644
Co14 Co7 2.461382 1_655
Co14 Co6 2.461382 1_645
Co14 Co8 2.484355 1_544
Co14 Co9 2.484355 1_545
Co14 Sn4 2.663941 1_655
Co14 Sn7 2.663941 1_644
Co14 Sn6 2.663942 1_654
Co15 Co7 2.371216 1_555
Co15 Co4 2.371216 1_544
Co15 Co6 2.371216 1_545
Co15 Co2 2.461382 1_555
Co15 Co5 2.461382 1_544
Co15 Co3 2.461382 1_554
Co15 Sn5 2.663941 1_555
Co15 Sn2 2.663941 1_544
Co15 Sn3 2.663942 1_545
Sn0 Tm2 3.150989 1_655
Sn0 Tm5 3.150989 1_655
Sn0 Tm4 3.150994 1_655
Sn0 Tm0 3.255481 1_554
Sn0 Tm3 3.255481 1_565
Sn0 Tm1 3.255488 1_555
Sn1 Tm0 3.150989 1_555
Sn1 Tm3 3.150989 1_555
Sn1 Tm1 3.150994 1_555
Sn1 Tm5 3.255481 1_545
Sn1 Tm2 3.255481 1_556
Sn1 Tm4 3.255488 1_555
Sn2 Tm1 3.149365 1_555
Sn2 Tm3 3.149365 1_565
Sn2 Tm4 3.173971 1_555
Sn2 Tm5 3.173971 1_555
Sn3 Tm0 3.149365 1_554
Sn3 Tm3 3.149365 1_565
Sn3 Tm2 3.173971 1_555
Sn3 Tm5 3.173971 1_555
Sn4 Tm4 3.149365 1_555
Sn4 Tm5 3.149365 1_545
Sn4 Tm1 3.173971 1_455
Sn4 Tm3 3.173971 1_455
Sn5 Tm1 3.149365 1_555
Sn5 Tm0 3.149365 1_554
Sn5 Tm4 3.173971 1_555
Sn5 Tm2 3.173971 1_555
Sn6 Tm5 3.149365 1_545
Sn6 Tm2 3.149365 1_556
Sn6 Tm3 3.173971 1_455
Sn6 Tm0 3.173971 1_455
Sn7 Tm4 3.149365 1_555
Sn7 Tm2 3.149365 1_556
Sn7 Tm1 3.173971 1_455
Sn7 Tm0 3.173971 1_455
