# generated using pymatgen
data_HoZr6(PO4)9
_symmetry_space_group_name_H-M   'P 1'
_cell_length_a   8.94211410
_cell_length_b   8.94211410
_cell_length_c   22.89237100
_cell_angle_alpha   90.00000000
_cell_angle_beta   90.00000000
_cell_angle_gamma   120.00000072
_symmetry_Int_Tables_number   1
_chemical_formula_structural   HoZr6(PO4)9
_chemical_formula_sum   'Ho2 Zr12 P18 O72'
_cell_volume   1585.26480595
_cell_formula_units_Z   2
loop_
 _symmetry_equiv_pos_site_id
 _symmetry_equiv_pos_as_xyz
  1  'x, y, z'
loop_
 _atom_site_type_symbol
 _atom_site_label
 _atom_site_symmetry_multiplicity
 _atom_site_fract_x
 _atom_site_fract_y
 _atom_site_fract_z
 _atom_site_occupancy
  Ho  Ho0  1  0.00000000  0.00000000  0.50000000  1
  Ho  Ho1  1  0.00000000  0.00000000  0.00000000  1
  Zr  Zr0  1  0.33333300  0.66666700  0.52992800  1
  Zr  Zr1  1  0.66666700  0.33333300  0.47007200  1
  Zr  Zr2  1  0.66666700  0.33333300  0.97007200  1
  Zr  Zr3  1  0.33333300  0.66666700  0.02992800  1
  Zr  Zr4  1  0.00000000  0.00000000  0.64885700  1
  Zr  Zr5  1  0.00000000  0.00000000  0.35114300  1
  Zr  Zr6  1  0.00000000  0.00000000  0.85114300  1
  Zr  Zr7  1  0.00000000  0.00000000  0.14885700  1
  Zr  Zr8  1  0.33333300  0.66666700  0.81287000  1
  Zr  Zr9  1  0.66666700  0.33333300  0.18713000  1
  Zr  Zr10  1  0.66666700  0.33333300  0.68713000  1
  Zr  Zr11  1  0.33333300  0.66666700  0.31287000  1
  P  P0  1  0.37383500  0.31724200  0.57863000  1
  P  P1  1  0.62616500  0.68275800  0.42137000  1
  P  P2  1  0.68275800  0.05659300  0.57863000  1
  P  P3  1  0.31724200  0.37383500  0.92137000  1
  P  P4  1  0.31724200  0.94340700  0.42137000  1
  P  P5  1  0.68275800  0.62616500  0.07863000  1
  P  P6  1  0.94340700  0.62616500  0.57863000  1
  P  P7  1  0.05659300  0.68275800  0.92137000  1
  P  P8  1  0.05659300  0.37383500  0.42137000  1
  P  P9  1  0.94340700  0.31724200  0.07863000  1
  P  P10  1  0.62616500  0.94340700  0.92137000  1
  P  P11  1  0.37383500  0.05659300  0.07863000  1
  P  P12  1  0.29166500  0.00000000  0.75000000  1
  P  P13  1  0.70833500  0.00000000  0.25000000  1
  P  P14  1  0.00000000  0.29166500  0.75000000  1
  P  P15  1  0.00000000  0.70833500  0.25000000  1
  P  P16  1  0.70833500  0.70833500  0.75000000  1
  P  P17  1  0.29166500  0.29166500  0.25000000  1
  O  O0  1  0.45795900  0.28651000  0.52508000  1
  O  O1  1  0.54204100  0.71349000  0.47492000  1
  O  O2  1  0.71349000  0.17144800  0.52508000  1
  O  O3  1  0.28651000  0.45795900  0.97492000  1
  O  O4  1  0.28651000  0.82855200  0.47492000  1
  O  O5  1  0.71349000  0.54204100  0.02508000  1
  O  O6  1  0.82855200  0.54204100  0.52508000  1
  O  O7  1  0.17144800  0.71349000  0.97492000  1
  O  O8  1  0.17144800  0.45795900  0.47492000  1
  O  O9  1  0.82855200  0.28651000  0.02508000  1
  O  O10  1  0.54204100  0.82855200  0.97492000  1
  O  O11  1  0.45795900  0.17144800  0.02508000  1
  O  O12  1  0.37443300  0.48932500  0.57550300  1
  O  O13  1  0.62556700  0.51067500  0.42449700  1
  O  O14  1  0.51067500  0.88510800  0.57550300  1
  O  O15  1  0.48932500  0.37443300  0.92449700  1
  O  O16  1  0.48932500  0.11489200  0.42449700  1
  O  O17  1  0.51067500  0.62556700  0.07550300  1
  O  O18  1  0.11489200  0.62556700  0.57550300  1
  O  O19  1  0.88510800  0.51067500  0.92449700  1
  O  O20  1  0.88510800  0.37443300  0.42449700  1
  O  O21  1  0.11489200  0.48932500  0.07550300  1
  O  O22  1  0.62556700  0.11489200  0.92449700  1
  O  O23  1  0.37443300  0.88510800  0.07550300  1
  O  O24  1  0.17796000  0.16560400  0.57693200  1
  O  O25  1  0.82204000  0.83439600  0.42306800  1
  O  O26  1  0.83439600  0.01235600  0.57693200  1
  O  O27  1  0.16560400  0.17796000  0.92306800  1
  O  O28  1  0.16560400  0.98764400  0.42306800  1
  O  O29  1  0.83439600  0.82204000  0.07693200  1
  O  O30  1  0.98764400  0.82204000  0.57693200  1
  O  O31  1  0.01235600  0.83439600  0.92306800  1
  O  O32  1  0.01235600  0.17796000  0.42306800  1
  O  O33  1  0.98764400  0.16560400  0.07693200  1
  O  O34  1  0.82204000  0.98764400  0.92306800  1
  O  O35  1  0.17796000  0.01235600  0.07693200  1
  O  O36  1  0.03182200  0.20453600  0.69596100  1
  O  O37  1  0.96817800  0.79546400  0.30403900  1
  O  O38  1  0.79546400  0.82728700  0.69596100  1
  O  O39  1  0.20453600  0.03182200  0.80403900  1
  O  O40  1  0.20453600  0.17271300  0.30403900  1
  O  O41  1  0.79546400  0.96817800  0.19596100  1
  O  O42  1  0.17271300  0.96817800  0.69596100  1
  O  O43  1  0.82728700  0.79546400  0.80403900  1
  O  O44  1  0.82728700  0.03182200  0.30403900  1
  O  O45  1  0.17271300  0.20453600  0.19596100  1
  O  O46  1  0.96817800  0.17271300  0.80403900  1
  O  O47  1  0.03182200  0.82728700  0.19596100  1
  O  O48  1  0.45844800  0.30805700  0.63540100  1
  O  O49  1  0.54155200  0.69194300  0.36459900  1
  O  O50  1  0.69194300  0.15039100  0.63540100  1
  O  O51  1  0.30805700  0.45844800  0.86459900  1
  O  O52  1  0.30805700  0.84960900  0.36459900  1
  O  O53  1  0.69194300  0.54155200  0.13540100  1
  O  O54  1  0.84960900  0.54155200  0.63540100  1
  O  O55  1  0.15039100  0.69194300  0.86459900  1
  O  O56  1  0.15039100  0.45844800  0.36459900  1
  O  O57  1  0.84960900  0.30805700  0.13540100  1
  O  O58  1  0.54155200  0.84960900  0.86459900  1
  O  O59  1  0.45844800  0.15039100  0.13540100  1
  O  O60  1  0.46783900  0.15860700  0.73998600  1
  O  O61  1  0.53216100  0.84139300  0.26001400  1
  O  O62  1  0.84139300  0.30923200  0.73998600  1
  O  O63  1  0.15860700  0.46783900  0.76001400  1
  O  O64  1  0.15860700  0.69076800  0.26001400  1
  O  O65  1  0.84139300  0.53216100  0.23998600  1
  O  O66  1  0.69076800  0.53216100  0.73998600  1
  O  O67  1  0.30923200  0.84139300  0.76001400  1
  O  O68  1  0.30923200  0.46783900  0.26001400  1
  O  O69  1  0.69076800  0.15860700  0.23998600  1
  O  O70  1  0.53216100  0.69076800  0.76001400  1
  O  O71  1  0.46783900  0.30923200  0.23998600  1
loop_
_geom_bond_atom_site_label_1
_geom_bond_atom_site_label_2
_geom_bond_distance
_geom_bond_site_symmetry_2
Ho0 O24 2.338891 1_555
Ho0 O25 2.338891 1_445
Ho0 O30 2.338891 1_445
Ho0 O32 2.338891 1_555
Ho0 O28 2.338891 1_545
Ho0 O26 2.338891 1_455
Ho1 O27 2.338891 1_554
Ho1 O29 2.338891 1_445
Ho1 O34 2.338891 1_444
Ho1 O35 2.338891 1_555
Ho1 O33 2.338891 1_455
Ho1 O31 2.338891 1_544
O0 P0 1.533270 1_555
O0 Zr1 2.112506 1_555
O1 P1 1.533270 1_555
O1 Zr0 2.112506 1_555
O2 P2 1.533265 1_555
O2 Zr1 2.112506 1_555
O3 P3 1.533270 1_555
O3 Zr3 2.112506 1_556
O4 P4 1.533265 1_555
O4 Zr0 2.112506 1_555
O5 P5 1.533270 1_555
O5 Zr2 2.112506 1_554
O6 P6 1.533266 1_555
O6 Zr1 2.112506 1_555
O7 P7 1.533265 1_555
O7 Zr3 2.112506 1_556
O8 P8 1.533266 1_555
O8 Zr0 2.112506 1_555
O9 P9 1.533265 1_555
O9 Zr2 2.112506 1_554
O10 P10 1.533266 1_555
O10 Zr3 2.112506 1_556
O11 P11 1.533266 1_555
O11 Zr2 2.112506 1_554
O12 P0 1.537786 1_555
O12 Zr0 2.078752 1_555
O13 P1 1.537786 1_555
O13 Zr1 2.078752 1_555
O14 P2 1.537786 1_565
O14 Zr0 2.078747 1_555
O15 P3 1.537786 1_555
O15 Zr2 2.078752 1_555
O16 P4 1.537786 1_545
O16 Zr1 2.078747 1_555
O17 P5 1.537786 1_555
O17 Zr3 2.078752 1_555
O18 P6 1.537786 1_455
O18 Zr0 2.078744 1_555
O19 P7 1.537786 1_655
O19 Zr2 2.078747 1_555
O20 P8 1.537786 1_655
O20 Zr1 2.078744 1_555
O21 P9 1.537786 1_455
O21 Zr3 2.078747 1_555
O22 P10 1.537786 1_545
O22 Zr2 2.078744 1_555
O23 P11 1.537786 1_565
O23 Zr3 2.078744 1_555
O24 P0 1.591543 1_555
O24 Zr4 2.253844 1_555
O25 P1 1.591543 1_555
O25 Zr5 2.253844 1_665
O26 P2 1.591543 1_555
O26 Zr4 2.253844 1_655
O27 P3 1.591543 1_555
O27 Zr6 2.253844 1_555
O28 P4 1.591543 1_555
O28 Zr5 2.253844 1_565
O29 P5 1.591543 1_555
O29 Zr7 2.253844 1_665
O30 P6 1.591543 1_555
O30 Zr4 2.253844 1_665
O31 P7 1.591543 1_555
O31 Zr6 2.253844 1_565
O32 P8 1.591543 1_555
O32 Zr5 2.253844 1_555
O33 P9 1.591543 1_555
O33 Zr7 2.253844 1_655
O34 P10 1.591543 1_555
O34 Zr6 2.253844 1_665
O35 P11 1.591543 1_555
O35 Zr7 2.253844 1_555
O36 P14 1.562072 1_555
O36 Zr4 2.017049 1_555
O37 P15 1.562072 1_655
O37 Zr5 2.017049 1_665
O38 P16 1.562075 1_555
O38 Zr4 2.017046 1_665
O39 P12 1.562072 1_555
O39 Zr6 2.017049 1_555
O40 P17 1.562075 1_555
O40 Zr5 2.017046 1_555
O41 P13 1.562072 1_565
O41 Zr7 2.017049 1_665
O42 P12 1.562077 1_565
O42 Zr4 2.017041 1_565
O43 P16 1.562075 1_555
O43 Zr6 2.017046 1_665
O44 P13 1.562077 1_555
O44 Zr5 2.017041 1_655
O45 P17 1.562075 1_555
O45 Zr7 2.017046 1_555
O46 P14 1.562077 1_655
O46 Zr6 2.017041 1_655
O47 P15 1.562077 1_555
O47 Zr7 2.017041 1_565
O48 P0 1.526559 1_555
O48 Zr10 2.121160 1_555
O49 P1 1.526559 1_555
O49 Zr11 2.121160 1_555
O50 P2 1.526559 1_555
O50 Zr10 2.121153 1_555
O51 P3 1.526559 1_555
O51 Zr8 2.121160 1_555
O52 P4 1.526559 1_555
O52 Zr11 2.121153 1_555
O53 P5 1.526559 1_555
O53 Zr9 2.121160 1_555
O54 P6 1.526559 1_555
O54 Zr10 2.121157 1_555
O55 P7 1.526559 1_555
O55 Zr8 2.121153 1_555
O56 P8 1.526559 1_555
O56 Zr11 2.121157 1_555
O57 P9 1.526559 1_555
O57 Zr9 2.121153 1_555
O58 P10 1.526559 1_555
O58 Zr8 2.121157 1_555
O59 P11 1.526559 1_555
O59 Zr9 2.121157 1_555
O60 P12 1.520377 1_555
O60 Zr10 2.070855 1_555
O61 P13 1.520377 1_565
O61 Zr11 2.070855 1_555
O62 P14 1.520377 1_655
O62 Zr10 2.070851 1_555
O63 P14 1.520377 1_555
O63 Zr8 2.070855 1_555
O64 P15 1.520377 1_555
O64 Zr11 2.070851 1_555
O65 P15 1.520377 1_655
O65 Zr9 2.070855 1_555
O66 P16 1.520377 1_555
O66 Zr10 2.070858 1_555
O67 P12 1.520377 1_565
O67 Zr8 2.070851 1_555
O68 P17 1.520377 1_555
O68 Zr11 2.070858 1_555
O69 P13 1.520377 1_555
O69 Zr9 2.070851 1_555
O70 P16 1.520377 1_555
O70 Zr8 2.070858 1_555
O71 P17 1.520377 1_555
O71 Zr9 2.070858 1_555
