# generated using pymatgen
data_Sr2MnMoO6
_symmetry_space_group_name_H-M   'P 1'
_cell_length_a   7.68676523
_cell_length_b   7.68685213
_cell_length_c   8.23580724
_cell_angle_alpha   89.98363989
_cell_angle_beta   89.97993520
_cell_angle_gamma   90.00199741
_symmetry_Int_Tables_number   1
_chemical_formula_structural   Sr2MnMoO6
_chemical_formula_sum   'Sr8 Mn4 Mo4 O24'
_cell_volume   486.62932073
_cell_formula_units_Z   4
loop_
 _symmetry_equiv_pos_site_id
 _symmetry_equiv_pos_as_xyz
  1  'x, y, z'
loop_
 _atom_site_type_symbol
 _atom_site_label
 _atom_site_symmetry_multiplicity
 _atom_site_fract_x
 _atom_site_fract_y
 _atom_site_fract_z
 _atom_site_occupancy
  Sr  Sr0  1  0.25002398  0.25000411  0.24991949  1
  Sr  Sr1  1  0.75000572  0.25000231  0.25132453  1
  Sr  Sr2  1  0.24998157  0.75002235  0.74869170  1
  Sr  Sr3  1  0.75006863  0.74997989  0.24997168  1
  Sr  Sr4  1  0.24991014  0.25002980  0.75004226  1
  Sr  Sr5  1  0.25004793  0.74991567  0.24865102  1
  Sr  Sr6  1  0.74999088  0.74999669  0.75012922  1
  Sr  Sr7  1  0.74997140  0.25010849  0.75138640  1
  Mn  Mn0  1  0.50001783  1.00000497  0.49995900  1
  Mn  Mn1  1  1.00000614  0.00001300  0.99992219  1
  Mn  Mn2  1  0.99999203  0.50001123  0.49992353  1
  Mn  Mn3  1  0.49999309  0.49999521  0.99994349  1
  Mo  Mo0  1  0.49997369  0.49998583  0.50001190  1
  Mo  Mo1  1  0.00001394  0.99999524  0.50001810  1
  Mo  Mo2  1  0.49998984  -0.00001809  0.00002791  1
  Mo  Mo3  1  -0.00002449  0.50001619  1.00001690  1
  O  O0  1  0.75101789  0.53460592  0.49875332  1
  O  O1  1  0.99892773  0.50162284  0.76417170  1
  O  O2  1  0.24902105  0.46535889  0.50120998  1
  O  O3  1  0.53467966  0.74905721  0.00248408  1
  O  O4  1  0.46537672  0.75098158  0.49788715  1
  O  O5  1  0.74902727  0.96536789  0.49733686  1
  O  O6  1  0.00272216  0.00156113  0.26426592  1
  O  O7  1  0.03468855  0.24905285  0.99830355  1
  O  O8  1  0.53464367  0.24900539  0.50207061  1
  O  O9  1  0.00101661  0.49840717  0.23579446  1
  O  O10  1  0.03468085  0.74897535  0.49864748  1
  O  O11  1  0.25098806  0.03460346  0.50271293  1
  O  O12  1  0.24907160  0.96529517  0.99763156  1
  O  O13  1  0.74906461  0.46529384  0.00097600  1
  O  O14  1  0.49897416  0.49777063  0.26422644  1
  O  O15  1  0.99730185  0.99843785  0.73576546  1
  O  O16  1  0.96538170  0.25099542  0.50139775  1
  O  O17  1  0.75092052  0.03467503  0.00242339  1
  O  O18  1  0.96530137  0.75094150  0.00165037  1
  O  O19  1  0.25094390  0.53472233  0.99898376  1
  O  O20  1  0.50268316  0.99768676  0.76424838  1
  O  O21  1  0.46533252  0.25095873  0.99757627  1
  O  O22  1  0.49728075  0.00232643  0.23579855  1
  O  O23  1  0.50099635  0.50223977  0.73574569  1
loop_
_geom_bond_atom_site_label_1
_geom_bond_atom_site_label_2
_geom_bond_distance
_geom_bond_site_symmetry_2
Mn0 O8 1.932521 1_565
Mn0 O5 1.932629 1_555
Mn0 O4 1.932709 1_555
Mn0 O11 1.932755 1_565
Mn0 O22 2.175752 1_565
Mn0 O20 2.176808 1_555
Mn1 O7 1.932839 1_655
Mn1 O18 1.933110 1_546
Mn1 O12 1.933114 1_645
Mn1 O17 1.933225 1_556
Mn1 O15 2.175688 1_545
Mn1 O6 2.177227 1_656
Mn2 O0 1.932229 1_555
Mn2 O10 1.932253 1_655
Mn2 O16 1.932572 1_555
Mn2 O2 1.932713 1_655
Mn2 O9 2.175366 1_655
Mn2 O1 2.176348 1_555
Mn3 O21 1.932854 1_555
Mn3 O19 1.932932 1_555
Mn3 O13 1.933078 1_556
Mn3 O3 1.933091 1_556
Mn3 O23 2.175957 1_555
Mn3 O14 2.176657 1_556
Mo0 O23 1.941559 1_555
Mo0 O14 1.941981 1_555
Mo0 O2 1.947303 1_555
Mo0 O8 1.947648 1_555
Mo0 O4 1.947693 1_555
Mo0 O0 1.947996 1_555
Mo1 O15 1.941708 1_455
Mo1 O6 1.941748 1_565
Mo1 O11 1.947561 1_565
Mo1 O5 1.947675 1_455
Mo1 O16 1.947725 1_465
Mo1 O10 1.947911 1_555
Mo2 O22 1.941955 1_555
Mo2 O20 1.942023 1_544
Mo2 O12 1.947191 1_544
Mo2 O3 1.947275 1_545
Mo2 O17 1.947292 1_555
Mo2 O21 1.947637 1_554
Mo3 O9 1.941874 1_556
Mo3 O1 1.942431 1_455
Mo3 O13 1.947077 1_456
Mo3 O18 1.947213 1_456
Mo3 O19 1.947500 1_555
Mo3 O7 1.947548 1_555
O0 Sr3 2.633824 1_555
O0 Sr6 2.651292 1_555
O0 Sr1 2.990185 1_555
O0 Sr7 3.018111 1_555
O1 Sr6 2.705607 1_555
O1 Sr2 2.717652 1_655
O1 Sr7 2.722328 1_555
O1 Sr4 2.734218 1_655
O2 Sr4 2.633930 1_555
O2 Sr0 2.650569 1_555
O2 Sr2 2.990817 1_555
O2 Sr5 3.018020 1_555
O3 Sr3 2.626420 1_555
O3 Sr6 2.656376 1_554
O3 Sr5 2.982302 1_555
O3 Sr2 3.026756 1_554
O4 Sr5 2.637328 1_555
O4 Sr2 2.646805 1_555
O4 Sr3 2.992447 1_555
O4 Sr6 3.017482 1_555
O5 Sr3 2.625561 1_555
O5 Sr6 2.659582 1_555
O5 Sr1 2.981565 1_565
O5 Sr7 3.028378 1_565
O6 Sr0 2.697065 1_555
O6 Sr5 2.715296 1_545
O6 Sr1 2.726225 1_455
O6 Sr3 2.743253 1_445
O7 Sr4 2.629657 1_555
O7 Sr0 2.652644 1_556
O7 Sr7 2.988029 1_455
O7 Sr1 3.021231 1_456
O8 Sr7 2.637835 1_555
O8 Sr1 2.646271 1_555
O8 Sr4 2.992997 1_555
O8 Sr0 3.016997 1_555
O9 Sr0 2.706178 1_555
O9 Sr1 2.717465 1_455
O9 Sr5 2.722725 1_555
O9 Sr3 2.733937 1_455
O10 Sr5 2.641481 1_555
O10 Sr2 2.642377 1_555
O10 Sr3 2.997319 1_455
O10 Sr6 3.012546 1_455
O11 Sr4 2.625519 1_555
O11 Sr0 2.659730 1_555
O11 Sr2 2.981077 1_545
O11 Sr5 3.028155 1_545
O12 Sr2 2.635080 1_555
O12 Sr5 2.648211 1_556
O12 Sr4 2.990964 1_565
O12 Sr0 3.018193 1_566
O13 Sr7 2.638825 1_554
O13 Sr1 2.643476 1_555
O13 Sr3 2.999459 1_555
O13 Sr6 3.009136 1_554
O14 Sr0 2.702435 1_555
O14 Sr1 2.713355 1_555
O14 Sr5 2.726648 1_555
O14 Sr3 2.738079 1_555
O15 Sr6 2.697111 1_555
O15 Sr7 2.715462 1_565
O15 Sr2 2.725881 1_655
O15 Sr4 2.743059 1_665
O16 Sr7 2.641638 1_555
O16 Sr1 2.642924 1_555
O16 Sr4 2.996672 1_655
O16 Sr0 3.012260 1_655
O17 Sr1 2.635095 1_555
O17 Sr7 2.648582 1_554
O17 Sr3 2.990512 1_545
O17 Sr6 3.018058 1_544
O18 Sr3 2.630095 1_555
O18 Sr6 2.651915 1_554
O18 Sr5 2.988662 1_655
O18 Sr2 3.020862 1_654
O19 Sr5 2.639362 1_556
O19 Sr2 2.643155 1_555
O19 Sr4 2.999191 1_555
O19 Sr0 3.009725 1_556
O20 Sr6 2.693062 1_555
O20 Sr7 2.718234 1_565
O20 Sr2 2.722850 1_555
O20 Sr4 2.748051 1_565
O21 Sr4 2.626879 1_555
O21 Sr0 2.656289 1_556
O21 Sr7 2.982470 1_555
O21 Sr1 3.026366 1_556
O22 Sr0 2.692719 1_555
O22 Sr5 2.717873 1_545
O22 Sr1 2.723028 1_555
O22 Sr3 2.748139 1_545
O23 Sr6 2.702652 1_555
O23 Sr2 2.713355 1_555
O23 Sr7 2.726862 1_555
O23 Sr4 2.738052 1_555
