# generated using pymatgen
data_Cs2LiTm2(WO4)4
_symmetry_space_group_name_H-M   'P 1'
_cell_length_a   7.44529816
_cell_length_b   7.98023475
_cell_length_c   7.53197976
_cell_angle_alpha   62.62283289
_cell_angle_beta   62.48299989
_cell_angle_gamma   87.95173432
_symmetry_Int_Tables_number   1
_chemical_formula_structural   Cs2LiTm2(WO4)4
_chemical_formula_sum   'Cs2 Li1 Tm2 W4 O16'
_cell_volume   343.44970566
_cell_formula_units_Z   1
loop_
 _symmetry_equiv_pos_site_id
 _symmetry_equiv_pos_as_xyz
  1  'x, y, z'
loop_
 _atom_site_type_symbol
 _atom_site_label
 _atom_site_symmetry_multiplicity
 _atom_site_fract_x
 _atom_site_fract_y
 _atom_site_fract_z
 _atom_site_occupancy
  Cs  Cs0  1  0.76573700  0.15330500  0.79157100  1
  Cs  Cs1  1  0.22073300  0.84331200  0.23128400  1
  Li  Li0  1  0.00395100  0.47671000  0.35992200  1
  Tm  Tm0  1  0.25187600  0.79972500  0.74125400  1
  Tm  Tm1  1  0.75565300  0.20173000  0.26480700  1
  W  W0  1  0.28743000  0.31934600  0.70047400  1
  W  W1  1  0.69495700  0.68234100  0.29434700  1
  W  W2  1  0.69908500  0.68293800  0.78981800  1
  W  W3  1  0.31546800  0.30320400  0.19879100  1
  O  O0  1  0.36980500  0.26662800  0.92716000  1
  O  O1  1  0.62615200  0.73545400  0.06718600  1
  O  O2  1  0.77249500  0.61117500  0.55942500  1
  O  O3  1  0.22620200  0.38654300  0.44602900  1
  O  O4  1  0.63472500  0.91625600  0.62917200  1
  O  O5  1  0.37948300  0.07599000  0.37186800  1
  O  O6  1  0.02648800  0.32501000  0.89545600  1
  O  O7  1  0.96837200  0.67108300  0.11500700  1
  O  O8  1  0.39635600  0.62152000  0.55089900  1
  O  O9  1  0.60556600  0.38497600  0.44754300  1
  O  O10  1  0.37611100  0.59336800  0.96133600  1
  O  O11  1  0.64158300  0.41060800  0.03103300  1
  O  O12  1  0.25320600  0.06226900  0.77626200  1
  O  O13  1  0.74636700  0.93412800  0.22839100  1
  O  O14  1  0.96851500  0.76431400  0.70792700  1
  O  O15  1  0.02201700  0.26140300  0.29696700  1
loop_
_geom_bond_atom_site_label_1
_geom_bond_atom_site_label_2
_geom_bond_distance
_geom_bond_site_symmetry_2
Cs0 Li0 2.767422 1_655
Cs0 O13 2.862172 1_546
Cs0 O1 2.897687 1_546
Cs0 O0 2.903030 1_555
Cs0 O6 2.972974 1_655
Cs0 O15 2.976075 1_655
Cs0 O4 3.064090 1_545
Cs0 O3 3.122107 1_655
Cs0 O9 3.137886 1_555
Cs0 O11 3.170729 1_556
Cs0 O2 3.235260 1_555
Cs0 O14 3.591277 1_545
Cs0 O12 3.635264 1_655
Cs1 O14 2.930195 1_455
Cs1 O12 2.935034 1_564
Cs1 O0 2.948384 1_564
Cs1 O1 2.953815 1_555
Cs1 O7 2.999751 1_455
Cs1 O5 3.014560 1_565
Cs1 O2 3.047490 1_455
Cs1 O8 3.076067 1_555
Li0 O7 1.915639 1_455
Li0 O15 1.966976 1_555
Li0 O3 2.038097 1_555
Li0 O2 2.310215 1_455
O0 W0 1.938263 1_555
O0 W3 2.051979 1_556
O1 W1 1.870003 1_555
O1 W2 2.139086 1_554
O2 W2 1.911342 1_555
O2 W1 2.154258 1_555
O3 W0 2.003214 1_555
O3 W3 2.077401 1_555
O4 W2 1.886917 1_555
O4 Tm1 2.376064 1_565
O4 Tm0 2.635595 1_555
O5 W3 1.884876 1_555
O5 Tm0 2.360058 1_545
O5 Tm1 2.621243 1_555
O6 W0 1.830746 1_555
O6 Tm1 2.283509 1_456
O7 W1 1.879975 1_555
O7 Tm0 2.332484 1_654
O8 W1 2.038884 1_555
O8 W0 2.130468 1_555
O8 Tm0 2.361343 1_555
O9 W1 2.071401 1_555
O9 W0 2.124957 1_555
O9 Tm1 2.365297 1_555
O10 W3 2.069841 1_556
O10 W2 2.089326 1_555
O10 Tm0 2.261103 1_555
O11 W2 1.980817 1_554
O11 W3 2.131757 1_555
O11 Tm1 2.276277 1_555
O12 W0 1.850811 1_555
O12 Tm0 2.229644 1_545
O13 W1 1.841714 1_555
O13 Tm1 2.281943 1_565
O14 W2 1.845967 1_555
O14 Tm0 2.278360 1_655
O15 W3 1.940090 1_555
O15 Tm1 2.199055 1_455
