# generated using pymatgen
data_Zr4CN3
_symmetry_space_group_name_H-M   'P 1'
_cell_length_a   10.84250458
_cell_length_b   10.84250458
_cell_length_c   10.84250422
_cell_angle_alpha   17.32898350
_cell_angle_beta   17.32898350
_cell_angle_gamma   17.32898330
_symmetry_Int_Tables_number   1
_chemical_formula_structural   Zr4CN3
_chemical_formula_sum   'Zr4 C1 N3'
_cell_volume   98.68132095
_cell_formula_units_Z   1
loop_
 _symmetry_equiv_pos_site_id
 _symmetry_equiv_pos_as_xyz
  1  'x, y, z'
loop_
 _atom_site_type_symbol
 _atom_site_label
 _atom_site_symmetry_multiplicity
 _atom_site_fract_x
 _atom_site_fract_y
 _atom_site_fract_z
 _atom_site_occupancy
  Zr  Zr0  1  0.87424301  0.87424301  0.87424301  1
  Zr  Zr1  1  0.12575699  0.12575699  0.12575699  1
  Zr  Zr2  1  0.37460479  0.37460479  0.37460479  1
  Zr  Zr3  1  0.62539521  0.62539521  0.62539521  1
  C  C0  1  -0.00000000  -0.00000000  0.00000000  1
  N  N0  1  0.24850572  0.24850572  0.24850572  1
  N  N1  1  0.50000000  0.50000000  0.50000000  1
  N  N2  1  0.75149428  0.75149428  0.75149428  1
loop_
_geom_bond_atom_site_label_1
_geom_bond_atom_site_label_2
_geom_bond_distance
_geom_bond_site_symmetry_2
C0 Zr3 2.303259 1_454
C0 Zr2 2.303259 1_545
C0 Zr3 2.303259 1_544
C0 Zr2 2.303259 1_455
C0 Zr3 2.303259 1_445
C0 Zr2 2.303259 1_554
N0 Zr0 2.296987 1_454
N0 Zr0 2.296987 1_544
N0 Zr0 2.296988 1_445
N0 Zr3 2.346029 1_545
N0 Zr3 2.346029 1_455
N0 Zr3 2.346029 1_554
N1 Zr1 2.296627 1_565
N1 Zr1 2.296627 1_655
N1 Zr0 2.296627 1_545
N1 Zr0 2.296627 1_455
N1 Zr1 2.296627 1_556
N1 Zr0 2.296627 1_554
N2 Zr1 2.296987 1_656
N2 Zr1 2.296987 1_566
N2 Zr1 2.296988 1_665
N2 Zr2 2.346029 1_565
N2 Zr2 2.346029 1_655
N2 Zr2 2.346029 1_556
