# generated using pymatgen
data_Ba2Ca2Tl2Ni3O10
_symmetry_space_group_name_H-M   'P 1'
_cell_length_a   3.85180000
_cell_length_b   3.90897733
_cell_length_c   18.86846139
_cell_angle_alpha   95.77984540
_cell_angle_beta   95.66330515
_cell_angle_gamma   89.97653336
_symmetry_Int_Tables_number   1
_chemical_formula_structural   Ba2Ca2Tl2Ni3O10
_chemical_formula_sum   'Ba2 Ca2 Tl2 Ni3 O10'
_cell_volume   281.25792088
_cell_formula_units_Z   1
loop_
 _symmetry_equiv_pos_site_id
 _symmetry_equiv_pos_as_xyz
  1  'x, y, z'
loop_
 _atom_site_type_symbol
 _atom_site_label
 _atom_site_symmetry_multiplicity
 _atom_site_fract_x
 _atom_site_fract_y
 _atom_site_fract_z
 _atom_site_occupancy
  Ba  Ba0  1  0.83593800  0.90507100  0.71880200  1
  Ba  Ba1  1  0.16679200  0.20464400  0.28185200  1
  Ca  Ca0  1  0.06312200  0.11981400  0.08779100  1
  Ca  Ca1  1  0.93577400  0.01377200  0.91289100  1
  Tl  Tl0  1  0.27798800  0.35828600  0.56287300  1
  Tl  Tl1  1  0.72828400  0.79987500  0.43780700  1
  Ni  Ni0  1  0.61259400  0.65697300  0.17232700  1
  Ni  Ni1  1  0.38761900  0.46615700  0.82888800  1
  Ni  Ni2  1  0.49104200  0.57556300  0.00185100  1
  O  O0  1  0.11518600  0.65868300  0.17737800  1
  O  O1  1  0.68694500  0.71643300  0.32714400  1
  O  O2  1  0.60945300  0.15503200  0.16869500  1
  O  O3  1  0.23332300  0.18048700  0.45161300  1
  O  O4  1  0.48124800  0.07225900  0.99356800  1
  O  O5  1  0.38349400  0.96328200  0.82240100  1
  O  O6  1  0.31847900  0.37543000  0.67341800  1
  O  O7  1  0.88959200  0.47065100  0.83424700  1
  O  O8  1  0.77280500  0.72574800  0.54889900  1
  O  O9  1  0.99235800  0.58075300  0.00659300  1
loop_
_geom_bond_atom_site_label_1
_geom_bond_atom_site_label_2
_geom_bond_distance
_geom_bond_site_symmetry_2
Ba0 O5 2.723631 1_655
Ba0 O5 2.737217 1_555
Ba0 O6 2.839670 1_565
Ba0 O6 2.863993 1_665
Ba0 O6 2.881274 1_555
Ba0 O7 2.885677 1_555
Ba0 O6 2.903126 1_655
Ba0 O7 2.935463 1_565
Ba0 O8 3.197088 1_555
Ba1 O0 2.748756 1_545
Ba1 O0 2.775330 1_555
Ba1 O1 2.840375 1_555
Ba1 O1 2.848349 1_455
Ba1 O2 2.852761 1_555
Ba1 O2 2.866555 1_455
Ba1 O1 2.893765 1_545
Ba1 O1 2.903717 1_445
Ba1 O3 3.198987 1_555
Ca0 O2 2.426266 1_455
Ca0 O2 2.470117 1_555
Ca0 O9 2.475799 1_445
Ca0 O9 2.478150 1_455
Ca0 O4 2.507472 1_554
Ca0 O0 2.559469 1_555
Ca0 O0 2.587132 1_545
Ca0 O4 2.714018 1_454
Ca1 O4 2.426971 1_555
Ca1 O7 2.429924 1_555
Ca1 O7 2.460609 1_545
Ca1 O4 2.466377 1_655
Ca1 O5 2.537946 1_645
Ca1 O9 2.562201 1_546
Ca1 O5 2.587489 1_545
Ca1 O9 2.687106 1_556
Ni0 O0 1.927631 1_555
Ni0 O0 1.928793 1_655
Ni0 O2 1.954983 1_565
Ni0 O2 1.956364 1_555
Ni1 O7 1.926146 1_555
Ni1 O7 1.930882 1_455
Ni1 O5 1.957166 1_545
Ni1 O5 1.959325 1_555
Ni2 O9 1.924221 1_555
Ni2 O9 1.931717 1_455
Ni2 O4 1.957931 1_554
Ni2 O4 1.963530 1_564
O1 Tl1 2.070967 1_555
O3 Tl0 2.134167 1_555
O3 Tl1 2.426920 1_445
O3 Tl1 2.435931 1_545
O6 Tl0 2.070528 1_555
O8 Tl1 2.135064 1_555
O8 Tl0 2.427321 1_655
O8 Tl0 2.437841 1_555
