# generated using pymatgen
data_NaCuN
_symmetry_space_group_name_H-M   'P 1'
_cell_length_a   8.76991000
_cell_length_b   3.55194900
_cell_length_c   5.87457100
_cell_angle_alpha   90.00000000
_cell_angle_beta   90.00000000
_cell_angle_gamma   90.00000000
_symmetry_Int_Tables_number   1
_chemical_formula_structural   NaCuN
_chemical_formula_sum   'Na4 Cu4 N4'
_cell_volume   182.99449073
_cell_formula_units_Z   4
loop_
 _symmetry_equiv_pos_site_id
 _symmetry_equiv_pos_as_xyz
  1  'x, y, z'
loop_
 _atom_site_type_symbol
 _atom_site_label
 _atom_site_symmetry_multiplicity
 _atom_site_fract_x
 _atom_site_fract_y
 _atom_site_fract_z
 _atom_site_occupancy
  Na  Na0  1  0.66244800  0.25000000  0.06703400  1
  Na  Na1  1  0.16244800  0.25000000  0.43296600  1
  Na  Na2  1  0.33755200  0.75000000  0.93296600  1
  Na  Na3  1  0.83755200  0.75000000  0.56703400  1
  Cu  Cu0  1  0.54771700  0.25000000  0.61669900  1
  Cu  Cu1  1  0.04771700  0.25000000  0.88330100  1
  Cu  Cu2  1  0.45228300  0.75000000  0.38330100  1
  Cu  Cu3  1  0.95228300  0.75000000  0.11669900  1
  N  N0  1  0.92810700  0.25000000  0.19935400  1
  N  N1  1  0.42810700  0.25000000  0.30064600  1
  N  N2  1  0.07189300  0.75000000  0.80064600  1
  N  N3  1  0.57189300  0.75000000  0.69935400  1
loop_
_geom_bond_atom_site_label_1
_geom_bond_atom_site_label_2
_geom_bond_distance
_geom_bond_site_symmetry_2
Cu0 N3 1.853324 1_555
Cu0 N3 1.853324 1_545
Cu0 N1 2.132506 1_555
Cu1 N2 1.853324 1_545
Cu1 N2 1.853324 1_555
Cu1 N0 2.132506 1_456
Cu2 N1 1.853324 1_565
Cu2 N1 1.853324 1_555
Cu2 N3 2.132506 1_555
Cu3 N0 1.853324 1_565
Cu3 N0 1.853324 1_555
Cu3 N2 2.132506 1_654
N0 Na0 2.456059 1_555
N0 Na1 2.471243 1_655
N0 Na3 2.906925 1_555
N0 Na3 2.906925 1_545
N1 Na1 2.456059 1_555
N1 Na0 2.471243 1_555
N1 Na2 2.906925 1_554
N1 Na2 2.906925 1_544
N2 Na2 2.456059 1_555
N2 Na3 2.471243 1_455
N2 Na1 2.906925 1_565
N2 Na1 2.906925 1_555
N3 Na3 2.456059 1_555
N3 Na2 2.471243 1_555
N3 Na0 2.906925 1_556
N3 Na0 2.906925 1_566
