# generated using pymatgen
data_Lu2ReC2
_symmetry_space_group_name_H-M   'P 1'
_cell_length_a   4.98932800
_cell_length_b   6.48275300
_cell_length_c   9.67706000
_cell_angle_alpha   90.00000000
_cell_angle_beta   90.00000000
_cell_angle_gamma   90.00000000
_symmetry_Int_Tables_number   1
_chemical_formula_structural   Lu2ReC2
_chemical_formula_sum   'Lu8 Re4 C8'
_cell_volume   313.00045159
_cell_formula_units_Z   4
loop_
 _symmetry_equiv_pos_site_id
 _symmetry_equiv_pos_as_xyz
  1  'x, y, z'
loop_
 _atom_site_type_symbol
 _atom_site_label
 _atom_site_symmetry_multiplicity
 _atom_site_fract_x
 _atom_site_fract_y
 _atom_site_fract_z
 _atom_site_occupancy
  Lu  Lu0  1  0.25000000  0.82045600  0.94296100  1
  Lu  Lu1  1  0.25000000  0.32045600  0.55703900  1
  Lu  Lu2  1  0.75000000  0.17954400  0.05703900  1
  Lu  Lu3  1  0.75000000  0.67954400  0.44296100  1
  Lu  Lu4  1  0.25000000  0.46720200  0.21872900  1
  Lu  Lu5  1  0.25000000  0.96720200  0.28127100  1
  Lu  Lu6  1  0.75000000  0.53279800  0.78127100  1
  Lu  Lu7  1  0.75000000  0.03279800  0.71872900  1
  Re  Re0  1  0.25000000  0.27978500  0.86944200  1
  Re  Re1  1  0.25000000  0.77978500  0.63055800  1
  Re  Re2  1  0.75000000  0.72021500  0.13055800  1
  Re  Re3  1  0.75000000  0.22021500  0.36944200  1
  C  C0  1  0.25000000  0.04654900  0.74052500  1
  C  C1  1  0.25000000  0.54654900  0.75947500  1
  C  C2  1  0.75000000  0.95345100  0.25947500  1
  C  C3  1  0.75000000  0.45345100  0.24052500  1
  C  C4  1  0.25000000  0.67248500  0.44367700  1
  C  C5  1  0.25000000  0.17248500  0.05632300  1
  C  C6  1  0.75000000  0.32751500  0.55632300  1
  C  C7  1  0.75000000  0.82751500  0.94367700  1
loop_
_geom_bond_atom_site_label_1
_geom_bond_atom_site_label_2
_geom_bond_distance
_geom_bond_site_symmetry_2
C0 Re0 1.960237 1_555
C0 Re1 2.030550 1_545
C0 Lu0 2.446613 1_545
C0 Lu7 2.505151 1_455
C0 Lu7 2.505151 1_555
C0 Lu1 2.511132 1_555
C1 Re1 1.960237 1_555
C1 Re0 2.030550 1_555
C1 Lu1 2.446613 1_555
C1 Lu6 2.505151 1_455
C1 Lu6 2.505151 1_555
C1 Lu0 2.511132 1_555
C2 Re2 1.960237 1_555
C2 Re3 2.030550 1_565
C2 Lu2 2.446613 1_565
C2 Lu5 2.505151 1_555
C2 Lu5 2.505151 1_655
C2 Lu3 2.511132 1_555
C3 Re3 1.960237 1_555
C3 Re2 2.030550 1_555
C3 Lu3 2.446613 1_555
C3 Lu4 2.505151 1_655
C3 Lu4 2.505151 1_555
C3 Lu2 2.511132 1_555
C4 Re1 1.937623 1_555
C4 Lu5 2.473918 1_555
C4 Lu3 2.495093 1_555
C4 Lu3 2.495093 1_455
C4 Lu1 2.532092 1_555
C4 Lu4 2.551399 1_555
C5 Re0 1.937623 1_554
C5 Lu4 2.473918 1_555
C5 Lu2 2.495093 1_455
C5 Lu2 2.495093 1_555
C5 Lu0 2.532092 1_544
C5 Lu5 2.551399 1_545
C6 Re3 1.937623 1_555
C6 Lu7 2.473918 1_555
C6 Lu1 2.495093 1_655
C6 Lu1 2.495093 1_555
C6 Lu3 2.532092 1_555
C6 Lu6 2.551399 1_555
C7 Re2 1.937623 1_556
C7 Lu6 2.473918 1_555
C7 Lu0 2.495093 1_655
C7 Lu0 2.495093 1_555
C7 Lu2 2.532092 1_566
C7 Lu7 2.551399 1_565
