# generated using pymatgen
data_Sr2Pr2MgFe2(RuO6)2
_symmetry_space_group_name_H-M   'P 1'
_cell_length_a   5.68190995
_cell_length_b   5.47134060
_cell_length_c   9.19917724
_cell_angle_alpha   93.13846225
_cell_angle_beta   92.33070005
_cell_angle_gamma   89.93270611
_symmetry_Int_Tables_number   1
_chemical_formula_structural   Sr2Pr2MgFe2(RuO6)2
_chemical_formula_sum   'Sr2 Pr2 Mg1 Fe2 Ru2 O12'
_cell_volume   285.31562417
_cell_formula_units_Z   1
loop_
 _symmetry_equiv_pos_site_id
 _symmetry_equiv_pos_as_xyz
  1  'x, y, z'
loop_
 _atom_site_type_symbol
 _atom_site_label
 _atom_site_symmetry_multiplicity
 _atom_site_fract_x
 _atom_site_fract_y
 _atom_site_fract_z
 _atom_site_occupancy
  Sr  Sr0  1  0.53331100  0.51162200  0.71372000  1
  Sr  Sr1  1  0.95137400  0.04638500  0.24610500  1
  Pr  Pr0  1  0.03108400  0.95356200  0.74518300  1
  Pr  Pr1  1  0.42093700  0.53427700  0.33633200  1
  Mg  Mg0  1  0.55305100  0.54923000  0.03102300  1
  Fe  Fe0  1  0.04284000  0.46955200  0.96090500  1
  Fe  Fe1  1  0.49149800  0.02055500  0.52504800  1
  Ru  Ru0  1  0.97962800  0.49404200  0.50834300  1
  Ru  Ru1  1  0.51662600  0.01528500  0.98124400  1
  O  O0  1  0.97704500  0.38474800  0.71785700  1
  O  O1  1  0.45118900  0.09931900  0.78028700  1
  O  O2  1  0.99825100  0.58859900  0.30759700  1
  O  O3  1  0.53965800  0.84539500  0.17423100  1
  O  O4  1  0.21448300  0.21660600  0.45760200  1
  O  O5  1  0.77645800  0.26802400  0.02836000  1
  O  O6  1  0.76422100  0.75809600  0.91186600  1
  O  O7  1  0.25951400  0.72880300  0.55975700  1
  O  O8  1  0.75538900  0.78111400  0.55677100  1
  O  O9  1  0.28377000  0.72022000  0.91501500  1
  O  O10  1  0.31036500  0.29865000  0.08839700  1
  O  O11  1  0.69692700  0.27544000  0.44602900  1
loop_
_geom_bond_atom_site_label_1
_geom_bond_atom_site_label_2
_geom_bond_distance
_geom_bond_site_symmetry_2
Mg0 O5 1.993225 1_555
Mg0 O3 2.034993 1_555
Mg0 O6 2.048040 1_554
Mg0 O10 2.050005 1_555
Mg0 O9 2.080447 1_554
Fe0 O5 2.011700 1_456
Fe0 O9 2.011967 1_555
Fe0 O10 2.128887 1_556
Fe0 O0 2.274393 1_455
Fe0 O6 2.283871 1_455
Fe1 O4 2.000608 1_555
Fe1 O11 2.004859 1_555
Fe1 O8 2.012785 1_545
Fe1 O7 2.117178 1_545
Fe1 O1 2.384100 1_555
O0 Ru0 2.049640 1_555
O0 Pr0 2.404181 1_645
O0 Sr0 2.613625 1_555
O1 Ru1 1.950351 1_555
O1 Sr0 2.420443 1_555
O1 Pr0 2.520240 1_545
O2 Ru0 1.951866 1_555
O2 Pr1 2.425178 1_655
O2 Sr1 2.608791 1_565
O2 Sr1 2.999619 1_555
O3 Ru1 2.048029 1_564
O3 Pr1 2.436956 1_555
O3 Sr1 2.630508 1_565
O4 Ru0 2.066652 1_455
O4 Pr1 2.442349 1_555
O4 Sr1 2.540855 1_455
O5 Ru1 2.041265 1_554
O5 Sr1 2.563560 1_555
O6 Ru1 2.082452 1_565
O6 Pr0 2.483246 1_655
O6 Sr0 2.530406 1_555
O7 Ru0 2.068730 1_455
O7 Sr0 2.416380 1_555
O7 Pr0 2.460307 1_555
O7 Pr1 2.471817 1_555
O8 Ru0 2.062440 1_555
O8 Pr0 2.439622 1_655
O8 Sr0 2.497303 1_555
O9 Ru1 2.135355 1_565
O9 Pr0 2.482696 1_555
O9 Sr0 2.592344 1_555
O10 Ru1 2.161290 1_554
O10 Pr1 2.611927 1_555
O10 Sr1 2.938871 1_455
O11 Ru0 2.047881 1_555
O11 Pr1 2.346394 1_555
O11 Sr1 2.646286 1_555
O11 Sr0 2.903987 1_555
