# generated using pymatgen
data_Mg2CuSi3
_symmetry_space_group_name_H-M   'P 1'
_cell_length_a   4.93971990
_cell_length_b   4.93971990
_cell_length_c   4.93971937
_cell_angle_alpha   65.38280111
_cell_angle_beta   65.38280111
_cell_angle_gamma   65.38280281
_symmetry_Int_Tables_number   1
_chemical_formula_structural   Mg2CuSi3
_chemical_formula_sum   'Mg2 Cu1 Si3'
_cell_volume   95.21421047
_cell_formula_units_Z   1
loop_
 _symmetry_equiv_pos_site_id
 _symmetry_equiv_pos_as_xyz
  1  'x, y, z'
loop_
 _atom_site_type_symbol
 _atom_site_label
 _atom_site_symmetry_multiplicity
 _atom_site_fract_x
 _atom_site_fract_y
 _atom_site_fract_z
 _atom_site_occupancy
  Mg  Mg0  1  0.62728500  0.62728500  0.62728500  1
  Mg  Mg1  1  0.37271500  0.37271500  0.37271500  1
  Cu  Cu0  1  0.00000000  0.00000000  0.00000000  1
  Si  Si0  1  0.00000000  0.50000000  0.00000000  1
  Si  Si1  1  0.50000000  0.00000000  0.00000000  1
  Si  Si2  1  0.00000000  0.00000000  0.50000000  1
loop_
_geom_bond_atom_site_label_1
_geom_bond_atom_site_label_2
_geom_bond_distance
_geom_bond_site_symmetry_2
Mg0 Si0 2.840746 1_656
Mg0 Si1 2.840746 1_566
Mg0 Si2 2.840746 1_665
Mg0 Mg1 2.948928 1_555
Mg0 Si0 3.048332 1_655
Mg0 Si1 3.048332 1_565
Mg0 Si0 3.048333 1_556
Mg0 Si1 3.048333 1_556
Mg0 Si2 3.048333 1_565
Mg0 Si2 3.048333 1_655
Mg0 Mg1 3.213021 1_556
Mg0 Mg1 3.213022 1_655
Mg0 Mg1 3.213022 1_565
Mg1 Si1 2.840746 1_555
Mg1 Si0 2.840746 1_555
Mg1 Si2 2.840746 1_555
Mg1 Si0 3.048332 1_556
Mg1 Si1 3.048332 1_556
Mg1 Si0 3.048333 1_655
Mg1 Si1 3.048333 1_565
Mg1 Si2 3.048333 1_655
Mg1 Si2 3.048333 1_565
Cu0 Si2 2.469860 1_555
Cu0 Si2 2.469860 1_554
Cu0 Si0 2.469860 1_555
Cu0 Si0 2.469860 1_545
Cu0 Si1 2.469860 1_455
Cu0 Si1 2.469860 1_555
Cu0 Mg1 3.114348 1_554
Cu0 Mg0 3.114348 1_445
Cu0 Mg1 3.114348 1_455
Cu0 Mg1 3.114348 1_545
Cu0 Mg0 3.114348 1_454
Cu0 Mg0 3.114348 1_544
Si0 Si2 2.668012 1_555
Si0 Si2 2.668012 1_564
Si0 Si1 2.668012 1_465
Si0 Si1 2.668012 1_555
Si1 Si2 2.668012 1_555
Si1 Si2 2.668012 1_654
