# generated using pymatgen
data_SrCu9Si4
_symmetry_space_group_name_H-M   'P 1'
_cell_length_a   8.18750941
_cell_length_b   8.18750941
_cell_length_c   8.18750941
_cell_angle_alpha   120.26079310
_cell_angle_beta   120.26079310
_cell_angle_gamma   89.54888353
_symmetry_Int_Tables_number   1
_chemical_formula_structural   SrCu9Si4
_chemical_formula_sum   'Sr2 Cu18 Si8'
_cell_volume   386.55431585
_cell_formula_units_Z   2
loop_
 _symmetry_equiv_pos_site_id
 _symmetry_equiv_pos_as_xyz
  1  'x, y, z'
loop_
 _atom_site_type_symbol
 _atom_site_label
 _atom_site_symmetry_multiplicity
 _atom_site_fract_x
 _atom_site_fract_y
 _atom_site_fract_z
 _atom_site_occupancy
  Sr  Sr0  1  0.25000000  0.25000000  0.00000000  1
  Sr  Sr1  1  0.75000000  0.75000000  0.00000000  1
  Cu  Cu0  1  0.93569000  0.20345300  0.13914300  1
  Cu  Cu1  1  0.20345300  0.06431000  0.26776300  1
  Cu  Cu2  1  0.79654700  0.93569000  0.73223700  1
  Cu  Cu3  1  0.43569000  0.29654700  0.73223700  1
  Cu  Cu4  1  0.06431000  0.79654700  0.86085700  1
  Cu  Cu5  1  0.80677800  0.05887100  0.50000000  1
  Cu  Cu6  1  0.55887100  0.30677800  0.50000000  1
  Cu  Cu7  1  0.19322200  0.94112900  0.50000000  1
  Cu  Cu8  1  0.44112900  0.69322200  0.50000000  1
  Cu  Cu9  1  0.94112900  0.44112900  0.74790600  1
  Cu  Cu10  1  0.69322200  0.19322200  0.25209400  1
  Cu  Cu11  1  0.05887100  0.55887100  0.25209400  1
  Cu  Cu12  1  0.70345300  0.43569000  0.13914300  1
  Cu  Cu13  1  0.56431000  0.70345300  0.26776300  1
  Cu  Cu14  1  0.50000000  0.00000000  0.50000000  1
  Cu  Cu15  1  0.00000000  0.50000000  0.50000000  1
  Cu  Cu16  1  0.30677800  0.80677800  0.74790600  1
  Cu  Cu17  1  0.29654700  0.56431000  0.86085700  1
  Si  Si0  1  0.79187800  0.29187800  0.85157100  1
  Si  Si1  1  0.55969300  0.05969300  0.85157100  1
  Si  Si2  1  0.05969300  0.20812200  0.50000000  1
  Si  Si3  1  0.29187800  0.44030700  0.50000000  1
  Si  Si4  1  0.94030700  0.79187800  0.50000000  1
  Si  Si5  1  0.44030700  0.94030700  0.14842900  1
  Si  Si6  1  0.20812200  0.70812200  0.14842900  1
  Si  Si7  1  0.70812200  0.55969300  0.50000000  1
loop_
_geom_bond_atom_site_label_1
_geom_bond_atom_site_label_2
_geom_bond_distance
_geom_bond_site_symmetry_2
Cu0 Cu2 2.460900 1_544
Cu0 Cu1 2.460900 1_655
Cu0 Cu15 2.474619 1_655
Cu0 Si1 2.522831 1_554
Cu0 Si0 2.522831 1_554
Cu0 Si2 2.573896 1_655
Cu0 Si3 2.573896 1_655
Cu0 Cu11 2.595053 1_655
Cu0 Cu10 2.595062 1_555
Cu0 Cu12 2.678439 1_555
Cu0 Sr0 3.387241 1_655
Cu0 Sr1 3.387241 1_545
Cu1 Cu4 2.460900 1_544
Cu1 Cu14 2.474619 1_555
Cu1 Si3 2.522831 1_555
Cu1 Si2 2.522831 1_555
Cu1 Si6 2.573896 1_545
Cu1 Si5 2.573896 1_545
Cu1 Cu6 2.595056 1_555
Cu1 Cu7 2.595056 1_545
Cu1 Cu3 2.678439 1_555
Cu1 Sr1 3.387241 1_445
Cu1 Sr0 3.387241 1_555
Cu2 Cu4 2.460900 1_655
Cu2 Si7 2.522831 1_555
Cu2 Si4 2.522831 1_555
Cu2 Si1 2.573896 1_565
Cu2 Si0 2.573896 1_565
Cu2 Cu5 2.595056 1_565
Cu2 Cu8 2.595056 1_555
Cu2 Sr0 3.387241 1_666
Cu2 Sr1 3.387241 1_556
Cu3 Si3 2.522831 1_555
Cu3 Si2 2.522831 1_555
Cu3 Si1 2.573896 1_555
Cu3 Si0 2.573896 1_555
Cu3 Cu7 2.595056 1_545
Cu3 Cu6 2.595056 1_555
Cu3 Sr0 3.387241 1_556
Cu3 Sr1 3.387241 1_556
Cu4 Si6 2.522831 1_556
Cu4 Si5 2.522831 1_556
Cu4 Si7 2.573896 1_455
Cu4 Si4 2.573896 1_455
Cu4 Cu9 2.595053 1_455
Cu4 Sr1 3.387241 1_456
Cu4 Sr0 3.387241 1_566
Cu5 Si2 2.412695 1_655
Cu5 Si4 2.436439 1_545
Cu5 Cu9 2.554695 1_555
Cu5 Si5 2.599169 1_545
Cu5 Si0 2.599169 1_555
Cu5 Cu6 2.859165 1_555
Cu5 Sr0 3.322124 1_656
Cu5 Sr1 3.322124 1_545
Cu6 Si7 2.412695 1_555
Cu6 Si3 2.436439 1_555
Cu6 Cu9 2.554695 1_555
Cu6 Si0 2.599169 1_555
Cu6 Si5 2.599169 1_545
Cu6 Sr1 3.322124 1_556
Cu6 Sr0 3.322124 1_555
Cu7 Si4 2.412695 1_455
Cu7 Si2 2.436439 1_565
Cu7 Si1 2.599169 1_565
Cu7 Si6 2.599169 1_555
Cu7 Cu8 2.859165 1_555
Cu7 Sr1 3.322124 1_455
Cu7 Sr0 3.322124 1_566
Cu8 Si3 2.412695 1_555
Cu8 Si7 2.436439 1_555
Cu8 Si6 2.599169 1_555
Cu8 Si1 2.599169 1_565
Cu8 Sr1 3.322124 1_556
Cu8 Sr0 3.322124 1_555
Cu9 Si0 2.412702 1_555
Cu9 Si6 2.436443 1_656
Cu9 Si7 2.599164 1_555
Cu9 Si2 2.599164 1_655
Cu9 Sr1 3.322128 1_556
Cu9 Sr0 3.322128 1_656
Cu10 Si5 2.412691 1_545
Cu10 Si1 2.436446 1_554
Cu10 Cu6 2.554688 1_555
Cu10 Cu5 2.554688 1_555
Cu10 Cu15 2.561304 1_655
Cu10 Cu12 2.595062 1_555
Cu10 Si2 2.599168 1_655
Cu10 Si7 2.599168 1_555
Cu10 Cu9 2.859153 1_555
Cu10 Sr1 3.322125 1_545
Cu10 Sr0 3.322125 1_555
Cu11 Si6 2.412702 1_555
Cu11 Si0 2.436443 1_454
Cu11 Cu7 2.554695 1_555
Cu11 Cu8 2.554695 1_555
Cu11 Cu15 2.561295 1_555
Cu11 Cu12 2.595053 1_455
Cu11 Si4 2.599164 1_455
Cu11 Si3 2.599164 1_555
Cu11 Cu16 2.859153 1_555
Cu11 Sr0 3.322128 1_555
Cu11 Sr1 3.322128 1_455
Cu12 Cu3 2.460900 1_554
Cu12 Cu13 2.460900 1_555
Cu12 Cu15 2.474619 1_655
Cu12 Si1 2.522831 1_554
Cu12 Si0 2.522831 1_554
Cu12 Si4 2.573896 1_555
Cu12 Si7 2.573896 1_555
Cu12 Sr0 3.387241 1_555
Cu12 Sr1 3.387241 1_555
Cu13 Cu17 2.460900 1_554
Cu13 Cu14 2.474619 1_565
Cu13 Si7 2.522831 1_555
Cu13 Si4 2.522831 1_555
Cu13 Si5 2.573896 1_555
Cu13 Si6 2.573896 1_555
Cu13 Cu5 2.595056 1_565
Cu13 Cu8 2.595056 1_555
Cu13 Cu2 2.678439 1_555
Cu13 Sr1 3.387241 1_555
Cu13 Sr0 3.387241 1_555
Cu14 Si5 2.435446 1_545
Cu14 Si6 2.435446 1_545
Cu14 Si1 2.435446 1_555
Cu14 Si0 2.435446 1_555
Cu14 Cu2 2.474619 1_545
Cu14 Cu3 2.474619 1_555
Cu14 Cu8 2.561303 1_545
Cu14 Cu7 2.561303 1_545
Cu14 Cu6 2.561303 1_555
Cu14 Cu5 2.561303 1_555
Cu15 Si2 2.435446 1_555
Cu15 Si7 2.435446 1_455
Cu15 Si4 2.435446 1_455
Cu15 Si3 2.435446 1_555
Cu15 Cu17 2.474619 1_555
Cu15 Cu4 2.474619 1_555
Cu15 Cu9 2.561295 1_455
Cu15 Cu16 2.561304 1_555
Cu16 Si1 2.412691 1_565
Cu16 Si5 2.436446 1_556
Cu16 Cu8 2.554688 1_555
Cu16 Cu7 2.554688 1_555
Cu16 Cu4 2.595062 1_555
Cu16 Cu17 2.595062 1_555
Cu16 Si4 2.599168 1_455
Cu16 Si3 2.599168 1_555
Cu16 Sr0 3.322125 1_566
Cu16 Sr1 3.322125 1_556
Cu17 Cu3 2.460900 1_555
Cu17 Si6 2.522831 1_556
Cu17 Si5 2.522831 1_556
Cu17 Si2 2.573896 1_555
Cu17 Si3 2.573896 1_555
Cu17 Cu9 2.595053 1_455
Cu17 Cu4 2.678439 1_555
Cu17 Sr1 3.387241 1_556
Cu17 Sr0 3.387241 1_556
Si0 Si1 2.699007 1_555
Si0 Sr1 3.386597 1_556
Si0 Sr0 3.386597 1_656
Si1 Sr0 3.386597 1_556
Si1 Sr1 3.386597 1_546
Si2 Si3 2.699007 1_555
Si2 Sr0 3.386597 1_556
Si2 Sr1 3.386597 1_445
Si3 Sr1 3.386597 1_556
Si3 Sr0 3.386597 1_555
Si4 Si7 2.699007 1_555
Si4 Sr1 3.386597 1_555
Si4 Sr0 3.386597 1_666
Si5 Si6 2.699007 1_555
Si5 Sr1 3.386597 1_555
Si5 Sr0 3.386597 1_565
Si6 Sr0 3.386597 1_555
Si6 Sr1 3.386597 1_455
Si7 Sr0 3.386597 1_555
Si7 Sr1 3.386597 1_556
