# generated using pymatgen
data_Pr2Ga2Co15
_symmetry_space_group_name_H-M   'P 1'
_cell_length_a   6.38199417
_cell_length_b   6.38199417
_cell_length_c   6.38199427
_cell_angle_alpha   83.02222974
_cell_angle_beta   83.02222974
_cell_angle_gamma   83.02221890
_symmetry_Int_Tables_number   1
_chemical_formula_structural   Pr2Ga2Co15
_chemical_formula_sum   'Pr2 Ga2 Co15'
_cell_volume   254.59438513
_cell_formula_units_Z   1
loop_
 _symmetry_equiv_pos_site_id
 _symmetry_equiv_pos_as_xyz
  1  'x, y, z'
loop_
 _atom_site_type_symbol
 _atom_site_label
 _atom_site_symmetry_multiplicity
 _atom_site_fract_x
 _atom_site_fract_y
 _atom_site_fract_z
 _atom_site_occupancy
  Pr  Pr0  1  0.64872900  0.64872900  0.64872900  1
  Pr  Pr1  1  0.35127100  0.35127100  0.35127100  1
  Ga  Ga0  1  0.89387000  0.89387000  0.89387000  1
  Ga  Ga1  1  0.10613000  0.10613000  0.10613000  1
  Co  Co0  1  0.00000000  0.00000000  0.50000000  1
  Co  Co1  1  0.50000000  0.00000000  0.00000000  1
  Co  Co2  1  0.00000000  0.50000000  0.00000000  1
  Co  Co3  1  0.71415700  0.28584300  0.00000000  1
  Co  Co4  1  0.00000000  0.71415700  0.28584300  1
  Co  Co5  1  0.28584300  0.00000000  0.71415700  1
  Co  Co6  1  0.00000000  0.28584300  0.71415700  1
  Co  Co7  1  0.71415700  0.00000000  0.28584300  1
  Co  Co8  1  0.28584300  0.71415700  0.00000000  1
  Co  Co9  1  0.34788000  0.34788000  0.84932500  1
  Co  Co10  1  0.84932500  0.34788000  0.34788000  1
  Co  Co11  1  0.34788000  0.84932500  0.34788000  1
  Co  Co12  1  0.65212000  0.65212000  0.15067500  1
  Co  Co13  1  0.15067500  0.65212000  0.65212000  1
  Co  Co14  1  0.65212000  0.15067500  0.65212000  1
loop_
_geom_bond_atom_site_label_1
_geom_bond_atom_site_label_2
_geom_bond_distance
_geom_bond_site_symmetry_2
Ga0 Ga1 2.615865 1_666
Ga0 Pr0 3.021086 1_555
Ga1 Pr1 3.021086 1_555
Co0 Co5 2.408667 1_555
Co0 Co6 2.408667 1_555
Co0 Co7 2.408667 1_455
Co0 Co4 2.408667 1_545
Co0 Co10 2.445558 1_455
Co0 Co13 2.445558 1_545
Co0 Co14 2.445558 1_455
Co0 Co11 2.445558 1_545
Co0 Ga0 2.553472 1_445
Co0 Ga1 2.553472 1_555
Co0 Pr1 3.337580 1_555
Co0 Pr0 3.337580 1_445
Co1 Co7 2.408667 1_555
Co1 Co5 2.408667 1_554
Co1 Co3 2.408667 1_555
Co1 Co8 2.408667 1_545
Co1 Co9 2.445558 1_554
Co1 Co12 2.445558 1_545
Co1 Co14 2.445558 1_554
Co1 Co11 2.445558 1_545
Co1 Ga1 2.553472 1_555
Co1 Ga0 2.553472 1_544
Co1 Pr1 3.337580 1_555
Co1 Pr0 3.337580 1_544
Co2 Co4 2.408667 1_555
Co2 Co6 2.408667 1_554
Co2 Co8 2.408667 1_555
Co2 Co3 2.408667 1_455
Co2 Co9 2.445558 1_554
Co2 Ga0 2.553472 1_454
Co2 Ga1 2.553472 1_555
Co2 Pr1 3.337580 1_555
Co2 Pr0 3.337580 1_454
Co3 Co7 2.418097 1_555
Co3 Co6 2.418097 1_654
Co3 Co9 2.602786 1_554
Co3 Ga0 2.749160 1_544
Co3 Ga1 2.749160 1_655
Co3 Pr1 3.048712 1_555
Co3 Pr0 3.048712 1_554
Co4 Co7 2.418097 1_465
Co4 Co8 2.418097 1_555
Co4 Ga0 2.749160 1_454
Co4 Ga1 2.749160 1_565
Co4 Pr1 3.048711 1_555
Co4 Pr0 3.048712 1_455
Co5 Co6 2.418097 1_555
Co5 Co8 2.418097 1_546
Co5 Co9 2.567477 1_555
Co5 Ga1 2.749160 1_556
Co5 Ga0 2.749160 1_445
Co5 Pr0 3.048711 1_545
Co5 Pr1 3.048712 1_555
Co6 Co9 2.567477 1_555
Co6 Ga1 2.749160 1_556
Co6 Ga0 2.749160 1_445
Co6 Pr0 3.048711 1_455
Co6 Pr1 3.048712 1_555
Co7 Ga0 2.749160 1_544
Co7 Ga1 2.749160 1_655
Co7 Pr1 3.048711 1_555
Co7 Pr0 3.048712 1_545
Co8 Co9 2.602786 1_554
Co8 Ga0 2.749160 1_454
Co8 Ga1 2.749160 1_565
Co8 Pr1 3.048712 1_555
Co8 Pr0 3.048712 1_554
Co9 Ga1 2.607000 1_556
Co9 Pr0 2.951797 1_555
Co9 Pr1 3.173481 1_555
Co9 Pr1 3.208834 1_556
Co10 Co2 2.445558 1_655
Co10 Co12 2.476966 1_555
Co10 Co14 2.476966 1_555
Co10 Co3 2.567477 1_555
Co10 Co7 2.567477 1_555
Co10 Co6 2.602786 1_655
Co10 Co4 2.602786 1_655
Co10 Ga1 2.607000 1_655
Co10 Pr0 2.951796 1_555
Co10 Pr1 3.173481 1_555
Co10 Pr1 3.208834 1_655
Co11 Co12 2.476966 1_555
Co11 Co13 2.476966 1_555
Co11 Co8 2.567477 1_555
Co11 Co4 2.567477 1_555
Co11 Co5 2.602786 1_565
Co11 Co7 2.602786 1_565
Co11 Ga1 2.607000 1_565
Co11 Pr0 2.951796 1_555
Co11 Pr1 3.173481 1_555
Co11 Pr1 3.208834 1_565
Co12 Co2 2.445558 1_655
Co12 Co4 2.567477 1_655
Co12 Co7 2.567477 1_565
Co12 Co3 2.602786 1_555
Co12 Co8 2.602786 1_555
Co12 Ga0 2.607000 1_554
Co12 Pr1 2.951797 1_555
Co12 Pr0 3.173481 1_555
Co12 Pr0 3.208834 1_554
Co13 Co2 2.445558 1_556
Co13 Co9 2.476966 1_555
Co13 Co8 2.567477 1_556
Co13 Co5 2.567477 1_565
Co13 Co4 2.602786 1_555
Co13 Co6 2.602786 1_555
Co13 Ga0 2.607000 1_455
Co13 Pr1 2.951796 1_555
Co13 Pr0 3.173481 1_555
Co13 Pr0 3.208834 1_455
Co14 Co9 2.476966 1_555
Co14 Co3 2.567477 1_556
Co14 Co6 2.567477 1_655
Co14 Co7 2.602786 1_555
Co14 Co5 2.602786 1_555
Co14 Ga0 2.607000 1_545
Co14 Pr1 2.951796 1_555
Co14 Pr0 3.173481 1_555
Co14 Pr0 3.208834 1_545
