# generated using pymatgen
data_Zn3Cr12(GaSe12)2
_symmetry_space_group_name_H-M   'P 1'
_cell_length_a   7.49744610
_cell_length_b   16.74927831
_cell_length_c   7.49744610
_cell_angle_alpha   77.06685284
_cell_angle_beta   90.00000000
_cell_angle_gamma   77.06685284
_symmetry_Int_Tables_number   1
_chemical_formula_structural   Zn3Cr12(GaSe12)2
_chemical_formula_sum   'Zn3 Cr12 Ga2 Se24'
_cell_volume   893.09841250
_cell_formula_units_Z   1
loop_
 _symmetry_equiv_pos_site_id
 _symmetry_equiv_pos_as_xyz
  1  'x, y, z'
loop_
 _atom_site_type_symbol
 _atom_site_label
 _atom_site_symmetry_multiplicity
 _atom_site_fract_x
 _atom_site_fract_y
 _atom_site_fract_z
 _atom_site_occupancy
  Zn  Zn0  1  0.95801293  0.58397314  0.20801293  1
  Zn  Zn1  1  0.29198707  0.91602686  0.54198707  1
  Zn  Zn2  1  0.37500000  0.75000000  0.12500000  1
  Cr  Cr0  1  0.16785780  0.16428540  0.15525969  1
  Cr  Cr1  1  0.50131591  0.49736818  0.49696945  1
  Cr  Cr2  1  0.83345396  0.83309108  0.83348262  1
  Cr  Cr3  1  0.16785780  0.16428540  0.68045591  1
  Cr  Cr4  1  0.50131591  0.49736818  0.00566237  1
  Cr  Cr5  1  0.83345396  0.83309108  0.33342530  1
  Cr  Cr6  1  0.49433763  0.00263182  0.99868409  1
  Cr  Cr7  1  0.81954409  0.33571460  0.33214220  1
  Cr  Cr8  1  0.16657470  0.66690892  0.66654604  1
  Cr  Cr9  1  0.00303055  0.00263182  0.99868409  1
  Cr  Cr10  1  0.34474031  0.33571460  0.33214220  1
  Cr  Cr11  1  0.66651738  0.66690892  0.66654604  1
  Ga  Ga0  1  0.04286141  0.41427819  0.79286141  1
  Ga  Ga1  1  0.70713859  0.08572181  0.45713859  1
  Se  Se0  1  0.57981688  0.34036625  0.09856847  1
  Se  Se1  1  0.91316915  0.67366069  0.43394055  1
  Se  Se2  1  0.24692697  0.00614705  0.76741843  1
  Se  Se3  1  0.57981688  0.34036625  0.56106529  1
  Se  Se4  1  0.91316915  0.67366069  0.89239776  1
  Se  Se5  1  0.24692697  0.00614705  0.22643552  1
  Se  Se6  1  0.93893471  0.15963375  0.92018312  1
  Se  Se7  1  0.27356448  0.49385295  0.25307303  1
  Se  Se8  1  0.60760224  0.82633931  0.58683085  1
  Se  Se9  1  0.40143153  0.15963375  0.92018312  1
  Se  Se10  1  0.73258157  0.49385295  0.25307303  1
  Se  Se11  1  0.06605945  0.82633931  0.58683085  1
  Se  Se12  1  0.08698299  0.32603503  0.56595397  1
  Se  Se13  1  0.42030845  0.65938311  0.89883461  1
  Se  Se14  1  0.75310449  0.99379002  0.23240146  1
  Se  Se15  1  0.08698299  0.32603503  0.10801201  1
  Se  Se16  1  0.42030845  0.65938311  0.44178228  1
  Se  Se17  1  0.75310449  0.99379002  0.77380753  1
  Se  Se18  1  0.72619247  0.50620998  0.74689551  1
  Se  Se19  1  0.05821772  0.84061689  0.07969155  1
  Se  Se20  1  0.39198799  0.17396497  0.41301701  1
  Se  Se21  1  0.26759854  0.50620998  0.74689551  1
  Se  Se22  1  0.60116539  0.84061689  0.07969155  1
  Se  Se23  1  0.93404603  0.17396497  0.41301701  1
loop_
_geom_bond_atom_site_label_1
_geom_bond_atom_site_label_2
_geom_bond_distance
_geom_bond_site_symmetry_2
Cr0 Se9 2.485860 1_554
Cr0 Se6 2.485866 1_454
Cr0 Se5 2.513219 1_555
Cr0 Se15 2.582235 1_555
Cr0 Se20 2.616654 1_555
Cr0 Se23 2.616664 1_455
Cr1 Se3 2.496803 1_555
Cr1 Se10 2.521142 1_555
Cr1 Se7 2.521147 1_555
Cr1 Se21 2.571311 1_555
Cr1 Se18 2.571316 1_555
Cr1 Se16 2.581382 1_555
Cr2 Se4 2.537846 1_555
Cr2 Se22 2.542112 1_556
Cr2 Se19 2.542117 1_656
Cr2 Se8 2.545423 1_555
Cr2 Se11 2.545433 1_655
Cr2 Se17 2.557905 1_555
Cr3 Se9 2.485855 1_555
Cr3 Se6 2.485860 1_455
Cr3 Se2 2.513219 1_555
Cr3 Se12 2.582235 1_555
Cr3 Se20 2.616666 1_555
Cr3 Se23 2.616676 1_455
Cr4 Se0 2.496803 1_555
Cr4 Se10 2.521137 1_555
Cr4 Se7 2.521142 1_555
Cr4 Se21 2.571305 1_554
Cr4 Se18 2.571310 1_554
Cr4 Se13 2.581382 1_554
Cr5 Se1 2.537846 1_555
Cr5 Se22 2.542107 1_555
Cr5 Se19 2.542112 1_655
Cr5 Se8 2.545434 1_555
Cr5 Se11 2.545444 1_655
Cr5 Se14 2.557905 1_555
Cr6 Se9 2.496803 1_555
Cr6 Se2 2.521137 1_555
Cr6 Se5 2.521142 1_556
Cr6 Se14 2.571305 1_546
Cr6 Se17 2.571310 1_545
Cr6 Se22 2.581382 1_546
Cr7 Se0 2.485855 1_555
Cr7 Se3 2.485860 1_555
Cr7 Se10 2.513219 1_555
Cr7 Se23 2.582235 1_555
Cr7 Se15 2.616666 1_655
Cr7 Se12 2.616676 1_655
Cr8 Se11 2.537846 1_555
Cr8 Se13 2.542107 1_555
Cr8 Se16 2.542112 1_555
Cr8 Se4 2.545434 1_455
Cr8 Se1 2.545444 1_455
Cr8 Se21 2.557905 1_555
Cr9 Se6 2.496803 1_455
Cr9 Se2 2.521142 1_555
Cr9 Se5 2.521147 1_556
Cr9 Se14 2.571311 1_446
Cr9 Se17 2.571316 1_445
Cr9 Se19 2.581382 1_546
Cr10 Se0 2.485860 1_555
Cr10 Se3 2.485866 1_555
Cr10 Se7 2.513219 1_555
Cr10 Se20 2.582235 1_555
Cr10 Se15 2.616654 1_555
Cr10 Se12 2.616664 1_555
Cr11 Se8 2.537846 1_555
Cr11 Se13 2.542112 1_555
Cr11 Se16 2.542117 1_555
Cr11 Se4 2.545423 1_555
Cr11 Se1 2.545433 1_555
Cr11 Se18 2.557905 1_555
Ga0 Se15 2.468761 1_556
Ga0 Se12 2.468761 1_555
Ga0 Se21 2.500524 1_555
Ga0 Se18 2.500524 1_455
Ga1 Se23 2.468761 1_555
Ga1 Se20 2.468761 1_555
Ga1 Se14 2.500524 1_545
Ga1 Se17 2.500524 1_545
Se1 Zn0 2.480285 1_555
Se2 Zn1 2.482525 1_545
Se4 Zn0 2.480285 1_556
Se5 Zn1 2.482525 1_545
Se7 Zn0 2.482525 1_455
Se8 Zn1 2.480285 1_555
Se10 Zn0 2.482525 1_555
Se11 Zn1 2.480285 1_555
Se13 Zn2 2.493095 1_556
Se16 Zn2 2.493095 1_555
Se19 Zn2 2.493095 1_555
Se22 Zn2 2.493095 1_555
