# generated using pymatgen
data_Li4V2Si(PO6)2
_symmetry_space_group_name_H-M   'P 1'
_cell_length_a   8.91937606
_cell_length_b   8.91887705
_cell_length_c   8.62414162
_cell_angle_alpha   58.05015573
_cell_angle_beta   121.95189612
_cell_angle_gamma   119.33195005
_symmetry_Int_Tables_number   1
_chemical_formula_structural   Li4V2Si(PO6)2
_chemical_formula_sum   'Li8 V4 Si2 P4 O24'
_cell_volume   472.48906373
_cell_formula_units_Z   2
loop_
 _symmetry_equiv_pos_site_id
 _symmetry_equiv_pos_as_xyz
  1  'x, y, z'
loop_
 _atom_site_type_symbol
 _atom_site_label
 _atom_site_symmetry_multiplicity
 _atom_site_fract_x
 _atom_site_fract_y
 _atom_site_fract_z
 _atom_site_occupancy
  Li  Li0  1  0.23198000  0.80938900  0.81001600  1
  Li  Li1  1  0.19071500  0.76804800  0.31015700  1
  Li  Li2  1  0.94294300  0.52698800  0.99457800  1
  Li  Li3  1  0.57857800  0.76551900  0.58552500  1
  Li  Li4  1  0.23495500  0.42193000  0.08549600  1
  Li  Li5  1  0.83945500  0.23092200  0.74313000  1
  Li  Li6  1  0.47302700  0.05717500  0.49438800  1
  Li  Li7  1  0.76892400  0.16052900  0.24313200  1
  V  V0  1  0.63886300  0.85036700  0.92619300  1
  V  V1  1  0.14983900  0.36107100  0.42606400  1
  V  V2  1  0.86703500  0.63005200  0.58556600  1
  V  V3  1  0.36954400  0.13297100  0.08522400  1
  Si  Si0  1  0.26566000  0.54869600  0.74114000  1
  Si  Si1  1  0.45141700  0.73440900  0.24125200  1
  P  P0  1  0.96724700  0.95715100  0.75098100  1
  P  P1  1  0.56655200  0.25144000  0.77698900  1
  P  P2  1  0.04272600  0.03272100  0.25099300  1
  P  P3  1  0.74850300  0.43342000  0.27694700  1
  O  O0  1  0.12888600  0.99550100  0.93207300  1
  O  O1  1  0.00451000  0.87114900  0.43219200  1
  O  O2  1  0.11394600  0.57489500  0.77454400  1
  O  O3  1  0.43572800  0.74530000  0.72082100  1
  O  O4  1  0.31304600  0.36819400  0.93809200  1
  O  O5  1  0.19252200  0.52983800  0.53250200  1
  O  O6  1  0.77796600  0.93479700  0.74096700  1
  O  O7  1  0.42515000  0.88609400  0.27457200  1
  O  O8  1  0.25477800  0.56436000  0.22075700  1
  O  O9  1  0.63190900  0.68689800  0.43813900  1
  O  O10  1  0.47016600  0.80749300  0.03256200  1
  O  O11  1  0.96181800  0.76924500  0.77258200  1
  O  O12  1  0.06542500  0.22226500  0.24082600  1
  O  O13  1  0.55927900  0.17742400  0.98113600  1
  O  O14  1  0.40028600  0.31643000  0.61295800  1
  O  O15  1  0.75897900  0.40374200  0.78825700  1
  O  O16  1  0.57752400  0.10595100  0.73407100  1
  O  O17  1  0.23034800  0.03787600  0.27227600  1
  O  O18  1  0.82237600  0.44043900  0.48126500  1
  O  O19  1  0.68366500  0.59979100  0.11297600  1
  O  O20  1  0.59611300  0.24102800  0.28809100  1
  O  O21  1  0.89401900  0.42226600  0.23417600  1
  O  O22  1  0.98876300  0.11474000  0.55819600  1
  O  O23  1  0.88483600  0.01148300  0.05819000  1
loop_
_geom_bond_atom_site_label_1
_geom_bond_atom_site_label_2
_geom_bond_distance
_geom_bond_site_symmetry_2
Li0 O2 1.937793 1_555
Li0 O10 1.970404 1_556
Li0 O11 2.119585 1_455
Li1 O7 1.937869 1_555
Li1 O5 1.969812 1_555
Li1 O17 2.116578 1_565
Li2 O21 1.960857 1_556
Li2 O11 1.992219 1_555
Li2 O15 2.068683 1_555
Li2 O8 2.385273 1_656
Li3 O3 2.035461 1_555
Li3 O6 2.056056 1_555
Li3 O9 2.060011 1_555
Li3 O7 2.173977 1_555
Li4 O8 2.033634 1_555
Li4 O12 2.057468 1_555
Li4 O4 2.059102 1_554
Li4 O2 2.173656 1_554
Li5 O16 2.013528 1_555
Li5 O18 2.015859 1_555
Li5 O15 2.248776 1_555
Li5 O23 2.315381 1_556
Li5 O6 2.428730 1_545
Li6 O16 1.961125 1_555
Li6 O17 1.994895 1_555
Li6 O20 2.067705 1_555
Li6 O3 2.386086 1_545
Li7 O21 2.012174 1_555
Li7 O13 2.017035 1_554
Li7 O20 2.247888 1_555
Li7 O22 2.316379 1_555
Li7 O12 2.432062 1_655
O0 P0 1.527652 1_455
O0 V3 1.997502 1_566
O1 P2 1.527745 1_565
O1 V2 2.000032 1_455
O2 Si0 1.662034 1_555
O2 V2 2.040162 1_455
O3 Si0 1.660295 1_555
O3 V0 1.998625 1_555
O4 Si0 1.633455 1_555
O4 V3 1.951138 1_556
O5 Si0 1.631520 1_555
O5 V1 1.945306 1_555
O6 P0 1.559355 1_555
O6 V0 2.137152 1_555
O7 Si1 1.661602 1_555
O7 V3 2.041595 1_565
O8 Si1 1.660443 1_555
O8 V1 1.998060 1_555
O9 Si1 1.633414 1_555
O9 V2 1.951682 1_555
O10 Si1 1.631621 1_555
O10 V0 1.943641 1_554
O11 P0 1.563758 1_555
O11 V2 2.122469 1_555
O12 P2 1.559846 1_555
O12 V1 2.135046 1_555
O13 P1 1.545493 1_555
O13 V3 2.097807 1_556
O14 P1 1.513388 1_555
O14 V1 2.031700 1_555
O15 P1 1.574609 1_555
O15 V2 2.049790 1_555
O16 P1 1.581580 1_555
O16 V0 2.122720 1_545
O17 P2 1.563571 1_555
O17 V3 2.122068 1_555
O18 P3 1.546103 1_555
O18 V2 2.097250 1_555
O19 P3 1.513390 1_555
O19 V0 2.032897 1_554
O20 P3 1.574730 1_555
O20 V3 2.051308 1_555
O21 P3 1.581957 1_555
O21 V1 2.123797 1_655
O22 P0 1.541695 1_545
O22 V1 2.044532 1_655
O23 P2 1.541906 1_655
O23 V0 2.042845 1_544
