# generated using pymatgen
data_Sm6Al39V8
_symmetry_space_group_name_H-M   'P 1'
_cell_length_a   11.05386223
_cell_length_b   11.05386223
_cell_length_c   17.62277774
_cell_angle_alpha   90.00000000
_cell_angle_beta   90.00000000
_cell_angle_gamma   119.99999693
_symmetry_Int_Tables_number   1
_chemical_formula_structural   Sm6Al39V8
_chemical_formula_sum   'Sm12 Al78 V16'
_cell_volume   1864.80362037
_cell_formula_units_Z   2
loop_
 _symmetry_equiv_pos_site_id
 _symmetry_equiv_pos_as_xyz
  1  'x, y, z'
loop_
 _atom_site_type_symbol
 _atom_site_label
 _atom_site_symmetry_multiplicity
 _atom_site_fract_x
 _atom_site_fract_y
 _atom_site_fract_z
 _atom_site_occupancy
  Sm  Sm0  1  0.46602893  0.46602893  0.90121246  1
  Sm  Sm1  1  0.53397107  0.53397107  0.09878754  1
  Sm  Sm2  1  1.00000000  0.53397107  0.90121246  1
  Sm  Sm3  1  0.53397107  0.53397107  0.40121246  1
  Sm  Sm4  1  1.00000000  0.53397107  0.59878754  1
  Sm  Sm5  1  0.00000000  0.46602893  0.09878754  1
  Sm  Sm6  1  0.46602893  0.46602893  0.59878754  1
  Sm  Sm7  1  0.00000000  0.46602893  0.40121246  1
  Sm  Sm8  1  0.53397107  1.00000000  0.90121246  1
  Sm  Sm9  1  0.46602893  0.00000000  0.09878754  1
  Sm  Sm10  1  0.46602893  0.00000000  0.40121246  1
  Sm  Sm11  1  0.53397107  1.00000000  0.59878754  1
  Al  Al0  1  0.84523613  0.44924605  0.75000000  1
  Al  Al1  1  0.15476387  0.55075395  0.25000000  1
  Al  Al2  1  0.60400993  0.15476387  0.75000000  1
  Al  Al3  1  0.39599007  0.55075395  0.75000000  1
  Al  Al4  1  0.39599007  0.84523613  0.25000000  1
  Al  Al5  1  0.60400993  0.44924605  0.25000000  1
  Al  Al6  1  0.55075395  0.39599007  0.75000000  1
  Al  Al7  1  0.44924605  0.84523613  0.75000000  1
  Al  Al8  1  0.44924605  0.60400993  0.25000000  1
  Al  Al9  1  0.55075395  0.15476387  0.25000000  1
  Al  Al10  1  0.15476387  0.60400993  0.75000000  1
  Al  Al11  1  0.84523613  0.39599007  0.25000000  1
  Al  Al12  1  0.84641391  0.84641391  0.38309913  1
  Al  Al13  1  0.15358609  0.15358609  0.61690087  1
  Al  Al14  1  0.00000000  0.15358609  0.38309913  1
  Al  Al15  1  0.15358609  0.15358609  0.88309913  1
  Al  Al16  1  0.00000000  0.15358609  0.11690087  1
  Al  Al17  1  1.00000000  0.84641391  0.61690087  1
  Al  Al18  1  0.84641391  0.84641391  0.11690087  1
  Al  Al19  1  1.00000000  0.84641391  0.88309913  1
  Al  Al20  1  0.15358609  0.00000000  0.38309913  1
  Al  Al21  1  0.84641391  1.00000000  0.61690087  1
  Al  Al22  1  0.84641391  1.00000000  0.88309913  1
  Al  Al23  1  0.15358609  0.00000000  0.11690087  1
  Al  Al24  1  0.74973005  0.25026995  0.00000000  1
  Al  Al25  1  0.25026995  0.74973005  0.00000000  1
  Al  Al26  1  0.50053989  0.25026995  0.00000000  1
  Al  Al27  1  0.25026995  0.74973005  0.50000000  1
  Al  Al28  1  0.49946011  0.74973005  0.50000000  1
  Al  Al29  1  0.49946011  0.74973005  0.00000000  1
  Al  Al30  1  0.74973005  0.25026995  0.50000000  1
  Al  Al31  1  0.50053989  0.25026995  0.50000000  1
  Al  Al32  1  0.74973005  0.49946011  0.00000000  1
  Al  Al33  1  0.25026995  0.50053989  0.00000000  1
  Al  Al34  1  0.25026995  0.50053989  0.50000000  1
  Al  Al35  1  0.74973005  0.49946011  0.50000000  1
  Al  Al36  1  0.85011543  0.85011543  0.75000000  1
  Al  Al37  1  0.14988457  0.14988457  0.25000000  1
  Al  Al38  1  1.00000000  0.14988457  0.75000000  1
  Al  Al39  1  0.00000000  0.85011543  0.25000000  1
  Al  Al40  1  0.14988457  1.00000000  0.75000000  1
  Al  Al41  1  0.85011543  0.00000000  0.25000000  1
  Al  Al42  1  0.75040646  0.75040646  0.97075301  1
  Al  Al43  1  0.24959354  0.24959354  0.02924699  1
  Al  Al44  1  0.00000000  0.24959354  0.97075301  1
  Al  Al45  1  0.24959354  0.24959354  0.47075301  1
  Al  Al46  1  0.00000000  0.24959354  0.52924699  1
  Al  Al47  1  1.00000000  0.75040646  0.02924699  1
  Al  Al48  1  0.75040646  0.75040646  0.52924699  1
  Al  Al49  1  1.00000000  0.75040646  0.47075301  1
  Al  Al50  1  0.24959354  0.00000000  0.97075301  1
  Al  Al51  1  0.75040646  1.00000000  0.02924699  1
  Al  Al52  1  0.75040646  1.00000000  0.47075301  1
  Al  Al53  1  0.24959354  0.00000000  0.52924699  1
  Al  Al54  1  0.83730518  0.23293749  0.83661806  1
  Al  Al55  1  0.16269482  0.76706251  0.16338194  1
  Al  Al56  1  0.39563231  0.16269482  0.83661806  1
  Al  Al57  1  0.16269482  0.76706251  0.33661806  1
  Al  Al58  1  0.60436769  0.76706251  0.66338194  1
  Al  Al59  1  0.60436769  0.83730518  0.16338194  1
  Al  Al60  1  0.83730518  0.23293749  0.66338194  1
  Al  Al61  1  0.39563231  0.23293749  0.33661806  1
  Al  Al62  1  0.76706251  0.60436769  0.83661806  1
  Al  Al63  1  0.60436769  0.83730518  0.33661806  1
  Al  Al64  1  0.23293749  0.83730518  0.66338194  1
  Al  Al65  1  0.23293749  0.39563231  0.16338194  1
  Al  Al66  1  0.39563231  0.16269482  0.66338194  1
  Al  Al67  1  0.76706251  0.16269482  0.33661806  1
  Al  Al68  1  0.39563231  0.23293749  0.16338194  1
  Al  Al69  1  0.60436769  0.76706251  0.83661806  1
  Al  Al70  1  0.23293749  0.39563231  0.33661806  1
  Al  Al71  1  0.76706251  0.16269482  0.16338194  1
  Al  Al72  1  0.76706251  0.60436769  0.66338194  1
  Al  Al73  1  0.23293749  0.83730518  0.83661806  1
  Al  Al74  1  0.16269482  0.39563231  0.66338194  1
  Al  Al75  1  0.83730518  0.60436769  0.33661806  1
  Al  Al76  1  0.83730518  0.60436769  0.16338194  1
  Al  Al77  1  0.16269482  0.39563231  0.83661806  1
  V  V0  1  0.66666700  0.33333300  0.86938270  1
  V  V1  1  0.33333300  0.66666700  0.13061730  1
  V  V2  1  0.33333300  0.66666700  0.36938270  1
  V  V3  1  0.33333300  0.66666700  0.63061730  1
  V  V4  1  0.66666700  0.33333300  0.63061730  1
  V  V5  1  0.66666700  0.33333300  0.36938270  1
  V  V6  1  0.66666700  0.33333300  0.13061730  1
  V  V7  1  0.33333300  0.66666700  0.86938270  1
  V  V8  1  0.00000000  -0.00000000  0.00000000  1
  V  V9  1  0.00000000  -0.00000000  0.50000000  1
  V  V10  1  0.26241181  0.26241181  0.75000000  1
  V  V11  1  0.73758819  0.73758819  0.25000000  1
  V  V12  1  1.00000000  0.73758819  0.75000000  1
  V  V13  1  0.00000000  0.26241181  0.25000000  1
  V  V14  1  0.73758819  1.00000000  0.75000000  1
  V  V15  1  0.26241181  0.00000000  0.25000000  1
loop_
_geom_bond_atom_site_label_1
_geom_bond_atom_site_label_2
_geom_bond_distance
_geom_bond_site_symmetry_2
Sm0 V0 3.261597 1_555
Sm0 V7 3.261597 1_555
Sm0 V10 3.488119 1_555
Sm0 Sm1 3.561898 1_556
Sm1 V1 3.261597 1_555
Sm1 V6 3.261597 1_555
Sm1 V11 3.488119 1_555
Sm2 V7 3.261587 1_655
Sm2 V0 3.261588 1_555
Sm2 V12 3.488119 1_555
Sm2 Sm5 3.561898 1_656
Sm3 V2 3.261597 1_555
Sm3 V5 3.261597 1_555
Sm3 V11 3.488119 1_555
Sm3 Sm6 3.561898 1_555
Sm4 V3 3.261587 1_655
Sm4 V4 3.261588 1_555
Sm4 V12 3.488119 1_555
Sm4 Sm7 3.561898 1_655
Sm5 V6 3.261587 1_455
Sm5 V1 3.261588 1_555
Sm5 V13 3.488119 1_555
Sm6 V4 3.261597 1_555
Sm6 V3 3.261597 1_555
Sm6 V10 3.488119 1_555
Sm7 V5 3.261587 1_455
Sm7 V2 3.261588 1_555
Sm7 V13 3.488119 1_555
Sm8 V0 3.261587 1_565
Sm8 V7 3.261588 1_555
Sm8 V14 3.488119 1_555
Sm8 Sm9 3.561898 1_566
Sm9 V1 3.261587 1_545
Sm9 V6 3.261588 1_555
Sm9 V15 3.488119 1_555
Sm10 V2 3.261587 1_545
Sm10 V5 3.261588 1_555
Sm10 V15 3.488119 1_555
Sm10 Sm11 3.561898 1_545
Sm11 V4 3.261587 1_565
Sm11 V3 3.261588 1_555
Sm11 V14 3.488119 1_555
Al0 V4 2.726718 1_555
Al0 V0 2.726718 1_555
Al0 Al72 2.738363 1_555
Al0 Al62 2.738363 1_555
Al0 V12 2.762760 1_555
Al0 Al54 2.800931 1_555
Al0 Al60 2.800931 1_555
Al0 Al10 2.963086 1_655
Al0 Al6 3.004395 1_555
Al0 Al2 3.004395 1_555
Al0 Sm4 3.050021 1_555
Al0 Sm2 3.050021 1_555
Al1 V2 2.726718 1_555
Al1 V1 2.726718 1_555
Al1 Al65 2.738363 1_555
Al1 Al70 2.738363 1_555
Al1 V13 2.762760 1_555
Al1 Al57 2.800931 1_555
Al1 Al55 2.800931 1_555
Al1 Al11 2.963086 1_455
Al1 Al8 3.004395 1_555
Al1 Al4 3.004395 1_555
Al1 Sm5 3.050021 1_555
Al1 Sm7 3.050021 1_555
Al2 V0 2.726717 1_555
Al2 V4 2.726717 1_555
Al2 Al60 2.738363 1_555
Al2 Al54 2.738363 1_555
Al2 V14 2.762760 1_545
Al2 Al66 2.800931 1_555
Al2 Al56 2.800931 1_555
Al2 Al7 2.963086 1_545
Al2 Al6 3.004395 1_555
Al2 Sm8 3.050021 1_545
Al2 Sm11 3.050021 1_545
Al3 V3 2.726724 1_555
Al3 V7 2.726724 1_555
Al3 Al74 2.738363 1_555
Al3 Al77 2.738363 1_555
Al3 V10 2.762760 1_555
Al3 Al58 2.800932 1_555
Al3 Al69 2.800932 1_555
Al3 Al6 2.963086 1_555
Al3 Al7 3.004395 1_555
Al3 Sm6 3.050021 1_555
Al3 Sm0 3.050021 1_555
Al4 V2 2.726717 1_555
Al4 V1 2.726717 1_555
Al4 Al55 2.738363 1_555
Al4 Al57 2.738363 1_555
Al4 V15 2.762760 1_565
Al4 Al59 2.800931 1_555
Al4 Al63 2.800931 1_555
Al4 Al9 2.963086 1_565
Al4 Al8 3.004395 1_555
Al4 Sm9 3.050021 1_565
Al4 Sm10 3.050021 1_565
Al5 V6 2.726724 1_555
Al5 V5 2.726724 1_555
Al5 Al76 2.738363 1_555
Al5 Al75 2.738363 1_555
Al5 V11 2.762760 1_555
Al5 Al61 2.800932 1_555
Al5 Al68 2.800932 1_555
Al5 Al8 2.963086 1_555
Al5 Al9 3.004395 1_555
Al5 Sm1 3.050021 1_555
Al5 Sm3 3.050021 1_555
Al6 V0 2.726724 1_555
Al6 V4 2.726724 1_555
Al6 Al66 2.738363 1_555
Al6 V10 2.762760 1_555
Al6 Al62 2.800932 1_555
Al6 Al72 2.800932 1_555
Al6 Sm6 3.050021 1_555
Al6 Sm0 3.050021 1_555
Al7 V3 2.726718 1_555
Al7 V7 2.726718 1_555
Al7 V14 2.762760 1_555
Al7 Al73 2.800931 1_555
Al7 Sm11 3.050021 1_555
Al7 Sm8 3.050021 1_555
Al8 V1 2.726724 1_555
Al8 V2 2.726724 1_555
Al8 V11 2.762760 1_555
Al8 Sm1 3.050021 1_555
Al8 Sm3 3.050021 1_555
Al9 V5 2.726718 1_555
Al9 V6 2.726718 1_555
Al9 V15 2.762760 1_555
Al9 Sm9 3.050021 1_555
Al9 Sm10 3.050021 1_555
Al10 V3 2.726717 1_555
Al10 V7 2.726717 1_555
Al10 Al64 2.738363 1_555
Al10 Al73 2.738363 1_555
Al10 V12 2.762760 1_455
Al10 Al77 2.800931 1_555
Al10 Al74 2.800931 1_555
Al10 Al3 3.004395 1_555
Al10 Al7 3.004395 1_555
Al10 Sm4 3.050021 1_455
Al10 Sm2 3.050021 1_455
Al11 V6 2.726717 1_555
Al11 V5 2.726717 1_555
Al11 Al71 2.738363 1_555
Al11 Al67 2.738363 1_555
Al11 V13 2.762760 1_655
Al11 Al75 2.800931 1_555
Al11 Al76 2.800931 1_555
Al11 Al5 3.004395 1_555
Al11 Al9 3.004395 1_555
Al11 Sm5 3.050021 1_655
Al11 Sm7 3.050021 1_655
Al12 V11 2.636058 1_555
Al12 V9 2.669520 1_665
Al12 Al75 2.751410 1_555
Al12 Al63 2.751410 1_555
Al12 Al48 2.785609 1_555
Al12 Al49 2.862924 1_555
Al12 Al52 2.862924 1_555
Al12 Al41 2.883781 1_565
Al12 Al39 2.883781 1_655
Al12 Al20 2.940536 1_665
Al12 Al14 2.940536 1_665
Al12 Sm3 3.468420 1_555
Al13 V10 2.636058 1_555
Al13 V9 2.669520 1_555
Al13 Al66 2.751410 1_555
Al13 Al74 2.751410 1_555
Al13 Al45 2.785609 1_555
Al13 Al46 2.862924 1_555
Al13 Al53 2.862924 1_555
Al13 Al38 2.883781 1_455
Al13 Al40 2.883781 1_545
Al13 Al17 2.940536 1_445
Al13 Al21 2.940536 1_445
Al13 Sm6 3.468420 1_555
Al14 V13 2.636058 1_555
Al14 V9 2.669520 1_555
Al14 Al67 2.751410 1_455
Al14 Al70 2.751410 1_555
Al14 Al46 2.785609 1_555
Al14 Al45 2.862924 1_555
Al14 Al52 2.862924 1_445
Al14 Al37 2.883781 1_555
Al14 Al41 2.883781 1_455
Al14 Al20 2.940536 1_555
Al14 Sm7 3.468420 1_555
Al15 V10 2.636058 1_555
Al15 V8 2.669520 1_556
Al15 Al56 2.751410 1_555
Al15 Al77 2.751410 1_555
Al15 Al43 2.785609 1_556
Al15 Al44 2.862924 1_555
Al15 Al50 2.862924 1_555
Al15 Al38 2.883781 1_455
Al15 Al40 2.883781 1_545
Al15 Al19 2.940536 1_445
Al15 Al22 2.940536 1_445
Al15 Sm0 3.468420 1_555
Al16 V13 2.636058 1_555
Al16 V8 2.669520 1_555
Al16 Al71 2.751410 1_455
Al16 Al65 2.751410 1_555
Al16 Al44 2.785609 1_554
Al16 Al43 2.862924 1_555
Al16 Al51 2.862924 1_445
Al16 Al37 2.883781 1_555
Al16 Al41 2.883781 1_455
Al16 Al23 2.940536 1_555
Al16 Al18 2.940536 1_445
Al16 Sm5 3.468420 1_555
Al17 V12 2.636058 1_555
Al17 V9 2.669520 1_665
Al17 Al64 2.751410 1_655
Al17 Al72 2.751410 1_555
Al17 Al49 2.785609 1_555
Al17 Al48 2.862924 1_555
Al17 Al53 2.862924 1_665
Al17 Al36 2.883781 1_555
Al17 Al40 2.883781 1_655
Al17 Al21 2.940536 1_555
Al17 Sm4 3.468420 1_555
Al18 V11 2.636058 1_555
Al18 V8 2.669520 1_665
Al18 Al76 2.751410 1_555
Al18 Al59 2.751410 1_555
Al18 Al42 2.785609 1_554
Al18 Al51 2.862924 1_555
Al18 Al47 2.862924 1_555
Al18 Al41 2.883781 1_565
Al18 Al39 2.883781 1_655
Al18 Al23 2.940536 1_665
Al18 Sm1 3.468420 1_555
Al19 V12 2.636058 1_555
Al19 V8 2.669520 1_666
Al19 Al73 2.751410 1_655
Al19 Al62 2.751410 1_555
Al19 Al47 2.785609 1_556
Al19 Al42 2.862924 1_555
Al19 Al50 2.862924 1_665
Al19 Al36 2.883781 1_555
Al19 Al40 2.883781 1_655
Al19 Al22 2.940536 1_555
Al19 Sm2 3.468420 1_555
Al20 V15 2.636058 1_555
Al20 V9 2.669520 1_555
Al20 Al57 2.751410 1_545
Al20 Al61 2.751410 1_555
Al20 Al53 2.785609 1_555
Al20 Al45 2.862924 1_555
Al20 Al49 2.862924 1_445
Al20 Al37 2.883781 1_555
Al20 Al39 2.883781 1_545
Al20 Sm10 3.468420 1_555
Al21 V14 2.636058 1_555
Al21 V9 2.669520 1_665
Al21 Al60 2.751410 1_565
Al21 Al58 2.751410 1_555
Al21 Al52 2.785609 1_555
Al21 Al48 2.862924 1_555
Al21 Al46 2.862924 1_665
Al21 Al36 2.883781 1_555
Al21 Al38 2.883781 1_565
Al21 Sm11 3.468420 1_555
Al22 V14 2.636058 1_555
Al22 V8 2.669520 1_666
Al22 Al54 2.751410 1_565
Al22 Al69 2.751410 1_555
Al22 Al51 2.785609 1_556
Al22 Al42 2.862924 1_555
Al22 Al44 2.862924 1_665
Al22 Al36 2.883781 1_555
Al22 Al38 2.883781 1_565
Al22 Sm8 3.468420 1_555
Al23 V15 2.636058 1_555
Al23 V8 2.669520 1_555
Al23 Al55 2.751410 1_545
Al23 Al68 2.751410 1_555
Al23 Al50 2.785609 1_554
Al23 Al43 2.862924 1_555
Al23 Al47 2.862924 1_445
Al23 Al37 2.883781 1_555
Al23 Al39 2.883781 1_545
Al23 Sm9 3.468420 1_555
Al24 Al32 2.754514 1_555
Al24 Al26 2.754514 1_555
Al24 V6 2.797778 1_555
Al24 V0 2.797778 1_554
Al24 Al44 2.817736 1_654
Al24 Al51 2.817736 1_545
Al24 Al54 3.073976 1_554
Al24 Al71 3.073976 1_555
Al24 Sm5 3.126371 1_655
Al24 Sm8 3.126371 1_544
Al24 Sm9 3.441352 1_555
Al24 Sm2 3.441352 1_554
Al25 Al29 2.754514 1_555
Al25 Al33 2.754514 1_555
Al25 V1 2.797778 1_555
Al25 V7 2.797778 1_554
Al25 Al50 2.817736 1_564
Al25 Al47 2.817736 1_455
Al25 Al73 3.073976 1_554
Al25 Al55 3.073976 1_555
Al25 Sm9 3.126371 1_565
Al25 Sm2 3.126371 1_454
Al25 Sm8 3.441352 1_554
Al25 Sm5 3.441352 1_555
Al26 Al32 2.754514 1_555
Al26 V6 2.797783 1_555
Al26 V0 2.797783 1_554
Al26 Al43 2.817736 1_555
Al26 Al50 2.817736 1_554
Al26 Al68 3.073976 1_555
Al26 Al56 3.073976 1_554
Al26 Sm0 3.126371 1_554
Al26 Sm9 3.126371 1_555
Al26 Sm1 3.441351 1_555
Al26 Sm8 3.441351 1_544
Al27 Al28 2.754514 1_555
Al27 Al34 2.754514 1_555
Al27 V2 2.797778 1_555
Al27 V3 2.797778 1_555
Al27 Al53 2.817736 1_565
Al27 Al49 2.817736 1_455
Al27 Al64 3.073976 1_555
Al27 Al57 3.073976 1_555
Al27 Sm10 3.126371 1_565
Al27 Sm4 3.126371 1_455
Al27 Sm11 3.441352 1_555
Al27 Sm7 3.441352 1_555
Al28 Al34 2.754514 1_555
Al28 V2 2.797783 1_555
Al28 V3 2.797783 1_555
Al28 Al48 2.817736 1_555
Al28 Al52 2.817736 1_555
Al28 Al58 3.073976 1_555
Al28 Al63 3.073976 1_555
Al28 Sm3 3.126371 1_555
Al28 Sm11 3.126371 1_555
Al28 Sm6 3.441351 1_555
Al28 Sm10 3.441351 1_565
Al29 Al33 2.754514 1_555
Al29 V1 2.797783 1_555
Al29 V7 2.797783 1_554
Al29 Al42 2.817736 1_554
Al29 Al51 2.817736 1_555
Al29 Al69 3.073976 1_554
Al29 Al59 3.073976 1_555
Al29 Sm1 3.126371 1_555
Al29 Sm8 3.126371 1_554
Al29 Sm0 3.441351 1_554
Al29 Sm9 3.441351 1_565
Al30 Al35 2.754514 1_555
Al30 Al31 2.754514 1_555
Al30 V5 2.797778 1_555
Al30 V4 2.797778 1_555
Al30 Al46 2.817736 1_655
Al30 Al52 2.817736 1_545
Al30 Al60 3.073976 1_555
Al30 Al67 3.073976 1_555
Al30 Sm7 3.126371 1_655
Al30 Sm11 3.126371 1_545
Al30 Sm4 3.441352 1_555
Al30 Sm10 3.441352 1_555
Al31 Al35 2.754514 1_555
Al31 V5 2.797783 1_555
Al31 V4 2.797783 1_555
Al31 Al45 2.817736 1_555
Al31 Al53 2.817736 1_555
Al31 Al61 3.073976 1_555
Al31 Al66 3.073976 1_555
Al31 Sm6 3.126371 1_555
Al31 Sm10 3.126371 1_555
Al31 Sm3 3.441351 1_555
Al31 Sm11 3.441351 1_545
Al32 V6 2.797783 1_555
Al32 V0 2.797783 1_554
Al32 Al42 2.817736 1_554
Al32 Al47 2.817736 1_555
Al32 Al62 3.073976 1_554
Al32 Al76 3.073976 1_555
Al32 Sm1 3.126371 1_555
Al32 Sm2 3.126371 1_554
Al32 Sm0 3.441351 1_554
Al32 Sm5 3.441351 1_655
Al33 V1 2.797783 1_555
Al33 V7 2.797783 1_554
Al33 Al43 2.817736 1_555
Al33 Al44 2.817736 1_554
Al33 Al65 3.073976 1_555
Al33 Al77 3.073976 1_554
Al33 Sm0 3.126371 1_554
Al33 Sm5 3.126371 1_555
Al33 Sm1 3.441351 1_555
Al33 Sm2 3.441351 1_454
Al34 V2 2.797783 1_555
Al34 V3 2.797783 1_555
Al34 Al45 2.817736 1_555
Al34 Al46 2.817736 1_555
Al34 Al70 3.073976 1_555
Al34 Al74 3.073976 1_555
Al34 Sm6 3.126371 1_555
Al34 Sm7 3.126371 1_555
Al34 Sm3 3.441351 1_555
Al34 Sm4 3.441351 1_455
Al35 V5 2.797783 1_555
Al35 V4 2.797783 1_555
Al35 Al48 2.817736 1_555
Al35 Al49 2.817736 1_555
Al35 Al72 3.073976 1_555
Al35 Al75 3.073976 1_555
Al35 Sm3 3.126371 1_555
Al35 Sm4 3.126371 1_555
Al35 Sm6 3.441351 1_555
Al35 Sm7 3.441351 1_655
Al36 V12 2.520520 1_555
Al36 V14 2.520520 1_555
Al36 Al62 2.838693 1_555
Al36 Al58 2.838693 1_555
Al36 Al69 2.838693 1_555
Al36 Al72 2.838693 1_555
Al36 Al40 2.869668 1_655
Al36 Al38 2.869668 1_565
Al37 V15 2.520520 1_555
Al37 V13 2.520520 1_555
Al37 Al70 2.838693 1_555
Al37 Al65 2.838693 1_555
Al37 Al68 2.838693 1_555
Al37 Al61 2.838693 1_555
Al37 Al41 2.869668 1_455
Al37 Al39 2.869668 1_545
Al38 V10 2.520520 1_655
Al38 V14 2.520520 1_545
Al38 Al60 2.838693 1_555
Al38 Al54 2.838693 1_555
Al38 Al74 2.838693 1_655
Al38 Al77 2.838693 1_655
Al38 Al40 2.869668 1_645
Al39 V11 2.520520 1_455
Al39 V15 2.520520 1_565
Al39 Al57 2.838693 1_555
Al39 Al55 2.838693 1_555
Al39 Al76 2.838693 1_455
Al39 Al75 2.838693 1_455
Al39 Al41 2.869668 1_465
Al40 V10 2.520520 1_565
Al40 V12 2.520520 1_455
Al40 Al64 2.838693 1_555
Al40 Al73 2.838693 1_555
Al40 Al56 2.838693 1_565
Al40 Al66 2.838693 1_565
Al41 V11 2.520520 1_545
Al41 V13 2.520520 1_655
Al41 Al71 2.838693 1_555
Al41 Al67 2.838693 1_555
Al41 Al63 2.838693 1_545
Al41 Al59 2.838693 1_545
Al42 V8 2.806703 1_666
Al42 Al62 2.919717 1_555
Al42 Al69 2.919717 1_555
Al42 Al47 2.945256 1_556
Al42 Al51 2.945256 1_556
Al42 Sm1 3.288587 1_556
Al42 Sm0 3.373907 1_555
Al43 V8 2.806703 1_555
Al43 Al68 2.919717 1_555
Al43 Al65 2.919717 1_555
Al43 Al50 2.945256 1_554
Al43 Al44 2.945256 1_554
Al43 Sm0 3.288587 1_554
Al43 Sm1 3.373907 1_555
Al44 V8 2.806703 1_556
Al44 Al54 2.919717 1_455
Al44 Al77 2.919717 1_555
Al44 Al51 2.945256 1_446
Al44 Sm5 3.288586 1_556
Al44 Sm2 3.373907 1_455
Al45 V9 2.806703 1_555
Al45 Al70 2.919717 1_555
Al45 Al61 2.919717 1_555
Al45 Al46 2.945256 1_555
Al45 Al53 2.945256 1_555
Al45 Sm6 3.288587 1_555
Al45 Sm3 3.373907 1_555
Al46 V9 2.806703 1_555
Al46 Al60 2.919717 1_455
Al46 Al74 2.919717 1_555
Al46 Al52 2.945256 1_445
Al46 Sm7 3.288586 1_555
Al46 Sm4 3.373907 1_455
Al47 V8 2.806703 1_665
Al47 Al55 2.919717 1_655
Al47 Al76 2.919717 1_555
Al47 Al50 2.945256 1_664
Al47 Sm2 3.288586 1_554
Al47 Sm5 3.373907 1_655
Al48 V9 2.806703 1_665
Al48 Al58 2.919717 1_555
Al48 Al72 2.919717 1_555
Al48 Al49 2.945256 1_555
Al48 Al52 2.945256 1_555
Al48 Sm3 3.288587 1_555
Al48 Sm6 3.373907 1_555
Al49 V9 2.806703 1_665
Al49 Al57 2.919717 1_655
Al49 Al75 2.919717 1_555
Al49 Al53 2.945256 1_665
Al49 Sm4 3.288586 1_555
Al49 Sm7 3.373907 1_655
Al50 V8 2.806703 1_556
Al50 Al73 2.919717 1_545
Al50 Al56 2.919717 1_555
Al50 Sm9 3.288586 1_556
Al50 Sm8 3.373907 1_545
Al51 V8 2.806703 1_665
Al51 Al71 2.919717 1_565
Al51 Al59 2.919717 1_555
Al51 Sm8 3.288586 1_554
Al51 Sm9 3.373907 1_565
Al52 V9 2.806703 1_665
Al52 Al67 2.919717 1_565
Al52 Al63 2.919717 1_555
Al52 Sm11 3.288586 1_555
Al52 Sm10 3.373907 1_565
Al53 V9 2.806703 1_555
Al53 Al64 2.919717 1_545
Al53 Al66 2.919717 1_555
Al53 Sm10 3.288586 1_555
Al53 Sm11 3.373907 1_545
Al54 V0 2.686259 1_555
Al54 V14 2.708646 1_545
Al54 Al60 3.052902 1_555
Al54 Sm2 3.101376 1_555
Al54 Al77 3.114931 1_655
Al54 Sm8 3.245745 1_545
Al55 V1 2.686259 1_555
Al55 V15 2.708646 1_565
Al55 Al57 3.052902 1_555
Al55 Sm5 3.101376 1_555
Al55 Al76 3.114931 1_455
Al55 Sm9 3.245745 1_565
Al56 V0 2.686268 1_555
Al56 V10 2.708646 1_555
Al56 Al6 2.738363 1_555
Al56 Al66 3.052902 1_555
Al56 Sm8 3.101376 1_545
Al56 Al73 3.114931 1_545
Al56 Sm0 3.245745 1_555
Al57 V2 2.686259 1_555
Al57 V15 2.708646 1_565
Al57 Sm7 3.101376 1_555
Al57 Al75 3.114931 1_455
Al57 Sm10 3.245745 1_565
Al58 V3 2.686269 1_555
Al58 V14 2.708646 1_555
Al58 Al7 2.738363 1_555
Al58 Al69 3.052902 1_555
Al58 Sm6 3.101376 1_555
Al58 Al72 3.114931 1_555
Al58 Sm11 3.245745 1_555
Al59 V1 2.686268 1_555
Al59 V11 2.708646 1_555
Al59 Al8 2.738363 1_555
Al59 Al63 3.052902 1_555
Al59 Sm9 3.101376 1_565
Al59 Al71 3.114931 1_565
Al59 Sm1 3.245745 1_555
Al60 V4 2.686259 1_555
Al60 V14 2.708646 1_545
Al60 Sm4 3.101376 1_555
Al60 Al74 3.114931 1_655
Al60 Sm11 3.245745 1_545
Al61 V5 2.686269 1_555
Al61 V15 2.708646 1_555
Al61 Al9 2.738363 1_555
Al61 Al68 3.052902 1_555
Al61 Sm3 3.101376 1_555
Al61 Al70 3.114931 1_555
Al61 Sm10 3.245745 1_555
Al62 V0 2.686269 1_555
Al62 V12 2.708646 1_555
Al62 Al72 3.052902 1_555
Al62 Sm0 3.101376 1_555
Al62 Al69 3.114931 1_555
Al62 Sm2 3.245745 1_555
Al63 V2 2.686268 1_555
Al63 V11 2.708646 1_555
Al63 Al8 2.738363 1_555
Al63 Sm10 3.101376 1_565
Al63 Al67 3.114931 1_565
Al63 Sm3 3.245745 1_555
Al64 V3 2.686259 1_555
Al64 V12 2.708646 1_455
Al64 Al7 2.800931 1_555
Al64 Al73 3.052902 1_555
Al64 Sm11 3.101376 1_555
Al64 Al66 3.114931 1_565
Al64 Sm4 3.245745 1_455
Al65 V1 2.686269 1_555
Al65 V13 2.708646 1_555
Al65 Al8 2.800932 1_555
Al65 Al70 3.052902 1_555
Al65 Sm1 3.101376 1_555
Al65 Al68 3.114931 1_555
Al65 Sm5 3.245745 1_555
Al66 V4 2.686268 1_555
Al66 V10 2.708646 1_555
Al66 Sm11 3.101376 1_545
Al66 Sm6 3.245745 1_555
Al67 V5 2.686259 1_555
Al67 V13 2.708646 1_655
Al67 Al9 2.800931 1_555
Al67 Al71 3.052902 1_555
Al67 Sm10 3.101376 1_555
Al67 Sm7 3.245745 1_655
Al68 V6 2.686269 1_555
Al68 V15 2.708646 1_555
Al68 Al9 2.738363 1_555
Al68 Sm1 3.101376 1_555
Al68 Sm9 3.245745 1_555
Al69 V7 2.686269 1_555
Al69 V14 2.708646 1_555
Al69 Al7 2.738363 1_555
Al69 Sm0 3.101376 1_555
Al69 Sm8 3.245745 1_555
Al70 V2 2.686269 1_555
Al70 V13 2.708646 1_555
Al70 Al8 2.800932 1_555
Al70 Sm3 3.101376 1_555
Al70 Sm7 3.245745 1_555
Al71 V6 2.686259 1_555
Al71 V13 2.708646 1_655
Al71 Al9 2.800931 1_555
Al71 Sm9 3.101376 1_555
Al71 Sm5 3.245745 1_655
Al72 V4 2.686269 1_555
Al72 V12 2.708646 1_555
Al72 Sm6 3.101376 1_555
Al72 Sm4 3.245745 1_555
Al73 V7 2.686259 1_555
Al73 V12 2.708646 1_455
Al73 Sm8 3.101376 1_555
Al73 Sm2 3.245745 1_455
Al74 V3 2.686268 1_555
Al74 V10 2.708646 1_555
Al74 Al77 3.052902 1_555
Al74 Sm4 3.101376 1_455
Al74 Sm6 3.245745 1_555
Al75 V5 2.686268 1_555
Al75 V11 2.708646 1_555
Al75 Al76 3.052902 1_555
Al75 Sm7 3.101376 1_655
Al75 Sm3 3.245745 1_555
Al76 V6 2.686268 1_555
Al76 V11 2.708646 1_555
Al76 Sm5 3.101376 1_655
Al76 Sm1 3.245745 1_555
Al77 V7 2.686268 1_555
Al77 V10 2.708646 1_555
Al77 Sm2 3.101376 1_455
Al77 Sm0 3.245745 1_555
