# generated using pymatgen
data_Ba10PrY4(CuO2)20
_symmetry_space_group_name_H-M   'P 1'
_cell_length_a   3.90250000
_cell_length_b   3.90103300
_cell_length_c   68.38608608
_cell_angle_alpha   88.36558138
_cell_angle_beta   90.00000000
_cell_angle_gamma   90.00000000
_symmetry_Int_Tables_number   1
_chemical_formula_structural   Ba10PrY4(CuO2)20
_chemical_formula_sum   'Ba10 Pr1 Y4 Cu20 O40'
_cell_volume   1040.67125999
_cell_formula_units_Z   1
loop_
 _symmetry_equiv_pos_site_id
 _symmetry_equiv_pos_as_xyz
  1  'x, y, z'
loop_
 _atom_site_type_symbol
 _atom_site_label
 _atom_site_symmetry_multiplicity
 _atom_site_fract_x
 _atom_site_fract_y
 _atom_site_fract_z
 _atom_site_occupancy
  Ba  Ba0  1  0.50000000  0.92713200  0.14573600  1
  Ba  Ba1  1  0.50000000  0.32715000  0.34570000  1
  Ba  Ba2  1  0.50000000  0.72715700  0.54568600  1
  Ba  Ba3  1  0.50000000  0.12713000  0.74574000  1
  Ba  Ba4  1  0.50000000  0.52730300  0.94539300  1
  Ba  Ba5  1  0.50000000  0.47269700  0.05460700  1
  Ba  Ba6  1  0.50000000  0.87287000  0.25426000  1
  Ba  Ba7  1  0.50000000  0.27284300  0.45431400  1
  Ba  Ba8  1  0.50000000  0.67285000  0.65430000  1
  Ba  Ba9  1  0.50000000  0.07286800  0.85426400  1
  Pr  Pr0  1  0.50000000  0.50000000  0.00000000  1
  Y  Y0  1  0.50000000  0.90000500  0.19999100  1
  Y  Y1  1  0.50000000  0.30000200  0.39999600  1
  Y  Y2  1  0.50000000  0.69999800  0.60000400  1
  Y  Y3  1  0.50000000  0.09999500  0.80000900  1
  Cu  Cu0  1  0.00000000  0.95736900  0.08526100  1
  Cu  Cu1  1  0.00000000  0.35740600  0.28518900  1
  Cu  Cu2  1  0.00000000  0.75740500  0.48519000  1
  Cu  Cu3  1  0.00000000  0.15740800  0.68518400  1
  Cu  Cu4  1  0.00000000  0.55740400  0.88519200  1
  Cu  Cu5  1  0.00000000  0.44259600  0.11480800  1
  Cu  Cu6  1  0.00000000  0.84259200  0.31481600  1
  Cu  Cu7  1  0.00000000  0.24259500  0.51481000  1
  Cu  Cu8  1  0.00000000  0.64259400  0.71481100  1
  Cu  Cu9  1  0.00000000  0.04263100  0.91473900  1
  Cu  Cu10  1  0.00000000  0.98734200  0.02531600  1
  Cu  Cu11  1  0.00000000  0.38777700  0.22444600  1
  Cu  Cu12  1  0.00000000  0.78778100  0.42443800  1
  Cu  Cu13  1  0.00000000  0.18778200  0.62443600  1
  Cu  Cu14  1  0.00000000  0.58776800  0.82446400  1
  Cu  Cu15  1  0.00000000  0.41223200  0.17553600  1
  Cu  Cu16  1  0.00000000  0.81221800  0.37556400  1
  Cu  Cu17  1  0.00000000  0.21221900  0.57556200  1
  Cu  Cu18  1  0.00000000  0.61222300  0.77555400  1
  Cu  Cu19  1  0.00000000  0.01265800  0.97468400  1
  O  O0  1  0.00000000  0.91049100  0.17901800  1
  O  O1  1  0.00000000  0.31049400  0.37901100  1
  O  O2  1  0.00000000  0.71049700  0.57900500  1
  O  O3  1  0.00000000  0.11049100  0.77901800  1
  O  O4  1  0.00000000  0.51123700  0.97752600  1
  O  O5  1  0.00000000  0.48876300  0.02247400  1
  O  O6  1  0.00000000  0.88950900  0.22098200  1
  O  O7  1  0.00000000  0.28950300  0.42099500  1
  O  O8  1  0.00000000  0.68950600  0.62098900  1
  O  O9  1  0.00000000  0.08950900  0.82098200  1
  O  O10  1  0.00000000  0.94359200  0.11281500  1
  O  O11  1  0.00000000  0.34360100  0.31279800  1
  O  O12  1  0.00000000  0.74359200  0.51281700  1
  O  O13  1  0.00000000  0.14360100  0.71279800  1
  O  O14  1  0.00000000  0.54363000  0.91274000  1
  O  O15  1  0.00000000  0.45637000  0.08726000  1
  O  O16  1  0.00000000  0.85639900  0.28720200  1
  O  O17  1  0.00000000  0.25640800  0.48718300  1
  O  O18  1  0.00000000  0.65639900  0.68720200  1
  O  O19  1  0.00000000  0.05640800  0.88718500  1
  O  O20  1  0.50000000  0.98871200  0.02257500  1
  O  O21  1  0.50000000  0.38944700  0.22110600  1
  O  O22  1  0.50000000  0.78944100  0.42111800  1
  O  O23  1  0.50000000  0.18944000  0.62112000  1
  O  O24  1  0.50000000  0.58944600  0.82110800  1
  O  O25  1  0.50000000  0.41055400  0.17889200  1
  O  O26  1  0.50000000  0.81056000  0.37888000  1
  O  O27  1  0.50000000  0.21055900  0.57888200  1
  O  O28  1  0.50000000  0.61055300  0.77889400  1
  O  O29  1  0.50000000  0.01128800  0.97742500  1
  O  O30  1  0.00000000  0.97085500  0.05829100  1
  O  O31  1  0.00000000  0.37096700  0.25806600  1
  O  O32  1  0.00000000  0.77097100  0.45805800  1
  O  O33  1  0.00000000  0.17096300  0.65807500  1
  O  O34  1  0.00000000  0.57097000  0.85806000  1
  O  O35  1  0.00000000  0.42903000  0.14194000  1
  O  O36  1  0.00000000  0.82903700  0.34192500  1
  O  O37  1  0.00000000  0.22902900  0.54194200  1
  O  O38  1  0.00000000  0.62903300  0.74193400  1
  O  O39  1  0.00000000  0.02914500  0.94170900  1
loop_
_geom_bond_atom_site_label_1
_geom_bond_atom_site_label_2
_geom_bond_distance
_geom_bond_site_symmetry_2
Ba0 O35 2.771141 1_555
Ba0 O35 2.771141 1_655
Ba0 O35 2.771141 1_565
Ba0 O35 2.771141 1_665
Ba0 O10 2.978553 1_555
Ba0 O10 2.978553 1_655
Ba0 O25 2.990230 1_565
Ba0 O25 2.990230 1_555
Ba0 O0 2.997241 1_655
Ba0 O0 2.997241 1_555
Ba1 O36 2.771006 1_555
Ba1 O36 2.771006 1_655
Ba1 O36 2.771009 1_545
Ba1 O36 2.771009 1_645
Ba1 O11 2.977572 1_555
Ba1 O11 2.977572 1_655
Ba1 O26 2.991474 1_555
Ba1 O26 2.991474 1_545
Ba1 O1 2.998746 1_655
Ba1 O1 2.998746 1_555
Ba2 O37 2.770811 1_655
Ba2 O37 2.770811 1_555
Ba2 O37 2.770811 1_565
Ba2 O37 2.770811 1_665
Ba2 O12 2.975868 1_555
Ba2 O12 2.975868 1_655
Ba2 O27 2.992303 1_565
Ba2 O27 2.992303 1_555
Ba2 O2 2.999162 1_555
Ba2 O2 2.999162 1_655
Ba3 O38 2.771206 1_545
Ba3 O38 2.771206 1_645
Ba3 O38 2.771206 1_655
Ba3 O38 2.771206 1_555
Ba3 O13 2.979638 1_655
Ba3 O13 2.979638 1_555
Ba3 O28 2.990126 1_555
Ba3 O28 2.990126 1_545
Ba3 O3 2.997034 1_555
Ba3 O3 2.997034 1_655
Ba4 O39 2.770435 1_655
Ba4 O39 2.770435 1_555
Ba4 O39 2.770435 1_565
Ba4 O39 2.770435 1_665
Ba4 O29 2.932418 1_555
Ba4 O29 2.932423 1_565
Ba4 O4 2.938067 1_555
Ba4 O4 2.938067 1_655
Ba4 O14 2.964736 1_655
Ba4 O14 2.964736 1_555
Ba5 O30 2.770435 1_655
Ba5 O30 2.770435 1_555
Ba5 O30 2.770435 1_645
Ba5 O30 2.770435 1_545
Ba5 O20 2.932418 1_555
Ba5 O20 2.932423 1_545
Ba5 O5 2.938067 1_555
Ba5 O5 2.938067 1_655
Ba5 O15 2.964736 1_555
Ba5 O15 2.964736 1_655
Ba6 O31 2.771206 1_565
Ba6 O31 2.771206 1_665
Ba6 O31 2.771206 1_655
Ba6 O31 2.771206 1_555
Ba6 O16 2.979638 1_555
Ba6 O16 2.979638 1_655
Ba6 O21 2.990126 1_555
Ba6 O21 2.990126 1_565
Ba6 O6 2.997034 1_555
Ba6 O6 2.997034 1_655
Ba7 O32 2.770811 1_655
Ba7 O32 2.770811 1_555
Ba7 O32 2.770811 1_545
Ba7 O32 2.770811 1_645
Ba7 O17 2.975868 1_555
Ba7 O17 2.975868 1_655
Ba7 O22 2.992303 1_545
Ba7 O22 2.992303 1_555
Ba7 O7 2.999162 1_655
Ba7 O7 2.999162 1_555
Ba8 O33 2.771006 1_555
Ba8 O33 2.771006 1_655
Ba8 O33 2.771009 1_665
Ba8 O33 2.771009 1_565
Ba8 O18 2.977572 1_655
Ba8 O18 2.977572 1_555
Ba8 O23 2.991474 1_555
Ba8 O23 2.991474 1_565
Ba8 O8 2.998746 1_555
Ba8 O8 2.998746 1_655
Ba9 O34 2.771141 1_655
Ba9 O34 2.771141 1_555
Ba9 O34 2.771141 1_645
Ba9 O34 2.771141 1_545
Ba9 O19 2.978553 1_655
Ba9 O19 2.978553 1_555
Ba9 O24 2.990230 1_545
Ba9 O24 2.990230 1_555
Ba9 O9 2.997241 1_655
Ba9 O9 2.997241 1_555
Cu0 O30 1.843622 1_555
Cu0 O10 1.883544 1_555
Cu0 O15 1.955295 1_555
Cu0 O15 1.955299 1_565
Cu1 O31 1.854081 1_555
Cu1 O11 1.887303 1_555
Cu1 O16 1.955362 1_555
Cu1 O16 1.955366 1_545
Cu2 O32 1.854696 1_555
Cu2 O12 1.888534 1_555
Cu2 O17 1.955267 1_565
Cu2 O17 1.955271 1_555
Cu3 O33 1.853124 1_555
Cu3 O13 1.887645 1_555
Cu3 O18 1.955388 1_555
Cu3 O18 1.955388 1_545
Cu4 O34 1.854696 1_555
Cu4 O14 1.883133 1_555
Cu4 O19 1.955267 1_555
Cu4 O19 1.955271 1_565
Cu5 O35 1.854696 1_555
Cu5 O15 1.883133 1_555
Cu5 O10 1.955267 1_555
Cu5 O10 1.955271 1_545
Cu6 O36 1.853124 1_555
Cu6 O16 1.887645 1_555
Cu6 O11 1.955388 1_555
Cu6 O11 1.955388 1_565
Cu7 O37 1.854696 1_555
Cu7 O17 1.888534 1_555
Cu7 O12 1.955267 1_545
Cu7 O12 1.955271 1_555
Cu8 O38 1.854081 1_555
Cu8 O18 1.887303 1_555
Cu8 O13 1.955362 1_555
Cu8 O13 1.955366 1_565
Cu9 O39 1.843622 1_555
Cu9 O19 1.883544 1_555
Cu9 O14 1.955295 1_555
Cu9 O14 1.955299 1_545
Cu10 O5 1.960168 1_555
Cu10 O5 1.960168 1_565
Cu10 O20 1.960226 1_455
Cu10 O20 1.960226 1_555
Cu10 O30 2.254114 1_555
Cu11 O21 1.964562 1_455
Cu11 O21 1.964562 1_555
Cu11 O6 1.964837 1_545
Cu11 O6 1.964837 1_555
Cu11 O31 2.298205 1_555
Cu12 O22 1.964404 1_455
Cu12 O22 1.964404 1_555
Cu12 O7 1.964663 1_555
Cu12 O7 1.964667 1_565
Cu12 O32 2.298205 1_555
Cu13 O23 1.964372 1_555
Cu13 O23 1.964372 1_455
Cu13 O8 1.964696 1_545
Cu13 O8 1.964700 1_555
Cu13 O33 2.299504 1_555
Cu14 O24 1.964690 1_555
Cu14 O24 1.964690 1_455
Cu14 O9 1.964986 1_555
Cu14 O9 1.964986 1_565
Cu14 O34 2.296564 1_555
Cu15 O25 1.964690 1_455
Cu15 O25 1.964690 1_555
Cu15 O0 1.964986 1_555
Cu15 O0 1.964986 1_545
Cu15 O35 2.296564 1_555
Cu16 O26 1.964372 1_555
Cu16 O26 1.964372 1_455
Cu16 O1 1.964696 1_565
Cu16 O1 1.964700 1_555
Cu16 O36 2.299504 1_555
Cu17 O27 1.964404 1_455
Cu17 O27 1.964404 1_555
Cu17 O2 1.964663 1_555
Cu17 O2 1.964667 1_545
Cu17 O37 2.298205 1_555
Cu18 O28 1.964562 1_555
Cu18 O28 1.964562 1_455
Cu18 O3 1.964837 1_565
Cu18 O3 1.964837 1_555
Cu18 O38 2.298205 1_555
Cu19 O4 1.960168 1_555
Cu19 O4 1.960168 1_545
Cu19 O29 1.960226 1_455
Cu19 O29 1.960226 1_555
Cu19 O39 2.254114 1_555
O0 Y0 2.421324 1_555
O0 Y0 2.421324 1_455
O1 Y1 2.421810 1_555
O1 Y1 2.421810 1_455
O2 Y2 2.422377 1_555
O2 Y2 2.422377 1_455
O3 Y3 2.422053 1_555
O3 Y3 2.422053 1_455
O4 Pr0 2.483454 1_456
O4 Pr0 2.483454 1_556
O5 Pr0 2.483454 1_555
O5 Pr0 2.483454 1_455
O6 Y0 2.422053 1_455
O6 Y0 2.422053 1_555
O7 Y1 2.422377 1_555
O7 Y1 2.422377 1_455
O8 Y2 2.421810 1_455
O8 Y2 2.421810 1_555
O9 Y3 2.421324 1_555
O9 Y3 2.421324 1_455
O20 Pr0 2.487154 1_555
O20 Pr0 2.487157 1_565
O21 Y0 2.426493 1_545
O21 Y0 2.426496 1_555
O22 Y1 2.426779 1_555
O22 Y1 2.426779 1_565
O23 Y2 2.426535 1_545
O23 Y2 2.426535 1_555
O24 Y3 2.425842 1_565
O24 Y3 2.425845 1_555
O25 Y0 2.425842 1_545
O25 Y0 2.425845 1_555
O26 Y1 2.426535 1_565
O26 Y1 2.426535 1_555
O27 Y2 2.426779 1_555
O27 Y2 2.426779 1_545
O28 Y3 2.426493 1_565
O28 Y3 2.426496 1_555
O29 Pr0 2.487154 1_556
O29 Pr0 2.487157 1_546
