# generated using pymatgen
data_Sm2Ga2Fe15
_symmetry_space_group_name_H-M   'P 1'
_cell_length_a   6.44544830
_cell_length_b   6.44544830
_cell_length_c   6.44544848
_cell_angle_alpha   82.59504264
_cell_angle_beta   82.59504264
_cell_angle_gamma   82.59503922
_symmetry_Int_Tables_number   1
_chemical_formula_structural   Sm2Ga2Fe15
_chemical_formula_sum   'Sm2 Ga2 Fe15'
_cell_volume   261.59898637
_cell_formula_units_Z   1
loop_
 _symmetry_equiv_pos_site_id
 _symmetry_equiv_pos_as_xyz
  1  'x, y, z'
loop_
 _atom_site_type_symbol
 _atom_site_label
 _atom_site_symmetry_multiplicity
 _atom_site_fract_x
 _atom_site_fract_y
 _atom_site_fract_z
 _atom_site_occupancy
  Sm  Sm0  1  0.65263300  0.65263300  0.65263300  1
  Sm  Sm1  1  0.34736700  0.34736700  0.34736700  1
  Ga  Ga0  1  0.89683100  0.89683100  0.89683100  1
  Ga  Ga1  1  0.10316900  0.10316900  0.10316900  1
  Fe  Fe0  1  0.00000000  0.00000000  0.50000000  1
  Fe  Fe1  1  0.00000000  0.50000000  0.00000000  1
  Fe  Fe2  1  0.50000000  0.00000000  0.00000000  1
  Fe  Fe3  1  0.29323500  0.70676500  0.00000000  1
  Fe  Fe4  1  0.70676500  0.00000000  0.29323500  1
  Fe  Fe5  1  0.00000000  0.29323500  0.70676500  1
  Fe  Fe6  1  0.29323500  0.00000000  0.70676500  1
  Fe  Fe7  1  0.00000000  0.70676500  0.29323500  1
  Fe  Fe8  1  0.70676500  0.29323500  0.00000000  1
  Fe  Fe9  1  0.34127600  0.34127600  0.84245600  1
  Fe  Fe10  1  0.34127600  0.84245600  0.34127600  1
  Fe  Fe11  1  0.84245600  0.34127600  0.34127600  1
  Fe  Fe12  1  0.65872400  0.65872400  0.15754400  1
  Fe  Fe13  1  0.65872400  0.15754400  0.65872400  1
  Fe  Fe14  1  0.15754400  0.65872400  0.65872400  1
loop_
_geom_bond_atom_site_label_1
_geom_bond_atom_site_label_2
_geom_bond_distance
_geom_bond_site_symmetry_2
Sm0 Sm1 3.822008 1_555
Ga0 Ga1 2.583404 1_666
Ga0 Sm0 3.057421 1_555
Ga1 Sm1 3.057421 1_555
Fe0 Fe5 2.448989 1_555
Fe0 Fe6 2.448989 1_555
Fe0 Fe4 2.448989 1_455
Fe0 Fe7 2.448989 1_545
Fe0 Fe11 2.455257 1_455
Fe0 Fe10 2.455257 1_545
Fe0 Fe14 2.455257 1_545
Fe0 Fe13 2.455257 1_455
Fe0 Ga0 2.581401 1_445
Fe0 Ga1 2.581401 1_555
Fe0 Sm1 3.339179 1_555
Fe0 Sm0 3.339179 1_445
Fe1 Fe7 2.448989 1_555
Fe1 Fe5 2.448989 1_554
Fe1 Fe3 2.448989 1_555
Fe1 Fe8 2.448989 1_455
Fe1 Fe9 2.455257 1_554
Fe1 Fe12 2.455257 1_455
Fe1 Fe11 2.455257 1_455
Fe1 Fe14 2.455257 1_554
Fe1 Ga0 2.581401 1_454
Fe1 Ga1 2.581401 1_555
Fe1 Sm0 3.339179 1_454
Fe1 Sm1 3.339179 1_555
Fe2 Fe4 2.448989 1_555
Fe2 Fe6 2.448989 1_554
Fe2 Fe8 2.448989 1_555
Fe2 Fe3 2.448989 1_545
Fe2 Fe9 2.455257 1_554
Fe2 Ga0 2.581401 1_544
Fe2 Ga1 2.581401 1_555
Fe2 Sm1 3.339179 1_555
Fe2 Sm0 3.339179 1_544
Fe3 Fe7 2.494724 1_555
Fe3 Fe6 2.494724 1_564
Fe3 Fe9 2.650291 1_554
Fe3 Ga1 2.809296 1_565
Fe3 Ga0 2.809296 1_454
Fe3 Sm1 3.026021 1_555
Fe3 Sm0 3.026021 1_554
Fe4 Fe7 2.494724 1_645
Fe4 Fe8 2.494724 1_555
Fe4 Ga1 2.809296 1_655
Fe4 Ga0 2.809296 1_544
Fe4 Sm1 3.026021 1_555
Fe4 Sm0 3.026022 1_545
Fe5 Fe6 2.494724 1_555
Fe5 Fe8 2.494724 1_456
Fe5 Fe9 2.537839 1_555
Fe5 Ga1 2.809296 1_556
Fe5 Ga0 2.809296 1_445
Fe5 Sm0 3.026021 1_455
Fe5 Sm1 3.026022 1_555
Fe6 Fe9 2.537839 1_555
Fe6 Ga1 2.809296 1_556
Fe6 Ga0 2.809296 1_445
Fe6 Sm0 3.026021 1_545
Fe6 Sm1 3.026022 1_555
Fe7 Ga1 2.809296 1_565
Fe7 Ga0 2.809296 1_454
Fe7 Sm1 3.026021 1_555
Fe7 Sm0 3.026022 1_455
Fe8 Fe9 2.650291 1_554
Fe8 Ga1 2.809296 1_655
Fe8 Ga0 2.809296 1_544
Fe8 Sm1 3.026021 1_555
Fe8 Sm0 3.026021 1_554
Fe9 Ga1 2.609988 1_556
Fe9 Sm0 3.053527 1_555
Fe9 Sm1 3.181482 1_555
Fe9 Sm1 3.265015 1_556
Fe10 Fe2 2.455257 1_565
Fe10 Fe12 2.470561 1_555
Fe10 Fe14 2.470561 1_555
Fe10 Fe7 2.537839 1_555
Fe10 Fe3 2.537839 1_555
Fe10 Ga1 2.609988 1_565
Fe10 Fe4 2.650291 1_565
Fe10 Fe6 2.650291 1_565
Fe10 Sm0 3.053527 1_555
Fe10 Sm1 3.181482 1_555
Fe10 Sm1 3.265015 1_565
Fe11 Fe12 2.470561 1_555
Fe11 Fe13 2.470561 1_555
Fe11 Fe4 2.537839 1_555
Fe11 Fe8 2.537839 1_555
Fe11 Ga1 2.609988 1_655
Fe11 Fe7 2.650291 1_655
Fe11 Fe5 2.650291 1_655
Fe11 Sm0 3.053527 1_555
Fe11 Sm1 3.181482 1_555
Fe11 Sm1 3.265015 1_655
Fe12 Fe2 2.455257 1_565
Fe12 Fe7 2.537839 1_655
Fe12 Fe4 2.537839 1_565
Fe12 Ga0 2.609988 1_554
Fe12 Fe3 2.650291 1_555
Fe12 Fe8 2.650291 1_555
Fe12 Sm1 3.053527 1_555
Fe12 Sm0 3.181482 1_555
Fe12 Sm0 3.265015 1_554
Fe13 Fe2 2.455257 1_556
Fe13 Fe9 2.470561 1_555
Fe13 Fe5 2.537839 1_655
Fe13 Fe8 2.537839 1_556
Fe13 Ga0 2.609988 1_545
Fe13 Fe6 2.650291 1_555
Fe13 Fe4 2.650291 1_555
Fe13 Sm1 3.053527 1_555
Fe13 Sm0 3.181482 1_555
Fe13 Sm0 3.265015 1_545
Fe14 Fe9 2.470561 1_555
Fe14 Fe6 2.537839 1_565
Fe14 Fe3 2.537839 1_556
Fe14 Ga0 2.609988 1_455
Fe14 Fe5 2.650291 1_555
Fe14 Fe7 2.650291 1_555
Fe14 Sm1 3.053527 1_555
Fe14 Sm0 3.181482 1_555
Fe14 Sm0 3.265015 1_455
