# generated using pymatgen
data_CeSe2
_symmetry_space_group_name_H-M   'P 1'
_cell_length_a   14.37079639
_cell_length_b   21.15754459
_cell_length_c   25.59585290
_cell_angle_alpha   106.02466064
_cell_angle_beta   90.00000000
_cell_angle_gamma   90.00000000
_symmetry_Int_Tables_number   1
_chemical_formula_structural   CeSe2
_chemical_formula_sum   'Ce28 Se56'
_cell_volume   7480.03621157
_cell_formula_units_Z   28
loop_
 _symmetry_equiv_pos_site_id
 _symmetry_equiv_pos_as_xyz
  1  'x, y, z'
loop_
 _atom_site_type_symbol
 _atom_site_label
 _atom_site_symmetry_multiplicity
 _atom_site_fract_x
 _atom_site_fract_y
 _atom_site_fract_z
 _atom_site_occupancy
  Ce  Ce0  1  0.18404962  0.85970042  0.11021920  1
  Ce  Ce1  1  0.81595038  0.85970042  0.11021920  1
  Ce  Ce2  1  0.81595038  0.14029958  0.88978080  1
  Ce  Ce3  1  0.18404962  0.14029958  0.88978080  1
  Ce  Ce4  1  0.81629448  0.11666988  0.21875721  1
  Ce  Ce5  1  0.18370552  0.11666988  0.21875721  1
  Ce  Ce6  1  0.18370552  0.88333012  0.78124279  1
  Ce  Ce7  1  0.81629448  0.88333012  0.78124279  1
  Ce  Ce8  1  0.31469957  0.09506819  0.40606299  1
  Ce  Ce9  1  0.68530043  0.09506819  0.40606299  1
  Ce  Ce10  1  0.68530043  0.90493181  0.59393701  1
  Ce  Ce11  1  0.31469957  0.90493181  0.59393701  1
  Ce  Ce12  1  0.81710030  0.86385030  0.40256442  1
  Ce  Ce13  1  0.18289970  0.86385030  0.40256442  1
  Ce  Ce14  1  0.18289970  0.13614970  0.59743558  1
  Ce  Ce15  1  0.81710030  0.13614970  0.59743558  1
  Ce  Ce16  1  0.31648124  0.70806281  0.22867175  1
  Ce  Ce17  1  0.68351876  0.70806281  0.22867175  1
  Ce  Ce18  1  0.68351876  0.29193719  0.77132825  1
  Ce  Ce19  1  0.31648124  0.29193719  0.77132825  1
  Ce  Ce20  1  0.81265101  0.48800886  0.09729674  1
  Ce  Ce21  1  0.18734899  0.48800886  0.09729674  1
  Ce  Ce22  1  0.18734899  0.51199114  0.90270326  1
  Ce  Ce23  1  0.81265101  0.51199114  0.90270326  1
  Ce  Ce24  1  0.68601875  0.75337667  0.91341874  1
  Ce  Ce25  1  0.31398125  0.75337667  0.91341874  1
  Ce  Ce26  1  0.31398125  0.24662333  0.08658126  1
  Ce  Ce27  1  0.68601875  0.24662333  0.08658126  1
  Se  Se0  1  -0.00000000  0.83079905  0.11165982  1
  Se  Se1  1  -0.00000000  0.16920095  0.88834018  1
  Se  Se2  1  -0.00000000  0.14618153  0.21695065  1
  Se  Se3  1  -0.00000000  0.85381847  0.78304935  1
  Se  Se4  1  0.50000000  0.12188104  0.41322179  1
  Se  Se5  1  0.50000000  0.87811896  0.58677821  1
  Se  Se6  1  -0.00000000  0.89703605  0.40486537  1
  Se  Se7  1  -0.00000000  0.10296395  0.59513463  1
  Se  Se8  1  0.50000000  0.71554282  0.25541944  1
  Se  Se9  1  0.50000000  0.28445718  0.74458056  1
  Se  Se10  1  -0.00000000  0.50552835  0.10367831  1
  Se  Se11  1  -0.00000000  0.49447165  0.89632169  1
  Se  Se12  1  0.50000000  0.73970626  0.92602679  1
  Se  Se13  1  0.50000000  0.26029374  0.07397321  1
  Se  Se14  1  0.23057342  0.15781808  0.50118499  1
  Se  Se15  1  0.76942658  0.15781808  0.50118499  1
  Se  Se16  1  0.76942658  0.84218192  0.49881501  1
  Se  Se17  1  0.23057342  0.84218192  0.49881501  1
  Se  Se18  1  0.24234906  0.83558249  0.00556067  1
  Se  Se19  1  0.75765094  0.83558249  0.00556067  1
  Se  Se20  1  0.75765094  0.16441751  0.99443933  1
  Se  Se21  1  0.24234906  0.16441751  0.99443933  1
  Se  Se22  1  0.27076136  0.58108882  0.17872832  1
  Se  Se23  1  0.72923864  0.58108882  0.17872832  1
  Se  Se24  1  0.72923864  0.41891118  0.82127168  1
  Se  Se25  1  0.27076136  0.41891118  0.82127168  1
  Se  Se26  1  0.28210065  0.78324265  0.16026633  1
  Se  Se27  1  0.71789935  0.78324265  0.16026633  1
  Se  Se28  1  0.71789935  0.21675735  0.83973367  1
  Se  Se29  1  0.28210065  0.21675735  0.83973367  1
  Se  Se30  1  0.21061123  0.98865111  0.16320981  1
  Se  Se31  1  0.78938877  0.98865111  0.16320981  1
  Se  Se32  1  0.78938877  0.01134889  0.83679019  1
  Se  Se33  1  0.21061123  0.01134889  0.83679019  1
  Se  Se34  1  0.28791682  0.96354379  0.38670044  1
  Se  Se35  1  0.71208318  0.96354379  0.38670044  1
  Se  Se36  1  0.71208318  0.03645621  0.61329956  1
  Se  Se37  1  0.28791682  0.03645621  0.61329956  1
  Se  Se38  1  0.71672350  0.19525882  0.17140960  1
  Se  Se39  1  0.28327650  0.19525882  0.17140960  1
  Se  Se40  1  0.28327650  0.80474118  0.82859040  1
  Se  Se41  1  0.71672350  0.80474118  0.82859040  1
  Se  Se42  1  0.75214550  0.50000000  -0.00000000  1
  Se  Se43  1  0.24785450  0.50000000  -0.00000000  1
  Se  Se44  1  0.75998850  0.13594431  0.32336940  1
  Se  Se45  1  0.24001150  0.13594431  0.32336940  1
  Se  Se46  1  0.24001150  0.86405569  0.67663060  1
  Se  Se47  1  0.75998850  0.86405569  0.67663060  1
  Se  Se48  1  0.76981964  0.36604694  0.10594473  1
  Se  Se49  1  0.23018036  0.36604694  0.10594473  1
  Se  Se50  1  0.23018036  0.63395306  0.89405527  1
  Se  Se51  1  0.76981964  0.63395306  0.89405527  1
  Se  Se52  1  0.78701453  0.75332819  0.32023862  1
  Se  Se53  1  0.21298547  0.75332819  0.32023862  1
  Se  Se54  1  0.21298547  0.24667181  0.67976138  1
  Se  Se55  1  0.78701453  0.24667181  0.67976138  1
loop_
_geom_bond_atom_site_label_1
_geom_bond_atom_site_label_2
_geom_bond_distance
_geom_bond_site_symmetry_2
Ce0 Se0 2.717246 1_555
Ce0 Se18 2.717299 1_555
Ce0 Se30 2.717689 1_555
Ce0 Se26 2.717966 1_555
Ce1 Se0 2.717246 1_655
Ce1 Se19 2.717299 1_555
Ce1 Se31 2.717689 1_555
Ce1 Se27 2.717966 1_555
Ce2 Se1 2.717246 1_655
Ce2 Se20 2.717299 1_555
Ce2 Se32 2.717689 1_555
Ce2 Se28 2.717966 1_555
Ce3 Se1 2.717246 1_555
Ce3 Se21 2.717299 1_555
Ce3 Se33 2.717689 1_555
Ce3 Se29 2.717966 1_555
Ce4 Se2 2.716159 1_655
Ce4 Se31 2.716826 1_545
Ce4 Se44 2.718074 1_555
Ce4 Se38 2.719098 1_555
Ce5 Se2 2.716159 1_555
Ce5 Se30 2.716826 1_545
Ce5 Se45 2.718074 1_555
Ce5 Se39 2.719098 1_555
Ce6 Se3 2.716159 1_555
Ce6 Se33 2.716826 1_565
Ce6 Se46 2.718074 1_555
Ce6 Se40 2.719098 1_555
Ce7 Se3 2.716159 1_655
Ce7 Se32 2.716826 1_565
Ce7 Se47 2.718074 1_555
Ce7 Se41 2.719098 1_555
Ce8 Se14 2.714308 1_555
Ce8 Se34 2.715869 1_545
Ce8 Se4 2.718294 1_555
Ce8 Se45 2.718578 1_555
Ce9 Se15 2.714308 1_555
Ce9 Se35 2.715869 1_545
Ce9 Se4 2.718294 1_555
Ce9 Se44 2.718578 1_555
Ce10 Se16 2.714308 1_555
Ce10 Se36 2.715869 1_565
Ce10 Se5 2.718294 1_555
Ce10 Se47 2.718578 1_555
Ce11 Se17 2.714308 1_555
Ce11 Se37 2.715869 1_565
Ce11 Se5 2.718294 1_555
Ce11 Se46 2.718578 1_555
Ce12 Se35 2.713739 1_555
Ce12 Se16 2.715239 1_555
Ce12 Se52 2.715655 1_555
Ce12 Se6 2.717018 1_655
Ce13 Se34 2.713739 1_555
Ce13 Se17 2.715239 1_555
Ce13 Se53 2.715655 1_555
Ce13 Se6 2.717018 1_555
Ce14 Se37 2.713739 1_555
Ce14 Se14 2.715239 1_555
Ce14 Se54 2.715655 1_555
Ce14 Se7 2.717018 1_555
Ce15 Se36 2.713739 1_555
Ce15 Se15 2.715239 1_555
Ce15 Se55 2.715655 1_555
Ce15 Se7 2.717018 1_655
Ce16 Se26 2.716142 1_555
Ce16 Se53 2.717193 1_555
Ce16 Se22 2.717880 1_555
Ce16 Se8 2.718336 1_555
Ce17 Se27 2.716142 1_555
Ce17 Se52 2.717193 1_555
Ce17 Se23 2.717880 1_555
Ce17 Se8 2.718336 1_555
Ce18 Se28 2.716142 1_555
Ce18 Se55 2.717193 1_555
Ce18 Se24 2.717880 1_555
Ce18 Se9 2.718336 1_555
Ce19 Se29 2.716142 1_555
Ce19 Se54 2.717193 1_555
Ce19 Se25 2.717880 1_555
Ce19 Se9 2.718336 1_555
Ce20 Se42 2.715015 1_555
Ce20 Se10 2.716509 1_655
Ce20 Se23 2.719067 1_555
Ce20 Se48 2.720616 1_555
Ce21 Se43 2.715015 1_555
Ce21 Se10 2.716509 1_555
Ce21 Se22 2.719067 1_555
Ce21 Se49 2.720616 1_555
Ce22 Se43 2.715015 1_556
Ce22 Se11 2.716509 1_555
Ce22 Se25 2.719067 1_555
Ce22 Se50 2.720616 1_555
Ce23 Se42 2.715015 1_556
Ce23 Se11 2.716509 1_655
Ce23 Se24 2.719067 1_555
Ce23 Se51 2.720616 1_555
Ce24 Se19 2.717045 1_556
Ce24 Se12 2.717633 1_555
Ce24 Se51 2.718238 1_555
Ce24 Se41 2.718972 1_555
Ce25 Se18 2.717045 1_556
Ce25 Se12 2.717633 1_555
Ce25 Se50 2.718238 1_555
Ce25 Se40 2.718972 1_555
Ce26 Se21 2.717045 1_554
Ce26 Se13 2.717633 1_555
Ce26 Se49 2.718238 1_555
Ce26 Se39 2.718972 1_555
Ce27 Se20 2.717045 1_554
Ce27 Se13 2.717633 1_555
Ce27 Se48 2.718238 1_555
Ce27 Se38 2.718972 1_555
