# generated using pymatgen
data_Yb5Zr3(Ni4As3)4
_symmetry_space_group_name_H-M   'P 1'
_cell_length_a   12.74056033
_cell_length_b   12.74056033
_cell_length_c   3.90321800
_cell_angle_alpha   90.00000000
_cell_angle_beta   90.00000000
_cell_angle_gamma   120.00000172
_symmetry_Int_Tables_number   1
_chemical_formula_structural   Yb5Zr3(Ni4As3)4
_chemical_formula_sum   'Yb5 Zr3 Ni16 As12'
_cell_volume   548.69435163
_cell_formula_units_Z   1
loop_
 _symmetry_equiv_pos_site_id
 _symmetry_equiv_pos_as_xyz
  1  'x, y, z'
loop_
 _atom_site_type_symbol
 _atom_site_label
 _atom_site_symmetry_multiplicity
 _atom_site_fract_x
 _atom_site_fract_y
 _atom_site_fract_z
 _atom_site_occupancy
  Yb  Yb0  1  0.00000000  0.18175700  0.50000000  1
  Yb  Yb1  1  0.81824300  0.81824300  0.50000000  1
  Yb  Yb2  1  0.18175700  0.00000000  0.50000000  1
  Yb  Yb3  1  0.66666700  0.33333300  0.00000000  1
  Yb  Yb4  1  0.33333300  0.66666700  0.00000000  1
  Zr  Zr0  1  0.00000000  0.56322300  0.00000000  1
  Zr  Zr1  1  0.43677700  0.43677700  0.00000000  1
  Zr  Zr2  1  0.56322300  0.00000000  0.00000000  1
  Ni  Ni0  1  0.00000000  0.72334700  0.50000000  1
  Ni  Ni1  1  0.27665300  0.27665300  0.50000000  1
  Ni  Ni2  1  0.72334700  0.00000000  0.50000000  1
  Ni  Ni3  1  0.80763900  0.18278600  0.00000000  1
  Ni  Ni4  1  0.81721400  0.62485300  0.00000000  1
  Ni  Ni5  1  0.37514700  0.19236100  0.00000000  1
  Ni  Ni6  1  0.18278600  0.80763900  0.00000000  1
  Ni  Ni7  1  0.62485300  0.81721400  0.00000000  1
  Ni  Ni8  1  0.19236100  0.37514700  0.00000000  1
  Ni  Ni9  1  0.87865300  0.36012600  0.50000000  1
  Ni  Ni10  1  0.63987400  0.51852700  0.50000000  1
  Ni  Ni11  1  0.48147300  0.12134700  0.50000000  1
  Ni  Ni12  1  0.36012600  0.87865300  0.50000000  1
  Ni  Ni13  1  0.51852700  0.63987400  0.50000000  1
  Ni  Ni14  1  0.12134700  0.48147300  0.50000000  1
  Ni  Ni15  1  0.00000000  0.00000000  0.00000000  1
  As  As0  1  0.00000000  0.82200500  0.00000000  1
  As  As1  1  0.17799500  0.17799500  0.00000000  1
  As  As2  1  0.82200500  0.00000000  0.00000000  1
  As  As3  1  0.69289000  0.17217200  0.50000000  1
  As  As4  1  0.82782800  0.52071800  0.50000000  1
  As  As5  1  0.47928200  0.30711000  0.50000000  1
  As  As6  1  0.17217200  0.69289000  0.50000000  1
  As  As7  1  0.52071800  0.82782800  0.50000000  1
  As  As8  1  0.30711000  0.47928200  0.50000000  1
  As  As9  1  0.00000000  0.35391800  0.00000000  1
  As  As10  1  0.64608200  0.64608200  0.00000000  1
  As  As11  1  0.35391800  0.00000000  0.00000000  1
loop_
_geom_bond_atom_site_label_1
_geom_bond_atom_site_label_2
_geom_bond_distance
_geom_bond_site_symmetry_2
Ni0 Zr0 2.823236 1_556
Ni0 Zr0 2.823236 1_555
Ni0 Yb2 3.102238 1_565
Ni0 Yb1 3.102238 1_455
Ni1 Zr1 2.823236 1_555
Ni1 Zr1 2.823236 1_556
Ni1 Yb2 3.102238 1_555
Ni1 Yb0 3.102238 1_555
Ni2 Zr2 2.823236 1_555
Ni2 Zr2 2.823236 1_556
Ni2 Yb0 3.102238 1_655
Ni2 Yb1 3.102238 1_545
Ni3 Zr2 2.805067 1_555
Ni3 Yb0 3.138062 1_655
Ni3 Yb0 3.138062 1_654
Ni3 Yb3 3.217097 1_555
Ni4 Zr0 2.805068 1_655
Ni4 Yb1 3.138062 1_554
Ni4 Yb1 3.138062 1_555
Ni4 Yb3 3.217107 1_555
Ni5 Zr1 2.805067 1_555
Ni5 Yb2 3.138062 1_554
Ni5 Yb2 3.138062 1_555
Ni5 Yb3 3.217108 1_555
Ni6 Zr0 2.805067 1_555
Ni6 Yb2 3.138062 1_565
Ni6 Yb2 3.138062 1_564
Ni6 Yb4 3.217097 1_555
Ni7 Zr2 2.805068 1_565
Ni7 Yb1 3.138062 1_554
Ni7 Yb1 3.138062 1_555
Ni7 Yb4 3.217107 1_555
Ni8 Zr1 2.805067 1_555
Ni8 Yb0 3.138062 1_555
Ni8 Yb0 3.138062 1_554
Ni8 Yb4 3.217108 1_555
Ni9 Zr0 2.982288 1_655
Ni9 Zr0 2.982288 1_656
Ni9 Yb3 3.209017 1_555
Ni9 Yb3 3.209017 1_556
Ni9 Yb0 3.326851 1_655
Ni10 Zr1 2.982288 1_556
Ni10 Zr1 2.982288 1_555
Ni10 Yb3 3.209027 1_555
Ni10 Yb3 3.209027 1_556
Ni10 Yb1 3.326851 1_555
Ni11 Zr2 2.982288 1_555
Ni11 Zr2 2.982288 1_556
Ni11 Yb3 3.209021 1_555
Ni11 Yb3 3.209021 1_556
Ni11 Yb2 3.326851 1_555
Ni12 Zr2 2.982288 1_565
Ni12 Zr2 2.982288 1_566
Ni12 Yb4 3.209017 1_556
Ni12 Yb4 3.209017 1_555
Ni12 Yb2 3.326851 1_565
Ni13 Zr1 2.982288 1_556
Ni13 Zr1 2.982288 1_555
Ni13 Yb4 3.209027 1_555
Ni13 Yb4 3.209027 1_556
Ni13 Yb1 3.326851 1_555
Ni14 Zr0 2.982288 1_556
Ni14 Zr0 2.982288 1_555
Ni14 Yb4 3.209021 1_555
Ni14 Yb4 3.209021 1_556
Ni14 Yb0 3.326851 1_555
Ni15 Yb1 3.028395 1_444
Ni15 Yb1 3.028395 1_445
Ni15 Yb2 3.028396 1_555
Ni15 Yb0 3.028396 1_555
Ni15 Yb2 3.028396 1_554
Ni15 Yb0 3.028396 1_554
As0 Ni15 2.267756 1_565
As0 Ni0 2.321362 1_555
As0 Ni0 2.321362 1_554
As0 Ni4 2.425496 1_455
As0 Ni6 2.425496 1_555
As0 Yb2 3.010396 1_565
As0 Yb2 3.010396 1_564
As0 Yb1 3.010396 1_455
As0 Yb1 3.010396 1_454
As1 Ni15 2.267756 1_555
As1 Ni1 2.321362 1_554
As1 Ni1 2.321362 1_555
As1 Ni8 2.425496 1_555
As1 Ni5 2.425496 1_555
As1 Yb2 3.010396 1_555
As1 Yb2 3.010396 1_554
As1 Yb0 3.010396 1_555
As1 Yb0 3.010396 1_554
As2 Ni15 2.267756 1_655
As2 Ni2 2.321362 1_555
As2 Ni2 2.321362 1_554
As2 Ni7 2.425496 1_545
As2 Ni3 2.425496 1_555
As2 Yb0 3.010396 1_655
As2 Yb0 3.010396 1_654
As2 Yb1 3.010396 1_545
As2 Yb1 3.010396 1_544
As3 Ni9 2.380805 1_555
As3 Ni3 2.401398 1_555
As3 Ni3 2.401398 1_556
As3 Ni2 2.411121 1_555
As3 Ni11 2.435249 1_555
As3 Zr2 2.779547 1_555
As3 Zr2 2.779547 1_556
As3 Yb3 2.970245 1_556
As3 Yb3 2.970245 1_555
As4 Ni10 2.380805 1_555
As4 Ni4 2.401398 1_556
As4 Ni4 2.401398 1_555
As4 Ni0 2.411121 1_655
As4 Ni9 2.435249 1_555
As4 Zr0 2.779547 1_655
As4 Zr0 2.779547 1_656
As4 Yb3 2.970251 1_555
As4 Yb3 2.970251 1_556
As5 Ni11 2.380805 1_555
As5 Ni5 2.401398 1_555
As5 Ni5 2.401398 1_556
As5 Ni1 2.411121 1_555
As5 Ni10 2.435249 1_555
As5 Zr1 2.779547 1_556
As5 Zr1 2.779547 1_555
As5 Yb3 2.970254 1_555
As5 Yb3 2.970254 1_556
As6 Ni12 2.380805 1_555
As6 Ni6 2.401398 1_555
As6 Ni6 2.401398 1_556
As6 Ni0 2.411121 1_555
As6 Ni14 2.435249 1_555
As6 Zr0 2.779547 1_556
As6 Zr0 2.779547 1_555
As6 Yb4 2.970245 1_555
As6 Yb4 2.970245 1_556
As7 Ni13 2.380805 1_555
As7 Ni7 2.401398 1_556
As7 Ni7 2.401398 1_555
As7 Ni2 2.411121 1_565
As7 Ni12 2.435249 1_555
As7 Zr2 2.779547 1_565
As7 Zr2 2.779547 1_566
As7 Yb4 2.970251 1_555
As7 Yb4 2.970251 1_556
As8 Ni14 2.380805 1_555
As8 Ni8 2.401398 1_555
As8 Ni8 2.401398 1_556
As8 Ni1 2.411121 1_555
As8 Ni13 2.435249 1_555
As8 Zr1 2.779547 1_556
As8 Zr1 2.779547 1_555
As8 Yb4 2.970254 1_555
As8 Yb4 2.970254 1_556
As9 Ni3 2.327369 1_455
As9 Ni8 2.327369 1_555
As9 Ni14 2.515456 1_554
As9 Ni14 2.515456 1_555
As9 Ni9 2.515456 1_455
As9 Ni9 2.515456 1_454
As9 Zr0 2.666663 1_555
As9 Yb0 2.935967 1_555
As9 Yb0 2.935967 1_554
As10 Ni7 2.327369 1_555
As10 Ni4 2.327369 1_555
As10 Ni10 2.515456 1_554
As10 Ni10 2.515456 1_555
As10 Ni13 2.515456 1_555
As10 Ni13 2.515456 1_554
As10 Zr1 2.666663 1_555
As10 Yb1 2.935967 1_554
As10 Yb1 2.935967 1_555
As11 Ni6 2.327369 1_545
As11 Ni5 2.327369 1_555
As11 Ni11 2.515456 1_554
As11 Ni11 2.515456 1_555
As11 Ni12 2.515456 1_545
As11 Ni12 2.515456 1_544
As11 Zr2 2.666663 1_555
As11 Yb2 2.935967 1_555
As11 Yb2 2.935967 1_554
