# generated using pymatgen
data_CaGaH5
_symmetry_space_group_name_H-M   'P 1'
_cell_length_a   4.31362043
_cell_length_b   6.53888855
_cell_length_c   6.65585484
_cell_angle_alpha   77.02600275
_cell_angle_beta   90.00000000
_cell_angle_gamma   90.00000000
_symmetry_Int_Tables_number   1
_chemical_formula_structural   CaGaH5
_chemical_formula_sum   'Ca2 Ga2 H10'
_cell_volume   182.94438880
_cell_formula_units_Z   2
loop_
 _symmetry_equiv_pos_site_id
 _symmetry_equiv_pos_as_xyz
  1  'x, y, z'
loop_
 _atom_site_type_symbol
 _atom_site_label
 _atom_site_symmetry_multiplicity
 _atom_site_fract_x
 _atom_site_fract_y
 _atom_site_fract_z
 _atom_site_occupancy
  Ca  Ca0  1  0.00252038  0.83002673  0.67646420  1
  Ca  Ca1  1  0.50252038  0.16997327  0.32353580  1
  Ga  Ga0  1  0.24181652  0.71121232  0.20363145  1
  Ga  Ga1  1  0.74181652  0.28878768  0.79636855  1
  H  H0  1  0.07037027  0.65536867  0.01104448  1
  H  H1  1  0.57037027  0.34463133  0.98895552  1
  H  H2  1  0.50134317  0.86938017  0.57916258  1
  H  H3  1  0.00134317  0.13061983  0.42083742  1
  H  H4  1  0.45415944  0.52045020  0.30661779  1
  H  H5  1  0.95415944  0.47954980  0.69338221  1
  H  H6  1  0.44980661  0.91400014  0.12504937  1
  H  H7  1  0.94980661  0.08599986  0.87495063  1
  H  H8  1  0.98178461  0.75360313  0.35497548  1
  H  H9  1  0.48178461  0.24639687  0.64502452  1
loop_
_geom_bond_atom_site_label_1
_geom_bond_atom_site_label_2
_geom_bond_distance
_geom_bond_site_symmetry_2
Ca0 H2 2.245163 1_555
Ca0 H2 2.254899 1_455
Ca0 H5 2.278673 1_455
Ca0 H0 2.281921 1_556
Ca0 H3 2.292727 1_565
Ca0 H8 2.305760 1_455
Ca0 H7 2.364618 1_465
Ca1 H3 2.245163 1_655
Ca1 H3 2.254899 1_555
Ca1 H4 2.278673 1_555
Ca1 H1 2.281921 1_554
Ca1 H2 2.292727 1_545
Ca1 H9 2.305760 1_555
Ca1 H6 2.364618 1_545
Ga0 H8 1.573236 1_455
Ga0 H4 1.575077 1_555
Ga0 H6 1.589149 1_555
Ga0 H0 1.591710 1_555
Ga1 H9 1.573236 1_555
Ga1 H5 1.575077 1_555
Ga1 H7 1.589149 1_555
Ga1 H1 1.591710 1_555
