# generated using pymatgen
data_Li9Ag4
_symmetry_space_group_name_H-M   'P 1'
_cell_length_a   9.66001020
_cell_length_b   8.39252264
_cell_length_c   8.33454698
_cell_angle_alpha   70.54989162
_cell_angle_beta   55.00578511
_cell_angle_gamma   54.44432328
_symmetry_Int_Tables_number   1
_chemical_formula_structural   Li9Ag4
_chemical_formula_sum   'Li18 Ag8'
_cell_volume   450.33106080
_cell_formula_units_Z   2
loop_
 _symmetry_equiv_pos_site_id
 _symmetry_equiv_pos_as_xyz
  1  'x, y, z'
loop_
 _atom_site_type_symbol
 _atom_site_label
 _atom_site_symmetry_multiplicity
 _atom_site_fract_x
 _atom_site_fract_y
 _atom_site_fract_z
 _atom_site_occupancy
  Li  Li0  1  0.22889800  0.99104700  0.77110200  1
  Li  Li1  1  0.00895300  0.77110200  0.99104700  1
  Li  Li2  1  0.77000400  0.22999600  0.99147900  1
  Li  Li3  1  0.00852100  0.99147900  0.22999600  1
  Li  Li4  1  0.34668300  0.28762300  0.65331700  1
  Li  Li5  1  0.33935600  0.00293200  0.36879900  1
  Li  Li6  1  0.63120100  0.71108600  0.66064400  1
  Li  Li7  1  0.71237700  0.65331700  0.28762300  1
  Li  Li8  1  0.28891400  0.36879900  0.00293200  1
  Li  Li9  1  0.99706800  0.66064400  0.71108600  1
  Li  Li10  1  0.65100100  0.34899900  0.71886100  1
  Li  Li11  1  0.64358600  0.63369900  0.00405800  1
  Li  Li12  1  0.36630200  0.35641400  0.28134200  1
  Li  Li13  1  0.28113900  0.71886100  0.34899900  1
  Li  Li14  1  0.71865800  0.00405800  0.63369800  1
  Li  Li15  1  0.99594200  0.28134200  0.35641400  1
  Li  Li16  1  0.66837000  0.00068200  0.33163000  1
  Li  Li17  1  0.99931800  0.33163000  0.00068200  1
  Ag  Ag0  1  0.34195100  0.65804900  0.00128500  1
  Ag  Ag1  1  0.99871500  0.00128500  0.65804900  1
  Ag  Ag2  1  0.34877500  0.00964700  0.99604900  1
  Ag  Ag3  1  0.00395100  0.35447000  0.65122500  1
  Ag  Ag4  1  0.35938900  0.64061100  0.64061100  1
  Ag  Ag5  1  0.64553000  0.99604900  0.00964700  1
  Ag  Ag6  1  0.99035300  0.65122500  0.35447000  1
  Ag  Ag7  1  0.65504500  0.34495500  0.34495500  1
loop_
_geom_bond_atom_site_label_1
_geom_bond_atom_site_label_2
_geom_bond_distance
_geom_bond_site_symmetry_2
Li0 Li5 2.861573 1_565
Li0 Li6 2.861574 1_555
Li0 Li4 2.973000 1_565
Li1 Li8 2.861576 1_556
Li1 Li9 2.861581 1_455
Li1 Li7 2.973000 1_456
Li4 Li9 2.877679 1_455
Li4 Li8 2.877683 1_556
Li5 Li7 2.877678 1_545
Li6 Li7 2.877675 1_555
Li10 Li2 2.762434 1_555
Li10 Li14 2.819131 1_555
Li10 Li15 2.819131 1_555
Li10 Li6 2.820459 1_555
Li10 Li8 2.820460 1_556
Li11 Li6 2.773577 1_554
Li11 Li13 2.819132 1_555
Li11 Li17 2.835735 1_555
Li11 Li7 2.870896 1_555
Li11 Li2 2.873894 1_554
Li11 Li9 2.939412 1_554
Li12 Li8 2.773567 1_555
Li12 Li13 2.819131 1_555
Li12 Li16 2.835733 1_555
Li12 Li4 2.870900 1_555
Li12 Li2 2.873886 1_554
Li12 Li5 2.939415 1_555
Li13 Li3 2.762434 1_555
Li13 Li9 2.820463 1_455
Li13 Li5 2.820467 1_565
Li14 Li9 2.773571 1_545
Li14 Li16 2.835733 1_555
Li14 Li4 2.870900 1_555
Li14 Li3 2.873886 1_645
Li14 Li6 2.939423 1_545
Li15 Li5 2.773574 1_655
Li15 Li17 2.835733 1_555
Li15 Li7 2.870900 1_555
Li15 Li3 2.873886 1_645
Li15 Li8 2.939420 1_655
Li16 Li7 2.811760 1_545
Li16 Li4 2.946998 1_555
Li16 Li5 3.000428 1_555
Li16 Li6 3.000433 1_545
Li17 Li4 2.811760 1_654
Li17 Li7 2.946998 1_555
Li17 Li9 3.000432 1_554
Li17 Li8 3.000437 1_655
Ag0 Li8 2.751688 1_555
Ag0 Li6 2.751691 1_554
Ag0 Li13 2.772698 1_555
Ag0 Li3 2.804739 1_555
Ag0 Li12 2.813196 1_555
Ag0 Li11 2.813200 1_555
Ag0 Li0 2.822494 1_554
Ag0 Li1 2.822494 1_554
Ag0 Li10 2.860266 1_554
Ag0 Ag4 2.961362 1_554
Ag0 Ag6 2.974993 1_455
Ag0 Ag2 2.974995 1_564
Ag1 Li5 2.751695 1_655
Ag1 Li9 2.751696 1_545
Ag1 Li10 2.772698 1_555
Ag1 Li2 2.804739 1_555
Ag1 Li14 2.813196 1_555
Ag1 Li15 2.813196 1_555
Ag1 Li1 2.822494 1_645
Ag1 Li0 2.822494 1_645
Ag1 Li13 2.860266 1_645
Ag1 Ag4 2.961362 1_645
Ag1 Ag3 2.974987 1_655
Ag1 Ag5 2.974990 1_546
Ag2 Li8 2.733691 1_556
Ag2 Li3 2.768130 1_546
Ag2 Li11 2.774458 1_546
Ag2 Li0 2.788492 1_545
Ag2 Li17 2.830270 1_456
Ag2 Ag5 2.868300 1_546
Ag2 Li4 3.029181 1_555
Ag2 Li5 3.037795 1_556
Ag2 Li14 3.067925 1_555
Ag2 Li6 3.082708 1_545
Ag2 Li15 3.101289 1_456
Ag2 Li13 3.147211 1_546
Ag3 Li9 2.733691 1_455
Ag3 Li2 2.768125 1_455
Ag3 Li15 2.774458 1_455
Ag3 Li0 2.788488 1_545
Ag3 Li17 2.830272 1_456
Ag3 Ag6 2.868300 1_455
Ag3 Li4 3.029185 1_555
Ag3 Li6 3.037795 1_455
Ag3 Li12 3.067928 1_555
Ag3 Li5 3.082698 1_555
Ag3 Li11 3.101296 1_456
Ag3 Li10 3.147206 1_455
Ag4 Li13 2.716005 1_555
Ag4 Li10 2.716005 1_555
Ag4 Li1 2.769064 1_555
Ag4 Li0 2.769064 1_555
Ag4 Ag7 2.853756 1_555
Ag4 Li7 3.000248 1_555
Ag4 Li4 3.000248 1_555
Ag4 Li6 3.105927 1_555
Ag4 Li8 3.105932 1_556
Ag4 Li5 3.105933 1_565
Ag4 Li9 3.105937 1_455
Ag5 Li5 2.733691 1_565
Ag5 Li2 2.768122 1_564
Ag5 Li14 2.774466 1_564
Ag5 Li1 2.788484 1_654
Ag5 Li16 2.830264 1_565
Ag5 Li7 3.029180 1_555
Ag5 Li8 3.037795 1_565
Ag5 Li11 3.067922 1_555
Ag5 Li9 3.082706 1_554
Ag5 Li12 3.101287 1_565
Ag5 Li10 3.147210 1_564
Ag6 Li6 2.733691 1_555
Ag6 Li3 2.768130 1_655
Ag6 Li12 2.774465 1_655
Ag6 Li1 2.788485 1_654
Ag6 Li16 2.830267 1_565
Ag6 Li7 3.029175 1_555
Ag6 Li9 3.037795 1_555
Ag6 Li15 3.067922 1_555
Ag6 Li8 3.082697 1_655
Ag6 Li14 3.101293 1_565
Ag6 Li13 3.147216 1_655
Ag7 Li3 2.781676 1_645
Ag7 Li2 2.781676 1_554
Ag7 Li7 2.787876 1_555
Ag7 Li4 2.787876 1_555
Ag7 Li17 2.853391 1_555
Ag7 Li16 2.853391 1_555
Ag7 Li15 3.069298 1_555
Ag7 Li14 3.069298 1_555
Ag7 Li12 3.069298 1_555
Ag7 Li11 3.069302 1_555
Ag7 Li10 3.105398 1_555
Ag7 Li13 3.105398 1_555
