# generated using pymatgen
data_Mg3Mn2(GeO4)3
_symmetry_space_group_name_H-M   'P 1'
_cell_length_a   10.47459631
_cell_length_b   10.47459631
_cell_length_c   10.47459631
_cell_angle_alpha   109.47122063
_cell_angle_beta   109.47122063
_cell_angle_gamma   109.47122063
_symmetry_Int_Tables_number   1
_chemical_formula_structural   Mg3Mn2(GeO4)3
_chemical_formula_sum   'Mg12 Mn8 Ge12 O48'
_cell_volume   884.68770623
_cell_formula_units_Z   4
loop_
 _symmetry_equiv_pos_site_id
 _symmetry_equiv_pos_as_xyz
  1  'x, y, z'
loop_
 _atom_site_type_symbol
 _atom_site_label
 _atom_site_symmetry_multiplicity
 _atom_site_fract_x
 _atom_site_fract_y
 _atom_site_fract_z
 _atom_site_occupancy
  Mg  Mg0  1  0.25000000  0.87500000  0.62500000  1
  Mg  Mg1  1  0.75000000  0.62500000  0.87500000  1
  Mg  Mg2  1  0.62500000  0.87500000  0.75000000  1
  Mg  Mg3  1  0.87500000  0.62500000  0.25000000  1
  Mg  Mg4  1  0.62500000  0.25000000  0.87500000  1
  Mg  Mg5  1  0.87500000  0.75000000  0.62500000  1
  Mg  Mg6  1  0.75000000  0.12500000  0.37500000  1
  Mg  Mg7  1  0.25000000  0.37500000  0.12500000  1
  Mg  Mg8  1  0.37500000  0.12500000  0.25000000  1
  Mg  Mg9  1  0.12500000  0.37500000  0.75000000  1
  Mg  Mg10  1  0.37500000  0.75000000  0.12500000  1
  Mg  Mg11  1  0.12500000  0.25000000  0.37500000  1
  Mn  Mn0  1  0.50000000  0.50000000  0.50000000  1
  Mn  Mn1  1  0.50000000  0.00000000  0.50000000  1
  Mn  Mn2  1  0.00000000  0.50000000  0.50000000  1
  Mn  Mn3  1  0.50000000  0.50000000  0.00000000  1
  Mn  Mn4  1  0.00000000  0.00000000  0.50000000  1
  Mn  Mn5  1  0.00000000  0.50000000  0.00000000  1
  Mn  Mn6  1  0.50000000  0.00000000  0.00000000  1
  Mn  Mn7  1  0.00000000  0.00000000  0.00000000  1
  Ge  Ge0  1  0.12500000  0.75000000  0.87500000  1
  Ge  Ge1  1  0.87500000  0.25000000  0.12500000  1
  Ge  Ge2  1  0.62500000  0.37500000  0.25000000  1
  Ge  Ge3  1  0.75000000  0.87500000  0.12500000  1
  Ge  Ge4  1  0.87500000  0.12500000  0.75000000  1
  Ge  Ge5  1  0.25000000  0.62500000  0.37500000  1
  Ge  Ge6  1  0.75000000  0.37500000  0.62500000  1
  Ge  Ge7  1  0.25000000  0.12500000  0.87500000  1
  Ge  Ge8  1  0.12500000  0.87500000  0.25000000  1
  Ge  Ge9  1  0.37500000  0.62500000  0.75000000  1
  Ge  Ge10  1  0.62500000  0.75000000  0.37500000  1
  Ge  Ge11  1  0.37500000  0.25000000  0.62500000  1
  O  O0  1  0.41642200  0.81710700  0.78774800  1
  O  O1  1  0.87132700  0.40068500  0.08357800  1
  O  O2  1  0.09931500  0.97064200  0.68289300  1
  O  O3  1  0.52935800  0.62867300  0.71225200  1
  O  O4  1  0.68289300  0.08357800  0.71225200  1
  O  O5  1  0.62867300  0.71225200  0.52935800  1
  O  O6  1  0.62867300  0.41642200  0.09931500  1
  O  O7  1  0.71225200  0.52935800  0.62867300  1
  O  O8  1  0.81710700  0.52935800  0.40068500  1
  O  O9  1  0.97064200  0.78774800  0.87132700  1
  O  O10  1  0.78774800  0.87132700  0.97064200  1
  O  O11  1  0.71225200  0.68289300  0.08357800  1
  O  O12  1  0.41642200  0.09931500  0.62867300  1
  O  O13  1  0.40068500  0.81710700  0.52935800  1
  O  O14  1  0.08357800  0.71225200  0.68289300  1
  O  O15  1  0.09931500  0.62867300  0.41642200  1
  O  O16  1  0.52935800  0.40068500  0.81710700  1
  O  O17  1  0.08357800  0.87132700  0.40068500  1
  O  O18  1  0.97064200  0.68289300  0.09931500  1
  O  O19  1  0.18289300  0.47064200  0.59931500  1
  O  O20  1  0.68289300  0.09931500  0.97064200  1
  O  O21  1  0.78774800  0.41642200  0.81710700  1
  O  O22  1  0.40068500  0.08357800  0.87132700  1
  O  O23  1  0.87132700  0.97064200  0.78774800  1
  O  O24  1  0.58357800  0.18289300  0.21225200  1
  O  O25  1  0.12867300  0.59931500  0.91642200  1
  O  O26  1  0.90068500  0.02935800  0.31710700  1
  O  O27  1  0.47064200  0.37132700  0.28774800  1
  O  O28  1  0.31710700  0.91642200  0.28774800  1
  O  O29  1  0.37132700  0.28774800  0.47064200  1
  O  O30  1  0.37132700  0.58357800  0.90068500  1
  O  O31  1  0.28774800  0.47064200  0.37132700  1
  O  O32  1  0.12867300  0.02935800  0.21225200  1
  O  O33  1  0.59931500  0.91642200  0.12867300  1
  O  O34  1  0.21225200  0.58357800  0.18289300  1
  O  O35  1  0.18289300  0.21225200  0.58357800  1
  O  O36  1  0.31710700  0.90068500  0.02935800  1
  O  O37  1  0.02935800  0.31710700  0.90068500  1
  O  O38  1  0.91642200  0.12867300  0.59931500  1
  O  O39  1  0.47064200  0.59931500  0.18289300  1
  O  O40  1  0.90068500  0.37132700  0.58357800  1
  O  O41  1  0.91642200  0.28774800  0.31710700  1
  O  O42  1  0.59931500  0.18289300  0.47064200  1
  O  O43  1  0.58357800  0.90068500  0.37132700  1
  O  O44  1  0.28774800  0.31710700  0.91642200  1
  O  O45  1  0.21225200  0.12867300  0.02935800  1
  O  O46  1  0.02935800  0.21225200  0.12867300  1
  O  O47  1  0.81710700  0.78774800  0.41642200  1
loop_
_geom_bond_atom_site_label_1
_geom_bond_atom_site_label_2
_geom_bond_distance
_geom_bond_site_symmetry_2
Mg0 O22 2.269322 1_565
Mg0 O15 2.269322 1_555
Mg0 O2 2.269322 1_555
Mg0 O13 2.269322 1_555
Mg0 O0 2.392767 1_555
Mg0 O14 2.392767 1_555
Mg0 O17 2.392773 1_555
Mg0 O12 2.392773 1_565
Mg1 O11 2.269316 1_556
Mg1 O21 2.269316 1_555
Mg1 O7 2.269325 1_555
Mg1 O10 2.269325 1_555
Mg1 O9 2.392768 1_555
Mg1 O3 2.392768 1_555
Mg1 O16 2.392773 1_555
Mg1 O18 2.392773 1_556
Mg2 O4 2.269316 1_565
Mg2 O0 2.269316 1_555
Mg2 O3 2.269325 1_555
Mg2 O23 2.269325 1_555
Mg2 O5 2.392768 1_555
Mg2 O10 2.392768 1_555
Mg2 O13 2.392773 1_555
Mg2 O20 2.392773 1_565
Mg3 O17 2.269322 1_655
Mg3 O18 2.269322 1_555
Mg3 O6 2.269322 1_555
Mg3 O8 2.269322 1_555
Mg3 O47 2.392767 1_555
Mg3 O11 2.392767 1_555
Mg3 O1 2.392773 1_555
Mg3 O15 2.392773 1_655
Mg4 O12 2.269322 1_555
Mg4 O1 2.269322 1_556
Mg4 O16 2.269322 1_555
Mg4 O20 2.269322 1_555
Mg4 O4 2.392767 1_555
Mg4 O21 2.392767 1_555
Mg4 O22 2.392773 1_555
Mg4 O6 2.392773 1_556
Mg5 O14 2.269316 1_655
Mg5 O47 2.269316 1_555
Mg5 O5 2.269325 1_555
Mg5 O9 2.269325 1_555
Mg5 O23 2.392768 1_555
Mg5 O7 2.392768 1_555
Mg5 O8 2.392773 1_555
Mg5 O2 2.392773 1_655
Mg6 O26 2.269322 1_555
Mg6 O42 2.269322 1_555
Mg6 O33 2.269322 1_545
Mg6 O40 2.269322 1_555
Mg6 O24 2.392767 1_555
Mg6 O41 2.392767 1_555
Mg6 O38 2.392773 1_555
Mg6 O43 2.392773 1_545
Mg7 O34 2.269316 1_555
Mg7 O44 2.269316 1_554
Mg7 O31 2.269325 1_555
Mg7 O45 2.269325 1_555
Mg7 O27 2.392768 1_555
Mg7 O46 2.392768 1_555
Mg7 O39 2.392773 1_555
Mg7 O37 2.392773 1_554
Mg8 O24 2.269316 1_555
Mg8 O28 2.269316 1_545
Mg8 O32 2.269325 1_555
Mg8 O27 2.269325 1_555
Mg8 O29 2.392768 1_555
Mg8 O45 2.392768 1_555
Mg8 O42 2.392773 1_555
Mg8 O36 2.392773 1_545
Mg9 O19 2.269322 1_555
Mg9 O37 2.269322 1_555
Mg9 O30 2.269322 1_555
Mg9 O38 2.269322 1_455
Mg9 O35 2.392767 1_555
Mg9 O44 2.392767 1_555
Mg9 O40 2.392773 1_455
Mg9 O25 2.392773 1_555
Mg10 O39 2.269322 1_555
Mg10 O36 2.269322 1_555
Mg10 O43 2.269322 1_555
Mg10 O25 2.269322 1_554
Mg10 O34 2.392767 1_555
Mg10 O28 2.392767 1_555
Mg10 O33 2.392773 1_555
Mg10 O30 2.392773 1_554
Mg11 O41 2.269316 1_455
Mg11 O35 2.269316 1_555
Mg11 O46 2.269325 1_555
Mg11 O29 2.269325 1_555
Mg11 O31 2.392768 1_555
Mg11 O32 2.392768 1_555
Mg11 O26 2.392773 1_455
Mg11 O19 2.392773 1_555
Mn0 O7 2.030818 1_555
Mn0 O27 2.030818 1_555
Mn0 O5 2.030818 1_555
Mn0 O29 2.030818 1_555
Mn0 O31 2.030818 1_555
Mn0 O3 2.030818 1_555
Mn1 O13 2.030809 1_545
Mn1 O43 2.030809 1_545
Mn1 O42 2.030809 1_555
Mn1 O12 2.030809 1_555
Mn1 O28 2.030816 1_545
Mn1 O4 2.030816 1_555
Mn2 O15 2.030809 1_555
Mn2 O8 2.030809 1_455
Mn2 O19 2.030809 1_555
Mn2 O40 2.030809 1_455
Mn2 O14 2.030816 1_555
Mn2 O41 2.030816 1_455
Mn3 O39 2.030809 1_555
Mn3 O16 2.030809 1_554
Mn3 O6 2.030809 1_555
Mn3 O30 2.030809 1_554
Mn3 O11 2.030816 1_555
Mn3 O44 2.030816 1_554
Mn4 O26 2.030809 1_455
Mn4 O2 2.030809 1_545
Mn4 O38 2.030809 1_455
Mn4 O17 2.030809 1_545
Mn4 O35 2.030816 1_555
Mn4 O47 2.030816 1_445
Mn5 O37 2.030809 1_554
Mn5 O18 2.030809 1_455
Mn5 O1 2.030809 1_455
Mn5 O25 2.030809 1_554
Mn5 O34 2.030816 1_555
Mn5 O21 2.030816 1_454
Mn6 O22 2.030809 1_554
Mn6 O20 2.030809 1_554
Mn6 O36 2.030809 1_545
Mn6 O33 2.030809 1_545
Mn6 O0 2.030816 1_544
Mn6 O24 2.030816 1_555
Mn7 O23 2.030818 1_444
Mn7 O46 2.030818 1_555
Mn7 O10 2.030818 1_444
Mn7 O32 2.030818 1_555
Mn7 O9 2.030818 1_444
Mn7 O45 2.030818 1_555
Ge0 O9 1.779564 1_455
Ge0 O25 1.779569 1_555
Ge0 O36 1.779569 1_556
Ge0 O14 1.779572 1_555
Ge1 O46 1.779564 1_655
Ge1 O1 1.779569 1_555
Ge1 O20 1.779569 1_554
Ge1 O41 1.779572 1_555
Ge2 O27 1.779564 1_555
Ge2 O8 1.779569 1_555
Ge2 O6 1.779569 1_555
Ge2 O24 1.779572 1_555
Ge3 O10 1.779564 1_554
Ge3 O33 1.779569 1_555
Ge3 O26 1.779569 1_565
Ge3 O11 1.779572 1_555
Ge4 O23 1.779564 1_545
Ge4 O38 1.779569 1_555
Ge4 O37 1.779569 1_655
Ge4 O4 1.779572 1_555
Ge5 O31 1.779564 1_555
Ge5 O13 1.779569 1_555
Ge5 O15 1.779569 1_555
Ge5 O34 1.779572 1_555
Ge6 O7 1.779564 1_555
Ge6 O40 1.779569 1_555
Ge6 O42 1.779569 1_555
Ge6 O21 1.779572 1_555
Ge7 O45 1.779564 1_556
Ge7 O2 1.779569 1_545
Ge7 O22 1.779569 1_555
Ge7 O44 1.779572 1_555
Ge8 O32 1.779564 1_565
Ge8 O17 1.779569 1_555
Ge8 O18 1.779569 1_455
Ge8 O28 1.779572 1_555
Ge9 O3 1.779564 1_555
Ge9 O30 1.779569 1_555
Ge9 O19 1.779569 1_555
Ge9 O0 1.779572 1_555
Ge10 O5 1.779564 1_555
Ge10 O43 1.779569 1_555
Ge10 O39 1.779569 1_555
Ge10 O47 1.779572 1_555
Ge11 O29 1.779564 1_555
Ge11 O12 1.779569 1_555
Ge11 O16 1.779569 1_555
Ge11 O35 1.779572 1_555
