# generated using pymatgen
data_Ca(B2Pt3)2
_symmetry_space_group_name_H-M   'P 1'
_cell_length_a   6.11501875
_cell_length_b   6.11501875
_cell_length_c   5.28346836
_cell_angle_alpha   90.00000000
_cell_angle_beta   90.00000000
_cell_angle_gamma   120.00000636
_symmetry_Int_Tables_number   1
_chemical_formula_structural   Ca(B2Pt3)2
_chemical_formula_sum   'Ca1 B4 Pt6'
_cell_volume   171.09814482
_cell_formula_units_Z   1
loop_
 _symmetry_equiv_pos_site_id
 _symmetry_equiv_pos_as_xyz
  1  'x, y, z'
loop_
 _atom_site_type_symbol
 _atom_site_label
 _atom_site_symmetry_multiplicity
 _atom_site_fract_x
 _atom_site_fract_y
 _atom_site_fract_z
 _atom_site_occupancy
  Ca  Ca0  1  -0.00000000  -0.00000000  0.50000000  1
  B  B0  1  0.33333300  0.66666700  0.42482458  1
  B  B1  1  0.66666700  0.33333300  0.57517542  1
  B  B2  1  0.66666700  0.33333300  0.92712527  1
  B  B3  1  0.33333300  0.66666700  0.07287473  1
  Pt  Pt0  1  0.51767822  0.48232178  0.24971776  1
  Pt  Pt1  1  0.51767822  0.03535545  0.24971776  1
  Pt  Pt2  1  0.96464455  0.48232178  0.24971776  1
  Pt  Pt3  1  0.48232178  0.51767822  0.75028224  1
  Pt  Pt4  1  0.48232178  0.96464455  0.75028224  1
  Pt  Pt5  1  0.03535545  0.51767822  0.75028224  1
loop_
_geom_bond_atom_site_label_1
_geom_bond_atom_site_label_2
_geom_bond_distance
_geom_bond_site_symmetry_2
Ca0 Pt4 3.336470 1_545
Ca0 Pt2 3.336470 1_455
Ca0 Pt5 3.336470 1_545
Ca0 Pt1 3.336470 1_455
Ca0 Pt3 3.336473 1_555
Ca0 Pt0 3.336473 1_555
Ca0 Pt3 3.336473 1_445
Ca0 Pt0 3.336473 1_445
Ca0 Pt1 3.336476 1_555
Ca0 Pt5 3.336476 1_555
Ca0 Pt4 3.336476 1_445
Ca0 Pt2 3.336476 1_445
B0 B3 1.859516 1_555
B0 Pt1 2.160589 1_565
B0 Pt2 2.160589 1_455
B0 Pt0 2.160598 1_555
B0 Pt4 2.333876 1_555
B0 Pt5 2.333876 1_555
B0 Pt3 2.333876 1_555
B1 B2 1.859516 1_555
B1 Pt4 2.160589 1_545
B1 Pt5 2.160589 1_655
B1 Pt3 2.160598 1_555
B1 Pt1 2.333876 1_555
B1 Pt2 2.333876 1_555
B1 Pt0 2.333876 1_555
B2 Pt4 2.164533 1_545
B2 Pt5 2.164533 1_655
B2 Pt3 2.164542 1_555
B2 Pt2 2.322745 1_556
B2 Pt1 2.322745 1_556
B2 Pt0 2.322745 1_556
B3 Pt1 2.164533 1_565
B3 Pt2 2.164533 1_455
B3 Pt0 2.164542 1_555
B3 Pt4 2.322745 1_554
B3 Pt5 2.322745 1_554
B3 Pt3 2.322745 1_554
