# generated using pymatgen
data_Ca2MgAg3
_symmetry_space_group_name_H-M   'P 1'
_cell_length_a   6.01321479
_cell_length_b   6.01321479
_cell_length_c   9.06319400
_cell_angle_alpha   90.00000000
_cell_angle_beta   90.00000000
_cell_angle_gamma   120.00000874
_symmetry_Int_Tables_number   1
_chemical_formula_structural   Ca2MgAg3
_chemical_formula_sum   'Ca4 Mg2 Ag6'
_cell_volume   283.80843857
_cell_formula_units_Z   2
loop_
 _symmetry_equiv_pos_site_id
 _symmetry_equiv_pos_as_xyz
  1  'x, y, z'
loop_
 _atom_site_type_symbol
 _atom_site_label
 _atom_site_symmetry_multiplicity
 _atom_site_fract_x
 _atom_site_fract_y
 _atom_site_fract_z
 _atom_site_occupancy
  Ca  Ca0  1  0.33333300  0.66666700  0.44074200  1
  Ca  Ca1  1  0.66666700  0.33333300  0.55925800  1
  Ca  Ca2  1  0.66666700  0.33333300  0.94074200  1
  Ca  Ca3  1  0.33333300  0.66666700  0.05925800  1
  Mg  Mg0  1  0.00000000  0.00000000  0.50000000  1
  Mg  Mg1  1  0.00000000  0.00000000  0.00000000  1
  Ag  Ag0  1  0.83105100  0.16894900  0.25000000  1
  Ag  Ag1  1  0.83105100  0.66210300  0.25000000  1
  Ag  Ag2  1  0.33789700  0.16894900  0.25000000  1
  Ag  Ag3  1  0.16894900  0.83105100  0.75000000  1
  Ag  Ag4  1  0.16894900  0.33789700  0.75000000  1
  Ag  Ag5  1  0.66210300  0.83105100  0.75000000  1
loop_
_geom_bond_atom_site_label_1
_geom_bond_atom_site_label_2
_geom_bond_distance
_geom_bond_site_symmetry_2
Ca0 Ca3 3.457463 1_555
Ca0 Mg0 3.513024 1_565
Ca0 Mg0 3.513028 1_665
Ca0 Mg0 3.513028 1_555
Ca0 Ca1 3.634096 1_455
Ca0 Ca1 3.634096 1_565
Ca0 Ca1 3.634106 1_555
Ca1 Ca2 3.457463 1_555
Ca1 Mg0 3.513024 1_655
Ca1 Mg0 3.513028 1_665
Ca1 Mg0 3.513028 1_555
Ca2 Mg1 3.513024 1_656
Ca2 Mg1 3.513028 1_556
Ca2 Mg1 3.513028 1_666
Ca2 Ca3 3.634096 1_546
Ca2 Ca3 3.634096 1_656
Ca2 Ca3 3.634106 1_556
Ca3 Mg1 3.513024 1_565
Ca3 Mg1 3.513028 1_555
Ca3 Mg1 3.513028 1_665
Ag0 Mg1 2.868826 1_655
Ag0 Mg0 2.868826 1_655
Ag0 Ag1 2.965441 1_555
Ag0 Ag2 2.965441 1_555
Ag0 Ag2 3.047774 1_655
Ag0 Ag1 3.047774 1_545
Ag0 Ca1 3.284404 1_555
Ag0 Ca2 3.284404 1_554
Ag0 Ca0 3.468251 1_545
Ag0 Ca0 3.468251 1_655
Ag0 Ca3 3.468251 1_545
Ag0 Ca3 3.468251 1_655
Ag1 Mg0 2.868823 1_665
Ag1 Mg1 2.868823 1_665
Ag1 Ag2 2.965441 1_555
Ag1 Ag2 3.047773 1_665
Ag1 Ca1 3.284409 1_555
Ag1 Ca2 3.284409 1_554
Ag1 Ca0 3.468251 1_655
Ag1 Ca3 3.468251 1_655
Ag1 Ca0 3.468251 1_555
Ag1 Ca3 3.468251 1_555
Ag2 Mg1 2.868823 1_555
Ag2 Mg0 2.868823 1_555
Ag2 Ca1 3.284409 1_555
Ag2 Ca2 3.284409 1_554
Ag2 Ca0 3.468251 1_545
Ag2 Ca3 3.468251 1_545
Ag2 Ca0 3.468251 1_555
Ag2 Ca3 3.468251 1_555
Ag3 Mg0 2.868826 1_565
Ag3 Mg1 2.868826 1_566
Ag3 Ag5 2.965441 1_555
Ag3 Ag4 2.965441 1_555
Ag3 Ag4 3.047774 1_565
Ag3 Ag5 3.047774 1_455
Ag3 Ca3 3.284404 1_556
Ag3 Ca0 3.284404 1_555
Ag3 Ca2 3.468251 1_455
Ag3 Ca2 3.468251 1_565
Ag3 Ca1 3.468251 1_455
Ag3 Ca1 3.468251 1_565
Ag4 Mg1 2.868823 1_556
Ag4 Mg0 2.868823 1_555
Ag4 Ag5 2.965441 1_555
Ag4 Ag5 3.047773 1_445
Ag4 Ca3 3.284409 1_556
Ag4 Ca0 3.284409 1_555
Ag4 Ca2 3.468251 1_455
Ag4 Ca1 3.468251 1_455
Ag4 Ca2 3.468251 1_555
Ag4 Ca1 3.468251 1_555
Ag5 Mg0 2.868823 1_665
Ag5 Mg1 2.868823 1_666
Ag5 Ca3 3.284409 1_556
Ag5 Ca0 3.284409 1_555
Ag5 Ca2 3.468251 1_565
Ag5 Ca1 3.468251 1_565
Ag5 Ca2 3.468251 1_555
Ag5 Ca1 3.468251 1_555
