# generated using pymatgen
data_Eu2In3Ni
_symmetry_space_group_name_H-M   'P 1'
_cell_length_a   7.69774402
_cell_length_b   9.65327974
_cell_length_c   17.10746319
_cell_angle_alpha   90.00027972
_cell_angle_beta   89.99998317
_cell_angle_gamma   89.99212858
_symmetry_Int_Tables_number   1
_chemical_formula_structural   Eu2In3Ni
_chemical_formula_sum   'Eu16 In24 Ni8'
_cell_volume   1271.22951225
_cell_formula_units_Z   8
loop_
 _symmetry_equiv_pos_site_id
 _symmetry_equiv_pos_as_xyz
  1  'x, y, z'
loop_
 _atom_site_type_symbol
 _atom_site_label
 _atom_site_symmetry_multiplicity
 _atom_site_fract_x
 _atom_site_fract_y
 _atom_site_fract_z
 _atom_site_occupancy
  Eu  Eu0_0  1  0.00000000  0.49997650  0.01114100  1
  Eu  Eu0_1  1  0.00000000  0.49997650  0.51114100  1
  Eu  Eu0_2  1  0.00000000  0.99997650  0.01114100  1
  Eu  Eu0_3  1  0.00000000  0.99997650  0.51114100  1
  Eu  Eu0_4  1  0.50000000  0.49997650  0.01114100  1
  Eu  Eu0_5  1  0.50000000  0.49997650  0.51114100  1
  Eu  Eu0_6  1  0.50000000  0.99997650  0.01114100  1
  Eu  Eu0_7  1  0.50000000  0.99997650  0.51114100  1
  Eu  Eu1_0  1  0.00000000  0.24999350  0.24234400  1
  Eu  Eu1_1  1  0.00000000  0.24999350  0.74234400  1
  Eu  Eu1_2  1  0.00000000  0.74999350  0.24234400  1
  Eu  Eu1_3  1  0.00000000  0.74999350  0.74234400  1
  Eu  Eu1_4  1  0.50000000  0.24999350  0.24234400  1
  Eu  Eu1_5  1  0.50000000  0.24999350  0.74234400  1
  Eu  Eu1_6  1  0.50000000  0.74999350  0.24234400  1
  Eu  Eu1_7  1  0.50000000  0.74999350  0.74234400  1
  In  In0_0  1  0.25000000  0.25000200  0.41782100  1
  In  In0_1  1  0.25000000  0.25000200  0.91782100  1
  In  In0_2  1  0.25000000  0.75000200  0.41782100  1
  In  In0_3  1  0.25000000  0.75000200  0.91782100  1
  In  In0_4  1  0.75000000  0.25000200  0.41782100  1
  In  In0_5  1  0.75000000  0.25000200  0.91782100  1
  In  In0_6  1  0.75000000  0.75000200  0.41782100  1
  In  In0_7  1  0.75000000  0.75000200  0.91782100  1
  In  In1_0  1  0.25000000  0.24997450  0.09212200  1
  In  In1_1  1  0.25000000  0.24997450  0.59212200  1
  In  In1_2  1  0.25000000  0.74997450  0.09212200  1
  In  In1_3  1  0.25000000  0.74997450  0.59212200  1
  In  In1_4  1  0.75000000  0.24997450  0.09212200  1
  In  In1_5  1  0.75000000  0.24997450  0.59212200  1
  In  In1_6  1  0.75000000  0.74997450  0.09212200  1
  In  In1_7  1  0.75000000  0.74997450  0.59212200  1
  In  In2_0  1  0.25000000  0.49998450  0.32223800  1
  In  In2_1  1  0.25000000  0.49998450  0.82223800  1
  In  In2_2  1  0.25000000  0.99998450  0.32223800  1
  In  In2_3  1  0.25000000  0.99998450  0.82223800  1
  In  In2_4  1  0.75000000  0.49998450  0.32223800  1
  In  In2_5  1  0.75000000  0.49998450  0.82223800  1
  In  In2_6  1  0.75000000  0.99998450  0.32223800  1
  In  In2_7  1  0.75000000  0.99998450  0.82223800  1
  Ni  Ni0_0  1  0.25000000  0.49996950  0.16433400  1
  Ni  Ni0_1  1  0.25000000  0.49996950  0.66433400  1
  Ni  Ni0_2  1  0.25000000  0.99996950  0.16433400  1
  Ni  Ni0_3  1  0.25000000  0.99996950  0.66433400  1
  Ni  Ni0_4  1  0.75000000  0.49996950  0.16433400  1
  Ni  Ni0_5  1  0.75000000  0.49996950  0.66433400  1
  Ni  Ni0_6  1  0.75000000  0.99996950  0.16433400  1
  Ni  Ni0_7  1  0.75000000  0.99996950  0.66433400  1
loop_
_geom_bond_atom_site_label_1
_geom_bond_atom_site_label_2
_geom_bond_distance
_geom_bond_site_symmetry_2
Eu0_0 Ni0_4 3.251422 1_455
Eu0_0 Ni0_0 3.251423 1_555
Eu0_0 In1_6 3.383111 1_455
Eu0_0 In1_0 3.383149 1_555
Eu0_0 In1_2 3.383489 1_555
Eu0_0 In1_4 3.383525 1_455
Eu0_0 In0_1 3.474734 1_554
Eu0_0 In0_7 3.475087 1_454
Eu0_0 In0_5 3.475102 1_454
Eu0_0 In0_3 3.475454 1_554
Eu0_0 In2_1 3.761252 1_554
Eu0_0 In2_5 3.761253 1_454
Eu0_0 Eu0_4 3.848872 1_455
Eu0_0 Eu0_4 3.848872 1_555
Eu0_1 Ni0_5 3.251422 1_455
Eu0_1 Ni0_1 3.251423 1_555
Eu0_1 In1_7 3.383111 1_455
Eu0_1 In1_1 3.383149 1_555
Eu0_1 In1_3 3.383489 1_555
Eu0_1 In1_5 3.383525 1_455
Eu0_1 In0_0 3.474734 1_555
Eu0_1 In0_6 3.475087 1_455
Eu0_1 In0_4 3.475102 1_455
Eu0_1 In0_2 3.475454 1_555
Eu0_1 In2_0 3.761252 1_555
Eu0_1 In2_4 3.761253 1_455
Eu0_1 Eu0_5 3.848872 1_555
Eu0_1 Eu0_5 3.848872 1_455
Eu0_2 Ni0_6 3.251422 1_455
Eu0_2 Ni0_2 3.251423 1_555
Eu0_2 In1_4 3.383111 1_465
Eu0_2 In1_2 3.383149 1_555
Eu0_2 In1_0 3.383489 1_565
Eu0_2 In1_6 3.383525 1_455
Eu0_2 In0_3 3.474734 1_554
Eu0_2 In0_5 3.475087 1_464
Eu0_2 In0_7 3.475102 1_454
Eu0_2 In0_1 3.475454 1_564
Eu0_2 In2_3 3.761252 1_554
Eu0_2 In2_7 3.761253 1_454
Eu0_2 Eu0_6 3.848872 1_455
Eu0_2 Eu0_6 3.848872 1_555
Eu0_3 Ni0_7 3.251422 1_455
Eu0_3 Ni0_3 3.251423 1_555
Eu0_3 In1_5 3.383111 1_465
Eu0_3 In1_3 3.383149 1_555
Eu0_3 In1_1 3.383489 1_565
Eu0_3 In1_7 3.383525 1_455
Eu0_3 In0_2 3.474734 1_555
Eu0_3 In0_4 3.475087 1_465
Eu0_3 In0_6 3.475102 1_455
Eu0_3 In0_0 3.475454 1_565
Eu0_3 In2_2 3.761252 1_555
Eu0_3 In2_6 3.761253 1_455
Eu0_3 Eu0_7 3.848872 1_555
Eu0_3 Eu0_7 3.848872 1_455
Eu0_4 Ni0_0 3.251422 1_555
Eu0_4 Ni0_4 3.251423 1_555
Eu0_4 In1_2 3.383111 1_555
Eu0_4 In1_4 3.383149 1_555
Eu0_4 In1_6 3.383489 1_555
Eu0_4 In1_0 3.383525 1_555
Eu0_4 In0_5 3.474734 1_554
Eu0_4 In0_3 3.475087 1_554
Eu0_4 In0_1 3.475102 1_554
Eu0_4 In0_7 3.475454 1_554
Eu0_4 In2_5 3.761252 1_554
Eu0_4 In2_1 3.761253 1_554
Eu0_5 Ni0_1 3.251422 1_555
Eu0_5 Ni0_5 3.251423 1_555
Eu0_5 In1_3 3.383111 1_555
Eu0_5 In1_5 3.383149 1_555
Eu0_5 In1_7 3.383489 1_555
Eu0_5 In1_1 3.383525 1_555
Eu0_5 In0_4 3.474734 1_555
Eu0_5 In0_2 3.475087 1_555
Eu0_5 In0_0 3.475102 1_555
Eu0_5 In0_6 3.475454 1_555
Eu0_5 In2_4 3.761252 1_555
Eu0_5 In2_0 3.761253 1_555
Eu0_6 Ni0_2 3.251422 1_555
Eu0_6 Ni0_6 3.251423 1_555
Eu0_6 In1_0 3.383111 1_565
Eu0_6 In1_6 3.383149 1_555
Eu0_6 In1_4 3.383489 1_565
Eu0_6 In1_2 3.383525 1_555
Eu0_6 In0_7 3.474734 1_554
Eu0_6 In0_1 3.475087 1_564
Eu0_6 In0_3 3.475102 1_554
Eu0_6 In0_5 3.475454 1_564
Eu0_6 In2_7 3.761252 1_554
Eu0_6 In2_3 3.761253 1_554
Eu0_7 Ni0_3 3.251422 1_555
Eu0_7 Ni0_7 3.251423 1_555
Eu0_7 In1_1 3.383111 1_565
Eu0_7 In1_7 3.383149 1_555
Eu0_7 In1_5 3.383489 1_565
Eu0_7 In1_3 3.383525 1_555
Eu0_7 In0_6 3.474734 1_555
Eu0_7 In0_0 3.475087 1_565
Eu0_7 In0_2 3.475102 1_555
Eu0_7 In0_4 3.475454 1_565
Eu0_7 In2_6 3.761252 1_555
Eu0_7 In2_2 3.761253 1_555
Eu1_0 In1_0 3.210596 1_555
Eu1_0 In1_4 3.210597 1_455
Eu1_0 Ni0_4 3.362475 1_455
Eu1_0 Ni0_2 3.362798 1_545
Eu1_0 Ni0_0 3.362854 1_555
Eu1_0 Ni0_6 3.363178 1_445
Eu1_0 In2_4 3.375490 1_455
Eu1_0 In2_2 3.375625 1_545
Eu1_0 In2_0 3.375869 1_555
Eu1_0 In2_6 3.376002 1_445
Eu1_0 In0_4 3.565845 1_455
Eu1_0 In0_0 3.565846 1_555
Eu1_0 Eu1_4 3.848872 1_455
Eu1_0 Eu1_4 3.848872 1_555
Eu1_1 In1_1 3.210596 1_555
Eu1_1 In1_5 3.210597 1_455
Eu1_1 Ni0_5 3.362475 1_455
Eu1_1 Ni0_3 3.362798 1_545
Eu1_1 Ni0_1 3.362854 1_555
Eu1_1 Ni0_7 3.363178 1_445
Eu1_1 In2_5 3.375490 1_455
Eu1_1 In2_3 3.375625 1_545
Eu1_1 In2_1 3.375869 1_555
Eu1_1 In2_7 3.376002 1_445
Eu1_1 In0_5 3.565845 1_455
Eu1_1 In0_1 3.565846 1_555
Eu1_1 Eu1_5 3.848872 1_455
Eu1_1 Eu1_5 3.848872 1_555
Eu1_2 In1_2 3.210596 1_555
Eu1_2 In1_6 3.210597 1_455
Eu1_2 Ni0_6 3.362475 1_455
Eu1_2 Ni0_0 3.362798 1_555
Eu1_2 Ni0_2 3.362854 1_555
Eu1_2 Ni0_4 3.363178 1_455
Eu1_2 In2_6 3.375490 1_455
Eu1_2 In2_0 3.375625 1_555
Eu1_2 In2_2 3.375869 1_555
Eu1_2 In2_4 3.376002 1_455
Eu1_2 In0_6 3.565845 1_455
Eu1_2 In0_2 3.565846 1_555
Eu1_2 Eu1_6 3.848872 1_555
Eu1_2 Eu1_6 3.848872 1_455
Eu1_3 In1_3 3.210596 1_555
Eu1_3 In1_7 3.210597 1_455
Eu1_3 Ni0_7 3.362475 1_455
Eu1_3 Ni0_1 3.362798 1_555
Eu1_3 Ni0_3 3.362854 1_555
Eu1_3 Ni0_5 3.363178 1_455
Eu1_3 In2_7 3.375490 1_455
Eu1_3 In2_1 3.375625 1_555
Eu1_3 In2_3 3.375869 1_555
Eu1_3 In2_5 3.376002 1_455
Eu1_3 In0_7 3.565845 1_455
Eu1_3 In0_3 3.565846 1_555
Eu1_3 Eu1_7 3.848872 1_555
Eu1_3 Eu1_7 3.848872 1_455
Eu1_4 In1_4 3.210596 1_555
Eu1_4 In1_0 3.210597 1_555
Eu1_4 Ni0_0 3.362475 1_555
Eu1_4 Ni0_6 3.362798 1_545
Eu1_4 Ni0_4 3.362854 1_555
Eu1_4 Ni0_2 3.363178 1_545
Eu1_4 In2_0 3.375490 1_555
Eu1_4 In2_6 3.375625 1_545
Eu1_4 In2_4 3.375869 1_555
Eu1_4 In2_2 3.376002 1_545
Eu1_4 In0_0 3.565845 1_555
Eu1_4 In0_4 3.565846 1_555
Eu1_5 In1_5 3.210596 1_555
Eu1_5 In1_1 3.210597 1_555
Eu1_5 Ni0_1 3.362475 1_555
Eu1_5 Ni0_7 3.362798 1_545
Eu1_5 Ni0_5 3.362854 1_555
Eu1_5 Ni0_3 3.363178 1_545
Eu1_5 In2_1 3.375490 1_555
Eu1_5 In2_7 3.375625 1_545
Eu1_5 In2_5 3.375869 1_555
Eu1_5 In2_3 3.376002 1_545
Eu1_5 In0_1 3.565845 1_555
Eu1_5 In0_5 3.565846 1_555
Eu1_6 In1_6 3.210596 1_555
Eu1_6 In1_2 3.210597 1_555
Eu1_6 Ni0_2 3.362475 1_555
Eu1_6 Ni0_4 3.362798 1_555
Eu1_6 Ni0_6 3.362854 1_555
Eu1_6 Ni0_0 3.363178 1_555
Eu1_6 In2_2 3.375490 1_555
Eu1_6 In2_4 3.375625 1_555
Eu1_6 In2_6 3.375869 1_555
Eu1_6 In2_0 3.376002 1_555
Eu1_6 In0_2 3.565845 1_555
Eu1_6 In0_6 3.565846 1_555
Eu1_7 In1_7 3.210596 1_555
Eu1_7 In1_3 3.210597 1_555
Eu1_7 Ni0_3 3.362475 1_555
Eu1_7 Ni0_5 3.362798 1_555
Eu1_7 Ni0_7 3.362854 1_555
Eu1_7 Ni0_1 3.363178 1_555
Eu1_7 In2_3 3.375490 1_555
Eu1_7 In2_5 3.375625 1_555
Eu1_7 In2_7 3.375869 1_555
Eu1_7 In2_1 3.376002 1_555
Eu1_7 In0_3 3.565845 1_555
Eu1_7 In0_7 3.565846 1_555
In0_0 In2_0 2.914989 1_555
In0_0 In2_2 2.915255 1_545
In0_0 In1_1 2.981848 1_555
In0_1 In2_1 2.914989 1_555
In0_1 In2_3 2.915255 1_545
In0_1 In1_0 2.981848 1_556
In0_2 In2_2 2.914989 1_555
In0_2 In2_0 2.915255 1_555
In0_2 In1_3 2.981848 1_555
In0_3 In2_3 2.914989 1_555
In0_3 In2_1 2.915255 1_555
In0_3 In1_2 2.981848 1_556
In0_4 In2_4 2.914989 1_555
In0_4 In2_6 2.915255 1_545
In0_4 In1_5 2.981848 1_555
In0_5 In2_5 2.914989 1_555
In0_5 In2_7 2.915255 1_545
In0_5 In1_4 2.981848 1_556
In0_6 In2_6 2.914989 1_555
In0_6 In2_4 2.915255 1_555
In0_6 In1_7 2.981848 1_555
In0_7 In2_7 2.914989 1_555
In0_7 In2_5 2.915255 1_555
In0_7 In1_6 2.981848 1_556
In1_0 Ni0_0 2.711084 1_555
In1_0 Ni0_2 2.711181 1_545
In1_1 Ni0_1 2.711084 1_555
In1_1 Ni0_3 2.711181 1_545
In1_2 Ni0_2 2.711084 1_555
In1_2 Ni0_0 2.711181 1_555
In1_3 Ni0_3 2.711084 1_555
In1_3 Ni0_1 2.711181 1_555
In1_4 Ni0_4 2.711084 1_555
In1_4 Ni0_6 2.711181 1_545
In1_5 Ni0_5 2.711084 1_555
In1_5 Ni0_7 2.711181 1_545
In1_6 Ni0_6 2.711084 1_555
In1_6 Ni0_4 2.711181 1_555
In1_7 Ni0_7 2.711084 1_555
In1_7 Ni0_5 2.711181 1_555
In2_0 Ni0_0 2.701337 1_555
In2_1 Ni0_1 2.701337 1_555
In2_2 Ni0_2 2.701337 1_555
In2_3 Ni0_3 2.701337 1_555
In2_4 Ni0_4 2.701337 1_555
In2_5 Ni0_5 2.701337 1_555
In2_6 Ni0_6 2.701337 1_555
In2_7 Ni0_7 2.701337 1_555
