# generated using pymatgen
data_Nd(BOs)4
_symmetry_space_group_name_H-M   'P 1'
_cell_length_a   3.99558915
_cell_length_b   7.59842679
_cell_length_c   7.59842679
_cell_angle_alpha   90.00000000
_cell_angle_beta   90.00000000
_cell_angle_gamma   90.00000000
_symmetry_Int_Tables_number   1
_chemical_formula_structural   Nd(BOs)4
_chemical_formula_sum   'Nd2 B8 Os8'
_cell_volume   230.68969350
_cell_formula_units_Z   2
loop_
 _symmetry_equiv_pos_site_id
 _symmetry_equiv_pos_as_xyz
  1  'x, y, z'
loop_
 _atom_site_type_symbol
 _atom_site_label
 _atom_site_symmetry_multiplicity
 _atom_site_fract_x
 _atom_site_fract_y
 _atom_site_fract_z
 _atom_site_occupancy
  Nd  Nd0  1  0.25000000  0.75000000  0.75000000  1
  Nd  Nd1  1  0.75000000  0.25000000  0.25000000  1
  B  B0  1  0.86004123  0.03162160  0.91419055  1
  B  B1  1  0.13995877  0.53162160  0.41419055  1
  B  B2  1  0.36004123  0.08580945  0.53162160  1
  B  B3  1  0.36004123  0.41419055  0.96837840  1
  B  B4  1  0.86004123  0.46837840  0.58580945  1
  B  B5  1  0.13995877  0.96837840  0.08580945  1
  B  B6  1  0.63995877  0.91419055  0.46837840  1
  B  B7  1  0.63995877  0.58580945  0.03162160  1
  Os  Os0  1  0.36125537  0.35644276  0.60399290  1
  Os  Os1  1  0.36125537  0.14355724  0.89600710  1
  Os  Os2  1  0.86125537  0.39600710  0.85644276  1
  Os  Os3  1  0.13874463  0.89600710  0.35644276  1
  Os  Os4  1  0.63874463  0.64355724  0.39600710  1
  Os  Os5  1  0.63874463  0.85644276  0.10399290  1
  Os  Os6  1  0.13874463  0.60399290  0.14355724  1
  Os  Os7  1  0.86125537  0.10399290  0.64355724  1
loop_
_geom_bond_atom_site_label_1
_geom_bond_atom_site_label_2
_geom_bond_distance
_geom_bond_site_symmetry_2
Nd0 Os7 3.209634 1_465
Nd0 Os2 3.209634 1_455
Nd0 Os4 3.209634 1_555
Nd0 Os5 3.209634 1_556
Nd0 Os3 3.220406 1_555
Nd0 Os6 3.220406 1_556
Nd0 Os0 3.220406 1_555
Nd0 Os1 3.220406 1_565
Nd1 Os6 3.209634 1_655
Nd1 Os3 3.209634 1_645
Nd1 Os1 3.209634 1_554
Nd1 Os0 3.209634 1_555
Nd1 Os7 3.220406 1_555
Nd1 Os2 3.220406 1_554
Nd1 Os5 3.220406 1_545
Nd1 Os4 3.220406 1_555
B0 B5 1.783908 1_646
B0 Os7 2.128650 1_555
B0 Os5 2.152568 1_546
B0 Os1 2.171249 1_555
B0 Os1 2.180158 1_655
B0 Nd0 2.926311 1_645
B0 Nd1 3.075302 1_556
B0 Nd0 3.475177 1_545
B1 B4 1.783908 1_455
B1 Os6 2.128650 1_555
B1 Os0 2.152568 1_555
B1 Os4 2.171249 1_555
B1 Os4 2.180158 1_455
B1 Nd1 2.926311 1_455
B1 Nd0 3.075302 1_555
B1 Nd1 3.475177 1_555
B2 B6 1.783908 1_545
B2 Os0 2.128650 1_555
B2 Os3 2.152568 1_545
B2 Os7 2.171249 1_455
B2 Os7 2.180158 1_555
B2 Nd1 2.926311 1_555
B2 Nd0 3.075302 1_545
B2 Nd1 3.475177 1_455
B3 B7 1.783908 1_556
B3 Os1 2.128650 1_555
B3 Os6 2.152568 1_556
B3 Os2 2.171249 1_455
B3 Os2 2.180158 1_555
B3 Nd1 2.926311 1_556
B3 Nd0 3.075302 1_555
B3 Nd1 3.475177 1_456
B4 Os2 2.128650 1_555
B4 Os4 2.152568 1_555
B4 Os0 2.171249 1_555
B4 Os0 2.180158 1_655
B4 Nd0 2.926311 1_655
B4 Nd1 3.075302 1_555
B4 Nd0 3.475177 1_555
B5 Os3 2.128650 1_555
B5 Os1 2.152568 1_564
B5 Os5 2.171249 1_555
B5 Os5 2.180158 1_455
B5 Nd1 2.926311 1_465
B5 Nd0 3.075302 1_554
B5 Nd1 3.475177 1_565
B6 Os4 2.128650 1_555
B6 Os7 2.152568 1_565
B6 Os3 2.171249 1_655
B6 Os3 2.180158 1_555
B6 Nd0 2.926311 1_555
B6 Nd1 3.075302 1_565
B6 Nd0 3.475177 1_655
B7 Os5 2.128650 1_555
B7 Os2 2.152568 1_554
B7 Os6 2.171249 1_655
B7 Os6 2.180158 1_555
B7 Nd0 2.926311 1_554
B7 Nd1 3.075302 1_555
B7 Nd0 3.475177 1_654
