# generated using pymatgen
data_Na3CoBSO7
_symmetry_space_group_name_H-M   'P 1'
_cell_length_a   5.27926152
_cell_length_b   8.99045477
_cell_length_c   6.85480123
_cell_angle_alpha   90.01565969
_cell_angle_beta   90.15300213
_cell_angle_gamma   88.58469118
_symmetry_Int_Tables_number   1
_chemical_formula_structural   Na3CoBSO7
_chemical_formula_sum   'Na6 Co2 B2 S2 O14'
_cell_volume   325.24874772
_cell_formula_units_Z   2
loop_
 _symmetry_equiv_pos_site_id
 _symmetry_equiv_pos_as_xyz
  1  'x, y, z'
loop_
 _atom_site_type_symbol
 _atom_site_label
 _atom_site_symmetry_multiplicity
 _atom_site_fract_x
 _atom_site_fract_y
 _atom_site_fract_z
 _atom_site_occupancy
  Na  Na0  1  0.74798100  0.06393700  0.24989100  1
  Na  Na1  1  0.25128600  0.93520900  0.75019000  1
  Na  Na2  1  0.24313700  0.23918700  0.99198700  1
  Na  Na3  1  0.24244700  0.23903000  0.50778100  1
  Na  Na4  1  0.75838900  0.76069600  0.49198900  1
  Na  Na5  1  0.75627900  0.75945000  0.00639100  1
  Co  Co0  1  0.23422300  0.66362800  0.25320500  1
  Co  Co1  1  0.76642100  0.33634700  0.74988400  1
  B  B0  1  0.73329100  0.06565600  0.74981300  1
  B  B1  1  0.26621100  0.93413900  0.24976200  1
  S  S0  1  0.71472400  0.41890100  0.24990100  1
  S  S1  1  0.28564500  0.58171400  0.75020100  1
  O  O0  1  0.28897200  0.08457800  0.24955800  1
  O  O1  1  0.71069500  0.91526600  0.74952500  1
  O  O2  1  0.96581000  0.13808900  0.75009900  1
  O  O3  1  0.03375300  0.86188600  0.25407000  1
  O  O4  1  0.52379300  0.16560300  0.74983800  1
  O  O5  1  0.47597800  0.83433600  0.24589700  1
  O  O6  1  0.43490800  0.45402500  0.25014700  1
  O  O7  1  0.56568800  0.54681100  0.74986500  1
  O  O8  1  0.14484700  0.44000700  0.74998700  1
  O  O9  1  0.85578300  0.56044500  0.25061700  1
  O  O10  1  0.78054900  0.32688100  0.07502400  1
  O  O11  1  0.78142600  0.32657900  0.42456600  1
  O  O12  1  0.21822800  0.67372200  0.57521000  1
  O  O13  1  0.21953500  0.67388100  0.92460100  1
loop_
_geom_bond_atom_site_label_1
_geom_bond_atom_site_label_2
_geom_bond_distance
_geom_bond_site_symmetry_2
Na0 O3 2.332615 1_645
Na0 O0 2.425744 1_555
Na0 O5 2.543610 1_545
Na0 O11 2.656760 1_555
Na0 O10 2.660367 1_555
Na0 O0 2.866633 1_655
Na1 O2 2.337194 1_465
Na1 O1 2.427554 1_555
Na1 O4 2.550957 1_565
Na1 O13 2.645648 1_555
Na1 O12 2.648287 1_555
Na1 O1 2.863956 1_455
Na2 O0 2.256202 1_556
Na2 O4 2.313501 1_555
Na2 O2 2.402267 1_455
Na2 O8 2.496305 1_555
Na2 O10 2.611822 1_456
Na2 O6 2.823544 1_556
Na3 O0 2.259599 1_555
Na3 O4 2.309550 1_555
Na3 O2 2.407231 1_455
Na3 O8 2.498746 1_555
Na3 O11 2.601296 1_455
Na3 O6 2.827685 1_555
Na4 O1 2.257161 1_555
Na4 O5 2.333507 1_555
Na4 O3 2.383176 1_655
Na4 O9 2.490054 1_555
Na4 O12 2.594074 1_655
Na4 O7 2.822303 1_555
Na5 O1 2.258991 1_554
Na5 O5 2.302517 1_555
Na5 O3 2.434943 1_655
Na5 O9 2.496033 1_555
Na5 O13 2.607971 1_654
Na5 O7 2.800518 1_554
Co0 O5 2.020891 1_555
Co0 O3 2.050366 1_555
Co0 O6 2.139030 1_555
Co0 O12 2.210873 1_555
Co0 O9 2.223458 1_455
Co0 O13 2.255474 1_554
Co1 O4 2.023426 1_555
Co1 O2 2.047533 1_555
Co1 O7 2.145752 1_555
Co1 O8 2.225251 1_655
Co1 O10 2.231395 1_556
Co1 O11 2.233235 1_555
B0 O1 1.360259 1_545
B0 O2 1.403700 1_555
B0 O4 1.407678 1_555
B1 O0 1.360797 1_565
B1 O3 1.403016 1_555
B1 O5 1.408272 1_555
O6 S0 1.502955 1_555
O7 S1 1.503762 1_555
O8 S1 1.490767 1_555
O9 S0 1.490216 1_555
O10 S0 1.493206 1_555
O11 S0 1.493417 1_555
O12 S1 1.494493 1_555
O13 S1 1.491641 1_555
