# generated using pymatgen
data_Cs3(Cu4Se3)2
_symmetry_space_group_name_H-M   'P 1'
_cell_length_a   4.03693002
_cell_length_b   9.84070957
_cell_length_c   10.52752697
_cell_angle_alpha   106.63601931
_cell_angle_beta   89.99288850
_cell_angle_gamma   101.83042173
_symmetry_Int_Tables_number   1
_chemical_formula_structural   Cs3(Cu4Se3)2
_chemical_formula_sum   'Cs3 Cu8 Se6'
_cell_volume   391.43637396
_cell_formula_units_Z   1
loop_
 _symmetry_equiv_pos_site_id
 _symmetry_equiv_pos_as_xyz
  1  'x, y, z'
loop_
 _atom_site_type_symbol
 _atom_site_label
 _atom_site_symmetry_multiplicity
 _atom_site_fract_x
 _atom_site_fract_y
 _atom_site_fract_z
 _atom_site_occupancy
  Cs  Cs0  1  0.50003900  0.00005900  0.99999400  1
  Cs  Cs1  1  0.68801900  0.37609400  0.30439200  1
  Cs  Cs2  1  0.31184800  0.62363300  0.69557900  1
  Cu  Cu0  1  0.29612400  0.59250200  0.07184700  1
  Cu  Cu1  1  0.70372900  0.40724600  0.92806800  1
  Cu  Cu2  1  0.88905600  0.77795200  0.22055300  1
  Cu  Cu3  1  0.11104100  0.22221800  0.77933100  1
  Cu  Cu4  1  0.52492300  0.05002400  0.64547100  1
  Cu  Cu5  1  0.47517400  0.95013400  0.35457900  1
  Cu  Cu6  1  0.08027100  0.16065400  0.53355600  1
  Cu  Cu7  1  0.91981900  0.83953400  0.46667500  1
  Se  Se0  1  0.83867200  0.67757300  0.98553300  1
  Se  Se1  1  0.16129000  0.32239100  0.01452800  1
  Se  Se2  1  0.02997500  0.05988500  0.29924500  1
  Se  Se3  1  0.96999300  0.94000700  0.70070100  1
  Se  Se4  1  0.65229200  0.30465400  0.64893700  1
  Se  Se5  1  0.34773700  0.69544200  0.35101100  1
loop_
_geom_bond_atom_site_label_1
_geom_bond_atom_site_label_2
_geom_bond_distance
_geom_bond_site_symmetry_2
Cs0 Se2 3.642391 1_556
Cs0 Se3 3.642554 1_545
Cs0 Se2 3.642992 1_656
Cs0 Se3 3.643141 1_445
Cs0 Se1 3.668182 1_556
Cs0 Se1 3.668923 1_656
Cs0 Se0 3.669491 1_545
Cs0 Se0 3.670405 1_445
Cs1 Se1 3.567934 1_555
Cs1 Se1 3.568006 1_655
Cs1 Se5 3.590366 1_555
Cs1 Se5 3.590980 1_655
Cs1 Se2 3.640900 1_655
Cs1 Se2 3.640975 1_555
Cs1 Se4 3.884591 1_555
Cs2 Se0 3.568411 1_555
Cs2 Se0 3.568590 1_455
Cs2 Se4 3.587385 1_555
Cs2 Se4 3.588102 1_455
Cs2 Se3 3.642242 1_455
Cs2 Se3 3.642400 1_555
Cs2 Se5 3.886431 1_555
Cu0 Se0 2.450859 1_454
Cu0 Se0 2.450892 1_554
Cu0 Se1 2.492840 1_555
Cu0 Se5 2.813489 1_555
Cu1 Se1 2.450663 1_656
Cu1 Se1 2.450688 1_556
Cu1 Se0 2.494767 1_555
Cu1 Se4 2.813007 1_555
Cu2 Se0 2.378453 1_554
Cu2 Se2 2.596972 1_665
Cu2 Se5 2.688823 1_655
Cu2 Se5 2.689074 1_555
Cu3 Se1 2.379969 1_556
Cu3 Se3 2.599513 1_445
Cu3 Se4 2.688198 1_455
Cu3 Se4 2.688261 1_555
Cu4 Se3 2.427835 1_445
Cu4 Se3 2.428305 1_545
Cu4 Se4 2.442092 1_555
Cu5 Se2 2.426953 1_665
Cu5 Se2 2.427398 1_565
Cu5 Se5 2.442390 1_555
Cu6 Se2 2.371969 1_555
Cu6 Se4 2.546824 1_455
Cu6 Se4 2.547417 1_555
Cu7 Se3 2.368909 1_555
Cu7 Se5 2.548082 1_655
Cu7 Se5 2.548772 1_555
