# generated using pymatgen
data_Mg2NiH4
_symmetry_space_group_name_H-M   'P 1'
_cell_length_a   6.36824000
_cell_length_b   6.45596700
_cell_length_c   13.10241500
_cell_angle_alpha   90.00000000
_cell_angle_beta   90.00000000
_cell_angle_gamma   90.00000000
_symmetry_Int_Tables_number   1
_chemical_formula_structural   Mg2NiH4
_chemical_formula_sum   'Mg16 Ni8 H32'
_cell_volume   538.68151772
_cell_formula_units_Z   8
loop_
 _symmetry_equiv_pos_site_id
 _symmetry_equiv_pos_as_xyz
  1  'x, y, z'
loop_
 _atom_site_type_symbol
 _atom_site_label
 _atom_site_symmetry_multiplicity
 _atom_site_fract_x
 _atom_site_fract_y
 _atom_site_fract_z
 _atom_site_occupancy
  Mg  Mg0  1  0.76141700  0.56731900  0.51352800  1
  Mg  Mg1  1  0.73858300  0.56731900  0.98647200  1
  Mg  Mg2  1  0.75000000  0.55635900  0.75000000  1
  Mg  Mg3  1  0.25000000  0.53007100  0.75000000  1
  Mg  Mg4  1  0.75000000  0.46992900  0.25000000  1
  Mg  Mg5  1  0.25000000  0.44364100  0.25000000  1
  Mg  Mg6  1  0.23858300  0.43268100  0.48647200  1
  Mg  Mg7  1  0.26141700  0.43268100  0.01352800  1
  Mg  Mg8  1  0.76141700  0.06731900  0.98647200  1
  Mg  Mg9  1  0.73858300  0.06731900  0.51352800  1
  Mg  Mg10  1  0.75000000  0.05635900  0.75000000  1
  Mg  Mg11  1  0.25000000  0.03007100  0.75000000  1
  Mg  Mg12  1  0.75000000  0.96992900  0.25000000  1
  Mg  Mg13  1  0.25000000  0.94364100  0.25000000  1
  Mg  Mg14  1  0.23858300  0.93268100  0.01352800  1
  Mg  Mg15  1  0.26141700  0.93268100  0.48647200  1
  Ni  Ni0  1  0.01709500  0.69507800  0.36888200  1
  Ni  Ni1  1  0.48290500  0.69507800  0.13111800  1
  Ni  Ni2  1  0.98290500  0.30492200  0.63111800  1
  Ni  Ni3  1  0.51709500  0.30492200  0.86888200  1
  Ni  Ni4  1  0.01709500  0.19507800  0.13111800  1
  Ni  Ni5  1  0.48290500  0.19507800  0.36888200  1
  Ni  Ni6  1  0.98290500  0.80492200  0.86888200  1
  Ni  Ni7  1  0.51709500  0.80492200  0.63111800  1
  H  H0  1  0.03228500  0.76264400  0.75482900  1
  H  H1  1  0.46771500  0.76264400  0.74517100  1
  H  H2  1  0.96771500  0.73735600  0.25482900  1
  H  H3  1  0.53228500  0.73735600  0.24517100  1
  H  H4  1  0.23838300  0.68434100  0.12636500  1
  H  H5  1  0.26161700  0.68434100  0.37363500  1
  H  H6  1  0.05545000  0.66206100  0.95948300  1
  H  H7  1  0.44455000  0.66206100  0.54051700  1
  H  H8  1  0.06459500  0.52903900  0.61007600  1
  H  H9  1  0.43540500  0.52903900  0.88992400  1
  H  H10  1  0.93540500  0.47096100  0.38992400  1
  H  H11  1  0.56459500  0.47096100  0.11007600  1
  H  H12  1  0.94455000  0.33793900  0.04051700  1
  H  H13  1  0.55545000  0.33793900  0.45948300  1
  H  H14  1  0.76161700  0.31565900  0.87363500  1
  H  H15  1  0.73838300  0.31565900  0.62636500  1
  H  H16  1  0.03228500  0.26264400  0.74517100  1
  H  H17  1  0.46771500  0.26264400  0.75482900  1
  H  H18  1  0.96771500  0.23735600  0.24517100  1
  H  H19  1  0.53228500  0.23735600  0.25482900  1
  H  H20  1  0.23838300  0.18434100  0.37363500  1
  H  H21  1  0.26161700  0.18434100  0.12636500  1
  H  H22  1  0.05545000  0.16206100  0.54051700  1
  H  H23  1  0.44455000  0.16206100  0.95948300  1
  H  H24  1  0.06459500  0.02903900  0.88992400  1
  H  H25  1  0.43540500  0.02903900  0.61007600  1
  H  H26  1  0.93540500  0.97096100  0.11007600  1
  H  H27  1  0.56459500  0.97096100  0.38992400  1
  H  H28  1  0.94455000  0.83793900  0.45948300  1
  H  H29  1  0.55545000  0.83793900  0.04051700  1
  H  H30  1  0.76161700  0.81565900  0.62636500  1
  H  H31  1  0.73838300  0.81565900  0.87363500  1
loop_
_geom_bond_atom_site_label_1
_geom_bond_atom_site_label_2
_geom_bond_distance
_geom_bond_site_symmetry_2
H0 Ni6 1.551299 1_455
H0 Mg3 2.044684 1_555
H0 Mg11 2.215193 1_565
H0 Mg2 2.238122 1_455
H1 Ni7 1.551299 1_555
H1 Mg3 2.044684 1_555
H1 Mg11 2.215193 1_565
H1 Mg2 2.238122 1_555
H2 Ni0 1.551299 1_655
H2 Mg12 2.044684 1_555
H2 Mg4 2.215193 1_555
H2 Mg13 2.238122 1_655
H3 Ni1 1.551299 1_555
H3 Mg12 2.044684 1_555
H3 Mg4 2.215193 1_555
H3 Mg13 2.238122 1_555
H4 Ni1 1.559960 1_555
H4 Mg14 2.180887 1_555
H4 Mg7 2.201584 1_555
H4 Mg5 2.245967 1_555
H4 Mg13 2.330663 1_555
H5 Ni0 1.559960 1_555
H5 Mg15 2.180887 1_555
H5 Mg6 2.201584 1_555
H5 Mg5 2.245967 1_555
H5 Mg13 2.330663 1_555
H6 Ni6 1.572662 1_455
H6 Mg7 2.101149 1_556
H6 Mg1 2.137996 1_455
H6 Mg14 2.216742 1_556
H7 Ni7 1.572662 1_555
H7 Mg6 2.101149 1_555
H7 Mg0 2.137996 1_555
H7 Mg15 2.216742 1_555
H8 Ni2 1.562094 1_455
H8 Mg6 2.058510 1_555
H8 Mg3 2.180653 1_555
H8 Mg0 2.321416 1_455
H9 Ni3 1.562094 1_555
H9 Mg7 2.058510 1_556
H9 Mg3 2.180653 1_555
H9 Mg1 2.321416 1_555
H10 Ni0 1.562094 1_655
H10 Mg0 2.058510 1_555
H10 Mg4 2.180653 1_555
H10 Mg6 2.321416 1_655
H11 Ni1 1.562094 1_555
H11 Mg1 2.058510 1_554
H11 Mg4 2.180653 1_555
H11 Mg7 2.321416 1_555
H12 Ni4 1.572662 1_655
H12 Mg1 2.101149 1_554
H12 Mg7 2.137996 1_655
H12 Mg8 2.216742 1_554
H13 Ni5 1.572662 1_555
H13 Mg0 2.101149 1_555
H13 Mg6 2.137996 1_555
H13 Mg9 2.216742 1_555
H14 Ni3 1.559960 1_555
H14 Mg8 2.180887 1_555
H14 Mg1 2.201584 1_555
H14 Mg2 2.245967 1_555
H14 Mg10 2.330663 1_555
H15 Ni2 1.559960 1_555
H15 Mg9 2.180887 1_555
H15 Mg0 2.201584 1_555
H15 Mg2 2.245967 1_555
H15 Mg10 2.330663 1_555
H16 Ni2 1.551299 1_455
H16 Mg11 2.044684 1_555
H16 Mg3 2.215193 1_555
H16 Mg10 2.238122 1_455
H17 Ni3 1.551299 1_555
H17 Mg11 2.044684 1_555
H17 Mg3 2.215193 1_555
H17 Mg10 2.238122 1_555
H18 Ni4 1.551299 1_655
H18 Mg4 2.044684 1_555
H18 Mg12 2.215193 1_545
H18 Mg5 2.238122 1_655
H19 Ni5 1.551299 1_555
H19 Mg4 2.044684 1_555
H19 Mg12 2.215193 1_545
H19 Mg5 2.238122 1_555
H20 Ni5 1.559960 1_555
H20 Mg6 2.180887 1_555
H20 Mg15 2.201584 1_545
H20 Mg13 2.245967 1_545
H20 Mg5 2.330663 1_555
H21 Ni4 1.559960 1_555
H21 Mg7 2.180887 1_555
H21 Mg14 2.201584 1_545
H21 Mg13 2.245967 1_545
H21 Mg5 2.330663 1_555
H22 Ni2 1.572662 1_455
H22 Mg15 2.101149 1_545
H22 Mg9 2.137996 1_455
H22 Mg6 2.216742 1_555
H23 Ni3 1.572662 1_555
H23 Mg14 2.101149 1_546
H23 Mg8 2.137996 1_555
H23 Mg7 2.216742 1_556
H24 Ni6 1.562094 1_445
H24 Mg14 2.058510 1_546
H24 Mg11 2.180653 1_555
H24 Mg8 2.321416 1_455
H25 Ni7 1.562094 1_545
H25 Mg15 2.058510 1_545
H25 Mg11 2.180653 1_555
H25 Mg9 2.321416 1_555
H26 Ni4 1.562094 1_665
H26 Mg8 2.058510 1_564
H26 Mg12 2.180653 1_555
H26 Mg14 2.321416 1_655
H27 Ni5 1.562094 1_565
H27 Mg9 2.058510 1_565
H27 Mg12 2.180653 1_555
H27 Mg15 2.321416 1_555
H28 Ni0 1.572662 1_655
H28 Mg9 2.101149 1_565
H28 Mg15 2.137996 1_655
H28 Mg0 2.216742 1_555
H29 Ni1 1.572662 1_555
H29 Mg8 2.101149 1_564
H29 Mg14 2.137996 1_555
H29 Mg1 2.216742 1_554
H30 Ni7 1.559960 1_555
H30 Mg0 2.180887 1_555
H30 Mg9 2.201584 1_565
H30 Mg10 2.245967 1_565
H30 Mg2 2.330663 1_555
H31 Ni6 1.559960 1_555
H31 Mg1 2.180887 1_555
H31 Mg8 2.201584 1_565
H31 Mg10 2.245967 1_565
H31 Mg2 2.330663 1_555
