# generated using pymatgen
data_Na2Mo(H2O3)4
_symmetry_space_group_name_H-M   'P 1'
_cell_length_a   8.73489900
_cell_length_b   9.17008500
_cell_length_c   12.56227054
_cell_angle_alpha   86.30679313
_cell_angle_beta   90.00000000
_cell_angle_gamma   90.00000000
_symmetry_Int_Tables_number   1
_chemical_formula_structural   Na2Mo(H2O3)4
_chemical_formula_sum   'Na8 Mo4 H32 O48'
_cell_volume   1004.14524845
_cell_formula_units_Z   4
loop_
 _symmetry_equiv_pos_site_id
 _symmetry_equiv_pos_as_xyz
  1  'x, y, z'
loop_
 _atom_site_type_symbol
 _atom_site_label
 _atom_site_symmetry_multiplicity
 _atom_site_fract_x
 _atom_site_fract_y
 _atom_site_fract_z
 _atom_site_occupancy
  Na  Na0  1  0.84834300  0.81018700  0.51593700  1
  Na  Na1  1  0.34834300  0.18981300  0.98406300  1
  Na  Na2  1  0.15165700  0.18981300  0.48406300  1
  Na  Na3  1  0.65165700  0.81018700  0.01593700  1
  Na  Na4  1  0.81405100  0.66722700  0.78206600  1
  Na  Na5  1  0.31405100  0.33277300  0.71793400  1
  Na  Na6  1  0.18594900  0.33277300  0.21793400  1
  Na  Na7  1  0.68594900  0.66722700  0.28206600  1
  Mo  Mo0  1  0.23124800  0.76238900  0.62737200  1
  Mo  Mo1  1  0.73124800  0.23761100  0.87262800  1
  Mo  Mo2  1  0.76875200  0.23761100  0.37262800  1
  Mo  Mo3  1  0.26875200  0.76238900  0.12737200  1
  H  H0  1  0.72225200  0.98530400  0.20061500  1
  H  H1  1  0.22225200  0.01469600  0.29938500  1
  H  H2  1  0.27774800  0.01469600  0.79938500  1
  H  H3  1  0.77774800  0.98530400  0.70061500  1
  H  H4  1  0.86513300  0.88959200  0.17591100  1
  H  H5  1  0.36513300  0.11040800  0.32408900  1
  H  H6  1  0.13486700  0.11040800  0.82408900  1
  H  H7  1  0.63486700  0.88959200  0.67591100  1
  H  H8  1  0.51188300  0.78239100  0.45968100  1
  H  H9  1  0.01188300  0.21760900  0.04031900  1
  H  H10  1  0.48811700  0.21760900  0.54031900  1
  H  H11  1  0.98811700  0.78239100  0.95968100  1
  H  H12  1  0.58616900  0.91965200  0.39504200  1
  H  H13  1  0.08616900  0.08034800  0.10495800  1
  H  H14  1  0.41383100  0.08034800  0.60495800  1
  H  H15  1  0.91383100  0.91965200  0.89504200  1
  H  H16  1  0.94904100  0.56081400  0.37910700  1
  H  H17  1  0.44904100  0.43918600  0.12089300  1
  H  H18  1  0.05095900  0.43918600  0.62089300  1
  H  H19  1  0.55095900  0.56081400  0.87910700  1
  H  H20  1  0.01542900  0.71180200  0.32973600  1
  H  H21  1  0.51542900  0.28819800  0.17026400  1
  H  H22  1  0.98457100  0.28819800  0.67026400  1
  H  H23  1  0.48457100  0.71180200  0.82973600  1
  H  H24  1  0.70820900  0.50222400  0.57383400  1
  H  H25  1  0.20820900  0.49777600  0.92616600  1
  H  H26  1  0.29179100  0.49777600  0.42616600  1
  H  H27  1  0.79179100  0.50222400  0.07383400  1
  H  H28  1  0.59292300  0.60514100  0.62163000  1
  H  H29  1  0.09292300  0.39485900  0.87837000  1
  H  H30  1  0.40707700  0.39485900  0.37837000  1
  H  H31  1  0.90707700  0.60514100  0.12163000  1
  O  O0  1  0.42119600  0.88234400  0.65300900  1
  O  O1  1  0.92119600  0.11765600  0.84699100  1
  O  O2  1  0.57880400  0.11765600  0.34699100  1
  O  O3  1  0.07880400  0.88234400  0.15300900  1
  O  O4  1  0.34411400  0.83629400  0.75453900  1
  O  O5  1  0.84411400  0.16370600  0.74546100  1
  O  O6  1  0.65588600  0.16370600  0.24546100  1
  O  O7  1  0.15588600  0.83629400  0.25453900  1
  O  O8  1  0.04637700  0.63591800  0.61327700  1
  O  O9  1  0.54637700  0.36408200  0.88672300  1
  O  O10  1  0.95362300  0.36408200  0.38672300  1
  O  O11  1  0.45362300  0.63591800  0.11327700  1
  O  O12  1  0.08094500  0.66318400  0.72624700  1
  O  O13  1  0.58094500  0.33681600  0.77375300  1
  O  O14  1  0.91905500  0.33681600  0.27375300  1
  O  O15  1  0.41905500  0.66318400  0.22624700  1
  O  O16  1  0.34415400  0.65049300  0.51957100  1
  O  O17  1  0.84415400  0.34950700  0.98042900  1
  O  O18  1  0.65584600  0.34950700  0.48042900  1
  O  O19  1  0.15584600  0.65049300  0.01957100  1
  O  O20  1  0.37116300  0.58736100  0.62945000  1
  O  O21  1  0.87116300  0.41263900  0.87055000  1
  O  O22  1  0.62883700  0.41263900  0.37055000  1
  O  O23  1  0.12883700  0.58736100  0.12945000  1
  O  O24  1  0.10849100  0.94285800  0.61411200  1
  O  O25  1  0.60849100  0.05714200  0.88588800  1
  O  O26  1  0.89150900  0.05714200  0.38588800  1
  O  O27  1  0.39150900  0.94285800  0.11411200  1
  O  O28  1  0.16030400  0.89771100  0.50833200  1
  O  O29  1  0.66030400  0.10228900  0.99166800  1
  O  O30  1  0.83969600  0.10228900  0.49166800  1
  O  O31  1  0.33969600  0.89771100  0.00833200  1
  O  O32  1  0.75291200  0.88666300  0.18198100  1
  O  O33  1  0.25291200  0.11333700  0.31801900  1
  O  O34  1  0.24708800  0.11333700  0.81801900  1
  O  O35  1  0.74708800  0.88666300  0.68198100  1
  O  O36  1  0.60485900  0.81795000  0.42290400  1
  O  O37  1  0.10485900  0.18205000  0.07709600  1
  O  O38  1  0.39514100  0.18205000  0.57709600  1
  O  O39  1  0.89514100  0.81795000  0.92290400  1
  O  O40  1  0.92857400  0.66706400  0.36981900  1
  O  O41  1  0.42857400  0.33293600  0.13018100  1
  O  O42  1  0.07142600  0.33293600  0.63018100  1
  O  O43  1  0.57142600  0.66706400  0.86981900  1
  O  O44  1  0.70367600  0.59277800  0.61169700  1
  O  O45  1  0.20367600  0.40722200  0.88830300  1
  O  O46  1  0.29632400  0.40722200  0.38830300  1
  O  O47  1  0.79632400  0.59277800  0.11169700  1
loop_
_geom_bond_atom_site_label_1
_geom_bond_atom_site_label_2
_geom_bond_distance
_geom_bond_site_symmetry_2
Na0 O35 2.411110 1_555
Na0 O36 2.425600 1_555
Na0 O40 2.427622 1_555
Na0 O44 2.590298 1_555
Na0 O8 2.605677 1_655
Na0 O30 2.677377 1_565
Na0 O26 2.731842 1_565
Na0 O28 2.840556 1_655
Na0 O24 2.891039 1_655
Na1 O34 2.411110 1_555
Na1 O37 2.425600 1_556
Na1 O41 2.427622 1_556
Na1 O45 2.590298 1_555
Na1 O9 2.605677 1_555
Na1 O31 2.677377 1_546
Na1 O27 2.731842 1_546
Na1 O29 2.840556 1_555
Na1 O25 2.891039 1_555
Na2 O33 2.411110 1_555
Na2 O38 2.425600 1_555
Na2 O42 2.427622 1_555
Na2 O46 2.590298 1_555
Na2 O10 2.605677 1_455
Na2 O28 2.677377 1_545
Na2 O24 2.731842 1_545
Na2 O30 2.840556 1_455
Na2 O26 2.891039 1_455
Na3 O32 2.411110 1_555
Na3 O39 2.425600 1_554
Na3 O43 2.427622 1_554
Na3 O47 2.590298 1_555
Na3 O11 2.605677 1_555
Na3 O29 2.677377 1_564
Na3 O25 2.731842 1_564
Na3 O31 2.840556 1_555
Na3 O27 2.891039 1_555
Na4 O35 2.376157 1_555
Na4 O43 2.388824 1_555
Na4 O39 2.420182 1_555
Na4 O12 2.435436 1_655
Na4 O44 2.482818 1_555
Na4 O21 2.569134 1_555
Na5 O34 2.376157 1_555
Na5 O42 2.388824 1_555
Na5 O38 2.420182 1_555
Na5 O13 2.435436 1_555
Na5 O45 2.482818 1_555
Na5 O20 2.569134 1_555
Na6 O33 2.376157 1_555
Na6 O41 2.388824 1_555
Na6 O37 2.420182 1_555
Na6 O14 2.435436 1_455
Na6 O46 2.482818 1_555
Na6 O23 2.569134 1_555
Na7 O32 2.376157 1_555
Na7 O40 2.388824 1_555
Na7 O36 2.420182 1_555
Na7 O15 2.435436 1_555
Na7 O47 2.482818 1_555
Na7 O22 2.569134 1_555
Mo0 O24 1.969960 1_555
Mo0 O28 1.980171 1_555
Mo0 O12 1.987077 1_555
Mo0 O8 2.002624 1_555
Mo0 O16 2.009589 1_555
Mo0 O20 2.016188 1_555
Mo0 O0 2.027862 1_555
Mo0 O4 2.030455 1_555
Mo1 O25 1.969960 1_555
Mo1 O29 1.980171 1_555
Mo1 O13 1.987077 1_555
Mo1 O9 2.002624 1_555
Mo1 O17 2.009589 1_555
Mo1 O21 2.016188 1_555
Mo1 O1 2.027862 1_555
Mo1 O5 2.030455 1_555
Mo2 O26 1.969960 1_555
Mo2 O30 1.980171 1_555
Mo2 O14 1.987077 1_555
Mo2 O10 2.002624 1_555
Mo2 O18 2.009589 1_555
Mo2 O22 2.016188 1_555
Mo2 O2 2.027862 1_555
Mo2 O6 2.030455 1_555
Mo3 O27 1.969960 1_555
Mo3 O31 1.980171 1_555
Mo3 O15 1.987077 1_555
Mo3 O11 2.002624 1_555
Mo3 O19 2.009589 1_555
Mo3 O23 2.016188 1_555
Mo3 O3 2.027862 1_555
Mo3 O7 2.030455 1_555
H0 O32 0.985901 1_555
H1 O33 0.985901 1_555
H2 O34 0.985901 1_555
H3 O35 0.985901 1_555
H4 O32 0.983433 1_555
H5 O33 0.983433 1_555
H6 O34 0.983433 1_555
H7 O35 0.983433 1_555
H8 O36 0.979761 1_555
H9 O37 0.979761 1_555
H10 O38 0.979761 1_555
H11 O39 0.979761 1_555
H12 O36 0.988372 1_555
H13 O37 0.988372 1_555
H14 O38 0.988372 1_555
H15 O39 0.988372 1_555
H16 O40 0.990067 1_555
H17 O41 0.990067 1_555
H18 O42 0.990067 1_555
H19 O43 0.990067 1_555
H20 O40 0.985301 1_455
H21 O41 0.985301 1_555
H22 O42 0.985301 1_655
H23 O43 0.985301 1_555
H24 O44 0.983989 1_555
H25 O45 0.983989 1_555
H26 O46 0.983989 1_555
H27 O47 0.983989 1_555
H28 O44 0.982924 1_555
H29 O45 0.982924 1_555
H30 O46 0.982924 1_555
H31 O47 0.982924 1_555
O0 O4 1.479540 1_555
O1 O5 1.479540 1_555
O2 O6 1.479540 1_555
O3 O7 1.479540 1_555
O10 O14 1.487755 1_555
O11 O15 1.487755 1_555
O12 O8 1.487755 1_555
O13 O9 1.487755 1_555
O16 O20 1.480938 1_555
O17 O21 1.480938 1_555
O18 O22 1.480938 1_555
O19 O23 1.480938 1_555
O24 O28 1.487585 1_555
O25 O29 1.487585 1_555
O26 O30 1.487585 1_555
O27 O31 1.487585 1_555
