# generated using pymatgen
data_NaMgN
_symmetry_space_group_name_H-M   'P 1'
_cell_length_a   3.55094800
_cell_length_b   3.55092880
_cell_length_c   8.88036000
_cell_angle_alpha   90.00000000
_cell_angle_beta   90.00000000
_cell_angle_gamma   120.00017891
_symmetry_Int_Tables_number   1
_chemical_formula_structural   NaMgN
_chemical_formula_sum   'Na2 Mg2 N2'
_cell_volume   96.97207686
_cell_formula_units_Z   2
loop_
 _symmetry_equiv_pos_site_id
 _symmetry_equiv_pos_as_xyz
  1  'x, y, z'
loop_
 _atom_site_type_symbol
 _atom_site_label
 _atom_site_symmetry_multiplicity
 _atom_site_fract_x
 _atom_site_fract_y
 _atom_site_fract_z
 _atom_site_occupancy
  Na  Na0  1  0.66666200  0.33332500  0.75537800  1
  Na  Na1  1  0.33333800  0.66667500  0.25537800  1
  Mg  Mg0  1  0.00000300  0.00000700  0.52963400  1
  Mg  Mg1  1  0.99999700  0.99999300  0.02963400  1
  N  N0  1  0.33333800  0.66667500  0.55963000  1
  N  N1  1  0.66666200  0.33332500  0.05963000  1
loop_
_geom_bond_atom_site_label_1
_geom_bond_atom_site_label_2
_geom_bond_distance
_geom_bond_site_symmetry_2
Mg0 N0 2.067363 1_555
Mg0 N0 2.067365 1_445
Mg0 N0 2.067371 1_545
Mg1 N1 2.067363 1_555
Mg1 N1 2.067365 1_665
Mg1 N1 2.067371 1_565
N0 Na0 2.687850 1_565
N0 Na0 2.687915 1_555
N0 Na0 2.687919 1_455
N0 Na1 2.701867 1_555
N1 Na1 2.687850 1_545
N1 Na1 2.687915 1_555
N1 Na1 2.687919 1_655
N1 Na0 2.701867 1_554
