# generated using pymatgen
data_KPtNCl3
_symmetry_space_group_name_H-M   'P 1'
_cell_length_a   9.05948591
_cell_length_b   9.05948591
_cell_length_c   9.45053400
_cell_angle_alpha   90.00000000
_cell_angle_beta   90.00000000
_cell_angle_gamma   152.25368938
_symmetry_Int_Tables_number   1
_chemical_formula_structural   KPtNCl3
_chemical_formula_sum   'K2 Pt2 N2 Cl6'
_cell_volume   361.10775497
_cell_formula_units_Z   2
loop_
 _symmetry_equiv_pos_site_id
 _symmetry_equiv_pos_as_xyz
  1  'x, y, z'
loop_
 _atom_site_type_symbol
 _atom_site_label
 _atom_site_symmetry_multiplicity
 _atom_site_fract_x
 _atom_site_fract_y
 _atom_site_fract_z
 _atom_site_occupancy
  K  K0  1  0.50000000  0.50000000  0.50000000  1
  K  K1  1  0.50000000  0.50000000  0.00000000  1
  Pt  Pt0  1  0.84004900  0.15995100  0.25000000  1
  Pt  Pt1  1  0.15995100  0.84004900  0.75000000  1
  N  N0  1  0.74057300  0.25942700  0.25000000  1
  N  N1  1  0.25942700  0.74057300  0.75000000  1
  Cl  Cl0  1  0.98083500  0.01916500  0.25000000  1
  Cl  Cl1  1  0.01916500  0.98083500  0.75000000  1
  Cl  Cl2  1  0.85427700  0.14572300  0.49458600  1
  Cl  Cl3  1  0.14572300  0.85427700  0.50541400  1
  Cl  Cl4  1  0.85427700  0.14572300  0.00541400  1
  Cl  Cl5  1  0.14572300  0.85427700  0.99458600  1
loop_
_geom_bond_atom_site_label_1
_geom_bond_atom_site_label_2
_geom_bond_distance
_geom_bond_site_symmetry_2
N0 Pt0 1.749825 1_555
N1 Pt1 1.749825 1_555
Cl0 Pt0 2.476485 1_555
Cl0 K0 3.227109 1_545
Cl0 K1 3.227109 1_545
Cl0 K1 3.227109 1_655
Cl0 K0 3.227109 1_655
Cl1 Pt1 2.476485 1_555
Cl1 K0 3.227109 1_455
Cl1 K1 3.227109 1_456
Cl1 K1 3.227109 1_566
Cl1 K0 3.227109 1_565
Cl2 Pt0 2.324978 1_555
Cl2 K0 3.360331 1_655
Cl2 K0 3.360331 1_545
Cl3 Pt1 2.324978 1_555
Cl3 K0 3.360331 1_565
Cl3 K0 3.360331 1_455
Cl4 Pt0 2.324978 1_555
Cl4 K1 3.360331 1_655
Cl4 K1 3.360331 1_545
Cl5 Pt1 2.324978 1_555
Cl5 K1 3.360331 1_456
Cl5 K1 3.360331 1_566
