# generated using pymatgen
data_Li4Mn3Fe2Sn(PO4)6
_symmetry_space_group_name_H-M   'P 1'
_cell_length_a   8.59133100
_cell_length_b   8.66461119
_cell_length_c   8.70287830
_cell_angle_alpha   62.88448522
_cell_angle_beta   63.30426355
_cell_angle_gamma   63.29043952
_symmetry_Int_Tables_number   1
_chemical_formula_structural   Li4Mn3Fe2Sn(PO4)6
_chemical_formula_sum   'Li4 Mn3 Fe2 Sn1 P6 O24'
_cell_volume   490.17605138
_cell_formula_units_Z   1
loop_
 _symmetry_equiv_pos_site_id
 _symmetry_equiv_pos_as_xyz
  1  'x, y, z'
loop_
 _atom_site_type_symbol
 _atom_site_label
 _atom_site_symmetry_multiplicity
 _atom_site_fract_x
 _atom_site_fract_y
 _atom_site_fract_z
 _atom_site_occupancy
  Li  Li0  1  0.25521800  0.64624100  0.84841300  1
  Li  Li1  1  0.70633600  0.35412400  0.15168600  1
  Li  Li2  1  0.36111400  0.14829700  0.70692300  1
  Li  Li3  1  0.14744700  0.70283800  0.36107800  1
  Mn  Mn0  1  0.84862800  0.85074500  0.84702800  1
  Mn  Mn1  1  0.65240500  0.65055200  0.64786700  1
  Mn  Mn2  1  0.34573900  0.34275900  0.34553900  1
  Fe  Fe0  1  0.98353800  0.99629200  0.99621400  1
  Fe  Fe1  1  0.51012700  0.50073600  0.49806300  1
  Sn  Sn0  1  0.14824900  0.14843900  0.15340300  1
  P  P0  1  0.75378400  0.05555700  0.44490400  1
  P  P1  1  0.43421900  0.74982700  0.05240100  1
  P  P2  1  0.06932600  0.45057200  0.75688200  1
  P  P3  1  0.94063500  0.55915100  0.25638700  1
  P  P4  1  0.56001000  0.25259200  0.94406600  1
  P  P5  1  0.25312500  0.94372000  0.56185500  1
  O  O0  1  0.90122800  0.49996000  0.70760800  1
  O  O1  1  0.69537000  0.90213300  0.47121700  1
  O  O2  1  0.94070000  0.73919200  0.09518000  1
  O  O3  1  0.43464600  0.69526700  0.90788600  1
  O  O4  1  0.99086500  0.39576000  0.19049000  1
  O  O5  1  0.74917100  0.56822200  0.39802800  1
  O  O6  1  0.74644500  0.10174900  0.92327700  1
  O  O7  1  0.54893600  0.40939500  0.76323400  1
  O  O8  1  0.83258100  0.01605900  0.58720200  1
  O  O9  1  0.39323700  0.74960300  0.57716900  1
  O  O10  1  0.90072500  0.09100200  0.24056500  1
  O  O11  1  0.59244100  0.81786300  0.99198700  1
  O  O12  1  0.39877100  0.17933000  0.99764100  1
  O  O13  1  0.10156000  0.92513400  0.74916400  1
  O  O14  1  0.60132900  0.24737100  0.42568400  1
  O  O15  1  0.18983300  0.99173100  0.39818100  1
  O  O16  1  0.42597000  0.59765300  0.24271600  1
  O  O17  1  0.23501500  0.90200400  0.09465600  1
  O  O18  1  0.25611400  0.42563800  0.59852400  1
  O  O19  1  0.05905300  0.58780000  0.82738100  1
  O  O20  1  0.53173500  0.31893100  0.09400300  1
  O  O21  1  0.09255200  0.24682100  0.90258000  1
  O  O22  1  0.32479800  0.09108900  0.53237800  1
  O  O23  1  0.08702800  0.52485300  0.33354000  1
loop_
_geom_bond_atom_site_label_1
_geom_bond_atom_site_label_2
_geom_bond_distance
_geom_bond_site_symmetry_2
Li0 O19 2.063738 1_555
Li0 O9 2.071955 1_555
Li0 O3 2.081011 1_555
Li0 O13 2.140662 1_555
Li0 O7 2.485858 1_555
Li0 O2 2.639803 1_456
Li1 O20 1.955122 1_555
Li1 O14 2.040156 1_555
Li1 O10 2.171541 1_555
Li1 O16 2.474335 1_555
Li2 O22 1.975296 1_555
Li2 O18 2.056167 1_555
Li2 O21 2.230751 1_555
Li2 O14 2.474960 1_555
Li3 O23 1.968113 1_555
Li3 O16 2.073221 1_555
Li3 O17 2.207354 1_555
Li3 O18 2.470622 1_555
Mn0 O11 2.063554 1_555
Mn0 O8 2.081815 1_565
Mn0 O19 2.205230 1_655
Mn0 O13 2.226791 1_655
Mn0 O6 2.239833 1_565
Mn0 O2 2.273496 1_556
Mn1 O1 2.100011 1_555
Mn1 O0 2.101311 1_555
Mn1 O9 2.259341 1_555
Mn1 O3 2.261569 1_555
Mn1 O7 2.262698 1_555
Mn1 O5 2.276911 1_555
Mn2 O22 2.071007 1_555
Mn2 O23 2.084813 1_555
Mn2 O20 2.088201 1_555
Mn2 O16 2.272952 1_555
Mn2 O14 2.282669 1_555
Mn2 O18 2.318839 1_555
Fe0 O6 2.084916 1_565
Fe0 O2 2.131426 1_556
Fe0 O13 2.172228 1_655
Fe0 O10 2.325592 1_566
Fe0 O17 2.346843 1_656
Fe0 O21 2.404720 1_665
Fe1 O5 2.080036 1_555
Fe1 O7 2.202833 1_555
Fe1 O9 2.217583 1_555
Fe1 O18 2.234692 1_555
Fe1 O14 2.258520 1_555
Fe1 O16 2.315837 1_555
O0 P2 1.512053 1_655
O1 P0 1.513424 1_565
O2 P3 1.551410 1_555
O3 P1 1.530223 1_556
O4 P3 1.577317 1_555
O4 Sn0 2.039193 1_655
O5 P3 1.543276 1_555
O6 P4 1.542659 1_555
O7 P4 1.549485 1_555
O8 P0 1.505893 1_555
O9 P5 1.554190 1_555
O10 P0 1.638298 1_555
O10 Sn0 2.122071 1_655
O11 P1 1.505789 1_556
O12 P4 1.574684 1_555
O12 Sn0 2.026650 1_556
O13 P5 1.555896 1_555
O14 P0 1.578711 1_555
O15 P5 1.565306 1_555
O15 Sn0 2.029871 1_565
O16 P1 1.573091 1_555
O17 P1 1.628121 1_555
O17 Sn0 2.144365 1_565
O18 P2 1.579200 1_555
O19 P2 1.523165 1_555
O20 P4 1.538025 1_554
O21 P2 1.623087 1_555
O21 Sn0 2.143877 1_556
O22 P5 1.530265 1_545
O23 P3 1.536846 1_455
