# generated using pymatgen
data_BaSrDy4O8
_symmetry_space_group_name_H-M   'P 1'
_cell_length_a   3.46644600
_cell_length_b   10.32184400
_cell_length_c   12.09717900
_cell_angle_alpha   90.00000000
_cell_angle_beta   90.00000000
_cell_angle_gamma   90.00000000
_symmetry_Int_Tables_number   1
_chemical_formula_structural   BaSrDy4O8
_chemical_formula_sum   'Ba2 Sr2 Dy8 O16'
_cell_volume   432.83845394
_cell_formula_units_Z   2
loop_
 _symmetry_equiv_pos_site_id
 _symmetry_equiv_pos_as_xyz
  1  'x, y, z'
loop_
 _atom_site_type_symbol
 _atom_site_label
 _atom_site_symmetry_multiplicity
 _atom_site_fract_x
 _atom_site_fract_y
 _atom_site_fract_z
 _atom_site_occupancy
  Ba  Ba0  1  0.75000000  0.74842800  0.14875400  1
  Ba  Ba1  1  0.75000000  0.24842800  0.35124600  1
  Sr  Sr0  1  0.25000000  0.25423800  0.85308400  1
  Sr  Sr1  1  0.25000000  0.75423800  0.64691600  1
  Dy  Dy0  1  0.75000000  0.07474000  0.61339400  1
  Dy  Dy1  1  0.75000000  0.57474000  0.88660600  1
  Dy  Dy2  1  0.25000000  0.92298600  0.39230800  1
  Dy  Dy3  1  0.25000000  0.42298600  0.10769200  1
  Dy  Dy4  1  0.75000000  0.07901800  0.10680300  1
  Dy  Dy5  1  0.75000000  0.57901800  0.39319700  1
  Dy  Dy6  1  0.25000000  0.92458100  0.88527800  1
  Dy  Dy7  1  0.25000000  0.42458100  0.61472200  1
  O  O0  1  0.75000000  0.28782100  0.66933200  1
  O  O1  1  0.75000000  0.78782100  0.83066800  1
  O  O2  1  0.25000000  0.71201000  0.33862700  1
  O  O3  1  0.25000000  0.21201000  0.16137300  1
  O  O4  1  0.75000000  0.37554700  0.97819300  1
  O  O5  1  0.75000000  0.87554700  0.52180700  1
  O  O6  1  0.25000000  0.61706400  0.01422400  1
  O  O7  1  0.25000000  0.11706400  0.48577600  1
  O  O8  1  0.75000000  0.98487000  0.28388100  1
  O  O9  1  0.75000000  0.48487000  0.21611900  1
  O  O10  1  0.25000000  0.00879700  0.71526100  1
  O  O11  1  0.25000000  0.50879700  0.78473900  1
  O  O12  1  0.75000000  0.07695700  0.91924900  1
  O  O13  1  0.75000000  0.57695700  0.58075100  1
  O  O14  1  0.25000000  0.93294300  0.07147300  1
  O  O15  1  0.25000000  0.43294300  0.42852700  1
loop_
_geom_bond_atom_site_label_1
_geom_bond_atom_site_label_2
_geom_bond_distance
_geom_bond_site_symmetry_2
Ba0 O6 2.736991 1_655
Ba0 O6 2.736991 1_555
Ba0 O14 2.739584 1_555
Ba0 O14 2.739584 1_655
Ba0 O9 2.839843 1_555
Ba0 O2 2.901937 1_555
Ba0 O2 2.901937 1_655
Ba0 O8 2.937384 1_555
Ba1 O7 2.736991 1_655
Ba1 O7 2.736991 1_555
Ba1 O15 2.739584 1_555
Ba1 O15 2.739584 1_655
Ba1 O8 2.839843 1_545
Ba1 O3 2.901937 1_555
Ba1 O3 2.901937 1_655
Ba1 O9 2.937384 1_555
Dy0 O10 2.232918 1_555
Dy0 O10 2.232918 1_655
Dy0 O0 2.301135 1_555
Dy0 O5 2.335559 1_545
Dy0 O7 2.361839 1_555
Dy0 O7 2.361839 1_655
Dy1 O11 2.232918 1_555
Dy1 O11 2.232918 1_655
Dy1 O1 2.301135 1_555
Dy1 O4 2.335559 1_555
Dy1 O6 2.361839 1_556
Dy1 O6 2.361839 1_656
Dy2 O8 2.265508 1_455
Dy2 O8 2.265508 1_555
Dy2 O2 2.272425 1_555
Dy2 O7 2.300318 1_565
Dy2 O5 2.387043 1_455
Dy2 O5 2.387043 1_555
Dy3 O9 2.265508 1_555
Dy3 O9 2.265508 1_455
Dy3 O3 2.272425 1_555
Dy3 O6 2.300318 1_555
Dy3 O4 2.387043 1_554
Dy3 O4 2.387043 1_454
Dy4 O12 2.268974 1_554
Dy4 O3 2.307427 1_555
Dy4 O3 2.307427 1_655
Dy4 O14 2.336681 1_545
Dy4 O14 2.336681 1_645
Dy4 O8 2.352263 1_545
Dy5 O13 2.268974 1_555
Dy5 O2 2.307427 1_655
Dy5 O2 2.307427 1_555
Dy5 O15 2.336681 1_555
Dy5 O15 2.336681 1_655
Dy5 O9 2.352263 1_555
Dy6 O10 2.232878 1_565
Dy6 O14 2.254087 1_556
Dy6 O1 2.330911 1_555
Dy6 O1 2.330911 1_455
Dy6 O12 2.376268 1_465
Dy6 O12 2.376268 1_565
Dy7 O11 2.232878 1_555
Dy7 O15 2.254087 1_555
Dy7 O0 2.330911 1_455
Dy7 O0 2.330911 1_555
Dy7 O13 2.376268 1_555
Dy7 O13 2.376268 1_455
O0 Sr0 2.839968 1_555
O0 Sr0 2.839968 1_655
O1 Sr1 2.839968 1_655
O1 Sr1 2.839968 1_555
O4 Sr0 2.619633 1_555
O4 Sr0 2.619633 1_655
O5 Sr1 2.619633 1_555
O5 Sr1 2.619633 1_655
O10 Sr1 2.754527 1_545
O10 Sr0 3.032808 1_555
O11 Sr0 2.754527 1_555
O11 Sr1 3.032808 1_555
O12 Sr0 2.644453 1_555
O12 Sr0 2.644453 1_655
O13 Sr1 2.644453 1_555
O13 Sr1 2.644453 1_655
