# generated using pymatgen
data_Co22B6Sb
_symmetry_space_group_name_H-M   'P 1'
_cell_length_a   7.44801795
_cell_length_b   7.44801795
_cell_length_c   7.44801795
_cell_angle_alpha   60.00000000
_cell_angle_beta   60.00000000
_cell_angle_gamma   60.00000000
_symmetry_Int_Tables_number   1
_chemical_formula_structural   Co22B6Sb
_chemical_formula_sum   'Co22 B6 Sb1'
_cell_volume   292.15084473
_cell_formula_units_Z   1
loop_
 _symmetry_equiv_pos_site_id
 _symmetry_equiv_pos_as_xyz
  1  'x, y, z'
loop_
 _atom_site_type_symbol
 _atom_site_label
 _atom_site_symmetry_multiplicity
 _atom_site_fract_x
 _atom_site_fract_y
 _atom_site_fract_z
 _atom_site_occupancy
  Co  Co0  1  0.75000000  0.75000000  0.75000000  1
  Co  Co1  1  0.25000000  0.25000000  0.25000000  1
  Co  Co2  1  0.61926800  0.61926800  0.14219700  1
  Co  Co3  1  0.61926800  0.14219700  0.61926800  1
  Co  Co4  1  0.14219700  0.61926800  0.61926800  1
  Co  Co5  1  0.61926800  0.61926800  0.61926800  1
  Co  Co6  1  0.38073200  0.38073200  0.85780300  1
  Co  Co7  1  0.38073200  0.85780300  0.38073200  1
  Co  Co8  1  0.85780300  0.38073200  0.38073200  1
  Co  Co9  1  0.38073200  0.38073200  0.38073200  1
  Co  Co10  1  0.00000000  0.00000000  0.34501400  1
  Co  Co11  1  0.65498600  0.00000000  0.34501400  1
  Co  Co12  1  0.00000000  0.65498600  0.34501400  1
  Co  Co13  1  0.65498600  0.34501400  0.00000000  1
  Co  Co14  1  0.00000000  0.34501400  0.00000000  1
  Co  Co15  1  0.00000000  0.34501400  0.65498600  1
  Co  Co16  1  0.34501400  0.65498600  0.00000000  1
  Co  Co17  1  0.34501400  0.00000000  0.65498600  1
  Co  Co18  1  0.34501400  0.00000000  0.00000000  1
  Co  Co19  1  0.00000000  0.00000000  0.65498600  1
  Co  Co20  1  0.00000000  0.65498600  0.00000000  1
  Co  Co21  1  0.65498600  0.00000000  0.00000000  1
  B  B0  1  0.71973300  0.71973300  0.28026700  1
  B  B1  1  0.28026700  0.71973300  0.28026700  1
  B  B2  1  0.71973300  0.28026700  0.28026700  1
  B  B3  1  0.28026700  0.28026700  0.71973300  1
  B  B4  1  0.71973300  0.28026700  0.71973300  1
  B  B5  1  0.28026700  0.71973300  0.71973300  1
  Sb  Sb0  1  0.00000000  0.00000000  0.00000000  1
loop_
_geom_bond_atom_site_label_1
_geom_bond_atom_site_label_2
_geom_bond_distance
_geom_bond_site_symmetry_2
Co0 Co5 2.385054 1_555
Co0 Co2 2.385060 1_556
Co0 Co4 2.385060 1_655
Co0 Co3 2.385060 1_565
Co1 Co9 2.385054 1_555
Co1 Co8 2.385060 1_455
Co1 Co7 2.385060 1_545
Co1 Co6 2.385060 1_554
Co10 Sb0 2.569670 1_555
Co11 Sb0 2.569670 1_655
Co12 Sb0 2.569670 1_565
Co13 Sb0 2.569670 1_655
Co14 Sb0 2.569670 1_555
Co15 Sb0 2.569670 1_556
Co16 Sb0 2.569670 1_565
Co17 Sb0 2.569670 1_556
Co18 Sb0 2.569670 1_555
Co19 Sb0 2.569670 1_556
Co20 Sb0 2.569670 1_565
Co21 Sb0 2.569670 1_655
B0 Co2 2.067887 1_555
B0 Co8 2.067892 1_555
B0 Co7 2.067892 1_555
B0 Co5 2.067893 1_555
B0 Co12 2.142413 1_655
B0 Co20 2.142413 1_655
B0 Co11 2.142413 1_565
B0 Co21 2.142413 1_565
B1 Co7 2.067887 1_555
B1 Co2 2.067892 1_555
B1 Co4 2.067892 1_555
B1 Co9 2.067893 1_555
B1 Co12 2.142413 1_555
B1 Co16 2.142413 1_555
B1 Co18 2.142413 1_565
B1 Co10 2.142413 1_565
B2 Co8 2.067887 1_555
B2 Co2 2.067892 1_555
B2 Co3 2.067892 1_555
B2 Co9 2.067893 1_555
B2 Co13 2.142413 1_555
B2 Co11 2.142413 1_555
B2 Co10 2.142413 1_655
B2 Co14 2.142413 1_655
B3 Co6 2.067887 1_555
B3 Co3 2.067892 1_555
B3 Co4 2.067892 1_555
B3 Co9 2.067893 1_555
B3 Co17 2.142413 1_555
B3 Co15 2.142413 1_555
B3 Co14 2.142413 1_556
B3 Co18 2.142413 1_556
B4 Co3 2.067887 1_555
B4 Co8 2.067892 1_555
B4 Co6 2.067892 1_555
B4 Co5 2.067893 1_555
B4 Co19 2.142413 1_655
B4 Co21 2.142413 1_556
B4 Co15 2.142413 1_655
B4 Co13 2.142413 1_556
B5 Co4 2.067887 1_555
B5 Co6 2.067892 1_555
B5 Co7 2.067892 1_555
B5 Co5 2.067893 1_555
B5 Co19 2.142413 1_565
B5 Co20 2.142413 1_556
B5 Co16 2.142413 1_556
B5 Co17 2.142413 1_565
