# generated using pymatgen
data_BaTbEuBiO6
_symmetry_space_group_name_H-M   'P 1'
_cell_length_a   8.70182424
_cell_length_b   8.77807300
_cell_length_c   8.68708218
_cell_angle_alpha   90.00000000
_cell_angle_beta   90.00000000
_cell_angle_gamma   90.00000000
_symmetry_Int_Tables_number   1
_chemical_formula_structural   BaTbEuBiO6
_chemical_formula_sum   'Ba4 Tb4 Eu4 Bi4 O24'
_cell_volume   663.56493029
_cell_formula_units_Z   4
loop_
 _symmetry_equiv_pos_site_id
 _symmetry_equiv_pos_as_xyz
  1  'x, y, z'
loop_
 _atom_site_type_symbol
 _atom_site_label
 _atom_site_symmetry_multiplicity
 _atom_site_fract_x
 _atom_site_fract_y
 _atom_site_fract_z
 _atom_site_occupancy
  Ba  Ba0  1  -0.00000000  0.00000000  -0.00000000  1
  Ba  Ba1  1  0.50000000  0.50000000  0.50000000  1
  Ba  Ba2  1  -0.00000000  0.50000000  -0.00000000  1
  Ba  Ba3  1  -0.00000000  0.00000000  0.50000000  1
  Tb  Tb0  1  0.25058706  0.25025903  0.24951401  1
  Tb  Tb1  1  0.74941294  0.74974097  0.24951401  1
  Tb  Tb2  1  0.74941294  0.25025903  0.75048599  1
  Tb  Tb3  1  0.25058706  0.74974097  0.75048599  1
  Eu  Eu0  1  -0.00000000  0.50000000  0.50000000  1
  Eu  Eu1  1  0.50000000  0.00000000  0.50000000  1
  Eu  Eu2  1  0.50000000  0.50000000  -0.00000000  1
  Eu  Eu3  1  0.50000000  0.00000000  -0.00000000  1
  Bi  Bi0  1  0.74913947  0.74968976  0.75035069  1
  Bi  Bi1  1  0.25086053  0.25031024  0.75035069  1
  Bi  Bi2  1  0.25086053  0.74968976  0.24964931  1
  Bi  Bi3  1  0.74913947  0.25031024  0.24964931  1
  O  O0  1  0.99584050  0.21309142  0.28290077  1
  O  O1  1  0.00415950  0.78690858  0.28290077  1
  O  O2  1  0.00415950  0.21309142  0.71709923  1
  O  O3  1  0.99584050  0.78690858  0.71709923  1
  O  O4  1  0.29174604  0.99564846  0.20484054  1
  O  O5  1  0.29174604  0.00435154  0.79515946  1
  O  O6  1  0.70825396  0.00435154  0.20484054  1
  O  O7  1  0.70825396  0.99564846  0.79515946  1
  O  O8  1  0.21358681  0.28281175  0.99582409  1
  O  O9  1  0.78641319  0.28281175  0.00417591  1
  O  O10  1  0.21358681  0.71718825  0.00417591  1
  O  O11  1  0.78641319  0.71718825  0.99582409  1
  O  O12  1  0.50431207  0.29622898  0.20842508  1
  O  O13  1  0.49568793  0.70377102  0.20842508  1
  O  O14  1  0.49568793  0.29622898  0.79157492  1
  O  O15  1  0.50431207  0.70377102  0.79157492  1
  O  O16  1  0.21009346  0.50440231  0.29745482  1
  O  O17  1  0.21009346  0.49559769  0.70254518  1
  O  O18  1  0.78990654  0.49559769  0.29745482  1
  O  O19  1  0.78990654  0.50440231  0.70254518  1
  O  O20  1  0.29745047  0.20928462  0.50430623  1
  O  O21  1  0.70254953  0.20928462  0.49569377  1
  O  O22  1  0.29745047  0.79071538  0.49569377  1
  O  O23  1  0.70254953  0.79071538  0.50430623  1
loop_
_geom_bond_atom_site_label_1
_geom_bond_atom_site_label_2
_geom_bond_distance
_geom_bond_site_symmetry_2
Ba0 O2 3.088675 1_554
Ba0 O1 3.088675 1_545
Ba0 O0 3.088675 1_455
Ba0 O3 3.088675 1_444
Ba0 O4 3.100496 1_545
Ba0 O5 3.100496 1_554
Ba0 O7 3.100496 1_444
Ba0 O6 3.100496 1_455
Ba0 O11 3.101404 1_444
Ba0 O10 3.101404 1_545
Ba0 O8 3.101404 1_554
Ba0 O9 3.101404 1_455
Ba1 O17 3.075959 1_555
Ba1 O18 3.075959 1_555
Ba1 O19 3.075959 1_555
Ba1 O16 3.075959 1_555
Ba1 O12 3.101077 1_555
Ba1 O13 3.101077 1_555
Ba1 O14 3.101077 1_555
Ba1 O15 3.101077 1_555
Ba1 O21 3.101658 1_555
Ba1 O22 3.101658 1_555
Ba1 O20 3.101658 1_555
Ba1 O23 3.101658 1_555
Ba2 O11 2.662783 1_454
Ba2 O8 2.662783 1_554
Ba2 O9 2.662783 1_455
Ba2 O10 2.662783 1_555
Ba2 O18 3.165585 1_455
Ba2 O19 3.165585 1_454
Ba2 O17 3.165585 1_554
Ba2 O16 3.165585 1_555
Ba3 O2 2.656509 1_555
Ba3 O3 2.656509 1_445
Ba3 O1 2.656509 1_545
Ba3 O0 2.656509 1_455
Ba3 O20 3.174273 1_555
Ba3 O21 3.174273 1_455
Ba3 O23 3.174273 1_445
Ba3 O22 3.174273 1_545
Eu0 O18 2.537662 1_455
Eu0 O19 2.537662 1_455
Eu0 O16 2.537662 1_555
Eu0 O17 2.537662 1_555
Eu0 O2 3.146588 1_555
Eu0 O1 3.146588 1_555
Eu0 O0 3.146588 1_455
Eu0 O3 3.146588 1_455
Eu1 O20 2.546169 1_555
Eu1 O22 2.546169 1_545
Eu1 O21 2.546169 1_555
Eu1 O23 2.546169 1_545
Eu1 O6 3.140058 1_555
Eu1 O7 3.140058 1_545
Eu1 O4 3.140058 1_545
Eu1 O5 3.140058 1_555
Eu2 O14 2.545429 1_554
Eu2 O15 2.545429 1_554
Eu2 O12 2.545429 1_555
Eu2 O13 2.545429 1_555
Eu2 O9 3.138102 1_555
Eu2 O11 3.138102 1_554
Eu2 O10 3.138102 1_555
Eu2 O8 3.138102 1_554
Eu3 O7 2.540077 1_544
Eu3 O5 2.540077 1_554
Eu3 O6 2.540077 1_555
Eu3 O4 2.540077 1_545
Eu3 O15 3.168811 1_544
Eu3 O14 3.168811 1_554
Eu3 O13 3.168811 1_545
Eu3 O12 3.168811 1_555
Bi0 O11 2.175760 1_555
Bi0 O3 2.190596 1_555
Bi0 O15 2.197616 1_555
Bi0 O23 2.205123 1_555
Bi0 O19 2.221345 1_555
Bi0 O7 2.222514 1_555
Bi1 O8 2.175760 1_555
Bi1 O2 2.190596 1_555
Bi1 O14 2.197616 1_555
Bi1 O20 2.205123 1_555
Bi1 O17 2.221345 1_555
Bi1 O5 2.222514 1_555
Bi2 O10 2.175760 1_555
Bi2 O1 2.190596 1_555
Bi2 O13 2.197616 1_555
Bi2 O22 2.205123 1_555
Bi2 O16 2.221345 1_555
Bi2 O4 2.222514 1_555
Bi3 O9 2.175760 1_555
Bi3 O0 2.190596 1_555
Bi3 O12 2.197616 1_555
Bi3 O21 2.205123 1_555
Bi3 O18 2.221345 1_555
Bi3 O6 2.222514 1_555
O0 Tb0 2.259334 1_655
O1 Tb1 2.259334 1_455
O2 Tb2 2.259334 1_455
O3 Tb3 2.259334 1_655
O4 Tb0 2.296533 1_565
O5 Tb3 2.296533 1_545
O6 Tb1 2.296533 1_545
O7 Tb2 2.296533 1_565
O8 Tb0 2.245476 1_556
O9 Tb2 2.245476 1_554
O10 Tb3 2.245476 1_554
O11 Tb1 2.245476 1_556
O12 Tb0 2.272649 1_555
O13 Tb1 2.272649 1_555
O14 Tb2 2.272649 1_555
O15 Tb3 2.272649 1_555
O16 Tb0 2.296621 1_555
O17 Tb3 2.296621 1_555
O18 Tb1 2.296621 1_555
O19 Tb2 2.296621 1_555
O20 Tb0 2.279212 1_555
O21 Tb2 2.279212 1_555
O22 Tb3 2.279212 1_555
O23 Tb1 2.279212 1_555
