# generated using pymatgen
data_Dy2(Ni5B3)3
_symmetry_space_group_name_H-M   'P 1'
_cell_length_a   9.81594800
_cell_length_b   9.81594800
_cell_length_c   11.25123200
_cell_angle_alpha   90.00000000
_cell_angle_beta   90.00000000
_cell_angle_gamma   107.78096771
_symmetry_Int_Tables_number   1
_chemical_formula_structural   Dy2(Ni5B3)3
_chemical_formula_sum   'Dy8 Ni60 B36'
_cell_volume   1032.30217223
_cell_formula_units_Z   4
loop_
 _symmetry_equiv_pos_site_id
 _symmetry_equiv_pos_as_xyz
  1  'x, y, z'
loop_
 _atom_site_type_symbol
 _atom_site_label
 _atom_site_symmetry_multiplicity
 _atom_site_fract_x
 _atom_site_fract_y
 _atom_site_fract_z
 _atom_site_occupancy
  Dy  Dy0  1  0.26115600  0.26115600  0.95876800  1
  Dy  Dy1  1  0.73884400  0.73884400  0.04123200  1
  Dy  Dy2  1  0.23884400  0.23884400  0.45876800  1
  Dy  Dy3  1  0.76115600  0.76115600  0.54123200  1
  Dy  Dy4  1  0.19166900  0.69166900  0.75000000  1
  Dy  Dy5  1  0.30833100  0.80833100  0.25000000  1
  Dy  Dy6  1  0.80833100  0.30833100  0.25000000  1
  Dy  Dy7  1  0.69166900  0.19166900  0.75000000  1
  Ni  Ni0  1  0.50000000  0.50000000  0.00000000  1
  Ni  Ni1  1  0.00000000  0.00000000  0.50000000  1
  Ni  Ni2  1  0.50000000  0.50000000  0.50000000  1
  Ni  Ni3  1  0.00000000  0.00000000  0.00000000  1
  Ni  Ni4  1  0.23433400  0.23433400  0.71180200  1
  Ni  Ni5  1  0.76566600  0.76566600  0.28819800  1
  Ni  Ni6  1  0.26566600  0.26566600  0.21180200  1
  Ni  Ni7  1  0.73433400  0.73433400  0.78819800  1
  Ni  Ni8  1  0.93116200  0.43116200  0.75000000  1
  Ni  Ni9  1  0.56883800  0.06883800  0.25000000  1
  Ni  Ni10  1  0.06883800  0.56883800  0.25000000  1
  Ni  Ni11  1  0.43116200  0.93116200  0.75000000  1
  Ni  Ni12  1  0.99012900  0.18290500  0.84015800  1
  Ni  Ni13  1  0.81709500  0.00987100  0.15984200  1
  Ni  Ni14  1  0.31709500  0.50987100  0.34015800  1
  Ni  Ni15  1  0.49012900  0.68290500  0.65984200  1
  Ni  Ni16  1  0.00987100  0.81709500  0.15984200  1
  Ni  Ni17  1  0.18290500  0.99012900  0.84015800  1
  Ni  Ni18  1  0.68290500  0.49012900  0.65984200  1
  Ni  Ni19  1  0.50987100  0.31709500  0.34015800  1
  Ni  Ni20  1  0.25709200  0.47134300  0.59673100  1
  Ni  Ni21  1  0.52865700  0.74290800  0.40326900  1
  Ni  Ni22  1  0.02865700  0.24290800  0.09673100  1
  Ni  Ni23  1  0.75709200  0.97134300  0.90326900  1
  Ni  Ni24  1  0.74290800  0.52865700  0.40326900  1
  Ni  Ni25  1  0.47134300  0.25709200  0.59673100  1
  Ni  Ni26  1  0.97134300  0.75709200  0.90326900  1
  Ni  Ni27  1  0.24290800  0.02865700  0.09673100  1
  Ni  Ni28  1  0.99499500  0.22668900  0.61866400  1
  Ni  Ni29  1  0.77331100  0.00500500  0.38133600  1
  Ni  Ni30  1  0.27331100  0.50500500  0.11866400  1
  Ni  Ni31  1  0.49499500  0.72668900  0.88133600  1
  Ni  Ni32  1  0.00500500  0.77331100  0.38133600  1
  Ni  Ni33  1  0.22668900  0.99499500  0.61866400  1
  Ni  Ni34  1  0.72668900  0.49499500  0.88133600  1
  Ni  Ni35  1  0.50500500  0.27331100  0.11866400  1
  Ni  Ni36  1  0.10703200  0.44664800  0.91455100  1
  Ni  Ni37  1  0.55335200  0.89296800  0.08544900  1
  Ni  Ni38  1  0.05335200  0.39296800  0.41455100  1
  Ni  Ni39  1  0.60703200  0.94664800  0.58544900  1
  Ni  Ni40  1  0.89296800  0.55335200  0.08544900  1
  Ni  Ni41  1  0.44664800  0.10703200  0.91455100  1
  Ni  Ni42  1  0.94664800  0.60703200  0.58544900  1
  Ni  Ni43  1  0.39296800  0.05335200  0.41455100  1
  Ni  Ni44  1  0.33110300  0.48946200  0.80566700  1
  Ni  Ni45  1  0.51053800  0.66889700  0.19433300  1
  Ni  Ni46  1  0.01053800  0.16889700  0.30566700  1
  Ni  Ni47  1  0.83110300  0.98946200  0.69433300  1
  Ni  Ni48  1  0.66889700  0.51053800  0.19433300  1
  Ni  Ni49  1  0.48946200  0.33110300  0.80566700  1
  Ni  Ni50  1  0.98946200  0.83110300  0.69433300  1
  Ni  Ni51  1  0.16889700  0.01053800  0.30566700  1
  Ni  Ni52  1  0.83846200  0.36320900  0.52958700  1
  Ni  Ni53  1  0.63679100  0.16153800  0.47041300  1
  Ni  Ni54  1  0.13679100  0.66153800  0.02958700  1
  Ni  Ni55  1  0.33846200  0.86320900  0.97041300  1
  Ni  Ni56  1  0.16153800  0.63679100  0.47041300  1
  Ni  Ni57  1  0.36320900  0.83846200  0.52958700  1
  Ni  Ni58  1  0.86320900  0.33846200  0.97041300  1
  Ni  Ni59  1  0.66153800  0.13679100  0.02958700  1
  B  B0  1  0.36436700  0.63563300  0.50000000  1
  B  B1  1  0.86436700  0.13563300  0.00000000  1
  B  B2  1  0.63563300  0.36436700  0.50000000  1
  B  B3  1  0.13563300  0.86436700  0.00000000  1
  B  B4  1  0.45238600  0.45238600  0.67136300  1
  B  B5  1  0.54761400  0.54761400  0.32863700  1
  B  B6  1  0.04761400  0.04761400  0.17136300  1
  B  B7  1  0.95238600  0.95238600  0.82863700  1
  B  B8  1  0.05697100  0.05697100  0.70182300  1
  B  B9  1  0.94302900  0.94302900  0.29817700  1
  B  B10  1  0.44302900  0.44302900  0.20182300  1
  B  B11  1  0.55697100  0.55697100  0.79817700  1
  B  B12  1  0.12005000  0.37836600  0.74404900  1
  B  B13  1  0.62163400  0.87995000  0.25595100  1
  B  B14  1  0.12163400  0.37995000  0.24404900  1
  B  B15  1  0.62005000  0.87836600  0.75595100  1
  B  B16  1  0.87995000  0.62163400  0.25595100  1
  B  B17  1  0.37836600  0.12005000  0.74404900  1
  B  B18  1  0.87836600  0.62005000  0.75595100  1
  B  B19  1  0.37995000  0.12163400  0.24404900  1
  B  B20  1  0.29843200  0.59165900  0.94944900  1
  B  B21  1  0.40834100  0.70156800  0.05055100  1
  B  B22  1  0.90834100  0.20156800  0.44944900  1
  B  B23  1  0.79843200  0.09165900  0.55055100  1
  B  B24  1  0.70156800  0.40834100  0.05055100  1
  B  B25  1  0.59165900  0.29843200  0.94944900  1
  B  B26  1  0.09165900  0.79843200  0.55055100  1
  B  B27  1  0.20156800  0.90834100  0.44944900  1
  B  B28  1  0.04850600  0.44925400  0.59983200  1
  B  B29  1  0.55074600  0.95149400  0.40016800  1
  B  B30  1  0.05074600  0.45149400  0.09983200  1
  B  B31  1  0.54850600  0.94925400  0.90016800  1
  B  B32  1  0.95149400  0.55074600  0.40016800  1
  B  B33  1  0.44925400  0.04850600  0.59983200  1
  B  B34  1  0.94925400  0.54850600  0.90016800  1
  B  B35  1  0.45149400  0.05074600  0.09983200  1
loop_
_geom_bond_atom_site_label_1
_geom_bond_atom_site_label_2
_geom_bond_distance
_geom_bond_site_symmetry_2
Dy0 Ni27 2.720355 1_556
Dy0 Ni22 2.720355 1_556
Dy0 Ni44 2.742475 1_555
Dy0 Ni49 2.742475 1_555
Dy0 Ni41 2.744800 1_555
Dy0 Ni36 2.744800 1_555
Dy0 Ni4 2.795946 1_555
Dy0 Ni0 2.802018 1_556
Dy0 Ni6 2.847422 1_556
Dy0 Ni12 2.863651 1_455
Dy0 Ni17 2.863651 1_545
Dy0 Ni30 2.967435 1_556
Dy0 Ni35 2.967435 1_556
Dy0 Ni3 3.056897 1_556
Dy1 Ni26 2.720355 1_554
Dy1 Ni23 2.720355 1_554
Dy1 Ni45 2.742475 1_555
Dy1 Ni48 2.742475 1_555
Dy1 Ni40 2.744800 1_555
Dy1 Ni37 2.744800 1_555
Dy1 Ni5 2.795946 1_555
Dy1 Ni0 2.802018 1_555
Dy1 Ni7 2.847422 1_554
Dy1 Ni13 2.863651 1_565
Dy1 Ni16 2.863651 1_655
Dy1 Ni31 2.967435 1_554
Dy1 Ni34 2.967435 1_554
Dy1 Ni3 3.056897 1_665
Dy2 Ni25 2.720355 1_555
Dy2 Ni20 2.720355 1_555
Dy2 Ni46 2.742475 1_555
Dy2 Ni51 2.742475 1_555
Dy2 Ni43 2.744800 1_555
Dy2 Ni38 2.744800 1_555
Dy2 Ni6 2.795946 1_555
Dy2 Ni1 2.802018 1_555
Dy2 Ni4 2.847422 1_555
Dy2 Ni19 2.863651 1_555
Dy2 Ni14 2.863651 1_555
Dy2 Ni28 2.967435 1_455
Dy2 Ni33 2.967435 1_545
Dy2 Ni2 3.056897 1_555
Dy3 Ni21 2.720355 1_555
Dy3 Ni24 2.720355 1_555
Dy3 Ni47 2.742475 1_555
Dy3 Ni50 2.742475 1_555
Dy3 Ni42 2.744800 1_555
Dy3 Ni39 2.744800 1_555
Dy3 Ni7 2.795946 1_555
Dy3 Ni1 2.802018 1_665
Dy3 Ni5 2.847422 1_555
Dy3 Ni18 2.863651 1_555
Dy3 Ni15 2.863651 1_555
Dy3 Ni29 2.967435 1_565
Dy3 Ni32 2.967435 1_655
Dy3 Ni2 3.056897 1_555
Dy4 Ni11 2.770856 1_555
Dy4 Ni44 2.804353 1_555
Dy4 Ni50 2.804353 1_455
Dy4 Ni42 2.946538 1_455
Dy4 Ni36 2.946538 1_555
Dy4 Ni20 2.985256 1_555
Dy4 Ni26 2.985256 1_455
Dy4 Ni8 3.013982 1_455
Dy4 Ni55 3.095100 1_555
Dy4 Ni57 3.095100 1_555
Dy4 Ni15 3.126223 1_555
Dy4 Ni17 3.126223 1_555
Dy4 Ni56 3.189947 1_555
Dy4 Ni54 3.189947 1_556
Dy4 Ni33 3.246803 1_555
Dy4 Ni31 3.246803 1_555
Dy5 Ni10 2.770856 1_555
Dy5 Ni51 2.804353 1_565
Dy5 Ni45 2.804353 1_555
Dy5 Ni37 2.946538 1_555
Dy5 Ni43 2.946538 1_565
Dy5 Ni27 2.985256 1_565
Dy5 Ni21 2.985256 1_555
Dy5 Ni9 3.013982 1_565
Dy5 Ni54 3.095100 1_555
Dy5 Ni56 3.095100 1_555
Dy5 Ni16 3.126223 1_555
Dy5 Ni14 3.126223 1_555
Dy5 Ni57 3.189947 1_555
Dy5 Ni55 3.189947 1_554
Dy5 Ni30 3.246803 1_555
Dy5 Ni32 3.246803 1_555
Dy6 Ni9 2.770856 1_555
Dy6 Ni46 2.804353 1_655
Dy6 Ni48 2.804353 1_555
Dy6 Ni40 2.946538 1_555
Dy6 Ni38 2.946538 1_655
Dy6 Ni22 2.985256 1_655
Dy6 Ni24 2.985256 1_555
Dy6 Ni10 3.013982 1_655
Dy6 Ni59 3.095100 1_555
Dy6 Ni53 3.095100 1_555
Dy6 Ni13 3.126223 1_555
Dy6 Ni19 3.126223 1_555
Dy6 Ni52 3.189947 1_555
Dy6 Ni58 3.189947 1_554
Dy6 Ni35 3.246803 1_555
Dy6 Ni29 3.246803 1_555
Dy7 Ni8 2.770856 1_555
Dy7 Ni49 2.804353 1_555
Dy7 Ni47 2.804353 1_545
Dy7 Ni39 2.946538 1_545
Dy7 Ni41 2.946538 1_555
Dy7 Ni25 2.985256 1_555
Dy7 Ni23 2.985256 1_545
Dy7 Ni11 3.013982 1_545
Dy7 Ni58 3.095100 1_555
Dy7 Ni52 3.095100 1_555
Dy7 Ni18 3.126223 1_555
Dy7 Ni12 3.126223 1_555
Dy7 Ni53 3.189947 1_555
Dy7 Ni59 3.189947 1_556
Dy7 Ni34 3.246803 1_555
Dy7 Ni28 3.246803 1_555
B0 Ni20 1.963883 1_555
B0 Ni21 1.963883 1_555
B0 Ni56 2.022050 1_555
B0 Ni57 2.022050 1_555
B0 Ni14 2.150278 1_555
B0 Ni15 2.150278 1_555
B0 Ni2 2.151201 1_555
B1 Ni22 1.963883 1_655
B1 Ni23 1.963883 1_544
B1 Ni58 2.022050 1_554
B1 Ni59 2.022050 1_555
B1 Ni13 2.150278 1_555
B1 Ni12 2.150278 1_554
B1 Ni3 2.151201 1_655
B2 Ni25 1.963883 1_555
B2 Ni24 1.963883 1_555
B2 Ni53 2.022050 1_555
B2 Ni52 2.022050 1_555
B2 Ni19 2.150278 1_555
B2 Ni18 2.150278 1_555
B2 Ni2 2.151201 1_555
B3 Ni27 1.963883 1_565
B3 Ni26 1.963883 1_454
B3 Ni55 2.022050 1_554
B3 Ni54 2.022050 1_555
B3 Ni16 2.150278 1_555
B3 Ni17 2.150278 1_554
B3 Ni3 2.151201 1_565
B4 Ni2 2.005199 1_555
B4 Ni44 2.024292 1_555
B4 Ni49 2.024292 1_555
B4 Ni20 2.152316 1_555
B4 Ni25 2.152316 1_555
B4 Ni15 2.182234 1_555
B4 Ni18 2.182234 1_555
B4 Ni4 2.563492 1_555
B5 Ni2 2.005199 1_555
B5 Ni45 2.024292 1_555
B5 Ni48 2.024292 1_555
B5 Ni21 2.152316 1_555
B5 Ni24 2.152316 1_555
B5 Ni14 2.182234 1_555
B5 Ni19 2.182234 1_555
B5 Ni5 2.563492 1_555
B6 B9 1.870811 1_445
B6 Ni3 2.005199 1_555
B6 Ni46 2.024292 1_555
B6 Ni51 2.024292 1_555
B6 Ni22 2.152316 1_555
B6 Ni27 2.152316 1_555
B6 Ni13 2.182234 1_455
B6 Ni16 2.182234 1_545
B6 Ni6 2.563492 1_555
B7 B8 1.870811 1_665
B7 Ni3 2.005199 1_666
B7 Ni50 2.024292 1_555
B7 Ni47 2.024292 1_555
B7 Ni23 2.152316 1_555
B7 Ni26 2.152316 1_555
B7 Ni12 2.182234 1_565
B7 Ni17 2.182234 1_655
B7 Ni7 2.563492 1_555
B8 Ni4 2.055102 1_555
B8 Ni50 2.112930 1_445
B8 Ni47 2.112930 1_445
B8 Ni33 2.154037 1_545
B8 Ni28 2.154037 1_455
B8 Ni12 2.208270 1_455
B8 Ni17 2.208270 1_545
B8 Ni1 2.364487 1_555
B9 Ni5 2.055102 1_555
B9 Ni51 2.112930 1_665
B9 Ni46 2.112930 1_665
B9 Ni29 2.154037 1_565
B9 Ni32 2.154037 1_655
B9 Ni13 2.208270 1_565
B9 Ni16 2.208270 1_655
B9 Ni1 2.364487 1_665
B10 B5 1.870811 1_555
B10 Ni6 2.055102 1_555
B10 Ni45 2.112930 1_555
B10 Ni48 2.112930 1_555
B10 Ni35 2.154037 1_555
B10 Ni30 2.154037 1_555
B10 Ni19 2.208270 1_555
B10 Ni14 2.208270 1_555
B10 Ni0 2.364487 1_555
B11 B4 1.870811 1_555
B11 Ni7 2.055102 1_555
B11 Ni49 2.112930 1_555
B11 Ni44 2.112930 1_555
B11 Ni31 2.154037 1_555
B11 Ni34 2.154037 1_555
B11 Ni15 2.208270 1_555
B11 Ni18 2.208270 1_555
B11 Ni0 2.364487 1_556
B12 B28 1.977048 1_555
B12 Ni36 2.048896 1_555
B12 Ni8 2.073081 1_455
B12 Ni4 2.087492 1_555
B12 Ni44 2.140539 1_555
B12 Ni28 2.144170 1_455
B12 Ni20 2.154067 1_555
B12 Ni12 2.232136 1_455
B12 Dy4 2.938727 1_555
B13 B29 1.977048 1_555
B13 Ni37 2.048896 1_555
B13 Ni9 2.073081 1_565
B13 Ni5 2.087492 1_555
B13 Ni45 2.140539 1_555
B13 Ni29 2.144170 1_565
B13 Ni21 2.154067 1_555
B13 Ni13 2.232136 1_565
B13 Dy5 2.938727 1_555
B14 B30 1.977048 1_555
B14 Ni38 2.048896 1_555
B14 Ni10 2.073081 1_555
B14 Ni6 2.087492 1_555
B14 Ni46 2.140539 1_555
B14 Ni30 2.144170 1_555
B14 Ni22 2.154067 1_555
B14 Ni14 2.232136 1_555
B14 Dy6 2.938727 1_455
B15 B31 1.977048 1_555
B15 Ni39 2.048896 1_555
B15 Ni11 2.073081 1_555
B15 Ni7 2.087492 1_555
B15 Ni47 2.140539 1_555
B15 Ni31 2.144170 1_555
B15 Ni23 2.154067 1_555
B15 Ni15 2.232136 1_555
B15 Dy7 2.938727 1_565
B16 B32 1.977048 1_555
B16 Ni40 2.048896 1_555
B16 Ni10 2.073081 1_655
B16 Ni5 2.087492 1_555
B16 Ni48 2.140539 1_555
B16 Ni32 2.144170 1_655
B16 Ni24 2.154067 1_555
B16 Ni16 2.232136 1_655
B16 Dy6 2.938727 1_555
B17 B33 1.977048 1_555
B17 Ni41 2.048896 1_555
B17 Ni11 2.073081 1_545
B17 Ni4 2.087492 1_555
B17 Ni49 2.140539 1_555
B17 Ni33 2.144170 1_545
B17 Ni25 2.154067 1_555
B17 Ni17 2.232136 1_545
B17 Dy7 2.938727 1_555
B18 B34 1.977048 1_555
B18 Ni42 2.048896 1_555
B18 Ni8 2.073081 1_555
B18 Ni7 2.087492 1_555
B18 Ni50 2.140539 1_555
B18 Ni34 2.144170 1_555
B18 Ni26 2.154067 1_555
B18 Ni18 2.232136 1_555
B18 Dy4 2.938727 1_655
B19 B35 1.977048 1_555
B19 Ni43 2.048896 1_555
B19 Ni9 2.073081 1_555
B19 Ni6 2.087492 1_555
B19 Ni51 2.140539 1_555
B19 Ni35 2.144170 1_555
B19 Ni27 2.154067 1_555
B19 Ni19 2.232136 1_555
B19 Dy5 2.938727 1_545
B20 B21 1.706151 1_556
B20 Ni44 1.980580 1_555
B20 Ni36 2.019094 1_555
B20 Ni30 2.069047 1_556
B20 Ni54 2.113214 1_556
B20 Ni31 2.122487 1_555
B20 Ni0 2.476897 1_556
B20 Dy4 2.779582 1_555
B21 Ni45 1.980580 1_555
B21 Ni37 2.019094 1_555
B21 Ni31 2.069047 1_554
B21 Ni55 2.113214 1_554
B21 Ni30 2.122487 1_555
B21 Ni0 2.476897 1_555
B21 Dy5 2.779582 1_555
B22 B23 1.706151 1_555
B22 Ni46 1.980580 1_655
B22 Ni38 2.019094 1_655
B22 Ni28 2.069047 1_555
B22 Ni52 2.113214 1_555
B22 Ni29 2.122487 1_555
B22 Ni1 2.476897 1_655
B22 Dy6 2.779582 1_555
B23 Ni47 1.980580 1_545
B23 Ni39 2.019094 1_545
B23 Ni29 2.069047 1_555
B23 Ni53 2.113214 1_555
B23 Ni28 2.122487 1_555
B23 Ni1 2.476897 1_655
B23 Dy7 2.779582 1_555
B24 B25 1.706151 1_554
B24 Ni48 1.980580 1_555
B24 Ni40 2.019094 1_555
B24 Ni34 2.069047 1_554
B24 Ni58 2.113214 1_554
B24 Ni35 2.122487 1_555
B24 Ni0 2.476897 1_555
B24 Dy6 2.779582 1_555
B25 Ni49 1.980580 1_555
B25 Ni41 2.019094 1_555
B25 Ni35 2.069047 1_556
B25 Ni59 2.113214 1_556
B25 Ni34 2.122487 1_555
B25 Ni0 2.476897 1_556
B25 Dy7 2.779582 1_555
B26 B27 1.706151 1_555
B26 Ni50 1.980580 1_455
B26 Ni42 2.019094 1_455
B26 Ni32 2.069047 1_555
B26 Ni56 2.113214 1_555
B26 Ni33 2.122487 1_555
B26 Ni1 2.476897 1_565
B26 Dy4 2.779582 1_555
B27 Ni51 1.980580 1_565
B27 Ni43 2.019094 1_565
B27 Ni33 2.069047 1_555
B27 Ni57 2.113214 1_555
B27 Ni32 2.122487 1_555
B27 Ni1 2.476897 1_565
B27 Dy5 2.779582 1_555
B28 Ni20 1.992290 1_555
B28 Ni8 2.021883 1_455
B28 Ni42 2.090502 1_455
B28 Ni28 2.095897 1_455
B28 Ni52 2.127293 1_455
B28 Ni38 2.160855 1_555
B28 Ni56 2.343633 1_555
B28 Dy4 2.906774 1_555
B29 Ni21 1.992290 1_555
B29 Ni9 2.021883 1_565
B29 Ni43 2.090502 1_565
B29 Ni29 2.095897 1_565
B29 Ni53 2.127293 1_565
B29 Ni39 2.160855 1_555
B29 Ni57 2.343633 1_555
B29 Dy5 2.906774 1_555
B30 Ni22 1.992290 1_555
B30 Ni10 2.021883 1_555
B30 Ni40 2.090502 1_455
B30 Ni30 2.095897 1_555
B30 Ni54 2.127293 1_555
B30 Ni36 2.160855 1_554
B30 Ni58 2.343633 1_454
B30 Dy6 2.906774 1_455
B31 Ni23 1.992290 1_555
B31 Ni11 2.021883 1_555
B31 Ni41 2.090502 1_565
B31 Ni31 2.095897 1_555
B31 Ni55 2.127293 1_555
B31 Ni37 2.160855 1_556
B31 Ni59 2.343633 1_566
B31 Dy7 2.906774 1_565
B32 Ni24 1.992290 1_555
B32 Ni10 2.021883 1_655
B32 Ni38 2.090502 1_655
B32 Ni32 2.095897 1_655
B32 Ni56 2.127293 1_655
B32 Ni42 2.160855 1_555
B32 Ni52 2.343633 1_555
B32 Dy6 2.906774 1_555
B33 Ni25 1.992290 1_555
B33 Ni11 2.021883 1_545
B33 Ni39 2.090502 1_545
B33 Ni33 2.095897 1_545
B33 Ni57 2.127293 1_545
B33 Ni43 2.160855 1_555
B33 Ni53 2.343633 1_555
B33 Dy7 2.906774 1_555
B34 Ni26 1.992290 1_555
B34 Ni8 2.021883 1_555
B34 Ni36 2.090502 1_655
B34 Ni34 2.095897 1_555
B34 Ni58 2.127293 1_555
B34 Ni40 2.160855 1_556
B34 Ni54 2.343633 1_656
B34 Dy4 2.906774 1_655
B35 Ni27 1.992290 1_555
B35 Ni9 2.021883 1_555
B35 Ni37 2.090502 1_545
B35 Ni35 2.095897 1_555
B35 Ni59 2.127293 1_555
B35 Ni41 2.160855 1_554
B35 Ni55 2.343633 1_544
B35 Dy5 2.906774 1_545
