# generated using pymatgen
data_Fe2SiS4
_symmetry_space_group_name_H-M   'P 1'
_cell_length_a   6.76032595
_cell_length_b   6.76032595
_cell_length_c   5.43243700
_cell_angle_alpha   90.00000000
_cell_angle_beta   90.00000000
_cell_angle_gamma   119.99999954
_symmetry_Int_Tables_number   1
_chemical_formula_structural   Fe2SiS4
_chemical_formula_sum   'Fe4 Si2 S8'
_cell_volume   215.01096316
_cell_formula_units_Z   2
loop_
 _symmetry_equiv_pos_site_id
 _symmetry_equiv_pos_as_xyz
  1  'x, y, z'
loop_
 _atom_site_type_symbol
 _atom_site_label
 _atom_site_symmetry_multiplicity
 _atom_site_fract_x
 _atom_site_fract_y
 _atom_site_fract_z
 _atom_site_occupancy
  Fe  Fe0  1  0.50000000  0.00000000  0.50000000  1
  Fe  Fe1  1  0.00000000  0.50000000  0.50000000  1
  Fe  Fe2  1  0.00000000  0.00000000  0.00000000  1
  Fe  Fe3  1  0.50000000  0.50000000  0.50000000  1
  Si  Si0  1  0.66666700  0.33333300  0.91662900  1
  Si  Si1  1  0.33333300  0.66666700  0.08337100  1
  S  S0  1  0.33547600  0.16773800  0.74747100  1
  S  S1  1  0.66666700  0.33333300  0.31316600  1
  S  S2  1  0.83226200  0.66452400  0.74747100  1
  S  S3  1  0.83226200  0.16773800  0.74747100  1
  S  S4  1  0.16773800  0.33547600  0.25252900  1
  S  S5  1  0.16773800  0.83226200  0.25252900  1
  S  S6  1  0.33333300  0.66666700  0.68683400  1
  S  S7  1  0.66452400  0.83226200  0.25252900  1
loop_
_geom_bond_atom_site_label_1
_geom_bond_atom_site_label_2
_geom_bond_distance
_geom_bond_site_symmetry_2
Fe0 S1 2.199692 1_555
Fe0 S6 2.199692 1_545
Fe0 S0 2.364637 1_555
Fe0 S7 2.364637 1_545
Fe0 S3 2.364637 1_555
Fe0 S5 2.364637 1_545
Fe1 S1 2.199692 1_455
Fe1 S6 2.199692 1_555
Fe1 S4 2.364637 1_555
Fe1 S2 2.364637 1_455
Fe1 S5 2.364637 1_555
Fe1 S3 2.364637 1_455
Fe2 S5 2.395743 1_545
Fe2 S3 2.395743 1_454
Fe2 S0 2.395743 1_554
Fe2 S2 2.395743 1_444
Fe2 S4 2.395743 1_555
Fe2 S7 2.395743 1_445
Fe3 S6 2.199697 1_555
Fe3 S1 2.199697 1_555
Fe3 S7 2.364637 1_555
Fe3 S2 2.364637 1_555
Fe3 S0 2.364637 1_555
Fe3 S4 2.364637 1_555
S0 Si0 2.145729 1_555
S1 Si0 2.154162 1_554
S2 Si0 2.145729 1_555
S3 Si0 2.145724 1_555
S4 Si1 2.145729 1_555
S5 Si1 2.145724 1_555
S6 Si1 2.154162 1_556
S7 Si1 2.145729 1_555
