# generated using pymatgen
data_Y3Ru2
_symmetry_space_group_name_H-M   'P 1'
_cell_length_a   4.74746600
_cell_length_b   7.63970869
_cell_length_c   7.63970919
_cell_angle_alpha   119.99999946
_cell_angle_beta   90.00000000
_cell_angle_gamma   90.00000000
_symmetry_Int_Tables_number   1
_chemical_formula_structural   Y3Ru2
_chemical_formula_sum   'Y6 Ru4'
_cell_volume   239.96401675
_cell_formula_units_Z   2
loop_
 _symmetry_equiv_pos_site_id
 _symmetry_equiv_pos_as_xyz
  1  'x, y, z'
loop_
 _atom_site_type_symbol
 _atom_site_label
 _atom_site_symmetry_multiplicity
 _atom_site_fract_x
 _atom_site_fract_y
 _atom_site_fract_z
 _atom_site_occupancy
  Y  Y0  1  0.75000000  0.61697900  0.69514900  1
  Y  Y1  1  0.25000000  0.38302100  0.30485100  1
  Y  Y2  1  0.75000000  0.07817100  0.38302100  1
  Y  Y3  1  0.25000000  0.92182900  0.61697900  1
  Y  Y4  1  0.75000000  0.30485100  0.92182900  1
  Y  Y5  1  0.25000000  0.69514900  0.07817100  1
  Ru  Ru0  1  0.75000000  0.66666700  0.33333300  1
  Ru  Ru1  1  0.25000000  0.33333300  0.66666700  1
  Ru  Ru2  1  0.00000000  0.00000000  0.00000000  1
  Ru  Ru3  1  0.50000000  0.00000000  0.00000000  1
loop_
_geom_bond_atom_site_label_1
_geom_bond_atom_site_label_2
_geom_bond_distance
_geom_bond_site_symmetry_2
Y0 Y1 3.520042 1_555
Y0 Y1 3.520042 1_655
Y0 Y3 3.578572 1_655
Y0 Y3 3.578572 1_555
Y0 Y5 3.578584 1_656
Y0 Y5 3.578584 1_556
Y0 Y2 3.579763 1_555
Y0 Y4 3.579763 1_555
Y1 Y2 3.578572 1_555
Y1 Y2 3.578572 1_455
Y1 Y4 3.578584 1_554
Y1 Y4 3.578584 1_454
Y1 Y3 3.579763 1_555
Y1 Y5 3.579763 1_555
Y2 Y3 3.520051 1_545
Y2 Y3 3.520051 1_645
Y2 Y5 3.578580 1_645
Y2 Y5 3.578580 1_545
Y2 Y4 3.579763 1_555
Y3 Y4 3.578580 1_565
Y3 Y4 3.578580 1_465
Y3 Y5 3.579763 1_555
Y4 Y5 3.520041 1_656
Y4 Y5 3.520041 1_556
Ru0 Y2 2.972206 1_565
Ru0 Y4 2.972206 1_554
Ru0 Y0 2.972207 1_555
Ru0 Y5 3.147403 1_655
Ru0 Y5 3.147403 1_555
Ru0 Y3 3.147408 1_655
Ru0 Y3 3.147408 1_555
Ru0 Y1 3.147413 1_555
Ru0 Y1 3.147413 1_655
Ru1 Y3 2.972206 1_545
Ru1 Y5 2.972206 1_556
Ru1 Y1 2.972207 1_555
Ru1 Y4 3.147403 1_455
Ru1 Y4 3.147403 1_555
Ru1 Y2 3.147408 1_555
Ru1 Y2 3.147408 1_455
Ru1 Y0 3.147413 1_555
Ru1 Y0 3.147413 1_455
Ru2 Ru3 2.373733 1_455
Ru2 Ru3 2.373733 1_555
Ru2 Y2 2.929207 1_455
Ru2 Y3 2.929207 1_544
Ru2 Y1 2.929209 1_555
Ru2 Y0 2.929209 1_444
Ru2 Y5 2.929213 1_545
Ru2 Y4 2.929213 1_454
Ru3 Y2 2.929207 1_555
Ru3 Y3 2.929207 1_544
Ru3 Y1 2.929209 1_555
Ru3 Y0 2.929209 1_544
Ru3 Y5 2.929213 1_545
Ru3 Y4 2.929213 1_554
