# generated using pymatgen
data_Yb3Co
_symmetry_space_group_name_H-M   'P 1'
_cell_length_a   6.10905645
_cell_length_b   6.77814564
_cell_length_c   9.11818048
_cell_angle_alpha   90.00000000
_cell_angle_beta   90.00000000
_cell_angle_gamma   90.00000000
_symmetry_Int_Tables_number   1
_chemical_formula_structural   Yb3Co
_chemical_formula_sum   'Yb12 Co4'
_cell_volume   377.56629563
_cell_formula_units_Z   4
loop_
 _symmetry_equiv_pos_site_id
 _symmetry_equiv_pos_as_xyz
  1  'x, y, z'
loop_
 _atom_site_type_symbol
 _atom_site_label
 _atom_site_symmetry_multiplicity
 _atom_site_fract_x
 _atom_site_fract_y
 _atom_site_fract_z
 _atom_site_occupancy
  Yb  Yb0  1  0.32075230  0.67433494  0.06745863  1
  Yb  Yb1  1  0.17924770  0.17433494  0.43254137  1
  Yb  Yb2  1  0.67924770  0.32566506  0.56745863  1
  Yb  Yb3  1  0.82075230  0.82566506  0.93254137  1
  Yb  Yb4  1  0.67924770  0.32566506  0.93254137  1
  Yb  Yb5  1  0.82075230  0.82566506  0.56745863  1
  Yb  Yb6  1  0.32075230  0.67433494  0.43254137  1
  Yb  Yb7  1  0.17924770  0.17433494  0.06745863  1
  Yb  Yb8  1  0.86348047  0.54473679  0.25000000  1
  Yb  Yb9  1  0.63651953  0.04473679  0.25000000  1
  Yb  Yb10  1  0.13651953  0.45526321  0.75000000  1
  Yb  Yb11  1  0.36348047  0.95526321  0.75000000  1
  Co  Co0  1  0.03694115  0.88996713  0.25000000  1
  Co  Co1  1  0.46305885  0.38996713  0.25000000  1
  Co  Co2  1  0.96305885  0.11003287  0.75000000  1
  Co  Co3  1  0.53694115  0.61003287  0.75000000  1
loop_
_geom_bond_atom_site_label_1
_geom_bond_atom_site_label_2
_geom_bond_distance
_geom_bond_site_symmetry_2
Co0 Yb8 2.568779 1_455
Co0 Yb9 2.661653 1_465
Co0 Yb1 2.690979 1_565
Co0 Yb7 2.690979 1_565
Co0 Yb6 2.812959 1_555
Co0 Yb0 2.812959 1_555
Co0 Yb5 3.211419 1_455
Co0 Yb3 3.211419 1_454
Co1 Yb9 2.568779 1_555
Co1 Yb8 2.661653 1_555
Co1 Yb6 2.690979 1_555
Co1 Yb0 2.690979 1_555
Co1 Yb1 2.812959 1_555
Co1 Yb7 2.812959 1_555
Co1 Yb2 3.211419 1_555
Co1 Yb4 3.211419 1_554
Co2 Yb10 2.568779 1_655
Co2 Yb11 2.661653 1_645
Co2 Yb3 2.690979 1_545
Co2 Yb5 2.690979 1_545
Co2 Yb4 2.812959 1_555
Co2 Yb2 2.812959 1_555
Co2 Yb7 3.211419 1_656
Co2 Yb1 3.211419 1_655
Co3 Yb11 2.568779 1_555
Co3 Yb10 2.661653 1_555
Co3 Yb4 2.690979 1_555
Co3 Yb2 2.690979 1_555
Co3 Yb3 2.812959 1_555
Co3 Yb5 2.812959 1_555
Co3 Yb0 3.211419 1_556
Co3 Yb6 3.211419 1_555
