# generated using pymatgen
data_SrF2
_symmetry_space_group_name_H-M   'P 1'
_cell_length_a   4.06909400
_cell_length_b   4.42610200
_cell_length_c   12.25791000
_cell_angle_alpha   90.00000000
_cell_angle_beta   90.00000000
_cell_angle_gamma   90.00000000
_symmetry_Int_Tables_number   1
_chemical_formula_structural   SrF2
_chemical_formula_sum   'Sr4 F8'
_cell_volume   220.76771825
_cell_formula_units_Z   4
loop_
 _symmetry_equiv_pos_site_id
 _symmetry_equiv_pos_as_xyz
  1  'x, y, z'
loop_
 _atom_site_type_symbol
 _atom_site_label
 _atom_site_symmetry_multiplicity
 _atom_site_fract_x
 _atom_site_fract_y
 _atom_site_fract_z
 _atom_site_occupancy
  Sr  Sr0  1  0.25000000  0.43275100  0.63672300  1
  Sr  Sr1  1  0.25000000  0.06724900  0.13672300  1
  Sr  Sr2  1  0.75000000  0.56724900  0.36327700  1
  Sr  Sr3  1  0.75000000  0.93275100  0.86327700  1
  F  F0  1  0.25000000  0.79589700  0.96181700  1
  F  F1  1  0.25000000  0.70410300  0.46181700  1
  F  F2  1  0.75000000  0.20410300  0.03818300  1
  F  F3  1  0.75000000  0.29589700  0.53818300  1
  F  F4  1  0.25000000  0.56363500  0.22866000  1
  F  F5  1  0.25000000  0.93636500  0.72866000  1
  F  F6  1  0.75000000  0.43636500  0.77134000  1
  F  F7  1  0.75000000  0.06363500  0.27134000  1
loop_
_geom_bond_atom_site_label_1
_geom_bond_atom_site_label_2
_geom_bond_distance
_geom_bond_site_symmetry_2
F0 Sr3 2.442396 1_555
F0 Sr3 2.442396 1_455
F0 Sr1 2.457465 1_566
F1 Sr2 2.442396 1_555
F1 Sr2 2.442396 1_455
F1 Sr0 2.457465 1_555
F2 Sr1 2.442396 1_555
F2 Sr1 2.442396 1_655
F2 Sr3 2.457465 1_544
F3 Sr0 2.442396 1_655
F3 Sr0 2.442396 1_555
F3 Sr2 2.457465 1_555
F4 Sr1 2.469227 1_555
F4 Sr1 2.497735 1_565
F4 Sr2 2.619646 1_555
F4 Sr2 2.619646 1_455
F5 Sr0 2.469227 1_565
F5 Sr0 2.497735 1_555
F5 Sr3 2.619646 1_455
F5 Sr3 2.619646 1_555
F6 Sr3 2.469227 1_555
F6 Sr3 2.497735 1_545
F6 Sr0 2.619646 1_655
F6 Sr0 2.619646 1_555
F7 Sr2 2.469227 1_545
F7 Sr2 2.497735 1_555
F7 Sr1 2.619646 1_555
F7 Sr1 2.619646 1_655
