# generated using pymatgen
data_CaNdCrO4
_symmetry_space_group_name_H-M   'P 1'
_cell_length_a   6.54716764
_cell_length_b   6.54716764
_cell_length_c   5.65095800
_cell_angle_alpha   90.00000000
_cell_angle_beta   90.00000000
_cell_angle_gamma   130.98632752
_symmetry_Int_Tables_number   1
_chemical_formula_structural   CaNdCrO4
_chemical_formula_sum   'Ca2 Nd2 Cr2 O8'
_cell_volume   182.85167063
_cell_formula_units_Z   2
loop_
 _symmetry_equiv_pos_site_id
 _symmetry_equiv_pos_as_xyz
  1  'x, y, z'
loop_
 _atom_site_type_symbol
 _atom_site_label
 _atom_site_symmetry_multiplicity
 _atom_site_fract_x
 _atom_site_fract_y
 _atom_site_fract_z
 _atom_site_occupancy
  Ca  Ca0  1  0.60294200  0.39705800  0.48064000  1
  Ca  Ca1  1  0.39705800  0.60294200  0.98064000  1
  Nd  Nd0  1  0.88815900  0.11184100  0.51859400  1
  Nd  Nd1  1  0.11184100  0.88815900  0.01859400  1
  Cr  Cr0  1  0.25038200  0.74961800  0.50217200  1
  Cr  Cr1  1  0.74961800  0.25038200  0.00217200  1
  O  O0  1  0.47976500  0.02472700  0.74857400  1
  O  O1  1  0.52023500  0.97527300  0.24857400  1
  O  O2  1  0.02472700  0.47976500  0.24857400  1
  O  O3  1  0.97527300  0.52023500  0.74857400  1
  O  O4  1  0.41793000  0.58207000  0.56622800  1
  O  O5  1  0.07725600  0.92274400  0.43521700  1
  O  O6  1  0.58207000  0.41793000  0.06622800  1
  O  O7  1  0.92274400  0.07725600  0.93521700  1
loop_
_geom_bond_atom_site_label_1
_geom_bond_atom_site_label_2
_geom_bond_distance
_geom_bond_site_symmetry_2
Ca0 O4 2.256796 1_555
Ca0 O6 2.354992 1_555
Ca0 O0 2.511268 1_555
Ca0 O3 2.511268 1_555
Ca0 O5 2.744994 1_545
Ca0 O5 2.744994 1_655
Ca0 O1 2.770797 1_545
Ca0 O2 2.770797 1_655
Ca1 O6 2.256796 1_556
Ca1 O4 2.354992 1_555
Ca1 O2 2.511268 1_556
Ca1 O1 2.511268 1_556
Ca1 O7 2.744994 1_455
Ca1 O7 2.744994 1_565
Ca1 O3 2.770797 1_455
Ca1 O0 2.770797 1_565
Nd0 O5 2.301770 1_645
Nd0 O7 2.390109 1_555
Nd0 O1 2.470839 1_545
Nd0 O2 2.470839 1_655
Nd0 O0 2.676408 1_555
Nd0 O3 2.676408 1_555
Nd0 O4 2.752040 1_545
Nd0 O4 2.752040 1_655
Nd1 O7 2.301770 1_464
Nd1 O5 2.390109 1_555
Nd1 O3 2.470839 1_454
Nd1 O0 2.470839 1_564
Nd1 O2 2.676408 1_555
Nd1 O1 2.676408 1_555
Nd1 O6 2.752040 1_455
Nd1 O6 2.752040 1_565
Cr0 O0 1.972345 1_565
Cr0 O3 1.972345 1_455
Cr0 O1 1.983407 1_555
Cr0 O2 1.983407 1_555
Cr0 O4 2.028835 1_555
Cr0 O5 2.097156 1_555
Cr1 O2 1.972345 1_655
Cr1 O1 1.972345 1_545
Cr1 O3 1.983407 1_554
Cr1 O0 1.983407 1_554
Cr1 O6 2.028835 1_555
Cr1 O7 2.097156 1_554
