# generated using pymatgen
data_CsKNa2Li12(SiO4)4
_symmetry_space_group_name_H-M   'P 1'
_cell_length_a   8.50854984
_cell_length_b   8.50854984
_cell_length_c   8.50854984
_cell_angle_alpha   98.21141814
_cell_angle_beta   98.21141814
_cell_angle_gamma   135.58976178
_symmetry_Int_Tables_number   1
_chemical_formula_structural   CsKNa2Li12(SiO4)4
_chemical_formula_sum   'Cs1 K1 Na2 Li12 Si4 O16'
_cell_volume   399.08871141
_cell_formula_units_Z   1
loop_
 _symmetry_equiv_pos_site_id
 _symmetry_equiv_pos_as_xyz
  1  'x, y, z'
loop_
 _atom_site_type_symbol
 _atom_site_label
 _atom_site_symmetry_multiplicity
 _atom_site_fract_x
 _atom_site_fract_y
 _atom_site_fract_z
 _atom_site_occupancy
  Cs  Cs0  1  0.00000000  0.00000000  0.00000000  1
  K  K0  1  0.50000000  0.50000000  0.00000000  1
  Na  Na0  1  0.75000000  0.25000000  0.50000000  1
  Na  Na1  1  0.25000000  0.75000000  0.50000000  1
  Li  Li0  1  0.07360300  0.28994800  0.36355100  1
  Li  Li1  1  0.71005200  0.07360300  0.78365600  1
  Li  Li2  1  0.92639700  0.71005200  0.63644900  1
  Li  Li3  1  0.28994800  0.92639700  0.21634400  1
  Li  Li4  1  0.14635000  0.50061200  0.12877300  1
  Li  Li5  1  0.50061200  0.37183900  0.35426300  1
  Li  Li6  1  0.85365100  0.49938800  0.87122700  1
  Li  Li7  1  0.37183900  0.01757600  0.87122700  1
  Li  Li8  1  0.62816100  0.98242400  0.12877300  1
  Li  Li9  1  0.98242400  0.85365100  0.35426300  1
  Li  Li10  1  0.49938800  0.62816100  0.64573700  1
  Li  Li11  1  0.01757600  0.14634900  0.64573700  1
  Si  Si0  1  0.21452900  0.57854200  0.79307100  1
  Si  Si1  1  0.78547100  0.42145800  0.20692900  1
  Si  Si2  1  0.57854200  0.78547100  0.36401300  1
  Si  Si3  1  0.42145800  0.21452900  0.63598700  1
  O  O0  1  0.62135100  0.51002100  0.70080700  1
  O  O1  1  0.92054400  0.62135100  0.11133000  1
  O  O2  1  0.80921400  0.92054400  0.29919300  1
  O  O3  1  0.51002100  0.80921400  0.88867000  1
  O  O4  1  0.07945600  0.37864900  0.88867000  1
  O  O5  1  0.37864900  0.48997900  0.29919300  1
  O  O6  1  0.48997900  0.19078600  0.11133000  1
  O  O7  1  0.19078600  0.07945600  0.70080700  1
  O  O8  1  0.56150200  0.16197400  0.72347500  1
  O  O9  1  0.16197400  0.43849800  0.60047200  1
  O  O10  1  0.83802600  0.56150200  0.39952800  1
  O  O11  1  0.43849800  0.83802600  0.27652500  1
  O  O12  1  0.89997400  0.32723100  0.22720500  1
  O  O13  1  0.32723100  0.10002600  0.42725600  1
  O  O14  1  0.67276900  0.89997400  0.57274400  1
  O  O15  1  0.10002600  0.67276900  0.77279500  1
loop_
_geom_bond_atom_site_label_1
_geom_bond_atom_site_label_2
_geom_bond_distance
_geom_bond_site_symmetry_2
Cs0 O4 3.110775 1_554
Cs0 O1 3.110775 1_445
Cs0 O7 3.110775 1_554
Cs0 O2 3.110775 1_445
Cs0 O5 3.110775 1_555
Cs0 O0 3.110775 1_444
Cs0 O3 3.110775 1_444
Cs0 O6 3.110775 1_555
K0 O1 2.870716 1_555
K0 O4 2.870716 1_554
K0 O2 2.870716 1_555
K0 O7 2.870716 1_554
K0 O3 2.870716 1_554
K0 O0 2.870716 1_554
K0 O5 2.870716 1_555
K0 O6 2.870716 1_555
Na0 O8 2.512075 1_555
Na0 O11 2.512080 1_545
Na0 O9 2.512083 1_655
Na0 O10 2.512083 1_555
Na0 O13 2.744330 1_555
Na0 O12 2.744330 1_555
Na0 O15 2.744330 1_655
Na0 O14 2.744334 1_545
Na1 O11 2.512075 1_555
Na1 O8 2.512080 1_565
Na1 O9 2.512083 1_555
Na1 O10 2.512083 1_455
Na1 O14 2.744330 1_555
Na1 O12 2.744330 1_455
Na1 O15 2.744330 1_555
Na1 O13 2.744334 1_565
Li0 O9 1.925618 1_555
Li0 O12 1.978407 1_455
Li0 O5 2.072241 1_555
Li0 O2 2.072241 1_445
Li1 O8 1.925622 1_555
Li1 O14 1.978407 1_545
Li1 O3 2.072235 1_545
Li1 O4 2.072241 1_655
Li2 O10 1.925618 1_555
Li2 O15 1.978407 1_655
Li2 O0 2.072241 1_555
Li2 O7 2.072241 1_665
Li3 O11 1.925622 1_555
Li3 O13 1.978407 1_565
Li3 O6 2.072235 1_565
Li3 O1 2.072241 1_455
Li4 O12 1.925715 1_455
Li4 O4 1.947513 1_554
Li4 O11 1.970328 1_555
Li4 O5 2.343436 1_555
Li5 O13 1.925705 1_555
Li5 O5 1.947515 1_555
Li5 O10 1.970327 1_555
Li5 O6 2.343443 1_555
Li6 O15 1.925710 1_655
Li6 O1 1.947515 1_556
Li6 O8 1.970329 1_555
Li6 O0 2.343443 1_555
Li7 O15 1.925710 1_545
Li7 O6 1.947515 1_556
Li7 O8 1.970334 1_555
Li7 O7 2.343443 1_555
Li8 O12 1.925710 1_565
Li8 O3 1.947515 1_554
Li8 O11 1.970334 1_555
Li8 O2 2.343443 1_555
Li9 O13 1.925711 1_665
Li9 O2 1.947515 1_555
Li9 O10 1.970327 1_555
Li9 O1 2.343443 1_555
Li10 O14 1.925705 1_555
Li10 O0 1.947515 1_555
Li10 O9 1.970327 1_555
Li10 O3 2.343443 1_555
Li11 O14 1.925711 1_445
Li11 O7 1.947515 1_555
Li11 O9 1.970327 1_555
Li11 O4 2.343443 1_555
O0 Si3 1.656730 1_555
O1 Si1 1.656730 1_555
O2 Si2 1.656730 1_555
O3 Si0 1.656730 1_555
O4 Si0 1.656730 1_555
O5 Si2 1.656730 1_555
O6 Si1 1.656730 1_555
O7 Si3 1.656730 1_555
O8 Si3 1.666400 1_555
O9 Si0 1.666404 1_555
O10 Si1 1.666404 1_555
O11 Si2 1.666400 1_555
O12 Si1 1.652016 1_555
O13 Si3 1.652024 1_555
O14 Si2 1.652024 1_555
O15 Si0 1.652016 1_555
