# generated using pymatgen
data_SrCuP2O7
_symmetry_space_group_name_H-M   'P 1'
_cell_length_a   8.20894000
_cell_length_b   5.50011100
_cell_length_c   13.66044642
_cell_angle_alpha   67.23503754
_cell_angle_beta   90.00000000
_cell_angle_gamma   90.00000000
_symmetry_Int_Tables_number   1
_chemical_formula_structural   SrCuP2O7
_chemical_formula_sum   'Sr4 Cu4 P8 O28'
_cell_volume   568.72383227
_cell_formula_units_Z   4
loop_
 _symmetry_equiv_pos_site_id
 _symmetry_equiv_pos_as_xyz
  1  'x, y, z'
loop_
 _atom_site_type_symbol
 _atom_site_label
 _atom_site_symmetry_multiplicity
 _atom_site_fract_x
 _atom_site_fract_y
 _atom_site_fract_z
 _atom_site_occupancy
  Sr  Sr0  1  0.65631200  0.99222400  0.71867300  1
  Sr  Sr1  1  0.15631200  0.00777600  0.78132700  1
  Sr  Sr2  1  0.34368800  0.00777600  0.28132700  1
  Sr  Sr3  1  0.84368800  0.99222400  0.21867300  1
  Cu  Cu0  1  0.85442000  0.32579000  0.88731700  1
  Cu  Cu1  1  0.35442000  0.67421000  0.61268300  1
  Cu  Cu2  1  0.14558000  0.67421000  0.11268300  1
  Cu  Cu3  1  0.64558000  0.32579000  0.38731700  1
  P  P0  1  0.96301100  0.59470300  0.66139800  1
  P  P1  1  0.46301100  0.40529700  0.83860200  1
  P  P2  1  0.03698900  0.40529700  0.33860200  1
  P  P3  1  0.53698900  0.59470300  0.16139800  1
  P  P4  1  0.69375700  0.66918700  0.51218300  1
  P  P5  1  0.19375700  0.33081300  0.98781700  1
  P  P6  1  0.30624300  0.33081300  0.48781700  1
  P  P7  1  0.80624300  0.66918700  0.01218300  1
  O  O0  1  0.13974500  0.51902800  0.65125200  1
  O  O1  1  0.63974500  0.48097200  0.84874800  1
  O  O2  1  0.86025500  0.48097200  0.34874800  1
  O  O3  1  0.36025500  0.51902800  0.15125200  1
  O  O4  1  0.94169800  0.82138000  0.69764800  1
  O  O5  1  0.44169800  0.17862000  0.80235200  1
  O  O6  1  0.05830200  0.17862000  0.30235200  1
  O  O7  1  0.55830200  0.82138000  0.19764800  1
  O  O8  1  0.87574000  0.33788400  0.73469000  1
  O  O9  1  0.37574000  0.66211600  0.76531000  1
  O  O10  1  0.12426000  0.66211600  0.26531000  1
  O  O11  1  0.62426000  0.33788400  0.23469000  1
  O  O12  1  0.88341700  0.68264700  0.54479500  1
  O  O13  1  0.38341700  0.31735300  0.95520500  1
  O  O14  1  0.11658300  0.31735300  0.45520500  1
  O  O15  1  0.61658300  0.68264700  0.04479500  1
  O  O16  1  0.90623000  0.72697800  0.09735500  1
  O  O17  1  0.40623000  0.27302200  0.40264500  1
  O  O18  1  0.09377000  0.27302200  0.90264500  1
  O  O19  1  0.59377000  0.72697800  0.59735500  1
  O  O20  1  0.83598500  0.38064100  0.02341600  1
  O  O21  1  0.33598500  0.61935900  0.47658400  1
  O  O22  1  0.16401500  0.61935900  0.97658400  1
  O  O23  1  0.66401500  0.38064100  0.52341600  1
  O  O24  1  0.82258000  0.87800200  0.90104800  1
  O  O25  1  0.32258000  0.12199800  0.59895200  1
  O  O26  1  0.17742000  0.12199800  0.09895200  1
  O  O27  1  0.67742000  0.87800200  0.40104800  1
loop_
_geom_bond_atom_site_label_1
_geom_bond_atom_site_label_2
_geom_bond_distance
_geom_bond_site_symmetry_2
Cu0 O1 1.940002 1_555
Cu0 O18 1.985327 1_655
Cu0 O20 2.001128 1_556
Cu0 O8 2.067548 1_555
Cu0 O24 2.410763 1_545
Cu1 O0 1.940002 1_555
Cu1 O19 1.985327 1_555
Cu1 O21 2.001128 1_555
Cu1 O9 2.067548 1_555
Cu1 O25 2.410763 1_565
Cu2 O3 1.940002 1_555
Cu2 O16 1.985327 1_455
Cu2 O22 2.001128 1_554
Cu2 O10 2.067548 1_555
Cu2 O26 2.410763 1_565
Cu3 O2 1.940002 1_555
Cu3 O17 1.985327 1_555
Cu3 O23 2.001128 1_555
Cu3 O11 2.067548 1_555
Cu3 O27 2.410763 1_545
O0 P0 1.530330 1_455
O0 Sr1 2.686266 1_555
O1 P1 1.530330 1_555
O1 Sr0 2.686266 1_555
O2 P2 1.530330 1_655
O2 Sr3 2.686266 1_555
O3 P3 1.530330 1_555
O3 Sr2 2.686266 1_555
O4 P0 1.519210 1_555
O4 Sr1 2.523570 1_665
O4 Sr0 2.581208 1_555
O5 P1 1.519210 1_555
O5 Sr0 2.523570 1_545
O5 Sr1 2.581208 1_555
O6 P2 1.519210 1_555
O6 Sr3 2.523570 1_445
O6 Sr2 2.581208 1_555
O7 P3 1.519210 1_555
O7 Sr2 2.523570 1_565
O7 Sr3 2.581208 1_555
O8 P0 1.554480 1_555
O8 Sr0 2.688646 1_545
O8 Sr1 2.848146 1_655
O9 P1 1.554480 1_555
O9 Sr1 2.688646 1_565
O9 Sr0 2.848146 1_555
O10 P2 1.554480 1_555
O10 Sr2 2.688646 1_565
O10 Sr3 2.848146 1_455
O11 P3 1.554480 1_555
O11 Sr3 2.688646 1_545
O11 Sr2 2.848146 1_555
O12 P0 1.613003 1_555
O12 P4 1.628936 1_555
O13 P1 1.613003 1_555
O13 P5 1.628936 1_555
O14 P2 1.613003 1_555
O14 P6 1.628936 1_555
O15 P3 1.613003 1_555
O15 P7 1.628936 1_555
O16 P7 1.553910 1_555
O16 Sr3 2.647551 1_555
O17 P6 1.553910 1_555
O17 Sr2 2.647551 1_555
O18 P5 1.553910 1_555
O18 Sr1 2.647551 1_555
O19 P4 1.553910 1_555
O19 Sr0 2.647551 1_555
O20 P7 1.553502 1_555
O20 Sr3 2.696761 1_545
O21 P6 1.553502 1_555
O21 Sr2 2.696761 1_565
O22 P5 1.553502 1_555
O22 Sr1 2.696761 1_565
O23 P4 1.553502 1_555
O23 Sr0 2.696761 1_545
O24 P7 1.514086 1_556
O24 Sr0 2.693143 1_555
O24 Sr1 3.128270 1_665
O25 P6 1.514086 1_555
O25 Sr1 2.693143 1_555
O25 Sr0 3.128270 1_545
O26 P5 1.514086 1_554
O26 Sr2 2.693143 1_555
O26 Sr3 3.128270 1_445
O27 P4 1.514086 1_555
O27 Sr3 2.693143 1_555
O27 Sr2 3.128270 1_565
