# generated using pymatgen
data_Mg2Si
_symmetry_space_group_name_H-M   'P 1'
_cell_length_a   5.80564100
_cell_length_b   6.50179677
_cell_length_c   7.25697716
_cell_angle_alpha   80.39461203
_cell_angle_beta   70.77616094
_cell_angle_gamma   70.93359031
_symmetry_Int_Tables_number   1
_chemical_formula_structural   Mg2Si
_chemical_formula_sum   'Mg8 Si4'
_cell_volume   243.92531041
_cell_formula_units_Z   4
loop_
 _symmetry_equiv_pos_site_id
 _symmetry_equiv_pos_as_xyz
  1  'x, y, z'
loop_
 _atom_site_type_symbol
 _atom_site_label
 _atom_site_symmetry_multiplicity
 _atom_site_fract_x
 _atom_site_fract_y
 _atom_site_fract_z
 _atom_site_occupancy
  Mg  Mg0  1  0.92940400  0.95566300  0.17661200  1
  Mg  Mg1  1  0.79383500  0.83744800  0.81105700  1
  Mg  Mg2  1  0.32664800  0.63803700  0.83773600  1
  Mg  Mg3  1  0.63504400  0.22333200  0.54708800  1
  Mg  Mg4  1  0.92292200  0.46778900  0.17890100  1
  Mg  Mg5  1  0.18755600  0.58017500  0.46449800  1
  Mg  Mg6  1  0.26775600  0.04134700  0.42190600  1
  Mg  Mg7  1  0.93211000  0.29561500  0.80457400  1
  Si  Si0  1  0.68178200  0.69685800  0.50365500  1
  Si  Si1  1  0.52160600  0.33328100  0.16224300  1
  Si  Si2  1  0.44335200  0.75064500  0.12808400  1
  Si  Si3  1  0.35809500  0.17981100  0.96317800  1
loop_
_geom_bond_atom_site_label_1
_geom_bond_atom_site_label_2
_geom_bond_distance
_geom_bond_site_symmetry_2
Mg0 Si2 2.769493 1_655
Mg0 Si1 2.814881 1_565
Mg0 Si0 2.920923 1_555
Mg0 Si3 3.129709 1_664
Mg1 Si2 2.643118 1_556
Mg1 Si3 2.806300 1_565
Mg1 Si0 2.874012 1_555
Mg2 Si0 2.681240 1_555
Mg2 Si2 2.685852 1_556
Mg2 Si3 2.930391 1_555
Mg2 Si1 3.079906 1_556
Mg3 Si3 2.932232 1_555
Mg3 Si1 2.996983 1_555
Mg3 Si0 3.133277 1_555
Mg4 Si0 2.714546 1_555
Mg4 Si3 2.760917 1_654
Mg4 Si1 2.785648 1_555
Mg4 Si2 2.893880 1_555
Mg5 Si2 2.679348 1_555
Mg5 Si0 2.710257 1_455
Mg5 Si1 2.736622 1_555
Mg6 Si2 2.795153 1_545
Mg6 Si0 2.850365 1_545
Mg6 Si1 2.851448 1_555
Mg6 Si3 3.213444 1_554
Mg7 Si1 2.869528 1_556
Mg7 Si3 2.894253 1_655
Si1 Si3 2.446768 1_554
Si1 Si2 2.583755 1_555
Si2 Si3 2.799380 1_564
