# generated using pymatgen
data_Cu2PPd2
_symmetry_space_group_name_H-M   'P 1'
_cell_length_a   4.98646316
_cell_length_b   4.98646316
_cell_length_c   5.46238509
_cell_angle_alpha   90.00000000
_cell_angle_beta   90.00000000
_cell_angle_gamma   92.46491290
_symmetry_Int_Tables_number   1
_chemical_formula_structural   Cu2PPd2
_chemical_formula_sum   'Cu4 P2 Pd4'
_cell_volume   135.69552477
_cell_formula_units_Z   2
loop_
 _symmetry_equiv_pos_site_id
 _symmetry_equiv_pos_as_xyz
  1  'x, y, z'
loop_
 _atom_site_type_symbol
 _atom_site_label
 _atom_site_symmetry_multiplicity
 _atom_site_fract_x
 _atom_site_fract_y
 _atom_site_fract_z
 _atom_site_occupancy
  Cu  Cu0  1  0.74316082  0.85276373  0.66330737  1
  Cu  Cu1  1  0.25683918  0.14723627  0.66330737  1
  Cu  Cu2  1  0.35276373  0.24316082  0.16330737  1
  Cu  Cu3  1  0.64723627  0.75683918  0.16330737  1
  P  P0  1  0.00000000  -0.00000000  0.99457938  1
  P  P1  1  0.50000000  0.50000000  0.49457938  1
  Pd  Pd0  1  0.14995179  0.75468750  0.33940294  1
  Pd  Pd1  1  0.85004821  0.24531250  0.33940294  1
  Pd  Pd2  1  0.74531250  0.35004821  0.83940294  1
  Pd  Pd3  1  0.25468750  0.64995179  0.83940294  1
loop_
_geom_bond_atom_site_label_1
_geom_bond_atom_site_label_2
_geom_bond_distance
_geom_bond_site_symmetry_2
Cu0 P1 2.287010 1_555
Cu0 P0 2.317933 1_665
Cu0 Pd2 2.659313 1_565
Cu0 Pd1 2.675119 1_565
Cu0 Pd2 2.685441 1_555
Cu0 Pd0 2.751271 1_655
Cu0 Pd3 2.769301 1_555
Cu0 Pd3 2.945507 1_655
Cu1 P1 2.287010 1_555
Cu1 P0 2.317933 1_555
Cu1 Pd3 2.659313 1_545
Cu1 Pd0 2.675119 1_545
Cu1 Pd3 2.685441 1_555
Cu1 Pd1 2.751271 1_455
Cu1 Pd2 2.769301 1_555
Cu1 Pd2 2.945507 1_455
Cu2 P0 2.287010 1_554
Cu2 P1 2.317933 1_555
Cu2 Pd1 2.659313 1_555
Cu2 Pd2 2.675119 1_554
Cu2 Pd1 2.685441 1_455
Cu2 Pd3 2.751271 1_554
Cu2 Pd0 2.769301 1_545
Cu2 Pd0 2.945507 1_555
Cu3 P0 2.287010 1_664
Cu3 P1 2.317933 1_555
Cu3 Pd0 2.659313 1_555
Cu3 Pd3 2.675119 1_554
Cu3 Pd0 2.685441 1_655
Cu3 Pd2 2.751271 1_554
Cu3 Pd1 2.769301 1_565
Cu3 Pd1 2.945507 1_555
P0 Pd3 2.359833 1_545
P0 Pd2 2.359833 1_455
P0 Pd0 2.383671 1_546
P0 Pd1 2.383671 1_456
P1 Pd1 2.359833 1_555
P1 Pd0 2.359833 1_555
P1 Pd2 2.383671 1_555
P1 Pd3 2.383671 1_555
Pd0 Pd3 2.833441 1_554
Pd0 Pd3 2.833441 1_555
Pd0 Pd1 2.891569 1_455
Pd0 Pd1 2.921707 1_465
Pd1 Pd2 2.833441 1_554
Pd1 Pd2 2.833441 1_555
Pd2 Pd3 2.891569 1_655
Pd2 Pd3 2.921707 1_555
