# generated using pymatgen
data_Y2(Al3Co)3
_symmetry_space_group_name_H-M   'P 1'
_cell_length_a   7.38082763
_cell_length_b   7.38082763
_cell_length_c   9.33271400
_cell_angle_alpha   90.00000000
_cell_angle_beta   90.00000000
_cell_angle_gamma   119.27758399
_symmetry_Int_Tables_number   1
_chemical_formula_structural   Y2(Al3Co)3
_chemical_formula_sum   'Y4 Al18 Co6'
_cell_volume   443.47012976
_cell_formula_units_Z   2
loop_
 _symmetry_equiv_pos_site_id
 _symmetry_equiv_pos_as_xyz
  1  'x, y, z'
loop_
 _atom_site_type_symbol
 _atom_site_label
 _atom_site_symmetry_multiplicity
 _atom_site_fract_x
 _atom_site_fract_y
 _atom_site_fract_z
 _atom_site_occupancy
  Y  Y0  1  0.99320700  0.67188400  0.25000000  1
  Y  Y1  1  0.00679300  0.32811600  0.75000000  1
  Y  Y2  1  0.67188400  0.99320700  0.25000000  1
  Y  Y3  1  0.32811600  0.00679300  0.75000000  1
  Al  Al0  1  0.12500500  0.12500500  0.25000000  1
  Al  Al1  1  0.87499500  0.87499500  0.75000000  1
  Al  Al2  1  0.33222300  0.33222300  0.54199400  1
  Al  Al3  1  0.66777700  0.66777700  0.04199400  1
  Al  Al4  1  0.33222300  0.33222300  0.95800600  1
  Al  Al5  1  0.66777700  0.66777700  0.45800600  1
  Al  Al6  1  0.33862600  0.55330800  0.25000000  1
  Al  Al7  1  0.66137400  0.44669200  0.75000000  1
  Al  Al8  1  0.55330800  0.33862600  0.25000000  1
  Al  Al9  1  0.44669200  0.66137400  0.75000000  1
  Al  Al10  1  0.99827200  0.33516200  0.07079700  1
  Al  Al11  1  0.00172800  0.66483800  0.57079700  1
  Al  Al12  1  0.33516200  0.99827200  0.42920300  1
  Al  Al13  1  0.66483800  0.00172800  0.92920300  1
  Al  Al14  1  0.00172800  0.66483800  0.92920300  1
  Al  Al15  1  0.99827200  0.33516200  0.42920300  1
  Al  Al16  1  0.66483800  0.00172800  0.57079700  1
  Al  Al17  1  0.33516200  0.99827200  0.07079700  1
  Co  Co0  1  0.00000000  0.00000000  0.00000000  1
  Co  Co1  1  0.00000000  0.00000000  0.50000000  1
  Co  Co2  1  0.67084800  0.32915200  0.00000000  1
  Co  Co3  1  0.32915200  0.67084800  0.50000000  1
  Co  Co4  1  0.32915200  0.67084800  0.00000000  1
  Co  Co5  1  0.67084800  0.32915200  0.50000000  1
loop_
_geom_bond_atom_site_label_1
_geom_bond_atom_site_label_2
_geom_bond_distance
_geom_bond_site_symmetry_2
Al0 Co0 2.512697 1_555
Al0 Co1 2.512697 1_555
Al0 Al17 2.738099 1_545
Al0 Al10 2.738099 1_455
Al0 Al12 2.738099 1_545
Al0 Al15 2.738099 1_455
Al0 Al6 2.757588 1_555
Al0 Al8 2.757588 1_555
Al0 Y2 2.991538 1_445
Al0 Y0 2.991538 1_445
Al1 Co0 2.512697 1_666
Al1 Co1 2.512697 1_665
Al1 Al13 2.738099 1_565
Al1 Al14 2.738099 1_655
Al1 Al11 2.738099 1_655
Al1 Al16 2.738099 1_565
Al1 Al9 2.757588 1_555
Al1 Al7 2.757588 1_555
Al1 Y1 2.991538 1_665
Al1 Y3 2.991538 1_665
Al2 Co1 2.509598 1_555
Al2 Co5 2.540903 1_555
Al2 Co3 2.540903 1_555
Al2 Al7 2.894264 1_555
Al2 Al9 2.894264 1_555
Al2 Y1 3.076934 1_555
Al2 Y3 3.076934 1_555
Al3 Co0 2.509598 1_665
Al3 Co4 2.540903 1_555
Al3 Co2 2.540903 1_555
Al3 Al8 2.894264 1_555
Al3 Al6 2.894264 1_555
Al3 Y0 3.076934 1_555
Al3 Y2 3.076934 1_555
Al4 Co0 2.509598 1_556
Al4 Co4 2.540903 1_556
Al4 Co2 2.540903 1_556
Al4 Al7 2.894264 1_555
Al4 Al9 2.894264 1_555
Al4 Y1 3.076934 1_555
Al4 Y3 3.076934 1_555
Al5 Co1 2.509598 1_665
Al5 Co5 2.540903 1_555
Al5 Co3 2.540903 1_555
Al5 Al8 2.894264 1_555
Al5 Al6 2.894264 1_555
Al5 Y0 3.076934 1_555
Al5 Y2 3.076934 1_555
Al6 Co4 2.502114 1_555
Al6 Co3 2.502114 1_555
Al6 Al8 2.734444 1_555
Al6 Y2 2.963246 1_555
Al6 Y0 3.073787 1_455
Al7 Co2 2.502114 1_556
Al7 Co5 2.502114 1_555
Al7 Al9 2.734444 1_555
Al7 Y3 2.963246 1_555
Al7 Y1 3.073787 1_655
Al8 Co5 2.502114 1_555
Al8 Co2 2.502114 1_555
Al8 Y0 2.963246 1_555
Al8 Y2 3.073787 1_545
Al9 Co3 2.502114 1_555
Al9 Co4 2.502114 1_556
Al9 Y1 2.963246 1_555
Al9 Y3 3.073787 1_565
Al10 Co2 2.484738 1_555
Al10 Co0 2.566542 1_655
Al10 Co4 2.573180 1_655
Al10 Al4 2.690026 1_654
Al10 Al14 2.758088 1_654
Al10 Al6 2.782814 1_655
Al10 Al13 2.817021 1_554
Al10 Y1 2.995553 1_654
Al10 Y2 3.003946 1_545
Al10 Y0 3.010982 1_555
Al11 Co3 2.484738 1_555
Al11 Co1 2.566542 1_565
Al11 Co5 2.573180 1_455
Al11 Al5 2.690026 1_455
Al11 Al15 2.758088 1_455
Al11 Al7 2.782814 1_455
Al11 Al12 2.817021 1_555
Al11 Y0 2.995553 1_455
Al11 Y3 3.003946 1_565
Al11 Y1 3.010982 1_555
Al12 Co3 2.484738 1_555
Al12 Co1 2.566542 1_565
Al12 Co5 2.573180 1_565
Al12 Al2 2.690026 1_565
Al12 Al16 2.758088 1_565
Al12 Al8 2.782814 1_565
Al12 Y3 2.995553 1_565
Al12 Y0 3.003946 1_455
Al12 Y2 3.010982 1_555
Al13 Co2 2.484738 1_556
Al13 Co0 2.566542 1_656
Al13 Co4 2.573180 1_546
Al13 Al3 2.690026 1_546
Al13 Al17 2.758088 1_546
Al13 Al9 2.782814 1_545
Al13 Y2 2.995553 1_546
Al13 Y1 3.003946 1_655
Al13 Y3 3.010982 1_555
Al14 Co4 2.484738 1_556
Al14 Co0 2.566542 1_566
Al14 Co2 2.573180 1_456
Al14 Al3 2.690026 1_456
Al14 Al7 2.782814 1_455
Al14 Al17 2.817021 1_556
Al14 Y0 2.995553 1_456
Al14 Y3 3.003946 1_565
Al14 Y1 3.010982 1_555
Al15 Co5 2.484738 1_555
Al15 Co1 2.566542 1_655
Al15 Co3 2.573180 1_655
Al15 Al2 2.690026 1_655
Al15 Al6 2.782814 1_655
Al15 Al16 2.817021 1_555
Al15 Y1 2.995553 1_655
Al15 Y2 3.003946 1_545
Al15 Y0 3.010982 1_555
Al16 Co5 2.484738 1_555
Al16 Co1 2.566542 1_655
Al16 Co3 2.573180 1_545
Al16 Al5 2.690026 1_545
Al16 Al9 2.782814 1_545
Al16 Y2 2.995553 1_545
Al16 Y1 3.003946 1_655
Al16 Y3 3.010982 1_555
Al17 Co4 2.484738 1_555
Al17 Co0 2.566542 1_565
Al17 Co2 2.573180 1_565
Al17 Al4 2.690026 1_564
Al17 Al8 2.782814 1_565
Al17 Y3 2.995553 1_564
Al17 Y0 3.003946 1_455
Al17 Y2 3.010982 1_555
