# generated using pymatgen
data_Gd(Fe5Si)2
_symmetry_space_group_name_H-M   'P 1'
_cell_length_a   4.73236500
_cell_length_b   6.36076714
_cell_length_c   6.36076714
_cell_angle_alpha   98.36006737
_cell_angle_beta   111.83878860
_cell_angle_gamma   68.16121140
_symmetry_Int_Tables_number   1
_chemical_formula_structural   Gd(Fe5Si)2
_chemical_formula_sum   'Gd1 Fe10 Si2'
_cell_volume   164.96734230
_cell_formula_units_Z   1
loop_
 _symmetry_equiv_pos_site_id
 _symmetry_equiv_pos_as_xyz
  1  'x, y, z'
loop_
 _atom_site_type_symbol
 _atom_site_label
 _atom_site_symmetry_multiplicity
 _atom_site_fract_x
 _atom_site_fract_y
 _atom_site_fract_z
 _atom_site_occupancy
  Gd  Gd0  1  0.00000000  0.00000000  0.00000000  1
  Fe  Fe0  1  0.63851500  0.36148500  0.63851500  1
  Fe  Fe1  1  0.36148500  0.63851500  0.36148500  1
  Fe  Fe2  1  0.00000000  0.35485100  0.35485100  1
  Fe  Fe3  1  0.00000000  0.64514900  0.64514900  1
  Fe  Fe4  1  0.50000000  0.78878100  0.78878100  1
  Fe  Fe5  1  0.50000000  0.21121900  0.21121900  1
  Fe  Fe6  1  0.50000000  0.00000000  0.50000000  1
  Fe  Fe7  1  0.00000000  0.00000000  0.50000000  1
  Fe  Fe8  1  0.50000000  0.50000000  0.00000000  1
  Fe  Fe9  1  0.00000000  0.50000000  0.00000000  1
  Si  Si0  1  0.73704900  0.76295100  0.23704900  1
  Si  Si1  1  0.26295100  0.23704900  0.76295100  1
loop_
_geom_bond_atom_site_label_1
_geom_bond_atom_site_label_2
_geom_bond_distance
_geom_bond_site_symmetry_2
Gd0 Si1 3.090062 1_554
Gd0 Si0 3.090062 1_445
Gd0 Si0 3.090063 1_545
Gd0 Si1 3.090063 1_454
Fe0 Fe1 2.322571 1_555
Fe0 Fe6 2.568155 1_555
Fe0 Fe8 2.568155 1_556
Fe0 Fe7 2.568155 1_655
Fe0 Fe9 2.568155 1_656
Fe0 Si1 2.585960 1_555
Fe0 Si1 2.585960 1_655
Fe0 Fe5 2.667511 1_555
Fe0 Fe4 2.667511 1_555
Fe0 Fe3 2.899025 1_655
Fe0 Fe2 2.899025 1_655
Fe0 Fe3 2.899026 1_555
Fe0 Fe2 2.899026 1_555
Fe0 Gd0 3.030627 1_656
Fe1 Fe8 2.568155 1_555
Fe1 Fe6 2.568155 1_565
Fe1 Fe9 2.568155 1_555
Fe1 Fe7 2.568155 1_565
Fe1 Si0 2.585960 1_555
Fe1 Si0 2.585960 1_455
Fe1 Fe5 2.667511 1_555
Fe1 Fe4 2.667511 1_555
Fe1 Fe3 2.899025 1_555
Fe1 Fe2 2.899025 1_555
Fe1 Fe2 2.899026 1_655
Fe1 Fe3 2.899026 1_655
Fe1 Gd0 3.030627 1_565
Fe2 Fe3 2.414080 1_555
Fe2 Si1 2.513348 1_555
Fe2 Si0 2.513348 1_455
Fe2 Fe7 2.559881 1_555
Fe2 Fe9 2.559881 1_555
Fe2 Fe6 2.559882 1_555
Fe2 Fe8 2.559882 1_455
Fe2 Fe5 2.650560 1_555
Fe2 Fe5 2.650560 1_455
Fe2 Gd0 2.950894 1_555
Fe3 Si1 2.513348 1_555
Fe3 Si0 2.513348 1_455
Fe3 Fe7 2.559881 1_565
Fe3 Fe9 2.559881 1_556
Fe3 Fe6 2.559882 1_465
Fe3 Fe8 2.559882 1_556
Fe3 Fe4 2.650560 1_455
Fe3 Fe4 2.650560 1_555
Fe3 Gd0 2.950894 1_566
Fe4 Fe6 2.428321 1_565
Fe4 Fe8 2.428321 1_556
Fe4 Fe7 2.428321 1_565
Fe4 Fe9 2.428321 1_656
Fe4 Si1 2.652330 1_565
Fe4 Si0 2.652330 1_556
Fe4 Gd0 2.946863 1_566
Fe4 Gd0 2.946863 1_666
Fe5 Fe8 2.428321 1_555
Fe5 Fe6 2.428321 1_555
Fe5 Fe7 2.428321 1_655
Fe5 Fe9 2.428321 1_555
Fe5 Si1 2.652330 1_554
Fe5 Si0 2.652330 1_545
Fe5 Gd0 2.946863 1_655
Fe5 Gd0 2.946863 1_555
Fe6 Fe7 2.366182 1_655
Fe6 Fe7 2.366182 1_555
Fe6 Si1 2.394493 1_555
Fe6 Si0 2.394493 1_545
Fe6 Gd0 3.180384 1_656
Fe6 Gd0 3.180384 1_555
Fe7 Si1 2.394493 1_555
Fe7 Si0 2.394493 1_445
Fe7 Gd0 3.180384 1_555
Fe7 Gd0 3.180384 1_556
Fe8 Fe9 2.366182 1_655
Fe8 Fe9 2.366182 1_555
Fe8 Si0 2.394493 1_555
Fe8 Si1 2.394493 1_554
Fe8 Gd0 3.180384 1_565
Fe8 Gd0 3.180384 1_655
Fe9 Si0 2.394493 1_455
Fe9 Si1 2.394493 1_554
Fe9 Gd0 3.180384 1_555
Fe9 Gd0 3.180384 1_565
