# generated using pymatgen
data_Fe2CoSe4
_symmetry_space_group_name_H-M   'P 1'
_cell_length_a   6.33995296
_cell_length_b   6.33995296
_cell_length_c   6.08786035
_cell_angle_alpha   64.03498480
_cell_angle_beta   64.03498480
_cell_angle_gamma   31.80070362
_symmetry_Int_Tables_number   1
_chemical_formula_structural   Fe2CoSe4
_chemical_formula_sum   'Fe2 Co1 Se4'
_cell_volume   114.81258105
_cell_formula_units_Z   1
loop_
 _symmetry_equiv_pos_site_id
 _symmetry_equiv_pos_as_xyz
  1  'x, y, z'
loop_
 _atom_site_type_symbol
 _atom_site_label
 _atom_site_symmetry_multiplicity
 _atom_site_fract_x
 _atom_site_fract_y
 _atom_site_fract_z
 _atom_site_occupancy
  Fe  Fe0  1  0.25883300  0.25883300  0.69387200  1
  Fe  Fe1  1  0.74116700  0.74116700  0.30612800  1
  Co  Co0  1  0.00000000  0.00000000  0.00000000  1
  Se  Se0  1  0.36434600  0.36434600  0.97884900  1
  Se  Se1  1  0.63565400  0.63565400  0.02115100  1
  Se  Se2  1  0.10693000  0.10693000  0.55548300  1
  Se  Se3  1  0.89307000  0.89307000  0.44451700  1
loop_
_geom_bond_atom_site_label_1
_geom_bond_atom_site_label_2
_geom_bond_distance
_geom_bond_site_symmetry_2
Fe0 Se2 2.358432 1_555
Fe0 Se3 2.395523 1_455
Fe0 Se3 2.395523 1_545
Fe0 Se1 2.553062 1_546
Fe0 Se1 2.553062 1_456
Fe0 Se0 2.588042 1_555
Fe1 Se3 2.358432 1_555
Fe1 Se2 2.395523 1_565
Fe1 Se2 2.395523 1_655
Fe1 Se0 2.553062 1_564
Fe1 Se0 2.553062 1_654
Fe1 Se1 2.588042 1_555
Co0 Se3 2.410555 1_445
Co0 Se2 2.410555 1_554
Co0 Se1 2.442138 1_455
Co0 Se1 2.442138 1_545
Co0 Se0 2.442138 1_454
Co0 Se0 2.442138 1_544
