# generated using pymatgen
data_Sc3Al3C2O5
_symmetry_space_group_name_H-M   'P 1'
_cell_length_a   3.25685382
_cell_length_b   3.25685382
_cell_length_c   31.54182581
_cell_angle_alpha   90.00000000
_cell_angle_beta   90.00000000
_cell_angle_gamma   120.00001664
_symmetry_Int_Tables_number   1
_chemical_formula_structural   Sc3Al3C2O5
_chemical_formula_sum   'Sc6 Al6 C4 O10'
_cell_volume   289.74364551
_cell_formula_units_Z   2
loop_
 _symmetry_equiv_pos_site_id
 _symmetry_equiv_pos_as_xyz
  1  'x, y, z'
loop_
 _atom_site_type_symbol
 _atom_site_label
 _atom_site_symmetry_multiplicity
 _atom_site_fract_x
 _atom_site_fract_y
 _atom_site_fract_z
 _atom_site_occupancy
  Sc  Sc0  1  0.33333300  0.66666700  0.65958989  1
  Sc  Sc1  1  0.66666700  0.33333300  0.15958989  1
  Sc  Sc2  1  0.66666700  0.33333300  0.34041011  1
  Sc  Sc3  1  0.33333300  0.66666700  0.84041011  1
  Sc  Sc4  1  0.00000000  0.00000000  0.50000000  1
  Sc  Sc5  1  0.00000000  0.00000000  -0.00000000  1
  Al  Al0  1  0.00000000  0.00000000  0.75000000  1
  Al  Al1  1  0.00000000  -0.00000000  0.25000000  1
  Al  Al2  1  0.33333300  0.66666700  0.43076604  1
  Al  Al3  1  0.66666700  0.33333300  0.93076604  1
  Al  Al4  1  0.66666700  0.33333300  0.56923396  1
  Al  Al5  1  0.33333300  0.66666700  0.06923396  1
  C  C0  1  0.66666700  0.33333300  0.45346802  1
  C  C1  1  0.33333300  0.66666700  0.95346802  1
  C  C2  1  0.33333300  0.66666700  0.54653198  1
  C  C3  1  0.66666700  0.33333300  0.04653198  1
  O  O0  1  0.33333300  0.66666700  0.37248623  1
  O  O1  1  0.66666700  0.33333300  0.87248623  1
  O  O2  1  0.66666700  0.33333300  0.62751377  1
  O  O3  1  0.33333300  0.66666700  0.12751377  1
  O  O4  1  0.33333300  0.66666700  0.75000000  1
  O  O5  1  0.66666700  0.33333300  0.25000000  1
  O  O6  1  0.00000000  -0.00000000  0.80867943  1
  O  O7  1  0.00000000  0.00000000  0.30867943  1
  O  O8  1  0.00000000  0.00000000  0.19132057  1
  O  O9  1  0.00000000  0.00000000  0.69132057  1
loop_
_geom_bond_atom_site_label_1
_geom_bond_atom_site_label_2
_geom_bond_distance
_geom_bond_site_symmetry_2
Al0 O9 1.850856 1_555
Al0 O6 1.850856 1_555
Al0 O4 1.880344 1_545
Al0 O4 1.880346 1_445
Al0 O4 1.880346 1_555
Al1 O7 1.850856 1_555
Al1 O8 1.850856 1_555
Al1 O5 1.880344 1_455
Al1 O5 1.880346 1_555
Al1 O5 1.880346 1_445
Al2 O0 1.838252 1_555
Al2 C0 2.012072 1_455
Al2 C0 2.012072 1_565
Al2 C0 2.012078 1_555
Al3 O1 1.838252 1_555
Al3 C1 2.012072 1_545
Al3 C1 2.012072 1_655
Al3 C1 2.012078 1_555
Al4 O2 1.838252 1_555
Al4 C2 2.012072 1_545
Al4 C2 2.012072 1_655
Al4 C2 2.012078 1_555
Al5 O3 1.838252 1_555
Al5 C3 2.012072 1_455
Al5 C3 2.012072 1_565
Al5 C3 2.012078 1_555
C0 Sc4 2.385340 1_655
C0 Sc4 2.385342 1_555
C0 Sc4 2.385342 1_665
C1 Sc5 2.385340 1_566
C1 Sc5 2.385342 1_556
C1 Sc5 2.385342 1_666
C2 Sc4 2.385340 1_565
C2 Sc4 2.385342 1_665
C2 Sc4 2.385342 1_555
C3 Sc5 2.385340 1_655
C3 Sc5 2.385342 1_665
C3 Sc5 2.385342 1_555
O0 Sc2 2.135253 1_565
O0 Sc2 2.135253 1_455
O0 Sc2 2.135259 1_555
O1 Sc3 2.135253 1_545
O1 Sc3 2.135253 1_655
O1 Sc3 2.135259 1_555
O2 Sc0 2.135253 1_545
O2 Sc0 2.135253 1_655
O2 Sc0 2.135259 1_555
O3 Sc1 2.135253 1_455
O3 Sc1 2.135253 1_565
O3 Sc1 2.135259 1_555
O6 Sc3 2.130113 1_545
O6 Sc3 2.130115 1_555
O6 Sc3 2.130115 1_445
O7 Sc2 2.130113 1_455
O7 Sc2 2.130115 1_445
O7 Sc2 2.130115 1_555
O8 Sc1 2.130113 1_455
O8 Sc1 2.130115 1_445
O8 Sc1 2.130115 1_555
O9 Sc0 2.130113 1_545
O9 Sc0 2.130115 1_555
O9 Sc0 2.130115 1_445
