# generated using pymatgen
data_PmPr
_symmetry_space_group_name_H-M   'P 1'
_cell_length_a   7.51575413
_cell_length_b   7.51575413
_cell_length_c   11.76996872
_cell_angle_alpha   90.00000000
_cell_angle_beta   90.00000000
_cell_angle_gamma   119.99998282
_symmetry_Int_Tables_number   1
_chemical_formula_structural   PmPr
_chemical_formula_sum   'Pm8 Pr8'
_cell_volume   575.77279879
_cell_formula_units_Z   8
loop_
 _symmetry_equiv_pos_site_id
 _symmetry_equiv_pos_as_xyz
  1  'x, y, z'
loop_
 _atom_site_type_symbol
 _atom_site_label
 _atom_site_symmetry_multiplicity
 _atom_site_fract_x
 _atom_site_fract_y
 _atom_site_fract_z
 _atom_site_occupancy
  Pm  Pm0_0  1  0.33333350  0.16666650  0.25000000  1
  Pm  Pm0_1  1  0.33333350  0.16666650  0.75000000  1
  Pm  Pm0_2  1  0.33333350  0.66666650  0.25000000  1
  Pm  Pm0_3  1  0.33333350  0.66666650  0.75000000  1
  Pm  Pm0_4  1  0.83333350  0.16666650  0.25000000  1
  Pm  Pm0_5  1  0.83333350  0.16666650  0.75000000  1
  Pm  Pm0_6  1  0.83333350  0.66666650  0.25000000  1
  Pm  Pm0_7  1  0.83333350  0.66666650  0.75000000  1
  Pr  Pr0_0  1  0.16666650  0.33333350  0.00000000  1
  Pr  Pr0_1  1  0.16666650  0.33333350  0.50000000  1
  Pr  Pr0_2  1  0.16666650  0.83333350  0.00000000  1
  Pr  Pr0_3  1  0.16666650  0.83333350  0.50000000  1
  Pr  Pr0_4  1  0.66666650  0.33333350  0.00000000  1
  Pr  Pr0_5  1  0.66666650  0.33333350  0.50000000  1
  Pr  Pr0_6  1  0.66666650  0.83333350  0.00000000  1
  Pr  Pr0_7  1  0.66666650  0.83333350  0.50000000  1
loop_
_geom_bond_atom_site_label_1
_geom_bond_atom_site_label_2
_geom_bond_distance
_geom_bond_site_symmetry_2
Pm0_0 Pr0_2 3.655881 1_545
Pm0_0 Pr0_4 3.655881 1_555
Pm0_0 Pr0_5 3.655881 1_555
Pm0_0 Pr0_3 3.655881 1_545
Pm0_0 Pr0_0 3.655885 1_555
Pm0_0 Pr0_1 3.655885 1_555
Pm0_0 Pm0_4 3.757877 1_555
Pm0_0 Pm0_2 3.757877 1_545
Pm0_0 Pm0_4 3.757877 1_455
Pm0_0 Pm0_2 3.757877 1_555
Pm0_0 Pm0_6 3.757878 1_555
Pm0_0 Pm0_6 3.757878 1_445
Pm0_1 Pr0_2 3.655881 1_546
Pm0_1 Pr0_4 3.655881 1_556
Pm0_1 Pr0_5 3.655881 1_555
Pm0_1 Pr0_3 3.655881 1_545
Pm0_1 Pr0_0 3.655885 1_556
Pm0_1 Pr0_1 3.655885 1_555
Pm0_1 Pm0_3 3.757877 1_545
Pm0_1 Pm0_5 3.757877 1_555
Pm0_1 Pm0_3 3.757877 1_555
Pm0_1 Pm0_5 3.757877 1_455
Pm0_1 Pm0_7 3.757878 1_555
Pm0_1 Pm0_7 3.757878 1_445
Pm0_2 Pr0_6 3.655881 1_555
Pm0_2 Pr0_7 3.655881 1_555
Pm0_2 Pr0_0 3.655881 1_555
Pm0_2 Pr0_1 3.655881 1_555
Pm0_2 Pr0_2 3.655885 1_555
Pm0_2 Pr0_3 3.655885 1_555
Pm0_2 Pm0_6 3.757877 1_555
Pm0_2 Pm0_6 3.757877 1_455
Pm0_2 Pm0_4 3.757878 1_565
Pm0_2 Pm0_4 3.757878 1_455
Pm0_3 Pr0_6 3.655881 1_556
Pm0_3 Pr0_7 3.655881 1_555
Pm0_3 Pr0_0 3.655881 1_556
Pm0_3 Pr0_1 3.655881 1_555
Pm0_3 Pr0_3 3.655885 1_555
Pm0_3 Pr0_2 3.655885 1_556
Pm0_3 Pm0_7 3.757877 1_555
Pm0_3 Pm0_7 3.757877 1_455
Pm0_3 Pm0_5 3.757878 1_565
Pm0_3 Pm0_5 3.757878 1_455
Pm0_4 Pr0_7 3.655881 1_545
Pm0_4 Pr0_6 3.655881 1_545
Pm0_4 Pr0_0 3.655881 1_655
Pm0_4 Pr0_1 3.655881 1_655
Pm0_4 Pr0_4 3.655885 1_555
Pm0_4 Pr0_5 3.655885 1_555
Pm0_4 Pm0_6 3.757877 1_545
Pm0_4 Pm0_6 3.757877 1_555
Pm0_5 Pr0_7 3.655881 1_545
Pm0_5 Pr0_6 3.655881 1_546
Pm0_5 Pr0_0 3.655881 1_656
Pm0_5 Pr0_1 3.655881 1_655
Pm0_5 Pr0_4 3.655885 1_556
Pm0_5 Pr0_5 3.655885 1_555
Pm0_5 Pm0_7 3.757877 1_555
Pm0_5 Pm0_7 3.757877 1_545
Pm0_6 Pr0_2 3.655881 1_655
Pm0_6 Pr0_3 3.655881 1_655
Pm0_6 Pr0_4 3.655881 1_555
Pm0_6 Pr0_5 3.655881 1_555
Pm0_6 Pr0_7 3.655885 1_555
Pm0_6 Pr0_6 3.655885 1_555
Pm0_7 Pr0_2 3.655881 1_656
Pm0_7 Pr0_3 3.655881 1_655
Pm0_7 Pr0_4 3.655881 1_556
Pm0_7 Pr0_5 3.655881 1_555
Pm0_7 Pr0_7 3.655885 1_555
Pm0_7 Pr0_6 3.655885 1_556
Pr0_0 Pr0_2 3.757877 1_545
Pr0_0 Pr0_4 3.757877 1_555
Pr0_0 Pr0_4 3.757877 1_455
Pr0_0 Pr0_2 3.757877 1_555
Pr0_0 Pr0_6 3.757878 1_555
Pr0_0 Pr0_6 3.757878 1_445
Pr0_1 Pr0_5 3.757877 1_555
Pr0_1 Pr0_3 3.757877 1_545
Pr0_1 Pr0_5 3.757877 1_455
Pr0_1 Pr0_3 3.757877 1_555
Pr0_1 Pr0_7 3.757878 1_555
Pr0_1 Pr0_7 3.757878 1_445
Pr0_2 Pr0_6 3.757877 1_555
Pr0_2 Pr0_6 3.757877 1_455
Pr0_2 Pr0_4 3.757878 1_565
Pr0_2 Pr0_4 3.757878 1_455
Pr0_3 Pr0_7 3.757877 1_455
Pr0_3 Pr0_7 3.757877 1_555
Pr0_3 Pr0_5 3.757878 1_565
Pr0_3 Pr0_5 3.757878 1_455
Pr0_4 Pr0_6 3.757877 1_545
Pr0_4 Pr0_6 3.757877 1_555
Pr0_5 Pr0_7 3.757877 1_545
Pr0_5 Pr0_7 3.757877 1_555
