# generated using pymatgen
data_LaFeBiO6
_symmetry_space_group_name_H-M   'P 1'
_cell_length_a   5.95663300
_cell_length_b   5.62563038
_cell_length_c   7.98653911
_cell_angle_alpha   90.37703034
_cell_angle_beta   90.00000000
_cell_angle_gamma   90.00000000
_symmetry_Int_Tables_number   1
_chemical_formula_structural   LaFeBiO6
_chemical_formula_sum   'La2 Fe2 Bi2 O12'
_cell_volume   267.62165854
_cell_formula_units_Z   2
loop_
 _symmetry_equiv_pos_site_id
 _symmetry_equiv_pos_as_xyz
  1  'x, y, z'
loop_
 _atom_site_type_symbol
 _atom_site_label
 _atom_site_symmetry_multiplicity
 _atom_site_fract_x
 _atom_site_fract_y
 _atom_site_fract_z
 _atom_site_occupancy
  La  La0  1  0.07341500  0.98481800  0.25061500  1
  La  La1  1  0.42658500  0.48481800  0.75061500  1
  Fe  Fe0  1  0.52446500  0.99355500  0.00029900  1
  Fe  Fe1  1  0.97553500  0.49355500  0.50029900  1
  Bi  Bi0  1  0.53282600  0.99281300  0.49966800  1
  Bi  Bi1  1  0.96717400  0.49281300  0.99966800  1
  O  O0  1  0.02533300  0.56433000  0.73989800  1
  O  O1  1  0.22071600  0.21731400  0.97042700  1
  O  O2  1  0.22802500  0.22645600  0.52519400  1
  O  O3  1  0.27197500  0.72645600  0.02519400  1
  O  O4  1  0.27928400  0.71731400  0.47042700  1
  O  O5  1  0.47466700  0.06433000  0.23989800  1
  O  O6  1  0.51144000  0.90151500  0.75975700  1
  O  O7  1  0.70485600  0.31280700  0.55466300  1
  O  O8  1  0.67592600  0.29599300  0.94966700  1
  O  O9  1  0.82407400  0.79599300  0.44966700  1
  O  O10  1  0.79514400  0.81280700  0.05466300  1
  O  O11  1  0.98856000  0.40151500  0.25975700  1
loop_
_geom_bond_atom_site_label_1
_geom_bond_atom_site_label_2
_geom_bond_distance
_geom_bond_site_symmetry_2
La0 O11 2.398698 1_465
La0 O9 2.425654 1_455
La0 O5 2.433216 1_565
La0 O10 2.472471 1_455
La0 O3 2.591944 1_555
La0 O4 2.623951 1_555
La0 O2 2.732356 1_565
La0 O1 2.743451 1_564
La1 O6 2.398698 1_555
La1 O8 2.425654 1_555
La1 O0 2.433216 1_555
La1 O7 2.472471 1_555
La1 O2 2.591944 1_555
La1 O1 2.623951 1_555
La1 O3 2.732356 1_556
La1 O4 2.743451 1_555
Fe0 O10 1.956495 1_555
Fe0 O8 1.970104 1_564
Fe0 O5 1.974393 1_565
Fe0 O6 1.987875 1_554
Fe0 O3 2.136178 1_555
Fe0 O1 2.217894 1_564
Fe1 O7 1.956495 1_555
Fe1 O9 1.970104 1_555
Fe1 O0 1.974393 1_655
Fe1 O11 1.987875 1_555
Fe1 O2 2.136178 1_655
Fe1 O4 2.217894 1_655
Bi0 O9 2.095078 1_555
Bi0 O7 2.114985 1_565
Bi0 O5 2.144084 1_565
Bi0 O6 2.146827 1_555
Bi0 O4 2.175477 1_555
Bi0 O2 2.249891 1_565
Bi1 O8 2.095078 1_555
Bi1 O10 2.114985 1_556
Bi1 O0 2.144084 1_655
Bi1 O11 2.146827 1_556
Bi1 O1 2.175477 1_655
Bi1 O3 2.249891 1_656
