# generated using pymatgen
data_Ti6Co16Ge7
_symmetry_space_group_name_H-M   'P 1'
_cell_length_a   8.00054978
_cell_length_b   8.00054978
_cell_length_c   8.00054978
_cell_angle_alpha   60.00000000
_cell_angle_beta   60.00000000
_cell_angle_gamma   60.00000000
_symmetry_Int_Tables_number   1
_chemical_formula_structural   Ti6Co16Ge7
_chemical_formula_sum   'Ti6 Co16 Ge7'
_cell_volume   362.11331719
_cell_formula_units_Z   1
loop_
 _symmetry_equiv_pos_site_id
 _symmetry_equiv_pos_as_xyz
  1  'x, y, z'
loop_
 _atom_site_type_symbol
 _atom_site_label
 _atom_site_symmetry_multiplicity
 _atom_site_fract_x
 _atom_site_fract_y
 _atom_site_fract_z
 _atom_site_occupancy
  Ti  Ti0  1  0.69864500  0.30135500  0.30135500  1
  Ti  Ti1  1  0.30135500  0.69864500  0.69864500  1
  Ti  Ti2  1  0.30135500  0.69864500  0.30135500  1
  Ti  Ti3  1  0.69864500  0.30135500  0.69864500  1
  Ti  Ti4  1  0.30135500  0.30135500  0.69864500  1
  Ti  Ti5  1  0.69864500  0.69864500  0.30135500  1
  Co  Co0  1  0.33414200  0.33414200  0.33414200  1
  Co  Co1  1  0.66585800  0.66585800  0.66585800  1
  Co  Co2  1  0.33414200  0.33414200  0.99757400  1
  Co  Co3  1  0.33414200  0.99757400  0.33414200  1
  Co  Co4  1  0.66585800  0.66585800  0.00242600  1
  Co  Co5  1  0.66585800  0.00242600  0.66585800  1
  Co  Co6  1  0.99757400  0.33414200  0.33414200  1
  Co  Co7  1  0.00242600  0.66585800  0.66585800  1
  Co  Co8  1  0.11995300  0.11995300  0.11995300  1
  Co  Co9  1  0.88004700  0.88004700  0.88004700  1
  Co  Co10  1  0.11995300  0.11995300  0.64014200  1
  Co  Co11  1  0.11995300  0.64014200  0.11995300  1
  Co  Co12  1  0.88004700  0.88004700  0.35985800  1
  Co  Co13  1  0.88004700  0.35985800  0.88004700  1
  Co  Co14  1  0.64014200  0.11995300  0.11995300  1
  Co  Co15  1  0.35985800  0.88004700  0.88004700  1
  Ge  Ge0  1  0.50000000  0.00000000  0.00000000  1
  Ge  Ge1  1  0.00000000  0.50000000  0.50000000  1
  Ge  Ge2  1  0.00000000  0.50000000  0.00000000  1
  Ge  Ge3  1  0.50000000  0.00000000  0.50000000  1
  Ge  Ge4  1  0.00000000  0.00000000  0.50000000  1
  Ge  Ge5  1  0.50000000  0.50000000  0.00000000  1
  Ge  Ge6  1  0.00000000  0.00000000  0.00000000  1
loop_
_geom_bond_atom_site_label_1
_geom_bond_atom_site_label_2
_geom_bond_distance
_geom_bond_site_symmetry_2
Co0 Ge1 2.309614 1_555
Co0 Ge3 2.309614 1_555
Co0 Ge5 2.309614 1_555
Co0 Co14 2.532311 1_555
Co0 Co11 2.532311 1_555
Co0 Co10 2.532311 1_555
Co0 Ti2 2.679712 1_555
Co0 Ti4 2.679712 1_555
Co0 Ti0 2.679712 1_555
Co1 Ge3 2.309614 1_565
Co1 Ge5 2.309614 1_556
Co1 Ge1 2.309614 1_655
Co1 Co13 2.532311 1_555
Co1 Co12 2.532311 1_555
Co1 Co15 2.532311 1_555
Co1 Ti1 2.679712 1_555
Co1 Ti5 2.679712 1_555
Co1 Ti3 2.679712 1_555
Co2 Ge5 2.309614 1_556
Co2 Ge2 2.309614 1_556
Co2 Ge0 2.309614 1_556
Co2 Co8 2.532309 1_556
Co2 Ti1 2.679712 1_555
Co2 Ti3 2.679712 1_555
Co2 Ti4 2.679712 1_555
Co3 Ge0 2.309614 1_565
Co3 Ge3 2.309614 1_565
Co3 Ge4 2.309614 1_565
Co3 Co8 2.532309 1_565
Co3 Ti1 2.679712 1_555
Co3 Ti2 2.679712 1_555
Co3 Ti5 2.679712 1_555
Co4 Ge5 2.309614 1_555
Co4 Ge2 2.309614 1_655
Co4 Ge0 2.309614 1_565
Co4 Co9 2.532309 1_554
Co4 Ti2 2.679712 1_555
Co4 Ti5 2.679712 1_555
Co4 Ti0 2.679712 1_555
Co5 Ge3 2.309614 1_555
Co5 Ge4 2.309614 1_655
Co5 Ge0 2.309614 1_556
Co5 Co9 2.532309 1_545
Co5 Ti0 2.679712 1_555
Co5 Ti3 2.679712 1_555
Co5 Ti4 2.679712 1_555
Co6 Ge2 2.309614 1_655
Co6 Ge4 2.309614 1_655
Co6 Ge1 2.309614 1_655
Co6 Co8 2.532309 1_655
Co6 Ti5 2.679712 1_555
Co6 Ti0 2.679712 1_555
Co6 Ti3 2.679712 1_555
Co7 Ge1 2.309614 1_555
Co7 Ge4 2.309614 1_565
Co7 Ge2 2.309614 1_556
Co7 Co9 2.532309 1_455
Co7 Ti1 2.679712 1_555
Co7 Ti2 2.679712 1_555
Co7 Ti4 2.679712 1_555
Co8 Ge6 2.350751 1_555
Co8 Ge4 2.484378 1_555
Co8 Ge0 2.484378 1_555
Co8 Ge2 2.484378 1_555
Co8 Ti4 2.810099 1_554
Co8 Ti0 2.810099 1_455
Co8 Ti2 2.810099 1_545
Co9 Ge6 2.350751 1_666
Co9 Ge4 2.484378 1_665
Co9 Ge2 2.484378 1_656
Co9 Ge0 2.484378 1_566
Co9 Ti3 2.810099 1_565
Co9 Ti1 2.810099 1_655
Co9 Ti5 2.810099 1_556
Co10 Ge6 2.350744 1_556
Co10 Ge1 2.484378 1_555
Co10 Ge3 2.484378 1_555
Co10 Ge4 2.484385 1_555
Co10 Co3 2.532316 1_545
Co10 Co6 2.532316 1_455
Co10 Co13 2.714402 1_455
Co10 Co15 2.714402 1_545
Co10 Co9 2.714413 1_445
Co10 Ti4 2.810093 1_555
Co10 Ti3 2.810100 1_455
Co10 Ti1 2.810100 1_545
Co11 Ge6 2.350744 1_565
Co11 Ge1 2.484378 1_555
Co11 Ge5 2.484378 1_555
Co11 Ge2 2.484385 1_555
Co11 Co2 2.532316 1_554
Co11 Co6 2.532316 1_455
Co11 Co15 2.714402 1_554
Co11 Co12 2.714402 1_455
Co11 Co9 2.714413 1_454
Co11 Ti2 2.810093 1_555
Co11 Ti5 2.810100 1_455
Co11 Ti1 2.810100 1_554
Co12 Ge6 2.350744 1_665
Co12 Ge1 2.484378 1_655
Co12 Ge3 2.484378 1_565
Co12 Ge4 2.484385 1_665
Co12 Co5 2.532316 1_565
Co12 Co7 2.532316 1_655
Co12 Co14 2.714402 1_565
Co12 Co8 2.714413 1_665
Co12 Ti5 2.810093 1_555
Co12 Ti2 2.810100 1_655
Co12 Ti0 2.810100 1_565
Co13 Ge6 2.350744 1_656
Co13 Ge5 2.484378 1_556
Co13 Ge1 2.484378 1_655
Co13 Ge2 2.484385 1_656
Co13 Co4 2.532316 1_556
Co13 Co7 2.532316 1_655
Co13 Co14 2.714402 1_556
Co13 Co8 2.714413 1_656
Co13 Ti3 2.810093 1_555
Co13 Ti0 2.810100 1_556
Co13 Ti4 2.810100 1_655
Co14 Ge6 2.350744 1_655
Co14 Ge3 2.484378 1_555
Co14 Ge5 2.484378 1_555
Co14 Ge0 2.484385 1_555
Co14 Co3 2.532316 1_545
Co14 Co2 2.532316 1_554
Co14 Co9 2.714413 1_544
Co14 Ti0 2.810093 1_555
Co14 Ti5 2.810100 1_545
Co14 Ti3 2.810100 1_554
Co15 Ge6 2.350744 1_566
Co15 Ge5 2.484378 1_556
Co15 Ge3 2.484378 1_565
Co15 Ge0 2.484385 1_566
Co15 Co5 2.532316 1_565
Co15 Co4 2.532316 1_556
Co15 Co8 2.714413 1_566
Co15 Ti1 2.810093 1_555
Co15 Ti2 2.810100 1_556
Co15 Ti4 2.810100 1_565
Ge0 Ti3 2.887685 1_554
Ge0 Ti5 2.887685 1_545
Ge0 Ti4 2.887685 1_554
Ge0 Ti2 2.887685 1_545
Ge1 Ti4 2.887685 1_555
Ge1 Ti2 2.887685 1_555
Ge1 Ti3 2.887685 1_455
Ge1 Ti5 2.887685 1_455
Ge2 Ti5 2.887685 1_455
Ge2 Ti4 2.887685 1_554
Ge2 Ti0 2.887685 1_455
Ge2 Ti1 2.887685 1_554
Ge3 Ti0 2.887685 1_555
Ge3 Ti1 2.887685 1_545
Ge3 Ti4 2.887685 1_555
Ge3 Ti5 2.887685 1_545
Ge4 Ti3 2.887685 1_455
Ge4 Ti2 2.887685 1_545
Ge4 Ti1 2.887685 1_545
Ge4 Ti0 2.887685 1_455
Ge5 Ti2 2.887685 1_555
Ge5 Ti0 2.887685 1_555
Ge5 Ti3 2.887685 1_554
Ge5 Ti1 2.887685 1_554
