# generated using pymatgen
data_Te4MoW3(SeS)2
_symmetry_space_group_name_H-M   'P 1'
_cell_length_a   3.40281678
_cell_length_b   3.40281678
_cell_length_c   38.76562200
_cell_angle_alpha   90.00000000
_cell_angle_beta   90.00000000
_cell_angle_gamma   120.00001515
_symmetry_Int_Tables_number   1
_chemical_formula_structural   Te4MoW3(SeS)2
_chemical_formula_sum   'Te4 Mo1 W3 Se2 S2'
_cell_volume   388.73572409
_cell_formula_units_Z   1
loop_
 _symmetry_equiv_pos_site_id
 _symmetry_equiv_pos_as_xyz
  1  'x, y, z'
loop_
 _atom_site_type_symbol
 _atom_site_label
 _atom_site_symmetry_multiplicity
 _atom_site_fract_x
 _atom_site_fract_y
 _atom_site_fract_z
 _atom_site_occupancy
  Te  Te0  1  0.00000000  0.00000000  0.33037600  1
  Te  Te1  1  0.00000000  0.00000000  0.70610800  1
  Te  Te2  1  0.00000000  0.00000000  0.23327700  1
  Te  Te3  1  0.00000000  0.00000000  0.60892800  1
  Mo  Mo0  1  0.00000000  0.00000000  0.46966600  1
  W  W0  1  0.00000000  0.00000000  0.09389200  1
  W  W1  1  0.33333300  0.66666700  0.28182300  1
  W  W2  1  0.33333300  0.66666700  0.65753800  1
  Se  Se0  1  0.33333300  0.66666700  0.05122300  1
  Se  Se1  1  0.33333300  0.66666700  0.13658600  1
  S  S0  1  0.33333300  0.66666700  0.43097700  1
  S  S1  1  0.33333300  0.66666700  0.50835500  1
loop_
_geom_bond_atom_site_label_1
_geom_bond_atom_site_label_2
_geom_bond_distance
_geom_bond_site_symmetry_2
Te0 W1 2.720725 1_545
Te0 W1 2.720726 1_555
Te0 W1 2.720726 1_445
Te1 W2 2.721181 1_545
Te1 W2 2.721182 1_555
Te1 W2 2.721182 1_445
Te2 W1 2.720537 1_545
Te2 W1 2.720539 1_555
Te2 W1 2.720539 1_445
Te3 W2 2.722254 1_545
Te3 W2 2.722255 1_445
Te3 W2 2.722255 1_555
Mo0 S0 2.471664 1_545
Mo0 S1 2.471664 1_545
Mo0 S0 2.471666 1_555
Mo0 S0 2.471666 1_445
Mo0 S1 2.471666 1_555
Mo0 S1 2.471666 1_445
Se0 W0 2.568215 1_565
Se0 W0 2.568217 1_555
Se0 W0 2.568217 1_665
Se1 W0 2.568839 1_565
Se1 W0 2.568841 1_555
Se1 W0 2.568841 1_665
