# generated using pymatgen
data_PrMg149
_symmetry_space_group_name_H-M   'P 1'
_cell_length_a   15.97732615
_cell_length_b   15.97733143
_cell_length_c   15.61049492
_cell_angle_alpha   90.00000000
_cell_angle_beta   90.00000000
_cell_angle_gamma   120.00001091
_symmetry_Int_Tables_number   1
_chemical_formula_structural   PrMg149
_chemical_formula_sum   'Pr1 Mg149'
_cell_volume   3451.08456336
_cell_formula_units_Z   1
loop_
 _symmetry_equiv_pos_site_id
 _symmetry_equiv_pos_as_xyz
  1  'x, y, z'
loop_
 _atom_site_type_symbol
 _atom_site_label
 _atom_site_symmetry_multiplicity
 _atom_site_fract_x
 _atom_site_fract_y
 _atom_site_fract_z
 _atom_site_occupancy
  Pr  Pr0  1  0.00000000  -0.00000000  -0.00000000  1
  Mg  Mg0  1  0.60009437  0.20018875  0.00000000  1
  Mg  Mg1  1  0.79920211  0.20079789  0.00000000  1
  Mg  Mg2  1  0.40159677  0.20079789  0.00000000  1
  Mg  Mg3  1  0.00349118  0.20699338  0.00000000  1
  Mg  Mg4  1  0.20350320  0.20699438  0.00000000  1
  Mg  Mg5  1  0.79981125  0.39990563  -0.00000000  1
  Mg  Mg6  1  0.60009437  0.39990563  -0.00000000  1
  Mg  Mg7  1  0.40041968  0.40063766  0.00000000  1
  Mg  Mg8  1  0.00021798  0.40063766  0.00000000  1
  Mg  Mg9  1  0.20186205  0.40372509  0.00000000  1
  Mg  Mg10  1  0.79920211  0.59840323  -0.00000000  1
  Mg  Mg11  1  0.00021798  0.59958032  -0.00000000  1
  Mg  Mg12  1  0.59936234  0.59958132  0.00000000  1
  Mg  Mg13  1  0.39965355  0.60034745  -0.00000000  1
  Mg  Mg14  1  0.20069389  0.60034745  -0.00000000  1
  Mg  Mg15  1  0.79300562  0.79649680  -0.00000000  1
  Mg  Mg16  1  0.00349118  0.79649680  0.00000000  1
  Mg  Mg17  1  0.20186205  0.79813695  0.00000000  1
  Mg  Mg18  1  0.59627491  0.79813795  -0.00000000  1
  Mg  Mg19  1  0.39965355  0.79930611  -0.00000000  1
  Mg  Mg20  1  0.20350320  0.99650982  -0.00000000  1
  Mg  Mg21  1  0.79300562  0.99650982  -0.00000000  1
  Mg  Mg22  1  0.59936234  0.99978102  0.00000000  1
  Mg  Mg23  1  0.40041968  0.99978102  0.00000000  1
  Mg  Mg24  1  0.86848291  0.13151609  0.16429099  1
  Mg  Mg25  1  0.26303318  0.13151709  0.16429099  1
  Mg  Mg26  1  0.86848291  0.73696682  0.16429099  1
  Mg  Mg27  1  0.66666700  0.33333300  0.16609398  1
  Mg  Mg28  1  0.66747446  0.13288477  0.16648520  1
  Mg  Mg29  1  0.46541032  0.13288477  0.16648520  1
  Mg  Mg30  1  0.46541032  0.33252554  0.16648520  1
  Mg  Mg31  1  0.86711523  0.33252554  0.16648520  1
  Mg  Mg32  1  0.66747446  0.53458968  0.16648520  1
  Mg  Mg33  1  0.86711523  0.53458968  0.16648520  1
  Mg  Mg34  1  0.46663422  0.53336578  0.16737104  1
  Mg  Mg35  1  0.06673256  0.53336678  0.16737104  1
  Mg  Mg36  1  0.46663422  0.93326744  0.16737104  1
  Mg  Mg37  1  0.26720501  0.53441102  0.16740488  1
  Mg  Mg38  1  0.26720501  0.73279399  0.16740488  1
  Mg  Mg39  1  0.46558898  0.73279499  0.16740488  1
  Mg  Mg40  1  0.06814936  0.33616972  0.16787631  1
  Mg  Mg41  1  0.26801936  0.33616972  0.16787631  1
  Mg  Mg42  1  0.66383028  0.73197964  0.16787631  1
  Mg  Mg43  1  0.06814936  0.73197964  0.16787631  1
  Mg  Mg44  1  0.26801936  0.93184964  0.16787631  1
  Mg  Mg45  1  0.66383028  0.93185064  0.16787631  1
  Mg  Mg46  1  0.06861611  0.13723221  0.17123331  1
  Mg  Mg47  1  0.06861611  0.93138389  0.17123331  1
  Mg  Mg48  1  0.86276779  0.93138389  0.17123331  1
  Mg  Mg49  1  0.80016368  0.19983632  0.33273961  1
  Mg  Mg50  1  0.39967264  0.19983632  0.33273961  1
  Mg  Mg51  1  0.80016368  0.60032736  0.33273961  1
  Mg  Mg52  1  0.60000995  0.20001990  0.33278913  1
  Mg  Mg53  1  0.79998010  0.39999005  0.33278913  1
  Mg  Mg54  1  0.60000995  0.39999005  0.33278913  1
  Mg  Mg55  1  0.40050637  0.00018357  0.33377774  1
  Mg  Mg56  1  0.59967720  0.00018357  0.33377774  1
  Mg  Mg57  1  0.40050637  0.40032280  0.33377774  1
  Mg  Mg58  1  0.99981643  0.40032380  0.33377774  1
  Mg  Mg59  1  0.99981643  0.59949263  0.33377774  1
  Mg  Mg60  1  0.59967720  0.59949363  0.33377774  1
  Mg  Mg61  1  0.20085637  0.00013510  0.33379975  1
  Mg  Mg62  1  0.79927873  0.00013610  0.33379975  1
  Mg  Mg63  1  0.99986390  0.20072027  0.33379975  1
  Mg  Mg64  1  0.20085637  0.20072127  0.33379975  1
  Mg  Mg65  1  0.79927873  0.79914363  0.33379975  1
  Mg  Mg66  1  0.99986390  0.79914363  0.33379975  1
  Mg  Mg67  1  0.40003348  0.59996652  0.33377507  1
  Mg  Mg68  1  0.19993403  0.59996752  0.33377507  1
  Mg  Mg69  1  0.40003348  0.80006697  0.33377507  1
  Mg  Mg70  1  0.20023108  0.40046216  0.33418227  1
  Mg  Mg71  1  0.20023108  0.79976892  0.33418227  1
  Mg  Mg72  1  0.59953784  0.79976892  0.33418227  1
  Mg  Mg73  1  0.00000000  -0.00000000  0.33461011  1
  Mg  Mg74  1  0.86643332  0.13356668  0.50000000  1
  Mg  Mg75  1  0.26713435  0.13356668  0.50000000  1
  Mg  Mg76  1  0.06678271  0.13356541  0.50000000  1
  Mg  Mg77  1  0.46709259  0.13428400  0.50000000  1
  Mg  Mg78  1  0.66719141  0.13428400  0.50000000  1
  Mg  Mg79  1  0.46709259  0.33280859  0.50000000  1
  Mg  Mg80  1  0.86571600  0.33280859  0.50000000  1
  Mg  Mg81  1  0.66666700  0.33333300  0.50000000  1
  Mg  Mg82  1  0.26679287  0.33364337  0.50000000  1
  Mg  Mg83  1  0.06685050  0.33364337  0.50000000  1
  Mg  Mg84  1  0.66719141  0.53290641  0.50000000  1
  Mg  Mg85  1  0.86571600  0.53290741  0.50000000  1
  Mg  Mg86  1  0.46696965  0.53303035  0.50000000  1
  Mg  Mg87  1  0.06605971  0.53303035  0.50000000  1
  Mg  Mg88  1  0.26676793  0.53353585  0.50000000  1
  Mg  Mg89  1  0.86643332  0.73286665  0.50000000  1
  Mg  Mg90  1  0.06685050  0.73320713  0.50000000  1
  Mg  Mg91  1  0.66635663  0.73320713  0.50000000  1
  Mg  Mg92  1  0.26676793  0.73323207  0.50000000  1
  Mg  Mg93  1  0.46646415  0.73323207  0.50000000  1
  Mg  Mg94  1  0.06678271  0.93321729  0.50000000  1
  Mg  Mg95  1  0.86643459  0.93321729  0.50000000  1
  Mg  Mg96  1  0.26679287  0.93314950  0.50000000  1
  Mg  Mg97  1  0.66635663  0.93314950  0.50000000  1
  Mg  Mg98  1  0.46696965  0.93393929  0.50000000  1
  Mg  Mg99  1  0.00000000  -0.00000000  0.66538889  1
  Mg  Mg100  1  0.20023108  0.40046216  0.66581773  1
  Mg  Mg101  1  0.20023108  0.79976892  0.66581773  1
  Mg  Mg102  1  0.59953784  0.79976892  0.66581773  1
  Mg  Mg103  1  0.40003348  0.59996652  0.66622493  1
  Mg  Mg104  1  0.19993403  0.59996752  0.66622493  1
  Mg  Mg105  1  0.40003348  0.80006697  0.66622493  1
  Mg  Mg106  1  0.20085637  0.00013510  0.66620025  1
  Mg  Mg107  1  0.79927873  0.00013610  0.66620025  1
  Mg  Mg108  1  0.99986390  0.20072027  0.66620025  1
  Mg  Mg109  1  0.20085637  0.20072127  0.66620025  1
  Mg  Mg110  1  0.79927873  0.79914363  0.66620025  1
  Mg  Mg111  1  0.99986390  0.79914363  0.66620025  1
  Mg  Mg112  1  0.40050637  0.00018357  0.66622326  1
  Mg  Mg113  1  0.59967720  0.00018357  0.66622326  1
  Mg  Mg114  1  0.40050637  0.40032280  0.66622326  1
  Mg  Mg115  1  0.99981643  0.40032380  0.66622326  1
  Mg  Mg116  1  0.99981643  0.59949263  0.66622326  1
  Mg  Mg117  1  0.59967720  0.59949363  0.66622326  1
  Mg  Mg118  1  0.60000995  0.20001990  0.66721087  1
  Mg  Mg119  1  0.79998010  0.39999005  0.66721087  1
  Mg  Mg120  1  0.60000995  0.39999005  0.66721087  1
  Mg  Mg121  1  0.80016368  0.19983632  0.66725939  1
  Mg  Mg122  1  0.39967264  0.19983632  0.66725939  1
  Mg  Mg123  1  0.80016368  0.60032736  0.66725939  1
  Mg  Mg124  1  0.06861611  0.13723221  0.82876669  1
  Mg  Mg125  1  0.06861611  0.93138389  0.82876669  1
  Mg  Mg126  1  0.86276779  0.93138389  0.82876669  1
  Mg  Mg127  1  0.06814936  0.33616972  0.83212469  1
  Mg  Mg128  1  0.26801936  0.33616972  0.83212469  1
  Mg  Mg129  1  0.66383028  0.73197964  0.83212469  1
  Mg  Mg130  1  0.06814936  0.73197964  0.83212469  1
  Mg  Mg131  1  0.26801936  0.93184964  0.83212469  1
  Mg  Mg132  1  0.66383028  0.93185064  0.83212469  1
  Mg  Mg133  1  0.26720501  0.53441102  0.83259512  1
  Mg  Mg134  1  0.26720501  0.73279399  0.83259512  1
  Mg  Mg135  1  0.46558898  0.73279499  0.83259512  1
  Mg  Mg136  1  0.46663422  0.53336578  0.83262996  1
  Mg  Mg137  1  0.06673256  0.53336678  0.83262996  1
  Mg  Mg138  1  0.46663422  0.93326744  0.83262996  1
  Mg  Mg139  1  0.66747446  0.13288477  0.83351480  1
  Mg  Mg140  1  0.46541032  0.13288477  0.83351480  1
  Mg  Mg141  1  0.46541032  0.33252554  0.83351480  1
  Mg  Mg142  1  0.86711523  0.33252554  0.83351480  1
  Mg  Mg143  1  0.66747446  0.53458968  0.83351480  1
  Mg  Mg144  1  0.86711523  0.53458968  0.83351480  1
  Mg  Mg145  1  0.66666700  0.33333300  0.83390602  1
  Mg  Mg146  1  0.86848291  0.13151609  0.83570901  1
  Mg  Mg147  1  0.26303318  0.13151709  0.83570901  1
  Mg  Mg148  1  0.86848291  0.73696682  0.83570901  1
loop_
_geom_bond_atom_site_label_1
_geom_bond_atom_site_label_2
_geom_bond_distance
_geom_bond_site_symmetry_2
Mg0 Mg2 3.176338 1_555
Mg0 Mg1 3.176354 1_555
Mg0 Mg145 3.180673 1_554
Mg0 Mg27 3.180673 1_555
Mg0 Mg5 3.190942 1_555
Mg0 Mg6 3.190943 1_555
Mg0 Mg23 3.196140 1_545
Mg0 Mg22 3.196149 1_545
Mg0 Mg140 3.198022 1_554
Mg0 Mg29 3.198022 1_555
Mg0 Mg28 3.198022 1_555
Mg0 Mg139 3.198022 1_554
Mg1 Mg28 3.174527 1_555
Mg1 Mg139 3.174527 1_554
Mg1 Mg142 3.174527 1_554
Mg1 Mg31 3.174527 1_555
Mg1 Mg5 3.176355 1_555
Mg1 Mg24 3.202090 1_555
Mg1 Mg146 3.202090 1_554
Mg1 Mg8 3.202342 1_655
Mg1 Mg22 3.202350 1_545
Mg1 Mg21 3.215620 1_545
Mg1 Mg3 3.215642 1_655
Mg2 Mg29 3.174519 1_555
Mg2 Mg30 3.174527 1_555
Mg2 Mg6 3.176346 1_555
Mg2 Mg25 3.202098 1_555
Mg2 Mg7 3.202351 1_555
Mg2 Mg23 3.202351 1_545
Mg2 Mg20 3.215634 1_545
Mg2 Mg4 3.215651 1_555
Mg3 Mg8 3.120396 1_555
Mg3 Mg9 3.156423 1_555
Mg3 Mg40 3.172137 1_555
Mg3 Mg4 3.195649 1_555
Mg3 Mg46 3.260353 1_555
Mg3 Pr0 3.279668 1_555
Mg4 Mg7 3.120379 1_555
Mg4 Mg9 3.156424 1_555
Mg4 Mg41 3.172130 1_555
Mg4 Mg46 3.260361 1_555
Mg4 Pr0 3.279683 1_555
Mg5 Mg6 3.190942 1_555
Mg5 Mg8 3.196132 1_655
Mg6 Mg7 3.196132 1_555
Mg7 Mg9 3.197370 1_555
Mg8 Mg9 3.197354 1_555
Mg10 Mg144 3.174519 1_554
Mg10 Mg33 3.174519 1_555
Mg10 Mg143 3.174527 1_554
Mg10 Mg32 3.174527 1_555
Mg10 Mg5 3.176339 1_555
Mg10 Mg6 3.176346 1_555
Mg10 Mg26 3.202099 1_555
Mg10 Mg148 3.202099 1_554
Mg10 Mg11 3.202334 1_655
Mg10 Mg12 3.202358 1_555
Mg10 Mg16 3.215642 1_655
Mg10 Mg15 3.215652 1_555
Mg11 Mg16 3.120380 1_555
Mg11 Mg8 3.178573 1_555
Mg11 Mg33 3.185419 1_455
Mg11 Mg144 3.185419 1_454
Mg11 Mg137 3.193618 1_554
Mg11 Mg35 3.193631 1_555
Mg11 Mg5 3.196132 1_455
Mg11 Mg14 3.196958 1_555
Mg11 Mg17 3.197354 1_555
Mg11 Mg130 3.197584 1_554
Mg11 Mg43 3.197597 1_555
Mg12 Mg15 3.120371 1_555
Mg12 Mg7 3.178580 1_555
Mg12 Mg143 3.185427 1_554
Mg12 Mg32 3.185427 1_555
Mg12 Mg136 3.193618 1_554
Mg12 Mg34 3.193631 1_555
Mg12 Mg6 3.196149 1_555
Mg12 Mg13 3.196950 1_555
Mg12 Mg18 3.197355 1_555
Mg12 Mg129 3.197576 1_554
Mg12 Mg42 3.197589 1_555
Mg13 Mg18 3.150865 1_555
Mg13 Mg9 3.150881 1_555
Mg13 Mg19 3.178828 1_555
Mg13 Mg14 3.178843 1_555
Mg13 Mg135 3.191835 1_554
Mg13 Mg39 3.191835 1_555
Mg13 Mg133 3.191843 1_554
Mg13 Mg37 3.191843 1_555
Mg13 Mg7 3.196967 1_555
Mg13 Mg136 3.203469 1_554
Mg13 Mg34 3.203481 1_555
Mg14 Mg17 3.150858 1_555
Mg14 Mg9 3.150874 1_555
Mg14 Mg19 3.178835 1_555
Mg14 Mg38 3.191827 1_555
Mg14 Mg37 3.191835 1_555
Mg14 Mg8 3.196966 1_555
Mg14 Mg35 3.203473 1_555
Mg15 Mg18 3.156423 1_555
Mg15 Mg42 3.172129 1_555
Mg15 Mg26 3.175436 1_555
Mg15 Mg21 3.195674 1_555
Mg15 Mg48 3.260361 1_555
Mg15 Pr0 3.279683 1_665
Mg15 Mg16 3.362996 1_655
Mg16 Mg17 3.156415 1_555
Mg16 Mg43 3.172130 1_555
Mg16 Mg26 3.175445 1_455
Mg16 Mg20 3.195665 1_555
Mg16 Mg47 3.260361 1_555
Mg16 Pr0 3.279684 1_565
Mg17 Mg19 3.150881 1_555
Mg17 Mg20 3.156440 1_555
Mg17 Mg38 3.177899 1_555
Mg17 Mg23 3.197362 1_555
Mg17 Mg43 3.207943 1_555
Mg17 Mg44 3.207943 1_555
Mg18 Mg19 3.150857 1_555
Mg18 Mg21 3.156423 1_555
Mg18 Mg39 3.177899 1_555
Mg18 Mg22 3.197339 1_555
Mg18 Mg45 3.207943 1_555
Mg18 Mg42 3.207951 1_555
Mg19 Mg39 3.191827 1_555
Mg19 Mg38 3.191843 1_555
Mg19 Mg22 3.196950 1_555
Mg19 Mg23 3.196951 1_555
Mg19 Mg36 3.203473 1_555
Mg20 Mg23 3.120395 1_555
Mg20 Mg44 3.172137 1_555
Mg20 Mg25 3.175436 1_565
Mg20 Mg47 3.260361 1_555
Mg20 Pr0 3.279674 1_565
Mg20 Mg4 3.362982 1_565
Mg21 Mg22 3.120363 1_555
Mg21 Mg45 3.172129 1_555
Mg21 Mg24 3.175429 1_565
Mg21 Mg48 3.260369 1_555
Mg21 Pr0 3.279690 1_665
Mg21 Mg3 3.362980 1_665
Mg22 Mg23 3.178572 1_555
Mg22 Mg28 3.185427 1_565
Mg22 Mg36 3.193631 1_555
Mg22 Mg45 3.197589 1_555
Mg23 Mg29 3.185427 1_565
Mg23 Mg36 3.193631 1_555
Mg23 Mg44 3.197605 1_555
Mg24 Mg48 3.154776 1_545
Mg24 Mg46 3.154783 1_655
Mg24 Mg3 3.175444 1_655
Mg24 Mg62 3.210880 1_555
Mg24 Mg63 3.210887 1_555
Mg24 Mg28 3.222749 1_555
Mg24 Mg31 3.222758 1_555
Mg24 Mg45 3.231183 1_545
Mg24 Mg40 3.231199 1_655
Mg24 Mg49 3.238699 1_555
Mg25 Mg46 3.154775 1_555
Mg25 Mg47 3.154783 1_545
Mg25 Mg4 3.175436 1_555
Mg25 Mg64 3.210888 1_555
Mg25 Mg61 3.210896 1_555
Mg25 Mg30 3.222749 1_555
Mg25 Mg29 3.222757 1_555
Mg25 Mg41 3.231191 1_555
Mg25 Mg44 3.231207 1_545
Mg25 Mg50 3.238699 1_555
Mg26 Mg48 3.154776 1_555
Mg26 Mg47 3.154783 1_655
Mg26 Mg66 3.210887 1_555
Mg26 Mg65 3.210888 1_555
Mg26 Mg32 3.222749 1_555
Mg26 Mg33 3.222758 1_555
Mg26 Mg42 3.231183 1_555
Mg26 Mg43 3.231199 1_655
Mg26 Mg51 3.238699 1_555
Mg27 Mg5 3.180673 1_555
Mg27 Mg6 3.180681 1_555
Mg27 Mg53 3.189678 1_555
Mg27 Mg52 3.189678 1_555
Mg27 Mg54 3.189686 1_555
Mg27 Mg31 3.209103 1_555
Mg27 Mg28 3.209104 1_555
Mg27 Mg29 3.209110 1_555
Mg27 Mg33 3.209110 1_555
Mg27 Mg30 3.209118 1_555
Mg27 Mg32 3.209119 1_555
Mg28 Mg49 3.179089 1_555
Mg28 Mg45 3.183350 1_545
Mg28 Mg31 3.189726 1_555
Mg28 Mg56 3.192497 1_555
Mg28 Mg52 3.195043 1_555
Mg28 Mg36 3.199195 1_545
Mg28 Mg29 3.228445 1_555
Mg29 Mg50 3.179089 1_555
Mg29 Mg44 3.183365 1_545
Mg29 Mg30 3.189727 1_555
Mg29 Mg55 3.192497 1_555
Mg29 Mg52 3.195042 1_555
Mg29 Mg36 3.199204 1_545
Mg30 Mg50 3.179089 1_555
Mg30 Mg41 3.183365 1_555
Mg30 Mg7 3.185419 1_555
Mg30 Mg57 3.192497 1_555
Mg30 Mg54 3.195042 1_555
Mg30 Mg6 3.198022 1_555
Mg30 Mg34 3.199188 1_555
Mg30 Mg32 3.228445 1_555
Mg31 Mg49 3.179089 1_555
Mg31 Mg40 3.183349 1_655
Mg31 Mg8 3.185419 1_655
Mg31 Mg58 3.192497 1_555
Mg31 Mg53 3.195043 1_555
Mg31 Mg5 3.198022 1_555
Mg31 Mg35 3.199203 1_655
Mg31 Mg33 3.228446 1_555
Mg32 Mg51 3.179089 1_555
Mg32 Mg42 3.183350 1_555
Mg32 Mg33 3.189726 1_555
Mg32 Mg60 3.192497 1_555
Mg32 Mg54 3.195043 1_555
Mg32 Mg6 3.198022 1_555
Mg32 Mg34 3.199187 1_555
Mg33 Mg51 3.179089 1_555
Mg33 Mg43 3.183349 1_655
Mg33 Mg59 3.192497 1_555
Mg33 Mg53 3.195043 1_555
Mg33 Mg5 3.198022 1_555
Mg33 Mg35 3.199195 1_655
Mg34 Mg42 3.162063 1_555
Mg34 Mg41 3.162071 1_555
Mg34 Mg60 3.183849 1_555
Mg34 Mg57 3.183849 1_555
Mg34 Mg67 3.185078 1_555
Mg34 Mg7 3.193631 1_555
Mg34 Mg37 3.194728 1_555
Mg34 Mg39 3.194729 1_555
Mg35 Mg43 3.162056 1_555
Mg35 Mg40 3.162072 1_555
Mg35 Mg59 3.183842 1_455
Mg35 Mg58 3.183850 1_455
Mg35 Mg68 3.185077 1_555
Mg35 Mg8 3.193639 1_555
Mg35 Mg38 3.194696 1_555
Mg35 Mg37 3.194704 1_555
Mg36 Mg45 3.162055 1_555
Mg36 Mg44 3.162079 1_555
Mg36 Mg56 3.183849 1_565
Mg36 Mg55 3.183857 1_565
Mg36 Mg69 3.185070 1_555
Mg36 Mg39 3.194697 1_555
Mg36 Mg38 3.194720 1_555
Mg37 Mg38 3.169630 1_555
Mg37 Mg39 3.169645 1_555
Mg37 Mg40 3.173900 1_555
Mg37 Mg41 3.173901 1_555
Mg37 Mg9 3.177899 1_555
Mg37 Mg68 3.181684 1_555
Mg37 Mg67 3.181692 1_555
Mg37 Mg70 3.195819 1_555
Mg38 Mg39 3.169637 1_555
Mg38 Mg43 3.173900 1_555
Mg38 Mg44 3.173901 1_555
Mg38 Mg68 3.181676 1_555
Mg38 Mg69 3.181692 1_555
Mg38 Mg71 3.195819 1_555
Mg39 Mg45 3.173900 1_555
Mg39 Mg42 3.173908 1_555
Mg39 Mg69 3.181684 1_555
Mg39 Mg67 3.181692 1_555
Mg39 Mg72 3.195819 1_555
Mg40 Mg58 3.173136 1_455
Mg40 Mg70 3.175008 1_555
Mg40 Mg46 3.182657 1_555
Mg40 Mg41 3.193388 1_555
Mg40 Mg63 3.197109 1_455
Mg40 Mg8 3.197597 1_555
Mg40 Mg9 3.207943 1_555
Mg41 Mg57 3.173136 1_555
Mg41 Mg70 3.175000 1_555
Mg41 Mg46 3.182648 1_555
Mg41 Mg64 3.197101 1_555
Mg41 Mg7 3.197605 1_555
Mg41 Mg9 3.207943 1_555
Mg42 Mg60 3.173128 1_555
Mg42 Mg72 3.175008 1_555
Mg42 Mg48 3.182656 1_555
Mg42 Mg45 3.193405 1_555
Mg42 Mg65 3.197100 1_555
Mg43 Mg59 3.173136 1_455
Mg43 Mg71 3.175008 1_555
Mg43 Mg47 3.182657 1_555
Mg43 Mg44 3.193388 1_555
Mg43 Mg66 3.197109 1_455
Mg44 Mg55 3.173136 1_565
Mg44 Mg71 3.175000 1_555
Mg44 Mg47 3.182648 1_555
Mg44 Mg61 3.197101 1_565
Mg45 Mg56 3.173128 1_565
Mg45 Mg72 3.175008 1_555
Mg45 Mg48 3.182656 1_555
Mg45 Mg62 3.197100 1_565
Mg46 Mg64 3.128896 1_555
Mg46 Mg63 3.128897 1_455
Mg46 Mg73 3.179644 1_555
Mg46 Pr0 3.278835 1_555
Mg46 Mg48 3.288906 1_445
Mg46 Mg47 3.288907 1_545
Mg47 Mg61 3.128896 1_565
Mg47 Mg66 3.128897 1_455
Mg47 Mg73 3.179644 1_565
Mg47 Pr0 3.278835 1_565
Mg47 Mg48 3.288906 1_455
Mg48 Mg65 3.128897 1_555
Mg48 Mg62 3.128905 1_565
Mg48 Mg73 3.179644 1_665
Mg48 Pr0 3.278835 1_665
Mg49 Mg62 3.183674 1_555
Mg49 Mg63 3.183680 1_555
Mg49 Mg74 3.190715 1_555
Mg49 Mg78 3.194196 1_555
Mg49 Mg80 3.194197 1_555
Mg49 Mg56 3.196639 1_555
Mg49 Mg58 3.196647 1_555
Mg49 Mg52 3.199389 1_555
Mg49 Mg53 3.199390 1_555
Mg50 Mg64 3.183689 1_555
Mg50 Mg61 3.183689 1_555
Mg50 Mg75 3.190706 1_555
Mg50 Mg77 3.194197 1_555
Mg50 Mg79 3.194197 1_555
Mg50 Mg55 3.196640 1_555
Mg50 Mg57 3.196640 1_555
Mg50 Mg52 3.199389 1_555
Mg50 Mg54 3.199389 1_555
Mg51 Mg66 3.183680 1_555
Mg51 Mg65 3.183690 1_555
Mg51 Mg89 3.190715 1_555
Mg51 Mg84 3.194197 1_555
Mg51 Mg85 3.194197 1_555
Mg51 Mg60 3.196639 1_555
Mg51 Mg59 3.196647 1_555
Mg51 Mg54 3.199389 1_555
Mg51 Mg53 3.199390 1_555
Mg52 Mg55 3.190233 1_555
Mg52 Mg56 3.190234 1_555
Mg52 Mg77 3.193113 1_555
Mg52 Mg78 3.193113 1_555
Mg52 Mg53 3.194988 1_555
Mg52 Mg54 3.194989 1_555
Mg52 Mg81 3.196249 1_555
Mg53 Mg58 3.190225 1_555
Mg53 Mg59 3.190225 1_555
Mg53 Mg80 3.193113 1_555
Mg53 Mg85 3.193113 1_555
Mg53 Mg54 3.194988 1_555
Mg53 Mg81 3.196249 1_555
Mg54 Mg57 3.190233 1_555
Mg54 Mg60 3.190234 1_555
Mg54 Mg84 3.193105 1_555
Mg54 Mg79 3.193113 1_555
Mg54 Mg81 3.196257 1_555
Mg55 Mg98 3.178812 1_545
Mg55 Mg56 3.182217 1_555
Mg55 Mg96 3.186873 1_545
Mg55 Mg61 3.189486 1_555
Mg55 Mg77 3.189992 1_555
Mg55 Mg69 3.193558 1_545
Mg55 Mg71 3.200984 1_545
Mg56 Mg98 3.178811 1_545
Mg56 Mg97 3.186873 1_545
Mg56 Mg62 3.189478 1_555
Mg56 Mg78 3.189992 1_555
Mg56 Mg69 3.193557 1_545
Mg56 Mg72 3.200985 1_545
Mg57 Mg86 3.178812 1_555
Mg57 Mg60 3.182217 1_555
Mg57 Mg82 3.186873 1_555
Mg57 Mg64 3.189486 1_555
Mg57 Mg79 3.189992 1_555
Mg57 Mg67 3.193558 1_555
Mg57 Mg70 3.200984 1_555
Mg58 Mg87 3.178804 1_655
Mg58 Mg59 3.182186 1_555
Mg58 Mg83 3.186881 1_655
Mg58 Mg63 3.189511 1_555
Mg58 Mg80 3.189991 1_555
Mg58 Mg68 3.193565 1_655
Mg58 Mg70 3.200992 1_655
Mg59 Mg87 3.178796 1_655
Mg59 Mg90 3.186881 1_655
Mg59 Mg66 3.189511 1_555
Mg59 Mg85 3.189991 1_555
Mg59 Mg68 3.193557 1_655
Mg59 Mg71 3.200992 1_655
Mg60 Mg86 3.178811 1_555
Mg60 Mg91 3.186873 1_555
Mg60 Mg65 3.189486 1_555
Mg60 Mg84 3.190000 1_555
Mg60 Mg67 3.193557 1_555
Mg60 Mg72 3.200985 1_555
Mg61 Mg96 3.180258 1_545
Mg61 Mg75 3.184337 1_555
Mg61 Mg94 3.189488 1_545
Mg61 Mg71 3.196339 1_545
Mg61 Mg64 3.204832 1_555
Mg61 Mg73 3.208094 1_555
Mg61 Mg66 3.211314 1_445
Mg62 Mg97 3.180257 1_545
Mg62 Mg74 3.184329 1_555
Mg62 Mg95 3.189497 1_545
Mg62 Mg72 3.196346 1_545
Mg62 Mg63 3.204807 1_555
Mg62 Mg73 3.208102 1_655
Mg62 Mg65 3.211323 1_545
Mg63 Mg83 3.180266 1_655
Mg63 Mg74 3.184328 1_555
Mg63 Mg76 3.189489 1_655
Mg63 Mg70 3.196354 1_655
Mg63 Mg73 3.208087 1_655
Mg63 Mg64 3.211314 1_655
Mg64 Mg82 3.180258 1_555
Mg64 Mg75 3.184345 1_555
Mg64 Mg76 3.189488 1_555
Mg64 Mg70 3.196339 1_555
Mg64 Mg73 3.208094 1_555
Mg65 Mg91 3.180257 1_555
Mg65 Mg89 3.184337 1_555
Mg65 Mg95 3.189489 1_555
Mg65 Mg72 3.196338 1_555
Mg65 Mg66 3.204815 1_555
Mg65 Mg73 3.208094 1_665
Mg66 Mg90 3.180266 1_655
Mg66 Mg89 3.184328 1_555
Mg66 Mg94 3.189489 1_655
Mg66 Mg71 3.196354 1_655
Mg66 Mg73 3.208087 1_665
Mg67 Mg88 3.183313 1_555
Mg67 Mg93 3.183313 1_555
Mg67 Mg86 3.188182 1_555
Mg67 Mg70 3.189936 1_555
Mg67 Mg72 3.189936 1_555
Mg67 Mg68 3.197062 1_555
Mg67 Mg69 3.197071 1_555
Mg68 Mg92 3.183305 1_555
Mg68 Mg88 3.183313 1_555
Mg68 Mg87 3.188198 1_555
Mg68 Mg71 3.189929 1_555
Mg68 Mg70 3.189945 1_555
Mg68 Mg69 3.197054 1_555
Mg69 Mg92 3.183313 1_555
Mg69 Mg93 3.183313 1_555
Mg69 Mg98 3.188182 1_555
Mg69 Mg71 3.189936 1_555
Mg69 Mg72 3.189936 1_555
Mg70 Mg88 3.176593 1_555
Mg70 Mg83 3.179056 1_555
Mg70 Mg82 3.179056 1_555
Mg71 Mg92 3.176593 1_555
Mg71 Mg90 3.179056 1_555
Mg71 Mg96 3.179056 1_555
Mg72 Mg93 3.176592 1_555
Mg72 Mg91 3.179056 1_555
Mg72 Mg97 3.179056 1_555
Mg73 Mg95 3.175108 1_445
Mg73 Mg76 3.175108 1_555
Mg73 Mg94 3.175108 1_545
Mg74 Mg78 3.189099 1_555
Mg74 Mg80 3.189100 1_555
Mg74 Mg83 3.199414 1_655
Mg74 Mg97 3.199414 1_545
Mg74 Mg76 3.201058 1_655
Mg74 Mg95 3.201059 1_545
Mg75 Mg77 3.189083 1_555
Mg75 Mg79 3.189091 1_555
Mg75 Mg96 3.199407 1_545
Mg75 Mg82 3.199423 1_555
Mg75 Mg94 3.201066 1_545
Mg75 Mg76 3.201073 1_555
Mg76 Mg99 3.175095 1_555
Mg76 Mg82 3.196169 1_555
Mg76 Mg83 3.196170 1_555
Mg76 Mg95 3.201027 1_445
Mg76 Mg94 3.201028 1_545
Mg77 Mg79 3.171893 1_555
Mg77 Mg81 3.184476 1_555
Mg77 Mg78 3.197044 1_555
Mg77 Mg98 3.199992 1_545
Mg77 Mg96 3.206944 1_545
Mg78 Mg80 3.171892 1_555
Mg78 Mg81 3.184469 1_555
Mg78 Mg98 3.199991 1_545
Mg78 Mg97 3.206945 1_545
Mg79 Mg81 3.184484 1_555
Mg79 Mg84 3.197036 1_555
Mg79 Mg86 3.199992 1_555
Mg79 Mg82 3.206944 1_555
Mg80 Mg81 3.184468 1_555
Mg80 Mg85 3.197045 1_555
Mg80 Mg87 3.199983 1_655
Mg80 Mg83 3.206944 1_655
Mg81 Mg84 3.184469 1_555
Mg81 Mg85 3.184476 1_555
Mg82 Mg86 3.191999 1_555
Mg82 Mg88 3.193948 1_555
Mg82 Mg83 3.194544 1_555
Mg83 Mg87 3.192008 1_555
Mg83 Mg88 3.193947 1_555
Mg84 Mg85 3.171884 1_555
Mg84 Mg89 3.189107 1_555
Mg84 Mg86 3.199999 1_555
Mg84 Mg91 3.206961 1_555
Mg85 Mg89 3.189100 1_555
Mg85 Mg87 3.199975 1_655
Mg85 Mg90 3.206944 1_655
Mg86 Mg91 3.191999 1_555
Mg86 Mg88 3.202734 1_555
Mg86 Mg93 3.202735 1_555
Mg87 Mg90 3.191992 1_555
Mg87 Mg92 3.202742 1_555
Mg87 Mg88 3.202750 1_555
Mg88 Mg93 3.190612 1_555
Mg88 Mg92 3.190613 1_555
Mg89 Mg91 3.199414 1_555
Mg89 Mg90 3.199414 1_655
Mg89 Mg94 3.201058 1_655
Mg89 Mg95 3.201058 1_555
Mg90 Mg92 3.193947 1_555
Mg90 Mg96 3.194544 1_555
Mg90 Mg94 3.196170 1_555
Mg91 Mg93 3.193947 1_555
Mg91 Mg97 3.194546 1_555
Mg91 Mg95 3.196169 1_555
Mg92 Mg93 3.190612 1_555
Mg92 Mg96 3.193948 1_555
Mg92 Mg98 3.202734 1_555
Mg93 Mg97 3.193947 1_555
Mg93 Mg98 3.202735 1_555
Mg94 Mg99 3.175095 1_565
Mg94 Mg96 3.196169 1_555
Mg94 Mg95 3.201027 1_455
Mg95 Mg99 3.175095 1_665
Mg95 Mg97 3.196169 1_555
Mg96 Mg98 3.191999 1_555
Mg97 Mg98 3.191999 1_555
Mg100 Mg128 3.175013 1_555
Mg100 Mg127 3.175021 1_555
Mg100 Mg88 3.176593 1_555
Mg100 Mg83 3.179056 1_555
Mg100 Mg82 3.179056 1_555
Mg100 Mg103 3.189936 1_555
Mg100 Mg104 3.189945 1_555
Mg100 Mg133 3.195819 1_555
Mg100 Mg109 3.196339 1_555
Mg100 Mg108 3.196354 1_455
Mg100 Mg114 3.200984 1_555
Mg100 Mg115 3.200992 1_455
Mg101 Mg131 3.175013 1_555
Mg101 Mg130 3.175021 1_555
Mg101 Mg92 3.176593 1_555
Mg101 Mg90 3.179056 1_555
Mg101 Mg96 3.179056 1_555
Mg101 Mg104 3.189929 1_555
Mg101 Mg105 3.189936 1_555
Mg101 Mg134 3.195819 1_555
Mg101 Mg106 3.196339 1_565
Mg101 Mg111 3.196354 1_455
Mg101 Mg112 3.200984 1_565
Mg101 Mg116 3.200992 1_455
Mg102 Mg129 3.175021 1_555
Mg102 Mg132 3.175021 1_555
Mg102 Mg93 3.176592 1_555
Mg102 Mg91 3.179056 1_555
Mg102 Mg97 3.179056 1_555
Mg102 Mg103 3.189936 1_555
Mg102 Mg105 3.189936 1_555
Mg102 Mg135 3.195819 1_555
Mg102 Mg110 3.196338 1_555
Mg102 Mg107 3.196346 1_565
Mg102 Mg117 3.200985 1_555
Mg102 Mg113 3.200985 1_565
Mg103 Mg133 3.181692 1_555
Mg103 Mg135 3.181692 1_555
Mg103 Mg88 3.183313 1_555
Mg103 Mg93 3.183313 1_555
Mg103 Mg136 3.185091 1_555
Mg103 Mg86 3.188182 1_555
Mg103 Mg117 3.193557 1_555
Mg103 Mg114 3.193558 1_555
Mg103 Mg104 3.197062 1_555
Mg103 Mg105 3.197071 1_555
Mg104 Mg134 3.181676 1_555
Mg104 Mg133 3.181684 1_555
Mg104 Mg92 3.183305 1_555
Mg104 Mg88 3.183313 1_555
Mg104 Mg137 3.185090 1_555
Mg104 Mg87 3.188198 1_555
Mg104 Mg116 3.193557 1_455
Mg104 Mg115 3.193565 1_455
Mg104 Mg105 3.197054 1_555
Mg105 Mg135 3.181684 1_555
Mg105 Mg134 3.181692 1_555
Mg105 Mg92 3.183313 1_555
Mg105 Mg93 3.183313 1_555
Mg105 Mg138 3.185082 1_555
Mg105 Mg98 3.188182 1_555
Mg105 Mg113 3.193557 1_565
Mg105 Mg112 3.193558 1_565
Mg106 Mg125 3.128896 1_545
Mg106 Mg96 3.180258 1_545
Mg106 Mg122 3.183688 1_555
Mg106 Mg75 3.184337 1_555
Mg106 Mg112 3.189486 1_555
Mg106 Mg94 3.189488 1_545
Mg106 Mg131 3.197113 1_545
Mg106 Mg109 3.204832 1_555
Mg106 Mg99 3.208094 1_555
Mg106 Mg147 3.210896 1_555
Mg106 Mg111 3.211314 1_445
Mg107 Mg126 3.128905 1_545
Mg107 Mg97 3.180257 1_545
Mg107 Mg121 3.183674 1_555
Mg107 Mg74 3.184329 1_555
Mg107 Mg113 3.189478 1_555
Mg107 Mg95 3.189497 1_545
Mg107 Mg132 3.197113 1_545
Mg107 Mg108 3.204807 1_555
Mg107 Mg99 3.208102 1_655
Mg107 Mg146 3.210880 1_555
Mg107 Mg110 3.211323 1_545
Mg108 Mg124 3.128897 1_655
Mg108 Mg83 3.180266 1_655
Mg108 Mg121 3.183680 1_555
Mg108 Mg74 3.184328 1_555
Mg108 Mg76 3.189489 1_655
Mg108 Mg115 3.189511 1_555
Mg108 Mg127 3.197122 1_655
Mg108 Mg99 3.208087 1_655
Mg108 Mg146 3.210887 1_555
Mg108 Mg109 3.211314 1_655
Mg109 Mg124 3.128896 1_555
Mg109 Mg82 3.180258 1_555
Mg109 Mg122 3.183688 1_555
Mg109 Mg75 3.184345 1_555
Mg109 Mg114 3.189486 1_555
Mg109 Mg76 3.189488 1_555
Mg109 Mg128 3.197113 1_555
Mg109 Mg99 3.208094 1_555
Mg109 Mg147 3.210888 1_555
Mg110 Mg126 3.128897 1_555
Mg110 Mg91 3.180257 1_555
Mg110 Mg123 3.183689 1_555
Mg110 Mg89 3.184337 1_555
Mg110 Mg117 3.189486 1_555
Mg110 Mg95 3.189489 1_555
Mg110 Mg129 3.197113 1_555
Mg110 Mg111 3.204815 1_555
Mg110 Mg99 3.208094 1_665
Mg110 Mg148 3.210888 1_555
Mg111 Mg125 3.128897 1_655
Mg111 Mg90 3.180266 1_655
Mg111 Mg123 3.183680 1_555
Mg111 Mg89 3.184328 1_555
Mg111 Mg94 3.189489 1_655
Mg111 Mg116 3.189511 1_555
Mg111 Mg130 3.197122 1_655
Mg111 Mg99 3.208087 1_665
Mg111 Mg148 3.210887 1_555
Mg112 Mg131 3.173136 1_545
Mg112 Mg98 3.178825 1_545
Mg112 Mg113 3.182217 1_555
Mg112 Mg138 3.183857 1_545
Mg112 Mg96 3.186886 1_545
Mg112 Mg77 3.190004 1_555
Mg112 Mg118 3.190233 1_555
Mg112 Mg140 3.192484 1_555
Mg112 Mg122 3.196640 1_555
Mg113 Mg132 3.173128 1_545
Mg113 Mg98 3.178824 1_545
Mg113 Mg138 3.183849 1_545
Mg113 Mg97 3.186886 1_545
Mg113 Mg78 3.190004 1_555
Mg113 Mg118 3.190234 1_555
Mg113 Mg139 3.192484 1_555
Mg113 Mg121 3.196639 1_555
Mg114 Mg128 3.173136 1_555
Mg114 Mg86 3.178824 1_555
Mg114 Mg117 3.182217 1_555
Mg114 Mg136 3.183849 1_555
Mg114 Mg82 3.186886 1_555
Mg114 Mg79 3.190004 1_555
Mg114 Mg120 3.190233 1_555
Mg114 Mg141 3.192484 1_555
Mg114 Mg122 3.196640 1_555
Mg115 Mg127 3.173136 1_655
Mg115 Mg87 3.178817 1_655
Mg115 Mg116 3.182186 1_555
Mg115 Mg137 3.183850 1_655
Mg115 Mg83 3.186894 1_655
Mg115 Mg80 3.190004 1_555
Mg115 Mg119 3.190225 1_555
Mg115 Mg142 3.192484 1_555
Mg115 Mg121 3.196647 1_555
Mg116 Mg130 3.173136 1_655
Mg116 Mg87 3.178809 1_655
Mg116 Mg137 3.183842 1_655
Mg116 Mg90 3.186894 1_655
Mg116 Mg85 3.190004 1_555
Mg116 Mg119 3.190225 1_555
Mg116 Mg144 3.192484 1_555
Mg116 Mg123 3.196647 1_555
Mg117 Mg129 3.173128 1_555
Mg117 Mg86 3.178824 1_555
Mg117 Mg136 3.183849 1_555
Mg117 Mg91 3.186886 1_555
Mg117 Mg84 3.190012 1_555
Mg117 Mg120 3.190234 1_555
Mg117 Mg143 3.192484 1_555
Mg117 Mg123 3.196639 1_555
Mg118 Mg145 3.189678 1_555
Mg118 Mg77 3.193113 1_555
Mg118 Mg78 3.193113 1_555
Mg118 Mg119 3.194988 1_555
Mg118 Mg120 3.194989 1_555
Mg118 Mg140 3.195042 1_555
Mg118 Mg139 3.195043 1_555
Mg118 Mg81 3.196249 1_555
Mg118 Mg122 3.199389 1_555
Mg118 Mg121 3.199389 1_555
Mg119 Mg145 3.189678 1_555
Mg119 Mg80 3.193113 1_555
Mg119 Mg85 3.193113 1_555
Mg119 Mg120 3.194988 1_555
Mg119 Mg144 3.195043 1_555
Mg119 Mg142 3.195043 1_555
Mg119 Mg81 3.196249 1_555
Mg119 Mg121 3.199390 1_555
Mg119 Mg123 3.199390 1_555
Mg120 Mg145 3.189686 1_555
Mg120 Mg84 3.193105 1_555
Mg120 Mg79 3.193113 1_555
Mg120 Mg141 3.195042 1_555
Mg120 Mg143 3.195043 1_555
Mg120 Mg81 3.196257 1_555
Mg120 Mg122 3.199389 1_555
Mg120 Mg123 3.199389 1_555
Mg121 Mg139 3.179102 1_555
Mg121 Mg142 3.179102 1_555
Mg121 Mg74 3.190702 1_555
Mg121 Mg78 3.194184 1_555
Mg121 Mg80 3.194184 1_555
Mg121 Mg146 3.238712 1_555
Mg122 Mg141 3.179102 1_555
Mg122 Mg140 3.179102 1_555
Mg122 Mg75 3.190694 1_555
Mg122 Mg77 3.194184 1_555
Mg122 Mg79 3.194184 1_555
Mg122 Mg147 3.238712 1_555
Mg123 Mg143 3.179102 1_555
Mg123 Mg144 3.179102 1_555
Mg123 Mg89 3.190702 1_555
Mg123 Mg84 3.194184 1_555
Mg123 Mg85 3.194184 1_555
Mg123 Mg148 3.238712 1_555
Mg124 Mg147 3.154775 1_555
Mg124 Mg146 3.154783 1_455
Mg124 Mg99 3.179657 1_555
Mg124 Mg128 3.182648 1_555
Mg124 Mg127 3.182658 1_555
Mg124 Mg3 3.260353 1_556
Mg124 Mg4 3.260361 1_556
Mg124 Pr0 3.278835 1_556
Mg124 Mg126 3.288906 1_445
Mg124 Mg125 3.288907 1_545
Mg125 Mg148 3.154783 1_455
Mg125 Mg147 3.154783 1_565
Mg125 Mg99 3.179657 1_565
Mg125 Mg131 3.182648 1_555
Mg125 Mg130 3.182657 1_555
Mg125 Mg20 3.260361 1_556
Mg125 Mg16 3.260361 1_556
Mg125 Pr0 3.278835 1_566
Mg125 Mg126 3.288906 1_455
Mg126 Mg148 3.154776 1_555
Mg126 Mg146 3.154776 1_565
Mg126 Mg99 3.179656 1_665
Mg126 Mg129 3.182656 1_555
Mg126 Mg132 3.182656 1_555
Mg126 Mg15 3.260361 1_556
Mg126 Mg21 3.260369 1_556
Mg126 Pr0 3.278835 1_666
Mg127 Mg137 3.162072 1_555
Mg127 Mg3 3.172124 1_556
Mg127 Mg133 3.173900 1_555
Mg127 Mg142 3.183349 1_455
Mg127 Mg128 3.193388 1_555
Mg127 Mg8 3.197584 1_556
Mg127 Mg9 3.207930 1_556
Mg127 Mg146 3.231198 1_455
Mg128 Mg136 3.162071 1_555
Mg128 Mg4 3.172117 1_556
Mg128 Mg133 3.173901 1_555
Mg128 Mg141 3.183365 1_555
Mg128 Mg7 3.197592 1_556
Mg128 Mg9 3.207931 1_556
Mg128 Mg147 3.231191 1_555
Mg129 Mg136 3.162063 1_555
Mg129 Mg15 3.172116 1_556
Mg129 Mg135 3.173908 1_555
Mg129 Mg143 3.183350 1_555
Mg129 Mg132 3.193405 1_555
Mg129 Mg18 3.207939 1_556
Mg129 Mg148 3.231182 1_555
Mg130 Mg137 3.162056 1_555
Mg130 Mg16 3.172117 1_556
Mg130 Mg134 3.173900 1_555
Mg130 Mg144 3.183349 1_455
Mg130 Mg131 3.193388 1_555
Mg130 Mg17 3.207930 1_556
Mg130 Mg148 3.231198 1_455
Mg131 Mg138 3.162079 1_555
Mg131 Mg20 3.172124 1_556
Mg131 Mg134 3.173901 1_555
Mg131 Mg140 3.183365 1_565
Mg131 Mg23 3.197592 1_556
Mg131 Mg17 3.207931 1_556
Mg131 Mg147 3.231207 1_565
Mg132 Mg138 3.162055 1_555
Mg132 Mg21 3.172116 1_556
Mg132 Mg135 3.173900 1_555
Mg132 Mg139 3.183350 1_565
Mg132 Mg22 3.197576 1_556
Mg132 Mg18 3.207931 1_556
Mg132 Mg146 3.231182 1_565
Mg133 Mg134 3.169630 1_555
Mg133 Mg135 3.169645 1_555
Mg133 Mg9 3.177899 1_556
Mg133 Mg14 3.191835 1_556
Mg133 Mg137 3.194704 1_555
Mg133 Mg136 3.194728 1_555
Mg134 Mg135 3.169637 1_555
Mg134 Mg17 3.177899 1_556
Mg134 Mg14 3.191827 1_556
Mg134 Mg19 3.191843 1_556
Mg134 Mg137 3.194696 1_555
Mg134 Mg138 3.194720 1_555
Mg135 Mg18 3.177899 1_556
Mg135 Mg19 3.191827 1_556
Mg135 Mg138 3.194697 1_555
Mg135 Mg136 3.194729 1_555
Mg136 Mg7 3.193618 1_556
Mg136 Mg143 3.199187 1_555
Mg136 Mg141 3.199188 1_555
Mg137 Mg8 3.193626 1_556
Mg137 Mg144 3.199195 1_455
Mg137 Mg142 3.199203 1_455
Mg137 Mg14 3.203460 1_556
Mg138 Mg22 3.193618 1_556
Mg138 Mg23 3.193618 1_556
Mg138 Mg139 3.199195 1_565
Mg138 Mg140 3.199204 1_565
Mg138 Mg19 3.203460 1_556
Mg139 Mg22 3.185427 1_546
Mg139 Mg142 3.189726 1_555
Mg139 Mg145 3.209104 1_555
Mg139 Mg146 3.222749 1_555
Mg139 Mg140 3.228445 1_555
Mg140 Mg2 3.174519 1_556
Mg140 Mg23 3.185427 1_546
Mg140 Mg141 3.189727 1_555
Mg140 Mg145 3.209110 1_555
Mg140 Mg147 3.222757 1_555
Mg141 Mg2 3.174527 1_556
Mg141 Mg7 3.185419 1_556
Mg141 Mg6 3.198022 1_556
Mg141 Mg145 3.209118 1_555
Mg141 Mg147 3.222749 1_555
Mg141 Mg143 3.228445 1_555
Mg142 Mg8 3.185419 1_656
Mg142 Mg5 3.198022 1_556
Mg142 Mg145 3.209103 1_555
Mg142 Mg146 3.222758 1_555
Mg142 Mg144 3.228446 1_555
Mg143 Mg144 3.189726 1_555
Mg143 Mg6 3.198022 1_556
Mg143 Mg145 3.209119 1_555
Mg143 Mg148 3.222749 1_555
Mg144 Mg5 3.198022 1_556
Mg144 Mg145 3.209110 1_555
Mg144 Mg148 3.222758 1_555
Mg145 Mg5 3.180673 1_556
Mg145 Mg6 3.180681 1_556
Mg146 Mg21 3.175429 1_546
Mg146 Mg3 3.175444 1_656
Mg147 Mg4 3.175436 1_556
Mg147 Mg20 3.175436 1_546
Mg147 Mg2 3.202098 1_556
Mg148 Mg15 3.175436 1_556
Mg148 Mg16 3.175445 1_656
