# generated using pymatgen
data_AsIrS
_symmetry_space_group_name_H-M   'P 1'
_cell_length_a   5.81620160
_cell_length_b   5.81620160
_cell_length_c   5.81620160
_cell_angle_alpha   90.00000000
_cell_angle_beta   90.00000000
_cell_angle_gamma   90.00000000
_symmetry_Int_Tables_number   1
_chemical_formula_structural   AsIrS
_chemical_formula_sum   'As4 Ir4 S4'
_cell_volume   196.75163708
_cell_formula_units_Z   4
loop_
 _symmetry_equiv_pos_site_id
 _symmetry_equiv_pos_as_xyz
  1  'x, y, z'
loop_
 _atom_site_type_symbol
 _atom_site_label
 _atom_site_symmetry_multiplicity
 _atom_site_fract_x
 _atom_site_fract_y
 _atom_site_fract_z
 _atom_site_occupancy
  As  As0  1  0.11690528  0.88309472  0.38309472  1
  As  As1  1  0.88309472  0.38309472  0.11690528  1
  As  As2  1  0.38309472  0.11690528  0.88309472  1
  As  As3  1  0.61690528  0.61690528  0.61690528  1
  Ir  Ir0  1  0.49679992  0.50320008  0.00320008  1
  Ir  Ir1  1  0.50320008  0.00320008  0.49679992  1
  Ir  Ir2  1  0.00320008  0.49679992  0.50320008  1
  Ir  Ir3  1  0.99679992  0.99679992  0.99679992  1
  S  S0  1  0.88742108  0.11257892  0.61257892  1
  S  S1  1  0.11257892  0.61257892  0.88742108  1
  S  S2  1  0.61257892  0.88742108  0.11257892  1
  S  S3  1  0.38742108  0.38742108  0.38742108  1
loop_
_geom_bond_atom_site_label_1
_geom_bond_atom_site_label_2
_geom_bond_distance
_geom_bond_site_symmetry_2
As0 S0 2.311814 1_465
As0 Ir2 2.444036 1_555
As0 Ir3 2.444036 1_454
As0 Ir1 2.444036 1_565
As1 S1 2.311814 1_654
As1 Ir3 2.444036 1_544
As1 Ir0 2.444036 1_555
As1 Ir2 2.444036 1_655
As2 S2 2.311814 1_546
As2 Ir1 2.444036 1_555
As2 Ir3 2.444036 1_445
As2 Ir0 2.444036 1_556
As3 S3 2.311814 1_555
As3 Ir0 2.444036 1_556
As3 Ir1 2.444036 1_565
As3 Ir2 2.444036 1_655
Ir0 S2 2.419108 1_555
Ir0 S3 2.419108 1_555
Ir0 S1 2.419108 1_554
Ir1 S0 2.419108 1_555
Ir1 S3 2.419108 1_555
Ir1 S2 2.419108 1_545
Ir2 S1 2.419108 1_555
Ir2 S3 2.419108 1_555
Ir2 S0 2.419108 1_455
Ir3 S0 2.419108 1_565
Ir3 S1 2.419108 1_655
Ir3 S2 2.419108 1_556
