# generated using pymatgen
data_Cr21(FeC3)2
_symmetry_space_group_name_H-M   'P 1'
_cell_length_a   7.46313307
_cell_length_b   7.46313307
_cell_length_c   7.46313307
_cell_angle_alpha   60.00000000
_cell_angle_beta   60.00000000
_cell_angle_gamma   60.00000000
_symmetry_Int_Tables_number   1
_chemical_formula_structural   Cr21(FeC3)2
_chemical_formula_sum   'Cr21 Fe2 C6'
_cell_volume   293.93314222
_cell_formula_units_Z   1
loop_
 _symmetry_equiv_pos_site_id
 _symmetry_equiv_pos_as_xyz
  1  'x, y, z'
loop_
 _atom_site_type_symbol
 _atom_site_label
 _atom_site_symmetry_multiplicity
 _atom_site_fract_x
 _atom_site_fract_y
 _atom_site_fract_z
 _atom_site_occupancy
  Cr  Cr0  1  0.33919000  0.00000000  0.00000000  1
  Cr  Cr1  1  0.66081000  0.00000000  0.00000000  1
  Cr  Cr2  1  0.00000000  0.33919000  0.66081000  1
  Cr  Cr3  1  0.00000000  0.66081000  0.33919000  1
  Cr  Cr4  1  0.00000000  0.33919000  0.00000000  1
  Cr  Cr5  1  0.66081000  0.00000000  0.33919000  1
  Cr  Cr6  1  0.00000000  0.66081000  0.00000000  1
  Cr  Cr7  1  0.33919000  0.00000000  0.66081000  1
  Cr  Cr8  1  0.00000000  0.00000000  0.33919000  1
  Cr  Cr9  1  0.00000000  0.00000000  0.66081000  1
  Cr  Cr10  1  0.66081000  0.33919000  0.00000000  1
  Cr  Cr11  1  0.33919000  0.66081000  0.00000000  1
  Cr  Cr12  1  0.38197700  0.38197700  0.38197700  1
  Cr  Cr13  1  0.61802300  0.61802300  0.61802300  1
  Cr  Cr14  1  0.38197700  0.38197700  0.85406800  1
  Cr  Cr15  1  0.38197700  0.85406800  0.38197700  1
  Cr  Cr16  1  0.61802300  0.61802300  0.14593200  1
  Cr  Cr17  1  0.61802300  0.14593200  0.61802300  1
  Cr  Cr18  1  0.85406800  0.38197700  0.38197700  1
  Cr  Cr19  1  0.14593200  0.61802300  0.61802300  1
  Cr  Cr20  1  0.00000000  0.00000000  0.00000000  1
  Fe  Fe0  1  0.25000000  0.25000000  0.25000000  1
  Fe  Fe1  1  0.75000000  0.75000000  0.75000000  1
  C  C0  1  0.72299000  0.27701000  0.27701000  1
  C  C1  1  0.27701000  0.72299000  0.72299000  1
  C  C2  1  0.27701000  0.72299000  0.27701000  1
  C  C3  1  0.72299000  0.27701000  0.72299000  1
  C  C4  1  0.27701000  0.27701000  0.72299000  1
  C  C5  1  0.72299000  0.72299000  0.27701000  1
loop_
_geom_bond_atom_site_label_1
_geom_bond_atom_site_label_2
_geom_bond_distance
_geom_bond_site_symmetry_2
Cr0 Cr20 2.531420 1_555
Cr1 Cr20 2.531420 1_655
Cr2 Cr20 2.531420 1_556
Cr10 Cr20 2.531420 1_655
Cr11 Cr20 2.531420 1_565
Cr12 Fe0 2.412654 1_555
Cr13 Fe1 2.412654 1_555
Cr14 Fe0 2.412660 1_556
Cr15 Fe0 2.412660 1_565
Cr16 Fe1 2.412660 1_554
Cr17 Fe1 2.412660 1_545
Cr18 Fe0 2.412660 1_655
Cr19 Fe1 2.412660 1_455
Cr20 Cr8 2.531420 1_555
Cr20 Cr9 2.531420 1_554
Cr20 Cr7 2.531420 1_554
Cr20 Cr4 2.531420 1_555
Cr20 Cr6 2.531420 1_545
Cr20 Cr5 2.531420 1_455
Cr20 Cr3 2.531420 1_545
C0 Cr18 2.081042 1_555
C0 Cr17 2.081048 1_555
C0 Cr16 2.081048 1_555
C0 Cr12 2.081048 1_555
C0 Cr8 2.118806 1_655
C0 Cr5 2.118806 1_555
C0 Cr10 2.118806 1_555
C0 Cr4 2.118806 1_655
C1 Cr19 2.081042 1_555
C1 Cr15 2.081048 1_555
C1 Cr14 2.081048 1_555
C1 Cr13 2.081048 1_555
C1 Cr9 2.118806 1_565
C1 Cr11 2.118806 1_556
C1 Cr7 2.118806 1_565
C1 Cr6 2.118806 1_556
C2 Cr15 2.081042 1_555
C2 Cr19 2.081048 1_555
C2 Cr16 2.081048 1_555
C2 Cr12 2.081048 1_555
C2 Cr3 2.118806 1_555
C2 Cr0 2.118806 1_565
C2 Cr11 2.118806 1_555
C2 Cr8 2.118806 1_565
C3 Cr17 2.081042 1_555
C3 Cr14 2.081048 1_555
C3 Cr18 2.081048 1_555
C3 Cr13 2.081048 1_555
C3 Cr2 2.118806 1_655
C3 Cr1 2.118806 1_556
C3 Cr10 2.118806 1_556
C3 Cr9 2.118806 1_655
C4 Cr14 2.081042 1_555
C4 Cr17 2.081048 1_555
C4 Cr19 2.081048 1_555
C4 Cr12 2.081048 1_555
C4 Cr0 2.118806 1_556
C4 Cr7 2.118806 1_555
C4 Cr4 2.118806 1_556
C4 Cr2 2.118806 1_555
C5 Cr16 2.081042 1_555
C5 Cr15 2.081048 1_555
C5 Cr18 2.081048 1_555
C5 Cr13 2.081048 1_555
C5 Cr3 2.118806 1_655
C5 Cr6 2.118806 1_655
C5 Cr1 2.118806 1_565
C5 Cr5 2.118806 1_565
