# generated using pymatgen
data_NaLiNiPO4F
_symmetry_space_group_name_H-M   'P 1'
_cell_length_a   11.29737400
_cell_length_b   5.07851900
_cell_length_c   6.84765628
_cell_angle_alpha   89.73857398
_cell_angle_beta   90.00000000
_cell_angle_gamma   90.00000000
_symmetry_Int_Tables_number   1
_chemical_formula_structural   NaLiNiPO4F
_chemical_formula_sum   'Na4 Li4 Ni4 P4 O16 F4'
_cell_volume   392.87285225
_cell_formula_units_Z   4
loop_
 _symmetry_equiv_pos_site_id
 _symmetry_equiv_pos_as_xyz
  1  'x, y, z'
loop_
 _atom_site_type_symbol
 _atom_site_label
 _atom_site_symmetry_multiplicity
 _atom_site_fract_x
 _atom_site_fract_y
 _atom_site_fract_z
 _atom_site_occupancy
  Na  Na0  1  0.33489100  0.75180400  0.49029500  1
  Na  Na1  1  0.83489100  0.74819600  0.50970500  1
  Na  Na2  1  0.66510900  0.24819600  0.50970500  1
  Na  Na3  1  0.16510900  0.25180400  0.49029500  1
  Li  Li0  1  0.41838000  0.26599000  0.25513400  1
  Li  Li1  1  0.91838000  0.23401000  0.74486600  1
  Li  Li2  1  0.58162000  0.73401000  0.74486600  1
  Li  Li3  1  0.08162000  0.76599000  0.25513400  1
  Ni  Ni0  1  0.32786900  0.73422300  0.01969300  1
  Ni  Ni1  1  0.82786900  0.76577700  0.98030700  1
  Ni  Ni2  1  0.67213100  0.26577700  0.98030700  1
  Ni  Ni3  1  0.17213100  0.23422300  0.01969300  1
  P  P0  1  0.08181000  0.72561700  0.75649200  1
  P  P1  1  0.58181000  0.77438300  0.24350800  1
  P  P2  1  0.91819000  0.27438300  0.24350800  1
  P  P3  1  0.41819000  0.22561700  0.75649200  1
  O  O0  1  0.37580300  0.26256800  0.54444400  1
  O  O1  1  0.87580300  0.23743200  0.45555600  1
  O  O2  1  0.62419700  0.73743200  0.45555600  1
  O  O3  1  0.12419700  0.76256800  0.54444400  1
  O  O4  1  0.17095200  0.86327500  0.89770600  1
  O  O5  1  0.67095200  0.63672500  0.10229400  1
  O  O6  1  0.82904800  0.13672500  0.10229400  1
  O  O7  1  0.32904800  0.36327500  0.89770600  1
  O  O8  1  0.42624400  0.92473600  0.80526400  1
  O  O9  1  0.92624400  0.57526400  0.19473600  1
  O  O10  1  0.57375600  0.07526400  0.19473600  1
  O  O11  1  0.07375600  0.42473600  0.80526400  1
  O  O12  1  0.54140700  0.35663400  0.78366700  1
  O  O13  1  0.04140700  0.14336600  0.21633300  1
  O  O14  1  0.45859300  0.64336600  0.21633300  1
  O  O15  1  0.95859300  0.85663400  0.78366700  1
  F  F0  1  0.28656300  0.03497900  0.21037700  1
  F  F1  1  0.78656300  0.46502100  0.78962300  1
  F  F2  1  0.71343700  0.96502100  0.78962300  1
  F  F3  1  0.21343700  0.53497900  0.21037700  1
loop_
_geom_bond_atom_site_label_1
_geom_bond_atom_site_label_2
_geom_bond_distance
_geom_bond_site_symmetry_2
Na0 O14 2.405223 1_555
Na0 O3 2.409655 1_555
Na0 O8 2.550588 1_555
Na0 O0 2.552629 1_555
Na0 O0 2.662393 1_565
Na1 O15 2.405223 1_555
Na1 O2 2.409655 1_555
Na1 O9 2.550588 1_555
Na1 O1 2.552629 1_565
Na1 O1 2.662393 1_555
Na2 O12 2.405223 1_555
Na2 O1 2.409655 1_555
Na2 O10 2.550588 1_555
Na2 O2 2.552629 1_555
Na2 O2 2.662393 1_545
Na3 O13 2.405223 1_555
Na3 O0 2.409655 1_555
Na3 O11 2.550588 1_555
Na3 O3 2.552629 1_545
Na3 O3 2.662393 1_555
Li0 O14 1.986291 1_555
Li0 O0 2.038651 1_555
Li0 O10 2.047957 1_555
Li1 O15 1.986291 1_545
Li1 O1 2.038651 1_555
Li1 O11 2.047957 1_655
Li2 O12 1.986291 1_555
Li2 O2 2.038651 1_555
Li2 O8 2.047957 1_555
Li3 O13 1.986291 1_565
Li3 O3 2.038651 1_555
Li3 O9 2.047957 1_455
Ni0 O14 2.049735 1_555
Ni0 O7 2.064282 1_554
Ni0 O4 2.065177 1_554
Ni0 O8 2.077092 1_554
Ni1 O15 2.049735 1_555
Ni1 O6 2.064282 1_566
Ni1 O5 2.065177 1_556
Ni1 O9 2.077092 1_556
Ni2 O12 2.049735 1_555
Ni2 O5 2.064282 1_556
Ni2 O6 2.065177 1_556
Ni2 O10 2.077092 1_556
Ni3 O13 2.049735 1_555
Ni3 O4 2.064282 1_544
Ni3 O7 2.065177 1_554
Ni3 O11 2.077092 1_554
O0 P3 1.539621 1_555
O1 P2 1.539621 1_555
O2 P1 1.539621 1_555
O3 P0 1.539621 1_555
O4 P0 1.563381 1_555
O5 P1 1.563381 1_555
O6 P2 1.563381 1_555
O7 P3 1.563381 1_555
O8 P3 1.565259 1_565
O9 P2 1.565259 1_555
O10 P1 1.565259 1_545
O11 P0 1.565259 1_555
O12 P3 1.554420 1_555
O13 P2 1.554420 1_455
O14 P1 1.554420 1_555
O15 P0 1.554420 1_655
F0 Li0 1.921268 1_555
F0 Ni0 2.067329 1_545
F0 Ni3 2.094767 1_555
F0 Na0 2.452581 1_545
F0 Na3 2.605482 1_555
F1 Li1 1.921268 1_555
F1 Ni1 2.067329 1_555
F1 Ni2 2.094767 1_555
F1 Na1 2.452581 1_555
F1 Na2 2.605482 1_555
F2 Li2 1.921268 1_555
F2 Ni2 2.067329 1_565
F2 Ni1 2.094767 1_555
F2 Na2 2.452581 1_565
F2 Na1 2.605482 1_555
F3 Li3 1.921268 1_555
F3 Ni3 2.067329 1_555
F3 Ni0 2.094767 1_555
F3 Na3 2.452581 1_555
F3 Na0 2.605482 1_555
