# generated using pymatgen
data_Li2CrCo3O8
_symmetry_space_group_name_H-M   'P 1'
_cell_length_a   5.80746767
_cell_length_b   10.17609744
_cell_length_c   5.80559574
_cell_angle_alpha   73.10414500
_cell_angle_beta   59.20437499
_cell_angle_gamma   72.55438566
_symmetry_Int_Tables_number   1
_chemical_formula_structural   Li2CrCo3O8
_chemical_formula_sum   'Li4 Cr2 Co6 O16'
_cell_volume   277.19696709
_cell_formula_units_Z   2
loop_
 _symmetry_equiv_pos_site_id
 _symmetry_equiv_pos_as_xyz
  1  'x, y, z'
loop_
 _atom_site_type_symbol
 _atom_site_label
 _atom_site_symmetry_multiplicity
 _atom_site_fract_x
 _atom_site_fract_y
 _atom_site_fract_z
 _atom_site_occupancy
  Li  Li0  1  0.56410700  0.31840400  0.56270400  1
  Li  Li1  1  0.06402300  0.81810700  0.05274300  1
  Li  Li2  1  0.93596700  0.18190300  0.94725700  1
  Li  Li3  1  0.43588200  0.68160700  0.43729600  1
  Cr  Cr0  1  0.25372900  0.24985500  0.25270400  1
  Cr  Cr1  1  0.74632400  0.75012900  0.74728600  1
  Co  Co0  1  0.49999400  0.50000300  0.00000000  1
  Co  Co1  1  0.99999900  0.50000000  0.00000400  1
  Co  Co2  1  0.49999700  0.99999900  0.00000000  1
  Co  Co3  1  0.99999400  0.00000000  0.50000000  1
  Co  Co4  1  0.49999800  0.99999800  0.50000600  1
  Co  Co5  1  0.99999700  0.49999800  0.49999800  1
  O  O0  1  0.84960800  0.39024000  0.85912100  1
  O  O1  1  0.36800900  0.89688700  0.36931900  1
  O  O2  1  0.63197900  0.10311900  0.63068600  1
  O  O3  1  0.15038000  0.60976500  0.14088300  1
  O  O4  1  0.35386300  0.38884800  0.35585400  1
  O  O5  1  0.85669800  0.88454300  0.84698600  1
  O  O6  1  0.90424400  0.39195000  0.35843200  1
  O  O7  1  0.40156200  0.89216100  0.84998500  1
  O  O8  1  0.35771600  0.38836700  0.90807200  1
  O  O9  1  0.84561500  0.88515000  0.39670000  1
  O  O10  1  0.15438600  0.11485200  0.60330100  1
  O  O11  1  0.64227700  0.61163300  0.09193400  1
  O  O12  1  0.59845300  0.10783200  0.15001100  1
  O  O13  1  0.09576700  0.60804400  0.64156300  1
  O  O14  1  0.14329700  0.11545600  0.15301300  1
  O  O15  1  0.64613400  0.61115100  0.64414200  1
loop_
_geom_bond_atom_site_label_1
_geom_bond_atom_site_label_2
_geom_bond_distance
_geom_bond_site_symmetry_2
Li0 O8 1.954754 1_555
Li0 O6 1.959666 1_555
Li0 O4 1.980658 1_555
Li0 O2 2.061434 1_555
Li1 O9 1.934245 1_455
Li1 O7 1.950246 1_554
Li1 O5 1.961864 1_454
Li1 O3 2.000715 1_555
Li2 O10 1.934279 1_655
Li2 O12 1.950218 1_556
Li2 O14 1.961881 1_656
Li2 O0 2.000668 1_555
Li3 O11 1.954778 1_555
Li3 O13 1.959650 1_555
Li3 O15 1.980677 1_555
Li3 O1 2.061386 1_555
Cr0 O14 1.995710 1_555
Cr0 O8 1.997123 1_554
Cr0 O12 1.998977 1_555
Cr0 O10 2.002640 1_555
Cr0 O4 2.009836 1_555
Cr0 O6 2.016812 1_455
Cr1 O5 1.995648 1_555
Cr1 O11 1.997101 1_556
Cr1 O7 1.999163 1_555
Cr1 O9 2.002693 1_555
Cr1 O15 2.009892 1_555
Cr1 O13 2.016606 1_655
Co0 O3 1.873434 1_555
Co0 O0 1.873437 1_554
Co0 O11 1.903909 1_555
Co0 O8 1.903913 1_554
Co0 O15 1.920865 1_554
Co0 O4 1.920875 1_555
Co1 O8 1.921749 1_654
Co1 O11 1.921772 1_555
Co1 O6 1.923563 1_555
Co1 O13 1.923593 1_654
Co1 O3 2.127585 1_655
Co1 O0 2.127608 1_554
Co2 O14 1.929714 1_565
Co2 O5 1.929714 1_554
Co2 O7 1.931580 1_554
Co2 O12 1.931607 1_565
Co2 O1 1.943562 1_555
Co2 O2 1.943568 1_564
Co3 O5 1.903925 1_545
Co3 O14 1.903928 1_655
Co3 O1 1.924094 1_645
Co3 O2 1.924113 1_555
Co3 O9 2.028701 1_545
Co3 O10 2.028779 1_655
Co4 O9 1.876840 1_555
Co4 O10 1.876846 1_565
Co4 O7 1.884178 1_555
Co4 O12 1.884229 1_565
Co4 O1 1.950555 1_555
Co4 O2 1.950568 1_565
Co5 O6 1.885065 1_555
Co5 O13 1.885113 1_655
Co5 O4 1.896950 1_655
Co5 O15 1.896950 1_555
Co5 O0 1.929756 1_555
Co5 O3 1.929758 1_655
