# generated using pymatgen
data_Sr2CoO4
_symmetry_space_group_name_H-M   'P 1'
_cell_length_a   3.76922210
_cell_length_b   6.80194002
_cell_length_c   7.56636766
_cell_angle_alpha   106.14600888
_cell_angle_beta   90.00338898
_cell_angle_gamma   106.11591331
_symmetry_Int_Tables_number   1
_chemical_formula_structural   Sr2CoO4
_chemical_formula_sum   'Sr4 Co2 O8'
_cell_volume   178.38419986
_cell_formula_units_Z   2
loop_
 _symmetry_equiv_pos_site_id
 _symmetry_equiv_pos_as_xyz
  1  'x, y, z'
loop_
 _atom_site_type_symbol
 _atom_site_label
 _atom_site_symmetry_multiplicity
 _atom_site_fract_x
 _atom_site_fract_y
 _atom_site_fract_z
 _atom_site_occupancy
  Sr  Sr0  1  0.64366839  0.28703621  0.32165098  1
  Sr  Sr1  1  0.64359921  0.28711441  0.82190380  1
  Sr  Sr2  1  0.35633145  0.71296337  0.67834930  1
  Sr  Sr3  1  0.35640081  0.71288574  0.17809601  1
  Co  Co0  1  0.00000013  0.00000026  0.49999990  1
  Co  Co1  1  0.00000079  -0.00000004  -0.00000043  1
  O  O0  1  0.84415149  0.68703010  0.42166369  1
  O  O1  1  0.84328048  0.68727157  0.92190398  1
  O  O2  1  0.15585059  0.31297009  0.57833713  1
  O  O3  1  0.15671915  0.31272818  0.07809578  1
  O  O4  1  -0.00006800  0.00006966  0.24914598  1
  O  O5  1  0.00006807  0.99993063  0.75085492  1
  O  O6  1  0.50000053  0.00000005  0.50000014  1
  O  O7  1  0.49999892  -0.00000025  -0.00000020  1
loop_
_geom_bond_atom_site_label_1
_geom_bond_atom_site_label_2
_geom_bond_distance
_geom_bond_site_symmetry_2
Co0 O6 1.884609 1_455
Co0 O6 1.884613 1_555
Co0 O4 1.898184 1_555
Co0 O5 1.898193 1_545
Co0 O2 1.957584 1_555
Co0 O0 1.957586 1_445
Co1 O7 1.884604 1_555
Co1 O7 1.884618 1_455
Co1 O5 1.884989 1_544
Co1 O4 1.885002 1_555
Co1 O3 1.956070 1_555
Co1 O1 1.956071 1_444
O0 Sr0 2.501904 1_555
O0 Sr3 2.673459 1_655
O0 Sr2 2.673956 1_655
O0 Sr3 2.677035 1_555
O0 Sr2 2.678421 1_555
O1 Sr1 2.502927 1_555
O1 Sr3 2.673165 1_556
O1 Sr2 2.674337 1_555
O1 Sr3 2.674542 1_656
O1 Sr2 2.675454 1_655
O2 Sr2 2.501900 1_555
O2 Sr1 2.673459 1_455
O2 Sr0 2.673963 1_455
O2 Sr1 2.677024 1_555
O2 Sr0 2.678418 1_555
O3 Sr3 2.502929 1_555
O3 Sr1 2.673165 1_554
O3 Sr0 2.674341 1_555
O3 Sr1 2.674541 1_454
O3 Sr0 2.675456 1_455
O4 Sr0 2.602554 1_555
O4 Sr3 2.602635 1_445
O4 Sr0 2.602666 1_455
O4 Sr3 2.604461 1_545
O5 Sr2 2.602557 1_455
O5 Sr1 2.602635 1_565
O5 Sr2 2.602670 1_555
O5 Sr1 2.604460 1_465
O6 Sr0 2.608566 1_555
O6 Sr2 2.608569 1_545
O6 Sr1 2.608977 1_555
O6 Sr3 2.608980 1_545
O7 Sr2 2.607359 1_544
O7 Sr0 2.607363 1_555
O7 Sr3 2.607620 1_545
O7 Sr1 2.607623 1_554
