# generated using pymatgen
data_BaV2(CoO4)2
_symmetry_space_group_name_H-M   'P 1'
_cell_length_a   9.91269432
_cell_length_b   9.91269432
_cell_length_c   9.91269432
_cell_angle_alpha   100.61980302
_cell_angle_beta   100.61980302
_cell_angle_gamma   129.15480738
_symmetry_Int_Tables_number   1
_chemical_formula_structural   BaV2(CoO4)2
_chemical_formula_sum   'Ba4 V8 Co8 O32'
_cell_volume   682.16981672
_cell_formula_units_Z   4
loop_
 _symmetry_equiv_pos_site_id
 _symmetry_equiv_pos_as_xyz
  1  'x, y, z'
loop_
 _atom_site_type_symbol
 _atom_site_label
 _atom_site_symmetry_multiplicity
 _atom_site_fract_x
 _atom_site_fract_y
 _atom_site_fract_z
 _atom_site_occupancy
  Ba  Ba0  1  0.00000000  0.00000000  0.00000000  1
  Ba  Ba1  1  0.25000000  0.75000000  0.50000000  1
  Ba  Ba2  1  0.50000000  0.50000000  0.00000000  1
  Ba  Ba3  1  0.75000000  0.25000000  0.50000000  1
  V  V0  1  0.37500000  0.20433800  0.32933800  1
  V  V1  1  0.95433800  0.62500000  0.82933800  1
  V  V2  1  0.87500000  0.54566200  0.17066200  1
  V  V3  1  0.37500000  0.70433800  0.82933800  1
  V  V4  1  0.79566200  0.12500000  0.17066200  1
  V  V5  1  0.29566200  0.12500000  0.67066200  1
  V  V6  1  0.87500000  0.04566200  0.67066200  1
  V  V7  1  0.45433800  0.62500000  0.32933800  1
  Co  Co0  1  0.41848800  0.08151200  0.00000000  1
  Co  Co1  1  0.58151200  0.58151200  0.66302400  1
  Co  Co2  1  0.66848800  0.16848800  0.83697600  1
  Co  Co3  1  0.91848800  0.91848800  0.33697600  1
  Co  Co4  1  0.83151200  0.66848800  0.50000000  1
  Co  Co5  1  0.08151200  0.41848800  0.00000000  1
  Co  Co6  1  0.33151200  0.83151200  0.16302400  1
  Co  Co7  1  0.16848800  0.33151200  0.50000000  1
  O  O0  1  0.78194200  0.94085100  0.16507700  1
  O  O1  1  0.77577400  0.61686600  0.83492300  1
  O  O2  1  0.19085100  0.52577400  0.65890900  1
  O  O3  1  0.86686600  0.53194200  0.34109100  1
  O  O4  1  0.96805800  0.63313400  0.65890900  1
  O  O5  1  0.88313400  0.72422600  0.16507700  1
  O  O6  1  0.55914900  0.71805800  0.83492300  1
  O  O7  1  0.97422600  0.30914900  0.34109100  1
  O  O8  1  0.46805800  0.80914900  0.33492300  1
  O  O9  1  0.47422600  0.13313400  0.66507700  1
  O  O10  1  0.05914900  0.22422600  0.84109100  1
  O  O11  1  0.38313400  0.21805800  0.15890900  1
  O  O12  1  0.28194200  0.11686600  0.84109100  1
  O  O13  1  0.36686600  0.02577400  0.33492300  1
  O  O14  1  0.69085100  0.03194200  0.66507700  1
  O  O15  1  0.27577400  0.44085100  0.15890900  1
  O  O16  1  0.08263200  0.91756500  0.51921900  1
  O  O17  1  0.39834500  0.56341200  0.48078100  1
  O  O18  1  0.16756500  0.14834500  0.33493300  1
  O  O19  1  0.81341200  0.83263200  0.66506700  1
  O  O20  1  0.89834500  0.41756500  0.83493300  1
  O  O21  1  0.66756500  0.33263200  0.01921900  1
  O  O22  1  0.31341200  0.64834500  0.98078100  1
  O  O23  1  0.58263200  0.06341200  0.16506700  1
  O  O24  1  0.43658800  0.91736800  0.83493300  1
  O  O25  1  0.08243500  0.60165500  0.16506700  1
  O  O26  1  0.85165500  0.18658800  0.01921900  1
  O  O27  1  0.16736800  0.83243500  0.98078100  1
  O  O28  1  0.35165500  0.33243500  0.66506700  1
  O  O29  1  0.58243500  0.41736800  0.48078100  1
  O  O30  1  0.93658800  0.10165500  0.51921900  1
  O  O31  1  0.66736800  0.68658800  0.33493300  1
loop_
_geom_bond_atom_site_label_1
_geom_bond_atom_site_label_2
_geom_bond_distance
_geom_bond_site_symmetry_2
Ba0 O11 2.783975 1_555
Ba0 O1 2.783975 1_444
Ba0 O0 2.783983 1_445
Ba0 O10 2.783983 1_554
Ba0 O27 3.004614 1_544
Ba0 O26 3.004615 1_455
Ba0 O18 3.004615 1_555
Ba0 O19 3.004615 1_444
Ba0 O12 3.137018 1_554
Ba0 O5 3.137018 1_445
Ba0 O6 3.137019 1_444
Ba0 O15 3.137019 1_555
Ba1 O3 2.783975 1_455
Ba1 O9 2.783975 1_565
Ba1 O8 2.783983 1_555
Ba1 O2 2.783983 1_555
Ba1 O16 3.004614 1_555
Ba1 O17 3.004615 1_555
Ba1 O25 3.004615 1_555
Ba1 O24 3.004615 1_555
Ba1 O4 3.137018 1_455
Ba1 O13 3.137018 1_565
Ba1 O14 3.137019 1_565
Ba1 O7 3.137019 1_455
Ba2 O12 2.783975 1_554
Ba2 O5 2.783975 1_555
Ba2 O15 2.783983 1_555
Ba2 O6 2.783983 1_554
Ba2 O21 3.004614 1_555
Ba2 O22 3.004615 1_554
Ba2 O31 3.004615 1_555
Ba2 O28 3.004615 1_554
Ba2 O11 3.137018 1_555
Ba2 O1 3.137018 1_554
Ba2 O10 3.137019 1_554
Ba2 O0 3.137019 1_555
Ba3 O4 2.783975 1_555
Ba3 O13 2.783975 1_555
Ba3 O14 2.783983 1_555
Ba3 O7 2.783983 1_555
Ba3 O29 3.004614 1_555
Ba3 O30 3.004615 1_555
Ba3 O20 3.004615 1_555
Ba3 O23 3.004615 1_555
Ba3 O3 3.137018 1_555
Ba3 O9 3.137018 1_555
Ba3 O2 3.137019 1_655
Ba3 O8 3.137019 1_545
Co0 O21 2.054071 1_555
Co0 O27 2.054071 1_544
Co0 O12 2.110174 1_554
Co0 O11 2.110174 1_555
Co0 O24 2.202859 1_544
Co0 O23 2.202859 1_555
Co1 O19 2.054068 1_555
Co1 O28 2.054068 1_555
Co1 O1 2.110161 1_555
Co1 O6 2.110166 1_555
Co1 O29 2.202853 1_555
Co1 O17 2.202853 1_555
Co2 O24 2.054068 1_545
Co2 O20 2.054068 1_555
Co2 O9 2.110161 1_555
Co2 O14 2.110166 1_555
Co2 O21 2.202853 1_556
Co2 O26 2.202853 1_556
Co3 O31 2.054068 1_555
Co3 O18 2.054068 1_665
Co3 O5 2.110161 1_555
Co3 O0 2.110166 1_555
Co3 O16 2.202853 1_655
Co3 O30 2.202853 1_565
Co4 O29 2.054071 1_555
Co4 O16 2.054071 1_655
Co4 O4 2.110174 1_555
Co4 O3 2.110174 1_555
Co4 O31 2.202859 1_555
Co4 O19 2.202859 1_555
Co5 O22 2.054063 1_554
Co5 O26 2.054063 1_455
Co5 O10 2.110166 1_554
Co5 O15 2.110166 1_555
Co5 O25 2.202859 1_555
Co5 O20 2.202859 1_454
Co6 O25 2.054068 1_555
Co6 O23 2.054068 1_565
Co6 O13 2.110161 1_565
Co6 O8 2.110166 1_555
Co6 O27 2.202853 1_554
Co6 O22 2.202853 1_554
Co7 O30 2.054063 1_455
Co7 O17 2.054063 1_555
Co7 O2 2.110166 1_555
Co7 O7 2.110166 1_455
Co7 O28 2.202859 1_555
Co7 O18 2.202859 1_555
O0 V4 1.732096 1_565
O1 V1 1.732102 1_555
O2 V3 1.732096 1_555
O3 V2 1.732095 1_555
O4 V1 1.732095 1_555
O5 V2 1.732102 1_555
O6 V3 1.732096 1_555
O7 V4 1.732096 1_555
O8 V7 1.732096 1_555
O9 V5 1.732102 1_555
O10 V6 1.732096 1_455
O11 V0 1.732095 1_555
O12 V5 1.732095 1_555
O13 V0 1.732102 1_555
O14 V6 1.732096 1_555
O15 V7 1.732096 1_555
O16 V5 1.775216 1_565
O17 V7 1.775221 1_555
O18 V0 1.775212 1_555
O19 V6 1.775212 1_565
O20 V1 1.775212 1_555
O21 V2 1.775216 1_555
O22 V3 1.775221 1_555
O23 V4 1.775212 1_555
O24 V3 1.775212 1_555
O25 V2 1.775212 1_455
O26 V4 1.775221 1_555
O27 V1 1.775216 1_455
O28 V5 1.775212 1_555
O29 V0 1.775216 1_555
O30 V6 1.775221 1_555
O31 V7 1.775212 1_555
