# generated using pymatgen
data_GeTe
_symmetry_space_group_name_H-M   'P 1'
_cell_length_a   9.90723373
_cell_length_b   9.90723373
_cell_length_c   5.94973425
_cell_angle_alpha   77.45903181
_cell_angle_beta   77.45903181
_cell_angle_gamma   84.97400612
_symmetry_Int_Tables_number   1
_chemical_formula_structural   GeTe
_chemical_formula_sum   'Ge1 Te1'
_cell_volume   555.94987574
_cell_formula_units_Z   1
loop_
 _symmetry_equiv_pos_site_id
 _symmetry_equiv_pos_as_xyz
  1  'x, y, z'
loop_
 _atom_site_type_symbol
 _atom_site_label
 _atom_site_symmetry_multiplicity
 _atom_site_fract_x
 _atom_site_fract_y
 _atom_site_fract_z
 _atom_site_occupancy
  Ge  Ge0  1  0.00631600  0.00631600  0.97215100  1
  Te  Te0  1  0.95168400  0.95168400  0.63284900  1
loop_
_geom_bond_atom_site_label_1
_geom_bond_atom_site_label_2
_geom_bond_distance
_geom_bond_site_symmetry_2
Ge0 Te0 2.379421 1_445
