# generated using pymatgen
data_V3(SbCl12)2
_symmetry_space_group_name_H-M   'P 1'
_cell_length_a   15.26707800
_cell_length_b   15.26707800
_cell_length_c   15.50685600
_cell_angle_alpha   90.00000000
_cell_angle_beta   90.00000000
_cell_angle_gamma   90.00000000
_symmetry_Int_Tables_number   1
_chemical_formula_structural   V3(SbCl12)2
_chemical_formula_sum   'V12 Sb8 Cl96'
_cell_volume   3614.39491685
_cell_formula_units_Z   4
loop_
 _symmetry_equiv_pos_site_id
 _symmetry_equiv_pos_as_xyz
  1  'x, y, z'
loop_
 _atom_site_type_symbol
 _atom_site_label
 _atom_site_symmetry_multiplicity
 _atom_site_fract_x
 _atom_site_fract_y
 _atom_site_fract_z
 _atom_site_occupancy
  V  V0  1  0.50000000  0.50000000  0.75000000  1
  V  V1  1  0.50000000  0.50000000  0.25000000  1
  V  V2  1  0.00000000  0.00000000  0.75000000  1
  V  V3  1  0.00000000  0.00000000  0.25000000  1
  V  V4  1  0.62962200  0.12962200  0.25000000  1
  V  V5  1  0.12962200  0.37037800  0.75000000  1
  V  V6  1  0.87037800  0.62962200  0.25000000  1
  V  V7  1  0.62962200  0.12962200  0.75000000  1
  V  V8  1  0.12962200  0.37037800  0.25000000  1
  V  V9  1  0.87037800  0.62962200  0.75000000  1
  V  V10  1  0.37037800  0.87037800  0.75000000  1
  V  V11  1  0.37037800  0.87037800  0.25000000  1
  Sb  Sb0  1  0.37638500  0.24054800  0.00000000  1
  Sb  Sb1  1  0.24054800  0.62361500  0.50000000  1
  Sb  Sb2  1  0.12361500  0.74054800  0.00000000  1
  Sb  Sb3  1  0.74054800  0.87638500  0.50000000  1
  Sb  Sb4  1  0.62361500  0.75945200  0.00000000  1
  Sb  Sb5  1  0.75945200  0.37638500  0.50000000  1
  Sb  Sb6  1  0.87638500  0.25945200  0.00000000  1
  Sb  Sb7  1  0.25945200  0.12361500  0.50000000  1
  Cl  Cl0  1  0.62944600  0.01796200  0.17093000  1
  Cl  Cl1  1  0.01796200  0.37055400  0.67093000  1
  Cl  Cl2  1  0.87055400  0.51796200  0.17093000  1
  Cl  Cl3  1  0.51796200  0.12944600  0.67093000  1
  Cl  Cl4  1  0.62944600  0.01796200  0.82907000  1
  Cl  Cl5  1  0.01796200  0.37055400  0.32907000  1
  Cl  Cl6  1  0.87055400  0.51796200  0.82907000  1
  Cl  Cl7  1  0.51796200  0.12944600  0.32907000  1
  Cl  Cl8  1  0.37055400  0.98203800  0.82907000  1
  Cl  Cl9  1  0.98203800  0.62944600  0.32907000  1
  Cl  Cl10  1  0.12944600  0.48203800  0.82907000  1
  Cl  Cl11  1  0.48203800  0.87055400  0.32907000  1
  Cl  Cl12  1  0.37055400  0.98203800  0.17093000  1
  Cl  Cl13  1  0.98203800  0.62944600  0.67093000  1
  Cl  Cl14  1  0.12944600  0.48203800  0.17093000  1
  Cl  Cl15  1  0.48203800  0.87055400  0.67093000  1
  Cl  Cl16  1  0.62948600  0.24239700  0.17291400  1
  Cl  Cl17  1  0.24239700  0.37051400  0.67291400  1
  Cl  Cl18  1  0.87051400  0.74239700  0.17291400  1
  Cl  Cl19  1  0.74239700  0.12948600  0.67291400  1
  Cl  Cl20  1  0.62948600  0.24239700  0.82708600  1
  Cl  Cl21  1  0.24239700  0.37051400  0.32708600  1
  Cl  Cl22  1  0.87051400  0.74239700  0.82708600  1
  Cl  Cl23  1  0.74239700  0.12948600  0.32708600  1
  Cl  Cl24  1  0.37051400  0.75760300  0.82708600  1
  Cl  Cl25  1  0.75760300  0.62948600  0.32708600  1
  Cl  Cl26  1  0.12948600  0.25760300  0.82708600  1
  Cl  Cl27  1  0.25760300  0.87051400  0.32708600  1
  Cl  Cl28  1  0.37051400  0.75760300  0.17291400  1
  Cl  Cl29  1  0.75760300  0.62948600  0.67291400  1
  Cl  Cl30  1  0.12948600  0.25760300  0.17291400  1
  Cl  Cl31  1  0.25760300  0.87051400  0.67291400  1
  Cl  Cl32  1  0.38790300  0.50801100  0.82880100  1
  Cl  Cl33  1  0.50801100  0.61209700  0.32880100  1
  Cl  Cl34  1  0.11209700  0.00801100  0.82880100  1
  Cl  Cl35  1  0.00801100  0.88790300  0.32880100  1
  Cl  Cl36  1  0.38790300  0.50801100  0.17119900  1
  Cl  Cl37  1  0.50801100  0.61209700  0.67119900  1
  Cl  Cl38  1  0.11209700  0.00801100  0.17119900  1
  Cl  Cl39  1  0.00801100  0.88790300  0.67119900  1
  Cl  Cl40  1  0.61209700  0.49198900  0.17119900  1
  Cl  Cl41  1  0.49198900  0.38790300  0.67119900  1
  Cl  Cl42  1  0.88790300  0.99198900  0.17119900  1
  Cl  Cl43  1  0.99198900  0.11209700  0.67119900  1
  Cl  Cl44  1  0.61209700  0.49198900  0.82880100  1
  Cl  Cl45  1  0.49198900  0.38790300  0.32880100  1
  Cl  Cl46  1  0.88790300  0.99198900  0.82880100  1
  Cl  Cl47  1  0.99198900  0.11209700  0.32880100  1
  Cl  Cl48  1  0.25991000  0.13282300  0.00000000  1
  Cl  Cl49  1  0.13282300  0.74009000  0.50000000  1
  Cl  Cl50  1  0.24009000  0.63282300  0.00000000  1
  Cl  Cl51  1  0.63282300  0.75991000  0.50000000  1
  Cl  Cl52  1  0.74009000  0.86717700  0.00000000  1
  Cl  Cl53  1  0.86717700  0.25991000  0.50000000  1
  Cl  Cl54  1  0.75991000  0.36717700  0.00000000  1
  Cl  Cl55  1  0.36717700  0.24009000  0.50000000  1
  Cl  Cl56  1  0.49290500  0.34798700  0.00000000  1
  Cl  Cl57  1  0.34798700  0.50709500  0.50000000  1
  Cl  Cl58  1  0.00709500  0.84798700  0.00000000  1
  Cl  Cl59  1  0.84798700  0.99290500  0.50000000  1
  Cl  Cl60  1  0.50709500  0.65201300  0.00000000  1
  Cl  Cl61  1  0.65201300  0.49290500  0.50000000  1
  Cl  Cl62  1  0.99290500  0.15201300  0.00000000  1
  Cl  Cl63  1  0.15201300  0.00709500  0.50000000  1
  Cl  Cl64  1  0.27051600  0.35766700  0.00000000  1
  Cl  Cl65  1  0.35766700  0.72948400  0.50000000  1
  Cl  Cl66  1  0.22948400  0.85766700  0.00000000  1
  Cl  Cl67  1  0.85766700  0.77051600  0.50000000  1
  Cl  Cl68  1  0.72948400  0.64233300  0.00000000  1
  Cl  Cl69  1  0.64233300  0.27051600  0.50000000  1
  Cl  Cl70  1  0.77051600  0.14233300  0.00000000  1
  Cl  Cl71  1  0.14233300  0.22948400  0.50000000  1
  Cl  Cl72  1  0.48306600  0.12412100  0.00000000  1
  Cl  Cl73  1  0.12412100  0.51693400  0.50000000  1
  Cl  Cl74  1  0.01693400  0.62412100  0.00000000  1
  Cl  Cl75  1  0.62412100  0.98306600  0.50000000  1
  Cl  Cl76  1  0.51693400  0.87587900  0.00000000  1
  Cl  Cl77  1  0.87587900  0.48306600  0.50000000  1
  Cl  Cl78  1  0.98306600  0.37587900  0.00000000  1
  Cl  Cl79  1  0.37587900  0.01693400  0.50000000  1
  Cl  Cl80  1  0.37626500  0.23985600  0.15577300  1
  Cl  Cl81  1  0.23985600  0.62373500  0.65577300  1
  Cl  Cl82  1  0.12373500  0.73985600  0.15577300  1
  Cl  Cl83  1  0.73985600  0.87626500  0.65577300  1
  Cl  Cl84  1  0.37626500  0.23985600  0.84422700  1
  Cl  Cl85  1  0.23985600  0.62373500  0.34422700  1
  Cl  Cl86  1  0.12373500  0.73985600  0.84422700  1
  Cl  Cl87  1  0.73985600  0.87626500  0.34422700  1
  Cl  Cl88  1  0.62373500  0.76014400  0.84422700  1
  Cl  Cl89  1  0.76014400  0.37626500  0.34422700  1
  Cl  Cl90  1  0.87626500  0.26014400  0.84422700  1
  Cl  Cl91  1  0.26014400  0.12373500  0.34422700  1
  Cl  Cl92  1  0.62373500  0.76014400  0.15577300  1
  Cl  Cl93  1  0.76014400  0.37626500  0.65577300  1
  Cl  Cl94  1  0.87626500  0.26014400  0.15577300  1
  Cl  Cl95  1  0.26014400  0.12373500  0.65577300  1
loop_
_geom_bond_atom_site_label_1
_geom_bond_atom_site_label_2
_geom_bond_distance
_geom_bond_site_symmetry_2
Cl0 V4 2.099874 1_555
Cl1 V5 2.099874 1_555
Cl2 V6 2.099874 1_555
Cl3 V7 2.099874 1_555
Cl4 V7 2.099874 1_555
Cl5 V8 2.099874 1_555
Cl6 V9 2.099874 1_555
Cl7 V4 2.099874 1_555
Cl8 V10 2.099874 1_555
Cl9 V6 2.099874 1_555
Cl10 V5 2.099874 1_555
Cl11 V11 2.099874 1_555
Cl12 V11 2.099874 1_555
Cl13 V9 2.099874 1_555
Cl14 V8 2.099874 1_555
Cl15 V10 2.099874 1_555
Cl16 V4 2.096020 1_555
Cl17 V5 2.096020 1_555
Cl18 V6 2.096020 1_555
Cl19 V7 2.096020 1_555
Cl20 V7 2.096020 1_555
Cl21 V8 2.096020 1_555
Cl22 V9 2.096020 1_555
Cl23 V4 2.096020 1_555
Cl24 V10 2.096020 1_555
Cl25 V6 2.096020 1_555
Cl26 V5 2.096020 1_555
Cl27 V11 2.096020 1_555
Cl28 V11 2.096020 1_555
Cl29 V9 2.096020 1_555
Cl30 V8 2.096020 1_555
Cl31 V10 2.096020 1_555
Cl32 V0 2.106419 1_555
Cl33 V1 2.106419 1_555
Cl34 V2 2.106419 1_555
Cl35 V3 2.106419 1_565
Cl36 V1 2.106419 1_555
Cl37 V0 2.106419 1_555
Cl38 V3 2.106419 1_555
Cl39 V2 2.106419 1_565
Cl40 V1 2.106419 1_555
Cl41 V0 2.106419 1_555
Cl42 V3 2.106419 1_665
Cl43 V2 2.106419 1_655
Cl44 V0 2.106419 1_555
Cl45 V1 2.106419 1_555
Cl46 V2 2.106419 1_665
Cl47 V3 2.106419 1_655
Cl48 Sb0 2.422183 1_555
Cl49 Sb1 2.422183 1_555
Cl50 Sb2 2.422183 1_555
Cl51 Sb3 2.422183 1_555
Cl52 Sb4 2.422183 1_555
Cl53 Sb5 2.422183 1_555
Cl54 Sb6 2.422183 1_555
Cl55 Sb7 2.422183 1_555
Cl56 Sb0 2.419726 1_555
Cl57 Sb1 2.419726 1_555
Cl58 Sb2 2.419726 1_555
Cl59 Sb3 2.419726 1_555
Cl60 Sb4 2.419726 1_555
Cl61 Sb5 2.419726 1_555
Cl62 Sb6 2.419726 1_555
Cl63 Sb7 2.419726 1_555
Cl64 Sb0 2.410318 1_555
Cl65 Sb1 2.410318 1_555
Cl66 Sb2 2.410318 1_555
Cl67 Sb3 2.410318 1_555
Cl68 Sb4 2.410318 1_555
Cl69 Sb5 2.410318 1_555
Cl70 Sb6 2.410318 1_555
Cl71 Sb7 2.410318 1_555
Cl72 Sb0 2.410849 1_555
Cl73 Sb1 2.410849 1_555
Cl74 Sb2 2.410849 1_555
Cl75 Sb3 2.410849 1_555
Cl76 Sb4 2.410849 1_555
Cl77 Sb5 2.410849 1_555
Cl78 Sb6 2.410849 1_555
Cl79 Sb7 2.410849 1_555
Cl80 Sb0 2.415573 1_555
Cl81 Sb1 2.415573 1_555
Cl82 Sb2 2.415573 1_555
Cl83 Sb3 2.415573 1_555
Cl84 Sb0 2.415573 1_556
Cl85 Sb1 2.415573 1_555
Cl86 Sb2 2.415573 1_556
Cl87 Sb3 2.415573 1_555
Cl88 Sb4 2.415573 1_556
Cl89 Sb5 2.415573 1_555
Cl90 Sb6 2.415573 1_556
Cl91 Sb7 2.415573 1_555
Cl92 Sb4 2.415573 1_555
Cl93 Sb5 2.415573 1_555
Cl94 Sb6 2.415573 1_555
Cl95 Sb7 2.415573 1_555
