# generated using pymatgen
data_Eu2FeSnO6
_symmetry_space_group_name_H-M   'P 1'
_cell_length_a   8.07368984
_cell_length_b   8.07368984
_cell_length_c   8.07368984
_cell_angle_alpha   90.00000000
_cell_angle_beta   90.00000000
_cell_angle_gamma   90.00000000
_symmetry_Int_Tables_number   1
_chemical_formula_structural   Eu2FeSnO6
_chemical_formula_sum   'Eu8 Fe4 Sn4 O24'
_cell_volume   526.27917405
_cell_formula_units_Z   4
loop_
 _symmetry_equiv_pos_site_id
 _symmetry_equiv_pos_as_xyz
  1  'x, y, z'
loop_
 _atom_site_type_symbol
 _atom_site_label
 _atom_site_symmetry_multiplicity
 _atom_site_fract_x
 _atom_site_fract_y
 _atom_site_fract_z
 _atom_site_occupancy
  Eu  Eu0  1  0.50000000  0.50000000  0.50000000  1
  Eu  Eu1  1  0.00000000  -0.00000000  -0.00000000  1
  Eu  Eu2  1  0.00000000  -0.00000000  0.50000000  1
  Eu  Eu3  1  0.00000000  0.50000000  -0.00000000  1
  Eu  Eu4  1  0.50000000  -0.00000000  -0.00000000  1
  Eu  Eu5  1  0.50000000  0.50000000  -0.00000000  1
  Eu  Eu6  1  0.50000000  -0.00000000  0.50000000  1
  Eu  Eu7  1  0.00000000  0.50000000  0.50000000  1
  Fe  Fe0  1  0.75000000  0.75000000  0.75000000  1
  Fe  Fe1  1  0.75000000  0.25000000  0.25000000  1
  Fe  Fe2  1  0.25000000  0.75000000  0.25000000  1
  Fe  Fe3  1  0.25000000  0.25000000  0.75000000  1
  Sn  Sn0  1  0.25000000  0.25000000  0.25000000  1
  Sn  Sn1  1  0.25000000  0.75000000  0.75000000  1
  Sn  Sn2  1  0.75000000  0.25000000  0.75000000  1
  Sn  Sn3  1  0.75000000  0.75000000  0.25000000  1
  O  O0  1  0.21508488  0.29028044  0.50348415  1
  O  O1  1  0.21508488  0.70971956  0.49651585  1
  O  O2  1  0.78491512  0.29028044  0.49651585  1
  O  O3  1  0.78491512  0.70971956  0.50348415  1
  O  O4  1  0.29028044  0.50348415  0.21508488  1
  O  O5  1  0.70971956  0.49651585  0.21508488  1
  O  O6  1  0.29028044  0.49651585  0.78491512  1
  O  O7  1  0.70971956  0.50348415  0.78491512  1
  O  O8  1  0.50348415  0.21508488  0.29028044  1
  O  O9  1  0.49651585  0.21508488  0.70971956  1
  O  O10  1  0.49651585  0.78491512  0.29028044  1
  O  O11  1  0.50348415  0.78491512  0.70971956  1
  O  O12  1  0.28491512  0.20971956  0.99651585  1
  O  O13  1  0.28491512  0.79028044  0.00348415  1
  O  O14  1  0.71508488  0.20971956  0.00348415  1
  O  O15  1  0.71508488  0.79028044  0.99651585  1
  O  O16  1  0.20971956  0.99651585  0.28491512  1
  O  O17  1  0.79028044  0.00348415  0.28491512  1
  O  O18  1  0.20971956  0.00348415  0.71508488  1
  O  O19  1  0.79028044  0.99651585  0.71508488  1
  O  O20  1  0.99651585  0.28491512  0.20971956  1
  O  O21  1  0.00348415  0.28491512  0.79028044  1
  O  O22  1  0.00348415  0.71508488  0.20971956  1
  O  O23  1  0.99651585  0.71508488  0.79028044  1
loop_
_geom_bond_atom_site_label_1
_geom_bond_atom_site_label_2
_geom_bond_distance
_geom_bond_site_symmetry_2
Eu0 O11 2.856433 1_555
Eu0 O6 2.856433 1_555
Eu0 O8 2.856433 1_555
Eu0 O7 2.856433 1_555
Eu0 O5 2.856433 1_555
Eu0 O9 2.856433 1_555
Eu0 O10 2.856433 1_555
Eu0 O0 2.856433 1_555
Eu0 O2 2.856433 1_555
Eu0 O3 2.856433 1_555
Eu0 O4 2.856433 1_555
Eu0 O1 2.856433 1_555
Eu1 O22 2.856433 1_545
Eu1 O23 2.856433 1_444
Eu1 O18 2.856433 1_554
Eu1 O12 2.856433 1_554
Eu1 O15 2.856433 1_444
Eu1 O19 2.856433 1_444
Eu1 O20 2.856433 1_455
Eu1 O14 2.856433 1_455
Eu1 O17 2.856433 1_455
Eu1 O16 2.856433 1_545
Eu1 O21 2.856433 1_554
Eu1 O13 2.856433 1_545
Eu2 O16 2.425548 1_545
Eu2 O17 2.425548 1_455
Eu2 O18 2.425548 1_555
Eu2 O19 2.425548 1_445
Eu3 O20 2.425548 1_455
Eu3 O21 2.425548 1_554
Eu3 O22 2.425548 1_555
Eu3 O23 2.425548 1_454
Eu4 O12 2.425548 1_554
Eu4 O13 2.425548 1_545
Eu4 O14 2.425548 1_555
Eu4 O15 2.425548 1_544
Eu5 O4 2.425548 1_555
Eu5 O6 2.425548 1_554
Eu5 O5 2.425548 1_555
Eu5 O7 2.425548 1_554
Eu6 O8 2.425548 1_555
Eu6 O10 2.425548 1_545
Eu6 O9 2.425548 1_555
Eu6 O11 2.425548 1_545
Eu7 O0 2.425548 1_555
Eu7 O2 2.425548 1_455
Eu7 O1 2.425548 1_555
Eu7 O3 2.425548 1_455
Fe0 O11 2.036293 1_555
Fe0 O23 2.036293 1_555
Fe0 O15 2.036293 1_555
Fe0 O7 2.036293 1_555
Fe0 O19 2.036293 1_555
Fe0 O3 2.036293 1_555
Fe1 O20 2.036293 1_555
Fe1 O17 2.036293 1_555
Fe1 O8 2.036293 1_555
Fe1 O5 2.036293 1_555
Fe1 O14 2.036293 1_555
Fe1 O2 2.036293 1_555
Fe2 O16 2.036293 1_555
Fe2 O13 2.036293 1_555
Fe2 O22 2.036293 1_555
Fe2 O4 2.036293 1_555
Fe2 O10 2.036293 1_555
Fe2 O1 2.036293 1_555
Fe3 O12 2.036293 1_555
Fe3 O0 2.036293 1_555
Fe3 O9 2.036293 1_555
Fe3 O18 2.036293 1_555
Fe3 O21 2.036293 1_555
Fe3 O6 2.036293 1_555
O0 Sn0 2.091316 1_555
O1 Sn1 2.091316 1_555
O2 Sn2 2.091316 1_555
O3 Sn3 2.091316 1_555
O4 Sn0 2.091316 1_555
O5 Sn3 2.091316 1_555
O6 Sn1 2.091316 1_555
O7 Sn2 2.091316 1_555
O8 Sn0 2.091316 1_555
O9 Sn2 2.091316 1_555
O10 Sn3 2.091316 1_555
O11 Sn1 2.091316 1_555
O12 Sn0 2.091316 1_556
O13 Sn1 2.091316 1_554
O14 Sn2 2.091316 1_554
O15 Sn3 2.091316 1_556
O16 Sn0 2.091316 1_565
O17 Sn3 2.091316 1_545
O18 Sn1 2.091316 1_545
O19 Sn2 2.091316 1_565
O20 Sn0 2.091316 1_655
O21 Sn2 2.091316 1_455
O22 Sn3 2.091316 1_455
O23 Sn1 2.091316 1_655
