# generated using pymatgen
data_K2CeBr5
_symmetry_space_group_name_H-M   'P 1'
_cell_length_a   8.47392046
_cell_length_b   9.25345608
_cell_length_c   13.38552417
_cell_angle_alpha   90.00000000
_cell_angle_beta   90.00000000
_cell_angle_gamma   90.00000000
_symmetry_Int_Tables_number   1
_chemical_formula_structural   K2CeBr5
_chemical_formula_sum   'K8 Ce4 Br20'
_cell_volume   1049.59978675
_cell_formula_units_Z   4
loop_
 _symmetry_equiv_pos_site_id
 _symmetry_equiv_pos_as_xyz
  1  'x, y, z'
loop_
 _atom_site_type_symbol
 _atom_site_label
 _atom_site_symmetry_multiplicity
 _atom_site_fract_x
 _atom_site_fract_y
 _atom_site_fract_z
 _atom_site_occupancy
  K  K0  1  0.94741262  0.00408997  0.82764738  1
  K  K1  1  0.05258738  0.99591003  0.17235262  1
  K  K2  1  0.44741262  0.99591003  0.67235262  1
  K  K3  1  0.05258738  0.50408997  0.17235262  1
  K  K4  1  0.55258738  0.00408997  0.32764738  1
  K  K5  1  0.94741262  0.49591003  0.82764738  1
  K  K6  1  0.55258738  0.49591003  0.32764738  1
  K  K7  1  0.44741262  0.50408997  0.67235262  1
  Ce  Ce0  1  0.92082986  0.75000000  0.50666449  1
  Ce  Ce1  1  0.07917014  0.25000000  0.49333551  1
  Ce  Ce2  1  0.42082986  0.25000000  0.99333551  1
  Ce  Ce3  1  0.57917014  0.75000000  0.00666449  1
  Br  Br0  1  0.12980702  0.75000000  0.68298710  1
  Br  Br1  1  0.87019298  0.25000000  0.31701290  1
  Br  Br2  1  0.62980702  0.25000000  0.81701290  1
  Br  Br3  1  0.37019298  0.75000000  0.18298710  1
  Br  Br4  1  0.83169061  0.04495298  0.57899537  1
  Br  Br5  1  0.16830939  0.95504702  0.42100463  1
  Br  Br6  1  0.33169061  0.95504702  0.92100463  1
  Br  Br7  1  0.16830939  0.54495298  0.42100463  1
  Br  Br8  1  0.66830939  0.04495298  0.07899537  1
  Br  Br9  1  0.83169061  0.45504702  0.57899537  1
  Br  Br10  1  0.66830939  0.45504702  0.07899537  1
  Br  Br11  1  0.33169061  0.54495298  0.92100463  1
  Br  Br12  1  0.56729598  0.75000000  0.50745487  1
  Br  Br13  1  0.43270402  0.25000000  0.49254513  1
  Br  Br14  1  0.06729598  0.25000000  0.99254513  1
  Br  Br15  1  0.93270402  0.75000000  0.00745487  1
  Br  Br16  1  0.66676980  0.75000000  0.79195501  1
  Br  Br17  1  0.33323020  0.25000000  0.20804499  1
  Br  Br18  1  0.16676980  0.25000000  0.70804499  1
  Br  Br19  1  0.83323020  0.75000000  0.29195501  1
loop_
_geom_bond_atom_site_label_1
_geom_bond_atom_site_label_2
_geom_bond_distance
_geom_bond_site_symmetry_2
Br0 Ce0 2.950650 1_455
Br0 K5 3.415629 1_455
Br0 K0 3.415629 1_465
Br0 K7 3.527278 1_555
Br0 K2 3.527278 1_555
Br1 Ce1 2.950650 1_655
Br1 K1 3.415629 1_645
Br1 K3 3.415629 1_655
Br1 K4 3.527278 1_555
Br1 K6 3.527278 1_555
Br2 Ce2 2.950650 1_555
Br2 K2 3.415629 1_545
Br2 K7 3.415629 1_555
Br2 K5 3.527278 1_555
Br2 K0 3.527278 1_555
Br3 Ce3 2.950650 1_555
Br3 K6 3.415629 1_555
Br3 K4 3.415629 1_565
Br3 K1 3.527278 1_555
Br3 K3 3.527278 1_555
Br4 Ce0 2.992861 1_545
Br4 Ce1 3.051675 1_655
Br4 K0 3.490333 1_555
Br4 K2 3.517285 1_545
Br5 Ce1 2.992861 1_565
Br5 Ce0 3.051675 1_455
Br5 K1 3.490333 1_555
Br5 K4 3.517285 1_565
Br6 Ce2 2.992861 1_565
Br6 Ce3 3.051675 1_556
Br6 K2 3.490333 1_555
Br6 K0 3.517285 1_465
Br7 Ce1 2.992861 1_555
Br7 Ce0 3.051675 1_455
Br7 K3 3.490333 1_555
Br7 K6 3.517285 1_555
Br8 Ce3 2.992861 1_545
Br8 Ce2 3.051675 1_554
Br8 K4 3.490333 1_555
Br8 K1 3.517285 1_645
Br9 Ce0 2.992861 1_555
Br9 Ce1 3.051675 1_655
Br9 K5 3.490333 1_555
Br9 K7 3.517285 1_555
Br10 Ce3 2.992861 1_555
Br10 Ce2 3.051675 1_554
Br10 K6 3.490333 1_555
Br10 K3 3.517285 1_655
Br11 Ce2 2.992861 1_555
Br11 Ce3 3.051675 1_556
Br11 K7 3.490333 1_555
Br11 K5 3.517285 1_455
Br12 Ce0 2.995837 1_555
Br12 K7 3.328951 1_555
Br12 K2 3.328951 1_555
Br12 K6 3.366971 1_555
Br12 K4 3.366971 1_565
Br13 Ce1 2.995837 1_555
Br13 K6 3.328951 1_555
Br13 K4 3.328951 1_555
Br13 K7 3.366971 1_555
Br13 K2 3.366971 1_545
Br14 Ce2 2.995837 1_555
Br14 K5 3.328951 1_455
Br14 K0 3.328951 1_455
Br14 K3 3.366971 1_556
Br14 K1 3.366971 1_546
Br15 Ce3 2.995837 1_555
Br15 K3 3.328951 1_655
Br15 K1 3.328951 1_655
Br15 K5 3.366971 1_554
Br15 K0 3.366971 1_564
Br16 Ce3 2.968316 1_556
Br16 K7 3.346070 1_555
Br16 K2 3.346070 1_555
Br16 K5 3.378168 1_555
Br16 K0 3.378168 1_565
Br17 Ce2 2.968316 1_554
Br17 K4 3.346070 1_555
Br17 K6 3.346070 1_555
Br17 K1 3.378168 1_545
Br17 K3 3.378168 1_555
Br18 Ce1 2.968316 1_555
Br18 K0 3.346070 1_455
Br18 K5 3.346070 1_455
Br18 K2 3.378168 1_545
Br18 K7 3.378168 1_555
Br19 Ce0 2.968316 1_555
Br19 K3 3.346070 1_655
Br19 K1 3.346070 1_655
Br19 K6 3.378168 1_555
Br19 K4 3.378168 1_565
