# generated using pymatgen
data_Cs7LiAu5O2
_symmetry_space_group_name_H-M   'P 1'
_cell_length_a   6.42074560
_cell_length_b   10.13251171
_cell_length_c   10.56184382
_cell_angle_alpha   118.66420094
_cell_angle_beta   107.69557664
_cell_angle_gamma   90.00000125
_symmetry_Int_Tables_number   1
_chemical_formula_structural   Cs7LiAu5O2
_chemical_formula_sum   'Cs7 Li1 Au5 O2'
_cell_volume   565.59222555
_cell_formula_units_Z   1
loop_
 _symmetry_equiv_pos_site_id
 _symmetry_equiv_pos_as_xyz
  1  'x, y, z'
loop_
 _atom_site_type_symbol
 _atom_site_label
 _atom_site_symmetry_multiplicity
 _atom_site_fract_x
 _atom_site_fract_y
 _atom_site_fract_z
 _atom_site_occupancy
  Cs  Cs0  1  0.83050300  0.61573600  0.66433600  1
  Cs  Cs1  1  0.49661100  0.81520200  0.00000000  1
  Cs  Cs2  1  0.83050300  0.04860100  0.66433600  1
  Cs  Cs3  1  0.16616600  0.38426400  0.33566400  1
  Cs  Cs4  1  0.16616600  0.95139900  0.33566400  1
  Cs  Cs5  1  0.49661100  0.18479800  0.00000000  1
  Cs  Cs6  1  0.03904000  0.50000000  0.00000000  1
  Li  Li0  1  0.54833400  0.50000000  0.00000000  1
  Au  Au0  1  0.64386600  0.63987600  0.27975300  1
  Au  Au1  1  0.31163200  0.81070000  0.62139900  1
  Au  Au2  1  0.99805300  0.00000000  0.00000000  1
  Au  Au3  1  0.36411300  0.36012400  0.72024700  1
  Au  Au4  1  0.69023100  0.18930000  0.37860100  1
  O  O0  1  0.00075100  0.79712900  0.00000000  1
  O  O1  1  0.00075100  0.20287100  0.00000000  1
loop_
_geom_bond_atom_site_label_1
_geom_bond_atom_site_label_2
_geom_bond_distance
_geom_bond_site_symmetry_2
Cs0 O0 2.921411 1_656
Cs1 O0 3.189053 1_555
Cs1 O0 3.242131 1_655
Cs2 O1 2.921412 1_656
Cs3 O1 2.921411 1_555
Cs4 O0 2.921412 1_555
Cs5 O1 3.189053 1_555
Cs5 O1 3.242131 1_655
Cs6 O1 3.020684 1_555
Cs6 O0 3.020684 1_555
Au0 Li0 2.448677 1_555
Au1 Cs5 3.786859 1_566
Au1 Cs1 3.786864 1_556
Au1 Cs4 3.798211 1_555
Au1 Cs3 3.798226 1_555
Au1 Cs2 3.892081 1_565
Au1 Cs0 3.892081 1_555
Au1 Cs0 3.919498 1_455
Au1 Cs2 3.919498 1_465
Au2 O1 2.055666 1_655
Au2 O0 2.055666 1_645
Au3 Li0 2.448677 1_556
Au4 Cs1 3.786858 1_545
Au4 Cs5 3.786864 1_555
Au4 Cs2 3.798211 1_555
Au4 Cs0 3.798226 1_555
Au4 Cs3 3.892086 1_655
Au4 Cs4 3.892086 1_645
Au4 Cs4 3.919492 1_545
Au4 Cs3 3.919493 1_555
