# generated using pymatgen
data_NaMg6Bi
_symmetry_space_group_name_H-M   'P 1'
_cell_length_a   5.20999600
_cell_length_b   6.64353000
_cell_length_c   11.42126800
_cell_angle_alpha   90.00000000
_cell_angle_beta   90.00000000
_cell_angle_gamma   90.00000000
_symmetry_Int_Tables_number   1
_chemical_formula_structural   NaMg6Bi
_chemical_formula_sum   'Na2 Mg12 Bi2'
_cell_volume   395.32166216
_cell_formula_units_Z   2
loop_
 _symmetry_equiv_pos_site_id
 _symmetry_equiv_pos_as_xyz
  1  'x, y, z'
loop_
 _atom_site_type_symbol
 _atom_site_label
 _atom_site_symmetry_multiplicity
 _atom_site_fract_x
 _atom_site_fract_y
 _atom_site_fract_z
 _atom_site_occupancy
  Na  Na0  1  0.00000000  0.50000000  0.33494600  1
  Na  Na1  1  0.00000000  0.00000000  0.83494600  1
  Mg  Mg0  1  0.00000000  0.24356200  0.07977100  1
  Mg  Mg1  1  0.00000000  0.75643800  0.07977100  1
  Mg  Mg2  1  0.00000000  0.50000000  0.83563900  1
  Mg  Mg3  1  0.50000000  0.25481500  0.91771000  1
  Mg  Mg4  1  0.50000000  0.74518500  0.91771000  1
  Mg  Mg5  1  0.50000000  0.50000000  0.66740300  1
  Mg  Mg6  1  0.00000000  0.74356200  0.57977100  1
  Mg  Mg7  1  0.00000000  0.25643800  0.57977100  1
  Mg  Mg8  1  0.00000000  0.00000000  0.33563900  1
  Mg  Mg9  1  0.50000000  0.75481500  0.41771000  1
  Mg  Mg10  1  0.50000000  0.24518500  0.41771000  1
  Mg  Mg11  1  0.50000000  0.00000000  0.16740300  1
  Bi  Bi0  1  0.50000000  0.50000000  0.16705000  1
  Bi  Bi1  1  0.50000000  0.00000000  0.66705000  1
loop_
_geom_bond_atom_site_label_1
_geom_bond_atom_site_label_2
_geom_bond_distance
_geom_bond_site_symmetry_2
Mg0 Mg3 3.196497 1_554
Mg0 Mg3 3.196497 1_454
Mg0 Mg11 3.225839 1_455
Mg0 Mg11 3.225839 1_555
Mg0 Na1 3.230648 1_554
Mg0 Mg1 3.236223 1_545
Mg0 Mg2 3.267573 1_554
Mg0 Mg8 3.340410 1_555
Mg0 Na0 3.375839 1_555
Mg0 Mg1 3.407307 1_555
Mg1 Mg4 3.196497 1_554
Mg1 Mg4 3.196497 1_454
Mg1 Mg11 3.225839 1_465
Mg1 Mg11 3.225839 1_565
Mg1 Na1 3.230648 1_564
Mg1 Mg2 3.267573 1_554
Mg1 Mg8 3.340410 1_565
Mg1 Na0 3.375839 1_555
Mg2 Mg3 3.212156 1_455
Mg2 Mg4 3.212156 1_455
Mg2 Mg3 3.212156 1_555
Mg2 Mg4 3.212156 1_555
Mg2 Mg5 3.236982 1_455
Mg2 Mg5 3.236982 1_555
Mg2 Na1 3.321774 1_555
Mg2 Na1 3.321774 1_565
Mg2 Mg6 3.340410 1_555
Mg2 Mg7 3.340410 1_555
Mg3 Na1 3.247362 1_555
Mg3 Na1 3.247362 1_655
Mg3 Mg4 3.257788 1_555
Mg3 Mg5 3.290314 1_555
Mg3 Mg4 3.385742 1_545
Mg4 Na1 3.247362 1_565
Mg4 Na1 3.247362 1_665
Mg4 Mg5 3.290314 1_555
Mg5 Mg6 3.225839 1_655
Mg5 Mg6 3.225839 1_555
Mg5 Mg7 3.225839 1_555
Mg5 Mg7 3.225839 1_655
Mg5 Mg9 3.316419 1_555
Mg6 Mg9 3.196497 1_455
Mg6 Mg9 3.196497 1_555
Mg6 Na0 3.230648 1_555
Mg6 Mg7 3.236223 1_555
Mg6 Mg8 3.267573 1_565
Mg6 Na1 3.375839 1_565
Mg6 Mg7 3.407307 1_565
Mg7 Na0 3.230648 1_555
Mg7 Mg8 3.267573 1_555
Mg7 Na1 3.375839 1_555
Mg8 Mg9 3.212156 1_445
Mg8 Mg9 3.212156 1_545
Mg8 Na0 3.321774 1_555
Mg8 Na0 3.321774 1_545
Mg9 Na0 3.247362 1_555
Mg9 Na0 3.247362 1_655
Mg10 Mg7 3.196497 1_655
Mg10 Mg7 3.196497 1_555
Mg10 Mg8 3.212156 1_555
Mg10 Mg8 3.212156 1_655
Mg10 Na0 3.247362 1_555
Mg10 Na0 3.247362 1_655
Mg10 Mg9 3.257788 1_545
Mg10 Mg11 3.290314 1_555
Mg10 Mg5 3.316419 1_555
Mg10 Mg9 3.385742 1_555
Mg11 Mg8 3.236982 1_655
Mg11 Mg8 3.236982 1_555
Mg11 Mg9 3.290314 1_545
Mg11 Mg4 3.316419 1_544
Mg11 Mg3 3.316419 1_554
Bi0 Na0 3.234679 1_555
Bi0 Na0 3.234679 1_655
Bi0 Mg0 3.268353 1_655
Bi0 Mg1 3.268353 1_555
Bi0 Mg1 3.268353 1_655
Bi0 Mg0 3.268353 1_555
Bi0 Mg3 3.280723 1_554
Bi0 Mg4 3.280723 1_554
Bi0 Mg11 3.321767 1_565
Bi0 Mg11 3.321767 1_555
Bi0 Mg9 3.325921 1_555
Bi0 Mg10 3.325921 1_555
Bi1 Na1 3.234679 1_555
Bi1 Na1 3.234679 1_655
Bi1 Mg7 3.268353 1_655
Bi1 Mg6 3.268353 1_545
Bi1 Mg6 3.268353 1_645
Bi1 Mg7 3.268353 1_555
Bi1 Mg9 3.280723 1_545
Bi1 Mg10 3.280723 1_555
Bi1 Mg5 3.321767 1_555
Bi1 Mg5 3.321767 1_545
Bi1 Mg3 3.325921 1_555
Bi1 Mg4 3.325921 1_545
