# generated using pymatgen
data_Na9Sc(MoO4)6
_symmetry_space_group_name_H-M   'P 1'
_cell_length_a   10.94931682
_cell_length_b   10.94931681
_cell_length_c   10.94931688
_cell_angle_alpha   88.46367630
_cell_angle_beta   88.46367630
_cell_angle_gamma   88.46367575
_symmetry_Int_Tables_number   1
_chemical_formula_structural   Na9Sc(MoO4)6
_chemical_formula_sum   'Na18 Sc2 Mo12 O48'
_cell_volume   1311.29584752
_cell_formula_units_Z   2
loop_
 _symmetry_equiv_pos_site_id
 _symmetry_equiv_pos_as_xyz
  1  'x, y, z'
loop_
 _atom_site_type_symbol
 _atom_site_label
 _atom_site_symmetry_multiplicity
 _atom_site_fract_x
 _atom_site_fract_y
 _atom_site_fract_z
 _atom_site_occupancy
  Na  Na0  1  0.52412107  0.97106270  0.74094455  1
  Na  Na1  1  0.97106270  0.74094455  0.52412107  1
  Na  Na2  1  0.74094455  0.52412107  0.97106270  1
  Na  Na3  1  0.47587893  0.02893730  0.25905545  1
  Na  Na4  1  0.02893730  0.25905545  0.47587893  1
  Na  Na5  1  0.25905545  0.47587893  0.02893730  1
  Na  Na6  1  0.73435262  0.17878658  0.93767333  1
  Na  Na7  1  0.17878658  0.93767333  0.73435262  1
  Na  Na8  1  0.93767333  0.73435262  0.17878658  1
  Na  Na9  1  0.26564738  0.82121342  0.06232667  1
  Na  Na10  1  0.82121342  0.06232667  0.26564738  1
  Na  Na11  1  0.06232667  0.26564738  0.82121342  1
  Na  Na12  1  0.32572224  0.79351061  0.53295816  1
  Na  Na13  1  0.79351061  0.53295816  0.32572224  1
  Na  Na14  1  0.53295816  0.32572224  0.79351061  1
  Na  Na15  1  0.67427776  0.20648939  0.46704184  1
  Na  Na16  1  0.20648939  0.46704184  0.67427776  1
  Na  Na17  1  0.46704184  0.67427776  0.20648939  1
  Sc  Sc0  1  0.74460347  0.74460347  0.74460347  1
  Sc  Sc1  1  0.25539653  0.25539653  0.25539653  1
  Mo  Mo0  1  0.63687842  0.83181895  0.44602385  1
  Mo  Mo1  1  0.83181895  0.44602385  0.63687842  1
  Mo  Mo2  1  0.44602385  0.63687842  0.83181895  1
  Mo  Mo3  1  0.36312158  0.16818105  0.55397615  1
  Mo  Mo4  1  0.16818105  0.55397615  0.36312158  1
  Mo  Mo5  1  0.55397615  0.36312158  0.16818105  1
  Mo  Mo6  1  0.34197386  0.12334927  0.96000729  1
  Mo  Mo7  1  0.12334927  0.96000729  0.34197386  1
  Mo  Mo8  1  0.96000729  0.34197386  0.12334927  1
  Mo  Mo9  1  0.65802614  0.87665073  0.03999271  1
  Mo  Mo10  1  0.87665073  0.03999271  0.65802614  1
  Mo  Mo11  1  0.03999271  0.65802614  0.87665073  1
  O  O0  1  0.76447291  0.74375679  0.39088105  1
  O  O1  1  0.74375679  0.39088105  0.76447291  1
  O  O2  1  0.39088105  0.76447291  0.74375679  1
  O  O3  1  0.23552709  0.25624321  0.60911895  1
  O  O4  1  0.25624321  0.60911895  0.23552709  1
  O  O5  1  0.60911895  0.23552709  0.25624321  1
  O  O6  1  0.49767159  0.77778259  0.38838280  1
  O  O7  1  0.77778259  0.38838280  0.49767159  1
  O  O8  1  0.38838280  0.49767159  0.77778259  1
  O  O9  1  0.50232841  0.22221741  0.61161720  1
  O  O10  1  0.22221741  0.61161720  0.50232841  1
  O  O11  1  0.61161720  0.50232841  0.22221741  1
  O  O12  1  0.64969643  0.98956477  0.39760937  1
  O  O13  1  0.98956477  0.39760937  0.64969643  1
  O  O14  1  0.39760937  0.64969643  0.98956477  1
  O  O15  1  0.35030357  0.01043523  0.60239063  1
  O  O16  1  0.01043523  0.60239063  0.35030357  1
  O  O17  1  0.60239063  0.35030357  0.01043523  1
  O  O18  1  0.62359961  0.81932803  0.61309569  1
  O  O19  1  0.81932803  0.61309569  0.62359961  1
  O  O20  1  0.61309569  0.62359961  0.81932803  1
  O  O21  1  0.37640039  0.18067197  0.38690431  1
  O  O22  1  0.18067197  0.38690431  0.37640039  1
  O  O23  1  0.38690431  0.37640039  0.18067197  1
  O  O24  1  0.26771600  0.25438411  0.89393403  1
  O  O25  1  0.25438411  0.89393403  0.26771600  1
  O  O26  1  0.89393403  0.26771600  0.25438411  1
  O  O27  1  0.73228400  0.74561589  0.10606597  1
  O  O28  1  0.74561589  0.10606597  0.73228400  1
  O  O29  1  0.10606597  0.73228400  0.74561589  1
  O  O30  1  0.26489724  0.98927135  0.91929456  1
  O  O31  1  0.98927135  0.91929456  0.26489724  1
  O  O32  1  0.91929456  0.26489724  0.98927135  1
  O  O33  1  0.73510276  0.01072865  0.08070544  1
  O  O34  1  0.01072865  0.08070544  0.73510276  1
  O  O35  1  0.08070544  0.73510276  0.01072865  1
  O  O36  1  0.49628046  0.11729624  0.90003781  1
  O  O37  1  0.11729624  0.90003781  0.49628046  1
  O  O38  1  0.90003781  0.49628046  0.11729624  1
  O  O39  1  0.50371954  0.88270376  0.09996219  1
  O  O40  1  0.88270376  0.09996219  0.50371954  1
  O  O41  1  0.09996219  0.50371954  0.88270376  1
  O  O42  1  0.33582118  0.13511812  0.12760526  1
  O  O43  1  0.13511812  0.12760526  0.33582118  1
  O  O44  1  0.12760526  0.33582118  0.13511812  1
  O  O45  1  0.66417882  0.86488188  0.87239474  1
  O  O46  1  0.86488188  0.87239474  0.66417882  1
  O  O47  1  0.87239474  0.66417882  0.86488188  1
loop_
_geom_bond_atom_site_label_1
_geom_bond_atom_site_label_2
_geom_bond_distance
_geom_bond_site_symmetry_2
Na0 O45 2.389136 1_555
Na0 O36 2.405406 1_565
Na0 O18 2.419120 1_555
Na0 O15 2.487009 1_565
Na0 O2 2.723386 1_555
Na0 O28 2.871952 1_565
Na1 O46 2.389136 1_555
Na1 O37 2.405406 1_655
Na1 O19 2.419120 1_555
Na1 O16 2.487009 1_655
Na1 O0 2.723386 1_555
Na1 O29 2.871952 1_655
Na2 O47 2.389136 1_555
Na2 O38 2.405406 1_556
Na2 O20 2.419120 1_555
Na2 O17 2.487009 1_556
Na2 O1 2.723386 1_555
Na2 O27 2.871952 1_556
Na3 O42 2.389136 1_555
Na3 O39 2.405406 1_545
Na3 O21 2.419120 1_555
Na3 O12 2.487009 1_545
Na3 O5 2.723386 1_555
Na3 O25 2.871952 1_545
Na4 O43 2.389136 1_555
Na4 O40 2.405406 1_455
Na4 O22 2.419120 1_555
Na4 O13 2.487009 1_455
Na4 O3 2.723386 1_555
Na4 O26 2.871952 1_455
Na5 O44 2.389136 1_555
Na5 O41 2.405406 1_554
Na5 O23 2.419120 1_555
Na5 O14 2.487009 1_554
Na5 O4 2.723386 1_555
Na5 O24 2.871952 1_554
Na6 O32 2.345425 1_555
Na6 O33 2.384144 1_556
Na6 O28 2.404687 1_555
Na6 O17 2.474328 1_556
Na6 O36 2.754038 1_555
Na6 O1 2.960788 1_555
Na7 O30 2.345425 1_555
Na7 O34 2.384144 1_565
Na7 O29 2.404687 1_555
Na7 O15 2.474328 1_565
Na7 O37 2.754038 1_555
Na7 O2 2.960788 1_555
Na8 O31 2.345425 1_555
Na8 O35 2.384144 1_655
Na8 O27 2.404687 1_555
Na8 O16 2.474328 1_655
Na8 O38 2.754038 1_555
Na8 O0 2.960788 1_555
Na9 O35 2.345425 1_555
Na9 O30 2.384144 1_554
Na9 O25 2.404687 1_555
Na9 O14 2.474328 1_554
Na9 O39 2.754038 1_555
Na9 O4 2.960788 1_555
Na10 O33 2.345425 1_555
Na10 O31 2.384144 1_545
Na10 O26 2.404687 1_555
Na10 O12 2.474328 1_545
Na10 O40 2.754038 1_555
Na10 O5 2.960788 1_555
Na11 O34 2.345425 1_555
Na11 O32 2.384144 1_455
Na11 O24 2.404687 1_555
Na11 O13 2.474328 1_455
Na11 O41 2.754038 1_555
Na11 O3 2.960788 1_555
Na12 O10 2.353846 1_555
Na12 O6 2.432619 1_555
Na12 O2 2.444219 1_555
Na12 O15 2.536521 1_565
Na12 O37 2.571214 1_555
Na13 O11 2.353846 1_555
Na13 O7 2.432619 1_555
Na13 O0 2.444219 1_555
Na13 O16 2.536521 1_655
Na13 O38 2.571214 1_555
Na14 O9 2.353846 1_555
Na14 O8 2.432619 1_555
Na14 O1 2.444219 1_555
Na14 O17 2.536521 1_556
Na14 O36 2.571214 1_555
Na15 O7 2.353846 1_555
Na15 O9 2.432619 1_555
Na15 O5 2.444219 1_555
Na15 O12 2.536521 1_545
Na15 O40 2.571214 1_555
Na16 O8 2.353846 1_555
Na16 O10 2.432619 1_555
Na16 O3 2.444219 1_555
Na16 O13 2.536521 1_455
Na16 O41 2.571214 1_555
Na17 O6 2.353846 1_555
Na17 O11 2.432619 1_555
Na17 O4 2.444219 1_555
Na17 O14 2.536521 1_554
Na17 O39 2.571214 1_555
Mo0 O0 1.777592 1_555
Mo0 O6 1.786504 1_555
Mo0 O12 1.801076 1_555
Mo0 O18 1.832936 1_555
Mo1 O1 1.777592 1_555
Mo1 O7 1.786504 1_555
Mo1 O13 1.801076 1_555
Mo1 O19 1.832936 1_555
Mo2 O2 1.777592 1_555
Mo2 O8 1.786504 1_555
Mo2 O14 1.801076 1_555
Mo2 O20 1.832936 1_555
Mo3 O3 1.777592 1_555
Mo3 O9 1.786504 1_555
Mo3 O15 1.801076 1_555
Mo3 O21 1.832936 1_555
Mo4 O4 1.777592 1_555
Mo4 O10 1.786504 1_555
Mo4 O16 1.801076 1_555
Mo4 O22 1.832936 1_555
Mo5 O5 1.777592 1_555
Mo5 O11 1.786504 1_555
Mo5 O17 1.801076 1_555
Mo5 O23 1.832936 1_555
Mo6 O24 1.776596 1_555
Mo6 O30 1.785455 1_545
Mo6 O36 1.796378 1_555
Mo6 O42 1.842352 1_556
Mo7 O25 1.776596 1_555
Mo7 O31 1.785455 1_455
Mo7 O37 1.796379 1_555
Mo7 O43 1.842352 1_565
Mo8 O26 1.776596 1_555
Mo8 O32 1.785455 1_554
Mo8 O38 1.796378 1_555
Mo8 O44 1.842352 1_655
Mo9 O27 1.776596 1_555
Mo9 O33 1.785455 1_565
Mo9 O39 1.796378 1_555
Mo9 O45 1.842352 1_554
Mo10 O28 1.776596 1_555
Mo10 O34 1.785455 1_655
Mo10 O40 1.796379 1_555
Mo10 O46 1.842352 1_545
Mo11 O29 1.776596 1_555
Mo11 O35 1.785455 1_556
Mo11 O41 1.796378 1_555
Mo11 O47 1.842352 1_455
O18 Sc0 2.116407 1_555
O19 Sc0 2.116407 1_555
O20 Sc0 2.116407 1_555
O21 Sc1 2.116407 1_555
O22 Sc1 2.116407 1_555
O23 Sc1 2.116407 1_555
O42 Sc1 2.106713 1_555
O43 Sc1 2.106713 1_555
O44 Sc1 2.106713 1_555
O45 Sc0 2.106713 1_555
O46 Sc0 2.106713 1_555
O47 Sc0 2.106713 1_555
