# generated using pymatgen
data_Li9Mn2Co5O16
_symmetry_space_group_name_H-M   'P 1'
_cell_length_a   2.97681300
_cell_length_b   10.11722990
_cell_length_c   10.28290576
_cell_angle_alpha   107.93223756
_cell_angle_beta   90.11709449
_cell_angle_gamma   90.09834132
_symmetry_Int_Tables_number   1
_chemical_formula_structural   Li9Mn2Co5O16
_chemical_formula_sum   'Li9 Mn2 Co5 O16'
_cell_volume   294.64540976
_cell_formula_units_Z   1
loop_
 _symmetry_equiv_pos_site_id
 _symmetry_equiv_pos_as_xyz
  1  'x, y, z'
loop_
 _atom_site_type_symbol
 _atom_site_label
 _atom_site_symmetry_multiplicity
 _atom_site_fract_x
 _atom_site_fract_y
 _atom_site_fract_z
 _atom_site_occupancy
  Li  Li0  1  0.98461500  0.25408600  0.24914300  1
  Li  Li1  1  0.49862400  0.50275200  0.76615900  1
  Li  Li2  1  0.00519100  0.73997300  0.23951100  1
  Li  Li3  1  0.50137600  0.49724800  0.23384100  1
  Li  Li4  1  0.01538500  0.74591400  0.75085700  1
  Li  Li5  1  0.50781400  0.99393800  0.24444200  1
  Li  Li6  1  0.49218600  0.00606200  0.75555800  1
  Li  Li7  1  0.99480900  0.26002700  0.76048900  1
  Li  Li8  1  0.00000000  0.50000000  0.00000000  1
  Mn  Mn0  1  0.00000000  0.00000000  0.00000000  1
  Mn  Mn1  1  0.00000000  0.00000000  0.50000000  1
  Co  Co0  1  0.49032600  0.25432000  0.49930400  1
  Co  Co1  1  0.50967400  0.74568000  0.50069600  1
  Co  Co2  1  0.00000000  0.50000000  0.50000000  1
  Co  Co3  1  0.50209700  0.73320500  0.00513600  1
  Co  Co4  1  0.49790300  0.26679500  0.99486400  1
  O  O0  1  0.49973000  0.10870400  0.10799900  1
  O  O1  1  0.99180100  0.37674600  0.61351800  1
  O  O2  1  0.50330300  0.63481400  0.12330500  1
  O  O3  1  0.99711500  0.36105800  0.11731600  1
  O  O4  1  0.50404100  0.62780800  0.61500200  1
  O  O5  1  0.00328100  0.87623900  0.11018500  1
  O  O6  1  0.00922900  0.87699200  0.61210400  1
  O  O7  1  0.48021000  0.12000400  0.60975000  1
  O  O8  1  0.49595900  0.37219200  0.38499800  1
  O  O9  1  0.00288500  0.63894200  0.88268400  1
  O  O10  1  0.51979000  0.87999600  0.39025000  1
  O  O11  1  0.00819900  0.62325400  0.38648200  1
  O  O12  1  0.50027000  0.89129600  0.89200100  1
  O  O13  1  0.99077100  0.12300800  0.38789600  1
  O  O14  1  0.99671900  0.12376100  0.88981500  1
  O  O15  1  0.49669700  0.36518600  0.87669500  1
loop_
_geom_bond_atom_site_label_1
_geom_bond_atom_site_label_2
_geom_bond_distance
_geom_bond_site_symmetry_2
Li0 O3 1.978306 1_555
Li0 O8 2.117003 1_555
Li0 O8 2.157207 1_655
Li0 O13 2.227067 1_555
Li0 O0 2.241193 1_555
Li0 O0 2.307275 1_655
Li1 O15 2.050164 1_555
Li1 O9 2.123570 1_555
Li1 O9 2.134575 1_655
Li1 O1 2.242276 1_555
Li1 O1 2.261990 1_455
Li1 O4 2.286484 1_555
Li2 O2 1.997060 1_555
Li2 O2 1.999075 1_455
Li2 O11 2.185742 1_555
Li2 O5 2.190460 1_555
Li2 O10 2.271867 1_455
Li2 O10 2.320943 1_555
Li3 O2 2.050164 1_555
Li3 O3 2.123570 1_555
Li3 O3 2.134575 1_455
Li3 O11 2.242276 1_555
Li3 O11 2.261990 1_655
Li3 O8 2.286484 1_555
Li4 O9 1.978306 1_555
Li4 O4 2.117003 1_555
Li4 O4 2.157207 1_455
Li4 O6 2.227067 1_555
Li4 O12 2.241193 1_555
Li4 O12 2.307275 1_455
Li5 O0 2.078552 1_565
Li5 O5 2.121628 1_655
Li5 O5 2.133700 1_555
Li5 O10 2.154622 1_555
Li5 O13 2.178718 1_565
Li5 O13 2.253920 1_465
Li6 O12 2.078552 1_545
Li6 O14 2.121628 1_455
Li6 O14 2.133700 1_555
Li6 O7 2.154622 1_555
Li6 O6 2.178718 1_545
Li6 O6 2.253920 1_645
Li7 O15 1.997060 1_555
Li7 O15 1.999075 1_655
Li7 O1 2.185742 1_555
Li7 O14 2.190460 1_555
Li7 O7 2.271867 1_655
Li7 O7 2.320943 1_555
Li8 O9 2.115561 1_554
Li8 O3 2.115561 1_455
Li8 O15 2.145655 1_554
Li8 O2 2.145655 1_455
Li8 O2 2.152443 1_555
Li8 O15 2.152443 1_454
Mn0 O14 1.930086 1_454
Mn0 O5 1.930086 1_545
Mn0 O12 1.972646 1_444
Mn0 O0 1.972646 1_555
Mn0 O12 1.980118 1_544
Mn0 O0 1.980118 1_455
Mn1 O13 1.939529 1_455
Mn1 O6 1.939529 1_545
Mn1 O7 1.983646 1_555
Mn1 O10 1.983646 1_445
Mn1 O7 2.076469 1_455
Mn1 O10 2.076469 1_545
Co0 O8 1.914980 1_555
Co0 O7 2.021808 1_555
Co0 O1 2.057341 1_555
Co0 O1 2.057537 1_455
Co0 O13 2.082744 1_455
Co0 O13 2.091225 1_555
Co1 O4 1.914980 1_555
Co1 O10 2.021808 1_555
Co1 O11 2.057341 1_555
Co1 O11 2.057537 1_655
Co1 O6 2.082744 1_655
Co1 O6 2.091225 1_555
Co2 O11 1.953076 1_555
Co2 O1 1.953076 1_455
Co2 O8 2.078995 1_555
Co2 O4 2.078995 1_455
Co2 O8 2.089554 1_455
Co2 O4 2.089554 1_555
Co3 O2 1.792283 1_555
Co3 O9 1.987814 1_554
Co3 O9 1.997607 1_654
Co3 O5 2.123735 1_655
Co3 O5 2.125370 1_555
Co3 O12 2.248878 1_554
Co4 O15 1.792283 1_555
Co4 O3 1.987814 1_556
Co4 O3 1.997607 1_456
Co4 O14 2.123735 1_455
Co4 O14 2.125370 1_555
Co4 O0 2.248878 1_556
