# generated using pymatgen
data_Nd4Mg(RhO3)4
_symmetry_space_group_name_H-M   'P 1'
_cell_length_a   5.50848634
_cell_length_b   6.44178730
_cell_length_c   7.54690600
_cell_angle_alpha   90.00000000
_cell_angle_beta   90.00000000
_cell_angle_gamma   86.81454928
_symmetry_Int_Tables_number   1
_chemical_formula_structural   Nd4Mg(RhO3)4
_chemical_formula_sum   'Nd4 Mg1 Rh4 O12'
_cell_volume   267.38439246
_cell_formula_units_Z   1
loop_
 _symmetry_equiv_pos_site_id
 _symmetry_equiv_pos_as_xyz
  1  'x, y, z'
loop_
 _atom_site_type_symbol
 _atom_site_label
 _atom_site_symmetry_multiplicity
 _atom_site_fract_x
 _atom_site_fract_y
 _atom_site_fract_z
 _atom_site_occupancy
  Nd  Nd0  1  0.44346300  0.58618600  0.75000000  1
  Nd  Nd1  1  0.98167700  0.90945000  0.25000000  1
  Nd  Nd2  1  0.05998300  0.14455200  0.75000000  1
  Nd  Nd3  1  0.53986900  0.40050200  0.25000000  1
  Mg  Mg0  1  0.92443200  0.75154100  0.75000000  1
  Rh  Rh0  1  0.50378800  0.00052300  0.49987300  1
  Rh  Rh1  1  0.99565900  0.48767800  0.48695300  1
  Rh  Rh2  1  0.99565900  0.48767800  0.01304700  1
  Rh  Rh3  1  0.50378800  0.00052300  0.00012700  1
  O  O0  1  0.81186100  0.17038600  0.44667500  1
  O  O1  1  0.33418800  0.30812800  0.55042400  1
  O  O2  1  0.66784000  0.68677300  0.04443600  1
  O  O3  1  0.17422700  0.82876100  0.93495600  1
  O  O4  1  0.17422700  0.82876100  0.56504400  1
  O  O5  1  0.66784000  0.68677300  0.45556400  1
  O  O6  1  0.33418800  0.30812800  0.94957600  1
  O  O7  1  0.81186100  0.17038600  0.05332500  1
  O  O8  1  0.36407100  0.05643000  0.25000000  1
  O  O9  1  0.85082700  0.46196400  0.75000000  1
  O  O10  1  0.13595000  0.54697800  0.25000000  1
  O  O11  1  0.64960200  0.94873100  0.75000000  1
loop_
_geom_bond_atom_site_label_1
_geom_bond_atom_site_label_2
_geom_bond_distance
_geom_bond_site_symmetry_2
Nd0 O9 2.340113 1_555
Nd0 O6 2.441127 1_555
Nd0 O1 2.441127 1_555
Nd0 O4 2.516373 1_555
Nd0 O3 2.516373 1_555
Nd0 O2 2.640860 1_556
Nd0 O5 2.640860 1_555
Nd0 O11 2.652996 1_555
Nd1 O8 2.356921 1_665
Nd1 O0 2.393491 1_565
Nd1 O7 2.393491 1_565
Nd1 O10 2.440026 1_655
Nd1 O4 2.643278 1_655
Nd1 O3 2.643278 1_654
Nd1 O5 2.780036 1_555
Nd1 O2 2.780036 1_555
Nd2 O9 2.290502 1_455
Nd2 O6 2.416044 1_555
Nd2 O1 2.416044 1_555
Nd2 O4 2.518005 1_545
Nd2 O3 2.518005 1_545
Nd2 O11 2.649217 1_445
Nd2 O0 2.666603 1_455
Nd2 O7 2.666603 1_456
Nd3 O10 2.368025 1_555
Nd3 O8 2.467569 1_555
Nd3 O0 2.529518 1_555
Nd3 O7 2.529518 1_555
Nd3 O5 2.539457 1_555
Nd3 O2 2.539457 1_555
Nd3 O6 2.617863 1_554
Nd3 O1 2.617863 1_555
Mg0 O11 1.921384 1_555
Mg0 O9 1.930839 1_555
Mg0 O3 2.040894 1_655
Mg0 O4 2.040894 1_655
Mg0 O2 2.678628 1_556
Mg0 O5 2.678628 1_555
O0 Rh0 2.108255 1_555
O0 Rh1 2.350548 1_555
O1 Rh0 2.176937 1_555
O1 Rh1 2.192017 1_455
O2 Rh2 2.168979 1_555
O2 Rh3 2.193254 1_565
O3 Rh3 2.232709 1_566
O3 Rh2 2.526397 1_456
O4 Rh0 2.232709 1_565
O4 Rh1 2.526397 1_455
O5 Rh1 2.168979 1_555
O5 Rh0 2.193254 1_565
O6 Rh3 2.176937 1_556
O6 Rh2 2.192017 1_456
O7 Rh3 2.108255 1_555
O7 Rh2 2.350548 1_555
O8 Rh0 2.060909 1_555
O8 Rh3 2.060909 1_555
O9 Rh2 2.149326 1_556
O9 Rh1 2.149326 1_555
O10 Rh1 1.993444 1_455
O10 Rh2 1.993444 1_455
O11 Rh3 2.071240 1_566
O11 Rh0 2.071240 1_565
