# generated using pymatgen
data_Hf9BMo4
_symmetry_space_group_name_H-M   'P 1'
_cell_length_a   8.55942123
_cell_length_b   8.55942123
_cell_length_c   8.51252300
_cell_angle_alpha   90.00000000
_cell_angle_beta   90.00000000
_cell_angle_gamma   119.99999402
_symmetry_Int_Tables_number   1
_chemical_formula_structural   Hf9BMo4
_chemical_formula_sum   'Hf18 B2 Mo8'
_cell_volume   540.10444937
_cell_formula_units_Z   2
loop_
 _symmetry_equiv_pos_site_id
 _symmetry_equiv_pos_as_xyz
  1  'x, y, z'
loop_
 _atom_site_type_symbol
 _atom_site_label
 _atom_site_symmetry_multiplicity
 _atom_site_fract_x
 _atom_site_fract_y
 _atom_site_fract_z
 _atom_site_occupancy
  Hf  Hf0  1  0.20369700  0.40739500  0.44460000  1
  Hf  Hf1  1  0.20369700  0.79630300  0.44460000  1
  Hf  Hf2  1  0.54045400  0.08090900  0.25000000  1
  Hf  Hf3  1  0.45954600  0.54045400  0.75000000  1
  Hf  Hf4  1  0.08090900  0.54045400  0.75000000  1
  Hf  Hf5  1  0.91909100  0.45954600  0.25000000  1
  Hf  Hf6  1  0.54045400  0.45954600  0.25000000  1
  Hf  Hf7  1  0.45954600  0.91909100  0.75000000  1
  Hf  Hf8  1  0.59260500  0.79630300  0.44460000  1
  Hf  Hf9  1  0.40739500  0.20369700  0.94460000  1
  Hf  Hf10  1  0.79630300  0.59260500  0.55540000  1
  Hf  Hf11  1  0.79630300  0.20369700  0.94460000  1
  Hf  Hf12  1  0.79630300  0.59260500  0.94460000  1
  Hf  Hf13  1  0.20369700  0.79630300  0.05540000  1
  Hf  Hf14  1  0.59260500  0.79630300  0.05540000  1
  Hf  Hf15  1  0.40739500  0.20369700  0.55540000  1
  Hf  Hf16  1  0.79630300  0.20369700  0.55540000  1
  Hf  Hf17  1  0.20369700  0.40739500  0.05540000  1
  B  B0  1  0.66666700  0.33333300  0.75000000  1
  B  B1  1  0.33333300  0.66666700  0.25000000  1
  Mo  Mo0  1  0.00000000  0.00000000  0.50000000  1
  Mo  Mo1  1  0.00000000  0.00000000  0.00000000  1
  Mo  Mo2  1  0.11119900  0.22239800  0.75000000  1
  Mo  Mo3  1  0.88880100  0.11119900  0.25000000  1
  Mo  Mo4  1  0.22239800  0.11119900  0.25000000  1
  Mo  Mo5  1  0.77760200  0.88880100  0.75000000  1
  Mo  Mo6  1  0.11119900  0.88880100  0.75000000  1
  Mo  Mo7  1  0.88880100  0.77760200  0.25000000  1
loop_
_geom_bond_atom_site_label_1
_geom_bond_atom_site_label_2
_geom_bond_distance
_geom_bond_site_symmetry_2
Hf0 Mo2 2.939234 1_555
Hf0 Mo0 3.056488 1_555
Hf0 Mo3 3.098888 1_455
Hf0 Mo4 3.098892 1_555
Hf1 Mo6 2.939230 1_555
Hf1 Mo0 3.056481 1_565
Hf1 Mo7 3.098885 1_455
Hf1 Mo4 3.098885 1_565
Hf2 Mo4 2.860832 1_555
Hf2 Mo3 2.860841 1_555
Hf3 Mo5 2.860837 1_555
Hf3 Mo2 2.860837 1_555
Hf4 Mo2 2.860832 1_555
Hf4 Mo6 2.860841 1_555
Hf5 Mo7 2.860832 1_555
Hf5 Mo3 2.860841 1_555
Hf6 Mo7 2.860837 1_555
Hf6 Mo4 2.860837 1_555
Hf7 Mo5 2.860832 1_555
Hf7 Mo6 2.860841 1_555
Hf8 Mo5 2.939234 1_555
Hf8 Mo0 3.056488 1_665
Hf8 Mo3 3.098888 1_565
Hf8 Mo7 3.098892 1_555
Hf9 Mo4 2.939234 1_556
Hf9 Mo1 3.056488 1_556
Hf9 Mo6 3.098888 1_545
Hf9 Mo2 3.098892 1_555
Hf10 Mo7 2.939234 1_555
Hf10 Mo0 3.056488 1_665
Hf10 Mo6 3.098888 1_655
Hf10 Mo5 3.098892 1_555
Hf11 Mo3 2.939230 1_556
Hf11 Mo1 3.056481 1_656
Hf11 Mo5 3.098885 1_545
Hf11 Mo2 3.098885 1_655
Hf12 Mo7 2.939234 1_556
Hf12 Mo1 3.056488 1_666
Hf12 Mo6 3.098888 1_655
Hf12 Mo5 3.098892 1_555
Hf13 Mo6 2.939230 1_554
Hf13 Mo1 3.056481 1_565
Hf13 Mo7 3.098885 1_455
Hf13 Mo4 3.098885 1_565
Hf14 Mo5 2.939234 1_554
Hf14 Mo1 3.056488 1_665
Hf14 Mo3 3.098888 1_565
Hf14 Mo7 3.098892 1_555
Hf15 Mo4 2.939234 1_555
Hf15 Mo0 3.056488 1_555
Hf15 Mo6 3.098888 1_545
Hf15 Mo2 3.098892 1_555
Hf16 Mo3 2.939230 1_555
Hf16 Mo0 3.056481 1_655
Hf16 Mo5 3.098885 1_545
Hf16 Mo2 3.098885 1_655
Hf17 Mo2 2.939234 1_554
Hf17 Mo1 3.056488 1_555
Hf17 Mo3 3.098888 1_455
Hf17 Mo4 3.098892 1_555
B0 Hf16 2.537284 1_555
B0 Hf11 2.537284 1_555
B0 Hf10 2.537284 1_555
B0 Hf15 2.537284 1_555
B0 Hf9 2.537284 1_555
B0 Hf12 2.537284 1_555
B0 Hf3 3.070642 1_555
B0 Hf4 3.070642 1_655
B0 Hf7 3.070642 1_545
B1 Hf13 2.537284 1_555
B1 Hf1 2.537284 1_555
B1 Hf17 2.537284 1_555
B1 Hf8 2.537284 1_555
B1 Hf14 2.537284 1_555
B1 Hf0 2.537284 1_555
B1 Hf6 3.070642 1_555
B1 Hf2 3.070642 1_565
B1 Hf5 3.070642 1_455
Mo0 Mo6 2.691970 1_545
Mo0 Mo3 2.691970 1_455
Mo0 Mo7 2.691971 1_445
Mo0 Mo5 2.691971 1_445
Mo0 Mo2 2.691971 1_555
Mo0 Mo4 2.691971 1_555
Mo1 Mo6 2.691970 1_544
Mo1 Mo3 2.691970 1_455
Mo1 Mo7 2.691971 1_445
Mo1 Mo5 2.691971 1_444
Mo1 Mo2 2.691971 1_554
Mo1 Mo4 2.691971 1_555
Mo2 Mo6 2.855397 1_545
Mo2 Mo5 2.855398 1_445
Mo3 Mo7 2.855397 1_545
Mo3 Mo4 2.855397 1_655
Mo4 Mo7 2.855398 1_445
Mo5 Mo6 2.855397 1_655
