# generated using pymatgen
data_Ce2MgSe4
_symmetry_space_group_name_H-M   'P 1'
_cell_length_a   13.48602303
_cell_length_b   4.14391339
_cell_length_c   14.52319077
_cell_angle_alpha   90.00000000
_cell_angle_beta   90.00000000
_cell_angle_gamma   90.00000000
_symmetry_Int_Tables_number   1
_chemical_formula_structural   Ce2MgSe4
_chemical_formula_sum   'Ce8 Mg4 Se16'
_cell_volume   811.62722960
_cell_formula_units_Z   4
loop_
 _symmetry_equiv_pos_site_id
 _symmetry_equiv_pos_as_xyz
  1  'x, y, z'
loop_
 _atom_site_type_symbol
 _atom_site_label
 _atom_site_symmetry_multiplicity
 _atom_site_fract_x
 _atom_site_fract_y
 _atom_site_fract_z
 _atom_site_occupancy
  Ce  Ce0  1  0.11889184  0.25000000  0.07273468  1
  Ce  Ce1  1  0.88110816  0.75000000  0.92726532  1
  Ce  Ce2  1  0.38110816  0.75000000  0.57273468  1
  Ce  Ce3  1  0.61889184  0.25000000  0.42726532  1
  Ce  Ce4  1  0.13456810  0.25000000  0.70428999  1
  Ce  Ce5  1  0.86543190  0.75000000  0.29571001  1
  Ce  Ce6  1  0.36543190  0.75000000  0.20428999  1
  Ce  Ce7  1  0.63456810  0.25000000  0.79571001  1
  Mg  Mg0  1  0.10747809  0.75000000  0.46214974  1
  Mg  Mg1  1  0.89252191  0.25000000  0.53785026  1
  Mg  Mg2  1  0.39252191  0.25000000  0.96214974  1
  Mg  Mg3  1  0.60747809  0.75000000  0.03785026  1
  Se  Se0  1  0.00108071  0.75000000  0.61466072  1
  Se  Se1  1  0.99891929  0.25000000  0.38533928  1
  Se  Se2  1  0.49891929  0.25000000  0.11466072  1
  Se  Se3  1  0.50108071  0.75000000  0.88533928  1
  Se  Se4  1  0.02878763  0.25000000  0.88459322  1
  Se  Se5  1  0.97121237  0.75000000  0.11540678  1
  Se  Se6  1  0.47121237  0.75000000  0.38459322  1
  Se  Se7  1  0.52878763  0.25000000  0.61540678  1
  Se  Se8  1  0.22653308  0.25000000  0.24599801  1
  Se  Se9  1  0.77346692  0.75000000  0.75400199  1
  Se  Se10  1  0.27346692  0.75000000  0.74599801  1
  Se  Se11  1  0.72653308  0.25000000  0.25400199  1
  Se  Se12  1  0.26802407  0.75000000  0.01434162  1
  Se  Se13  1  0.73197593  0.25000000  0.98565838  1
  Se  Se14  1  0.23197593  0.25000000  0.51434162  1
  Se  Se15  1  0.76802407  0.75000000  0.48565838  1
loop_
_geom_bond_atom_site_label_1
_geom_bond_atom_site_label_2
_geom_bond_distance
_geom_bond_site_symmetry_2
Ce0 Se8 2.905038 1_555
Ce0 Se5 2.939997 1_455
Ce0 Se5 2.939997 1_445
Ce0 Se4 2.990430 1_554
Ce0 Se12 3.009506 1_555
Ce0 Se12 3.009506 1_545
Ce1 Se9 2.905038 1_555
Ce1 Se4 2.939997 1_655
Ce1 Se4 2.939997 1_665
Ce1 Se5 2.990430 1_556
Ce1 Se13 3.009506 1_565
Ce1 Se13 3.009506 1_555
Ce2 Se10 2.905038 1_555
Ce2 Se7 2.939997 1_565
Ce2 Se7 2.939997 1_555
Ce2 Se6 2.990430 1_555
Ce2 Se14 3.009506 1_555
Ce2 Se14 3.009506 1_565
Ce3 Se11 2.905038 1_555
Ce3 Se6 2.939997 1_555
Ce3 Se6 2.939997 1_545
Ce3 Se7 2.990430 1_555
Ce3 Se15 3.009506 1_555
Ce3 Se15 3.009506 1_545
Ce4 Se10 2.858106 1_545
Ce4 Se10 2.858106 1_555
Ce4 Se4 2.981949 1_555
Ce4 Se0 3.037796 1_555
Ce4 Se0 3.037796 1_545
Ce4 Se14 3.055462 1_555
Ce5 Se11 2.858106 1_565
Ce5 Se11 2.858106 1_555
Ce5 Se5 2.981949 1_555
Ce5 Se1 3.037796 1_565
Ce5 Se1 3.037796 1_555
Ce5 Se15 3.055462 1_555
Ce6 Se8 2.858106 1_555
Ce6 Se8 2.858106 1_565
Ce6 Se6 2.981949 1_555
Ce6 Se2 3.037796 1_565
Ce6 Se2 3.037796 1_555
Ce6 Se12 3.055462 1_555
Ce7 Se9 2.858106 1_555
Ce7 Se9 2.858106 1_545
Ce7 Se7 2.981949 1_555
Ce7 Se3 3.037796 1_545
Ce7 Se3 3.037796 1_555
Ce7 Se13 3.055462 1_555
Mg0 Se0 2.639102 1_555
Mg0 Se1 2.771424 1_455
Mg0 Se1 2.771424 1_465
Mg0 Se14 2.772460 1_555
Mg0 Se14 2.772460 1_565
Mg1 Se1 2.639102 1_555
Mg1 Se0 2.771424 1_655
Mg1 Se0 2.771424 1_645
Mg1 Se15 2.772460 1_545
Mg1 Se15 2.772460 1_555
Mg2 Se2 2.639102 1_556
Mg2 Se3 2.771424 1_545
Mg2 Se3 2.771424 1_555
Mg2 Se12 2.772460 1_546
Mg2 Se12 2.772460 1_556
Mg3 Se3 2.639102 1_554
Mg3 Se2 2.771424 1_565
Mg3 Se2 2.771424 1_555
Mg3 Se13 2.772460 1_554
Mg3 Se13 2.772460 1_564
