# generated using pymatgen
data_TmAu2F9
_symmetry_space_group_name_H-M   'P 1'
_cell_length_a   9.18500700
_cell_length_b   11.21885300
_cell_length_c   21.87257400
_cell_angle_alpha   90.00000000
_cell_angle_beta   90.00000000
_cell_angle_gamma   90.00000000
_symmetry_Int_Tables_number   1
_chemical_formula_structural   TmAu2F9
_chemical_formula_sum   'Tm12 Au24 F108'
_cell_volume   2253.86471024
_cell_formula_units_Z   12
loop_
 _symmetry_equiv_pos_site_id
 _symmetry_equiv_pos_as_xyz
  1  'x, y, z'
loop_
 _atom_site_type_symbol
 _atom_site_label
 _atom_site_symmetry_multiplicity
 _atom_site_fract_x
 _atom_site_fract_y
 _atom_site_fract_z
 _atom_site_occupancy
  Tm  Tm0  1  0.82282000  0.50000000  0.25000000  1
  Tm  Tm1  1  0.67718000  0.00000000  0.75000000  1
  Tm  Tm2  1  0.17718000  0.50000000  0.75000000  1
  Tm  Tm3  1  0.32282000  0.00000000  0.25000000  1
  Tm  Tm4  1  0.03921500  0.59320300  0.41637800  1
  Tm  Tm5  1  0.03921500  0.40679700  0.08362200  1
  Tm  Tm6  1  0.46078500  0.09320300  0.58362200  1
  Tm  Tm7  1  0.46078500  0.90679700  0.91637800  1
  Tm  Tm8  1  0.96078500  0.40679700  0.58362200  1
  Tm  Tm9  1  0.96078500  0.59320300  0.91637800  1
  Tm  Tm10  1  0.53921500  0.90679700  0.41637800  1
  Tm  Tm11  1  0.53921500  0.09320300  0.08362200  1
  Au  Au0  1  0.65976600  0.39049900  0.99097600  1
  Au  Au1  1  0.65976600  0.60950100  0.50902400  1
  Au  Au2  1  0.84023400  0.89049900  0.00902400  1
  Au  Au3  1  0.84023400  0.10950100  0.49097600  1
  Au  Au4  1  0.34023400  0.60950100  0.00902400  1
  Au  Au5  1  0.34023400  0.39049900  0.49097600  1
  Au  Au6  1  0.15976600  0.10950100  0.99097600  1
  Au  Au7  1  0.15976600  0.89049900  0.50902400  1
  Au  Au8  1  0.93237200  0.07471200  0.16480800  1
  Au  Au9  1  0.93237200  0.92528800  0.33519200  1
  Au  Au10  1  0.56762800  0.57471200  0.83519200  1
  Au  Au11  1  0.56762800  0.42528800  0.66480800  1
  Au  Au12  1  0.06762800  0.92528800  0.83519200  1
  Au  Au13  1  0.06762800  0.07471200  0.66480800  1
  Au  Au14  1  0.43237200  0.42528800  0.16480800  1
  Au  Au15  1  0.43237200  0.57471200  0.33519200  1
  Au  Au16  1  0.63850600  0.21406500  0.32849700  1
  Au  Au17  1  0.63850600  0.78593500  0.17150300  1
  Au  Au18  1  0.86149400  0.71406500  0.67150300  1
  Au  Au19  1  0.86149400  0.28593500  0.82849700  1
  Au  Au20  1  0.36149400  0.78593500  0.67150300  1
  Au  Au21  1  0.36149400  0.21406500  0.82849700  1
  Au  Au22  1  0.13850600  0.28593500  0.32849700  1
  Au  Au23  1  0.13850600  0.71406500  0.17150300  1
  F  F0  1  0.00000000  0.50000000  0.00000000  1
  F  F1  1  0.00000000  0.50000000  0.50000000  1
  F  F2  1  0.50000000  0.00000000  0.00000000  1
  F  F3  1  0.50000000  0.00000000  0.50000000  1
  F  F4  1  0.13453500  0.97672500  0.32140300  1
  F  F5  1  0.13453500  0.02327500  0.17859700  1
  F  F6  1  0.36546500  0.47672500  0.67859700  1
  F  F7  1  0.36546500  0.52327500  0.82140300  1
  F  F8  1  0.86546500  0.02327500  0.67859700  1
  F  F9  1  0.86546500  0.97672500  0.82140300  1
  F  F10  1  0.63453500  0.52327500  0.32140300  1
  F  F11  1  0.63453500  0.47672500  0.17859700  1
  F  F12  1  0.20140400  0.82150100  0.23828000  1
  F  F13  1  0.20140400  0.17849900  0.26172000  1
  F  F14  1  0.29859600  0.32150100  0.76172000  1
  F  F15  1  0.29859600  0.67849900  0.73828000  1
  F  F16  1  0.79859600  0.17849900  0.76172000  1
  F  F17  1  0.79859600  0.82150100  0.73828000  1
  F  F18  1  0.70140400  0.67849900  0.23828000  1
  F  F19  1  0.70140400  0.32150100  0.26172000  1
  F  F20  1  0.76612700  0.04783900  0.03535100  1
  F  F21  1  0.76612700  0.95216100  0.46464900  1
  F  F22  1  0.73387300  0.54783900  0.96464900  1
  F  F23  1  0.73387300  0.45216100  0.53535100  1
  F  F24  1  0.23387300  0.95216100  0.96464900  1
  F  F25  1  0.23387300  0.04783900  0.53535100  1
  F  F26  1  0.26612700  0.45216100  0.03535100  1
  F  F27  1  0.26612700  0.54783900  0.46464900  1
  F  F28  1  0.58834800  0.10365000  0.39609100  1
  F  F29  1  0.58834800  0.89635000  0.10390900  1
  F  F30  1  0.91165200  0.60365000  0.60390900  1
  F  F31  1  0.91165200  0.39635000  0.89609100  1
  F  F32  1  0.41165200  0.89635000  0.60390900  1
  F  F33  1  0.41165200  0.10365000  0.89609100  1
  F  F34  1  0.08834800  0.39635000  0.39609100  1
  F  F35  1  0.08834800  0.60365000  0.10390900  1
  F  F36  1  0.49586100  0.14021800  0.27081800  1
  F  F37  1  0.49586100  0.85978200  0.22918200  1
  F  F38  1  0.00413900  0.64021800  0.72918200  1
  F  F39  1  0.00413900  0.35978200  0.77081800  1
  F  F40  1  0.50413900  0.85978200  0.72918200  1
  F  F41  1  0.50413900  0.14021800  0.77081800  1
  F  F42  1  0.99586100  0.35978200  0.27081800  1
  F  F43  1  0.99586100  0.64021800  0.22918200  1
  F  F44  1  0.19134600  0.63824700  0.94449900  1
  F  F45  1  0.19134600  0.36175300  0.55550100  1
  F  F46  1  0.30865400  0.13824700  0.05550100  1
  F  F47  1  0.30865400  0.86175300  0.44449900  1
  F  F48  1  0.80865400  0.36175300  0.05550100  1
  F  F49  1  0.80865400  0.63824700  0.44449900  1
  F  F50  1  0.69134600  0.86175300  0.94449900  1
  F  F51  1  0.69134600  0.13824700  0.55550100  1
  F  F52  1  0.41494300  0.05124600  0.16377100  1
  F  F53  1  0.41494300  0.94875400  0.33622900  1
  F  F54  1  0.08505700  0.55124600  0.83622900  1
  F  F55  1  0.08505700  0.44875400  0.66377100  1
  F  F56  1  0.58505700  0.94875400  0.83622900  1
  F  F57  1  0.58505700  0.05124600  0.66377100  1
  F  F58  1  0.91494300  0.44875400  0.16377100  1
  F  F59  1  0.91494300  0.55124600  0.33622900  1
  F  F60  1  0.27964900  0.78805600  0.11804000  1
  F  F61  1  0.27964900  0.21194400  0.38196000  1
  F  F62  1  0.22035100  0.28805600  0.88196000  1
  F  F63  1  0.22035100  0.71194400  0.61804000  1
  F  F64  1  0.72035100  0.21194400  0.88196000  1
  F  F65  1  0.72035100  0.78805600  0.61804000  1
  F  F66  1  0.77964900  0.71194400  0.11804000  1
  F  F67  1  0.77964900  0.28805600  0.38196000  1
  F  F68  1  0.99661500  0.91493900  0.06728200  1
  F  F69  1  0.99661500  0.08506100  0.43271800  1
  F  F70  1  0.50338500  0.41493900  0.93271800  1
  F  F71  1  0.50338500  0.58506100  0.56728200  1
  F  F72  1  0.00338500  0.08506100  0.93271800  1
  F  F73  1  0.00338500  0.91493900  0.56728200  1
  F  F74  1  0.49661500  0.58506100  0.06728200  1
  F  F75  1  0.49661500  0.41493900  0.43271800  1
  F  F76  1  0.86922900  0.92443500  0.20014000  1
  F  F77  1  0.86922900  0.07556500  0.29986000  1
  F  F78  1  0.63077100  0.42443500  0.79986000  1
  F  F79  1  0.63077100  0.57556500  0.70014000  1
  F  F80  1  0.13077100  0.07556500  0.79986000  1
  F  F81  1  0.13077100  0.92443500  0.70014000  1
  F  F82  1  0.36922900  0.57556500  0.20014000  1
  F  F83  1  0.36922900  0.42443500  0.29986000  1
  F  F84  1  0.00339500  0.22484600  0.12705400  1
  F  F85  1  0.00339500  0.77515400  0.37294600  1
  F  F86  1  0.49660500  0.72484600  0.87294600  1
  F  F87  1  0.49660500  0.27515400  0.62705400  1
  F  F88  1  0.99660500  0.77515400  0.87294600  1
  F  F89  1  0.99660500  0.22484600  0.62705400  1
  F  F90  1  0.50339500  0.27515400  0.12705400  1
  F  F91  1  0.50339500  0.72484600  0.37294600  1
  F  F92  1  0.72619100  0.12191500  0.15127600  1
  F  F93  1  0.72619100  0.87808500  0.34872400  1
  F  F94  1  0.77380900  0.62191500  0.84872400  1
  F  F95  1  0.77380900  0.37808500  0.65127600  1
  F  F96  1  0.27380900  0.87808500  0.84872400  1
  F  F97  1  0.27380900  0.12191500  0.65127600  1
  F  F98  1  0.22619100  0.37808500  0.15127600  1
  F  F99  1  0.22619100  0.62191500  0.34872400  1
  F  F100  1  0.92090700  0.73289900  0.98835300  1
  F  F101  1  0.92090700  0.26710100  0.51164700  1
  F  F102  1  0.57909300  0.23289900  0.01164700  1
  F  F103  1  0.57909300  0.76710100  0.48835300  1
  F  F104  1  0.07909300  0.26710100  0.01164700  1
  F  F105  1  0.07909300  0.73289900  0.48835300  1
  F  F106  1  0.42090700  0.76710100  0.98835300  1
  F  F107  1  0.42090700  0.23289900  0.51164700  1
loop_
_geom_bond_atom_site_label_1
_geom_bond_atom_site_label_2
_geom_bond_distance
_geom_bond_site_symmetry_2
Au0 F70 1.939595 1_555
Au0 F102 1.969675 1_556
Au0 F22 1.977561 1_555
Au0 F48 1.991484 1_556
Au1 F71 1.939595 1_555
Au1 F103 1.969675 1_555
Au1 F23 1.977561 1_555
Au1 F49 1.991484 1_555
Au2 F68 1.939595 1_555
Au2 F100 1.969675 1_554
Au2 F20 1.977561 1_565
Au2 F50 1.991484 1_554
Au3 F69 1.939595 1_555
Au3 F101 1.969675 1_555
Au3 F21 1.977561 1_545
Au3 F51 1.991484 1_555
Au4 F74 1.939595 1_555
Au4 F106 1.969675 1_554
Au4 F26 1.977561 1_555
Au4 F44 1.991484 1_554
Au5 F75 1.939595 1_555
Au5 F107 1.969675 1_555
Au5 F27 1.977561 1_555
Au5 F45 1.991484 1_555
Au6 F72 1.939595 1_555
Au6 F104 1.969675 1_556
Au6 F24 1.977561 1_545
Au6 F46 1.991484 1_556
Au7 F73 1.939595 1_555
Au7 F105 1.969675 1_555
Au7 F25 1.977561 1_565
Au7 F47 1.991484 1_555
Au8 F76 1.943184 1_545
Au8 F5 1.967721 1_655
Au8 F84 1.986060 1_655
Au8 F92 1.988573 1_555
Au9 F77 1.943184 1_565
Au9 F4 1.967721 1_655
Au9 F85 1.986060 1_655
Au9 F93 1.988573 1_555
Au10 F78 1.943184 1_555
Au10 F7 1.967721 1_555
Au10 F86 1.986060 1_555
Au10 F94 1.988573 1_555
Au11 F79 1.943184 1_555
Au11 F6 1.967721 1_555
Au11 F87 1.986060 1_555
Au11 F95 1.988573 1_555
Au12 F80 1.943184 1_565
Au12 F9 1.967721 1_455
Au12 F88 1.986060 1_455
Au12 F96 1.988573 1_555
Au13 F81 1.943184 1_545
Au13 F8 1.967721 1_455
Au13 F89 1.986060 1_455
Au13 F97 1.988573 1_555
Au14 F82 1.943184 1_555
Au14 F11 1.967721 1_555
Au14 F90 1.986060 1_555
Au14 F98 1.988573 1_555
Au15 F83 1.943184 1_555
Au15 F10 1.967721 1_555
Au15 F91 1.986060 1_555
Au15 F99 1.988573 1_555
Au16 F67 1.933169 1_555
Au16 F19 1.979858 1_555
Au16 F28 1.983060 1_555
Au16 F36 1.998648 1_555
Au17 F66 1.933169 1_555
Au17 F18 1.979858 1_555
Au17 F29 1.983060 1_555
Au17 F37 1.998648 1_555
Au18 F65 1.933169 1_555
Au18 F17 1.979858 1_555
Au18 F30 1.983060 1_555
Au18 F38 1.998648 1_655
Au19 F64 1.933169 1_555
Au19 F16 1.979858 1_555
Au19 F31 1.983060 1_555
Au19 F39 1.998648 1_655
Au20 F63 1.933169 1_555
Au20 F15 1.979858 1_555
Au20 F32 1.983060 1_555
Au20 F40 1.998648 1_555
Au21 F62 1.933169 1_555
Au21 F14 1.979858 1_555
Au21 F33 1.983060 1_555
Au21 F41 1.998648 1_555
Au22 F61 1.933169 1_555
Au22 F13 1.979858 1_555
Au22 F34 1.983060 1_555
Au22 F42 1.998648 1_455
Au23 F60 1.933169 1_555
Au23 F12 1.979858 1_555
Au23 F35 1.983060 1_555
Au23 F43 1.998648 1_455
F0 Tm9 2.137388 1_454
F0 Tm5 2.137388 1_555
F1 Tm4 2.137388 1_555
F1 Tm8 2.137388 1_455
F2 Tm7 2.137388 1_544
F2 Tm11 2.137388 1_555
F3 Tm10 2.137388 1_545
F3 Tm6 2.137388 1_555
F4 Tm3 2.344807 1_565
F5 Tm3 2.344807 1_555
F6 Tm2 2.344807 1_555
F7 Tm2 2.344807 1_555
F8 Tm1 2.344807 1_555
F9 Tm1 2.344807 1_565
F10 Tm0 2.344807 1_555
F11 Tm0 2.344807 1_555
F12 Tm3 2.306431 1_565
F13 Tm3 2.306431 1_555
F14 Tm2 2.306431 1_555
F15 Tm2 2.306431 1_555
F16 Tm1 2.306431 1_555
F17 Tm1 2.306431 1_565
F18 Tm0 2.306431 1_555
F19 Tm0 2.306431 1_555
F20 Tm11 2.391148 1_555
F21 Tm10 2.391148 1_555
F22 Tm9 2.391148 1_555
F23 Tm8 2.391148 1_555
F24 Tm7 2.391148 1_555
F25 Tm6 2.391148 1_555
F26 Tm5 2.391148 1_555
F27 Tm4 2.391148 1_555
F28 Tm10 2.297362 1_545
F29 Tm11 2.297362 1_565
F30 Tm8 2.297362 1_555
F31 Tm9 2.297362 1_555
F32 Tm6 2.297362 1_565
F33 Tm7 2.297362 1_545
F34 Tm4 2.297362 1_555
F35 Tm5 2.297362 1_555
F36 Tm3 2.282120 1_555
F37 Tm3 2.282120 1_565
F38 Tm2 2.282120 1_555
F39 Tm2 2.282120 1_555
F40 Tm1 2.282120 1_565
F41 Tm1 2.282120 1_555
F42 Tm0 2.282120 1_555
F43 Tm0 2.282120 1_555
F44 Tm9 2.262380 1_455
F45 Tm8 2.262380 1_455
F46 Tm11 2.262380 1_555
F47 Tm10 2.262380 1_555
F48 Tm5 2.262380 1_655
F49 Tm4 2.262380 1_655
F50 Tm7 2.262380 1_555
F51 Tm6 2.262380 1_555
F52 Tm11 2.144222 1_555
F52 Tm3 2.145621 1_555
F53 Tm10 2.144222 1_555
F53 Tm3 2.145621 1_565
F54 Tm9 2.144222 1_455
F54 Tm2 2.145621 1_555
F55 Tm8 2.144222 1_455
F55 Tm2 2.145621 1_555
F56 Tm7 2.144222 1_555
F56 Tm1 2.145621 1_565
F57 Tm6 2.144222 1_555
F57 Tm1 2.145621 1_555
F58 Tm5 2.144222 1_655
F58 Tm0 2.145621 1_555
F59 Tm4 2.144222 1_655
F59 Tm0 2.145621 1_555
F84 Tm5 2.275416 1_555
F85 Tm4 2.275416 1_555
F86 Tm7 2.275416 1_555
F87 Tm6 2.275416 1_555
F88 Tm9 2.275416 1_555
F89 Tm8 2.275416 1_555
F90 Tm11 2.275416 1_555
F91 Tm10 2.275416 1_555
F92 Tm11 2.289727 1_555
F93 Tm10 2.289727 1_555
F94 Tm9 2.289727 1_555
F95 Tm8 2.289727 1_555
F96 Tm7 2.289727 1_555
F97 Tm6 2.289727 1_555
F98 Tm5 2.289727 1_555
F99 Tm4 2.289727 1_555
F100 Tm9 2.251382 1_555
F101 Tm8 2.251382 1_555
F102 Tm11 2.251382 1_555
F103 Tm10 2.251382 1_555
F104 Tm5 2.251382 1_555
F105 Tm4 2.251382 1_555
F106 Tm7 2.251382 1_555
F107 Tm6 2.251382 1_555
