# generated using pymatgen
data_TmMgPd
_symmetry_space_group_name_H-M   'P 1'
_cell_length_a   7.29453609
_cell_length_b   7.29453609
_cell_length_c   4.06835797
_cell_angle_alpha   90.00000000
_cell_angle_beta   90.00000000
_cell_angle_gamma   120.00001004
_symmetry_Int_Tables_number   1
_chemical_formula_structural   TmMgPd
_chemical_formula_sum   'Tm3 Mg3 Pd3'
_cell_volume   187.47575059
_cell_formula_units_Z   3
loop_
 _symmetry_equiv_pos_site_id
 _symmetry_equiv_pos_as_xyz
  1  'x, y, z'
loop_
 _atom_site_type_symbol
 _atom_site_label
 _atom_site_symmetry_multiplicity
 _atom_site_fract_x
 _atom_site_fract_y
 _atom_site_fract_z
 _atom_site_occupancy
  Tm  Tm0  1  0.58892942  0.00000000  -0.00000000  1
  Tm  Tm1  1  0.00000000  0.58892942  0.00000000  1
  Tm  Tm2  1  0.41107058  0.41107058  0.00000000  1
  Mg  Mg0  1  0.24545802  0.00000000  0.50000000  1
  Mg  Mg1  1  0.00000000  0.24545802  0.50000000  1
  Mg  Mg2  1  0.75454198  0.75454198  0.50000000  1
  Pd  Pd0  1  0.33333300  0.66666700  0.50000000  1
  Pd  Pd1  1  0.66666700  0.33333300  0.50000000  1
  Pd  Pd2  1  0.00000000  -0.00000000  0.00000000  1
loop_
_geom_bond_atom_site_label_1
_geom_bond_atom_site_label_2
_geom_bond_distance
_geom_bond_site_symmetry_2
Mg0 Pd2 2.709941 1_556
Mg0 Pd2 2.709941 1_555
Mg0 Pd0 2.807445 1_545
Mg0 Pd1 2.807449 1_555
Mg1 Pd2 2.709941 1_556
Mg1 Pd2 2.709941 1_555
Mg1 Pd1 2.807445 1_455
Mg1 Pd0 2.807449 1_555
Mg2 Pd2 2.709941 1_666
Mg2 Pd2 2.709941 1_665
Mg2 Pd1 2.807451 1_555
Mg2 Pd0 2.807451 1_555
Pd0 Tm1 2.998811 1_555
Pd0 Tm1 2.998811 1_556
Pd0 Tm0 2.998813 1_565
Pd0 Tm0 2.998813 1_566
Pd0 Tm2 2.998817 1_555
Pd0 Tm2 2.998817 1_556
Pd1 Tm0 2.998811 1_555
Pd1 Tm0 2.998811 1_556
Pd1 Tm1 2.998813 1_656
Pd1 Tm1 2.998813 1_655
Pd1 Tm2 2.998817 1_555
Pd1 Tm2 2.998817 1_556
Pd2 Tm2 2.998569 1_555
Pd2 Tm0 2.998569 1_455
Pd2 Tm1 2.998569 1_545
