# generated using pymatgen
data_TlGeSbO5
_symmetry_space_group_name_H-M   'P 1'
_cell_length_a   6.77440568
_cell_length_b   10.95134065
_cell_length_c   13.60540559
_cell_angle_alpha   90.00000000
_cell_angle_beta   90.00000000
_cell_angle_gamma   90.00000000
_symmetry_Int_Tables_number   1
_chemical_formula_structural   TlGeSbO5
_chemical_formula_sum   'Tl8 Ge8 Sb8 O40'
_cell_volume   1009.36904489
_cell_formula_units_Z   8
loop_
 _symmetry_equiv_pos_site_id
 _symmetry_equiv_pos_as_xyz
  1  'x, y, z'
loop_
 _atom_site_type_symbol
 _atom_site_label
 _atom_site_symmetry_multiplicity
 _atom_site_fract_x
 _atom_site_fract_y
 _atom_site_fract_z
 _atom_site_occupancy
  Tl  Tl0  1  0.79476474  0.90391589  0.60801540  1
  Tl  Tl1  1  0.20523526  0.40391589  0.39198460  1
  Tl  Tl2  1  0.29476474  0.40391589  0.89198460  1
  Tl  Tl3  1  0.70523526  0.90391589  0.10801540  1
  Tl  Tl4  1  0.71532837  0.64577330  0.88803462  1
  Tl  Tl5  1  0.28467163  0.14577330  0.11196538  1
  Tl  Tl6  1  0.21532837  0.14577330  0.61196538  1
  Tl  Tl7  1  0.78467163  0.64577330  0.38803462  1
  Ge  Ge0  1  0.99233023  0.50101129  0.68149475  1
  Ge  Ge1  1  0.00766977  0.00101129  0.31850525  1
  Ge  Ge2  1  0.49233023  0.00101129  0.81850525  1
  Ge  Ge3  1  0.50766977  0.50101129  0.18149475  1
  Ge  Ge4  1  0.18331545  0.75071409  0.99676532  1
  Ge  Ge5  1  0.81668455  0.25071409  0.00323468  1
  Ge  Ge6  1  0.68331545  0.25071409  0.50323468  1
  Ge  Ge7  1  0.31668455  0.75071409  0.49676532  1
  Sb  Sb0  1  0.99463233  0.99980970  0.88067460  1
  Sb  Sb1  1  0.00536767  0.49980970  0.11932540  1
  Sb  Sb2  1  0.49463233  0.49980970  0.61932540  1
  Sb  Sb3  1  0.50536767  0.99980970  0.38067460  1
  Sb  Sb4  1  0.24656300  0.75504536  0.74505367  1
  Sb  Sb5  1  0.75343700  0.25504536  0.25494633  1
  Sb  Sb6  1  0.74656300  0.25504536  0.75494633  1
  Sb  Sb7  1  0.25343700  0.75504536  0.24505367  1
  O  O0  1  0.04024788  0.63164071  0.21889525  1
  O  O1  1  0.95975212  0.13164071  0.78110475  1
  O  O2  1  0.54024788  0.13164071  0.28110475  1
  O  O3  1  0.45975212  0.63164071  0.71889525  1
  O  O4  1  0.71068296  0.53161314  0.10292718  1
  O  O5  1  0.28931704  0.03161314  0.89707282  1
  O  O6  1  0.21068296  0.03161314  0.39707282  1
  O  O7  1  0.78931704  0.53161314  0.60292718  1
  O  O8  1  0.83544593  0.27097450  0.39854554  1
  O  O9  1  0.16455407  0.77097450  0.60145446  1
  O  O10  1  0.33544593  0.77097450  0.10145446  1
  O  O11  1  0.66455407  0.27097450  0.89854554  1
  O  O12  1  0.46084379  0.62723954  0.26132940  1
  O  O13  1  0.53915621  0.12723954  0.73867060  1
  O  O14  1  0.96084379  0.12723954  0.23867060  1
  O  O15  1  0.03915621  0.62723954  0.76132940  1
  O  O16  1  0.94812247  0.38625943  0.77255409  1
  O  O17  1  0.05187753  0.88625943  0.22744591  1
  O  O18  1  0.44812247  0.88625943  0.72744591  1
  O  O19  1  0.55187753  0.38625943  0.27255409  1
  O  O20  1  0.53462705  0.37754071  0.72585403  1
  O  O21  1  0.46537295  0.87754071  0.27414597  1
  O  O22  1  0.03462705  0.87754071  0.77414597  1
  O  O23  1  0.96537295  0.37754071  0.22585403  1
  O  O24  1  0.54211967  0.11460186  0.49411121  1
  O  O25  1  0.45788033  0.61460186  0.50588879  1
  O  O26  1  0.04211967  0.61460186  0.00588879  1
  O  O27  1  0.95788033  0.11460186  0.99411121  1
  O  O28  1  0.33064542  0.74030580  0.88902081  1
  O  O29  1  0.66935458  0.24030580  0.11097919  1
  O  O30  1  0.83064542  0.24030580  0.61097919  1
  O  O31  1  0.16935458  0.74030580  0.38902081  1
  O  O32  1  0.01003399  0.87062345  0.98562883  1
  O  O33  1  0.98996601  0.37062345  0.01437117  1
  O  O34  1  0.51003399  0.37062345  0.51437117  1
  O  O35  1  0.48996601  0.87062345  0.48562883  1
  O  O36  1  0.20158025  0.45923124  0.61178940  1
  O  O37  1  0.79841975  0.95923124  0.38821060  1
  O  O38  1  0.70158025  0.95923124  0.88821060  1
  O  O39  1  0.29841975  0.45923124  0.11178940  1
loop_
_geom_bond_atom_site_label_1
_geom_bond_atom_site_label_2
_geom_bond_distance
_geom_bond_site_symmetry_2
Ge0 O36 1.765839 1_655
Ge0 O7 1.773806 1_555
Ge0 O15 1.786439 1_655
Ge0 O16 1.789922 1_555
Ge1 O37 1.765839 1_445
Ge1 O6 1.773806 1_555
Ge1 O14 1.786439 1_455
Ge1 O17 1.789922 1_545
Ge2 O38 1.765839 1_545
Ge2 O5 1.773806 1_555
Ge2 O13 1.786439 1_555
Ge2 O18 1.789922 1_545
Ge3 O39 1.765839 1_555
Ge3 O4 1.773806 1_555
Ge3 O12 1.786439 1_555
Ge3 O19 1.789922 1_555
Ge4 O32 1.767869 1_555
Ge4 O10 1.772031 1_556
Ge4 O26 1.775459 1_556
Ge4 O28 1.777084 1_555
Ge5 O33 1.767869 1_555
Ge5 O11 1.772031 1_554
Ge5 O27 1.775459 1_554
Ge5 O29 1.777084 1_555
Ge6 O34 1.767869 1_555
Ge6 O8 1.772031 1_555
Ge6 O24 1.775459 1_555
Ge6 O30 1.777084 1_555
Ge7 O35 1.767869 1_555
Ge7 O9 1.772031 1_555
Ge7 O25 1.775459 1_555
Ge7 O31 1.777084 1_555
O0 Sb1 1.993830 1_555
O0 Sb7 2.009694 1_555
O0 Tl7 2.883953 1_455
O1 Sb0 1.993830 1_545
O1 Sb6 2.009694 1_555
O1 Tl6 2.883953 1_655
O2 Sb3 1.993830 1_545
O2 Sb5 2.009694 1_555
O2 Tl5 2.883953 1_555
O3 Sb2 1.993830 1_555
O3 Sb4 2.009694 1_555
O3 Tl4 2.883953 1_555
O4 Sb1 2.038713 1_655
O5 Sb0 2.038713 1_445
O6 Sb3 2.038713 1_545
O7 Sb2 2.038713 1_555
O8 Sb5 2.038657 1_555
O8 Tl1 2.898813 1_655
O9 Sb4 2.038657 1_555
O9 Tl0 2.898813 1_455
O10 Sb7 2.038657 1_555
O10 Tl3 2.898813 1_555
O11 Sb6 2.038657 1_555
O11 Tl2 2.898813 1_555
O12 Sb7 1.995552 1_555
O12 Tl7 2.797400 1_555
O13 Sb6 1.995552 1_555
O13 Tl6 2.797400 1_555
O14 Sb5 1.995552 1_555
O14 Tl5 2.797400 1_655
O15 Sb4 1.995552 1_555
O15 Tl4 2.797400 1_455
O16 Sb6 1.996676 1_555
O16 Tl2 2.862199 1_655
O17 Sb7 1.996676 1_555
O17 Tl3 2.862199 1_455
O18 Sb4 1.996676 1_555
O18 Tl0 2.862199 1_555
O19 Sb5 1.996676 1_555
O19 Tl1 2.862199 1_555
O20 Sb2 1.991737 1_555
O20 Sb6 2.004397 1_555
O20 Tl2 2.798687 1_555
O21 Sb3 1.991737 1_555
O21 Sb7 2.004397 1_555
O21 Tl3 2.798687 1_555
O22 Sb0 1.991737 1_455
O22 Sb4 2.004397 1_555
O22 Tl0 2.798687 1_455
O23 Sb1 1.991737 1_655
O23 Sb5 2.004397 1_555
O23 Tl1 2.798687 1_655
O24 Sb3 2.006064 1_545
O24 Tl6 2.754738 1_555
O25 Sb2 2.006064 1_555
O25 Tl7 2.754738 1_555
O26 Sb1 2.006064 1_555
O26 Tl4 2.754738 1_454
O27 Sb0 2.006064 1_545
O27 Tl5 2.754738 1_656
O28 Sb4 2.046250 1_555
O28 Tl4 2.804134 1_555
O29 Sb5 2.046250 1_555
O29 Tl5 2.804134 1_555
O30 Sb6 2.046250 1_555
O30 Tl6 2.804134 1_655
O31 Sb7 2.046250 1_555
O31 Tl7 2.804134 1_455
O32 Sb0 2.012825 1_455
O32 Tl3 2.677513 1_456
O33 Sb1 2.012825 1_655
O33 Tl2 2.677513 1_654
O34 Sb2 2.012825 1_555
O34 Tl1 2.677513 1_555
O35 Sb3 2.012825 1_555
O35 Tl0 2.677513 1_555
O36 Sb2 2.036965 1_555
O37 Sb3 2.036965 1_555
O38 Sb0 2.036965 1_555
O39 Sb1 2.036965 1_555
