# generated using pymatgen
data_Mn2Nb4Zn3O16
_symmetry_space_group_name_H-M   'P 1'
_cell_length_a   5.19240043
_cell_length_b   5.94566510
_cell_length_c   19.52166044
_cell_angle_alpha   94.81206470
_cell_angle_beta   90.46486666
_cell_angle_gamma   88.60485172
_symmetry_Int_Tables_number   1
_chemical_formula_structural   Mn2Nb4Zn3O16
_chemical_formula_sum   'Mn4 Nb8 Zn6 O32'
_cell_volume   600.36456100
_cell_formula_units_Z   2
loop_
 _symmetry_equiv_pos_site_id
 _symmetry_equiv_pos_as_xyz
  1  'x, y, z'
loop_
 _atom_site_type_symbol
 _atom_site_label
 _atom_site_symmetry_multiplicity
 _atom_site_fract_x
 _atom_site_fract_y
 _atom_site_fract_z
 _atom_site_occupancy
  Mn  Mn0  1  0.75363700  0.14195000  0.50294900  1
  Mn  Mn1  1  0.24234500  0.34751100  0.00156200  1
  Mn  Mn2  1  0.75373500  0.64172800  0.00293600  1
  Mn  Mn3  1  0.24229100  0.84754800  0.50158500  1
  Nb  Nb0  1  0.74813500  0.16504600  0.11134400  1
  Nb  Nb1  1  0.74805900  0.66511400  0.61135400  1
  Nb  Nb2  1  0.75847300  0.66302000  0.37399700  1
  Nb  Nb3  1  0.75859300  0.16295100  0.87395700  1
  Nb  Nb4  1  0.26594000  0.33760500  0.39052400  1
  Nb  Nb5  1  0.26597500  0.83749100  0.89051500  1
  Nb  Nb6  1  0.24245100  0.82993800  0.12639900  1
  Nb  Nb7  1  0.24238200  0.33003000  0.62641900  1
  Zn  Zn0  1  0.76524600  0.14322600  0.26765400  1
  Zn  Zn1  1  0.76526700  0.64315800  0.76763500  1
  Zn  Zn2  1  0.22730500  0.35113900  0.22223500  1
  Zn  Zn3  1  0.22727800  0.85119800  0.72225200  1
  Zn  Zn4  1  0.27660600  0.83749800  0.28221500  1
  Zn  Zn5  1  0.27663800  0.33748500  0.78221700  1
  O  O0  1  0.07177900  0.10586600  0.06607200  1
  O  O1  1  0.07176100  0.60589400  0.56608700  1
  O  O2  1  0.42236300  0.63006700  0.43421400  1
  O  O3  1  0.42238300  0.12996600  0.93420500  1
  O  O4  1  0.93866400  0.38974200  0.43140300  1
  O  O5  1  0.93869300  0.88972000  0.93140300  1
  O  O6  1  0.58550600  0.86555700  0.06730000  1
  O  O7  1  0.58556800  0.36568700  0.56731600  1
  O  O8  1  0.55423600  0.36958500  0.05723300  1
  O  O9  1  0.55421600  0.86952000  0.55726500  1
  O  O10  1  0.91957400  0.87946500  0.44778300  1
  O  O11  1  0.91984500  0.37941100  0.94772500  1
  O  O12  1  0.43928100  0.13343000  0.44482300  1
  O  O13  1  0.43928800  0.63337700  0.94485200  1
  O  O14  1  0.07815900  0.61114700  0.05561600  1
  O  O15  1  0.07815400  0.11120700  0.55562100  1
  O  O16  1  0.43735200  0.09796300  0.17739600  1
  O  O17  1  0.43758600  0.59803400  0.67744000  1
  O  O18  1  0.08042800  0.60576100  0.32578800  1
  O  O19  1  0.08062700  0.10555600  0.82572700  1
  O  O20  1  0.35115200  0.63926900  0.19496000  1
  O  O21  1  0.35114300  0.13929500  0.69495400  1
  O  O22  1  0.14178500  0.14789100  0.30613200  1
  O  O23  1  0.14184500  0.64782200  0.80614900  1
  O  O24  1  0.63571100  0.88420500  0.31692200  1
  O  O25  1  0.63572500  0.38409600  0.81685800  1
  O  O26  1  0.86271300  0.34708500  0.19082800  1
  O  O27  1  0.86265100  0.84717200  0.69083400  1
  O  O28  1  0.93917700  0.91282600  0.17524600  1
  O  O29  1  0.93908200  0.41283600  0.67527300  1
  O  O30  1  0.57705400  0.40012400  0.32523800  1
  O  O31  1  0.57701100  0.90016100  0.82522700  1
loop_
_geom_bond_atom_site_label_1
_geom_bond_atom_site_label_2
_geom_bond_distance
_geom_bond_site_symmetry_2
Mn0 O7 1.947028 1_555
Mn0 O15 1.979500 1_655
Mn0 O12 1.979584 1_555
Mn0 O10 2.001343 1_545
Mn0 O9 2.282071 1_545
Mn0 O4 2.341001 1_555
Mn1 O8 1.943929 1_555
Mn1 O11 1.983452 1_454
Mn1 O3 1.987876 1_554
Mn1 O14 1.992318 1_555
Mn1 O0 2.195031 1_555
Mn1 O13 2.361968 1_554
Mn2 O6 1.947695 1_555
Mn2 O14 1.979062 1_655
Mn2 O13 1.979512 1_554
Mn2 O11 2.001412 1_554
Mn2 O8 2.280771 1_555
Mn2 O5 2.341501 1_554
Mn3 O9 1.944147 1_555
Mn3 O10 1.984046 1_455
Mn3 O2 1.987902 1_555
Mn3 O15 1.992149 1_565
Mn3 O1 2.194891 1_555
Mn3 O12 2.362693 1_565
Nb0 O26 1.915117 1_555
Nb0 O0 1.916262 1_655
Nb0 O8 1.935741 1_555
Nb0 O6 2.104203 1_545
Nb0 O16 2.139440 1_555
Nb0 O28 2.238388 1_545
Nb1 O27 1.915137 1_555
Nb1 O1 1.916511 1_655
Nb1 O9 1.934818 1_555
Nb1 O7 2.103561 1_555
Nb1 O17 2.138621 1_555
Nb1 O29 2.238792 1_555
Nb2 O24 1.889633 1_555
Nb2 O18 1.933989 1_655
Nb2 O30 2.011014 1_555
Nb2 O10 2.037783 1_555
Nb2 O2 2.134160 1_555
Nb2 O4 2.232883 1_555
Nb3 O25 1.889934 1_555
Nb3 O19 1.934632 1_655
Nb3 O31 2.010723 1_545
Nb3 O11 2.037936 1_555
Nb3 O3 2.134960 1_555
Nb3 O5 2.232920 1_545
Nb4 O12 1.885368 1_555
Nb4 O4 1.890918 1_455
Nb4 O22 2.026939 1_555
Nb4 O2 2.054152 1_555
Nb4 O30 2.124675 1_555
Nb4 O18 2.304440 1_555
Nb5 O13 1.885509 1_555
Nb5 O5 1.891078 1_455
Nb5 O23 2.026376 1_555
Nb5 O3 2.054184 1_565
Nb5 O31 2.124606 1_555
Nb5 O19 2.304321 1_565
Nb6 O28 1.881397 1_455
Nb6 O20 1.899019 1_555
Nb6 O14 2.015605 1_555
Nb6 O16 2.085855 1_565
Nb6 O6 2.154429 1_555
Nb6 O0 2.258361 1_565
Nb7 O29 1.881480 1_455
Nb7 O21 1.898978 1_555
Nb7 O15 2.015759 1_555
Nb7 O17 2.086742 1_555
Nb7 O7 2.155075 1_555
Nb7 O1 2.258030 1_555
O16 Zn2 1.983967 1_555
O16 Zn0 2.443317 1_555
O17 Zn3 1.984440 1_555
O17 Zn1 2.441626 1_555
O18 Zn4 1.984596 1_555
O18 Zn2 2.532868 1_555
O19 Zn5 1.984378 1_555
O19 Zn3 2.530560 1_545
O20 Zn2 1.960630 1_555
O20 Zn4 2.022878 1_555
O21 Zn3 1.960642 1_545
O21 Zn5 2.022845 1_555
O22 Zn4 1.977809 1_545
O22 Zn0 2.088754 1_455
O22 Zn2 2.170238 1_555
O23 Zn5 1.977507 1_555
O23 Zn1 2.089190 1_455
O23 Zn3 2.170612 1_555
O24 Zn4 1.996527 1_555
O24 Zn0 2.014607 1_565
O25 Zn5 1.995952 1_555
O25 Zn1 2.014340 1_555
O26 Zn2 1.985260 1_655
O26 Zn0 2.078881 1_555
O27 Zn3 1.985496 1_655
O27 Zn1 2.078989 1_555
O28 Zn0 2.344791 1_565
O29 Zn1 2.343678 1_555
O30 Zn0 2.051499 1_555
O31 Zn1 2.052158 1_555
