# generated using pymatgen
data_Cs4Fe2O5
_symmetry_space_group_name_H-M   'P 1'
_cell_length_a   9.81883011
_cell_length_b   9.81883011
_cell_length_c   7.71181273
_cell_angle_alpha   83.73205196
_cell_angle_beta   83.73205196
_cell_angle_gamma   135.42832835
_symmetry_Int_Tables_number   1
_chemical_formula_structural   Cs4Fe2O5
_chemical_formula_sum   'Cs8 Fe4 O10'
_cell_volume   499.69147499
_cell_formula_units_Z   2
loop_
 _symmetry_equiv_pos_site_id
 _symmetry_equiv_pos_as_xyz
  1  'x, y, z'
loop_
 _atom_site_type_symbol
 _atom_site_label
 _atom_site_symmetry_multiplicity
 _atom_site_fract_x
 _atom_site_fract_y
 _atom_site_fract_z
 _atom_site_occupancy
  Cs  Cs0  1  0.46400433  0.53599567  0.25000000  1
  Cs  Cs1  1  0.53599567  0.46400433  0.75000000  1
  Cs  Cs2  1  0.01838442  0.98161558  0.25000000  1
  Cs  Cs3  1  0.98161558  0.01838442  0.75000000  1
  Cs  Cs4  1  0.83429780  0.47558896  0.38437307  1
  Cs  Cs5  1  0.52441104  0.16570220  0.11562693  1
  Cs  Cs6  1  0.16570220  0.52441104  0.61562693  1
  Cs  Cs7  1  0.47558896  0.83429780  0.88437307  1
  Fe  Fe0  1  0.99293118  0.30730103  0.09747455  1
  Fe  Fe1  1  0.69269897  0.00706882  0.40252545  1
  Fe  Fe2  1  0.00706882  0.69269897  0.90252545  1
  Fe  Fe3  1  0.30730103  0.99293118  0.59747455  1
  O  O0  1  0.96990477  0.27057641  0.35603953  1
  O  O1  1  0.72942359  0.03009523  0.14396047  1
  O  O2  1  0.03009523  0.72942359  0.64396047  1
  O  O3  1  0.27057641  0.96990477  0.85603953  1
  O  O4  1  0.00000000  0.50000000  -0.00000000  1
  O  O5  1  0.50000000  -0.00000000  0.50000000  1
  O  O6  1  0.80208479  0.64062741  0.03338648  1
  O  O7  1  0.35937259  0.19791521  0.46661352  1
  O  O8  1  0.19791521  0.35937259  0.96661352  1
  O  O9  1  0.64062741  0.80208479  0.53338648  1
loop_
_geom_bond_atom_site_label_1
_geom_bond_atom_site_label_2
_geom_bond_distance
_geom_bond_site_symmetry_2
Cs0 O7 2.901881 1_555
Cs0 O6 2.901881 1_555
Cs0 O8 3.198216 1_554
Cs0 O9 3.198216 1_555
Cs0 O1 3.413501 1_565
Cs0 O0 3.413501 1_455
Cs1 O9 2.901881 1_555
Cs1 O8 2.901881 1_555
Cs1 O7 3.198216 1_555
Cs1 O6 3.198216 1_556
Cs1 O2 3.413501 1_655
Cs1 O3 3.413501 1_545
Cs2 O9 3.116790 1_455
Cs2 O8 3.116790 1_564
Cs2 O7 3.221154 1_565
Cs2 O6 3.221154 1_455
Cs3 O7 3.116790 1_655
Cs3 O6 3.116790 1_546
Cs3 O8 3.221154 1_655
Cs3 O9 3.221154 1_545
Cs4 O2 3.003084 1_655
Cs4 O0 3.118332 1_555
Cs4 O4 3.118863 1_655
Cs4 O5 3.160521 1_555
Cs4 O6 3.164159 1_555
Cs4 O7 3.231674 1_555
Cs5 O3 3.003084 1_544
Cs5 O1 3.118332 1_555
Cs5 O5 3.118863 1_555
Cs5 O4 3.160521 1_655
Cs5 O7 3.164159 1_555
Cs5 O6 3.231674 1_555
Cs6 O0 3.003084 1_455
Cs6 O2 3.118332 1_555
Cs6 O4 3.118863 1_556
Cs6 O5 3.160521 1_565
Cs6 O8 3.164159 1_555
Cs6 O9 3.231674 1_555
Cs7 O1 3.003084 1_566
Cs7 O3 3.118332 1_555
Cs7 O5 3.118863 1_565
Cs7 O4 3.160521 1_556
Cs7 O9 3.164159 1_555
Cs7 O8 3.231674 1_555
Fe0 O8 1.818925 1_654
Fe0 O4 1.908082 1_655
Fe0 O1 1.944768 1_555
Fe0 O0 1.945662 1_555
Fe1 O9 1.818925 1_545
Fe1 O5 1.908082 1_555
Fe1 O0 1.944768 1_555
Fe1 O1 1.945662 1_555
Fe2 O6 1.818925 1_456
Fe2 O4 1.908082 1_556
Fe2 O3 1.944768 1_555
Fe2 O2 1.945662 1_555
Fe3 O7 1.818925 1_565
Fe3 O5 1.908082 1_565
Fe3 O2 1.944768 1_555
Fe3 O3 1.945662 1_555
