# generated using pymatgen
data_CaCuAsO5
_symmetry_space_group_name_H-M   'P 1'
_cell_length_a   5.69341800
_cell_length_b   7.54884600
_cell_length_c   9.68653900
_cell_angle_alpha   90.00000000
_cell_angle_beta   90.00000000
_cell_angle_gamma   90.00000000
_symmetry_Int_Tables_number   1
_chemical_formula_structural   CaCuAsO5
_chemical_formula_sum   'Ca4 Cu4 As4 O20'
_cell_volume   416.31519949
_cell_formula_units_Z   4
loop_
 _symmetry_equiv_pos_site_id
 _symmetry_equiv_pos_as_xyz
  1  'x, y, z'
loop_
 _atom_site_type_symbol
 _atom_site_label
 _atom_site_symmetry_multiplicity
 _atom_site_fract_x
 _atom_site_fract_y
 _atom_site_fract_z
 _atom_site_occupancy
  Ca  Ca0  1  0.48161800  0.66736500  0.32649100  1
  Ca  Ca1  1  0.01838200  0.33263500  0.82649100  1
  Ca  Ca2  1  0.51838200  0.16736500  0.17350900  1
  Ca  Ca3  1  0.98161800  0.83263500  0.67350900  1
  Cu  Cu0  1  0.74935400  0.74846400  0.99846600  1
  Cu  Cu1  1  0.75064600  0.25153600  0.49846600  1
  Cu  Cu2  1  0.25064600  0.24846400  0.50153400  1
  Cu  Cu3  1  0.24935400  0.75153600  0.00153400  1
  As  As0  1  0.98002600  0.40746200  0.16940000  1
  As  As1  1  0.51997400  0.59253800  0.66940000  1
  As  As2  1  0.01997400  0.90746200  0.33060000  1
  As  As3  1  0.48002600  0.09253800  0.83060000  1
  O  O0  1  0.00065500  0.58977500  0.04599400  1
  O  O1  1  0.49934500  0.41022500  0.54599400  1
  O  O2  1  0.99934500  0.08977500  0.45400600  1
  O  O3  1  0.50065500  0.91022500  0.95400600  1
  O  O4  1  0.90858100  0.23877900  0.06115300  1
  O  O5  1  0.59141900  0.76122100  0.56115300  1
  O  O6  1  0.09141900  0.73877900  0.43884700  1
  O  O7  1  0.40858100  0.26122100  0.93884700  1
  O  O8  1  0.24578000  0.39633100  0.24854400  1
  O  O9  1  0.25422000  0.60366900  0.74854400  1
  O  O10  1  0.75422000  0.89633100  0.25145600  1
  O  O11  1  0.74578000  0.10366900  0.75145600  1
  O  O12  1  0.74922200  0.43178700  0.27934700  1
  O  O13  1  0.75077800  0.56821300  0.77934700  1
  O  O14  1  0.25077800  0.93178700  0.22065300  1
  O  O15  1  0.24922200  0.06821300  0.72065300  1
  O  O16  1  0.49913200  0.63329800  0.07718600  1
  O  O17  1  0.00086800  0.36670200  0.57718600  1
  O  O18  1  0.50086800  0.13329800  0.42281400  1
  O  O19  1  0.99913200  0.86670200  0.92281400  1
loop_
_geom_bond_atom_site_label_1
_geom_bond_atom_site_label_2
_geom_bond_distance
_geom_bond_site_symmetry_2
Ca0 O12 2.385863 1_555
Ca0 O16 2.430603 1_555
Ca0 O10 2.434043 1_555
Ca0 O5 2.461625 1_555
Ca0 O6 2.531889 1_555
Ca0 O8 2.561070 1_555
Ca0 O14 2.600516 1_555
Ca0 O1 2.880786 1_555
Ca1 O13 2.385863 1_455
Ca1 O17 2.430603 1_555
Ca1 O11 2.434043 1_455
Ca1 O4 2.461625 1_456
Ca1 O7 2.531889 1_555
Ca1 O9 2.561070 1_555
Ca1 O15 2.600516 1_555
Ca1 O0 2.880786 1_556
Ca2 O14 2.385863 1_545
Ca2 O18 2.430603 1_555
Ca2 O8 2.434043 1_555
Ca2 O7 2.461625 1_554
Ca2 O4 2.531889 1_555
Ca2 O10 2.561070 1_545
Ca2 O12 2.600516 1_555
Ca2 O3 2.880786 1_544
Ca3 O15 2.385863 1_665
Ca3 O19 2.430603 1_555
Ca3 O9 2.434043 1_655
Ca3 O6 2.461625 1_655
Ca3 O5 2.531889 1_555
Ca3 O11 2.561070 1_565
Ca3 O13 2.600516 1_555
Ca3 O2 2.880786 1_565
Cu0 O19 1.831942 1_555
Cu0 O16 1.834880 1_556
Cu0 O3 1.918720 1_555
Cu0 O0 1.921988 1_656
Cu0 O13 2.521222 1_555
Cu1 O18 1.831942 1_555
Cu1 O17 1.834880 1_655
Cu1 O2 1.918720 1_555
Cu1 O1 1.921988 1_555
Cu1 O12 2.521222 1_555
Cu2 O17 1.831942 1_555
Cu2 O18 1.834880 1_555
Cu2 O1 1.918720 1_555
Cu2 O2 1.921988 1_455
Cu2 O15 2.521222 1_555
Cu3 O16 1.831942 1_555
Cu3 O19 1.834880 1_454
Cu3 O0 1.918720 1_555
Cu3 O3 1.921988 1_554
Cu3 O14 2.521222 1_555
As0 O8 1.698264 1_655
As0 O4 1.698924 1_555
As0 O12 1.701387 1_555
As0 O0 1.826689 1_655
As1 O9 1.698264 1_555
As1 O5 1.698924 1_555
As1 O13 1.701387 1_555
As1 O1 1.826689 1_555
As2 O10 1.698264 1_455
As2 O6 1.698924 1_555
As2 O14 1.701387 1_555
As2 O2 1.826689 1_465
As3 O11 1.698264 1_555
As3 O7 1.698924 1_555
As3 O15 1.701387 1_555
As3 O3 1.826689 1_545
