# generated using pymatgen
data_Zn4CN4
_symmetry_space_group_name_H-M   'P 1'
_cell_length_a   9.84449600
_cell_length_b   3.12518300
_cell_length_c   13.85837400
_cell_angle_alpha   90.00000000
_cell_angle_beta   90.00000000
_cell_angle_gamma   90.00000000
_symmetry_Int_Tables_number   1
_chemical_formula_structural   Zn4CN4
_chemical_formula_sum   'Zn16 C4 N16'
_cell_volume   426.36467711
_cell_formula_units_Z   4
loop_
 _symmetry_equiv_pos_site_id
 _symmetry_equiv_pos_as_xyz
  1  'x, y, z'
loop_
 _atom_site_type_symbol
 _atom_site_label
 _atom_site_symmetry_multiplicity
 _atom_site_fract_x
 _atom_site_fract_y
 _atom_site_fract_z
 _atom_site_occupancy
  Zn  Zn0  1  0.09959000  0.25000000  0.17071600  1
  Zn  Zn1  1  0.59959000  0.25000000  0.32928400  1
  Zn  Zn2  1  0.90041000  0.75000000  0.82928400  1
  Zn  Zn3  1  0.40041000  0.75000000  0.67071600  1
  Zn  Zn4  1  0.88277300  0.25000000  0.02114700  1
  Zn  Zn5  1  0.38277300  0.25000000  0.47885300  1
  Zn  Zn6  1  0.11722700  0.75000000  0.97885300  1
  Zn  Zn7  1  0.61722700  0.75000000  0.52114700  1
  Zn  Zn8  1  0.39212200  0.25000000  0.86212600  1
  Zn  Zn9  1  0.89212200  0.25000000  0.63787400  1
  Zn  Zn10  1  0.60787800  0.75000000  0.13787400  1
  Zn  Zn11  1  0.10787800  0.75000000  0.36212600  1
  Zn  Zn12  1  0.15417600  0.25000000  0.79228900  1
  Zn  Zn13  1  0.65417600  0.25000000  0.70771100  1
  Zn  Zn14  1  0.84582400  0.75000000  0.20771100  1
  Zn  Zn15  1  0.34582400  0.75000000  0.29228900  1
  C  C0  1  0.36848900  0.25000000  0.05668000  1
  C  C1  1  0.86848900  0.25000000  0.44332000  1
  C  C2  1  0.63151100  0.75000000  0.94332000  1
  C  C3  1  0.13151100  0.75000000  0.55668000  1
  N  N0  1  0.71686600  0.25000000  0.21698400  1
  N  N1  1  0.21686600  0.25000000  0.28301600  1
  N  N2  1  0.28313400  0.75000000  0.78301600  1
  N  N3  1  0.78313400  0.75000000  0.71698400  1
  N  N4  1  0.00324600  0.25000000  0.89293800  1
  N  N5  1  0.50324600  0.25000000  0.60706200  1
  N  N6  1  0.99675400  0.75000000  0.10706200  1
  N  N7  1  0.49675400  0.75000000  0.39293800  1
  N  N8  1  0.27233400  0.25000000  0.99797800  1
  N  N9  1  0.77233400  0.25000000  0.50202200  1
  N  N10  1  0.72766600  0.75000000  0.00202200  1
  N  N11  1  0.22766600  0.75000000  0.49797800  1
  N  N12  1  0.46430300  0.25000000  0.11283000  1
  N  N13  1  0.96430300  0.25000000  0.38717000  1
  N  N14  1  0.53569700  0.75000000  0.88717000  1
  N  N15  1  0.03569700  0.75000000  0.61283000  1
loop_
_geom_bond_atom_site_label_1
_geom_bond_atom_site_label_2
_geom_bond_distance
_geom_bond_site_symmetry_2
C0 N12 1.222790 1_555
C0 N8 1.248140 1_554
C1 N13 1.222790 1_555
C1 N9 1.248140 1_555
C2 N14 1.222790 1_555
C2 N10 1.248140 1_556
C3 N15 1.222790 1_555
C3 N11 1.248140 1_555
N0 Zn1 1.937777 1_555
N0 Zn14 2.017400 1_555
N0 Zn14 2.017400 1_545
N0 Zn10 2.189709 1_545
N0 Zn10 2.189709 1_555
N1 Zn0 1.937777 1_555
N1 Zn15 2.017400 1_545
N1 Zn15 2.017400 1_555
N1 Zn11 2.189709 1_555
N1 Zn11 2.189709 1_545
N2 Zn3 1.937777 1_555
N2 Zn12 2.017400 1_565
N2 Zn12 2.017400 1_555
N2 Zn8 2.189709 1_555
N2 Zn8 2.189709 1_565
N3 Zn2 1.937777 1_555
N3 Zn13 2.017400 1_555
N3 Zn13 2.017400 1_565
N3 Zn9 2.189709 1_565
N3 Zn9 2.189709 1_555
N4 Zn12 2.037951 1_555
N4 Zn2 2.060280 1_445
N4 Zn2 2.060280 1_455
N4 Zn4 2.136233 1_456
N4 Zn6 2.262387 1_545
N4 Zn6 2.262387 1_555
N5 Zn13 2.037951 1_555
N5 Zn3 2.060280 1_555
N5 Zn3 2.060280 1_545
N5 Zn5 2.136233 1_555
N5 Zn7 2.262387 1_545
N5 Zn7 2.262387 1_555
N6 Zn14 2.037951 1_555
N6 Zn0 2.060280 1_665
N6 Zn0 2.060280 1_655
N6 Zn6 2.136233 1_654
N6 Zn4 2.262387 1_555
N6 Zn4 2.262387 1_565
N7 Zn15 2.037951 1_555
N7 Zn1 2.060280 1_555
N7 Zn1 2.060280 1_565
N7 Zn7 2.136233 1_555
N7 Zn5 2.262387 1_565
N7 Zn5 2.262387 1_555
N8 Zn6 2.200799 1_555
N8 Zn6 2.200799 1_545
N8 Zn8 2.221520 1_555
N9 Zn7 2.200799 1_545
N9 Zn7 2.200799 1_555
N9 Zn9 2.221520 1_555
N10 Zn4 2.200799 1_565
N10 Zn4 2.200799 1_555
N10 Zn10 2.221520 1_555
N11 Zn5 2.200799 1_555
N11 Zn5 2.200799 1_565
N11 Zn11 2.221520 1_555
N12 Zn10 2.135396 1_555
N12 Zn10 2.135396 1_545
N13 Zn11 2.135396 1_645
N13 Zn11 2.135396 1_655
N14 Zn8 2.135396 1_565
N14 Zn8 2.135396 1_555
N15 Zn9 2.135396 1_455
N15 Zn9 2.135396 1_465
