# generated using pymatgen
data_Tm3Sc
_symmetry_space_group_name_H-M   'P 1'
_cell_length_a   7.00866712
_cell_length_b   7.00866567
_cell_length_c   5.42485096
_cell_angle_alpha   90.00000000
_cell_angle_beta   90.00000000
_cell_angle_gamma   120.00000451
_symmetry_Int_Tables_number   1
_chemical_formula_structural   Tm3Sc
_chemical_formula_sum   'Tm6 Sc2'
_cell_volume   230.77523422
_cell_formula_units_Z   2
loop_
 _symmetry_equiv_pos_site_id
 _symmetry_equiv_pos_as_xyz
  1  'x, y, z'
loop_
 _atom_site_type_symbol
 _atom_site_label
 _atom_site_symmetry_multiplicity
 _atom_site_fract_x
 _atom_site_fract_y
 _atom_site_fract_z
 _atom_site_occupancy
  Tm  Tm0  1  0.16854877  0.83145123  0.25000000  1
  Tm  Tm1  1  0.66290146  0.83145123  0.25000000  1
  Tm  Tm2  1  0.16854877  0.33709854  0.25000000  1
  Tm  Tm3  1  0.83145123  0.16854877  0.75000000  1
  Tm  Tm4  1  0.33709854  0.16854877  0.75000000  1
  Tm  Tm5  1  0.83145123  0.66290146  0.75000000  1
  Sc  Sc0  1  0.33333300  0.66666700  0.75000000  1
  Sc  Sc1  1  0.66666700  0.33333300  0.25000000  1
loop_
_geom_bond_atom_site_label_1
_geom_bond_atom_site_label_2
_geom_bond_distance
_geom_bond_site_symmetry_2
Tm0 Tm4 3.397598 1_564
Tm0 Tm4 3.397598 1_565
Tm0 Tm5 3.397599 1_455
Tm0 Tm5 3.397599 1_454
Tm0 Tm2 3.464753 1_555
Tm0 Tm1 3.464753 1_555
Tm0 Tm2 3.543913 1_565
Tm0 Tm1 3.543914 1_455
Tm1 Tm3 3.397598 1_564
Tm1 Tm3 3.397598 1_565
Tm1 Tm5 3.397606 1_554
Tm1 Tm5 3.397606 1_555
Tm1 Tm2 3.464753 1_555
Tm1 Tm2 3.543913 1_665
Tm2 Tm3 3.397599 1_454
Tm2 Tm3 3.397599 1_455
Tm2 Tm4 3.397606 1_555
Tm2 Tm4 3.397606 1_554
Tm3 Tm5 3.464753 1_555
Tm3 Tm4 3.464753 1_555
Tm3 Tm5 3.543913 1_545
Tm3 Tm4 3.543914 1_655
Tm4 Tm5 3.464753 1_555
Tm4 Tm5 3.543913 1_445
Sc0 Tm2 3.370275 1_556
Sc0 Tm2 3.370275 1_555
Sc0 Tm0 3.370275 1_555
Sc0 Tm0 3.370275 1_556
Sc0 Tm1 3.370276 1_556
Sc0 Tm1 3.370276 1_555
Sc0 Tm4 3.504400 1_565
Sc0 Tm5 3.504401 1_455
Sc0 Tm3 3.504407 1_565
Sc0 Tm3 3.504407 1_455
Sc0 Tm4 3.504414 1_555
Sc0 Tm5 3.504415 1_555
Sc1 Tm5 3.370275 1_554
Sc1 Tm5 3.370275 1_555
Sc1 Tm3 3.370275 1_554
Sc1 Tm3 3.370275 1_555
Sc1 Tm4 3.370276 1_554
Sc1 Tm4 3.370276 1_555
Sc1 Tm1 3.504400 1_545
Sc1 Tm2 3.504401 1_655
Sc1 Tm0 3.504407 1_545
Sc1 Tm0 3.504407 1_655
Sc1 Tm1 3.504414 1_555
Sc1 Tm2 3.504415 1_555
