# generated using pymatgen
data_BaLa3TiCr3O12
_symmetry_space_group_name_H-M   'P 1'
_cell_length_a   5.61784052
_cell_length_b   7.89747361
_cell_length_c   11.80098523
_cell_angle_alpha   70.45053936
_cell_angle_beta   90.00012818
_cell_angle_gamma   89.99981654
_symmetry_Int_Tables_number   1
_chemical_formula_structural   BaLa3TiCr3O12
_chemical_formula_sum   'Ba2 La6 Ti2 Cr6 O24'
_cell_volume   493.38900244
_cell_formula_units_Z   2
loop_
 _symmetry_equiv_pos_site_id
 _symmetry_equiv_pos_as_xyz
  1  'x, y, z'
loop_
 _atom_site_type_symbol
 _atom_site_label
 _atom_site_symmetry_multiplicity
 _atom_site_fract_x
 _atom_site_fract_y
 _atom_site_fract_z
 _atom_site_occupancy
  Ba  Ba0  1  0.50001000  0.25001200  0.99999200  1
  Ba  Ba1  1  0.50000200  0.74999500  0.99999400  1
  La  La0  1  0.50002700  0.00000600  0.50001100  1
  La  La1  1  0.50001400  0.50002400  0.49998700  1
  La  La2  1  0.99997600  0.12177900  0.25647000  1
  La  La3  1  0.99999800  0.62176200  0.25646900  1
  La  La4  1  0.99998600  0.87823600  0.74351700  1
  La  La5  1  0.00002100  0.37827000  0.74354100  1
  Ti  Ti0  1  0.00000000  0.50000500  0.00000000  1
  Ti  Ti1  1  0.00000000  0.00000100  0.99999800  1
  Cr  Cr0  1  0.00000400  0.25000000  0.50000100  1
  Cr  Cr1  1  0.50000300  0.87412700  0.25174000  1
  Cr  Cr2  1  0.49999900  0.62586900  0.74826400  1
  Cr  Cr3  1  0.00000400  0.75000000  0.49999900  1
  Cr  Cr4  1  0.50000000  0.37412000  0.25173900  1
  Cr  Cr5  1  0.49999200  0.12588100  0.74825600  1
  O  O0  1  0.99998600  0.99999500  0.50000400  1
  O  O1  1  0.00000800  0.49999900  0.50000300  1
  O  O2  1  0.99999000  0.25000100  0.99999600  1
  O  O3  1  0.99998900  0.74999500  0.99999500  1
  O  O4  1  0.50001100  0.88071100  0.73857300  1
  O  O5  1  0.49999500  0.38072400  0.73856900  1
  O  O6  1  0.50001100  0.11928000  0.26143300  1
  O  O7  1  0.50000900  0.61927800  0.26143500  1
  O  O8  1  0.24883500  0.81217700  0.37566100  1
  O  O9  1  0.24884300  0.31216600  0.37566500  1
  O  O10  1  0.75115200  0.18781900  0.62433600  1
  O  O11  1  0.75116300  0.68782200  0.62434300  1
  O  O12  1  0.24884000  0.68785200  0.62434000  1
  O  O13  1  0.24882400  0.18781600  0.62434800  1
  O  O14  1  0.75116800  0.31216100  0.37566300  1
  O  O15  1  0.75115400  0.81214700  0.37566700  1
  O  O16  1  0.23569600  0.06496900  0.87003300  1
  O  O17  1  0.23567900  0.56497800  0.87002700  1
  O  O18  1  0.76431000  0.93502200  0.12996900  1
  O  O19  1  0.76431800  0.43501100  0.12996800  1
  O  O20  1  0.76430200  0.56498300  0.87003200  1
  O  O21  1  0.76430000  0.06499100  0.87003300  1
  O  O22  1  0.23568700  0.43501500  0.12996500  1
  O  O23  1  0.23569300  0.93500100  0.12996500  1
loop_
_geom_bond_atom_site_label_1
_geom_bond_atom_site_label_2
_geom_bond_distance
_geom_bond_site_symmetry_2
Ba0 O2 2.808808 1_555
Ba0 O2 2.809033 1_455
Ba0 O20 2.862000 1_555
Ba0 O21 2.862054 1_555
Ba0 O17 2.862089 1_555
Ba0 O19 2.862130 1_556
Ba0 O18 2.862164 1_546
Ba0 O22 2.862169 1_556
Ba0 O16 2.862245 1_555
Ba0 O23 2.862328 1_546
Ba0 O5 2.907205 1_555
Ba0 O6 2.907405 1_556
Ba1 O3 2.808847 1_555
Ba1 O3 2.808993 1_455
Ba1 O16 2.862048 1_565
Ba1 O20 2.862059 1_555
Ba1 O23 2.862128 1_556
Ba1 O22 2.862148 1_556
Ba1 O21 2.862156 1_565
Ba1 O19 2.862169 1_556
Ba1 O17 2.862196 1_555
Ba1 O18 2.862274 1_556
Ba1 O4 2.907183 1_555
Ba1 O7 2.907405 1_556
La0 O4 2.652975 1_545
La0 O6 2.653153 1_555
La0 O10 2.792715 1_555
La0 O14 2.792902 1_555
La0 O12 2.792976 1_545
La0 O11 2.792995 1_545
La0 O13 2.793017 1_555
La0 O9 2.793036 1_555
La0 O15 2.793133 1_545
La0 O8 2.793202 1_545
La0 O0 2.808690 1_545
La0 O0 2.809151 1_445
La1 O7 2.652864 1_555
La1 O5 2.653197 1_555
La1 O15 2.792645 1_555
La1 O8 2.792928 1_555
La1 O11 2.792956 1_555
La1 O14 2.793066 1_555
La1 O9 2.793072 1_555
La1 O10 2.793164 1_555
La1 O12 2.793168 1_555
La1 O13 2.793373 1_555
La1 O1 2.808887 1_655
La1 O1 2.808954 1_555
La2 O0 2.708267 1_545
La2 O14 2.758301 1_555
La2 O9 2.758516 1_655
La2 O8 2.758570 1_645
La2 O15 2.758660 1_545
La2 O19 2.762099 1_555
La2 O22 2.762284 1_655
La2 O18 2.762291 1_545
La2 O23 2.762580 1_645
La2 O6 2.809266 1_555
La2 O6 2.809659 1_655
La2 O2 2.852169 1_554
La3 O1 2.708267 1_655
La3 O15 2.758462 1_555
La3 O14 2.758500 1_555
La3 O9 2.758509 1_655
La3 O8 2.758564 1_655
La3 O23 2.762255 1_655
La3 O19 2.762295 1_555
La3 O22 2.762321 1_655
La3 O18 2.762332 1_555
La3 O7 2.809402 1_555
La3 O7 2.809525 1_655
La3 O3 2.852169 1_554
La4 O0 2.708033 1_555
La4 O12 2.758313 1_655
La4 O13 2.758341 1_665
La4 O10 2.758366 1_565
La4 O11 2.758371 1_555
La4 O20 2.762335 1_555
La4 O17 2.762363 1_655
La4 O16 2.762402 1_665
La4 O21 2.762460 1_565
La4 O4 2.809318 1_555
La4 O4 2.809599 1_655
La4 O3 2.852213 1_555
La5 O1 2.708312 1_555
La5 O11 2.758302 1_455
La5 O12 2.758379 1_555
La5 O13 2.758694 1_555
La5 O10 2.758965 1_455
La5 O17 2.761866 1_555
La5 O20 2.762099 1_455
La5 O16 2.762506 1_555
La5 O21 2.762516 1_455
La5 O5 2.809319 1_555
La5 O5 2.809610 1_455
La5 O2 2.851957 1_455
Cr0 O14 1.966239 1_455
Cr0 O9 1.966243 1_555
Cr0 O13 1.966246 1_555
Cr0 O10 1.966287 1_455
Cr0 O1 1.974368 1_555
Cr0 O0 1.974396 1_445
Cr1 O15 1.972310 1_555
Cr1 O8 1.972339 1_555
Cr1 O6 1.977306 1_565
Cr1 O7 1.977321 1_555
Cr1 O18 2.009613 1_555
Cr1 O23 2.009649 1_555
Cr2 O12 1.972319 1_555
Cr2 O11 1.972323 1_555
Cr2 O5 1.977252 1_555
Cr2 O4 1.977279 1_555
Cr2 O20 2.009567 1_555
Cr2 O17 2.009607 1_555
Cr3 O8 1.966226 1_555
Cr3 O15 1.966248 1_455
Cr3 O12 1.966263 1_555
Cr3 O11 1.966313 1_455
Cr3 O0 1.974349 1_455
Cr3 O1 1.974361 1_555
Cr4 O9 1.972334 1_555
Cr4 O14 1.972355 1_555
Cr4 O6 1.977253 1_555
Cr4 O7 1.977359 1_555
Cr4 O22 2.009654 1_555
Cr4 O19 2.009659 1_555
Cr5 O13 1.972231 1_555
Cr5 O10 1.972299 1_555
Cr5 O5 1.977300 1_555
Cr5 O4 1.977394 1_545
Cr5 O16 2.009613 1_555
Cr5 O21 2.009655 1_555
O2 Ti1 1.974361 1_655
O2 Ti0 1.974416 1_656
O3 Ti0 1.974270 1_656
O3 Ti1 1.974428 1_665
O16 Ti1 1.960142 1_555
O17 Ti0 1.960143 1_556
O18 Ti1 1.960168 1_664
O19 Ti0 1.960113 1_655
O20 Ti0 1.960167 1_656
O21 Ti1 1.960150 1_655
O22 Ti0 1.960101 1_555
O23 Ti1 1.960140 1_564
