# generated using pymatgen
data_Ce2ZrSe5
_symmetry_space_group_name_H-M   'P 1'
_cell_length_a   7.72037200
_cell_length_b   8.46080600
_cell_length_c   12.03560800
_cell_angle_alpha   90.00000000
_cell_angle_beta   90.00000000
_cell_angle_gamma   90.00000000
_symmetry_Int_Tables_number   1
_chemical_formula_structural   Ce2ZrSe5
_chemical_formula_sum   'Ce8 Zr4 Se20'
_cell_volume   786.17277173
_cell_formula_units_Z   4
loop_
 _symmetry_equiv_pos_site_id
 _symmetry_equiv_pos_as_xyz
  1  'x, y, z'
loop_
 _atom_site_type_symbol
 _atom_site_label
 _atom_site_symmetry_multiplicity
 _atom_site_fract_x
 _atom_site_fract_y
 _atom_site_fract_z
 _atom_site_occupancy
  Ce  Ce0  1  0.45140600  0.49850100  0.17447800  1
  Ce  Ce1  1  0.04859400  0.00149900  0.67447800  1
  Ce  Ce2  1  0.54859400  0.99850100  0.82552200  1
  Ce  Ce3  1  0.95140600  0.50149900  0.32552200  1
  Ce  Ce4  1  0.54859400  0.50149900  0.82552200  1
  Ce  Ce5  1  0.95140600  0.99850100  0.32552200  1
  Ce  Ce6  1  0.45140600  0.00149900  0.17447800  1
  Ce  Ce7  1  0.04859400  0.49850100  0.67447800  1
  Zr  Zr0  1  0.92202200  0.75000000  0.00913000  1
  Zr  Zr1  1  0.57797800  0.75000000  0.50913000  1
  Zr  Zr2  1  0.07797800  0.25000000  0.99087000  1
  Zr  Zr3  1  0.42202200  0.25000000  0.49087000  1
  Se  Se0  1  0.15103800  0.75000000  0.19002100  1
  Se  Se1  1  0.34896200  0.75000000  0.69002100  1
  Se  Se2  1  0.84896200  0.25000000  0.80997900  1
  Se  Se3  1  0.65103800  0.25000000  0.30997900  1
  Se  Se4  1  0.67009400  0.75000000  0.28953800  1
  Se  Se5  1  0.82990600  0.75000000  0.78953800  1
  Se  Se6  1  0.32990600  0.25000000  0.71046200  1
  Se  Se7  1  0.17009400  0.25000000  0.21046200  1
  Se  Se8  1  0.55186700  0.75000000  0.00437700  1
  Se  Se9  1  0.94813300  0.75000000  0.50437700  1
  Se  Se10  1  0.44813300  0.25000000  0.99562300  1
  Se  Se11  1  0.05186700  0.25000000  0.49562300  1
  Se  Se12  1  0.82460900  0.46171700  0.07977200  1
  Se  Se13  1  0.67539100  0.03828300  0.57977200  1
  Se  Se14  1  0.17539100  0.96171700  0.92022800  1
  Se  Se15  1  0.32460900  0.53828300  0.42022800  1
  Se  Se16  1  0.17539100  0.53828300  0.92022800  1
  Se  Se17  1  0.32460900  0.96171700  0.42022800  1
  Se  Se18  1  0.82460900  0.03828300  0.07977200  1
  Se  Se19  1  0.67539100  0.46171700  0.57977200  1
loop_
_geom_bond_atom_site_label_1
_geom_bond_atom_site_label_2
_geom_bond_distance
_geom_bond_site_symmetry_2
Ce0 Se10 3.009158 1_554
Ce0 Se4 3.048958 1_555
Ce0 Se8 3.052991 1_555
Ce0 Se7 3.053688 1_555
Ce0 Se3 3.074998 1_555
Ce0 Se12 3.114129 1_555
Ce0 Se15 3.133666 1_555
Ce0 Se0 3.152844 1_555
Ce1 Se11 3.009158 1_555
Ce1 Se5 3.048958 1_445
Ce1 Se9 3.052991 1_445
Ce1 Se6 3.053688 1_555
Ce1 Se2 3.074998 1_455
Ce1 Se13 3.114129 1_455
Ce1 Se14 3.133666 1_545
Ce1 Se1 3.152844 1_545
Ce2 Se8 3.009158 1_556
Ce2 Se6 3.048958 1_565
Ce2 Se10 3.052991 1_565
Ce2 Se5 3.053688 1_555
Ce2 Se1 3.074998 1_555
Ce2 Se14 3.114129 1_555
Ce2 Se13 3.133666 1_565
Ce2 Se2 3.152844 1_565
Ce3 Se9 3.009158 1_555
Ce3 Se7 3.048958 1_655
Ce3 Se11 3.052991 1_655
Ce3 Se4 3.053688 1_555
Ce3 Se0 3.074998 1_655
Ce3 Se15 3.114129 1_655
Ce3 Se12 3.133666 1_555
Ce3 Se3 3.152844 1_555
Ce4 Se8 3.009158 1_556
Ce4 Se6 3.048958 1_555
Ce4 Se10 3.052991 1_555
Ce4 Se5 3.053688 1_555
Ce4 Se1 3.074998 1_555
Ce4 Se16 3.114129 1_555
Ce4 Se19 3.133666 1_555
Ce4 Se2 3.152844 1_555
Ce5 Se9 3.009158 1_555
Ce5 Se7 3.048958 1_665
Ce5 Se11 3.052991 1_665
Ce5 Se4 3.053688 1_555
Ce5 Se0 3.074998 1_655
Ce5 Se17 3.114129 1_655
Ce5 Se18 3.133666 1_565
Ce5 Se3 3.152844 1_565
Ce6 Se10 3.009158 1_554
Ce6 Se4 3.048958 1_545
Ce6 Se8 3.052991 1_545
Ce6 Se7 3.053688 1_555
Ce6 Se3 3.074998 1_555
Ce6 Se18 3.114129 1_555
Ce6 Se17 3.133666 1_545
Ce6 Se0 3.152844 1_545
Ce7 Se11 3.009158 1_555
Ce7 Se5 3.048958 1_455
Ce7 Se9 3.052991 1_455
Ce7 Se6 3.053688 1_555
Ce7 Se2 3.074998 1_455
Ce7 Se19 3.114129 1_455
Ce7 Se16 3.133666 1_555
Ce7 Se1 3.152844 1_555
Se0 Zr0 2.804647 1_455
Se1 Zr1 2.804647 1_555
Se2 Zr2 2.804647 1_655
Se3 Zr3 2.804647 1_555
Se4 Zr1 2.736934 1_555
Se5 Zr0 2.736934 1_556
Se6 Zr3 2.736934 1_555
Se7 Zr2 2.736934 1_554
Se8 Zr0 2.858307 1_555
Se9 Zr1 2.858307 1_555
Se10 Zr2 2.858307 1_555
Se11 Zr3 2.858307 1_555
Se12 Zr0 2.690300 1_555
Se12 Zr2 2.860063 1_654
Se13 Zr1 2.690300 1_545
Se13 Zr3 2.860063 1_555
Se14 Zr2 2.690300 1_565
Se14 Zr0 2.860063 1_456
Se15 Zr3 2.690300 1_555
Se15 Zr1 2.860063 1_555
Se16 Zr2 2.690300 1_555
Se16 Zr0 2.860063 1_456
Se17 Zr3 2.690300 1_565
Se17 Zr1 2.860063 1_555
Se18 Zr0 2.690300 1_545
Se18 Zr2 2.860063 1_654
Se19 Zr1 2.690300 1_555
Se19 Zr3 2.860063 1_555
