# generated using pymatgen
data_In7Ni3
_symmetry_space_group_name_H-M   'P 1'
_cell_length_a   7.96265622
_cell_length_b   7.96265622
_cell_length_c   7.96265622
_cell_angle_alpha   109.47122063
_cell_angle_beta   109.47122063
_cell_angle_gamma   109.47122063
_symmetry_Int_Tables_number   1
_chemical_formula_structural   In7Ni3
_chemical_formula_sum   'In14 Ni6'
_cell_volume   388.64403489
_cell_formula_units_Z   2
loop_
 _symmetry_equiv_pos_site_id
 _symmetry_equiv_pos_as_xyz
  1  'x, y, z'
loop_
 _atom_site_type_symbol
 _atom_site_label
 _atom_site_symmetry_multiplicity
 _atom_site_fract_x
 _atom_site_fract_y
 _atom_site_fract_z
 _atom_site_occupancy
  In  In0  1  0.75000000  0.25000000  0.50000000  1
  In  In1  1  0.25000000  0.75000000  0.50000000  1
  In  In2  1  0.25000000  0.50000000  0.75000000  1
  In  In3  1  0.75000000  0.50000000  0.25000000  1
  In  In4  1  0.50000000  0.75000000  0.25000000  1
  In  In5  1  0.50000000  0.25000000  0.75000000  1
  In  In6  1  0.67878394  0.67878394  0.67878394  1
  In  In7  1  0.32121606  0.32121606  0.32121606  1
  In  In8  1  0.32121606  -0.00000000  -0.00000000  1
  In  In9  1  0.00000000  0.32121606  0.00000000  1
  In  In10  1  0.67878394  0.00000000  0.00000000  1
  In  In11  1  0.00000000  0.67878394  -0.00000000  1
  In  In12  1  0.00000000  -0.00000000  0.32121606  1
  In  In13  1  0.00000000  0.00000000  0.67878394  1
  Ni  Ni0  1  0.64439058  0.64439058  -0.00000000  1
  Ni  Ni1  1  0.35560942  0.35560942  0.00000000  1
  Ni  Ni2  1  0.64439058  0.00000000  0.64439058  1
  Ni  Ni3  1  0.35560942  0.00000000  0.35560942  1
  Ni  Ni4  1  -0.00000000  0.64439058  0.64439058  1
  Ni  Ni5  1  0.00000000  0.35560942  0.35560942  1
loop_
_geom_bond_atom_site_label_1
_geom_bond_atom_site_label_2
_geom_bond_distance
_geom_bond_site_symmetry_2
In0 Ni5 2.654462 1_655
In0 Ni3 2.654462 1_555
In0 Ni4 2.654462 1_655
In0 Ni2 2.654462 1_555
In1 Ni3 2.654462 1_565
In1 Ni5 2.654462 1_555
In1 Ni2 2.654462 1_565
In1 Ni4 2.654462 1_555
In2 Ni0 2.654462 1_556
In2 Ni1 2.654462 1_556
In2 Ni5 2.654462 1_555
In2 Ni4 2.654462 1_555
In3 Ni5 2.654462 1_655
In3 Ni1 2.654462 1_555
In3 Ni0 2.654462 1_555
In3 Ni4 2.654462 1_655
In4 Ni3 2.654462 1_565
In4 Ni1 2.654462 1_555
In4 Ni0 2.654462 1_555
In4 Ni2 2.654462 1_565
In5 Ni3 2.654462 1_555
In5 Ni0 2.654462 1_556
In5 Ni1 2.654462 1_556
In5 Ni2 2.654462 1_555
In6 Ni4 2.752445 1_655
In6 Ni2 2.752445 1_565
In6 Ni0 2.752445 1_556
In6 In7 2.847190 1_555
In7 Ni5 2.752445 1_555
In7 Ni3 2.752445 1_555
In7 Ni1 2.752445 1_555
In7 In8 2.953416 1_555
In7 In9 2.953416 1_555
In8 Ni4 2.752445 1_544
In8 Ni3 2.752445 1_555
In8 Ni1 2.752445 1_555
In9 Ni2 2.752445 1_454
In9 Ni1 2.752445 1_555
In9 Ni5 2.752445 1_555
In10 Ni2 2.752445 1_554
In10 Ni5 2.752445 1_655
In10 Ni0 2.752445 1_545
In10 In8 2.847190 1_555
In10 In6 2.953416 1_544
In10 In9 2.953416 1_655
In10 In12 2.953416 1_655
In11 Ni0 2.752445 1_455
In11 Ni3 2.752445 1_565
In11 Ni4 2.752445 1_554
In11 In9 2.847190 1_555
In11 In6 2.953416 1_454
In11 In8 2.953416 1_565
In11 In12 2.953416 1_565
In12 Ni5 2.752445 1_555
In12 Ni0 2.752445 1_445
In12 Ni3 2.752445 1_555
In12 In13 2.847190 1_555
In12 In7 2.953416 1_555
In13 Ni1 2.752445 1_556
In13 Ni4 2.752445 1_545
In13 Ni2 2.752445 1_455
In13 In6 2.953416 1_445
In13 In8 2.953416 1_556
In13 In9 2.953416 1_556
Ni0 Ni1 2.655194 1_555
Ni2 Ni3 2.655194 1_555
Ni4 Ni5 2.655194 1_555
