# generated using pymatgen
data_Nd(Co5Mo)2
_symmetry_space_group_name_H-M   'P 1'
_cell_length_a   4.69915200
_cell_length_b   6.46939121
_cell_length_c   6.46939121
_cell_angle_alpha   97.42899672
_cell_angle_beta   111.29583353
_cell_angle_gamma   68.70416647
_symmetry_Int_Tables_number   1
_chemical_formula_structural   Nd(Co5Mo)2
_chemical_formula_sum   'Nd1 Co10 Mo2'
_cell_volume   170.73124290
_cell_formula_units_Z   1
loop_
 _symmetry_equiv_pos_site_id
 _symmetry_equiv_pos_as_xyz
  1  'x, y, z'
loop_
 _atom_site_type_symbol
 _atom_site_label
 _atom_site_symmetry_multiplicity
 _atom_site_fract_x
 _atom_site_fract_y
 _atom_site_fract_z
 _atom_site_occupancy
  Nd  Nd0  1  0.00000000  0.00000000  0.00000000  1
  Co  Co0  1  0.71607500  0.78392500  0.21607500  1
  Co  Co1  1  0.28392500  0.21607500  0.78392500  1
  Co  Co2  1  0.50000000  0.77524600  0.77524600  1
  Co  Co3  1  0.50000000  0.22475400  0.22475400  1
  Co  Co4  1  0.50000000  0.00000000  0.50000000  1
  Co  Co5  1  0.00000000  0.00000000  0.50000000  1
  Co  Co6  1  0.50000000  0.50000000  0.00000000  1
  Co  Co7  1  0.00000000  0.50000000  0.00000000  1
  Co  Co8  1  0.63938200  0.36061800  0.63938200  1
  Co  Co9  1  0.36061800  0.63938200  0.36061800  1
  Mo  Mo0  1  0.00000000  0.35931000  0.35931000  1
  Mo  Mo1  1  0.00000000  0.64069000  0.64069000  1
loop_
_geom_bond_atom_site_label_1
_geom_bond_atom_site_label_2
_geom_bond_distance
_geom_bond_site_symmetry_2
Co0 Co6 2.453304 1_555
Co0 Co4 2.453304 1_565
Co0 Co7 2.453304 1_655
Co0 Co5 2.453304 1_665
Co0 Co9 2.652191 1_555
Co0 Co9 2.652191 1_655
Co0 Co3 2.657833 1_565
Co0 Co2 2.657833 1_554
Co0 Mo1 2.698671 1_655
Co0 Mo0 2.698671 1_655
Co0 Nd0 2.983780 1_665
Co0 Nd0 2.983780 1_565
Co1 Co5 2.453304 1_555
Co1 Co6 2.453304 1_556
Co1 Co4 2.453304 1_555
Co1 Co7 2.453304 1_556
Co1 Co8 2.652191 1_555
Co1 Co8 2.652191 1_455
Co1 Co3 2.657833 1_556
Co1 Co2 2.657833 1_545
Co1 Mo0 2.698671 1_555
Co1 Mo1 2.698671 1_555
Co1 Nd0 2.983780 1_556
Co1 Nd0 2.983780 1_656
Co2 Co4 2.440188 1_565
Co2 Co5 2.440188 1_565
Co2 Co6 2.440188 1_556
Co2 Co7 2.440188 1_656
Co2 Mo1 2.615354 1_555
Co2 Mo1 2.615354 1_655
Co2 Co8 2.632318 1_555
Co2 Co9 2.632318 1_555
Co2 Nd0 3.033504 1_566
Co2 Nd0 3.033504 1_666
Co3 Co7 2.440188 1_555
Co3 Co6 2.440188 1_555
Co3 Co5 2.440188 1_655
Co3 Co4 2.440188 1_555
Co3 Mo0 2.615354 1_555
Co3 Mo0 2.615354 1_655
Co3 Co8 2.632318 1_555
Co3 Co9 2.632318 1_555
Co3 Nd0 3.033504 1_655
Co3 Nd0 3.033504 1_555
Co4 Co5 2.349576 1_555
Co4 Co5 2.349576 1_655
Co4 Mo1 2.603636 1_645
Co4 Mo0 2.603636 1_555
Co4 Co9 2.611858 1_545
Co4 Co8 2.611858 1_555
Co4 Nd0 3.234696 1_555
Co4 Nd0 3.234696 1_656
Co5 Mo1 2.603636 1_545
Co5 Mo0 2.603636 1_555
Co5 Co9 2.611858 1_545
Co5 Co8 2.611858 1_455
Co5 Nd0 3.234696 1_555
Co5 Nd0 3.234696 1_556
Co6 Co7 2.349576 1_555
Co6 Co7 2.349576 1_655
Co6 Mo0 2.603636 1_655
Co6 Mo1 2.603636 1_554
Co6 Co8 2.611858 1_554
Co6 Co9 2.611858 1_555
Co6 Nd0 3.234696 1_565
Co6 Nd0 3.234696 1_655
Co7 Mo1 2.603636 1_554
Co7 Mo0 2.603636 1_555
Co7 Co8 2.611858 1_454
Co7 Co9 2.611858 1_555
Co7 Nd0 3.234696 1_555
Co7 Nd0 3.234696 1_565
Co8 Co9 2.372722 1_555
Co8 Mo0 2.893196 1_555
Co8 Mo1 2.893196 1_555
Co8 Mo1 2.893196 1_655
Co8 Mo0 2.893196 1_655
Co8 Nd0 3.069429 1_656
Co9 Mo0 2.893196 1_555
Co9 Mo1 2.893196 1_555
Co9 Mo1 2.893196 1_655
Co9 Mo0 2.893196 1_655
Co9 Nd0 3.069429 1_565
Mo0 Mo1 2.402186 1_555
Mo0 Nd0 3.067486 1_555
Mo1 Nd0 3.067486 1_566
