# generated using pymatgen
data_CeSe2
_symmetry_space_group_name_H-M   'P 1'
_cell_length_a   10.63688791
_cell_length_b   10.63688791
_cell_length_c   10.63688844
_cell_angle_alpha   116.94697131
_cell_angle_beta   116.94697131
_cell_angle_gamma   116.94697215
_symmetry_Int_Tables_number   1
_chemical_formula_structural   CeSe2
_chemical_formula_sum   'Ce6 Se12'
_cell_volume   535.24928133
_cell_formula_units_Z   6
loop_
 _symmetry_equiv_pos_site_id
 _symmetry_equiv_pos_as_xyz
  1  'x, y, z'
loop_
 _atom_site_type_symbol
 _atom_site_label
 _atom_site_symmetry_multiplicity
 _atom_site_fract_x
 _atom_site_fract_y
 _atom_site_fract_z
 _atom_site_occupancy
  Ce  Ce0  1  0.07123100  0.42876900  0.25000000  1
  Ce  Ce1  1  0.42876900  0.25000000  0.07123100  1
  Ce  Ce2  1  0.25000000  0.07123100  0.42876900  1
  Ce  Ce3  1  0.57123100  0.75000000  0.92876900  1
  Ce  Ce4  1  0.75000000  0.92876900  0.57123100  1
  Ce  Ce5  1  0.92876900  0.57123100  0.75000000  1
  Se  Se0  1  0.25000000  0.37278100  0.12721900  1
  Se  Se1  1  0.37278100  0.12721900  0.25000000  1
  Se  Se2  1  0.12721900  0.25000000  0.37278100  1
  Se  Se3  1  0.75000000  0.62721900  0.87278100  1
  Se  Se4  1  0.62721900  0.87278100  0.75000000  1
  Se  Se5  1  0.87278100  0.75000000  0.62721900  1
  Se  Se6  1  0.00000000  0.50000000  0.50000000  1
  Se  Se7  1  0.50000000  0.50000000  0.00000000  1
  Se  Se8  1  0.50000000  0.00000000  0.50000000  1
  Se  Se9  1  0.50000000  0.00000000  0.00000000  1
  Se  Se10  1  0.00000000  0.00000000  0.50000000  1
  Se  Se11  1  0.00000000  0.50000000  0.00000000  1
loop_
_geom_bond_atom_site_label_1
_geom_bond_atom_site_label_2
_geom_bond_distance
_geom_bond_site_symmetry_2
Ce0 Se2 2.872013 1_555
Ce0 Se0 2.872013 1_555
Ce0 Se6 2.956334 1_555
Ce0 Se11 2.956334 1_555
Ce0 Se4 2.996543 1_555
Ce0 Se4 2.996543 1_444
Ce1 Se0 2.872013 1_555
Ce1 Se1 2.872013 1_555
Ce1 Se9 2.956334 1_555
Ce1 Se7 2.956334 1_555
Ce1 Se5 2.996543 1_444
Ce1 Se5 2.996543 1_555
Ce2 Se2 2.872013 1_555
Ce2 Se1 2.872013 1_555
Ce2 Se8 2.956334 1_555
Ce2 Se10 2.956334 1_555
Ce2 Se3 2.996543 1_555
Ce2 Se3 2.996543 1_444
Ce3 Se3 2.872013 1_555
Ce3 Se4 2.872013 1_555
Ce3 Se9 2.956334 1_566
Ce3 Se7 2.956334 1_556
Ce3 Se2 2.996543 1_666
Ce3 Se2 2.996543 1_555
Ce4 Se5 2.872013 1_555
Ce4 Se4 2.872013 1_555
Ce4 Se8 2.956334 1_565
Ce4 Se10 2.956334 1_665
Ce4 Se0 2.996543 1_555
Ce4 Se0 2.996543 1_666
Ce5 Se3 2.872013 1_555
Ce5 Se5 2.872013 1_555
Ce5 Se11 2.956334 1_656
Ce5 Se6 2.956334 1_655
Ce5 Se1 2.996543 1_555
Ce5 Se1 2.996543 1_666
