# generated using pymatgen
data_B3Pb10Br3O13
_symmetry_space_group_name_H-M   'P 1'
_cell_length_a   9.63424163
_cell_length_b   9.63424163
_cell_length_c   17.15770530
_cell_angle_alpha   68.44708365
_cell_angle_beta   68.44708365
_cell_angle_gamma   56.44077236
_symmetry_Int_Tables_number   1
_chemical_formula_structural   B3Pb10Br3O13
_chemical_formula_sum   'B6 Pb20 Br6 O26'
_cell_volume   1206.25951788
_cell_formula_units_Z   2
loop_
 _symmetry_equiv_pos_site_id
 _symmetry_equiv_pos_as_xyz
  1  'x, y, z'
loop_
 _atom_site_type_symbol
 _atom_site_label
 _atom_site_symmetry_multiplicity
 _atom_site_fract_x
 _atom_site_fract_y
 _atom_site_fract_z
 _atom_site_occupancy
  B  B0  1  0.87915800  0.72693900  0.18723400  1
  B  B1  1  0.27592500  0.11788500  0.30624000  1
  B  B2  1  0.11788500  0.27592500  0.80624000  1
  B  B3  1  0.72693900  0.87915800  0.68723400  1
  B  B4  1  0.49620800  0.99995500  0.00552800  1
  B  B5  1  0.99995500  0.49620800  0.50552800  1
  Pb  Pb0  1  0.93162700  0.85602000  0.00242200  1
  Pb  Pb1  1  0.15064600  0.06545100  0.49482600  1
  Pb  Pb2  1  0.06545100  0.15064600  0.99482600  1
  Pb  Pb3  1  0.85602000  0.93162700  0.50242200  1
  Pb  Pb4  1  0.34492000  0.83555500  0.83673800  1
  Pb  Pb5  1  0.16309600  0.65393500  0.66427900  1
  Pb  Pb6  1  0.65393500  0.16309600  0.16427900  1
  Pb  Pb7  1  0.83555500  0.34492000  0.33673800  1
  Pb  Pb8  1  0.36582900  0.67849800  0.06581300  1
  Pb  Pb9  1  0.32795700  0.61868300  0.44218500  1
  Pb  Pb10  1  0.61868300  0.32795700  0.94218500  1
  Pb  Pb11  1  0.67849800  0.36582900  0.56581300  1
  Pb  Pb12  1  0.52912700  0.14368000  0.80077000  1
  Pb  Pb13  1  0.82854500  0.48069600  0.70908200  1
  Pb  Pb14  1  0.48069600  0.82854500  0.20908200  1
  Pb  Pb15  1  0.14368000  0.52912700  0.30077000  1
  Pb  Pb16  1  0.76497000  0.67410800  0.89747800  1
  Pb  Pb17  1  0.32462200  0.24030300  0.59998100  1
  Pb  Pb18  1  0.24030300  0.32462200  0.09998100  1
  Pb  Pb19  1  0.67410800  0.76497000  0.39747800  1
  Br  Br0  1  0.23674000  0.53798400  0.88969000  1
  Br  Br1  1  0.47052300  0.76053100  0.60706100  1
  Br  Br2  1  0.76053100  0.47052300  0.10706100  1
  Br  Br3  1  0.53798400  0.23674000  0.38969000  1
  Br  Br4  1  0.94846900  0.04654700  0.75316000  1
  Br  Br5  1  0.04654700  0.94846900  0.25316000  1
  O  O0  1  0.27191100  0.14214300  0.82856500  1
  O  O1  1  0.86035800  0.72783500  0.66155600  1
  O  O2  1  0.72783500  0.86035800  0.16155600  1
  O  O3  1  0.14214300  0.27191100  0.32856500  1
  O  O4  1  0.17371600  0.88179000  0.96804500  1
  O  O5  1  0.12622200  0.82267400  0.53140600  1
  O  O6  1  0.82267400  0.12622200  0.03140600  1
  O  O7  1  0.88179000  0.17371600  0.46804500  1
  O  O8  1  0.53950600  0.63412300  0.92922900  1
  O  O9  1  0.38064200  0.45374800  0.57843700  1
  O  O10  1  0.45374800  0.38064200  0.07843700  1
  O  O11  1  0.63412300  0.53950600  0.42922900  1
  O  O12  1  0.03136700  0.67846900  0.12766100  1
  O  O13  1  0.32529400  0.97038500  0.36880500  1
  O  O14  1  0.97038500  0.32529400  0.86880500  1
  O  O15  1  0.67846900  0.03136700  0.62766100  1
  O  O16  1  0.64370500  0.87709400  0.77332100  1
  O  O17  1  0.11059300  0.36059800  0.72019900  1
  O  O18  1  0.36059800  0.11059300  0.22019900  1
  O  O19  1  0.87709400  0.64370500  0.27332100  1
  O  O20  1  0.57571000  0.94974300  0.92693400  1
  O  O21  1  0.94974300  0.57571000  0.42693400  1
  O  O22  1  0.89758700  0.44262900  0.57489800  1
  O  O23  1  0.44262900  0.89758700  0.07489800  1
  O  O24  1  0.15168000  0.47015000  0.51085600  1
  O  O25  1  0.47015000  0.15168000  0.01085600  1
loop_
_geom_bond_atom_site_label_1
_geom_bond_atom_site_label_2
_geom_bond_distance
_geom_bond_site_symmetry_2
B0 O12 1.380417 1_655
B0 O19 1.396760 1_555
B0 O2 1.398485 1_555
B1 O13 1.380228 1_545
B1 O3 1.396530 1_555
B1 O18 1.406340 1_555
B2 O14 1.380228 1_455
B2 O0 1.396530 1_555
B2 O17 1.406340 1_555
B3 O15 1.380417 1_565
B3 O16 1.396760 1_555
B3 O1 1.398485 1_555
B4 O25 1.372481 1_565
B4 O23 1.380130 1_555
B4 O20 1.396382 1_554
B5 O24 1.372481 1_655
B5 O22 1.380130 1_555
B5 O21 1.396382 1_555
Br0 Pb4 3.290090 1_555
Br0 Pb10 3.363045 1_555
Br0 Pb18 3.436392 1_556
Br0 Pb0 3.462569 1_456
Br1 Pb5 3.358076 1_555
Br1 Pb11 3.389296 1_555
Br1 Pb19 3.402577 1_555
Br1 Pb1 3.468456 1_565
Br2 Pb6 3.358076 1_555
Br2 Pb8 3.389296 1_555
Br2 Pb16 3.402577 1_554
Br2 Pb2 3.468456 1_654
Br3 Pb7 3.290090 1_555
Br3 Pb9 3.363045 1_555
Br3 Pb17 3.436392 1_555
Br3 Pb3 3.462569 1_545
O0 Pb12 2.352792 1_555
O0 Pb4 2.590395 1_545
O1 Pb13 2.371649 1_555
O1 Pb5 2.606869 1_655
O1 Pb3 2.714039 1_555
O2 Pb14 2.371649 1_555
O2 Pb6 2.606869 1_565
O2 Pb0 2.714039 1_555
O3 Pb15 2.352792 1_555
O3 Pb7 2.590395 1_455
O4 Pb4 2.278040 1_555
O4 Pb0 2.317593 1_456
O4 Pb2 2.354497 1_565
O4 Pb8 2.436190 1_556
O5 Pb5 2.280352 1_555
O5 Pb1 2.311166 1_565
O5 Pb3 2.381657 1_455
O5 Pb9 2.405137 1_555
O6 Pb6 2.280352 1_555
O6 Pb2 2.311166 1_654
O6 Pb0 2.381657 1_545
O6 Pb10 2.405137 1_554
O7 Pb7 2.278040 1_555
O7 Pb3 2.317593 1_545
O7 Pb1 2.354497 1_655
O7 Pb11 2.436190 1_555
O8 Pb16 2.250565 1_555
O8 Pb8 2.353423 1_556
O8 Pb4 2.387412 1_555
O8 Pb10 2.546974 1_555
O9 Pb17 2.275656 1_555
O9 Pb9 2.344906 1_555
O9 Pb5 2.373115 1_555
O9 Pb11 2.447422 1_555
O10 Pb18 2.275656 1_555
O10 Pb10 2.344906 1_554
O10 Pb6 2.373115 1_555
O10 Pb8 2.447422 1_555
O11 Pb19 2.250565 1_555
O11 Pb11 2.353423 1_555
O11 Pb7 2.387412 1_555
O11 Pb9 2.546974 1_555
O12 Pb0 2.337946 1_455
O13 Pb1 2.328821 1_565
O14 Pb2 2.328821 1_655
O15 Pb3 2.337946 1_545
O16 Pb12 2.325728 1_565
O16 Pb16 2.443163 1_555
O17 Pb13 2.345537 1_455
O17 Pb17 2.416391 1_555
O18 Pb14 2.345537 1_545
O18 Pb18 2.416391 1_555
O19 Pb15 2.325728 1_655
O19 Pb19 2.443163 1_555
O20 Pb12 2.278900 1_565
O20 Pb16 2.363820 1_555
O21 Pb15 2.278900 1_655
O21 Pb19 2.363820 1_555
O22 Pb13 2.258980 1_555
O22 Pb11 2.660869 1_555
O23 Pb14 2.258980 1_555
O23 Pb8 2.660869 1_555
O24 Pb17 2.307152 1_555
O24 Pb9 2.509613 1_555
O25 Pb18 2.307152 1_555
O25 Pb10 2.509613 1_554
