# generated using pymatgen
data_ReRu2(NCl)10
_symmetry_space_group_name_H-M   'P 1'
_cell_length_a   7.41426988
_cell_length_b   7.41426988
_cell_length_c   13.11170394
_cell_angle_alpha   79.54256703
_cell_angle_beta   79.54256703
_cell_angle_gamma   65.15157331
_symmetry_Int_Tables_number   1
_chemical_formula_structural   ReRu2(NCl)10
_chemical_formula_sum   'Re1 Ru2 N10 Cl10'
_cell_volume   638.69020372
_cell_formula_units_Z   1
loop_
 _symmetry_equiv_pos_site_id
 _symmetry_equiv_pos_as_xyz
  1  'x, y, z'
loop_
 _atom_site_type_symbol
 _atom_site_label
 _atom_site_symmetry_multiplicity
 _atom_site_fract_x
 _atom_site_fract_y
 _atom_site_fract_z
 _atom_site_occupancy
  Re  Re0  1  0.00000000  0.00000000  0.50000000  1
  Ru  Ru0  1  0.40794600  0.40794600  0.82184600  1
  Ru  Ru1  1  0.59205400  0.59205400  0.17815400  1
  N  N0  1  0.18666000  0.32710000  0.71190100  1
  N  N1  1  0.32710000  0.18666000  0.71190100  1
  N  N2  1  0.81334000  0.67290000  0.28809900  1
  N  N3  1  0.67290000  0.81334000  0.28809900  1
  N  N4  1  0.19173800  0.53888100  0.89655100  1
  N  N5  1  0.53888100  0.19173800  0.89655100  1
  N  N6  1  0.80826200  0.46111900  0.10344900  1
  N  N7  1  0.46111900  0.80826200  0.10344900  1
  N  N8  1  0.55678100  0.55678100  0.78305300  1
  N  N9  1  0.44321900  0.44321900  0.21694700  1
  Cl  Cl0  1  0.18862500  0.18862500  0.47787300  1
  Cl  Cl1  1  0.81137500  0.81137500  0.52212700  1
  Cl  Cl2  1  0.97844800  0.97844800  0.68116400  1
  Cl  Cl3  1  0.02155200  0.02155200  0.31883600  1
  Cl  Cl4  1  0.29197500  0.70802500  0.50000000  1
  Cl  Cl5  1  0.70802500  0.29197500  0.50000000  1
  Cl  Cl6  1  0.07940800  0.07940800  0.96638300  1
  Cl  Cl7  1  0.92059200  0.92059200  0.03361700  1
  Cl  Cl8  1  0.67278500  0.67278500  0.81596600  1
  Cl  Cl9  1  0.32721500  0.32721500  0.18403400  1
loop_
_geom_bond_atom_site_label_1
_geom_bond_atom_site_label_2
_geom_bond_distance
_geom_bond_site_symmetry_2
N0 N1 1.121259 1_555
N0 Ru0 2.669830 1_555
N1 Ru0 2.669830 1_555
N2 N3 1.121259 1_555
N2 Ru1 2.669830 1_555
N3 Ru1 2.669830 1_555
N4 Ru0 1.714311 1_555
N5 Ru0 1.714311 1_555
N6 Ru1 1.714311 1_555
N7 Ru1 1.714311 1_555
N8 Ru0 1.819358 1_555
N9 Ru1 1.819358 1_555
Cl0 Re0 2.311939 1_555
Cl1 Re0 2.311939 1_665
Cl2 Re0 2.332237 1_665
Cl3 Re0 2.332237 1_555
Cl4 Re0 2.331100 1_565
Cl5 Re0 2.331100 1_655
Cl6 Cl7 1.990432 1_446
Cl8 N8 1.599034 1_555
Cl9 N9 1.599034 1_555
