# generated using pymatgen
data_Ca2NbN3
_symmetry_space_group_name_H-M   'P 1'
_cell_length_a   6.28399176
_cell_length_b   6.28399176
_cell_length_c   11.63418690
_cell_angle_alpha   90.00000000
_cell_angle_beta   90.00000000
_cell_angle_gamma   124.80987092
_symmetry_Int_Tables_number   1
_chemical_formula_structural   Ca2NbN3
_chemical_formula_sum   'Ca8 Nb4 N12'
_cell_volume   377.20489299
_cell_formula_units_Z   4
loop_
 _symmetry_equiv_pos_site_id
 _symmetry_equiv_pos_as_xyz
  1  'x, y, z'
loop_
 _atom_site_type_symbol
 _atom_site_label
 _atom_site_symmetry_multiplicity
 _atom_site_fract_x
 _atom_site_fract_y
 _atom_site_fract_z
 _atom_site_occupancy
  Ca  Ca0  1  0.53484049  0.46515951  0.64905196  1
  Ca  Ca1  1  0.46515951  0.53484049  0.35094804  1
  Ca  Ca2  1  0.96515951  0.03484049  0.14905196  1
  Ca  Ca3  1  0.03484049  0.96515951  0.85094804  1
  Ca  Ca4  1  0.87287836  0.12712164  0.57940021  1
  Ca  Ca5  1  0.12712164  0.87287836  0.42059979  1
  Ca  Ca6  1  0.62712164  0.37287836  0.07940021  1
  Ca  Ca7  1  0.37287836  0.62712164  0.92059979  1
  Nb  Nb0  1  0.75358478  0.24641522  0.84179097  1
  Nb  Nb1  1  0.24641522  0.75358478  0.15820903  1
  Nb  Nb2  1  0.74641522  0.25358478  0.34179097  1
  Nb  Nb3  1  0.25358478  0.74641522  0.65820903  1
  N  N0  1  0.84128409  0.15871591  0.98210517  1
  N  N1  1  0.15871591  0.84128409  0.01789483  1
  N  N2  1  0.65871591  0.34128409  0.48210517  1
  N  N3  1  0.34128409  0.65871591  0.51789483  1
  N  N4  1  0.58004405  0.41995595  0.86271648  1
  N  N5  1  0.41995595  0.58004405  0.13728352  1
  N  N6  1  0.91995595  0.08004405  0.36271648  1
  N  N7  1  0.08004405  0.91995595  0.63728352  1
  N  N8  1  0.57669978  0.92330022  0.75000000  1
  N  N9  1  0.92330022  0.57669978  0.25000000  1
  N  N10  1  0.42330022  0.07669978  0.25000000  1
  N  N11  1  0.07669978  0.42330022  0.75000000  1
loop_
_geom_bond_atom_site_label_1
_geom_bond_atom_site_label_2
_geom_bond_distance
_geom_bond_site_symmetry_2
Ca0 N2 2.382484 1_555
Ca0 N4 2.536290 1_555
Ca0 N3 2.641258 1_555
Ca0 N7 2.957263 1_655
Ca0 N7 2.957263 1_545
Ca0 N11 2.978638 1_555
Ca0 N8 2.978638 1_555
Ca1 N3 2.382484 1_555
Ca1 N5 2.536290 1_555
Ca1 N2 2.641258 1_555
Ca1 N6 2.957263 1_565
Ca1 N6 2.957263 1_455
Ca1 N9 2.978638 1_555
Ca1 N10 2.978638 1_555
Ca2 N0 2.382484 1_554
Ca2 N6 2.536290 1_555
Ca2 N1 2.641258 1_645
Ca2 N5 2.957263 1_545
Ca2 N5 2.957263 1_655
Ca2 N10 2.978638 1_655
Ca2 N9 2.978638 1_545
Ca3 N1 2.382484 1_556
Ca3 N7 2.536290 1_555
Ca3 N0 2.641258 1_465
Ca3 N4 2.957263 1_455
Ca3 N4 2.957263 1_565
Ca3 N8 2.978638 1_455
Ca3 N11 2.978638 1_565
Ca4 N7 2.403732 1_645
Ca4 N11 2.514406 1_655
Ca4 N8 2.514406 1_545
Ca4 N6 2.574896 1_555
Ca4 N2 2.640352 1_555
Ca4 N3 3.018117 1_655
Ca4 N3 3.018117 1_545
Ca5 N6 2.403732 1_465
Ca5 N9 2.514406 1_455
Ca5 N10 2.514406 1_565
Ca5 N7 2.574896 1_555
Ca5 N3 2.640352 1_555
Ca5 N2 3.018117 1_565
Ca5 N2 3.018117 1_455
Ca6 N5 2.403732 1_555
Ca6 N10 2.514406 1_555
Ca6 N9 2.514406 1_555
Ca6 N4 2.574896 1_554
Ca6 N0 2.640352 1_554
Ca6 N1 3.018117 1_655
Ca6 N1 3.018117 1_545
Ca7 N4 2.403732 1_555
Ca7 N8 2.514406 1_555
Ca7 N11 2.514406 1_555
Ca7 N5 2.574896 1_556
Ca7 N1 2.640352 1_556
Ca7 N0 3.018117 1_565
Ca7 N0 3.018117 1_455
N0 Nb0 1.902379 1_555
N1 Nb1 1.902379 1_555
N2 Nb2 1.902379 1_555
N3 Nb3 1.902379 1_555
N4 Nb0 1.948218 1_555
N5 Nb1 1.948218 1_555
N6 Nb2 1.948218 1_555
N7 Nb3 1.948218 1_555
N8 Nb3 1.980388 1_555
N8 Nb0 1.980388 1_565
N9 Nb1 1.980388 1_655
N9 Nb2 1.980388 1_555
N10 Nb1 1.980388 1_545
N10 Nb2 1.980388 1_555
N11 Nb3 1.980388 1_555
N11 Nb0 1.980388 1_455
