# generated using pymatgen
data_Sr2PrGaO5
_symmetry_space_group_name_H-M   'P 1'
_cell_length_a   6.85739518
_cell_length_b   6.85739518
_cell_length_c   7.48949711
_cell_angle_alpha   62.65812147
_cell_angle_beta   62.65812147
_cell_angle_gamma   89.81248967
_symmetry_Int_Tables_number   1
_chemical_formula_structural   Sr2PrGaO5
_chemical_formula_sum   'Sr4 Pr2 Ga2 O10'
_cell_volume   268.09109136
_cell_formula_units_Z   2
loop_
 _symmetry_equiv_pos_site_id
 _symmetry_equiv_pos_as_xyz
  1  'x, y, z'
loop_
 _atom_site_type_symbol
 _atom_site_label
 _atom_site_symmetry_multiplicity
 _atom_site_fract_x
 _atom_site_fract_y
 _atom_site_fract_z
 _atom_site_occupancy
  Sr  Sr0  1  0.25000000  0.25000000  0.50000000  1
  Sr  Sr1  1  0.75000000  0.75000000  0.50000000  1
  Sr  Sr2  1  0.82554900  0.67445100  0.00000000  1
  Sr  Sr3  1  0.17445100  0.32554900  0.00000000  1
  Pr  Pr0  1  0.67889000  0.17889000  0.00000000  1
  Pr  Pr1  1  0.32111000  0.82111000  0.00000000  1
  Ga  Ga0  1  0.75229700  0.25229700  0.49540600  1
  Ga  Ga1  1  0.24770300  0.74770300  0.50459400  1
  O  O0  1  0.50000000  0.50000000  0.00000000  1
  O  O1  1  0.00000000  0.00000000  0.00000000  1
  O  O2  1  0.21715800  0.99856400  0.28427800  1
  O  O3  1  0.49856400  0.71715800  0.28427800  1
  O  O4  1  0.00392000  0.50392000  0.28972300  1
  O  O5  1  0.70635600  0.20635600  0.28972300  1
  O  O6  1  0.78284200  0.00143600  0.71572200  1
  O  O7  1  0.50143600  0.28284200  0.71572200  1
  O  O8  1  0.99608000  0.49608000  0.71027700  1
  O  O9  1  0.29364400  0.79364400  0.71027700  1
loop_
_geom_bond_atom_site_label_1
_geom_bond_atom_site_label_2
_geom_bond_distance
_geom_bond_site_symmetry_2
Ga0 O7 1.852971 1_555
Ga0 O6 1.852971 1_555
Ga0 O4 1.861111 1_655
Ga0 O5 1.861118 1_555
Ga1 O2 1.852971 1_555
Ga1 O3 1.852971 1_555
Ga1 O8 1.861111 1_455
Ga1 O9 1.861118 1_555
O0 Pr0 2.517115 1_555
O0 Pr1 2.517115 1_555
O0 Sr2 2.536189 1_555
O0 Sr3 2.536189 1_555
O0 Sr0 2.850601 1_555
O0 Sr1 2.850601 1_554
O1 Pr0 2.517115 1_455
O1 Pr1 2.517115 1_545
O1 Sr2 2.536189 1_445
O1 Sr3 2.536189 1_555
O1 Sr1 2.850601 1_445
O1 Sr0 2.850601 1_554
O2 Sr3 2.414470 1_565
O2 Pr1 2.738993 1_555
O2 Pr0 2.738994 1_565
O2 Sr0 2.920550 1_565
O2 Sr1 2.920550 1_455
O3 Sr2 2.414470 1_555
O3 Pr1 2.738993 1_555
O3 Pr0 2.738994 1_565
O3 Sr1 2.920550 1_555
O3 Sr0 2.920550 1_555
O4 Pr1 2.351686 1_555
O4 Sr2 2.769439 1_455
O4 Sr3 2.769439 1_555
O4 Sr1 2.874480 1_455
O4 Sr0 2.874480 1_555
O5 Pr0 2.351679 1_555
O5 Sr3 2.769444 1_655
O5 Sr2 2.769444 1_555
O5 Sr1 2.874476 1_545
O5 Sr0 2.874476 1_555
O6 Sr2 2.414470 1_546
O6 Pr0 2.738993 1_556
O6 Pr1 2.738994 1_546
O6 Sr1 2.920550 1_545
O6 Sr0 2.920550 1_655
O7 Sr3 2.414470 1_556
O7 Pr0 2.738993 1_556
O7 Pr1 2.738994 1_546
O7 Sr0 2.920550 1_555
O7 Sr1 2.920550 1_555
O8 Pr0 2.351686 1_556
O8 Sr3 2.769439 1_656
O8 Sr2 2.769439 1_556
O8 Sr1 2.874480 1_555
O8 Sr0 2.874480 1_655
O9 Pr1 2.351679 1_556
O9 Sr3 2.769444 1_556
O9 Sr2 2.769444 1_456
O9 Sr0 2.874476 1_565
O9 Sr1 2.874476 1_555
