# generated using pymatgen
data_Yb2ZnSe4
_symmetry_space_group_name_H-M   'P 1'
_cell_length_a   8.16989761
_cell_length_b   8.16989761
_cell_length_c   8.16989761
_cell_angle_alpha   60.00000000
_cell_angle_beta   60.00000000
_cell_angle_gamma   60.00000000
_symmetry_Int_Tables_number   1
_chemical_formula_structural   Yb2ZnSe4
_chemical_formula_sum   'Yb4 Zn2 Se8'
_cell_volume   385.59806245
_cell_formula_units_Z   2
loop_
 _symmetry_equiv_pos_site_id
 _symmetry_equiv_pos_as_xyz
  1  'x, y, z'
loop_
 _atom_site_type_symbol
 _atom_site_label
 _atom_site_symmetry_multiplicity
 _atom_site_fract_x
 _atom_site_fract_y
 _atom_site_fract_z
 _atom_site_occupancy
  Yb  Yb0  1  0.12500000  0.62500000  0.62500000  1
  Yb  Yb1  1  0.62500000  0.12500000  0.62500000  1
  Yb  Yb2  1  0.62500000  0.62500000  0.12500000  1
  Yb  Yb3  1  0.62500000  0.62500000  0.62500000  1
  Zn  Zn0  1  0.25000000  0.25000000  0.25000000  1
  Zn  Zn1  1  0.00000000  0.00000000  0.00000000  1
  Se  Se0  1  0.87886700  0.37371100  0.37371100  1
  Se  Se1  1  0.37371100  0.87886700  0.37371100  1
  Se  Se2  1  0.37371100  0.37371100  0.87886700  1
  Se  Se3  1  0.37371100  0.37371100  0.37371100  1
  Se  Se4  1  0.37113300  0.87628900  0.87628900  1
  Se  Se5  1  0.87628900  0.37113300  0.87628900  1
  Se  Se6  1  0.87628900  0.87628900  0.37113300  1
  Se  Se7  1  0.87628900  0.87628900  0.87628900  1
loop_
_geom_bond_atom_site_label_1
_geom_bond_atom_site_label_2
_geom_bond_distance
_geom_bond_site_symmetry_2
Se0 Zn0 2.475714 1_655
Se0 Yb3 2.903464 1_555
Se0 Yb2 2.903464 1_555
Se0 Yb1 2.903464 1_555
Se1 Zn0 2.475714 1_565
Se1 Yb3 2.903464 1_555
Se1 Yb2 2.903464 1_555
Se1 Yb0 2.903464 1_555
Se2 Zn0 2.475714 1_556
Se2 Yb3 2.903464 1_555
Se2 Yb0 2.903464 1_555
Se2 Yb1 2.903464 1_555
Se3 Zn0 2.475714 1_555
Se3 Yb2 2.903464 1_555
Se3 Yb0 2.903464 1_555
Se3 Yb1 2.903464 1_555
Se4 Zn1 2.475714 1_566
Se4 Yb3 2.903464 1_555
Se4 Yb1 2.903464 1_565
Se4 Yb2 2.903464 1_556
Se5 Zn1 2.475714 1_656
Se5 Yb3 2.903464 1_555
Se5 Yb0 2.903464 1_655
Se5 Yb2 2.903464 1_556
Se6 Zn1 2.475714 1_665
Se6 Yb3 2.903464 1_555
Se6 Yb0 2.903464 1_655
Se6 Yb1 2.903464 1_565
Se7 Zn1 2.475714 1_666
Se7 Yb0 2.903464 1_655
Se7 Yb1 2.903464 1_565
Se7 Yb2 2.903464 1_556
