# generated using pymatgen
data_Sr5Ca3Mn4(FeO5)4
_symmetry_space_group_name_H-M   'P 1'
_cell_length_a   11.10754103
_cell_length_b   11.21553474
_cell_length_c   17.66070303
_cell_angle_alpha   108.45263906
_cell_angle_beta   108.47657351
_cell_angle_gamma   90.00751091
_symmetry_Int_Tables_number   1
_chemical_formula_structural   Sr5Ca3Mn4(FeO5)4
_chemical_formula_sum   'Sr20 Ca12 Mn16 Fe16 O80'
_cell_volume   1967.04793212
_cell_formula_units_Z   4
loop_
 _symmetry_equiv_pos_site_id
 _symmetry_equiv_pos_as_xyz
  1  'x, y, z'
loop_
 _atom_site_type_symbol
 _atom_site_label
 _atom_site_symmetry_multiplicity
 _atom_site_fract_x
 _atom_site_fract_y
 _atom_site_fract_z
 _atom_site_occupancy
  Sr  Sr0  1  0.30791600  0.05807500  0.60842100  1
  Sr  Sr1  1  0.30691700  0.55854100  0.60876300  1
  Sr  Sr2  1  0.80768700  0.05888300  0.60911100  1
  Sr  Sr3  1  0.80917600  0.55856200  0.61032800  1
  Sr  Sr4  1  0.19623000  0.43919500  0.38721000  1
  Sr  Sr5  1  0.19900100  0.44205100  0.89329700  1
  Sr  Sr6  1  0.69691800  0.44004100  0.38776300  1
  Sr  Sr7  1  0.69682300  0.94008100  0.38769000  1
  Sr  Sr8  1  0.70000400  0.94089400  0.89311600  1
  Sr  Sr9  1  0.05910600  0.30065900  0.60972200  1
  Sr  Sr10  1  0.05877100  0.80142400  0.60983600  1
  Sr  Sr11  1  0.55810900  0.30152400  0.61026800  1
  Sr  Sr12  1  0.55796200  0.80098000  0.60943600  1
  Sr  Sr13  1  0.44687600  0.19813700  0.38784500  1
  Sr  Sr14  1  0.45071500  0.20266100  0.89373900  1
  Sr  Sr15  1  0.44651700  0.69798500  0.38723500  1
  Sr  Sr16  1  0.44922900  0.70112800  0.89303300  1
  Sr  Sr17  1  0.94682400  0.19763800  0.38752000  1
  Sr  Sr18  1  0.94960400  0.20176800  0.89322400  1
  Sr  Sr19  1  0.94702200  0.69847700  0.38731900  1
  Ca  Ca0  1  0.30445100  0.06259900  0.10464800  1
  Ca  Ca1  1  0.30359700  0.56361300  0.10515000  1
  Ca  Ca2  1  0.80441000  0.06280700  0.10457800  1
  Ca  Ca3  1  0.80471700  0.56314500  0.10490100  1
  Ca  Ca4  1  0.20083500  0.93866600  0.39316200  1
  Ca  Ca5  1  0.20253600  0.93984500  0.89809700  1
  Ca  Ca6  1  0.70355500  0.44089300  0.89791400  1
  Ca  Ca7  1  0.05479600  0.29216100  0.10600400  1
  Ca  Ca8  1  0.05610100  0.79277000  0.10624600  1
  Ca  Ca9  1  0.55407300  0.29186000  0.10540200  1
  Ca  Ca10  1  0.55557100  0.79208100  0.10493200  1
  Ca  Ca11  1  0.95370700  0.70823800  0.89811000  1
  Mn  Mn0  1  0.10646300  0.09133600  0.24599000  1
  Mn  Mn1  1  0.11342400  0.09573100  0.75335700  1
  Mn  Mn2  1  0.10758300  0.59768100  0.24467100  1
  Mn  Mn3  1  0.11109000  0.60295900  0.75418300  1
  Mn  Mn4  1  0.60591900  0.09221000  0.24503600  1
  Mn  Mn5  1  0.61318100  0.10145300  0.75218300  1
  Mn  Mn6  1  0.60736800  0.59357100  0.24465800  1
  Mn  Mn7  1  0.61593400  0.59647600  0.75363500  1
  Mn  Mn8  1  0.35668300  0.40153300  0.24457100  1
  Mn  Mn9  1  0.36522200  0.40425400  0.75200300  1
  Mn  Mn10  1  0.35317000  0.90187200  0.24629400  1
  Mn  Mn11  1  0.36034100  0.90441800  0.75366900  1
  Mn  Mn12  1  0.85768200  0.40217800  0.24502700  1
  Mn  Mn13  1  0.86090900  0.40887800  0.75549500  1
  Mn  Mn14  1  0.85886500  0.90045100  0.24461900  1
  Mn  Mn15  1  0.86556300  0.90028100  0.75255400  1
  Fe  Fe0  1  0.00758200  0.00082800  0.00378400  1
  Fe  Fe1  1  0.00259000  0.99890600  0.49733900  1
  Fe  Fe2  1  0.00589300  0.50226200  0.00310600  1
  Fe  Fe3  1  0.00201400  0.49968900  0.49875800  1
  Fe  Fe4  1  0.50641300  0.00150300  0.00424200  1
  Fe  Fe5  1  0.50193000  0.99930900  0.49765400  1
  Fe  Fe6  1  0.50754600  0.50196400  0.00437300  1
  Fe  Fe7  1  0.50290000  0.49948400  0.49888100  1
  Fe  Fe8  1  0.25649200  0.25164300  0.00420200  1
  Fe  Fe9  1  0.25181600  0.24796600  0.49740300  1
  Fe  Fe10  1  0.25599700  0.75303900  0.00407400  1
  Fe  Fe11  1  0.25164700  0.74896600  0.49751100  1
  Fe  Fe12  1  0.75748800  0.25357700  0.00513500  1
  Fe  Fe13  1  0.75283400  0.24996600  0.49939700  1
  Fe  Fe14  1  0.75738400  0.75062900  0.00253900  1
  Fe  Fe15  1  0.75270600  0.74895800  0.49864800  1
  O  O0  1  0.12520100  0.11937500  0.49166700  1
  O  O1  1  0.12778900  0.11964800  0.99343000  1
  O  O2  1  0.12430100  0.62316200  0.49391800  1
  O  O3  1  0.12275400  0.62590200  0.99270200  1
  O  O4  1  0.62478900  0.12359800  0.49522800  1
  O  O5  1  0.62753800  0.12474900  0.99717200  1
  O  O6  1  0.62461600  0.62336300  0.49485300  1
  O  O7  1  0.62909900  0.62032000  0.99370800  1
  O  O8  1  0.13583800  0.38080500  0.01518900  1
  O  O9  1  0.12871400  0.37565400  0.50344300  1
  O  O10  1  0.13527600  0.87996900  0.01213800  1
  O  O11  1  0.12943700  0.87624200  0.50088800  1
  O  O12  1  0.63654400  0.38124300  0.01402900  1
  O  O13  1  0.62878700  0.37572600  0.50249800  1
  O  O14  1  0.63614100  0.87960800  0.01466000  1
  O  O15  1  0.62890300  0.87596300  0.50310900  1
  O  O16  1  0.37078200  0.11728300  0.49056500  1
  O  O17  1  0.37349700  0.11778600  0.99343300  1
  O  O18  1  0.37453600  0.62223100  0.49479700  1
  O  O19  1  0.37737200  0.62319600  0.99743500  1
  O  O20  1  0.87570700  0.12217900  0.49559600  1
  O  O21  1  0.87765500  0.12167500  0.99606600  1
  O  O22  1  0.87469300  0.62209700  0.49442500  1
  O  O23  1  0.87470900  0.61960200  0.99040100  1
  O  O24  1  0.38651200  0.38307400  0.01439800  1
  O  O25  1  0.37908600  0.37660500  0.50295500  1
  O  O26  1  0.38516300  0.88423600  0.01438800  1
  O  O27  1  0.37742500  0.87740500  0.50170100  1
  O  O28  1  0.88389900  0.38520000  0.01351700  1
  O  O29  1  0.87875900  0.37679600  0.50274000  1
  O  O30  1  0.88744500  0.88124400  0.01320900  1
  O  O31  1  0.87920700  0.87719900  0.50254100  1
  O  O32  1  0.08580500  0.09320700  0.13625300  1
  O  O33  1  0.07917300  0.07913400  0.63772800  1
  O  O34  1  0.08120700  0.59805100  0.13395500  1
  O  O35  1  0.07125500  0.58237900  0.63696100  1
  O  O36  1  0.58133700  0.09643000  0.13539200  1
  O  O37  1  0.57375300  0.08214500  0.63597900  1
  O  O38  1  0.58412700  0.59791900  0.13510400  1
  O  O39  1  0.57841800  0.57955200  0.63736600  1
  O  O40  1  0.43524100  0.42098400  0.36143800  1
  O  O41  1  0.44502500  0.41665700  0.86736800  1
  O  O42  1  0.43754100  0.92035100  0.36198300  1
  O  O43  1  0.44467500  0.91540800  0.86769700  1
  O  O44  1  0.93523800  0.42086500  0.36156800  1
  O  O45  1  0.94366200  0.41250100  0.86790100  1
  O  O46  1  0.93776200  0.92090900  0.36088900  1
  O  O47  1  0.94538300  0.90802400  0.86680100  1
  O  O48  1  0.33200500  0.28720400  0.13503100  1
  O  O49  1  0.32488800  0.30274900  0.63592000  1
  O  O50  1  0.32574400  0.79031600  0.13607200  1
  O  O51  1  0.32159100  0.80634100  0.63739200  1
  O  O52  1  0.83475400  0.28866500  0.13546700  1
  O  O53  1  0.82489800  0.31005000  0.63883700  1
  O  O54  1  0.83461800  0.78758400  0.13465800  1
  O  O55  1  0.82562100  0.80412500  0.63634700  1
  O  O56  1  0.18416300  0.19435400  0.36104900  1
  O  O57  1  0.19145100  0.20436000  0.86672000  1
  O  O58  1  0.18588400  0.69845800  0.36143100  1
  O  O59  1  0.19410100  0.71038900  0.86798300  1
  O  O60  1  0.68473700  0.18943400  0.36102700  1
  O  O61  1  0.69112700  0.20837200  0.86696200  1
  O  O62  1  0.68525500  0.69094000  0.36133900  1
  O  O63  1  0.69531700  0.70460700  0.86700300  1
  O  O64  1  0.42946500  0.06086500  0.23966500  1
  O  O65  1  0.44203600  0.06298400  0.75236300  1
  O  O66  1  0.42965800  0.56325100  0.23897200  1
  O  O67  1  0.44233000  0.56648600  0.75169700  1
  O  O68  1  0.92968600  0.06343900  0.23892100  1
  O  O69  1  0.94215400  0.06385100  0.75212000  1
  O  O70  1  0.93034000  0.56325000  0.23964800  1
  O  O71  1  0.93882500  0.57526600  0.76080500  1
  O  O72  1  0.17981800  0.42917700  0.23975500  1
  O  O73  1  0.19251900  0.44252500  0.75304200  1
  O  O74  1  0.17903400  0.92404300  0.24791400  1
  O  O75  1  0.19043600  0.93303400  0.76026300  1
  O  O76  1  0.67957900  0.42608700  0.23918800  1
  O  O77  1  0.68813600  0.43142500  0.75987000  1
  O  O78  1  0.68227700  0.92644900  0.23939100  1
  O  O79  1  0.69539700  0.94091600  0.75295100  1
loop_
_geom_bond_atom_site_label_1
_geom_bond_atom_site_label_2
_geom_bond_distance
_geom_bond_site_symmetry_2
Ca0 O64 2.354798 1_555
Ca0 O48 2.401523 1_555
Ca0 O26 2.496822 1_545
Ca0 O10 2.516042 1_545
Ca0 O1 2.543796 1_554
Ca0 O17 2.559953 1_554
Ca0 O32 2.658142 1_555
Ca0 O36 2.951010 1_555
Ca1 O66 2.335553 1_555
Ca1 O50 2.420585 1_555
Ca1 O8 2.502108 1_555
Ca1 O24 2.529557 1_555
Ca1 O19 2.555304 1_554
Ca1 O3 2.610943 1_554
Ca1 O34 2.679973 1_555
Ca1 O38 2.993888 1_555
Ca2 O68 2.337156 1_555
Ca2 O52 2.415851 1_555
Ca2 O14 2.507797 1_545
Ca2 O5 2.532379 1_554
Ca2 O30 2.542604 1_545
Ca2 O21 2.561143 1_554
Ca2 O36 2.702371 1_555
Ca2 O32 2.994885 1_655
Ca3 O70 2.345989 1_555
Ca3 O54 2.403024 1_555
Ca3 O28 2.494478 1_555
Ca3 O12 2.500657 1_555
Ca3 O7 2.538141 1_554
Ca3 O23 2.627036 1_554
Ca3 O38 2.671539 1_555
Ca3 O34 2.953312 1_655
Ca4 O74 2.450641 1_555
Ca4 O16 2.508975 1_565
Ca4 O27 2.538665 1_555
Ca4 O0 2.556308 1_565
Ca4 O11 2.556963 1_555
Ca4 O58 2.566078 1_555
Ca4 O46 2.788459 1_455
Ca4 O42 2.846821 1_555
Ca5 O75 2.371574 1_555
Ca5 O59 2.452818 1_555
Ca5 O17 2.503808 1_565
Ca5 O1 2.515502 1_565
Ca5 O10 2.622074 1_556
Ca5 O26 2.625358 1_556
Ca5 O47 2.732350 1_455
Ca5 O43 2.901627 1_555
Ca6 O77 2.357051 1_555
Ca6 O61 2.483623 1_555
Ca6 O23 2.501550 1_555
Ca6 O7 2.515516 1_555
Ca6 O28 2.605098 1_556
Ca6 O12 2.653802 1_556
Ca6 O41 2.745223 1_555
Ca6 O45 2.878302 1_555
Ca7 O72 2.343506 1_555
Ca7 O32 2.453823 1_555
Ca7 O8 2.509056 1_555
Ca7 O28 2.544479 1_455
Ca7 O21 2.554357 1_454
Ca7 O1 2.634497 1_554
Ca7 O52 2.658010 1_455
Ca7 O48 2.960475 1_555
Ca8 O34 2.382595 1_555
Ca8 O74 2.407106 1_555
Ca8 O30 2.505086 1_455
Ca8 O10 2.539158 1_555
Ca8 O3 2.576315 1_554
Ca8 O23 2.624518 1_454
Ca8 O54 2.666135 1_455
Ca8 O50 2.873657 1_555
Ca9 O76 2.335025 1_555
Ca9 O36 2.410365 1_555
Ca9 O24 2.497802 1_555
Ca9 O12 2.531594 1_555
Ca9 O5 2.559952 1_554
Ca9 O17 2.605002 1_554
Ca9 O48 2.682566 1_555
Ca9 O52 2.994319 1_555
Ca10 O78 2.346589 1_555
Ca10 O38 2.398799 1_555
Ca10 O14 2.490198 1_555
Ca10 O26 2.517211 1_555
Ca10 O19 2.539807 1_554
Ca10 O7 2.618832 1_554
Ca10 O50 2.777847 1_555
Ca10 O54 2.978362 1_555
Ca11 O71 2.363928 1_555
Ca11 O47 2.467191 1_555
Ca11 O3 2.481547 1_655
Ca11 O23 2.519297 1_555
Ca11 O10 2.608041 1_656
Ca11 O30 2.624972 1_556
Ca11 O63 2.743580 1_555
Ca11 O59 2.884817 1_655
Mn0 O32 1.884925 1_555
Mn0 O56 1.900219 1_555
Mn0 O68 1.946477 1_455
Mn0 O74 2.048109 1_545
Mn1 O57 1.897255 1_555
Mn1 O33 1.901694 1_555
Mn1 O69 1.927677 1_455
Mn1 O75 2.037505 1_545
Mn2 O34 1.884457 1_555
Mn2 O58 1.916670 1_555
Mn2 O70 1.974923 1_455
Mn2 O72 2.040483 1_555
Mn3 O59 1.906137 1_555
Mn3 O35 1.910958 1_555
Mn3 O71 1.983954 1_455
Mn3 O73 2.011263 1_555
Mn4 O36 1.883958 1_555
Mn4 O60 1.897567 1_555
Mn4 O64 1.958300 1_555
Mn4 O78 2.030326 1_545
Mn5 O37 1.897200 1_555
Mn5 O61 1.909230 1_555
Mn5 O65 1.950499 1_555
Mn5 O79 2.020896 1_545
Mn6 O38 1.885636 1_555
Mn6 O62 1.905937 1_555
Mn6 O66 1.968414 1_555
Mn6 O76 2.028739 1_555
Mn7 O63 1.897506 1_555
Mn7 O39 1.907089 1_555
Mn7 O67 1.945099 1_555
Mn7 O77 2.038495 1_555
Mn8 O48 1.885550 1_555
Mn8 O40 1.908481 1_555
Mn8 O72 1.968173 1_555
Mn8 O66 2.029892 1_555
Mn9 O41 1.905790 1_555
Mn9 O49 1.907860 1_555
Mn9 O73 1.970282 1_555
Mn9 O67 2.013203 1_555
Mn10 O50 1.878752 1_555
Mn10 O42 1.901034 1_555
Mn10 O74 1.958205 1_555
Mn10 O64 2.026399 1_565
Mn11 O43 1.896124 1_555
Mn11 O51 1.903135 1_555
Mn11 O75 1.947817 1_555
Mn11 O65 2.006362 1_565
Mn12 O52 1.886189 1_555
Mn12 O44 1.904013 1_555
Mn12 O76 1.970913 1_555
Mn12 O70 2.020069 1_555
Mn13 O45 1.892034 1_555
Mn13 O53 1.914464 1_555
Mn13 O77 1.958198 1_555
Mn13 O71 2.019307 1_555
Mn14 O54 1.886389 1_555
Mn14 O46 1.896900 1_555
Mn14 O78 1.960425 1_555
Mn14 O68 2.033903 1_565
Mn15 O55 1.895640 1_555
Mn15 O47 1.902591 1_555
Mn15 O79 1.946003 1_555
Mn15 O69 2.025320 1_565
Fe0 O10 1.966055 1_545
Fe0 O30 1.972018 1_445
Fe0 O1 1.975008 1_554
Fe0 O21 1.982702 1_454
Fe0 O32 2.116261 1_555
Fe0 O47 2.181672 1_444
Fe1 O0 1.965204 1_565
Fe1 O11 1.969995 1_555
Fe1 O20 1.974512 1_465
Fe1 O31 1.977021 1_455
Fe1 O46 2.157869 1_455
Fe1 O33 2.220638 1_565
Fe2 O23 1.971222 1_454
Fe2 O28 1.975850 1_455
Fe2 O3 1.988357 1_554
Fe2 O8 1.993430 1_555
Fe2 O34 2.096908 1_555
Fe2 O45 2.150548 1_454
Fe3 O22 1.972075 1_455
Fe3 O29 1.975070 1_455
Fe3 O2 1.979407 1_555
Fe3 O9 1.980453 1_555
Fe3 O44 2.169524 1_455
Fe3 O35 2.187685 1_555
Fe4 O26 1.969115 1_545
Fe4 O17 1.973944 1_554
Fe4 O5 1.987866 1_554
Fe4 O14 1.992720 1_545
Fe4 O36 2.099480 1_555
Fe4 O43 2.166909 1_544
Fe5 O16 1.969319 1_565
Fe5 O4 1.970191 1_565
Fe5 O15 1.977605 1_555
Fe5 O27 1.977611 1_555
Fe5 O42 2.146441 1_555
Fe5 O37 2.189795 1_565
Fe6 O12 1.976644 1_555
Fe6 O24 1.979033 1_555
Fe6 O7 1.984803 1_554
Fe6 O19 1.986982 1_554
Fe6 O38 2.096269 1_555
Fe6 O41 2.172892 1_554
Fe7 O13 1.971271 1_555
Fe7 O6 1.971358 1_555
Fe7 O25 1.980111 1_555
Fe7 O18 1.982814 1_555
Fe7 O40 2.173162 1_555
Fe7 O39 2.191076 1_555
Fe8 O8 1.979798 1_555
Fe8 O1 1.979955 1_554
Fe8 O17 1.988843 1_554
Fe8 O24 1.989373 1_555
Fe8 O48 2.095075 1_555
Fe8 O57 2.184366 1_554
Fe9 O0 1.971000 1_555
Fe9 O16 1.974476 1_555
Fe9 O25 1.977786 1_555
Fe9 O9 1.981966 1_555
Fe9 O56 2.159050 1_555
Fe9 O49 2.193302 1_555
Fe10 O10 1.959115 1_555
Fe10 O3 1.973251 1_554
Fe10 O26 1.980119 1_555
Fe10 O19 1.986111 1_554
Fe10 O50 2.108933 1_555
Fe10 O59 2.168613 1_554
Fe11 O2 1.970166 1_555
Fe11 O11 1.970236 1_555
Fe11 O18 1.970974 1_555
Fe11 O27 1.974553 1_555
Fe11 O58 2.157672 1_555
Fe11 O51 2.213044 1_555
Fe12 O12 1.967592 1_555
Fe12 O28 1.975363 1_555
Fe12 O5 1.983198 1_554
Fe12 O21 1.995431 1_554
Fe12 O52 2.088995 1_555
Fe12 O61 2.198120 1_554
Fe13 O29 1.969080 1_555
Fe13 O13 1.972395 1_555
Fe13 O4 1.975853 1_555
Fe13 O20 1.979639 1_555
Fe13 O60 2.186963 1_555
Fe13 O53 2.204357 1_555
Fe14 O23 1.970268 1_554
Fe14 O7 1.976105 1_554
Fe14 O30 1.980069 1_555
Fe14 O14 1.984748 1_555
Fe14 O54 2.114486 1_555
Fe14 O63 2.154793 1_554
Fe15 O22 1.965529 1_555
Fe15 O6 1.972870 1_555
Fe15 O31 1.980756 1_555
Fe15 O15 1.981004 1_555
Fe15 O62 2.171322 1_555
Fe15 O55 2.179838 1_555
O0 Sr17 2.606110 1_455
O0 Sr0 2.662442 1_555
O0 Sr9 2.703125 1_555
O1 Sr18 2.590288 1_455
O2 Sr19 2.606274 1_455
O2 Sr4 2.634437 1_555
O2 Sr10 2.659298 1_555
O2 Sr1 2.660224 1_555
O3 Sr5 2.588887 1_555
O4 Sr13 2.613302 1_555
O4 Sr7 2.640556 1_545
O4 Sr2 2.652133 1_555
O4 Sr11 2.654449 1_555
O5 Sr14 2.587439 1_555
O5 Sr8 2.610781 1_545
O6 Sr15 2.617339 1_555
O6 Sr6 2.636437 1_555
O6 Sr12 2.647564 1_555
O6 Sr3 2.679281 1_555
O7 Sr16 2.596788 1_555
O8 Sr18 2.717996 1_454
O8 Sr5 2.737044 1_554
O9 Sr9 2.597558 1_555
O9 Sr1 2.614413 1_555
O9 Sr17 2.655011 1_455
O9 Sr4 2.680626 1_555
O11 Sr0 2.618513 1_565
O11 Sr19 2.644786 1_455
O11 Sr10 2.646047 1_555
O12 Sr14 2.703923 1_554
O13 Sr11 2.623173 1_555
O13 Sr3 2.637155 1_555
O13 Sr13 2.646224 1_555
O13 Sr6 2.663828 1_555
O14 Sr16 2.716918 1_554
O14 Sr8 2.735389 1_554
O15 Sr12 2.606090 1_555
O15 Sr2 2.620757 1_565
O15 Sr15 2.657393 1_555
O15 Sr7 2.672786 1_555
O16 Sr13 2.615486 1_555
O16 Sr0 2.656492 1_555
O16 Sr11 2.741154 1_555
O17 Sr14 2.599940 1_555
O18 Sr4 2.625163 1_555
O18 Sr15 2.637018 1_555
O18 Sr1 2.644539 1_555
O18 Sr12 2.661602 1_555
O19 Sr16 2.598741 1_555
O19 Sr5 2.599891 1_555
O20 Sr7 2.624091 1_545
O20 Sr2 2.637169 1_555
O20 Sr17 2.638455 1_555
O20 Sr9 2.657376 1_655
O21 Sr18 2.587868 1_555
O21 Sr8 2.588775 1_545
O22 Sr6 2.612131 1_555
O22 Sr19 2.635552 1_555
O22 Sr3 2.663582 1_555
O22 Sr10 2.672542 1_655
O24 Sr14 2.716194 1_554
O24 Sr5 2.724367 1_554
O25 Sr1 2.614231 1_555
O25 Sr11 2.622428 1_555
O25 Sr4 2.659654 1_555
O25 Sr13 2.664756 1_555
O26 Sr16 2.738257 1_554
O27 Sr0 2.599888 1_565
O27 Sr12 2.643989 1_555
O27 Sr15 2.670865 1_555
O28 Sr18 2.737654 1_554
O29 Sr3 2.615860 1_555
O29 Sr9 2.633365 1_655
O29 Sr6 2.649260 1_555
O29 Sr17 2.671501 1_555
O30 Sr8 2.716686 1_554
O31 Sr2 2.616460 1_565
O31 Sr10 2.629712 1_655
O31 Sr7 2.648973 1_555
O31 Sr19 2.667570 1_555
O33 Sr9 2.678684 1_555
O33 Sr0 2.745086 1_555
O33 Sr2 2.891655 1_455
O33 Sr10 2.992149 1_545
O35 Sr10 2.643316 1_555
O35 Sr3 2.796285 1_455
O35 Sr1 2.813110 1_555
O35 Sr9 3.038008 1_555
O37 Sr11 2.635822 1_555
O37 Sr2 2.783591 1_555
O37 Sr0 2.834516 1_555
O37 Sr12 3.034222 1_545
O39 Sr12 2.677117 1_555
O39 Sr3 2.749174 1_555
O39 Sr1 2.892074 1_555
O39 Sr11 2.998333 1_555
O40 Sr13 2.679684 1_555
O40 Sr6 2.791147 1_555
O40 Sr4 2.829162 1_555
O40 Sr15 2.990427 1_555
O41 Sr14 2.582687 1_555
O41 Sr5 2.910221 1_555
O41 Sr16 3.075381 1_555
O42 Sr15 2.665445 1_555
O42 Sr7 2.767108 1_555
O42 Sr13 2.999151 1_565
O43 Sr16 2.577766 1_555
O43 Sr8 2.727297 1_555
O43 Sr14 3.104472 1_565
O44 Sr17 2.680260 1_555
O44 Sr4 2.785718 1_655
O44 Sr6 2.825075 1_555
O44 Sr19 2.997339 1_555
O45 Sr18 2.537888 1_555
O45 Sr5 2.730265 1_655
O46 Sr19 2.675582 1_555
O46 Sr7 2.858522 1_555
O46 Sr17 2.984947 1_565
O47 Sr8 2.911224 1_555
O47 Sr18 3.175931 1_565
O49 Sr0 2.626773 1_555
O49 Sr11 2.766967 1_555
O49 Sr9 2.838551 1_555
O49 Sr1 3.051332 1_555
O51 Sr1 2.657878 1_555
O51 Sr10 2.800818 1_555
O51 Sr12 2.818421 1_555
O51 Sr0 3.020161 1_565
O53 Sr2 2.692128 1_555
O53 Sr9 2.802998 1_655
O53 Sr11 2.840241 1_555
O53 Sr3 2.980807 1_555
O55 Sr3 2.641063 1_555
O55 Sr10 2.772431 1_655
O55 Sr12 2.856539 1_555
O55 Sr2 3.040453 1_565
O56 Sr4 2.632407 1_555
O56 Sr13 2.802320 1_555
O56 Sr17 2.817805 1_455
O57 Sr5 2.552821 1_555
O57 Sr14 2.766949 1_555
O57 Sr18 2.870866 1_455
O58 Sr15 2.784601 1_555
O58 Sr19 2.831455 1_455
O58 Sr4 3.079058 1_555
O59 Sr16 2.733444 1_555
O59 Sr5 3.177514 1_555
O60 Sr6 2.694534 1_555
O60 Sr17 2.794902 1_555
O60 Sr13 2.824575 1_555
O60 Sr7 2.975661 1_545
O61 Sr18 2.764287 1_555
O61 Sr14 2.859764 1_555
O61 Sr8 3.173470 1_545
O62 Sr7 2.679501 1_555
O62 Sr19 2.793123 1_555
O62 Sr15 2.827239 1_555
O62 Sr6 2.990994 1_555
O63 Sr8 2.539570 1_555
O63 Sr16 2.914155 1_555
O64 Sr13 2.526816 1_555
O65 Sr14 2.463479 1_555
O65 Sr0 2.489118 1_555
O66 Sr15 2.521717 1_555
O67 Sr16 2.451389 1_555
O67 Sr1 2.468491 1_555
O68 Sr17 2.524217 1_555
O69 Sr18 2.457362 1_555
O69 Sr2 2.476425 1_555
O70 Sr19 2.515112 1_555
O71 Sr3 2.535830 1_555
O72 Sr4 2.518208 1_555
O73 Sr5 2.456837 1_555
O73 Sr9 2.491336 1_555
O75 Sr10 2.535705 1_555
O76 Sr6 2.523165 1_555
O77 Sr11 2.516576 1_555
O78 Sr7 2.527305 1_555
O79 Sr8 2.459753 1_555
O79 Sr12 2.499287 1_555
