# generated using pymatgen
data_Mg30FeBiO32
_symmetry_space_group_name_H-M   'P 1'
_cell_length_a   8.62683800
_cell_length_b   8.62683800
_cell_length_c   8.66542600
_cell_angle_alpha   90.00000000
_cell_angle_beta   90.00000000
_cell_angle_gamma   90.00000000
_symmetry_Int_Tables_number   1
_chemical_formula_structural   Mg30FeBiO32
_chemical_formula_sum   'Mg30 Fe1 Bi1 O32'
_cell_volume   644.90122697
_cell_formula_units_Z   1
loop_
 _symmetry_equiv_pos_site_id
 _symmetry_equiv_pos_as_xyz
  1  'x, y, z'
loop_
 _atom_site_type_symbol
 _atom_site_label
 _atom_site_symmetry_multiplicity
 _atom_site_fract_x
 _atom_site_fract_y
 _atom_site_fract_z
 _atom_site_occupancy
  Mg  Mg0  1  0.00000000  0.50000000  0.00000000  1
  Mg  Mg1  1  0.00000000  0.50000000  0.50000000  1
  Mg  Mg2  1  0.50000000  0.00000000  0.00000000  1
  Mg  Mg3  1  0.50000000  0.00000000  0.50000000  1
  Mg  Mg4  1  0.50000000  0.50000000  0.00000000  1
  Mg  Mg5  1  0.50000000  0.50000000  0.50000000  1
  Mg  Mg6  1  0.00000000  0.25717500  0.24296500  1
  Mg  Mg7  1  0.00000000  0.25717500  0.75703500  1
  Mg  Mg8  1  0.00000000  0.74282500  0.24296500  1
  Mg  Mg9  1  0.00000000  0.74282500  0.75703500  1
  Mg  Mg10  1  0.50000000  0.25103200  0.24843900  1
  Mg  Mg11  1  0.50000000  0.25103200  0.75156100  1
  Mg  Mg12  1  0.50000000  0.74896800  0.24843900  1
  Mg  Mg13  1  0.50000000  0.74896800  0.75156100  1
  Mg  Mg14  1  0.25717500  0.00000000  0.24296500  1
  Mg  Mg15  1  0.25717500  0.00000000  0.75703500  1
  Mg  Mg16  1  0.25103200  0.50000000  0.24843900  1
  Mg  Mg17  1  0.25103200  0.50000000  0.75156100  1
  Mg  Mg18  1  0.74282500  0.00000000  0.24296500  1
  Mg  Mg19  1  0.74282500  0.00000000  0.75703500  1
  Mg  Mg20  1  0.74896800  0.50000000  0.24843900  1
  Mg  Mg21  1  0.74896800  0.50000000  0.75156100  1
  Mg  Mg22  1  0.25030200  0.25030200  0.00000000  1
  Mg  Mg23  1  0.25685700  0.25685700  0.50000000  1
  Mg  Mg24  1  0.25030200  0.74969800  0.00000000  1
  Mg  Mg25  1  0.25685700  0.74314300  0.50000000  1
  Mg  Mg26  1  0.74969800  0.25030200  0.00000000  1
  Mg  Mg27  1  0.74314300  0.25685700  0.50000000  1
  Mg  Mg28  1  0.74969800  0.74969800  0.00000000  1
  Mg  Mg29  1  0.74314300  0.74314300  0.50000000  1
  Fe  Fe0  1  0.00000000  0.00000000  0.00000000  1
  Bi  Bi0  1  0.00000000  0.00000000  0.50000000  1
  O  O0  1  0.26114900  0.00000000  0.00000000  1
  O  O1  1  0.26929000  0.00000000  0.50000000  1
  O  O2  1  0.25181700  0.50000000  0.00000000  1
  O  O3  1  0.25298200  0.50000000  0.50000000  1
  O  O4  1  0.73885100  0.00000000  0.00000000  1
  O  O5  1  0.73071000  0.00000000  0.50000000  1
  O  O6  1  0.74818300  0.50000000  0.00000000  1
  O  O7  1  0.74701800  0.50000000  0.50000000  1
  O  O8  1  0.24945300  0.24945300  0.25075300  1
  O  O9  1  0.24945300  0.24945300  0.74924700  1
  O  O10  1  0.24945300  0.75054700  0.25075300  1
  O  O11  1  0.24945300  0.75054700  0.74924700  1
  O  O12  1  0.75054700  0.24945300  0.25075300  1
  O  O13  1  0.75054700  0.24945300  0.74924700  1
  O  O14  1  0.75054700  0.75054700  0.25075300  1
  O  O15  1  0.75054700  0.75054700  0.74924700  1
  O  O16  1  0.00000000  0.00000000  0.22645800  1
  O  O17  1  0.00000000  0.00000000  0.77354200  1
  O  O18  1  0.00000000  0.50000000  0.24868100  1
  O  O19  1  0.00000000  0.50000000  0.75131900  1
  O  O20  1  0.50000000  0.00000000  0.24868100  1
  O  O21  1  0.50000000  0.00000000  0.75131900  1
  O  O22  1  0.50000000  0.50000000  0.24988000  1
  O  O23  1  0.50000000  0.50000000  0.75012000  1
  O  O24  1  0.00000000  0.26114900  0.00000000  1
  O  O25  1  0.00000000  0.26929000  0.50000000  1
  O  O26  1  0.00000000  0.73885100  0.00000000  1
  O  O27  1  0.00000000  0.73071000  0.50000000  1
  O  O28  1  0.50000000  0.25181700  0.00000000  1
  O  O29  1  0.50000000  0.25298200  0.50000000  1
  O  O30  1  0.50000000  0.74818300  0.00000000  1
  O  O31  1  0.50000000  0.74701800  0.50000000  1
loop_
_geom_bond_atom_site_label_1
_geom_bond_atom_site_label_2
_geom_bond_distance
_geom_bond_site_symmetry_2
Mg0 O26 2.060529 1_555
Mg0 O24 2.060529 1_555
Mg0 O18 2.154927 1_555
Mg0 O19 2.154927 1_554
Mg0 O2 2.172384 1_555
Mg0 O6 2.172384 1_455
Mg1 O25 1.990298 1_555
Mg1 O27 1.990298 1_555
Mg1 O19 2.177786 1_555
Mg1 O18 2.177786 1_555
Mg1 O3 2.182435 1_555
Mg1 O7 2.182435 1_455
Mg2 O4 2.060529 1_555
Mg2 O0 2.060529 1_555
Mg2 O20 2.154927 1_555
Mg2 O21 2.154927 1_554
Mg2 O28 2.172384 1_555
Mg2 O30 2.172384 1_545
Mg3 O1 1.990298 1_555
Mg3 O5 1.990298 1_555
Mg3 O21 2.177786 1_555
Mg3 O20 2.177786 1_555
Mg3 O29 2.182435 1_555
Mg3 O31 2.182435 1_545
Mg4 O30 2.141035 1_555
Mg4 O6 2.141035 1_555
Mg4 O2 2.141035 1_555
Mg4 O28 2.141035 1_555
Mg4 O23 2.165317 1_554
Mg4 O22 2.165317 1_555
Mg5 O7 2.130984 1_555
Mg5 O31 2.130984 1_555
Mg5 O29 2.130984 1_555
Mg5 O3 2.130984 1_555
Mg5 O22 2.167396 1_555
Mg5 O23 2.167396 1_555
Mg6 O18 2.095397 1_555
Mg6 O24 2.105674 1_555
Mg6 O8 2.154079 1_555
Mg6 O12 2.154079 1_455
Mg6 O16 2.223213 1_555
Mg6 O25 2.229769 1_555
Mg7 O19 2.095397 1_555
Mg7 O24 2.105674 1_556
Mg7 O9 2.154079 1_555
Mg7 O13 2.154079 1_455
Mg7 O17 2.223213 1_555
Mg7 O25 2.229769 1_555
Mg8 O18 2.095397 1_555
Mg8 O26 2.105674 1_555
Mg8 O10 2.154079 1_555
Mg8 O14 2.154079 1_455
Mg8 O16 2.223213 1_565
Mg8 O27 2.229769 1_555
Mg9 O19 2.095397 1_555
Mg9 O26 2.105674 1_556
Mg9 O11 2.154079 1_555
Mg9 O15 2.154079 1_455
Mg9 O17 2.223213 1_565
Mg9 O27 2.229769 1_555
Mg10 O22 2.147843 1_555
Mg10 O28 2.152840 1_555
Mg10 O12 2.161564 1_555
Mg10 O8 2.161564 1_555
Mg10 O20 2.165613 1_555
Mg10 O29 2.179948 1_555
Mg11 O23 2.147843 1_555
Mg11 O28 2.152840 1_556
Mg11 O13 2.161564 1_555
Mg11 O9 2.161564 1_555
Mg11 O21 2.165613 1_555
Mg11 O29 2.179948 1_555
Mg12 O22 2.147843 1_555
Mg12 O30 2.152840 1_555
Mg12 O14 2.161564 1_555
Mg12 O10 2.161564 1_555
Mg12 O20 2.165613 1_565
Mg12 O31 2.179948 1_555
Mg13 O23 2.147843 1_555
Mg13 O30 2.152840 1_556
Mg13 O15 2.161564 1_555
Mg13 O11 2.161564 1_555
Mg13 O21 2.165613 1_565
Mg13 O31 2.179948 1_555
Mg14 O20 2.095397 1_555
Mg14 O0 2.105674 1_555
Mg14 O8 2.154079 1_555
Mg14 O10 2.154079 1_545
Mg14 O16 2.223213 1_555
Mg14 O1 2.229769 1_555
Mg15 O21 2.095397 1_555
Mg15 O0 2.105674 1_556
Mg15 O9 2.154079 1_555
Mg15 O11 2.154079 1_545
Mg15 O17 2.223213 1_555
Mg15 O1 2.229769 1_555
Mg16 O22 2.147843 1_555
Mg16 O2 2.152840 1_555
Mg16 O10 2.161564 1_555
Mg16 O8 2.161564 1_555
Mg16 O18 2.165613 1_555
Mg16 O3 2.179948 1_555
Mg17 O23 2.147843 1_555
Mg17 O2 2.152840 1_556
Mg17 O11 2.161564 1_555
Mg17 O9 2.161564 1_555
Mg17 O19 2.165613 1_555
Mg17 O3 2.179948 1_555
Mg18 O20 2.095397 1_555
Mg18 O4 2.105674 1_555
Mg18 O12 2.154079 1_555
Mg18 O14 2.154079 1_545
Mg18 O16 2.223213 1_655
Mg18 O5 2.229769 1_555
Mg19 O21 2.095397 1_555
Mg19 O4 2.105674 1_556
Mg19 O13 2.154079 1_555
Mg19 O15 2.154079 1_545
Mg19 O17 2.223213 1_655
Mg19 O5 2.229769 1_555
Mg20 O22 2.147843 1_555
Mg20 O6 2.152840 1_555
Mg20 O14 2.161564 1_555
Mg20 O12 2.161564 1_555
Mg20 O18 2.165613 1_655
Mg20 O7 2.179948 1_555
Mg21 O23 2.147843 1_555
Mg21 O6 2.152840 1_556
Mg21 O15 2.161564 1_555
Mg21 O13 2.161564 1_555
Mg21 O19 2.165613 1_655
Mg21 O7 2.179948 1_555
Mg22 O28 2.154144 1_555
Mg22 O2 2.154144 1_555
Mg22 O0 2.161341 1_555
Mg22 O24 2.161341 1_555
Mg22 O8 2.172906 1_555
Mg22 O9 2.172906 1_554
Mg23 O29 2.097822 1_555
Mg23 O3 2.097822 1_555
Mg23 O9 2.161720 1_555
Mg23 O8 2.161720 1_555
Mg23 O1 2.218458 1_555
Mg23 O25 2.218458 1_555
Mg24 O2 2.154144 1_555
Mg24 O30 2.154144 1_555
Mg24 O26 2.161341 1_555
Mg24 O0 2.161341 1_565
Mg24 O11 2.172906 1_554
Mg24 O10 2.172906 1_555
Mg25 O31 2.097822 1_555
Mg25 O3 2.097822 1_555
Mg25 O10 2.161720 1_555
Mg25 O11 2.161720 1_555
Mg25 O27 2.218458 1_555
Mg25 O1 2.218458 1_565
Mg26 O28 2.154144 1_555
Mg26 O6 2.154144 1_555
Mg26 O4 2.161341 1_555
Mg26 O24 2.161341 1_655
Mg26 O13 2.172906 1_554
Mg26 O12 2.172906 1_555
Mg27 O29 2.097822 1_555
Mg27 O7 2.097822 1_555
Mg27 O13 2.161720 1_555
Mg27 O12 2.161720 1_555
Mg27 O5 2.218458 1_555
Mg27 O25 2.218458 1_655
Mg28 O6 2.154144 1_555
Mg28 O30 2.154144 1_555
Mg28 O26 2.161341 1_655
Mg28 O4 2.161341 1_565
Mg28 O14 2.172906 1_555
Mg28 O15 2.172906 1_554
Mg29 O7 2.097822 1_555
Mg29 O31 2.097822 1_555
Mg29 O14 2.161720 1_555
Mg29 O15 2.161720 1_555
Mg29 O27 2.218458 1_655
Mg29 O5 2.218458 1_565
Fe0 O16 1.962355 1_555
Fe0 O17 1.962355 1_554
Fe0 O0 2.252890 1_555
Fe0 O24 2.252890 1_555
Fe0 O26 2.252890 1_545
Fe0 O4 2.252890 1_455
Bi0 O27 2.323121 1_545
Bi0 O5 2.323121 1_455
Bi0 O1 2.323121 1_555
Bi0 O25 2.323121 1_555
Bi0 O17 2.370358 1_555
Bi0 O16 2.370358 1_555
