# generated using pymatgen
data_Al4InCuS8
_symmetry_space_group_name_H-M   'P 1'
_cell_length_a   7.23565719
_cell_length_b   7.23565719
_cell_length_c   7.23565628
_cell_angle_alpha   59.41872250
_cell_angle_beta   59.41872250
_cell_angle_gamma   59.41872398
_symmetry_Int_Tables_number   1
_chemical_formula_structural   Al4InCuS8
_chemical_formula_sum   'Al4 In1 Cu1 S8'
_cell_volume   264.32391713
_cell_formula_units_Z   1
loop_
 _symmetry_equiv_pos_site_id
 _symmetry_equiv_pos_as_xyz
  1  'x, y, z'
loop_
 _atom_site_type_symbol
 _atom_site_label
 _atom_site_symmetry_multiplicity
 _atom_site_fract_x
 _atom_site_fract_y
 _atom_site_fract_z
 _atom_site_occupancy
  Al  Al0  1  0.37510900  0.37510900  0.37510900  1
  Al  Al1  1  0.52134200  0.99228000  0.99228000  1
  Al  Al2  1  0.99228000  0.99228000  0.52134200  1
  Al  Al3  1  0.99228000  0.52134200  0.99228000  1
  In  In0  1  0.99496100  0.99496100  0.99496100  1
  Cu  Cu0  1  0.62597600  0.62597600  0.62597600  1
  S  S0  1  0.23406600  0.74556900  0.74556900  1
  S  S1  1  0.74556900  0.74556900  0.23406600  1
  S  S2  1  0.74556900  0.23406600  0.74556900  1
  S  S3  1  0.75662900  0.75662900  0.75662900  1
  S  S4  1  0.76996900  0.25189100  0.25189100  1
  S  S5  1  0.25189100  0.25189100  0.76996900  1
  S  S6  1  0.25189100  0.76996900  0.25189100  1
  S  S7  1  0.24246700  0.24246700  0.24246700  1
loop_
_geom_bond_atom_site_label_1
_geom_bond_atom_site_label_2
_geom_bond_distance
_geom_bond_site_symmetry_2
Al0 S5 2.318978 1_555
Al0 S6 2.318979 1_555
Al0 S4 2.318979 1_555
Al0 S7 2.361177 1_555
Al1 S1 2.375506 1_556
Al1 S2 2.375506 1_565
Al1 S3 2.400810 1_555
Al1 S5 2.511427 1_565
Al1 S6 2.511427 1_556
Al1 S7 2.554729 1_566
Al2 S0 2.375506 1_655
Al2 S2 2.375506 1_565
Al2 S3 2.400810 1_555
Al2 S6 2.511427 1_655
Al2 S4 2.511427 1_565
Al2 S7 2.554729 1_665
Al3 S1 2.375506 1_556
Al3 S0 2.375506 1_655
Al3 S3 2.400810 1_555
Al3 S5 2.511427 1_655
Al3 S4 2.511427 1_556
Al3 S7 2.554729 1_656
In0 S2 2.542783 1_565
In0 S0 2.542783 1_655
In0 S1 2.542783 1_556
In0 S6 2.630607 1_656
In0 S4 2.630607 1_566
In0 S5 2.630607 1_665
Cu0 S1 2.303733 1_555
Cu0 S0 2.303733 1_555
Cu0 S2 2.303733 1_555
Cu0 S3 2.325771 1_555
