# generated using pymatgen
data_Mg6FeCu
_symmetry_space_group_name_H-M   'P 1'
_cell_length_a   4.76329000
_cell_length_b   6.08972300
_cell_length_c   10.36266000
_cell_angle_alpha   90.00000000
_cell_angle_beta   90.00000000
_cell_angle_gamma   90.00000000
_symmetry_Int_Tables_number   1
_chemical_formula_structural   Mg6FeCu
_chemical_formula_sum   'Mg12 Fe2 Cu2'
_cell_volume   300.59088762
_cell_formula_units_Z   2
loop_
 _symmetry_equiv_pos_site_id
 _symmetry_equiv_pos_as_xyz
  1  'x, y, z'
loop_
 _atom_site_type_symbol
 _atom_site_label
 _atom_site_symmetry_multiplicity
 _atom_site_fract_x
 _atom_site_fract_y
 _atom_site_fract_z
 _atom_site_occupancy
  Mg  Mg0  1  0.50000000  0.74886100  0.08364500  1
  Mg  Mg1  1  0.50000000  0.25113900  0.08364500  1
  Mg  Mg2  1  0.00000000  0.75267100  0.91039700  1
  Mg  Mg3  1  0.00000000  0.24732900  0.91039700  1
  Mg  Mg4  1  0.00000000  0.50000000  0.17410200  1
  Mg  Mg5  1  0.00000000  0.50000000  0.67272100  1
  Mg  Mg6  1  0.50000000  0.24886100  0.58364500  1
  Mg  Mg7  1  0.50000000  0.75113900  0.58364500  1
  Mg  Mg8  1  0.00000000  0.25267100  0.41039700  1
  Mg  Mg9  1  0.00000000  0.74732900  0.41039700  1
  Mg  Mg10  1  0.00000000  0.00000000  0.67410200  1
  Mg  Mg11  1  0.00000000  0.00000000  0.17272100  1
  Fe  Fe0  1  0.50000000  0.50000000  0.33190000  1
  Fe  Fe1  1  0.50000000  0.00000000  0.83190000  1
  Cu  Cu0  1  0.50000000  0.50000000  0.83319800  1
  Cu  Cu1  1  0.50000000  0.00000000  0.33319800  1
loop_
_geom_bond_atom_site_label_1
_geom_bond_atom_site_label_2
_geom_bond_distance
_geom_bond_site_symmetry_2
Mg0 Mg4 2.974496 1_555
Mg0 Mg4 2.974496 1_655
Mg0 Mg11 2.977120 1_665
Mg0 Mg11 2.977120 1_565
Mg0 Mg2 2.982601 1_654
Mg0 Mg2 2.982601 1_554
Mg0 Mg1 3.030989 1_555
Mg0 Mg1 3.058734 1_565
Mg1 Mg4 2.974496 1_555
Mg1 Mg4 2.974496 1_655
Mg1 Mg11 2.977120 1_555
Mg1 Mg11 2.977120 1_655
Mg1 Mg3 2.982601 1_654
Mg1 Mg3 2.982601 1_554
Mg2 Mg5 2.904090 1_555
Mg2 Mg3 3.012330 1_565
Mg2 Mg3 3.077393 1_555
Mg2 Mg4 3.136105 1_556
Mg3 Mg5 2.904090 1_555
Mg3 Mg4 3.136105 1_556
Mg4 Mg9 2.874786 1_555
Mg4 Mg8 2.874786 1_555
Mg5 Mg6 2.977120 1_455
Mg5 Mg7 2.977120 1_455
Mg5 Mg6 2.977120 1_555
Mg5 Mg7 2.977120 1_555
Mg5 Mg9 3.107747 1_555
Mg5 Mg8 3.107747 1_555
Mg6 Mg8 2.982601 1_555
Mg6 Mg8 2.982601 1_655
Mg6 Mg7 3.030989 1_545
Mg6 Mg7 3.058734 1_555
Mg7 Mg9 2.982601 1_655
Mg7 Mg9 2.982601 1_555
Mg8 Mg9 3.012330 1_555
Mg8 Mg9 3.077393 1_545
Mg10 Mg2 2.874786 1_545
Mg10 Mg3 2.874786 1_555
Mg10 Mg6 2.974496 1_455
Mg10 Mg6 2.974496 1_555
Mg10 Mg7 2.974496 1_545
Mg10 Mg7 2.974496 1_445
Mg10 Mg5 3.044895 1_545
Mg10 Mg5 3.044895 1_555
Mg10 Mg9 3.136105 1_545
Mg10 Mg8 3.136105 1_555
Mg11 Mg9 2.904090 1_545
Mg11 Mg8 2.904090 1_555
Mg11 Mg4 3.044895 1_555
Mg11 Mg4 3.044895 1_545
Mg11 Mg3 3.107747 1_554
Mg11 Mg2 3.107747 1_544
Fe0 Mg4 2.888968 1_655
Fe0 Mg4 2.888968 1_555
Fe0 Mg8 2.932993 1_655
Fe0 Mg9 2.932993 1_555
Fe0 Mg9 2.932993 1_655
Fe0 Mg8 2.932993 1_555
Fe0 Mg1 2.985783 1_555
Fe0 Mg0 2.985783 1_555
Fe0 Mg7 3.023992 1_555
Fe0 Mg6 3.023992 1_555
Fe1 Mg10 2.888968 1_555
Fe1 Mg10 2.888968 1_655
Fe1 Mg2 2.932993 1_645
Fe1 Mg2 2.932993 1_545
Fe1 Mg3 2.932993 1_555
Fe1 Mg3 2.932993 1_655
Fe1 Mg6 2.985783 1_555
Fe1 Mg7 2.985783 1_545
Fe1 Mg1 3.023992 1_556
Fe1 Mg0 3.023992 1_546
Cu0 Mg5 2.904771 1_655
Cu0 Mg5 2.904771 1_555
Cu0 Mg3 2.946150 1_655
Cu0 Mg2 2.946150 1_555
Cu0 Mg3 2.946150 1_555
Cu0 Mg2 2.946150 1_655
Cu0 Mg7 3.004418 1_555
Cu0 Mg6 3.004418 1_555
Cu0 Mg1 3.005377 1_556
Cu0 Mg0 3.005377 1_556
Cu0 Fe1 3.044891 1_555
Cu0 Fe1 3.044891 1_565
Cu1 Mg11 2.904771 1_555
Cu1 Mg11 2.904771 1_655
Cu1 Mg9 2.946150 1_645
Cu1 Mg8 2.946150 1_655
Cu1 Mg9 2.946150 1_545
Cu1 Mg8 2.946150 1_555
Cu1 Mg0 3.004418 1_545
Cu1 Mg1 3.004418 1_555
Cu1 Mg7 3.005377 1_545
Cu1 Mg6 3.005377 1_555
Cu1 Fe0 3.044891 1_555
Cu1 Fe0 3.044891 1_545
