# generated using pymatgen
data_CeB7IO15
_symmetry_space_group_name_H-M   'P 1'
_cell_length_a   8.21456720
_cell_length_b   9.87108085
_cell_length_c   17.47814289
_cell_angle_alpha   90.00000000
_cell_angle_beta   90.00000000
_cell_angle_gamma   90.53068215
_symmetry_Int_Tables_number   1
_chemical_formula_structural   CeB7IO15
_chemical_formula_sum   'Ce4 B28 I4 O60'
_cell_volume   1417.18338648
_cell_formula_units_Z   4
loop_
 _symmetry_equiv_pos_site_id
 _symmetry_equiv_pos_as_xyz
  1  'x, y, z'
loop_
 _atom_site_type_symbol
 _atom_site_label
 _atom_site_symmetry_multiplicity
 _atom_site_fract_x
 _atom_site_fract_y
 _atom_site_fract_z
 _atom_site_occupancy
  Ce  Ce0  1  0.81852313  0.25251516  0.18378612  1
  Ce  Ce1  1  0.31852313  0.75251516  0.31621388  1
  Ce  Ce2  1  0.18147687  0.74748484  0.81621388  1
  Ce  Ce3  1  0.68147687  0.24748484  0.68378612  1
  B  B0  1  0.68797602  0.78490348  0.08438213  1
  B  B1  1  0.18797602  0.28490348  0.41561787  1
  B  B2  1  0.31202398  0.21509652  0.91561787  1
  B  B3  1  0.81202398  0.71509652  0.58438213  1
  B  B4  1  0.70222884  0.63465909  0.19548613  1
  B  B5  1  0.20222884  0.13465909  0.30451387  1
  B  B6  1  0.29777116  0.36534091  0.80451387  1
  B  B7  1  0.79777116  0.86534091  0.69548613  1
  B  B8  1  0.40368755  0.25218969  0.20134368  1
  B  B9  1  0.90368755  0.75218969  0.29865632  1
  B  B10  1  0.59631245  0.74781031  0.79865632  1
  B  B11  1  0.09631245  0.24781031  0.70134368  1
  B  B12  1  0.69672101  0.89206321  0.21221524  1
  B  B13  1  0.19672101  0.39206321  0.28778476  1
  B  B14  1  0.30327899  0.10793679  0.78778476  1
  B  B15  1  0.80327899  0.60793679  0.71221524  1
  B  B16  1  0.95364075  0.52372317  0.24894573  1
  B  B17  1  0.45364075  0.02372317  0.25105427  1
  B  B18  1  0.04635925  0.47627683  0.75105427  1
  B  B19  1  0.54635925  0.97627683  0.74894573  1
  B  B20  1  0.35383343  0.27298366  0.05563208  1
  B  B21  1  0.85383343  0.77298366  0.44436792  1
  B  B22  1  0.64616657  0.72701634  0.94436792  1
  B  B23  1  0.14616657  0.22701634  0.55563208  1
  B  B24  1  0.95129574  0.99594461  0.27157910  1
  B  B25  1  0.45129574  0.49594461  0.22842090  1
  B  B26  1  0.04870426  0.00405539  0.72842090  1
  B  B27  1  0.54870426  0.50405539  0.77157910  1
  I  I0  1  0.70027422  0.30575441  0.43985645  1
  I  I1  1  0.20027422  0.80575441  0.06014355  1
  I  I2  1  0.29972578  0.69424559  0.56014355  1
  I  I3  1  0.79972578  0.19424559  0.93985645  1
  O  O0  1  0.32680277  0.22695280  0.12872120  1
  O  O1  1  0.82680277  0.72695280  0.37127880  1
  O  O2  1  0.67319723  0.77304720  0.87127880  1
  O  O3  1  0.17319723  0.27304720  0.62872120  1
  O  O4  1  0.79987992  0.51601890  0.21757507  1
  O  O5  1  0.29987992  0.01601890  0.28242493  1
  O  O6  1  0.20012008  0.48398110  0.78242493  1
  O  O7  1  0.70012008  0.98398110  0.71757507  1
  O  O8  1  0.79937211  0.00687179  0.23814040  1
  O  O9  1  0.29937211  0.50687179  0.26185960  1
  O  O10  1  0.20062789  0.99312821  0.76185960  1
  O  O11  1  0.70062789  0.49312821  0.73814040  1
  O  O12  1  0.27402907  0.26033010  0.26369650  1
  O  O13  1  0.77402907  0.76033010  0.23630350  1
  O  O14  1  0.72597093  0.73966990  0.73630350  1
  O  O15  1  0.22597093  0.23966990  0.76369650  1
  O  O16  1  0.51072376  0.37338022  0.20447923  1
  O  O17  1  0.01072376  0.87338022  0.29552077  1
  O  O18  1  0.48927624  0.62661978  0.79552077  1
  O  O19  1  0.98927624  0.12661978  0.70447923  1
  O  O20  1  0.68640673  0.80797569  0.00617994  1
  O  O21  1  0.18640673  0.30797569  0.49382006  1
  O  O22  1  0.31359327  0.19202431  0.99382006  1
  O  O23  1  0.81359327  0.69202431  0.50617994  1
  O  O24  1  0.67559388  0.89704736  0.13074369  1
  O  O25  1  0.17559388  0.39704736  0.36925631  1
  O  O26  1  0.32440612  0.10295264  0.86925631  1
  O  O27  1  0.82440612  0.60295264  0.63074369  1
  O  O28  1  0.70531122  0.65707221  0.11430482  1
  O  O29  1  0.20531122  0.15707221  0.38569518  1
  O  O30  1  0.29468878  0.34292779  0.88569518  1
  O  O31  1  0.79468878  0.84292779  0.61430482  1
  O  O32  1  0.03519636  0.40201045  0.24779140  1
  O  O33  1  0.53519636  0.90201045  0.25220860  1
  O  O34  1  0.96480364  0.59798955  0.75220860  1
  O  O35  1  0.46480364  0.09798955  0.74779140  1
  O  O36  1  0.70905041  0.18402640  0.03842595  1
  O  O37  1  0.20905041  0.68402640  0.46157405  1
  O  O38  1  0.29094959  0.81597360  0.96157405  1
  O  O39  1  0.79094959  0.31597360  0.53842595  1
  O  O40  1  0.51708594  0.14099851  0.22081603  1
  O  O41  1  0.01708594  0.64099851  0.27918397  1
  O  O42  1  0.48291406  0.85900149  0.77918397  1
  O  O43  1  0.98291406  0.35900149  0.72081603  1
  O  O44  1  0.95906172  0.15801601  0.10912655  1
  O  O45  1  0.45906172  0.65801601  0.39087345  1
  O  O46  1  0.04093828  0.84198399  0.89087345  1
  O  O47  1  0.54093828  0.34198399  0.60912655  1
  O  O48  1  0.03313369  0.11760093  0.27545816  1
  O  O49  1  0.53313369  0.61760093  0.22454184  1
  O  O50  1  0.96686631  0.88239907  0.72454184  1
  O  O51  1  0.46686631  0.38239907  0.77545816  1
  O  O52  1  0.85458803  0.36537305  0.08278260  1
  O  O53  1  0.35458803  0.86537305  0.41721740  1
  O  O54  1  0.14541197  0.63462695  0.91721740  1
  O  O55  1  0.64541197  0.13462695  0.58278260  1
  O  O56  1  0.42419314  0.39744267  0.04774801  1
  O  O57  1  0.92419314  0.89744267  0.45225199  1
  O  O58  1  0.57580686  0.60255733  0.95225199  1
  O  O59  1  0.07580686  0.10255733  0.54774801  1
loop_
_geom_bond_atom_site_label_1
_geom_bond_atom_site_label_2
_geom_bond_distance
_geom_bond_site_symmetry_2
Ce0 O44 1.981328 1_555
Ce0 O52 2.106939 1_555
Ce0 O32 2.558987 1_655
Ce0 O8 2.607622 1_555
Ce0 O4 2.673042 1_555
Ce0 O48 2.737190 1_655
Ce0 O36 2.776556 1_555
Ce0 O40 2.776973 1_555
Ce0 O16 2.828976 1_555
Ce1 O45 1.981328 1_555
Ce1 O53 2.106939 1_555
Ce1 O33 2.558987 1_555
Ce1 O9 2.607622 1_555
Ce1 O5 2.673042 1_565
Ce1 O49 2.737190 1_555
Ce1 O37 2.776556 1_555
Ce1 O41 2.776973 1_555
Ce1 O17 2.828976 1_555
Ce2 O46 1.981328 1_555
Ce2 O54 2.106939 1_555
Ce2 O34 2.558987 1_455
Ce2 O10 2.607622 1_555
Ce2 O6 2.673042 1_555
Ce2 O50 2.737190 1_455
Ce2 O38 2.776556 1_555
Ce2 O42 2.776973 1_555
Ce2 O18 2.828976 1_555
Ce3 O47 1.981328 1_555
Ce3 O55 2.106939 1_555
Ce3 O35 2.558987 1_555
Ce3 O11 2.607622 1_555
Ce3 O7 2.673042 1_545
Ce3 O51 2.737190 1_555
Ce3 O39 2.776556 1_555
Ce3 O43 2.776973 1_555
Ce3 O19 2.828976 1_555
B0 O28 1.374536 1_555
B0 O24 1.376389 1_555
B0 O20 1.385753 1_555
B1 O29 1.374536 1_555
B1 O25 1.376389 1_555
B1 O21 1.385753 1_555
B2 O30 1.374536 1_555
B2 O26 1.376389 1_555
B2 O22 1.385753 1_555
B3 O31 1.374536 1_555
B3 O27 1.376389 1_555
B3 O23 1.385753 1_555
B4 O28 1.436231 1_555
B4 O4 1.476959 1_555
B4 O49 1.487065 1_555
B4 O13 1.543418 1_555
B5 O29 1.436231 1_555
B5 O5 1.476959 1_555
B5 O48 1.487065 1_555
B5 O12 1.543418 1_555
B6 O30 1.436231 1_555
B6 O6 1.476959 1_555
B6 O51 1.487065 1_555
B6 O15 1.543418 1_555
B7 O31 1.436231 1_555
B7 O7 1.476959 1_555
B7 O50 1.487065 1_555
B7 O14 1.543418 1_555
B8 O0 1.438461 1_555
B8 O16 1.479088 1_555
B8 O40 1.485656 1_555
B8 O12 1.526481 1_555
B9 O1 1.438461 1_555
B9 O17 1.479088 1_655
B9 O41 1.485656 1_655
B9 O13 1.526481 1_555
B10 O2 1.438461 1_555
B10 O18 1.479088 1_555
B10 O42 1.485656 1_555
B10 O14 1.526481 1_555
B11 O3 1.438461 1_555
B11 O19 1.479088 1_455
B11 O43 1.485656 1_455
B11 O15 1.526481 1_555
B12 O24 1.435407 1_555
B12 O8 1.477497 1_565
B12 O33 1.503733 1_555
B12 O13 1.512200 1_555
B13 O25 1.435407 1_555
B13 O9 1.477497 1_555
B13 O32 1.503733 1_555
B13 O12 1.512200 1_555
B14 O26 1.435407 1_555
B14 O10 1.477497 1_545
B14 O35 1.503733 1_555
B14 O15 1.512200 1_555
B15 O27 1.435407 1_555
B15 O11 1.477497 1_555
B15 O34 1.503733 1_555
B15 O14 1.512200 1_555
B16 O41 1.371089 1_655
B16 O4 1.378407 1_555
B16 O32 1.381156 1_655
B17 O40 1.371089 1_555
B17 O5 1.378407 1_555
B17 O33 1.381156 1_545
B18 O43 1.371089 1_455
B18 O6 1.378407 1_555
B18 O34 1.381156 1_455
B19 O42 1.371089 1_555
B19 O7 1.378407 1_555
B19 O35 1.381156 1_565
B20 O56 1.359858 1_555
B20 O0 1.373245 1_555
B20 O22 1.382100 1_554
B21 O57 1.359858 1_555
B21 O1 1.373245 1_555
B21 O23 1.382100 1_555
B22 O58 1.359858 1_555
B22 O2 1.373245 1_555
B22 O20 1.382100 1_556
B23 O59 1.359858 1_555
B23 O3 1.373245 1_555
B23 O21 1.382100 1_555
B24 O48 1.372476 1_665
B24 O17 1.374075 1_655
B24 O8 1.383176 1_565
B25 O49 1.372476 1_555
B25 O16 1.374075 1_555
B25 O9 1.383176 1_555
B26 O50 1.372476 1_445
B26 O19 1.374075 1_455
B26 O10 1.383176 1_545
B27 O51 1.372476 1_555
B27 O18 1.374075 1_555
B27 O11 1.383176 1_555
I0 O39 1.879276 1_555
I1 O38 1.879276 1_554
I2 O37 1.879276 1_555
I3 O36 1.879276 1_556
