# generated using pymatgen
data_RbSm(MoO4)2
_symmetry_space_group_name_H-M   'P 1'
_cell_length_a   7.62833639
_cell_length_b   7.62833639
_cell_length_c   7.85323847
_cell_angle_alpha   61.90870559
_cell_angle_beta   61.90870559
_cell_angle_gamma   88.70697329
_symmetry_Int_Tables_number   1
_chemical_formula_structural   RbSm(MoO4)2
_chemical_formula_sum   'Rb2 Sm2 Mo4 O16'
_cell_volume   343.82242590
_cell_formula_units_Z   2
loop_
 _symmetry_equiv_pos_site_id
 _symmetry_equiv_pos_as_xyz
  1  'x, y, z'
loop_
 _atom_site_type_symbol
 _atom_site_label
 _atom_site_symmetry_multiplicity
 _atom_site_fract_x
 _atom_site_fract_y
 _atom_site_fract_z
 _atom_site_occupancy
  Rb  Rb0  1  0.19930600  0.80069400  0.75000000  1
  Rb  Rb1  1  0.80069400  0.19930600  0.25000000  1
  Sm  Sm0  1  0.77027300  0.22972700  0.75000000  1
  Sm  Sm1  1  0.22972700  0.77027300  0.25000000  1
  Mo  Mo0  1  0.69386200  0.69585900  0.76224500  1
  Mo  Mo1  1  0.30613800  0.30414100  0.23775500  1
  Mo  Mo2  1  0.30414100  0.30613800  0.73775500  1
  Mo  Mo3  1  0.69585900  0.69386200  0.26224500  1
  O  O0  1  0.61594200  0.76417400  0.56289500  1
  O  O1  1  0.38405800  0.23582600  0.43710500  1
  O  O2  1  0.23582600  0.38405800  0.93710500  1
  O  O3  1  0.76417400  0.61594200  0.06289500  1
  O  O4  1  0.38420300  0.07200300  0.87097900  1
  O  O5  1  0.61579700  0.92799700  0.12902100  1
  O  O6  1  0.92799700  0.61579700  0.62902100  1
  O  O7  1  0.07200300  0.38420300  0.37097900  1
  O  O8  1  0.58238500  0.36869200  0.97294100  1
  O  O9  1  0.41761500  0.63130800  0.02705900  1
  O  O10  1  0.63130800  0.41761500  0.52705900  1
  O  O11  1  0.36869200  0.58238500  0.47294100  1
  O  O12  1  0.79288200  0.94822100  0.69178200  1
  O  O13  1  0.20711800  0.05177900  0.30821800  1
  O  O14  1  0.05177900  0.20711800  0.80821800  1
  O  O15  1  0.94822100  0.79288200  0.19178200  1
loop_
_geom_bond_atom_site_label_1
_geom_bond_atom_site_label_2
_geom_bond_distance
_geom_bond_site_symmetry_2
Mo0 O0 1.780410 1_555
Mo0 O12 1.803205 1_555
Mo0 O6 1.857514 1_555
Mo0 O9 1.990821 1_556
Mo0 O8 2.138068 1_555
Mo0 O3 2.460964 1_556
Mo1 O1 1.780410 1_555
Mo1 O13 1.803205 1_555
Mo1 O7 1.857514 1_555
Mo1 O8 1.990821 1_554
Mo1 O9 2.138068 1_555
Mo1 O2 2.460964 1_554
Mo2 O2 1.780410 1_555
Mo2 O14 1.803205 1_555
Mo2 O4 1.857514 1_555
Mo2 O11 1.990821 1_555
Mo2 O10 2.138068 1_555
Mo2 O1 2.460964 1_555
Mo3 O3 1.780410 1_555
Mo3 O15 1.803205 1_555
Mo3 O5 1.857514 1_555
Mo3 O10 1.990821 1_555
Mo3 O11 2.138068 1_555
Mo3 O0 2.460964 1_555
O0 Rb0 2.878438 1_555
O0 Rb1 2.882821 1_565
O1 Rb1 2.878438 1_555
O1 Rb0 2.882821 1_545
O2 Rb0 2.878438 1_555
O2 Rb1 2.882821 1_456
O3 Rb1 2.878438 1_555
O3 Rb0 2.882821 1_654
O4 Sm1 2.431734 1_546
O4 Sm0 2.733502 1_555
O4 Rb0 3.228150 1_545
O5 Sm0 2.431734 1_564
O5 Sm1 2.733502 1_555
O5 Rb1 3.228150 1_565
O6 Sm1 2.431734 1_655
O6 Sm0 2.733502 1_555
O6 Rb0 3.228150 1_655
O7 Sm0 2.431734 1_455
O7 Sm1 2.733502 1_555
O7 Rb1 3.228150 1_455
O8 Sm0 2.357846 1_555
O8 Rb1 3.137627 1_556
O9 Sm1 2.357846 1_555
O9 Rb0 3.137627 1_554
O10 Sm0 2.357846 1_555
O10 Rb1 3.137627 1_555
O11 Sm1 2.357846 1_555
O11 Rb0 3.137627 1_555
O12 Sm0 2.384081 1_565
O12 Rb1 3.043243 1_565
O12 Rb0 3.432276 1_655
O13 Sm1 2.384081 1_545
O13 Rb0 3.043243 1_545
O13 Rb1 3.432276 1_455
O14 Sm0 2.384081 1_455
O14 Rb1 3.043243 1_456
O14 Rb0 3.432276 1_545
O15 Sm1 2.384081 1_655
O15 Rb0 3.043243 1_654
O15 Rb1 3.432276 1_565
