# generated using pymatgen
data_Fe13Mo9
_symmetry_space_group_name_H-M   'P 1'
_cell_length_a   11.01242108
_cell_length_b   11.01242108
_cell_length_c   11.89736871
_cell_angle_alpha   67.51756290
_cell_angle_beta   67.51756290
_cell_angle_gamma   24.62286297
_symmetry_Int_Tables_number   1
_chemical_formula_structural   Fe13Mo9
_chemical_formula_sum   'Fe26 Mo18'
_cell_volume   553.18825438
_cell_formula_units_Z   2
loop_
 _symmetry_equiv_pos_site_id
 _symmetry_equiv_pos_as_xyz
  1  'x, y, z'
loop_
 _atom_site_type_symbol
 _atom_site_label
 _atom_site_symmetry_multiplicity
 _atom_site_fract_x
 _atom_site_fract_y
 _atom_site_fract_z
 _atom_site_occupancy
  Fe  Fe0  1  0.84699000  0.84699000  0.39223500  1
  Fe  Fe1  1  0.15301000  0.15301000  0.60776500  1
  Fe  Fe2  1  0.40876700  0.90719300  0.43356800  1
  Fe  Fe3  1  0.59123300  0.09280700  0.56643200  1
  Fe  Fe4  1  0.09280700  0.59123300  0.56643200  1
  Fe  Fe5  1  0.90719300  0.40876700  0.43356800  1
  Fe  Fe6  1  0.59820900  0.12077100  0.20998500  1
  Fe  Fe7  1  0.40179100  0.87922900  0.79001500  1
  Fe  Fe8  1  0.87922900  0.40179100  0.79001500  1
  Fe  Fe9  1  0.12077100  0.59820900  0.20998500  1
  Fe  Fe10  1  0.14852500  0.14852500  0.11242400  1
  Fe  Fe11  1  0.85147500  0.85147500  0.88757600  1
  Fe  Fe12  1  0.30426600  0.79181600  0.21587900  1
  Fe  Fe13  1  0.69573400  0.20818400  0.78412000  1
  Fe  Fe14  1  0.20818400  0.69573400  0.78412000  1
  Fe  Fe15  1  0.79181600  0.30426600  0.21587900  1
  Fe  Fe16  1  0.50000000  0.00000000  0.00000000  1
  Fe  Fe17  1  0.00000000  0.50000000  0.00000000  1
  Fe  Fe18  1  0.95254900  0.95254900  0.21665500  1
  Fe  Fe19  1  0.04745100  0.04745100  0.78334500  1
  Fe  Fe20  1  0.75686900  0.75686900  0.32971000  1
  Fe  Fe21  1  0.24313100  0.24313100  0.67029000  1
  Fe  Fe22  1  0.89614400  0.89614400  0.67248000  1
  Fe  Fe23  1  0.10385600  0.10385600  0.32752000  1
  Fe  Fe24  1  0.80285200  0.80285200  0.11151600  1
  Fe  Fe25  1  0.19714800  0.19714800  0.88848400  1
  Mo  Mo0  1  0.42023700  0.42023700  0.35801100  1
  Mo  Mo1  1  0.57976300  0.57976300  0.64198900  1
  Mo  Mo2  1  0.47652300  0.47652300  0.11267100  1
  Mo  Mo3  1  0.52347700  0.52347700  0.88732900  1
  Mo  Mo4  1  0.55433500  0.55433500  0.40880900  1
  Mo  Mo5  1  0.44566500  0.44566500  0.59119100  1
  Mo  Mo6  1  0.66888500  0.66888500  0.20807600  1
  Mo  Mo7  1  0.33111500  0.33111500  0.79192400  1
  Mo  Mo8  1  0.63452900  0.63452900  0.00181600  1
  Mo  Mo9  1  0.36547100  0.36547100  0.99818400  1
  Mo  Mo10  1  0.93622500  0.93622500  0.00044300  1
  Mo  Mo11  1  0.06377500  0.06377500  0.99955700  1
  Mo  Mo12  1  0.24138500  0.24138500  0.21776600  1
  Mo  Mo13  1  0.75861500  0.75861500  0.78223400  1
  Mo  Mo14  1  0.96771400  0.96771400  0.42187200  1
  Mo  Mo15  1  0.03228600  0.03228600  0.57812800  1
  Mo  Mo16  1  0.72274900  0.72274900  0.57522800  1
  Mo  Mo17  1  0.27725100  0.27725100  0.42477200  1
loop_
_geom_bond_atom_site_label_1
_geom_bond_atom_site_label_2
_geom_bond_distance
_geom_bond_site_symmetry_2
Fe0 Fe20 2.333093 1_555
Fe0 Fe3 2.349521 1_565
Fe0 Fe4 2.349521 1_655
Fe0 Fe18 2.410152 1_555
Fe0 Fe6 2.413076 1_565
Fe0 Fe9 2.413076 1_655
Fe0 Mo16 2.707585 1_555
Fe0 Mo17 2.731449 1_655
Fe0 Mo17 2.731449 1_565
Fe0 Mo14 2.754963 1_555
Fe0 Mo0 2.767918 1_655
Fe0 Mo0 2.767918 1_565
Fe1 Fe21 2.333093 1_555
Fe1 Fe5 2.349521 1_455
Fe1 Fe2 2.349521 1_545
Fe1 Fe19 2.410152 1_555
Fe1 Fe7 2.413076 1_545
Fe1 Fe8 2.413076 1_455
Fe1 Mo17 2.707585 1_555
Fe1 Mo16 2.731449 1_545
Fe1 Mo16 2.731449 1_455
Fe1 Mo15 2.754963 1_555
Fe1 Mo1 2.767918 1_455
Fe1 Mo1 2.767918 1_545
Fe2 Fe20 2.316544 1_555
Fe2 Fe5 2.340735 1_555
Fe2 Fe23 2.342156 1_565
Fe2 Fe5 2.355519 1_465
Fe2 Mo4 2.635318 1_555
Fe2 Mo1 2.661628 1_555
Fe2 Mo12 2.755544 1_565
Fe2 Mo17 2.788335 1_565
Fe2 Mo16 2.826923 1_555
Fe2 Mo15 2.831821 1_565
Fe2 Mo6 2.851181 1_555
Fe3 Fe4 2.340735 1_555
Fe3 Fe4 2.355519 1_645
Fe3 Mo5 2.635318 1_555
Fe3 Mo0 2.661628 1_555
Fe3 Mo13 2.755544 1_545
Fe3 Mo16 2.788335 1_545
Fe3 Mo17 2.826923 1_555
Fe3 Mo14 2.831821 1_545
Fe3 Mo7 2.851181 1_555
Fe4 Mo5 2.635318 1_555
Fe4 Mo0 2.661628 1_555
Fe4 Mo13 2.755544 1_455
Fe4 Mo16 2.788335 1_455
Fe4 Mo17 2.826923 1_555
Fe4 Mo14 2.831821 1_455
Fe4 Mo7 2.851181 1_555
Fe5 Mo4 2.635318 1_555
Fe5 Mo1 2.661628 1_555
Fe5 Mo12 2.755544 1_655
Fe5 Mo17 2.788335 1_655
Fe5 Mo16 2.826923 1_555
Fe5 Mo15 2.831821 1_655
Fe5 Mo6 2.851181 1_555
Fe6 Fe9 2.242170 1_555
Fe6 Fe9 2.454084 1_645
Fe6 Mo2 2.580113 1_555
Fe6 Mo10 2.687897 1_545
Fe6 Mo9 2.714644 1_554
Fe6 Mo17 2.716357 1_555
Fe6 Mo12 2.745918 1_555
Fe6 Mo0 2.805203 1_555
Fe7 Fe8 2.242170 1_555
Fe7 Fe8 2.454084 1_465
Fe7 Mo3 2.580113 1_555
Fe7 Mo11 2.687897 1_565
Fe7 Mo8 2.714644 1_556
Fe7 Mo16 2.716357 1_555
Fe7 Mo13 2.745918 1_555
Fe7 Mo1 2.805203 1_555
Fe8 Mo3 2.580113 1_555
Fe8 Mo11 2.687897 1_655
Fe8 Mo8 2.714644 1_556
Fe8 Mo16 2.716357 1_555
Fe8 Mo13 2.745918 1_555
Fe8 Mo1 2.805203 1_555
Fe9 Mo2 2.580113 1_555
Fe9 Mo10 2.687897 1_455
Fe9 Mo9 2.714644 1_554
Fe9 Mo17 2.716357 1_555
Fe9 Mo12 2.745918 1_555
Fe9 Mo0 2.805203 1_555
Fe10 Fe23 2.355261 1_555
Fe10 Fe15 2.356879 1_455
Fe10 Fe12 2.356879 1_545
Fe10 Fe17 2.376799 1_555
Fe10 Fe16 2.376799 1_555
Fe10 Fe25 2.451742 1_554
Fe10 Mo11 2.654422 1_554
Fe10 Mo6 2.718638 1_545
Fe10 Mo6 2.718638 1_455
Fe10 Mo12 2.742974 1_555
Fe10 Mo8 2.765205 1_455
Fe10 Mo8 2.765205 1_545
Fe11 Fe22 2.355261 1_555
Fe11 Fe13 2.356881 1_565
Fe11 Fe14 2.356881 1_655
Fe11 Fe17 2.376799 1_656
Fe11 Fe16 2.376799 1_566
Fe11 Fe24 2.451742 1_556
Fe11 Mo10 2.654422 1_556
Fe11 Mo7 2.718638 1_565
Fe11 Mo7 2.718638 1_655
Fe11 Mo13 2.742974 1_555
Fe11 Mo9 2.765205 1_565
Fe11 Mo9 2.765205 1_655
Fe12 Fe15 2.289659 1_555
Fe12 Fe18 2.378126 1_455
Fe12 Fe15 2.406595 1_465
Fe12 Fe23 2.429696 1_565
Fe12 Mo2 2.581858 1_555
Fe12 Mo4 2.615532 1_555
Fe12 Mo14 2.669431 1_455
Fe12 Mo11 2.739377 1_564
Fe12 Mo8 2.747738 1_555
Fe12 Mo6 2.809299 1_555
Fe12 Mo0 2.844807 1_555
Fe13 Fe14 2.289659 1_555
Fe13 Fe19 2.378130 1_655
Fe13 Fe14 2.406595 1_645
Fe13 Fe22 2.429688 1_545
Fe13 Mo3 2.581866 1_555
Fe13 Mo5 2.615521 1_555
Fe13 Mo15 2.669423 1_655
Fe13 Mo10 2.739388 1_546
Fe13 Mo9 2.747746 1_555
Fe13 Mo7 2.809295 1_555
Fe13 Mo1 2.844804 1_555
Fe14 Fe19 2.378130 1_565
Fe14 Fe22 2.429688 1_455
Fe14 Mo3 2.581866 1_555
Fe14 Mo5 2.615521 1_555
Fe14 Mo15 2.669423 1_565
Fe14 Mo10 2.739388 1_456
Fe14 Mo9 2.747746 1_555
Fe14 Mo7 2.809295 1_555
Fe14 Mo1 2.844804 1_555
Fe15 Fe18 2.378126 1_545
Fe15 Fe23 2.429696 1_655
Fe15 Mo2 2.581858 1_555
Fe15 Mo4 2.615532 1_555
Fe15 Mo14 2.669431 1_545
Fe15 Mo11 2.739377 1_654
Fe15 Mo8 2.747738 1_555
Fe15 Mo6 2.809299 1_555
Fe15 Mo0 2.844807 1_555
Fe16 Fe17 2.348127 1_645
Fe16 Fe17 2.348127 1_555
Fe16 Fe24 2.369234 1_545
Fe16 Fe25 2.369234 1_554
Fe16 Mo6 2.677865 1_545
Fe16 Mo7 2.677865 1_554
Fe16 Mo9 2.740588 1_554
Fe16 Mo8 2.740588 1_545
Fe16 Mo12 2.783753 1_555
Fe16 Mo13 2.783753 1_544
Fe17 Fe24 2.369234 1_455
Fe17 Fe25 2.369234 1_554
Fe17 Mo6 2.677865 1_455
Fe17 Mo7 2.677865 1_554
Fe17 Mo9 2.740588 1_554
Fe17 Mo8 2.740588 1_455
Fe17 Mo12 2.783753 1_555
Fe17 Mo13 2.783753 1_454
Fe18 Fe6 2.376179 1_565
Fe18 Fe9 2.376179 1_655
Fe18 Mo14 2.586756 1_555
Fe18 Mo2 2.609740 1_565
Fe18 Mo2 2.609740 1_655
Fe18 Mo10 2.729050 1_555
Fe18 Mo11 2.749636 1_664
Fe18 Mo0 2.812493 1_655
Fe18 Mo0 2.812493 1_565
Fe19 Fe8 2.376179 1_455
Fe19 Fe7 2.376179 1_545
Fe19 Mo15 2.586756 1_555
Fe19 Mo3 2.609740 1_545
Fe19 Mo3 2.609740 1_455
Fe19 Mo11 2.729050 1_555
Fe19 Mo10 2.749636 1_446
Fe19 Mo1 2.812493 1_455
Fe19 Mo1 2.812493 1_545
Fe20 Fe5 2.316544 1_555
Fe20 Fe24 2.388979 1_555
Fe20 Fe6 2.438980 1_565
Fe20 Fe9 2.438980 1_655
Fe20 Mo17 2.715417 1_655
Fe20 Mo17 2.715417 1_565
Fe20 Mo16 2.718931 1_555
Fe20 Mo12 2.783143 1_655
Fe20 Mo12 2.783143 1_565
Fe20 Mo6 2.797027 1_555
Fe21 Fe3 2.316544 1_555
Fe21 Fe4 2.316544 1_555
Fe21 Fe25 2.388979 1_555
Fe21 Fe8 2.438980 1_455
Fe21 Fe7 2.438980 1_545
Fe21 Mo16 2.715417 1_455
Fe21 Mo16 2.715417 1_545
Fe21 Mo17 2.718931 1_555
Fe21 Mo13 2.783143 1_455
Fe21 Mo13 2.783143 1_545
Fe21 Mo7 2.797027 1_555
Fe22 Fe3 2.342156 1_565
Fe22 Fe4 2.342156 1_655
Fe22 Mo5 2.603424 1_565
Fe22 Mo5 2.603424 1_655
Fe22 Mo15 2.695938 1_665
Fe22 Mo13 2.727285 1_555
Fe22 Mo14 2.768954 1_555
Fe22 Mo7 2.816842 1_655
Fe22 Mo7 2.816842 1_565
Fe23 Fe5 2.342156 1_455
Fe23 Mo4 2.603424 1_545
Fe23 Mo4 2.603424 1_455
Fe23 Mo14 2.695938 1_445
Fe23 Mo12 2.727285 1_555
Fe23 Mo15 2.768954 1_555
Fe23 Mo6 2.816842 1_545
Fe23 Mo6 2.816842 1_455
Fe24 Fe9 2.341185 1_655
Fe24 Fe6 2.341185 1_565
Fe24 Mo10 2.648424 1_555
Fe24 Mo6 2.652841 1_555
Fe24 Mo12 2.748137 1_655
Fe24 Mo12 2.748137 1_565
Fe24 Mo9 2.779418 1_654
Fe24 Mo9 2.779418 1_564
Fe25 Fe8 2.341185 1_455
Fe25 Fe7 2.341185 1_545
Fe25 Mo11 2.648424 1_555
Fe25 Mo7 2.652841 1_555
Fe25 Mo13 2.748137 1_455
Fe25 Mo13 2.748137 1_545
Fe25 Mo8 2.779418 1_456
Fe25 Mo8 2.779418 1_546
Mo0 Mo2 2.686910 1_555
Mo0 Mo14 2.782499 1_455
Mo0 Mo14 2.782499 1_545
Mo0 Mo17 2.860883 1_555
Mo0 Mo5 3.030513 1_555
Mo0 Mo4 3.171261 1_555
Mo1 Mo3 2.686910 1_555
Mo1 Mo15 2.782499 1_655
Mo1 Mo15 2.782499 1_565
Mo1 Mo16 2.860883 1_555
Mo1 Mo4 3.030513 1_555
Mo1 Mo5 3.171261 1_555
Mo2 Mo3 2.467397 1_554
Mo2 Mo8 3.128795 1_555
Mo2 Mo9 3.180207 1_554
Mo3 Mo9 3.128795 1_555
Mo3 Mo8 3.180207 1_556
Mo4 Mo5 2.490878 1_555
Mo4 Mo6 2.677908 1_555
Mo5 Mo7 2.677908 1_555
Mo6 Mo8 2.826403 1_555
Mo7 Mo9 2.826403 1_555
Mo10 Mo11 2.740555 1_664
Mo10 Mo9 2.804369 1_564
Mo10 Mo9 2.804369 1_654
Mo10 Mo3 2.978581 1_564
Mo10 Mo3 2.978581 1_654
Mo10 Mo2 2.992457 1_565
Mo10 Mo2 2.992457 1_655
Mo11 Mo8 2.804369 1_546
Mo11 Mo8 2.804369 1_456
Mo11 Mo2 2.978581 1_456
Mo11 Mo2 2.978581 1_546
Mo11 Mo3 2.992457 1_455
Mo11 Mo3 2.992457 1_545
Mo12 Mo6 2.846336 1_545
Mo12 Mo6 2.846336 1_455
Mo12 Mo17 2.854657 1_555
Mo12 Mo9 2.914440 1_554
Mo13 Mo7 2.846336 1_565
Mo13 Mo7 2.846336 1_655
Mo13 Mo16 2.854657 1_555
Mo13 Mo8 2.914440 1_556
Mo14 Mo15 2.721898 1_665
Mo14 Mo4 2.964011 1_565
Mo14 Mo4 2.964011 1_655
Mo14 Mo5 3.008096 1_565
Mo14 Mo5 3.008096 1_655
Mo15 Mo5 2.964011 1_545
Mo15 Mo5 2.964011 1_455
Mo15 Mo4 3.008096 1_455
Mo15 Mo4 3.008096 1_545
Mo16 Mo17 2.906886 1_655
Mo16 Mo17 2.906886 1_565
