# generated using pymatgen
data_Sr2Pr2PtO6
_symmetry_space_group_name_H-M   'P 1'
_cell_length_a   6.93986898
_cell_length_b   6.93986898
_cell_length_c   6.93986946
_cell_angle_alpha   51.61477426
_cell_angle_beta   51.61477426
_cell_angle_gamma   51.61476794
_symmetry_Int_Tables_number   1
_chemical_formula_structural   Sr2Pr2PtO6
_chemical_formula_sum   'Sr2 Pr2 Pt1 O6'
_cell_volume   189.69791235
_cell_formula_units_Z   1
loop_
 _symmetry_equiv_pos_site_id
 _symmetry_equiv_pos_as_xyz
  1  'x, y, z'
loop_
 _atom_site_type_symbol
 _atom_site_label
 _atom_site_symmetry_multiplicity
 _atom_site_fract_x
 _atom_site_fract_y
 _atom_site_fract_z
 _atom_site_occupancy
  Sr  Sr0  1  0.16461900  0.16461900  0.16461900  1
  Sr  Sr1  1  0.83538100  0.83538100  0.83538100  1
  Pr  Pr0  1  0.64148000  0.64148000  0.64148000  1
  Pr  Pr1  1  0.35852000  0.35852000  0.35852000  1
  Pt  Pt0  1  0.00000000  0.00000000  0.00000000  1
  O  O0  1  0.76393800  0.42131600  0.03460000  1
  O  O1  1  0.42131600  0.03460000  0.76393800  1
  O  O2  1  0.03460000  0.76393800  0.42131600  1
  O  O3  1  0.23606200  0.57868400  0.96540000  1
  O  O4  1  0.57868400  0.96540000  0.23606200  1
  O  O5  1  0.96540000  0.23606200  0.57868400  1
loop_
_geom_bond_atom_site_label_1
_geom_bond_atom_site_label_2
_geom_bond_distance
_geom_bond_site_symmetry_2
O0 Pr1 2.368703 1_555
O0 Pt0 2.392750 1_655
O0 Sr1 2.529590 1_554
O0 Pr0 2.567074 1_554
O0 Sr0 2.586063 1_655
O1 Pr1 2.368703 1_555
O1 Pt0 2.392750 1_556
O1 Sr1 2.529590 1_545
O1 Pr0 2.567074 1_545
O1 Sr0 2.586064 1_556
O2 Pr1 2.368703 1_555
O2 Pt0 2.392750 1_565
O2 Sr1 2.529590 1_455
O2 Pr0 2.567074 1_455
O2 Sr0 2.586063 1_565
O3 Pr0 2.368703 1_555
O3 Pt0 2.392750 1_566
O3 Sr0 2.529590 1_556
O3 Pr1 2.567074 1_556
O3 Sr1 2.586063 1_455
O4 Pr0 2.368703 1_555
O4 Pt0 2.392750 1_665
O4 Sr0 2.529590 1_565
O4 Pr1 2.567074 1_565
O4 Sr1 2.586064 1_554
O5 Pr0 2.368703 1_555
O5 Pt0 2.392750 1_656
O5 Sr0 2.529590 1_655
O5 Pr1 2.567074 1_655
O5 Sr1 2.586063 1_545
