# generated using pymatgen
data_K2TiHF7
_symmetry_space_group_name_H-M   'P 1'
_cell_length_a   6.18913500
_cell_length_b   6.17260200
_cell_length_c   9.18584074
_cell_angle_alpha   90.00000000
_cell_angle_beta   99.96575270
_cell_angle_gamma   90.00000000
_symmetry_Int_Tables_number   1
_chemical_formula_structural   K2TiHF7
_chemical_formula_sum   'K4 Ti2 H2 F14'
_cell_volume   345.63227840
_cell_formula_units_Z   2
loop_
 _symmetry_equiv_pos_site_id
 _symmetry_equiv_pos_as_xyz
  1  'x, y, z'
loop_
 _atom_site_type_symbol
 _atom_site_label
 _atom_site_symmetry_multiplicity
 _atom_site_fract_x
 _atom_site_fract_y
 _atom_site_fract_z
 _atom_site_occupancy
  K  K0  1  0.24346200  0.25000000  0.99592900  1
  K  K1  1  0.75653800  0.75000000  0.00407100  1
  K  K2  1  0.18133700  0.75000000  0.67343700  1
  K  K3  1  0.81866300  0.25000000  0.32656300  1
  Ti  Ti0  1  0.30273100  0.75000000  0.21443000  1
  Ti  Ti1  1  0.69726900  0.25000000  0.78557000  1
  H  H0  1  0.34423900  0.25000000  0.53323300  1
  H  H1  1  0.65576100  0.75000000  0.46676700  1
  F  F0  1  0.18397800  0.25000000  0.52316400  1
  F  F1  1  0.81602200  0.75000000  0.47683600  1
  F  F2  1  0.40615900  0.75000000  0.42430900  1
  F  F3  1  0.59384100  0.25000000  0.57569100  1
  F  F4  1  0.09133100  0.53471000  0.22143300  1
  F  F5  1  0.90866900  0.03471000  0.77856700  1
  F  F6  1  0.90866900  0.46529000  0.77856700  1
  F  F7  1  0.09133100  0.96529000  0.22143300  1
  F  F8  1  0.21831100  0.75000000  0.00566700  1
  F  F9  1  0.78168900  0.25000000  0.99433300  1
  F  F10  1  0.51262400  0.96653100  0.19165300  1
  F  F11  1  0.48737600  0.46653100  0.80834700  1
  F  F12  1  0.48737600  0.03346900  0.80834700  1
  F  F13  1  0.51262400  0.53346900  0.19165300  1
loop_
_geom_bond_atom_site_label_1
_geom_bond_atom_site_label_2
_geom_bond_distance
_geom_bond_site_symmetry_2
F0 H0 0.980113 1_555
F0 K3 2.638221 1_455
F1 H1 0.980113 1_555
F1 K2 2.638221 1_655
F2 H1 1.526448 1_555
F2 Ti0 1.923401 1_555
F2 K2 2.876679 1_555
F3 H0 1.526448 1_555
F3 Ti1 1.923401 1_555
F3 K3 2.876679 1_555
F4 Ti0 1.873796 1_555
F4 K3 2.726361 1_455
F4 K1 2.934985 1_455
F4 K0 2.990140 1_554
F5 Ti1 1.873796 1_555
F5 K2 2.726361 1_645
F5 K0 2.934985 1_655
F5 K1 2.990140 1_546
F6 Ti1 1.873796 1_555
F6 K2 2.726361 1_655
F6 K0 2.934985 1_655
F6 K1 2.990140 1_556
F7 Ti0 1.873796 1_555
F7 K3 2.726361 1_465
F7 K1 2.934985 1_455
F7 K0 2.990140 1_564
F8 Ti0 1.898323 1_555
F8 K1 2.855475 1_455
F8 K2 3.020630 1_554
F8 K0 3.092298 1_554
F8 K0 3.092298 1_564
F9 Ti1 1.898323 1_555
F9 K0 2.855475 1_655
F9 K3 3.020630 1_556
F9 K1 3.092298 1_546
F9 K1 3.092298 1_556
F10 Ti0 1.900470 1_555
F10 K3 2.715252 1_565
F10 K1 2.816866 1_555
F10 K0 2.834168 1_564
F11 Ti1 1.900470 1_555
F11 K2 2.715252 1_555
F11 K0 2.816866 1_555
F11 K1 2.834168 1_556
F12 Ti1 1.900470 1_555
F12 K2 2.715252 1_545
F12 K0 2.816866 1_555
F12 K1 2.834168 1_546
F13 Ti0 1.900470 1_555
F13 K3 2.715252 1_555
F13 K1 2.816866 1_555
F13 K0 2.834168 1_554
