# generated using pymatgen
data_Tb2In3Cu
_symmetry_space_group_name_H-M   'P 1'
_cell_length_a   7.22264200
_cell_length_b   9.56988972
_cell_length_c   16.65760203
_cell_angle_alpha   89.99450611
_cell_angle_beta   90.00000000
_cell_angle_gamma   90.00000000
_symmetry_Int_Tables_number   1
_chemical_formula_structural   Tb2In3Cu
_chemical_formula_sum   'Tb16 In24 Cu8'
_cell_volume   1151.37157230
_cell_formula_units_Z   8
loop_
 _symmetry_equiv_pos_site_id
 _symmetry_equiv_pos_as_xyz
  1  'x, y, z'
loop_
 _atom_site_type_symbol
 _atom_site_label
 _atom_site_symmetry_multiplicity
 _atom_site_fract_x
 _atom_site_fract_y
 _atom_site_fract_z
 _atom_site_occupancy
  Tb  Tb0_0  1  0.00000000  0.49998350  0.00389600  1
  Tb  Tb0_1  1  0.00000000  0.49998350  0.50389600  1
  Tb  Tb0_2  1  0.00000000  0.99998350  0.00389600  1
  Tb  Tb0_3  1  0.00000000  0.99998350  0.50389600  1
  Tb  Tb0_4  1  0.50000000  0.49998350  0.00389600  1
  Tb  Tb0_5  1  0.50000000  0.49998350  0.50389600  1
  Tb  Tb0_6  1  0.50000000  0.99998350  0.00389600  1
  Tb  Tb0_7  1  0.50000000  0.99998350  0.50389600  1
  Tb  Tb1_0  1  0.00000000  0.24999500  0.24786900  1
  Tb  Tb1_1  1  0.00000000  0.24999500  0.74786900  1
  Tb  Tb1_2  1  0.00000000  0.74999500  0.24786900  1
  Tb  Tb1_3  1  0.00000000  0.74999500  0.74786900  1
  Tb  Tb1_4  1  0.50000000  0.24999500  0.24786900  1
  Tb  Tb1_5  1  0.50000000  0.24999500  0.74786900  1
  Tb  Tb1_6  1  0.50000000  0.74999500  0.24786900  1
  Tb  Tb1_7  1  0.50000000  0.74999500  0.74786900  1
  In  In0_0  1  0.25000000  0.24998250  0.41852150  1
  In  In0_1  1  0.25000000  0.24998250  0.91852150  1
  In  In0_2  1  0.25000000  0.74998250  0.41852150  1
  In  In0_3  1  0.25000000  0.74998250  0.91852150  1
  In  In0_4  1  0.75000000  0.24998250  0.41852150  1
  In  In0_5  1  0.75000000  0.24998250  0.91852150  1
  In  In0_6  1  0.75000000  0.74998250  0.41852150  1
  In  In0_7  1  0.75000000  0.74998250  0.91852150  1
  In  In1_0  1  0.25000000  0.24997800  0.09142750  1
  In  In1_1  1  0.25000000  0.24997800  0.59142750  1
  In  In1_2  1  0.25000000  0.74997800  0.09142750  1
  In  In1_3  1  0.25000000  0.74997800  0.59142750  1
  In  In1_4  1  0.75000000  0.24997800  0.09142750  1
  In  In1_5  1  0.75000000  0.24997800  0.59142750  1
  In  In1_6  1  0.75000000  0.74997800  0.09142750  1
  In  In1_7  1  0.75000000  0.74997800  0.59142750  1
  In  In2_0  1  0.25000000  0.49999450  0.32342000  1
  In  In2_1  1  0.25000000  0.49999450  0.82342000  1
  In  In2_2  1  0.25000000  0.99999450  0.32342000  1
  In  In2_3  1  0.25000000  0.99999450  0.82342000  1
  In  In2_4  1  0.75000000  0.49999450  0.32342000  1
  In  In2_5  1  0.75000000  0.49999450  0.82342000  1
  In  In2_6  1  0.75000000  0.99999450  0.32342000  1
  In  In2_7  1  0.75000000  0.99999450  0.82342000  1
  Cu  Cu0_0  1  0.25000000  0.49996650  0.16486650  1
  Cu  Cu0_1  1  0.25000000  0.49996650  0.66486650  1
  Cu  Cu0_2  1  0.25000000  0.99996650  0.16486650  1
  Cu  Cu0_3  1  0.25000000  0.99996650  0.66486650  1
  Cu  Cu0_4  1  0.75000000  0.49996650  0.16486650  1
  Cu  Cu0_5  1  0.75000000  0.49996650  0.66486650  1
  Cu  Cu0_6  1  0.75000000  0.99996650  0.16486650  1
  Cu  Cu0_7  1  0.75000000  0.99996650  0.66486650  1
loop_
_geom_bond_atom_site_label_1
_geom_bond_atom_site_label_2
_geom_bond_distance
_geom_bond_site_symmetry_2
Tb0_0 Tb0_4 3.611321 1_555
Tb0_0 Tb0_4 3.611321 1_455
Tb0_1 Tb0_5 3.611321 1_555
Tb0_1 Tb0_5 3.611321 1_455
Tb0_2 Tb0_6 3.611321 1_455
Tb0_2 Tb0_6 3.611321 1_555
Tb0_3 Tb0_7 3.611321 1_555
Tb0_3 Tb0_7 3.611321 1_455
Tb1_0 Tb1_4 3.611321 1_455
Tb1_0 Tb1_4 3.611321 1_555
Tb1_1 Tb1_5 3.611321 1_455
Tb1_1 Tb1_5 3.611321 1_555
Tb1_2 Tb1_6 3.611321 1_555
Tb1_2 Tb1_6 3.611321 1_455
Tb1_3 Tb1_7 3.611321 1_555
Tb1_3 Tb1_7 3.611321 1_455
In0_0 In2_0 2.869376 1_555
In0_0 In2_2 2.869438 1_545
In0_0 In1_1 2.880199 1_555
In0_0 Tb0_7 3.317545 1_545
In0_0 Tb0_3 3.317545 1_545
In0_0 Tb0_1 3.317755 1_555
In0_0 Tb0_5 3.317755 1_555
In0_0 Tb1_4 3.367660 1_555
In0_0 Tb1_0 3.367660 1_555
In0_1 In2_1 2.869376 1_555
In0_1 In2_3 2.869438 1_545
In0_1 In1_0 2.880199 1_556
In0_1 Tb0_2 3.317545 1_546
In0_1 Tb0_6 3.317545 1_546
In0_1 Tb0_4 3.317755 1_556
In0_1 Tb0_0 3.317755 1_556
In0_1 Tb1_1 3.367660 1_555
In0_1 Tb1_5 3.367660 1_555
In0_2 In2_2 2.869376 1_555
In0_2 In2_0 2.869438 1_555
In0_2 In1_3 2.880199 1_555
In0_2 Tb0_1 3.317545 1_555
In0_2 Tb0_5 3.317545 1_555
In0_2 Tb0_7 3.317755 1_555
In0_2 Tb0_3 3.317755 1_555
In0_2 Tb1_2 3.367660 1_555
In0_2 Tb1_6 3.367660 1_555
In0_3 In2_3 2.869376 1_555
In0_3 In2_1 2.869438 1_555
In0_3 In1_2 2.880199 1_556
In0_3 Tb0_0 3.317545 1_556
In0_3 Tb0_4 3.317545 1_556
In0_3 Tb0_2 3.317755 1_556
In0_3 Tb0_6 3.317755 1_556
In0_3 Tb1_3 3.367660 1_555
In0_3 Tb1_7 3.367660 1_555
In0_4 In2_4 2.869376 1_555
In0_4 In2_6 2.869438 1_545
In0_4 In1_5 2.880199 1_555
In0_4 Tb0_3 3.317545 1_645
In0_4 Tb0_7 3.317545 1_545
In0_4 Tb0_1 3.317755 1_655
In0_4 Tb0_5 3.317755 1_555
In0_4 Tb1_4 3.367660 1_555
In0_4 Tb1_0 3.367660 1_655
In0_5 In2_5 2.869376 1_555
In0_5 In2_7 2.869438 1_545
In0_5 In1_4 2.880199 1_556
In0_5 Tb0_2 3.317545 1_646
In0_5 Tb0_6 3.317545 1_546
In0_5 Tb0_0 3.317755 1_656
In0_5 Tb0_4 3.317755 1_556
In0_5 Tb1_5 3.367660 1_555
In0_5 Tb1_1 3.367660 1_655
In0_6 In2_6 2.869376 1_555
In0_6 In2_4 2.869438 1_555
In0_6 In1_7 2.880199 1_555
In0_6 Tb0_5 3.317545 1_555
In0_6 Tb0_1 3.317545 1_655
In0_6 Tb0_3 3.317755 1_655
In0_6 Tb0_7 3.317755 1_555
In0_6 Tb1_2 3.367660 1_655
In0_6 Tb1_6 3.367660 1_555
In0_7 In2_7 2.869376 1_555
In0_7 In2_5 2.869438 1_555
In0_7 In1_6 2.880199 1_556
In0_7 Tb0_0 3.317545 1_656
In0_7 Tb0_4 3.317545 1_556
In0_7 Tb0_6 3.317755 1_556
In0_7 Tb0_2 3.317755 1_656
In0_7 Tb1_3 3.367660 1_655
In0_7 Tb1_7 3.367660 1_555
In1_0 Tb1_0 3.170384 1_555
In1_0 Tb1_4 3.170384 1_555
In1_0 Tb0_0 3.333147 1_555
In1_0 Tb0_4 3.333147 1_555
In1_0 Tb0_2 3.333272 1_545
In1_0 Tb0_6 3.333272 1_545
In1_1 Tb1_1 3.170384 1_555
In1_1 Tb1_5 3.170384 1_555
In1_1 Tb0_5 3.333147 1_555
In1_1 Tb0_1 3.333147 1_555
In1_1 Tb0_3 3.333272 1_545
In1_1 Tb0_7 3.333272 1_545
In1_2 Tb1_2 3.170384 1_555
In1_2 Tb1_6 3.170384 1_555
In1_2 Tb0_6 3.333147 1_555
In1_2 Tb0_2 3.333147 1_555
In1_2 Tb0_0 3.333272 1_555
In1_2 Tb0_4 3.333272 1_555
In1_3 Tb1_7 3.170384 1_555
In1_3 Tb1_3 3.170384 1_555
In1_3 Tb0_3 3.333147 1_555
In1_3 Tb0_7 3.333147 1_555
In1_3 Tb0_1 3.333272 1_555
In1_3 Tb0_5 3.333272 1_555
In1_4 Tb1_0 3.170384 1_655
In1_4 Tb1_4 3.170384 1_555
In1_4 Tb0_4 3.333147 1_555
In1_4 Tb0_0 3.333147 1_655
In1_4 Tb0_6 3.333272 1_545
In1_4 Tb0_2 3.333272 1_645
In1_5 Tb1_1 3.170384 1_655
In1_5 Tb1_5 3.170384 1_555
In1_5 Tb0_1 3.333147 1_655
In1_5 Tb0_5 3.333147 1_555
In1_5 Tb0_7 3.333272 1_545
In1_5 Tb0_3 3.333272 1_645
In1_6 Tb1_2 3.170384 1_655
In1_6 Tb1_6 3.170384 1_555
In1_6 Tb0_2 3.333147 1_655
In1_6 Tb0_6 3.333147 1_555
In1_6 Tb0_4 3.333272 1_555
In1_6 Tb0_0 3.333272 1_655
In1_7 Tb1_7 3.170384 1_555
In1_7 Tb1_3 3.170384 1_655
In1_7 Tb0_3 3.333147 1_655
In1_7 Tb0_7 3.333147 1_555
In1_7 Tb0_1 3.333272 1_655
In1_7 Tb0_5 3.333272 1_555
In2_0 Tb1_2 3.250784 1_555
In2_0 Tb1_6 3.250784 1_555
In2_0 Tb1_0 3.250955 1_555
In2_0 Tb1_4 3.250955 1_555
In2_0 Tb0_1 3.506884 1_555
In2_0 Tb0_5 3.506884 1_555
In2_1 Tb1_3 3.250784 1_555
In2_1 Tb1_7 3.250784 1_555
In2_1 Tb1_1 3.250955 1_555
In2_1 Tb1_5 3.250955 1_555
In2_1 Tb0_0 3.506884 1_556
In2_1 Tb0_4 3.506884 1_556
In2_2 Tb1_0 3.250784 1_565
In2_2 Tb1_4 3.250784 1_565
In2_2 Tb1_6 3.250955 1_555
In2_2 Tb1_2 3.250955 1_555
In2_2 Tb0_7 3.506884 1_555
In2_2 Tb0_3 3.506884 1_555
In2_3 Tb1_5 3.250784 1_565
In2_3 Tb1_1 3.250784 1_565
In2_3 Tb1_3 3.250955 1_555
In2_3 Tb1_7 3.250955 1_555
In2_3 Tb0_2 3.506884 1_556
In2_3 Tb0_6 3.506884 1_556
In2_4 Tb1_2 3.250784 1_655
In2_4 Tb1_6 3.250784 1_555
In2_4 Tb1_0 3.250955 1_655
In2_4 Tb1_4 3.250955 1_555
In2_4 Tb0_1 3.506884 1_655
In2_4 Tb0_5 3.506884 1_555
In2_5 Tb1_7 3.250784 1_555
In2_5 Tb1_3 3.250784 1_655
In2_5 Tb1_5 3.250955 1_555
In2_5 Tb1_1 3.250955 1_655
In2_5 Tb0_4 3.506884 1_556
In2_5 Tb0_0 3.506884 1_656
In2_6 Tb1_0 3.250784 1_665
In2_6 Tb1_4 3.250784 1_565
In2_6 Tb1_6 3.250955 1_555
In2_6 Tb1_2 3.250955 1_655
In2_6 Tb0_7 3.506884 1_555
In2_6 Tb0_3 3.506884 1_655
In2_7 Tb1_1 3.250784 1_665
In2_7 Tb1_5 3.250784 1_565
In2_7 Tb1_3 3.250955 1_655
In2_7 Tb1_7 3.250955 1_555
In2_7 Tb0_2 3.506884 1_656
In2_7 Tb0_6 3.506884 1_556
Cu0_0 In2_0 2.641121 1_555
Cu0_0 In1_2 2.687079 1_555
Cu0_0 In1_0 2.687092 1_555
Cu0_0 Tb0_4 3.232680 1_555
Cu0_0 Tb0_0 3.232680 1_555
Cu0_0 Tb1_0 3.300612 1_555
Cu0_0 Tb1_4 3.300612 1_555
Cu0_0 Tb1_6 3.301200 1_555
Cu0_0 Tb1_2 3.301200 1_555
Cu0_1 In2_1 2.641121 1_555
Cu0_1 In1_3 2.687079 1_555
Cu0_1 In1_1 2.687092 1_555
Cu0_1 Tb0_5 3.232680 1_555
Cu0_1 Tb0_1 3.232680 1_555
Cu0_1 Tb1_1 3.300612 1_555
Cu0_1 Tb1_5 3.300612 1_555
Cu0_1 Tb1_3 3.301200 1_555
Cu0_1 Tb1_7 3.301200 1_555
Cu0_2 In2_2 2.641121 1_555
Cu0_2 In1_0 2.687079 1_565
Cu0_2 In1_2 2.687092 1_555
Cu0_2 Tb0_2 3.232680 1_555
Cu0_2 Tb0_6 3.232680 1_555
Cu0_2 Tb1_2 3.300612 1_555
Cu0_2 Tb1_6 3.300612 1_555
Cu0_2 Tb1_0 3.301200 1_565
Cu0_2 Tb1_4 3.301200 1_565
Cu0_3 In2_3 2.641121 1_555
Cu0_3 In1_1 2.687079 1_565
Cu0_3 In1_3 2.687092 1_555
Cu0_3 Tb0_3 3.232680 1_555
Cu0_3 Tb0_7 3.232680 1_555
Cu0_3 Tb1_3 3.300612 1_555
Cu0_3 Tb1_7 3.300612 1_555
Cu0_3 Tb1_1 3.301200 1_565
Cu0_3 Tb1_5 3.301200 1_565
Cu0_4 In2_4 2.641121 1_555
Cu0_4 In1_6 2.687079 1_555
Cu0_4 In1_4 2.687092 1_555
Cu0_4 Tb0_4 3.232680 1_555
Cu0_4 Tb0_0 3.232680 1_655
Cu0_4 Tb1_0 3.300612 1_655
Cu0_4 Tb1_4 3.300612 1_555
Cu0_4 Tb1_6 3.301200 1_555
Cu0_4 Tb1_2 3.301200 1_655
Cu0_5 In2_5 2.641121 1_555
Cu0_5 In1_7 2.687079 1_555
Cu0_5 In1_5 2.687092 1_555
Cu0_5 Tb0_1 3.232680 1_655
Cu0_5 Tb0_5 3.232680 1_555
Cu0_5 Tb1_5 3.300612 1_555
Cu0_5 Tb1_1 3.300612 1_655
Cu0_5 Tb1_7 3.301200 1_555
Cu0_5 Tb1_3 3.301200 1_655
Cu0_6 In2_6 2.641121 1_555
Cu0_6 In1_4 2.687079 1_565
Cu0_6 In1_6 2.687092 1_555
Cu0_6 Tb0_2 3.232680 1_655
Cu0_6 Tb0_6 3.232680 1_555
Cu0_6 Tb1_2 3.300612 1_655
Cu0_6 Tb1_6 3.300612 1_555
Cu0_6 Tb1_0 3.301200 1_665
Cu0_6 Tb1_4 3.301200 1_565
Cu0_7 In2_7 2.641121 1_555
Cu0_7 In1_5 2.687079 1_565
Cu0_7 In1_7 2.687092 1_555
Cu0_7 Tb0_3 3.232680 1_655
Cu0_7 Tb0_7 3.232680 1_555
Cu0_7 Tb1_7 3.300612 1_555
Cu0_7 Tb1_3 3.300612 1_655
Cu0_7 Tb1_1 3.301200 1_665
Cu0_7 Tb1_5 3.301200 1_565
