# generated using pymatgen
data_Ti3Nb
_symmetry_space_group_name_H-M   'P 1'
_cell_length_a   5.79284392
_cell_length_b   5.79284392
_cell_length_c   18.09397684
_cell_angle_alpha   90.00000000
_cell_angle_beta   90.00000000
_cell_angle_gamma   112.65037351
_symmetry_Int_Tables_number   1
_chemical_formula_structural   Ti3Nb
_chemical_formula_sum   'Ti24 Nb8'
_cell_volume   560.34971077
_cell_formula_units_Z   8
loop_
 _symmetry_equiv_pos_site_id
 _symmetry_equiv_pos_as_xyz
  1  'x, y, z'
loop_
 _atom_site_type_symbol
 _atom_site_label
 _atom_site_symmetry_multiplicity
 _atom_site_fract_x
 _atom_site_fract_y
 _atom_site_fract_z
 _atom_site_occupancy
  Ti  Ti0_0  1  0.09133375  0.40866626  0.00000000  1
  Ti  Ti0_1  1  0.09133375  0.40866626  0.50000000  1
  Ti  Ti0_2  1  0.09133375  0.90866625  0.00000000  1
  Ti  Ti0_3  1  0.09133375  0.90866625  0.50000000  1
  Ti  Ti0_4  1  0.59133375  0.40866626  0.00000000  1
  Ti  Ti0_5  1  0.59133375  0.40866626  0.50000000  1
  Ti  Ti0_6  1  0.59133375  0.90866626  0.00000000  1
  Ti  Ti0_7  1  0.59133375  0.90866626  0.50000000  1
  Ti  Ti1_0  1  0.39567211  0.10432789  0.37577600  1
  Ti  Ti1_1  1  0.39567211  0.10432789  0.87577600  1
  Ti  Ti1_2  1  0.39567211  0.60432789  0.37577600  1
  Ti  Ti1_3  1  0.39567211  0.60432789  0.87577600  1
  Ti  Ti1_4  1  0.89567211  0.10432789  0.37577600  1
  Ti  Ti1_5  1  0.89567211  0.10432789  0.87577600  1
  Ti  Ti1_6  1  0.89567211  0.60432788  0.37577600  1
  Ti  Ti1_7  1  0.89567211  0.60432788  0.87577600  1
  Ti  Ti2_0  1  0.39567211  0.10432789  0.12422400  1
  Ti  Ti2_1  1  0.39567211  0.10432789  0.62422400  1
  Ti  Ti2_2  1  0.39567211  0.60432789  0.12422400  1
  Ti  Ti2_3  1  0.39567211  0.60432789  0.62422400  1
  Ti  Ti2_4  1  0.89567211  0.10432789  0.12422400  1
  Ti  Ti2_5  1  0.89567211  0.10432789  0.62422400  1
  Ti  Ti2_6  1  0.89567211  0.60432788  0.12422400  1
  Ti  Ti2_7  1  0.89567211  0.60432788  0.62422400  1
  Nb  Nb0_0  1  0.11732202  0.38267798  0.25000000  1
  Nb  Nb0_1  1  0.11732202  0.38267798  0.75000000  1
  Nb  Nb0_2  1  0.11732202  0.88267798  0.25000000  1
  Nb  Nb0_3  1  0.11732202  0.88267798  0.75000000  1
  Nb  Nb0_4  1  0.61732202  0.38267798  0.25000000  1
  Nb  Nb0_5  1  0.61732202  0.38267798  0.75000000  1
  Nb  Nb0_6  1  0.61732202  0.88267797  0.25000000  1
  Nb  Nb0_7  1  0.61732202  0.88267797  0.75000000  1
loop_
_geom_bond_atom_site_label_1
_geom_bond_atom_site_label_2
_geom_bond_distance
_geom_bond_site_symmetry_2
Ti0_0 Ti1_3 2.811745 1_554
Ti0_0 Ti2_2 2.811745 1_555
Ti0_0 Ti1_5 2.811745 1_454
Ti0_0 Ti2_4 2.811745 1_455
Ti0_0 Ti0_2 2.896422 1_555
Ti0_0 Ti0_4 2.896422 1_455
Ti0_0 Ti0_4 2.896422 1_555
Ti0_0 Ti0_2 2.896422 1_545
Ti0_0 Ti2_6 2.934454 1_455
Ti0_0 Ti1_7 2.934454 1_454
Ti0_0 Ti0_6 3.212008 1_445
Ti0_0 Ti0_6 3.212008 1_555
Ti0_1 Ti2_3 2.811745 1_555
Ti0_1 Ti1_2 2.811745 1_555
Ti0_1 Ti1_4 2.811745 1_455
Ti0_1 Ti2_5 2.811745 1_455
Ti0_1 Ti0_3 2.896422 1_555
Ti0_1 Ti0_5 2.896422 1_455
Ti0_1 Ti0_5 2.896422 1_555
Ti0_1 Ti0_3 2.896422 1_545
Ti0_1 Ti1_6 2.934454 1_455
Ti0_1 Ti2_7 2.934454 1_455
Ti0_1 Ti0_7 3.212008 1_445
Ti0_1 Ti0_7 3.212008 1_555
Ti0_2 Ti1_1 2.811745 1_564
Ti0_2 Ti2_0 2.811745 1_565
Ti0_2 Ti1_7 2.811745 1_454
Ti0_2 Ti2_6 2.811745 1_455
Ti0_2 Ti0_6 2.896422 1_455
Ti0_2 Ti0_6 2.896422 1_555
Ti0_2 Ti2_4 2.934454 1_465
Ti0_2 Ti1_5 2.934454 1_464
Ti0_2 Ti0_4 3.212008 1_455
Ti0_2 Ti0_4 3.212008 1_565
Ti0_3 Ti2_1 2.811745 1_565
Ti0_3 Ti1_0 2.811745 1_565
Ti0_3 Ti1_6 2.811745 1_455
Ti0_3 Ti2_7 2.811745 1_455
Ti0_3 Ti0_7 2.896422 1_455
Ti0_3 Ti0_7 2.896422 1_555
Ti0_3 Ti1_4 2.934454 1_465
Ti0_3 Ti2_5 2.934454 1_465
Ti0_3 Ti0_5 3.212008 1_565
Ti0_3 Ti0_5 3.212008 1_455
Ti0_4 Ti2_6 2.811745 1_555
Ti0_4 Ti1_7 2.811745 1_554
Ti0_4 Ti1_1 2.811745 1_554
Ti0_4 Ti2_0 2.811745 1_555
Ti0_4 Ti0_6 2.896422 1_545
Ti0_4 Ti0_6 2.896422 1_555
Ti0_4 Ti1_3 2.934454 1_554
Ti0_4 Ti2_2 2.934454 1_555
Ti0_5 Ti2_7 2.811745 1_555
Ti0_5 Ti1_6 2.811745 1_555
Ti0_5 Ti2_1 2.811745 1_555
Ti0_5 Ti1_0 2.811745 1_555
Ti0_5 Ti0_7 2.896422 1_545
Ti0_5 Ti0_7 2.896422 1_555
Ti0_5 Ti2_3 2.934454 1_555
Ti0_5 Ti1_2 2.934454 1_555
Ti0_6 Ti2_4 2.811745 1_565
Ti0_6 Ti1_5 2.811745 1_564
Ti0_6 Ti2_2 2.811745 1_555
Ti0_6 Ti1_3 2.811745 1_554
Ti0_6 Ti1_1 2.934454 1_564
Ti0_6 Ti2_0 2.934454 1_565
Ti0_7 Ti1_4 2.811745 1_565
Ti0_7 Ti2_5 2.811745 1_565
Ti0_7 Ti2_3 2.811745 1_555
Ti0_7 Ti1_2 2.811745 1_555
Ti0_7 Ti1_0 2.934454 1_565
Ti0_7 Ti2_1 2.934454 1_565
Ti1_0 Ti1_2 2.896422 1_545
Ti1_0 Ti1_2 2.896422 1_555
Ti1_0 Ti1_4 2.896422 1_455
Ti1_0 Ti1_4 2.896422 1_555
Ti1_0 Ti1_6 3.212008 1_555
Ti1_0 Ti1_6 3.212008 1_445
Ti1_1 Ti1_3 2.896422 1_555
Ti1_1 Ti1_3 2.896422 1_545
Ti1_1 Ti1_5 2.896422 1_455
Ti1_1 Ti1_5 2.896422 1_555
Ti1_1 Ti1_7 3.212008 1_555
Ti1_1 Ti1_7 3.212008 1_445
Ti1_2 Ti1_6 2.896422 1_555
Ti1_2 Ti1_6 2.896422 1_455
Ti1_2 Ti1_4 3.212008 1_455
Ti1_2 Ti1_4 3.212008 1_565
Ti1_3 Ti1_7 2.896422 1_555
Ti1_3 Ti1_7 2.896422 1_455
Ti1_3 Ti1_5 3.212008 1_455
Ti1_3 Ti1_5 3.212008 1_565
Ti1_4 Ti1_6 2.896422 1_555
Ti1_4 Ti1_6 2.896422 1_545
Ti1_5 Ti1_7 2.896422 1_555
Ti1_5 Ti1_7 2.896422 1_545
Ti2_0 Ti2_4 2.896422 1_455
Ti2_0 Ti2_4 2.896422 1_555
Ti2_0 Ti2_2 2.896422 1_545
Ti2_0 Ti2_2 2.896422 1_555
Ti2_0 Ti2_6 3.212008 1_555
Ti2_0 Ti2_6 3.212008 1_445
Ti2_1 Ti2_3 2.896422 1_545
Ti2_1 Ti2_5 2.896422 1_455
Ti2_1 Ti2_5 2.896422 1_555
Ti2_1 Ti2_3 2.896422 1_555
Ti2_1 Ti2_7 3.212008 1_555
Ti2_1 Ti2_7 3.212008 1_445
Ti2_2 Ti2_6 2.896422 1_555
Ti2_2 Ti2_6 2.896422 1_455
Ti2_2 Ti2_4 3.212008 1_455
Ti2_2 Ti2_4 3.212008 1_565
Ti2_3 Ti2_7 2.896422 1_555
Ti2_3 Ti2_7 2.896422 1_455
Ti2_3 Ti2_5 3.212008 1_565
Ti2_3 Ti2_5 3.212008 1_455
Ti2_4 Ti2_6 2.896422 1_555
Ti2_4 Ti2_6 2.896422 1_545
Ti2_5 Ti2_7 2.896422 1_555
Ti2_5 Ti2_7 2.896422 1_545
Nb0_0 Ti1_2 2.798781 1_555
Nb0_0 Ti1_4 2.798781 1_455
Nb0_0 Ti2_2 2.798781 1_555
Nb0_0 Ti2_4 2.798781 1_455
Nb0_0 Nb0_2 2.896422 1_545
Nb0_0 Nb0_4 2.896422 1_555
Nb0_0 Nb0_4 2.896422 1_455
Nb0_0 Nb0_2 2.896422 1_555
Nb0_0 Ti1_6 3.121894 1_455
Nb0_0 Ti2_6 3.121894 1_455
Nb0_1 Ti1_3 2.798781 1_555
Nb0_1 Ti2_5 2.798781 1_455
Nb0_1 Ti1_5 2.798781 1_455
Nb0_1 Ti2_3 2.798781 1_555
Nb0_1 Nb0_5 2.896422 1_555
Nb0_1 Nb0_3 2.896422 1_545
Nb0_1 Nb0_3 2.896422 1_555
Nb0_1 Nb0_5 2.896422 1_455
Nb0_1 Ti2_7 3.121894 1_455
Nb0_1 Ti1_7 3.121894 1_455
Nb0_2 Ti1_6 2.798781 1_455
Nb0_2 Ti1_0 2.798781 1_565
Nb0_2 Ti2_0 2.798781 1_565
Nb0_2 Ti2_6 2.798781 1_455
Nb0_2 Nb0_6 2.896422 1_555
Nb0_2 Nb0_6 2.896422 1_455
Nb0_2 Ti1_4 3.121894 1_465
Nb0_2 Ti2_4 3.121894 1_465
Nb0_3 Ti2_7 2.798781 1_455
Nb0_3 Ti1_7 2.798781 1_455
Nb0_3 Ti2_1 2.798781 1_565
Nb0_3 Ti1_1 2.798781 1_565
Nb0_3 Nb0_7 2.896422 1_555
Nb0_3 Nb0_7 2.896422 1_455
Nb0_3 Ti2_5 3.121894 1_465
Nb0_3 Ti1_5 3.121894 1_465
Nb0_4 Ti1_6 2.798781 1_555
Nb0_4 Ti2_6 2.798781 1_555
Nb0_4 Ti1_0 2.798781 1_555
Nb0_4 Ti2_0 2.798781 1_555
Nb0_4 Nb0_6 2.896422 1_555
Nb0_4 Nb0_6 2.896422 1_545
Nb0_4 Ti1_2 3.121894 1_555
Nb0_4 Ti2_2 3.121894 1_555
Nb0_5 Ti2_7 2.798781 1_555
Nb0_5 Ti1_7 2.798781 1_555
Nb0_5 Ti2_1 2.798781 1_555
Nb0_5 Ti1_1 2.798781 1_555
Nb0_5 Nb0_7 2.896422 1_555
Nb0_5 Nb0_7 2.896422 1_545
Nb0_5 Ti1_3 3.121894 1_555
Nb0_5 Ti2_3 3.121894 1_555
Nb0_6 Ti1_2 2.798781 1_555
Nb0_6 Ti2_2 2.798781 1_555
Nb0_6 Ti2_4 2.798781 1_565
Nb0_6 Ti1_4 2.798781 1_565
Nb0_6 Ti2_0 3.121894 1_565
Nb0_6 Ti1_0 3.121894 1_565
Nb0_7 Ti1_3 2.798781 1_555
Nb0_7 Ti2_3 2.798781 1_555
Nb0_7 Ti2_5 2.798781 1_565
Nb0_7 Ti1_5 2.798781 1_565
Nb0_7 Ti1_1 3.121894 1_565
Nb0_7 Ti2_1 3.121894 1_565
