# generated using pymatgen
data_LaCdPd
_symmetry_space_group_name_H-M   'P 1'
_cell_length_a   7.76032138
_cell_length_b   7.76032138
_cell_length_c   4.13013813
_cell_angle_alpha   90.00000000
_cell_angle_beta   90.00000000
_cell_angle_gamma   120.00000003
_symmetry_Int_Tables_number   1
_chemical_formula_structural   LaCdPd
_chemical_formula_sum   'La3 Cd3 Pd3'
_cell_volume   215.40442610
_cell_formula_units_Z   3
loop_
 _symmetry_equiv_pos_site_id
 _symmetry_equiv_pos_as_xyz
  1  'x, y, z'
loop_
 _atom_site_type_symbol
 _atom_site_label
 _atom_site_symmetry_multiplicity
 _atom_site_fract_x
 _atom_site_fract_y
 _atom_site_fract_z
 _atom_site_occupancy
  La  La0  1  0.40844827  0.40844827  0.50000000  1
  La  La1  1  0.59155173  -0.00000000  0.50000000  1
  La  La2  1  -0.00000000  0.59155173  0.50000000  1
  Cd  Cd0  1  0.75361510  0.75361510  -0.00000000  1
  Cd  Cd1  1  0.24638490  -0.00000000  -0.00000000  1
  Cd  Cd2  1  -0.00000000  0.24638490  0.00000000  1
  Pd  Pd0  1  0.66666700  0.33333300  -0.00000000  1
  Pd  Pd1  1  0.33333300  0.66666700  -0.00000000  1
  Pd  Pd2  1  -0.00000000  -0.00000000  0.50000000  1
loop_
_geom_bond_atom_site_label_1
_geom_bond_atom_site_label_2
_geom_bond_distance
_geom_bond_site_symmetry_2
La0 Pd1 3.128554 1_556
La0 Pd1 3.128554 1_555
La0 Pd0 3.128554 1_555
La0 Pd0 3.128554 1_556
La0 Pd2 3.169690 1_555
La1 Pd0 3.128548 1_555
La1 Pd0 3.128548 1_556
La1 Pd1 3.128550 1_545
La1 Pd1 3.128550 1_546
La1 Pd2 3.169690 1_655
La2 Pd1 3.128548 1_556
La2 Pd1 3.128548 1_555
La2 Pd0 3.128550 1_455
La2 Pd0 3.128550 1_456
La2 Pd2 3.169690 1_565
Cd0 Pd2 2.814312 1_665
Cd0 Pd2 2.814312 1_664
Cd0 Pd0 2.981966 1_555
Cd0 Pd1 2.981966 1_555
Cd0 La0 3.382224 1_555
Cd0 La0 3.382224 1_554
Cd0 La1 3.450617 1_564
Cd0 La2 3.450617 1_655
Cd0 La2 3.450617 1_654
Cd0 La1 3.450617 1_565
Cd1 Pd2 2.814312 1_554
Cd1 Pd2 2.814312 1_555
Cd1 Pd1 2.981959 1_545
Cd1 Pd0 2.981964 1_555
Cd1 La1 3.382224 1_555
Cd1 La1 3.382224 1_554
Cd1 La2 3.450617 1_545
Cd1 La2 3.450617 1_544
Cd1 La0 3.450617 1_554
Cd1 La0 3.450617 1_555
Cd2 Pd2 2.814312 1_554
Cd2 Pd2 2.814312 1_555
Cd2 Pd0 2.981959 1_455
Cd2 Pd1 2.981964 1_555
Cd2 La2 3.382224 1_555
Cd2 La2 3.382224 1_554
Cd2 La1 3.450617 1_455
Cd2 La1 3.450617 1_454
Cd2 La0 3.450617 1_554
Cd2 La0 3.450617 1_555
