# generated using pymatgen
data_Na3Ni2P2(CO7)2
_symmetry_space_group_name_H-M   'P 1'
_cell_length_a   8.31067400
_cell_length_b   8.31824619
_cell_length_c   10.22145403
_cell_angle_alpha   107.61280397
_cell_angle_beta   107.54584120
_cell_angle_gamma   102.98308941
_symmetry_Int_Tables_number   1
_chemical_formula_structural   Na3Ni2P2(CO7)2
_chemical_formula_sum   'Na6 Ni4 P4 C4 O28'
_cell_volume   602.11394279
_cell_formula_units_Z   2
loop_
 _symmetry_equiv_pos_site_id
 _symmetry_equiv_pos_as_xyz
  1  'x, y, z'
loop_
 _atom_site_type_symbol
 _atom_site_label
 _atom_site_symmetry_multiplicity
 _atom_site_fract_x
 _atom_site_fract_y
 _atom_site_fract_z
 _atom_site_occupancy
  Na  Na0  1  0.01836200  0.47831200  0.25811600  1
  Na  Na1  1  0.26862200  0.22777000  0.74001600  1
  Na  Na2  1  0.74453600  0.75746800  0.25189700  1
  Na  Na3  1  0.49638000  0.99531300  0.24776900  1
  Na  Na4  1  0.75767400  0.75680500  0.75424100  1
  Na  Na5  1  0.99219700  0.50329800  0.74567300  1
  Ni  Ni0  1  0.18896600  0.94326300  0.34738800  1
  Ni  Ni1  1  0.30926600  0.56347000  0.65158700  1
  Ni  Ni2  1  0.68520800  0.44071200  0.34644700  1
  Ni  Ni3  1  0.80667100  0.06278000  0.65525700  1
  P  P0  1  0.05022600  0.80200800  0.57262500  1
  P  P1  1  0.55523100  0.30737100  0.57562600  1
  P  P2  1  0.44768900  0.70169800  0.42779500  1
  P  P3  1  0.94243500  0.19321300  0.42433700  1
  C  C0  1  0.02101400  0.76648500  0.07271300  1
  C  C1  1  0.47714800  0.72991600  0.92638200  1
  C  C2  1  0.51940200  0.26969000  0.07328300  1
  C  C3  1  0.98715200  0.23052000  0.92731200  1
  O  O0  1  0.07453800  0.32124900  0.06445700  1
  O  O1  1  0.01361800  0.07555700  0.32385800  1
  O  O2  1  0.41261800  0.15635300  0.42878600  1
  O  O3  1  0.31493400  0.57300900  0.46257100  1
  O  O4  1  0.17817200  0.93490400  0.53724200  1
  O  O5  1  0.09294000  0.33669400  0.57385000  1
  O  O6  1  0.15017100  0.71483700  0.66843300  1
  O  O7  1  0.47231300  0.41241800  0.67377900  1
  O  O8  1  0.67361200  0.23842400  0.67901200  1
  O  O9  1  0.03032300  0.27320100  0.82585400  1
  O  O10  1  0.52334700  0.77497100  0.82853400  1
  O  O11  1  0.33303500  0.58778700  0.86608900  1
  O  O12  1  0.84579200  0.08828400  0.87170000  1
  O  O13  1  0.43379000  0.18207900  0.93540800  1
  O  O14  1  0.56340300  0.81495900  0.06539500  1
  O  O15  1  0.16339000  0.90787100  0.13081400  1
  O  O16  1  0.66131700  0.41416500  0.13194800  1
  O  O17  1  0.47448600  0.22468800  0.17187000  1
  O  O18  1  0.97661400  0.72108700  0.17222300  1
  O  O19  1  0.34262000  0.78267500  0.32793300  1
  O  O20  1  0.53165100  0.59859800  0.32923200  1
  O  O21  1  0.83906200  0.27864800  0.32822100  1
  O  O22  1  0.90499400  0.65687800  0.42071100  1
  O  O23  1  0.80679600  0.06621100  0.46039800  1
  O  O24  1  0.68425100  0.44219200  0.54085900  1
  O  O25  1  0.59475500  0.84477600  0.57741400  1
  O  O26  1  0.96707600  0.90684500  0.67085900  1
  O  O27  1  0.93204800  0.68070600  0.93408900  1
loop_
_geom_bond_atom_site_label_1
_geom_bond_atom_site_label_2
_geom_bond_distance
_geom_bond_site_symmetry_2
Na0 O0 2.260399 1_555
Na0 O21 2.396734 1_455
Na0 O22 2.436198 1_455
Na0 O3 2.467484 1_555
Na0 O18 2.484657 1_455
Na0 O16 2.705091 1_455
Na1 O13 2.249058 1_555
Na1 O7 2.415610 1_555
Na1 O5 2.422380 1_555
Na1 O4 2.444957 1_545
Na1 O9 2.453162 1_555
Na1 O11 2.728334 1_555
Na1 O26 2.947934 1_445
Na2 O14 2.296463 1_555
Na2 O22 2.333141 1_555
Na2 O18 2.352647 1_555
Na2 O20 2.434388 1_555
Na2 O16 2.572728 1_555
Na2 O23 2.613638 1_565
Na2 O1 2.777529 1_665
Na3 O17 2.289560 1_565
Na3 O14 2.311930 1_555
Na3 O2 2.323387 1_565
Na3 O19 2.434272 1_555
Na3 O15 2.488208 1_555
Na3 O23 2.624259 1_565
Na4 O10 2.312217 1_555
Na4 O27 2.321707 1_555
Na4 O25 2.324991 1_555
Na4 O26 2.423776 1_555
Na4 O12 2.477859 1_565
Na4 O24 2.646516 1_555
Na5 O27 2.308389 1_555
Na5 O9 2.345360 1_655
Na5 O5 2.375095 1_655
Na5 O6 2.422996 1_655
Na5 O11 2.551934 1_655
Na5 O24 2.594597 1_555
Na5 O8 2.776945 1_555
Ni0 O4 1.990618 1_555
Ni0 O2 1.995904 1_565
Ni0 O1 2.015406 1_565
Ni0 O19 2.052655 1_555
Ni0 O15 2.079931 1_555
Ni0 O18 2.088684 1_455
Ni1 O3 1.971592 1_555
Ni1 O6 2.029107 1_555
Ni1 O5 2.032170 1_555
Ni1 O7 2.053898 1_555
Ni1 O10 2.063874 1_555
Ni1 O11 2.083175 1_555
Ni2 O24 1.985911 1_555
Ni2 O22 2.002011 1_555
Ni2 O20 2.035177 1_555
Ni2 O17 2.059472 1_555
Ni2 O21 2.062302 1_555
Ni2 O16 2.078470 1_555
Ni3 O25 1.967270 1_545
Ni3 O23 2.000872 1_555
Ni3 O8 2.022275 1_555
Ni3 O26 2.063723 1_545
Ni3 O9 2.072689 1_655
Ni3 O12 2.072811 1_555
C0 O27 1.258156 1_454
C0 O15 1.290070 1_555
C0 O18 1.307462 1_455
C1 O14 1.258176 1_556
C1 O10 1.296873 1_555
C1 O11 1.299918 1_555
C2 O13 1.250732 1_554
C2 O17 1.298933 1_555
C2 O16 1.302099 1_555
C3 O0 1.249706 1_656
C3 O12 1.291871 1_555
C3 O9 1.311546 1_655
O1 P3 1.542987 1_455
O2 P1 1.533935 1_555
O3 P2 1.557417 1_555
O4 P0 1.558572 1_555
O5 P3 1.548346 1_455
O6 P0 1.544225 1_555
O7 P1 1.549782 1_555
O8 P1 1.551456 1_555
O19 P2 1.549533 1_555
O20 P2 1.551529 1_555
O21 P3 1.547987 1_555
O22 P0 1.551187 1_655
O23 P3 1.572798 1_555
O24 P1 1.569812 1_555
O25 P2 1.538520 1_555
O26 P0 1.550951 1_655
