# generated using pymatgen
data_Lu2(Ni7B2)3
_symmetry_space_group_name_H-M   'P 1'
_cell_length_a   7.50538492
_cell_length_b   7.50538492
_cell_length_c   7.50538492
_cell_angle_alpha   60.00000000
_cell_angle_beta   60.00000000
_cell_angle_gamma   60.00000000
_symmetry_Int_Tables_number   1
_chemical_formula_structural   Lu2(Ni7B2)3
_chemical_formula_sum   'Lu2 Ni21 B6'
_cell_volume   298.95368602
_cell_formula_units_Z   1
loop_
 _symmetry_equiv_pos_site_id
 _symmetry_equiv_pos_as_xyz
  1  'x, y, z'
loop_
 _atom_site_type_symbol
 _atom_site_label
 _atom_site_symmetry_multiplicity
 _atom_site_fract_x
 _atom_site_fract_y
 _atom_site_fract_z
 _atom_site_occupancy
  Lu  Lu0  1  0.25000000  0.25000000  0.25000000  1
  Lu  Lu1  1  0.75000000  0.75000000  0.75000000  1
  Ni  Ni0  1  0.00000000  0.00000000  -0.00000000  1
  Ni  Ni1  1  0.83834248  0.38721917  0.38721917  1
  Ni  Ni2  1  0.38721917  0.83834248  0.38721917  1
  Ni  Ni3  1  0.38721917  0.38721917  0.83834248  1
  Ni  Ni4  1  0.38721917  0.38721917  0.38721917  1
  Ni  Ni5  1  0.16165752  0.61278083  0.61278083  1
  Ni  Ni6  1  0.61278083  0.16165752  0.61278083  1
  Ni  Ni7  1  0.61278083  0.61278083  0.16165752  1
  Ni  Ni8  1  0.61278083  0.61278083  0.61278083  1
  Ni  Ni9  1  0.66284038  -0.00000000  0.00000000  1
  Ni  Ni10  1  0.66284038  -0.00000000  0.33715962  1
  Ni  Ni11  1  0.66284038  0.33715962  -0.00000000  1
  Ni  Ni12  1  0.00000000  0.66284038  0.33715962  1
  Ni  Ni13  1  -0.00000000  0.66284038  0.00000000  1
  Ni  Ni14  1  0.33715962  0.66284038  0.00000000  1
  Ni  Ni15  1  -0.00000000  0.33715962  0.66284038  1
  Ni  Ni16  1  0.33715962  0.00000000  0.66284038  1
  Ni  Ni17  1  -0.00000000  0.00000000  0.66284038  1
  Ni  Ni18  1  0.33715962  0.00000000  -0.00000000  1
  Ni  Ni19  1  0.00000000  0.33715962  -0.00000000  1
  Ni  Ni20  1  0.00000000  -0.00000000  0.33715962  1
  B  B0  1  0.72784585  0.27215415  0.27215415  1
  B  B1  1  0.72784585  0.27215415  0.72784585  1
  B  B2  1  0.72784585  0.72784585  0.27215415  1
  B  B3  1  0.27215415  0.72784585  0.72784585  1
  B  B4  1  0.27215415  0.72784585  0.27215415  1
  B  B5  1  0.27215415  0.27215415  0.72784585  1
loop_
_geom_bond_atom_site_label_1
_geom_bond_atom_site_label_2
_geom_bond_distance
_geom_bond_site_symmetry_2
Lu0 Ni4 2.522687 1_555
Lu0 Ni1 2.522687 1_455
Lu0 Ni3 2.522687 1_554
Lu0 Ni2 2.522687 1_545
Lu0 Ni18 2.921485 1_555
Lu0 Ni9 2.921485 1_555
Lu0 Ni15 2.921485 1_555
Lu0 Ni12 2.921485 1_555
Lu0 Ni16 2.921485 1_555
Lu0 Ni13 2.921485 1_555
Lu0 Ni20 2.921485 1_555
Lu0 Ni10 2.921485 1_555
Lu0 Ni19 2.921485 1_555
Lu0 Ni11 2.921485 1_555
Lu0 Ni17 2.921485 1_555
Lu0 Ni14 2.921485 1_555
Lu1 Ni8 2.522687 1_555
Lu1 Ni6 2.522687 1_565
Lu1 Ni5 2.522687 1_655
Lu1 Ni7 2.522687 1_556
Lu1 Ni11 2.921485 1_556
Lu1 Ni19 2.921485 1_656
Lu1 Ni17 2.921485 1_665
Lu1 Ni9 2.921485 1_566
Lu1 Ni18 2.921485 1_566
Lu1 Ni15 2.921485 1_655
Lu1 Ni16 2.921485 1_565
Lu1 Ni13 2.921485 1_656
Lu1 Ni10 2.921485 1_565
Lu1 Ni20 2.921485 1_665
Lu1 Ni12 2.921485 1_655
Lu1 Ni14 2.921485 1_556
Ni0 Ni19 2.530513 1_555
Ni0 Ni13 2.530513 1_545
Ni0 Ni15 2.530513 1_554
Ni0 Ni14 2.530513 1_545
Ni0 Ni9 2.530513 1_455
Ni0 Ni18 2.530513 1_555
Ni0 Ni17 2.530513 1_554
Ni0 Ni12 2.530513 1_545
Ni0 Ni16 2.530513 1_554
Ni0 Ni10 2.530513 1_455
Ni0 Ni11 2.530513 1_455
Ni0 Ni20 2.530513 1_555
B0 Ni1 2.087495 1_555
B0 Ni4 2.087495 1_555
B0 Ni6 2.087495 1_555
B0 Ni7 2.087495 1_555
B0 Ni19 2.100081 1_655
B0 Ni20 2.100081 1_655
B0 Ni10 2.100081 1_555
B0 Ni11 2.100081 1_555
B1 Ni6 2.087495 1_555
B1 Ni8 2.087495 1_555
B1 Ni3 2.087495 1_555
B1 Ni1 2.087495 1_555
B1 Ni15 2.100081 1_655
B1 Ni17 2.100081 1_655
B1 Ni11 2.100081 1_556
B1 Ni9 2.100081 1_556
B2 Ni7 2.087495 1_555
B2 Ni8 2.087495 1_555
B2 Ni1 2.087495 1_555
B2 Ni2 2.087495 1_555
B2 Ni10 2.100081 1_565
B2 Ni12 2.100081 1_655
B2 Ni9 2.100081 1_565
B2 Ni13 2.100081 1_655
B3 Ni5 2.087495 1_555
B3 Ni8 2.087495 1_555
B3 Ni3 2.087495 1_555
B3 Ni2 2.087495 1_555
B3 Ni13 2.100081 1_556
B3 Ni17 2.100081 1_565
B3 Ni14 2.100081 1_556
B3 Ni16 2.100081 1_565
B4 Ni2 2.087495 1_555
B4 Ni4 2.087495 1_555
B4 Ni7 2.087495 1_555
B4 Ni5 2.087495 1_555
B4 Ni20 2.100081 1_565
B4 Ni12 2.100081 1_555
B4 Ni18 2.100081 1_565
B4 Ni14 2.100081 1_555
B5 Ni3 2.087495 1_555
B5 Ni4 2.087495 1_555
B5 Ni6 2.087495 1_555
B5 Ni5 2.087495 1_555
B5 Ni16 2.100081 1_555
B5 Ni15 2.100081 1_555
B5 Ni18 2.100081 1_556
B5 Ni19 2.100081 1_556
