# generated using pymatgen
data_Na3SNO8
_symmetry_space_group_name_H-M   'P 1'
_cell_length_a   7.10731600
_cell_length_b   5.22971600
_cell_length_c   10.13558422
_cell_angle_alpha   74.80099291
_cell_angle_beta   90.00000000
_cell_angle_gamma   90.00000000
_symmetry_Int_Tables_number   1
_chemical_formula_structural   Na3SNO8
_chemical_formula_sum   'Na6 S2 N2 O16'
_cell_volume   363.55431034
_cell_formula_units_Z   2
loop_
 _symmetry_equiv_pos_site_id
 _symmetry_equiv_pos_as_xyz
  1  'x, y, z'
loop_
 _atom_site_type_symbol
 _atom_site_label
 _atom_site_symmetry_multiplicity
 _atom_site_fract_x
 _atom_site_fract_y
 _atom_site_fract_z
 _atom_site_occupancy
  Na  Na0  1  0.99390100  0.12089400  0.74243200  1
  Na  Na1  1  0.49390100  0.87910600  0.25756800  1
  Na  Na2  1  0.00609900  0.87910600  0.25756800  1
  Na  Na3  1  0.50609900  0.12089400  0.74243200  1
  Na  Na4  1  0.25000000  0.26428300  0.40910600  1
  Na  Na5  1  0.75000000  0.73571700  0.59089400  1
  S  S0  1  0.75000000  0.32953200  0.41247200  1
  S  S1  1  0.25000000  0.67046800  0.58752800  1
  N  N0  1  0.25000000  0.45378400  0.10296200  1
  N  N1  1  0.75000000  0.54621600  0.89703800  1
  O  O0  1  0.92185400  0.23661200  0.35672700  1
  O  O1  1  0.42185400  0.76338800  0.64327300  1
  O  O2  1  0.07814600  0.76338800  0.64327300  1
  O  O3  1  0.57814600  0.23661200  0.35672700  1
  O  O4  1  0.75000000  0.22821300  0.56577800  1
  O  O5  1  0.25000000  0.77178700  0.43422200  1
  O  O6  1  0.25000000  0.37289300  0.62156500  1
  O  O7  1  0.75000000  0.62710700  0.37843500  1
  O  O8  1  0.25000000  0.20363300  0.15003700  1
  O  O9  1  0.75000000  0.79636700  0.84996300  1
  O  O10  1  0.25000000  0.99278100  0.90025400  1
  O  O11  1  0.75000000  0.00721900  0.09974600  1
  O  O12  1  0.25000000  0.55014600  0.97510900  1
  O  O13  1  0.75000000  0.44985400  0.02489100  1
  O  O14  1  0.75000000  0.39954500  0.81516700  1
  O  O15  1  0.25000000  0.60045500  0.18483300  1
loop_
_geom_bond_atom_site_label_1
_geom_bond_atom_site_label_2
_geom_bond_distance
_geom_bond_site_symmetry_2
Na0 O6 2.388321 1_655
Na0 O10 2.399741 1_645
Na0 O2 2.418572 1_645
Na0 O4 2.449265 1_555
Na0 O9 2.470495 1_545
Na0 O14 2.497073 1_555
Na1 O7 2.388321 1_555
Na1 O11 2.399741 1_565
Na1 O3 2.418572 1_565
Na1 O5 2.449265 1_555
Na1 O8 2.470495 1_565
Na1 O15 2.497073 1_555
Na2 O7 2.388321 1_455
Na2 O11 2.399741 1_465
Na2 O0 2.418572 1_465
Na2 O5 2.449265 1_555
Na2 O8 2.470495 1_565
Na2 O15 2.497073 1_555
Na3 O6 2.388321 1_555
Na3 O10 2.399741 1_545
Na3 O1 2.418572 1_545
Na3 O4 2.449265 1_555
Na3 O9 2.470495 1_545
Na3 O14 2.497073 1_555
Na4 O6 2.366660 1_555
Na4 O3 2.404663 1_555
Na4 O0 2.404663 1_455
Na4 O15 2.482446 1_555
Na4 O5 2.520873 1_545
Na4 O8 2.726210 1_555
Na4 O5 2.731909 1_555
Na5 O7 2.366660 1_555
Na5 O1 2.404663 1_555
Na5 O2 2.404663 1_655
Na5 O14 2.482446 1_555
Na5 O4 2.520873 1_565
Na5 O9 2.726210 1_555
Na5 O4 2.731909 1_555
N0 O12 1.261272 1_554
N0 O15 1.269132 1_555
N0 O8 1.269566 1_555
N1 O13 1.261272 1_556
N1 O14 1.269132 1_555
N1 O9 1.269566 1_555
O0 S0 1.480274 1_555
O1 S1 1.480274 1_555
O2 S1 1.480274 1_555
O3 S0 1.480274 1_555
O4 S0 1.504489 1_555
O5 S1 1.504489 1_555
O6 S1 1.503119 1_555
O7 S0 1.503119 1_555
