# generated using pymatgen
data_LaBPt4
_symmetry_space_group_name_H-M   'P 1'
_cell_length_a   5.48984884
_cell_length_b   5.48984884
_cell_length_c   7.69894783
_cell_angle_alpha   90.00000000
_cell_angle_beta   90.00000000
_cell_angle_gamma   119.99999085
_symmetry_Int_Tables_number   1
_chemical_formula_structural   LaBPt4
_chemical_formula_sum   'La2 B2 Pt8'
_cell_volume   200.94759913
_cell_formula_units_Z   2
loop_
 _symmetry_equiv_pos_site_id
 _symmetry_equiv_pos_as_xyz
  1  'x, y, z'
loop_
 _atom_site_type_symbol
 _atom_site_label
 _atom_site_symmetry_multiplicity
 _atom_site_fract_x
 _atom_site_fract_y
 _atom_site_fract_z
 _atom_site_occupancy
  La  La0  1  0.00000000  0.00000000  0.50000000  1
  La  La1  1  0.00000000  0.00000000  -0.00000000  1
  B  B0  1  0.33333300  0.66666700  -0.00000000  1
  B  B1  1  0.66666700  0.33333300  -0.00000000  1
  Pt  Pt0  1  0.33333300  0.66666700  0.50000000  1
  Pt  Pt1  1  0.66666700  0.33333300  0.50000000  1
  Pt  Pt2  1  0.50000000  -0.00000000  0.20027000  1
  Pt  Pt3  1  0.50000000  0.00000000  0.79973000  1
  Pt  Pt4  1  0.00000000  0.50000000  0.20027000  1
  Pt  Pt5  1  -0.00000000  0.50000000  0.79973000  1
  Pt  Pt6  1  0.50000000  0.50000000  0.20027000  1
  Pt  Pt7  1  0.50000000  0.50000000  0.79973000  1
loop_
_geom_bond_atom_site_label_1
_geom_bond_atom_site_label_2
_geom_bond_distance
_geom_bond_site_symmetry_2
La0 Pt0 3.169562 1_545
La0 Pt1 3.169562 1_455
La0 Pt1 3.169568 1_445
La0 Pt0 3.169568 1_555
La0 Pt0 3.169568 1_445
La0 Pt1 3.169568 1_555
La1 Pt5 3.148328 1_554
La1 Pt5 3.148328 1_544
La1 Pt3 3.148328 1_554
La1 Pt3 3.148328 1_454
La1 Pt4 3.148328 1_555
La1 Pt2 3.148328 1_455
La1 Pt2 3.148328 1_555
La1 Pt4 3.148328 1_545
La1 Pt7 3.148328 1_554
La1 Pt7 3.148328 1_444
La1 Pt6 3.148328 1_555
La1 Pt6 3.148328 1_445
B0 Pt3 2.211083 1_564
B0 Pt5 2.211083 1_554
B0 Pt4 2.211083 1_555
B0 Pt2 2.211083 1_565
B0 Pt7 2.211087 1_554
B0 Pt6 2.211087 1_555
B0 La1 3.169562 1_565
B0 La1 3.169568 1_555
B0 La1 3.169568 1_665
B1 Pt3 2.211083 1_554
B1 Pt5 2.211083 1_654
B1 Pt4 2.211083 1_655
B1 Pt2 2.211083 1_555
B1 Pt7 2.211087 1_554
B1 Pt6 2.211087 1_555
B1 La1 3.169562 1_655
B1 La1 3.169568 1_665
B1 La1 3.169568 1_555
