# generated using pymatgen
data_VCrP2
_symmetry_space_group_name_H-M   'P 1'
_cell_length_a   3.14091195
_cell_length_b   5.41676777
_cell_length_c   6.09178560
_cell_angle_alpha   89.99901898
_cell_angle_beta   89.99999907
_cell_angle_gamma   90.00002784
_symmetry_Int_Tables_number   1
_chemical_formula_structural   VCrP2
_chemical_formula_sum   'V2 Cr2 P4'
_cell_volume   103.64314633
_cell_formula_units_Z   2
loop_
 _symmetry_equiv_pos_site_id
 _symmetry_equiv_pos_as_xyz
  1  'x, y, z'
loop_
 _atom_site_type_symbol
 _atom_site_label
 _atom_site_symmetry_multiplicity
 _atom_site_fract_x
 _atom_site_fract_y
 _atom_site_fract_z
 _atom_site_occupancy
  V  V0  1  0.00000010  0.50572375  0.44695522  1
  V  V1  1  0.00000007  0.00572967  0.55305440  1
  Cr  Cr0  1  0.50000016  0.49324227  0.05700707  1
  Cr  Cr1  1  0.50000019  0.99324436  0.94297669  1
  P  P0  1  0.50000017  0.31025861  0.68769601  1
  P  P1  1  0.50000016  0.81021355  0.31231251  1
  P  P2  1  -0.00000042  0.69077513  0.82134312  1
  P  P3  1  -0.00000043  0.19081266  0.17865499  1
loop_
_geom_bond_atom_site_label_1
_geom_bond_atom_site_label_2
_geom_bond_distance
_geom_bond_site_symmetry_2
Cr0 P1 2.316656 1_555
Cr0 P2 2.381625 1_654
Cr0 P2 2.381628 1_554
Cr0 P3 2.387282 1_655
Cr0 P3 2.387284 1_555
Cr0 P0 2.458445 1_554
Cr1 P0 2.316688 1_565
Cr1 P3 2.381786 1_666
Cr1 P3 2.381789 1_566
Cr1 P2 2.387420 1_655
Cr1 P2 2.387421 1_555
Cr1 P1 2.458655 1_556
P0 V0 2.395424 1_655
P0 V0 2.395425 1_555
P0 V1 2.420780 1_555
P0 V1 2.420780 1_655
P1 V1 2.395572 1_665
P1 V1 2.395573 1_565
P1 V0 2.420618 1_555
P1 V0 2.420619 1_655
P2 V1 2.362538 1_565
P2 V0 2.491264 1_555
P3 V0 2.362457 1_555
P3 V1 2.491365 1_555
