# generated using pymatgen
data_TmNiGe
_symmetry_space_group_name_H-M   'P 1'
_cell_length_a   5.46749404
_cell_length_b   5.46749404
_cell_length_c   6.77417250
_cell_angle_alpha   51.91288417
_cell_angle_beta   51.91288417
_cell_angle_gamma   44.20271642
_symmetry_Int_Tables_number   1
_chemical_formula_structural   TmNiGe
_chemical_formula_sum   'Tm2 Ni2 Ge2'
_cell_volume   105.34511428
_cell_formula_units_Z   2
loop_
 _symmetry_equiv_pos_site_id
 _symmetry_equiv_pos_as_xyz
  1  'x, y, z'
loop_
 _atom_site_type_symbol
 _atom_site_label
 _atom_site_symmetry_multiplicity
 _atom_site_fract_x
 _atom_site_fract_y
 _atom_site_fract_z
 _atom_site_occupancy
  Tm  Tm0  1  0.55006600  0.55006600  0.68992700  1
  Tm  Tm1  1  0.44993400  0.44993400  0.31007300  1
  Ni  Ni0  1  0.16854900  0.16854900  0.27991300  1
  Ni  Ni1  1  0.83145100  0.83145100  0.72008700  1
  Ge  Ge0  1  0.83009600  0.83009600  0.10432300  1
  Ge  Ge1  1  0.16990400  0.16990400  0.89567700  1
loop_
_geom_bond_atom_site_label_1
_geom_bond_atom_site_label_2
_geom_bond_distance
_geom_bond_site_symmetry_2
Ni0 Ni1 2.644836 1_445
Ni0 Tm1 2.928599 1_545
Ni0 Tm1 2.928599 1_455
Ni0 Tm1 2.990760 1_555
Ni0 Tm0 2.991265 1_455
Ni0 Tm0 2.991265 1_545
Ni0 Tm0 3.216145 1_554
Ni1 Tm0 2.928599 1_565
Ni1 Tm0 2.928599 1_655
Ni1 Tm0 2.990760 1_555
Ni1 Tm1 2.991265 1_565
Ni1 Tm1 2.991265 1_655
Ni1 Tm1 3.216145 1_556
Ge0 Ni0 2.394392 1_655
Ge0 Ni0 2.394392 1_565
Ge0 Ni1 2.593761 1_554
Ge0 Ge1 2.714942 1_664
Ge0 Tm0 2.957763 1_654
Ge0 Tm0 2.957763 1_564
Ge0 Tm0 2.966435 1_555
Ge0 Tm1 3.103105 1_555
Ge0 Tm1 3.146721 1_565
Ge0 Tm1 3.146721 1_655
Ge1 Ni1 2.394392 1_455
Ge1 Ni1 2.394392 1_545
Ge1 Ni0 2.593761 1_556
Ge1 Tm1 2.957763 1_546
Ge1 Tm1 2.957763 1_456
Ge1 Tm1 2.966435 1_555
Ge1 Tm0 3.103105 1_555
Ge1 Tm0 3.146721 1_455
Ge1 Tm0 3.146721 1_545
