# generated using pymatgen
data_YTi(WO4)2
_symmetry_space_group_name_H-M   'P 1'
_cell_length_a   5.06643600
_cell_length_b   5.56115788
_cell_length_c   6.12742651
_cell_angle_alpha   104.83622241
_cell_angle_beta   90.11103973
_cell_angle_gamma   107.05350711
_symmetry_Int_Tables_number   1
_chemical_formula_structural   YTi(WO4)2
_chemical_formula_sum   'Y1 Ti1 W2 O8'
_cell_volume   158.99322373
_cell_formula_units_Z   1
loop_
 _symmetry_equiv_pos_site_id
 _symmetry_equiv_pos_as_xyz
  1  'x, y, z'
loop_
 _atom_site_type_symbol
 _atom_site_label
 _atom_site_symmetry_multiplicity
 _atom_site_fract_x
 _atom_site_fract_y
 _atom_site_fract_z
 _atom_site_occupancy
  Y  Y0  1  0.50410000  0.10717100  0.74458100  1
  Ti  Ti0  1  0.98633100  0.09031900  0.24737900  1
  W  W0  1  0.71992200  0.57487600  0.36997400  1
  W  W1  1  0.22396300  0.61314100  0.06001400  1
  O  O0  1  0.66159600  0.79194200  0.64808100  1
  O  O1  1  0.78226800  0.27000900  0.46833700  1
  O  O2  1  0.63463400  0.80156500  0.16220300  1
  O  O3  1  0.82342300  0.35266700  0.05036900  1
  O  O4  1  0.17661400  0.92348600  0.97591100  1
  O  O5  1  0.27081300  0.40287400  0.79540900  1
  O  O6  1  0.29076000  0.39996900  0.27477300  1
  O  O7  1  0.12567200  0.86807600  0.38146600  1
loop_
_geom_bond_atom_site_label_1
_geom_bond_atom_site_label_2
_geom_bond_distance
_geom_bond_site_symmetry_2
O0 W0 1.898979 1_555
O0 Y0 2.085888 1_565
O1 Ti0 1.954238 1_555
O1 W0 2.043070 1_555
O1 Y0 2.391031 1_555
O2 Ti0 1.978624 1_565
O2 W1 2.049223 1_555
O2 W0 2.129797 1_555
O3 W1 2.109840 1_655
O3 W0 2.186758 1_555
O3 Y0 2.318349 1_554
O3 Ti0 2.423094 1_555
O4 W1 1.999901 1_556
O4 Ti0 2.073062 1_466
O4 Y0 2.358408 1_565
O5 W1 1.801614 1_556
O5 Y0 2.253292 1_555
O6 Ti0 1.914567 1_455
O6 W1 2.069790 1_555
O6 W0 2.116155 1_555
O7 Ti0 1.931444 1_465
O7 W0 2.205488 1_455
O7 W1 2.263936 1_555
O7 Y0 2.714324 1_565
