# generated using pymatgen
data_GdGa3Os
_symmetry_space_group_name_H-M   'P 1'
_cell_length_a   6.42088356
_cell_length_b   6.42087623
_cell_length_c   6.42090036
_cell_angle_alpha   89.99996823
_cell_angle_beta   90.00002686
_cell_angle_gamma   89.99999001
_symmetry_Int_Tables_number   1
_chemical_formula_structural   GdGa3Os
_chemical_formula_sum   'Gd3 Ga9 Os3'
_cell_volume   264.71894495
_cell_formula_units_Z   3
loop_
 _symmetry_equiv_pos_site_id
 _symmetry_equiv_pos_as_xyz
  1  'x, y, z'
loop_
 _atom_site_type_symbol
 _atom_site_label
 _atom_site_symmetry_multiplicity
 _atom_site_fract_x
 _atom_site_fract_y
 _atom_site_fract_z
 _atom_site_occupancy
  Gd  Gd0  1  0.49999993  -0.00000028  -0.00000003  1
  Gd  Gd1  1  -0.00000018  0.50000019  -0.00000006  1
  Gd  Gd2  1  0.00000024  -0.00000007  0.50000003  1
  Ga  Ga0  1  0.29235499  0.29235673  0.29235364  1
  Ga  Ga1  1  0.70764506  0.70764356  0.70764604  1
  Ga  Ga2  1  0.70764513  0.70764361  0.29235338  1
  Ga  Ga3  1  0.70764505  0.29235642  0.70764631  1
  Ga  Ga4  1  0.29235481  0.29235667  0.70764700  1
  Ga  Ga5  1  0.29235505  0.70764339  0.29235346  1
  Ga  Ga6  1  0.29235481  0.70764344  0.70764663  1
  Ga  Ga7  1  0.70764511  0.29235637  0.29235337  1
  Ga  Ga8  1  -0.00000009  0.00000020  0.00000011  1
  Os  Os0  1  0.00000002  0.49999984  0.49999996  1
  Os  Os1  1  0.50000001  -0.00000013  0.50000025  1
  Os  Os2  1  0.50000009  0.50000006  -0.00000009  1
loop_
_geom_bond_atom_site_label_1
_geom_bond_atom_site_label_2
_geom_bond_distance
_geom_bond_site_symmetry_2
Gd0 Os2 3.210436 1_545
Gd0 Os2 3.210440 1_555
Gd0 Os1 3.210448 1_554
Gd0 Os1 3.210452 1_555
Gd1 Os2 3.210440 1_455
Gd1 Os2 3.210444 1_555
Gd1 Os0 3.210450 1_554
Gd1 Os0 3.210450 1_555
Gd2 Os0 3.210438 1_555
Gd2 Os0 3.210439 1_545
Gd2 Os1 3.210440 1_555
Gd2 Os1 3.210443 1_455
Ga0 Os2 2.660628 1_555
Ga0 Os0 2.660635 1_555
Ga0 Os1 2.660649 1_555
Ga0 Ga5 2.666504 1_555
Ga0 Ga7 2.666530 1_555
Ga0 Ga4 2.666557 1_555
Ga0 Gd1 2.970713 1_555
Ga0 Gd0 2.970726 1_555
Ga0 Gd2 2.970732 1_555
Ga1 Os2 2.660628 1_556
Ga1 Os0 2.660637 1_655
Ga1 Os1 2.660644 1_565
Ga1 Ga3 2.666507 1_555
Ga1 Ga6 2.666530 1_555
Ga1 Ga2 2.666553 1_555
Ga1 Gd1 2.970712 1_656
Ga1 Gd0 2.970725 1_566
Ga1 Gd2 2.970731 1_665
Ga2 Os2 2.660627 1_555
Ga2 Os0 2.660636 1_655
Ga2 Os1 2.660649 1_565
Ga2 Ga7 2.666508 1_555
Ga2 Ga5 2.666529 1_555
Ga2 Gd1 2.970712 1_655
Ga2 Gd0 2.970720 1_565
Ga2 Gd2 2.970732 1_665
Ga3 Os2 2.660628 1_556
Ga3 Os0 2.660636 1_655
Ga3 Os1 2.660647 1_555
Ga3 Ga4 2.666530 1_555
Ga3 Ga7 2.666555 1_555
Ga3 Gd1 2.970714 1_656
Ga3 Gd0 2.970725 1_556
Ga3 Gd2 2.970732 1_655
Ga4 Os2 2.660625 1_556
Ga4 Os0 2.660636 1_555
Ga4 Os1 2.660651 1_555
Ga4 Ga6 2.666505 1_555
Ga4 Gd1 2.970712 1_556
Ga4 Gd0 2.970722 1_556
Ga4 Gd2 2.970733 1_555
Ga5 Os2 2.660628 1_555
Ga5 Os0 2.660637 1_555
Ga5 Os1 2.660649 1_565
Ga5 Ga6 2.666556 1_555
Ga5 Gd1 2.970713 1_555
Ga5 Gd0 2.970722 1_565
Ga5 Gd2 2.970732 1_565
Ga6 Os2 2.660625 1_556
Ga6 Os0 2.660637 1_555
Ga6 Os1 2.660648 1_565
Ga6 Gd1 2.970712 1_556
Ga6 Gd0 2.970722 1_566
Ga6 Gd2 2.970729 1_565
Ga7 Os2 2.660626 1_555
Ga7 Os0 2.660637 1_655
Ga7 Os1 2.660649 1_555
Ga7 Gd1 2.970713 1_655
Ga7 Gd0 2.970724 1_555
Ga7 Gd2 2.970731 1_655
Ga8 Gd1 3.210438 1_555
Ga8 Gd1 3.210438 1_545
Ga8 Gd0 3.210442 1_455
Ga8 Gd0 3.210442 1_555
Ga8 Gd2 3.210450 1_555
Ga8 Gd2 3.210451 1_554
