# generated using pymatgen
data_DyCO4
_symmetry_space_group_name_H-M   'P 1'
_cell_length_a   12.08533018
_cell_length_b   12.08533018
_cell_length_c   9.67282100
_cell_angle_alpha   90.00000000
_cell_angle_beta   90.00000000
_cell_angle_gamma   120.00000098
_symmetry_Int_Tables_number   1
_chemical_formula_structural   DyCO4
_chemical_formula_sum   'Dy18 C18 O72'
_cell_volume   1223.49111166
_cell_formula_units_Z   18
loop_
 _symmetry_equiv_pos_site_id
 _symmetry_equiv_pos_as_xyz
  1  'x, y, z'
loop_
 _atom_site_type_symbol
 _atom_site_label
 _atom_site_symmetry_multiplicity
 _atom_site_fract_x
 _atom_site_fract_y
 _atom_site_fract_z
 _atom_site_occupancy
  Dy  Dy0  1  0.55797900  0.10235200  0.25647000  1
  Dy  Dy1  1  0.54437300  0.44202100  0.25647000  1
  Dy  Dy2  1  0.89764800  0.45562700  0.25647000  1
  Dy  Dy3  1  0.55797900  0.10235200  0.74353000  1
  Dy  Dy4  1  0.54437300  0.44202100  0.74353000  1
  Dy  Dy5  1  0.89764800  0.45562700  0.74353000  1
  Dy  Dy6  1  0.88805400  0.11853000  0.23900400  1
  Dy  Dy7  1  0.23047600  0.11194600  0.23900400  1
  Dy  Dy8  1  0.88147000  0.76952400  0.23900400  1
  Dy  Dy9  1  0.88805400  0.11853000  0.76099600  1
  Dy  Dy10  1  0.23047600  0.11194600  0.76099600  1
  Dy  Dy11  1  0.88147000  0.76952400  0.76099600  1
  Dy  Dy12  1  0.22237900  0.78555700  0.25748600  1
  Dy  Dy13  1  0.56317800  0.77762100  0.25748600  1
  Dy  Dy14  1  0.21444300  0.43682200  0.25748600  1
  Dy  Dy15  1  0.22237900  0.78555700  0.74251400  1
  Dy  Dy16  1  0.56317800  0.77762100  0.74251400  1
  Dy  Dy17  1  0.21444300  0.43682200  0.74251400  1
  C  C0  1  0.79920200  0.81798700  0.50000000  1
  C  C1  1  0.01878500  0.20079800  0.50000000  1
  C  C2  1  0.18201300  0.98121500  0.50000000  1
  C  C3  1  0.76477900  0.22699800  0.50000000  1
  C  C4  1  0.46221900  0.23522100  0.50000000  1
  C  C5  1  0.77300200  0.53778100  0.50000000  1
  C  C6  1  0.44914100  0.87147200  0.50000000  1
  C  C7  1  0.42233100  0.55085900  0.50000000  1
  C  C8  1  0.12852800  0.57766900  0.50000000  1
  C  C9  1  0.79659900  0.88721900  0.00000000  1
  C  C10  1  0.09062000  0.20340100  0.00000000  1
  C  C11  1  0.11278100  0.90938000  0.00000000  1
  C  C12  1  0.51121000  0.86092300  0.00000000  1
  C  C13  1  0.34971300  0.48879000  0.00000000  1
  C  C14  1  0.13907700  0.65028700  0.00000000  1
  C  C15  1  0.69426300  0.16191900  0.00000000  1
  C  C16  1  0.46765600  0.30573700  0.00000000  1
  C  C17  1  0.83808100  0.53234400  0.00000000  1
  O  O0  1  0.90536700  0.81591100  0.50000000  1
  O  O1  1  0.91054400  0.09463300  0.50000000  1
  O  O2  1  0.18408900  0.08945600  0.50000000  1
  O  O3  1  0.74827000  0.81776700  0.38329800  1
  O  O4  1  0.06949700  0.25173000  0.38329800  1
  O  O5  1  0.18223300  0.93050300  0.38329800  1
  O  O6  1  0.74827000  0.81776700  0.61670200  1
  O  O7  1  0.06949700  0.25173000  0.61670200  1
  O  O8  1  0.18223300  0.93050300  0.61670200  1
  O  O9  1  0.64128100  0.15942000  0.50000000  1
  O  O10  1  0.51814000  0.35871900  0.50000000  1
  O  O11  1  0.84058000  0.48186000  0.50000000  1
  O  O12  1  0.82488800  0.25973700  0.38324700  1
  O  O13  1  0.43484800  0.17511200  0.38324700  1
  O  O14  1  0.74026300  0.56515200  0.38324700  1
  O  O15  1  0.82488800  0.25973700  0.61675300  1
  O  O16  1  0.43484800  0.17511200  0.61675300  1
  O  O17  1  0.74026300  0.56515200  0.61675300  1
  O  O18  1  0.50484600  0.80388100  0.50000000  1
  O  O19  1  0.29903500  0.49515400  0.50000000  1
  O  O20  1  0.19611900  0.70096500  0.50000000  1
  O  O21  1  0.42183500  0.90501700  0.38384400  1
  O  O22  1  0.48318200  0.57816500  0.38384400  1
  O  O23  1  0.09498300  0.51681800  0.38384400  1
  O  O24  1  0.42183500  0.90501700  0.61615600  1
  O  O25  1  0.48318200  0.57816500  0.61615600  1
  O  O26  1  0.09498300  0.51681800  0.61615600  1
  O  O27  1  0.85921300  0.82618700  0.00000000  1
  O  O28  1  0.96697500  0.14078700  0.00000000  1
  O  O29  1  0.17381300  0.03302500  0.00000000  1
  O  O30  1  0.76639500  0.91672100  0.88305700  1
  O  O31  1  0.15032600  0.23360500  0.88305700  1
  O  O32  1  0.08327900  0.84967400  0.88305700  1
  O  O33  1  0.76639500  0.91672100  0.11694300  1
  O  O34  1  0.15032600  0.23360500  0.11694300  1
  O  O35  1  0.08327900  0.84967400  0.11694300  1
  O  O36  1  0.51639500  0.75594300  0.00000000  1
  O  O37  1  0.23954800  0.48360500  0.00000000  1
  O  O38  1  0.24405700  0.76045200  0.00000000  1
  O  O39  1  0.51050200  0.91049000  0.88237000  1
  O  O40  1  0.39998800  0.48949800  0.88237000  1
  O  O41  1  0.08951000  0.60001200  0.88237000  1
  O  O42  1  0.51050200  0.91049000  0.11763000  1
  O  O43  1  0.39998800  0.48949800  0.11763000  1
  O  O44  1  0.08951000  0.60001200  0.11763000  1
  O  O45  1  0.58459100  0.15648700  0.00000000  1
  O  O46  1  0.57189600  0.41540900  0.00000000  1
  O  O47  1  0.84351300  0.42810400  0.00000000  1
  O  O48  1  0.74504700  0.16212700  0.88319500  1
  O  O49  1  0.41708100  0.25495300  0.88319500  1
  O  O50  1  0.83787300  0.58291900  0.88319500  1
  O  O51  1  0.74504700  0.16212700  0.11680500  1
  O  O52  1  0.41708100  0.25495300  0.11680500  1
  O  O53  1  0.83787300  0.58291900  0.11680500  1
  O  O54  1  0.66666700  0.33333300  0.24392900  1
  O  O55  1  0.66666700  0.33333300  0.75607100  1
  O  O56  1  0.00000000  0.00000000  0.25601300  1
  O  O57  1  0.00000000  0.00000000  0.74398700  1
  O  O58  1  0.33333300  0.66666700  0.24811100  1
  O  O59  1  0.33333300  0.66666700  0.75188900  1
  O  O60  1  0.34322600  0.00174000  0.19257200  1
  O  O61  1  0.65851400  0.65677400  0.19257200  1
  O  O62  1  0.99826000  0.34148600  0.19257200  1
  O  O63  1  0.34322600  0.00174000  0.80742800  1
  O  O64  1  0.65851400  0.65677400  0.80742800  1
  O  O65  1  0.99826000  0.34148600  0.80742800  1
  O  O66  1  0.00276100  0.67827200  0.30954900  1
  O  O67  1  0.67551100  0.99723900  0.30954900  1
  O  O68  1  0.32172800  0.32448900  0.30954900  1
  O  O69  1  0.00276100  0.67827200  0.69045100  1
  O  O70  1  0.67551100  0.99723900  0.69045100  1
  O  O71  1  0.32172800  0.32448900  0.69045100  1
loop_
_geom_bond_atom_site_label_1
_geom_bond_atom_site_label_2
_geom_bond_distance
_geom_bond_site_symmetry_2
Dy0 O60 2.332514 1_555
Dy0 O67 2.387319 1_545
Dy0 O13 2.408298 1_555
Dy0 O51 2.413477 1_555
Dy0 O54 2.421931 1_555
Dy0 O21 2.447199 1_545
Dy0 O42 2.485723 1_545
Dy0 O9 2.518691 1_555
Dy0 O45 2.544674 1_555
Dy1 O61 2.332514 1_555
Dy1 O68 2.387319 1_555
Dy1 O14 2.408290 1_555
Dy1 O52 2.413475 1_555
Dy1 O54 2.421942 1_555
Dy1 O22 2.447199 1_555
Dy1 O43 2.485723 1_555
Dy1 O10 2.518692 1_555
Dy1 O46 2.544674 1_555
Dy2 O62 2.332514 1_555
Dy2 O66 2.387319 1_655
Dy2 O12 2.408288 1_555
Dy2 O53 2.413468 1_555
Dy2 O54 2.421932 1_555
Dy2 O23 2.447199 1_655
Dy2 O44 2.485723 1_655
Dy2 O11 2.518687 1_555
Dy2 O47 2.544674 1_555
Dy3 O63 2.332514 1_555
Dy3 O70 2.387319 1_545
Dy3 O16 2.408298 1_555
Dy3 O48 2.413477 1_555
Dy3 O55 2.421931 1_555
Dy3 O24 2.447199 1_545
Dy3 O39 2.485723 1_545
Dy3 O9 2.518691 1_555
Dy3 O45 2.544674 1_556
Dy4 O64 2.332514 1_555
Dy4 O71 2.387319 1_555
Dy4 O17 2.408290 1_555
Dy4 O49 2.413475 1_555
Dy4 O55 2.421942 1_555
Dy4 O25 2.447199 1_555
Dy4 O40 2.485723 1_555
Dy4 O10 2.518692 1_555
Dy4 O46 2.544674 1_556
Dy5 O65 2.332514 1_555
Dy5 O69 2.387319 1_655
Dy5 O15 2.408288 1_555
Dy5 O50 2.413468 1_555
Dy5 O55 2.421932 1_555
Dy5 O26 2.447199 1_655
Dy5 O41 2.485723 1_655
Dy5 O11 2.518687 1_555
Dy5 O47 2.544674 1_556
Dy6 O67 2.333893 1_545
Dy6 O51 2.360579 1_555
Dy6 O62 2.376381 1_555
Dy6 O4 2.412029 1_655
Dy6 O56 2.418140 1_655
Dy6 O33 2.432732 1_545
Dy6 O28 2.463762 1_555
Dy6 O1 2.570840 1_555
Dy6 O12 2.597004 1_555
Dy7 O68 2.333893 1_555
Dy7 O52 2.360586 1_555
Dy7 O60 2.376381 1_555
Dy7 O5 2.412029 1_545
Dy7 O56 2.418140 1_555
Dy7 O34 2.432732 1_555
Dy7 O29 2.463761 1_555
Dy7 O2 2.570840 1_555
Dy7 O13 2.596994 1_555
Dy8 O66 2.333893 1_655
Dy8 O53 2.360589 1_555
Dy8 O61 2.376381 1_555
Dy8 O3 2.412029 1_555
Dy8 O56 2.418140 1_665
Dy8 O35 2.432732 1_655
Dy8 O27 2.463758 1_555
Dy8 O0 2.570840 1_555
Dy8 O14 2.596996 1_555
Dy9 O70 2.333893 1_545
Dy9 O48 2.360579 1_555
Dy9 O65 2.376381 1_555
Dy9 O7 2.412029 1_655
Dy9 O57 2.418140 1_655
Dy9 O30 2.432732 1_545
Dy9 O28 2.463762 1_556
Dy9 O1 2.570840 1_555
Dy9 O15 2.597004 1_555
Dy10 O71 2.333893 1_555
Dy10 O49 2.360586 1_555
Dy10 O63 2.376381 1_555
Dy10 O8 2.412029 1_545
Dy10 O57 2.418140 1_555
Dy10 O31 2.432732 1_555
Dy10 O29 2.463761 1_556
Dy10 O2 2.570840 1_555
Dy10 O16 2.596994 1_555
Dy11 O69 2.333893 1_655
Dy11 O50 2.360589 1_555
Dy11 O64 2.376381 1_555
Dy11 O6 2.412029 1_555
Dy11 O57 2.418140 1_665
Dy11 O32 2.432732 1_655
Dy11 O27 2.463758 1_556
Dy11 O0 2.570840 1_555
Dy11 O17 2.596996 1_555
Dy12 O60 2.353179 1_565
Dy12 O66 2.353284 1_555
Dy12 O5 2.373774 1_555
Dy12 O58 2.407780 1_555
Dy12 O44 2.415795 1_555
Dy12 O21 2.430758 1_555
Dy12 O20 2.514790 1_555
Dy12 O38 2.538374 1_555
Dy12 O35 2.564594 1_555
Dy13 O61 2.353179 1_555
Dy13 O67 2.353284 1_555
Dy13 O3 2.373774 1_555
Dy13 O58 2.407791 1_555
Dy13 O42 2.415795 1_555
Dy13 O22 2.430758 1_555
Dy13 O18 2.514790 1_555
Dy13 O36 2.538374 1_555
Dy13 O33 2.564594 1_555
Dy14 O62 2.353179 1_455
Dy14 O68 2.353284 1_555
Dy14 O4 2.373774 1_555
Dy14 O58 2.407790 1_555
Dy14 O43 2.415795 1_555
Dy14 O23 2.430758 1_555
Dy14 O19 2.514790 1_555
Dy14 O37 2.538374 1_555
Dy14 O34 2.564594 1_555
Dy15 O63 2.353179 1_565
Dy15 O69 2.353284 1_555
Dy15 O8 2.373774 1_555
Dy15 O59 2.407780 1_555
Dy15 O41 2.415795 1_555
Dy15 O24 2.430758 1_555
Dy15 O20 2.514790 1_555
Dy15 O38 2.538374 1_556
Dy15 O32 2.564594 1_555
Dy16 O64 2.353179 1_555
Dy16 O70 2.353284 1_555
Dy16 O6 2.373774 1_555
Dy16 O59 2.407791 1_555
Dy16 O39 2.415795 1_555
Dy16 O25 2.430758 1_555
Dy16 O18 2.514790 1_555
Dy16 O36 2.538374 1_556
Dy16 O30 2.564594 1_555
Dy17 O65 2.353179 1_455
Dy17 O71 2.353284 1_555
Dy17 O7 2.373774 1_555
Dy17 O59 2.407790 1_555
Dy17 O40 2.415795 1_555
Dy17 O26 2.430758 1_555
Dy17 O19 2.514790 1_555
Dy17 O37 2.538374 1_556
Dy17 O31 2.564594 1_555
C0 O6 1.285116 1_555
C0 O3 1.285116 1_555
C0 O0 1.295766 1_555
C1 O7 1.285116 1_555
C1 O4 1.285116 1_555
C1 O1 1.295766 1_455
C2 O8 1.285116 1_555
C2 O5 1.285116 1_555
C2 O2 1.295766 1_565
C3 O15 1.293145 1_555
C3 O12 1.293145 1_555
C3 O9 1.294473 1_555
C4 O13 1.293145 1_555
C4 O16 1.293145 1_555
C4 O10 1.294473 1_555
C5 O14 1.293150 1_555
C5 O17 1.293150 1_555
C5 O11 1.294484 1_555
C6 O24 1.292058 1_555
C6 O21 1.292058 1_555
C6 O18 1.292438 1_555
C7 O25 1.292058 1_555
C7 O22 1.292058 1_555
C7 O19 1.292438 1_555
C8 O26 1.292058 1_555
C8 O23 1.292058 1_555
C8 O20 1.292438 1_555
C9 O33 1.292306 1_555
C9 O30 1.292306 1_554
C9 O27 1.294139 1_555
C10 O34 1.292306 1_555
C10 O31 1.292306 1_554
C10 O28 1.294129 1_455
C11 O35 1.292306 1_555
C11 O32 1.292306 1_554
C11 O29 1.294129 1_565
C12 O39 1.287890 1_554
C12 O42 1.287890 1_555
C12 O36 1.301181 1_555
C13 O40 1.287890 1_554
C13 O43 1.287890 1_555
C13 O37 1.301181 1_555
C14 O41 1.287890 1_554
C14 O44 1.287890 1_555
C14 O38 1.301181 1_555
C15 O51 1.285172 1_555
C15 O48 1.285172 1_554
C15 O45 1.293848 1_555
C16 O52 1.285169 1_555
C16 O49 1.285169 1_554
C16 O46 1.293848 1_555
C17 O53 1.285166 1_555
C17 O50 1.285166 1_554
C17 O47 1.293848 1_555
