# generated using pymatgen
data_Ti2FeB2RuRh4
_symmetry_space_group_name_H-M   'P 1'
_cell_length_a   3.06491700
_cell_length_b   9.07777900
_cell_length_c   9.11932100
_cell_angle_alpha   89.99890678
_cell_angle_beta   90.00000000
_cell_angle_gamma   90.00000000
_symmetry_Int_Tables_number   1
_chemical_formula_structural   Ti2FeB2RuRh4
_chemical_formula_sum   'Ti4 Fe2 B4 Ru2 Rh8'
_cell_volume   253.72357774
_cell_formula_units_Z   2
loop_
 _symmetry_equiv_pos_site_id
 _symmetry_equiv_pos_as_xyz
  1  'x, y, z'
loop_
 _atom_site_type_symbol
 _atom_site_label
 _atom_site_symmetry_multiplicity
 _atom_site_fract_x
 _atom_site_fract_y
 _atom_site_fract_z
 _atom_site_occupancy
  Ti  Ti0  1  0.00000000  0.67208200  0.18125400  1
  Ti  Ti1  1  0.00000000  0.32791800  0.81874600  1
  Ti  Ti2  1  0.00000000  0.18264200  0.32217600  1
  Ti  Ti3  1  0.00000000  0.81735800  0.67782400  1
  Fe  Fe0  1  0.00000000  0.50000000  0.50000000  1
  Fe  Fe1  1  0.00000000  0.00000000  0.00000000  1
  B  B0  1  0.00000000  0.12527000  0.62620000  1
  B  B1  1  0.00000000  0.87473000  0.37380000  1
  B  B2  1  0.00000000  0.62343400  0.87335100  1
  B  B3  1  0.00000000  0.37656600  0.12664900  1
  Ru  Ru0  1  0.50000000  0.57321300  0.71164400  1
  Ru  Ru1  1  0.50000000  0.42678700  0.28835600  1
  Rh  Rh0  1  0.50000000  0.07301600  0.78594100  1
  Rh  Rh1  1  0.50000000  0.92698400  0.21405900  1
  Rh  Rh2  1  0.50000000  0.28452800  0.57334600  1
  Rh  Rh3  1  0.50000000  0.71547200  0.42665400  1
  Rh  Rh4  1  0.50000000  0.21461500  0.07265000  1
  Rh  Rh5  1  0.50000000  0.78538500  0.92735000  1
  Rh  Rh6  1  0.50000000  0.50000000  0.00000000  1
  Rh  Rh7  1  0.50000000  0.00000000  0.50000000  1
loop_
_geom_bond_atom_site_label_1
_geom_bond_atom_site_label_2
_geom_bond_distance
_geom_bond_site_symmetry_2
Fe0 Ru1 2.552504 1_555
Fe0 Ru1 2.552504 1_455
Fe0 Ru0 2.552504 1_455
Fe0 Ru0 2.552504 1_555
Fe0 Rh2 2.573271 1_455
Fe0 Rh3 2.573271 1_455
Fe0 Rh3 2.573271 1_555
Fe0 Rh2 2.573271 1_555
Fe1 Rh5 2.565736 1_544
Fe1 Rh5 2.565736 1_444
Fe1 Rh4 2.565736 1_555
Fe1 Rh4 2.565736 1_455
Fe1 Rh1 2.568716 1_445
Fe1 Rh1 2.568716 1_545
Fe1 Rh0 2.568716 1_554
Fe1 Rh0 2.568716 1_454
B0 Rh2 2.161202 1_555
B0 Rh2 2.161202 1_455
B0 Rh0 2.166904 1_455
B0 Rh0 2.166904 1_555
B0 Rh7 2.228479 1_555
B0 Rh7 2.228479 1_455
B0 Ti1 2.543103 1_555
B0 Ti2 2.820975 1_555
B0 Ti3 2.834516 1_545
B1 Rh3 2.161202 1_555
B1 Rh3 2.161202 1_455
B1 Rh1 2.166904 1_555
B1 Rh1 2.166904 1_455
B1 Rh7 2.228479 1_565
B1 Rh7 2.228479 1_465
B1 Ti0 2.543103 1_555
B1 Ti3 2.820975 1_555
B1 Ti2 2.834516 1_565
B2 Ru0 2.175066 1_455
B2 Ru0 2.175066 1_555
B2 Rh5 2.179978 1_455
B2 Rh5 2.179978 1_555
B2 Rh6 2.222123 1_456
B2 Rh6 2.222123 1_556
B2 Ti3 2.505641 1_555
B2 Ti1 2.728464 1_555
B2 Ti0 2.842391 1_556
B3 Ru1 2.175066 1_555
B3 Ru1 2.175066 1_455
B3 Rh4 2.179978 1_555
B3 Rh4 2.179978 1_455
B3 Rh6 2.222123 1_555
B3 Rh6 2.222123 1_455
B3 Ti2 2.505641 1_555
B3 Ti0 2.728464 1_555
B3 Ti1 2.842391 1_554
Ru0 Ti3 2.712100 1_655
Ru0 Ti3 2.712100 1_555
Ru0 Ti1 2.874131 1_555
Ru0 Ti1 2.874131 1_655
Ru1 Ti2 2.712100 1_655
Ru1 Ti2 2.712100 1_555
Ru1 Ti0 2.874131 1_655
Ru1 Ti0 2.874131 1_555
Rh0 Ti1 2.791467 1_555
Rh0 Ti1 2.791467 1_655
Rh0 Ti3 2.950723 1_545
Rh0 Ti3 2.950723 1_645
Rh1 Ti0 2.791467 1_655
Rh1 Ti0 2.791467 1_555
Rh1 Ti2 2.950723 1_665
Rh1 Ti2 2.950723 1_565
Rh2 Ti1 2.740752 1_555
Rh2 Ti1 2.740752 1_655
Rh2 Ti2 2.906946 1_655
Rh2 Ti2 2.906946 1_555
Rh3 Ti0 2.740752 1_555
Rh3 Ti0 2.740752 1_655
Rh3 Ti3 2.906946 1_655
Rh3 Ti3 2.906946 1_555
Rh4 Ti2 2.758728 1_655
Rh4 Ti2 2.758728 1_555
Rh4 Ti1 2.960989 1_654
Rh4 Ti1 2.960989 1_554
Rh5 Ti3 2.758728 1_555
Rh5 Ti3 2.758728 1_655
Rh5 Ti0 2.960989 1_556
Rh5 Ti0 2.960989 1_656
Rh6 Ti0 2.742422 1_555
Rh6 Ti0 2.742422 1_655
Rh6 Ti1 2.742422 1_554
Rh6 Ti1 2.742422 1_654
Rh7 Ti2 2.779736 1_655
Rh7 Ti3 2.779736 1_545
Rh7 Ti2 2.779736 1_555
Rh7 Ti3 2.779736 1_645
