# generated using pymatgen
data_YMg6Cu
_symmetry_space_group_name_H-M   'P 1'
_cell_length_a   4.95465500
_cell_length_b   6.05874800
_cell_length_c   12.04779500
_cell_angle_alpha   90.00000000
_cell_angle_beta   90.00000000
_cell_angle_gamma   90.00000000
_symmetry_Int_Tables_number   1
_chemical_formula_structural   YMg6Cu
_chemical_formula_sum   'Y2 Mg12 Cu2'
_cell_volume   361.66283126
_cell_formula_units_Z   2
loop_
 _symmetry_equiv_pos_site_id
 _symmetry_equiv_pos_as_xyz
  1  'x, y, z'
loop_
 _atom_site_type_symbol
 _atom_site_label
 _atom_site_symmetry_multiplicity
 _atom_site_fract_x
 _atom_site_fract_y
 _atom_site_fract_z
 _atom_site_occupancy
  Y  Y0  1  0.50000000  0.00000000  0.18847200  1
  Y  Y1  1  0.50000000  0.50000000  0.68847200  1
  Mg  Mg0  1  0.50000000  0.24922800  0.43462700  1
  Mg  Mg1  1  0.50000000  0.75077200  0.43462700  1
  Mg  Mg2  1  0.00000000  0.74567500  0.07975800  1
  Mg  Mg3  1  0.00000000  0.25432500  0.07975800  1
  Mg  Mg4  1  0.00000000  0.00000000  0.34623500  1
  Mg  Mg5  1  0.00000000  0.50000000  0.30300000  1
  Mg  Mg6  1  0.50000000  0.74922800  0.93462700  1
  Mg  Mg7  1  0.50000000  0.25077200  0.93462700  1
  Mg  Mg8  1  0.00000000  0.24567500  0.57975800  1
  Mg  Mg9  1  0.00000000  0.75432500  0.57975800  1
  Mg  Mg10  1  0.00000000  0.50000000  0.84623500  1
  Mg  Mg11  1  0.00000000  0.00000000  0.80300000  1
  Cu  Cu0  1  0.50000000  0.50000000  0.13352000  1
  Cu  Cu1  1  0.50000000  0.00000000  0.63352000  1
loop_
_geom_bond_atom_site_label_1
_geom_bond_atom_site_label_2
_geom_bond_distance
_geom_bond_site_symmetry_2
Mg0 Mg4 3.090526 1_555
Mg0 Mg4 3.090526 1_655
Mg0 Mg5 3.310654 1_555
Mg0 Mg5 3.310654 1_655
Mg0 Y0 3.327921 1_555
Mg0 Y1 3.414894 1_555
Mg1 Mg4 3.090526 1_565
Mg1 Mg4 3.090526 1_665
Mg1 Mg5 3.310654 1_655
Mg1 Mg5 3.310654 1_555
Mg1 Y0 3.327921 1_565
Mg1 Y1 3.414894 1_555
Mg2 Mg5 3.073986 1_555
Mg2 Y0 3.197965 1_465
Mg2 Y0 3.197965 1_565
Mg3 Mg5 3.073986 1_555
Mg3 Y0 3.197965 1_555
Mg3 Y0 3.197965 1_455
Mg4 Mg5 3.073830 1_545
Mg4 Mg5 3.073830 1_555
Mg4 Y0 3.122467 1_455
Mg4 Y0 3.122467 1_555
Mg4 Mg8 3.182925 1_555
Mg4 Mg9 3.182925 1_545
Mg6 Y1 3.327921 1_555
Mg6 Y0 3.414894 1_566
Mg7 Y1 3.327921 1_555
Mg7 Y0 3.414894 1_556
Mg8 Y1 3.197965 1_555
Mg8 Y1 3.197965 1_455
Mg9 Y1 3.197965 1_555
Mg9 Y1 3.197965 1_455
Mg10 Mg11 3.073830 1_565
Mg10 Mg11 3.073830 1_555
Mg10 Mg7 3.090526 1_455
Mg10 Mg7 3.090526 1_555
Mg10 Mg6 3.090526 1_455
Mg10 Mg6 3.090526 1_555
Mg10 Y1 3.122467 1_455
Mg10 Y1 3.122467 1_555
Mg10 Mg2 3.182925 1_556
Mg10 Mg3 3.182925 1_556
Mg11 Mg8 3.073986 1_555
Mg11 Mg9 3.073986 1_545
Mg11 Mg7 3.310654 1_555
Mg11 Mg7 3.310654 1_455
Mg11 Mg6 3.310654 1_445
Mg11 Mg6 3.310654 1_545
Cu0 Mg7 2.832315 1_554
Cu0 Mg6 2.832315 1_554
Cu0 Mg2 2.961801 1_655
Cu0 Mg2 2.961801 1_555
Cu0 Mg3 2.961801 1_555
Cu0 Mg3 2.961801 1_655
Cu0 Y0 3.100874 1_555
Cu0 Y0 3.100874 1_565
Cu0 Mg5 3.210350 1_555
Cu0 Mg5 3.210350 1_655
Cu1 Mg0 2.832315 1_555
Cu1 Mg1 2.832315 1_545
Cu1 Mg8 2.961801 1_655
Cu1 Mg8 2.961801 1_555
Cu1 Mg9 2.961801 1_545
Cu1 Mg9 2.961801 1_645
Cu1 Y1 3.100874 1_545
Cu1 Y1 3.100874 1_555
Cu1 Mg11 3.210350 1_555
Cu1 Mg11 3.210350 1_655
