# generated using pymatgen
data_Fe22B6W
_symmetry_space_group_name_H-M   'P 1'
_cell_length_a   7.50331653
_cell_length_b   7.50331653
_cell_length_c   7.50331653
_cell_angle_alpha   60.00000000
_cell_angle_beta   60.00000000
_cell_angle_gamma   60.00000000
_symmetry_Int_Tables_number   1
_chemical_formula_structural   Fe22B6W
_chemical_formula_sum   'Fe22 B6 W1'
_cell_volume   298.70659090
_cell_formula_units_Z   1
loop_
 _symmetry_equiv_pos_site_id
 _symmetry_equiv_pos_as_xyz
  1  'x, y, z'
loop_
 _atom_site_type_symbol
 _atom_site_label
 _atom_site_symmetry_multiplicity
 _atom_site_fract_x
 _atom_site_fract_y
 _atom_site_fract_z
 _atom_site_occupancy
  Fe  Fe0  1  0.00000000  0.00000000  0.00000000  1
  Fe  Fe1  1  0.00036400  0.00036400  0.34171900  1
  Fe  Fe2  1  0.65755300  0.00036400  0.34171900  1
  Fe  Fe3  1  0.00036400  0.65755300  0.34171900  1
  Fe  Fe4  1  0.65755300  0.34171900  0.00036400  1
  Fe  Fe5  1  0.00036400  0.34171900  0.00036400  1
  Fe  Fe6  1  0.00036400  0.34171900  0.65755300  1
  Fe  Fe7  1  0.34171900  0.65755300  0.00036400  1
  Fe  Fe8  1  0.34171900  0.00036400  0.65755300  1
  Fe  Fe9  1  0.34171900  0.00036400  0.00036400  1
  Fe  Fe10  1  0.00036400  0.00036400  0.65755300  1
  Fe  Fe11  1  0.00036400  0.65755300  0.00036400  1
  Fe  Fe12  1  0.65755300  0.00036400  0.00036400  1
  Fe  Fe13  1  0.61965300  0.61965300  0.14104100  1
  Fe  Fe14  1  0.61965300  0.14104100  0.61965300  1
  Fe  Fe15  1  0.14104100  0.61965300  0.61965300  1
  Fe  Fe16  1  0.61965300  0.61965300  0.61965300  1
  Fe  Fe17  1  0.38315100  0.38315100  0.85054800  1
  Fe  Fe18  1  0.38315100  0.85054800  0.38315100  1
  Fe  Fe19  1  0.85054800  0.38315100  0.38315100  1
  Fe  Fe20  1  0.38315100  0.38315100  0.38315100  1
  Fe  Fe21  1  0.75000000  0.75000000  0.75000000  1
  B  B0  1  0.72419400  0.72419400  0.27580600  1
  B  B1  1  0.27580600  0.72419400  0.27580600  1
  B  B2  1  0.72419400  0.27580600  0.27580600  1
  B  B3  1  0.27580600  0.27580600  0.72419400  1
  B  B4  1  0.72419400  0.27580600  0.72419400  1
  B  B5  1  0.27580600  0.72419400  0.72419400  1
  W  W0  1  0.25000000  0.25000000  0.25000000  1
loop_
_geom_bond_atom_site_label_1
_geom_bond_atom_site_label_2
_geom_bond_distance
_geom_bond_site_symmetry_2
Fe0 Fe1 2.566760 1_555
Fe0 Fe5 2.566760 1_555
Fe0 Fe9 2.566760 1_555
Fe0 Fe8 2.566760 1_554
Fe0 Fe6 2.566760 1_554
Fe0 Fe2 2.566760 1_455
Fe0 Fe4 2.566760 1_455
Fe0 Fe3 2.566760 1_545
Fe0 Fe7 2.566760 1_545
Fe0 Fe10 2.566760 1_554
Fe0 Fe12 2.566760 1_455
Fe0 Fe11 2.566760 1_545
Fe13 Fe21 2.395686 1_554
Fe14 Fe21 2.395686 1_545
Fe15 Fe21 2.395686 1_455
Fe16 Fe21 2.395686 1_555
Fe17 W0 2.447216 1_556
Fe18 W0 2.447216 1_565
Fe19 W0 2.447216 1_655
Fe20 W0 2.447222 1_555
B0 Fe18 2.090999 1_555
B0 Fe19 2.090999 1_555
B0 Fe13 2.110620 1_555
B0 Fe16 2.110620 1_555
B0 Fe3 2.128376 1_655
B0 Fe2 2.128376 1_565
B0 Fe12 2.128376 1_565
B0 Fe11 2.128376 1_655
B1 Fe20 2.090999 1_555
B1 Fe18 2.091005 1_555
B1 Fe15 2.110620 1_555
B1 Fe13 2.110620 1_555
B1 Fe9 2.128376 1_565
B1 Fe1 2.128376 1_565
B1 Fe7 2.128376 1_555
B1 Fe3 2.128376 1_555
B2 Fe20 2.090999 1_555
B2 Fe19 2.091005 1_555
B2 Fe14 2.110620 1_555
B2 Fe13 2.110620 1_555
B2 Fe5 2.128376 1_655
B2 Fe1 2.128376 1_655
B2 Fe2 2.128376 1_555
B2 Fe4 2.128376 1_555
B3 Fe20 2.090999 1_555
B3 Fe17 2.091005 1_555
B3 Fe15 2.110620 1_555
B3 Fe14 2.110620 1_555
B3 Fe5 2.128376 1_556
B3 Fe9 2.128376 1_556
B3 Fe8 2.128376 1_555
B3 Fe6 2.128376 1_555
B4 Fe17 2.090999 1_555
B4 Fe19 2.090999 1_555
B4 Fe14 2.110620 1_555
B4 Fe16 2.110620 1_555
B4 Fe6 2.128376 1_655
B4 Fe4 2.128376 1_556
B4 Fe12 2.128376 1_556
B4 Fe10 2.128376 1_655
B5 Fe17 2.090999 1_555
B5 Fe18 2.090999 1_555
B5 Fe15 2.110620 1_555
B5 Fe16 2.110620 1_555
B5 Fe7 2.128376 1_556
B5 Fe8 2.128376 1_565
B5 Fe11 2.128376 1_556
B5 Fe10 2.128376 1_565
