# generated using pymatgen
data_Al6CO7
_symmetry_space_group_name_H-M   'P 1'
_cell_length_a   18.40062714
_cell_length_b   18.40062714
_cell_length_c   18.40062669
_cell_angle_alpha   9.52630385
_cell_angle_beta   9.52630385
_cell_angle_gamma   9.52630282
_symmetry_Int_Tables_number   1
_chemical_formula_structural   Al6CO7
_chemical_formula_sum   'Al6 C1 O7'
_cell_volume   148.12411659
_cell_formula_units_Z   1
loop_
 _symmetry_equiv_pos_site_id
 _symmetry_equiv_pos_as_xyz
  1  'x, y, z'
loop_
 _atom_site_type_symbol
 _atom_site_label
 _atom_site_symmetry_multiplicity
 _atom_site_fract_x
 _atom_site_fract_y
 _atom_site_fract_z
 _atom_site_occupancy
  Al  Al0  1  0.00438800  0.00438800  0.00438800  1
  Al  Al1  1  0.49741000  0.49741000  0.49741000  1
  Al  Al2  1  0.61709200  0.61709200  0.61709200  1
  Al  Al3  1  0.11116300  0.11116300  0.11116300  1
  Al  Al4  1  0.88380100  0.88380100  0.88380100  1
  Al  Al5  1  0.39862500  0.39862500  0.39862500  1
  C  C0  1  0.43396300  0.43396300  0.43396300  1
  O  O0  1  0.64834100  0.64834100  0.64834100  1
  O  O1  1  0.14996300  0.14996300  0.14996300  1
  O  O2  1  0.85119100  0.85119100  0.85119100  1
  O  O3  1  0.34926000  0.34926000  0.34926000  1
  O  O4  1  0.55927800  0.55927800  0.55927800  1
  O  O5  1  0.05553900  0.05553900  0.05553900  1
  O  O6  1  0.93998600  0.93998600  0.93998600  1
loop_
_geom_bond_atom_site_label_1
_geom_bond_atom_site_label_2
_geom_bond_distance
_geom_bond_site_symmetry_2
Al0 O3 1.874767 1_455
Al0 O3 1.874767 1_545
Al0 O3 1.874767 1_554
Al0 O0 2.161116 1_454
Al0 O0 2.161116 1_544
Al0 O0 2.161116 1_445
Al1 O1 1.927222 1_565
Al1 O1 1.927222 1_655
Al1 O1 1.927223 1_556
Al1 O2 2.091681 1_545
Al1 O2 2.091681 1_455
Al1 O2 2.091682 1_554
Al2 O0 1.717056 1_555
Al2 O6 1.855210 1_545
Al2 O6 1.855210 1_455
Al2 O6 1.855210 1_554
Al3 C0 1.856813 1_455
Al3 C0 1.856813 1_545
Al3 C0 1.856813 1_554
Al3 O1 2.131965 1_555
Al4 O2 1.791839 1_555
Al4 O4 1.829516 1_565
Al4 O4 1.829516 1_655
Al4 O4 1.829516 1_556
Al5 O5 1.843893 1_655
Al5 O5 1.843893 1_565
Al5 O5 1.843893 1_556
Al5 C0 1.941736 1_555
