# generated using pymatgen
data_Cd3(InN2)2
_symmetry_space_group_name_H-M   'P 1'
_cell_length_a   7.17743130
_cell_length_b   10.58660244
_cell_length_c   5.93856573
_cell_angle_alpha   89.99999985
_cell_angle_beta   94.69848513
_cell_angle_gamma   137.51824765
_symmetry_Int_Tables_number   1
_chemical_formula_structural   Cd3(InN2)2
_chemical_formula_sum   'Cd6 In4 N8'
_cell_volume   302.49727235
_cell_formula_units_Z   2
loop_
 _symmetry_equiv_pos_site_id
 _symmetry_equiv_pos_as_xyz
  1  'x, y, z'
loop_
 _atom_site_type_symbol
 _atom_site_label
 _atom_site_symmetry_multiplicity
 _atom_site_fract_x
 _atom_site_fract_y
 _atom_site_fract_z
 _atom_site_occupancy
  Cd  Cd0  1  0.22793900  0.96292600  0.09106700  1
  Cd  Cd1  1  0.77206100  0.73498700  0.40893300  1
  Cd  Cd2  1  0.77206100  0.03707400  0.90893300  1
  Cd  Cd3  1  0.22793900  0.26501300  0.59106700  1
  Cd  Cd4  1  0.00000000  0.65062300  0.75000000  1
  Cd  Cd5  1  0.00000000  0.34937700  0.25000000  1
  In  In0  1  0.57473000  0.17491900  0.63104900  1
  In  In1  1  0.42527000  0.60018800  0.86895100  1
  In  In2  1  0.42527000  0.82508100  0.36895100  1
  In  In3  1  0.57473000  0.39981200  0.13104900  1
  N  N0  1  0.20341800  0.88561100  0.48464400  1
  N  N1  1  0.79658200  0.68219300  0.01535600  1
  N  N2  1  0.79658200  0.11438900  0.51535600  1
  N  N3  1  0.20341800  0.31780700  0.98464400  1
  N  N4  1  0.62364200  0.23301200  0.00252400  1
  N  N5  1  0.37635800  0.60937000  0.49747600  1
  N  N6  1  0.37635800  0.76698800  0.99747600  1
  N  N7  1  0.62364200  0.39063000  0.50252400  1
loop_
_geom_bond_atom_site_label_1
_geom_bond_atom_site_label_2
_geom_bond_distance
_geom_bond_site_symmetry_2
Cd0 N4 2.187471 1_565
Cd0 N1 2.195538 1_455
Cd0 N0 2.453309 1_555
Cd1 N5 2.187472 1_555
Cd1 N0 2.195538 1_655
Cd1 N1 2.453309 1_555
Cd2 N6 2.187471 1_545
Cd2 N3 2.195538 1_655
Cd2 N2 2.453309 1_555
Cd3 N7 2.187472 1_555
Cd3 N2 2.195538 1_455
Cd3 N3 2.453309 1_555
Cd4 N7 2.327160 1_455
Cd4 N6 2.327161 1_555
Cd4 N0 2.413145 1_555
Cd4 N1 2.413145 1_456
Cd5 N5 2.327160 1_555
Cd5 N4 2.327161 1_455
Cd5 N2 2.413145 1_455
Cd5 N3 2.413145 1_554
In0 N7 2.186834 1_555
In0 N0 2.195440 1_545
In0 N4 2.218718 1_556
In0 N2 2.258858 1_555
In1 N6 2.186843 1_555
In1 N1 2.195435 1_556
In1 N5 2.218720 1_555
In1 N3 2.258850 1_555
In2 N5 2.186834 1_555
In2 N2 2.195440 1_565
In2 N6 2.218718 1_554
In2 N0 2.258858 1_555
In3 N4 2.186843 1_555
In3 N3 2.195435 1_554
In3 N7 2.218720 1_555
In3 N1 2.258850 1_555
