# generated using pymatgen
data_LaMg2W3S8
_symmetry_space_group_name_H-M   'P 1'
_cell_length_a   7.72848534
_cell_length_b   7.72778450
_cell_length_c   7.57218918
_cell_angle_alpha   56.39089995
_cell_angle_beta   56.38507952
_cell_angle_gamma   58.35106460
_symmetry_Int_Tables_number   1
_chemical_formula_structural   LaMg2W3S8
_chemical_formula_sum   'La1 Mg2 W3 S8'
_cell_volume   297.72039693
_cell_formula_units_Z   1
loop_
 _symmetry_equiv_pos_site_id
 _symmetry_equiv_pos_as_xyz
  1  'x, y, z'
loop_
 _atom_site_type_symbol
 _atom_site_label
 _atom_site_symmetry_multiplicity
 _atom_site_fract_x
 _atom_site_fract_y
 _atom_site_fract_z
 _atom_site_occupancy
  La  La0  1  0.49998800  0.50000400  0.49997400  1
  Mg  Mg0  1  0.87536900  0.87536400  0.86779400  1
  Mg  Mg1  1  0.12465700  0.12464500  0.13226900  1
  W  W0  1  0.50029700  0.50025500  0.99944700  1
  W  W1  1  0.99973100  0.49999800  0.50029100  1
  W  W2  1  0.50000000  0.99977100  0.50024500  1
  S  S0  1  0.74319600  0.74321600  0.73454000  1
  S  S1  1  0.23584000  0.23584500  0.72547400  1
  S  S2  1  0.24181100  0.73086800  0.23553300  1
  S  S3  1  0.73087900  0.24181400  0.23551800  1
  S  S4  1  0.75817800  0.26898300  0.76442200  1
  S  S5  1  0.26900800  0.75818400  0.76444000  1
  S  S6  1  0.25693300  0.25693500  0.26544300  1
  S  S7  1  0.76411700  0.76411300  0.27461000  1
loop_
_geom_bond_atom_site_label_1
_geom_bond_atom_site_label_2
_geom_bond_distance
_geom_bond_site_symmetry_2
La0 S7 2.811432 1_555
La0 S5 2.811596 1_555
La0 S1 2.811640 1_555
La0 S3 2.811689 1_555
La0 S4 2.811900 1_555
La0 S2 2.811942 1_555
Mg0 S7 2.424676 1_556
Mg0 S4 2.437933 1_565
Mg0 S5 2.438243 1_655
Mg0 S0 2.545809 1_555
Mg1 S1 2.424688 1_554
Mg1 S2 2.439166 1_545
Mg1 S3 2.439323 1_455
Mg1 S6 2.546873 1_555
S0 W0 2.536347 1_555
S0 W1 2.548749 1_555
S0 W2 2.549211 1_555
S1 W2 2.466880 1_545
S1 W1 2.467169 1_455
S2 W1 2.468373 1_455
S2 W0 2.489831 1_554
S3 W2 2.468222 1_545
S3 W0 2.489915 1_554
S4 W1 2.466363 1_555
S4 W0 2.487845 1_555
S5 W2 2.466418 1_555
S5 W0 2.488192 1_555
S6 W0 2.540515 1_554
S6 W1 2.550981 1_455
S6 W2 2.551114 1_545
S7 W2 2.466627 1_555
S7 W1 2.466946 1_555
