# generated using pymatgen
data_ZrMn(CuSe2)2
_symmetry_space_group_name_H-M   'P 1'
_cell_length_a   6.84452694
_cell_length_b   6.84452694
_cell_length_c   6.61393734
_cell_angle_alpha   66.13758077
_cell_angle_beta   66.13758077
_cell_angle_gamma   39.92236357
_symmetry_Int_Tables_number   1
_chemical_formula_structural   ZrMn(CuSe2)2
_chemical_formula_sum   'Zr1 Mn1 Cu2 Se4'
_cell_volume   179.48422118
_cell_formula_units_Z   1
loop_
 _symmetry_equiv_pos_site_id
 _symmetry_equiv_pos_as_xyz
  1  'x, y, z'
loop_
 _atom_site_type_symbol
 _atom_site_label
 _atom_site_symmetry_multiplicity
 _atom_site_fract_x
 _atom_site_fract_y
 _atom_site_fract_z
 _atom_site_occupancy
  Zr  Zr0  1  0.46994300  0.46994300  0.20228400  1
  Mn  Mn0  1  0.27260700  0.27260700  0.75545100  1
  Cu  Cu0  1  0.10570600  0.10570600  0.22816900  1
  Cu  Cu1  1  0.68104000  0.68104000  0.60189000  1
  Se  Se0  1  0.71254400  0.71254400  0.93736000  1
  Se  Se1  1  0.23988300  0.23988300  0.39853000  1
  Se  Se2  1  0.49346600  0.49346600  0.56137400  1
  Se  Se3  1  0.99273800  0.99273800  0.01244200  1
loop_
_geom_bond_atom_site_label_1
_geom_bond_atom_site_label_2
_geom_bond_distance
_geom_bond_site_symmetry_2
Mn0 Se2 2.565762 1_555
Mn0 Se1 2.570127 1_555
Mn0 Se0 2.589236 1_455
Mn0 Se0 2.589236 1_545
Cu0 Se1 2.434038 1_555
Cu0 Se3 2.435918 1_445
Cu0 Mn0 2.933818 1_554
Cu0 Se0 2.961908 1_544
Cu0 Se0 2.961908 1_454
Cu0 Zr0 2.966117 1_545
Cu0 Zr0 2.966117 1_455
Cu0 Se2 3.108448 1_455
Cu0 Se2 3.108448 1_545
Cu1 Se0 2.421048 1_555
Cu1 Se2 2.540329 1_555
Cu1 Se1 2.639212 1_565
Cu1 Se1 2.639212 1_655
Se0 Zr0 2.847048 1_556
Se1 Zr0 2.672015 1_555
Se2 Zr0 2.520116 1_555
Se3 Zr0 2.608697 1_655
Se3 Zr0 2.608697 1_565
