# generated using pymatgen
data_Cs2Sn3(SbS5)2
_symmetry_space_group_name_H-M   'P 1'
_cell_length_a   13.79491100
_cell_length_b   7.19443700
_cell_length_c   12.30087709
_cell_angle_alpha   59.24707002
_cell_angle_beta   90.00000000
_cell_angle_gamma   90.00000000
_symmetry_Int_Tables_number   1
_chemical_formula_structural   Cs2Sn3(SbS5)2
_chemical_formula_sum   'Cs4 Sn6 Sb4 S20'
_cell_volume   1049.14900135
_cell_formula_units_Z   2
loop_
 _symmetry_equiv_pos_site_id
 _symmetry_equiv_pos_as_xyz
  1  'x, y, z'
loop_
 _atom_site_type_symbol
 _atom_site_label
 _atom_site_symmetry_multiplicity
 _atom_site_fract_x
 _atom_site_fract_y
 _atom_site_fract_z
 _atom_site_occupancy
  Cs  Cs0  1  0.33500100  0.46081800  0.15537200  1
  Cs  Cs1  1  0.16499900  0.46081800  0.65537200  1
  Cs  Cs2  1  0.66499900  0.53918200  0.84462800  1
  Cs  Cs3  1  0.83500100  0.53918200  0.34462800  1
  Sn  Sn0  1  0.00000000  0.50000000  0.00000000  1
  Sn  Sn1  1  0.50000000  0.50000000  0.50000000  1
  Sn  Sn2  1  0.05326000  0.10673800  0.34810400  1
  Sn  Sn3  1  0.44674000  0.10673800  0.84810400  1
  Sn  Sn4  1  0.94674000  0.89326200  0.65189600  1
  Sn  Sn5  1  0.55326000  0.89326200  0.15189600  1
  Sb  Sb0  1  0.14186800  0.00864700  0.09664300  1
  Sb  Sb1  1  0.35813200  0.00864700  0.59664300  1
  Sb  Sb2  1  0.85813200  0.99135300  0.90335700  1
  Sb  Sb3  1  0.64186800  0.99135300  0.40335700  1
  S  S0  1  0.17048400  0.40061600  0.96196300  1
  S  S1  1  0.32951600  0.40061600  0.46196300  1
  S  S2  1  0.82951600  0.59938400  0.03803700  1
  S  S3  1  0.67048400  0.59938400  0.53803700  1
  S  S4  1  0.97127200  0.07809300  0.13120900  1
  S  S5  1  0.52872800  0.07809300  0.63120900  1
  S  S6  1  0.02872800  0.92190700  0.86879100  1
  S  S7  1  0.47127200  0.92190700  0.36879100  1
  S  S8  1  0.94014100  0.50719500  0.79671900  1
  S  S9  1  0.55985900  0.50719500  0.29671900  1
  S  S10  1  0.05985900  0.49280500  0.20328100  1
  S  S11  1  0.44014100  0.49280500  0.70328100  1
  S  S12  1  0.19077500  0.92885000  0.31559100  1
  S  S13  1  0.30922500  0.92885000  0.81559100  1
  S  S14  1  0.80922500  0.07115000  0.68440900  1
  S  S15  1  0.69077500  0.07115000  0.18440900  1
  S  S16  1  0.89765800  0.93197000  0.44347600  1
  S  S17  1  0.60234200  0.93197000  0.94347600  1
  S  S18  1  0.10234200  0.06803000  0.55652400  1
  S  S19  1  0.39765800  0.06803000  0.05652400  1
loop_
_geom_bond_atom_site_label_1
_geom_bond_atom_site_label_2
_geom_bond_distance
_geom_bond_site_symmetry_2
Cs0 S0 3.471618 1_554
Cs0 S1 3.570131 1_555
Cs0 S9 3.653685 1_555
Cs0 S19 3.704747 1_555
Cs0 S13 3.813261 1_554
Cs0 S12 3.844002 1_545
Cs0 S10 3.865906 1_555
Cs0 S7 3.879281 1_545
Cs0 S19 3.984662 1_565
Cs1 S1 3.471618 1_555
Cs1 S0 3.570131 1_555
Cs1 S8 3.653685 1_455
Cs1 S18 3.704747 1_555
Cs1 S12 3.813261 1_555
Cs1 S13 3.844002 1_545
Cs1 S11 3.865906 1_555
Cs1 S6 3.879281 1_545
Cs1 S18 3.984662 1_565
Cs2 S2 3.471618 1_556
Cs2 S3 3.570131 1_555
Cs2 S11 3.653685 1_555
Cs2 S17 3.704747 1_555
Cs2 S15 3.813261 1_556
Cs2 S14 3.844002 1_565
Cs2 S8 3.865906 1_555
Cs2 S5 3.879281 1_565
Cs2 S17 3.984662 1_545
Cs3 S3 3.471618 1_555
Cs3 S2 3.570131 1_555
Cs3 S10 3.653685 1_655
Cs3 S16 3.704747 1_555
Cs3 S14 3.813261 1_555
Cs3 S15 3.844002 1_565
Cs3 S9 3.865906 1_555
Cs3 S4 3.879281 1_565
Cs3 S16 3.984662 1_545
S0 Sb0 2.464759 1_556
S0 Sn0 2.569691 1_556
S1 Sb1 2.464759 1_555
S1 Sn1 2.569691 1_555
S2 Sb2 2.464759 1_554
S2 Sn0 2.569691 1_655
S3 Sb3 2.464759 1_555
S3 Sn1 2.569691 1_555
S4 Sb0 2.487158 1_655
S4 Sn0 2.639206 1_655
S4 Sn2 3.000365 1_655
S5 Sb1 2.487158 1_555
S5 Sn1 2.639206 1_555
S5 Sn3 3.000365 1_555
S6 Sb2 2.487158 1_455
S6 Sn0 2.639206 1_556
S6 Sn4 3.000365 1_455
S7 Sb3 2.487158 1_555
S7 Sn1 2.639206 1_555
S7 Sn5 3.000365 1_555
S8 Sn4 2.415847 1_555
S8 Sn0 2.608609 1_656
S9 Sn5 2.415847 1_555
S9 Sn1 2.608609 1_555
S10 Sn2 2.415847 1_555
S10 Sn0 2.608609 1_555
S11 Sn3 2.415847 1_555
S11 Sn1 2.608609 1_555
S12 Sn2 2.433091 1_565
S12 Sb0 2.541088 1_565
S13 Sn3 2.433091 1_565
S13 Sb1 2.541088 1_565
S14 Sn4 2.433091 1_545
S14 Sb2 2.541088 1_545
S15 Sn5 2.433091 1_545
S15 Sb3 2.541088 1_545
S16 Sn2 2.460946 1_665
S16 Sn4 2.525600 1_555
S17 Sn3 2.460946 1_565
S17 Sn5 2.525600 1_556
S18 Sn4 2.460946 1_445
S18 Sn2 2.525600 1_555
S19 Sn5 2.460946 1_545
S19 Sn3 2.525600 1_554
