# generated using pymatgen
data_Li7Mn2(CoO4)3
_symmetry_space_group_name_H-M   'P 1'
_cell_length_a   5.88421800
_cell_length_b   5.92297911
_cell_length_c   6.53299574
_cell_angle_alpha   104.07009607
_cell_angle_beta   102.95899273
_cell_angle_gamma   89.77886385
_symmetry_Int_Tables_number   1
_chemical_formula_structural   Li7Mn2(CoO4)3
_chemical_formula_sum   'Li7 Mn2 Co3 O12'
_cell_volume   214.92339047
_cell_formula_units_Z   1
loop_
 _symmetry_equiv_pos_site_id
 _symmetry_equiv_pos_as_xyz
  1  'x, y, z'
loop_
 _atom_site_type_symbol
 _atom_site_label
 _atom_site_symmetry_multiplicity
 _atom_site_fract_x
 _atom_site_fract_y
 _atom_site_fract_z
 _atom_site_occupancy
  Li  Li0  1  0.16335600  0.16393400  0.17372300  1
  Li  Li1  1  0.32566500  0.83400000  0.82472800  1
  Li  Li2  1  0.50000000  0.50000000  0.50000000  1
  Li  Li3  1  0.83664400  0.83606600  0.82627700  1
  Li  Li4  1  0.00000000  0.50000000  0.50000000  1
  Li  Li5  1  0.67433500  0.16600000  0.17527200  1
  Li  Li6  1  0.00000000  0.00000000  0.50000000  1
  Mn  Mn0  1  0.33235700  0.32870500  0.83229300  1
  Mn  Mn1  1  0.66764300  0.67129500  0.16770700  1
  Co  Co0  1  0.50000000  0.00000000  0.50000000  1
  Co  Co1  1  0.83746400  0.32288100  0.82037200  1
  Co  Co2  1  0.16253600  0.67711900  0.17962800  1
  O  O0  1  0.09991900  0.56506900  0.84449400  1
  O  O1  1  0.26638400  0.24579800  0.52020500  1
  O  O2  1  0.42819800  0.90107100  0.17097500  1
  O  O3  1  0.74571900  0.25225300  0.51912400  1
  O  O4  1  0.90057100  0.89209300  0.15751900  1
  O  O5  1  0.57553900  0.56923600  0.85014500  1
  O  O6  1  0.25428100  0.74774700  0.48087600  1
  O  O7  1  0.42446100  0.43076400  0.14985500  1
  O  O8  1  0.57180200  0.09892900  0.82902500  1
  O  O9  1  0.90008100  0.43493100  0.15550600  1
  O  O10  1  0.09942900  0.10790700  0.84248100  1
  O  O11  1  0.73361600  0.75420200  0.47979500  1
loop_
_geom_bond_atom_site_label_1
_geom_bond_atom_site_label_2
_geom_bond_distance
_geom_bond_site_symmetry_2
Li0 O10 2.054565 1_554
Li0 O1 2.139979 1_555
Li0 O2 2.198445 1_545
Li0 O4 2.203991 1_445
Li0 O9 2.231918 1_455
Li0 O7 2.264642 1_555
Li1 O10 2.092534 1_565
Li1 O6 2.122294 1_555
Li1 O0 2.124071 1_555
Li1 O8 2.130402 1_565
Li1 O2 2.142762 1_556
Li1 O5 2.155906 1_555
Li2 O3 2.061829 1_555
Li2 O6 2.061829 1_555
Li2 O1 2.089976 1_555
Li2 O11 2.089976 1_555
Li2 O7 2.165099 1_555
Li2 O5 2.165099 1_555
Li3 O4 2.054565 1_556
Li3 O11 2.139979 1_555
Li3 O8 2.198445 1_565
Li3 O10 2.203991 1_665
Li3 O0 2.231918 1_655
Li3 O5 2.264642 1_555
Li4 O9 2.132102 1_455
Li4 O0 2.132102 1_555
Li4 O3 2.144190 1_455
Li4 O6 2.144190 1_555
Li4 O11 2.174145 1_455
Li4 O1 2.174145 1_555
Li5 O4 2.092534 1_545
Li5 O3 2.122294 1_555
Li5 O9 2.124071 1_555
Li5 O2 2.130402 1_545
Li5 O8 2.142762 1_554
Li5 O7 2.155906 1_555
Li6 O11 2.103630 1_445
Li6 O1 2.103630 1_555
Li6 O6 2.112460 1_545
Li6 O3 2.112460 1_455
Li6 O4 2.115974 1_445
Li6 O10 2.115974 1_555
Mn0 O10 1.921025 1_555
Mn0 O1 1.925748 1_555
Mn0 O0 1.953663 1_555
Mn0 O8 1.955085 1_555
Mn0 O7 1.962576 1_556
Mn0 O5 1.987696 1_555
Mn1 O4 1.921025 1_555
Mn1 O11 1.925748 1_555
Mn1 O9 1.953663 1_555
Mn1 O2 1.955085 1_555
Mn1 O5 1.962576 1_554
Mn1 O7 1.987696 1_555
Co0 O1 1.999774 1_555
Co0 O11 1.999774 1_545
Co0 O8 2.030879 1_555
Co0 O2 2.030879 1_545
Co0 O6 2.045319 1_545
Co0 O3 2.045319 1_555
Co1 O3 1.861341 1_555
Co1 O10 1.998157 1_655
Co1 O0 2.065328 1_655
Co1 O8 2.073266 1_555
Co1 O9 2.074461 1_556
Co1 O5 2.126367 1_555
Co2 O6 1.861341 1_555
Co2 O4 1.998157 1_455
Co2 O9 2.065328 1_455
Co2 O2 2.073266 1_555
Co2 O0 2.074461 1_554
Co2 O7 2.126367 1_555
