# generated using pymatgen
data_LiGeRhO4
_symmetry_space_group_name_H-M   'P 1'
_cell_length_a   5.99831435
_cell_length_b   5.99831435
_cell_length_c   5.99831435
_cell_angle_alpha   121.45438177
_cell_angle_beta   118.33037508
_cell_angle_gamma   90.20772858
_symmetry_Int_Tables_number   1
_chemical_formula_structural   LiGeRhO4
_chemical_formula_sum   'Li2 Ge2 Rh2 O8'
_cell_volume   152.71212987
_cell_formula_units_Z   2
loop_
 _symmetry_equiv_pos_site_id
 _symmetry_equiv_pos_as_xyz
  1  'x, y, z'
loop_
 _atom_site_type_symbol
 _atom_site_label
 _atom_site_symmetry_multiplicity
 _atom_site_fract_x
 _atom_site_fract_y
 _atom_site_fract_z
 _atom_site_occupancy
  Li  Li0  1  0.12570800  0.87570800  0.25000000  1
  Li  Li1  1  0.87429200  0.12429200  0.75000000  1
  Ge  Ge0  1  0.50000000  0.50000000  0.50000000  1
  Ge  Ge1  1  0.50000000  0.00000000  0.00000000  1
  Rh  Rh0  1  0.50000000  0.50000000  0.00000000  1
  Rh  Rh1  1  0.00000000  0.50000000  0.50000000  1
  O  O0  1  0.72139300  0.25601400  0.46538000  1
  O  O1  1  0.29063400  0.25601400  0.03462000  1
  O  O2  1  0.72543000  0.24316700  0.01773700  1
  O  O3  1  0.72543000  0.70769300  0.48226300  1
  O  O4  1  0.27860700  0.74398600  0.53462000  1
  O  O5  1  0.70936600  0.74398600  0.96538000  1
  O  O6  1  0.27457000  0.75683300  0.98226300  1
  O  O7  1  0.27457000  0.29230700  0.51773700  1
loop_
_geom_bond_atom_site_label_1
_geom_bond_atom_site_label_2
_geom_bond_distance
_geom_bond_site_symmetry_2
Li0 O6 2.013809 1_554
Li0 O7 2.013809 1_565
Li0 O5 2.075336 1_454
Li0 O4 2.075336 1_555
Li1 O2 2.013809 1_556
Li1 O3 2.013809 1_545
Li1 O1 2.075336 1_656
Li1 O0 2.075336 1_555
Ge0 O3 1.911663 1_555
Ge0 O7 1.911663 1_555
Ge0 O0 1.976655 1_555
Ge0 O4 1.976655 1_555
Ge0 O1 1.976660 1_555
Ge0 O5 1.976660 1_555
Ge1 O6 1.911663 1_544
Ge1 O2 1.911663 1_555
Ge1 O5 1.976660 1_544
Ge1 O1 1.976660 1_555
Ge1 O4 1.976660 1_544
Ge1 O0 1.976660 1_555
O0 Rh1 2.076896 1_655
O1 Rh0 2.076892 1_555
O2 Rh1 2.064637 1_655
O2 Rh0 2.064637 1_555
O3 Rh1 2.064637 1_655
O3 Rh0 2.064637 1_555
O4 Rh1 2.076896 1_555
O5 Rh0 2.076892 1_556
O6 Rh1 2.064637 1_555
O6 Rh0 2.064637 1_556
O7 Rh1 2.064637 1_555
O7 Rh0 2.064637 1_556
