# generated using pymatgen
data_Lu12Fe2Pb3
_symmetry_space_group_name_H-M   'P 1'
_cell_length_a   8.34855962
_cell_length_b   8.34855962
_cell_length_c   8.34855962
_cell_angle_alpha   110.01695767
_cell_angle_beta   110.01695767
_cell_angle_gamma   108.38517485
_symmetry_Int_Tables_number   1
_chemical_formula_structural   Lu12Fe2Pb3
_chemical_formula_sum   'Lu12 Fe2 Pb3'
_cell_volume   447.81227202
_cell_formula_units_Z   1
loop_
 _symmetry_equiv_pos_site_id
 _symmetry_equiv_pos_as_xyz
  1  'x, y, z'
loop_
 _atom_site_type_symbol
 _atom_site_label
 _atom_site_symmetry_multiplicity
 _atom_site_fract_x
 _atom_site_fract_y
 _atom_site_fract_z
 _atom_site_occupancy
  Lu  Lu0  1  0.30960500  0.30960500  0.61920900  1
  Lu  Lu1  1  0.69039500  0.69039500  0.38079100  1
  Lu  Lu2  1  0.30960500  0.69039500  0.00000000  1
  Lu  Lu3  1  0.69039500  0.30960500  0.00000000  1
  Lu  Lu4  1  0.45833900  0.21224800  0.24609100  1
  Lu  Lu5  1  0.54166100  0.78775200  0.75390900  1
  Lu  Lu6  1  0.96615700  0.21224800  0.75390900  1
  Lu  Lu7  1  0.21224800  0.96615700  0.75390900  1
  Lu  Lu8  1  0.03384300  0.78775200  0.24609100  1
  Lu  Lu9  1  0.78775200  0.03384300  0.24609100  1
  Lu  Lu10  1  0.21224800  0.45833900  0.24609100  1
  Lu  Lu11  1  0.78775200  0.54166100  0.75390900  1
  Fe  Fe0  1  0.38080900  0.38080900  0.00000000  1
  Fe  Fe1  1  0.61919100  0.61919100  0.00000000  1
  Pb  Pb0  1  0.00000000  0.00000000  0.00000000  1
  Pb  Pb1  1  0.50000000  0.00000000  0.50000000  1
  Pb  Pb2  1  0.00000000  0.50000000  0.50000000  1
loop_
_geom_bond_atom_site_label_1
_geom_bond_atom_site_label_2
_geom_bond_distance
_geom_bond_site_symmetry_2
Lu0 Lu5 3.392586 1_555
Lu0 Lu11 3.392586 1_555
Lu0 Lu6 3.392594 1_455
Lu0 Lu7 3.392594 1_545
Lu0 Pb2 3.480177 1_555
Lu0 Pb1 3.480177 1_555
Lu0 Lu10 3.668382 1_555
Lu0 Lu4 3.668382 1_555
Lu0 Lu9 3.668388 1_455
Lu0 Lu8 3.668388 1_545
Lu1 Lu10 3.392586 1_555
Lu1 Lu4 3.392586 1_555
Lu1 Lu8 3.392594 1_655
Lu1 Lu9 3.392594 1_565
Lu1 Pb1 3.480177 1_565
Lu1 Pb2 3.480177 1_655
Lu1 Lu5 3.668382 1_555
Lu1 Lu11 3.668382 1_555
Lu1 Lu7 3.668388 1_655
Lu1 Lu6 3.668388 1_565
Lu2 Lu6 3.392588 1_454
Lu2 Lu9 3.392588 1_565
Lu2 Lu5 3.392588 1_554
Lu2 Pb2 3.480179 1_554
Lu2 Pb1 3.480179 1_565
Lu2 Lu8 3.668390 1_555
Lu2 Lu7 3.668390 1_554
Lu2 Lu4 3.668390 1_565
Lu3 Lu4 3.392588 1_555
Lu3 Lu7 3.392588 1_544
Lu3 Lu8 3.392588 1_655
Lu3 Pb2 3.480179 1_655
Lu3 Pb1 3.480179 1_554
Lu3 Lu9 3.668390 1_555
Lu3 Lu5 3.668390 1_544
Lu3 Lu6 3.668390 1_554
Lu4 Pb0 3.138691 1_555
Lu4 Pb1 3.195272 1_555
Lu4 Lu7 3.332359 1_544
Lu4 Lu9 3.516450 1_555
Lu4 Pb2 3.716512 1_655
Lu5 Pb0 3.138691 1_666
Lu5 Pb1 3.195272 1_565
Lu5 Lu9 3.332359 1_566
Lu5 Lu7 3.516450 1_555
Lu5 Pb2 3.716512 1_555
Lu6 Pb0 3.138691 1_656
Lu6 Pb1 3.195272 1_555
Lu6 Lu7 3.332359 1_645
Lu6 Lu9 3.516450 1_555
Lu6 Pb2 3.716512 1_655
Lu7 Pb0 3.138691 1_566
Lu7 Pb2 3.195272 1_555
Lu7 Lu8 3.516450 1_555
Lu7 Pb1 3.716512 1_565
Lu8 Pb0 3.138691 1_565
Lu8 Pb1 3.195272 1_565
Lu8 Lu9 3.332359 1_465
Lu8 Pb2 3.716512 1_555
Lu9 Pb0 3.138691 1_655
Lu9 Pb2 3.195272 1_655
Lu9 Pb1 3.716512 1_555
Lu10 Pb0 3.138691 1_555
Lu10 Pb2 3.195272 1_555
Lu10 Lu6 3.332359 1_454
Lu10 Lu4 3.332359 1_555
Lu10 Lu2 3.392588 1_555
Lu10 Lu8 3.516450 1_555
Lu10 Lu5 3.516450 1_555
Lu10 Lu3 3.668390 1_455
Lu10 Pb1 3.716512 1_565
Lu11 Pb0 3.138691 1_666
Lu11 Pb2 3.195272 1_655
Lu11 Lu8 3.332359 1_656
Lu11 Lu5 3.332359 1_555
Lu11 Lu3 3.392588 1_556
Lu11 Lu6 3.516450 1_555
Lu11 Lu4 3.516450 1_555
Lu11 Lu2 3.668390 1_656
Lu11 Pb1 3.716512 1_555
Fe0 Fe1 2.328720 1_555
Fe0 Lu3 2.828904 1_555
Fe0 Lu2 2.828904 1_555
Fe0 Lu1 2.828908 1_555
Fe0 Lu0 2.828912 1_554
Fe0 Lu10 2.874676 1_555
Fe0 Lu4 2.874676 1_555
Fe0 Lu7 2.874676 1_544
Fe0 Lu6 2.874676 1_454
Fe1 Lu3 2.828904 1_555
Fe1 Lu2 2.828904 1_555
Fe1 Lu0 2.828908 1_554
Fe1 Lu1 2.828912 1_555
Fe1 Lu9 2.874676 1_565
Fe1 Lu8 2.874676 1_655
Fe1 Lu11 2.874676 1_554
Fe1 Lu5 2.874676 1_554
