# generated using pymatgen
data_Li9Mn2Co5O16
_symmetry_space_group_name_H-M   'P 1'
_cell_length_a   5.07655494
_cell_length_b   5.81465790
_cell_length_c   10.16785518
_cell_angle_alpha   73.38535256
_cell_angle_beta   99.59501920
_cell_angle_gamma   89.99999884
_symmetry_Int_Tables_number   1
_chemical_formula_structural   Li9Mn2Co5O16
_chemical_formula_sum   'Li9 Mn2 Co5 O16'
_cell_volume   283.22367059
_cell_formula_units_Z   1
loop_
 _symmetry_equiv_pos_site_id
 _symmetry_equiv_pos_as_xyz
  1  'x, y, z'
loop_
 _atom_site_type_symbol
 _atom_site_label
 _atom_site_symmetry_multiplicity
 _atom_site_fract_x
 _atom_site_fract_y
 _atom_site_fract_z
 _atom_site_occupancy
  Li  Li0  1  0.25829400  0.62598600  0.25931000  1
  Li  Li1  1  0.74170600  0.38529600  0.74069000  1
  Li  Li2  1  0.25829400  0.11470400  0.25931000  1
  Li  Li3  1  0.75222100  0.37049200  0.25901700  1
  Li  Li4  1  0.24777900  0.12950800  0.74098300  1
  Li  Li5  1  0.74331200  0.86823400  0.26353300  1
  Li  Li6  1  0.74170600  0.87401400  0.74069000  1
  Li  Li7  1  0.25668800  0.63176600  0.73646700  1
  Li  Li8  1  0.50000000  0.75000000  0.50000000  1
  Mn  Mn0  1  0.00065200  0.99946100  0.00107900  1
  Mn  Mn1  1  0.99934800  0.50053900  0.99892100  1
  Co  Co0  1  0.50000000  0.25000000  0.50000000  1
  Co  Co1  1  0.00000000  0.50673800  0.50000000  1
  Co  Co2  1  0.50000000  0.25000000  0.00000000  1
  Co  Co3  1  0.00000000  0.99326200  0.50000000  1
  Co  Co4  1  0.50000000  0.75000000  0.00000000  1
  O  O0  1  0.89685100  0.69088900  0.11370300  1
  O  O1  1  0.36616600  0.42475300  0.60923300  1
  O  O2  1  0.89685100  0.19540900  0.11370300  1
  O  O3  1  0.35549100  0.44440800  0.11118300  1
  O  O4  1  0.85567400  0.19414600  0.61170800  1
  O  O5  1  0.35754300  0.94232800  0.11534300  1
  O  O6  1  0.36616600  0.96601400  0.60923300  1
  O  O7  1  0.89574800  0.69078700  0.61842600  1
  O  O8  1  0.63383400  0.53398600  0.39076700  1
  O  O9  1  0.10314900  0.30459100  0.88629700  1
  O  O10  1  0.63383400  0.07524700  0.39076700  1
  O  O11  1  0.14432600  0.30585400  0.38829200  1
  O  O12  1  0.64450900  0.05559200  0.88881700  1
  O  O13  1  0.10425200  0.80921300  0.38157400  1
  O  O14  1  0.10314900  0.80911100  0.88629700  1
  O  O15  1  0.64245700  0.55767200  0.88465700  1
loop_
_geom_bond_atom_site_label_1
_geom_bond_atom_site_label_2
_geom_bond_distance
_geom_bond_site_symmetry_2
Li0 O13 2.091307 1_555
Li0 O11 2.092032 1_555
Li0 O8 2.109246 1_555
Li0 O0 2.115658 1_455
Li0 O5 2.118065 1_555
Li0 O3 2.187185 1_555
Li1 O7 2.091308 1_555
Li1 O4 2.092032 1_555
Li1 O1 2.109246 1_555
Li1 O9 2.115658 1_655
Li1 O15 2.118069 1_555
Li1 O12 2.187181 1_555
Li2 O13 2.091308 1_545
Li2 O11 2.092032 1_555
Li2 O10 2.109246 1_555
Li2 O2 2.115658 1_455
Li2 O5 2.118069 1_545
Li2 O3 2.187181 1_555
Li3 O8 2.014002 1_555
Li3 O10 2.014006 1_555
Li3 O11 2.162530 1_655
Li3 O2 2.231693 1_555
Li3 O0 2.231693 1_555
Li3 O3 2.263139 1_555
Li4 O6 2.014002 1_545
Li4 O1 2.014006 1_555
Li4 O4 2.162530 1_455
Li4 O9 2.231693 1_555
Li4 O14 2.231693 1_545
Li4 O12 2.263139 1_555
Li5 O13 1.986721 1_655
Li5 O10 2.135807 1_565
Li5 O8 2.135811 1_555
Li5 O5 2.221775 1_555
Li5 O0 2.299144 1_555
Li5 O2 2.299144 1_565
Li6 O7 2.091307 1_555
Li6 O4 2.092032 1_565
Li6 O6 2.109246 1_555
Li6 O14 2.115658 1_655
Li6 O15 2.118065 1_555
Li6 O12 2.187185 1_565
Li7 O7 1.986721 1_455
Li7 O1 2.135807 1_555
Li7 O6 2.135811 1_555
Li7 O15 2.221775 1_555
Li7 O14 2.299144 1_555
Li7 O9 2.299144 1_555
Li8 O8 2.078985 1_555
Li8 O6 2.078985 1_555
Li8 O1 2.078985 1_555
Li8 O10 2.078985 1_565
Li8 O13 2.135689 1_555
Li8 O7 2.135689 1_555
Mn0 O12 1.943508 1_464
Mn0 O9 1.949105 1_564
Mn0 O14 1.949113 1_554
Mn0 O5 1.954554 1_555
Mn0 O2 1.958189 1_465
Mn0 O0 1.958189 1_455
Mn1 O3 1.943508 1_656
Mn1 O2 1.949105 1_556
Mn1 O0 1.949113 1_556
Mn1 O15 1.954554 1_555
Mn1 O9 1.958189 1_655
Mn1 O14 1.958189 1_655
Co0 O10 1.903853 1_555
Co0 O1 1.903853 1_555
Co0 O6 1.903853 1_545
Co0 O8 1.903853 1_555
Co0 O11 1.939365 1_555
Co0 O4 1.939365 1_555
Co1 O7 1.955688 1_455
Co1 O13 1.955688 1_555
Co1 O1 1.981201 1_555
Co1 O8 1.981201 1_455
Co1 O11 2.056079 1_555
Co1 O4 2.056079 1_455
Co2 O12 2.025170 1_554
Co2 O3 2.025170 1_555
Co2 O15 2.044966 1_554
Co2 O5 2.044966 1_545
Co2 O2 2.123628 1_555
Co2 O9 2.123628 1_554
Co3 O13 1.955688 1_555
Co3 O7 1.955688 1_455
Co3 O10 1.981201 1_465
Co3 O6 1.981201 1_555
Co3 O4 2.056079 1_465
Co3 O11 2.056079 1_565
Co4 O3 2.025174 1_555
Co4 O12 2.025174 1_564
Co4 O15 2.044961 1_554
Co4 O5 2.044961 1_555
Co4 O0 2.123628 1_555
Co4 O14 2.123628 1_554
