# generated using pymatgen
data_Te2Mo(WS2)3
_symmetry_space_group_name_H-M   'P 1'
_cell_length_a   3.26825264
_cell_length_b   3.26825264
_cell_length_c   37.23654700
_cell_angle_alpha   90.00000000
_cell_angle_beta   90.00000000
_cell_angle_gamma   120.00001301
_symmetry_Int_Tables_number   1
_chemical_formula_structural   Te2Mo(WS2)3
_chemical_formula_sum   'Te2 Mo1 W3 S6'
_cell_volume   344.45398874
_cell_formula_units_Z   1
loop_
 _symmetry_equiv_pos_site_id
 _symmetry_equiv_pos_as_xyz
  1  'x, y, z'
loop_
 _atom_site_type_symbol
 _atom_site_label
 _atom_site_symmetry_multiplicity
 _atom_site_fract_x
 _atom_site_fract_y
 _atom_site_fract_z
 _atom_site_occupancy
  Te  Te0  1  0.33333300  0.66666700  0.33356100  1
  Te  Te1  1  0.33333300  0.66666700  0.23005000  1
  Mo  Mo0  1  0.66666700  0.33333300  0.28181600  1
  W  W0  1  0.33333300  0.66666700  0.09387900  1
  W  W1  1  0.33333300  0.66666700  0.46969600  1
  W  W2  1  0.66666700  0.33333300  0.65754000  1
  S  S0  1  0.33333300  0.66666700  0.69905100  1
  S  S1  1  0.66666700  0.33333300  0.05238000  1
  S  S2  1  0.66666700  0.33333300  0.42822400  1
  S  S3  1  0.66666700  0.33333300  0.13537700  1
  S  S4  1  0.66666700  0.33333300  0.51117400  1
  S  S5  1  0.33333300  0.66666700  0.61600200  1
loop_
_geom_bond_atom_site_label_1
_geom_bond_atom_site_label_2
_geom_bond_distance
_geom_bond_site_symmetry_2
Mo0 Te0 2.696861 1_655
Mo0 Te0 2.696861 1_545
Mo0 Te0 2.696866 1_555
Mo0 Te1 2.697420 1_545
Mo0 Te1 2.697420 1_655
Mo0 Te1 2.697424 1_555
S0 W2 2.439212 1_455
S0 W2 2.439212 1_565
S0 W2 2.439216 1_555
S1 W0 2.438929 1_545
S1 W0 2.438929 1_655
S1 W0 2.438933 1_555
S2 W1 2.438292 1_545
S2 W1 2.438292 1_655
S2 W1 2.438296 1_555
S3 W0 2.438905 1_545
S3 W0 2.438905 1_655
S3 W0 2.438910 1_555
S4 W1 2.438433 1_655
S4 W1 2.438433 1_545
S4 W1 2.438438 1_555
S5 W2 2.439849 1_455
S5 W2 2.439849 1_565
S5 W2 2.439854 1_555
