# generated using pymatgen
data_Pr3Th
_symmetry_space_group_name_H-M   'P 1'
_cell_length_a   6.38026845
_cell_length_b   6.38026845
_cell_length_c   6.38026845
_cell_angle_alpha   131.92069840
_cell_angle_beta   131.92069840
_cell_angle_gamma   70.35430401
_symmetry_Int_Tables_number   1
_chemical_formula_structural   Pr3Th
_chemical_formula_sum   'Pr3 Th1'
_cell_volume   140.92026919
_cell_formula_units_Z   1
loop_
 _symmetry_equiv_pos_site_id
 _symmetry_equiv_pos_as_xyz
  1  'x, y, z'
loop_
 _atom_site_type_symbol
 _atom_site_label
 _atom_site_symmetry_multiplicity
 _atom_site_fract_x
 _atom_site_fract_y
 _atom_site_fract_z
 _atom_site_occupancy
  Pr  Pr0  1  0.75000000  0.25000000  0.50000000  1
  Pr  Pr1  1  0.25000000  0.75000000  0.50000000  1
  Pr  Pr2  1  0.50000000  0.50000000  0.00000000  1
  Th  Th0  1  0.00000000  0.00000000  0.00000000  1
loop_
_geom_bond_atom_site_label_1
_geom_bond_atom_site_label_2
_geom_bond_distance
_geom_bond_site_symmetry_2
Pr0 Pr1 3.675714 1_544
Pr0 Pr1 3.675714 1_645
Pr0 Pr1 3.675714 1_555
Pr0 Pr1 3.675714 1_656
Pr0 Th0 3.681667 1_655
Pr0 Pr2 3.681667 1_545
Pr0 Pr2 3.681667 1_555
Pr0 Th0 3.681667 1_666
Pr0 Th0 3.681667 1_656
Pr0 Pr2 3.681667 1_556
Pr0 Th0 3.681667 1_555
Pr0 Pr2 3.681667 1_656
Pr1 Th0 3.681667 1_555
Pr1 Th0 3.681667 1_566
Pr1 Th0 3.681667 1_565
Pr1 Pr2 3.681667 1_555
Pr1 Pr2 3.681667 1_566
Pr1 Pr2 3.681667 1_556
Pr1 Th0 3.681667 1_666
Pr1 Pr2 3.681667 1_455
Pr2 Th0 3.675714 1_655
Pr2 Th0 3.675714 1_554
Pr2 Th0 3.675714 1_565
Pr2 Th0 3.675714 1_666
