# generated using pymatgen
data_Rb2Ni2(MoO4)3
_symmetry_space_group_name_H-M   'P 1'
_cell_length_a   9.39466200
_cell_length_b   7.09879200
_cell_length_c   20.37510021
_cell_angle_alpha   71.31981185
_cell_angle_beta   90.00000000
_cell_angle_gamma   90.00000000
_symmetry_Int_Tables_number   1
_chemical_formula_structural   Rb2Ni2(MoO4)3
_chemical_formula_sum   'Rb8 Ni8 Mo12 O48'
_cell_volume   1287.24901206
_cell_formula_units_Z   4
loop_
 _symmetry_equiv_pos_site_id
 _symmetry_equiv_pos_as_xyz
  1  'x, y, z'
loop_
 _atom_site_type_symbol
 _atom_site_label
 _atom_site_symmetry_multiplicity
 _atom_site_fract_x
 _atom_site_fract_y
 _atom_site_fract_z
 _atom_site_occupancy
  Rb  Rb0  1  0.47851700  0.51743500  0.76357900  1
  Rb  Rb1  1  0.46148300  0.19036700  0.09174900  1
  Rb  Rb2  1  0.03851700  0.19036700  0.59174900  1
  Rb  Rb3  1  0.53851700  0.80963300  0.90825100  1
  Rb  Rb4  1  0.02148300  0.51743500  0.26357900  1
  Rb  Rb5  1  0.52148300  0.48256500  0.23642100  1
  Rb  Rb6  1  0.96148300  0.80963300  0.40825100  1
  Rb  Rb7  1  0.97851700  0.48256500  0.73642100  1
  Ni  Ni0  1  0.35956700  0.73073500  0.36354400  1
  Ni  Ni1  1  0.85956700  0.26926500  0.13645600  1
  Ni  Ni2  1  0.14043300  0.73073500  0.86354400  1
  Ni  Ni3  1  0.64043300  0.26926500  0.63645600  1
  Ni  Ni4  1  0.42496300  0.07487500  0.55846100  1
  Ni  Ni5  1  0.92496300  0.92512500  0.94153900  1
  Ni  Ni6  1  0.57503700  0.92512500  0.44153900  1
  Ni  Ni7  1  0.07503700  0.07487500  0.05846100  1
  Mo  Mo0  1  0.15693900  0.58991100  0.03741200  1
  Mo  Mo1  1  0.34306100  0.58991100  0.53741200  1
  Mo  Mo2  1  0.84306100  0.41008900  0.96258800  1
  Mo  Mo3  1  0.65693900  0.41008900  0.46258800  1
  Mo  Mo4  1  0.72010000  0.80123400  0.59811300  1
  Mo  Mo5  1  0.22010000  0.19876600  0.90188700  1
  Mo  Mo6  1  0.27990000  0.19876600  0.40188700  1
  Mo  Mo7  1  0.77990000  0.80123400  0.09811300  1
  Mo  Mo8  1  0.83272100  0.94984400  0.77461500  1
  Mo  Mo9  1  0.33272100  0.05015600  0.72538500  1
  Mo  Mo10  1  0.16727900  0.05015600  0.22538500  1
  Mo  Mo11  1  0.66727900  0.94984400  0.27461500  1
  O  O0  1  0.74862500  0.37004000  0.04276800  1
  O  O1  1  0.24862500  0.62996000  0.45723200  1
  O  O2  1  0.25137500  0.62996000  0.95723200  1
  O  O3  1  0.75137500  0.37004000  0.54276800  1
  O  O4  1  0.95387200  0.63962000  0.93434900  1
  O  O5  1  0.45387200  0.36038000  0.56565100  1
  O  O6  1  0.04612800  0.36038000  0.06565100  1
  O  O7  1  0.54612800  0.63962000  0.43434900  1
  O  O8  1  0.94737300  0.18928300  0.96392500  1
  O  O9  1  0.44737300  0.81071700  0.53607500  1
  O  O10  1  0.05262700  0.81071700  0.03607500  1
  O  O11  1  0.55262700  0.18928300  0.46392500  1
  O  O12  1  0.70827700  0.44023100  0.90164900  1
  O  O13  1  0.20827700  0.55976900  0.59835100  1
  O  O14  1  0.29172300  0.55976900  0.09835100  1
  O  O15  1  0.79172300  0.44023100  0.40164900  1
  O  O16  1  0.61095500  0.99848200  0.61402900  1
  O  O17  1  0.11095500  0.00151800  0.88597100  1
  O  O18  1  0.65731400  0.55315400  0.64422800  1
  O  O19  1  0.38904500  0.00151800  0.38597100  1
  O  O20  1  0.74447300  0.84281500  0.50649200  1
  O  O21  1  0.24447300  0.15718500  0.99350800  1
  O  O22  1  0.25552700  0.15718500  0.49350800  1
  O  O23  1  0.75552700  0.84281500  0.00649200  1
  O  O24  1  0.89157200  0.82222200  0.62933500  1
  O  O25  1  0.39157200  0.17777800  0.87066500  1
  O  O26  1  0.10842800  0.17777800  0.37066500  1
  O  O27  1  0.60842800  0.82222200  0.12933500  1
  O  O28  1  0.49504400  0.83164900  0.28011300  1
  O  O29  1  0.99504400  0.16835100  0.21988700  1
  O  O30  1  0.50495600  0.16835100  0.71988700  1
  O  O31  1  0.00495600  0.83164900  0.78011300  1
  O  O32  1  0.79949700  0.77617300  0.27255000  1
  O  O33  1  0.29949700  0.22382700  0.22745000  1
  O  O34  1  0.20050300  0.22382700  0.72745000  1
  O  O35  1  0.70050300  0.77617300  0.77255000  1
  O  O36  1  0.69300600  0.01909700  0.35199900  1
  O  O37  1  0.19300600  0.98090300  0.14800100  1
  O  O38  1  0.30699400  0.98090300  0.64800100  1
  O  O39  1  0.80699400  0.01909700  0.85199900  1
  O  O40  1  0.68135000  0.16935600  0.19751200  1
  O  O41  1  0.18135000  0.83064400  0.30248800  1
  O  O42  1  0.31865000  0.83064400  0.80248800  1
  O  O43  1  0.81865000  0.16935600  0.69751200  1
  O  O44  1  0.84268600  0.55315400  0.14422800  1
  O  O45  1  0.34268600  0.44684600  0.35577200  1
  O  O46  1  0.15731400  0.44684600  0.85577200  1
  O  O47  1  0.88904500  0.99848200  0.11402900  1
loop_
_geom_bond_atom_site_label_1
_geom_bond_atom_site_label_2
_geom_bond_distance
_geom_bond_site_symmetry_2
Ni0 O28 2.059793 1_555
Ni0 O41 2.070910 1_555
Ni0 O45 2.077489 1_555
Ni0 O1 2.089792 1_555
Ni0 O19 2.131463 1_565
Ni0 O7 2.230195 1_555
Ni1 O29 2.059793 1_555
Ni1 O40 2.070910 1_555
Ni1 O44 2.077489 1_555
Ni1 O0 2.089792 1_555
Ni1 O47 2.131463 1_545
Ni1 O6 2.230195 1_655
Ni2 O31 2.059793 1_555
Ni2 O42 2.070910 1_555
Ni2 O46 2.077489 1_555
Ni2 O2 2.089792 1_555
Ni2 O17 2.131463 1_565
Ni2 O4 2.230195 1_455
Ni3 O30 2.059793 1_555
Ni3 O43 2.070910 1_555
Ni3 O18 2.077489 1_555
Ni3 O3 2.089792 1_555
Ni3 O16 2.131463 1_545
Ni3 O5 2.230195 1_555
Ni4 O22 2.032567 1_555
Ni4 O38 2.054771 1_545
Ni4 O16 2.058115 1_545
Ni4 O9 2.077653 1_545
Ni4 O5 2.095971 1_555
Ni4 O11 2.192294 1_555
Ni5 O23 2.032567 1_556
Ni5 O39 2.054771 1_565
Ni5 O17 2.058115 1_665
Ni5 O8 2.077653 1_565
Ni5 O4 2.095971 1_555
Ni5 O10 2.192294 1_656
Ni6 O20 2.032567 1_555
Ni6 O36 2.054771 1_565
Ni6 O19 2.058115 1_565
Ni6 O11 2.077653 1_565
Ni6 O7 2.095971 1_555
Ni6 O9 2.192294 1_555
Ni7 O21 2.032567 1_554
Ni7 O37 2.054771 1_545
Ni7 O47 2.058115 1_445
Ni7 O10 2.077653 1_545
Ni7 O6 2.095971 1_555
Ni7 O8 2.192294 1_454
Mo0 O14 1.738003 1_555
Mo0 O2 1.799811 1_554
Mo0 O10 1.841375 1_555
Mo0 O6 1.862574 1_555
Mo1 O13 1.738003 1_555
Mo1 O1 1.799811 1_555
Mo1 O9 1.841375 1_555
Mo1 O5 1.862574 1_555
Mo2 O12 1.738003 1_555
Mo2 O0 1.799811 1_556
Mo2 O8 1.841375 1_555
Mo2 O4 1.862574 1_555
Mo3 O15 1.738003 1_555
Mo3 O3 1.799811 1_555
Mo3 O11 1.841375 1_555
Mo3 O7 1.862574 1_555
Mo4 O24 1.755753 1_555
Mo4 O20 1.808723 1_555
Mo4 O18 1.808917 1_555
Mo4 O16 1.846094 1_555
Mo5 O25 1.755753 1_555
Mo5 O21 1.808723 1_555
Mo5 O46 1.808917 1_555
Mo5 O17 1.846094 1_555
Mo6 O26 1.755753 1_555
Mo6 O22 1.808723 1_555
Mo6 O45 1.808917 1_555
Mo6 O19 1.846094 1_555
Mo7 O27 1.755753 1_555
Mo7 O23 1.808723 1_555
Mo7 O44 1.808917 1_555
Mo7 O47 1.846094 1_555
Mo8 O35 1.760070 1_555
Mo8 O31 1.809571 1_655
Mo8 O39 1.811803 1_565
Mo8 O43 1.829081 1_565
Mo9 O34 1.760070 1_555
Mo9 O30 1.809571 1_555
Mo9 O38 1.811803 1_545
Mo9 O42 1.829081 1_545
Mo10 O33 1.760070 1_555
Mo10 O29 1.809571 1_455
Mo10 O37 1.811803 1_545
Mo10 O41 1.829081 1_545
Mo11 O32 1.760070 1_555
Mo11 O28 1.809571 1_555
Mo11 O36 1.811803 1_565
Mo11 O40 1.829081 1_565
O0 Rb1 3.014045 1_555
O1 Rb6 3.014045 1_455
O2 Rb3 3.014045 1_555
O3 Rb2 3.014045 1_655
O12 Rb3 3.108707 1_555
O13 Rb2 3.108707 1_555
O14 Rb1 3.108707 1_555
O15 Rb6 3.108707 1_555
O18 Rb0 2.899039 1_555
O20 Rb6 2.919013 1_555
O21 Rb1 2.919013 1_556
O22 Rb2 2.919013 1_555
O23 Rb3 2.919013 1_554
O24 Rb7 2.805625 1_555
O24 Rb2 2.835491 1_665
O25 Rb0 2.805625 1_555
O25 Rb3 2.835491 1_545
O26 Rb4 2.805625 1_555
O26 Rb6 2.835491 1_445
O27 Rb5 2.805625 1_555
O27 Rb1 2.835491 1_565
O28 Rb5 2.899688 1_555
O29 Rb4 2.899688 1_655
O30 Rb0 2.899688 1_555
O31 Rb7 2.899688 1_455
O32 Rb4 2.823345 1_655
O32 Rb6 3.230756 1_555
O33 Rb5 2.823345 1_555
O33 Rb1 3.230756 1_555
O34 Rb7 2.823345 1_455
O34 Rb2 3.230756 1_555
O35 Rb0 2.823345 1_555
O35 Rb3 3.230756 1_555
O36 Rb6 2.965585 1_545
O37 Rb1 2.965585 1_565
O38 Rb2 2.965585 1_565
O39 Rb3 2.965585 1_545
O40 Rb1 2.954098 1_555
O40 Rb5 2.992796 1_555
O41 Rb6 2.954098 1_455
O41 Rb4 2.992796 1_555
O42 Rb3 2.954098 1_555
O42 Rb0 2.992796 1_555
O43 Rb2 2.954098 1_655
O43 Rb7 2.992796 1_555
O44 Rb4 2.899039 1_655
O45 Rb5 2.899039 1_555
O46 Rb7 2.899039 1_455
