# generated using pymatgen
data_Mg3W
_symmetry_space_group_name_H-M   'P 1'
_cell_length_a   5.70990200
_cell_length_b   9.82937000
_cell_length_c   10.78846800
_cell_angle_alpha   90.00000000
_cell_angle_beta   90.00000000
_cell_angle_gamma   90.00000000
_symmetry_Int_Tables_number   1
_chemical_formula_structural   Mg3W
_chemical_formula_sum   'Mg24 W8'
_cell_volume   605.49995526
_cell_formula_units_Z   8
loop_
 _symmetry_equiv_pos_site_id
 _symmetry_equiv_pos_as_xyz
  1  'x, y, z'
loop_
 _atom_site_type_symbol
 _atom_site_label
 _atom_site_symmetry_multiplicity
 _atom_site_fract_x
 _atom_site_fract_y
 _atom_site_fract_z
 _atom_site_occupancy
  Mg  Mg0_0  1  0.00000000  0.00000000  0.32719100  1
  Mg  Mg0_1  1  0.00000000  0.00000000  0.82719100  1
  Mg  Mg0_2  1  0.00000000  0.50000000  0.32719100  1
  Mg  Mg0_3  1  0.00000000  0.50000000  0.82719100  1
  Mg  Mg0_4  1  0.50000000  0.00000000  0.32719100  1
  Mg  Mg0_5  1  0.50000000  0.00000000  0.82719100  1
  Mg  Mg0_6  1  0.50000000  0.50000000  0.32719100  1
  Mg  Mg0_7  1  0.50000000  0.50000000  0.82719100  1
  Mg  Mg1_0  1  0.00000000  0.25000000  0.16343350  1
  Mg  Mg1_1  1  0.00000000  0.25000000  0.66343350  1
  Mg  Mg1_2  1  0.00000000  0.75000000  0.16343350  1
  Mg  Mg1_3  1  0.00000000  0.75000000  0.66343350  1
  Mg  Mg1_4  1  0.50000000  0.25000000  0.16343350  1
  Mg  Mg1_5  1  0.50000000  0.25000000  0.66343350  1
  Mg  Mg1_6  1  0.50000000  0.75000000  0.16343350  1
  Mg  Mg1_7  1  0.50000000  0.75000000  0.66343350  1
  Mg  Mg2_0  1  0.25000000  0.25000000  0.43254750  1
  Mg  Mg2_1  1  0.25000000  0.25000000  0.93254750  1
  Mg  Mg2_2  1  0.25000000  0.75000000  0.43254750  1
  Mg  Mg2_3  1  0.25000000  0.75000000  0.93254750  1
  Mg  Mg2_4  1  0.75000000  0.25000000  0.43254750  1
  Mg  Mg2_5  1  0.75000000  0.25000000  0.93254750  1
  Mg  Mg2_6  1  0.75000000  0.75000000  0.43254750  1
  Mg  Mg2_7  1  0.75000000  0.75000000  0.93254750  1
  W  W0_0  1  0.25000000  0.00000000  0.07682850  1
  W  W0_1  1  0.25000000  0.00000000  0.57682850  1
  W  W0_2  1  0.25000000  0.50000000  0.07682850  1
  W  W0_3  1  0.25000000  0.50000000  0.57682850  1
  W  W0_4  1  0.75000000  0.00000000  0.07682850  1
  W  W0_5  1  0.75000000  0.00000000  0.57682850  1
  W  W0_6  1  0.75000000  0.50000000  0.07682850  1
  W  W0_7  1  0.75000000  0.50000000  0.57682850  1
loop_
_geom_bond_atom_site_label_1
_geom_bond_atom_site_label_2
_geom_bond_distance
_geom_bond_site_symmetry_2
Mg0_0 Mg0_4 2.854951 1_455
Mg0_0 Mg0_4 2.854951 1_555
Mg0_0 Mg1_2 3.026505 1_545
Mg0_0 Mg1_0 3.026505 1_555
Mg0_0 W0_1 3.048122 1_555
Mg0_0 W0_5 3.048122 1_455
Mg0_0 W0_4 3.055035 1_455
Mg0_0 W0_0 3.055035 1_555
Mg0_0 Mg2_6 3.060745 1_445
Mg0_0 Mg2_0 3.060745 1_555
Mg0_0 Mg2_4 3.060745 1_455
Mg0_0 Mg2_2 3.060745 1_545
Mg0_1 Mg0_5 2.854951 1_455
Mg0_1 Mg0_5 2.854951 1_555
Mg0_1 Mg1_1 3.026505 1_555
Mg0_1 Mg1_3 3.026505 1_545
Mg0_1 W0_4 3.048122 1_456
Mg0_1 W0_0 3.048122 1_556
Mg0_1 W0_1 3.055035 1_555
Mg0_1 W0_5 3.055035 1_455
Mg0_1 Mg2_3 3.060745 1_545
Mg0_1 Mg2_7 3.060745 1_445
Mg0_1 Mg2_5 3.060745 1_455
Mg0_1 Mg2_1 3.060745 1_555
Mg0_2 Mg0_6 2.854951 1_555
Mg0_2 Mg0_6 2.854951 1_455
Mg0_2 Mg1_2 3.026505 1_555
Mg0_2 Mg1_0 3.026505 1_555
Mg0_2 W0_7 3.048122 1_455
Mg0_2 W0_3 3.048122 1_555
Mg0_2 W0_6 3.055035 1_455
Mg0_2 W0_2 3.055035 1_555
Mg0_2 Mg2_6 3.060745 1_455
Mg0_2 Mg2_0 3.060745 1_555
Mg0_2 Mg2_4 3.060745 1_455
Mg0_2 Mg2_2 3.060745 1_555
Mg0_3 Mg0_7 2.854951 1_455
Mg0_3 Mg0_7 2.854951 1_555
Mg0_3 Mg1_1 3.026505 1_555
Mg0_3 Mg1_3 3.026505 1_555
Mg0_3 W0_2 3.048122 1_556
Mg0_3 W0_6 3.048122 1_456
Mg0_3 W0_7 3.055035 1_455
Mg0_3 W0_3 3.055035 1_555
Mg0_3 Mg2_7 3.060745 1_455
Mg0_3 Mg2_3 3.060745 1_555
Mg0_3 Mg2_5 3.060745 1_455
Mg0_3 Mg2_1 3.060745 1_555
Mg0_4 Mg1_6 3.026505 1_545
Mg0_4 Mg1_4 3.026505 1_555
Mg0_4 W0_5 3.048122 1_555
Mg0_4 W0_1 3.048122 1_555
Mg0_4 W0_0 3.055035 1_555
Mg0_4 W0_4 3.055035 1_555
Mg0_4 Mg2_0 3.060745 1_555
Mg0_4 Mg2_6 3.060745 1_545
Mg0_4 Mg2_4 3.060745 1_555
Mg0_4 Mg2_2 3.060745 1_545
Mg0_5 Mg1_5 3.026505 1_555
Mg0_5 Mg1_7 3.026505 1_545
Mg0_5 W0_4 3.048122 1_556
Mg0_5 W0_0 3.048122 1_556
Mg0_5 W0_5 3.055035 1_555
Mg0_5 W0_1 3.055035 1_555
Mg0_5 Mg2_7 3.060745 1_545
Mg0_5 Mg2_5 3.060745 1_555
Mg0_5 Mg2_3 3.060745 1_545
Mg0_5 Mg2_1 3.060745 1_555
Mg0_6 Mg1_6 3.026505 1_555
Mg0_6 Mg1_4 3.026505 1_555
Mg0_6 W0_7 3.048122 1_555
Mg0_6 W0_3 3.048122 1_555
Mg0_6 W0_6 3.055035 1_555
Mg0_6 W0_2 3.055035 1_555
Mg0_6 Mg2_6 3.060745 1_555
Mg0_6 Mg2_0 3.060745 1_555
Mg0_6 Mg2_4 3.060745 1_555
Mg0_6 Mg2_2 3.060745 1_555
Mg0_7 Mg1_5 3.026505 1_555
Mg0_7 Mg1_7 3.026505 1_555
Mg0_7 W0_2 3.048122 1_556
Mg0_7 W0_6 3.048122 1_556
Mg0_7 W0_3 3.055035 1_555
Mg0_7 W0_7 3.055035 1_555
Mg0_7 Mg2_7 3.060745 1_555
Mg0_7 Mg2_3 3.060745 1_555
Mg0_7 Mg2_5 3.060745 1_555
Mg0_7 Mg2_1 3.060745 1_555
Mg1_0 Mg1_4 2.854951 1_555
Mg1_0 Mg1_4 2.854951 1_455
Mg1_0 Mg2_5 2.870941 1_454
Mg1_0 Mg2_1 2.870941 1_554
Mg1_0 W0_4 2.991521 1_455
Mg1_0 W0_0 2.991521 1_555
Mg1_0 W0_6 2.991521 1_455
Mg1_0 W0_2 2.991521 1_555
Mg1_0 Mg2_0 3.235274 1_555
Mg1_0 Mg2_4 3.235274 1_455
Mg1_1 Mg1_5 2.854951 1_455
Mg1_1 Mg1_5 2.854951 1_555
Mg1_1 Mg2_0 2.870941 1_555
Mg1_1 Mg2_4 2.870941 1_455
Mg1_1 W0_7 2.991521 1_455
Mg1_1 W0_3 2.991521 1_555
Mg1_1 W0_5 2.991521 1_455
Mg1_1 W0_1 2.991521 1_555
Mg1_1 Mg2_1 3.235274 1_555
Mg1_1 Mg2_5 3.235274 1_455
Mg1_2 Mg1_6 2.854951 1_455
Mg1_2 Mg1_6 2.854951 1_555
Mg1_2 Mg2_3 2.870941 1_554
Mg1_2 Mg2_7 2.870941 1_454
Mg1_2 W0_6 2.991521 1_455
Mg1_2 W0_0 2.991521 1_565
Mg1_2 W0_4 2.991521 1_465
Mg1_2 W0_2 2.991521 1_555
Mg1_2 Mg2_2 3.235274 1_555
Mg1_2 Mg2_6 3.235274 1_455
Mg1_3 Mg1_7 2.854951 1_455
Mg1_3 Mg1_7 2.854951 1_555
Mg1_3 Mg2_2 2.870941 1_555
Mg1_3 Mg2_6 2.870941 1_455
Mg1_3 W0_5 2.991521 1_465
Mg1_3 W0_7 2.991521 1_455
Mg1_3 W0_1 2.991521 1_565
Mg1_3 W0_3 2.991521 1_555
Mg1_3 Mg2_3 3.235274 1_555
Mg1_3 Mg2_7 3.235274 1_455
Mg1_4 Mg2_1 2.870941 1_554
Mg1_4 Mg2_5 2.870941 1_554
Mg1_4 W0_6 2.991521 1_555
Mg1_4 W0_0 2.991521 1_555
Mg1_4 W0_4 2.991521 1_555
Mg1_4 W0_2 2.991521 1_555
Mg1_4 Mg2_0 3.235274 1_555
Mg1_4 Mg2_4 3.235274 1_555
Mg1_5 Mg2_0 2.870941 1_555
Mg1_5 Mg2_4 2.870941 1_555
Mg1_5 W0_5 2.991521 1_555
Mg1_5 W0_3 2.991521 1_555
Mg1_5 W0_7 2.991521 1_555
Mg1_5 W0_1 2.991521 1_555
Mg1_5 Mg2_1 3.235274 1_555
Mg1_5 Mg2_5 3.235274 1_555
Mg1_6 Mg2_7 2.870941 1_554
Mg1_6 Mg2_3 2.870941 1_554
Mg1_6 W0_6 2.991521 1_555
Mg1_6 W0_0 2.991521 1_565
Mg1_6 W0_4 2.991521 1_565
Mg1_6 W0_2 2.991521 1_555
Mg1_6 Mg2_2 3.235274 1_555
Mg1_6 Mg2_6 3.235274 1_555
Mg1_7 Mg2_6 2.870941 1_555
Mg1_7 Mg2_2 2.870941 1_555
Mg1_7 W0_1 2.991521 1_565
Mg1_7 W0_3 2.991521 1_555
Mg1_7 W0_5 2.991521 1_565
Mg1_7 W0_7 2.991521 1_555
Mg1_7 Mg2_7 3.235274 1_555
Mg1_7 Mg2_3 3.235274 1_555
Mg2_0 Mg2_4 2.854951 1_555
Mg2_0 Mg2_4 2.854951 1_455
Mg2_0 W0_1 2.908856 1_555
Mg2_0 W0_3 2.908856 1_555
Mg2_1 Mg2_5 2.854951 1_555
Mg2_1 Mg2_5 2.854951 1_455
Mg2_1 W0_2 2.908856 1_556
Mg2_1 W0_0 2.908856 1_556
Mg2_2 Mg2_6 2.854951 1_455
Mg2_2 Mg2_6 2.854951 1_555
Mg2_2 W0_1 2.908856 1_565
Mg2_2 W0_3 2.908856 1_555
Mg2_3 Mg2_7 2.854951 1_555
Mg2_3 Mg2_7 2.854951 1_455
Mg2_3 W0_2 2.908856 1_556
Mg2_3 W0_0 2.908856 1_566
Mg2_4 W0_7 2.908856 1_555
Mg2_4 W0_5 2.908856 1_555
Mg2_5 W0_6 2.908856 1_556
Mg2_5 W0_4 2.908856 1_556
Mg2_6 W0_7 2.908856 1_555
Mg2_6 W0_5 2.908856 1_565
Mg2_7 W0_4 2.908856 1_566
Mg2_7 W0_6 2.908856 1_556
W0_0 W0_4 2.854951 1_555
W0_0 W0_4 2.854951 1_455
W0_1 W0_5 2.854951 1_455
W0_1 W0_5 2.854951 1_555
W0_2 W0_6 2.854951 1_455
W0_2 W0_6 2.854951 1_555
W0_3 W0_7 2.854951 1_555
W0_3 W0_7 2.854951 1_455
