# generated using pymatgen
data_Li2SiF6
_symmetry_space_group_name_H-M   'P 1'
_cell_length_a   8.12899075
_cell_length_b   8.12896872
_cell_length_c   4.47298446
_cell_angle_alpha   90.00289193
_cell_angle_beta   89.99712156
_cell_angle_gamma   120.00280901
_symmetry_Int_Tables_number   1
_chemical_formula_structural   Li2SiF6
_chemical_formula_sum   'Li6 Si3 F18'
_cell_volume   255.96925743
_cell_formula_units_Z   3
loop_
 _symmetry_equiv_pos_site_id
 _symmetry_equiv_pos_as_xyz
  1  'x, y, z'
loop_
 _atom_site_type_symbol
 _atom_site_label
 _atom_site_symmetry_multiplicity
 _atom_site_fract_x
 _atom_site_fract_y
 _atom_site_fract_z
 _atom_site_occupancy
  Li  Li0  1  0.29733726  -0.00005008  0.50003561  1
  Li  Li1  1  0.70265707  0.70265527  0.50000139  1
  Li  Li2  1  -0.00005180  0.29733628  0.49996704  1
  Li  Li3  1  0.63245142  0.00006260  -0.00000658  1
  Li  Li4  1  0.36759032  0.36759122  0.00000078  1
  Li  Li5  1  0.00006167  0.63245157  0.00000854  1
  Si  Si0  1  0.00000478  0.00000327  0.00000079  1
  Si  Si1  1  0.66665992  0.33332961  0.51185853  1
  Si  Si2  1  0.33333087  0.66666166  0.48814140  1
  F  F0  1  0.90526785  0.80187325  0.78502004  1
  F  F1  1  0.89660597  0.09473434  0.78505103  1
  F  F2  1  0.19813577  0.10340427  0.78502792  1
  F  F3  1  0.09473703  0.89660538  0.21494747  1
  F  F4  1  0.80187402  0.90526446  0.21497775  1
  F  F5  1  0.10340298  0.19813549  0.21497431  1
  F  F6  1  0.58210067  0.44624674  0.72820620  1
  F  F7  1  0.86413187  0.41789696  0.72820376  1
  F  F8  1  0.55374353  0.13585938  0.72821369  1
  F  F9  1  0.41789705  0.86413239  0.27179288  1
  F  F10  1  0.44624648  0.58210168  0.27178801  1
  F  F11  1  0.13586030  0.55374604  0.27178610  1
  F  F12  1  0.22492528  0.75649231  0.70409677  1
  F  F13  1  0.53157047  0.77507367  0.70408706  1
  F  F14  1  0.24348202  0.46841746  0.70407236  1
  F  F15  1  0.77507128  0.53156977  0.29591313  1
  F  F16  1  0.75649075  0.22492385  0.29590490  1
  F  F17  1  0.46841618  0.24348217  0.29592813  1
loop_
_geom_bond_atom_site_label_1
_geom_bond_atom_site_label_2
_geom_bond_distance
_geom_bond_site_symmetry_2
F0 Si0 1.694474 1_666
F0 Li1 1.913144 1_555
F0 Li5 2.115855 1_656
F1 Si0 1.694515 1_656
F1 Li2 1.913284 1_655
F1 Li3 2.115360 1_556
F2 Si0 1.694464 1_556
F2 Li0 1.913265 1_555
F2 Li4 2.115553 1_556
F3 Si0 1.694508 1_565
F3 Li0 1.913290 1_565
F3 Li5 2.115338 1_555
F4 Si0 1.694472 1_665
F4 Li1 1.913148 1_555
F4 Li3 2.115879 1_565
F5 Si0 1.694468 1_555
F5 Li2 1.913265 1_555
F5 Li4 2.115562 1_555
F6 Si1 1.697751 1_555
F6 Li4 1.952520 1_556
F6 Li1 2.074631 1_555
F7 Si1 1.697745 1_555
F7 Li5 1.952834 1_656
F7 Li2 2.074491 1_655
F8 Si1 1.697748 1_555
F8 Li3 1.952520 1_556
F8 Li0 2.074568 1_555
F9 Si2 1.697743 1_555
F9 Li3 1.952821 1_565
F9 Li0 2.074506 1_565
F10 Si2 1.697761 1_555
F10 Li4 1.952495 1_555
F10 Li1 2.074668 1_555
F11 Si2 1.697753 1_555
F11 Li5 1.952515 1_555
F11 Li2 2.074593 1_555
F12 Si2 1.698907 1_555
F12 Li0 1.982773 1_565
F12 Li5 2.065559 1_556
F13 Si2 1.698920 1_555
F13 Li1 1.983108 1_555
F13 Li3 2.066218 1_566
F14 Si2 1.698910 1_555
F14 Li2 1.983274 1_555
F14 Li4 2.066140 1_556
F15 Si1 1.698920 1_555
F15 Li1 1.983081 1_555
F15 Li5 2.066225 1_655
F16 Si1 1.698904 1_555
F16 Li2 1.982777 1_655
F16 Li3 2.065542 1_555
F17 Si1 1.698909 1_555
F17 Li0 1.983264 1_555
F17 Li4 2.066139 1_555
