# generated using pymatgen
data_CsY(SeO3)2
_symmetry_space_group_name_H-M   'P 1'
_cell_length_a   8.97462800
_cell_length_b   8.97462800
_cell_length_c   8.97462800
_cell_angle_alpha   90.00000000
_cell_angle_beta   90.00000000
_cell_angle_gamma   90.00000000
_symmetry_Int_Tables_number   1
_chemical_formula_structural   CsY(SeO3)2
_chemical_formula_sum   'Cs4 Y4 Se8 O24'
_cell_volume   722.85196860
_cell_formula_units_Z   4
loop_
 _symmetry_equiv_pos_site_id
 _symmetry_equiv_pos_as_xyz
  1  'x, y, z'
loop_
 _atom_site_type_symbol
 _atom_site_label
 _atom_site_symmetry_multiplicity
 _atom_site_fract_x
 _atom_site_fract_y
 _atom_site_fract_z
 _atom_site_occupancy
  Cs  Cs0  1  0.50000000  0.50000000  0.00000000  1
  Cs  Cs1  1  0.50000000  0.00000000  0.50000000  1
  Cs  Cs2  1  0.00000000  0.50000000  0.50000000  1
  Cs  Cs3  1  0.00000000  0.00000000  0.00000000  1
  Y  Y0  1  0.50000000  0.00000000  0.00000000  1
  Y  Y1  1  0.50000000  0.50000000  0.50000000  1
  Y  Y2  1  0.00000000  0.00000000  0.50000000  1
  Y  Y3  1  0.00000000  0.50000000  0.00000000  1
  Se  Se0  1  0.26267700  0.73732300  0.23732300  1
  Se  Se1  1  0.73732300  0.23732300  0.26267700  1
  Se  Se2  1  0.23732300  0.26267700  0.73732300  1
  Se  Se3  1  0.76267700  0.76267700  0.76267700  1
  Se  Se4  1  0.73732300  0.26267700  0.76267700  1
  Se  Se5  1  0.26267700  0.76267700  0.73732300  1
  Se  Se6  1  0.76267700  0.73732300  0.26267700  1
  Se  Se7  1  0.23732300  0.23732300  0.23732300  1
  O  O0  1  0.17941900  0.66104500  0.08127700  1
  O  O1  1  0.82058100  0.16104500  0.41872300  1
  O  O2  1  0.32058100  0.33895500  0.58127700  1
  O  O3  1  0.67941900  0.83895500  0.91872300  1
  O  O4  1  0.08127700  0.17941900  0.66104500  1
  O  O5  1  0.41872300  0.82058100  0.16104500  1
  O  O6  1  0.58127700  0.32058100  0.33895500  1
  O  O7  1  0.91872300  0.67941900  0.83895500  1
  O  O8  1  0.66104500  0.08127700  0.17941900  1
  O  O9  1  0.16104500  0.41872300  0.82058100  1
  O  O10  1  0.33895500  0.58127700  0.32058100  1
  O  O11  1  0.83895500  0.91872300  0.67941900  1
  O  O12  1  0.82058100  0.33895500  0.91872300  1
  O  O13  1  0.17941900  0.83895500  0.58127700  1
  O  O14  1  0.67941900  0.66104500  0.41872300  1
  O  O15  1  0.32058100  0.16104500  0.08127700  1
  O  O16  1  0.91872300  0.82058100  0.33895500  1
  O  O17  1  0.58127700  0.17941900  0.83895500  1
  O  O18  1  0.41872300  0.67941900  0.66104500  1
  O  O19  1  0.08127700  0.32058100  0.16104500  1
  O  O20  1  0.33895500  0.91872300  0.82058100  1
  O  O21  1  0.83895500  0.58127700  0.17941900  1
  O  O22  1  0.66104500  0.41872300  0.67941900  1
  O  O23  1  0.16104500  0.08127700  0.32058100  1
loop_
_geom_bond_atom_site_label_1
_geom_bond_atom_site_label_2
_geom_bond_distance
_geom_bond_site_symmetry_2
Cs0 O0 3.301317 1_555
Cs0 O17 3.301317 1_554
Cs0 O5 3.301317 1_555
Cs0 O12 3.301317 1_554
Cs0 O10 3.301317 1_555
Cs0 O22 3.301317 1_554
Cs0 O18 3.518325 1_554
Cs0 O21 3.518325 1_555
Cs0 O15 3.518325 1_555
Cs0 O9 3.518325 1_554
Cs0 O6 3.518325 1_555
Cs0 O3 3.518325 1_554
Cs1 O1 3.301317 1_555
Cs1 O18 3.301317 1_545
Cs1 O8 3.301317 1_555
Cs1 O20 3.301317 1_545
Cs1 O13 3.301317 1_545
Cs1 O6 3.301317 1_555
Cs1 O5 3.518325 1_545
Cs1 O2 3.518325 1_555
Cs1 O11 3.518325 1_545
Cs1 O17 3.518325 1_555
Cs1 O23 3.518325 1_555
Cs1 O14 3.518325 1_545
Cs2 O14 3.301317 1_455
Cs2 O2 3.301317 1_555
Cs2 O4 3.301317 1_555
Cs2 O21 3.301317 1_455
Cs2 O16 3.301317 1_455
Cs2 O9 3.301317 1_555
Cs2 O10 3.518325 1_555
Cs2 O22 3.518325 1_455
Cs2 O19 3.518325 1_555
Cs2 O7 3.518325 1_455
Cs2 O13 3.518325 1_555
Cs2 O1 3.518325 1_455
Cs3 O15 3.301317 1_555
Cs3 O23 3.301317 1_555
Cs3 O7 3.301317 1_444
Cs3 O11 3.301317 1_444
Cs3 O19 3.301317 1_555
Cs3 O3 3.301317 1_444
Cs3 O8 3.518325 1_455
Cs3 O4 3.518325 1_554
Cs3 O0 3.518325 1_545
Cs3 O12 3.518325 1_454
Cs3 O16 3.518325 1_445
Cs3 O20 3.518325 1_544
O0 Se0 1.728649 1_555
O0 Y3 2.283379 1_555
O1 Se1 1.728649 1_555
O1 Y2 2.283379 1_655
O2 Se2 1.728649 1_555
O2 Y1 2.283379 1_555
O3 Se3 1.728649 1_555
O3 Y0 2.283379 1_566
O4 Se2 1.728649 1_555
O4 Y2 2.283379 1_555
O5 Se0 1.728649 1_555
O5 Y0 2.283379 1_565
O6 Se1 1.728649 1_555
O6 Y1 2.283379 1_555
O7 Se3 1.728649 1_555
O7 Y3 2.283379 1_656
O8 Se1 1.728649 1_555
O8 Y0 2.283379 1_555
O9 Se2 1.728649 1_555
O9 Y3 2.283379 1_556
O10 Se0 1.728649 1_555
O10 Y1 2.283379 1_555
O11 Se3 1.728649 1_555
O11 Y2 2.283379 1_665
O12 Se4 1.728649 1_555
O12 Y3 2.283379 1_656
O13 Se5 1.728649 1_555
O13 Y2 2.283379 1_565
O14 Se6 1.728649 1_555
O14 Y1 2.283379 1_555
O15 Se7 1.728649 1_555
O15 Y0 2.283379 1_555
O16 Se6 1.728649 1_555
O16 Y2 2.283379 1_665
O17 Se4 1.728649 1_555
O17 Y0 2.283379 1_556
O18 Se5 1.728649 1_555
O18 Y1 2.283379 1_555
O19 Se7 1.728649 1_555
O19 Y3 2.283379 1_555
O20 Se5 1.728649 1_555
O20 Y0 2.283379 1_566
O21 Se6 1.728649 1_555
O21 Y3 2.283379 1_655
O22 Se4 1.728649 1_555
O22 Y1 2.283379 1_555
O23 Se7 1.728649 1_555
O23 Y2 2.283379 1_555
