# generated using pymatgen
data_ZnNi3Sb2
_symmetry_space_group_name_H-M   'P 1'
_cell_length_a   4.14885850
_cell_length_b   4.14885850
_cell_length_c   6.35544000
_cell_angle_alpha   90.00000000
_cell_angle_beta   90.00000000
_cell_angle_gamma   120.00000794
_symmetry_Int_Tables_number   1
_chemical_formula_structural   ZnNi3Sb2
_chemical_formula_sum   'Zn1 Ni3 Sb2'
_cell_volume   94.74001864
_cell_formula_units_Z   1
loop_
 _symmetry_equiv_pos_site_id
 _symmetry_equiv_pos_as_xyz
  1  'x, y, z'
loop_
 _atom_site_type_symbol
 _atom_site_label
 _atom_site_symmetry_multiplicity
 _atom_site_fract_x
 _atom_site_fract_y
 _atom_site_fract_z
 _atom_site_occupancy
  Zn  Zn0  1  0.00000000  0.00000000  0.00000000  1
  Ni  Ni0  1  0.00000000  0.00000000  0.50000000  1
  Ni  Ni1  1  0.33333300  0.66666700  0.89169600  1
  Ni  Ni2  1  0.66666700  0.33333300  0.10830400  1
  Sb  Sb0  1  0.33333300  0.66666700  0.30209700  1
  Sb  Sb1  1  0.66666700  0.33333300  0.69790300  1
loop_
_geom_bond_atom_site_label_1
_geom_bond_atom_site_label_2
_geom_bond_distance
_geom_bond_site_symmetry_2
Ni0 Sb1 2.705481 1_455
Ni0 Sb0 2.705481 1_545
Ni0 Sb1 2.705484 1_555
Ni0 Sb1 2.705484 1_445
Ni0 Sb0 2.705484 1_445
Ni0 Sb0 2.705484 1_555
Ni1 Zn0 2.492278 1_566
Ni1 Zn0 2.492281 1_666
Ni1 Zn0 2.492281 1_556
Ni1 Sb0 2.608279 1_556
Ni1 Sb1 2.693436 1_455
Ni1 Sb1 2.693436 1_565
Ni1 Sb1 2.693443 1_555
Ni2 Zn0 2.492278 1_655
Ni2 Zn0 2.492281 1_555
Ni2 Zn0 2.492281 1_665
Ni2 Sb1 2.608279 1_554
Ni2 Sb0 2.693436 1_545
Ni2 Sb0 2.693436 1_655
Ni2 Sb0 2.693443 1_555
