# generated using pymatgen
data_Li5Co3O8
_symmetry_space_group_name_H-M   'P 1'
_cell_length_a   2.97635800
_cell_length_b   6.31304089
_cell_length_c   7.77942950
_cell_angle_alpha   88.22191137
_cell_angle_beta   99.16425290
_cell_angle_gamma   103.14098547
_symmetry_Int_Tables_number   1
_chemical_formula_structural   Li5Co3O8
_chemical_formula_sum   'Li5 Co3 O8'
_cell_volume   140.52770409
_cell_formula_units_Z   1
loop_
 _symmetry_equiv_pos_site_id
 _symmetry_equiv_pos_as_xyz
  1  'x, y, z'
loop_
 _atom_site_type_symbol
 _atom_site_label
 _atom_site_symmetry_multiplicity
 _atom_site_fract_x
 _atom_site_fract_y
 _atom_site_fract_z
 _atom_site_occupancy
  Li  Li0  1  0.24000900  0.36960200  0.62085800  1
  Li  Li1  1  0.25655300  0.88063900  0.12426200  1
  Li  Li2  1  0.74344700  0.11936100  0.87573800  1
  Li  Li3  1  0.75999100  0.63039800  0.37914200  1
  Li  Li4  1  0.50000000  0.00000000  0.50000000  1
  Co  Co0  1  0.00301000  0.24323900  0.26080200  1
  Co  Co1  1  0.99699000  0.75676100  0.73919800  1
  Co  Co2  1  0.50000000  0.50000000  0.00000000  1
  O  O0  1  0.64222000  0.30703700  0.42147700  1
  O  O1  1  0.64263600  0.79550800  0.92999600  1
  O  O2  1  0.11735900  0.03476300  0.69819500  1
  O  O3  1  0.10369700  0.53929400  0.18602900  1
  O  O4  1  0.89630300  0.46070600  0.81397100  1
  O  O5  1  0.88264100  0.96523700  0.30180500  1
  O  O6  1  0.35736400  0.20449200  0.07000400  1
  O  O7  1  0.35778000  0.69296300  0.57852300  1
loop_
_geom_bond_atom_site_label_1
_geom_bond_atom_site_label_2
_geom_bond_distance
_geom_bond_site_symmetry_2
Li0 O7 2.017003 1_555
Li0 O4 2.108297 1_455
Li0 O0 2.137036 1_455
Li0 O2 2.145639 1_555
Li0 O0 2.199864 1_555
Li0 O4 2.238615 1_555
Li1 O6 2.038632 1_565
Li1 O5 2.058418 1_455
Li1 O5 2.106849 1_555
Li1 O1 2.153106 1_454
Li1 O3 2.154338 1_555
Li1 O1 2.185788 1_554
Li2 O1 2.038632 1_545
Li2 O2 2.058418 1_655
Li2 O2 2.106849 1_555
Li2 O6 2.153106 1_656
Li2 O4 2.154338 1_555
Li2 O6 2.185788 1_556
Li3 O0 2.017003 1_555
Li3 O3 2.108297 1_655
Li3 O7 2.137036 1_655
Li3 O5 2.145639 1_555
Li3 O7 2.199864 1_555
Li3 O3 2.238615 1_555
Li4 O7 1.986277 1_545
Li4 O0 1.986277 1_555
Li4 O5 2.101538 1_545
Li4 O2 2.101538 1_555
Li4 O2 2.176463 1_655
Li4 O5 2.176463 1_445
Co0 O5 1.739547 1_445
Co0 O0 1.879679 1_455
Co0 O3 1.911738 1_555
Co0 O6 2.003453 1_555
Co0 O0 2.066284 1_555
Co0 O6 2.203644 1_455
Co1 O2 1.739547 1_665
Co1 O7 1.879679 1_655
Co1 O4 1.911738 1_555
Co1 O1 2.003453 1_555
Co1 O7 2.066284 1_555
Co1 O1 2.203644 1_655
Co2 O1 1.899363 1_554
Co2 O6 1.899363 1_555
Co2 O3 2.060655 1_555
Co2 O4 2.060655 1_554
Co2 O3 2.091840 1_655
Co2 O4 2.091840 1_454
