# generated using pymatgen
data_KSmV4O12
_symmetry_space_group_name_H-M   'P 1'
_cell_length_a   6.08342674
_cell_length_b   6.08342674
_cell_length_c   7.22975552
_cell_angle_alpha   90.00000000
_cell_angle_beta   90.00000000
_cell_angle_gamma   107.35195116
_symmetry_Int_Tables_number   1
_chemical_formula_structural   KSmV4O12
_chemical_formula_sum   'K1 Sm1 V4 O12'
_cell_volume   255.38295670
_cell_formula_units_Z   1
loop_
 _symmetry_equiv_pos_site_id
 _symmetry_equiv_pos_as_xyz
  1  'x, y, z'
loop_
 _atom_site_type_symbol
 _atom_site_label
 _atom_site_symmetry_multiplicity
 _atom_site_fract_x
 _atom_site_fract_y
 _atom_site_fract_z
 _atom_site_occupancy
  K  K0  1  0.97568384  0.02431616  0.00000000  1
  Sm  Sm0  1  0.43174981  0.56825019  0.50000000  1
  V  V0  1  0.46731315  0.04486541  0.25265467  1
  V  V1  1  0.46731315  0.04486541  0.74734533  1
  V  V2  1  0.95513459  0.53268685  0.74734533  1
  V  V3  1  0.95513459  0.53268685  0.25265467  1
  O  O0  1  0.31057986  0.22686941  0.28411666  1
  O  O1  1  0.77313059  0.68942014  0.28411666  1
  O  O2  1  0.77313059  0.68942014  0.71588334  1
  O  O3  1  0.31057986  0.22686941  0.71588334  1
  O  O4  1  0.26535484  0.73464516  0.26678660  1
  O  O5  1  0.76275332  0.23724668  0.23610281  1
  O  O6  1  0.76275332  0.23724668  0.76389719  1
  O  O7  1  0.26535484  0.73464516  0.73321340  1
  O  O8  1  0.46401488  0.00176136  0.00000000  1
  O  O9  1  0.53820388  0.97942376  0.50000000  1
  O  O10  1  -0.00176136  0.53598512  0.00000000  1
  O  O11  1  0.02057624  0.46179612  0.50000000  1
loop_
_geom_bond_atom_site_label_1
_geom_bond_atom_site_label_2
_geom_bond_distance
_geom_bond_site_symmetry_2
K0 O5 2.696374 1_555
K0 O6 2.696374 1_554
K0 O3 2.896705 1_654
K0 O1 2.896705 1_545
K0 O0 2.896705 1_655
K0 O2 2.896705 1_544
K0 O10 3.014494 1_645
K0 O8 3.014494 1_655
K0 O8 3.074570 1_555
K0 O10 3.074570 1_655
O0 V0 1.678233 1_555
O0 Sm0 2.525715 1_555
O1 V3 1.678233 1_555
O1 Sm0 2.525715 1_555
O2 V2 1.678233 1_555
O2 Sm0 2.525715 1_555
O3 V1 1.678233 1_555
O3 Sm0 2.525715 1_555
O4 V3 1.923127 1_455
O4 V0 1.923127 1_565
O4 Sm0 2.345921 1_555
O5 V0 1.832921 1_555
O5 V3 1.832921 1_555
O6 V1 1.832921 1_555
O6 V2 1.832921 1_555
O7 V2 1.923127 1_455
O7 V1 1.923127 1_565
O7 Sm0 2.345921 1_555
O8 V1 1.844616 1_554
O8 V0 1.844616 1_555
O9 V0 1.909112 1_565
O9 V1 1.909112 1_565
O9 Sm0 2.389537 1_555
O10 V2 1.844616 1_454
O10 V3 1.844616 1_455
O11 V3 1.909112 1_455
O11 V2 1.909112 1_455
O11 Sm0 2.389537 1_555
