# generated using pymatgen
data_BaUPO6F
_symmetry_space_group_name_H-M   'P 1'
_cell_length_a   6.72567400
_cell_length_b   8.37860500
_cell_length_c   11.17272276
_cell_angle_alpha   90.00000000
_cell_angle_beta   92.33373825
_cell_angle_gamma   90.00000000
_symmetry_Int_Tables_number   1
_chemical_formula_structural   BaUPO6F
_chemical_formula_sum   'Ba4 U4 P4 O24 F4'
_cell_volume   629.08045808
_cell_formula_units_Z   4
loop_
 _symmetry_equiv_pos_site_id
 _symmetry_equiv_pos_as_xyz
  1  'x, y, z'
loop_
 _atom_site_type_symbol
 _atom_site_label
 _atom_site_symmetry_multiplicity
 _atom_site_fract_x
 _atom_site_fract_y
 _atom_site_fract_z
 _atom_site_occupancy
  Ba  Ba0  1  0.83854300  0.26829600  0.50771400  1
  Ba  Ba1  1  0.16145700  0.76829600  0.99228600  1
  Ba  Ba2  1  0.16145700  0.73170400  0.49228600  1
  Ba  Ba3  1  0.83854300  0.23170400  0.00771400  1
  U  U0  1  0.39285000  0.38139500  0.76276600  1
  U  U1  1  0.60715000  0.88139500  0.73723400  1
  U  U2  1  0.60715000  0.61860500  0.23723400  1
  U  U3  1  0.39285000  0.11860500  0.26276600  1
  P  P0  1  0.90711500  0.53417100  0.76546300  1
  P  P1  1  0.09288500  0.03417100  0.73453700  1
  P  P2  1  0.09288500  0.46582900  0.23453700  1
  P  P3  1  0.90711500  0.96582900  0.26546300  1
  O  O0  1  0.84826000  0.70354300  0.81026100  1
  O  O1  1  0.15174000  0.20354300  0.68973900  1
  O  O2  1  0.15174000  0.29645700  0.18973900  1
  O  O3  1  0.84826000  0.79645700  0.31026100  1
  O  O4  1  0.09118900  0.48155100  0.84658800  1
  O  O5  1  0.90881100  0.98155100  0.65341200  1
  O  O6  1  0.90881100  0.51844900  0.15341200  1
  O  O7  1  0.09118900  0.01844900  0.34658800  1
  O  O8  1  0.73650700  0.41362200  0.79074200  1
  O  O9  1  0.26349300  0.91362200  0.70925800  1
  O  O10  1  0.26349300  0.58637800  0.20925800  1
  O  O11  1  0.73650700  0.08637800  0.29074200  1
  O  O12  1  0.95274300  0.53451200  0.63278400  1
  O  O13  1  0.04725700  0.03451200  0.86721600  1
  O  O14  1  0.04725700  0.46548800  0.36721600  1
  O  O15  1  0.95274300  0.96548800  0.13278400  1
  O  O16  1  0.38549000  0.47178600  0.61461800  1
  O  O17  1  0.61451000  0.97178600  0.88538200  1
  O  O18  1  0.61451000  0.52821400  0.38538200  1
  O  O19  1  0.38549000  0.02821400  0.11461800  1
  O  O20  1  0.42156200  0.29078300  0.90998800  1
  O  O21  1  0.57843800  0.79078300  0.59001200  1
  O  O22  1  0.57843800  0.70921700  0.09001200  1
  O  O23  1  0.42156200  0.20921700  0.40998800  1
  F  F0  1  0.44046500  0.65435600  0.82282800  1
  F  F1  1  0.55953500  0.15435600  0.67717200  1
  F  F2  1  0.55953500  0.34564400  0.17717200  1
  F  F3  1  0.44046500  0.84564400  0.32282800  1
loop_
_geom_bond_atom_site_label_1
_geom_bond_atom_site_label_2
_geom_bond_distance
_geom_bond_site_symmetry_2
Ba0 O14 2.709943 1_655
Ba0 O12 2.725874 1_555
Ba0 F1 2.882125 1_555
Ba0 O1 2.918671 1_655
Ba0 O11 2.921524 1_555
Ba0 O5 2.929623 1_545
Ba0 O18 2.951835 1_555
Ba0 O23 3.008806 1_555
Ba0 O7 3.280156 1_655
Ba1 O15 2.709943 1_456
Ba1 O13 2.725874 1_565
Ba1 F0 2.882125 1_555
Ba1 O0 2.918671 1_455
Ba1 O10 2.921524 1_556
Ba1 O4 2.929623 1_555
Ba1 O19 2.951835 1_566
Ba1 O22 3.008806 1_556
Ba1 O6 3.280156 1_456
Ba2 O12 2.709943 1_455
Ba2 O14 2.725874 1_555
Ba2 F3 2.882125 1_555
Ba2 O3 2.918671 1_455
Ba2 O9 2.921524 1_555
Ba2 O7 2.929623 1_565
Ba2 O16 2.951835 1_555
Ba2 O21 3.008806 1_555
Ba2 O5 3.280156 1_455
Ba3 O13 2.709943 1_654
Ba3 O15 2.725874 1_545
Ba3 F2 2.882125 1_555
Ba3 O2 2.918671 1_655
Ba3 O8 2.921524 1_554
Ba3 O6 2.929623 1_555
Ba3 O17 2.951835 1_544
Ba3 O20 3.008806 1_554
Ba3 O4 3.280156 1_654
O0 P0 1.561150 1_555
O0 U1 2.325550 1_555
O1 P1 1.561150 1_555
O1 U0 2.325550 1_555
O2 P2 1.561150 1_555
O2 U3 2.325550 1_555
O3 P3 1.561150 1_555
O3 U2 2.325550 1_555
O4 P0 1.567554 1_455
O4 U0 2.419162 1_555
O5 P1 1.567554 1_665
O5 U1 2.419162 1_555
O6 P2 1.567554 1_655
O6 U2 2.419162 1_555
O7 P3 1.567554 1_445
O7 U3 2.419162 1_555
O8 P0 1.563003 1_555
O8 U0 2.335379 1_555
O9 P1 1.563003 1_565
O9 U1 2.335379 1_555
O10 P2 1.563003 1_555
O10 U2 2.335379 1_555
O11 P3 1.563003 1_545
O11 U3 2.335379 1_555
O12 P0 1.526007 1_555
O13 P1 1.526007 1_555
O14 P2 1.526007 1_555
O15 P3 1.526007 1_555
O16 U0 1.819093 1_555
O17 U1 1.819093 1_555
O18 U2 1.819093 1_555
O19 U3 1.819093 1_555
O20 U0 1.814775 1_555
O21 U1 1.814775 1_555
O22 U2 1.814775 1_555
O23 U3 1.814775 1_555
F0 U0 2.401226 1_555
F0 U1 2.424311 1_555
F1 U1 2.401226 1_545
F1 U0 2.424311 1_555
F2 U2 2.401226 1_555
F2 U3 2.424311 1_555
F3 U3 2.401226 1_565
F3 U2 2.424311 1_555
