# generated using pymatgen
data_RbGd(MoO4)2
_symmetry_space_group_name_H-M   'P 1'
_cell_length_a   7.59452343
_cell_length_b   7.59452343
_cell_length_c   7.81054980
_cell_angle_alpha   61.93790013
_cell_angle_beta   61.93790013
_cell_angle_gamma   88.55743662
_symmetry_Int_Tables_number   1
_chemical_formula_structural   RbGd(MoO4)2
_chemical_formula_sum   'Rb2 Gd2 Mo4 O16'
_cell_volume   339.48440520
_cell_formula_units_Z   2
loop_
 _symmetry_equiv_pos_site_id
 _symmetry_equiv_pos_as_xyz
  1  'x, y, z'
loop_
 _atom_site_type_symbol
 _atom_site_label
 _atom_site_symmetry_multiplicity
 _atom_site_fract_x
 _atom_site_fract_y
 _atom_site_fract_z
 _atom_site_occupancy
  Rb  Rb0  1  0.19910200  0.80089800  0.75000000  1
  Rb  Rb1  1  0.80089800  0.19910200  0.25000000  1
  Gd  Gd0  1  0.77053800  0.22946200  0.75000000  1
  Gd  Gd1  1  0.22946200  0.77053800  0.25000000  1
  Mo  Mo0  1  0.69447500  0.69607000  0.76263900  1
  Mo  Mo1  1  0.30552500  0.30393000  0.23736100  1
  Mo  Mo2  1  0.30393000  0.30552500  0.73736100  1
  Mo  Mo3  1  0.69607000  0.69447500  0.26263900  1
  O  O0  1  0.61569800  0.76450100  0.56237400  1
  O  O1  1  0.38430200  0.23549900  0.43762600  1
  O  O2  1  0.23549900  0.38430200  0.93762600  1
  O  O3  1  0.76450100  0.61569800  0.06237400  1
  O  O4  1  0.38330100  0.07031500  0.87269300  1
  O  O5  1  0.61669900  0.92968500  0.12730700  1
  O  O6  1  0.92968500  0.61669900  0.62730700  1
  O  O7  1  0.07031500  0.38330100  0.37269300  1
  O  O8  1  0.58354400  0.36831500  0.97146600  1
  O  O9  1  0.41645600  0.63168500  0.02853400  1
  O  O10  1  0.63168500  0.41645600  0.52853400  1
  O  O11  1  0.36831500  0.58354400  0.47146600  1
  O  O12  1  0.79258300  0.94973300  0.69214800  1
  O  O13  1  0.20741700  0.05026700  0.30785200  1
  O  O14  1  0.05026700  0.20741700  0.80785200  1
  O  O15  1  0.94973300  0.79258300  0.19214800  1
loop_
_geom_bond_atom_site_label_1
_geom_bond_atom_site_label_2
_geom_bond_distance
_geom_bond_site_symmetry_2
Gd0 O10 2.334626 1_555
Gd0 O8 2.334626 1_555
Gd0 O12 2.357835 1_545
Gd0 O14 2.357835 1_655
Gd0 O7 2.411412 1_655
Gd0 O5 2.411412 1_546
Gd0 O4 2.732325 1_555
Gd0 O6 2.732325 1_555
Gd1 O9 2.334626 1_555
Gd1 O11 2.334626 1_555
Gd1 O15 2.357835 1_455
Gd1 O13 2.357835 1_565
Gd1 O6 2.411412 1_455
Gd1 O4 2.411412 1_564
Gd1 O5 2.732325 1_555
Gd1 O7 2.732325 1_555
Mo0 O0 1.781757 1_555
Mo0 O12 1.804959 1_555
Mo0 O6 1.854805 1_555
Mo0 O9 1.995284 1_556
Mo0 O8 2.135148 1_555
Mo0 O3 2.438588 1_556
Mo1 O1 1.781757 1_555
Mo1 O13 1.804959 1_555
Mo1 O7 1.854805 1_555
Mo1 O8 1.995284 1_554
Mo1 O9 2.135148 1_555
Mo1 O2 2.438588 1_554
Mo2 O2 1.781757 1_555
Mo2 O14 1.804959 1_555
Mo2 O4 1.854805 1_555
Mo2 O11 1.995284 1_555
Mo2 O10 2.135148 1_555
Mo2 O1 2.438588 1_555
Mo3 O3 1.781757 1_555
Mo3 O15 1.804959 1_555
Mo3 O5 1.854805 1_555
Mo3 O10 1.995284 1_555
Mo3 O11 2.135148 1_555
Mo3 O0 2.438588 1_555
O0 Rb0 2.865088 1_555
O0 Rb1 2.872867 1_565
O1 Rb1 2.865088 1_555
O1 Rb0 2.872867 1_545
O2 Rb0 2.865088 1_555
O2 Rb1 2.872867 1_456
O3 Rb1 2.865088 1_555
O3 Rb0 2.872867 1_654
O4 Rb0 3.211226 1_545
O5 Rb1 3.211226 1_565
O6 Rb0 3.211226 1_655
O7 Rb1 3.211226 1_455
O8 Rb1 3.122599 1_556
O9 Rb0 3.122599 1_554
O10 Rb1 3.122599 1_555
O11 Rb0 3.122599 1_555
O12 Rb1 3.027235 1_565
O12 Rb0 3.416084 1_655
O13 Rb0 3.027235 1_545
O13 Rb1 3.416084 1_455
O14 Rb1 3.027235 1_456
O14 Rb0 3.416084 1_545
O15 Rb0 3.027235 1_654
O15 Rb1 3.416084 1_565
