# generated using pymatgen
data_YScS2
_symmetry_space_group_name_H-M   'P 1'
_cell_length_a   6.58535598
_cell_length_b   6.58535598
_cell_length_c   6.58535500
_cell_angle_alpha   33.54563373
_cell_angle_beta   33.54563373
_cell_angle_gamma   33.54564260
_symmetry_Int_Tables_number   1
_chemical_formula_structural   YScS2
_chemical_formula_sum   'Y1 Sc1 S2'
_cell_volume   77.67757287
_cell_formula_units_Z   1
loop_
 _symmetry_equiv_pos_site_id
 _symmetry_equiv_pos_as_xyz
  1  'x, y, z'
loop_
 _atom_site_type_symbol
 _atom_site_label
 _atom_site_symmetry_multiplicity
 _atom_site_fract_x
 _atom_site_fract_y
 _atom_site_fract_z
 _atom_site_occupancy
  Y  Y0  1  0.50000000  0.50000000  0.50000000  1
  Sc  Sc0  1  -0.00000000  -0.00000000  -0.00000000  1
  S  S0  1  0.25509809  0.25509809  0.25509809  1
  S  S1  1  0.74490191  0.74490191  0.74490191  1
loop_
_geom_bond_atom_site_label_1
_geom_bond_atom_site_label_2
_geom_bond_distance
_geom_bond_site_symmetry_2
S0 Sc0 2.634193 1_556
S0 Sc0 2.634194 1_565
S0 Sc0 2.634194 1_655
S0 Y0 2.743828 1_554
S0 Y0 2.743829 1_545
S0 Y0 2.743829 1_455
S1 Sc0 2.634193 1_665
S1 Sc0 2.634194 1_656
S1 Sc0 2.634194 1_566
S1 Y0 2.743828 1_556
S1 Y0 2.743829 1_655
S1 Y0 2.743829 1_565
