# generated using pymatgen
data_CsLiMg14
_symmetry_space_group_name_H-M   'P 1'
_cell_length_a   6.58268687
_cell_length_b   6.58268631
_cell_length_c   10.81068237
_cell_angle_alpha   90.00000000
_cell_angle_beta   90.00000000
_cell_angle_gamma   120.00000289
_symmetry_Int_Tables_number   1
_chemical_formula_structural   CsLiMg14
_chemical_formula_sum   'Cs1 Li1 Mg14'
_cell_volume   405.68605801
_cell_formula_units_Z   1
loop_
 _symmetry_equiv_pos_site_id
 _symmetry_equiv_pos_as_xyz
  1  'x, y, z'
loop_
 _atom_site_type_symbol
 _atom_site_label
 _atom_site_symmetry_multiplicity
 _atom_site_fract_x
 _atom_site_fract_y
 _atom_site_fract_z
 _atom_site_occupancy
  Cs  Cs0  1  0.16666700  0.33333300  0.62500000  1
  Li  Li0  1  0.16666700  0.33333300  0.12500000  1
  Mg  Mg0  1  0.16530739  0.83265320  0.12500000  1
  Mg  Mg1  1  0.17105605  0.83552752  0.62500000  1
  Mg  Mg2  1  0.66734680  0.33469261  0.12500000  1
  Mg  Mg3  1  0.66447248  0.32894395  0.62500000  1
  Mg  Mg4  1  0.66734680  0.83265320  0.12500000  1
  Mg  Mg5  1  0.66447248  0.83552752  0.62500000  1
  Mg  Mg6  1  0.33857652  0.16142348  0.35514522  1
  Mg  Mg7  1  0.33857652  0.16142348  0.89485478  1
  Mg  Mg8  1  0.33857652  0.67715403  0.35514522  1
  Mg  Mg9  1  0.33857652  0.67715403  0.89485478  1
  Mg  Mg10  1  0.82284597  0.16142348  0.35514522  1
  Mg  Mg11  1  0.82284597  0.16142348  0.89485478  1
  Mg  Mg12  1  0.83333300  0.66666700  0.38005908  1
  Mg  Mg13  1  0.83333300  0.66666700  0.86994092  1
loop_
_geom_bond_atom_site_label_1
_geom_bond_atom_site_label_2
_geom_bond_distance
_geom_bond_site_symmetry_2
Cs0 Mg1 3.291438 1_555
Cs0 Mg5 3.291438 1_555
Cs0 Mg5 3.291438 1_445
Cs0 Mg1 3.291438 1_545
Cs0 Mg3 3.291439 1_455
Cs0 Mg3 3.291439 1_555
Cs0 Mg6 3.514606 1_555
Cs0 Mg7 3.514606 1_555
Cs0 Mg8 3.514613 1_555
Cs0 Mg9 3.514613 1_555
Cs0 Mg10 3.514613 1_455
Cs0 Mg11 3.514613 1_455
Li0 Mg7 3.167335 1_554
Li0 Mg6 3.167335 1_555
Li0 Mg9 3.167342 1_554
Li0 Mg8 3.167342 1_555
Li0 Mg11 3.167342 1_454
Li0 Mg10 3.167342 1_455
Li0 Mg0 3.291352 1_545
Li0 Mg4 3.291352 1_445
Li0 Mg4 3.291352 1_555
Li0 Mg0 3.291352 1_555
Li0 Mg2 3.291353 1_555
Li0 Mg2 3.291353 1_455
Mg0 Mg9 3.115518 1_554
Mg0 Mg8 3.115518 1_555
Mg0 Mg7 3.115524 1_564
Mg0 Mg6 3.115524 1_565
Mg0 Mg2 3.277918 1_455
Mg0 Mg4 3.277919 1_455
Mg0 Mg2 3.304768 1_565
Mg0 Mg4 3.304768 1_555
Mg0 Mg12 3.344345 1_455
Mg0 Mg13 3.344345 1_454
Mg1 Mg12 3.273913 1_455
Mg1 Mg13 3.273913 1_455
Mg1 Mg8 3.458790 1_555
Mg1 Mg9 3.458790 1_555
Mg1 Mg6 3.458796 1_565
Mg1 Mg7 3.458796 1_565
Mg2 Mg7 3.115524 1_554
Mg2 Mg6 3.115524 1_555
Mg2 Mg4 3.277918 1_555
Mg2 Mg4 3.304768 1_545
Mg3 Mg6 3.458796 1_555
Mg3 Mg7 3.458796 1_555
Mg4 Mg9 3.115525 1_554
Mg4 Mg8 3.115525 1_555
Mg5 Mg8 3.458796 1_555
Mg5 Mg9 3.458796 1_555
Mg6 Mg8 3.187794 1_545
Mg6 Mg8 3.394892 1_555
Mg7 Mg9 3.187794 1_545
Mg7 Mg9 3.394892 1_555
Mg10 Mg2 3.115518 1_555
Mg10 Mg4 3.115525 1_545
Mg10 Mg8 3.187794 1_545
Mg10 Mg6 3.187794 1_555
Mg10 Mg12 3.302886 1_545
Mg10 Mg12 3.302886 1_555
Mg10 Mg8 3.394892 1_655
Mg10 Mg6 3.394893 1_655
Mg10 Mg3 3.458790 1_555
Mg10 Mg5 3.458796 1_545
Mg11 Mg2 3.115518 1_556
Mg11 Mg4 3.115525 1_546
Mg11 Mg9 3.187794 1_545
Mg11 Mg7 3.187794 1_555
Mg11 Mg13 3.302886 1_545
Mg11 Mg13 3.302886 1_555
Mg11 Mg9 3.394892 1_655
Mg11 Mg7 3.394893 1_655
Mg11 Mg3 3.458790 1_555
Mg11 Mg5 3.458796 1_545
Mg12 Mg5 3.273906 1_555
Mg12 Mg3 3.273913 1_555
Mg12 Mg6 3.302886 1_555
Mg12 Mg6 3.302886 1_665
Mg12 Mg8 3.302886 1_555
Mg12 Mg8 3.302886 1_655
Mg12 Mg4 3.344339 1_555
Mg12 Mg2 3.344345 1_555
Mg13 Mg5 3.273906 1_555
Mg13 Mg3 3.273913 1_555
Mg13 Mg7 3.302886 1_555
Mg13 Mg7 3.302886 1_665
Mg13 Mg9 3.302886 1_555
Mg13 Mg9 3.302886 1_655
Mg13 Mg4 3.344339 1_556
Mg13 Mg2 3.344345 1_556
