# generated using pymatgen
data_NaMg6Cr
_symmetry_space_group_name_H-M   'P 1'
_cell_length_a   5.19222900
_cell_length_b   6.36303100
_cell_length_c   11.07134100
_cell_angle_alpha   90.00000000
_cell_angle_beta   90.00000000
_cell_angle_gamma   90.00000000
_symmetry_Int_Tables_number   1
_chemical_formula_structural   NaMg6Cr
_chemical_formula_sum   'Na2 Mg12 Cr2'
_cell_volume   365.77844131
_cell_formula_units_Z   2
loop_
 _symmetry_equiv_pos_site_id
 _symmetry_equiv_pos_as_xyz
  1  'x, y, z'
loop_
 _atom_site_type_symbol
 _atom_site_label
 _atom_site_symmetry_multiplicity
 _atom_site_fract_x
 _atom_site_fract_y
 _atom_site_fract_z
 _atom_site_occupancy
  Na  Na0  1  0.00000000  0.50000000  0.33176400  1
  Na  Na1  1  0.00000000  0.00000000  0.83176400  1
  Mg  Mg0  1  0.00000000  0.74179300  0.08674000  1
  Mg  Mg1  1  0.00000000  0.25820700  0.08674000  1
  Mg  Mg2  1  0.00000000  0.00000000  0.33312100  1
  Mg  Mg3  1  0.50000000  0.24744000  0.41775600  1
  Mg  Mg4  1  0.50000000  0.75256000  0.41775600  1
  Mg  Mg5  1  0.50000000  0.00000000  0.16611000  1
  Mg  Mg6  1  0.00000000  0.24179300  0.58674000  1
  Mg  Mg7  1  0.00000000  0.75820700  0.58674000  1
  Mg  Mg8  1  0.00000000  0.50000000  0.83312100  1
  Mg  Mg9  1  0.50000000  0.74744000  0.91775600  1
  Mg  Mg10  1  0.50000000  0.25256000  0.91775600  1
  Mg  Mg11  1  0.50000000  0.50000000  0.66611000  1
  Cr  Cr0  1  0.50000000  0.50000000  0.16001300  1
  Cr  Cr1  1  0.50000000  0.00000000  0.66001300  1
loop_
_geom_bond_atom_site_label_1
_geom_bond_atom_site_label_2
_geom_bond_distance
_geom_bond_site_symmetry_2
Mg0 Mg1 3.077073 1_555
Mg0 Na0 3.118666 1_555
Mg0 Mg2 3.184352 1_565
Mg0 Mg5 3.195522 1_565
Mg0 Mg5 3.195522 1_465
Mg0 Mg9 3.200202 1_554
Mg0 Mg9 3.200202 1_454
Mg0 Mg8 3.201782 1_554
Mg0 Na1 3.266235 1_564
Mg0 Mg1 3.285958 1_565
Mg1 Na0 3.118666 1_555
Mg1 Mg2 3.184352 1_555
Mg1 Mg5 3.195522 1_455
Mg1 Mg5 3.195522 1_555
Mg1 Mg10 3.200202 1_554
Mg1 Mg10 3.200202 1_454
Mg1 Mg8 3.201782 1_554
Mg1 Na1 3.266235 1_554
Mg2 Mg4 3.177542 1_545
Mg2 Mg3 3.177542 1_455
Mg2 Mg4 3.177542 1_445
Mg2 Mg3 3.177542 1_555
Mg2 Na0 3.181551 1_555
Mg2 Na0 3.181551 1_545
Mg2 Mg5 3.187278 1_555
Mg2 Mg5 3.187278 1_455
Mg2 Mg6 3.201782 1_555
Mg2 Mg7 3.201782 1_545
Mg3 Mg4 3.148937 1_545
Mg3 Na0 3.198250 1_555
Mg3 Na0 3.198250 1_655
Mg3 Mg5 3.200168 1_555
Mg3 Mg6 3.200202 1_555
Mg3 Mg6 3.200202 1_655
Mg3 Mg4 3.214094 1_555
Mg4 Na0 3.198250 1_555
Mg4 Na0 3.198250 1_655
Mg4 Mg5 3.200168 1_565
Mg4 Mg7 3.200202 1_655
Mg4 Mg7 3.200202 1_555
Mg5 Mg9 3.184802 1_544
Mg6 Mg7 3.077073 1_545
Mg6 Na1 3.118666 1_555
Mg6 Mg8 3.184352 1_555
Mg6 Na0 3.266235 1_555
Mg6 Mg7 3.285958 1_555
Mg7 Na1 3.118666 1_565
Mg7 Mg8 3.184352 1_555
Mg7 Na0 3.266235 1_555
Mg8 Mg9 3.177542 1_455
Mg8 Mg9 3.177542 1_555
Mg8 Na1 3.181551 1_555
Mg8 Na1 3.181551 1_565
Mg9 Na1 3.198250 1_665
Mg9 Na1 3.198250 1_565
Mg10 Mg9 3.148937 1_555
Mg10 Mg8 3.177542 1_555
Mg10 Mg8 3.177542 1_655
Mg10 Mg5 3.184802 1_556
Mg10 Na1 3.198250 1_555
Mg10 Na1 3.198250 1_655
Mg10 Mg11 3.200168 1_555
Mg10 Mg9 3.214094 1_545
Mg11 Mg3 3.184802 1_555
Mg11 Mg4 3.184802 1_555
Mg11 Mg8 3.187278 1_555
Mg11 Mg8 3.187278 1_655
Mg11 Mg7 3.195522 1_655
Mg11 Mg6 3.195522 1_555
Mg11 Mg6 3.195522 1_655
Mg11 Mg7 3.195522 1_555
Mg11 Mg9 3.200168 1_555
Cr0 Mg9 3.110091 1_554
Cr0 Mg10 3.110091 1_554
Cr0 Mg0 3.124900 1_655
Cr0 Mg1 3.124900 1_555
Cr0 Mg1 3.124900 1_655
Cr0 Mg0 3.124900 1_555
Cr0 Mg5 3.182232 1_565
Cr0 Mg5 3.182232 1_555
Cr0 Na0 3.218006 1_655
Cr0 Na0 3.218006 1_555
Cr0 Mg3 3.274967 1_555
Cr0 Mg4 3.274967 1_555
Cr1 Mg3 3.110091 1_555
Cr1 Mg4 3.110091 1_545
Cr1 Mg6 3.124900 1_655
Cr1 Mg7 3.124900 1_545
Cr1 Mg6 3.124900 1_555
Cr1 Mg7 3.124900 1_645
Cr1 Mg11 3.182232 1_555
Cr1 Mg11 3.182232 1_545
Cr1 Na1 3.218006 1_655
Cr1 Na1 3.218006 1_555
Cr1 Mg9 3.274967 1_545
Cr1 Mg10 3.274967 1_555
