# generated using pymatgen
data_Li9Mn2Co5O16
_symmetry_space_group_name_H-M   'P 1'
_cell_length_a   5.93785377
_cell_length_b   5.93785377
_cell_length_c   9.70814901
_cell_angle_alpha   81.74965266
_cell_angle_beta   81.74965266
_cell_angle_gamma   58.46597358
_symmetry_Int_Tables_number   1
_chemical_formula_structural   Li9Mn2Co5O16
_chemical_formula_sum   'Li9 Mn2 Co5 O16'
_cell_volume   287.77317670
_cell_formula_units_Z   1
loop_
 _symmetry_equiv_pos_site_id
 _symmetry_equiv_pos_as_xyz
  1  'x, y, z'
loop_
 _atom_site_type_symbol
 _atom_site_label
 _atom_site_symmetry_multiplicity
 _atom_site_fract_x
 _atom_site_fract_y
 _atom_site_fract_z
 _atom_site_occupancy
  Li  Li0  1  0.50327800  0.50327800  0.00634000  1
  Li  Li1  1  0.00225400  0.00225400  0.00292000  1
  Li  Li2  1  0.12096000  0.61820900  0.26393300  1
  Li  Li3  1  0.61820900  0.12096000  0.26393300  1
  Li  Li4  1  0.74949600  0.74949600  0.49438200  1
  Li  Li5  1  0.25106300  0.25106300  0.49821200  1
  Li  Li6  1  0.37500400  0.87673100  0.73793600  1
  Li  Li7  1  0.87673100  0.37500400  0.73793600  1
  Li  Li8  1  0.62117400  0.62117400  0.25282900  1
  Mn  Mn0  1  0.00063100  0.50122300  0.00398000  1
  Mn  Mn1  1  0.50122300  0.00063100  0.00398000  1
  Co  Co0  1  0.12294400  0.12294400  0.25235200  1
  Co  Co1  1  0.25550300  0.75168000  0.48945600  1
  Co  Co2  1  0.75168000  0.25550300  0.48945600  1
  Co  Co3  1  0.88002400  0.88002400  0.74351700  1
  Co  Co4  1  0.37809500  0.37809500  0.74441200  1
  O  O0  1  0.69357900  0.69357900  0.89251900  1
  O  O1  1  0.19938400  0.19938400  0.88607900  1
  O  O2  1  0.32073400  0.85003900  0.12214700  1
  O  O3  1  0.85003900  0.32073400  0.12214700  1
  O  O4  1  0.93361500  0.93361500  0.37663100  1
  O  O5  1  0.43532800  0.43532800  0.38356100  1
  O  O6  1  0.57155400  0.06774500  0.63050800  1
  O  O7  1  0.06774500  0.57155400  0.63050800  1
  O  O8  1  0.31430400  0.31430400  0.10999700  1
  O  O9  1  0.80936500  0.80936500  0.11041400  1
  O  O10  1  0.93946800  0.40496700  0.37507000  1
  O  O11  1  0.40496700  0.93946800  0.37507000  1
  O  O12  1  0.55440200  0.55440200  0.62278200  1
  O  O13  1  0.05374600  0.05374600  0.62514300  1
  O  O14  1  0.17003500  0.67346900  0.87592700  1
  O  O15  1  0.67346900  0.17003500  0.87592700  1
loop_
_geom_bond_atom_site_label_1
_geom_bond_atom_site_label_2
_geom_bond_distance
_geom_bond_site_symmetry_2
Li0 O8 2.049337 1_555
Li0 O0 2.096095 1_554
Li0 O3 2.158368 1_555
Li0 O2 2.158368 1_555
Li0 O14 2.190834 1_554
Li0 O15 2.190834 1_554
Li1 O2 2.067114 1_545
Li1 O3 2.067114 1_455
Li1 O9 2.097327 1_445
Li1 O15 2.151206 1_454
Li1 O14 2.151206 1_544
Li1 O1 2.167486 1_554
Li2 O4 2.000389 1_455
Li2 O5 2.037736 1_555
Li2 O10 2.151811 1_455
Li2 O8 2.218619 1_555
Li2 O9 2.245450 1_455
Li2 O2 2.427432 1_555
Li3 O4 2.000389 1_545
Li3 O5 2.037736 1_555
Li3 O11 2.151811 1_545
Li3 O8 2.218619 1_555
Li3 O9 2.245450 1_545
Li3 O3 2.427432 1_555
Li4 O4 2.056731 1_555
Li4 O7 2.159009 1_655
Li4 O6 2.159009 1_565
Li4 O10 2.165751 1_555
Li4 O11 2.165751 1_555
Li4 O12 2.193777 1_555
Li5 O5 2.046057 1_555
Li5 O10 2.059178 1_455
Li5 O11 2.059178 1_545
Li5 O7 2.142285 1_555
Li5 O6 2.142285 1_555
Li5 O13 2.207065 1_555
Li6 O13 2.028444 1_565
Li6 O12 2.046307 1_555
Li6 O6 2.105240 1_565
Li6 O1 2.257644 1_565
Li6 O0 2.282032 1_555
Li6 O14 2.310230 1_555
Li7 O13 2.028444 1_655
Li7 O12 2.046307 1_555
Li7 O7 2.105240 1_655
Li7 O1 2.257644 1_655
Li7 O0 2.282032 1_555
Li7 O15 2.310230 1_555
Li8 O3 2.063428 1_555
Li8 O2 2.063428 1_555
Li8 O11 2.072916 1_555
Li8 O10 2.072916 1_555
Li8 O5 2.125138 1_555
Li8 O9 2.197334 1_555
Mn0 O3 1.902459 1_455
Mn0 O9 1.933259 1_455
Mn0 O8 1.954541 1_555
Mn0 O0 1.957772 1_454
Mn0 O1 1.975786 1_554
Mn0 O14 1.988887 1_554
Mn1 O2 1.902459 1_545
Mn1 O9 1.933259 1_545
Mn1 O8 1.954541 1_555
Mn1 O0 1.957772 1_544
Mn1 O1 1.975786 1_554
Mn1 O15 1.988887 1_554
Co0 O10 1.924138 1_455
Co0 O11 1.924138 1_545
Co0 O2 1.942719 1_545
Co0 O3 1.942719 1_455
Co0 O4 2.127631 1_445
Co0 O8 2.222902 1_555
Co1 O11 1.913394 1_555
Co1 O5 1.966403 1_555
Co1 O4 2.030115 1_455
Co1 O12 2.060819 1_555
Co1 O13 2.089268 1_565
Co1 O7 2.156585 1_555
Co2 O10 1.913394 1_555
Co2 O5 1.966403 1_555
Co2 O4 2.030115 1_545
Co2 O12 2.060819 1_555
Co2 O13 2.089268 1_655
Co2 O6 2.156585 1_555
Co3 O13 1.970119 1_665
Co3 O6 1.972614 1_565
Co3 O7 1.972614 1_655
Co3 O15 2.023780 1_565
Co3 O14 2.023780 1_655
Co3 O0 2.215070 1_555
Co4 O6 1.986029 1_555
Co4 O7 1.986029 1_555
Co4 O12 2.005760 1_555
Co4 O15 2.038632 1_555
Co4 O14 2.038632 1_555
Co4 O1 2.117498 1_555
