# generated using pymatgen
data_Ca(CuO2)2
_symmetry_space_group_name_H-M   'P 1'
_cell_length_a   5.16474546
_cell_length_b   5.16474546
_cell_length_c   9.51771800
_cell_angle_alpha   90.00000000
_cell_angle_beta   90.00000000
_cell_angle_gamma   144.65243010
_symmetry_Int_Tables_number   1
_chemical_formula_structural   Ca(CuO2)2
_chemical_formula_sum   'Ca2 Cu4 O8'
_cell_volume   146.87921233
_cell_formula_units_Z   2
loop_
 _symmetry_equiv_pos_site_id
 _symmetry_equiv_pos_as_xyz
  1  'x, y, z'
loop_
 _atom_site_type_symbol
 _atom_site_label
 _atom_site_symmetry_multiplicity
 _atom_site_fract_x
 _atom_site_fract_y
 _atom_site_fract_z
 _atom_site_occupancy
  Ca  Ca0  1  0.60551300  0.39448700  0.75000000  1
  Ca  Ca1  1  0.39448700  0.60551300  0.25000000  1
  Cu  Cu0  1  0.13682700  0.86317300  0.06927400  1
  Cu  Cu1  1  0.86317300  0.13682700  0.93072600  1
  Cu  Cu2  1  0.13682700  0.86317300  0.43072600  1
  Cu  Cu3  1  0.86317300  0.13682700  0.56927400  1
  O  O0  1  0.77258900  0.22741100  0.39441100  1
  O  O1  1  0.22741100  0.77258900  0.60558900  1
  O  O2  1  0.22741100  0.77258900  0.89441100  1
  O  O3  1  0.77258900  0.22741100  0.10558900  1
  O  O4  1  0.06130100  0.93869900  0.25000000  1
  O  O5  1  0.93869900  0.06130100  0.75000000  1
  O  O6  1  0.50000000  0.50000000  0.00000000  1
  O  O7  1  0.50000000  0.50000000  0.50000000  1
loop_
_geom_bond_atom_site_label_1
_geom_bond_atom_site_label_2
_geom_bond_distance
_geom_bond_site_symmetry_2
Ca0 O5 2.270254 1_565
Ca0 O5 2.270254 1_455
Ca0 O2 2.405637 1_655
Ca0 O2 2.405637 1_545
Ca0 O1 2.405637 1_655
Ca0 O1 2.405637 1_545
Ca0 O7 2.596164 1_555
Ca0 O6 2.596164 1_556
Ca1 O4 2.270254 1_655
Ca1 O4 2.270254 1_545
Ca1 O0 2.405637 1_455
Ca1 O0 2.405637 1_565
Ca1 O3 2.405637 1_455
Ca1 O3 2.405637 1_565
Ca1 O6 2.596164 1_555
Ca1 O7 2.596164 1_555
Cu0 O4 1.873838 1_555
Cu0 O2 1.888040 1_554
Cu0 O3 2.088881 1_455
Cu0 O3 2.088881 1_565
Cu0 O6 2.169515 1_455
Cu0 O6 2.169515 1_565
Cu1 O5 1.873838 1_555
Cu1 O3 1.888040 1_556
Cu1 O2 2.088881 1_655
Cu1 O2 2.088881 1_545
Cu1 O6 2.169515 1_656
Cu1 O6 2.169515 1_546
Cu2 O4 1.873838 1_555
Cu2 O1 1.888040 1_555
Cu2 O0 2.088881 1_455
Cu2 O0 2.088881 1_565
Cu2 O7 2.169515 1_565
Cu2 O7 2.169515 1_455
Cu3 O5 1.873838 1_555
Cu3 O0 1.888040 1_555
Cu3 O1 2.088881 1_655
Cu3 O1 2.088881 1_545
Cu3 O7 2.169515 1_545
Cu3 O7 2.169515 1_655
