# generated using pymatgen
data_Sr3GaAs3
_symmetry_space_group_name_H-M   'P 1'
_cell_length_a   6.52298524
_cell_length_b   12.80792584
_cell_length_c   19.34868481
_cell_angle_alpha   90.00000000
_cell_angle_beta   90.00000000
_cell_angle_gamma   90.00000000
_symmetry_Int_Tables_number   1
_chemical_formula_structural   Sr3GaAs3
_chemical_formula_sum   'Sr24 Ga8 As24'
_cell_volume   1616.50350315
_cell_formula_units_Z   8
loop_
 _symmetry_equiv_pos_site_id
 _symmetry_equiv_pos_as_xyz
  1  'x, y, z'
loop_
 _atom_site_type_symbol
 _atom_site_label
 _atom_site_symmetry_multiplicity
 _atom_site_fract_x
 _atom_site_fract_y
 _atom_site_fract_z
 _atom_site_occupancy
  Sr  Sr0  1  0.22311449  0.51238057  0.57421670  1
  Sr  Sr1  1  0.27688551  0.01238057  0.92578330  1
  Sr  Sr2  1  0.77688551  0.48761943  0.07421670  1
  Sr  Sr3  1  0.72311449  0.98761943  0.42578330  1
  Sr  Sr4  1  0.77688551  0.48761943  0.42578330  1
  Sr  Sr5  1  0.72311449  0.98761943  0.07421670  1
  Sr  Sr6  1  0.22311449  0.51238057  0.92578330  1
  Sr  Sr7  1  0.27688551  0.01238057  0.57421670  1
  Sr  Sr8  1  0.19204663  0.76439477  0.07339606  1
  Sr  Sr9  1  0.30795337  0.26439477  0.42660394  1
  Sr  Sr10  1  0.80795337  0.23560523  0.57339606  1
  Sr  Sr11  1  0.69204663  0.73560523  0.92660394  1
  Sr  Sr12  1  0.80795337  0.23560523  0.92660394  1
  Sr  Sr13  1  0.69204663  0.73560523  0.57339606  1
  Sr  Sr14  1  0.19204663  0.76439477  0.42660394  1
  Sr  Sr15  1  0.30795337  0.26439477  0.07339606  1
  Sr  Sr16  1  0.81204455  0.76773130  0.25000000  1
  Sr  Sr17  1  0.68795545  0.26773130  0.25000000  1
  Sr  Sr18  1  0.18795545  0.23226870  0.75000000  1
  Sr  Sr19  1  0.31204455  0.73226870  0.75000000  1
  Sr  Sr20  1  0.32969918  0.98085735  0.25000000  1
  Sr  Sr21  1  0.17030082  0.48085735  0.25000000  1
  Sr  Sr22  1  0.67030082  0.01914265  0.75000000  1
  Sr  Sr23  1  0.82969918  0.51914265  0.75000000  1
  Ga  Ga0  1  0.48639408  0.62648018  0.16323410  1
  Ga  Ga1  1  0.01360592  0.12648018  0.33676590  1
  Ga  Ga2  1  0.51360592  0.37351982  0.66323410  1
  Ga  Ga3  1  0.98639408  0.87351982  0.83676590  1
  Ga  Ga4  1  0.51360592  0.37351982  0.83676590  1
  Ga  Ga5  1  0.98639408  0.87351982  0.66323410  1
  Ga  Ga6  1  0.48639408  0.62648018  0.33676590  1
  Ga  Ga7  1  0.01360592  0.12648018  0.16323410  1
  As  As0  1  0.29084212  0.73425361  0.25000000  1
  As  As1  1  0.20915788  0.23425361  0.25000000  1
  As  As2  1  0.70915788  0.26574639  0.75000000  1
  As  As3  1  0.79084212  0.76574639  0.75000000  1
  As  As4  1  0.68599986  0.51740568  0.25000000  1
  As  As5  1  0.81400014  0.01740568  0.25000000  1
  As  As6  1  0.31400014  0.48259432  0.75000000  1
  As  As7  1  0.18599986  0.98259432  0.75000000  1
  As  As8  1  0.26718837  0.51147037  0.08989705  1
  As  As9  1  0.23281163  0.01147037  0.41010295  1
  As  As10  1  0.73281163  0.48852963  0.58989705  1
  As  As11  1  0.76718837  0.98852963  0.91010295  1
  As  As12  1  0.73281163  0.48852963  0.91010295  1
  As  As13  1  0.76718837  0.98852963  0.58989705  1
  As  As14  1  0.26718837  0.51147037  0.41010295  1
  As  As15  1  0.23281163  0.01147037  0.08989705  1
  As  As16  1  0.20565524  0.75897403  0.58995021  1
  As  As17  1  0.29434476  0.25897403  0.91004979  1
  As  As18  1  0.79434476  0.24102597  0.08995021  1
  As  As19  1  0.70565524  0.74102597  0.41004979  1
  As  As20  1  0.79434476  0.24102597  0.41004979  1
  As  As21  1  0.70565524  0.74102597  0.08995021  1
  As  As22  1  0.20565524  0.75897403  0.91004979  1
  As  As23  1  0.29434476  0.25897403  0.58995021  1
loop_
_geom_bond_atom_site_label_1
_geom_bond_atom_site_label_2
_geom_bond_distance
_geom_bond_site_symmetry_2
Ga0 Sr2 3.117727 1_555
Ga0 Sr8 3.134991 1_555
Ga0 Sr21 3.247830 1_555
Ga0 Sr16 3.256323 1_555
Ga1 Sr3 3.117727 1_445
Ga1 Sr9 3.134991 1_555
Ga1 Sr20 3.247830 1_545
Ga1 Sr17 3.256323 1_455
Ga2 Sr0 3.117727 1_555
Ga2 Sr10 3.134991 1_555
Ga2 Sr23 3.247830 1_555
Ga2 Sr18 3.256323 1_555
Ga3 Sr1 3.117727 1_665
Ga3 Sr11 3.134991 1_555
Ga3 Sr22 3.247830 1_565
Ga3 Sr19 3.256323 1_655
Ga4 Sr6 3.117727 1_555
Ga4 Sr12 3.134991 1_555
Ga4 Sr23 3.247830 1_555
Ga4 Sr18 3.256323 1_555
Ga5 Sr7 3.117727 1_665
Ga5 Sr13 3.134991 1_555
Ga5 Sr22 3.247830 1_565
Ga5 Sr19 3.256323 1_655
Ga6 Sr4 3.117727 1_555
Ga6 Sr14 3.134991 1_555
Ga6 Sr21 3.247830 1_555
Ga6 Sr16 3.256323 1_555
Ga7 Sr5 3.117727 1_445
Ga7 Sr15 3.134991 1_555
Ga7 Sr20 3.247830 1_545
Ga7 Sr17 3.256323 1_455
As0 Ga6 2.520095 1_555
As0 Ga0 2.520095 1_555
As0 Sr16 3.152485 1_455
As0 Sr20 3.168636 1_555
As0 Sr21 3.339370 1_555
As0 Sr16 3.426728 1_555
As0 Sr14 3.498656 1_555
As0 Sr8 3.498656 1_555
As1 Ga7 2.520095 1_555
As1 Ga1 2.520095 1_555
As1 Sr17 3.152485 1_555
As1 Sr21 3.168636 1_555
As1 Sr20 3.339370 1_545
As1 Sr17 3.426728 1_455
As1 Sr9 3.498656 1_555
As1 Sr15 3.498656 1_555
As2 Ga4 2.520095 1_555
As2 Ga2 2.520095 1_555
As2 Sr18 3.152485 1_655
As2 Sr22 3.168636 1_555
As2 Sr23 3.339370 1_555
As2 Sr18 3.426728 1_555
As2 Sr12 3.498656 1_555
As2 Sr10 3.498656 1_555
As3 Ga5 2.520095 1_555
As3 Ga3 2.520095 1_555
As3 Sr19 3.152485 1_555
As3 Sr23 3.168636 1_555
As3 Sr22 3.339370 1_565
As3 Sr19 3.426728 1_655
As3 Sr13 3.498656 1_555
As3 Sr11 3.498656 1_555
As4 Ga6 2.542699 1_555
As4 Ga0 2.542699 1_555
As4 Sr21 3.193581 1_655
As4 Sr17 3.197836 1_555
As4 Sr16 3.309895 1_555
As4 Sr21 3.396311 1_555
As4 Sr4 3.473472 1_555
As4 Sr2 3.473472 1_555
As5 Ga1 2.542699 1_655
As5 Ga7 2.542699 1_655
As5 Sr20 3.193581 1_545
As5 Sr16 3.197836 1_545
As5 Sr17 3.309895 1_555
As5 Sr20 3.396311 1_645
As5 Sr3 3.473472 1_545
As5 Sr5 3.473472 1_545
As6 Ga4 2.542699 1_555
As6 Ga2 2.542699 1_555
As6 Sr23 3.193581 1_455
As6 Sr19 3.197836 1_555
As6 Sr18 3.309895 1_555
As6 Sr23 3.396311 1_555
As6 Sr6 3.473472 1_555
As6 Sr0 3.473472 1_555
As7 Ga5 2.542699 1_455
As7 Ga3 2.542699 1_455
As7 Sr22 3.193581 1_565
As7 Sr18 3.197836 1_565
As7 Sr19 3.309895 1_555
As7 Sr22 3.396311 1_465
As7 Sr7 3.473472 1_565
As7 Sr1 3.473472 1_565
As8 Ga0 2.495571 1_555
As8 Sr21 3.185813 1_555
As8 Sr6 3.188395 1_554
As8 Sr15 3.191687 1_555
As8 Sr2 3.227088 1_455
As8 Sr8 3.291828 1_555
As8 Sr2 3.352508 1_555
As9 Ga1 2.495571 1_555
As9 Sr20 3.185813 1_545
As9 Sr7 3.188395 1_555
As9 Sr14 3.191687 1_545
As9 Sr3 3.227088 1_545
As9 Sr9 3.291828 1_555
As9 Sr3 3.352508 1_445
As10 Ga2 2.495571 1_555
As10 Sr23 3.185813 1_555
As10 Sr4 3.188395 1_555
As10 Sr13 3.191687 1_555
As10 Sr0 3.227088 1_655
As10 Sr10 3.291828 1_555
As10 Sr0 3.352508 1_555
As11 Ga3 2.495571 1_555
As11 Sr22 3.185813 1_565
As11 Sr5 3.188395 1_556
As11 Sr12 3.191687 1_565
As11 Sr1 3.227088 1_565
As11 Sr11 3.291828 1_555
As11 Sr1 3.352508 1_665
As12 Ga4 2.495571 1_555
As12 Sr23 3.185813 1_555
As12 Sr2 3.188395 1_556
As12 Sr11 3.191687 1_555
As12 Sr6 3.227088 1_655
As12 Sr12 3.291828 1_555
As12 Sr6 3.352508 1_555
As13 Ga5 2.495571 1_555
As13 Sr22 3.185813 1_565
As13 Sr3 3.188395 1_555
As13 Sr10 3.191687 1_565
As13 Sr7 3.227088 1_565
As13 Sr13 3.291828 1_555
As13 Sr7 3.352508 1_665
As14 Ga6 2.495571 1_555
As14 Sr21 3.185813 1_555
As14 Sr0 3.188395 1_555
As14 Sr9 3.191687 1_555
As14 Sr4 3.227088 1_455
As14 Sr14 3.291828 1_555
As14 Sr4 3.352508 1_555
As15 Ga7 2.495571 1_555
As15 Sr20 3.185813 1_545
As15 Sr1 3.188395 1_554
As15 Sr8 3.191687 1_545
As15 Sr5 3.227088 1_545
As15 Sr15 3.291828 1_555
As15 Sr5 3.352508 1_445
As16 Ga5 2.491690 1_455
As16 Sr14 3.162544 1_555
As16 Sr0 3.175031 1_555
As16 Sr19 3.191939 1_555
As16 Sr13 3.202866 1_555
As16 Sr7 3.292804 1_565
As16 Sr13 3.378821 1_455
As17 Ga4 2.491690 1_555
As17 Sr15 3.162544 1_556
As17 Sr1 3.175031 1_555
As17 Sr18 3.191939 1_555
As17 Sr12 3.202866 1_455
As17 Sr6 3.292804 1_555
As17 Sr12 3.378821 1_555
As18 Ga7 2.491690 1_655
As18 Sr12 3.162544 1_554
As18 Sr2 3.175031 1_555
As18 Sr17 3.191939 1_555
As18 Sr15 3.202866 1_555
As18 Sr5 3.292804 1_545
As18 Sr15 3.378821 1_655
As19 Ga6 2.491690 1_555
As19 Sr13 3.162544 1_555
As19 Sr3 3.175031 1_555
As19 Sr16 3.191939 1_555
As19 Sr14 3.202866 1_655
As19 Sr4 3.292804 1_555
As19 Sr14 3.378821 1_555
As20 Ga1 2.491690 1_655
As20 Sr10 3.162544 1_555
As20 Sr4 3.175031 1_555
As20 Sr17 3.191939 1_555
As20 Sr9 3.202866 1_555
As20 Sr3 3.292804 1_545
As20 Sr9 3.378821 1_655
As21 Ga0 2.491690 1_555
As21 Sr11 3.162544 1_554
As21 Sr5 3.175031 1_555
As21 Sr16 3.191939 1_555
As21 Sr8 3.202866 1_655
As21 Sr2 3.292804 1_555
As21 Sr8 3.378821 1_555
As22 Ga3 2.491690 1_455
As22 Sr8 3.162544 1_556
As22 Sr6 3.175031 1_555
As22 Sr19 3.191939 1_555
As22 Sr11 3.202866 1_555
As22 Sr1 3.292804 1_565
As22 Sr11 3.378821 1_455
As23 Ga2 2.491690 1_555
As23 Sr9 3.162544 1_555
As23 Sr7 3.175031 1_555
As23 Sr18 3.191939 1_555
As23 Sr10 3.202866 1_455
As23 Sr0 3.292804 1_555
As23 Sr10 3.378821 1_555
