# generated using pymatgen
data_Li(Mg2Si)4
_symmetry_space_group_name_H-M   'P 1'
_cell_length_a   6.41332300
_cell_length_b   6.41332300
_cell_length_c   6.41332300
_cell_angle_alpha   90.00000000
_cell_angle_beta   90.00000000
_cell_angle_gamma   90.00000000
_symmetry_Int_Tables_number   1
_chemical_formula_structural   Li(Mg2Si)4
_chemical_formula_sum   'Li1 Mg8 Si4'
_cell_volume   263.78454065
_cell_formula_units_Z   1
loop_
 _symmetry_equiv_pos_site_id
 _symmetry_equiv_pos_as_xyz
  1  'x, y, z'
loop_
 _atom_site_type_symbol
 _atom_site_label
 _atom_site_symmetry_multiplicity
 _atom_site_fract_x
 _atom_site_fract_y
 _atom_site_fract_z
 _atom_site_occupancy
  Li  Li0  1  0.50000000  0.50000000  0.50000000  1
  Mg  Mg0  1  0.24473200  0.75526800  0.75526800  1
  Mg  Mg1  1  0.75526800  0.24473200  0.75526800  1
  Mg  Mg2  1  0.75526800  0.75526800  0.24473200  1
  Mg  Mg3  1  0.24473200  0.24473200  0.24473200  1
  Mg  Mg4  1  0.24473200  0.75526800  0.24473200  1
  Mg  Mg5  1  0.75526800  0.24473200  0.24473200  1
  Mg  Mg6  1  0.75526800  0.75526800  0.75526800  1
  Mg  Mg7  1  0.24473200  0.24473200  0.75526800  1
  Si  Si0  1  0.00000000  0.50000000  0.50000000  1
  Si  Si1  1  0.00000000  0.00000000  0.00000000  1
  Si  Si2  1  0.50000000  0.50000000  0.00000000  1
  Si  Si3  1  0.50000000  0.00000000  0.50000000  1
loop_
_geom_bond_atom_site_label_1
_geom_bond_atom_site_label_2
_geom_bond_distance
_geom_bond_site_symmetry_2
Li0 Mg6 2.835568 1_555
Li0 Mg2 2.835568 1_555
Li0 Mg1 2.835568 1_555
Li0 Mg0 2.835568 1_555
Li0 Mg4 2.835568 1_555
Li0 Mg5 2.835568 1_555
Li0 Mg7 2.835568 1_555
Li0 Mg3 2.835568 1_555
Mg0 Si1 2.718532 1_566
Mg0 Si0 2.797100 1_555
Mg0 Si3 2.797100 1_565
Mg0 Si2 2.797100 1_556
Mg1 Si1 2.718532 1_656
Mg1 Si3 2.797100 1_555
Mg1 Si0 2.797100 1_655
Mg1 Si2 2.797100 1_556
Mg2 Si1 2.718532 1_665
Mg2 Si2 2.797100 1_555
Mg2 Si0 2.797100 1_655
Mg2 Si3 2.797100 1_565
Mg3 Si1 2.718532 1_555
Mg3 Si0 2.797100 1_555
Mg3 Si3 2.797100 1_555
Mg3 Si2 2.797100 1_555
Mg4 Si1 2.718532 1_565
Mg4 Si2 2.797100 1_555
Mg4 Si0 2.797100 1_555
Mg4 Si3 2.797100 1_565
Mg5 Si1 2.718532 1_655
Mg5 Si3 2.797100 1_555
Mg5 Si2 2.797100 1_555
Mg5 Si0 2.797100 1_655
Mg6 Si1 2.718532 1_666
Mg6 Si0 2.797100 1_655
Mg6 Si3 2.797100 1_565
Mg6 Si2 2.797100 1_556
Mg7 Si1 2.718532 1_556
Mg7 Si3 2.797100 1_555
Mg7 Si0 2.797100 1_555
Mg7 Si2 2.797100 1_556
