# generated using pymatgen
data_Ho
_symmetry_space_group_name_H-M   'P 1'
_cell_length_a   7.23015864
_cell_length_b   7.23016098
_cell_length_c   11.08495692
_cell_angle_alpha   90.00000000
_cell_angle_beta   90.00000000
_cell_angle_gamma   120.00000863
_symmetry_Int_Tables_number   1
_chemical_formula_structural   Ho
_chemical_formula_sum   Ho16
_cell_volume   501.83436409
_cell_formula_units_Z   16
loop_
 _symmetry_equiv_pos_site_id
 _symmetry_equiv_pos_as_xyz
  1  'x, y, z'
loop_
 _atom_site_type_symbol
 _atom_site_label
 _atom_site_symmetry_multiplicity
 _atom_site_fract_x
 _atom_site_fract_y
 _atom_site_fract_z
 _atom_site_occupancy
  Ho  Ho0_0  1  0.16666650  0.33333350  0.12500000  1
  Ho  Ho0_1  1  0.16666650  0.33333350  0.62500000  1
  Ho  Ho0_2  1  0.16666650  0.83333350  0.12500000  1
  Ho  Ho0_3  1  0.16666650  0.83333350  0.62500000  1
  Ho  Ho0_4  1  0.66666650  0.33333350  0.12500000  1
  Ho  Ho0_5  1  0.66666650  0.33333350  0.62500000  1
  Ho  Ho0_6  1  0.66666650  0.83333350  0.12500000  1
  Ho  Ho0_7  1  0.66666650  0.83333350  0.62500000  1
  Ho  Ho1_0  1  0.33333350  0.16666650  0.37500000  1
  Ho  Ho1_1  1  0.33333350  0.16666650  0.87500000  1
  Ho  Ho1_2  1  0.33333350  0.66666650  0.37500000  1
  Ho  Ho1_3  1  0.33333350  0.66666650  0.87500000  1
  Ho  Ho1_4  1  0.83333350  0.16666650  0.37500000  1
  Ho  Ho1_5  1  0.83333350  0.16666650  0.87500000  1
  Ho  Ho1_6  1  0.83333350  0.66666650  0.37500000  1
  Ho  Ho1_7  1  0.83333350  0.66666650  0.87500000  1
loop_
_geom_bond_atom_site_label_1
_geom_bond_atom_site_label_2
_geom_bond_distance
_geom_bond_site_symmetry_2
Ho0_0 Ho1_5 3.469297 1_454
Ho0_0 Ho1_4 3.469297 1_455
Ho0_0 Ho1_3 3.469298 1_554
Ho0_0 Ho1_2 3.469298 1_555
Ho0_0 Ho1_0 3.469301 1_555
Ho0_0 Ho1_1 3.469301 1_554
Ho0_0 Ho0_4 3.615079 1_455
Ho0_0 Ho0_4 3.615079 1_555
Ho0_0 Ho0_6 3.615079 1_555
Ho0_0 Ho0_6 3.615079 1_445
Ho0_0 Ho0_2 3.615080 1_555
Ho0_0 Ho0_2 3.615080 1_545
Ho0_1 Ho1_4 3.469297 1_455
Ho0_1 Ho1_5 3.469297 1_455
Ho0_1 Ho1_2 3.469298 1_555
Ho0_1 Ho1_3 3.469298 1_555
Ho0_1 Ho1_0 3.469301 1_555
Ho0_1 Ho1_1 3.469301 1_555
Ho0_1 Ho0_5 3.615079 1_455
Ho0_1 Ho0_5 3.615079 1_555
Ho0_1 Ho0_7 3.615079 1_555
Ho0_1 Ho0_7 3.615079 1_445
Ho0_1 Ho0_3 3.615080 1_545
Ho0_1 Ho0_3 3.615080 1_555
Ho0_2 Ho1_6 3.469297 1_455
Ho0_2 Ho1_7 3.469297 1_454
Ho0_2 Ho1_1 3.469298 1_564
Ho0_2 Ho1_0 3.469298 1_565
Ho0_2 Ho1_3 3.469301 1_554
Ho0_2 Ho1_2 3.469301 1_555
Ho0_2 Ho0_6 3.615079 1_455
Ho0_2 Ho0_6 3.615079 1_555
Ho0_2 Ho0_4 3.615079 1_455
Ho0_2 Ho0_4 3.615079 1_565
Ho0_3 Ho1_6 3.469297 1_455
Ho0_3 Ho1_7 3.469297 1_455
Ho0_3 Ho1_0 3.469298 1_565
Ho0_3 Ho1_1 3.469298 1_565
Ho0_3 Ho1_2 3.469301 1_555
Ho0_3 Ho1_3 3.469301 1_555
Ho0_3 Ho0_7 3.615079 1_455
Ho0_3 Ho0_7 3.615079 1_555
Ho0_3 Ho0_5 3.615079 1_455
Ho0_3 Ho0_5 3.615079 1_565
Ho0_4 Ho1_1 3.469297 1_554
Ho0_4 Ho1_0 3.469297 1_555
Ho0_4 Ho1_6 3.469298 1_555
Ho0_4 Ho1_7 3.469298 1_554
Ho0_4 Ho1_5 3.469301 1_554
Ho0_4 Ho1_4 3.469301 1_555
Ho0_4 Ho0_6 3.615080 1_545
Ho0_4 Ho0_6 3.615080 1_555
Ho0_5 Ho1_0 3.469297 1_555
Ho0_5 Ho1_1 3.469297 1_555
Ho0_5 Ho1_6 3.469298 1_555
Ho0_5 Ho1_7 3.469298 1_555
Ho0_5 Ho1_4 3.469301 1_555
Ho0_5 Ho1_5 3.469301 1_555
Ho0_5 Ho0_7 3.615080 1_545
Ho0_5 Ho0_7 3.615080 1_555
Ho0_6 Ho1_3 3.469297 1_554
Ho0_6 Ho1_2 3.469297 1_555
Ho0_6 Ho1_4 3.469298 1_565
Ho0_6 Ho1_5 3.469298 1_564
Ho0_6 Ho1_7 3.469301 1_554
Ho0_6 Ho1_6 3.469301 1_555
Ho0_7 Ho1_2 3.469297 1_555
Ho0_7 Ho1_3 3.469297 1_555
Ho0_7 Ho1_4 3.469298 1_565
Ho0_7 Ho1_5 3.469298 1_565
Ho0_7 Ho1_6 3.469301 1_555
Ho0_7 Ho1_7 3.469301 1_555
Ho1_0 Ho1_4 3.615079 1_455
Ho1_0 Ho1_4 3.615079 1_555
Ho1_0 Ho1_6 3.615079 1_445
Ho1_0 Ho1_6 3.615079 1_555
Ho1_0 Ho1_2 3.615080 1_545
Ho1_0 Ho1_2 3.615080 1_555
Ho1_1 Ho1_5 3.615079 1_455
Ho1_1 Ho1_5 3.615079 1_555
Ho1_1 Ho1_7 3.615079 1_445
Ho1_1 Ho1_7 3.615079 1_555
Ho1_1 Ho1_3 3.615080 1_545
Ho1_1 Ho1_3 3.615080 1_555
Ho1_2 Ho1_6 3.615079 1_455
Ho1_2 Ho1_6 3.615079 1_555
Ho1_2 Ho1_4 3.615079 1_455
Ho1_2 Ho1_4 3.615079 1_565
Ho1_3 Ho1_7 3.615079 1_455
Ho1_3 Ho1_7 3.615079 1_555
Ho1_3 Ho1_5 3.615079 1_455
Ho1_3 Ho1_5 3.615079 1_565
Ho1_4 Ho1_6 3.615080 1_545
Ho1_4 Ho1_6 3.615080 1_555
Ho1_5 Ho1_7 3.615080 1_545
Ho1_5 Ho1_7 3.615080 1_555
