# generated using pymatgen
data_Mg6CrBi
_symmetry_space_group_name_H-M   'P 1'
_cell_length_a   5.20708400
_cell_length_b   6.33936100
_cell_length_c   11.03544200
_cell_angle_alpha   90.00000000
_cell_angle_beta   90.00000000
_cell_angle_gamma   90.00000000
_symmetry_Int_Tables_number   1
_chemical_formula_structural   Mg6CrBi
_chemical_formula_sum   'Mg12 Cr2 Bi2'
_cell_volume   364.27536329
_cell_formula_units_Z   2
loop_
 _symmetry_equiv_pos_site_id
 _symmetry_equiv_pos_as_xyz
  1  'x, y, z'
loop_
 _atom_site_type_symbol
 _atom_site_label
 _atom_site_symmetry_multiplicity
 _atom_site_fract_x
 _atom_site_fract_y
 _atom_site_fract_z
 _atom_site_occupancy
  Mg  Mg0  1  0.50000000  0.74903200  0.91634600  1
  Mg  Mg1  1  0.50000000  0.25096800  0.91634600  1
  Mg  Mg2  1  0.00000000  0.26089600  0.58242300  1
  Mg  Mg3  1  0.00000000  0.73910400  0.58242300  1
  Mg  Mg4  1  0.00000000  0.50000000  0.83035500  1
  Mg  Mg5  1  0.00000000  0.00000000  0.83782600  1
  Mg  Mg6  1  0.50000000  0.24903200  0.41634600  1
  Mg  Mg7  1  0.50000000  0.75096800  0.41634600  1
  Mg  Mg8  1  0.00000000  0.76089600  0.08242300  1
  Mg  Mg9  1  0.00000000  0.23910400  0.08242300  1
  Mg  Mg10  1  0.00000000  0.00000000  0.33035500  1
  Mg  Mg11  1  0.00000000  0.50000000  0.33782600  1
  Cr  Cr0  1  0.50000000  0.50000000  0.66680800  1
  Cr  Cr1  1  0.50000000  0.00000000  0.16680800  1
  Bi  Bi0  1  0.50000000  0.00000000  0.66746800  1
  Bi  Bi1  1  0.50000000  0.50000000  0.16746800  1
loop_
_geom_bond_atom_site_label_1
_geom_bond_atom_site_label_2
_geom_bond_distance
_geom_bond_site_symmetry_2
Mg0 Mg1 3.157407 1_555
Mg0 Mg5 3.171824 1_665
Mg0 Mg5 3.171824 1_565
Mg0 Mg1 3.181954 1_565
Mg0 Mg8 3.184807 1_656
Mg0 Mg8 3.184807 1_556
Mg0 Mg4 3.189238 1_555
Mg0 Mg4 3.189238 1_655
Mg1 Mg5 3.171824 1_655
Mg1 Mg5 3.171824 1_555
Mg1 Mg9 3.184807 1_656
Mg1 Mg9 3.184807 1_556
Mg1 Mg4 3.189238 1_655
Mg1 Mg4 3.189238 1_555
Mg2 Mg3 3.031533 1_555
Mg2 Mg4 3.127852 1_555
Mg2 Mg6 3.184807 1_455
Mg2 Mg6 3.184807 1_555
Mg2 Mg5 3.267918 1_555
Mg2 Mg3 3.307828 1_545
Mg3 Mg4 3.127852 1_555
Mg3 Mg7 3.184807 1_455
Mg3 Mg7 3.184807 1_555
Mg3 Mg5 3.267918 1_565
Mg4 Mg5 3.170753 1_565
Mg4 Mg5 3.170753 1_555
Mg4 Mg8 3.236230 1_556
Mg4 Mg9 3.236230 1_556
Mg5 Mg8 3.095710 1_546
Mg5 Mg9 3.095710 1_556
Mg6 Mg7 3.157407 1_545
Mg6 Mg7 3.181954 1_555
Mg8 Mg9 3.031533 1_565
Mg8 Mg9 3.307828 1_555
Mg10 Mg8 3.127852 1_545
Mg10 Mg9 3.127852 1_555
Mg10 Mg11 3.170753 1_545
Mg10 Mg11 3.170753 1_555
Mg10 Mg6 3.189238 1_555
Mg10 Mg6 3.189238 1_455
Mg10 Mg7 3.189238 1_445
Mg10 Mg7 3.189238 1_545
Mg10 Mg3 3.236230 1_545
Mg10 Mg2 3.236230 1_555
Mg11 Mg2 3.095710 1_555
Mg11 Mg3 3.095710 1_555
Mg11 Mg7 3.171824 1_555
Mg11 Mg6 3.171824 1_455
Mg11 Mg6 3.171824 1_555
Mg11 Mg7 3.171824 1_455
Mg11 Mg8 3.267918 1_555
Mg11 Mg9 3.267918 1_555
Cr0 Mg3 3.153278 1_655
Cr0 Mg2 3.153278 1_555
Cr0 Mg3 3.153278 1_555
Cr0 Mg2 3.153278 1_655
Cr0 Mg4 3.167930 1_555
Cr0 Mg4 3.167930 1_655
Cr0 Mg1 3.174195 1_555
Cr0 Mg0 3.174195 1_555
Cr0 Mg7 3.189150 1_555
Cr0 Mg6 3.189150 1_555
Cr1 Mg9 3.153278 1_555
Cr1 Mg9 3.153278 1_655
Cr1 Mg8 3.153278 1_645
Cr1 Mg8 3.153278 1_545
Cr1 Mg10 3.167930 1_555
Cr1 Mg10 3.167930 1_655
Cr1 Mg6 3.174195 1_555
Cr1 Mg7 3.174195 1_545
Cr1 Mg0 3.189150 1_544
Cr1 Mg1 3.189150 1_554
Bi0 Cr0 3.169689 1_545
Bi0 Cr0 3.169689 1_555
Bi0 Mg0 3.174012 1_545
Bi0 Mg1 3.174012 1_555
Bi0 Mg7 3.189371 1_545
Bi0 Mg6 3.189371 1_555
Bi0 Mg5 3.211346 1_555
Bi0 Mg5 3.211346 1_655
Bi0 Mg3 3.224075 1_645
Bi0 Mg2 3.224075 1_655
Bi0 Mg3 3.224075 1_545
Bi0 Mg2 3.224075 1_555
Bi1 Cr1 3.169689 1_555
Bi1 Cr1 3.169689 1_565
Bi1 Mg6 3.174012 1_555
Bi1 Mg7 3.174012 1_555
Bi1 Mg0 3.189371 1_554
Bi1 Mg1 3.189371 1_554
Bi1 Mg11 3.211346 1_655
Bi1 Mg11 3.211346 1_555
Bi1 Mg9 3.224075 1_655
Bi1 Mg8 3.224075 1_555
Bi1 Mg8 3.224075 1_655
Bi1 Mg9 3.224075 1_555
