# generated using pymatgen
data_Na2CoP2O7
_symmetry_space_group_name_H-M   'P 1'
_cell_length_a   13.69978600
_cell_length_b   5.26115000
_cell_length_c   10.22237357
_cell_angle_alpha   60.54440952
_cell_angle_beta   90.00000000
_cell_angle_gamma   90.00000000
_symmetry_Int_Tables_number   1
_chemical_formula_structural   Na2CoP2O7
_chemical_formula_sum   'Na8 Co4 P8 O28'
_cell_volume   641.55407574
_cell_formula_units_Z   4
loop_
 _symmetry_equiv_pos_site_id
 _symmetry_equiv_pos_as_xyz
  1  'x, y, z'
loop_
 _atom_site_type_symbol
 _atom_site_label
 _atom_site_symmetry_multiplicity
 _atom_site_fract_x
 _atom_site_fract_y
 _atom_site_fract_z
 _atom_site_occupancy
  Na  Na0  1  0.29586900  0.59102900  0.14351400  1
  Na  Na1  1  0.20413100  0.59102900  0.64351400  1
  Na  Na2  1  0.70413100  0.40897100  0.85648600  1
  Na  Na3  1  0.79586900  0.40897100  0.35648600  1
  Na  Na4  1  0.60736900  0.07145400  0.63558800  1
  Na  Na5  1  0.89263100  0.07145400  0.13558800  1
  Na  Na6  1  0.39263100  0.92854600  0.36441200  1
  Na  Na7  1  0.10736900  0.92854600  0.86441200  1
  Co  Co0  1  0.33208600  0.96282500  0.73797200  1
  Co  Co1  1  0.16791400  0.96282500  0.23797200  1
  Co  Co2  1  0.66791400  0.03717500  0.26202800  1
  Co  Co3  1  0.83208600  0.03717500  0.76202800  1
  P  P0  1  0.04089200  0.46810400  0.23343200  1
  P  P1  1  0.45910800  0.46810400  0.73343200  1
  P  P2  1  0.95910800  0.53189600  0.76656800  1
  P  P3  1  0.54089200  0.53189600  0.26656800  1
  P  P4  1  0.18962600  0.28358600  0.45232700  1
  P  P5  1  0.31037400  0.28358600  0.95232700  1
  P  P6  1  0.81037400  0.71641400  0.54767300  1
  P  P7  1  0.68962600  0.71641400  0.04767300  1
  O  O0  1  0.22809900  0.58981100  0.41183100  1
  O  O1  1  0.27190100  0.58981100  0.91183100  1
  O  O2  1  0.77190100  0.41018900  0.58816900  1
  O  O3  1  0.72809900  0.41018900  0.08816900  1
  O  O4  1  0.23561400  0.15890600  0.35944500  1
  O  O5  1  0.26438600  0.15890600  0.85944500  1
  O  O6  1  0.76438600  0.84109400  0.64055500  1
  O  O7  1  0.73561400  0.84109400  0.14055500  1
  O  O8  1  0.05243300  0.22160700  0.19318500  1
  O  O9  1  0.44756700  0.22160700  0.69318500  1
  O  O10  1  0.94756700  0.77839300  0.80681500  1
  O  O11  1  0.55243300  0.77839300  0.30681500  1
  O  O12  1  0.11532900  0.71832800  0.14430000  1
  O  O13  1  0.38467100  0.71832800  0.64430000  1
  O  O14  1  0.88467100  0.28167200  0.85570000  1
  O  O15  1  0.61532900  0.28167200  0.35570000  1
  O  O16  1  0.93735100  0.56843900  0.22522600  1
  O  O17  1  0.56264900  0.56843900  0.72522600  1
  O  O18  1  0.06264900  0.43156100  0.77477400  1
  O  O19  1  0.43735100  0.43156100  0.27477400  1
  O  O20  1  0.19811400  0.07575300  0.62253800  1
  O  O21  1  0.30188600  0.07575300  0.12253800  1
  O  O22  1  0.80188600  0.92424700  0.37746200  1
  O  O23  1  0.69811400  0.92424700  0.87746200  1
  O  O24  1  0.07388800  0.32243500  0.41242000  1
  O  O25  1  0.42611200  0.32243500  0.91242000  1
  O  O26  1  0.92611200  0.67756500  0.58758000  1
  O  O27  1  0.57388800  0.67756500  0.08758000  1
loop_
_geom_bond_atom_site_label_1
_geom_bond_atom_site_label_2
_geom_bond_distance
_geom_bond_site_symmetry_2
Na0 O19 2.270249 1_555
Na0 O1 2.394132 1_554
Na0 O4 2.405595 1_555
Na0 O21 2.453267 1_565
Na0 O12 2.563477 1_555
Na0 O21 2.823773 1_555
Na0 O0 2.892732 1_555
Na1 O18 2.270249 1_555
Na1 O0 2.394132 1_555
Na1 O5 2.405595 1_555
Na1 O20 2.453267 1_565
Na1 O13 2.563477 1_555
Na1 O20 2.823773 1_555
Na1 O1 2.892732 1_555
Na2 O17 2.270249 1_555
Na2 O3 2.394132 1_556
Na2 O6 2.405595 1_555
Na2 O23 2.453267 1_545
Na2 O14 2.563477 1_555
Na2 O23 2.823773 1_555
Na2 O2 2.892732 1_555
Na3 O16 2.270249 1_555
Na3 O2 2.394132 1_555
Na3 O7 2.405595 1_555
Na3 O22 2.453267 1_545
Na3 O15 2.563477 1_555
Na3 O22 2.823773 1_555
Na3 O3 2.892732 1_555
Na4 O17 2.415297 1_545
Na4 O6 2.457260 1_545
Na4 O9 2.494193 1_555
Na4 O15 2.511765 1_555
Na4 O23 2.524956 1_545
Na4 O2 2.764439 1_555
Na5 O16 2.415297 1_545
Na5 O7 2.457260 1_545
Na5 O8 2.494193 1_655
Na5 O14 2.511765 1_554
Na5 O22 2.524956 1_545
Na5 O3 2.764439 1_555
Na6 O19 2.415297 1_565
Na6 O4 2.457260 1_565
Na6 O11 2.494193 1_555
Na6 O13 2.511765 1_555
Na6 O21 2.524956 1_565
Na6 O0 2.764439 1_555
Na7 O18 2.415297 1_565
Na7 O5 2.457260 1_565
Na7 O10 2.494193 1_455
Na7 O12 2.511765 1_556
Na7 O20 2.524956 1_565
Na7 O1 2.764439 1_555
Co0 O9 1.988253 1_565
Co0 O1 2.063863 1_555
Co0 O13 2.074113 1_555
Co0 O20 2.103462 1_565
Co0 O5 2.173986 1_565
Co1 O8 1.988253 1_565
Co1 O0 2.063863 1_555
Co1 O12 2.074113 1_555
Co1 O21 2.103462 1_565
Co1 O4 2.173986 1_565
Co2 O11 1.988253 1_545
Co2 O3 2.063863 1_555
Co2 O15 2.074113 1_555
Co2 O22 2.103462 1_545
Co2 O7 2.173986 1_545
Co3 O10 1.988253 1_545
Co3 O2 2.063863 1_555
Co3 O14 2.074113 1_555
Co3 O23 2.103462 1_545
Co3 O6 2.173986 1_545
O0 P4 1.545597 1_555
O1 P5 1.545597 1_555
O2 P6 1.545597 1_555
O3 P7 1.545597 1_555
O4 P4 1.530117 1_555
O5 P5 1.530117 1_555
O6 P6 1.530117 1_555
O7 P7 1.530117 1_555
O8 P0 1.549469 1_555
O9 P1 1.549469 1_555
O10 P2 1.549469 1_555
O11 P3 1.549469 1_555
O12 P0 1.556760 1_555
O13 P1 1.556760 1_555
O14 P2 1.556760 1_555
O15 P3 1.556760 1_555
O16 P0 1.501417 1_655
O17 P1 1.501417 1_555
O18 P2 1.501417 1_455
O19 P3 1.501417 1_555
O20 P4 1.538002 1_555
O21 P5 1.538002 1_554
O22 P6 1.538002 1_555
O23 P7 1.538002 1_556
O24 P4 1.624892 1_555
O24 P0 1.661421 1_555
O25 P5 1.624892 1_555
O25 P1 1.661421 1_555
O26 P6 1.624892 1_555
O26 P2 1.661421 1_555
O27 P7 1.624892 1_555
O27 P3 1.661421 1_555
