# generated using pymatgen
data_Ba2AlW3O7
_symmetry_space_group_name_H-M   'P 1'
_cell_length_a   3.90805500
_cell_length_b   4.15829400
_cell_length_c   12.57040900
_cell_angle_alpha   90.00000000
_cell_angle_beta   90.00000000
_cell_angle_gamma   90.00000000
_symmetry_Int_Tables_number   1
_chemical_formula_structural   Ba2AlW3O7
_chemical_formula_sum   'Ba2 Al1 W3 O7'
_cell_volume   204.27972624
_cell_formula_units_Z   1
loop_
 _symmetry_equiv_pos_site_id
 _symmetry_equiv_pos_as_xyz
  1  'x, y, z'
loop_
 _atom_site_type_symbol
 _atom_site_label
 _atom_site_symmetry_multiplicity
 _atom_site_fract_x
 _atom_site_fract_y
 _atom_site_fract_z
 _atom_site_occupancy
  Ba  Ba0  1  0.50000000  0.50000000  0.81401000  1
  Ba  Ba1  1  0.50000000  0.50000000  0.18535700  1
  Al  Al0  1  0.50000000  0.50000000  0.48210000  1
  W  W0  1  0.00000000  0.00000000  0.62721300  1
  W  W1  1  0.00000000  0.00000000  0.39057400  1
  W  W2  1  0.00000000  0.00000000  0.99835000  1
  O  O0  1  0.00000000  0.50000000  0.99896900  1
  O  O1  1  0.50000000  0.00000000  0.66553800  1
  O  O2  1  0.50000000  0.00000000  0.33197500  1
  O  O3  1  0.00000000  0.50000000  0.64975100  1
  O  O4  1  0.00000000  0.50000000  0.36034400  1
  O  O5  1  0.00000000  0.00000000  0.84509800  1
  O  O6  1  0.00000000  0.00000000  0.15071800  1
loop_
_geom_bond_atom_site_label_1
_geom_bond_atom_site_label_2
_geom_bond_distance
_geom_bond_site_symmetry_2
Ba0 O1 2.793945 1_555
Ba0 O1 2.793945 1_565
Ba0 O3 2.842822 1_555
Ba0 O3 2.842822 1_655
Ba0 O5 2.879894 1_555
Ba0 O5 2.879894 1_655
Ba0 O5 2.879894 1_565
Ba0 O5 2.879894 1_665
Ba0 O0 3.037087 1_555
Ba0 O0 3.037087 1_655
Ba1 O2 2.778431 1_555
Ba1 O2 2.778431 1_565
Ba1 O6 2.886290 1_565
Ba1 O6 2.886290 1_665
Ba1 O6 2.886290 1_555
Ba1 O6 2.886290 1_655
Ba1 O4 2.942230 1_555
Ba1 O4 2.942230 1_655
Ba1 O0 3.050860 1_654
Ba1 O0 3.050860 1_554
Al0 O4 2.482080 1_555
Al0 O4 2.482080 1_655
O0 W2 2.079162 1_555
O0 W2 2.079162 1_565
O1 W0 2.012540 1_655
O1 W0 2.012540 1_555
O2 W1 2.088258 1_655
O2 W1 2.088258 1_555
O3 W0 2.098361 1_565
O3 W0 2.098361 1_555
O4 W1 2.113588 1_565
O4 W1 2.113588 1_555
O5 W2 1.926440 1_555
O5 W0 2.738904 1_555
O6 W2 1.915328 1_554
