# generated using pymatgen
data_VH20S2(NO7)2
_symmetry_space_group_name_H-M   'P 1'
_cell_length_a   9.47386269
_cell_length_b   12.86431500
_cell_length_c   6.08328795
_cell_angle_alpha   90.00000000
_cell_angle_beta   103.01901622
_cell_angle_gamma   90.00000000
_symmetry_Int_Tables_number   1
_chemical_formula_structural   VH20S2(NO7)2
_chemical_formula_sum   'V2 H40 S4 N4 O28'
_cell_volume   722.34181478
_cell_formula_units_Z   2
loop_
 _symmetry_equiv_pos_site_id
 _symmetry_equiv_pos_as_xyz
  1  'x, y, z'
loop_
 _atom_site_type_symbol
 _atom_site_label
 _atom_site_symmetry_multiplicity
 _atom_site_fract_x
 _atom_site_fract_y
 _atom_site_fract_z
 _atom_site_occupancy
  V  V0  1  0.50000000  0.50000000  0.00000000  1
  V  V1  1  0.00000000  0.00000000  0.00000000  1
  H  H0  1  0.56876100  0.16670500  0.18252400  1
  H  H1  1  0.93123900  0.66670500  0.81747600  1
  H  H2  1  0.43123900  0.83329500  0.81747600  1
  H  H3  1  0.06876100  0.33329500  0.18252400  1
  H  H4  1  0.72376900  0.20290500  0.37432600  1
  H  H5  1  0.77623100  0.70290500  0.62567400  1
  H  H6  1  0.27623100  0.79709500  0.62567400  1
  H  H7  1  0.22376900  0.29709500  0.37432600  1
  H  H8  1  0.56664600  0.17902300  0.45491000  1
  H  H9  1  0.93335400  0.67902300  0.54509000  1
  H  H10  1  0.43335400  0.82097700  0.54509000  1
  H  H11  1  0.06664600  0.32097700  0.45491000  1
  H  H12  1  0.65959600  0.08071100  0.36979900  1
  H  H13  1  0.84040400  0.58071100  0.63020100  1
  H  H14  1  0.34040400  0.91928900  0.63020100  1
  H  H15  1  0.15959600  0.41928900  0.36979900  1
  H  H16  1  0.72026600  0.42684500  0.32949900  1
  H  H17  1  0.77973400  0.92684500  0.67050100  1
  H  H18  1  0.27973400  0.57315500  0.67050100  1
  H  H19  1  0.22026600  0.07315500  0.32949900  1
  H  H20  1  0.76686600  0.41090400  0.08284800  1
  H  H21  1  0.73313400  0.91090400  0.91715200  1
  H  H22  1  0.23313400  0.58909600  0.91715200  1
  H  H23  1  0.26686600  0.08909600  0.08284800  1
  H  H24  1  0.19627700  0.34428500  0.86904500  1
  H  H25  1  0.30372300  0.84428500  0.13095500  1
  H  H26  1  0.80372300  0.65571500  0.13095500  1
  H  H27  1  0.69627700  0.15571500  0.86904500  1
  H  H28  1  0.26533700  0.31837900  0.93680000  1
  H  H29  1  0.23466300  0.81837900  0.06320000  1
  H  H30  1  0.73466300  0.68162100  0.06320000  1
  H  H31  1  0.76533700  0.18162100  0.93680000  1
  H  H32  1  0.40972900  0.58228700  0.33052600  1
  H  H33  1  0.09027100  0.08228700  0.66947400  1
  H  H34  1  0.59027100  0.41771300  0.66947400  1
  H  H35  1  0.90972900  0.91771300  0.33052600  1
  H  H36  1  0.53602600  0.66539800  0.29724100  1
  H  H37  1  0.96397400  0.16539800  0.70275900  1
  H  H38  1  0.46397400  0.33460200  0.70275900  1
  H  H39  1  0.03602600  0.83460200  0.29724100  1
  S  S0  1  0.89413400  0.37270700  0.72656100  1
  S  S1  1  0.60586600  0.87270700  0.27343900  1
  S  S2  1  0.10586600  0.62729300  0.27343900  1
  S  S3  1  0.39413400  0.12729300  0.72656100  1
  N  N0  1  0.63115500  0.15807100  0.34490900  1
  N  N1  1  0.86884500  0.65807100  0.65509100  1
  N  N2  1  0.36884500  0.84192900  0.65509100  1
  N  N3  1  0.13115500  0.34192900  0.34490900  1
  O  O0  1  0.90935600  0.27489200  0.59554500  1
  O  O1  1  0.59064400  0.77489200  0.40445500  1
  O  O2  1  0.09064400  0.72510800  0.40445500  1
  O  O3  1  0.40935600  0.22510800  0.59554500  1
  O  O4  1  0.01864100  0.44072100  0.73164400  1
  O  O5  1  0.48135900  0.94072100  0.26835600  1
  O  O6  1  0.98135900  0.55927900  0.26835600  1
  O  O7  1  0.51864100  0.05927900  0.73164400  1
  O  O8  1  0.75705200  0.42735900  0.60285500  1
  O  O9  1  0.74294800  0.92735900  0.39714500  1
  O  O10  1  0.24294800  0.57264100  0.39714500  1
  O  O11  1  0.25705200  0.07264100  0.60285500  1
  O  O12  1  0.87951700  0.34501300  0.95756000  1
  O  O13  1  0.62048300  0.84501300  0.04244000  1
  O  O14  1  0.12048300  0.65498700  0.04244000  1
  O  O15  1  0.37951700  0.15498700  0.95756000  1
  O  O16  1  0.68671700  0.42919700  0.15971300  1
  O  O17  1  0.81328300  0.92919700  0.84028700  1
  O  O18  1  0.31328300  0.57080300  0.84028700  1
  O  O19  1  0.18671700  0.07080300  0.15971300  1
  O  O20  1  0.40533400  0.41109500  0.12850600  1
  O  O21  1  0.09466600  0.91109500  0.87149400  1
  O  O22  1  0.59466600  0.58890500  0.87149400  1
  O  O23  1  0.90533400  0.08890500  0.12850600  1
  O  O24  1  0.49861000  0.59109900  0.26838500  1
  O  O25  1  0.00139000  0.09109900  0.73161500  1
  O  O26  1  0.50139000  0.40890100  0.73161500  1
  O  O27  1  0.99861000  0.90890100  0.26838500  1
loop_
_geom_bond_atom_site_label_1
_geom_bond_atom_site_label_2
_geom_bond_distance
_geom_bond_site_symmetry_2
H0 N0 1.036573 1_555
H1 N1 1.036573 1_555
H2 N2 1.036573 1_555
H3 N3 1.036573 1_555
H4 N0 1.031399 1_555
H5 N1 1.031399 1_555
H6 N2 1.031399 1_555
H7 N3 1.031399 1_555
H8 N0 1.038361 1_555
H9 N1 1.038361 1_555
H10 N2 1.038361 1_555
H11 N3 1.038361 1_555
H12 N0 1.033216 1_555
H13 N1 1.033216 1_555
H14 N2 1.033216 1_555
H15 N3 1.033216 1_555
H16 O16 1.010358 1_555
H16 O8 1.620383 1_555
H17 O17 1.010358 1_555
H17 O9 1.620383 1_555
H18 O18 1.010358 1_555
H18 O10 1.620383 1_555
H19 O19 1.010358 1_555
H19 O11 1.620383 1_555
H20 O16 1.005265 1_555
H20 O12 1.674776 1_554
H21 O17 1.005265 1_555
H21 O13 1.674776 1_556
H22 O18 1.005265 1_555
H22 O14 1.674776 1_556
H23 O19 1.005265 1_555
H23 O15 1.674776 1_554
H24 H28 0.766495 1_555
H25 H29 0.766495 1_555
H26 H30 0.766495 1_555
H27 H31 0.766495 1_555
H32 O24 1.004096 1_555
H32 O10 1.721839 1_555
H33 O25 1.004096 1_555
H33 O11 1.721839 1_555
H34 O26 1.004096 1_555
H34 O8 1.721839 1_555
H35 O27 1.004096 1_555
H35 O9 1.721839 1_555
H36 O24 1.020782 1_555
H36 O1 1.589067 1_555
H37 O25 1.020782 1_655
H37 O0 1.589067 1_555
H38 O26 1.020782 1_555
H38 O3 1.589067 1_555
H39 O27 1.020782 1_455
H39 O2 1.589067 1_555
O0 S0 1.513665 1_555
O1 S1 1.513665 1_555
O2 S2 1.513665 1_555
O3 S3 1.513665 1_555
O4 S0 1.463364 1_455
O5 S1 1.463364 1_555
O6 S2 1.463364 1_655
O7 S3 1.463364 1_555
O8 S0 1.518845 1_555
O9 S1 1.518845 1_555
O10 S2 1.518845 1_555
O11 S3 1.518845 1_555
O12 S0 1.486088 1_555
O13 S1 1.486088 1_555
O14 S2 1.486088 1_555
O15 S3 1.486088 1_555
O16 V0 2.031837 1_555
O17 V1 2.031837 1_666
O18 V0 2.031837 1_556
O19 V1 2.031837 1_555
O20 V0 1.743387 1_555
O21 V1 1.743387 1_566
O22 V0 1.743387 1_556
O23 V1 1.743387 1_655
O24 V0 2.012178 1_555
O25 V1 2.012178 1_556
O26 V0 2.012178 1_556
O27 V1 2.012178 1_665
