# generated using pymatgen
data_LaPrMn2O6
_symmetry_space_group_name_H-M   'P 1'
_cell_length_a   5.54693700
_cell_length_b   5.69507100
_cell_length_c   7.93562900
_cell_angle_alpha   90.00000000
_cell_angle_beta   90.00000000
_cell_angle_gamma   90.00000000
_symmetry_Int_Tables_number   1
_chemical_formula_structural   LaPrMn2O6
_chemical_formula_sum   'La2 Pr2 Mn4 O12'
_cell_volume   250.68810761
_cell_formula_units_Z   2
loop_
 _symmetry_equiv_pos_site_id
 _symmetry_equiv_pos_as_xyz
  1  'x, y, z'
loop_
 _atom_site_type_symbol
 _atom_site_label
 _atom_site_symmetry_multiplicity
 _atom_site_fract_x
 _atom_site_fract_y
 _atom_site_fract_z
 _atom_site_occupancy
  La  La0  1  0.24075500  0.45568700  0.50000000  1
  La  La1  1  0.75924500  0.95568700  0.50000000  1
  Pr  Pr0  1  0.26251000  0.55195100  0.00000000  1
  Pr  Pr1  1  0.73749000  0.05195100  0.00000000  1
  Mn  Mn0  1  0.75096900  0.50016800  0.75120300  1
  Mn  Mn1  1  0.24903100  0.00016800  0.24879700  1
  Mn  Mn2  1  0.75096900  0.50016800  0.24879700  1
  Mn  Mn3  1  0.24903100  0.00016800  0.75120300  1
  O  O0  1  0.16542100  0.97892800  0.00000000  1
  O  O1  1  0.83457900  0.47892800  0.00000000  1
  O  O2  1  0.32914200  0.01915800  0.50000000  1
  O  O3  1  0.67085800  0.51915800  0.50000000  1
  O  O4  1  0.53642900  0.79397400  0.79612400  1
  O  O5  1  0.46357100  0.29397400  0.20387600  1
  O  O6  1  0.96024400  0.20299600  0.29197200  1
  O  O7  1  0.03975600  0.70299600  0.70802800  1
  O  O8  1  0.96024400  0.20299600  0.70802800  1
  O  O9  1  0.03975600  0.70299600  0.29197200  1
  O  O10  1  0.53642900  0.79397400  0.20387600  1
  O  O11  1  0.46357100  0.29397400  0.79612400  1
loop_
_geom_bond_atom_site_label_1
_geom_bond_atom_site_label_2
_geom_bond_distance
_geom_bond_site_symmetry_2
La0 O3 2.412983 1_555
La0 O9 2.439677 1_555
La0 O7 2.439677 1_555
La0 O2 2.533946 1_555
La0 O8 2.686504 1_455
La0 O6 2.686504 1_455
La0 O5 2.810323 1_555
La0 O11 2.810323 1_555
La1 O2 2.412983 1_565
La1 O8 2.439677 1_565
La1 O6 2.439677 1_565
La1 O3 2.533946 1_555
La1 O7 2.686504 1_655
La1 O9 2.686504 1_655
La1 O10 2.810323 1_555
La1 O4 2.810323 1_555
Mn0 O7 2.004425 1_655
Mn0 O11 2.011824 1_555
Mn0 O1 2.031705 1_556
Mn0 O3 2.045243 1_555
Mn0 O8 2.080673 1_555
Mn0 O4 2.083992 1_555
Mn1 O6 2.004425 1_455
Mn1 O10 2.011824 1_545
Mn1 O0 2.031705 1_545
Mn1 O2 2.045243 1_555
Mn1 O9 2.080673 1_545
Mn1 O5 2.083992 1_555
Mn2 O9 2.004425 1_655
Mn2 O5 2.011824 1_555
Mn2 O1 2.031705 1_555
Mn2 O3 2.045243 1_555
Mn2 O6 2.080673 1_555
Mn2 O10 2.083992 1_555
Mn3 O8 2.004425 1_455
Mn3 O4 2.011824 1_545
Mn3 O0 2.031705 1_546
Mn3 O2 2.045243 1_555
Mn3 O7 2.080673 1_545
Mn3 O11 2.083992 1_555
O0 Pr1 2.409861 1_465
O0 Pr0 2.490587 1_555
O1 Pr0 2.409861 1_655
O1 Pr1 2.490587 1_555
O4 Pr1 2.453553 1_566
O4 Pr0 2.612657 1_556
O5 Pr0 2.453553 1_555
O5 Pr1 2.612657 1_555
O6 Pr1 2.763165 1_555
O7 Pr0 2.763165 1_556
O8 Pr1 2.763165 1_556
O9 Pr0 2.763165 1_555
O10 Pr1 2.453553 1_565
O10 Pr0 2.612657 1_555
O11 Pr0 2.453553 1_556
O11 Pr1 2.612657 1_556
