# generated using pymatgen
data_TbB2Ru
_symmetry_space_group_name_H-M   'P 1'
_cell_length_a   5.32025492
_cell_length_b   5.90614882
_cell_length_c   6.36431762
_cell_angle_alpha   89.99992469
_cell_angle_beta   90.00000000
_cell_angle_gamma   90.00000000
_symmetry_Int_Tables_number   1
_chemical_formula_structural   TbB2Ru
_chemical_formula_sum   'Tb4 B8 Ru4'
_cell_volume   199.98097134
_cell_formula_units_Z   4
loop_
 _symmetry_equiv_pos_site_id
 _symmetry_equiv_pos_as_xyz
  1  'x, y, z'
loop_
 _atom_site_type_symbol
 _atom_site_label
 _atom_site_symmetry_multiplicity
 _atom_site_fract_x
 _atom_site_fract_y
 _atom_site_fract_z
 _atom_site_occupancy
  Tb  Tb0  1  0.25000000  0.00924187  0.33743041  1
  Tb  Tb1  1  0.25000000  0.50925047  0.16256931  1
  Tb  Tb2  1  0.75000000  0.99075349  0.66255378  1
  Tb  Tb3  1  0.75000000  0.49076352  0.83744575  1
  B  B0  1  0.08462943  0.37027004  0.53991151  1
  B  B1  1  0.41537004  0.87026585  0.96008915  1
  B  B2  1  0.58464098  0.62973207  0.46007614  1
  B  B3  1  0.91535961  0.12972918  0.03992377  1
  B  B4  1  0.91535902  0.62973207  0.46007614  1
  B  B5  1  0.58464039  0.12972918  0.03992377  1
  B  B6  1  0.41537057  0.37027004  0.53991151  1
  B  B7  1  0.08462996  0.87026585  0.96008915  1
  Ru  Ru0  1  0.25000000  0.18203530  0.81805339  1
  Ru  Ru1  1  0.25000000  0.68204028  0.68194709  1
  Ru  Ru2  1  0.75000000  0.81795735  0.18195906  1
  Ru  Ru3  1  0.75000000  0.31796344  0.31804008  1
loop_
_geom_bond_atom_site_label_1
_geom_bond_atom_site_label_2
_geom_bond_distance
_geom_bond_site_symmetry_2
B0 B6 1.759627 1_555
B0 B4 1.848645 1_455
B0 Ru1 2.232002 1_555
B0 Ru0 2.267948 1_555
B0 Ru3 2.293223 1_455
B0 Tb0 2.642225 1_555
B0 Tb1 2.686107 1_555
B0 Tb3 2.694754 1_455
B0 Tb2 2.966982 1_445
B1 B7 1.759622 1_555
B1 B5 1.848651 1_566
B1 Ru0 2.231995 1_565
B1 Ru1 2.267923 1_555
B1 Ru2 2.293220 1_556
B1 Tb1 2.642157 1_556
B1 Tb0 2.686094 1_566
B1 Tb2 2.694751 1_555
B1 Tb3 2.966924 1_555
B2 B4 1.759504 1_555
B2 B6 1.848645 1_555
B2 Ru3 2.231971 1_555
B2 Ru2 2.267773 1_555
B2 Ru1 2.293270 1_555
B2 Tb2 2.642162 1_555
B2 Tb3 2.686221 1_555
B2 Tb1 2.694654 1_555
B2 Tb0 2.966995 1_565
B3 B5 1.759511 1_555
B3 B7 1.848651 1_644
B3 Ru2 2.231984 1_545
B3 Ru3 2.267799 1_555
B3 Ru0 2.293263 1_654
B3 Tb3 2.642223 1_554
B3 Tb2 2.686239 1_544
B3 Tb0 2.694658 1_655
B3 Tb1 2.967046 1_655
B4 Ru3 2.231971 1_555
B4 Ru2 2.267773 1_555
B4 Ru1 2.293270 1_655
B4 Tb2 2.642162 1_555
B4 Tb3 2.686221 1_555
B4 Tb1 2.694654 1_655
B4 Tb0 2.966995 1_665
B5 Ru2 2.231984 1_545
B5 Ru3 2.267799 1_555
B5 Ru0 2.293263 1_554
B5 Tb3 2.642223 1_554
B5 Tb2 2.686239 1_544
B5 Tb0 2.694658 1_555
B5 Tb1 2.967046 1_555
B6 Ru1 2.232002 1_555
B6 Ru0 2.267948 1_555
B6 Ru3 2.293223 1_555
B6 Tb0 2.642225 1_555
B6 Tb1 2.686107 1_555
B6 Tb3 2.694754 1_555
B6 Tb2 2.966982 1_545
B7 Ru0 2.231995 1_565
B7 Ru1 2.267923 1_555
B7 Ru2 2.293220 1_456
B7 Tb1 2.642157 1_556
B7 Tb0 2.686094 1_566
B7 Tb2 2.694751 1_455
B7 Tb3 2.966924 1_455
Ru0 Tb1 2.922741 1_556
Ru1 Tb0 2.922688 1_565
Ru2 Tb3 2.922645 1_554
Ru3 Tb2 2.922706 1_545
