# generated using pymatgen
data_Rb3ScF6
_symmetry_space_group_name_H-M   'P 1'
_cell_length_a   6.38075639
_cell_length_b   6.38075639
_cell_length_c   9.42758586
_cell_angle_alpha   90.00000000
_cell_angle_beta   90.00000000
_cell_angle_gamma   90.00000000
_symmetry_Int_Tables_number   1
_chemical_formula_structural   Rb3ScF6
_chemical_formula_sum   'Rb6 Sc2 F12'
_cell_volume   383.83522196
_cell_formula_units_Z   2
loop_
 _symmetry_equiv_pos_site_id
 _symmetry_equiv_pos_as_xyz
  1  'x, y, z'
loop_
 _atom_site_type_symbol
 _atom_site_label
 _atom_site_symmetry_multiplicity
 _atom_site_fract_x
 _atom_site_fract_y
 _atom_site_fract_z
 _atom_site_occupancy
  Rb  Rb0  1  0.00000000  0.50000000  0.25000000  1
  Rb  Rb1  1  0.00000000  0.50000000  0.75000000  1
  Rb  Rb2  1  0.50000000  -0.00000000  0.25000000  1
  Rb  Rb3  1  0.50000000  -0.00000000  0.75000000  1
  Rb  Rb4  1  0.00000000  -0.00000000  0.50000000  1
  Rb  Rb5  1  0.50000000  0.50000000  -0.00000000  1
  Sc  Sc0  1  0.00000000  -0.00000000  -0.00000000  1
  Sc  Sc1  1  0.50000000  0.50000000  0.50000000  1
  F  F0  1  0.13663035  0.28595608  -0.00000000  1
  F  F1  1  0.86336965  0.71404392  -0.00000000  1
  F  F2  1  0.71404392  0.13663035  -0.00000000  1
  F  F3  1  0.36336965  0.78595608  0.50000000  1
  F  F4  1  0.28595608  0.86336965  -0.00000000  1
  F  F5  1  0.63663035  0.21404392  0.50000000  1
  F  F6  1  0.78595608  0.63663035  0.50000000  1
  F  F7  1  0.21404392  0.36336965  0.50000000  1
  F  F8  1  0.00000000  -0.00000000  0.21585170  1
  F  F9  1  0.00000000  -0.00000000  0.78414830  1
  F  F10  1  0.50000000  0.50000000  0.28414830  1
  F  F11  1  0.50000000  0.50000000  0.71585170  1
loop_
_geom_bond_atom_site_label_1
_geom_bond_atom_site_label_2
_geom_bond_distance
_geom_bond_site_symmetry_2
F0 Sc0 2.022194 1_555
F0 Rb5 2.690927 1_555
F0 Rb1 2.860124 1_554
F0 Rb0 2.860124 1_555
F1 Sc0 2.022194 1_665
F1 Rb5 2.690927 1_555
F1 Rb1 2.860124 1_654
F1 Rb0 2.860124 1_655
F2 Sc0 2.022194 1_655
F2 Rb5 2.690927 1_555
F2 Rb3 2.860124 1_554
F2 Rb2 2.860124 1_555
F3 Sc1 2.022194 1_555
F3 Rb4 2.690927 1_565
F3 Rb3 2.860124 1_565
F3 Rb2 2.860124 1_565
F4 Sc0 2.022194 1_565
F4 Rb5 2.690927 1_555
F4 Rb3 2.860124 1_564
F4 Rb2 2.860124 1_565
F5 Sc1 2.022194 1_555
F5 Rb4 2.690927 1_655
F5 Rb3 2.860124 1_555
F5 Rb2 2.860124 1_555
F6 Sc1 2.022194 1_555
F6 Rb4 2.690927 1_665
F6 Rb1 2.860124 1_655
F6 Rb0 2.860124 1_655
F7 Sc1 2.022194 1_555
F7 Rb4 2.690927 1_555
F7 Rb1 2.860124 1_555
F7 Rb0 2.860124 1_555
F8 Sc0 2.034960 1_555
F8 Rb4 2.678832 1_555
F8 Rb2 3.206580 1_555
F8 Rb0 3.206580 1_555
F8 Rb0 3.206580 1_545
F8 Rb2 3.206580 1_455
F9 Sc0 2.034960 1_556
F9 Rb4 2.678832 1_555
F9 Rb3 3.206580 1_455
F9 Rb1 3.206580 1_555
F9 Rb3 3.206580 1_555
F9 Rb1 3.206580 1_545
F10 Sc1 2.034960 1_555
F10 Rb5 2.678832 1_555
F10 Rb0 3.206580 1_555
F10 Rb2 3.206580 1_555
F10 Rb2 3.206580 1_565
F10 Rb0 3.206580 1_655
F11 Sc1 2.034960 1_555
F11 Rb5 2.678832 1_556
F11 Rb3 3.206580 1_565
F11 Rb1 3.206580 1_555
F11 Rb3 3.206580 1_555
F11 Rb1 3.206580 1_655
