# generated using pymatgen
data_Er5(Sn3Rh)6
_symmetry_space_group_name_H-M   'P 1'
_cell_length_a   9.87751947
_cell_length_b   9.87751947
_cell_length_c   9.87751947
_cell_angle_alpha   60.00000000
_cell_angle_beta   60.00000000
_cell_angle_gamma   60.00000000
_symmetry_Int_Tables_number   1
_chemical_formula_structural   Er5(Sn3Rh)6
_chemical_formula_sum   'Er5 Sn18 Rh6'
_cell_volume   681.44166784
_cell_formula_units_Z   1
loop_
 _symmetry_equiv_pos_site_id
 _symmetry_equiv_pos_as_xyz
  1  'x, y, z'
loop_
 _atom_site_type_symbol
 _atom_site_label
 _atom_site_symmetry_multiplicity
 _atom_site_fract_x
 _atom_site_fract_y
 _atom_site_fract_z
 _atom_site_occupancy
  Er  Er0  1  0.00000000  0.00000000  0.00000000  1
  Er  Er1  1  0.37013500  0.37013500  0.88959600  1
  Er  Er2  1  0.37013500  0.88959600  0.37013500  1
  Er  Er3  1  0.88959600  0.37013500  0.37013500  1
  Er  Er4  1  0.37013500  0.37013500  0.37013500  1
  Sn  Sn0  1  0.58784900  0.58784900  0.23645300  1
  Sn  Sn1  1  0.58784900  0.23645300  0.58784900  1
  Sn  Sn2  1  0.23645300  0.58784900  0.58784900  1
  Sn  Sn3  1  0.58784900  0.58784900  0.58784900  1
  Sn  Sn4  1  0.75000000  0.75000000  0.75000000  1
  Sn  Sn5  1  0.99136000  0.35874600  0.65853400  1
  Sn  Sn6  1  0.99136000  0.99136000  0.65853400  1
  Sn  Sn7  1  0.35874600  0.99136000  0.65853400  1
  Sn  Sn8  1  0.99136000  0.65853400  0.35874600  1
  Sn  Sn9  1  0.35874600  0.65853400  0.99136000  1
  Sn  Sn10  1  0.99136000  0.65853400  0.99136000  1
  Sn  Sn11  1  0.65853400  0.99136000  0.99136000  1
  Sn  Sn12  1  0.65853400  0.35874600  0.99136000  1
  Sn  Sn13  1  0.65853400  0.99136000  0.35874600  1
  Sn  Sn14  1  0.35874600  0.99136000  0.99136000  1
  Sn  Sn15  1  0.99136000  0.99136000  0.35874600  1
  Sn  Sn16  1  0.99136000  0.35874600  0.99136000  1
  Sn  Sn17  1  0.25000000  0.25000000  0.25000000  1
  Rh  Rh0  1  0.25494400  0.25494400  0.74505600  1
  Rh  Rh1  1  0.74505600  0.25494400  0.74505600  1
  Rh  Rh2  1  0.25494400  0.74505600  0.74505600  1
  Rh  Rh3  1  0.74505600  0.74505600  0.25494400  1
  Rh  Rh4  1  0.25494400  0.74505600  0.25494400  1
  Rh  Rh5  1  0.74505600  0.25494400  0.25494400  1
loop_
_geom_bond_atom_site_label_1
_geom_bond_atom_site_label_2
_geom_bond_distance
_geom_bond_site_symmetry_2
Er0 Sn11 3.460284 1_444
Er0 Sn6 3.460284 1_444
Er0 Sn10 3.460284 1_444
Er0 Sn13 3.460284 1_445
Er0 Sn9 3.460284 1_544
Er0 Sn7 3.460284 1_544
Er0 Sn12 3.460284 1_454
Er0 Sn8 3.460284 1_445
Er0 Sn5 3.460284 1_454
Er0 Sn16 3.460284 1_454
Er0 Sn15 3.460284 1_445
Er0 Sn14 3.460284 1_544
Er0 Rh0 3.561293 1_554
Er0 Rh5 3.561293 1_455
Er0 Rh4 3.561293 1_545
Er0 Rh2 3.561293 1_544
Er0 Rh3 3.561293 1_445
Er0 Rh1 3.561293 1_454
Er1 Sn17 2.906644 1_556
Er1 Rh1 3.028352 1_555
Er1 Rh2 3.028352 1_555
Er1 Rh0 3.028360 1_555
Er1 Sn3 3.152466 1_555
Er1 Sn2 3.152471 1_555
Er1 Sn1 3.152471 1_555
Er1 Sn12 3.401148 1_555
Er1 Sn9 3.401148 1_555
Er1 Sn10 3.401153 1_455
Er1 Sn11 3.401153 1_545
Er1 Sn14 3.401158 1_545
Er1 Sn16 3.401158 1_455
Er2 Sn17 2.906644 1_565
Er2 Rh3 3.028352 1_555
Er2 Rh2 3.028352 1_555
Er2 Rh4 3.028360 1_555
Er2 Sn3 3.152466 1_555
Er2 Sn0 3.152471 1_555
Er2 Sn2 3.152471 1_555
Er2 Sn13 3.401148 1_555
Er2 Sn7 3.401148 1_555
Er2 Sn6 3.401153 1_455
Er2 Sn11 3.401153 1_554
Er2 Sn14 3.401158 1_554
Er2 Sn15 3.401158 1_455
Er3 Sn17 2.906644 1_655
Er3 Rh3 3.028352 1_555
Er3 Rh1 3.028352 1_555
Er3 Rh5 3.028360 1_555
Er3 Sn3 3.152466 1_555
Er3 Sn0 3.152471 1_555
Er3 Sn1 3.152471 1_555
Er3 Sn8 3.401148 1_555
Er3 Sn5 3.401148 1_555
Er3 Sn6 3.401153 1_545
Er3 Sn10 3.401153 1_554
Er3 Sn16 3.401158 1_554
Er3 Sn15 3.401158 1_545
Er4 Sn17 2.906652 1_555
Er4 Rh5 3.028352 1_555
Er4 Rh4 3.028352 1_555
Er4 Rh0 3.028352 1_555
Er4 Sn2 3.152463 1_555
Er4 Sn1 3.152463 1_555
Er4 Sn0 3.152463 1_555
Er4 Sn9 3.401155 1_554
Er4 Sn7 3.401155 1_545
Er4 Sn12 3.401155 1_554
Er4 Sn8 3.401155 1_455
Er4 Sn13 3.401155 1_545
Er4 Sn5 3.401155 1_455
Rh0 Sn7 2.690632 1_545
Rh0 Sn5 2.690632 1_455
Rh0 Sn14 2.690632 1_545
Rh0 Sn16 2.690632 1_455
Rh0 Sn2 2.798981 1_555
Rh0 Sn1 2.798981 1_555
Rh1 Sn11 2.690632 1_545
Rh1 Sn6 2.690632 1_545
Rh1 Sn5 2.690632 1_555
Rh1 Sn12 2.690632 1_555
Rh1 Sn1 2.798981 1_555
Rh1 Sn3 2.798981 1_555
Rh2 Sn10 2.690632 1_455
Rh2 Sn6 2.690632 1_455
Rh2 Sn7 2.690632 1_555
Rh2 Sn9 2.690632 1_555
Rh2 Sn2 2.798981 1_555
Rh2 Sn3 2.798981 1_555
Rh3 Sn11 2.690632 1_554
Rh3 Sn10 2.690632 1_554
Rh3 Sn8 2.690632 1_555
Rh3 Sn13 2.690632 1_555
Rh3 Sn0 2.798981 1_555
Rh3 Sn3 2.798981 1_555
Rh4 Sn9 2.690632 1_554
Rh4 Sn8 2.690632 1_455
Rh4 Sn15 2.690632 1_455
Rh4 Sn14 2.690632 1_554
Rh4 Sn2 2.798981 1_555
Rh4 Sn0 2.798981 1_555
Rh5 Sn13 2.690632 1_545
Rh5 Sn12 2.690632 1_554
Rh5 Sn16 2.690632 1_554
Rh5 Sn15 2.690632 1_545
Rh5 Sn1 2.798981 1_555
Rh5 Sn0 2.798981 1_555
