# generated using pymatgen
data_MgFe10O9F11
_symmetry_space_group_name_H-M   'P 1'
_cell_length_a   4.90846587
_cell_length_b   4.90381966
_cell_length_c   15.30078886
_cell_angle_alpha   90.23304729
_cell_angle_beta   89.94678861
_cell_angle_gamma   95.60159064
_symmetry_Int_Tables_number   1
_chemical_formula_structural   MgFe10O9F11
_chemical_formula_sum   'Mg1 Fe10 O9 F11'
_cell_volume   366.53172917
_cell_formula_units_Z   1
loop_
 _symmetry_equiv_pos_site_id
 _symmetry_equiv_pos_as_xyz
  1  'x, y, z'
loop_
 _atom_site_type_symbol
 _atom_site_label
 _atom_site_symmetry_multiplicity
 _atom_site_fract_x
 _atom_site_fract_y
 _atom_site_fract_z
 _atom_site_occupancy
  Mg  Mg0  1  0.49348988  0.99645382  0.29034605  1
  Fe  Fe0  1  0.99134549  0.99030089  0.99717787  1
  Fe  Fe1  1  0.99538047  0.99745375  0.18618116  1
  Fe  Fe2  1  0.99493316  0.99046807  0.41011796  1
  Fe  Fe3  1  0.03085476  0.01784559  0.60526174  1
  Fe  Fe4  1  0.04029567  0.01267615  0.79134346  1
  Fe  Fe5  1  0.49347203  0.49667373  0.10081849  1
  Fe  Fe6  1  0.49405984  0.48335462  0.49251225  1
  Fe  Fe7  1  0.49976595  0.49693684  0.29827739  1
  Fe  Fe8  1  0.44689083  0.52953578  0.69991155  1
  Fe  Fe9  1  0.50520928  0.46812017  0.90732565  1
  O  O0  1  0.20169759  0.80781287  0.70379430  1
  O  O1  1  0.30221372  0.28078038  0.00095016  1
  O  O2  1  0.34024139  0.25179992  0.19882812  1
  O  O3  1  0.33213576  0.24099740  0.39719122  1
  O  O4  1  0.33040182  0.32234788  0.59589903  1
  O  O5  1  0.31838337  0.31942809  0.80297502  1
  O  O6  1  0.68713950  0.69919125  0.99767178  1
  O  O7  1  0.65009184  0.74263928  0.19834178  1
  O  O8  1  0.66199074  0.74290995  0.39993118  1
  F  F0  1  0.17482656  0.76564348  0.08899232  1
  F  F1  1  0.14616223  0.77291744  0.30466790  1
  F  F2  1  0.17792233  0.76741970  0.49653583  1
  F  F3  1  0.17853503  0.81231622  0.89694009  1
  F  F4  1  0.69650485  0.72081107  0.59715457  1
  F  F5  1  0.70377878  0.71145592  0.79973543  1
  F  F6  1  0.81249303  0.22204030  0.08825680  1
  F  F7  1  0.82616104  0.23119552  0.49686393  1
  F  F8  1  0.84486436  0.21239223  0.30604083  1
  F  F9  1  0.81389823  0.19056139  0.89695632  1
  F  F10  1  0.81486244  0.20551733  0.70716682  1
loop_
_geom_bond_atom_site_label_1
_geom_bond_atom_site_label_2
_geom_bond_distance
_geom_bond_site_symmetry_2
Mg0 O7 2.071782 1_555
Mg0 O2 2.072363 1_565
Mg0 O3 2.214729 1_565
Mg0 O8 2.293836 1_555
Fe0 O6 1.962521 1_555
Fe0 O1 1.983914 1_666
Fe1 O2 2.011209 1_665
Fe1 O7 2.014043 1_555
Fe2 O8 1.944325 1_555
Fe2 O3 1.972909 1_665
Fe3 O4 1.996199 1_555
Fe3 O0 2.054401 1_545
Fe4 O0 1.890447 1_545
Fe4 O5 1.937801 1_555
Fe5 O7 2.019635 1_555
Fe5 O2 2.023059 1_555
Fe5 O1 2.032885 1_555
Fe5 O6 2.050948 1_554
Fe6 O4 1.911826 1_555
Fe6 O3 1.993743 1_555
Fe6 O8 2.028257 1_555
Fe7 O7 2.042951 1_555
Fe7 O2 2.043816 1_555
Fe7 O8 2.075510 1_555
Fe7 O3 2.086705 1_555
Fe8 O0 1.906309 1_555
Fe8 O4 1.940909 1_555
Fe8 O5 1.957225 1_555
Fe9 O1 1.928283 1_556
Fe9 O6 1.945348 1_555
Fe9 O5 1.945407 1_555
F0 Fe0 2.051095 1_454
F0 Fe1 2.111558 1_455
F0 Fe5 2.150334 1_555
F1 Mg0 1.947450 1_555
F1 Fe2 2.104944 1_455
F1 Fe1 2.285765 1_455
F1 Fe7 2.304518 1_555
F2 Fe2 1.989289 1_455
F2 Fe6 2.184787 1_555
F2 Fe3 2.225072 1_565
F3 Fe0 2.025177 1_455
F3 Fe4 2.044850 1_565
F3 Fe9 2.444647 1_555
F4 Fe3 2.088701 1_665
F4 Fe8 2.153381 1_555
F4 Fe6 2.160743 1_555
F5 Fe4 2.109884 1_665
F5 Fe8 2.119334 1_555
F5 Fe9 2.206776 1_555
F6 Fe0 2.045431 1_544
F6 Fe1 2.114872 1_545
F6 Fe5 2.170662 1_555
F7 Fe2 2.004398 1_545
F7 Fe6 2.141285 1_555
F7 Fe3 2.253302 1_655
F8 Mg0 1.948274 1_545
F8 Fe2 2.106097 1_545
F8 Fe1 2.270227 1_545
F8 Fe7 2.300779 1_555
F9 Fe0 2.063074 1_545
F9 Fe9 2.138683 1_555
F9 Fe4 2.186690 1_655
F10 Fe4 1.998595 1_655
F10 Fe3 2.139602 1_655
F10 Fe8 2.522173 1_555
