# generated using pymatgen
data_Al3Pt5
_symmetry_space_group_name_H-M   'P 1'
_cell_length_a   3.97142287
_cell_length_b   5.42852235
_cell_length_c   10.79196962
_cell_angle_alpha   90.00000000
_cell_angle_beta   90.00000000
_cell_angle_gamma   90.00000000
_symmetry_Int_Tables_number   1
_chemical_formula_structural   Al3Pt5
_chemical_formula_sum   'Al6 Pt10'
_cell_volume   232.66361774
_cell_formula_units_Z   2
loop_
 _symmetry_equiv_pos_site_id
 _symmetry_equiv_pos_as_xyz
  1  'x, y, z'
loop_
 _atom_site_type_symbol
 _atom_site_label
 _atom_site_symmetry_multiplicity
 _atom_site_fract_x
 _atom_site_fract_y
 _atom_site_fract_z
 _atom_site_occupancy
  Al  Al0  1  0.50000000  0.18373541  0.63932308  1
  Al  Al1  1  0.50000000  0.81626459  0.36067692  1
  Al  Al2  1  0.50000000  0.68373541  0.86067692  1
  Al  Al3  1  0.50000000  0.31626459  0.13932308  1
  Al  Al4  1  -0.00000000  0.50000000  0.50000000  1
  Al  Al5  1  -0.00000000  0.00000000  0.00000000  1
  Pt  Pt0  1  0.50000000  0.29188318  0.39265968  1
  Pt  Pt1  1  0.50000000  0.70811582  0.60734032  1
  Pt  Pt2  1  0.50000000  0.79188418  0.10734032  1
  Pt  Pt3  1  0.50000000  0.20811682  0.89265968  1
  Pt  Pt4  1  0.00000000  0.43101647  0.73137838  1
  Pt  Pt5  1  -0.00000000  0.56898353  0.26862062  1
  Pt  Pt6  1  0.00000000  0.93101647  0.76862162  1
  Pt  Pt7  1  -0.00000000  0.06898353  0.23137938  1
  Pt  Pt8  1  0.00000000  0.50000000  0.00000000  1
  Pt  Pt9  1  -0.00000000  0.00000000  0.50000000  1
loop_
_geom_bond_atom_site_label_1
_geom_bond_atom_site_label_2
_geom_bond_distance
_geom_bond_site_symmetry_2
Al0 Pt4 2.594604 1_555
Al0 Pt4 2.594604 1_655
Al0 Pt1 2.604880 1_545
Al0 Pt9 2.683021 1_655
Al0 Pt9 2.683021 1_555
Al0 Pt0 2.725954 1_555
Al0 Pt3 2.737203 1_555
Al0 Pt6 2.787873 1_645
Al0 Pt6 2.787873 1_545
Al0 Pt1 2.867460 1_555
Al1 Pt5 2.594608 1_555
Al1 Pt5 2.594608 1_655
Al1 Pt0 2.604875 1_565
Al1 Pt9 2.683021 1_665
Al1 Pt9 2.683021 1_565
Al1 Pt1 2.725955 1_555
Al1 Pt2 2.737202 1_555
Al1 Pt7 2.787867 1_565
Al1 Pt7 2.787867 1_665
Al1 Pt0 2.867465 1_555
Al2 Pt6 2.594604 1_555
Al2 Pt6 2.594604 1_655
Al2 Pt3 2.604875 1_555
Al2 Pt8 2.683021 1_556
Al2 Pt8 2.683021 1_656
Al2 Pt2 2.725955 1_556
Al2 Pt1 2.737202 1_555
Al2 Pt4 2.787873 1_555
Al2 Pt4 2.787873 1_655
Al2 Pt3 2.867465 1_565
Al3 Pt7 2.594608 1_655
Al3 Pt7 2.594608 1_555
Al3 Pt2 2.604880 1_555
Al3 Pt8 2.683021 1_655
Al3 Pt8 2.683021 1_555
Al3 Pt3 2.725954 1_554
Al3 Pt0 2.737203 1_555
Al3 Pt5 2.787867 1_655
Al3 Pt5 2.787867 1_555
Al3 Pt2 2.867460 1_545
Al4 Pt4 2.524953 1_555
Al4 Pt5 2.524963 1_555
Al4 Pt1 2.561510 1_455
Al4 Pt1 2.561510 1_555
Al4 Pt0 2.561512 1_455
Al4 Pt0 2.561512 1_555
Al4 Pt9 2.714261 1_565
Al4 Pt9 2.714261 1_555
Al5 Pt6 2.524953 1_544
Al5 Pt7 2.524963 1_555
Al5 Pt2 2.561510 1_545
Al5 Pt2 2.561510 1_445
Al5 Pt3 2.561512 1_454
Al5 Pt3 2.561512 1_554
Al5 Pt8 2.714261 1_545
Al5 Pt8 2.714261 1_555
