# generated using pymatgen
data_BaMg14Bi
_symmetry_space_group_name_H-M   'P 1'
_cell_length_a   6.68961918
_cell_length_b   6.66971189
_cell_length_c   10.59284508
_cell_angle_alpha   90.00000000
_cell_angle_beta   90.00000000
_cell_angle_gamma   119.90161427
_symmetry_Int_Tables_number   1
_chemical_formula_structural   BaMg14Bi
_chemical_formula_sum   'Ba1 Mg14 Bi1'
_cell_volume   409.71458903
_cell_formula_units_Z   1
loop_
 _symmetry_equiv_pos_site_id
 _symmetry_equiv_pos_as_xyz
  1  'x, y, z'
loop_
 _atom_site_type_symbol
 _atom_site_label
 _atom_site_symmetry_multiplicity
 _atom_site_fract_x
 _atom_site_fract_y
 _atom_site_fract_z
 _atom_site_occupancy
  Ba  Ba0  1  0.16924530  0.33462215  0.12500000  1
  Mg  Mg0  1  0.16481728  0.33240814  0.62500000  1
  Mg  Mg1  1  0.16211046  0.83105473  0.62500000  1
  Mg  Mg2  1  0.66538197  0.32569262  0.12500000  1
  Mg  Mg3  1  0.66944084  0.33718058  0.62500000  1
  Mg  Mg4  1  0.66538197  0.83968835  0.12500000  1
  Mg  Mg5  1  0.66944084  0.83225925  0.62500000  1
  Mg  Mg6  1  0.34115625  0.16373704  0.39306662  1
  Mg  Mg7  1  0.34115625  0.16373704  0.85693338  1
  Mg  Mg8  1  0.34115625  0.67742021  0.39306662  1
  Mg  Mg9  1  0.34115625  0.67742021  0.85693338  1
  Mg  Mg10  1  0.81941262  0.15970681  0.39024854  1
  Mg  Mg11  1  0.81941262  0.15970681  0.85975146  1
  Mg  Mg12  1  0.82712995  0.66356547  0.37477310  1
  Mg  Mg13  1  0.82712995  0.66356547  0.87522690  1
  Bi  Bi0  1  0.17647120  0.83823510  0.12500000  1
loop_
_geom_bond_atom_site_label_1
_geom_bond_atom_site_label_2
_geom_bond_distance
_geom_bond_site_symmetry_2
Ba0 Bi0 3.335119 1_555
Ba0 Bi0 3.335119 1_545
Ba0 Mg4 3.341362 1_445
Ba0 Mg2 3.341363 1_455
Ba0 Mg4 3.349053 1_555
Ba0 Mg2 3.349053 1_555
Ba0 Mg7 3.462901 1_554
Ba0 Mg6 3.462901 1_555
Ba0 Mg8 3.462907 1_555
Ba0 Mg9 3.462907 1_554
Ba0 Mg11 3.465592 1_454
Ba0 Mg10 3.465592 1_455
Mg0 Mg6 3.164856 1_555
Mg0 Mg7 3.164856 1_555
Mg0 Mg8 3.164864 1_555
Mg0 Mg9 3.164864 1_555
Mg0 Mg10 3.193083 1_455
Mg0 Mg11 3.193083 1_455
Mg0 Mg5 3.329862 1_445
Mg0 Mg3 3.329862 1_455
Mg0 Mg1 3.334893 1_545
Mg0 Mg1 3.334893 1_555
Mg0 Mg5 3.359984 1_555
Mg0 Mg3 3.359985 1_555
Mg1 Mg8 3.121589 1_555
Mg1 Mg9 3.121589 1_555
Mg1 Mg6 3.121596 1_565
Mg1 Mg7 3.121596 1_565
Mg1 Mg13 3.286247 1_455
Mg1 Mg12 3.286247 1_455
Mg1 Mg3 3.299784 1_455
Mg1 Mg5 3.299784 1_455
Mg1 Mg3 3.389849 1_565
Mg1 Mg5 3.389849 1_555
Mg2 Mg4 3.241508 1_545
Mg2 Mg7 3.405657 1_554
Mg2 Mg6 3.405657 1_555
Mg2 Mg4 3.428203 1_555
Mg3 Mg6 3.108727 1_555
Mg3 Mg7 3.108727 1_555
Mg3 Mg5 3.302032 1_555
Mg3 Mg5 3.367680 1_545
Mg4 Mg9 3.405657 1_554
Mg4 Mg8 3.405657 1_555
Mg5 Mg8 3.108728 1_555
Mg5 Mg9 3.108728 1_555
Mg6 Mg8 3.243593 1_545
Mg6 Mg8 3.426119 1_555
Mg7 Mg9 3.243593 1_545
Mg7 Mg9 3.426119 1_555
Mg10 Mg3 3.126545 1_555
Mg10 Mg5 3.126552 1_545
Mg10 Mg8 3.212976 1_545
Mg10 Mg6 3.212976 1_555
Mg10 Mg12 3.339182 1_555
Mg10 Mg12 3.339183 1_545
Mg10 Mg2 3.364420 1_555
Mg10 Mg4 3.364427 1_545
Mg10 Mg8 3.477072 1_655
Mg10 Mg6 3.477072 1_655
Mg11 Mg3 3.126545 1_555
Mg11 Mg5 3.126552 1_545
Mg11 Mg9 3.212976 1_545
Mg11 Mg7 3.212976 1_555
Mg11 Mg13 3.339182 1_555
Mg11 Mg13 3.339183 1_545
Mg11 Mg2 3.364420 1_556
Mg11 Mg4 3.364427 1_546
Mg11 Mg9 3.477072 1_655
Mg11 Mg7 3.477072 1_655
Mg12 Mg5 3.253894 1_555
Mg12 Mg3 3.253900 1_555
Mg12 Mg4 3.289112 1_555
Mg12 Mg2 3.289119 1_555
Mg12 Mg6 3.303706 1_555
Mg12 Mg8 3.303706 1_555
Mg12 Mg6 3.399048 1_665
Mg12 Mg8 3.399048 1_655
Mg13 Mg5 3.253894 1_555
Mg13 Mg3 3.253900 1_555
Mg13 Mg4 3.289112 1_556
Mg13 Mg2 3.289119 1_556
Mg13 Mg7 3.303706 1_555
Mg13 Mg9 3.303706 1_555
Mg13 Mg7 3.399048 1_665
Mg13 Mg9 3.399048 1_655
Bi0 Mg2 3.265805 1_565
Bi0 Mg4 3.265806 1_555
Bi0 Mg12 3.332334 1_455
Bi0 Mg13 3.332334 1_454
Bi0 Mg8 3.406691 1_555
Bi0 Mg9 3.406691 1_554
Bi0 Mg7 3.406697 1_564
Bi0 Mg6 3.406697 1_565
Bi0 Mg2 3.423834 1_455
Bi0 Mg4 3.423835 1_455
