# generated using pymatgen
data_Cu3Ge(PO5)2
_symmetry_space_group_name_H-M   'P 1'
_cell_length_a   4.69281034
_cell_length_b   8.39985500
_cell_length_c   9.66067661
_cell_angle_alpha   90.00000000
_cell_angle_beta   103.89420408
_cell_angle_gamma   90.00000000
_symmetry_Int_Tables_number   1
_chemical_formula_structural   Cu3Ge(PO5)2
_chemical_formula_sum   'Cu6 Ge2 P4 O20'
_cell_volume   369.67119294
_cell_formula_units_Z   2
loop_
 _symmetry_equiv_pos_site_id
 _symmetry_equiv_pos_as_xyz
  1  'x, y, z'
loop_
 _atom_site_type_symbol
 _atom_site_label
 _atom_site_symmetry_multiplicity
 _atom_site_fract_x
 _atom_site_fract_y
 _atom_site_fract_z
 _atom_site_occupancy
  Cu  Cu0  1  0.50000000  0.50000000  0.00000000  1
  Cu  Cu1  1  0.50000000  0.00000000  0.00000000  1
  Cu  Cu2  1  0.55323000  0.43539100  0.33445900  1
  Cu  Cu3  1  0.44677000  0.93539100  0.66554100  1
  Cu  Cu4  1  0.44677000  0.56460900  0.66554100  1
  Cu  Cu5  1  0.55323000  0.06460900  0.33445900  1
  Ge  Ge0  1  0.81587800  0.25000000  0.82273400  1
  Ge  Ge1  1  0.18412200  0.75000000  0.17726600  1
  P  P0  1  0.00035200  0.25000000  0.13206400  1
  P  P1  1  0.99964800  0.75000000  0.86793600  1
  P  P2  1  0.90409200  0.75000000  0.45639500  1
  P  P3  1  0.09590800  0.25000000  0.54360500  1
  O  O0  1  0.02517000  0.25000000  0.69473400  1
  O  O1  1  0.97483000  0.75000000  0.30526600  1
  O  O2  1  0.10637700  0.25000000  0.98565700  1
  O  O3  1  0.89362300  0.75000000  0.01434300  1
  O  O4  1  0.61470700  0.42551300  0.82607800  1
  O  O5  1  0.38529300  0.92551300  0.17392200  1
  O  O6  1  0.38529300  0.57448700  0.17392200  1
  O  O7  1  0.61470700  0.07448700  0.82607800  1
  O  O8  1  0.82260000  0.40188600  0.13914300  1
  O  O9  1  0.17740000  0.90188600  0.86085700  1
  O  O10  1  0.17740000  0.59811400  0.86085700  1
  O  O11  1  0.82260000  0.09811400  0.13914300  1
  O  O12  1  0.28949000  0.25000000  0.25007800  1
  O  O13  1  0.71051000  0.75000000  0.74992200  1
  O  O14  1  0.80149600  0.25000000  0.42778900  1
  O  O15  1  0.19850400  0.75000000  0.57221100  1
  O  O16  1  0.72859400  0.59880600  0.46945300  1
  O  O17  1  0.27140600  0.09880600  0.53054700  1
  O  O18  1  0.27140600  0.40119400  0.53054700  1
  O  O19  1  0.72859400  0.90119400  0.46945300  1
loop_
_geom_bond_atom_site_label_1
_geom_bond_atom_site_label_2
_geom_bond_distance
_geom_bond_site_symmetry_2
Cu0 O10 1.949536 1_554
Cu0 O8 1.949536 1_555
Cu0 O6 1.984615 1_555
Cu0 O4 1.984615 1_554
Cu1 O11 1.949536 1_555
Cu1 O9 1.949536 1_544
Cu1 O7 1.984615 1_554
Cu1 O5 1.984615 1_545
Cu2 O16 1.935660 1_555
Cu2 O6 1.950513 1_555
Cu2 O14 2.022591 1_555
Cu2 O12 2.033930 1_555
Cu2 O8 2.526464 1_555
Cu2 O18 2.573596 1_555
Cu3 O17 1.935660 1_565
Cu3 O7 1.950513 1_565
Cu3 O15 2.022591 1_555
Cu3 O13 2.033930 1_555
Cu3 O9 2.526464 1_555
Cu3 O19 2.573596 1_555
Cu4 O18 1.935660 1_555
Cu4 O4 1.950513 1_555
Cu4 O15 2.022591 1_555
Cu4 O13 2.033930 1_555
Cu4 O10 2.526464 1_555
Cu4 O16 2.573596 1_555
Cu5 O19 1.935660 1_545
Cu5 O5 1.950513 1_545
Cu5 O14 2.022591 1_555
Cu5 O12 2.033930 1_555
Cu5 O11 2.526464 1_555
Cu5 O17 2.573596 1_555
Ge0 O0 1.754147 1_655
Ge0 O4 1.755120 1_555
Ge0 O7 1.755120 1_555
Ge0 O2 1.818045 1_655
Ge1 O1 1.754147 1_455
Ge1 O5 1.755120 1_555
Ge1 O6 1.755120 1_555
Ge1 O3 1.818045 1_455
O0 P3 1.573082 1_555
O1 P2 1.573082 1_555
O2 P0 1.608117 1_556
O3 P1 1.608117 1_554
O8 P0 1.534799 1_655
O9 P1 1.534799 1_455
O10 P1 1.534799 1_455
O11 P0 1.534799 1_655
O12 P0 1.548538 1_555
O13 P1 1.548538 1_555
O14 P3 1.555094 1_655
O15 P2 1.555094 1_455
O16 P2 1.535256 1_555
O17 P3 1.535256 1_555
O18 P3 1.535256 1_555
O19 P2 1.535256 1_555
