# generated using pymatgen
data_Mg2Co3MoS8
_symmetry_space_group_name_H-M   'P 1'
_cell_length_a   7.07907318
_cell_length_b   7.08888628
_cell_length_c   7.08073517
_cell_angle_alpha   60.05789067
_cell_angle_beta   60.01283084
_cell_angle_gamma   60.05230211
_symmetry_Int_Tables_number   1
_chemical_formula_structural   Mg2Co3MoS8
_chemical_formula_sum   'Mg2 Co3 Mo1 S8'
_cell_volume   251.49021920
_cell_formula_units_Z   1
loop_
 _symmetry_equiv_pos_site_id
 _symmetry_equiv_pos_as_xyz
  1  'x, y, z'
loop_
 _atom_site_type_symbol
 _atom_site_label
 _atom_site_symmetry_multiplicity
 _atom_site_fract_x
 _atom_site_fract_y
 _atom_site_fract_z
 _atom_site_occupancy
  Mg  Mg0  1  0.87482100  0.87550900  0.87484500  1
  Mg  Mg1  1  0.12518000  0.12449100  0.12515900  1
  Co  Co0  1  0.50000100  0.50000900  0.49999100  1
  Co  Co1  1  0.49999900  0.49999700  0.99999900  1
  Co  Co2  1  0.00000000  0.49999800  0.50000400  1
  Mo  Mo0  1  0.49999800  0.99999500  0.50000800  1
  S  S0  1  0.74493700  0.71444800  0.74492200  1
  S  S1  1  0.25506900  0.28556300  0.70429800  1
  S  S2  1  0.26955700  0.69130800  0.26957300  1
  S  S3  1  0.70430700  0.28556100  0.25507100  1
  S  S4  1  0.73043400  0.30869400  0.73041800  1
  S  S5  1  0.29569200  0.71443400  0.74492900  1
  S  S6  1  0.25506400  0.28554500  0.25508600  1
  S  S7  1  0.74494400  0.71444300  0.29569700  1
loop_
_geom_bond_atom_site_label_1
_geom_bond_atom_site_label_2
_geom_bond_distance
_geom_bond_site_symmetry_2
Mg0 S0 2.436688 1_555
Mg0 S5 2.437003 1_655
Mg0 S7 2.437606 1_556
Mg0 S4 2.509302 1_565
Mg1 S6 2.436669 1_555
Mg1 S3 2.437013 1_455
Mg1 S1 2.437659 1_554
Mg1 S2 2.509291 1_545
Co0 S1 2.310653 1_555
Co0 S7 2.310658 1_555
Co0 S5 2.310738 1_555
Co0 S3 2.310760 1_555
Co0 S4 2.324900 1_555
Co0 S2 2.324924 1_555
Co1 S5 2.310821 1_555
Co1 S3 2.310837 1_556
Co1 S6 2.310858 1_556
Co1 S0 2.310863 1_555
Co1 S2 2.325191 1_556
Co1 S4 2.325192 1_555
Co2 S7 2.310631 1_455
Co2 S1 2.310642 1_555
Co2 S0 2.310803 1_455
Co2 S6 2.310818 1_555
Co2 S2 2.324928 1_555
Co2 S4 2.324949 1_455
Mo0 S1 2.471515 1_565
Mo0 S7 2.471524 1_555
Mo0 S5 2.471552 1_555
Mo0 S0 2.471562 1_555
Mo0 S6 2.471579 1_565
Mo0 S3 2.471593 1_565
