# generated using pymatgen
data_CsBi2Br7
_symmetry_space_group_name_H-M   'P 1'
_cell_length_a   7.67315223
_cell_length_b   9.75980360
_cell_length_c   10.69232403
_cell_angle_alpha   76.01452965
_cell_angle_beta   83.64119357
_cell_angle_gamma   76.33315960
_symmetry_Int_Tables_number   1
_chemical_formula_structural   CsBi2Br7
_chemical_formula_sum   'Cs2 Bi4 Br14'
_cell_volume   753.77249552
_cell_formula_units_Z   2
loop_
 _symmetry_equiv_pos_site_id
 _symmetry_equiv_pos_as_xyz
  1  'x, y, z'
loop_
 _atom_site_type_symbol
 _atom_site_label
 _atom_site_symmetry_multiplicity
 _atom_site_fract_x
 _atom_site_fract_y
 _atom_site_fract_z
 _atom_site_occupancy
  Cs  Cs0  1  0.38547227  0.86454272  0.31179992  1
  Cs  Cs1  1  0.61452773  0.13545728  0.68820008  1
  Bi  Bi0  1  0.87219283  0.63941273  0.62635304  1
  Bi  Bi1  1  0.12780717  0.36058727  0.37364696  1
  Bi  Bi2  1  0.30702038  0.70246344  0.93933209  1
  Bi  Bi3  1  0.69297962  0.29753656  0.06066791  1
  Br  Br0  1  0.86452866  0.87321186  0.43170713  1
  Br  Br1  1  0.13547134  0.12678814  0.56829287  1
  Br  Br2  1  0.96798519  0.78758314  0.79562713  1
  Br  Br3  1  0.03201481  0.21241686  0.20437287  1
  Br  Br4  1  0.50066864  0.76211823  0.67616879  1
  Br  Br5  1  0.49933136  0.23788177  0.32383121  1
  Br  Br6  1  0.75955690  0.48491293  0.45292270  1
  Br  Br7  1  0.24044310  0.51508707  0.54707730  1
  Br  Br8  1  0.89514343  0.34696066  0.82844114  1
  Br  Br9  1  0.10485657  0.65303934  0.17155886  1
  Br  Br10  1  0.27124910  0.97938894  0.94826534  1
  Br  Br11  1  0.72875090  0.02061106  0.05173466  1
  Br  Br12  1  0.62339320  0.62379370  0.06846734  1
  Br  Br13  1  0.37660680  0.37620630  0.93153266  1
loop_
_geom_bond_atom_site_label_1
_geom_bond_atom_site_label_2
_geom_bond_distance
_geom_bond_site_symmetry_2
Bi0 Br0 2.685136 1_555
Bi0 Br2 2.823023 1_555
Bi0 Br4 2.864163 1_555
Bi0 Br7 2.919155 1_655
Bi0 Br6 2.963408 1_555
Bi0 Br8 3.116506 1_555
Bi1 Br1 2.685136 1_555
Bi1 Br3 2.823023 1_555
Bi1 Br5 2.864163 1_555
Bi1 Br6 2.919155 1_455
Bi1 Br7 2.963408 1_555
Bi1 Br9 3.116506 1_555
Bi2 Br10 2.675383 1_555
Bi2 Br9 2.779563 1_556
Bi2 Br12 2.781798 1_556
Bi2 Br2 3.010966 1_455
Bi2 Br4 3.025772 1_555
Bi2 Br13 3.121903 1_555
Bi3 Br11 2.675383 1_555
Bi3 Br8 2.779563 1_554
Bi3 Br13 2.781798 1_554
Bi3 Br3 3.010966 1_655
Bi3 Br5 3.025772 1_555
Bi3 Br12 3.121903 1_555
Br0 Cs0 4.048032 1_655
Br0 Cs0 4.050465 1_555
Br0 Cs1 4.202306 1_565
Br1 Cs1 4.048032 1_455
Br1 Cs1 4.050465 1_555
Br1 Cs0 4.202306 1_545
Br2 Cs1 3.828320 1_565
Br3 Cs0 3.828320 1_545
Br4 Cs0 3.927066 1_555
Br4 Cs1 3.976463 1_565
Br5 Cs1 3.927066 1_555
Br5 Cs0 3.976463 1_545
Br6 Cs1 4.028096 1_555
Br6 Cs0 4.180359 1_555
Br7 Cs0 4.028096 1_555
Br7 Cs1 4.180359 1_555
Br8 Cs1 3.931608 1_555
Br9 Cs0 3.931608 1_555
Br10 Cs1 3.900871 1_565
Br10 Cs0 3.913825 1_556
Br11 Cs0 3.900871 1_545
Br11 Cs1 3.913825 1_554
Br12 Cs0 3.936849 1_555
Br13 Cs1 3.936849 1_555
