# generated using pymatgen
data_Cr10Sb3Te7
_symmetry_space_group_name_H-M   'P 1'
_cell_length_a   7.42475758
_cell_length_b   7.42475758
_cell_length_c   10.26145253
_cell_angle_alpha   73.41276807
_cell_angle_beta   73.41276807
_cell_angle_gamma   56.93488833
_symmetry_Int_Tables_number   1
_chemical_formula_structural   Cr10Sb3Te7
_chemical_formula_sum   'Cr10 Sb3 Te7'
_cell_volume   448.37849812
_cell_formula_units_Z   1
loop_
 _symmetry_equiv_pos_site_id
 _symmetry_equiv_pos_as_xyz
  1  'x, y, z'
loop_
 _atom_site_type_symbol
 _atom_site_label
 _atom_site_symmetry_multiplicity
 _atom_site_fract_x
 _atom_site_fract_y
 _atom_site_fract_z
 _atom_site_occupancy
  Cr  Cr0  1  0.00225600  0.79855900  0.95029200  1
  Cr  Cr1  1  0.39988000  0.20380800  0.15090200  1
  Cr  Cr2  1  0.80177600  0.59982200  0.35193900  1
  Cr  Cr3  1  0.20144100  0.99774400  0.04970800  1
  Cr  Cr4  1  0.20319100  0.00085900  0.54960200  1
  Cr  Cr5  1  0.59627100  0.40058700  0.24948700  1
  Cr  Cr6  1  0.59941300  0.40372900  0.75051300  1
  Cr  Cr7  1  0.99914100  0.79680900  0.45039800  1
  Cr  Cr8  1  0.40017800  0.19822400  0.64806100  1
  Cr  Cr9  1  0.79619200  0.60012000  0.84909800  1
  Sb  Sb0  1  0.43327000  0.56673000  0.00000000  1
  Sb  Sb1  1  0.23336100  0.36640800  0.40023600  1
  Sb  Sb2  1  0.63359200  0.76663900  0.59976400  1
  Te  Te0  1  0.96732900  0.43374900  0.10035600  1
  Te  Te1  1  0.83356400  0.96662400  0.20027300  1
  Te  Te2  1  0.36660700  0.83283300  0.30071600  1
  Te  Te3  1  0.76574600  0.23425400  0.50000000  1
  Te  Te4  1  0.16716700  0.63339300  0.69928400  1
  Te  Te5  1  0.03337600  0.16643600  0.79972700  1
  Te  Te6  1  0.56625100  0.03267100  0.89964400  1
loop_
_geom_bond_atom_site_label_1
_geom_bond_atom_site_label_2
_geom_bond_distance
_geom_bond_site_symmetry_2
Cr0 Sb0 2.807868 1_556
Cr0 Te0 2.816413 1_456
Cr0 Te5 2.824251 1_565
Cr0 Te1 2.827313 1_456
Cr0 Te4 2.828722 1_555
Cr0 Te6 2.841810 1_465
Cr1 Sb0 2.801357 1_555
Cr1 Sb1 2.803735 1_555
Cr1 Te0 2.821447 1_455
Cr1 Te1 2.821475 1_545
Cr1 Te2 2.849408 1_545
Cr1 Te6 2.850842 1_554
Cr2 Sb2 2.803222 1_555
Cr2 Sb1 2.806047 1_655
Cr2 Te3 2.820076 1_555
Cr2 Te1 2.822501 1_555
Cr2 Te0 2.836874 1_555
Cr2 Te2 2.838976 1_555
Cr3 Sb0 2.807868 1_555
Cr3 Te6 2.816413 1_564
Cr3 Te1 2.824251 1_455
Cr3 Te5 2.827313 1_564
Cr3 Te2 2.828722 1_555
Cr3 Te0 2.841810 1_465
Cr4 Sb1 2.803222 1_555
Cr4 Sb2 2.804504 1_545
Cr4 Te2 2.819452 1_545
Cr4 Te5 2.819795 1_555
Cr4 Te4 2.836137 1_545
Cr4 Te3 2.847763 1_455
Cr5 Sb1 2.803559 1_555
Cr5 Sb0 2.806661 1_555
Cr5 Te2 2.822003 1_555
Cr5 Te1 2.822673 1_545
Cr5 Te3 2.838169 1_555
Cr5 Te0 2.847893 1_555
Cr6 Sb2 2.803559 1_555
Cr6 Sb0 2.806661 1_556
Cr6 Te4 2.822003 1_555
Cr6 Te5 2.822673 1_655
Cr6 Te3 2.838169 1_555
Cr6 Te6 2.847893 1_555
Cr7 Sb2 2.803222 1_555
Cr7 Sb1 2.804504 1_655
Cr7 Te4 2.819452 1_655
Cr7 Te1 2.819795 1_555
Cr7 Te2 2.836137 1_655
Cr7 Te3 2.847763 1_565
Cr8 Sb1 2.803222 1_555
Cr8 Sb2 2.806047 1_545
Cr8 Te3 2.820076 1_555
Cr8 Te5 2.822501 1_555
Cr8 Te6 2.836874 1_555
Cr8 Te4 2.838976 1_555
Cr9 Sb0 2.801357 1_556
Cr9 Sb2 2.803735 1_555
Cr9 Te6 2.821447 1_565
Cr9 Te5 2.821475 1_655
Cr9 Te4 2.849408 1_655
Cr9 Te0 2.850842 1_556
