# generated using pymatgen
data_Sr3GeO5
_symmetry_space_group_name_H-M   'P 1'
_cell_length_a   6.96256200
_cell_length_b   6.96256200
_cell_length_c   11.34176200
_cell_angle_alpha   90.00000000
_cell_angle_beta   90.00000000
_cell_angle_gamma   90.00000000
_symmetry_Int_Tables_number   1
_chemical_formula_structural   Sr3GeO5
_chemical_formula_sum   'Sr12 Ge4 O20'
_cell_volume   549.81765426
_cell_formula_units_Z   4
loop_
 _symmetry_equiv_pos_site_id
 _symmetry_equiv_pos_as_xyz
  1  'x, y, z'
loop_
 _atom_site_type_symbol
 _atom_site_label
 _atom_site_symmetry_multiplicity
 _atom_site_fract_x
 _atom_site_fract_y
 _atom_site_fract_z
 _atom_site_occupancy
  Sr  Sr0  1  0.00000000  0.50000000  0.99257500  1
  Sr  Sr1  1  0.00000000  0.50000000  0.49257500  1
  Sr  Sr2  1  0.18163700  0.18163700  0.25000000  1
  Sr  Sr3  1  0.18163700  0.81836300  0.75000000  1
  Sr  Sr4  1  0.31836300  0.31836300  0.75000000  1
  Sr  Sr5  1  0.31836300  0.68163700  0.25000000  1
  Sr  Sr6  1  0.50000000  0.00000000  0.50742500  1
  Sr  Sr7  1  0.50000000  0.00000000  0.00742500  1
  Sr  Sr8  1  0.68163700  0.31836300  0.25000000  1
  Sr  Sr9  1  0.68163700  0.68163700  0.75000000  1
  Sr  Sr10  1  0.81836300  0.81836300  0.25000000  1
  Sr  Sr11  1  0.81836300  0.18163700  0.75000000  1
  Ge  Ge0  1  0.00000000  0.00000000  0.00000000  1
  Ge  Ge1  1  0.00000000  0.00000000  0.50000000  1
  Ge  Ge2  1  0.50000000  0.50000000  0.00000000  1
  Ge  Ge3  1  0.50000000  0.50000000  0.50000000  1
  O  O0  1  0.00000000  0.50000000  0.25574700  1
  O  O1  1  0.00000000  0.50000000  0.75574700  1
  O  O2  1  0.13971300  0.14116800  0.90258800  1
  O  O3  1  0.13971300  0.85883200  0.40258800  1
  O  O4  1  0.14116800  0.13971300  0.59741200  1
  O  O5  1  0.14116800  0.86028700  0.09741200  1
  O  O6  1  0.35883200  0.36028700  0.40258800  1
  O  O7  1  0.35883200  0.63971300  0.90258800  1
  O  O8  1  0.36028700  0.35883200  0.09741200  1
  O  O9  1  0.36028700  0.64116800  0.59741200  1
  O  O10  1  0.50000000  0.00000000  0.24425300  1
  O  O11  1  0.50000000  0.00000000  0.74425300  1
  O  O12  1  0.63971300  0.35883200  0.59741200  1
  O  O13  1  0.63971300  0.64116800  0.09741200  1
  O  O14  1  0.64116800  0.63971300  0.40258800  1
  O  O15  1  0.64116800  0.36028700  0.90258800  1
  O  O16  1  0.85883200  0.13971300  0.09741200  1
  O  O17  1  0.85883200  0.86028700  0.59741200  1
  O  O18  1  0.86028700  0.14116800  0.40258800  1
  O  O19  1  0.86028700  0.85883200  0.90258800  1
loop_
_geom_bond_atom_site_label_1
_geom_bond_atom_site_label_2
_geom_bond_distance
_geom_bond_site_symmetry_2
Ge0 O2 1.770021 1_554
Ge0 O5 1.770021 1_545
Ge0 O16 1.770021 1_455
Ge0 O19 1.770021 1_444
Ge1 O4 1.770021 1_555
Ge1 O17 1.770021 1_445
Ge1 O18 1.770021 1_455
Ge1 O3 1.770021 1_545
Ge2 O13 1.770021 1_555
Ge2 O7 1.770021 1_554
Ge2 O8 1.770021 1_555
Ge2 O15 1.770021 1_554
Ge3 O12 1.770021 1_555
Ge3 O9 1.770021 1_555
Ge3 O14 1.770021 1_555
Ge3 O6 1.770021 1_555
O0 Sr5 2.552846 1_555
O0 Sr2 2.552846 1_555
O0 Sr10 2.552846 1_455
O0 Sr8 2.552846 1_455
O0 Sr1 2.686047 1_555
O0 Sr0 2.984834 1_554
O1 Sr3 2.552846 1_555
O1 Sr11 2.552846 1_455
O1 Sr4 2.552846 1_555
O1 Sr9 2.552846 1_455
O1 Sr0 2.686047 1_555
O1 Sr1 2.984834 1_555
O2 Sr4 2.462584 1_555
O2 Sr11 2.842617 1_455
O2 Sr3 2.851617 1_545
O2 Sr0 2.868774 1_555
O2 Sr7 2.944921 1_556
O3 Sr5 2.462584 1_555
O3 Sr10 2.842617 1_455
O3 Sr2 2.851617 1_565
O3 Sr1 2.868774 1_555
O3 Sr6 2.944921 1_565
O4 Sr4 2.462584 1_555
O4 Sr3 2.842617 1_545
O4 Sr11 2.851617 1_455
O4 Sr6 2.868774 1_555
O4 Sr1 2.944921 1_555
O5 Sr5 2.462584 1_555
O5 Sr2 2.842617 1_565
O5 Sr10 2.851617 1_455
O5 Sr7 2.868774 1_565
O5 Sr0 2.944921 1_554
O6 Sr2 2.462584 1_555
O6 Sr5 2.842617 1_555
O6 Sr8 2.851617 1_555
O6 Sr1 2.868774 1_555
O6 Sr6 2.944921 1_555
O7 Sr3 2.462584 1_555
O7 Sr4 2.842617 1_555
O7 Sr9 2.851617 1_555
O7 Sr0 2.868774 1_555
O7 Sr7 2.944921 1_566
O8 Sr2 2.462584 1_555
O8 Sr8 2.842617 1_555
O8 Sr5 2.851617 1_555
O8 Sr7 2.868774 1_555
O8 Sr0 2.944921 1_554
O9 Sr3 2.462584 1_555
O9 Sr9 2.842617 1_555
O9 Sr4 2.851617 1_555
O9 Sr6 2.868774 1_565
O9 Sr1 2.944921 1_555
O10 Sr8 2.552846 1_555
O10 Sr10 2.552846 1_545
O10 Sr2 2.552846 1_555
O10 Sr5 2.552846 1_545
O10 Sr7 2.686047 1_555
O10 Sr6 2.984834 1_555
O11 Sr11 2.552846 1_555
O11 Sr4 2.552846 1_555
O11 Sr3 2.552846 1_545
O11 Sr9 2.552846 1_545
O11 Sr6 2.686047 1_555
O11 Sr7 2.984834 1_556
O12 Sr11 2.462584 1_555
O12 Sr4 2.842617 1_555
O12 Sr9 2.851617 1_555
O12 Sr6 2.868774 1_555
O12 Sr1 2.944921 1_655
O13 Sr10 2.462584 1_555
O13 Sr5 2.842617 1_555
O13 Sr8 2.851617 1_555
O13 Sr7 2.868774 1_565
O13 Sr0 2.944921 1_654
O14 Sr10 2.462584 1_555
O14 Sr8 2.842617 1_555
O14 Sr5 2.851617 1_555
O14 Sr1 2.868774 1_655
O14 Sr6 2.944921 1_565
O15 Sr11 2.462584 1_555
O15 Sr9 2.842617 1_555
O15 Sr4 2.851617 1_555
O15 Sr0 2.868774 1_655
O15 Sr7 2.944921 1_556
O16 Sr8 2.462584 1_555
O16 Sr10 2.842617 1_545
O16 Sr2 2.851617 1_655
O16 Sr7 2.868774 1_555
O16 Sr0 2.944921 1_654
O17 Sr9 2.462584 1_555
O17 Sr11 2.842617 1_565
O17 Sr3 2.851617 1_655
O17 Sr6 2.868774 1_565
O17 Sr1 2.944921 1_655
O18 Sr8 2.462584 1_555
O18 Sr2 2.842617 1_655
O18 Sr10 2.851617 1_545
O18 Sr1 2.868774 1_655
O18 Sr6 2.944921 1_555
O19 Sr9 2.462584 1_555
O19 Sr3 2.842617 1_655
O19 Sr11 2.851617 1_565
O19 Sr0 2.868774 1_655
O19 Sr7 2.944921 1_566
