# generated using pymatgen
data_LiC6N9Cl
_symmetry_space_group_name_H-M   'P 1'
_cell_length_a   8.12046409
_cell_length_b   8.12046409
_cell_length_c   7.47118500
_cell_angle_alpha   90.00000000
_cell_angle_beta   90.00000000
_cell_angle_gamma   119.90289432
_symmetry_Int_Tables_number   1
_chemical_formula_structural   LiC6N9Cl
_chemical_formula_sum   'Li2 C12 N18 Cl2'
_cell_volume   427.07676971
_cell_formula_units_Z   2
loop_
 _symmetry_equiv_pos_site_id
 _symmetry_equiv_pos_as_xyz
  1  'x, y, z'
loop_
 _atom_site_type_symbol
 _atom_site_label
 _atom_site_symmetry_multiplicity
 _atom_site_fract_x
 _atom_site_fract_y
 _atom_site_fract_z
 _atom_site_occupancy
  Li  Li0  1  0.16337600  0.16337600  0.27520000  1
  Li  Li1  1  0.83662400  0.83662400  0.77520000  1
  C  C0  1  0.67268900  0.50460200  0.26785200  1
  C  C1  1  0.51540800  0.17192600  0.26713900  1
  C  C2  1  0.84813800  0.34507400  0.26744700  1
  C  C3  1  0.50460200  0.67268900  0.26785200  1
  C  C4  1  0.17192600  0.51540800  0.26713900  1
  C  C5  1  0.34507400  0.84813800  0.26744700  1
  C  C6  1  0.32731100  0.49539800  0.76785200  1
  C  C7  1  0.48459200  0.82807400  0.76713900  1
  C  C8  1  0.15186200  0.65492600  0.76744700  1
  C  C9  1  0.49539800  0.32731100  0.76785200  1
  C  C10  1  0.82807400  0.48459200  0.76713900  1
  C  C11  1  0.65492600  0.15186200  0.76744700  1
  N  N0  1  0.67118900  0.67118900  0.27738400  1
  N  N1  1  0.34470200  0.01276800  0.26611600  1
  N  N2  1  0.01276800  0.34470100  0.26611600  1
  N  N3  1  0.32881100  0.32881100  0.77738400  1
  N  N4  1  0.65529900  0.98723200  0.76611600  1
  N  N5  1  0.98723200  0.65529900  0.76611600  1
  N  N6  1  0.51080100  0.33695100  0.26369200  1
  N  N7  1  0.68270300  0.17660300  0.27039800  1
  N  N8  1  0.84107600  0.50875800  0.26857500  1
  N  N9  1  0.33695100  0.51080100  0.26369200  1
  N  N10  1  0.17660300  0.68270300  0.27039800  1
  N  N11  1  0.50875800  0.84107600  0.26857500  1
  N  N12  1  0.48919900  0.66304900  0.76369200  1
  N  N13  1  0.31729700  0.82339700  0.77039800  1
  N  N14  1  0.15892400  0.49124200  0.76857500  1
  N  N15  1  0.66304900  0.48919900  0.76369200  1
  N  N16  1  0.82339700  0.31729700  0.77039800  1
  N  N17  1  0.49124200  0.15892400  0.76857500  1
  Cl  Cl0  1  0.91683500  0.91683500  0.08587600  1
  Cl  Cl1  1  0.08316500  0.08316500  0.58587600  1
loop_
_geom_bond_atom_site_label_1
_geom_bond_atom_site_label_2
_geom_bond_distance
_geom_bond_site_symmetry_2
Li0 N2 2.337511 1_555
Li0 N1 2.337519 1_555
Li0 N6 2.447176 1_555
Li0 N9 2.447176 1_555
Li1 N4 2.337511 1_555
Li1 N5 2.337511 1_555
Li1 N12 2.447176 1_555
Li1 N15 2.447176 1_555
C0 N6 1.340941 1_555
C0 N8 1.350883 1_555
C0 N0 1.360742 1_555
C1 N7 1.340205 1_555
C1 N1 1.343765 1_555
C1 N6 1.359361 1_555
C2 N2 1.338422 1_655
C2 N7 1.358072 1_555
C2 N8 1.358715 1_555
C3 N9 1.340941 1_555
C3 N11 1.350883 1_555
C3 N0 1.360742 1_555
C4 N10 1.340205 1_555
C4 N2 1.343770 1_555
C4 N9 1.359361 1_555
C5 N1 1.338417 1_565
C5 N10 1.358072 1_555
C5 N11 1.358715 1_555
C6 N12 1.340941 1_555
C6 N14 1.350883 1_555
C6 N3 1.360742 1_555
C7 N13 1.340205 1_555
C7 N4 1.343770 1_555
C7 N12 1.359361 1_555
C8 N5 1.338422 1_455
C8 N13 1.358072 1_555
C8 N14 1.358715 1_555
C9 N15 1.340941 1_555
C9 N17 1.350883 1_555
C9 N3 1.360742 1_555
C10 N16 1.340205 1_555
C10 N5 1.343770 1_555
C10 N15 1.359361 1_555
C11 N4 1.338422 1_545
C11 N16 1.358072 1_555
C11 N17 1.358715 1_555
Cl0 Li1 2.411035 1_554
Cl0 Li0 2.453696 1_665
Cl1 Li0 2.411035 1_555
Cl1 Li1 2.453696 1_445
