# generated using pymatgen
data_AlNi6Pd
_symmetry_space_group_name_H-M   'P 1'
_cell_length_a   3.59356100
_cell_length_b   3.59356100
_cell_length_c   7.23280900
_cell_angle_alpha   90.00000000
_cell_angle_beta   90.00000000
_cell_angle_gamma   90.00000000
_symmetry_Int_Tables_number   1
_chemical_formula_structural   AlNi6Pd
_chemical_formula_sum   'Al1 Ni6 Pd1'
_cell_volume   93.40218571
_cell_formula_units_Z   1
loop_
 _symmetry_equiv_pos_site_id
 _symmetry_equiv_pos_as_xyz
  1  'x, y, z'
loop_
 _atom_site_type_symbol
 _atom_site_label
 _atom_site_symmetry_multiplicity
 _atom_site_fract_x
 _atom_site_fract_y
 _atom_site_fract_z
 _atom_site_occupancy
  Al  Al0  1  0.00000000  0.00000000  0.00000000  1
  Ni  Ni0  1  0.50000000  0.50000000  0.00000000  1
  Ni  Ni1  1  0.50000000  0.50000000  0.50000000  1
  Ni  Ni2  1  0.50000000  0.00000000  0.23985400  1
  Ni  Ni3  1  0.50000000  0.00000000  0.76014600  1
  Ni  Ni4  1  0.00000000  0.50000000  0.23985400  1
  Ni  Ni5  1  0.00000000  0.50000000  0.76014600  1
  Pd  Pd0  1  0.00000000  0.00000000  0.50000000  1
loop_
_geom_bond_atom_site_label_1
_geom_bond_atom_site_label_2
_geom_bond_distance
_geom_bond_site_symmetry_2
Al0 Ni5 2.497602 1_554
Al0 Ni4 2.497602 1_555
Al0 Ni5 2.497602 1_544
Al0 Ni2 2.497602 1_455
Al0 Ni3 2.497602 1_554
Al0 Ni2 2.497602 1_555
Al0 Ni4 2.497602 1_545
Al0 Ni3 2.497602 1_454
Al0 Ni0 2.541031 1_555
Al0 Ni0 2.541031 1_545
Al0 Ni0 2.541031 1_455
Al0 Ni0 2.541031 1_445
Ni0 Ni4 2.497602 1_555
Ni0 Ni5 2.497602 1_554
Ni0 Ni3 2.497602 1_554
Ni0 Ni3 2.497602 1_564
Ni0 Ni2 2.497602 1_555
Ni0 Ni4 2.497602 1_655
Ni0 Ni2 2.497602 1_565
Ni0 Ni5 2.497602 1_654
Ni1 Pd0 2.541031 1_665
Ni1 Pd0 2.541031 1_565
Ni1 Pd0 2.541031 1_555
Ni1 Pd0 2.541031 1_655
Ni1 Ni4 2.601689 1_655
Ni1 Ni3 2.601689 1_555
Ni1 Ni5 2.601689 1_655
Ni1 Ni3 2.601689 1_565
Ni1 Ni4 2.601689 1_555
Ni1 Ni5 2.601689 1_555
Ni1 Ni2 2.601689 1_555
Ni1 Ni2 2.601689 1_565
Ni2 Ni4 2.541031 1_645
Ni2 Ni4 2.541031 1_555
Ni2 Ni4 2.541031 1_545
Ni2 Ni4 2.541031 1_655
Ni2 Pd0 2.601689 1_655
Ni2 Pd0 2.601689 1_555
Ni3 Ni5 2.541031 1_655
Ni3 Ni5 2.541031 1_645
Ni3 Ni5 2.541031 1_545
Ni3 Ni5 2.541031 1_555
Ni3 Pd0 2.601689 1_655
Ni3 Pd0 2.601689 1_555
Ni4 Pd0 2.601689 1_565
Ni4 Pd0 2.601689 1_555
Ni5 Pd0 2.601689 1_565
Ni5 Pd0 2.601689 1_555
