# generated using pymatgen
data_Te15W2(Br6O)2
_symmetry_space_group_name_H-M   'P 1'
_cell_length_a   7.92830700
_cell_length_b   8.83759754
_cell_length_c   15.49122259
_cell_angle_alpha   95.38473166
_cell_angle_beta   97.39187592
_cell_angle_gamma   103.01366788
_symmetry_Int_Tables_number   1
_chemical_formula_structural   Te15W2(Br6O)2
_chemical_formula_sum   'Te15 W2 Br12 O2'
_cell_volume   1040.25326365
_cell_formula_units_Z   1
loop_
 _symmetry_equiv_pos_site_id
 _symmetry_equiv_pos_as_xyz
  1  'x, y, z'
loop_
 _atom_site_type_symbol
 _atom_site_label
 _atom_site_symmetry_multiplicity
 _atom_site_fract_x
 _atom_site_fract_y
 _atom_site_fract_z
 _atom_site_occupancy
  Te  Te0  1  0.05903000  0.88973800  0.35126600  1
  Te  Te1  1  0.55966700  0.88616300  0.34953700  1
  Te  Te2  1  0.94840900  0.12944500  0.65672100  1
  Te  Te3  1  0.44518500  0.12916700  0.65700700  1
  Te  Te4  1  0.95364100  0.62567400  0.19360000  1
  Te  Te5  1  0.45399900  0.62219500  0.19221200  1
  Te  Te6  1  0.05296800  0.37634400  0.79945900  1
  Te  Te7  1  0.53346200  0.37710100  0.79900400  1
  Te  Te8  1  0.18948600  0.22084300  0.53616900  1
  Te  Te9  1  0.69518500  0.23479600  0.54641000  1
  Te  Te10  1  0.80664800  0.77065500  0.45983100  1
  Te  Te11  1  0.30895900  0.77102100  0.45973800  1
  Te  Te12  1  0.17784400  0.44829900  0.26544100  1
  Te  Te13  1  0.67871300  0.44730000  0.26822300  1
  Te  Te14  1  0.82334700  0.54731300  0.74597500  1
  W  W0  1  0.22551200  0.99980900  0.99965400  1
  W  W1  1  0.72340100  0.99818500  0.99977600  1
  Br  Br0  1  0.79442700  0.02069000  0.16851100  1
  Br  Br1  1  0.29413000  0.02300900  0.16798600  1
  Br  Br2  1  0.19740700  0.97211300  0.83101000  1
  Br  Br3  1  0.69360100  0.95941500  0.83286000  1
  Br  Br4  1  0.82510800  0.29439600  0.00875500  1
  Br  Br5  1  0.32452700  0.29742200  0.00578300  1
  Br  Br6  1  0.17220400  0.69991700  0.99431600  1
  Br  Br7  1  0.66978500  0.69787300  0.99628400  1
  Br  Br8  1  0.92097200  0.30409800  0.39608600  1
  Br  Br9  1  0.42945500  0.30355500  0.39566500  1
  Br  Br10  1  0.07503700  0.69797300  0.58864100  1
  Br  Br11  1  0.56627100  0.69460600  0.58814700  1
  O  O0  1  0.99066700  0.99806500  0.00012100  1
  O  O1  1  0.49022600  0.99883900  0.00029300  1
loop_
_geom_bond_atom_site_label_1
_geom_bond_atom_site_label_2
_geom_bond_distance
_geom_bond_site_symmetry_2
Te0 Te10 2.861745 1_455
Te0 Te11 2.874232 1_555
Te0 Te4 3.104301 1_455
Te1 Te10 2.856986 1_555
Te1 Te11 2.861638 1_555
Te1 Te5 3.100177 1_555
Te2 Te9 2.841710 1_555
Te2 Te6 2.854086 1_655
Te2 Te8 2.880875 1_655
Te3 Te9 2.841841 1_555
Te3 Te7 2.852758 1_555
Te3 Te8 2.884133 1_555
Te12 Te5 2.809495 1_555
Te12 Te4 2.815819 1_455
Te13 Te5 2.826949 1_555
Te13 Te4 2.831148 1_555
Te14 Te6 2.714657 1_655
Te14 Te7 2.716712 1_555
Br0 W1 2.581169 1_544
Br1 W0 2.573388 1_544
Br2 W0 2.576890 1_555
Br3 W1 2.549372 1_555
Br4 W1 2.544511 1_544
Br5 W0 2.558749 1_544
Br6 W0 2.579745 1_555
Br7 W1 2.585840 1_555
Br8 Te8 3.098220 1_655
Br8 Te13 3.130565 1_555
Br8 Te9 3.138312 1_555
Br8 Te12 3.200528 1_655
Br9 Te8 3.103115 1_555
Br9 Te13 3.124214 1_555
Br9 Te9 3.136570 1_555
Br9 Te12 3.206783 1_555
Br10 Te11 2.915381 1_555
Br10 Te10 2.947156 1_455
Br11 Te11 2.898834 1_555
Br11 Te10 2.946794 1_555
O0 W0 1.859465 1_654
O0 W1 2.118525 1_554
O1 W1 1.851037 1_554
O1 W0 2.099435 1_554
