# generated using pymatgen
data_CoMo
_symmetry_space_group_name_H-M   'P 1'
_cell_length_a   5.38985581
_cell_length_b   5.38985581
_cell_length_c   8.36723600
_cell_angle_alpha   90.00000000
_cell_angle_beta   90.00000000
_cell_angle_gamma   119.99999767
_symmetry_Int_Tables_number   1
_chemical_formula_structural   CoMo
_chemical_formula_sum   'Co8 Mo8'
_cell_volume   210.50719998
_cell_formula_units_Z   8
loop_
 _symmetry_equiv_pos_site_id
 _symmetry_equiv_pos_as_xyz
  1  'x, y, z'
loop_
 _atom_site_type_symbol
 _atom_site_label
 _atom_site_symmetry_multiplicity
 _atom_site_fract_x
 _atom_site_fract_y
 _atom_site_fract_z
 _atom_site_occupancy
  Co  Co0_0  1  0.33333350  0.16666650  0.25000000  1
  Co  Co0_1  1  0.33333350  0.16666650  0.75000000  1
  Co  Co0_2  1  0.33333350  0.66666650  0.25000000  1
  Co  Co0_3  1  0.33333350  0.66666650  0.75000000  1
  Co  Co0_4  1  0.83333350  0.16666650  0.25000000  1
  Co  Co0_5  1  0.83333350  0.16666650  0.75000000  1
  Co  Co0_6  1  0.83333350  0.66666650  0.25000000  1
  Co  Co0_7  1  0.83333350  0.66666650  0.75000000  1
  Mo  Mo0_0  1  0.16666650  0.33333350  0.00000000  1
  Mo  Mo0_1  1  0.16666650  0.33333350  0.50000000  1
  Mo  Mo0_2  1  0.16666650  0.83333350  0.00000000  1
  Mo  Mo0_3  1  0.16666650  0.83333350  0.50000000  1
  Mo  Mo0_4  1  0.66666650  0.33333350  0.00000000  1
  Mo  Mo0_5  1  0.66666650  0.33333350  0.50000000  1
  Mo  Mo0_6  1  0.66666650  0.83333350  0.00000000  1
  Mo  Mo0_7  1  0.66666650  0.83333350  0.50000000  1
loop_
_geom_bond_atom_site_label_1
_geom_bond_atom_site_label_2
_geom_bond_distance
_geom_bond_site_symmetry_2
Co0_0 Mo0_4 2.607017 1_555
Co0_0 Mo0_5 2.607017 1_555
Co0_0 Mo0_2 2.607017 1_545
Co0_0 Mo0_3 2.607017 1_545
Co0_0 Mo0_1 2.607020 1_555
Co0_0 Mo0_0 2.607020 1_555
Co0_0 Co0_2 2.694928 1_545
Co0_0 Co0_4 2.694928 1_555
Co0_0 Co0_2 2.694928 1_555
Co0_0 Co0_4 2.694928 1_455
Co0_0 Co0_6 2.694928 1_555
Co0_0 Co0_6 2.694928 1_445
Co0_1 Mo0_4 2.607017 1_556
Co0_1 Mo0_2 2.607017 1_546
Co0_1 Mo0_5 2.607017 1_555
Co0_1 Mo0_3 2.607017 1_545
Co0_1 Mo0_0 2.607020 1_556
Co0_1 Mo0_1 2.607020 1_555
Co0_1 Co0_5 2.694928 1_555
Co0_1 Co0_3 2.694928 1_545
Co0_1 Co0_3 2.694928 1_555
Co0_1 Co0_5 2.694928 1_455
Co0_1 Co0_7 2.694928 1_555
Co0_1 Co0_7 2.694928 1_445
Co0_2 Mo0_6 2.607017 1_555
Co0_2 Mo0_7 2.607017 1_555
Co0_2 Mo0_1 2.607017 1_555
Co0_2 Mo0_0 2.607017 1_555
Co0_2 Mo0_3 2.607020 1_555
Co0_2 Mo0_2 2.607020 1_555
Co0_2 Co0_6 2.694928 1_555
Co0_2 Co0_6 2.694928 1_455
Co0_2 Co0_4 2.694928 1_455
Co0_2 Co0_4 2.694928 1_565
Co0_3 Mo0_6 2.607017 1_556
Co0_3 Mo0_0 2.607017 1_556
Co0_3 Mo0_7 2.607017 1_555
Co0_3 Mo0_1 2.607017 1_555
Co0_3 Mo0_2 2.607020 1_556
Co0_3 Mo0_3 2.607020 1_555
Co0_3 Co0_7 2.694928 1_555
Co0_3 Co0_7 2.694928 1_455
Co0_3 Co0_5 2.694928 1_565
Co0_3 Co0_5 2.694928 1_455
Co0_4 Mo0_6 2.607017 1_545
Co0_4 Mo0_0 2.607017 1_655
Co0_4 Mo0_7 2.607017 1_545
Co0_4 Mo0_1 2.607017 1_655
Co0_4 Mo0_4 2.607020 1_555
Co0_4 Mo0_5 2.607020 1_555
Co0_4 Co0_6 2.694928 1_555
Co0_4 Co0_6 2.694928 1_545
Co0_5 Mo0_0 2.607017 1_656
Co0_5 Mo0_6 2.607017 1_546
Co0_5 Mo0_7 2.607017 1_545
Co0_5 Mo0_1 2.607017 1_655
Co0_5 Mo0_4 2.607020 1_556
Co0_5 Mo0_5 2.607020 1_555
Co0_5 Co0_7 2.694928 1_555
Co0_5 Co0_7 2.694928 1_545
Co0_6 Mo0_4 2.607017 1_555
Co0_6 Mo0_5 2.607017 1_555
Co0_6 Mo0_3 2.607017 1_655
Co0_6 Mo0_2 2.607017 1_655
Co0_6 Mo0_7 2.607020 1_555
Co0_6 Mo0_6 2.607020 1_555
Co0_7 Mo0_4 2.607017 1_556
Co0_7 Mo0_2 2.607017 1_656
Co0_7 Mo0_5 2.607017 1_555
Co0_7 Mo0_3 2.607017 1_655
Co0_7 Mo0_6 2.607020 1_556
Co0_7 Mo0_7 2.607020 1_555
Mo0_0 Mo0_4 2.694928 1_555
Mo0_0 Mo0_2 2.694928 1_545
Mo0_0 Mo0_4 2.694928 1_455
Mo0_0 Mo0_2 2.694928 1_555
Mo0_0 Mo0_6 2.694928 1_555
Mo0_0 Mo0_6 2.694928 1_445
Mo0_1 Mo0_5 2.694928 1_555
Mo0_1 Mo0_3 2.694928 1_545
Mo0_1 Mo0_3 2.694928 1_555
Mo0_1 Mo0_5 2.694928 1_455
Mo0_1 Mo0_7 2.694928 1_555
Mo0_1 Mo0_7 2.694928 1_445
Mo0_2 Mo0_6 2.694928 1_555
Mo0_2 Mo0_6 2.694928 1_455
Mo0_2 Mo0_4 2.694928 1_565
Mo0_2 Mo0_4 2.694928 1_455
Mo0_3 Mo0_7 2.694928 1_555
Mo0_3 Mo0_7 2.694928 1_455
Mo0_3 Mo0_5 2.694928 1_565
Mo0_3 Mo0_5 2.694928 1_455
Mo0_4 Mo0_6 2.694928 1_545
Mo0_4 Mo0_6 2.694928 1_555
Mo0_5 Mo0_7 2.694928 1_545
Mo0_5 Mo0_7 2.694928 1_555
