# generated using pymatgen
data_NaAl6Fe3Si6B3O30F
_symmetry_space_group_name_H-M   'P 1'
_cell_length_a   9.56705400
_cell_length_b   9.56705400
_cell_length_c   9.56705357
_cell_angle_alpha   113.73276201
_cell_angle_beta   113.73276201
_cell_angle_gamma   113.73275706
_symmetry_Int_Tables_number   1
_chemical_formula_structural   NaAl6Fe3Si6B3O30F
_chemical_formula_sum   'Na1 Al6 Fe3 Si6 B3 O30 F1'
_cell_volume   542.38781090
_cell_formula_units_Z   1
loop_
 _symmetry_equiv_pos_site_id
 _symmetry_equiv_pos_as_xyz
  1  'x, y, z'
loop_
 _atom_site_type_symbol
 _atom_site_label
 _atom_site_symmetry_multiplicity
 _atom_site_fract_x
 _atom_site_fract_y
 _atom_site_fract_z
 _atom_site_occupancy
  Na  Na0  1  0.78164300  0.78164300  0.78164300  1
  Al  Al0  1  0.43627000  0.09548600  0.65425400  1
  Al  Al1  1  0.65425400  0.43627000  0.09548600  1
  Al  Al2  1  0.43627000  0.65425400  0.09548600  1
  Al  Al3  1  0.65425400  0.09548600  0.43627000  1
  Al  Al4  1  0.09548600  0.65425400  0.43627000  1
  Al  Al5  1  0.09548600  0.43627000  0.65425400  1
  Fe  Fe0  1  0.45093300  0.24521800  0.45093300  1
  Fe  Fe1  1  0.24521800  0.45093300  0.45093300  1
  Fe  Fe2  1  0.45093300  0.45093300  0.24521800  1
  Si  Si0  1  0.19399500  0.00343500  0.81073100  1
  Si  Si1  1  0.81073100  0.19399500  0.00343500  1
  Si  Si2  1  0.00343500  0.19399500  0.81073100  1
  Si  Si3  1  0.19399500  0.81073100  0.00343500  1
  Si  Si4  1  0.81073100  0.00343500  0.19399500  1
  Si  Si5  1  0.00343500  0.81073100  0.19399500  1
  B  B0  1  0.43509100  0.43509100  0.76765900  1
  B  B1  1  0.43509100  0.76765900  0.43509100  1
  B  B2  1  0.76765900  0.43509100  0.43509100  1
  O  O0  1  0.34917500  0.82910200  0.49882200  1
  O  O1  1  0.82910200  0.49882200  0.34917500  1
  O  O2  1  0.49882200  0.34917500  0.82910200  1
  O  O3  1  0.49882200  0.82910200  0.34917500  1
  O  O4  1  0.82910200  0.34917500  0.49882200  1
  O  O5  1  0.34917500  0.49882200  0.82910200  1
  O  O6  1  0.63874800  0.21150600  0.92473500  1
  O  O7  1  0.21150600  0.92473500  0.63874800  1
  O  O8  1  0.92473500  0.63874800  0.21150600  1
  O  O9  1  0.92473500  0.21150600  0.63874800  1
  O  O10  1  0.21150600  0.63874800  0.92473500  1
  O  O11  1  0.63874800  0.92473500  0.21150600  1
  O  O12  1  0.03097600  0.41478500  0.22992300  1
  O  O13  1  0.41478500  0.22992300  0.03097600  1
  O  O14  1  0.22992300  0.03097600  0.41478500  1
  O  O15  1  0.22992300  0.41478500  0.03097600  1
  O  O16  1  0.41478500  0.03097600  0.22992300  1
  O  O17  1  0.45432600  0.45432600  0.63762000  1
  O  O18  1  0.63762000  0.45432600  0.45432600  1
  O  O19  1  0.45432600  0.63762000  0.45432600  1
  O  O20  1  0.20811100  0.60805400  0.60805400  1
  O  O21  1  0.60805400  0.20811100  0.60805400  1
  O  O22  1  0.60805400  0.60805400  0.20811100  1
  O  O23  1  0.83356500  0.83356500  0.11329400  1
  O  O24  1  0.11329400  0.83356500  0.83356500  1
  O  O25  1  0.83356500  0.11329400  0.83356500  1
  O  O26  1  0.73853500  0.01237100  0.01237100  1
  O  O27  1  0.01237100  0.73853500  0.01237100  1
  O  O28  1  0.01237100  0.01237100  0.73853500  1
  O  O29  1  0.03097600  0.22992300  0.41478500  1
  F  F0  1  0.23028200  0.23028200  0.23028200  1
loop_
_geom_bond_atom_site_label_1
_geom_bond_atom_site_label_2
_geom_bond_distance
_geom_bond_site_symmetry_2
Na0 O19 2.582837 1_555
Na0 O18 2.582837 1_555
Na0 O17 2.582838 1_555
Na0 O26 2.731054 1_566
Na0 O27 2.731054 1_656
Na0 O28 2.731054 1_665
Na0 O23 2.797311 1_556
Na0 O24 2.797311 1_655
Na0 O25 2.797311 1_565
Al0 O21 1.897364 1_555
Al0 O6 1.898156 1_555
Al0 O0 1.908735 1_545
Al0 O14 1.940981 1_555
Al0 O2 1.950381 1_555
Al0 O7 2.008762 1_545
Al1 O22 1.897364 1_555
Al1 O8 1.898156 1_555
Al1 O2 1.908735 1_554
Al1 O13 1.940981 1_555
Al1 O1 1.950381 1_555
Al1 O6 2.008762 1_554
Al2 O22 1.897364 1_555
Al2 O11 1.898156 1_555
Al2 O5 1.908735 1_554
Al2 O15 1.940981 1_555
Al2 O3 1.950381 1_555
Al2 O10 2.008762 1_554
Al3 O21 1.897364 1_555
Al3 O9 1.898156 1_555
Al3 O3 1.908735 1_545
Al3 O16 1.940981 1_555
Al3 O4 1.950381 1_555
Al3 O11 2.008762 1_545
Al4 O20 1.897364 1_555
Al4 O7 1.898156 1_555
Al4 O1 1.908735 1_455
Al4 O12 1.940981 1_555
Al4 O0 1.950381 1_555
Al4 O8 2.008762 1_455
Al5 O20 1.897364 1_555
Al5 O10 1.898156 1_555
Al5 O4 1.908735 1_455
Al5 O29 1.940981 1_555
Al5 O5 1.950381 1_555
Al5 O9 2.008762 1_455
Fe0 O21 1.919748 1_555
Fe0 O16 2.035635 1_555
Fe0 O14 2.035636 1_555
Fe0 O17 2.053812 1_555
Fe0 O18 2.053812 1_555
Fe1 O20 1.919748 1_555
Fe1 O12 2.035635 1_555
Fe1 O29 2.035636 1_555
Fe1 O17 2.053812 1_555
Fe1 O19 2.053812 1_555
Fe2 O22 1.919749 1_555
Fe2 O15 2.035635 1_555
Fe2 O13 2.035635 1_555
Fe2 O18 2.053812 1_555
Fe2 O19 2.053812 1_555
B0 O2 1.377229 1_555
B0 O5 1.377229 1_555
B0 O17 1.398856 1_555
B1 O0 1.377229 1_555
B1 O3 1.377229 1_555
B1 O19 1.398856 1_555
B2 O4 1.377229 1_555
B2 O1 1.377229 1_555
B2 O18 1.398856 1_555
O6 Si1 1.621241 1_556
O7 Si0 1.621241 1_565
O8 Si5 1.621242 1_655
O9 Si2 1.621241 1_655
O10 Si3 1.621241 1_556
O11 Si4 1.621242 1_565
O12 Si1 1.629357 1_455
O13 Si0 1.629357 1_554
O14 Si5 1.629357 1_545
O15 Si2 1.629357 1_554
O16 Si3 1.629357 1_545
O23 Si4 1.642100 1_565
O23 Si5 1.642100 1_655
O24 Si3 1.642100 1_556
O24 Si0 1.642100 1_565
O25 Si1 1.642100 1_556
O25 Si2 1.642100 1_655
O26 Si4 1.644595 1_555
O26 Si1 1.644595 1_555
O27 Si5 1.644595 1_555
O27 Si3 1.644595 1_555
O28 Si2 1.644595 1_555
O28 Si0 1.644595 1_555
O29 Si4 1.629357 1_455
F0 Fe1 2.204600 1_555
F0 Fe0 2.204600 1_555
F0 Fe2 2.204601 1_555
