# generated using pymatgen
data_SrTa2O7
_symmetry_space_group_name_H-M   'P 1'
_cell_length_a   9.91398906
_cell_length_b   9.91398906
_cell_length_c   9.91398906
_cell_angle_alpha   156.86141707
_cell_angle_beta   156.86141707
_cell_angle_gamma   32.95330305
_symmetry_Int_Tables_number   1
_chemical_formula_structural   SrTa2O7
_chemical_formula_sum   'Sr1 Ta2 O7'
_cell_volume   150.33234298
_cell_formula_units_Z   1
loop_
 _symmetry_equiv_pos_site_id
 _symmetry_equiv_pos_as_xyz
  1  'x, y, z'
loop_
 _atom_site_type_symbol
 _atom_site_label
 _atom_site_symmetry_multiplicity
 _atom_site_fract_x
 _atom_site_fract_y
 _atom_site_fract_z
 _atom_site_occupancy
  Sr  Sr0  1  0.00000000  0.00000000  0.00000000  1
  Ta  Ta0  1  0.61512600  0.61512600  0.00000000  1
  Ta  Ta1  1  0.38487400  0.38487400  0.00000000  1
  O  O0  1  0.90046300  0.40046300  0.50000000  1
  O  O1  1  0.40046300  0.90046300  0.50000000  1
  O  O2  1  0.09953700  0.59953700  0.50000000  1
  O  O3  1  0.59953700  0.09953700  0.50000000  1
  O  O4  1  0.71148700  0.71148700  0.00000000  1
  O  O5  1  0.28851300  0.28851300  0.00000000  1
  O  O6  1  0.50000000  0.50000000  0.00000000  1
loop_
_geom_bond_atom_site_label_1
_geom_bond_atom_site_label_2
_geom_bond_distance
_geom_bond_site_symmetry_2
O0 Ta1 2.010251 1_656
O0 Ta1 2.010251 1_555
O0 Sr0 2.745010 1_655
O0 Sr0 2.745010 1_666
O1 Ta1 2.010251 1_566
O1 Ta1 2.010251 1_555
O1 Sr0 2.745010 1_565
O1 Sr0 2.745010 1_666
O2 Ta0 2.010251 1_455
O2 Ta0 2.010251 1_556
O2 Sr0 2.745010 1_566
O2 Sr0 2.745010 1_555
O3 Ta0 2.010251 1_556
O3 Ta0 2.010251 1_545
O3 Sr0 2.745010 1_555
O3 Sr0 2.745010 1_656
O4 Ta0 1.832184 1_555
O5 Ta1 1.832184 1_555
O6 Ta0 2.188977 1_555
O6 Ta1 2.188977 1_555
O6 Sr0 2.811851 1_565
O6 Sr0 2.811851 1_666
O6 Sr0 2.811851 1_655
O6 Sr0 2.811851 1_554
