# generated using pymatgen
data_MgAl2O4
_symmetry_space_group_name_H-M   'P 1'
_cell_length_a   2.82057934
_cell_length_b   5.15983900
_cell_length_c   5.79384667
_cell_angle_alpha   116.44226528
_cell_angle_beta   89.99917104
_cell_angle_gamma   89.99996314
_symmetry_Int_Tables_number   1
_chemical_formula_structural   MgAl2O4
_chemical_formula_sum   'Mg1 Al2 O4'
_cell_volume   75.50062843
_cell_formula_units_Z   1
loop_
 _symmetry_equiv_pos_site_id
 _symmetry_equiv_pos_as_xyz
  1  'x, y, z'
loop_
 _atom_site_type_symbol
 _atom_site_label
 _atom_site_symmetry_multiplicity
 _atom_site_fract_x
 _atom_site_fract_y
 _atom_site_fract_z
 _atom_site_occupancy
  Mg  Mg0  1  0.49990300  0.86029300  0.22057400  1
  Al  Al0  1  0.99998100  0.10818700  0.71637300  1
  Al  Al1  1  0.50008700  0.62510800  0.75021500  1
  O  O0  1  0.99997000  0.94544000  0.94894200  1
  O  O1  1  0.50002100  0.24245800  0.54080200  1
  O  O2  1  0.99996800  0.50350400  0.94894500  1
  O  O3  1  0.50002000  0.79833500  0.54079900  1
loop_
_geom_bond_atom_site_label_1
_geom_bond_atom_site_label_2
_geom_bond_distance
_geom_bond_site_symmetry_2
Mg0 O1 2.018032 1_565
Mg0 O3 2.018097 1_555
Mg0 O0 2.296538 1_454
Mg0 O2 2.296548 1_454
Mg0 O0 2.296743 1_554
Mg0 O2 2.296743 1_554
Al0 O2 1.878441 1_555
Al0 O0 1.878453 1_545
Al0 O1 2.032497 1_555
Al0 O3 2.032520 1_545
Al0 O1 2.032633 1_655
Al0 O3 2.032651 1_645
Al1 O3 1.799144 1_555
Al1 O1 1.799151 1_555
Al1 O0 2.085861 1_555
Al1 O2 2.085877 1_555
Al1 O0 2.086283 1_455
Al1 O2 2.086309 1_455
