# generated using pymatgen
data_Cs2LiI3
_symmetry_space_group_name_H-M   'P 1'
_cell_length_a   4.76252378
_cell_length_b   8.77603867
_cell_length_c   13.26851678
_cell_angle_alpha   90.00948745
_cell_angle_beta   100.30175089
_cell_angle_gamma   89.98290349
_symmetry_Int_Tables_number   1
_chemical_formula_structural   Cs2LiI3
_chemical_formula_sum   'Cs4 Li2 I6'
_cell_volume   545.63219170
_cell_formula_units_Z   2
loop_
 _symmetry_equiv_pos_site_id
 _symmetry_equiv_pos_as_xyz
  1  'x, y, z'
loop_
 _atom_site_type_symbol
 _atom_site_label
 _atom_site_symmetry_multiplicity
 _atom_site_fract_x
 _atom_site_fract_y
 _atom_site_fract_z
 _atom_site_occupancy
  Cs  Cs0  1  0.32354710  0.99052820  0.64853013  1
  Cs  Cs1  1  0.67647592  0.49082298  0.35142003  1
  Cs  Cs2  1  0.49451704  0.48598404  0.98995512  1
  Cs  Cs3  1  0.50525374  0.98620562  0.01012530  1
  Li  Li0  1  0.15091861  0.98343888  0.29962284  1
  Li  Li1  1  0.84916904  0.48348378  0.70037298  1
  I  I0  1  0.91017297  0.22906873  0.82744288  1
  I  I1  1  0.08972684  0.72891032  0.17256648  1
  I  I2  1  0.29150162  0.47438746  0.58480498  1
  I  I3  1  0.70823908  0.97429023  0.41512171  1
  I  I4  1  0.91441703  0.73997794  0.82387584  1
  I  I5  1  0.08606000  0.23984382  0.17616171  1
loop_
_geom_bond_atom_site_label_1
_geom_bond_atom_site_label_2
_geom_bond_distance
_geom_bond_site_symmetry_2
Cs0 I3 3.866924 1_455
Cs0 I3 3.872636 1_555
Cs0 I0 3.931040 1_565
Cs0 I0 3.944765 1_465
Cs0 I4 3.958552 1_455
Cs0 I4 3.977811 1_555
Cs0 I2 4.327183 1_565
Cs1 I2 3.865928 1_655
Cs1 I2 3.873332 1_555
Cs1 I1 3.928433 1_555
Cs1 I1 3.942797 1_655
Cs1 I5 3.960078 1_655
Cs1 I5 3.978562 1_555
Cs1 I3 4.323562 1_555
Cs2 I0 3.895435 1_555
Cs2 I4 3.908693 1_455
Cs2 I0 3.915858 1_455
Cs2 I4 3.924824 1_555
Cs2 I1 3.974794 1_556
Cs2 I1 3.999600 1_656
Cs2 I5 4.026898 1_656
Cs2 I5 4.034587 1_556
Cs3 I1 3.897483 1_555
Cs3 I5 3.909230 1_665
Cs3 I1 3.917210 1_655
Cs3 I5 3.919537 1_565
Cs3 I0 3.976565 1_564
Cs3 I0 3.998914 1_464
Cs3 I4 4.026068 1_454
Cs3 I4 4.036326 1_554
I0 Li1 2.781719 1_555
I1 Li0 2.782101 1_555
I2 Li1 2.819719 1_455
I2 Li1 2.820465 1_555
I3 Li0 2.818708 1_555
I3 Li0 2.820556 1_655
I4 Li1 2.768750 1_555
I5 Li0 2.768077 1_545
