# generated using pymatgen
data_CaTi2Fe2(PO4)6
_symmetry_space_group_name_H-M   'P 1'
_cell_length_a   8.83943627
_cell_length_b   8.83943627
_cell_length_c   8.83943593
_cell_angle_alpha   58.76724122
_cell_angle_beta   58.76724122
_cell_angle_gamma   58.76724509
_symmetry_Int_Tables_number   1
_chemical_formula_structural   CaTi2Fe2(PO4)6
_chemical_formula_sum   'Ca1 Ti2 Fe2 P6 O24'
_cell_volume   474.62925610
_cell_formula_units_Z   1
loop_
 _symmetry_equiv_pos_site_id
 _symmetry_equiv_pos_as_xyz
  1  'x, y, z'
loop_
 _atom_site_type_symbol
 _atom_site_label
 _atom_site_symmetry_multiplicity
 _atom_site_fract_x
 _atom_site_fract_y
 _atom_site_fract_z
 _atom_site_occupancy
  Ca  Ca0  1  0.00111900  0.00111900  0.00111900  1
  Ti  Ti0  1  0.85156600  0.85156600  0.85156600  1
  Ti  Ti1  1  0.36260200  0.36260200  0.36260200  1
  Fe  Fe0  1  0.64198200  0.64198200  0.64198200  1
  Fe  Fe1  1  0.14757900  0.14757900  0.14757900  1
  P  P0  1  0.25043500  0.96429600  0.53878600  1
  P  P1  1  0.96429600  0.53878600  0.25043500  1
  P  P2  1  0.53878600  0.25043500  0.96429600  1
  P  P3  1  0.45880700  0.75232400  0.03374000  1
  P  P4  1  0.03374000  0.45880700  0.75232400  1
  P  P5  1  0.75232400  0.03374000  0.45880700  1
  O  O0  1  0.71693600  0.86822800  0.48722300  1
  O  O1  1  0.48722300  0.71693600  0.86822800  1
  O  O2  1  0.07995200  0.94051600  0.72734200  1
  O  O3  1  0.86822800  0.48722300  0.71693600  1
  O  O4  1  0.21048700  0.99231500  0.37534900  1
  O  O5  1  0.41844100  0.78065200  0.56099200  1
  O  O6  1  0.94051600  0.72734200  0.07995200  1
  O  O7  1  0.78065200  0.56099200  0.41844100  1
  O  O8  1  0.62691800  0.79668500  0.99660400  1
  O  O9  1  0.56099200  0.41844100  0.78065200  1
  O  O10  1  0.27388200  0.92040300  0.06135400  1
  O  O11  1  0.99660400  0.62691800  0.79668500  1
  O  O12  1  0.99231500  0.37534900  0.21048700  1
  O  O13  1  0.72734200  0.07995200  0.94051600  1
  O  O14  1  0.44265300  0.57825500  0.21468100  1
  O  O15  1  0.37534900  0.21048700  0.99231500  1
  O  O16  1  0.21468100  0.44265300  0.57825500  1
  O  O17  1  0.06135400  0.27388200  0.92040300  1
  O  O18  1  0.57825500  0.21468100  0.44265300  1
  O  O19  1  0.79668500  0.99660400  0.62691800  1
  O  O20  1  0.13342600  0.50257000  0.28915700  1
  O  O21  1  0.92040300  0.06135400  0.27388200  1
  O  O22  1  0.50257000  0.28915700  0.13342600  1
  O  O23  1  0.28915700  0.13342600  0.50257000  1
loop_
_geom_bond_atom_site_label_1
_geom_bond_atom_site_label_2
_geom_bond_distance
_geom_bond_site_symmetry_2
Ca0 O21 2.399832 1_455
Ca0 O17 2.399832 1_554
Ca0 O10 2.399832 1_545
Ca0 O2 2.416111 1_544
Ca0 O6 2.416111 1_445
Ca0 O13 2.416111 1_454
Fe0 O0 1.976600 1_555
Fe0 O1 1.976600 1_555
Fe0 O3 1.976600 1_555
Fe0 O7 1.991155 1_555
Fe0 O9 1.991155 1_555
Fe0 O5 1.991155 1_555
Fe1 O4 1.936614 1_545
Fe1 O15 1.936614 1_554
Fe1 O12 1.936614 1_455
Fe1 O17 2.059047 1_554
Fe1 O21 2.059047 1_455
Fe1 O10 2.059047 1_545
O0 P5 1.520996 1_565
O1 P3 1.520996 1_556
O2 P0 1.566392 1_555
O2 Ti0 2.086005 1_455
O3 P4 1.520996 1_655
O4 P0 1.529852 1_555
O5 P0 1.533286 1_555
O6 P1 1.566392 1_555
O6 Ti0 2.086005 1_554
O7 P1 1.533286 1_555
O8 P3 1.560341 1_556
O8 Ti0 1.880463 1_555
O9 P2 1.533286 1_555
O10 P3 1.543612 1_555
O11 P4 1.560341 1_655
O11 Ti0 1.880463 1_555
O12 P1 1.529852 1_555
O13 P2 1.566392 1_555
O13 Ti0 2.086005 1_545
O14 P3 1.544321 1_555
O14 Ti1 1.923200 1_555
O15 P2 1.529852 1_555
O16 P4 1.544321 1_555
O16 Ti1 1.923200 1_555
O17 P4 1.543612 1_555
O18 P5 1.544321 1_555
O18 Ti1 1.923200 1_555
O19 P5 1.560341 1_565
O19 Ti0 1.880463 1_555
O20 P1 1.541239 1_455
O20 Ti1 1.996934 1_555
O21 P5 1.543612 1_555
O22 P2 1.541239 1_554
O22 Ti1 1.996933 1_555
O23 P0 1.541239 1_545
O23 Ti1 1.996933 1_555
