# generated using pymatgen
data_La3Zr2Cu7O12
_symmetry_space_group_name_H-M   'P 1'
_cell_length_a   11.58539924
_cell_length_b   11.58539924
_cell_length_c   11.58539924
_cell_angle_alpha   107.51696587
_cell_angle_beta   107.51696587
_cell_angle_gamma   113.45468321
_symmetry_Int_Tables_number   1
_chemical_formula_structural   La3Zr2Cu7O12
_chemical_formula_sum   'La12 Zr8 Cu28 O48'
_cell_volume   1192.67536895
_cell_formula_units_Z   4
loop_
 _symmetry_equiv_pos_site_id
 _symmetry_equiv_pos_as_xyz
  1  'x, y, z'
loop_
 _atom_site_type_symbol
 _atom_site_label
 _atom_site_symmetry_multiplicity
 _atom_site_fract_x
 _atom_site_fract_y
 _atom_site_fract_z
 _atom_site_occupancy
  La  La0  1  0.50000000  0.00000000  0.50000000  1
  La  La1  1  0.00000000  0.50000000  0.50000000  1
  La  La2  1  0.75000000  0.75000000  0.00000000  1
  La  La3  1  0.25000000  0.25000000  0.00000000  1
  La  La4  1  0.87500000  0.99689100  0.62189100  1
  La  La5  1  0.87500000  0.49689100  0.12189100  1
  La  La6  1  0.74689100  0.12500000  0.12189100  1
  La  La7  1  0.50310900  0.62500000  0.37810900  1
  La  La8  1  0.37500000  0.75310900  0.87810900  1
  La  La9  1  0.37500000  0.25310900  0.37810900  1
  La  La10  1  0.24689100  0.12500000  0.62189100  1
  La  La11  1  0.00310900  0.62500000  0.87810900  1
  Zr  Zr0  1  0.62500000  0.87500000  0.75000000  1
  Zr  Zr1  1  0.62500000  0.37500000  0.25000000  1
  Zr  Zr2  1  0.62500000  0.87500000  0.25000000  1
  Zr  Zr3  1  0.12500000  0.37500000  0.25000000  1
  Zr  Zr4  1  0.12500000  0.37500000  0.75000000  1
  Zr  Zr5  1  0.12500000  0.87500000  0.25000000  1
  Zr  Zr6  1  0.12500000  0.87500000  0.75000000  1
  Zr  Zr7  1  0.62500000  0.37500000  0.75000000  1
  Cu  Cu0  1  0.75000000  0.25000000  0.50000000  1
  Cu  Cu1  1  0.25000000  0.75000000  0.50000000  1
  Cu  Cu2  1  0.00000000  0.00000000  0.00000000  1
  Cu  Cu3  1  0.50000000  0.50000000  0.00000000  1
  Cu  Cu4  1  0.32939600  0.82939600  0.15879100  1
  Cu  Cu5  1  0.17060400  0.32939600  0.50000000  1
  Cu  Cu6  1  0.57939600  0.57939600  0.65879100  1
  Cu  Cu7  1  0.42060400  0.07939600  0.00000000  1
  Cu  Cu8  1  0.92060400  0.92060400  0.34120900  1
  Cu  Cu9  1  0.07939600  0.42060400  0.00000000  1
  Cu  Cu10  1  0.67060400  0.17060400  0.84120900  1
  Cu  Cu11  1  0.82939600  0.67060400  0.50000000  1
  Cu  Cu12  1  0.34738100  0.59429400  0.57364000  1
  Cu  Cu13  1  0.52065300  0.09429400  0.24691300  1
  Cu  Cu14  1  0.34429400  0.59738100  0.07364000  1
  Cu  Cu15  1  0.02374100  0.09738100  0.25308700  1
  Cu  Cu16  1  0.90261900  0.15570600  0.92636000  1
  Cu  Cu17  1  0.72934700  0.65570600  0.25308700  1
  Cu  Cu18  1  0.90570600  0.15261900  0.42636000  1
  Cu  Cu19  1  0.22625900  0.65261900  0.24691300  1
  Cu  Cu20  1  0.84738100  0.27374100  0.75308700  1
  Cu  Cu21  1  0.02065300  0.77374100  0.42636000  1
  Cu  Cu22  1  0.84429400  0.77065300  0.74691300  1
  Cu  Cu23  1  0.52374100  0.27065300  0.92636000  1
  Cu  Cu24  1  0.40261900  0.47625900  0.74691300  1
  Cu  Cu25  1  0.22934700  0.97625900  0.07364000  1
  Cu  Cu26  1  0.40570600  0.97934700  0.75308700  1
  Cu  Cu27  1  0.72625900  0.47934700  0.57364000  1
  O  O0  1  0.71612600  0.05310900  0.70827500  1
  O  O1  1  0.84483400  0.55310900  0.33698300  1
  O  O2  1  0.80310900  0.96612600  0.20827500  1
  O  O3  1  0.25785100  0.46612600  0.16301700  1
  O  O4  1  0.53387400  0.69689100  0.79172500  1
  O  O5  1  0.40516600  0.19689100  0.16301700  1
  O  O6  1  0.44689100  0.78387400  0.29172500  1
  O  O7  1  0.99214900  0.28387400  0.33698300  1
  O  O8  1  0.21612600  0.50785100  0.66301700  1
  O  O9  1  0.34483400  0.00785100  0.29172500  1
  O  O10  1  0.30310900  0.09483400  0.83698300  1
  O  O11  1  0.75785100  0.59483400  0.79172500  1
  O  O12  1  0.03387400  0.24214900  0.83698300  1
  O  O13  1  0.90516600  0.74214900  0.20827500  1
  O  O14  1  0.94689100  0.65516600  0.66301700  1
  O  O15  1  0.49214900  0.15516600  0.70827500  1
  O  O16  1  0.29884400  0.35021200  0.83281100  1
  O  O17  1  0.01740200  0.85021200  0.05136800  1
  O  O18  1  0.10021200  0.54884400  0.33281100  1
  O  O19  1  0.71603300  0.04884400  0.44863200  1
  O  O20  1  0.95115600  0.39978800  0.66718900  1
  O  O21  1  0.23259800  0.89978800  0.44863200  1
  O  O22  1  0.14978800  0.20115600  0.16718900  1
  O  O23  1  0.53396700  0.70115600  0.05136800  1
  O  O24  1  0.79884400  0.96603300  0.94863200  1
  O  O25  1  0.51740200  0.46603300  0.16718900  1
  O  O26  1  0.60021200  0.26740200  0.55136800  1
  O  O27  1  0.21603300  0.76740200  0.66718900  1
  O  O28  1  0.45115600  0.78396700  0.55136800  1
  O  O29  1  0.73259800  0.28396700  0.33281100  1
  O  O30  1  0.64978800  0.48259800  0.94863200  1
  O  O31  1  0.03396700  0.98259800  0.83281100  1
  O  O32  1  0.04902600  0.17298000  0.58582800  1
  O  O33  1  0.08715200  0.67298000  0.12395400  1
  O  O34  1  0.92298000  0.29902600  0.08582800  1
  O  O35  1  0.71319900  0.79902600  0.37604600  1
  O  O36  1  0.20097400  0.57702000  0.91417200  1
  O  O37  1  0.16284800  0.07702000  0.37604600  1
  O  O38  1  0.32702000  0.45097400  0.41417200  1
  O  O39  1  0.53680100  0.95097400  0.12395400  1
  O  O40  1  0.54902600  0.96319900  0.87604600  1
  O  O41  1  0.58715200  0.46319900  0.41417200  1
  O  O42  1  0.42298000  0.33715200  0.62395400  1
  O  O43  1  0.21319900  0.83715200  0.91417200  1
  O  O44  1  0.70097400  0.78680100  0.62395400  1
  O  O45  1  0.66284800  0.28680100  0.08582800  1
  O  O46  1  0.82702000  0.41284800  0.87604600  1
  O  O47  1  0.03680100  0.91284800  0.58582800  1
loop_
_geom_bond_atom_site_label_1
_geom_bond_atom_site_label_2
_geom_bond_distance
_geom_bond_site_symmetry_2
La0 O15 2.591001 1_555
La0 O9 2.591001 1_555
La0 O0 2.591001 1_555
La0 O6 2.591001 1_545
La0 O28 2.628774 1_545
La0 O19 2.628774 1_555
La0 O26 2.628785 1_555
La0 O21 2.628785 1_545
La1 O14 2.591001 1_455
La1 O8 2.591001 1_555
La1 O7 2.591001 1_455
La1 O1 2.591001 1_455
La1 O18 2.628774 1_555
La1 O20 2.628774 1_455
La1 O27 2.628781 1_555
La1 O29 2.628781 1_455
La2 O11 2.591001 1_554
La2 O2 2.591001 1_555
La2 O4 2.591001 1_554
La2 O13 2.591001 1_555
La2 O23 2.628774 1_555
La2 O24 2.628774 1_554
La2 O30 2.628785 1_554
La2 O17 2.628785 1_655
La3 O10 2.591001 1_554
La3 O3 2.591001 1_555
La3 O5 2.591001 1_555
La3 O12 2.591001 1_554
La3 O22 2.628774 1_555
La3 O16 2.628774 1_554
La3 O25 2.628781 1_555
La3 O31 2.628781 1_544
La4 O32 2.479369 1_665
La4 O44 2.479377 1_555
La4 O47 2.513157 1_655
La4 O35 2.513167 1_555
La4 O12 2.546464 1_665
La4 O0 2.546464 1_565
La4 O19 2.677240 1_565
La4 O31 2.677247 1_655
La5 O33 2.479369 1_655
La5 O45 2.479376 1_555
La5 O46 2.513168 1_554
La5 O34 2.513168 1_555
La5 O13 2.546464 1_555
La5 O1 2.546464 1_555
La5 O30 2.677233 1_554
La5 O18 2.677240 1_655
La6 O34 2.479369 1_555
La6 O39 2.479377 1_545
La6 O45 2.513157 1_555
La6 O40 2.513167 1_544
La6 O7 2.546464 1_555
La6 O2 2.546464 1_545
La6 O24 2.677240 1_544
La6 O29 2.677247 1_555
La7 O38 2.479369 1_555
La7 O35 2.479377 1_555
La7 O41 2.513157 1_555
La7 O44 2.513167 1_555
La7 O6 2.546464 1_555
La7 O3 2.546464 1_555
La7 O28 2.677240 1_555
La7 O25 2.677247 1_555
La8 O36 2.479369 1_555
La8 O40 2.479377 1_555
La8 O43 2.513157 1_555
La8 O39 2.513167 1_556
La8 O4 2.546464 1_555
La8 O8 2.546464 1_555
La8 O23 2.677240 1_556
La8 O27 2.677247 1_555
La9 O37 2.479369 1_555
La9 O41 2.479376 1_555
La9 O42 2.513168 1_555
La9 O38 2.513168 1_555
La9 O9 2.546464 1_555
La9 O5 2.546464 1_555
La9 O26 2.677233 1_555
La9 O22 2.677240 1_555
La10 O42 2.479369 1_555
La10 O47 2.479376 1_545
La10 O37 2.513168 1_555
La10 O32 2.513168 1_555
La10 O15 2.546464 1_555
La10 O10 2.546464 1_555
La10 O21 2.677233 1_545
La10 O16 2.677240 1_555
La11 O46 2.479369 1_455
La11 O43 2.479376 1_555
La11 O33 2.513168 1_556
La11 O36 2.513168 1_555
La11 O11 2.546464 1_455
La11 O14 2.546464 1_455
La11 O17 2.677233 1_556
La11 O20 2.677240 1_455
Cu0 O29 2.057720 1_555
Cu0 O20 2.057721 1_555
Cu0 O19 2.057721 1_555
Cu0 O26 2.057725 1_555
Cu1 O27 2.057720 1_555
Cu1 O28 2.057721 1_555
Cu1 O18 2.057721 1_555
Cu1 O21 2.057725 1_555
Cu2 O31 2.057720 1_544
Cu2 O22 2.057721 1_555
Cu2 O24 2.057721 1_444
Cu2 O17 2.057725 1_545
Cu3 O25 2.057720 1_555
Cu3 O16 2.057721 1_554
Cu3 O23 2.057721 1_555
Cu3 O30 2.057725 1_554
Cu4 O9 2.073979 1_565
Cu4 O6 2.073981 1_555
Cu4 O39 2.480405 1_555
Cu4 O33 2.480426 1_555
Cu5 O8 2.073974 1_555
Cu5 O7 2.073974 1_455
Cu5 O38 2.480422 1_555
Cu5 O32 2.480422 1_555
Cu6 O11 2.073979 1_555
Cu6 O4 2.073981 1_555
Cu6 O44 2.480405 1_555
Cu6 O42 2.480426 1_555
Cu7 O5 2.073974 1_555
Cu7 O10 2.073974 1_554
Cu7 O45 2.480417 1_555
Cu7 O43 2.480417 1_544
Cu8 O13 2.073979 1_555
Cu8 O2 2.073981 1_555
Cu8 O35 2.480405 1_555
Cu8 O37 2.480426 1_665
Cu9 O12 2.073974 1_554
Cu9 O3 2.073974 1_555
Cu9 O34 2.480422 1_455
Cu9 O36 2.480422 1_554
Cu10 O15 2.073979 1_555
Cu10 O0 2.073981 1_555
Cu10 O40 2.480405 1_545
Cu10 O46 2.480426 1_555
Cu11 O14 2.073974 1_555
Cu11 O1 2.073974 1_555
Cu11 O41 2.480417 1_555
Cu11 O47 2.480417 1_655
Cu12 O38 1.950671 1_555
Cu12 O8 2.178834 1_555
Cu12 O28 2.183060 1_555
Cu12 O4 2.307888 1_555
Cu13 O39 1.950671 1_545
Cu13 O9 2.178824 1_555
Cu13 O29 2.183060 1_555
Cu13 O5 2.307880 1_555
Cu14 O36 1.950671 1_554
Cu14 O3 2.178834 1_555
Cu14 O23 2.183060 1_555
Cu14 O6 2.307888 1_555
Cu15 O37 1.950671 1_555
Cu15 O2 2.178834 1_445
Cu15 O22 2.183060 1_555
Cu15 O7 2.307888 1_455
Cu16 O34 1.950671 1_556
Cu16 O12 2.178834 1_655
Cu16 O24 2.183060 1_545
Cu16 O0 2.307888 1_555
Cu17 O35 1.950671 1_555
Cu17 O13 2.178824 1_555
Cu17 O25 2.183060 1_555
Cu17 O1 2.307880 1_555
Cu18 O32 1.950671 1_655
Cu18 O7 2.178834 1_555
Cu18 O19 2.183060 1_555
Cu18 O2 2.307888 1_545
Cu19 O33 1.950671 1_555
Cu19 O6 2.178834 1_555
Cu19 O18 2.183060 1_555
Cu19 O3 2.307888 1_555
Cu20 O46 1.950671 1_555
Cu20 O0 2.178834 1_555
Cu20 O20 2.183060 1_555
Cu20 O12 2.307888 1_655
Cu21 O47 1.950671 1_555
Cu21 O1 2.178830 1_455
Cu21 O21 2.183060 1_555
Cu21 O13 2.307886 1_455
Cu22 O44 1.950671 1_555
Cu22 O11 2.178824 1_555
Cu22 O31 2.183060 1_655
Cu22 O14 2.307880 1_555
Cu23 O45 1.950671 1_556
Cu23 O10 2.178830 1_555
Cu23 O30 2.183060 1_555
Cu23 O15 2.307886 1_555
Cu24 O42 1.950671 1_555
Cu24 O4 2.178834 1_555
Cu24 O16 2.183060 1_555
Cu24 O8 2.307888 1_555
Cu25 O43 1.950671 1_554
Cu25 O5 2.178830 1_565
Cu25 O17 2.183060 1_555
Cu25 O9 2.307886 1_565
Cu26 O40 1.950671 1_555
Cu26 O15 2.178824 1_565
Cu26 O27 2.183060 1_555
Cu26 O10 2.307880 1_565
Cu27 O41 1.950671 1_555
Cu27 O14 2.178830 1_555
Cu27 O26 2.183060 1_555
Cu27 O11 2.307886 1_555
O0 Zr0 2.186239 1_545
O1 Zr1 2.186239 1_555
O2 Zr2 2.186239 1_555
O3 Zr3 2.186239 1_555
O4 Zr0 2.186239 1_555
O5 Zr1 2.186239 1_555
O6 Zr2 2.186239 1_555
O7 Zr3 2.186239 1_655
O8 Zr4 2.186239 1_555
O9 Zr5 2.186239 1_545
O10 Zr6 2.186239 1_545
O11 Zr7 2.186239 1_555
O12 Zr4 2.186239 1_555
O13 Zr5 2.186239 1_655
O14 Zr6 2.186239 1_655
O15 Zr7 2.186239 1_555
O16 Zr4 2.126599 1_555
O17 Zr5 2.126596 1_555
O18 Zr3 2.126599 1_555
O19 Zr2 2.126599 1_545
O20 Zr4 2.126599 1_655
O21 Zr5 2.126596 1_555
O22 Zr3 2.126599 1_555
O23 Zr2 2.126599 1_555
O24 Zr0 2.126599 1_555
O25 Zr1 2.126591 1_555
O26 Zr7 2.126596 1_555
O27 Zr6 2.126591 1_555
O28 Zr0 2.126599 1_555
O29 Zr1 2.126591 1_555
O30 Zr7 2.126596 1_555
O31 Zr6 2.126591 1_555
O32 Zr4 2.131371 1_555
O33 Zr5 2.131371 1_555
O34 Zr3 2.131371 1_655
O35 Zr2 2.131376 1_555
O36 Zr4 2.131371 1_555
O37 Zr5 2.131371 1_545
O38 Zr3 2.131371 1_555
O39 Zr2 2.131376 1_555
O40 Zr0 2.131376 1_555
O41 Zr1 2.131375 1_555
O42 Zr7 2.131371 1_555
O43 Zr6 2.131375 1_555
O44 Zr0 2.131376 1_555
O45 Zr1 2.131375 1_555
O46 Zr7 2.131371 1_555
O47 Zr6 2.131375 1_555
