# generated using pymatgen
data_KSrPO4
_symmetry_space_group_name_H-M   'P 1'
_cell_length_a   5.54559488
_cell_length_b   7.34229123
_cell_length_c   9.62658206
_cell_angle_alpha   90.00000000
_cell_angle_beta   90.00000000
_cell_angle_gamma   90.00000000
_symmetry_Int_Tables_number   1
_chemical_formula_structural   KSrPO4
_chemical_formula_sum   'K4 Sr4 P4 O16'
_cell_volume   391.96912911
_cell_formula_units_Z   4
loop_
 _symmetry_equiv_pos_site_id
 _symmetry_equiv_pos_as_xyz
  1  'x, y, z'
loop_
 _atom_site_type_symbol
 _atom_site_label
 _atom_site_symmetry_multiplicity
 _atom_site_fract_x
 _atom_site_fract_y
 _atom_site_fract_z
 _atom_site_occupancy
  K  K0  1  0.25000000  0.65639781  0.08440252  1
  K  K1  1  0.75000000  0.84360219  0.58440252  1
  K  K2  1  0.75000000  0.34360219  0.91559748  1
  K  K3  1  0.25000000  0.15639781  0.41559748  1
  Sr  Sr0  1  0.75000000  0.50346144  0.30369503  1
  Sr  Sr1  1  0.75000000  0.00346144  0.19630497  1
  Sr  Sr2  1  0.25000000  -0.00346144  0.80369503  1
  Sr  Sr3  1  0.25000000  0.49653856  0.69630497  1
  P  P0  1  0.25000000  0.22803667  0.08320860  1
  P  P1  1  0.75000000  0.77196333  0.91679140  1
  P  P2  1  0.25000000  0.72803667  0.41679140  1
  P  P3  1  0.75000000  0.27196333  0.58320860  1
  O  O0  1  0.25000000  0.51877180  0.42314273  1
  O  O1  1  0.75000000  0.48122820  0.57685727  1
  O  O2  1  0.25000000  0.01877180  0.07685727  1
  O  O3  1  0.75000000  0.98122820  0.92314273  1
  O  O4  1  0.52190550  0.70711922  0.83966120  1
  O  O5  1  0.02190550  0.29288078  0.16033880  1
  O  O6  1  0.97809450  0.20711922  0.66033880  1
  O  O7  1  0.47809450  0.79288078  0.33966120  1
  O  O8  1  0.47809450  0.29288078  0.16033880  1
  O  O9  1  0.97809450  0.70711922  0.83966120  1
  O  O10  1  0.02190550  0.79288078  0.33966120  1
  O  O11  1  0.52190550  0.20711922  0.66033880  1
  O  O12  1  0.75000000  0.19371067  0.43380800  1
  O  O13  1  0.25000000  0.80628933  0.56619200  1
  O  O14  1  0.75000000  0.69371067  0.06619200  1
  O  O15  1  0.25000000  0.30628933  0.93380800  1
loop_
_geom_bond_atom_site_label_1
_geom_bond_atom_site_label_2
_geom_bond_distance
_geom_bond_site_symmetry_2
K0 O2 2.661647 1_565
K0 O14 2.791808 1_455
K0 O14 2.791808 1_555
K0 O9 2.821919 1_454
K0 O4 2.821919 1_554
K0 O10 2.939794 1_555
K0 O7 2.939794 1_555
K0 O15 2.951209 1_554
K0 O8 3.042731 1_555
K0 O5 3.042731 1_555
K1 O1 2.661647 1_555
K1 O13 2.791808 1_655
K1 O13 2.791808 1_555
K1 O10 2.821919 1_655
K1 O7 2.821919 1_555
K1 O9 2.939794 1_555
K1 O4 2.939794 1_555
K1 O12 2.951209 1_565
K1 O6 3.042731 1_565
K1 O11 3.042731 1_565
K2 O3 2.661647 1_545
K2 O15 2.791808 1_555
K2 O15 2.791808 1_655
K2 O5 2.821919 1_656
K2 O8 2.821919 1_556
K2 O11 2.939794 1_555
K2 O6 2.939794 1_555
K2 O14 2.951209 1_556
K2 O9 3.042731 1_555
K2 O4 3.042731 1_555
K3 O0 2.661647 1_555
K3 O12 2.791808 1_455
K3 O12 2.791808 1_555
K3 O6 2.821919 1_455
K3 O11 2.821919 1_555
K3 O5 2.939794 1_555
K3 O8 2.939794 1_555
K3 O13 2.951209 1_545
K3 O10 3.042731 1_545
K3 O7 3.042731 1_545
O0 P2 1.537700 1_555
O0 Sr3 2.634681 1_555
O0 Sr0 3.003873 1_455
O0 Sr0 3.003873 1_555
O1 P3 1.537700 1_555
O1 Sr0 2.634681 1_555
O1 Sr3 3.003873 1_655
O1 Sr3 3.003873 1_555
O2 P0 1.537700 1_555
O2 Sr2 2.634681 1_554
O2 Sr1 3.003873 1_455
O2 Sr1 3.003873 1_555
O3 P1 1.537700 1_555
O3 Sr1 2.634681 1_566
O3 Sr2 3.003873 1_565
O3 Sr2 3.003873 1_665
O4 P1 1.542078 1_555
O4 Sr3 2.562956 1_555
O4 Sr2 2.628536 1_565
O5 P0 1.542078 1_555
O5 Sr0 2.562956 1_455
O5 Sr1 2.628536 1_455
O6 P3 1.542078 1_555
O6 Sr2 2.562956 1_655
O6 Sr3 2.628536 1_655
O7 P2 1.542078 1_555
O7 Sr1 2.562956 1_565
O7 Sr0 2.628536 1_555
O8 P0 1.542078 1_555
O8 Sr0 2.562956 1_555
O8 Sr1 2.628536 1_555
O9 P1 1.542078 1_555
O9 Sr3 2.562956 1_655
O9 Sr2 2.628536 1_665
O10 P2 1.542078 1_555
O10 Sr1 2.562956 1_465
O10 Sr0 2.628536 1_455
O11 P3 1.542078 1_555
O11 Sr2 2.562956 1_555
O11 Sr3 2.628536 1_555
O12 P3 1.548735 1_555
O12 Sr0 2.596385 1_555
O12 Sr1 2.679290 1_555
O13 P2 1.548735 1_555
O13 Sr3 2.596385 1_555
O13 Sr2 2.679290 1_565
O14 P1 1.548735 1_554
O14 Sr1 2.596385 1_565
O14 Sr0 2.679290 1_555
O15 P0 1.548735 1_556
O15 Sr2 2.596385 1_555
O15 Sr3 2.679290 1_555
