# generated using pymatgen
data_TaVCN
_symmetry_space_group_name_H-M   'P 1'
_cell_length_a   5.28244128
_cell_length_b   5.28244128
_cell_length_c   5.28244193
_cell_angle_alpha   33.78339333
_cell_angle_beta   33.78339333
_cell_angle_gamma   33.78339834
_symmetry_Int_Tables_number   1
_chemical_formula_structural   TaVCN
_chemical_formula_sum   'Ta1 V1 C1 N1'
_cell_volume   40.61104038
_cell_formula_units_Z   1
loop_
 _symmetry_equiv_pos_site_id
 _symmetry_equiv_pos_as_xyz
  1  'x, y, z'
loop_
 _atom_site_type_symbol
 _atom_site_label
 _atom_site_symmetry_multiplicity
 _atom_site_fract_x
 _atom_site_fract_y
 _atom_site_fract_z
 _atom_site_occupancy
  Ta  Ta0  1  0.74584300  0.74584300  0.74584300  1
  V  V0  1  0.25906200  0.25906200  0.25906200  1
  C  C0  1  0.99457200  0.99457200  0.99457200  1
  N  N0  1  0.50052300  0.50052300  0.50052300  1
loop_
_geom_bond_atom_site_label_1
_geom_bond_atom_site_label_2
_geom_bond_distance
_geom_bond_site_symmetry_2
C0 V0 2.048761 1_656
C0 V0 2.048761 1_566
C0 V0 2.048761 1_665
C0 Ta0 2.176332 1_655
C0 Ta0 2.176332 1_565
C0 Ta0 2.176332 1_556
N0 Ta0 2.206257 1_545
N0 Ta0 2.206257 1_455
N0 Ta0 2.206257 1_554
N0 V0 2.241044 1_565
N0 V0 2.241044 1_655
N0 V0 2.241044 1_556
