# generated using pymatgen
data_Ti3Fe3(BiO3)7
_symmetry_space_group_name_H-M   'P 1'
_cell_length_a   4.04050192
_cell_length_b   4.04050192
_cell_length_c   28.39943618
_cell_angle_alpha   85.80550104
_cell_angle_beta   86.31916964
_cell_angle_gamma   91.98704692
_symmetry_Int_Tables_number   1
_chemical_formula_structural   Ti3Fe3(BiO3)7
_chemical_formula_sum   'Ti3 Fe3 Bi7 O21'
_cell_volume   461.08255049
_cell_formula_units_Z   1
loop_
 _symmetry_equiv_pos_site_id
 _symmetry_equiv_pos_as_xyz
  1  'x, y, z'
loop_
 _atom_site_type_symbol
 _atom_site_label
 _atom_site_symmetry_multiplicity
 _atom_site_fract_x
 _atom_site_fract_y
 _atom_site_fract_z
 _atom_site_occupancy
  Ti  Ti0  1  0.43245500  0.49586600  0.07167900  1
  Ti  Ti1  1  0.67125000  0.68823900  0.64051100  1
  Ti  Ti2  1  0.31037600  0.33165000  0.35797400  1
  Fe  Fe0  1  0.48839200  0.58148700  0.93012100  1
  Fe  Fe1  1  0.57604800  0.63757000  0.78638200  1
  Fe  Fe2  1  0.35661400  0.43059800  0.21278800  1
  Bi  Bi0  1  0.90679700  0.80351400  0.28968900  1
  Bi  Bi1  1  0.20243100  0.08965100  0.70791800  1
  Bi  Bi2  1  0.02765000  0.97871300  0.99363800  1
  Bi  Bi3  1  0.95653000  0.89499800  0.14847200  1
  Bi  Bi4  1  0.11694800  0.03350600  0.84954600  1
  Bi  Bi5  1  0.85963900  0.68559900  0.45476200  1
  Bi  Bi6  1  0.31220800  0.14523700  0.54255500  1
  O  O0  1  0.23951800  0.33990400  0.42057800  1
  O  O1  1  0.66208700  0.75933300  0.57858000  1
  O  O2  1  0.40092400  0.59572700  0.00334900  1
  O  O3  1  0.61634200  0.21681500  0.65151000  1
  O  O4  1  0.77795200  0.39097000  0.34757800  1
  O  O5  1  0.13167500  0.73214800  0.65151000  1
  O  O6  1  0.26145200  0.87447000  0.34757800  1
  O  O7  1  0.48580000  0.65420200  0.85999800  1
  O  O8  1  0.33722300  0.52256700  0.14021000  1
  O  O9  1  0.96471800  0.63225400  0.93542200  1
  O  O10  1  0.36699600  0.04533500  0.07232900  1
  O  O11  1  0.43232400  0.09986000  0.93542200  1
  O  O12  1  0.88233600  0.56067500  0.07232900  1
  O  O13  1  0.27827600  0.72097300  0.49943000  1
  O  O14  1  0.77959600  0.22229400  0.49943000  1
  O  O15  1  0.51765900  0.15678600  0.79137600  1
  O  O16  1  0.83671100  0.48988400  0.20822000  1
  O  O17  1  0.05183800  0.69096500  0.79137600  1
  O  O18  1  0.30189600  0.95506900  0.20822000  1
  O  O19  1  0.57211800  0.71070100  0.71718000  1
  O  O20  1  0.28422100  0.43343800  0.28234100  1
loop_
_geom_bond_atom_site_label_1
_geom_bond_atom_site_label_2
_geom_bond_distance
_geom_bond_site_symmetry_2
Fe0 O9 1.945033 1_555
Fe0 O11 1.945033 1_555
Fe0 O7 1.992390 1_555
Fe0 O2 2.092280 1_556
Fe0 O9 2.129674 1_455
Fe0 O11 2.129674 1_565
Fe1 O17 1.942452 1_655
Fe1 O15 1.942452 1_555
Fe1 O19 1.967064 1_555
Fe1 O7 2.105393 1_555
Fe1 O15 2.133186 1_565
Fe1 O17 2.133186 1_555
Fe2 O16 1.941155 1_555
Fe2 O18 1.941155 1_545
Fe2 O20 1.979073 1_555
Fe2 O8 2.074458 1_555
Fe2 O18 2.133627 1_555
Fe2 O16 2.133627 1_455
Bi0 O20 2.183561 1_655
Bi0 O4 2.276262 1_555
Bi0 O6 2.276262 1_655
Bi0 O16 2.743587 1_555
Bi0 O18 2.743587 1_655
Bi1 O19 2.189735 1_545
Bi1 O3 2.259031 1_555
Bi1 O5 2.259031 1_545
Bi2 O2 2.213191 1_556
Bi2 O11 2.263964 1_565
Bi2 O9 2.263968 1_455
Bi2 O10 2.720759 1_566
Bi2 O12 2.720762 1_456
Bi3 O8 2.202580 1_655
Bi3 O16 2.286075 1_555
Bi3 O18 2.286075 1_655
Bi3 O12 2.659536 1_555
Bi3 O10 2.659536 1_665
Bi4 O7 2.192416 1_545
Bi4 O15 2.253637 1_555
Bi4 O17 2.253637 1_545
Bi5 O13 2.185426 1_655
Bi5 O14 2.185426 1_555
Bi5 O0 2.324887 1_655
Bi5 O13 2.610486 1_555
Bi5 O14 2.610487 1_565
Bi6 O14 2.183972 1_555
Bi6 O13 2.183976 1_545
Bi6 O1 2.362557 1_545
Bi6 O13 2.560694 1_555
Bi6 O14 2.560697 1_455
O0 Ti2 1.785512 1_555
O1 Ti1 1.764221 1_555
O2 Ti0 1.966081 1_555
O3 Ti1 1.910438 1_555
O3 Ti1 2.197637 1_545
O4 Ti2 1.897493 1_555
O4 Ti2 2.208957 1_655
O5 Ti1 1.910438 1_455
O5 Ti1 2.197637 1_555
O6 Ti2 1.897493 1_565
O6 Ti2 2.208957 1_555
O8 Ti0 1.971039 1_555
O10 Ti0 1.828966 1_555
O10 Ti0 2.246188 1_545
O12 Ti0 1.828966 1_555
O12 Ti0 2.246188 1_655
O19 Ti1 2.197499 1_555
O20 Ti2 2.167226 1_555
