# generated using pymatgen
data_NdPS
_symmetry_space_group_name_H-M   'P 1'
_cell_length_a   5.51681879
_cell_length_b   5.58283344
_cell_length_c   17.18757767
_cell_angle_alpha   90.00000000
_cell_angle_beta   90.00000000
_cell_angle_gamma   90.00000000
_symmetry_Int_Tables_number   1
_chemical_formula_structural   NdPS
_chemical_formula_sum   'Nd8 P8 S8'
_cell_volume   529.36846197
_cell_formula_units_Z   8
loop_
 _symmetry_equiv_pos_site_id
 _symmetry_equiv_pos_as_xyz
  1  'x, y, z'
loop_
 _atom_site_type_symbol
 _atom_site_label
 _atom_site_symmetry_multiplicity
 _atom_site_fract_x
 _atom_site_fract_y
 _atom_site_fract_z
 _atom_site_occupancy
  Nd  Nd0  1  0.25000000  0.48325827  0.36248670  1
  Nd  Nd1  1  0.25000000  0.98325827  0.13751330  1
  Nd  Nd2  1  0.75000000  0.51674173  0.63751330  1
  Nd  Nd3  1  0.75000000  0.01674173  0.86248670  1
  Nd  Nd4  1  0.25000000  0.01629014  0.64802553  1
  Nd  Nd5  1  0.25000000  0.51629014  0.85197447  1
  Nd  Nd6  1  0.75000000  0.98370986  0.35197447  1
  Nd  Nd7  1  0.75000000  0.48370986  0.14802553  1
  P  P0  1  0.04584862  0.30585568  0.99721755  1
  P  P1  1  0.45415138  0.80585568  0.50278245  1
  P  P2  1  0.54584862  0.69414432  0.00278245  1
  P  P3  1  0.95415138  0.19414432  0.49721755  1
  P  P4  1  0.95415138  0.69414432  0.00278245  1
  P  P5  1  0.54584862  0.19414432  0.49721755  1
  P  P6  1  0.45415138  0.30585568  0.99721755  1
  P  P7  1  0.04584862  0.80585568  0.50278245  1
  S  S0  1  0.25000000  0.48486532  0.18919788  1
  S  S1  1  0.25000000  0.98486532  0.31080212  1
  S  S2  1  0.75000000  0.51513468  0.81080212  1
  S  S3  1  0.75000000  0.01513468  0.68919788  1
  S  S4  1  0.25000000  0.01209855  0.81737907  1
  S  S5  1  0.25000000  0.51209855  0.68262093  1
  S  S6  1  0.75000000  0.98790145  0.18262093  1
  S  S7  1  0.75000000  0.48790145  0.31737907  1
loop_
_geom_bond_atom_site_label_1
_geom_bond_atom_site_label_2
_geom_bond_distance
_geom_bond_site_symmetry_2
Nd0 S7 2.865409 1_455
Nd0 S7 2.865409 1_555
Nd0 S1 2.920811 1_545
Nd0 S1 2.937909 1_555
Nd0 S0 2.978429 1_555
Nd0 P1 3.213516 1_555
Nd0 P7 3.213516 1_555
Nd0 P5 3.260611 1_555
Nd0 P3 3.260611 1_455
Nd1 S6 2.865409 1_555
Nd1 S6 2.865409 1_455
Nd1 S0 2.920811 1_555
Nd1 S0 2.937909 1_565
Nd1 S1 2.978429 1_555
Nd1 P6 3.213516 1_564
Nd1 P0 3.213516 1_564
Nd1 P2 3.260611 1_555
Nd1 P4 3.260611 1_455
Nd2 S5 2.865409 1_655
Nd2 S5 2.865409 1_555
Nd2 S3 2.920811 1_565
Nd2 S3 2.937909 1_555
Nd2 S2 2.978429 1_555
Nd2 P3 3.213516 1_555
Nd2 P5 3.213516 1_555
Nd2 P1 3.260611 1_555
Nd2 P7 3.260611 1_655
Nd3 S4 2.865409 1_555
Nd3 S4 2.865409 1_655
Nd3 S2 2.920811 1_555
Nd3 S2 2.937909 1_545
Nd3 S3 2.978429 1_555
Nd3 P2 3.213516 1_546
Nd3 P4 3.213516 1_546
Nd3 P0 3.260611 1_655
Nd3 P6 3.260611 1_555
Nd4 S5 2.831161 1_555
Nd4 S3 2.847742 1_455
Nd4 S3 2.847742 1_555
Nd4 S5 2.876936 1_545
Nd4 S4 2.910871 1_555
Nd4 P7 2.980029 1_545
Nd4 P1 2.980029 1_545
Nd4 P5 3.219998 1_555
Nd4 P3 3.219998 1_455
Nd5 S4 2.831161 1_565
Nd5 S2 2.847742 1_555
Nd5 S2 2.847742 1_455
Nd5 S4 2.876936 1_555
Nd5 S5 2.910871 1_555
Nd5 P6 2.980029 1_555
Nd5 P0 2.980029 1_555
Nd5 P4 3.219998 1_456
Nd5 P2 3.219998 1_556
Nd6 S7 2.831161 1_555
Nd6 S1 2.847742 1_655
Nd6 S1 2.847742 1_555
Nd6 S7 2.876936 1_565
Nd6 S6 2.910871 1_555
Nd6 P5 2.980029 1_565
Nd6 P3 2.980029 1_565
Nd6 P7 3.219998 1_655
Nd6 P1 3.219998 1_555
Nd7 S6 2.831161 1_545
Nd7 S0 2.847742 1_555
Nd7 S0 2.847742 1_655
Nd7 S6 2.876936 1_555
Nd7 S7 2.910871 1_555
Nd7 P2 2.980029 1_555
Nd7 P4 2.980029 1_555
Nd7 P0 3.219998 1_654
Nd7 P6 3.219998 1_554
P0 P4 2.228049 1_456
P0 P6 2.252532 1_555
P1 P5 2.228049 1_565
P1 P7 2.252532 1_555
P2 P6 2.228049 1_554
P2 P4 2.252532 1_555
P3 P7 2.228049 1_645
P3 P5 2.252532 1_555
