# generated using pymatgen
data_V4CrFeO12
_symmetry_space_group_name_H-M   'P 1'
_cell_length_a   6.88696446
_cell_length_b   6.88696446
_cell_length_c   5.63354719
_cell_angle_alpha   75.07508376
_cell_angle_beta   75.07508376
_cell_angle_gamma   84.54277676
_symmetry_Int_Tables_number   1
_chemical_formula_structural   V4CrFeO12
_chemical_formula_sum   'V4 Cr1 Fe1 O12'
_cell_volume   249.35788427
_cell_formula_units_Z   1
loop_
 _symmetry_equiv_pos_site_id
 _symmetry_equiv_pos_as_xyz
  1  'x, y, z'
loop_
 _atom_site_type_symbol
 _atom_site_label
 _atom_site_symmetry_multiplicity
 _atom_site_fract_x
 _atom_site_fract_y
 _atom_site_fract_z
 _atom_site_occupancy
  V  V0  1  0.81219500  0.60058700  0.99522000  1
  V  V1  1  0.60673900  0.79722500  0.50110800  1
  V  V2  1  0.39941300  0.18780500  0.00478000  1
  V  V3  1  0.20277500  0.39326100  0.49889200  1
  Cr  Cr0  1  0.91885200  0.08114800  0.00000000  1
  Fe  Fe0  1  0.08927400  0.91072600  0.50000000  1
  O  O0  1  0.96889500  0.82134800  0.88220600  1
  O  O1  1  0.90852700  0.35833200  0.05092700  1
  O  O2  1  0.81308600  0.96080000  0.38222600  1
  O  O3  1  0.62144300  0.65740600  0.80167300  1
  O  O4  1  0.64166800  0.09147300  0.94907300  1
  O  O5  1  0.64053500  0.63528600  0.30300600  1
  O  O6  1  0.34259400  0.37855700  0.19832700  1
  O  O7  1  0.37467500  0.92323700  0.50867700  1
  O  O8  1  0.36471400  0.35946500  0.69699400  1
  O  O9  1  0.17865200  0.03110500  0.11779400  1
  O  O10  1  0.07676300  0.62532500  0.49132300  1
  O  O11  1  0.03920000  0.18691400  0.61777400  1
loop_
_geom_bond_atom_site_label_1
_geom_bond_atom_site_label_2
_geom_bond_distance
_geom_bond_site_symmetry_2
Cr0 O1 1.994309 1_555
Cr0 O4 1.994309 1_554
Cr0 O9 2.033962 1_655
Cr0 O0 2.033962 1_544
Cr0 O2 2.059557 1_545
Cr0 O11 2.059557 1_654
Fe0 O10 1.989236 1_555
Fe0 O7 1.989236 1_555
Fe0 O0 2.048713 1_455
Fe0 O9 2.048713 1_565
Fe0 O2 2.141158 1_455
Fe0 O11 2.141158 1_565
O0 V0 1.827862 1_555
O1 V0 1.717325 1_554
O2 V1 1.778418 1_555
O3 V1 1.741976 1_555
O3 V0 1.867645 1_555
O4 V2 1.717325 1_556
O5 V1 1.732468 1_555
O5 V0 1.888132 1_554
O6 V3 1.741976 1_555
O6 V2 1.867645 1_555
O7 V1 1.740519 1_555
O8 V3 1.732468 1_555
O8 V2 1.888132 1_556
O9 V2 1.827862 1_555
O10 V3 1.740519 1_555
O11 V3 1.778418 1_555
