# generated using pymatgen
data_Tb2FeSi4
_symmetry_space_group_name_H-M   'P 1'
_cell_length_a   4.05857300
_cell_length_b   4.05149600
_cell_length_c   8.16503618
_cell_angle_alpha   75.63487331
_cell_angle_beta   90.00000000
_cell_angle_gamma   90.00000000
_symmetry_Int_Tables_number   1
_chemical_formula_structural   Tb2FeSi4
_chemical_formula_sum   'Tb2 Fe1 Si4'
_cell_volume   130.06234752
_cell_formula_units_Z   1
loop_
 _symmetry_equiv_pos_site_id
 _symmetry_equiv_pos_as_xyz
  1  'x, y, z'
loop_
 _atom_site_type_symbol
 _atom_site_label
 _atom_site_symmetry_multiplicity
 _atom_site_fract_x
 _atom_site_fract_y
 _atom_site_fract_z
 _atom_site_occupancy
  Tb  Tb0  1  0.25000000  0.60804000  0.78391900  1
  Tb  Tb1  1  0.75000000  0.38924500  0.22150900  1
  Fe  Fe0  1  0.25000000  0.24795800  0.50408400  1
  Si  Si0  1  0.25000000  0.80600100  0.38799800  1
  Si  Si1  1  0.75000000  0.19547600  0.60904900  1
  Si  Si2  1  0.25000000  0.96194300  0.07611500  1
  Si  Si3  1  0.75000000  0.04133700  0.91732600  1
loop_
_geom_bond_atom_site_label_1
_geom_bond_atom_site_label_2
_geom_bond_distance
_geom_bond_site_symmetry_2
Fe0 Si1 2.192559 1_455
Fe0 Si1 2.192559 1_555
Fe0 Si0 2.224133 1_545
Fe0 Si0 2.224133 1_555
Fe0 Tb0 3.000483 1_555
Fe0 Tb0 3.000486 1_545
Fe0 Tb1 3.018885 1_555
Fe0 Tb1 3.018885 1_455
Si0 Si2 2.466917 1_555
Si0 Tb0 3.131637 1_555
Si0 Tb1 3.155288 1_565
Si0 Tb1 3.155288 1_465
Si0 Tb1 3.155290 1_555
Si0 Tb1 3.155290 1_455
Si1 Si3 2.438394 1_555
Si1 Tb1 3.065345 1_555
Si1 Tb0 3.183524 1_555
Si1 Tb0 3.183524 1_655
Si1 Tb0 3.183529 1_545
Si1 Tb0 3.183529 1_645
Si2 Si3 2.386523 1_564
Si2 Si3 2.386523 1_464
Si2 Tb0 3.073316 1_564
Si2 Tb0 3.073322 1_554
Si2 Tb1 3.089371 1_565
Si2 Tb1 3.089371 1_465
Si2 Tb1 3.089376 1_455
Si2 Tb1 3.089376 1_555
Si3 Tb0 3.055345 1_655
Si3 Tb0 3.055345 1_555
Si3 Tb0 3.055347 1_545
Si3 Tb0 3.055347 1_645
Si3 Tb1 3.145241 1_556
Si3 Tb1 3.145243 1_546
