# generated using pymatgen
data_Er6Mn23
_symmetry_space_group_name_H-M   'P 1'
_cell_length_a   8.45573704
_cell_length_b   8.45573704
_cell_length_c   8.45573704
_cell_angle_alpha   60.00000000
_cell_angle_beta   60.00000000
_cell_angle_gamma   60.00000000
_symmetry_Int_Tables_number   1
_chemical_formula_structural   Er6Mn23
_chemical_formula_sum   'Er6 Mn23'
_cell_volume   427.50323738
_cell_formula_units_Z   1
loop_
 _symmetry_equiv_pos_site_id
 _symmetry_equiv_pos_as_xyz
  1  'x, y, z'
loop_
 _atom_site_type_symbol
 _atom_site_label
 _atom_site_symmetry_multiplicity
 _atom_site_fract_x
 _atom_site_fract_y
 _atom_site_fract_z
 _atom_site_occupancy
  Er  Er0  1  0.79540400  0.79540400  0.20459600  1
  Er  Er1  1  0.20459600  0.79540400  0.20459600  1
  Er  Er2  1  0.79540400  0.20459600  0.20459600  1
  Er  Er3  1  0.20459600  0.20459600  0.79540400  1
  Er  Er4  1  0.79540400  0.20459600  0.79540400  1
  Er  Er5  1  0.20459600  0.79540400  0.79540400  1
  Mn  Mn0  1  0.50000000  0.50000000  0.50000000  1
  Mn  Mn1  1  0.00000000  0.00000000  0.50000000  1
  Mn  Mn2  1  0.50000000  0.00000000  0.50000000  1
  Mn  Mn3  1  0.00000000  0.50000000  0.50000000  1
  Mn  Mn4  1  0.50000000  0.50000000  0.00000000  1
  Mn  Mn5  1  0.00000000  0.50000000  0.00000000  1
  Mn  Mn6  1  0.50000000  0.00000000  0.00000000  1
  Mn  Mn7  1  0.62167900  0.62167900  0.13496200  1
  Mn  Mn8  1  0.62167900  0.13496200  0.62167900  1
  Mn  Mn9  1  0.13496200  0.62167900  0.62167900  1
  Mn  Mn10  1  0.62167900  0.62167900  0.62167900  1
  Mn  Mn11  1  0.37832100  0.37832100  0.86503800  1
  Mn  Mn12  1  0.37832100  0.86503800  0.37832100  1
  Mn  Mn13  1  0.86503800  0.37832100  0.37832100  1
  Mn  Mn14  1  0.37832100  0.37832100  0.37832100  1
  Mn  Mn15  1  0.82300700  0.82300700  0.53098000  1
  Mn  Mn16  1  0.82300700  0.53098000  0.82300700  1
  Mn  Mn17  1  0.53098000  0.82300700  0.82300700  1
  Mn  Mn18  1  0.82300700  0.82300700  0.82300700  1
  Mn  Mn19  1  0.17699300  0.17699300  0.46902000  1
  Mn  Mn20  1  0.17699300  0.46902000  0.17699300  1
  Mn  Mn21  1  0.46902000  0.17699300  0.17699300  1
  Mn  Mn22  1  0.17699300  0.17699300  0.17699300  1
loop_
_geom_bond_atom_site_label_1
_geom_bond_atom_site_label_2
_geom_bond_distance
_geom_bond_site_symmetry_2
Er0 Mn13 2.924069 1_555
Er0 Mn12 2.924069 1_555
Er0 Mn10 2.924070 1_555
Er0 Mn7 2.924076 1_555
Er0 Mn18 3.011358 1_554
Er0 Mn21 3.011361 1_565
Er0 Mn20 3.011361 1_655
Er0 Mn15 3.011366 1_555
Er0 Mn5 3.038459 1_655
Er0 Mn6 3.038459 1_565
Er0 Mn3 3.038459 1_655
Er0 Mn2 3.038459 1_565
Er0 Er1 3.460020 1_655
Er0 Er5 3.460020 1_654
Er0 Er2 3.460020 1_565
Er0 Er4 3.460020 1_564
Er1 Mn9 2.924069 1_555
Er1 Mn7 2.924069 1_555
Er1 Mn14 2.924070 1_555
Er1 Mn12 2.924076 1_555
Er1 Mn22 3.011358 1_565
Er1 Mn17 3.011361 1_554
Er1 Mn15 3.011361 1_455
Er1 Mn20 3.011366 1_555
Er1 Mn1 3.038459 1_565
Er1 Mn3 3.038459 1_555
Er1 Mn4 3.038459 1_555
Er1 Mn6 3.038459 1_565
Er1 Er2 3.460020 1_465
Er1 Er5 3.460020 1_554
Er1 Er3 3.460020 1_564
Er2 Mn8 2.924069 1_555
Er2 Mn7 2.924069 1_555
Er2 Mn14 2.924070 1_555
Er2 Mn13 2.924076 1_555
Er2 Mn22 3.011358 1_655
Er2 Mn16 3.011361 1_554
Er2 Mn15 3.011361 1_545
Er2 Mn21 3.011366 1_555
Er2 Mn5 3.038459 1_655
Er2 Mn4 3.038459 1_555
Er2 Mn2 3.038459 1_555
Er2 Mn1 3.038459 1_655
Er2 Er4 3.460020 1_554
Er2 Er3 3.460020 1_654
Er3 Mn8 2.924069 1_555
Er3 Mn9 2.924069 1_555
Er3 Mn14 2.924070 1_555
Er3 Mn11 2.924076 1_555
Er3 Mn22 3.011358 1_556
Er3 Mn16 3.011361 1_455
Er3 Mn17 3.011361 1_545
Er3 Mn19 3.011366 1_555
Er3 Mn3 3.038459 1_555
Er3 Mn2 3.038459 1_555
Er3 Mn5 3.038459 1_556
Er3 Mn6 3.038459 1_556
Er3 Er4 3.460020 1_455
Er3 Er5 3.460020 1_545
Er4 Mn13 2.924069 1_555
Er4 Mn11 2.924069 1_555
Er4 Mn10 2.924070 1_555
Er4 Mn8 2.924076 1_555
Er4 Mn18 3.011358 1_545
Er4 Mn19 3.011361 1_655
Er4 Mn21 3.011361 1_556
Er4 Mn16 3.011366 1_555
Er4 Mn4 3.038459 1_556
Er4 Mn3 3.038459 1_655
Er4 Mn6 3.038459 1_556
Er4 Mn1 3.038459 1_655
Er4 Er5 3.460020 1_645
Er5 Mn11 2.924069 1_555
Er5 Mn12 2.924069 1_555
Er5 Mn10 2.924070 1_555
Er5 Mn9 2.924076 1_555
Er5 Mn18 3.011358 1_455
Er5 Mn19 3.011361 1_565
Er5 Mn20 3.011361 1_556
Er5 Mn17 3.011366 1_555
Er5 Mn1 3.038459 1_565
Er5 Mn4 3.038459 1_556
Er5 Mn5 3.038459 1_556
Er5 Mn2 3.038459 1_565
Mn0 Mn10 2.520245 1_555
Mn0 Mn14 2.520245 1_555
Mn0 Mn11 2.520252 1_555
Mn0 Mn12 2.520252 1_555
Mn0 Mn7 2.520252 1_555
Mn0 Mn9 2.520252 1_555
Mn0 Mn13 2.520252 1_555
Mn0 Mn8 2.520252 1_555
Mn1 Mn19 2.450309 1_555
Mn1 Mn15 2.450309 1_445
Mn1 Mn22 2.450313 1_555
Mn1 Mn18 2.450313 1_445
Mn1 Mn12 2.612763 1_545
Mn1 Mn13 2.612763 1_455
Mn1 Mn9 2.612763 1_545
Mn1 Mn8 2.612763 1_455
Mn2 Mn21 2.450316 1_555
Mn2 Mn8 2.612757 1_555
Mn3 Mn9 2.612757 1_555
Mn4 Mn7 2.612757 1_555
Mn5 Mn7 2.612763 1_455
Mn5 Mn9 2.612763 1_554
Mn6 Mn7 2.612763 1_545
Mn6 Mn8 2.612763 1_554
Mn10 Mn15 2.582874 1_555
Mn10 Mn16 2.582874 1_555
Mn10 Mn17 2.582874 1_555
Mn10 Mn4 2.612764 1_556
Mn10 Mn3 2.612764 1_655
Mn10 Mn2 2.612764 1_565
Mn10 Mn11 2.910128 1_555
Mn10 Mn12 2.910128 1_555
Mn10 Mn13 2.910128 1_555
Mn11 Mn20 2.582860 1_556
Mn11 Mn21 2.582860 1_556
Mn11 Mn22 2.582868 1_556
Mn11 Mn4 2.612757 1_556
Mn11 Mn6 2.612763 1_556
Mn11 Mn5 2.612763 1_556
Mn11 Mn8 2.910140 1_555
Mn11 Mn9 2.910140 1_555
Mn12 Mn19 2.582860 1_565
Mn12 Mn21 2.582860 1_565
Mn12 Mn22 2.582868 1_565
Mn12 Mn2 2.612757 1_565
Mn12 Mn6 2.612763 1_565
Mn12 Mn7 2.910140 1_555
Mn12 Mn9 2.910140 1_555
Mn13 Mn19 2.582860 1_655
Mn13 Mn20 2.582860 1_655
Mn13 Mn22 2.582868 1_655
Mn13 Mn3 2.612757 1_655
Mn13 Mn5 2.612763 1_655
Mn13 Mn7 2.910140 1_555
Mn13 Mn8 2.910140 1_555
Mn14 Mn20 2.582874 1_555
Mn14 Mn21 2.582874 1_555
Mn14 Mn19 2.582874 1_555
Mn14 Mn4 2.612764 1_555
Mn14 Mn3 2.612764 1_555
Mn14 Mn2 2.612764 1_555
Mn14 Mn8 2.910128 1_555
Mn14 Mn9 2.910128 1_555
Mn14 Mn7 2.910128 1_555
Mn15 Mn2 2.450316 1_565
Mn15 Mn3 2.450316 1_655
Mn15 Mn16 2.469304 1_555
Mn15 Mn17 2.469304 1_555
Mn15 Mn18 2.469304 1_555
Mn15 Mn9 2.582860 1_655
Mn15 Mn8 2.582860 1_565
Mn16 Mn5 2.450309 1_656
Mn16 Mn4 2.450316 1_556
Mn16 Mn3 2.450316 1_655
Mn16 Mn17 2.469304 1_555
Mn16 Mn18 2.469304 1_555
Mn16 Mn7 2.582860 1_556
Mn16 Mn9 2.582860 1_655
Mn17 Mn6 2.450309 1_566
Mn17 Mn4 2.450316 1_556
Mn17 Mn2 2.450316 1_565
Mn17 Mn18 2.469304 1_555
Mn17 Mn8 2.582860 1_565
Mn17 Mn7 2.582860 1_556
Mn18 Mn6 2.450313 1_566
Mn18 Mn5 2.450313 1_656
Mn18 Mn8 2.582868 1_565
Mn18 Mn9 2.582868 1_655
Mn18 Mn7 2.582868 1_556
Mn19 Mn2 2.450316 1_555
Mn19 Mn3 2.450316 1_555
Mn19 Mn20 2.469304 1_555
Mn19 Mn21 2.469304 1_555
Mn19 Mn22 2.469304 1_555
Mn20 Mn5 2.450309 1_555
Mn20 Mn4 2.450316 1_555
Mn20 Mn3 2.450316 1_555
Mn20 Mn21 2.469304 1_555
Mn20 Mn22 2.469304 1_555
Mn21 Mn6 2.450309 1_555
Mn21 Mn4 2.450316 1_555
Mn21 Mn22 2.469304 1_555
Mn22 Mn5 2.450313 1_555
Mn22 Mn6 2.450313 1_555
