# generated using pymatgen
data_Rb4Li(Se2O7)2
_symmetry_space_group_name_H-M   'P 1'
_cell_length_a   7.99623705
_cell_length_b   8.72688300
_cell_length_c   7.83335363
_cell_angle_alpha   98.99325992
_cell_angle_beta   94.12073554
_cell_angle_gamma   60.11049752
_symmetry_Int_Tables_number   1
_chemical_formula_structural   Rb4Li(Se2O7)2
_chemical_formula_sum   'Rb4 Li1 Se4 O14'
_cell_volume   468.08301230
_cell_formula_units_Z   1
loop_
 _symmetry_equiv_pos_site_id
 _symmetry_equiv_pos_as_xyz
  1  'x, y, z'
loop_
 _atom_site_type_symbol
 _atom_site_label
 _atom_site_symmetry_multiplicity
 _atom_site_fract_x
 _atom_site_fract_y
 _atom_site_fract_z
 _atom_site_occupancy
  Rb  Rb0  1  0.29167100  0.47495100  0.27611400  1
  Rb  Rb1  1  0.40250100  0.86719300  0.15533500  1
  Rb  Rb2  1  0.84404400  0.39708500  0.72702400  1
  Rb  Rb3  1  0.54845000  0.15361400  0.83555800  1
  Li  Li0  1  0.86011500  0.66877900  0.47789700  1
  Se  Se0  1  0.71422800  0.07095000  0.36176600  1
  Se  Se1  1  0.90887900  0.31896200  0.18227300  1
  Se  Se2  1  0.31316000  0.87954000  0.65212000  1
  Se  Se3  1  0.09258800  0.70115500  0.81148600  1
  O  O0  1  0.62565300  0.25475300  0.51122700  1
  O  O1  1  0.70038800  0.40098700  0.07520400  1
  O  O2  1  0.34184300  0.75327400  0.46510100  1
  O  O3  1  0.28504000  0.58703800  0.92576000  1
  O  O4  1  0.55858500  0.10948800  0.19558000  1
  O  O5  1  0.88650400  0.45491600  0.36715400  1
  O  O6  1  0.49836300  0.79335300  0.78330100  1
  O  O7  1  0.08909700  0.58466200  0.62276900  1
  O  O8  1  0.71043500  0.90784000  0.45580900  1
  O  O9  1  0.08575400  0.29926600  0.06285300  1
  O  O10  1  0.23057800  0.09201000  0.64204300  1
  O  O11  1  0.88502000  0.80109800  0.91343700  1
  O  O12  1  0.97693900  0.11302600  0.23048400  1
  O  O13  1  0.10433000  0.89522500  0.76137300  1
loop_
_geom_bond_atom_site_label_1
_geom_bond_atom_site_label_2
_geom_bond_distance
_geom_bond_site_symmetry_2
Li0 O5 1.846071 1_555
Li0 O8 1.846446 1_555
Li0 O7 1.949737 1_655
O0 Se0 1.686726 1_555
O0 Rb2 2.920806 1_555
O0 Rb3 3.014017 1_555
O0 Rb0 3.082460 1_555
O1 Se1 1.671095 1_555
O1 Rb2 3.023530 1_554
O1 Rb3 3.267985 1_554
O1 Rb1 3.518300 1_555
O2 Se2 1.644601 1_555
O2 Rb0 2.830853 1_555
O2 Rb1 2.918127 1_555
O3 Se3 1.647592 1_555
O3 Rb0 3.042745 1_556
O3 Rb3 3.268121 1_555
O3 Rb1 3.281005 1_556
O4 Se0 1.686288 1_555
O4 Rb0 2.811651 1_555
O4 Rb3 2.895487 1_554
O4 Rb1 2.914345 1_545
O5 Se1 1.680940 1_555
O5 Rb2 3.011610 1_555
O6 Se2 1.651539 1_555
O6 Rb1 2.955917 1_556
O6 Rb2 3.156805 1_555
O6 Rb3 3.322873 1_565
O7 Se3 1.664973 1_555
O7 Rb0 3.031163 1_555
O7 Rb2 3.321307 1_455
O8 Se0 1.715770 1_565
O8 Rb3 3.304109 1_565
O8 Rb1 3.391957 1_555
O9 Se1 1.674084 1_455
O9 Rb0 3.028618 1_555
O9 Rb2 3.116359 1_454
O9 Rb1 3.497085 1_545
O10 Se2 1.642649 1_545
O10 Rb2 2.936782 1_455
O10 Rb3 3.098537 1_555
O11 Se3 1.638067 1_655
O11 Rb3 3.029571 1_565
O12 Se1 1.696027 1_555
O12 Rb1 3.024205 1_645
O13 Se3 1.844700 1_555
O13 Se2 1.865617 1_555
