# generated using pymatgen
data_ErMn4(CuO4)3
_symmetry_space_group_name_H-M   'P 1'
_cell_length_a   6.40557942
_cell_length_b   6.40557942
_cell_length_c   6.40557942
_cell_angle_alpha   109.47122063
_cell_angle_beta   109.47122063
_cell_angle_gamma   109.47122063
_symmetry_Int_Tables_number   1
_chemical_formula_structural   ErMn4(CuO4)3
_chemical_formula_sum   'Er1 Mn4 Cu3 O12'
_cell_volume   202.32677958
_cell_formula_units_Z   1
loop_
 _symmetry_equiv_pos_site_id
 _symmetry_equiv_pos_as_xyz
  1  'x, y, z'
loop_
 _atom_site_type_symbol
 _atom_site_label
 _atom_site_symmetry_multiplicity
 _atom_site_fract_x
 _atom_site_fract_y
 _atom_site_fract_z
 _atom_site_occupancy
  Er  Er0  1  0.00000000  0.00000000  0.00000000  1
  Mn  Mn0  1  0.50000000  0.50000000  0.50000000  1
  Mn  Mn1  1  0.50000000  0.00000000  0.00000000  1
  Mn  Mn2  1  0.00000000  0.50000000  0.00000000  1
  Mn  Mn3  1  0.00000000  0.00000000  0.50000000  1
  Cu  Cu0  1  0.50000000  0.50000000  0.00000000  1
  Cu  Cu1  1  0.50000000  0.00000000  0.50000000  1
  Cu  Cu2  1  0.00000000  0.50000000  0.50000000  1
  O  O0  1  0.83103600  0.69818600  0.52922100  1
  O  O1  1  0.16896400  0.30181400  0.47077900  1
  O  O2  1  0.16896400  0.69818600  0.86715000  1
  O  O3  1  0.83103600  0.30181400  0.13285000  1
  O  O4  1  0.69818600  0.52922100  0.83103600  1
  O  O5  1  0.30181400  0.47077900  0.16896400  1
  O  O6  1  0.69818600  0.86715000  0.16896400  1
  O  O7  1  0.30181400  0.13285000  0.83103600  1
  O  O8  1  0.52922100  0.83103600  0.69818600  1
  O  O9  1  0.47077900  0.16896400  0.30181400  1
  O  O10  1  0.13285000  0.83103600  0.30181400  1
  O  O11  1  0.86715000  0.16896400  0.69818600  1
loop_
_geom_bond_atom_site_label_1
_geom_bond_atom_site_label_2
_geom_bond_distance
_geom_bond_site_symmetry_2
Er0 O2 2.558391 1_544
Er0 O6 2.558391 1_445
Er0 O7 2.558391 1_554
Er0 O11 2.558391 1_454
Er0 O3 2.558391 1_455
Er0 O10 2.558391 1_545
Er0 O4 2.558396 1_444
Er0 O8 2.558396 1_444
Er0 O5 2.558396 1_555
Er0 O1 2.558396 1_555
Er0 O9 2.558396 1_555
Er0 O0 2.558396 1_444
Mn0 O0 1.981272 1_555
Mn0 O9 1.981272 1_555
Mn0 O4 1.981272 1_555
Mn0 O1 1.981272 1_555
Mn0 O5 1.981272 1_555
Mn0 O8 1.981272 1_555
Mn1 O9 1.981265 1_555
Mn1 O8 1.981265 1_544
Mn1 O2 1.981269 1_544
Mn1 O6 1.981269 1_545
Mn1 O7 1.981269 1_554
Mn1 O3 1.981269 1_555
Mn2 O5 1.981265 1_555
Mn2 O4 1.981265 1_454
Mn2 O3 1.981269 1_455
Mn2 O2 1.981269 1_554
Mn2 O11 1.981269 1_454
Mn2 O10 1.981269 1_555
Mn3 O1 1.981265 1_555
Mn3 O0 1.981265 1_445
Mn3 O10 1.981269 1_545
Mn3 O11 1.981269 1_455
Mn3 O6 1.981269 1_445
Mn3 O7 1.981269 1_555
Cu0 O4 1.926316 1_554
Cu0 O5 1.926316 1_555
Cu0 O7 1.926316 1_554
Cu0 O6 1.926316 1_555
Cu1 O9 1.926316 1_555
Cu1 O8 1.926316 1_545
Cu1 O11 1.926316 1_555
Cu1 O10 1.926316 1_545
Cu2 O1 1.926316 1_555
Cu2 O0 1.926316 1_455
Cu2 O2 1.926316 1_555
Cu2 O3 1.926316 1_455
