# generated using pymatgen
data_Li4TiCo3O8
_symmetry_space_group_name_H-M   'P 1'
_cell_length_a   5.90714111
_cell_length_b   5.91361747
_cell_length_c   10.33305924
_cell_angle_alpha   106.52917897
_cell_angle_beta   73.42684748
_cell_angle_gamma   119.99384408
_symmetry_Int_Tables_number   1
_chemical_formula_structural   Li4TiCo3O8
_chemical_formula_sum   'Li8 Ti2 Co6 O16'
_cell_volume   295.22182726
_cell_formula_units_Z   2
loop_
 _symmetry_equiv_pos_site_id
 _symmetry_equiv_pos_as_xyz
  1  'x, y, z'
loop_
 _atom_site_type_symbol
 _atom_site_label
 _atom_site_symmetry_multiplicity
 _atom_site_fract_x
 _atom_site_fract_y
 _atom_site_fract_z
 _atom_site_occupancy
  Li  Li0  1  0.24925300  0.74933900  0.25063500  1
  Li  Li1  1  0.75074900  0.25066200  0.74936400  1
  Li  Li2  1  0.75012700  0.25083500  0.24895600  1
  Li  Li3  1  0.24987400  0.74916500  0.75104500  1
  Li  Li4  1  0.74903700  0.74932200  0.74967200  1
  Li  Li5  1  0.25096500  0.25067800  0.25032700  1
  Li  Li6  1  0.25016400  0.25115600  0.74863500  1
  Li  Li7  1  0.74983800  0.74884300  0.25136500  1
  Ti  Ti0  1  0.49999200  0.49999900  0.50000400  1
  Ti  Ti1  1  0.99999000  0.99999900  0.00000100  1
  Co  Co0  1  0.99999900  0.99999900  0.50000000  1
  Co  Co1  1  0.50000100  0.49999900  0.99999900  1
  Co  Co2  1  0.99999900  0.50000000  0.00000000  1
  Co  Co3  1  0.50000100  0.00000000  0.49999900  1
  Co  Co4  1  0.00000000  0.49999900  0.49999900  1
  Co  Co5  1  0.50000200  0.00000200  0.99999900  1
  O  O0  1  0.36133100  0.63839000  0.88850900  1
  O  O1  1  0.86732200  0.11161100  0.39183000  1
  O  O2  1  0.13267800  0.88838600  0.60816800  1
  O  O3  1  0.63867000  0.36160800  0.11149100  1
  O  O4  1  0.87786100  0.12232900  0.88369800  1
  O  O5  1  0.38511600  0.63009700  0.38361400  1
  O  O6  1  0.61488500  0.36989900  0.61638500  1
  O  O7  1  0.12214300  0.87767400  0.11630500  1
  O  O8  1  0.85728800  0.62201600  0.38422100  1
  O  O9  1  0.35826700  0.11684300  0.88410400  1
  O  O10  1  0.38021100  0.14149000  0.38356100  1
  O  O11  1  0.88321500  0.64215200  0.88317800  1
  O  O12  1  0.64172900  0.88315500  0.11589700  1
  O  O13  1  0.14271500  0.37798700  0.61577700  1
  O  O14  1  0.11679000  0.35784900  0.11682200  1
  O  O15  1  0.61979700  0.85851400  0.61643800  1
loop_
_geom_bond_atom_site_label_1
_geom_bond_atom_site_label_2
_geom_bond_distance
_geom_bond_site_symmetry_2
Li0 O5 2.185339 1_555
Li0 O7 2.197751 1_555
Li0 O8 2.204179 1_455
Li0 O10 2.205225 1_565
Li0 O14 2.206464 1_555
Li0 O12 2.211519 1_555
Li1 O6 2.185323 1_555
Li1 O4 2.197785 1_555
Li1 O13 2.204188 1_655
Li1 O15 2.205212 1_545
Li1 O11 2.206468 1_555
Li1 O9 2.211552 1_555
Li2 O3 2.091508 1_555
Li2 O14 2.095253 1_655
Li2 O12 2.106475 1_545
Li2 O10 2.119609 1_555
Li2 O8 2.131246 1_555
Li2 O1 2.276223 1_555
Li3 O0 2.091507 1_555
Li3 O11 2.095232 1_455
Li3 O9 2.106468 1_565
Li3 O15 2.119646 1_555
Li3 O13 2.131248 1_555
Li3 O2 2.276240 1_555
Li4 O15 2.119773 1_555
Li4 O4 2.132463 1_565
Li4 O11 2.134586 1_555
Li4 O6 2.155415 1_555
Li4 O2 2.209192 1_655
Li4 O0 2.211930 1_555
Li5 O10 2.119782 1_555
Li5 O7 2.132432 1_545
Li5 O14 2.134569 1_555
Li5 O5 2.155399 1_555
Li5 O1 2.209195 1_455
Li5 O3 2.211922 1_555
Li6 O6 2.087121 1_555
Li6 O13 2.099766 1_555
Li6 O2 2.122482 1_545
Li6 O4 2.131591 1_455
Li6 O9 2.155881 1_555
Li6 O0 2.217834 1_555
Li7 O5 2.087121 1_555
Li7 O8 2.099736 1_555
Li7 O1 2.122464 1_565
Li7 O7 2.131585 1_655
Li7 O12 2.155892 1_555
Li7 O3 2.217838 1_555
Co0 O2 1.932850 1_655
Co0 O1 1.932854 1_565
Co0 O8 2.075575 1_555
Co0 O13 2.075588 1_665
Co0 O15 2.084282 1_555
Co0 O10 2.084329 1_665
Co1 O9 2.097720 1_555
Co1 O12 2.097731 1_556
Co1 O14 2.098585 1_556
Co1 O11 2.098590 1_555
Co1 O0 2.100717 1_555
Co1 O3 2.100729 1_556
Co2 O3 1.984932 1_555
Co2 O0 1.984944 1_654
Co2 O11 2.066883 1_554
Co2 O14 2.066908 1_655
Co2 O4 2.075859 1_554
Co2 O7 2.075883 1_655
Co3 O1 1.999346 1_555
Co3 O2 1.999354 1_545
Co3 O6 2.043593 1_555
Co3 O5 2.043606 1_545
Co3 O10 2.073377 1_555
Co3 O15 2.073393 1_545
Co4 O13 2.082606 1_555
Co4 O8 2.082614 1_455
Co4 O2 2.092362 1_555
Co4 O1 2.092367 1_455
Co4 O6 2.104594 1_455
Co4 O5 2.104595 1_555
Co5 O3 1.989026 1_556
Co5 O0 1.989044 1_545
Co5 O9 2.057604 1_555
Co5 O12 2.057618 1_546
Co5 O4 2.073564 1_555
Co5 O7 2.073583 1_546
O4 Ti1 1.999778 1_546
O5 Ti0 2.003203 1_555
O6 Ti0 2.003207 1_555
O7 Ti1 1.999866 1_455
O8 Ti0 1.983602 1_555
O9 Ti1 1.988364 1_446
O10 Ti0 1.994367 1_555
O11 Ti1 1.993293 1_556
O12 Ti1 1.988292 1_555
O13 Ti0 1.983480 1_555
O14 Ti1 1.993295 1_445
O15 Ti0 1.994354 1_555
