# generated using pymatgen
data_Ce2WO6
_symmetry_space_group_name_H-M   'P 1'
_cell_length_a   5.54153778
_cell_length_b   9.98177026
_cell_length_c   9.98177026
_cell_angle_alpha   68.78961927
_cell_angle_beta   77.18154681
_cell_angle_gamma   77.18154681
_symmetry_Int_Tables_number   1
_chemical_formula_structural   Ce2WO6
_chemical_formula_sum   'Ce8 W4 O24'
_cell_volume   495.77824818
_cell_formula_units_Z   4
loop_
 _symmetry_equiv_pos_site_id
 _symmetry_equiv_pos_as_xyz
  1  'x, y, z'
loop_
 _atom_site_type_symbol
 _atom_site_label
 _atom_site_symmetry_multiplicity
 _atom_site_fract_x
 _atom_site_fract_y
 _atom_site_fract_z
 _atom_site_occupancy
  Ce  Ce0  1  0.25000000  0.38224705  0.61775295  1
  Ce  Ce1  1  0.75000000  0.61775295  0.38224705  1
  Ce  Ce2  1  0.25000000  0.87944722  0.12055278  1
  Ce  Ce3  1  0.75000000  0.12055278  0.87944722  1
  Ce  Ce4  1  0.39033093  0.93991321  0.71198491  1
  Ce  Ce5  1  0.60966907  0.06008679  0.28801509  1
  Ce  Ce6  1  0.10966907  0.28801509  0.06008679  1
  Ce  Ce7  1  0.89033093  0.71198491  0.93991321  1
  W  W0  1  0.07873979  0.81926716  0.50253535  1
  W  W1  1  0.92126021  0.18073284  0.49746465  1
  W  W2  1  0.42126021  0.49746465  0.18073284  1
  W  W3  1  0.57873979  0.50253535  0.81926716  1
  O  O0  1  0.08335837  0.14612849  0.68558335  1
  O  O1  1  0.91664163  0.85387151  0.31441665  1
  O  O2  1  0.41664163  0.31441665  0.85387151  1
  O  O3  1  0.58335837  0.68558335  0.14612849  1
  O  O4  1  0.39435140  0.81309291  0.37302847  1
  O  O5  1  0.60564860  0.18690709  0.62697153  1
  O  O6  1  0.10564860  0.62697153  0.18690709  1
  O  O7  1  0.89435140  0.37302847  0.81309291  1
  O  O8  1  0.14309954  0.78694618  0.69861633  1
  O  O9  1  0.85690046  0.21305382  0.30138367  1
  O  O10  1  0.35690046  0.30138367  0.21305382  1
  O  O11  1  0.64309954  0.69861633  0.78694618  1
  O  O12  1  0.22571220  0.03782749  0.46899645  1
  O  O13  1  0.77428780  0.96217251  0.53100355  1
  O  O14  1  0.27428780  0.53100355  0.96217251  1
  O  O15  1  0.72571220  0.46899645  0.03782749  1
  O  O16  1  0.02065671  0.62384942  0.53868330  1
  O  O17  1  0.97934329  0.37615058  0.46131670  1
  O  O18  1  0.47934329  0.46131670  0.37615058  1
  O  O19  1  0.52065671  0.53868330  0.62384942  1
  O  O20  1  0.57793434  0.92831408  0.89605255  1
  O  O21  1  0.42206566  0.07168592  0.10394745  1
  O  O22  1  0.92206566  0.10394745  0.07168592  1
  O  O23  1  0.07793434  0.89605255  0.92831408  1
loop_
_geom_bond_atom_site_label_1
_geom_bond_atom_site_label_2
_geom_bond_distance
_geom_bond_site_symmetry_2
Ce0 O18 2.400392 1_555
Ce0 O16 2.400392 1_555
Ce0 O19 2.416622 1_555
Ce0 O17 2.416622 1_455
Ce0 O5 2.437219 1_555
Ce0 O7 2.437219 1_455
Ce0 O0 2.529765 1_555
Ce0 O2 2.529765 1_555
Ce1 O17 2.400392 1_555
Ce1 O19 2.400392 1_555
Ce1 O16 2.416622 1_655
Ce1 O18 2.416622 1_555
Ce1 O6 2.437219 1_655
Ce1 O4 2.437219 1_555
Ce1 O3 2.529765 1_555
Ce1 O1 2.529765 1_555
Ce2 O23 2.265030 1_554
Ce2 O21 2.265030 1_565
Ce2 O3 2.342644 1_555
Ce2 O1 2.342644 1_455
Ce2 O22 2.521398 1_465
Ce2 O20 2.521398 1_554
Ce2 O4 2.623239 1_555
Ce2 O6 2.623239 1_555
Ce3 O20 2.265030 1_545
Ce3 O22 2.265030 1_556
Ce3 O0 2.342644 1_655
Ce3 O2 2.342644 1_555
Ce3 O21 2.521398 1_556
Ce3 O23 2.521398 1_645
Ce3 O7 2.623239 1_555
Ce3 O5 2.623239 1_555
Ce4 O20 2.260568 1_555
Ce4 O8 2.320123 1_555
Ce4 O0 2.335137 1_565
Ce4 O23 2.417620 1_555
Ce4 O11 2.446858 1_555
Ce4 O13 2.460445 1_555
Ce4 O12 2.557561 1_565
Ce4 O5 2.750341 1_565
Ce5 O21 2.260568 1_555
Ce5 O9 2.320123 1_555
Ce5 O1 2.335137 1_545
Ce5 O22 2.417620 1_555
Ce5 O10 2.446858 1_555
Ce5 O12 2.460445 1_555
Ce5 O13 2.557561 1_545
Ce5 O4 2.750341 1_545
Ce6 O22 2.260568 1_455
Ce6 O10 2.320123 1_555
Ce6 O2 2.335137 1_554
Ce6 O21 2.417620 1_555
Ce6 O9 2.446858 1_455
Ce6 O15 2.460445 1_455
Ce6 O14 2.557561 1_554
Ce6 O7 2.750341 1_454
Ce7 O23 2.260568 1_655
Ce7 O11 2.320123 1_555
Ce7 O3 2.335137 1_556
Ce7 O20 2.417620 1_555
Ce7 O8 2.446858 1_655
Ce7 O14 2.460445 1_655
Ce7 O15 2.557561 1_556
Ce7 O6 2.750341 1_656
O0 W1 2.143276 1_455
O1 W0 2.143276 1_655
O2 W3 2.143276 1_555
O3 W2 2.143276 1_555
O4 W0 1.934010 1_555
O5 W1 1.934010 1_555
O6 W2 1.934010 1_555
O7 W3 1.934010 1_555
O8 W0 1.965664 1_555
O9 W1 1.965664 1_555
O10 W2 1.965664 1_555
O11 W3 1.965664 1_555
O12 W1 1.993644 1_455
O12 W0 2.381980 1_545
O13 W0 1.993644 1_655
O13 W1 2.381980 1_565
O14 W3 1.993644 1_555
O14 W2 2.381980 1_556
O15 W2 1.993644 1_555
O15 W3 2.381980 1_554
O16 W0 1.938162 1_555
O17 W1 1.938162 1_555
O18 W2 1.938162 1_555
O19 W3 1.938162 1_555
