# generated using pymatgen
data_Zn2MoWO6
_symmetry_space_group_name_H-M   'P 1'
_cell_length_a   5.64387924
_cell_length_b   5.63667996
_cell_length_c   7.88380346
_cell_angle_alpha   85.19120305
_cell_angle_beta   137.10541286
_cell_angle_gamma   123.54182698
_symmetry_Int_Tables_number   1
_chemical_formula_structural   Zn2MoWO6
_chemical_formula_sum   'Zn2 Mo1 W1 O6'
_cell_volume   117.32270768
_cell_formula_units_Z   1
loop_
 _symmetry_equiv_pos_site_id
 _symmetry_equiv_pos_as_xyz
  1  'x, y, z'
loop_
 _atom_site_type_symbol
 _atom_site_label
 _atom_site_symmetry_multiplicity
 _atom_site_fract_x
 _atom_site_fract_y
 _atom_site_fract_z
 _atom_site_occupancy
  Zn  Zn0  1  0.99989300  0.54126000  0.26819300  1
  Zn  Zn1  1  0.97622200  0.53502800  0.76884500  1
  Mo  Mo0  1  0.99372500  0.97838300  0.49338700  1
  W  W0  1  0.99327800  0.97993600  0.99423800  1
  O  O0  1  0.26820100  0.09056300  0.37261600  1
  O  O1  1  0.72520300  0.81716900  0.61930100  1
  O  O2  1  0.35297900  0.46710300  0.09438700  1
  O  O3  1  0.38474600  0.84032100  0.75937900  1
  O  O4  1  0.60110700  0.10958800  0.21899400  1
  O  O5  1  0.67809600  0.49718300  0.89384500  1
loop_
_geom_bond_atom_site_label_1
_geom_bond_atom_site_label_2
_geom_bond_distance
_geom_bond_site_symmetry_2
Mo0 O2 2.147855 1_555
Mo0 O5 2.153205 1_665
Mo0 O1 2.153856 1_555
Mo0 O4 2.157778 1_565
Mo0 O0 2.164220 1_665
Mo0 O3 2.171841 1_655
O0 Zn1 1.990399 1_555
O0 W0 2.038572 1_444
O0 Zn0 2.444783 1_445
O1 Zn0 1.980349 1_455
O1 W0 2.058215 1_555
O1 Zn1 2.377903 1_555
O2 Zn1 1.998439 1_454
O2 W0 2.034622 1_444
O2 Zn0 2.542045 1_555
O3 W0 1.945032 1_555
O3 Zn1 2.031962 1_455
O4 Zn0 1.990915 1_555
O4 W0 1.995580 1_444
O4 Zn1 2.547029 1_444
O5 Zn0 1.959838 1_556
O5 W0 2.035752 1_555
O5 Zn1 2.417729 1_555
