# generated using pymatgen
data_KH2C4N3O4
_symmetry_space_group_name_H-M   'P 1'
_cell_length_a   14.73864700
_cell_length_b   7.67006000
_cell_length_c   11.06765952
_cell_angle_alpha   72.12818560
_cell_angle_beta   90.00000000
_cell_angle_gamma   90.00000000
_symmetry_Int_Tables_number   1
_chemical_formula_structural   KH2C4N3O4
_chemical_formula_sum   'K4 H8 C16 N12 O16'
_cell_volume   1190.78401217
_cell_formula_units_Z   4
loop_
 _symmetry_equiv_pos_site_id
 _symmetry_equiv_pos_as_xyz
  1  'x, y, z'
loop_
 _atom_site_type_symbol
 _atom_site_label
 _atom_site_symmetry_multiplicity
 _atom_site_fract_x
 _atom_site_fract_y
 _atom_site_fract_z
 _atom_site_occupancy
  K  K0  1  0.46591800  0.82673500  0.72198500  1
  K  K1  1  0.53408200  0.17326500  0.27801500  1
  K  K2  1  0.96591800  0.67326500  0.27801500  1
  K  K3  1  0.03408200  0.32673500  0.72198500  1
  H  H0  1  0.32208200  0.01828600  0.87069300  1
  H  H1  1  0.67791800  0.98171400  0.12930700  1
  H  H2  1  0.82208200  0.48171400  0.12930700  1
  H  H3  1  0.17791800  0.51828600  0.87069300  1
  H  H4  1  0.01532400  0.82824600  0.89210300  1
  H  H5  1  0.98467600  0.17175400  0.10789700  1
  H  H6  1  0.51532400  0.67175400  0.10789700  1
  H  H7  1  0.48467600  0.32824600  0.89210300  1
  C  C0  1  0.30122800  0.25084400  0.41251200  1
  C  C1  1  0.69877200  0.74915600  0.58748800  1
  C  C2  1  0.80122800  0.24915600  0.58748800  1
  C  C3  1  0.19877200  0.75084400  0.41251200  1
  C  C4  1  0.70776000  0.20481600  0.67629600  1
  C  C5  1  0.29224000  0.79518400  0.32370400  1
  C  C6  1  0.20776000  0.29518400  0.32370400  1
  C  C7  1  0.79224000  0.70481600  0.67629600  1
  C  C8  1  0.19810300  0.20701000  0.58792400  1
  C  C9  1  0.80189700  0.79299000  0.41207600  1
  C  C10  1  0.69810300  0.29299000  0.41207600  1
  C  C11  1  0.30189700  0.70701000  0.58792400  1
  C  C12  1  0.11447000  0.30426300  0.39244400  1
  C  C13  1  0.88553000  0.69573700  0.60755600  1
  C  C14  1  0.61447000  0.19573700  0.60755600  1
  C  C15  1  0.38553000  0.80426300  0.39244400  1
  N  N0  1  0.28191500  0.20594800  0.53229900  1
  N  N1  1  0.71808500  0.79405200  0.46770100  1
  N  N2  1  0.78191500  0.29405200  0.46770100  1
  N  N3  1  0.21808500  0.70594800  0.53229900  1
  N  N4  1  0.71774300  0.17869300  0.78967400  1
  N  N5  1  0.28225700  0.82130700  0.21032600  1
  N  N6  1  0.21774300  0.32130700  0.21032600  1
  N  N7  1  0.78225700  0.67869300  0.78967400  1
  N  N8  1  0.12034300  0.25870600  0.51676200  1
  N  N9  1  0.87965700  0.74129400  0.48323800  1
  N  N10  1  0.62034300  0.24129400  0.48323800  1
  N  N11  1  0.37965700  0.75870600  0.51676200  1
  O  O0  1  0.25862100  0.84215100  0.10324700  1
  O  O1  1  0.74137900  0.15784900  0.89675300  1
  O  O2  1  0.75862100  0.65784900  0.89675300  1
  O  O3  1  0.24137900  0.34215100  0.10324700  1
  O  O4  1  0.37181300  0.26516100  0.35137400  1
  O  O5  1  0.62818700  0.73483900  0.64862600  1
  O  O6  1  0.87181300  0.23483900  0.64862600  1
  O  O7  1  0.12818700  0.76516100  0.35137400  1
  O  O8  1  0.19301400  0.16412800  0.70579100  1
  O  O9  1  0.80698600  0.83587200  0.29420900  1
  O  O10  1  0.69301400  0.33587200  0.29420900  1
  O  O11  1  0.30698600  0.66412800  0.70579100  1
  O  O12  1  0.54803400  0.14556000  0.67779500  1
  O  O13  1  0.45196600  0.85444000  0.32220500  1
  O  O14  1  0.04803400  0.35444000  0.32220500  1
  O  O15  1  0.95196600  0.64556000  0.67779500  1
loop_
_geom_bond_atom_site_label_1
_geom_bond_atom_site_label_2
_geom_bond_distance
_geom_bond_site_symmetry_2
K0 O12 2.636269 1_565
K0 O11 2.685495 1_555
K0 O5 2.688333 1_555
K0 N11 2.788376 1_555
K1 O13 2.636269 1_545
K1 O10 2.685495 1_555
K1 O4 2.688333 1_555
K1 N10 2.788376 1_555
K2 O14 2.636269 1_655
K2 O9 2.685495 1_555
K2 O7 2.688333 1_655
K2 N9 2.788376 1_555
K3 O15 2.636269 1_455
K3 O8 2.685495 1_555
K3 O6 2.688333 1_455
K3 N8 2.788376 1_555
C0 O4 1.227434 1_555
C0 N0 1.295006 1_555
C1 O5 1.227434 1_555
C1 N1 1.295006 1_555
C2 O6 1.227434 1_555
C2 N2 1.295006 1_555
C3 O7 1.227434 1_555
C3 N3 1.295006 1_555
C4 N4 1.217404 1_555
C5 N5 1.217404 1_555
C6 N6 1.217404 1_555
C7 N7 1.217404 1_555
C8 O8 1.245876 1_555
C8 N8 1.378168 1_555
C8 N0 1.381326 1_555
C9 O9 1.245876 1_555
C9 N9 1.378168 1_555
C9 N1 1.381326 1_555
C10 O10 1.245876 1_555
C10 N10 1.378168 1_555
C10 N2 1.381326 1_555
C11 O11 1.245876 1_555
C11 N11 1.378168 1_555
C11 N3 1.381326 1_555
C12 O14 1.235959 1_555
C12 N8 1.314392 1_555
C13 O15 1.235959 1_555
C13 N9 1.314392 1_555
C14 O12 1.235959 1_555
C14 N10 1.314392 1_555
C15 O13 1.235959 1_555
C15 N11 1.314392 1_555
N4 O1 1.197965 1_555
N5 O0 1.197965 1_555
N6 O3 1.197965 1_555
N7 O2 1.197965 1_555
