# generated using pymatgen
data_Tm(Al5Re)2
_symmetry_space_group_name_H-M   'P 1'
_cell_length_a   6.95013918
_cell_length_b   6.95013918
_cell_length_c   26.93738200
_cell_angle_alpha   90.00000000
_cell_angle_beta   90.00000000
_cell_angle_gamma   95.95523883
_symmetry_Int_Tables_number   1
_chemical_formula_structural   Tm(Al5Re)2
_chemical_formula_sum   'Tm6 Al60 Re12'
_cell_volume   1294.17278727
_cell_formula_units_Z   6
loop_
 _symmetry_equiv_pos_site_id
 _symmetry_equiv_pos_as_xyz
  1  'x, y, z'
loop_
 _atom_site_type_symbol
 _atom_site_label
 _atom_site_symmetry_multiplicity
 _atom_site_fract_x
 _atom_site_fract_y
 _atom_site_fract_z
 _atom_site_occupancy
  Tm  Tm0  1  0.87600600  0.12399400  0.58474700  1
  Tm  Tm1  1  0.12399400  0.87600600  0.41525300  1
  Tm  Tm2  1  0.12399400  0.87600600  0.08474700  1
  Tm  Tm3  1  0.87600600  0.12399400  0.91525300  1
  Tm  Tm4  1  0.61700900  0.38299100  0.75000000  1
  Tm  Tm5  1  0.38299100  0.61700900  0.25000000  1
  Al  Al0  1  0.59764200  0.40235800  0.63394800  1
  Al  Al1  1  0.40235800  0.59764200  0.36605200  1
  Al  Al2  1  0.40235800  0.59764200  0.13394800  1
  Al  Al3  1  0.59764200  0.40235800  0.86605200  1
  Al  Al4  1  0.18198500  0.40384700  0.75000000  1
  Al  Al5  1  0.81801500  0.59615300  0.25000000  1
  Al  Al6  1  0.59615300  0.81801500  0.75000000  1
  Al  Al7  1  0.40384700  0.18198500  0.25000000  1
  Al  Al8  1  0.87549200  0.12450800  0.14588300  1
  Al  Al9  1  0.12450800  0.87549200  0.85411700  1
  Al  Al10  1  0.12450800  0.87549200  0.64588300  1
  Al  Al11  1  0.87549200  0.12450800  0.35411700  1
  Al  Al12  1  0.37009300  0.62990700  0.67750900  1
  Al  Al13  1  0.62990700  0.37009300  0.32249100  1
  Al  Al14  1  0.62990700  0.37009300  0.17750900  1
  Al  Al15  1  0.37009300  0.62990700  0.82249100  1
  Al  Al16  1  0.22717500  0.47102500  0.58067800  1
  Al  Al17  1  0.77282500  0.52897500  0.41932200  1
  Al  Al18  1  0.77282500  0.52897500  0.08067800  1
  Al  Al19  1  0.52897500  0.77282500  0.91932200  1
  Al  Al20  1  0.22717500  0.47102500  0.91932200  1
  Al  Al21  1  0.47102500  0.22717500  0.08067800  1
  Al  Al22  1  0.47102500  0.22717500  0.41932200  1
  Al  Al23  1  0.52897500  0.77282500  0.58067800  1
  Al  Al24  1  0.96159500  0.73929900  0.75000000  1
  Al  Al25  1  0.03840500  0.26070100  0.25000000  1
  Al  Al26  1  0.26070100  0.03840500  0.75000000  1
  Al  Al27  1  0.73929900  0.96159500  0.25000000  1
  Al  Al28  1  0.62284400  0.37715600  0.52204900  1
  Al  Al29  1  0.37715600  0.62284400  0.47795100  1
  Al  Al30  1  0.37715600  0.62284400  0.02204900  1
  Al  Al31  1  0.62284400  0.37715600  0.97795100  1
  Al  Al32  1  0.96825700  0.47411600  0.67147500  1
  Al  Al33  1  0.03174300  0.52588400  0.32852500  1
  Al  Al34  1  0.03174300  0.52588400  0.17147500  1
  Al  Al35  1  0.52588400  0.03174300  0.82852500  1
  Al  Al36  1  0.96825700  0.47411600  0.82852500  1
  Al  Al37  1  0.47411600  0.96825700  0.17147500  1
  Al  Al38  1  0.47411600  0.96825700  0.32852500  1
  Al  Al39  1  0.52588400  0.03174300  0.67147500  1
  Al  Al40  1  0.90624000  0.09376000  0.69964300  1
  Al  Al41  1  0.09376000  0.90624000  0.30035700  1
  Al  Al42  1  0.09376000  0.90624000  0.19964300  1
  Al  Al43  1  0.90624000  0.09376000  0.80035700  1
  Al  Al44  1  0.87597900  0.61978200  0.58302500  1
  Al  Al45  1  0.12402100  0.38021800  0.41697600  1
  Al  Al46  1  0.12402100  0.38021800  0.08302500  1
  Al  Al47  1  0.38021800  0.12402100  0.91697600  1
  Al  Al48  1  0.87597900  0.61978200  0.91697600  1
  Al  Al49  1  0.61978200  0.87597900  0.08302500  1
  Al  Al50  1  0.61978200  0.87597900  0.41697600  1
  Al  Al51  1  0.38021800  0.12402100  0.58302400  1
  Al  Al52  1  0.20584700  0.20584700  0.50000000  1
  Al  Al53  1  0.79415300  0.79415300  0.50000000  1
  Al  Al54  1  0.79415300  0.79415300  0.00000000  1
  Al  Al55  1  0.20584700  0.20584700  0.00000000  1
  Al  Al56  1  0.83542900  0.16457100  0.03401600  1
  Al  Al57  1  0.16457100  0.83542900  0.96598400  1
  Al  Al58  1  0.16457100  0.83542900  0.53401600  1
  Al  Al59  1  0.83542900  0.16457100  0.46598400  1
  Re  Re0  1  0.24863100  0.25510700  0.66310900  1
  Re  Re1  1  0.75136900  0.74489300  0.33689100  1
  Re  Re2  1  0.75136900  0.74489300  0.16310900  1
  Re  Re3  1  0.74489300  0.75136900  0.83689100  1
  Re  Re4  1  0.24863100  0.25510700  0.83689100  1
  Re  Re5  1  0.25510700  0.24863100  0.16310900  1
  Re  Re6  1  0.25510700  0.24863100  0.33689100  1
  Re  Re7  1  0.74489300  0.75136900  0.66310900  1
  Re  Re8  1  0.00000000  0.50000000  0.50000000  1
  Re  Re9  1  0.00000000  0.50000000  0.00000000  1
  Re  Re10  1  0.50000000  0.00000000  0.00000000  1
  Re  Re11  1  0.50000000  0.00000000  0.50000000  1
loop_
_geom_bond_atom_site_label_1
_geom_bond_atom_site_label_2
_geom_bond_distance
_geom_bond_site_symmetry_2
Al0 Al12 2.626437 1_555
Al0 Re7 2.652018 1_555
Al0 Re0 2.652018 1_555
Al0 Al44 2.701997 1_555
Al0 Al51 2.702011 1_555
Al0 Al32 2.763859 1_555
Al0 Al39 2.763859 1_555
Al0 Al28 3.025480 1_555
Al0 Al16 3.028435 1_555
Al0 Al23 3.028435 1_555
Al0 Tm4 3.132528 1_555
Al0 Tm0 3.165296 1_555
Al1 Al13 2.626437 1_555
Al1 Re1 2.652018 1_555
Al1 Re6 2.652018 1_555
Al1 Al50 2.702011 1_555
Al1 Al45 2.702011 1_555
Al1 Al38 2.763859 1_555
Al1 Al33 2.763859 1_555
Al1 Al29 3.025480 1_555
Al1 Al22 3.028435 1_555
Al1 Al17 3.028435 1_555
Al1 Tm5 3.132528 1_555
Al1 Tm1 3.165296 1_555
Al2 Re2 2.652018 1_555
Al2 Re5 2.652018 1_555
Al2 Al49 2.701997 1_555
Al2 Al46 2.701997 1_555
Al2 Al37 2.763859 1_555
Al2 Al34 2.763859 1_555
Al2 Al30 3.025480 1_555
Al2 Al21 3.028435 1_555
Al2 Tm5 3.132528 1_555
Al2 Tm2 3.165296 1_555
Al3 Re3 2.652018 1_555
Al3 Re4 2.652018 1_555
Al3 Al48 2.702011 1_555
Al3 Al47 2.702011 1_555
Al3 Al36 2.763859 1_555
Al3 Al35 2.763859 1_555
Al3 Al31 3.025480 1_555
Al3 Tm4 3.132528 1_555
Al3 Tm3 3.165296 1_555
Al4 Re4 2.619363 1_555
Al4 Re0 2.619363 1_555
Al4 Tm4 3.041935 1_555
Al4 Al43 3.049675 1_455
Al4 Al40 3.049675 1_455
Al5 Re2 2.619363 1_555
Al5 Re1 2.619363 1_555
Al5 Tm5 3.041935 1_555
Al6 Re3 2.619363 1_555
Al6 Re7 2.619363 1_555
Al6 Tm4 3.041935 1_555
Al7 Re5 2.619363 1_555
Al7 Re6 2.619363 1_555
Al7 Tm5 3.041935 1_555
Al8 Re2 2.729151 1_545
Al8 Re5 2.729151 1_655
Al8 Tm2 3.049095 1_645
Al9 Re3 2.729151 1_455
Al9 Re4 2.729151 1_565
Al9 Tm3 3.049095 1_465
Al10 Al12 2.675251 1_555
Al10 Al40 2.679030 1_465
Al10 Re7 2.729151 1_455
Al10 Re0 2.729151 1_565
Al10 Al44 2.893466 1_455
Al10 Al51 2.893482 1_565
Al10 Al32 2.967815 1_455
Al10 Al39 2.967815 1_565
Al10 Al58 3.041670 1_555
Al10 Tm0 3.049095 1_465
Al10 Al24 3.133946 1_455
Al10 Al26 3.133946 1_565
Al11 Al13 2.675251 1_555
Al11 Al41 2.679030 1_645
Al11 Re1 2.729151 1_545
Al11 Re6 2.729151 1_655
Al11 Al45 2.893482 1_655
Al11 Al50 2.893482 1_545
Al11 Al38 2.967815 1_545
Al11 Al33 2.967815 1_655
Al11 Al59 3.041670 1_555
Al11 Tm1 3.049095 1_645
Al11 Al27 3.133946 1_545
Al11 Al25 3.133946 1_655
Al12 Re7 2.681859 1_555
Al12 Re0 2.681859 1_555
Al12 Al6 2.750385 1_555
Al12 Al4 2.750385 1_555
Al12 Al39 2.893293 1_565
Al12 Al32 2.893293 1_455
Al12 Al23 2.963449 1_555
Al12 Al16 2.963449 1_555
Al12 Tm4 3.211574 1_555
Al13 Re1 2.681859 1_555
Al13 Re6 2.681859 1_555
Al13 Al5 2.750385 1_555
Al13 Al7 2.750385 1_555
Al13 Al33 2.893293 1_655
Al13 Al38 2.893293 1_545
Al13 Al17 2.963449 1_555
Al13 Al22 2.963449 1_555
Al13 Tm5 3.211574 1_555
Al14 Al2 2.626437 1_555
Al14 Al8 2.675251 1_555
Al14 Re2 2.681859 1_555
Al14 Re5 2.681859 1_555
Al14 Al5 2.750385 1_555
Al14 Al7 2.750385 1_555
Al14 Al34 2.893293 1_655
Al14 Al37 2.893293 1_545
Al14 Al18 2.963449 1_555
Al14 Al21 2.963449 1_555
Al14 Tm5 3.211574 1_555
Al15 Al3 2.626437 1_555
Al15 Al9 2.675251 1_555
Al15 Re3 2.681859 1_555
Al15 Re4 2.681859 1_555
Al15 Al6 2.750385 1_555
Al15 Al4 2.750385 1_555
Al15 Al35 2.893293 1_565
Al15 Al36 2.893293 1_455
Al15 Al19 2.963449 1_555
Al15 Al20 2.963449 1_555
Al15 Tm4 3.211574 1_555
Al16 Re0 2.692799 1_555
Al16 Re8 2.706009 1_555
Al16 Al51 2.735711 1_555
Al16 Al44 2.748519 1_455
Al16 Al23 2.808290 1_555
Al16 Al52 2.843423 1_555
Al16 Al58 2.900391 1_555
Al16 Al32 3.037901 1_455
Al16 Al29 3.103077 1_555
Al16 Tm0 3.250342 1_455
Al17 Re1 2.692799 1_555
Al17 Re8 2.706009 1_655
Al17 Al50 2.735711 1_555
Al17 Al45 2.748519 1_655
Al17 Al22 2.808290 1_555
Al17 Al53 2.843423 1_555
Al17 Al59 2.900391 1_555
Al17 Al33 3.037901 1_655
Al17 Al28 3.103077 1_555
Al17 Tm1 3.250342 1_655
Al18 Re2 2.692799 1_555
Al18 Re9 2.706009 1_655
Al18 Al49 2.735711 1_555
Al18 Al46 2.748519 1_655
Al18 Al21 2.808290 1_555
Al18 Al54 2.843423 1_555
Al18 Al56 2.900391 1_555
Al18 Al2 3.028435 1_555
Al18 Al34 3.037901 1_655
Al18 Al31 3.103077 1_554
Al18 Tm2 3.250342 1_655
Al19 Re3 2.692799 1_555
Al19 Re10 2.706009 1_566
Al19 Al48 2.735711 1_555
Al19 Al47 2.748519 1_565
Al19 Al20 2.808290 1_555
Al19 Al54 2.843423 1_556
Al19 Al57 2.900391 1_555
Al19 Al3 3.028435 1_555
Al19 Al35 3.037901 1_565
Al19 Al30 3.103077 1_556
Al19 Tm3 3.250342 1_565
Al20 Re4 2.692799 1_555
Al20 Re9 2.706009 1_556
Al20 Al47 2.735711 1_555
Al20 Al48 2.748519 1_455
Al20 Al55 2.843423 1_556
Al20 Al57 2.900391 1_555
Al20 Al3 3.028435 1_555
Al20 Al36 3.037901 1_455
Al20 Al30 3.103077 1_556
Al20 Tm3 3.250342 1_455
Al21 Re5 2.692799 1_555
Al21 Re10 2.706009 1_555
Al21 Al46 2.735711 1_555
Al21 Al49 2.748519 1_545
Al21 Al55 2.843423 1_555
Al21 Al56 2.900391 1_555
Al21 Al37 3.037901 1_545
Al21 Al31 3.103077 1_554
Al21 Tm2 3.250342 1_545
Al22 Re6 2.692799 1_555
Al22 Re11 2.706009 1_555
Al22 Al45 2.735711 1_555
Al22 Al50 2.748519 1_545
Al22 Al52 2.843423 1_555
Al22 Al59 2.900391 1_555
Al22 Al38 3.037901 1_545
Al22 Al28 3.103077 1_555
Al22 Tm1 3.250342 1_545
Al23 Re7 2.692799 1_555
Al23 Re11 2.706009 1_565
Al23 Al44 2.735711 1_555
Al23 Al51 2.748519 1_565
Al23 Al53 2.843423 1_555
Al23 Al58 2.900391 1_555
Al23 Al39 3.037901 1_565
Al23 Al29 3.103077 1_555
Al23 Tm0 3.250342 1_565
Al24 Al6 2.653034 1_555
Al24 Al26 2.783222 1_665
Al24 Re3 2.789283 1_555
Al24 Re7 2.789283 1_555
Al24 Al36 2.809098 1_555
Al24 Al32 2.809098 1_555
Al24 Al40 2.872948 1_565
Al24 Al43 2.872948 1_565
Al24 Al4 2.919394 1_655
Al24 Al9 3.133946 1_655
Al24 Tm4 3.261519 1_555
Al25 Al7 2.653034 1_555
Al25 Al27 2.783222 1_445
Al25 Re5 2.789283 1_555
Al25 Re6 2.789283 1_555
Al25 Al33 2.809098 1_555
Al25 Al34 2.809098 1_555
Al25 Al41 2.872948 1_545
Al25 Al42 2.872948 1_545
Al25 Al5 2.919394 1_455
Al25 Al8 3.133946 1_455
Al25 Tm5 3.261519 1_555
Al26 Al4 2.653034 1_555
Al26 Re4 2.789283 1_555
Al26 Re0 2.789283 1_555
Al26 Al35 2.809098 1_555
Al26 Al39 2.809098 1_555
Al26 Al43 2.872948 1_455
Al26 Al40 2.872948 1_455
Al26 Al6 2.919394 1_545
Al26 Al9 3.133946 1_545
Al26 Tm4 3.261519 1_555
Al27 Al5 2.653034 1_555
Al27 Re1 2.789283 1_555
Al27 Re2 2.789283 1_555
Al27 Al38 2.809098 1_555
Al27 Al37 2.809098 1_555
Al27 Al41 2.872948 1_655
Al27 Al42 2.872948 1_655
Al27 Al7 2.919394 1_565
Al27 Al8 3.133946 1_565
Al27 Tm5 3.261519 1_555
Al28 Al59 2.664545 1_555
Al28 Re11 2.736506 1_555
Al28 Re8 2.736506 1_655
Al28 Al29 2.801368 1_555
Al28 Al51 2.832137 1_555
Al28 Al44 2.832153 1_555
Al28 Al52 3.074706 1_555
Al28 Al53 3.074706 1_555
Al28 Tm0 3.112333 1_555
Al29 Al58 2.664545 1_555
Al29 Re8 2.736506 1_555
Al29 Re11 2.736506 1_565
Al29 Al50 2.832137 1_555
Al29 Al45 2.832137 1_555
Al29 Al52 3.074706 1_555
Al29 Al53 3.074706 1_555
Al29 Tm1 3.112333 1_555
Al30 Al57 2.664545 1_554
Al30 Re9 2.736506 1_555
Al30 Re10 2.736506 1_565
Al30 Al31 2.801368 1_554
Al30 Al49 2.832153 1_555
Al30 Al46 2.832153 1_555
Al30 Al55 3.074706 1_555
Al30 Al54 3.074706 1_555
Al30 Tm2 3.112333 1_555
Al31 Al56 2.664545 1_556
Al31 Re10 2.736506 1_556
Al31 Re9 2.736506 1_656
Al31 Al48 2.832137 1_555
Al31 Al47 2.832137 1_555
Al31 Al55 3.074706 1_556
Al31 Al54 3.074706 1_556
Al31 Tm3 3.112333 1_555
Al32 Re0 2.603915 1_655
Al32 Re7 2.606649 1_555
Al32 Al4 2.658927 1_655
Al32 Al44 2.692182 1_555
Al32 Al40 2.741044 1_555
Al32 Tm4 3.242556 1_555
Al32 Tm0 3.386253 1_555
Al33 Re1 2.603915 1_455
Al33 Re6 2.606649 1_555
Al33 Al5 2.658927 1_455
Al33 Al45 2.692206 1_555
Al33 Al41 2.741044 1_555
Al33 Tm5 3.242556 1_555
Al33 Tm1 3.386253 1_555
Al34 Re2 2.603915 1_455
Al34 Re5 2.606649 1_555
Al34 Al5 2.658927 1_455
Al34 Al46 2.692182 1_555
Al34 Al42 2.741044 1_555
Al34 Al8 2.967815 1_455
Al34 Tm5 3.242556 1_555
Al34 Tm2 3.386253 1_555
Al35 Re3 2.603915 1_545
Al35 Re4 2.606649 1_555
Al35 Al6 2.658927 1_545
Al35 Al47 2.692206 1_555
Al35 Al43 2.741044 1_555
Al35 Al9 2.967815 1_545
Al35 Tm4 3.242556 1_555
Al35 Tm3 3.386253 1_555
Al36 Re4 2.603915 1_655
Al36 Re3 2.606649 1_555
Al36 Al4 2.658927 1_655
Al36 Al48 2.692206 1_555
Al36 Al43 2.741044 1_555
Al36 Al9 2.967815 1_655
Al36 Tm4 3.242556 1_555
Al36 Tm3 3.386253 1_555
Al37 Re5 2.603915 1_565
Al37 Re2 2.606649 1_555
Al37 Al7 2.658927 1_565
Al37 Al49 2.692182 1_555
Al37 Al42 2.741044 1_555
Al37 Al8 2.967815 1_565
Al37 Tm5 3.242556 1_555
Al37 Tm2 3.386253 1_555
Al38 Re6 2.603915 1_565
Al38 Re1 2.606649 1_555
Al38 Al7 2.658927 1_565
Al38 Al50 2.692206 1_555
Al38 Al41 2.741044 1_555
Al38 Tm5 3.242556 1_555
Al38 Tm1 3.386253 1_555
Al39 Re7 2.603915 1_545
Al39 Re0 2.606649 1_555
Al39 Al6 2.658927 1_545
Al39 Al51 2.692206 1_555
Al39 Al40 2.741044 1_555
Al39 Tm4 3.242556 1_555
Al39 Tm0 3.386253 1_555
Al40 Re0 2.708338 1_655
Al40 Re7 2.708338 1_545
Al40 Al43 2.712971 1_555
Al40 Al6 3.049675 1_545
Al40 Tm0 3.110704 1_555
Al40 Tm4 3.280293 1_555
Al41 Re6 2.708338 1_565
Al41 Re1 2.708338 1_455
Al41 Al42 2.712971 1_555
Al41 Al7 3.049675 1_565
Al41 Al5 3.049675 1_455
Al41 Tm1 3.110704 1_555
Al41 Tm5 3.280293 1_555
Al42 Al8 2.679030 1_465
Al42 Re5 2.708338 1_565
Al42 Re2 2.708338 1_455
Al42 Al7 3.049675 1_565
Al42 Al5 3.049675 1_455
Al42 Tm2 3.110704 1_555
Al42 Tm5 3.280293 1_555
Al43 Al9 2.679030 1_645
Al43 Re4 2.708338 1_655
Al43 Re3 2.708338 1_545
Al43 Al6 3.049675 1_545
Al43 Tm3 3.110704 1_555
Al43 Tm4 3.280293 1_555
Al44 Re7 2.548151 1_555
Al44 Re8 2.566470 1_655
Al44 Al53 2.633813 1_555
Al44 Al58 2.718171 1_655
Al44 Tm0 3.446127 1_555
Al44 Tm0 3.504631 1_565
Al45 Re6 2.548174 1_555
Al45 Re8 2.566446 1_555
Al45 Al52 2.633790 1_555
Al45 Al59 2.718158 1_455
Al45 Tm1 3.446128 1_555
Al45 Tm1 3.504631 1_545
Al46 Re5 2.548151 1_555
Al46 Re9 2.566470 1_555
Al46 Al55 2.633813 1_555
Al46 Al56 2.718171 1_455
Al46 Al8 2.893466 1_455
Al46 Tm2 3.446127 1_555
Al46 Tm2 3.504631 1_545
Al47 Re4 2.548174 1_555
Al47 Re10 2.566446 1_556
Al47 Al55 2.633790 1_556
Al47 Al57 2.718158 1_545
Al47 Al9 2.893482 1_545
Al47 Tm3 3.446128 1_555
Al47 Tm3 3.504631 1_455
Al48 Re3 2.548174 1_555
Al48 Re9 2.566446 1_656
Al48 Al54 2.633790 1_556
Al48 Al57 2.718158 1_655
Al48 Al9 2.893482 1_655
Al48 Tm3 3.446128 1_555
Al48 Tm3 3.504631 1_565
Al49 Re2 2.548151 1_555
Al49 Re10 2.566470 1_565
Al49 Al54 2.633813 1_555
Al49 Al56 2.718171 1_565
Al49 Al8 2.893466 1_565
Al49 Tm2 3.446127 1_555
Al49 Tm2 3.504631 1_655
Al50 Re1 2.548174 1_555
Al50 Re11 2.566446 1_565
Al50 Al53 2.633790 1_555
Al50 Al59 2.718158 1_565
Al50 Tm1 3.446128 1_555
Al50 Tm1 3.504631 1_655
Al51 Re0 2.548174 1_555
Al51 Re11 2.566446 1_555
Al51 Al52 2.633790 1_555
Al51 Al58 2.718158 1_545
Al51 Tm0 3.446128 1_555
Al51 Tm0 3.504631 1_455
Al52 Re8 2.614060 1_555
Al52 Re11 2.614060 1_555
Al52 Al58 2.719648 1_545
Al52 Al59 2.719648 1_455
Al52 Tm0 3.243419 1_455
Al52 Tm1 3.243419 1_545
Al53 Re11 2.614060 1_565
Al53 Re8 2.614060 1_655
Al53 Al58 2.719648 1_655
Al53 Al59 2.719648 1_565
Al53 Tm0 3.243419 1_565
Al53 Tm1 3.243419 1_655
Al54 Re10 2.614060 1_565
Al54 Re9 2.614060 1_655
Al54 Al56 2.719648 1_565
Al54 Al57 2.719648 1_654
Al54 Tm2 3.243419 1_655
Al54 Tm3 3.243419 1_564
Al55 Re9 2.614060 1_555
Al55 Re10 2.614060 1_555
Al55 Al56 2.719648 1_455
Al55 Al57 2.719648 1_544
Al55 Tm2 3.243419 1_545
Al55 Tm3 3.243419 1_454
Al56 Re9 2.651305 1_655
Al56 Re10 2.651305 1_555
Al56 Al8 3.041670 1_555
Al56 Tm3 3.226487 1_554
Al56 Tm2 3.278220 1_645
Al57 Re10 2.651305 1_566
Al57 Re9 2.651305 1_556
Al57 Al9 3.041670 1_555
Al57 Tm2 3.226487 1_556
Al57 Tm3 3.278220 1_465
Al58 Re8 2.651305 1_555
Al58 Re11 2.651305 1_565
Al58 Tm1 3.226487 1_555
Al58 Tm0 3.278220 1_465
Al59 Re11 2.651305 1_555
Al59 Re8 2.651305 1_655
Al59 Tm0 3.226487 1_555
Al59 Tm1 3.278220 1_645
Re0 Tm0 3.391679 1_455
Re1 Tm1 3.391679 1_655
Re2 Tm2 3.391679 1_655
Re3 Tm3 3.391679 1_565
Re4 Tm3 3.391679 1_455
Re5 Tm2 3.391679 1_545
Re6 Tm1 3.391679 1_545
Re7 Tm0 3.391679 1_565
Re8 Tm1 3.509432 1_555
Re8 Tm0 3.509432 1_455
Re9 Tm2 3.509432 1_555
Re9 Tm3 3.509432 1_454
Re10 Tm3 3.509432 1_554
Re10 Tm2 3.509432 1_545
Re11 Tm1 3.509432 1_545
Re11 Tm0 3.509432 1_555
