# generated using pymatgen
data_Li2V3TeO8
_symmetry_space_group_name_H-M   'P 1'
_cell_length_a   6.05105285
_cell_length_b   10.48106048
_cell_length_c   6.23602841
_cell_angle_alpha   106.25166749
_cell_angle_beta   60.97885344
_cell_angle_gamma   89.82291868
_symmetry_Int_Tables_number   1
_chemical_formula_structural   Li2V3TeO8
_chemical_formula_sum   'Li4 V6 Te2 O16'
_cell_volume   327.44697295
_cell_formula_units_Z   2
loop_
 _symmetry_equiv_pos_site_id
 _symmetry_equiv_pos_as_xyz
  1  'x, y, z'
loop_
 _atom_site_type_symbol
 _atom_site_label
 _atom_site_symmetry_multiplicity
 _atom_site_fract_x
 _atom_site_fract_y
 _atom_site_fract_z
 _atom_site_occupancy
  Li  Li0  1  0.30659200  0.56574200  0.38695600  1
  Li  Li1  1  0.80723400  0.06388400  0.38740000  1
  Li  Li2  1  0.19337400  0.93425900  0.61302000  1
  Li  Li3  1  0.69271200  0.43612000  0.61258500  1
  V  V0  1  0.24999600  0.75003900  0.00000900  1
  V  V1  1  0.75010700  0.75001200  0.00016100  1
  V  V2  1  0.25005500  0.24995100  0.00003800  1
  V  V3  1  0.74997400  0.24998500  0.99998400  1
  V  V4  1  0.00026700  0.49941600  0.99927000  1
  V  V5  1  0.49969300  0.00058800  0.00075200  1
  Te  Te0  1  0.74998800  0.75001600  0.49999300  1
  Te  Te1  1  0.25005500  0.25001600  0.49994400  1
  O  O0  1  0.10030600  0.63241200  0.79948500  1
  O  O1  1  0.60076100  0.13334500  0.79813100  1
  O  O2  1  0.39966400  0.86759600  0.20051300  1
  O  O3  1  0.89928800  0.36662800  0.20179100  1
  O  O4  1  0.88987300  0.85869100  0.23617800  1
  O  O5  1  0.39283100  0.35979900  0.23651100  1
  O  O6  1  0.11083600  0.62797600  0.23694300  1
  O  O7  1  0.60934400  0.12635300  0.23418300  1
  O  O8  1  0.64720600  0.63500600  0.23502800  1
  O  O9  1  0.15134600  0.12958700  0.23453700  1
  O  O10  1  0.85280500  0.86498800  0.76496100  1
  O  O11  1  0.34862000  0.37038400  0.76549800  1
  O  O12  1  0.38914900  0.87206500  0.76309000  1
  O  O13  1  0.89067500  0.37365000  0.76577300  1
  O  O14  1  0.61007700  0.64133100  0.76382600  1
  O  O15  1  0.10717000  0.14016400  0.76344100  1
loop_
_geom_bond_atom_site_label_1
_geom_bond_atom_site_label_2
_geom_bond_distance
_geom_bond_site_symmetry_2
Li0 O6 2.028702 1_555
Li0 O8 2.042602 1_555
Li0 O5 2.048459 1_555
Li0 O0 2.130059 1_555
Li1 O4 2.040896 1_545
Li1 O9 2.041823 1_655
Li1 O7 2.056907 1_555
Li1 O1 2.120645 1_555
Li2 O12 2.028903 1_555
Li2 O10 2.042430 1_455
Li2 O15 2.048079 1_565
Li2 O2 2.129945 1_555
Li3 O14 2.041075 1_555
Li3 O11 2.041911 1_555
Li3 O13 2.057117 1_555
Li3 O3 2.120972 1_555
O0 V4 2.026619 1_555
O0 V1 2.030585 1_456
O0 V0 2.036431 1_556
O1 V2 2.027958 1_556
O1 V3 2.035307 1_555
O1 V5 2.036225 1_556
O2 V5 2.026484 1_565
O2 V1 2.031732 1_555
O2 V0 2.035931 1_555
O3 V2 2.028603 1_655
O3 V3 2.035586 1_554
O3 V4 2.036088 1_654
O4 V0 2.036289 1_655
O4 Te0 2.103348 1_555
O4 V1 2.110522 1_555
O5 V3 2.027868 1_554
O5 Te1 2.110964 1_555
O5 V2 2.130387 1_555
O6 V4 2.076028 1_554
O6 V0 2.094371 1_555
O6 Te0 2.104218 1_455
O7 V5 2.040912 1_555
O7 V3 2.096760 1_554
O7 Te1 2.106538 1_555
O8 V1 2.023303 1_555
O8 Te0 2.111152 1_555
O8 V4 2.123565 1_654
O9 V2 2.067956 1_555
O9 V5 2.072203 1_555
O9 Te1 2.117503 1_555
O10 V1 2.024644 1_556
O10 Te0 2.111169 1_555
O10 V5 2.123824 1_566
O11 V2 2.068775 1_556
O11 V4 2.072382 1_555
O11 Te1 2.117373 1_555
O12 V5 2.075705 1_566
O12 V0 2.093991 1_556
O12 Te0 2.104250 1_555
O13 V4 2.040961 1_655
O13 V3 2.097122 1_555
O13 Te1 2.106824 1_655
O14 V0 2.036318 1_556
O14 Te0 2.103514 1_555
O14 V1 2.113182 1_556
O15 V3 2.028128 1_455
O15 Te1 2.111831 1_555
O15 V2 2.131225 1_556
