# generated using pymatgen
data_NaHf4(NCl)4
_symmetry_space_group_name_H-M   'P 1'
_cell_length_a   3.64595100
_cell_length_b   6.30742700
_cell_length_c   10.25383418
_cell_angle_alpha   78.01653169
_cell_angle_beta   90.00000000
_cell_angle_gamma   90.00000000
_symmetry_Int_Tables_number   1
_chemical_formula_structural   NaHf4(NCl)4
_chemical_formula_sum   'Na1 Hf4 N4 Cl4'
_cell_volume   230.66428758
_cell_formula_units_Z   1
loop_
 _symmetry_equiv_pos_site_id
 _symmetry_equiv_pos_as_xyz
  1  'x, y, z'
loop_
 _atom_site_type_symbol
 _atom_site_label
 _atom_site_symmetry_multiplicity
 _atom_site_fract_x
 _atom_site_fract_y
 _atom_site_fract_z
 _atom_site_occupancy
  Na  Na0  1  0.00000000  0.00000000  0.00000000  1
  Hf  Hf0  1  0.50000000  0.70561500  0.37632500  1
  Hf  Hf1  1  0.00000000  0.20940300  0.38057000  1
  Hf  Hf2  1  0.50000000  0.29438500  0.62367500  1
  Hf  Hf3  1  0.00000000  0.79059700  0.61943000  1
  N  N0  1  0.50000000  0.63920400  0.58930800  1
  N  N1  1  0.00000000  0.13332000  0.59243800  1
  N  N2  1  0.50000000  0.36079600  0.41069200  1
  N  N3  1  0.00000000  0.86668000  0.40756200  1
  Cl  Cl0  1  0.00000000  0.39544200  0.81634800  1
  Cl  Cl1  1  0.50000000  0.88994600  0.82315400  1
  Cl  Cl2  1  0.00000000  0.60455800  0.18365200  1
  Cl  Cl3  1  0.50000000  0.11005400  0.17684600  1
loop_
_geom_bond_atom_site_label_1
_geom_bond_atom_site_label_2
_geom_bond_distance
_geom_bond_site_symmetry_2
Hf0 N2 2.129835 1_555
Hf0 N0 2.136579 1_555
Hf0 N3 2.143133 1_555
Hf0 N3 2.143133 1_655
Hf1 N2 2.110201 1_555
Hf1 N2 2.110201 1_455
Hf1 N3 2.121580 1_545
Hf1 N1 2.125312 1_555
Hf2 N0 2.129835 1_555
Hf2 N2 2.136579 1_555
Hf2 N1 2.143133 1_655
Hf2 N1 2.143133 1_555
Hf3 N0 2.110201 1_555
Hf3 N0 2.110201 1_455
Hf3 N1 2.121580 1_565
Hf3 N3 2.125312 1_555
Cl0 Na0 2.795870 1_556
Cl0 Hf2 2.855802 1_555
Cl0 Hf2 2.855802 1_455
Cl0 Hf3 2.863444 1_555
Cl1 Na0 2.759717 1_666
Cl1 Na0 2.759717 1_566
Cl1 Hf2 2.919668 1_565
Cl1 Hf3 2.936531 1_655
Cl1 Hf3 2.936531 1_555
Cl2 Na0 2.795870 1_565
Cl2 Hf0 2.855802 1_555
Cl2 Hf0 2.855802 1_455
Cl2 Hf1 2.863444 1_555
Cl3 Na0 2.759717 1_555
Cl3 Na0 2.759717 1_655
Cl3 Hf0 2.919668 1_545
Cl3 Hf1 2.936531 1_655
Cl3 Hf1 2.936531 1_555
