# generated using pymatgen
data_Eu2Cd2As3
_symmetry_space_group_name_H-M   'P 1'
_cell_length_a   8.46746997
_cell_length_b   8.46746997
_cell_length_c   12.33840161
_cell_angle_alpha   55.07911787
_cell_angle_beta   55.07911787
_cell_angle_gamma   30.61809785
_symmetry_Int_Tables_number   1
_chemical_formula_structural   Eu2Cd2As3
_chemical_formula_sum   'Eu4 Cd4 As6'
_cell_volume   362.62322006
_cell_formula_units_Z   2
loop_
 _symmetry_equiv_pos_site_id
 _symmetry_equiv_pos_as_xyz
  1  'x, y, z'
loop_
 _atom_site_type_symbol
 _atom_site_label
 _atom_site_symmetry_multiplicity
 _atom_site_fract_x
 _atom_site_fract_y
 _atom_site_fract_z
 _atom_site_occupancy
  Eu  Eu0  1  0.26926000  0.26926000  0.32900900  1
  Eu  Eu1  1  0.73074000  0.73074000  0.67099100  1
  Eu  Eu2  1  0.39418300  0.39418300  0.95237100  1
  Eu  Eu3  1  0.60581700  0.60581700  0.04762900  1
  Cd  Cd0  1  0.04650400  0.04650400  0.68512100  1
  Cd  Cd1  1  0.95349600  0.95349600  0.31487900  1
  Cd  Cd2  1  0.40807900  0.40807900  0.65836000  1
  Cd  Cd3  1  0.59192100  0.59192100  0.34164000  1
  As  As0  1  0.08245500  0.08245500  0.87990200  1
  As  As1  1  0.91754500  0.91754500  0.12009800  1
  As  As2  1  0.16240400  0.16240400  0.18100200  1
  As  As3  1  0.83759600  0.83759600  0.81899800  1
  As  As4  1  0.37118600  0.37118600  0.47231500  1
  As  As5  1  0.62881400  0.62881400  0.52768500  1
loop_
_geom_bond_atom_site_label_1
_geom_bond_atom_site_label_2
_geom_bond_distance
_geom_bond_site_symmetry_2
Cd0 Eu2 3.510417 1_455
Cd0 Eu2 3.510417 1_545
Cd1 Eu3 3.510417 1_565
Cd1 Eu3 3.510417 1_655
Cd2 Eu2 3.497687 1_555
Cd3 Eu3 3.497687 1_555
As0 As1 2.561830 1_446
As0 Cd0 2.792097 1_555
As0 Eu1 3.177722 1_455
As0 Eu1 3.177722 1_545
As0 Eu3 3.219284 1_456
As0 Eu3 3.219284 1_546
As0 Eu2 3.462754 1_455
As0 Eu2 3.462754 1_545
As1 Cd1 2.792097 1_555
As1 Eu0 3.177722 1_655
As1 Eu0 3.177722 1_565
As1 Eu2 3.219284 1_654
As1 Eu2 3.219284 1_564
As1 Eu3 3.462754 1_565
As1 Eu3 3.462754 1_655
As2 Cd3 2.746503 1_455
As2 Cd3 2.746503 1_545
As2 Cd1 2.771595 1_445
As2 Eu2 3.100588 1_554
As2 Eu0 3.188215 1_555
As2 Eu3 3.219604 1_455
As2 Eu3 3.219604 1_545
As3 Cd2 2.746503 1_565
As3 Cd2 2.746503 1_655
As3 Cd0 2.771595 1_665
As3 Eu3 3.100588 1_556
As3 Eu1 3.188215 1_555
As3 Eu2 3.219604 1_655
As3 Eu2 3.219604 1_565
As4 Cd2 2.697115 1_555
As4 Cd1 2.734760 1_455
As4 Cd1 2.734760 1_545
As4 Cd3 2.949373 1_555
As4 Eu0 3.064709 1_555
As4 Eu1 3.097519 1_455
As4 Eu1 3.097519 1_545
As5 Cd3 2.697115 1_555
As5 Cd0 2.734760 1_565
As5 Cd0 2.734760 1_655
As5 Cd2 2.949373 1_555
As5 Eu1 3.064709 1_555
As5 Eu0 3.097519 1_565
As5 Eu0 3.097519 1_655
