# generated using pymatgen
data_Ho3Fe2Si3
_symmetry_space_group_name_H-M   'P 1'
_cell_length_a   5.62980307
_cell_length_b   5.62980307
_cell_length_c   13.56199300
_cell_angle_alpha   90.00000000
_cell_angle_beta   90.00000000
_cell_angle_gamma   137.64080364
_symmetry_Int_Tables_number   1
_chemical_formula_structural   Ho3Fe2Si3
_chemical_formula_sum   'Ho6 Fe4 Si6'
_cell_volume   289.61807782
_cell_formula_units_Z   2
loop_
 _symmetry_equiv_pos_site_id
 _symmetry_equiv_pos_as_xyz
  1  'x, y, z'
loop_
 _atom_site_type_symbol
 _atom_site_label
 _atom_site_symmetry_multiplicity
 _atom_site_fract_x
 _atom_site_fract_y
 _atom_site_fract_z
 _atom_site_occupancy
  Ho  Ho0  1  0.63829000  0.36171000  0.25000000  1
  Ho  Ho1  1  0.36171000  0.63829000  0.75000000  1
  Ho  Ho2  1  0.92149700  0.07850300  0.11292900  1
  Ho  Ho3  1  0.07850300  0.92149700  0.88707100  1
  Ho  Ho4  1  0.07850300  0.92149700  0.61292900  1
  Ho  Ho5  1  0.92149700  0.07850300  0.38707100  1
  Fe  Fe0  1  0.78515100  0.21484900  0.58027000  1
  Fe  Fe1  1  0.21484900  0.78515100  0.41973000  1
  Fe  Fe2  1  0.21484900  0.78515100  0.08027000  1
  Fe  Fe3  1  0.78515100  0.21484900  0.91973000  1
  Si  Si0  1  0.32724100  0.67275900  0.25000000  1
  Si  Si1  1  0.67275900  0.32724100  0.75000000  1
  Si  Si2  1  0.62399900  0.37600100  0.03882900  1
  Si  Si3  1  0.37600100  0.62399900  0.96117100  1
  Si  Si4  1  0.37600100  0.62399900  0.53882900  1
  Si  Si5  1  0.62399900  0.37600100  0.46117100  1
loop_
_geom_bond_atom_site_label_1
_geom_bond_atom_site_label_2
_geom_bond_distance
_geom_bond_site_symmetry_2
Ho0 Si0 2.841244 1_655
Ho0 Si0 2.841244 1_545
Ho0 Si2 2.867827 1_555
Ho0 Si5 2.867827 1_555
Ho0 Si0 3.265718 1_555
Ho1 Si1 2.841244 1_565
Ho1 Si1 2.841244 1_455
Ho1 Si4 2.867827 1_555
Ho1 Si3 2.867827 1_555
Ho1 Si1 3.265718 1_555
Ho2 Si0 2.927832 1_545
Ho2 Si0 2.927832 1_655
Ho2 Si3 2.932795 1_544
Ho2 Si3 2.932795 1_654
Ho2 Si2 3.109228 1_655
Ho2 Si2 3.109228 1_545
Ho2 Si2 3.281132 1_555
Ho3 Si1 2.927832 1_455
Ho3 Si1 2.927832 1_565
Ho3 Si2 2.932795 1_456
Ho3 Si2 2.932795 1_566
Ho3 Si3 3.109228 1_565
Ho3 Si3 3.109228 1_455
Ho3 Si3 3.281132 1_555
Ho4 Si1 2.927832 1_455
Ho4 Si1 2.927832 1_565
Ho4 Si5 2.932795 1_565
Ho4 Si5 2.932795 1_455
Ho4 Si4 3.109228 1_565
Ho4 Si4 3.109228 1_455
Ho4 Si4 3.281132 1_555
Ho5 Si0 2.927832 1_545
Ho5 Si0 2.927832 1_655
Ho5 Si4 2.932795 1_655
Ho5 Si4 2.932795 1_545
Ho5 Si5 3.109228 1_545
Ho5 Si5 3.109228 1_655
Ho5 Si5 3.281132 1_555
Fe0 Si4 2.315784 1_655
Fe0 Si4 2.315784 1_545
Fe0 Si5 2.339146 1_555
Fe0 Si1 2.586708 1_555
Fe0 Ho5 2.985709 1_555
Fe0 Ho4 3.006752 1_545
Fe0 Ho4 3.006752 1_655
Fe0 Ho4 3.111602 1_645
Fe0 Ho1 3.175202 1_655
Fe0 Ho1 3.175202 1_545
Fe1 Si5 2.315784 1_565
Fe1 Si5 2.315784 1_455
Fe1 Si4 2.339146 1_555
Fe1 Si0 2.586708 1_555
Fe1 Ho4 2.985709 1_555
Fe1 Ho5 3.006752 1_565
Fe1 Ho5 3.006752 1_455
Fe1 Ho5 3.111602 1_465
Fe1 Ho0 3.175202 1_455
Fe1 Ho0 3.175202 1_565
Fe2 Si2 2.315784 1_565
Fe2 Si2 2.315784 1_455
Fe2 Si3 2.339146 1_554
Fe2 Si0 2.586708 1_555
Fe2 Ho3 2.985709 1_554
Fe2 Ho2 3.006752 1_565
Fe2 Ho2 3.006752 1_455
Fe2 Ho2 3.111602 1_465
Fe2 Ho0 3.175202 1_455
Fe2 Ho0 3.175202 1_565
Fe3 Si3 2.315784 1_545
Fe3 Si3 2.315784 1_655
Fe3 Si2 2.339146 1_556
Fe3 Si1 2.586708 1_555
Fe3 Ho2 2.985709 1_556
Fe3 Ho3 3.006752 1_545
Fe3 Ho3 3.006752 1_655
Fe3 Ho3 3.111602 1_645
Fe3 Ho1 3.175202 1_655
Fe3 Ho1 3.175202 1_545
Si2 Si3 2.808683 1_554
Si4 Si5 2.808683 1_555
