# generated using pymatgen
data_Cs2WO8
_symmetry_space_group_name_H-M   'P 1'
_cell_length_a   9.30992400
_cell_length_b   7.24555900
_cell_length_c   14.21692702
_cell_angle_alpha   63.77358869
_cell_angle_beta   90.00000000
_cell_angle_gamma   90.00000000
_symmetry_Int_Tables_number   1
_chemical_formula_structural   Cs2WO8
_chemical_formula_sum   'Cs8 W4 O32'
_cell_volume   860.28573199
_cell_formula_units_Z   4
loop_
 _symmetry_equiv_pos_site_id
 _symmetry_equiv_pos_as_xyz
  1  'x, y, z'
loop_
 _atom_site_type_symbol
 _atom_site_label
 _atom_site_symmetry_multiplicity
 _atom_site_fract_x
 _atom_site_fract_y
 _atom_site_fract_z
 _atom_site_occupancy
  Cs  Cs0  1  0.98570100  0.98890100  0.76474700  1
  Cs  Cs1  1  0.01429900  0.01109900  0.23525300  1
  Cs  Cs2  1  0.48570100  0.01109900  0.73525300  1
  Cs  Cs3  1  0.51429900  0.98890100  0.26474700  1
  Cs  Cs4  1  0.80659900  0.66250000  0.58735000  1
  Cs  Cs5  1  0.19340100  0.33750000  0.41265000  1
  Cs  Cs6  1  0.30659900  0.33750000  0.91265000  1
  Cs  Cs7  1  0.69340100  0.66250000  0.08735000  1
  W  W0  1  0.28768100  0.67147800  0.58307100  1
  W  W1  1  0.71231900  0.32852200  0.41692900  1
  W  W2  1  0.78768100  0.32852200  0.91692900  1
  W  W3  1  0.21231900  0.67147800  0.08307100  1
  O  O0  1  0.13571300  0.69320900  0.67723100  1
  O  O1  1  0.86428700  0.30679100  0.32276900  1
  O  O2  1  0.63571300  0.30679100  0.82276900  1
  O  O3  1  0.36428700  0.69320900  0.17723100  1
  O  O4  1  0.48354200  0.79048000  0.57791600  1
  O  O5  1  0.51645800  0.20952000  0.42208400  1
  O  O6  1  0.98354200  0.20952000  0.92208400  1
  O  O7  1  0.01645800  0.79048000  0.07791600  1
  O  O8  1  0.44284500  0.64047800  0.68764500  1
  O  O9  1  0.55715500  0.35952200  0.31235500  1
  O  O10  1  0.94284500  0.35952200  0.81235500  1
  O  O11  1  0.05715500  0.64047800  0.18764500  1
  O  O12  1  0.22631600  0.83992500  0.92725800  1
  O  O13  1  0.77368400  0.16007500  0.07274200  1
  O  O14  1  0.72631600  0.16007500  0.57274200  1
  O  O15  1  0.27368400  0.83992500  0.42725800  1
  O  O16  1  0.20014100  0.89993700  0.60858000  1
  O  O17  1  0.79985900  0.10006300  0.39142000  1
  O  O18  1  0.70014100  0.10006300  0.89142000  1
  O  O19  1  0.29985900  0.89993700  0.10858000  1
  O  O20  1  0.36600200  0.42690900  0.56804700  1
  O  O21  1  0.63399800  0.57309100  0.43195300  1
  O  O22  1  0.86600200  0.57309100  0.93195300  1
  O  O23  1  0.13399800  0.42690900  0.06804700  1
  O  O24  1  0.25225900  0.36767600  0.65128100  1
  O  O25  1  0.74774100  0.63232400  0.34871900  1
  O  O26  1  0.75225900  0.63232400  0.84871900  1
  O  O27  1  0.24774100  0.36767600  0.15128100  1
  O  O28  1  0.35805900  0.71050000  0.97024000  1
  O  O29  1  0.64194100  0.28950000  0.02976000  1
  O  O30  1  0.85805900  0.28950000  0.52976000  1
  O  O31  1  0.14194100  0.71050000  0.47024000  1
loop_
_geom_bond_atom_site_label_1
_geom_bond_atom_site_label_2
_geom_bond_distance
_geom_bond_site_symmetry_2
Cs0 O12 3.052377 1_655
Cs0 O10 3.071623 1_565
Cs0 O22 3.104777 1_555
Cs0 O26 3.177652 1_555
Cs0 O0 3.231821 1_655
Cs0 O16 3.255064 1_655
Cs0 O6 3.274049 1_565
Cs0 O30 3.299350 1_565
Cs0 O14 3.439310 1_565
Cs0 O18 3.498831 1_565
Cs0 O24 3.518489 1_665
Cs1 O13 3.052377 1_455
Cs1 O11 3.071623 1_545
Cs1 O23 3.104777 1_555
Cs1 O27 3.177652 1_555
Cs1 O1 3.231821 1_455
Cs1 O17 3.255064 1_455
Cs1 O7 3.274049 1_545
Cs1 O31 3.299350 1_545
Cs1 O15 3.439310 1_545
Cs1 O19 3.498831 1_545
Cs1 O25 3.518489 1_445
Cs2 O14 3.052377 1_555
Cs2 O8 3.071623 1_545
Cs2 O20 3.104777 1_555
Cs2 O24 3.177652 1_555
Cs2 O2 3.231821 1_555
Cs2 O18 3.255064 1_555
Cs2 O4 3.274049 1_545
Cs2 O28 3.299350 1_545
Cs2 O12 3.439310 1_545
Cs2 O16 3.498831 1_545
Cs2 O26 3.518489 1_545
Cs3 O15 3.052377 1_555
Cs3 O9 3.071623 1_565
Cs3 O21 3.104777 1_555
Cs3 O25 3.177652 1_555
Cs3 O3 3.231821 1_555
Cs3 O19 3.255064 1_555
Cs3 O5 3.274049 1_565
Cs3 O29 3.299350 1_565
Cs3 O13 3.439310 1_565
Cs3 O17 3.498831 1_565
Cs3 O27 3.518489 1_565
Cs4 O21 3.024503 1_555
Cs4 O4 3.132699 1_555
Cs4 O17 3.163714 1_565
Cs4 O30 3.187415 1_555
Cs4 O10 3.233306 1_555
Cs4 O0 3.364805 1_655
Cs4 O31 3.482549 1_655
Cs4 O2 3.570925 1_555
Cs4 O14 3.596881 1_565
Cs4 O26 3.659688 1_555
Cs5 O20 3.024503 1_555
Cs5 O5 3.132699 1_555
Cs5 O16 3.163714 1_545
Cs5 O31 3.187415 1_555
Cs5 O11 3.233306 1_555
Cs5 O1 3.364805 1_455
Cs5 O30 3.482549 1_455
Cs5 O3 3.570925 1_555
Cs5 O15 3.596881 1_545
Cs5 O27 3.659688 1_555
Cs6 O23 3.024503 1_556
Cs6 O6 3.132699 1_455
Cs6 O19 3.163714 1_546
Cs6 O28 3.187415 1_555
Cs6 O8 3.233306 1_555
Cs6 O2 3.364805 1_555
Cs6 O29 3.482549 1_556
Cs6 O0 3.570925 1_555
Cs6 O12 3.596881 1_545
Cs6 O24 3.659688 1_555
Cs7 O22 3.024503 1_554
Cs7 O7 3.132699 1_655
Cs7 O18 3.163714 1_564
Cs7 O29 3.187415 1_555
Cs7 O9 3.233306 1_555
Cs7 O3 3.364805 1_555
Cs7 O28 3.482549 1_554
Cs7 O1 3.570925 1_555
Cs7 O13 3.596881 1_565
Cs7 O25 3.659688 1_555
O0 O16 1.504611 1_555
O0 W0 2.001200 1_555
O1 O17 1.504611 1_555
O1 W1 2.001200 1_555
O2 W2 2.001200 1_555
O3 W3 2.001200 1_555
O4 O8 1.503290 1_555
O4 W0 2.004481 1_555
O5 O9 1.503290 1_555
O5 W1 2.004481 1_555
O6 W2 2.004481 1_555
O7 W3 2.004481 1_555
O8 W0 2.013060 1_555
O9 W1 2.013060 1_555
O10 O6 1.503290 1_555
O10 W2 2.013060 1_555
O11 O7 1.503290 1_555
O11 W3 2.013060 1_555
O12 O28 1.500223 1_555
O12 W3 2.006005 1_556
O13 O29 1.500223 1_555
O13 W2 2.006005 1_554
O14 O30 1.500223 1_555
O14 W1 2.006005 1_555
O15 O31 1.500223 1_555
O15 W0 2.006005 1_555
O16 W0 2.016526 1_555
O17 W1 2.016526 1_555
O18 O2 1.504611 1_555
O18 W2 2.016526 1_555
O19 O3 1.504611 1_555
O19 W3 2.016526 1_555
O20 O24 1.502316 1_555
O20 W0 2.012947 1_555
O21 O25 1.502316 1_555
O21 W1 2.012947 1_555
O22 O26 1.502316 1_555
O22 W2 2.012947 1_555
O23 O27 1.502316 1_555
O23 W3 2.012947 1_555
O24 W0 2.001961 1_555
O25 W1 2.001961 1_555
O26 W2 2.001961 1_555
O27 W3 2.001961 1_555
O28 W3 2.023175 1_556
O29 W2 2.023175 1_554
O30 W1 2.023175 1_555
O31 W0 2.023175 1_555
