# generated using pymatgen
data_Ba2NO6
_symmetry_space_group_name_H-M   'P 1'
_cell_length_a   6.93170421
_cell_length_b   6.93170421
_cell_length_c   3.95368600
_cell_angle_alpha   90.00000000
_cell_angle_beta   90.00000000
_cell_angle_gamma   120.00000202
_symmetry_Int_Tables_number   1
_chemical_formula_structural   Ba2NO6
_chemical_formula_sum   'Ba2 N1 O6'
_cell_volume   164.51778069
_cell_formula_units_Z   1
loop_
 _symmetry_equiv_pos_site_id
 _symmetry_equiv_pos_as_xyz
  1  'x, y, z'
loop_
 _atom_site_type_symbol
 _atom_site_label
 _atom_site_symmetry_multiplicity
 _atom_site_fract_x
 _atom_site_fract_y
 _atom_site_fract_z
 _atom_site_occupancy
  Ba  Ba0  1  0.33333300  0.66666700  0.00000000  1
  Ba  Ba1  1  0.66666700  0.33333300  0.00000000  1
  N  N0  1  0.00000000  0.00000000  0.00000000  1
  O  O0  1  0.00000000  0.18303300  0.00000000  1
  O  O1  1  0.81696700  0.81696700  0.00000000  1
  O  O2  1  0.18303300  0.00000000  0.00000000  1
  O  O3  1  0.00000000  0.53469100  0.50000000  1
  O  O4  1  0.46530900  0.46530900  0.50000000  1
  O  O5  1  0.53469100  0.00000000  0.50000000  1
loop_
_geom_bond_atom_site_label_1
_geom_bond_atom_site_label_2
_geom_bond_distance
_geom_bond_site_symmetry_2
Ba0 O3 2.823078 1_554
Ba0 O3 2.823078 1_555
Ba0 O5 2.823078 1_565
Ba0 O5 2.823078 1_564
Ba0 O4 2.823082 1_555
Ba0 O4 2.823082 1_554
Ba0 O2 2.971761 1_565
Ba0 O0 2.971766 1_555
Ba0 O1 2.971768 1_555
Ba1 O5 2.823078 1_554
Ba1 O5 2.823078 1_555
Ba1 O3 2.823078 1_655
Ba1 O3 2.823078 1_654
Ba1 O4 2.823082 1_555
Ba1 O4 2.823082 1_554
Ba1 O0 2.971761 1_655
Ba1 O2 2.971766 1_555
Ba1 O1 2.971768 1_555
N0 O1 1.268731 1_445
N0 O0 1.268731 1_555
N0 O2 1.268731 1_555
