# generated using pymatgen
data_Ca(AlSn)2
_symmetry_space_group_name_H-M   'P 1'
_cell_length_a   4.53695004
_cell_length_b   4.53695004
_cell_length_c   7.54861600
_cell_angle_alpha   90.00000000
_cell_angle_beta   90.00000000
_cell_angle_gamma   120.00000056
_symmetry_Int_Tables_number   1
_chemical_formula_structural   Ca(AlSn)2
_chemical_formula_sum   'Ca1 Al2 Sn2'
_cell_volume   134.56309145
_cell_formula_units_Z   1
loop_
 _symmetry_equiv_pos_site_id
 _symmetry_equiv_pos_as_xyz
  1  'x, y, z'
loop_
 _atom_site_type_symbol
 _atom_site_label
 _atom_site_symmetry_multiplicity
 _atom_site_fract_x
 _atom_site_fract_y
 _atom_site_fract_z
 _atom_site_occupancy
  Ca  Ca0  1  0.00000000  0.00000000  0.00000000  1
  Al  Al0  1  0.66666700  0.33333300  0.37051600  1
  Al  Al1  1  0.33333300  0.66666700  0.62948400  1
  Sn  Sn0  1  0.66666700  0.33333300  0.74534400  1
  Sn  Sn1  1  0.33333300  0.66666700  0.25465600  1
loop_
_geom_bond_atom_site_label_1
_geom_bond_atom_site_label_2
_geom_bond_distance
_geom_bond_site_symmetry_2
Ca0 Sn1 3.249081 1_545
Ca0 Sn0 3.249081 1_454
Ca0 Sn0 3.249085 1_554
Ca0 Sn0 3.249085 1_444
Ca0 Sn1 3.249085 1_445
Ca0 Sn1 3.249085 1_555
Al0 Sn1 2.761555 1_545
Al0 Sn1 2.761555 1_655
Al0 Sn1 2.761563 1_555
Al0 Sn0 2.829433 1_555
Al1 Sn0 2.761555 1_455
Al1 Sn0 2.761555 1_565
Al1 Sn0 2.761563 1_555
Al1 Sn1 2.829433 1_555
