# generated using pymatgen
data_DyGaGe2O7
_symmetry_space_group_name_H-M   'P 1'
_cell_length_a   6.61465400
_cell_length_b   7.26935700
_cell_length_c   12.85657057
_cell_angle_alpha   61.85612667
_cell_angle_beta   90.00000000
_cell_angle_gamma   90.00000000
_symmetry_Int_Tables_number   1
_chemical_formula_structural   DyGaGe2O7
_chemical_formula_sum   'Dy4 Ga4 Ge8 O28'
_cell_volume   545.10678243
_cell_formula_units_Z   4
loop_
 _symmetry_equiv_pos_site_id
 _symmetry_equiv_pos_as_xyz
  1  'x, y, z'
loop_
 _atom_site_type_symbol
 _atom_site_label
 _atom_site_symmetry_multiplicity
 _atom_site_fract_x
 _atom_site_fract_y
 _atom_site_fract_z
 _atom_site_occupancy
  Dy  Dy0  1  0.35728000  0.74479100  0.52859400  1
  Dy  Dy1  1  0.64272000  0.25520900  0.47140600  1
  Dy  Dy2  1  0.85728000  0.25520900  0.97140600  1
  Dy  Dy3  1  0.14272000  0.74479100  0.02859400  1
  Ga  Ga0  1  0.40096900  0.71181000  0.27043800  1
  Ga  Ga1  1  0.59903100  0.28819000  0.72956200  1
  Ga  Ga2  1  0.90096900  0.28819000  0.22956200  1
  Ga  Ga3  1  0.09903100  0.71181000  0.77043800  1
  Ge  Ge0  1  0.65704700  0.71759000  0.04230800  1
  Ge  Ge1  1  0.34295300  0.28241000  0.95769200  1
  Ge  Ge2  1  0.15704700  0.28241000  0.45769200  1
  Ge  Ge3  1  0.84295300  0.71759000  0.54230800  1
  Ge  Ge4  1  0.91096800  0.80023300  0.27718400  1
  Ge  Ge5  1  0.08903200  0.19976700  0.72281600  1
  Ge  Ge6  1  0.41096800  0.19976700  0.22281600  1
  Ge  Ge7  1  0.58903200  0.80023300  0.77718400  1
  O  O0  1  0.37608200  0.92682500  0.31304800  1
  O  O1  1  0.62391800  0.07317500  0.68695200  1
  O  O2  1  0.87608200  0.07317500  0.18695200  1
  O  O3  1  0.12391800  0.92682500  0.81304800  1
  O  O4  1  0.82797400  0.91277900  0.01990900  1
  O  O5  1  0.17202600  0.08722100  0.98009100  1
  O  O6  1  0.32797400  0.08722100  0.48009100  1
  O  O7  1  0.67202600  0.91277900  0.51990900  1
  O  O8  1  0.61074200  0.28146700  0.28162700  1
  O  O9  1  0.38925800  0.71853300  0.71837300  1
  O  O10  1  0.11074200  0.71853300  0.21837300  1
  O  O11  1  0.88925800  0.28146700  0.78162700  1
  O  O12  1  0.00248200  0.75662800  0.42091700  1
  O  O13  1  0.99751800  0.24337200  0.57908300  1
  O  O14  1  0.50248200  0.24337200  0.07908300  1
  O  O15  1  0.49751800  0.75662800  0.92091700  1
  O  O16  1  0.44385300  0.71028300  0.12644800  1
  O  O17  1  0.55614700  0.28971700  0.87355200  1
  O  O18  1  0.94385300  0.28971700  0.37355200  1
  O  O19  1  0.05614700  0.71028300  0.62644800  1
  O  O20  1  0.84445200  0.51760600  0.07586500  1
  O  O21  1  0.15554800  0.48239400  0.92413500  1
  O  O22  1  0.34445200  0.48239400  0.42413500  1
  O  O23  1  0.65554800  0.51760600  0.57586500  1
  O  O24  1  0.68937000  0.64819000  0.31522000  1
  O  O25  1  0.31063000  0.35181000  0.68478000  1
  O  O26  1  0.18937000  0.35181000  0.18478000  1
  O  O27  1  0.81063000  0.64819000  0.81522000  1
loop_
_geom_bond_atom_site_label_1
_geom_bond_atom_site_label_2
_geom_bond_distance
_geom_bond_site_symmetry_2
Dy0 O6 2.271217 1_565
Dy0 O19 2.305552 1_555
Dy0 O9 2.365369 1_555
Dy0 O7 2.389463 1_555
Dy0 O0 2.446750 1_555
Dy0 O23 2.458132 1_555
Dy0 O25 2.622342 1_555
Dy0 O12 2.705412 1_555
Dy0 O22 2.804609 1_555
Dy1 O7 2.271217 1_545
Dy1 O18 2.305552 1_555
Dy1 O8 2.365369 1_555
Dy1 O6 2.389463 1_555
Dy1 O1 2.446750 1_555
Dy1 O22 2.458132 1_555
Dy1 O24 2.622342 1_555
Dy1 O13 2.705412 1_555
Dy1 O23 2.804609 1_555
Dy2 O4 2.271217 1_546
Dy2 O17 2.305552 1_555
Dy2 O11 2.365369 1_555
Dy2 O5 2.389463 1_655
Dy2 O2 2.446750 1_556
Dy2 O21 2.458132 1_655
Dy2 O27 2.622342 1_555
Dy2 O14 2.705412 1_556
Dy2 O20 2.804609 1_556
Dy3 O5 2.271217 1_564
Dy3 O16 2.305552 1_555
Dy3 O10 2.365369 1_555
Dy3 O4 2.389463 1_455
Dy3 O3 2.446750 1_554
Dy3 O20 2.458132 1_455
Dy3 O26 2.622342 1_555
Dy3 O15 2.705412 1_554
Dy3 O21 2.804609 1_554
Ga0 O16 1.878026 1_555
Ga0 O0 1.891561 1_555
Ga0 O22 1.927909 1_555
Ga0 O24 1.983278 1_555
Ga0 O10 2.026089 1_555
Ga1 O17 1.878026 1_555
Ga1 O1 1.891561 1_555
Ga1 O23 1.927909 1_555
Ga1 O25 1.983278 1_555
Ga1 O11 2.026089 1_555
Ga2 O18 1.878026 1_555
Ga2 O2 1.891561 1_555
Ga2 O20 1.927909 1_555
Ga2 O26 1.983278 1_655
Ga2 O8 2.026089 1_555
Ga3 O19 1.878026 1_555
Ga3 O3 1.891561 1_555
Ga3 O21 1.927909 1_555
Ga3 O27 1.983278 1_455
Ga3 O9 2.026089 1_555
Ge0 O4 1.728885 1_555
Ge0 O16 1.762804 1_555
Ge0 O15 1.792185 1_554
Ge0 O20 1.801254 1_555
Ge1 O5 1.728885 1_555
Ge1 O17 1.762804 1_555
Ge1 O14 1.792185 1_556
Ge1 O21 1.801254 1_555
Ge2 O6 1.728885 1_555
Ge2 O18 1.762804 1_455
Ge2 O13 1.792185 1_455
Ge2 O22 1.801254 1_555
Ge3 O7 1.728885 1_555
Ge3 O19 1.762804 1_655
Ge3 O12 1.792185 1_655
Ge3 O23 1.801254 1_555
Ge4 O10 1.759047 1_655
Ge4 O24 1.760510 1_555
Ge4 O2 1.778860 1_565
Ge4 O12 1.824584 1_655
Ge5 O11 1.759047 1_455
Ge5 O25 1.760510 1_555
Ge5 O3 1.778860 1_545
Ge5 O13 1.824584 1_455
Ge6 O8 1.759047 1_555
Ge6 O26 1.760510 1_555
Ge6 O0 1.778860 1_545
Ge6 O14 1.824584 1_555
Ge7 O9 1.759047 1_555
Ge7 O27 1.760510 1_555
Ge7 O1 1.778860 1_565
Ge7 O15 1.824584 1_555
