# generated using pymatgen
data_Li7Mn4CoO12
_symmetry_space_group_name_H-M   'P 1'
_cell_length_a   2.86803900
_cell_length_b   5.83241100
_cell_length_c   13.32619479
_cell_angle_alpha   77.86569455
_cell_angle_beta   90.00000000
_cell_angle_gamma   90.00000000
_symmetry_Int_Tables_number   1
_chemical_formula_structural   Li7Mn4CoO12
_chemical_formula_sum   'Li7 Mn4 Co1 O12'
_cell_volume   217.93455211
_cell_formula_units_Z   1
loop_
 _symmetry_equiv_pos_site_id
 _symmetry_equiv_pos_as_xyz
  1  'x, y, z'
loop_
 _atom_site_type_symbol
 _atom_site_label
 _atom_site_symmetry_multiplicity
 _atom_site_fract_x
 _atom_site_fract_y
 _atom_site_fract_z
 _atom_site_occupancy
  Li  Li0  1  0.50000000  0.83335700  0.83291000  1
  Li  Li1  1  0.50000000  0.49901000  0.50462300  1
  Li  Li2  1  0.50000000  0.16817400  0.16213800  1
  Li  Li3  1  0.00000000  0.16657600  0.67399900  1
  Li  Li4  1  0.00000000  0.83402800  0.33556200  1
  Li  Li5  1  0.00000000  0.49973400  0.99025400  1
  Li  Li6  1  0.50000000  0.33490000  0.83219600  1
  Mn  Mn0  1  0.00000000  0.01221300  0.98619700  1
  Mn  Mn1  1  0.00000000  0.65805100  0.67723700  1
  Mn  Mn2  1  0.00000000  0.32879400  0.33661700  1
  Mn  Mn3  1  0.50000000  0.66989900  0.16193100  1
  Co  Co0  1  0.50000000  0.99514500  0.50679200  1
  O  O0  1  0.50000000  0.77844800  0.99535600  1
  O  O1  1  0.50000000  0.44294100  0.66368800  1
  O  O2  1  0.50000000  0.09976300  0.33328800  1
  O  O3  1  0.00000000  0.07865800  0.84836100  1
  O  O4  1  0.00000000  0.76879100  0.51050800  1
  O  O5  1  0.00000000  0.44117700  0.16282400  1
  O  O6  1  0.50000000  0.89185300  0.66781000  1
  O  O7  1  0.50000000  0.56020200  0.33850600  1
  O  O8  1  0.50000000  0.22635100  0.00056000  1
  O  O9  1  0.00000000  0.21792000  0.50505200  1
  O  O10  1  0.00000000  0.90259100  0.15830200  1
  O  O11  1  0.00000000  0.59142300  0.81528800  1
loop_
_geom_bond_atom_site_label_1
_geom_bond_atom_site_label_2
_geom_bond_distance
_geom_bond_site_symmetry_2
Li0 O11 2.059600 1_655
Li0 O11 2.059600 1_555
Li0 O3 2.066288 1_665
Li0 O3 2.066288 1_565
Li0 O0 2.120709 1_555
Li0 O6 2.154416 1_555
Li1 O1 2.075760 1_555
Li1 O4 2.142489 1_555
Li1 O4 2.142489 1_655
Li1 O7 2.166963 1_555
Li1 O9 2.177210 1_555
Li1 O9 2.177210 1_655
Li2 O8 2.108159 1_555
Li2 O10 2.119359 1_545
Li2 O10 2.119359 1_645
Li2 O5 2.144277 1_555
Li2 O5 2.144277 1_655
Li2 O2 2.231270 1_555
Li3 O1 2.140168 1_455
Li3 O1 2.140168 1_555
Li3 O6 2.164747 1_445
Li3 O6 2.164747 1_545
Li3 O9 2.207969 1_555
Li3 O3 2.271798 1_555
Li4 O2 2.107059 1_465
Li4 O2 2.107059 1_565
Li4 O7 2.140614 1_455
Li4 O7 2.140614 1_555
Li4 O4 2.281908 1_555
Li4 O10 2.311446 1_555
Li5 O8 2.127342 1_556
Li5 O8 2.127342 1_456
Li5 O0 2.179448 1_455
Li5 O0 2.179448 1_555
Li5 O5 2.252793 1_556
Li5 O11 2.279974 1_555
Li6 O3 2.049640 1_555
Li6 O3 2.049640 1_655
Li6 O11 2.050345 1_655
Li6 O11 2.050345 1_555
Li6 O8 2.199458 1_556
Li6 O1 2.201085 1_555
Mn0 O3 1.795791 1_555
Mn0 O8 1.937369 1_556
Mn0 O8 1.937369 1_456
Mn0 O0 1.964751 1_545
Mn0 O0 1.964751 1_445
Mn0 O10 2.247770 1_546
Mn1 O11 1.798592 1_555
Mn1 O1 1.938632 1_455
Mn1 O1 1.938632 1_555
Mn1 O6 1.964602 1_555
Mn1 O6 1.964602 1_455
Mn1 O4 2.179571 1_555
Mn2 O2 1.966637 1_455
Mn2 O2 1.966637 1_555
Mn2 O7 1.973051 1_555
Mn2 O7 1.973051 1_455
Mn2 O9 2.201402 1_555
Mn2 O5 2.270525 1_555
Mn3 O5 1.956895 1_655
Mn3 O5 1.956895 1_555
Mn3 O10 1.968001 1_555
Mn3 O10 1.968001 1_655
Mn3 O0 2.176592 1_554
Mn3 O7 2.305075 1_555
Co0 O9 1.931969 1_565
Co0 O9 1.931969 1_665
Co0 O4 1.942751 1_555
Co0 O4 1.942751 1_655
Co0 O6 2.103272 1_555
Co0 O2 2.263896 1_565
