# generated using pymatgen
data_Nb4H3S8
_symmetry_space_group_name_H-M   'P 1'
_cell_length_a   3.35584928
_cell_length_b   3.35584928
_cell_length_c   26.28329811
_cell_angle_alpha   90.00000000
_cell_angle_beta   90.00000000
_cell_angle_gamma   120.00000385
_symmetry_Int_Tables_number   1
_chemical_formula_structural   Nb4H3S8
_chemical_formula_sum   'Nb4 H3 S8'
_cell_volume   256.33940335
_cell_formula_units_Z   1
loop_
 _symmetry_equiv_pos_site_id
 _symmetry_equiv_pos_as_xyz
  1  'x, y, z'
loop_
 _atom_site_type_symbol
 _atom_site_label
 _atom_site_symmetry_multiplicity
 _atom_site_fract_x
 _atom_site_fract_y
 _atom_site_fract_z
 _atom_site_occupancy
  Nb  Nb0  1  0.66666700  0.33333300  0.00000000  1
  Nb  Nb1  1  0.66666700  0.33333300  0.50000000  1
  Nb  Nb2  1  0.33333300  0.66666700  0.24937880  1
  Nb  Nb3  1  0.33333300  0.66666700  0.75062120  1
  H  H0  1  0.00000000  -0.00000000  0.50000000  1
  H  H1  1  0.00000000  -0.00000000  0.24949594  1
  H  H2  1  0.00000000  -0.00000000  0.75050406  1
  S  S0  1  0.66666700  0.33333300  0.31171828  1
  S  S1  1  0.66666700  0.33333300  0.81297770  1
  S  S2  1  0.33333300  0.66666700  0.94040017  1
  S  S3  1  0.33333300  0.66666700  0.43766561  1
  S  S4  1  0.33333300  0.66666700  0.05959983  1
  S  S5  1  0.33333300  0.66666700  0.56233439  1
  S  S6  1  0.66666700  0.33333300  0.18702230  1
  S  S7  1  0.66666700  0.33333300  0.68828172  1
loop_
_geom_bond_atom_site_label_1
_geom_bond_atom_site_label_2
_geom_bond_distance
_geom_bond_site_symmetry_2
Nb0 S4 2.491538 1_545
Nb0 S4 2.491538 1_655
Nb0 S2 2.491538 1_654
Nb0 S2 2.491538 1_544
Nb0 S4 2.491542 1_555
Nb0 S2 2.491542 1_554
Nb1 S5 2.537342 1_545
Nb1 S5 2.537342 1_655
Nb1 S3 2.537342 1_545
Nb1 S3 2.537342 1_655
Nb1 S5 2.537346 1_555
Nb1 S3 2.537346 1_555
Nb2 S0 2.537428 1_455
Nb2 S0 2.537428 1_565
Nb2 S0 2.537432 1_555
Nb2 S6 2.537717 1_455
Nb2 S6 2.537717 1_565
Nb2 S6 2.537721 1_555
Nb3 S7 2.537428 1_455
Nb3 S7 2.537428 1_565
Nb3 S7 2.537432 1_555
Nb3 S1 2.537717 1_455
Nb3 S1 2.537717 1_565
Nb3 S1 2.537721 1_555
H0 Nb1 1.937499 1_455
H0 Nb1 1.937501 1_445
H0 Nb1 1.937501 1_555
H1 Nb2 1.937501 1_545
H1 Nb2 1.937504 1_555
H1 Nb2 1.937504 1_445
H2 Nb3 1.937501 1_545
H2 Nb3 1.937504 1_555
H2 Nb3 1.937504 1_445
