# generated using pymatgen
data_Mg6ZnMo
_symmetry_space_group_name_H-M   'P 1'
_cell_length_a   4.84697600
_cell_length_b   6.03591700
_cell_length_c   10.68013700
_cell_angle_alpha   90.00000000
_cell_angle_beta   90.00000000
_cell_angle_gamma   90.00000000
_symmetry_Int_Tables_number   1
_chemical_formula_structural   Mg6ZnMo
_chemical_formula_sum   'Mg12 Zn2 Mo2'
_cell_volume   312.45749892
_cell_formula_units_Z   2
loop_
 _symmetry_equiv_pos_site_id
 _symmetry_equiv_pos_as_xyz
  1  'x, y, z'
loop_
 _atom_site_type_symbol
 _atom_site_label
 _atom_site_symmetry_multiplicity
 _atom_site_fract_x
 _atom_site_fract_y
 _atom_site_fract_z
 _atom_site_occupancy
  Mg  Mg0  1  0.50000000  0.25236000  0.41885300  1
  Mg  Mg1  1  0.50000000  0.74764000  0.41885300  1
  Mg  Mg2  1  0.00000000  0.74124000  0.08746000  1
  Mg  Mg3  1  0.00000000  0.25876000  0.08746000  1
  Mg  Mg4  1  0.00000000  0.00000000  0.32816200  1
  Mg  Mg5  1  0.00000000  0.50000000  0.32375200  1
  Mg  Mg6  1  0.50000000  0.75236000  0.91885300  1
  Mg  Mg7  1  0.50000000  0.24764000  0.91885300  1
  Mg  Mg8  1  0.00000000  0.24124000  0.58746000  1
  Mg  Mg9  1  0.00000000  0.75876000  0.58746000  1
  Mg  Mg10  1  0.00000000  0.50000000  0.82816200  1
  Mg  Mg11  1  0.00000000  0.00000000  0.82375200  1
  Zn  Zn0  1  0.50000000  0.00000000  0.16582200  1
  Zn  Zn1  1  0.50000000  0.50000000  0.66582200  1
  Mo  Mo0  1  0.50000000  0.50000000  0.16963400  1
  Mo  Mo1  1  0.50000000  0.00000000  0.66963400  1
loop_
_geom_bond_atom_site_label_1
_geom_bond_atom_site_label_2
_geom_bond_distance
_geom_bond_site_symmetry_2
Mg0 Mg1 2.989469 1_555
Mg0 Mg8 3.020014 1_655
Mg0 Mg8 3.020014 1_555
Mg0 Mg4 3.021866 1_655
Mg0 Mg4 3.021866 1_555
Mg0 Mg5 3.023104 1_655
Mg0 Mg5 3.023104 1_555
Mg0 Zn1 3.031748 1_555
Mg0 Mg1 3.046448 1_545
Mg0 Mo0 3.052678 1_555
Mg0 Mo1 3.081218 1_555
Mg0 Zn0 3.102130 1_555
Mg1 Mg9 3.020014 1_555
Mg1 Mg9 3.020014 1_655
Mg1 Mg4 3.021866 1_665
Mg1 Mg4 3.021866 1_565
Mg1 Mg5 3.023104 1_655
Mg1 Mg5 3.023104 1_555
Mg1 Zn1 3.031748 1_555
Mg1 Mo0 3.052678 1_555
Mg1 Mo1 3.081218 1_565
Mg1 Zn0 3.102130 1_565
Mg2 Mg3 2.912209 1_555
Mg2 Mg5 2.913581 1_555
Mg2 Mo0 2.960366 1_455
Mg2 Mo0 2.960366 1_555
Mg2 Zn0 3.002184 1_465
Mg2 Zn0 3.002184 1_565
Mg2 Mg4 3.007996 1_565
Mg2 Mg6 3.020014 1_554
Mg2 Mg6 3.020014 1_454
Mg2 Mg3 3.123708 1_565
Mg3 Mg5 2.913581 1_555
Mg3 Mo0 2.960366 1_455
Mg3 Mo0 2.960366 1_555
Mg3 Zn0 3.002184 1_555
Mg3 Zn0 3.002184 1_455
Mg3 Mg4 3.007996 1_555
Mg3 Mg7 3.020014 1_554
Mg3 Mg7 3.020014 1_454
Mg4 Zn0 2.979833 1_555
Mg4 Zn0 2.979833 1_455
Mg4 Mg5 3.018326 1_555
Mg4 Mg5 3.018326 1_545
Mg4 Mg8 3.128814 1_555
Mg4 Mg9 3.128814 1_545
Mg5 Mo0 2.929610 1_555
Mg5 Mo0 2.929610 1_455
Mg5 Mg9 3.220514 1_555
Mg5 Mg8 3.220514 1_555
Mg6 Mg7 2.989469 1_565
Mg6 Zn0 3.031748 1_566
Mg6 Mg7 3.046448 1_555
Mg6 Mo1 3.052678 1_565
Mg6 Mo0 3.081218 1_556
Mg6 Zn1 3.102130 1_555
Mg7 Zn0 3.031748 1_556
Mg7 Mo1 3.052678 1_555
Mg7 Mo0 3.081218 1_556
Mg7 Zn1 3.102130 1_555
Mg8 Mg9 2.912209 1_545
Mg8 Mo1 2.960366 1_555
Mg8 Mo1 2.960366 1_455
Mg8 Zn1 3.002184 1_455
Mg8 Zn1 3.002184 1_555
Mg8 Mg9 3.123708 1_555
Mg9 Mo1 2.960366 1_465
Mg9 Mo1 2.960366 1_565
Mg9 Zn1 3.002184 1_455
Mg9 Zn1 3.002184 1_555
Mg10 Zn1 2.979833 1_555
Mg10 Zn1 2.979833 1_455
Mg10 Mg8 3.007996 1_555
Mg10 Mg9 3.007996 1_555
Mg10 Mg11 3.018326 1_555
Mg10 Mg11 3.018326 1_565
Mg10 Mg6 3.021866 1_555
Mg10 Mg7 3.021866 1_455
Mg10 Mg7 3.021866 1_555
Mg10 Mg6 3.021866 1_455
Mg10 Mg3 3.128814 1_556
Mg10 Mg2 3.128814 1_556
Mg11 Mg9 2.913581 1_545
Mg11 Mg8 2.913581 1_555
Mg11 Mo1 2.929610 1_555
Mg11 Mo1 2.929610 1_455
Mg11 Mg7 3.023104 1_455
Mg11 Mg6 3.023104 1_545
Mg11 Mg7 3.023104 1_555
Mg11 Mg6 3.023104 1_445
Mg11 Mg3 3.220514 1_556
Mg11 Mg2 3.220514 1_546
Mo0 Zn0 3.018233 1_565
Mo0 Zn0 3.018233 1_555
Mo1 Zn1 3.018233 1_555
Mo1 Zn1 3.018233 1_545
