# generated using pymatgen
data_U(Fe2Ge)2
_symmetry_space_group_name_H-M   'P 1'
_cell_length_a   4.05332800
_cell_length_b   7.06681100
_cell_length_c   7.06681100
_cell_angle_alpha   90.00000000
_cell_angle_beta   90.00000000
_cell_angle_gamma   90.00000000
_symmetry_Int_Tables_number   1
_chemical_formula_structural   U(Fe2Ge)2
_chemical_formula_sum   'U2 Fe8 Ge4'
_cell_volume   202.42246144
_cell_formula_units_Z   2
loop_
 _symmetry_equiv_pos_site_id
 _symmetry_equiv_pos_as_xyz
  1  'x, y, z'
loop_
 _atom_site_type_symbol
 _atom_site_label
 _atom_site_symmetry_multiplicity
 _atom_site_fract_x
 _atom_site_fract_y
 _atom_site_fract_z
 _atom_site_occupancy
  U  U0  1  0.00000000  0.50000000  0.50000000  1
  U  U1  1  0.50000000  0.00000000  0.00000000  1
  Fe  Fe0  1  0.50000000  0.60466700  0.13591500  1
  Fe  Fe1  1  0.50000000  0.39533300  0.86408500  1
  Fe  Fe2  1  0.00000000  0.89533300  0.63591500  1
  Fe  Fe3  1  0.00000000  0.10466700  0.36408500  1
  Fe  Fe4  1  0.50000000  0.13591500  0.60466700  1
  Fe  Fe5  1  0.50000000  0.86408500  0.39533300  1
  Fe  Fe6  1  0.00000000  0.63591500  0.89533300  1
  Fe  Fe7  1  0.00000000  0.36408500  0.10466700  1
  Ge  Ge0  1  0.50000000  0.28916900  0.28916900  1
  Ge  Ge1  1  0.50000000  0.71083100  0.71083100  1
  Ge  Ge2  1  0.00000000  0.21083100  0.78916900  1
  Ge  Ge3  1  0.00000000  0.78916900  0.21083100  1
loop_
_geom_bond_atom_site_label_1
_geom_bond_atom_site_label_2
_geom_bond_distance
_geom_bond_site_symmetry_2
Fe0 Ge3 2.467316 1_555
Fe0 Ge3 2.467316 1_655
Fe0 Ge0 2.478686 1_555
Fe0 U1 2.954240 1_565
Fe1 Ge2 2.467316 1_655
Fe1 Ge2 2.467316 1_555
Fe1 Ge1 2.478686 1_555
Fe1 U1 2.954240 1_556
Fe2 Ge1 2.467316 1_455
Fe2 Ge1 2.467316 1_555
Fe2 Ge2 2.478686 1_565
Fe2 U0 2.954240 1_555
Fe3 Ge0 2.467316 1_555
Fe3 Ge0 2.467316 1_455
Fe3 Ge3 2.478686 1_545
Fe3 U0 2.954240 1_555
Fe4 Ge2 2.467316 1_655
Fe4 Ge2 2.467316 1_555
Fe4 Ge0 2.478686 1_555
Fe4 U1 2.954240 1_556
Fe5 Ge3 2.467316 1_555
Fe5 Ge3 2.467316 1_655
Fe5 Ge1 2.478686 1_555
Fe5 U1 2.954240 1_565
Fe6 Ge1 2.467316 1_555
Fe6 Ge1 2.467316 1_455
Fe6 Ge3 2.478686 1_556
Fe6 U0 2.954240 1_555
Fe7 Ge0 2.467316 1_555
Fe7 Ge0 2.467316 1_455
Fe7 Ge2 2.478686 1_554
Fe7 U0 2.954240 1_555
Ge0 U1 2.889949 1_555
Ge0 U0 2.923523 1_655
Ge0 U0 2.923523 1_555
Ge1 U1 2.889949 1_566
Ge1 U0 2.923523 1_655
Ge1 U0 2.923523 1_555
Ge2 U0 2.889949 1_555
Ge2 U1 2.923523 1_456
Ge2 U1 2.923523 1_556
Ge3 U0 2.889949 1_555
Ge3 U1 2.923523 1_565
Ge3 U1 2.923523 1_465
