# generated using pymatgen
data_BaTbEuSbO6
_symmetry_space_group_name_H-M   'P 1'
_cell_length_a   8.47384831
_cell_length_b   8.44480030
_cell_length_c   8.44107630
_cell_angle_alpha   90.00000000
_cell_angle_beta   90.00000000
_cell_angle_gamma   90.00000000
_symmetry_Int_Tables_number   1
_chemical_formula_structural   BaTbEuSbO6
_chemical_formula_sum   'Ba4 Tb4 Eu4 Sb4 O24'
_cell_volume   604.04305496
_cell_formula_units_Z   4
loop_
 _symmetry_equiv_pos_site_id
 _symmetry_equiv_pos_as_xyz
  1  'x, y, z'
loop_
 _atom_site_type_symbol
 _atom_site_label
 _atom_site_symmetry_multiplicity
 _atom_site_fract_x
 _atom_site_fract_y
 _atom_site_fract_z
 _atom_site_occupancy
  Ba  Ba0  1  -0.00000000  -0.00000000  -0.00000000  1
  Ba  Ba1  1  0.50000000  0.50000000  0.50000000  1
  Ba  Ba2  1  0.50000000  -0.00000000  0.50000000  1
  Ba  Ba3  1  -0.00000000  0.50000000  -0.00000000  1
  Tb  Tb0  1  0.25000000  0.25000000  0.25000000  1
  Tb  Tb1  1  0.75000000  0.75000000  0.25000000  1
  Tb  Tb2  1  0.75000000  0.25000000  0.75000000  1
  Tb  Tb3  1  0.25000000  0.75000000  0.75000000  1
  Eu  Eu0  1  -0.00000000  0.50000000  0.50000000  1
  Eu  Eu1  1  0.50000000  0.50000000  -0.00000000  1
  Eu  Eu2  1  0.50000000  -0.00000000  -0.00000000  1
  Eu  Eu3  1  -0.00000000  -0.00000000  0.50000000  1
  Sb  Sb0  1  0.75000000  0.75000000  0.75000000  1
  Sb  Sb1  1  0.25000000  0.25000000  0.75000000  1
  Sb  Sb2  1  0.25000000  0.75000000  0.25000000  1
  Sb  Sb3  1  0.75000000  0.25000000  0.25000000  1
  O  O0  1  0.98539086  0.21666936  0.27900950  1
  O  O1  1  0.01460914  0.78333064  0.27900950  1
  O  O2  1  0.01460914  0.21666936  0.72099050  1
  O  O3  1  0.98539086  0.78333064  0.72099050  1
  O  O4  1  0.28144899  0.98543022  0.21774749  1
  O  O5  1  0.28144899  0.01456978  0.78225251  1
  O  O6  1  0.71855101  0.01456978  0.21774749  1
  O  O7  1  0.71855101  0.98543022  0.78225251  1
  O  O8  1  0.22555907  0.27501890  0.98602877  1
  O  O9  1  0.77444093  0.27501890  0.01397123  1
  O  O10  1  0.22555907  0.72498110  0.01397123  1
  O  O11  1  0.77444093  0.72498110  0.98602877  1
  O  O12  1  0.51460914  0.28333064  0.22099050  1
  O  O13  1  0.48539086  0.71666936  0.22099050  1
  O  O14  1  0.48539086  0.28333064  0.77900950  1
  O  O15  1  0.51460914  0.71666936  0.77900950  1
  O  O16  1  0.21855101  0.51456978  0.28225251  1
  O  O17  1  0.21855101  0.48543022  0.71774749  1
  O  O18  1  0.78144899  0.48543022  0.28225251  1
  O  O19  1  0.78144899  0.51456978  0.71774749  1
  O  O20  1  0.27444093  0.22498110  0.51397123  1
  O  O21  1  0.72555907  0.22498110  0.48602877  1
  O  O22  1  0.27444093  0.77501890  0.48602877  1
  O  O23  1  0.72555907  0.77501890  0.51397123  1
loop_
_geom_bond_atom_site_label_1
_geom_bond_atom_site_label_2
_geom_bond_distance
_geom_bond_site_symmetry_2
Ba0 O1 2.984949 1_545
Ba0 O0 2.984949 1_455
Ba0 O2 2.984949 1_554
Ba0 O3 2.984949 1_444
Ba0 O9 3.010165 1_455
Ba0 O8 3.010165 1_554
Ba0 O11 3.010165 1_444
Ba0 O10 3.010165 1_545
Ba0 O7 3.013550 1_444
Ba0 O5 3.013550 1_554
Ba0 O6 3.013550 1_455
Ba0 O4 3.013550 1_545
Ba1 O14 2.984949 1_555
Ba1 O15 2.984949 1_555
Ba1 O12 2.984949 1_555
Ba1 O13 2.984949 1_555
Ba1 O23 3.010165 1_555
Ba1 O22 3.010165 1_555
Ba1 O21 3.010165 1_555
Ba1 O20 3.010165 1_555
Ba1 O17 3.013550 1_555
Ba1 O18 3.013550 1_555
Ba1 O19 3.013550 1_555
Ba1 O16 3.013550 1_555
Ba2 O22 2.697569 1_545
Ba2 O21 2.697569 1_555
Ba2 O23 2.697569 1_545
Ba2 O20 2.697569 1_555
Ba2 O6 3.020149 1_555
Ba2 O4 3.020149 1_545
Ba2 O5 3.020149 1_555
Ba2 O7 3.020149 1_545
Ba3 O10 2.697569 1_555
Ba3 O11 2.697569 1_454
Ba3 O9 2.697569 1_455
Ba3 O8 2.697569 1_554
Ba3 O19 3.020149 1_454
Ba3 O17 3.020149 1_554
Ba3 O18 3.020149 1_455
Ba3 O16 3.020149 1_555
Eu0 O18 2.612136 1_455
Eu0 O19 2.612136 1_455
Eu0 O16 2.612136 1_555
Eu0 O17 2.612136 1_555
Eu1 O12 2.615902 1_555
Eu1 O13 2.615902 1_555
Eu1 O14 2.615902 1_554
Eu1 O15 2.615902 1_554
Eu1 O10 3.005310 1_555
Eu1 O11 3.005310 1_554
Eu1 O8 3.005310 1_554
Eu1 O9 3.005310 1_555
Eu2 O7 2.612136 1_544
Eu2 O5 2.612136 1_554
Eu2 O6 2.612136 1_555
Eu2 O4 2.612136 1_545
Eu3 O2 2.615902 1_555
Eu3 O3 2.615902 1_445
Eu3 O1 2.615902 1_545
Eu3 O0 2.615902 1_455
Eu3 O21 3.005310 1_455
Eu3 O23 3.005310 1_445
Eu3 O20 3.005310 1_555
Eu3 O22 3.005310 1_545
O0 Sb3 2.029256 1_555
O0 Tb0 2.273083 1_655
O1 Sb2 2.029256 1_555
O1 Tb1 2.273083 1_455
O2 Sb1 2.029256 1_555
O2 Tb2 2.273083 1_455
O3 Sb0 2.029256 1_555
O3 Tb3 2.273083 1_655
O4 Sb2 2.024332 1_555
O4 Tb0 2.266486 1_565
O5 Sb1 2.024332 1_555
O5 Tb3 2.266486 1_545
O6 Sb3 2.024332 1_555
O6 Tb1 2.266486 1_545
O7 Sb0 2.024332 1_555
O7 Tb2 2.266486 1_565
O8 Sb1 2.014185 1_555
O8 Tb0 2.247758 1_556
O9 Sb3 2.014185 1_555
O9 Tb2 2.247758 1_554
O10 Sb2 2.014185 1_555
O10 Tb3 2.247758 1_554
O11 Sb0 2.014185 1_555
O11 Tb1 2.247758 1_556
O12 Sb3 2.029256 1_555
O12 Tb0 2.273083 1_555
O13 Sb2 2.029256 1_555
O13 Tb1 2.273083 1_555
O14 Sb1 2.029256 1_555
O14 Tb2 2.273083 1_555
O15 Sb0 2.029256 1_555
O15 Tb3 2.273083 1_555
O16 Sb2 2.024332 1_555
O16 Tb0 2.266486 1_555
O17 Sb1 2.024332 1_555
O17 Tb3 2.266486 1_555
O18 Sb3 2.024332 1_555
O18 Tb1 2.266486 1_555
O19 Sb0 2.024332 1_555
O19 Tb2 2.266486 1_555
O20 Sb1 2.014185 1_555
O20 Tb0 2.247758 1_555
O21 Sb3 2.014185 1_555
O21 Tb2 2.247758 1_555
O22 Sb2 2.014185 1_555
O22 Tb3 2.247758 1_555
O23 Sb0 2.014185 1_555
O23 Tb1 2.247758 1_555
