# generated using pymatgen
data_Ta3CrSe6
_symmetry_space_group_name_H-M   'P 1'
_cell_length_a   6.01023268
_cell_length_b   6.01018843
_cell_length_c   12.95487640
_cell_angle_alpha   90.00076666
_cell_angle_beta   89.99933199
_cell_angle_gamma   120.00014899
_symmetry_Int_Tables_number   1
_chemical_formula_structural   Ta3CrSe6
_chemical_formula_sum   'Ta6 Cr2 Se12'
_cell_volume   405.26829303
_cell_formula_units_Z   2
loop_
 _symmetry_equiv_pos_site_id
 _symmetry_equiv_pos_as_xyz
  1  'x, y, z'
loop_
 _atom_site_type_symbol
 _atom_site_label
 _atom_site_symmetry_multiplicity
 _atom_site_fract_x
 _atom_site_fract_y
 _atom_site_fract_z
 _atom_site_occupancy
  Ta  Ta0  1  -0.00000418  0.00000370  0.99998540  1
  Ta  Ta1  1  0.66666791  0.33333437  0.00042176  1
  Ta  Ta2  1  0.33333674  0.66666577  0.50044608  1
  Ta  Ta3  1  -0.00000147  -0.00000511  0.50001904  1
  Ta  Ta4  1  0.33333161  0.66666602  -0.00044452  1
  Ta  Ta5  1  0.66666518  0.33332797  0.49957959  1
  Cr  Cr0  1  0.66666245  0.33333324  0.74997434  1
  Cr  Cr1  1  0.33333453  0.66666685  0.25002459  1
  Se  Se0  1  0.67127063  0.66673218  0.12869393  1
  Se  Se1  1  0.32872717  0.33328640  0.62870208  1
  Se  Se2  1  0.66672111  0.67126225  0.87127613  1
  Se  Se3  1  0.32873181  0.99546272  0.87127684  1
  Se  Se4  1  0.00454881  0.67127140  0.62870272  1
  Se  Se5  1  0.00453516  0.33327680  0.87127506  1
  Se  Se6  1  0.99546900  0.66671170  0.37132767  1
  Se  Se7  1  0.33327634  0.32873304  0.37132701  1
  Se  Se8  1  0.67127011  0.00453312  0.37132614  1
  Se  Se9  1  0.99545284  0.32875010  0.12869459  1
  Se  Se10  1  0.66672198  0.99544983  0.62870132  1
  Se  Se11  1  0.33328126  0.00453866  0.12869123  1
loop_
_geom_bond_atom_site_label_1
_geom_bond_atom_site_label_2
_geom_bond_distance
_geom_bond_site_symmetry_2
Cr0 Se10 2.567653 1_545
Cr0 Se4 2.567658 1_655
Cr0 Se1 2.567684 1_555
Cr0 Se2 2.567817 1_555
Cr0 Se3 2.567848 1_545
Cr0 Se5 2.567857 1_655
Cr1 Se6 2.567785 1_455
Cr1 Se8 2.567838 1_565
Cr1 Se7 2.567879 1_555
Cr1 Se9 2.568055 1_455
Cr1 Se0 2.568077 1_555
Cr1 Se11 2.568094 1_565
Se0 Ta1 2.592645 1_555
Se0 Ta0 2.595839 1_664
Se0 Ta4 2.631244 1_555
Se1 Ta2 2.592444 1_555
Se1 Ta3 2.595677 1_555
Se1 Ta5 2.631135 1_555
Se2 Ta4 2.592695 1_556
Se2 Ta0 2.595885 1_665
Se2 Ta1 2.631272 1_556
Se3 Ta4 2.592734 1_556
Se3 Ta0 2.595868 1_565
Se3 Ta1 2.631261 1_566
Se4 Ta2 2.592503 1_555
Se4 Ta3 2.595646 1_565
Se4 Ta5 2.631126 1_455
Se5 Ta4 2.592713 1_556
Se5 Ta0 2.595889 1_555
Se5 Ta1 2.631236 1_456
Se6 Ta5 2.592485 1_555
Se6 Ta3 2.595766 1_665
Se6 Ta2 2.631008 1_655
Se7 Ta5 2.592502 1_555
Se7 Ta3 2.595745 1_555
Se7 Ta2 2.631025 1_555
Se8 Ta5 2.592494 1_555
Se8 Ta3 2.595726 1_655
Se8 Ta2 2.631043 1_545
Se9 Ta1 2.592603 1_555
Se9 Ta0 2.595913 1_654
Se9 Ta4 2.631187 1_655
Se10 Ta2 2.592467 1_555
Se10 Ta3 2.595638 1_665
Se10 Ta5 2.631100 1_565
Se11 Ta1 2.592619 1_555
Se11 Ta0 2.595928 1_554
Se11 Ta4 2.631140 1_545
