# generated using pymatgen
data_GeAsW
_symmetry_space_group_name_H-M   'P 1'
_cell_length_a   4.94386875
_cell_length_b   4.94386875
_cell_length_c   7.72121399
_cell_angle_alpha   61.82138525
_cell_angle_beta   61.82138525
_cell_angle_gamma   39.22572382
_symmetry_Int_Tables_number   1
_chemical_formula_structural   GeAsW
_chemical_formula_sum   'Ge2 As2 W2'
_cell_volume   103.26357580
_cell_formula_units_Z   2
loop_
 _symmetry_equiv_pos_site_id
 _symmetry_equiv_pos_as_xyz
  1  'x, y, z'
loop_
 _atom_site_type_symbol
 _atom_site_label
 _atom_site_symmetry_multiplicity
 _atom_site_fract_x
 _atom_site_fract_y
 _atom_site_fract_z
 _atom_site_occupancy
  Ge  Ge0  1  0.39627600  0.39627600  0.89560900  1
  Ge  Ge1  1  0.60372400  0.60372400  0.10439100  1
  As  As0  1  0.85575200  0.85575200  0.53436300  1
  As  As1  1  0.14424800  0.14424800  0.46563700  1
  W  W0  1  0.15430700  0.15430700  0.80011800  1
  W  W1  1  0.84569300  0.84569300  0.19988200  1
loop_
_geom_bond_atom_site_label_1
_geom_bond_atom_site_label_2
_geom_bond_distance
_geom_bond_site_symmetry_2
Ge0 W0 2.699793 1_555
Ge0 W0 2.701260 1_655
Ge0 W0 2.701260 1_565
Ge0 W1 2.717636 1_546
Ge0 W1 2.717636 1_456
Ge1 W1 2.699793 1_555
Ge1 W1 2.701260 1_455
Ge1 W1 2.701260 1_545
Ge1 W0 2.717636 1_564
Ge1 W0 2.717636 1_654
As0 As1 2.464210 1_665
As0 W0 2.573845 1_655
As0 W0 2.573845 1_565
As0 W1 2.630816 1_555
As0 As1 2.822107 1_565
As0 As1 2.822107 1_655
As1 W1 2.573845 1_455
As1 W1 2.573845 1_545
As1 W0 2.630816 1_555
