# generated using pymatgen
data_Nb4Si7Ni4
_symmetry_space_group_name_H-M   'P 1'
_cell_length_a   4.60995600
_cell_length_b   10.87068532
_cell_length_c   10.87068532
_cell_angle_alpha   87.42315218
_cell_angle_beta   77.75829884
_cell_angle_gamma   77.75829884
_symmetry_Int_Tables_number   1
_chemical_formula_structural   Nb4Si7Ni4
_chemical_formula_sum   'Nb8 Si14 Ni8'
_cell_volume   520.27445141
_cell_formula_units_Z   2
loop_
 _symmetry_equiv_pos_site_id
 _symmetry_equiv_pos_as_xyz
  1  'x, y, z'
loop_
 _atom_site_type_symbol
 _atom_site_label
 _atom_site_symmetry_multiplicity
 _atom_site_fract_x
 _atom_site_fract_y
 _atom_site_fract_z
 _atom_site_occupancy
  Nb  Nb0  1  0.21721100  0.87163300  0.69394600  1
  Nb  Nb1  1  0.78278900  0.12836700  0.30605400  1
  Nb  Nb2  1  0.78278900  0.30605400  0.12836700  1
  Nb  Nb3  1  0.21721100  0.69394600  0.87163300  1
  Nb  Nb4  1  0.91115700  0.30605400  0.87163300  1
  Nb  Nb5  1  0.08884300  0.69394600  0.12836700  1
  Nb  Nb6  1  0.08884300  0.12836700  0.69394600  1
  Nb  Nb7  1  0.91115700  0.87163300  0.30605400  1
  Si  Si0  1  0.33082300  0.00000000  0.33835400  1
  Si  Si1  1  0.66917700  0.00000000  0.66164600  1
  Si  Si2  1  0.66917700  0.66164600  0.00000000  1
  Si  Si3  1  0.33082300  0.33835400  0.00000000  1
  Si  Si4  1  0.00000000  0.37140100  0.62859900  1
  Si  Si5  1  0.00000000  0.62859900  0.37140100  1
  Si  Si6  1  0.62859900  0.37140100  0.37140100  1
  Si  Si7  1  0.37140100  0.62859900  0.62859900  1
  Si  Si8  1  0.50000000  0.80987000  0.19013000  1
  Si  Si9  1  0.50000000  0.19013000  0.80987000  1
  Si  Si10  1  0.69013000  0.80987000  0.80987000  1
  Si  Si11  1  0.30987000  0.19013000  0.19013000  1
  Si  Si12  1  0.74619500  0.00000000  0.00000000  1
  Si  Si13  1  0.25380500  0.00000000  0.00000000  1
  Ni  Ni0  1  0.38222900  0.50000000  0.23554300  1
  Ni  Ni1  1  0.11777100  0.50000000  0.76445700  1
  Ni  Ni2  1  0.11777100  0.76445700  0.50000000  1
  Ni  Ni3  1  0.38222900  0.23554300  0.50000000  1
  Ni  Ni4  1  0.61777100  0.76445700  0.50000000  1
  Ni  Ni5  1  0.88222900  0.23554300  0.50000000  1
  Ni  Ni6  1  0.88222900  0.50000000  0.23554300  1
  Ni  Ni7  1  0.61777100  0.50000000  0.76445700  1
loop_
_geom_bond_atom_site_label_1
_geom_bond_atom_site_label_2
_geom_bond_distance
_geom_bond_site_symmetry_2
Nb0 Ni4 2.621028 1_555
Nb0 Ni2 2.621032 1_555
Nb0 Nb3 2.669553 1_555
Nb0 Si7 2.673575 1_555
Nb0 Si10 2.694452 1_555
Nb0 Si10 2.694456 1_455
Nb0 Si1 2.700066 1_565
Nb0 Si1 2.700070 1_465
Nb0 Nb6 2.727415 1_565
Nb1 Ni3 2.621028 1_555
Nb1 Ni5 2.621032 1_555
Nb1 Nb2 2.669553 1_555
Nb1 Si6 2.673575 1_555
Nb1 Si11 2.694452 1_555
Nb1 Si11 2.694456 1_655
Nb1 Si0 2.700066 1_555
Nb1 Si0 2.700070 1_655
Nb1 Nb7 2.727415 1_545
Nb2 Ni0 2.621028 1_555
Nb2 Ni6 2.621032 1_555
Nb2 Si6 2.673575 1_555
Nb2 Si11 2.694452 1_555
Nb2 Si11 2.694456 1_655
Nb2 Si3 2.700066 1_555
Nb2 Si3 2.700070 1_655
Nb2 Nb4 2.727415 1_554
Nb3 Ni7 2.621028 1_555
Nb3 Ni1 2.621032 1_555
Nb3 Si7 2.673575 1_555
Nb3 Si10 2.694452 1_555
Nb3 Si10 2.694456 1_455
Nb3 Si2 2.700066 1_556
Nb3 Si2 2.700070 1_456
Nb3 Nb5 2.727415 1_556
Nb4 Ni1 2.621028 1_655
Nb4 Ni7 2.621032 1_555
Nb4 Nb6 2.669553 1_655
Nb4 Si4 2.673575 1_655
Nb4 Si9 2.694452 1_655
Nb4 Si9 2.694456 1_555
Nb4 Si3 2.700066 1_656
Nb4 Si3 2.700070 1_556
Nb5 Ni6 2.621028 1_455
Nb5 Ni0 2.621032 1_555
Nb5 Nb7 2.669553 1_455
Nb5 Si5 2.673575 1_555
Nb5 Si8 2.694452 1_455
Nb5 Si8 2.694456 1_555
Nb5 Si2 2.700066 1_455
Nb5 Si2 2.700070 1_555
Nb6 Ni5 2.621028 1_455
Nb6 Ni3 2.621032 1_555
Nb6 Si4 2.673575 1_555
Nb6 Si9 2.694452 1_455
Nb6 Si9 2.694456 1_555
Nb6 Si1 2.700066 1_455
Nb6 Si1 2.700070 1_555
Nb7 Ni2 2.621028 1_655
Nb7 Ni4 2.621032 1_555
Nb7 Si5 2.673575 1_655
Nb7 Si8 2.694452 1_655
Nb7 Si8 2.694456 1_555
Nb7 Si0 2.700066 1_665
Nb7 Si0 2.700070 1_565
Si0 Si11 2.561119 1_555
Si0 Si8 2.561119 1_545
Si1 Si10 2.561119 1_545
Si1 Si9 2.561119 1_555
Si2 Si8 2.561119 1_555
Si3 Si9 2.561119 1_554
Si10 Si2 2.561119 1_556
Si11 Si3 2.561119 1_555
Si12 Si13 2.269896 1_555
Si12 Si13 2.340060 1_655
Ni0 Si6 2.297332 1_555
Ni0 Si5 2.297334 1_555
Ni0 Ni6 2.304978 1_455
Ni0 Ni6 2.304978 1_555
Ni1 Si4 2.297332 1_555
Ni1 Si7 2.297334 1_555
Ni1 Ni7 2.304978 1_555
Ni1 Ni7 2.304978 1_455
Ni2 Si5 2.297332 1_555
Ni2 Si7 2.297334 1_555
Ni2 Ni4 2.304978 1_555
Ni2 Ni4 2.304978 1_455
Ni3 Si6 2.297332 1_555
Ni3 Si4 2.297334 1_555
Ni3 Ni5 2.304978 1_455
Ni3 Ni5 2.304978 1_555
Ni4 Si7 2.297332 1_555
Ni4 Si5 2.297334 1_655
Ni5 Si4 2.297332 1_655
Ni5 Si6 2.297334 1_555
Ni6 Si5 2.297332 1_655
Ni6 Si6 2.297334 1_555
Ni7 Si7 2.297332 1_555
Ni7 Si4 2.297334 1_655
