# generated using pymatgen
data_CaY4Sb3O14
_symmetry_space_group_name_H-M   'P 1'
_cell_length_a   7.48499268
_cell_length_b   7.48499268
_cell_length_c   7.48499294
_cell_angle_alpha   60.50046764
_cell_angle_beta   60.50046764
_cell_angle_gamma   60.50046908
_symmetry_Int_Tables_number   1
_chemical_formula_structural   CaY4Sb3O14
_chemical_formula_sum   'Ca1 Y4 Sb3 O14'
_cell_volume   299.87735377
_cell_formula_units_Z   1
loop_
 _symmetry_equiv_pos_site_id
 _symmetry_equiv_pos_as_xyz
  1  'x, y, z'
loop_
 _atom_site_type_symbol
 _atom_site_label
 _atom_site_symmetry_multiplicity
 _atom_site_fract_x
 _atom_site_fract_y
 _atom_site_fract_z
 _atom_site_occupancy
  Ca  Ca0  1  0.00000000  0.00000000  0.00000000  1
  Y  Y0  1  0.50000000  0.00000000  0.50000000  1
  Y  Y1  1  0.00000000  0.50000000  0.50000000  1
  Y  Y2  1  0.50000000  0.50000000  0.00000000  1
  Y  Y3  1  0.50000000  0.50000000  0.50000000  1
  Sb  Sb0  1  0.00000000  0.00000000  0.50000000  1
  Sb  Sb1  1  0.50000000  0.00000000  0.00000000  1
  Sb  Sb2  1  0.00000000  0.50000000  0.00000000  1
  O  O0  1  0.10745600  0.10745600  0.61921600  1
  O  O1  1  0.89254400  0.89254400  0.38078400  1
  O  O2  1  0.38078400  0.89254400  0.89254400  1
  O  O3  1  0.61921600  0.10745600  0.10745600  1
  O  O4  1  0.90156000  0.32132400  0.32132400  1
  O  O5  1  0.09844000  0.67867600  0.67867600  1
  O  O6  1  0.67867600  0.67867600  0.09844000  1
  O  O7  1  0.32132400  0.32132400  0.90156000  1
  O  O8  1  0.37933600  0.37933600  0.37933600  1
  O  O9  1  0.62066400  0.62066400  0.62066400  1
  O  O10  1  0.89254400  0.38078400  0.89254400  1
  O  O11  1  0.10745600  0.61921600  0.10745600  1
  O  O12  1  0.67867600  0.09844000  0.67867600  1
  O  O13  1  0.32132400  0.90156000  0.32132400  1
loop_
_geom_bond_atom_site_label_1
_geom_bond_atom_site_label_2
_geom_bond_distance
_geom_bond_site_symmetry_2
Ca0 O10 2.353526 1_454
Ca0 O3 2.353526 1_455
Ca0 O2 2.353526 1_544
Ca0 O11 2.353526 1_545
Ca0 O1 2.353526 1_445
Ca0 O0 2.353526 1_554
O0 Sb0 2.034900 1_555
O0 Y1 2.423532 1_555
O0 Y0 2.423532 1_555
O1 Sb0 2.034900 1_665
O1 Y0 2.423532 1_565
O1 Y1 2.423532 1_655
O2 Sb1 2.034900 1_566
O2 Y2 2.423532 1_556
O2 Y0 2.423532 1_565
O3 Sb1 2.034900 1_555
O3 Y2 2.423532 1_555
O3 Y0 2.423532 1_555
O4 Sb0 2.042913 1_655
O4 Sb2 2.042913 1_655
O4 Y3 2.540708 1_555
O4 Y1 2.796882 1_655
O5 Sb0 2.042913 1_565
O5 Sb2 2.042913 1_556
O5 Y3 2.540708 1_555
O5 Y1 2.796882 1_555
O6 Sb1 2.042913 1_565
O6 Sb2 2.042913 1_655
O6 Y3 2.540709 1_555
O6 Y2 2.796882 1_555
O7 Sb1 2.042913 1_556
O7 Sb2 2.042913 1_556
O7 Y3 2.540709 1_555
O7 Y2 2.796882 1_556
O8 Y3 2.203899 1_555
O8 Y1 2.333571 1_555
O8 Y0 2.333571 1_555
O8 Y2 2.333571 1_555
O9 Y3 2.203899 1_555
O9 Y0 2.333571 1_565
O9 Y1 2.333571 1_655
O9 Y2 2.333571 1_556
O10 Sb2 2.034900 1_656
O10 Y2 2.423532 1_556
O10 Y1 2.423532 1_655
O11 Sb2 2.034900 1_555
O11 Y2 2.423532 1_555
O11 Y1 2.423532 1_555
O12 Sb0 2.042913 1_655
O12 Sb1 2.042913 1_556
O12 Y3 2.540708 1_555
O12 Y0 2.796882 1_555
O13 Sb0 2.042913 1_565
O13 Sb1 2.042913 1_565
O13 Y3 2.540708 1_555
O13 Y0 2.796882 1_565
