# generated using pymatgen
data_HgS2O7
_symmetry_space_group_name_H-M   'P 1'
_cell_length_a   12.98956202
_cell_length_b   5.21007015
_cell_length_c   9.57959209
_cell_angle_alpha   59.47739475
_cell_angle_beta   90.00000000
_cell_angle_gamma   90.00000000
_symmetry_Int_Tables_number   1
_chemical_formula_structural   HgS2O7
_chemical_formula_sum   'Hg4 S8 O28'
_cell_volume   558.47599223
_cell_formula_units_Z   4
loop_
 _symmetry_equiv_pos_site_id
 _symmetry_equiv_pos_as_xyz
  1  'x, y, z'
loop_
 _atom_site_type_symbol
 _atom_site_label
 _atom_site_symmetry_multiplicity
 _atom_site_fract_x
 _atom_site_fract_y
 _atom_site_fract_z
 _atom_site_occupancy
  Hg  Hg0  1  0.65710293  0.14620526  0.17138947  1
  Hg  Hg1  1  0.84289707  0.14620526  0.67138947  1
  Hg  Hg2  1  0.34289707  0.85379474  0.82861053  1
  Hg  Hg3  1  0.15710293  0.85379474  0.32861053  1
  S  S0  1  0.47897096  0.64029899  0.19215027  1
  S  S1  1  0.02102904  0.64029899  0.69215027  1
  S  S2  1  0.52102904  0.35970101  0.80784973  1
  S  S3  1  0.97897096  0.35970101  0.30784973  1
  S  S4  1  0.82332977  0.74190264  0.09101843  1
  S  S5  1  0.67667023  0.74190264  0.59101843  1
  S  S6  1  0.17667023  0.25809736  0.90898157  1
  S  S7  1  0.32332977  0.25809736  0.40898157  1
  O  O0  1  0.44131949  0.31759028  0.34103430  1
  O  O1  1  0.05868051  0.31759028  0.84103430  1
  O  O2  1  0.55868051  0.68240972  0.65896570  1
  O  O3  1  0.94131949  0.68240972  0.15896570  1
  O  O4  1  0.83380504  0.02472396  0.94291937  1
  O  O5  1  0.66619496  0.02472396  0.44291937  1
  O  O6  1  0.16619496  0.97527604  0.05708063  1
  O  O7  1  0.33380504  0.97527604  0.55708063  1
  O  O8  1  0.76359473  0.76045265  0.21383379  1
  O  O9  1  0.73640527  0.76045265  0.71383379  1
  O  O10  1  0.23640527  0.23954735  0.78616621  1
  O  O11  1  0.26359473  0.23954735  0.28616621  1
  O  O12  1  0.39027539  0.77286736  0.08831805  1
  O  O13  1  0.10972461  0.77286736  0.58831805  1
  O  O14  1  0.60972461  0.22713264  0.91168195  1
  O  O15  1  0.89027539  0.22713264  0.41168195  1
  O  O16  1  0.56021855  0.55796456  0.11923487  1
  O  O17  1  0.93978145  0.55796456  0.61923487  1
  O  O18  1  0.43978145  0.44203544  0.88076513  1
  O  O19  1  0.06021855  0.44203544  0.38076513  1
  O  O20  1  0.51346410  0.80296010  0.26851554  1
  O  O21  1  0.98653590  0.80296010  0.76851554  1
  O  O22  1  0.48653590  0.19703990  0.73148446  1
  O  O23  1  0.01346410  0.19703990  0.23148446  1
  O  O24  1  0.79686655  0.49222089  0.07205521  1
  O  O25  1  0.70313345  0.49222089  0.57205521  1
  O  O26  1  0.20313345  0.50777911  0.92794479  1
  O  O27  1  0.29686655  0.50777911  0.42794479  1
loop_
_geom_bond_atom_site_label_1
_geom_bond_atom_site_label_2
_geom_bond_distance
_geom_bond_site_symmetry_2
Hg0 O8 2.299570 1_545
Hg0 O16 2.312353 1_555
Hg0 O5 2.346962 1_555
Hg0 O14 2.383404 1_554
Hg0 O24 2.389328 1_555
Hg0 O20 2.419695 1_545
Hg1 O9 2.299570 1_545
Hg1 O17 2.312353 1_555
Hg1 O4 2.346962 1_555
Hg1 O15 2.383404 1_555
Hg1 O25 2.389328 1_555
Hg1 O21 2.419695 1_545
Hg2 O10 2.299570 1_565
Hg2 O18 2.312353 1_555
Hg2 O7 2.346962 1_555
Hg2 O12 2.383404 1_556
Hg2 O26 2.389328 1_555
Hg2 O22 2.419695 1_565
Hg3 O11 2.299570 1_565
Hg3 O19 2.312353 1_555
Hg3 O6 2.346962 1_555
Hg3 O13 2.383404 1_555
Hg3 O27 2.389328 1_555
Hg3 O23 2.419695 1_565
O0 S7 1.632112 1_555
O0 S0 1.632324 1_555
O1 S6 1.632112 1_555
O1 S1 1.632324 1_555
O2 S5 1.632112 1_555
O2 S2 1.632324 1_555
O3 S4 1.632112 1_555
O3 S3 1.632324 1_555
O4 S4 1.441909 1_546
O5 S5 1.441909 1_545
O6 S6 1.441909 1_564
O7 S7 1.441909 1_565
O8 S4 1.452966 1_555
O9 S5 1.452966 1_555
O10 S6 1.452966 1_555
O11 S7 1.452966 1_555
O12 S0 1.447743 1_555
O13 S1 1.447743 1_555
O14 S2 1.447743 1_555
O15 S3 1.447743 1_555
O16 S0 1.445710 1_555
O17 S1 1.445710 1_655
O18 S2 1.445710 1_555
O19 S3 1.445710 1_455
O20 S0 1.443560 1_555
O21 S1 1.443560 1_655
O22 S2 1.443560 1_555
O23 S3 1.443560 1_455
O24 S4 1.443411 1_555
O25 S5 1.443411 1_555
O26 S6 1.443411 1_555
O27 S7 1.443411 1_555
