# generated using pymatgen
data_MgAl(Bi3O5)4
_symmetry_space_group_name_H-M   'P 1'
_cell_length_a   9.23549597
_cell_length_b   9.14901633
_cell_length_c   9.23549597
_cell_angle_alpha   112.10534379
_cell_angle_beta   104.34249721
_cell_angle_gamma   112.52474947
_symmetry_Int_Tables_number   1
_chemical_formula_structural   MgAl(Bi3O5)4
_chemical_formula_sum   'Mg1 Al1 Bi12 O20'
_cell_volume   593.71635951
_cell_formula_units_Z   1
loop_
 _symmetry_equiv_pos_site_id
 _symmetry_equiv_pos_as_xyz
  1  'x, y, z'
loop_
 _atom_site_type_symbol
 _atom_site_label
 _atom_site_symmetry_multiplicity
 _atom_site_fract_x
 _atom_site_fract_y
 _atom_site_fract_z
 _atom_site_occupancy
  Mg  Mg0  1  0.83409396  0.00000000  0.83409396  1
  Al  Al0  1  0.06015934  0.00000000  0.06015934  1
  Bi  Bi0  1  0.81089225  0.68175484  0.49082533  1
  Bi  Bi1  1  0.18922827  0.69163888  0.86348774  1
  Bi  Bi2  1  0.80907049  0.31824516  0.12913741  1
  Bi  Bi3  1  0.65321987  0.55316510  0.79376045  1
  Bi  Bi4  1  0.17184886  0.30836112  0.49758939  1
  Bi  Bi5  1  0.72470504  0.87015339  0.20761714  1
  Bi  Bi6  1  0.33746375  0.12984661  0.85455165  1
  Bi  Bi7  1  0.24059536  0.44683490  0.10005478  1
  Bi  Bi8  1  0.42601823  0.79452791  0.60049541  1
  Bi  Bi9  1  0.12841313  0.82699614  0.30812369  1
  Bi  Bi10  1  0.48112755  0.17300386  0.30141699  1
  Bi  Bi11  1  0.80596750  0.20547209  0.63149033  1
  O  O0  1  0.24994626  0.20661322  0.24874154  1
  O  O1  1  0.86207092  0.99644913  0.05247152  1
  O  O2  1  0.04212831  0.79338678  0.04333303  1
  O  O3  1  0.05602240  0.00355087  0.86562179  1
  O  O4  1  0.68850001  0.81656566  0.41893756  1
  O  O5  1  0.32665014  0.70121939  0.09354847  1
  O  O6  1  0.60237190  0.18343434  0.87193435  1
  O  O7  1  0.75975239  0.42702416  0.63836068  1
  O  O8  1  0.39232808  0.29878061  0.62542974  1
  O  O9  1  0.75437341  0.13480962  0.35663135  1
  O  O10  1  0.22182174  0.86519038  0.61956479  1
  O  O11  1  0.21133752  0.57297584  0.33272823  1
  O  O12  1  0.36523570  0.64698911  0.73173082  1
  O  O13  1  0.87135645  0.60471880  0.21646822  1
  O  O14  1  0.61174942  0.39528120  0.26663865  1
  O  O15  1  0.08474171  0.35301089  0.71824559  1
  O  O16  1  0.66459915  0.70708124  0.65867748  1
  O  O17  1  0.38956981  0.00707667  0.01383553  1
  O  O18  1  0.95159624  0.29291876  0.95751791  1
  O  O19  1  0.00675886  0.99292333  0.38249314  1
loop_
_geom_bond_atom_site_label_1
_geom_bond_atom_site_label_2
_geom_bond_distance
_geom_bond_site_symmetry_2
Mg0 O1 1.983171 1_546
Mg0 O3 1.983171 1_655
Mg0 O16 2.125748 1_545
Mg0 O18 2.125748 1_555
Al0 O2 1.774841 1_545
Al0 O0 1.774841 1_555
Al0 O1 1.800372 1_445
Al0 O3 1.800372 1_554
Bi0 O4 2.133630 1_555
Bi0 O14 2.207901 1_555
Bi0 O16 2.299876 1_555
Bi0 O13 2.624371 1_555
Bi1 O5 2.138109 1_556
Bi1 O17 2.302229 1_566
Bi1 O12 2.324755 1_555
Bi1 O15 2.503846 1_555
Bi1 O2 2.528671 1_556
Bi2 O6 2.133630 1_554
Bi2 O13 2.207903 1_555
Bi2 O18 2.299876 1_554
Bi2 O14 2.624376 1_555
Bi3 O7 2.163939 1_555
Bi3 O8 2.182580 1_555
Bi3 O16 2.196404 1_555
Bi4 O8 2.138098 1_555
Bi4 O19 2.302229 1_545
Bi4 O15 2.324746 1_555
Bi4 O12 2.503847 1_555
Bi4 O0 2.528671 1_555
Bi5 O9 2.151480 1_565
Bi5 O19 2.228056 1_655
Bi5 O4 2.253654 1_555
Bi5 O1 2.453808 1_555
Bi6 O10 2.151476 1_545
Bi6 O17 2.228056 1_556
Bi6 O6 2.253654 1_555
Bi6 O3 2.453808 1_555
Bi7 O11 2.163934 1_555
Bi7 O5 2.182575 1_555
Bi7 O18 2.196404 1_454
Bi8 O12 2.143367 1_555
Bi8 O11 2.207787 1_555
Bi8 O10 2.240174 1_555
Bi8 O16 2.621343 1_555
Bi9 O13 2.120863 1_455
Bi9 O19 2.223283 1_555
Bi9 O2 2.233998 1_555
Bi9 O10 2.631109 1_555
Bi9 O11 2.777446 1_555
Bi10 O14 2.120857 1_555
Bi10 O17 2.223283 1_555
Bi10 O0 2.233998 1_555
Bi10 O9 2.631101 1_555
Bi10 O7 2.777441 1_555
Bi11 O15 2.143368 1_655
Bi11 O7 2.207790 1_555
Bi11 O9 2.240172 1_555
Bi11 O18 2.621343 1_555
