# generated using pymatgen
data_Mn2VN3
_symmetry_space_group_name_H-M   'P 1'
_cell_length_a   5.86989221
_cell_length_b   6.02094344
_cell_length_c   4.02451500
_cell_angle_alpha   90.00000000
_cell_angle_beta   90.00000000
_cell_angle_gamma   120.85496952
_symmetry_Int_Tables_number   1
_chemical_formula_structural   Mn2VN3
_chemical_formula_sum   'Mn4 V2 N6'
_cell_volume   122.10472237
_cell_formula_units_Z   2
loop_
 _symmetry_equiv_pos_site_id
 _symmetry_equiv_pos_as_xyz
  1  'x, y, z'
loop_
 _atom_site_type_symbol
 _atom_site_label
 _atom_site_symmetry_multiplicity
 _atom_site_fract_x
 _atom_site_fract_y
 _atom_site_fract_z
 _atom_site_occupancy
  Mn  Mn0  1  0.32321600  0.32738100  0.42871400  1
  Mn  Mn1  1  0.67678400  0.00416500  0.42871400  1
  Mn  Mn2  1  0.67678400  0.67261900  0.92871400  1
  Mn  Mn3  1  0.32321600  0.99583500  0.92871400  1
  V  V0  1  0.00000000  0.67748700  0.42859500  1
  V  V1  1  0.00000000  0.32251300  0.92859500  1
  N  N0  1  0.33608100  0.33365800  0.92867200  1
  N  N1  1  0.66391900  0.99757700  0.92867200  1
  N  N2  1  0.66391900  0.66634200  0.42867200  1
  N  N3  1  0.33608100  0.00242300  0.42867200  1
  N  N4  1  0.00000000  0.64839200  0.92863400  1
  N  N5  1  0.00000000  0.35160800  0.42863400  1
loop_
_geom_bond_atom_site_label_1
_geom_bond_atom_site_label_2
_geom_bond_distance
_geom_bond_site_symmetry_2
Mn0 N5 1.976026 1_555
Mn0 N2 1.994531 1_555
Mn0 N3 1.996336 1_555
Mn0 N0 2.013133 1_555
Mn0 N0 2.013471 1_554
Mn1 N5 1.976026 1_655
Mn1 N3 1.994531 1_555
Mn1 N2 1.996336 1_545
Mn1 N1 2.013133 1_545
Mn1 N1 2.013471 1_544
Mn2 N4 1.976026 1_655
Mn2 N0 1.994531 1_555
Mn2 N1 1.996336 1_555
Mn2 N2 2.013133 1_556
Mn2 N2 2.013471 1_555
Mn3 N4 1.976026 1_555
Mn3 N1 1.994531 1_555
Mn3 N0 1.996336 1_565
Mn3 N3 2.013133 1_566
Mn3 N3 2.013471 1_565
N0 V1 1.939200 1_555
N1 V1 1.939200 1_665
N2 V0 1.939200 1_655
N3 V0 1.939200 1_545
N4 V1 1.962099 1_555
N4 V0 2.019712 1_556
N4 V0 2.020025 1_555
N5 V0 1.962099 1_555
N5 V1 2.019712 1_555
N5 V1 2.020025 1_554
