# generated using pymatgen
data_Ti2VHO6
_symmetry_space_group_name_H-M   'P 1'
_cell_length_a   4.63116600
_cell_length_b   8.65422800
_cell_length_c   10.10264445
_cell_angle_alpha   87.12436385
_cell_angle_beta   90.00000000
_cell_angle_gamma   90.00000000
_symmetry_Int_Tables_number   1
_chemical_formula_structural   Ti2VHO6
_chemical_formula_sum   'Ti8 V4 H4 O24'
_cell_volume   404.39570358
_cell_formula_units_Z   4
loop_
 _symmetry_equiv_pos_site_id
 _symmetry_equiv_pos_as_xyz
  1  'x, y, z'
loop_
 _atom_site_type_symbol
 _atom_site_label
 _atom_site_symmetry_multiplicity
 _atom_site_fract_x
 _atom_site_fract_y
 _atom_site_fract_z
 _atom_site_occupancy
  Ti  Ti0  1  0.99999500  0.90413700  0.88016900  1
  Ti  Ti1  1  0.49999500  0.09586300  0.61983100  1
  Ti  Ti2  1  0.00000500  0.09586300  0.11983100  1
  Ti  Ti3  1  0.50000500  0.90413700  0.38016900  1
  Ti  Ti4  1  0.97527700  0.77544800  0.62076900  1
  Ti  Ti5  1  0.47527700  0.22455200  0.87923100  1
  Ti  Ti6  1  0.02472300  0.22455200  0.37923100  1
  Ti  Ti7  1  0.52472300  0.77544800  0.12076900  1
  V  V0  1  0.00875900  0.59143700  0.35129800  1
  V  V1  1  0.50875900  0.40856300  0.14870200  1
  V  V2  1  0.99124100  0.40856300  0.64870200  1
  V  V3  1  0.49124100  0.59143700  0.85129800  1
  H  H0  1  0.57638900  0.40609300  0.44449200  1
  H  H1  1  0.07638900  0.59390700  0.05550800  1
  H  H2  1  0.42361100  0.59390700  0.55550800  1
  H  H3  1  0.92361100  0.40609300  0.94449200  1
  O  O0  1  0.78027200  0.92598400  0.70400000  1
  O  O1  1  0.28027200  0.07401600  0.79600000  1
  O  O2  1  0.21972800  0.07401600  0.29600000  1
  O  O3  1  0.71972800  0.92598400  0.20400000  1
  O  O4  1  0.20373300  0.75687600  0.78603600  1
  O  O5  1  0.70373300  0.24312400  0.71396400  1
  O  O6  1  0.79626700  0.24312400  0.21396400  1
  O  O7  1  0.29626700  0.75687600  0.28603600  1
  O  O8  1  0.79017600  0.09033100  0.95859700  1
  O  O9  1  0.29017600  0.90966900  0.54140300  1
  O  O10  1  0.20982400  0.90966900  0.04140300  1
  O  O11  1  0.70982400  0.09033100  0.45859700  1
  O  O12  1  0.28705300  0.23907000  0.05046300  1
  O  O13  1  0.78705300  0.76093000  0.44953700  1
  O  O14  1  0.71294700  0.76093000  0.94953700  1
  O  O15  1  0.21294700  0.23907000  0.55046300  1
  O  O16  1  0.78517700  0.41571300  0.45793800  1
  O  O17  1  0.28517700  0.58428700  0.04206200  1
  O  O18  1  0.21482300  0.58428700  0.54206200  1
  O  O19  1  0.71482300  0.41571300  0.95793800  1
  O  O20  1  0.74842600  0.59178000  0.19668900  1
  O  O21  1  0.24842600  0.40822000  0.30331100  1
  O  O22  1  0.25157400  0.40822000  0.80331100  1
  O  O23  1  0.75157400  0.59178000  0.69668900  1
loop_
_geom_bond_atom_site_label_1
_geom_bond_atom_site_label_2
_geom_bond_distance
_geom_bond_site_symmetry_2
H0 O16 0.980549 1_555
H1 O17 0.980549 1_555
H2 O18 0.980549 1_555
H3 O19 0.980549 1_555
O0 Ti4 1.824761 1_555
O0 Ti0 2.050617 1_555
O0 Ti1 2.108046 1_565
O1 Ti5 1.824761 1_555
O1 Ti1 2.050617 1_555
O1 Ti0 2.108046 1_445
O2 Ti6 1.824761 1_555
O2 Ti2 2.050617 1_555
O2 Ti3 2.108046 1_545
O3 Ti7 1.824761 1_555
O3 Ti3 2.050617 1_555
O3 Ti2 2.108046 1_665
O4 Ti0 1.881606 1_455
O4 Ti4 1.976357 1_455
O4 V3 2.040287 1_555
O5 Ti1 1.881606 1_555
O5 Ti5 1.976357 1_555
O5 V2 2.040287 1_555
O6 Ti2 1.881606 1_655
O6 Ti6 1.976357 1_655
O6 V1 2.040287 1_555
O7 Ti3 1.881606 1_555
O7 Ti7 1.976357 1_555
O7 V0 2.040287 1_555
O8 Ti2 1.899395 1_656
O8 Ti5 2.006363 1_555
O8 Ti0 2.072825 1_545
O9 Ti3 1.899395 1_555
O9 Ti4 2.006363 1_455
O9 Ti1 2.072825 1_565
O10 Ti0 1.899395 1_454
O10 Ti7 2.006363 1_555
O10 Ti2 2.072825 1_565
O11 Ti1 1.899395 1_555
O11 Ti6 2.006363 1_655
O11 Ti3 2.072825 1_545
O12 Ti2 1.925401 1_555
O12 Ti5 1.946789 1_554
O12 V1 2.082522 1_555
O13 Ti3 1.925401 1_555
O13 Ti4 1.946789 1_555
O13 V0 2.082522 1_655
O14 Ti0 1.925401 1_555
O14 Ti7 1.946789 1_556
O14 V3 2.082522 1_555
O15 Ti1 1.925401 1_555
O15 Ti6 1.946789 1_555
O15 V2 2.082522 1_455
O16 V0 2.093115 1_655
O16 V2 2.148666 1_555
O16 Ti6 2.175280 1_655
O17 V1 2.093115 1_555
O17 V3 2.148666 1_554
O17 Ti7 2.175280 1_555
O18 V2 2.093115 1_455
O18 V0 2.148666 1_555
O18 Ti4 2.175280 1_455
O19 V3 2.093115 1_555
O19 V1 2.148666 1_556
O19 Ti5 2.175280 1_555
O20 V0 1.973029 1_655
O20 V1 2.014510 1_555
O20 Ti7 2.016380 1_555
O21 V1 1.973029 1_555
O21 V0 2.014510 1_555
O21 Ti6 2.016380 1_555
O22 V2 1.973029 1_455
O22 V3 2.014510 1_555
O22 Ti5 2.016380 1_555
O23 V3 1.973029 1_555
O23 V2 2.014510 1_555
O23 Ti4 2.016380 1_555
