# generated using pymatgen
data_FeN2Cl5O
_symmetry_space_group_name_H-M   'P 1'
_cell_length_a   14.40915400
_cell_length_b   8.01867400
_cell_length_c   8.49816500
_cell_angle_alpha   90.00000000
_cell_angle_beta   90.00000000
_cell_angle_gamma   90.00000000
_symmetry_Int_Tables_number   1
_chemical_formula_structural   FeN2Cl5O
_chemical_formula_sum   'Fe4 N8 Cl20 O4'
_cell_volume   981.89760247
_cell_formula_units_Z   4
loop_
 _symmetry_equiv_pos_site_id
 _symmetry_equiv_pos_as_xyz
  1  'x, y, z'
loop_
 _atom_site_type_symbol
 _atom_site_label
 _atom_site_symmetry_multiplicity
 _atom_site_fract_x
 _atom_site_fract_y
 _atom_site_fract_z
 _atom_site_occupancy
  Fe  Fe0  1  0.59552100  0.25000000  0.02954600  1
  Fe  Fe1  1  0.09552100  0.25000000  0.47045400  1
  Fe  Fe2  1  0.40447900  0.75000000  0.97045400  1
  Fe  Fe3  1  0.90447900  0.75000000  0.52954600  1
  N  N0  1  0.87845600  0.07412600  0.13261100  1
  N  N1  1  0.37845600  0.42587400  0.36738900  1
  N  N2  1  0.12154400  0.57412600  0.86738900  1
  N  N3  1  0.62154400  0.92587400  0.63261100  1
  N  N4  1  0.12154400  0.92587400  0.86738900  1
  N  N5  1  0.62154400  0.57412600  0.63261100  1
  N  N6  1  0.87845600  0.42587400  0.13261100  1
  N  N7  1  0.37845600  0.07412600  0.36738900  1
  Cl  Cl0  1  0.40152400  0.25000000  0.41049700  1
  Cl  Cl1  1  0.90152400  0.25000000  0.08950300  1
  Cl  Cl2  1  0.59847600  0.75000000  0.58950300  1
  Cl  Cl3  1  0.09847600  0.75000000  0.91049700  1
  Cl  Cl4  1  0.65503800  0.25000000  0.27480500  1
  Cl  Cl5  1  0.15503800  0.25000000  0.22519500  1
  Cl  Cl6  1  0.34496200  0.75000000  0.72519500  1
  Cl  Cl7  1  0.84496200  0.75000000  0.77480500  1
  Cl  Cl8  1  0.69202300  0.25000000  0.83424400  1
  Cl  Cl9  1  0.19202300  0.25000000  0.66575600  1
  Cl  Cl10  1  0.30797700  0.75000000  0.16575600  1
  Cl  Cl11  1  0.80797700  0.75000000  0.33424400  1
  Cl  Cl12  1  0.58496900  0.95890600  0.12465100  1
  Cl  Cl13  1  0.08496900  0.54109400  0.37534900  1
  Cl  Cl14  1  0.41503100  0.45890600  0.87534900  1
  Cl  Cl15  1  0.91503100  0.04109400  0.62465100  1
  Cl  Cl16  1  0.41503100  0.04109400  0.87534900  1
  Cl  Cl17  1  0.91503100  0.45890600  0.62465100  1
  Cl  Cl18  1  0.58496900  0.54109400  0.12465100  1
  Cl  Cl19  1  0.08496900  0.95890600  0.37534900  1
  O  O0  1  0.46258200  0.25000000  0.96548300  1
  O  O1  1  0.96258200  0.25000000  0.53451700  1
  O  O2  1  0.53741800  0.75000000  0.03451700  1
  O  O3  1  0.03741800  0.75000000  0.46548300  1
loop_
_geom_bond_atom_site_label_1
_geom_bond_atom_site_label_2
_geom_bond_distance
_geom_bond_site_symmetry_2
Fe0 O0 1.991401 1_554
Fe1 O1 1.991401 1_455
Fe2 O2 1.991401 1_556
Fe3 O3 1.991401 1_655
Cl0 N1 1.494512 1_555
Cl0 N7 1.494512 1_555
Cl1 N6 1.494512 1_555
Cl1 N0 1.494512 1_555
Cl2 N5 1.494512 1_555
Cl2 N3 1.494512 1_555
Cl3 N4 1.494512 1_555
Cl3 N2 1.494512 1_555
Cl4 Fe0 2.253789 1_555
Cl5 Fe1 2.253789 1_555
Cl6 Fe2 2.253789 1_555
Cl7 Fe3 2.253789 1_555
Cl8 Fe0 2.165215 1_556
Cl9 Fe1 2.165215 1_555
Cl10 Fe2 2.165215 1_554
Cl11 Fe3 2.165215 1_555
Cl12 O2 1.965273 1_555
Cl12 Fe0 2.474827 1_565
Cl13 O3 1.965273 1_555
Cl13 Fe1 2.474827 1_555
Cl14 O0 1.965273 1_555
Cl14 Fe2 2.474827 1_555
Cl15 O1 1.965273 1_555
Cl15 Fe3 2.474827 1_545
Cl16 O0 1.965273 1_555
Cl16 Fe2 2.474827 1_545
Cl17 O1 1.965273 1_555
Cl17 Fe3 2.474827 1_555
Cl18 O2 1.965273 1_555
Cl18 Fe0 2.474827 1_555
Cl19 O3 1.965273 1_555
Cl19 Fe1 2.474827 1_565
