# generated using pymatgen
data_V4ZnS8
_symmetry_space_group_name_H-M   'P 1'
_cell_length_a   7.46767073
_cell_length_b   7.46767073
_cell_length_c   7.46767028
_cell_angle_alpha   50.88476745
_cell_angle_beta   50.88476745
_cell_angle_gamma   50.88477459
_symmetry_Int_Tables_number   1
_chemical_formula_structural   V4ZnS8
_chemical_formula_sum   'V4 Zn1 S8'
_cell_volume   231.17680275
_cell_formula_units_Z   1
loop_
 _symmetry_equiv_pos_site_id
 _symmetry_equiv_pos_as_xyz
  1  'x, y, z'
loop_
 _atom_site_type_symbol
 _atom_site_label
 _atom_site_symmetry_multiplicity
 _atom_site_fract_x
 _atom_site_fract_y
 _atom_site_fract_z
 _atom_site_occupancy
  V  V0  1  0.00000000  0.50000000  0.50000000  1
  V  V1  1  0.50000000  0.00000000  0.50000000  1
  V  V2  1  0.50000000  0.50000000  0.00000000  1
  V  V3  1  0.00000000  0.00000000  0.00000000  1
  Zn  Zn0  1  0.50000000  0.50000000  0.50000000  1
  S  S0  1  0.26129700  0.75476900  0.75476900  1
  S  S1  1  0.24523100  0.24523100  0.73870300  1
  S  S2  1  0.73870300  0.24523100  0.24523100  1
  S  S3  1  0.24523100  0.73870300  0.24523100  1
  S  S4  1  0.25820700  0.25820700  0.25820700  1
  S  S5  1  0.74179300  0.74179300  0.74179300  1
  S  S6  1  0.75476900  0.26129700  0.75476900  1
  S  S7  1  0.75476900  0.75476900  0.26129700  1
loop_
_geom_bond_atom_site_label_1
_geom_bond_atom_site_label_2
_geom_bond_distance
_geom_bond_site_symmetry_2
S0 V1 2.365264 1_565
S0 V2 2.365264 1_556
S0 V3 2.393501 1_566
S0 Zn0 2.534887 1_555
S1 V1 2.365264 1_555
S1 V0 2.365264 1_555
S1 V3 2.393501 1_556
S1 Zn0 2.534887 1_555
S2 V1 2.365264 1_555
S2 V2 2.365264 1_555
S2 V3 2.393501 1_655
S2 Zn0 2.534887 1_555
S3 V0 2.365264 1_555
S3 V2 2.365264 1_555
S3 V3 2.393501 1_565
S3 Zn0 2.534887 1_555
S4 V2 2.359307 1_555
S4 V1 2.359307 1_555
S4 V0 2.359307 1_555
S5 V2 2.359307 1_556
S5 V1 2.359307 1_565
S5 V0 2.359307 1_655
S6 V0 2.365264 1_655
S6 V2 2.365264 1_556
S6 V3 2.393501 1_656
S6 Zn0 2.534887 1_555
S7 V1 2.365264 1_565
S7 V0 2.365264 1_655
S7 V3 2.393501 1_665
S7 Zn0 2.534887 1_555
