# generated using pymatgen
data_Pr2Sn3(PbS4)3
_symmetry_space_group_name_H-M   'P 1'
_cell_length_a   4.00415500
_cell_length_b   11.75165600
_cell_length_c   20.62069400
_cell_angle_alpha   90.00000000
_cell_angle_beta   90.00000000
_cell_angle_gamma   90.00000000
_symmetry_Int_Tables_number   1
_chemical_formula_structural   Pr2Sn3(PbS4)3
_chemical_formula_sum   'Pr4 Sn6 Pb6 S24'
_cell_volume   970.31607942
_cell_formula_units_Z   2
loop_
 _symmetry_equiv_pos_site_id
 _symmetry_equiv_pos_as_xyz
  1  'x, y, z'
loop_
 _atom_site_type_symbol
 _atom_site_label
 _atom_site_symmetry_multiplicity
 _atom_site_fract_x
 _atom_site_fract_y
 _atom_site_fract_z
 _atom_site_occupancy
  Pr  Pr0  1  0.50000000  0.65175300  0.41238400  1
  Pr  Pr1  1  0.50000000  0.15175300  0.58761600  1
  Pr  Pr2  1  0.50000000  0.82430200  0.89480100  1
  Pr  Pr3  1  0.50000000  0.32430200  0.10519900  1
  Sn  Sn0  1  0.00000000  0.00122700  0.74990500  1
  Sn  Sn1  1  0.00000000  0.50122700  0.25009500  1
  Sn  Sn2  1  0.00000000  0.51797300  0.91124700  1
  Sn  Sn3  1  0.00000000  0.01797300  0.08875300  1
  Sn  Sn4  1  0.00000000  0.99488300  0.42345500  1
  Sn  Sn5  1  0.00000000  0.49488300  0.57654500  1
  Pb  Pb0  1  0.50000000  0.40358300  0.74305600  1
  Pb  Pb1  1  0.50000000  0.90358300  0.25694400  1
  Pb  Pb2  1  0.50000000  0.19746100  0.91243600  1
  Pb  Pb3  1  0.50000000  0.69746100  0.08756400  1
  Pb  Pb4  1  0.50000000  0.76981200  0.62326600  1
  Pb  Pb5  1  0.50000000  0.26981200  0.37673400  1
  S  S0  1  0.00000000  0.99781400  0.87455200  1
  S  S1  1  0.00000000  0.49781400  0.12544800  1
  S  S2  1  0.00000000  0.98032000  0.62743300  1
  S  S3  1  0.00000000  0.48032000  0.37256700  1
  S  S4  1  0.00000000  0.68387400  0.51397700  1
  S  S5  1  0.00000000  0.18387400  0.48602300  1
  S  S6  1  0.50000000  0.64434900  0.25689200  1
  S  S7  1  0.50000000  0.14434900  0.74310800  1
  S  S8  1  0.50000000  0.85137000  0.75570400  1
  S  S9  1  0.50000000  0.35137000  0.24429600  1
  S  S10  1  0.50000000  0.59695100  0.84055700  1
  S  S11  1  0.50000000  0.09695100  0.15944300  1
  S  S12  1  0.50000000  0.44106400  0.98087600  1
  S  S13  1  0.50000000  0.94106400  0.01912400  1
  S  S14  1  0.50000000  0.93473600  0.48732900  1
  S  S15  1  0.50000000  0.43473700  0.51267100  1
  S  S16  1  0.00000000  0.33794500  0.84263400  1
  S  S17  1  0.00000000  0.83794500  0.15736600  1
  S  S18  1  0.00000000  0.70847100  0.97203700  1
  S  S19  1  0.00000000  0.20847100  0.02796300  1
  S  S20  1  0.00000000  0.80933500  0.35692900  1
  S  S21  1  0.00000000  0.30933500  0.64307100  1
  S  S22  1  0.00000000  0.60207700  0.67799900  1
  S  S23  1  0.00000000  0.10207700  0.32200100  1
loop_
_geom_bond_atom_site_label_1
_geom_bond_atom_site_label_2
_geom_bond_distance
_geom_bond_site_symmetry_2
Pr0 S4 2.922240 1_655
Pr0 S4 2.922240 1_555
Pr0 S3 2.956543 1_655
Pr0 S3 2.956543 1_555
Pr0 S20 2.957245 1_655
Pr0 S20 2.957245 1_555
Pr0 S6 3.207533 1_555
Pr0 S15 3.283381 1_555
Pr0 S14 3.667069 1_555
Pr1 S5 2.922240 1_555
Pr1 S5 2.922240 1_655
Pr1 S2 2.956543 1_545
Pr1 S2 2.956543 1_645
Pr1 S21 2.957245 1_655
Pr1 S21 2.957245 1_555
Pr1 S7 3.207533 1_555
Pr1 S14 3.283390 1_545
Pr1 S15 3.667079 1_555
Pr2 S8 2.885861 1_555
Pr2 S0 2.887975 1_555
Pr2 S0 2.887975 1_655
Pr2 S10 2.896447 1_555
Pr2 S18 2.897889 1_655
Pr2 S18 2.897889 1_555
Pr2 S13 2.907743 1_556
Pr3 S9 2.885861 1_555
Pr3 S1 2.887975 1_655
Pr3 S1 2.887975 1_555
Pr3 S11 2.896447 1_555
Pr3 S19 2.897889 1_555
Pr3 S19 2.897889 1_655
Pr3 S12 2.907743 1_554
Pb0 S16 2.969785 1_655
Pb0 S16 2.969785 1_555
Pb0 S10 3.034146 1_555
Pb0 S7 3.046429 1_555
Pb0 S21 3.079916 1_555
Pb0 S21 3.079916 1_655
Pb1 S17 2.969785 1_555
Pb1 S17 2.969785 1_655
Pb1 S11 3.034146 1_565
Pb1 S6 3.046429 1_555
Pb1 S20 3.079916 1_655
Pb1 S20 3.079916 1_555
Pb2 S16 2.967427 1_555
Pb2 S16 2.967427 1_655
Pb2 S19 3.114507 1_556
Pb2 S19 3.114507 1_656
Pb2 S0 3.181690 1_545
Pb2 S0 3.181690 1_645
Pb2 S12 3.191706 1_555
Pb3 S17 2.967427 1_555
Pb3 S17 2.967427 1_655
Pb3 S18 3.114507 1_554
Pb3 S18 3.114507 1_654
Pb3 S1 3.181690 1_555
Pb3 S1 3.181690 1_655
Pb3 S13 3.191706 1_555
Pb4 S8 2.894265 1_555
Pb4 S22 3.027807 1_555
Pb4 S22 3.027807 1_655
Pb4 S4 3.179154 1_655
Pb4 S4 3.179154 1_555
Pb4 S2 3.183625 1_655
Pb4 S2 3.183625 1_555
Pb5 S9 2.894265 1_555
Pb5 S23 3.027807 1_655
Pb5 S23 3.027807 1_555
Pb5 S5 3.179154 1_555
Pb5 S5 3.179154 1_655
Pb5 S3 3.183625 1_655
Pb5 S3 3.183625 1_555
S0 Sn0 2.570621 1_565
S1 Sn1 2.570621 1_555
S2 Sn0 2.537381 1_565
S3 Sn1 2.537381 1_555
S4 Sn5 2.568512 1_555
S5 Sn4 2.568512 1_545
S6 Sn1 2.618552 1_655
S6 Sn1 2.618552 1_555
S7 Sn0 2.618552 1_555
S7 Sn0 2.618552 1_655
S8 Sn0 2.669077 1_665
S8 Sn0 2.669077 1_565
S9 Sn1 2.669077 1_655
S9 Sn1 2.669077 1_555
S10 Sn2 2.644721 1_555
S10 Sn2 2.644721 1_655
S11 Sn3 2.644721 1_655
S11 Sn3 2.644721 1_555
S12 Sn2 2.624252 1_655
S12 Sn2 2.624252 1_555
S13 Sn3 2.624252 1_565
S13 Sn3 2.624252 1_665
S14 Sn4 2.498548 1_655
S14 Sn4 2.498548 1_555
S15 Sn5 2.498544 1_655
S15 Sn5 2.498544 1_555
S16 Sn2 2.545127 1_555
S17 Sn3 2.545127 1_565
S18 Sn2 2.565730 1_555
S19 Sn3 2.565730 1_555
S20 Sn4 2.576128 1_555
S21 Sn5 2.576128 1_555
S22 Sn5 2.442037 1_555
S23 Sn4 2.442037 1_545
