# generated using pymatgen
data_KErP4(H2O9)2
_symmetry_space_group_name_H-M   'P 1'
_cell_length_a   7.52743784
_cell_length_b   7.51959209
_cell_length_c   15.08590431
_cell_angle_alpha   87.54456268
_cell_angle_beta   91.44338582
_cell_angle_gamma   75.15538608
_symmetry_Int_Tables_number   1
_chemical_formula_structural   KErP4(H2O9)2
_chemical_formula_sum   'K2 Er2 P8 H8 O36'
_cell_volume   824.07511170
_cell_formula_units_Z   2
loop_
 _symmetry_equiv_pos_site_id
 _symmetry_equiv_pos_as_xyz
  1  'x, y, z'
loop_
 _atom_site_type_symbol
 _atom_site_label
 _atom_site_symmetry_multiplicity
 _atom_site_fract_x
 _atom_site_fract_y
 _atom_site_fract_z
 _atom_site_occupancy
  K  K0  1  0.46886200  0.46887200  0.74891500  1
  K  K1  1  0.53113800  0.53112800  0.25108500  1
  Er  Er0  1  0.92154700  0.91779300  0.75091900  1
  Er  Er1  1  0.07845300  0.08220700  0.24908100  1
  P  P0  1  0.02474500  0.21928900  0.58618500  1
  P  P1  1  0.22020500  0.02463600  0.91264600  1
  P  P2  1  0.97525500  0.78071100  0.41381500  1
  P  P3  1  0.77979500  0.97536400  0.08735400  1
  P  P4  1  0.81928800  0.21421800  0.92710000  1
  P  P5  1  0.21480300  0.81815600  0.57207900  1
  P  P6  1  0.18071200  0.78578200  0.07290000  1
  P  P7  1  0.78519700  0.18184400  0.42792100  1
  H  H0  1  0.79393500  0.51588000  0.88491200  1
  H  H1  1  0.52080800  0.79286700  0.61492000  1
  H  H2  1  0.20606500  0.48412000  0.11508800  1
  H  H3  1  0.47919200  0.20713300  0.38508000  1
  H  H4  1  0.22639400  0.43365300  0.91898700  1
  H  H5  1  0.43317600  0.22782400  0.58085400  1
  H  H6  1  0.77360600  0.56634700  0.08101300  1
  H  H7  1  0.56682400  0.77217600  0.41914600  1
  O  O0  1  0.03345000  0.15510600  0.95118700  1
  O  O1  1  0.15574800  0.03337700  0.54764600  1
  O  O2  1  0.96655000  0.84489400  0.04881300  1
  O  O3  1  0.84425200  0.96662300  0.45235400  1
  O  O4  1  0.13834800  0.72847300  0.49158500  1
  O  O5  1  0.72826200  0.13976900  0.00882500  1
  O  O6  1  0.86165200  0.27152700  0.50841500  1
  O  O7  1  0.27173800  0.86023100  0.99117500  1
  O  O8  1  0.92074500  0.74159900  0.87986500  1
  O  O9  1  0.73342300  0.92728300  0.62493900  1
  O  O10  1  0.07925500  0.25840100  0.12013500  1
  O  O11  1  0.26657700  0.07271700  0.37506100  1
  O  O12  1  0.12250600  0.36813500  0.58376700  1
  O  O13  1  0.36898000  0.12251400  0.91483600  1
  O  O14  1  0.87749400  0.63186500  0.41623300  1
  O  O15  1  0.63102000  0.87748600  0.08516400  1
  O  O16  1  0.14104300  0.77374700  0.66000100  1
  O  O17  1  0.77474400  0.14276200  0.83990600  1
  O  O18  1  0.85895700  0.22625300  0.33999900  1
  O  O19  1  0.22525600  0.85723800  0.16009400  1
  O  O20  1  0.75214300  0.42501100  0.93288700  1
  O  O21  1  0.42405800  0.75113000  0.56590800  1
  O  O22  1  0.24785700  0.57498900  0.06711300  1
  O  O23  1  0.57594200  0.24887000  0.43409200  1
  O  O24  1  0.94011700  0.16872300  0.66977100  1
  O  O25  1  0.17145300  0.94050500  0.82984800  1
  O  O26  1  0.05988300  0.83127700  0.33022900  1
  O  O27  1  0.82854700  0.05949500  0.17015200  1
  O  O28  1  0.21565900  0.41184000  0.85546800  1
  O  O29  1  0.41239200  0.21619400  0.64467500  1
  O  O30  1  0.78434100  0.58816000  0.14453200  1
  O  O31  1  0.58760800  0.78380600  0.35532500  1
  O  O32  1  0.83359500  0.64975100  0.82587100  1
  O  O33  1  0.64367200  0.82268800  0.67105400  1
  O  O34  1  0.16640500  0.35024900  0.17412900  1
  O  O35  1  0.35632800  0.17731200  0.32894600  1
loop_
_geom_bond_atom_site_label_1
_geom_bond_atom_site_label_2
_geom_bond_distance
_geom_bond_site_symmetry_2
K0 O29 2.626773 1_555
K0 O28 2.629570 1_555
K0 O16 3.132926 1_555
K0 O17 3.139806 1_555
K1 O31 2.626773 1_555
K1 O30 2.629570 1_555
K1 O18 3.132926 1_555
K1 O19 3.139806 1_555
Er0 O24 2.241514 1_565
Er0 O25 2.248311 1_655
Er0 O16 2.260274 1_655
Er0 O17 2.279589 1_565
Er0 O8 2.307235 1_555
Er0 O9 2.328821 1_555
Er0 O32 2.511082 1_555
Er0 O33 2.655480 1_555
Er1 O26 2.241514 1_545
Er1 O27 2.248311 1_455
Er1 O18 2.260274 1_455
Er1 O19 2.279589 1_545
Er1 O10 2.307235 1_555
Er1 O11 2.328821 1_555
Er1 O34 2.511082 1_555
Er1 O35 2.655480 1_555
H0 O20 1.081161 1_555
H0 O32 1.409383 1_555
H1 O21 1.133782 1_555
H1 O33 1.306078 1_555
H2 O22 1.081161 1_555
H2 O34 1.409383 1_555
H3 O23 1.133782 1_555
H3 O35 1.306078 1_555
H4 O28 0.983880 1_555
H5 O29 0.983101 1_555
H6 O30 0.983880 1_555
H7 O31 0.983101 1_555
O0 P4 1.586801 1_455
O0 P1 1.631004 1_555
O1 P5 1.588902 1_545
O1 P0 1.630016 1_555
O2 P6 1.586801 1_655
O2 P3 1.631004 1_555
O3 P7 1.588902 1_565
O3 P2 1.630016 1_555
O4 P5 1.579371 1_555
O4 P2 1.636704 1_455
O5 P4 1.575720 1_554
O5 P3 1.639485 1_545
O6 P7 1.579371 1_555
O6 P0 1.636704 1_655
O7 P6 1.575720 1_556
O7 P1 1.639485 1_565
O10 O34 1.350666 1_555
O11 O35 1.344646 1_555
O12 P0 1.488456 1_555
O13 P1 1.489804 1_555
O14 P2 1.488456 1_555
O15 P3 1.489804 1_555
O16 P5 1.507724 1_555
O17 P4 1.504020 1_555
O18 P7 1.507724 1_555
O19 P6 1.504020 1_555
O20 P4 1.542442 1_555
O21 P5 1.532456 1_555
O22 P6 1.542442 1_555
O23 P7 1.532456 1_555
O24 P0 1.504638 1_655
O25 P1 1.502889 1_565
O26 P2 1.504638 1_455
O27 P3 1.502889 1_545
O32 O8 1.350666 1_555
O33 O9 1.344646 1_555
