# generated using pymatgen
data_LiCr2(MoO4)3
_symmetry_space_group_name_H-M   'P 1'
_cell_length_a   6.83678200
_cell_length_b   7.03286297
_cell_length_c   11.80183359
_cell_angle_alpha   77.55772579
_cell_angle_beta   85.65707523
_cell_angle_gamma   77.87780794
_symmetry_Int_Tables_number   1
_chemical_formula_structural   LiCr2(MoO4)3
_chemical_formula_sum   'Li2 Cr4 Mo6 O24'
_cell_volume   541.49781930
_cell_formula_units_Z   2
loop_
 _symmetry_equiv_pos_site_id
 _symmetry_equiv_pos_as_xyz
  1  'x, y, z'
loop_
 _atom_site_type_symbol
 _atom_site_label
 _atom_site_symmetry_multiplicity
 _atom_site_fract_x
 _atom_site_fract_y
 _atom_site_fract_z
 _atom_site_occupancy
  Li  Li0  1  0.32158900  0.56286700  0.41303700  1
  Li  Li1  1  0.67841100  0.43713300  0.58696300  1
  Cr  Cr0  1  0.30244500  0.16495200  0.02248400  1
  Cr  Cr1  1  0.69755500  0.83504800  0.97751600  1
  Cr  Cr2  1  0.69516600  0.23010800  0.37231400  1
  Cr  Cr3  1  0.30483400  0.76989200  0.62768600  1
  Mo  Mo0  1  0.74609900  0.30093200  0.05293200  1
  Mo  Mo1  1  0.25390100  0.69906800  0.94706800  1
  Mo  Mo2  1  0.25449500  0.09238500  0.35249700  1
  Mo  Mo3  1  0.74550500  0.90761500  0.64750300  1
  Mo  Mo4  1  0.20322100  0.28711600  0.68671600  1
  Mo  Mo5  1  0.79677900  0.71288400  0.31328400  1
  O  O0  1  0.99310500  0.20034500  0.35929300  1
  O  O1  1  0.00689500  0.79965500  0.64070700  1
  O  O2  1  0.05644600  0.63946900  0.33176700  1
  O  O3  1  0.94355400  0.36053100  0.66823300  1
  O  O4  1  0.39388400  0.26925500  0.38570200  1
  O  O5  1  0.60611600  0.73074500  0.61429800  1
  O  O6  1  0.67493800  0.31930100  0.20060800  1
  O  O7  1  0.32506200  0.68069900  0.79939200  1
  O  O8  1  0.29192600  0.45863400  0.03953600  1
  O  O9  1  0.70807400  0.54136600  0.96046400  1
  O  O10  1  0.32011800  0.05155800  0.21157300  1
  O  O11  1  0.67988200  0.94844200  0.78842700  1
  O  O12  1  0.00298300  0.18928700  0.04558000  1
  O  O13  1  0.99701700  0.81071300  0.95442000  1
  O  O14  1  0.24741600  0.24723300  0.83582200  1
  O  O15  1  0.75258400  0.75276700  0.16417800  1
  O  O16  1  0.33682900  0.48523100  0.60450100  1
  O  O17  1  0.66317100  0.51476900  0.39549900  1
  O  O18  1  0.70202600  0.15007000  0.54856400  1
  O  O19  1  0.29797400  0.84993000  0.45143600  1
  O  O20  1  0.60766400  0.14159000  0.99938900  1
  O  O21  1  0.39233600  0.85841000  0.00061100  1
  O  O22  1  0.29046700  0.05371000  0.63856900  1
  O  O23  1  0.70953300  0.94629000  0.36143100  1
loop_
_geom_bond_atom_site_label_1
_geom_bond_atom_site_label_2
_geom_bond_distance
_geom_bond_site_symmetry_2
Li0 O2 2.031416 1_555
Li0 O4 2.108688 1_555
Li0 O19 2.133907 1_555
Li0 O16 2.212466 1_555
Li0 O17 2.288269 1_555
Li1 O3 2.031416 1_555
Li1 O5 2.108688 1_555
Li1 O18 2.133907 1_555
Li1 O17 2.212466 1_555
Li1 O16 2.288269 1_555
Cr0 O12 2.020811 1_555
Cr0 O20 2.060299 1_554
Cr0 O8 2.103851 1_555
Cr0 O21 2.179775 1_545
Cr0 O14 2.194123 1_554
Cr0 O10 2.205469 1_555
Cr1 O13 2.020811 1_555
Cr1 O21 2.060299 1_556
Cr1 O9 2.103851 1_555
Cr1 O20 2.179775 1_565
Cr1 O15 2.194123 1_556
Cr1 O11 2.205469 1_555
Cr2 O6 1.994328 1_555
Cr2 O0 2.000987 1_555
Cr2 O23 2.009127 1_545
Cr2 O4 2.018617 1_555
Cr2 O18 2.035904 1_555
Cr2 O17 2.042967 1_555
Cr3 O7 1.994328 1_555
Cr3 O1 2.000987 1_555
Cr3 O22 2.009127 1_565
Cr3 O5 2.018617 1_555
Cr3 O19 2.035904 1_555
Cr3 O16 2.042967 1_555
Mo0 O12 1.770763 1_655
Mo0 O9 1.783523 1_554
Mo0 O6 1.798084 1_555
Mo0 O20 1.841755 1_554
Mo1 O13 1.770763 1_455
Mo1 O8 1.783523 1_556
Mo1 O7 1.798084 1_555
Mo1 O21 1.841755 1_556
Mo2 O10 1.757414 1_555
Mo2 O0 1.791978 1_455
Mo2 O19 1.827858 1_545
Mo2 O4 1.836708 1_555
Mo3 O11 1.757414 1_555
Mo3 O1 1.791978 1_655
Mo3 O18 1.827858 1_565
Mo3 O5 1.836708 1_555
Mo4 O3 1.758111 1_455
Mo4 O14 1.760352 1_555
Mo4 O22 1.820055 1_555
Mo4 O16 1.880139 1_555
Mo5 O2 1.758111 1_655
Mo5 O15 1.760352 1_555
Mo5 O23 1.820055 1_555
Mo5 O17 1.880139 1_555
