# generated using pymatgen
data_Mg3Ta6(FeO6)4
_symmetry_space_group_name_H-M   'P 1'
_cell_length_a   7.03800000
_cell_length_b   8.26082090
_cell_length_c   10.24519908
_cell_angle_alpha   106.25151663
_cell_angle_beta   103.20848364
_cell_angle_gamma   102.57923952
_symmetry_Int_Tables_number   1
_chemical_formula_structural   Mg3Ta6(FeO6)4
_chemical_formula_sum   'Mg3 Ta6 Fe4 O24'
_cell_volume   530.82817878
_cell_formula_units_Z   1
loop_
 _symmetry_equiv_pos_site_id
 _symmetry_equiv_pos_as_xyz
  1  'x, y, z'
loop_
 _atom_site_type_symbol
 _atom_site_label
 _atom_site_symmetry_multiplicity
 _atom_site_fract_x
 _atom_site_fract_y
 _atom_site_fract_z
 _atom_site_occupancy
  Mg  Mg0  1  0.00000000  0.50000000  0.50000000  1
  Mg  Mg1  1  0.27740000  0.27772700  0.79300700  1
  Mg  Mg2  1  0.72260000  0.72227300  0.20699300  1
  Ta  Ta0  1  0.77781000  0.32681800  0.72660100  1
  Ta  Ta1  1  0.22219000  0.67318200  0.27339900  1
  Ta  Ta2  1  0.89522900  0.91327400  0.66986500  1
  Ta  Ta3  1  0.40742700  0.73098900  0.87946400  1
  Ta  Ta4  1  0.10477100  0.08672600  0.33013500  1
  Ta  Ta5  1  0.59257300  0.26901100  0.12053600  1
  Fe  Fe0  1  0.37919000  0.95258200  0.60820400  1
  Fe  Fe1  1  0.62081000  0.04741800  0.39179600  1
  Fe  Fe2  1  0.04384900  0.20757700  0.01302800  1
  Fe  Fe3  1  0.95615100  0.79242300  0.98697200  1
  O  O0  1  0.87606000  0.68526000  0.58085500  1
  O  O1  1  0.12394000  0.31474000  0.41914500  1
  O  O2  1  0.27155800  0.50026000  0.75838900  1
  O  O3  1  0.72844200  0.49974000  0.24161100  1
  O  O4  1  0.78607800  0.30202500  0.53836400  1
  O  O5  1  0.21392200  0.69797500  0.46163600  1
  O  O6  1  0.66356600  0.97710200  0.57837800  1
  O  O7  1  0.33643400  0.02289800  0.42162200  1
  O  O8  1  0.65864000  0.74711800  0.01059800  1
  O  O9  1  0.34136000  0.25288200  0.98940200  1
  O  O10  1  0.48637500  0.77722700  0.27301700  1
  O  O11  1  0.51362500  0.22277300  0.72698300  1
  O  O12  1  0.14046100  0.02876000  0.64668800  1
  O  O13  1  0.07180900  0.06277400  0.13686500  1
  O  O14  1  0.92819100  0.93722600  0.86313500  1
  O  O15  1  0.56191200  0.13470500  0.23764800  1
  O  O16  1  0.43808800  0.86529500  0.76235200  1
  O  O17  1  0.16127300  0.44052600  0.16595500  1
  O  O18  1  0.83872700  0.55947400  0.83404500  1
  O  O19  1  0.98190200  0.24109000  0.81844800  1
  O  O20  1  0.01809800  0.75891000  0.18155200  1
  O  O21  1  0.23214400  0.79326200  0.97989900  1
  O  O22  1  0.76785600  0.20673800  0.02010100  1
  O  O23  1  0.85953900  0.97124000  0.35331200  1
loop_
_geom_bond_atom_site_label_1
_geom_bond_atom_site_label_2
_geom_bond_distance
_geom_bond_site_symmetry_2
Mg0 O1 1.997834 1_555
Mg0 O0 1.997834 1_455
Mg0 O5 2.157223 1_555
Mg0 O4 2.157223 1_455
Mg1 O2 1.974343 1_555
Mg1 O11 2.024481 1_555
Mg1 O9 2.037349 1_555
Mg1 O12 2.038798 1_555
Mg1 O19 2.121900 1_455
Mg2 O3 1.974343 1_555
Mg2 O10 2.024481 1_555
Mg2 O8 2.037349 1_555
Mg2 O23 2.038798 1_555
Mg2 O20 2.121900 1_655
Fe0 O16 1.911616 1_555
Fe0 O12 1.999715 1_565
Fe0 O6 2.068262 1_555
Fe0 O11 2.095619 1_565
Fe0 O5 2.097613 1_555
Fe0 O7 2.125278 1_565
Fe1 O15 1.911616 1_555
Fe1 O23 1.999715 1_545
Fe1 O7 2.068262 1_555
Fe1 O10 2.095619 1_545
Fe1 O4 2.097613 1_555
Fe1 O6 2.125278 1_545
Fe2 O22 1.958854 1_455
Fe2 O17 1.966952 1_555
Fe2 O13 1.979183 1_555
Fe2 O19 2.050633 1_454
Fe2 O9 2.126965 1_554
Fe2 O14 2.173917 1_444
Fe3 O21 1.958854 1_655
Fe3 O18 1.966952 1_555
Fe3 O14 1.979183 1_555
Fe3 O20 2.050633 1_656
Fe3 O8 2.126965 1_556
Fe3 O13 2.173917 1_666
O0 Ta2 1.808142 1_555
O1 Ta4 1.808142 1_555
O2 Ta3 1.851134 1_555
O3 Ta5 1.851134 1_555
O4 Ta0 1.897352 1_555
O5 Ta1 1.897352 1_555
O6 Ta2 1.941030 1_555
O7 Ta4 1.941030 1_555
O8 Ta3 1.913210 1_554
O9 Ta5 1.913210 1_556
O10 Ta1 1.872161 1_555
O11 Ta0 1.872161 1_555
O12 Ta2 1.882091 1_445
O13 Ta4 1.887994 1_555
O14 Ta2 1.887994 1_555
O15 Ta5 1.864465 1_555
O16 Ta3 1.864465 1_555
O17 Ta1 1.825001 1_555
O18 Ta0 1.825001 1_555
O19 Ta0 1.910136 1_555
O19 Ta2 2.563516 1_545
O20 Ta1 1.910136 1_555
O20 Ta4 2.563516 1_565
O21 Ta3 1.845414 1_555
O22 Ta5 1.845414 1_555
O23 Ta4 1.882091 1_665
