# generated using pymatgen
data_LiGd2RuO6
_symmetry_space_group_name_H-M   'P 1'
_cell_length_a   5.77609600
_cell_length_b   5.38659000
_cell_length_c   9.34575216
_cell_angle_alpha   55.33564644
_cell_angle_beta   90.00000000
_cell_angle_gamma   90.00000000
_symmetry_Int_Tables_number   1
_chemical_formula_structural   LiGd2RuO6
_chemical_formula_sum   'Li2 Gd4 Ru2 O12'
_cell_volume   239.16491180
_cell_formula_units_Z   2
loop_
 _symmetry_equiv_pos_site_id
 _symmetry_equiv_pos_as_xyz
  1  'x, y, z'
loop_
 _atom_site_type_symbol
 _atom_site_label
 _atom_site_symmetry_multiplicity
 _atom_site_fract_x
 _atom_site_fract_y
 _atom_site_fract_z
 _atom_site_occupancy
  Li  Li0  1  0.50000000  0.50000000  0.00000000  1
  Li  Li1  1  0.00000000  0.50000000  0.50000000  1
  Gd  Gd0  1  0.07695800  0.73084200  0.75178400  1
  Gd  Gd1  1  0.92304200  0.26915800  0.24821600  1
  Gd  Gd2  1  0.57695800  0.26915800  0.74821600  1
  Gd  Gd3  1  0.42304200  0.73084200  0.25178400  1
  Ru  Ru0  1  0.50000000  0.00000000  0.50000000  1
  Ru  Ru1  1  0.00000000  0.00000000  0.00000000  1
  O  O0  1  0.46188100  0.86654200  0.74472400  1
  O  O1  1  0.53811900  0.13345800  0.25527600  1
  O  O2  1  0.96188100  0.13345800  0.75527600  1
  O  O3  1  0.03811900  0.86654200  0.24472400  1
  O  O4  1  0.31978400  0.64279900  0.55343100  1
  O  O5  1  0.68021600  0.35720100  0.44656900  1
  O  O6  1  0.81978400  0.35720100  0.94656900  1
  O  O7  1  0.18021600  0.64279900  0.05343100  1
  O  O8  1  0.79443900  0.76706300  0.55948300  1
  O  O9  1  0.20556100  0.23293700  0.44051700  1
  O  O10  1  0.29443900  0.23293700  0.94051700  1
  O  O11  1  0.70556100  0.76706300  0.05948300  1
loop_
_geom_bond_atom_site_label_1
_geom_bond_atom_site_label_2
_geom_bond_distance
_geom_bond_site_symmetry_2
Li0 O1 2.068880 1_555
Li0 O0 2.068880 1_554
Li0 O6 2.165581 1_554
Li0 O7 2.165581 1_555
Li0 O11 2.167480 1_555
Li0 O10 2.167480 1_554
Li1 O3 2.068880 1_555
Li1 O2 2.068880 1_455
Li1 O4 2.165581 1_555
Li1 O5 2.165581 1_455
Li1 O8 2.167480 1_455
Li1 O9 2.167480 1_555
Gd0 O2 2.286214 1_465
Gd0 O6 2.324542 1_455
Gd0 O0 2.329611 1_555
Gd0 O8 2.352035 1_455
Gd0 O10 2.549718 1_555
Gd0 O4 2.574615 1_555
Gd0 O7 2.647115 1_556
Gd0 O9 2.716465 1_565
Gd1 O3 2.286214 1_645
Gd1 O7 2.324542 1_655
Gd1 O1 2.329611 1_555
Gd1 O9 2.352035 1_655
Gd1 O11 2.549718 1_555
Gd1 O5 2.574615 1_555
Gd1 O6 2.647115 1_554
Gd1 O8 2.716465 1_545
Gd2 O0 2.286214 1_545
Gd2 O4 2.324542 1_555
Gd2 O2 2.329611 1_555
Gd2 O10 2.352035 1_555
Gd2 O8 2.549718 1_555
Gd2 O6 2.574615 1_555
Gd2 O5 2.647115 1_555
Gd2 O11 2.716465 1_546
Gd3 O1 2.286214 1_565
Gd3 O5 2.324542 1_555
Gd3 O3 2.329611 1_555
Gd3 O11 2.352035 1_555
Gd3 O9 2.549718 1_555
Gd3 O7 2.574615 1_555
Gd3 O4 2.647115 1_555
Gd3 O10 2.716465 1_564
O0 Ru0 1.981394 1_565
O1 Ru0 1.981394 1_555
O2 Ru1 1.981394 1_656
O3 Ru1 1.981394 1_565
O4 Ru0 1.985476 1_565
O5 Ru0 1.985476 1_555
O6 Ru1 1.985476 1_656
O7 Ru1 1.985476 1_565
O8 Ru0 1.995583 1_565
O9 Ru0 1.995583 1_555
O10 Ru1 1.995583 1_556
O11 Ru1 1.995583 1_665
