# generated using pymatgen
data_H5(C2N3)6
_symmetry_space_group_name_H-M   'P 1'
_cell_length_a   5.25189083
_cell_length_b   11.11776835
_cell_length_c   17.22243918
_cell_angle_alpha   90.06997665
_cell_angle_beta   90.16358222
_cell_angle_gamma   107.74489334
_symmetry_Int_Tables_number   1
_chemical_formula_structural   H5(C2N3)6
_chemical_formula_sum   'H10 C24 N36'
_cell_volume   957.75629136
_cell_formula_units_Z   2
loop_
 _symmetry_equiv_pos_site_id
 _symmetry_equiv_pos_as_xyz
  1  'x, y, z'
loop_
 _atom_site_type_symbol
 _atom_site_label
 _atom_site_symmetry_multiplicity
 _atom_site_fract_x
 _atom_site_fract_y
 _atom_site_fract_z
 _atom_site_occupancy
  H  H0  1  0.10624400  0.05392200  0.57642200  1
  H  H1  1  0.35959300  0.17955200  0.62182200  1
  H  H2  1  0.88014700  0.93927600  0.42565700  1
  H  H3  1  0.62857600  0.81451000  0.37885600  1
  H  H4  1  0.77409900  0.38647100  0.62073200  1
  H  H5  1  0.20746200  0.60434100  0.37926800  1
  H  H6  1  0.11303000  0.55763300  0.92213000  1
  H  H7  1  0.36988900  0.68545700  0.87974300  1
  H  H8  1  0.87848400  0.43817200  0.07491300  1
  H  H9  1  0.62621000  0.31243600  0.12088200  1
  C  C0  1  0.05861100  0.02818400  0.83531000  1
  C  C1  1  0.34175200  0.17065900  0.92289500  1
  C  C2  1  0.39503900  0.19756800  0.78292000  1
  C  C3  1  0.69631100  0.34693700  0.86987500  1
  C  C4  1  0.73381500  0.36657300  0.73837500  1
  C  C5  1  0.07140700  0.53570800  0.66381000  1
  C  C6  1  0.34009500  0.67039800  0.57587400  1
  C  C7  1  0.73856900  0.86869300  0.76420000  1
  C  C8  1  0.69652300  0.84762300  0.63000800  1
  C  C9  1  0.63322700  0.81635100  0.49866800  1
  C  C10  1  0.35074000  0.17568100  0.50214900  1
  C  C11  1  0.28629900  0.14385300  0.37087300  1
  C  C12  1  0.24363900  0.12251000  0.23683100  1
  C  C13  1  0.64315600  0.32118900  0.42450000  1
  C  C14  1  0.58442500  0.29227600  0.28417600  1
  C  C15  1  0.91072500  0.45527300  0.33630600  1
  C  C16  1  0.24776700  0.62425400  0.26171000  1
  C  C17  1  0.28645500  0.64451000  0.13027000  1
  C  C18  1  0.58711500  0.79341700  0.21789600  1
  C  C19  1  0.64208300  0.82113800  0.07827900  1
  C  C20  1  0.92298400  0.96260700  0.16610200  1
  C  C21  1  0.63390700  0.31598100  0.00111700  1
  C  C22  1  0.39780400  0.69875600  0.71636300  1
  C  C23  1  0.35161100  0.67685000  0.99909100  1
  N  N0  1  0.18760600  0.09540900  0.77307100  1
  N  N1  1  0.12975400  0.07001900  0.90958700  1
  N  N2  1  0.48006000  0.23808400  0.85821500  1
  N  N3  1  0.52366100  0.26318400  0.72214600  1
  N  N4  1  0.77234300  0.38619400  0.94082500  1
  N  N5  1  0.82418000  0.41101200  0.80823800  1
  N  N6  1  0.85494400  0.42759700  0.67212600  1
  N  N7  1  0.19096300  0.59513000  0.72751800  1
  N  N8  1  0.13333300  0.56719600  0.58915300  1
  N  N9  1  0.41903800  0.71001100  0.50453700  1
  N  N10  1  0.47764300  0.73874100  0.64063400  1
  N  N11  1  0.52659400  0.76261800  0.77688600  1
  N  N12  1  0.84959500  0.92438900  0.83076400  1
  N  N13  1  0.82174400  0.91137000  0.69208900  1
  N  N14  1  0.77384000  0.88597100  0.55887900  1
  N  N15  1  0.71846800  0.85936900  0.42836700  1
  N  N16  1  0.26766400  0.13370200  0.57269600  1
  N  N17  1  0.20951900  0.10574900  0.44212100  1
  N  N18  1  0.16057100  0.07989100  0.30897300  1
  N  N19  1  0.13204800  0.06671400  0.17041400  1
  N  N20  1  0.56487700  0.28194800  0.49593700  1
  N  N21  1  0.50496600  0.25259500  0.35996500  1
  N  N22  1  0.45544600  0.22826800  0.22370000  1
  N  N23  1  0.84967400  0.42418300  0.41101400  1
  N  N24  1  0.79088000  0.39571100  0.27267500  1
  N  N25  1  0.12668900  0.56327300  0.32785100  1
  N  N26  1  0.15778600  0.58005000  0.19163400  1
  N  N27  1  0.21169500  0.60599500  0.05895200  1
  N  N28  1  0.45747700  0.72740100  0.27836700  1
  N  N29  1  0.50255600  0.75326400  0.14247300  1
  N  N30  1  0.79437700  0.89533700  0.22827000  1
  N  N31  1  0.85374800  0.92171800  0.09162400  1
  N  N32  1  0.56663700  0.78258900  0.00685900  1
  N  N33  1  0.71639700  0.35843500  0.07162600  1
  N  N34  1  0.41896600  0.21004800  0.99410500  1
  N  N35  1  0.27446800  0.63707600  0.92788800  1
loop_
_geom_bond_atom_site_label_1
_geom_bond_atom_site_label_2
_geom_bond_distance
_geom_bond_site_symmetry_2
H0 N16 1.025494 1_555
H1 N16 1.027313 1_555
H2 N15 1.026121 1_555
H3 N15 1.025599 1_555
H4 N6 1.025338 1_555
H5 N25 1.025370 1_555
H6 N35 1.025487 1_555
H7 N35 1.033028 1_555
H8 N33 1.026321 1_555
H9 N33 1.030151 1_555
C0 N12 1.330382 1_445
C0 N0 1.365286 1_555
C0 N1 1.371952 1_555
C1 N34 1.322082 1_555
C1 N1 1.335155 1_555
C1 N2 1.416044 1_555
C2 N0 1.322815 1_555
C2 N3 1.337737 1_555
C2 N2 1.398765 1_555
C3 N4 1.316334 1_555
C3 N5 1.341503 1_555
C3 N2 1.398242 1_555
C4 N5 1.330191 1_555
C4 N3 1.357080 1_555
C4 N6 1.381937 1_555
C5 N7 1.332668 1_555
C5 N8 1.347454 1_555
C5 N6 1.387819 1_455
C6 N9 1.329749 1_555
C6 N8 1.338106 1_555
C6 N10 1.414876 1_555
C7 N12 1.346109 1_555
C7 N13 1.355184 1_555
C7 N11 1.370994 1_555
C8 N14 1.321327 1_555
C8 N13 1.337151 1_555
C8 N10 1.404922 1_555
C9 N15 1.330066 1_555
C9 N9 1.365149 1_555
C9 N14 1.365663 1_555
C10 N16 1.328411 1_555
C10 N20 1.364967 1_555
C10 N17 1.365845 1_555
C11 N17 1.322014 1_555
C11 N18 1.336452 1_555
C11 N21 1.404005 1_555
C12 N19 1.345188 1_555
C12 N18 1.355388 1_555
C12 N22 1.369620 1_555
C13 N20 1.329625 1_555
C13 N23 1.336616 1_555
C13 N21 1.414063 1_555
C14 N22 1.323027 1_555
C14 N24 1.333811 1_555
C14 N21 1.401714 1_555
C15 N24 1.332609 1_555
C15 N23 1.346716 1_555
C15 N25 1.385860 1_655
C16 N26 1.332341 1_555
C16 N28 1.355692 1_555
C16 N25 1.380146 1_555
C17 N27 1.318955 1_555
C17 N26 1.340847 1_555
C17 N29 1.398474 1_555
C18 N30 1.321858 1_555
C18 N28 1.337230 1_555
C18 N29 1.399381 1_555
C19 N32 1.321387 1_555
C19 N31 1.333863 1_555
C19 N29 1.413613 1_555
C20 N19 1.332445 1_665
C20 N30 1.363848 1_555
C20 N31 1.370886 1_555
C21 N33 1.325154 1_555
C21 N34 1.365438 1_554
C21 N4 1.369861 1_554
C22 N11 1.322703 1_555
C22 N7 1.335342 1_555
C22 N10 1.401924 1_555
C23 N35 1.322914 1_555
C23 N32 1.365544 1_556
C23 N27 1.369978 1_556
