# generated using pymatgen
data_CaCr2O4
_symmetry_space_group_name_H-M   'P 1'
_cell_length_a   7.04988349
_cell_length_b   7.04988349
_cell_length_c   9.43876439
_cell_angle_alpha   54.26651330
_cell_angle_beta   54.26651330
_cell_angle_gamma   25.45265267
_symmetry_Int_Tables_number   1
_chemical_formula_structural   CaCr2O4
_chemical_formula_sum   'Ca2 Cr4 O8'
_cell_volume   161.47985595
_cell_formula_units_Z   2
loop_
 _symmetry_equiv_pos_site_id
 _symmetry_equiv_pos_as_xyz
  1  'x, y, z'
loop_
 _atom_site_type_symbol
 _atom_site_label
 _atom_site_symmetry_multiplicity
 _atom_site_fract_x
 _atom_site_fract_y
 _atom_site_fract_z
 _atom_site_occupancy
  Ca  Ca0  1  0.65188900  0.65188900  0.83436400  1
  Ca  Ca1  1  0.34811100  0.34811100  0.16563600  1
  Cr  Cr0  1  0.36251000  0.36251000  0.82284500  1
  Cr  Cr1  1  0.86039600  0.86039600  0.47133800  1
  Cr  Cr2  1  0.13960400  0.13960400  0.52866200  1
  Cr  Cr3  1  0.63749000  0.63749000  0.17715500  1
  O  O0  1  0.13437000  0.13437000  0.31295000  1
  O  O1  1  0.54097100  0.54097100  0.69245900  1
  O  O2  1  0.45902900  0.45902900  0.30754100  1
  O  O3  1  0.86563000  0.86563000  0.68705000  1
  O  O4  1  0.83680100  0.83680100  0.99519300  1
  O  O5  1  0.23821100  0.23821100  0.62000100  1
  O  O6  1  0.16319900  0.16319900  0.00480700  1
  O  O7  1  0.76178900  0.76178900  0.37999900  1
loop_
_geom_bond_atom_site_label_1
_geom_bond_atom_site_label_2
_geom_bond_distance
_geom_bond_site_symmetry_2
Ca0 O5 2.244741 1_655
Ca0 O5 2.244741 1_565
Ca0 O6 2.307371 1_656
Ca0 O6 2.307371 1_566
Ca0 O3 2.383367 1_555
Ca0 O1 2.562784 1_555
Ca1 O7 2.244741 1_545
Ca1 O7 2.244741 1_455
Ca1 O4 2.307371 1_544
Ca1 O4 2.307371 1_454
Ca1 O0 2.383367 1_555
Ca1 O2 2.562784 1_555
Cr0 O1 1.980355 1_555
Cr0 O3 1.997698 1_545
Cr0 O3 1.997698 1_455
Cr0 O4 2.120033 1_455
Cr0 O4 2.120033 1_545
Cr0 O6 2.196903 1_556
Cr1 O7 1.995631 1_555
Cr1 O2 2.032495 1_655
Cr1 O2 2.032495 1_565
Cr1 O3 2.079953 1_555
Cr1 O5 2.093146 1_655
Cr1 O5 2.093146 1_565
Cr2 O5 1.995631 1_555
Cr2 O1 2.032495 1_545
Cr2 O1 2.032495 1_455
Cr2 O0 2.079953 1_555
Cr2 O7 2.093146 1_455
Cr2 O7 2.093146 1_545
Cr3 O2 1.980355 1_555
Cr3 O0 1.997698 1_565
Cr3 O0 1.997698 1_655
Cr3 O6 2.120033 1_655
Cr3 O6 2.120033 1_565
Cr3 O4 2.196903 1_554
