# generated using pymatgen
data_FeH7C3NO6
_symmetry_space_group_name_H-M   'P 1'
_cell_length_a   7.30938740
_cell_length_b   7.44999789
_cell_length_c   8.48726230
_cell_angle_alpha   90.21790051
_cell_angle_beta   90.00000283
_cell_angle_gamma   60.62240101
_symmetry_Int_Tables_number   1
_chemical_formula_structural   FeH7C3NO6
_chemical_formula_sum   'Fe2 H14 C6 N2 O12'
_cell_volume   402.73650920
_cell_formula_units_Z   2
loop_
 _symmetry_equiv_pos_site_id
 _symmetry_equiv_pos_as_xyz
  1  'x, y, z'
loop_
 _atom_site_type_symbol
 _atom_site_label
 _atom_site_symmetry_multiplicity
 _atom_site_fract_x
 _atom_site_fract_y
 _atom_site_fract_z
 _atom_site_occupancy
  Fe  Fe0  1  0.33240700  0.33433800  0.74957300  1
  Fe  Fe1  1  0.66674400  0.66566200  0.25042700  1
  H  H0  1  0.41756800  0.58771700  0.49833600  1
  H  H1  1  0.58367700  0.00000000  0.50000000  1
  H  H2  1  0.00528600  0.41228300  0.50166400  1
  H  H3  1  0.58614900  0.41506400  0.00269400  1
  H  H4  1  0.41638700  0.00000000  0.00000000  1
  H  H5  1  0.00121300  0.58493600  0.99730600  1
  H  H6  1  0.02218900  0.08145500  0.65720700  1
  H  H7  1  0.06472600  0.84921500  0.71989100  1
  H  H8  1  0.10364400  0.91854500  0.34279300  1
  H  H9  1  0.91394200  0.15078500  0.28010900  1
  H  H10  1  0.10629800  0.97742400  0.15824400  1
  H  H11  1  0.91020800  0.93564500  0.21804600  1
  H  H12  1  0.08372200  0.02257600  0.84175600  1
  H  H13  1  0.84585200  0.06435500  0.78195400  1
  C  C0  1  0.56301000  0.43664000  0.49666700  1
  C  C1  1  0.43226700  0.00000000  0.50000000  1
  C  C2  1  0.99965000  0.56336000  0.50333300  1
  C  C3  1  0.43857400  0.56430800  0.99930000  1
  C  C4  1  0.56766900  0.00000000  0.00000000  1
  C  C5  1  0.00288300  0.43569200  0.00070000  1
  N  N0  1  0.00267200  0.00362900  0.74999900  1
  N  N1  1  0.00630200  0.99637100  0.25000100  1
  O  O0  1  0.58192800  0.30514700  0.59891500  1
  O  O1  1  0.29463100  0.11281900  0.60084000  1
  O  O2  1  0.10811300  0.59210100  0.60801700  1
  O  O3  1  0.88707500  0.69485300  0.40108500  1
  O  O4  1  0.40745000  0.88718100  0.39916000  1
  O  O5  1  0.70021400  0.40789900  0.39198300  1
  O  O6  1  0.41641100  0.70236700  0.09894200  1
  O  O7  1  0.69918000  0.89615700  0.10683600  1
  O  O8  1  0.89016000  0.41262300  0.10293200  1
  O  O9  1  0.11877800  0.29763300  0.90105800  1
  O  O10  1  0.59533800  0.10384300  0.89316400  1
  O  O11  1  0.30278300  0.58737700  0.89706800  1
loop_
_geom_bond_atom_site_label_1
_geom_bond_atom_site_label_2
_geom_bond_distance
_geom_bond_site_symmetry_2
Fe0 O9 2.141884 1_555
Fe0 O0 2.148825 1_555
Fe0 O2 2.178893 1_555
Fe0 O11 2.179283 1_555
Fe0 O1 2.196478 1_555
Fe0 O10 2.214840 1_555
Fe1 O6 2.141878 1_555
Fe1 O3 2.148831 1_555
Fe1 O5 2.178891 1_555
Fe1 O8 2.179285 1_555
Fe1 O4 2.196474 1_555
Fe1 O7 2.214840 1_555
H6 N0 1.030235 1_555
H7 N0 1.039345 1_565
H8 N1 1.030232 1_555
H9 N1 1.039345 1_645
H10 N1 1.028868 1_555
H11 N1 1.040391 1_655
H12 N0 1.028873 1_555
H13 N0 1.040391 1_655
C0 H0 1.105936 1_555
C0 O0 1.267055 1_555
C0 O5 1.276275 1_555
C1 H1 1.106714 1_555
C1 O4 1.271201 1_545
C1 O1 1.271201 1_555
C2 H2 1.105933 1_655
C2 O3 1.267055 1_555
C2 O2 1.276275 1_655
C3 H3 1.106419 1_556
C3 O11 1.265430 1_555
C3 O6 1.276414 1_556
C4 H4 1.105779 1_555
C4 O7 1.272960 1_545
C4 O10 1.272964 1_554
C5 H5 1.106416 1_554
C5 O8 1.265435 1_455
C5 O9 1.276412 1_554
