# generated using pymatgen
data_La4Fe(NiO4)3
_symmetry_space_group_name_H-M   'P 1'
_cell_length_a   5.46162100
_cell_length_b   5.55560827
_cell_length_c   7.79621485
_cell_angle_alpha   89.87058872
_cell_angle_beta   88.50660265
_cell_angle_gamma   89.98197263
_symmetry_Int_Tables_number   1
_chemical_formula_structural   La4Fe(NiO4)3
_chemical_formula_sum   'La4 Fe1 Ni3 O12'
_cell_volume   236.47667654
_cell_formula_units_Z   1
loop_
 _symmetry_equiv_pos_site_id
 _symmetry_equiv_pos_as_xyz
  1  'x, y, z'
loop_
 _atom_site_type_symbol
 _atom_site_label
 _atom_site_symmetry_multiplicity
 _atom_site_fract_x
 _atom_site_fract_y
 _atom_site_fract_z
 _atom_site_occupancy
  La  La0  1  0.49754100  0.99867800  0.75391000  1
  La  La1  1  0.00206400  0.50163700  0.24570100  1
  La  La2  1  0.50245900  0.00132200  0.24609000  1
  La  La3  1  0.99793600  0.49836300  0.75429900  1
  Fe  Fe0  1  0.50000000  0.50000000  0.50000000  1
  Ni  Ni0  1  0.00000000  0.00000000  0.50000000  1
  Ni  Ni1  1  0.50000000  0.50000000  0.00000000  1
  Ni  Ni2  1  0.00000000  0.00000000  0.00000000  1
  O  O0  1  0.21657100  0.71236300  0.46917900  1
  O  O1  1  0.72196200  0.21566300  0.96682800  1
  O  O2  1  0.28656100  0.21654200  0.53174900  1
  O  O3  1  0.78219500  0.72426900  0.03457600  1
  O  O4  1  0.99853400  0.06896300  0.24739000  1
  O  O5  1  0.49739300  0.56134100  0.74857900  1
  O  O6  1  0.71343900  0.78345800  0.46825100  1
  O  O7  1  0.21780500  0.27573100  0.96542400  1
  O  O8  1  0.00146600  0.93103700  0.75261000  1
  O  O9  1  0.50260700  0.43865900  0.25142100  1
  O  O10  1  0.78342900  0.28763700  0.53082100  1
  O  O11  1  0.27803800  0.78433700  0.03317200  1
loop_
_geom_bond_atom_site_label_1
_geom_bond_atom_site_label_2
_geom_bond_distance
_geom_bond_site_symmetry_2
La0 O1 2.413919 1_565
La0 O2 2.426174 1_565
La0 O5 2.430123 1_555
La0 O7 2.702080 1_565
La0 O11 2.729193 1_556
La0 O8 2.735711 1_555
La0 O6 2.766605 1_555
La0 O8 2.777426 1_655
La0 O10 2.808476 1_565
La1 O3 2.402907 1_455
La1 O4 2.403854 1_455
La1 O0 2.427988 1_555
La1 O11 2.709887 1_555
La1 O9 2.749497 1_455
La1 O9 2.757466 1_555
La1 O7 2.759608 1_554
La1 O10 2.762437 1_455
La1 O6 2.795503 1_455
La2 O11 2.413919 1_545
La2 O6 2.426174 1_545
La2 O9 2.430123 1_555
La2 O3 2.702080 1_545
La2 O1 2.729193 1_554
La2 O4 2.735711 1_555
La2 O2 2.766605 1_555
La2 O4 2.777426 1_455
La2 O0 2.808476 1_545
La3 O7 2.402907 1_655
La3 O8 2.403854 1_655
La3 O10 2.427988 1_555
La3 O1 2.709887 1_555
La3 O5 2.749497 1_655
La3 O5 2.757466 1_555
La3 O3 2.759608 1_556
La3 O0 2.762437 1_655
La3 O2 2.795503 1_655
Fe0 O10 1.965422 1_555
Fe0 O0 1.965422 1_555
Fe0 O5 1.968154 1_555
Fe0 O9 1.968154 1_555
Fe0 O6 1.970906 1_555
Fe0 O2 1.970906 1_555
Ni0 O2 1.995182 1_555
Ni0 O6 1.995182 1_445
Ni0 O0 1.999038 1_545
Ni0 O10 1.999038 1_455
Ni0 O8 2.005694 1_545
Ni0 O4 2.005694 1_455
Ni1 O5 1.989193 1_554
Ni1 O9 1.989193 1_555
Ni1 O11 2.004028 1_555
Ni1 O1 2.004028 1_554
Ni1 O3 2.006207 1_555
Ni1 O7 2.006207 1_554
Ni2 O7 1.953683 1_554
Ni2 O3 1.953683 1_445
Ni2 O11 1.956094 1_545
Ni2 O1 1.956094 1_454
Ni2 O8 1.967051 1_544
Ni2 O4 1.967051 1_455
