# generated using pymatgen
data_Eu3In
_symmetry_space_group_name_H-M   'P 1'
_cell_length_a   7.39160256
_cell_length_b   7.39161707
_cell_length_c   5.72578218
_cell_angle_alpha   90.00000000
_cell_angle_beta   90.00000000
_cell_angle_gamma   119.99918421
_symmetry_Int_Tables_number   1
_chemical_formula_structural   Eu3In
_chemical_formula_sum   'Eu6 In2'
_cell_volume   270.92375822
_cell_formula_units_Z   2
loop_
 _symmetry_equiv_pos_site_id
 _symmetry_equiv_pos_as_xyz
  1  'x, y, z'
loop_
 _atom_site_type_symbol
 _atom_site_label
 _atom_site_symmetry_multiplicity
 _atom_site_fract_x
 _atom_site_fract_y
 _atom_site_fract_z
 _atom_site_occupancy
  Eu  Eu0  1  0.17542167  0.35084780  0.25000000  1
  Eu  Eu1  1  0.64915340  0.82457741  0.25000000  1
  Eu  Eu2  1  0.17542364  0.82457686  0.25000000  1
  Eu  Eu3  1  0.82457833  0.64915220  0.75000000  1
  Eu  Eu4  1  0.35084660  0.17542259  0.75000000  1
  Eu  Eu5  1  0.82457636  0.17542314  0.75000000  1
  In  In0  1  0.33333447  0.66666777  0.75000000  1
  In  In1  1  0.66666553  0.33333223  0.25000000  1
loop_
_geom_bond_atom_site_label_1
_geom_bond_atom_site_label_2
_geom_bond_distance
_geom_bond_site_symmetry_2
Eu0 Eu2 3.501617 1_555
Eu0 Eu1 3.501675 1_555
Eu0 In0 3.504761 1_555
Eu0 In0 3.504761 1_554
Eu0 Eu5 3.638704 1_455
Eu0 Eu5 3.638704 1_454
Eu0 Eu4 3.638707 1_555
Eu0 Eu4 3.638707 1_554
Eu0 In1 3.697491 1_455
Eu0 In1 3.697512 1_555
Eu0 Eu2 3.890001 1_545
Eu0 Eu1 3.890026 1_445
Eu1 Eu2 3.501620 1_555
Eu1 In0 3.504755 1_554
Eu1 In0 3.504755 1_555
Eu1 Eu3 3.638707 1_555
Eu1 Eu3 3.638707 1_554
Eu1 Eu5 3.638708 1_564
Eu1 Eu5 3.638708 1_565
Eu1 In1 3.697501 1_565
Eu1 In1 3.697516 1_555
Eu1 Eu2 3.889982 1_655
Eu2 In0 3.504745 1_554
Eu2 In0 3.504745 1_555
Eu2 Eu3 3.638704 1_455
Eu2 Eu3 3.638704 1_454
Eu2 Eu4 3.638708 1_564
Eu2 Eu4 3.638708 1_565
Eu2 In1 3.697541 1_565
Eu2 In1 3.697560 1_455
Eu3 Eu5 3.501617 1_555
Eu3 Eu4 3.501675 1_555
Eu3 In1 3.504761 1_555
Eu3 In1 3.504761 1_556
Eu3 In0 3.697491 1_655
Eu3 In0 3.697512 1_555
Eu3 Eu5 3.890001 1_565
Eu3 Eu4 3.890026 1_665
Eu4 Eu5 3.501620 1_555
Eu4 In1 3.504755 1_555
Eu4 In1 3.504755 1_556
Eu4 In0 3.697501 1_545
Eu4 In0 3.697516 1_555
Eu4 Eu5 3.889982 1_455
Eu5 In1 3.504745 1_555
Eu5 In1 3.504745 1_556
Eu5 In0 3.697541 1_545
Eu5 In0 3.697560 1_655
