# generated using pymatgen
data_MnIn2NiO6
_symmetry_space_group_name_H-M   'P 1'
_cell_length_a   5.20890700
_cell_length_b   5.41610122
_cell_length_c   7.70572703
_cell_angle_alpha   90.02621774
_cell_angle_beta   90.31905314
_cell_angle_gamma   90.01930889
_symmetry_Int_Tables_number   1
_chemical_formula_structural   MnIn2NiO6
_chemical_formula_sum   'Mn2 In4 Ni2 O12'
_cell_volume   217.39031529
_cell_formula_units_Z   2
loop_
 _symmetry_equiv_pos_site_id
 _symmetry_equiv_pos_as_xyz
  1  'x, y, z'
loop_
 _atom_site_type_symbol
 _atom_site_label
 _atom_site_symmetry_multiplicity
 _atom_site_fract_x
 _atom_site_fract_y
 _atom_site_fract_z
 _atom_site_occupancy
  Mn  Mn0  1  0.00032900  0.49988300  0.99995700  1
  Mn  Mn1  1  0.50005000  0.99995700  0.49999700  1
  In  In0  1  0.52309700  0.56153100  0.24662600  1
  In  In1  1  0.02289700  0.93848000  0.74646200  1
  In  In2  1  0.47690100  0.43856600  0.75344900  1
  In  In3  1  0.97692500  0.06152400  0.25354300  1
  Ni  Ni0  1  0.99983100  0.49967000  0.49976600  1
  Ni  Ni1  1  0.50022500  0.99996500  0.99997400  1
  O  O0  1  0.12620200  0.44095000  0.23826800  1
  O  O1  1  0.62611700  0.05922200  0.73823900  1
  O  O2  1  0.87378700  0.55918200  0.76174400  1
  O  O3  1  0.37376300  0.94091000  0.26183200  1
  O  O4  1  0.29743400  0.69096400  0.93781000  1
  O  O5  1  0.79726600  0.80923400  0.43790300  1
  O  O6  1  0.70258100  0.30920200  0.06217300  1
  O  O7  1  0.20268600  0.19082800  0.56221400  1
  O  O8  1  0.81485500  0.79350600  0.07308300  1
  O  O9  1  0.31468800  0.70635600  0.57306300  1
  O  O10  1  0.18519900  0.20647200  0.92694100  1
  O  O11  1  0.68516600  0.29359700  0.42695800  1
loop_
_geom_bond_atom_site_label_1
_geom_bond_atom_site_label_2
_geom_bond_distance
_geom_bond_site_symmetry_2
Mn0 O4 1.924331 1_555
Mn0 O6 1.926002 1_456
Mn0 O10 1.943065 1_555
Mn0 O8 1.945818 1_456
Mn0 O0 1.972627 1_556
Mn0 O2 1.973391 1_455
Mn1 O5 1.923977 1_555
Mn1 O7 1.925269 1_565
Mn1 O11 1.944659 1_565
Mn1 O9 1.945184 1_555
Mn1 O3 1.972045 1_555
Mn1 O1 1.972411 1_565
In0 O0 2.168485 1_555
In0 O11 2.176948 1_555
In0 O6 2.185377 1_555
In0 O3 2.200613 1_555
In0 O8 2.387329 1_555
In0 O5 2.446487 1_555
In1 O1 2.168589 1_465
In1 O10 2.177117 1_565
In1 O7 2.185515 1_565
In1 O2 2.199434 1_455
In1 O9 2.387134 1_555
In1 O4 2.448640 1_555
In2 O2 2.168485 1_555
In2 O9 2.176981 1_555
In2 O4 2.185110 1_555
In2 O1 2.200220 1_555
In2 O10 2.387260 1_555
In2 O7 2.446536 1_555
In3 O3 2.168680 1_645
In3 O8 2.176653 1_545
In3 O5 2.185590 1_545
In3 O0 2.200386 1_655
In3 O11 2.386951 1_555
In3 O6 2.448638 1_555
Ni0 O7 2.035272 1_655
Ni0 O5 2.036658 1_555
Ni0 O11 2.057898 1_555
Ni0 O9 2.061505 1_655
Ni0 O0 2.146888 1_655
Ni0 O2 2.150473 1_555
Ni1 O6 2.034293 1_566
Ni1 O4 2.034350 1_555
Ni1 O8 2.060389 1_556
Ni1 O10 2.062011 1_565
Ni1 O1 2.148470 1_565
Ni1 O3 2.150121 1_556
