# generated using pymatgen
data_YAlNi
_symmetry_space_group_name_H-M   'P 1'
_cell_length_a   5.39052496
_cell_length_b   5.27978970
_cell_length_c   8.61583500
_cell_angle_alpha   90.00000000
_cell_angle_beta   90.00000000
_cell_angle_gamma   59.30212397
_symmetry_Int_Tables_number   1
_chemical_formula_structural   YAlNi
_chemical_formula_sum   'Y4 Al4 Ni4'
_cell_volume   210.85235755
_cell_formula_units_Z   4
loop_
 _symmetry_equiv_pos_site_id
 _symmetry_equiv_pos_as_xyz
  1  'x, y, z'
loop_
 _atom_site_type_symbol
 _atom_site_label
 _atom_site_symmetry_multiplicity
 _atom_site_fract_x
 _atom_site_fract_y
 _atom_site_fract_z
 _atom_site_occupancy
  Y  Y0  1  0.33855600  0.32287400  0.54322100  1
  Y  Y1  1  0.66910100  0.66168000  0.43196600  1
  Y  Y2  1  0.66910100  0.66168000  0.06803400  1
  Y  Y3  1  0.33855600  0.32287400  0.95677900  1
  Al  Al0  1  0.83518400  0.32957900  0.75000000  1
  Al  Al1  1  0.33172300  0.83086600  0.75000000  1
  Al  Al2  1  0.83737100  0.83091100  0.75000000  1
  Al  Al3  1  0.14731000  0.70531500  0.25000000  1
  Ni  Ni0  1  0.66766800  0.17810300  0.25000000  1
  Ni  Ni1  1  0.15438900  0.17808200  0.25000000  1
  Ni  Ni2  1  0.00552100  0.98901700  0.50981500  1
  Ni  Ni3  1  0.00552100  0.98901700  0.99018500  1
loop_
_geom_bond_atom_site_label_1
_geom_bond_atom_site_label_2
_geom_bond_distance
_geom_bond_site_symmetry_2
Y0 Y1 3.151113 1_545
Y0 Y1 3.247757 1_555
Y0 Y1 3.248150 1_455
Y1 Y2 3.135578 1_555
Y2 Y3 3.151113 1_564
Y2 Y3 3.247757 1_554
Y2 Y3 3.248150 1_654
Al0 Ni2 2.583198 1_645
Al0 Ni3 2.583198 1_645
Al0 Al2 2.626863 1_545
Al0 Al1 2.627071 1_645
Al0 Al1 2.652626 1_555
Al0 Al2 2.652965 1_555
Al0 Y2 3.127542 1_556
Al0 Y1 3.127542 1_555
Al0 Y3 3.230915 1_555
Al0 Y0 3.230915 1_555
Al0 Y3 3.231089 1_655
Al0 Y0 3.231089 1_655
Al1 Ni2 2.563681 1_555
Al1 Ni3 2.563681 1_555
Al1 Al2 2.664696 1_455
Al1 Al2 2.725829 1_555
Al1 Y2 3.155156 1_556
Al1 Y1 3.155156 1_555
Al1 Y3 3.165611 1_565
Al1 Y0 3.165611 1_565
Al1 Y3 3.204389 1_555
Al1 Y0 3.204389 1_555
Al2 Ni3 2.563859 1_655
Al2 Ni2 2.563859 1_655
Al2 Y2 3.155459 1_556
Al2 Y1 3.155459 1_555
Al2 Y3 3.165405 1_565
Al2 Y0 3.165405 1_565
Al2 Y3 3.204489 1_655
Al2 Y0 3.204489 1_655
Al3 Ni0 2.515220 1_465
Al3 Ni1 2.515805 1_565
Al3 Ni2 2.582616 1_555
Al3 Ni3 2.582616 1_554
Al3 Ni1 2.764393 1_555
Al3 Ni0 2.764822 1_555
Al3 Y0 3.065454 1_555
Al3 Y3 3.065454 1_554
Al3 Y1 3.124235 1_555
Al3 Y2 3.124235 1_555
Al3 Y1 3.124491 1_455
Al3 Y2 3.124491 1_455
Ni0 Ni1 2.623625 1_655
Ni0 Ni3 2.732774 1_644
Ni0 Ni2 2.732774 1_645
Ni0 Ni1 2.766900 1_555
Ni0 Y0 2.954572 1_555
Ni0 Y3 2.954572 1_554
Ni0 Y1 2.999485 1_555
Ni0 Y2 2.999485 1_555
Ni0 Y1 3.141797 1_545
Ni0 Y2 3.141797 1_545
Ni1 Ni2 2.733001 1_545
Ni1 Ni3 2.733001 1_544
Ni1 Y0 2.954198 1_555
Ni1 Y3 2.954198 1_554
Ni1 Y1 3.000131 1_455
Ni1 Y2 3.000131 1_455
Ni1 Y1 3.141033 1_545
Ni1 Y2 3.141033 1_545
Ni2 Y0 3.037914 1_555
Ni2 Y0 3.105442 1_565
Ni2 Y0 3.105709 1_465
Ni2 Y1 3.126640 1_465
Ni2 Y1 3.149602 1_555
Ni2 Y1 3.150490 1_455
Ni3 Y3 3.037914 1_555
Ni3 Y3 3.105442 1_565
Ni3 Y3 3.105709 1_465
Ni3 Y2 3.126640 1_466
Ni3 Y2 3.149602 1_556
Ni3 Y2 3.150490 1_456
