# generated using pymatgen
data_NaAlS2O19
_symmetry_space_group_name_H-M   'P 1'
_cell_length_a   11.55504909
_cell_length_b   11.55504909
_cell_length_c   8.29750683
_cell_angle_alpha   87.88790446
_cell_angle_beta   87.88790446
_cell_angle_gamma   44.45624019
_symmetry_Int_Tables_number   1
_chemical_formula_structural   NaAlS2O19
_chemical_formula_sum   'Na2 Al2 S4 O38'
_cell_volume   775.30170939
_cell_formula_units_Z   2
loop_
 _symmetry_equiv_pos_site_id
 _symmetry_equiv_pos_as_xyz
  1  'x, y, z'
loop_
 _atom_site_type_symbol
 _atom_site_label
 _atom_site_symmetry_multiplicity
 _atom_site_fract_x
 _atom_site_fract_y
 _atom_site_fract_z
 _atom_site_occupancy
  Na  Na0  1  0.00000000  0.00000000  0.00000000  1
  Na  Na1  1  0.00000000  0.00000000  0.50000000  1
  Al  Al0  1  0.00000000  0.50000000  0.00000000  1
  Al  Al1  1  0.50000000  0.00000000  0.50000000  1
  S  S0  1  0.11785300  0.62855700  0.52500600  1
  S  S1  1  0.37144300  0.88214700  0.97499400  1
  S  S2  1  0.88214700  0.37144300  0.47499400  1
  S  S3  1  0.62855700  0.11785300  0.02500600  1
  O  O0  1  0.26324700  0.46094600  0.59228000  1
  O  O1  1  0.53905400  0.73675300  0.90772000  1
  O  O2  1  0.73675300  0.53905400  0.40772000  1
  O  O3  1  0.46094600  0.26324700  0.09228000  1
  O  O4  1  0.09703600  0.75420200  0.60625300  1
  O  O5  1  0.24579800  0.90296400  0.89374700  1
  O  O6  1  0.90296400  0.24579800  0.39374700  1
  O  O7  1  0.75420200  0.09703600  0.10625300  1
  O  O8  1  0.97247800  0.65508000  0.55493300  1
  O  O9  1  0.34492000  0.02752200  0.94506700  1
  O  O10  1  0.02752200  0.34492000  0.44506700  1
  O  O11  1  0.65508000  0.97247800  0.05493300  1
  O  O12  1  0.13971000  0.63436400  0.34763400  1
  O  O13  1  0.36563600  0.86029000  0.15236600  1
  O  O14  1  0.86029000  0.36563600  0.65236600  1
  O  O15  1  0.63436400  0.13971000  0.84763400  1
  O  O16  1  0.08612600  0.45607100  0.19600000  1
  O  O17  1  0.54392900  0.91387400  0.30400000  1
  O  O18  1  0.91387400  0.54392900  0.80400000  1
  O  O19  1  0.45607100  0.08612600  0.69600000  1
  O  O20  1  0.00196000  0.71770000  0.96361000  1
  O  O21  1  0.28230000  0.99804000  0.53639000  1
  O  O22  1  0.99804000  0.28230000  0.03639000  1
  O  O23  1  0.71770000  0.00196000  0.46361000  1
  O  O24  1  0.20326800  0.37216400  0.91441300  1
  O  O25  1  0.62783600  0.79673200  0.58558700  1
  O  O26  1  0.79673200  0.62783600  0.08558700  1
  O  O27  1  0.37216400  0.20326800  0.41441300  1
  O  O28  1  0.14439200  0.85560800  0.25000000  1
  O  O29  1  0.85560800  0.14439200  0.75000000  1
  O  O30  1  0.11108500  0.71483800  0.96175100  1
  O  O31  1  0.28516200  0.88891500  0.53824900  1
  O  O32  1  0.88891500  0.28516200  0.03824900  1
  O  O33  1  0.71483800  0.11108500  0.46175100  1
  O  O34  1  0.44509200  0.52499300  0.04731700  1
  O  O35  1  0.47500700  0.55490800  0.45268300  1
  O  O36  1  0.55490800  0.47500700  0.95268300  1
  O  O37  1  0.52499300  0.44509200  0.54731700  1
loop_
_geom_bond_atom_site_label_1
_geom_bond_atom_site_label_2
_geom_bond_distance
_geom_bond_site_symmetry_2
Na0 O7 2.333094 1_455
Na0 O5 2.333094 1_544
Na0 O28 2.428278 1_545
Na0 O29 2.428278 1_454
Na0 O30 2.571941 1_544
Na0 O32 2.571941 1_455
Na1 O6 2.333094 1_455
Na1 O4 2.333094 1_545
Na1 O29 2.428278 1_455
Na1 O28 2.428278 1_545
Na1 O31 2.571941 1_545
Na1 O33 2.571941 1_455
Al0 O24 1.790100 1_554
Al0 O26 1.790100 1_455
Al0 O18 1.797289 1_454
Al0 O16 1.797289 1_555
Al0 O22 2.538590 1_455
Al0 O20 2.538590 1_554
Al1 O25 1.790100 1_545
Al1 O27 1.790100 1_555
Al1 O19 1.797289 1_555
Al1 O17 1.797289 1_545
Al1 O21 2.538590 1_545
Al1 O23 2.538590 1_555
O0 S0 1.493155 1_555
O1 S1 1.493155 1_555
O2 S2 1.493155 1_555
O3 S3 1.493155 1_555
O4 S0 1.477093 1_555
O5 S1 1.477093 1_555
O6 S2 1.477093 1_555
O7 S3 1.477093 1_555
O8 S0 1.489056 1_655
O9 S1 1.489056 1_545
O10 S2 1.489056 1_455
O11 S3 1.489056 1_565
O12 S0 1.491254 1_555
O13 S1 1.491254 1_554
O14 S2 1.491254 1_555
O15 S3 1.491254 1_556
O20 O30 1.237088 1_555
O21 O31 1.237088 1_555
O22 O32 1.237088 1_555
O23 O33 1.237088 1_555
O34 O36 1.214109 1_554
O35 O37 1.214109 1_555
