# generated using pymatgen
data_TiNi
_symmetry_space_group_name_H-M   'P 1'
_cell_length_a   5.78337327
_cell_length_b   7.93392070
_cell_length_c   9.65125360
_cell_angle_alpha   90.00000000
_cell_angle_beta   105.22958986
_cell_angle_gamma   90.00000000
_symmetry_Int_Tables_number   1
_chemical_formula_structural   TiNi
_chemical_formula_sum   'Ti16 Ni16'
_cell_volume   427.29375284
_cell_formula_units_Z   16
loop_
 _symmetry_equiv_pos_site_id
 _symmetry_equiv_pos_as_xyz
  1  'x, y, z'
loop_
 _atom_site_type_symbol
 _atom_site_label
 _atom_site_symmetry_multiplicity
 _atom_site_fract_x
 _atom_site_fract_y
 _atom_site_fract_z
 _atom_site_occupancy
  Ti  Ti0_0  1  0.31522601  0.37500000  0.39146310  1
  Ti  Ti0_1  1  0.31522600  0.37500000  0.89146310  1
  Ti  Ti0_2  1  0.31522601  0.87500000  0.39146310  1
  Ti  Ti0_3  1  0.31522600  0.87500000  0.89146310  1
  Ti  Ti0_4  1  0.81522601  0.37500000  0.39146310  1
  Ti  Ti0_5  1  0.81522601  0.37500000  0.89146310  1
  Ti  Ti0_6  1  0.81522601  0.87500000  0.39146310  1
  Ti  Ti0_7  1  0.81522601  0.87500000  0.89146310  1
  Ti  Ti1_0  1  0.18477399  0.12500000  0.10853690  1
  Ti  Ti1_1  1  0.18477399  0.12500000  0.60853690  1
  Ti  Ti1_2  1  0.18477399  0.62500000  0.10853690  1
  Ti  Ti1_3  1  0.18477399  0.62500000  0.60853690  1
  Ti  Ti1_4  1  0.68477399  0.12500000  0.10853690  1
  Ti  Ti1_5  1  0.68477400  0.12500000  0.60853690  1
  Ti  Ti1_6  1  0.68477399  0.62500000  0.10853690  1
  Ti  Ti1_7  1  0.68477400  0.62500000  0.60853690  1
  Ni  Ni0_0  1  0.46168893  0.37500000  0.16444888  1
  Ni  Ni0_1  1  0.46168893  0.37500000  0.66444888  1
  Ni  Ni0_2  1  0.46168893  0.87500000  0.16444888  1
  Ni  Ni0_3  1  0.46168893  0.87500000  0.66444888  1
  Ni  Ni0_4  1  0.96168893  0.37500000  0.16444888  1
  Ni  Ni0_5  1  0.96168893  0.37500000  0.66444888  1
  Ni  Ni0_6  1  0.96168893  0.87500000  0.16444888  1
  Ni  Ni0_7  1  0.96168893  0.87500000  0.66444888  1
  Ni  Ni1_0  1  0.03831107  0.12500000  0.33555112  1
  Ni  Ni1_1  1  0.03831107  0.12500000  0.83555112  1
  Ni  Ni1_2  1  0.03831107  0.62500000  0.33555112  1
  Ni  Ni1_3  1  0.03831107  0.62500000  0.83555112  1
  Ni  Ni1_4  1  0.53831107  0.12500000  0.33555112  1
  Ni  Ni1_5  1  0.53831107  0.12500000  0.83555112  1
  Ni  Ni1_6  1  0.53831107  0.62500000  0.33555112  1
  Ni  Ni1_7  1  0.53831107  0.62500000  0.83555112  1
loop_
_geom_bond_atom_site_label_1
_geom_bond_atom_site_label_2
_geom_bond_distance
_geom_bond_site_symmetry_2
Ni0_0 Ti1_4 2.501146 1_555
Ni0_0 Ti1_6 2.501146 1_555
Ni0_0 Ti1_0 2.517174 1_555
Ni0_0 Ti1_2 2.517174 1_555
Ni0_0 Ni1_4 2.544223 1_555
Ni0_0 Ni1_6 2.544223 1_555
Ni0_0 Ti0_1 2.546847 1_554
Ni0_0 Ti0_0 2.548112 1_555
Ni0_0 Ti0_4 2.574365 1_555
Ni0_0 Ni0_4 2.891687 1_455
Ni0_0 Ni0_4 2.891687 1_555
Ni0_1 Ti1_5 2.501146 1_555
Ni0_1 Ti1_7 2.501146 1_555
Ni0_1 Ti1_1 2.517174 1_555
Ni0_1 Ti1_3 2.517174 1_555
Ni0_1 Ni1_5 2.544223 1_555
Ni0_1 Ni1_7 2.544223 1_555
Ni0_1 Ti0_0 2.546847 1_555
Ni0_1 Ti0_1 2.548112 1_555
Ni0_1 Ti0_5 2.574365 1_555
Ni0_1 Ni0_5 2.891687 1_455
Ni0_1 Ni0_5 2.891687 1_555
Ni0_2 Ti1_6 2.501146 1_555
Ni0_2 Ti1_4 2.501146 1_565
Ni0_2 Ti1_2 2.517174 1_555
Ni0_2 Ti1_0 2.517174 1_565
Ni0_2 Ni1_6 2.544223 1_555
Ni0_2 Ni1_4 2.544223 1_565
Ni0_2 Ti0_3 2.546847 1_554
Ni0_2 Ti0_2 2.548112 1_555
Ni0_2 Ti0_6 2.574365 1_555
Ni0_2 Ni0_6 2.891687 1_455
Ni0_2 Ni0_6 2.891687 1_555
Ni0_3 Ti1_7 2.501146 1_555
Ni0_3 Ti1_5 2.501146 1_565
Ni0_3 Ti1_3 2.517174 1_555
Ni0_3 Ti1_1 2.517174 1_565
Ni0_3 Ni1_7 2.544223 1_555
Ni0_3 Ni1_5 2.544223 1_565
Ni0_3 Ti0_2 2.546847 1_555
Ni0_3 Ti0_3 2.548112 1_555
Ni0_3 Ti0_7 2.574365 1_555
Ni0_3 Ni0_7 2.891687 1_455
Ni0_3 Ni0_7 2.891687 1_555
Ni0_4 Ti1_0 2.501146 1_655
Ni0_4 Ti1_2 2.501146 1_655
Ni0_4 Ti1_4 2.517174 1_555
Ni0_4 Ti1_6 2.517174 1_555
Ni0_4 Ni1_0 2.544223 1_655
Ni0_4 Ni1_2 2.544223 1_655
Ni0_4 Ti0_5 2.546847 1_554
Ni0_4 Ti0_4 2.548112 1_555
Ni0_4 Ti0_0 2.574365 1_655
Ni0_5 Ti1_1 2.501146 1_655
Ni0_5 Ti1_3 2.501146 1_655
Ni0_5 Ti1_5 2.517174 1_555
Ni0_5 Ti1_7 2.517174 1_555
Ni0_5 Ni1_1 2.544223 1_655
Ni0_5 Ni1_3 2.544223 1_655
Ni0_5 Ti0_4 2.546847 1_555
Ni0_5 Ti0_5 2.548112 1_555
Ni0_5 Ti0_1 2.574365 1_655
Ni0_6 Ti1_2 2.501146 1_655
Ni0_6 Ti1_0 2.501146 1_665
Ni0_6 Ti1_6 2.517174 1_555
Ni0_6 Ti1_4 2.517174 1_565
Ni0_6 Ni1_2 2.544223 1_655
Ni0_6 Ni1_0 2.544223 1_665
Ni0_6 Ti0_7 2.546847 1_554
Ni0_6 Ti0_6 2.548112 1_555
Ni0_6 Ti0_2 2.574365 1_655
Ni0_7 Ti1_3 2.501146 1_655
Ni0_7 Ti1_1 2.501146 1_665
Ni0_7 Ti1_7 2.517174 1_555
Ni0_7 Ti1_5 2.517174 1_565
Ni0_7 Ni1_3 2.544223 1_655
Ni0_7 Ni1_1 2.544223 1_665
Ni0_7 Ti0_6 2.546847 1_555
Ni0_7 Ti0_7 2.548112 1_555
Ni0_7 Ti0_3 2.574365 1_655
Ni1_0 Ti0_4 2.501146 1_455
Ni1_0 Ti0_6 2.501146 1_445
Ni1_0 Ti0_0 2.517174 1_555
Ni1_0 Ti0_2 2.517174 1_545
Ni1_0 Ti1_1 2.546847 1_555
Ni1_0 Ti1_0 2.548112 1_555
Ni1_0 Ti1_4 2.574365 1_455
Ni1_0 Ni1_4 2.891687 1_455
Ni1_0 Ni1_4 2.891687 1_555
Ni1_1 Ti0_5 2.501146 1_455
Ni1_1 Ti0_7 2.501146 1_445
Ni1_1 Ti0_1 2.517174 1_555
Ni1_1 Ti0_3 2.517174 1_545
Ni1_1 Ti1_0 2.546847 1_556
Ni1_1 Ti1_1 2.548112 1_555
Ni1_1 Ti1_5 2.574365 1_455
Ni1_1 Ni1_5 2.891687 1_555
Ni1_1 Ni1_5 2.891687 1_455
Ni1_2 Ti0_6 2.501146 1_455
Ni1_2 Ti0_4 2.501146 1_455
Ni1_2 Ti0_2 2.517174 1_555
Ni1_2 Ti0_0 2.517174 1_555
Ni1_2 Ti1_3 2.546847 1_555
Ni1_2 Ti1_2 2.548112 1_555
Ni1_2 Ti1_6 2.574365 1_455
Ni1_2 Ni1_6 2.891687 1_455
Ni1_2 Ni1_6 2.891687 1_555
Ni1_3 Ti0_7 2.501146 1_455
Ni1_3 Ti0_5 2.501146 1_455
Ni1_3 Ti0_3 2.517174 1_555
Ni1_3 Ti0_1 2.517174 1_555
Ni1_3 Ti1_2 2.546847 1_556
Ni1_3 Ti1_3 2.548112 1_555
Ni1_3 Ti1_7 2.574365 1_455
Ni1_3 Ni1_7 2.891687 1_555
Ni1_3 Ni1_7 2.891687 1_455
Ni1_4 Ti0_0 2.501146 1_555
Ni1_4 Ti0_2 2.501146 1_545
Ni1_4 Ti0_4 2.517174 1_555
Ni1_4 Ti0_6 2.517174 1_545
Ni1_4 Ti1_5 2.546847 1_555
Ni1_4 Ti1_4 2.548112 1_555
Ni1_4 Ti1_0 2.574365 1_555
Ni1_5 Ti0_1 2.501146 1_555
Ni1_5 Ti0_3 2.501146 1_545
Ni1_5 Ti0_5 2.517174 1_555
Ni1_5 Ti0_7 2.517174 1_545
Ni1_5 Ti1_4 2.546847 1_556
Ni1_5 Ti1_5 2.548112 1_555
Ni1_5 Ti1_1 2.574365 1_555
Ni1_6 Ti0_2 2.501146 1_555
Ni1_6 Ti0_0 2.501146 1_555
Ni1_6 Ti0_6 2.517174 1_555
Ni1_6 Ti0_4 2.517174 1_555
Ni1_6 Ti1_7 2.546847 1_555
Ni1_6 Ti1_6 2.548112 1_555
Ni1_6 Ti1_2 2.574365 1_555
Ni1_7 Ti0_3 2.501146 1_555
Ni1_7 Ti0_1 2.501146 1_555
Ni1_7 Ti0_7 2.517174 1_555
Ni1_7 Ti0_5 2.517174 1_555
Ni1_7 Ti1_6 2.546847 1_556
Ni1_7 Ti1_7 2.548112 1_555
Ni1_7 Ti1_3 2.574365 1_555
