# generated using pymatgen
data_Al4Zn3Cr2O12
_symmetry_space_group_name_H-M   'P 1'
_cell_length_a   10.13782145
_cell_length_b   10.13782145
_cell_length_c   8.28029800
_cell_angle_alpha   66.50495960
_cell_angle_beta   66.50495960
_cell_angle_gamma   33.32929849
_symmetry_Int_Tables_number   1
_chemical_formula_structural   Al4Zn3Cr2O12
_chemical_formula_sum   'Al8 Zn6 Cr4 O24'
_cell_volume   425.17647306
_cell_formula_units_Z   2
loop_
 _symmetry_equiv_pos_site_id
 _symmetry_equiv_pos_as_xyz
  1  'x, y, z'
loop_
 _atom_site_type_symbol
 _atom_site_label
 _atom_site_symmetry_multiplicity
 _atom_site_fract_x
 _atom_site_fract_y
 _atom_site_fract_z
 _atom_site_occupancy
  Al  Al0  1  0.66697900  0.66697900  0.83337500  1
  Al  Al1  1  0.33302100  0.33302100  0.16662500  1
  Al  Al2  1  0.16665500  0.66477500  0.33258400  1
  Al  Al3  1  0.83334500  0.33522500  0.66741600  1
  Al  Al4  1  0.50000000  0.00000000  0.00000000  1
  Al  Al5  1  0.66477500  0.16665500  0.33258400  1
  Al  Al6  1  0.33522500  0.83334500  0.66741600  1
  Al  Al7  1  0.00000000  0.50000000  0.00000000  1
  Zn  Zn0  1  0.41589800  0.41589800  0.71246000  1
  Zn  Zn1  1  0.08347300  0.08347300  0.04101500  1
  Zn  Zn2  1  0.74931500  0.74931500  0.37639300  1
  Zn  Zn3  1  0.91652700  0.91652700  0.95898500  1
  Zn  Zn4  1  0.58410200  0.58410200  0.28754000  1
  Zn  Zn5  1  0.25068500  0.25068500  0.62360700  1
  Cr  Cr0  1  0.83238800  0.83238800  0.66679700  1
  Cr  Cr1  1  0.50000000  0.50000000  0.00000000  1
  Cr  Cr2  1  0.16761200  0.16761200  0.33320300  1
  Cr  Cr3  1  0.00000000  0.00000000  0.50000000  1
  O  O0  1  0.98912900  0.98912900  0.26652400  1
  O  O1  1  0.65802000  0.65802000  0.60753800  1
  O  O2  1  0.32385900  0.32385900  0.94032800  1
  O  O3  1  0.84412300  0.84412300  0.41287100  1
  O  O4  1  0.51142300  0.51142300  0.74621200  1
  O  O5  1  0.17783000  0.17783000  0.08011400  1
  O  O6  1  0.68344000  0.14912700  0.56363700  1
  O  O7  1  0.36216600  0.81140200  0.89691800  1
  O  O8  1  0.02729700  0.47921800  0.22952900  1
  O  O9  1  0.14912700  0.68344000  0.56363700  1
  O  O10  1  0.81140200  0.36216600  0.89691800  1
  O  O11  1  0.47921800  0.02729700  0.22952900  1
  O  O12  1  0.34198000  0.34198000  0.39246200  1
  O  O13  1  0.01087100  0.01087100  0.73347600  1
  O  O14  1  0.67614100  0.67614100  0.05967200  1
  O  O15  1  0.48857700  0.48857700  0.25378800  1
  O  O16  1  0.15587700  0.15587700  0.58712900  1
  O  O17  1  0.82217000  0.82217000  0.91988600  1
  O  O18  1  0.63783400  0.18859800  0.10308200  1
  O  O19  1  0.31656000  0.85087300  0.43636300  1
  O  O20  1  0.97270300  0.52078200  0.77047100  1
  O  O21  1  0.18859800  0.63783400  0.10308200  1
  O  O22  1  0.85087300  0.31656000  0.43636300  1
  O  O23  1  0.52078200  0.97270300  0.77047100  1
loop_
_geom_bond_atom_site_label_1
_geom_bond_atom_site_label_2
_geom_bond_distance
_geom_bond_site_symmetry_2
Al0 O23 1.930344 1_555
Al0 O20 1.930344 1_555
Al0 O7 1.930509 1_555
Al0 O10 1.930509 1_555
Al0 O1 1.948850 1_555
Al0 O14 1.954576 1_556
Al1 O11 1.930344 1_555
Al1 O8 1.930344 1_555
Al1 O18 1.930509 1_555
Al1 O21 1.930509 1_555
Al1 O12 1.948850 1_555
Al1 O2 1.954576 1_554
Al2 O9 1.920694 1_555
Al2 O21 1.926302 1_555
Al2 O3 1.932669 1_455
Al2 O15 1.938370 1_555
Al2 O12 1.950183 1_555
Al2 O0 1.952529 1_455
Al3 O22 1.920694 1_555
Al3 O10 1.926302 1_555
Al3 O16 1.932669 1_655
Al3 O4 1.938370 1_555
Al3 O1 1.950183 1_555
Al3 O13 1.952529 1_655
Al4 O11 1.932819 1_555
Al4 O23 1.932819 1_544
Al4 O17 1.934993 1_544
Al4 O5 1.934993 1_555
Al4 O2 1.955845 1_554
Al4 O14 1.955845 1_545
Al5 O6 1.920694 1_555
Al5 O18 1.926302 1_555
Al5 O3 1.932669 1_545
Al5 O15 1.938370 1_555
Al5 O12 1.950183 1_555
Al5 O0 1.952529 1_545
Al6 O19 1.920694 1_555
Al6 O7 1.926302 1_555
Al6 O16 1.932669 1_565
Al6 O4 1.938370 1_555
Al6 O1 1.950183 1_555
Al6 O13 1.952529 1_565
Al7 O8 1.932819 1_555
Al7 O20 1.932819 1_454
Al7 O17 1.934993 1_454
Al7 O5 1.934993 1_555
Al7 O2 1.955845 1_554
Al7 O14 1.955845 1_455
Cr0 O20 2.010472 1_555
Cr0 O23 2.010472 1_555
Cr0 O6 2.014842 1_565
Cr0 O9 2.014842 1_655
Cr0 O3 2.018396 1_555
Cr0 O17 2.021131 1_555
Cr1 O15 2.019210 1_555
Cr1 O4 2.019210 1_554
Cr1 O7 2.019480 1_554
Cr1 O10 2.019480 1_554
Cr1 O18 2.019480 1_555
Cr1 O21 2.019480 1_555
Cr2 O11 2.010472 1_555
Cr2 O8 2.010472 1_555
Cr2 O19 2.014842 1_545
Cr2 O22 2.014842 1_455
Cr2 O16 2.018396 1_555
Cr2 O5 2.021131 1_555
Cr3 O6 2.010390 1_455
Cr3 O9 2.010390 1_545
Cr3 O19 2.010390 1_545
Cr3 O22 2.010390 1_455
Cr3 O0 2.030224 1_445
Cr3 O13 2.030224 1_555
O0 Zn1 1.999236 1_665
O1 Zn2 1.995749 1_555
O2 Zn0 1.987134 1_555
O3 Zn2 1.986333 1_555
O4 Zn0 1.988096 1_555
O5 Zn1 1.989426 1_555
O6 Zn0 1.980878 1_555
O7 Zn1 1.981849 1_566
O8 Zn2 1.986473 1_455
O9 Zn0 1.980878 1_555
O10 Zn1 1.981849 1_656
O11 Zn2 1.986473 1_545
O12 Zn5 1.995749 1_555
O13 Zn3 1.999236 1_445
O14 Zn4 1.987134 1_555
O15 Zn4 1.988096 1_555
O16 Zn5 1.986333 1_555
O17 Zn3 1.989426 1_555
O18 Zn3 1.981849 1_544
O19 Zn4 1.980878 1_555
O20 Zn5 1.986473 1_655
O21 Zn3 1.981849 1_454
O22 Zn4 1.980878 1_555
O23 Zn5 1.986473 1_565
