# generated using pymatgen
data_YBiO3
_symmetry_space_group_name_H-M   'P 1'
_cell_length_a   6.61361336
_cell_length_b   6.61361336
_cell_length_c   13.08213500
_cell_angle_alpha   90.00000000
_cell_angle_beta   90.00000000
_cell_angle_gamma   119.99999363
_symmetry_Int_Tables_number   1
_chemical_formula_structural   YBiO3
_chemical_formula_sum   'Y6 Bi6 O18'
_cell_volume   495.54932667
_cell_formula_units_Z   6
loop_
 _symmetry_equiv_pos_site_id
 _symmetry_equiv_pos_as_xyz
  1  'x, y, z'
loop_
 _atom_site_type_symbol
 _atom_site_label
 _atom_site_symmetry_multiplicity
 _atom_site_fract_x
 _atom_site_fract_y
 _atom_site_fract_z
 _atom_site_occupancy
  Y  Y0  1  0.66666700  0.33333300  0.23577200  1
  Y  Y1  1  0.33333300  0.66666700  0.73577200  1
  Y  Y2  1  0.66666700  0.33333300  0.73577200  1
  Y  Y3  1  0.33333300  0.66666700  0.23577200  1
  Y  Y4  1  0.00000000  0.00000000  0.76391700  1
  Y  Y5  1  0.00000000  0.00000000  0.26391700  1
  Bi  Bi0  1  0.66703600  0.00000000  0.49984000  1
  Bi  Bi1  1  0.66703600  0.66703600  0.99984000  1
  Bi  Bi2  1  0.00000000  0.33296400  0.99984000  1
  Bi  Bi3  1  0.00000000  0.66703600  0.49984000  1
  Bi  Bi4  1  0.33296400  0.33296400  0.49984000  1
  Bi  Bi5  1  0.33296400  0.00000000  0.99984000  1
  O  O0  1  0.66666700  0.33333300  0.04185800  1
  O  O1  1  0.33333300  0.66666700  0.54185800  1
  O  O2  1  0.66666700  0.33333300  0.54185800  1
  O  O3  1  0.33333300  0.66666700  0.04185800  1
  O  O4  1  0.00000000  0.00000000  0.95216900  1
  O  O5  1  0.00000000  0.00000000  0.45216900  1
  O  O6  1  0.37478900  0.00000000  0.82318300  1
  O  O7  1  0.37478900  0.37478900  0.32318300  1
  O  O8  1  0.00000000  0.62521100  0.32318300  1
  O  O9  1  0.00000000  0.37478900  0.82318300  1
  O  O10  1  0.62521100  0.62521100  0.82318300  1
  O  O11  1  0.62521100  0.00000000  0.32318300  1
  O  O12  1  0.29995200  0.00000000  0.17819600  1
  O  O13  1  0.29995200  0.29995200  0.67819600  1
  O  O14  1  0.00000000  0.70004800  0.67819600  1
  O  O15  1  0.00000000  0.29995200  0.17819600  1
  O  O16  1  0.70004800  0.70004800  0.17819600  1
  O  O17  1  0.70004800  0.00000000  0.67819600  1
loop_
_geom_bond_atom_site_label_1
_geom_bond_atom_site_label_2
_geom_bond_distance
_geom_bond_site_symmetry_2
Bi0 O2 2.273217 1_555
Bi0 O1 2.273221 1_545
Bi0 O5 2.288700 1_655
Bi0 O11 2.327546 1_555
Bi0 O17 2.343470 1_555
Bi1 O3 2.273224 1_556
Bi1 O0 2.273224 1_556
Bi1 O4 2.288700 1_665
Bi1 O10 2.327546 1_555
Bi1 O16 2.343470 1_556
Bi2 O0 2.273217 1_456
Bi2 O3 2.273221 1_556
Bi2 O4 2.288700 1_555
Bi2 O9 2.327546 1_555
Bi2 O15 2.343470 1_556
Bi3 O1 2.273217 1_555
Bi3 O2 2.273221 1_455
Bi3 O5 2.288700 1_565
Bi3 O8 2.327546 1_555
Bi3 O14 2.343470 1_555
Bi4 O2 2.273224 1_555
Bi4 O1 2.273224 1_555
Bi4 O5 2.288700 1_555
Bi4 O7 2.327546 1_555
Bi4 O13 2.343470 1_555
Bi5 O3 2.273217 1_546
Bi5 O0 2.273221 1_556
Bi5 O4 2.288700 1_555
Bi5 O6 2.327546 1_555
Bi5 O12 2.343470 1_556
O0 Y0 2.536809 1_555
O1 Y1 2.536809 1_555
O2 Y2 2.536809 1_555
O3 Y3 2.536809 1_555
O4 Y4 2.462738 1_555
O5 Y5 2.462738 1_555
O6 Y1 2.374524 1_545
O6 Y2 2.374527 1_555
O6 Y4 2.597139 1_555
O7 Y3 2.374530 1_555
O7 Y0 2.374530 1_555
O7 Y5 2.597139 1_555
O8 Y3 2.374524 1_555
O8 Y0 2.374527 1_455
O8 Y5 2.597139 1_565
O9 Y2 2.374524 1_455
O9 Y1 2.374527 1_555
O9 Y4 2.597139 1_555
O10 Y2 2.374530 1_555
O10 Y1 2.374530 1_555
O10 Y4 2.597139 1_665
O11 Y0 2.374524 1_555
O11 Y3 2.374527 1_545
O11 Y5 2.597139 1_655
O12 Y5 2.278793 1_555
O12 Y3 2.441873 1_545
O12 Y0 2.441877 1_555
O13 Y4 2.278793 1_555
O13 Y1 2.441880 1_555
O13 Y2 2.441880 1_555
O14 Y4 2.278793 1_565
O14 Y1 2.441873 1_555
O14 Y2 2.441877 1_455
O15 Y5 2.278793 1_555
O15 Y0 2.441873 1_455
O15 Y3 2.441877 1_555
O16 Y5 2.278793 1_665
O16 Y3 2.441880 1_555
O16 Y0 2.441880 1_555
O17 Y4 2.278793 1_655
O17 Y2 2.441873 1_555
O17 Y1 2.441877 1_545
