# generated using pymatgen
data_Bi2W2O9
_symmetry_space_group_name_H-M   'P 1'
_cell_length_a   5.45266100
_cell_length_b   5.45315000
_cell_length_c   24.55871800
_cell_angle_alpha   90.00000000
_cell_angle_beta   90.00000000
_cell_angle_gamma   90.00000000
_symmetry_Int_Tables_number   1
_chemical_formula_structural   Bi2W2O9
_chemical_formula_sum   'Bi8 W8 O36'
_cell_volume   730.23330062
_cell_formula_units_Z   4
loop_
 _symmetry_equiv_pos_site_id
 _symmetry_equiv_pos_as_xyz
  1  'x, y, z'
loop_
 _atom_site_type_symbol
 _atom_site_label
 _atom_site_symmetry_multiplicity
 _atom_site_fract_x
 _atom_site_fract_y
 _atom_site_fract_z
 _atom_site_occupancy
  Bi  Bi0  1  0.64419300  0.02180200  0.28989500  1
  Bi  Bi1  1  0.35580700  0.97819800  0.78989500  1
  Bi  Bi2  1  0.85580700  0.52180200  0.78989500  1
  Bi  Bi3  1  0.14419300  0.47819800  0.28989500  1
  Bi  Bi4  1  0.64209300  0.52177400  0.39570400  1
  Bi  Bi5  1  0.35790700  0.47822600  0.89570400  1
  Bi  Bi6  1  0.85790700  0.02177400  0.89570400  1
  Bi  Bi7  1  0.14209300  0.97822600  0.39570400  1
  W  W0  1  0.68007200  0.50145200  0.17067700  1
  W  W1  1  0.31992800  0.49854800  0.67067700  1
  W  W2  1  0.81992800  0.00145200  0.67067700  1
  W  W3  1  0.18007200  0.99854800  0.17067700  1
  W  W4  1  0.30706400  0.99848200  0.01679300  1
  W  W5  1  0.69293600  0.00151800  0.51679300  1
  W  W6  1  0.19293600  0.49848200  0.51679300  1
  W  W7  1  0.80706400  0.50151800  0.01679300  1
  O  O0  1  0.41387000  0.75855300  0.34247600  1
  O  O1  1  0.58613000  0.24144700  0.84247600  1
  O  O2  1  0.08613000  0.25855300  0.84247600  1
  O  O3  1  0.91387000  0.74144700  0.34247600  1
  O  O4  1  0.41358800  0.25881800  0.34357600  1
  O  O5  1  0.58641200  0.74118200  0.84357600  1
  O  O6  1  0.08641200  0.75881800  0.84357600  1
  O  O7  1  0.91358800  0.24118200  0.34357600  1
  O  O8  1  0.24289200  0.94495700  0.09391700  1
  O  O9  1  0.75710800  0.05504300  0.59391700  1
  O  O10  1  0.25710800  0.44495700  0.59391700  1
  O  O11  1  0.74289200  0.55504300  0.09391700  1
  O  O12  1  0.41404500  0.29569100  0.16121000  1
  O  O13  1  0.58595500  0.70430900  0.66121000  1
  O  O14  1  0.08595500  0.79569100  0.66121000  1
  O  O15  1  0.91404500  0.20430900  0.16121000  1
  O  O16  1  0.57002500  0.20818500  0.02709500  1
  O  O17  1  0.42997500  0.79181500  0.52709500  1
  O  O18  1  0.92997500  0.70818500  0.52709500  1
  O  O19  1  0.07002500  0.29181500  0.02709500  1
  O  O20  1  0.27320600  0.06757200  0.94111700  1
  O  O21  1  0.72679400  0.93242800  0.44111700  1
  O  O22  1  0.22679400  0.56757200  0.44111700  1
  O  O23  1  0.77320600  0.43242800  0.94111700  1
  O  O24  1  0.49249000  0.78719300  0.18179400  1
  O  O25  1  0.50751000  0.21280700  0.68179400  1
  O  O26  1  0.00751000  0.28719300  0.68179400  1
  O  O27  1  0.99249000  0.71280700  0.18179400  1
  O  O28  1  0.49886700  0.71594100  0.00636700  1
  O  O29  1  0.50113300  0.28405900  0.50636700  1
  O  O30  1  0.00113300  0.21594100  0.50636700  1
  O  O31  1  0.99886700  0.78405900  0.00636700  1
  O  O32  1  0.71712900  0.43165300  0.24637900  1
  O  O33  1  0.28287100  0.56834700  0.74637900  1
  O  O34  1  0.78287100  0.93165300  0.74637900  1
  O  O35  1  0.21712900  0.06834700  0.24637900  1
loop_
_geom_bond_atom_site_label_1
_geom_bond_atom_site_label_2
_geom_bond_distance
_geom_bond_site_symmetry_2
Bi0 O4 2.233743 1_555
Bi0 O0 2.303366 1_545
Bi0 O7 2.308007 1_555
Bi0 O3 2.483353 1_545
Bi0 O32 2.509065 1_555
Bi0 O35 2.574700 1_555
Bi1 O5 2.233743 1_555
Bi1 O1 2.303366 1_565
Bi1 O6 2.308007 1_555
Bi1 O2 2.483353 1_565
Bi1 O33 2.509065 1_555
Bi1 O34 2.574700 1_555
Bi2 O6 2.233743 1_655
Bi2 O2 2.303366 1_655
Bi2 O5 2.308007 1_555
Bi2 O1 2.483353 1_555
Bi2 O34 2.509065 1_555
Bi2 O33 2.574700 1_655
Bi3 O7 2.233743 1_455
Bi3 O3 2.303366 1_455
Bi3 O4 2.308007 1_555
Bi3 O0 2.483353 1_555
Bi3 O35 2.509065 1_555
Bi3 O32 2.574700 1_455
Bi4 O0 2.219136 1_555
Bi4 O4 2.290742 1_555
Bi4 O3 2.310810 1_555
Bi4 O7 2.484278 1_555
Bi4 O22 2.536557 1_555
Bi4 O21 2.543990 1_555
Bi5 O1 2.219136 1_555
Bi5 O5 2.290742 1_555
Bi5 O2 2.310810 1_555
Bi5 O6 2.484278 1_555
Bi5 O23 2.536557 1_555
Bi5 O20 2.543990 1_555
Bi6 O2 2.219136 1_655
Bi6 O6 2.290742 1_645
Bi6 O1 2.310810 1_555
Bi6 O5 2.484278 1_545
Bi6 O20 2.536557 1_655
Bi6 O23 2.543990 1_555
Bi7 O3 2.219136 1_455
Bi7 O7 2.290742 1_465
Bi7 O0 2.310810 1_555
Bi7 O4 2.484278 1_565
Bi7 O21 2.536557 1_455
Bi7 O22 2.543990 1_555
O8 W3 1.938154 1_555
O8 W4 1.948106 1_555
O9 W2 1.938154 1_555
O9 W5 1.948106 1_555
O10 W1 1.938154 1_555
O10 W6 1.948106 1_555
O11 W0 1.938154 1_555
O11 W7 1.948106 1_555
O12 W0 1.848554 1_555
O12 W3 2.075390 1_545
O13 W1 1.848554 1_555
O13 W2 2.075390 1_565
O14 W2 1.848554 1_465
O14 W1 2.075390 1_555
O15 W3 1.848554 1_645
O15 W0 2.075390 1_555
O16 W4 1.851375 1_545
O16 W7 2.072012 1_555
O17 W5 1.851375 1_565
O17 W6 2.072012 1_555
O18 W6 1.851375 1_655
O18 W5 2.072012 1_565
O19 W7 1.851375 1_455
O19 W4 2.072012 1_545
O20 W4 1.905275 1_546
O21 W5 1.905275 1_565
O22 W6 1.905275 1_555
O23 W7 1.905275 1_556
O24 W0 1.883787 1_555
O24 W3 2.074815 1_555
O25 W1 1.883787 1_555
O25 W2 2.074815 1_555
O26 W2 1.883787 1_455
O26 W1 2.074815 1_555
O27 W3 1.883787 1_655
O27 W0 2.074815 1_555
O28 W4 1.879684 1_555
O28 W7 2.063211 1_555
O29 W5 1.879684 1_555
O29 W6 2.063211 1_555
O30 W6 1.879684 1_555
O30 W5 2.063211 1_455
O31 W7 1.879684 1_555
O31 W4 2.063211 1_655
O32 W0 1.908434 1_555
O33 W1 1.908434 1_555
O34 W2 1.908434 1_565
O35 W3 1.908434 1_545
