# generated using pymatgen
data_BaDyNbSnO6
_symmetry_space_group_name_H-M   'P 1'
_cell_length_a   5.93729119
_cell_length_b   5.97265795
_cell_length_c   8.49129924
_cell_angle_alpha   89.61514953
_cell_angle_beta   89.88493641
_cell_angle_gamma   90.69531238
_symmetry_Int_Tables_number   1
_chemical_formula_structural   BaDyNbSnO6
_chemical_formula_sum   'Ba2 Dy2 Nb2 Sn2 O12'
_cell_volume   301.08381678
_cell_formula_units_Z   2
loop_
 _symmetry_equiv_pos_site_id
 _symmetry_equiv_pos_as_xyz
  1  'x, y, z'
loop_
 _atom_site_type_symbol
 _atom_site_label
 _atom_site_symmetry_multiplicity
 _atom_site_fract_x
 _atom_site_fract_y
 _atom_site_fract_z
 _atom_site_occupancy
  Ba  Ba0  1  0.50422662  0.51880892  0.25086861  1
  Ba  Ba1  1  0.49577338  0.48119108  0.74913139  1
  Dy  Dy0  1  -0.00000000  0.50000000  -0.00000000  1
  Dy  Dy1  1  0.50000000  0.00000000  0.50000000  1
  Nb  Nb0  1  0.50000000  0.00000000  -0.00000000  1
  Nb  Nb1  1  -0.00000000  0.50000000  0.50000000  1
  Sn  Sn0  1  0.00341253  0.01368434  0.25279903  1
  Sn  Sn1  1  0.99658747  0.98631566  0.74720097  1
  O  O0  1  0.23221088  0.20122242  0.94926064  1
  O  O1  1  0.27333803  0.69872178  0.51969611  1
  O  O2  1  0.76778912  0.79877758  0.05073936  1
  O  O3  1  0.72666197  0.30127822  0.48030389  1
  O  O4  1  0.30288169  0.72912164  0.97342755  1
  O  O5  1  0.19646317  0.22371851  0.54348800  1
  O  O6  1  0.69711831  0.27087836  0.02657245  1
  O  O7  1  0.80353683  0.77628149  0.45651200  1
  O  O8  1  0.40810799  0.00343835  0.23595177  1
  O  O9  1  0.05369716  0.47108142  0.26437196  1
  O  O10  1  0.59189201  0.99656165  0.76404823  1
  O  O11  1  0.94630284  0.52891858  0.73562804  1
loop_
_geom_bond_atom_site_label_1
_geom_bond_atom_site_label_2
_geom_bond_distance
_geom_bond_site_symmetry_2
Ba0 O6 2.683663 1_555
Ba0 O9 2.688764 1_555
Ba0 O3 2.691773 1_555
Ba0 O2 2.832015 1_555
Ba0 O1 2.881101 1_555
Ba0 O7 2.924761 1_555
Ba0 O4 2.926585 1_554
Ba0 O8 2.958963 1_565
Ba0 O8 3.127222 1_555
Ba0 O9 3.280408 1_655
Ba1 O4 2.683663 1_555
Ba1 O11 2.688764 1_555
Ba1 O1 2.691773 1_555
Ba1 O0 2.832015 1_555
Ba1 O3 2.881101 1_555
Ba1 O5 2.924761 1_555
Ba1 O6 2.926585 1_556
Ba1 O10 2.958963 1_545
Ba1 O10 3.127222 1_555
Ba1 O11 3.280408 1_455
Dy0 O6 2.256540 1_455
Dy0 O4 2.256540 1_554
Dy0 O11 2.273737 1_454
Dy0 O9 2.273737 1_555
Dy0 O2 2.310526 1_455
Dy0 O0 2.310526 1_554
Dy1 O3 2.239033 1_555
Dy1 O1 2.239033 1_545
Dy1 O5 2.287368 1_555
Dy1 O7 2.287368 1_545
Dy1 O8 2.308620 1_555
Dy1 O10 2.308620 1_545
Nb0 O6 1.999530 1_555
Nb0 O4 1.999530 1_544
Nb0 O2 2.049418 1_545
Nb0 O0 2.049418 1_554
Nb0 O8 2.075737 1_555
Nb0 O10 2.075737 1_544
Nb1 O1 2.006855 1_555
Nb1 O3 2.006855 1_455
Nb1 O9 2.034219 1_555
Nb1 O11 2.034219 1_455
Nb1 O5 2.064023 1_555
Nb1 O7 2.064023 1_455
O0 Sn1 2.558140 1_445
O2 Sn0 2.558140 1_665
O5 Sn1 2.515741 1_445
O7 Sn0 2.515741 1_665
O8 Sn0 2.408306 1_555
O9 Sn0 2.746974 1_555
O10 Sn1 2.408306 1_555
O11 Sn1 2.746974 1_555
