# generated using pymatgen
data_Hf6Al16Co7
_symmetry_space_group_name_H-M   'P 1'
_cell_length_a   8.48091287
_cell_length_b   8.48091287
_cell_length_c   8.48091287
_cell_angle_alpha   60.00000000
_cell_angle_beta   60.00000000
_cell_angle_gamma   60.00000000
_symmetry_Int_Tables_number   1
_chemical_formula_structural   Hf6Al16Co7
_chemical_formula_sum   'Hf6 Al16 Co7'
_cell_volume   431.33311945
_cell_formula_units_Z   1
loop_
 _symmetry_equiv_pos_site_id
 _symmetry_equiv_pos_as_xyz
  1  'x, y, z'
loop_
 _atom_site_type_symbol
 _atom_site_label
 _atom_site_symmetry_multiplicity
 _atom_site_fract_x
 _atom_site_fract_y
 _atom_site_fract_z
 _atom_site_occupancy
  Hf  Hf0  1  0.69179300  0.69179300  0.30820700  1
  Hf  Hf1  1  0.30820700  0.69179300  0.30820700  1
  Hf  Hf2  1  0.69179300  0.30820700  0.30820700  1
  Hf  Hf3  1  0.30820700  0.30820700  0.69179300  1
  Hf  Hf4  1  0.69179300  0.30820700  0.69179300  1
  Hf  Hf5  1  0.30820700  0.69179300  0.69179300  1
  Al  Al0  1  0.88156000  0.88156000  0.35531900  1
  Al  Al1  1  0.88156000  0.35531900  0.88156000  1
  Al  Al2  1  0.35531900  0.88156000  0.88156000  1
  Al  Al3  1  0.88156000  0.88156000  0.88156000  1
  Al  Al4  1  0.11844000  0.11844000  0.64468100  1
  Al  Al5  1  0.11844000  0.64468100  0.11844000  1
  Al  Al6  1  0.64468100  0.11844000  0.11844000  1
  Al  Al7  1  0.11844000  0.11844000  0.11844000  1
  Al  Al8  1  0.66469300  0.66469300  0.00592100  1
  Al  Al9  1  0.66469300  0.00592100  0.66469300  1
  Al  Al10  1  0.00592100  0.66469300  0.66469300  1
  Al  Al11  1  0.66469300  0.66469300  0.66469300  1
  Al  Al12  1  0.33530700  0.33530700  0.99407900  1
  Al  Al13  1  0.33530700  0.99407900  0.33530700  1
  Al  Al14  1  0.99407900  0.33530700  0.33530700  1
  Al  Al15  1  0.33530700  0.33530700  0.33530700  1
  Co  Co0  1  0.00000000  0.00000000  0.00000000  1
  Co  Co1  1  0.00000000  0.00000000  0.50000000  1
  Co  Co2  1  0.50000000  0.00000000  0.50000000  1
  Co  Co3  1  0.00000000  0.50000000  0.50000000  1
  Co  Co4  1  0.50000000  0.50000000  0.00000000  1
  Co  Co5  1  0.00000000  0.50000000  0.00000000  1
  Co  Co6  1  0.50000000  0.00000000  0.00000000  1
loop_
_geom_bond_atom_site_label_1
_geom_bond_atom_site_label_2
_geom_bond_distance
_geom_bond_site_symmetry_2
Al0 Co0 2.460455 1_665
Al0 Co2 2.645287 1_565
Al0 Co3 2.645287 1_655
Al0 Co1 2.645293 1_665
Al0 Al11 2.716808 1_555
Al0 Al9 2.716812 1_565
Al0 Al10 2.716812 1_655
Al0 Al6 2.841085 1_565
Al0 Al5 2.841085 1_655
Al0 Al7 2.841097 1_665
Al0 Hf0 3.035820 1_555
Al0 Hf1 3.035827 1_655
Al0 Hf2 3.035827 1_565
Al1 Co0 2.460455 1_656
Al1 Co4 2.645287 1_556
Al1 Co3 2.645287 1_655
Al1 Co5 2.645293 1_656
Al1 Al11 2.716808 1_555
Al1 Al10 2.716812 1_655
Al1 Al8 2.716812 1_556
Al1 Al4 2.841085 1_655
Al1 Al6 2.841085 1_556
Al1 Al7 2.841097 1_656
Al1 Hf4 3.035820 1_555
Al1 Hf3 3.035827 1_655
Al1 Hf2 3.035827 1_556
Al2 Co0 2.460455 1_566
Al2 Co2 2.645287 1_565
Al2 Co4 2.645287 1_556
Al2 Co6 2.645293 1_566
Al2 Al9 2.716812 1_565
Al2 Al8 2.716812 1_556
Al2 Al4 2.841085 1_565
Al2 Al5 2.841085 1_556
Al2 Al7 2.841097 1_566
Al2 Hf5 3.035820 1_555
Al2 Hf1 3.035827 1_556
Al2 Hf3 3.035827 1_565
Al3 Co0 2.460462 1_666
Al3 Co6 2.645286 1_566
Al3 Co1 2.645286 1_665
Al3 Co5 2.645286 1_656
Al3 Al8 2.716805 1_556
Al3 Al9 2.716805 1_565
Al3 Al5 2.841097 1_656
Al3 Al4 2.841097 1_665
Al3 Al6 2.841097 1_566
Al3 Hf5 3.035825 1_655
Al3 Hf4 3.035825 1_565
Al3 Hf0 3.035825 1_556
Al4 Co0 2.460455 1_556
Al4 Co3 2.645287 1_555
Al4 Co2 2.645287 1_555
Al4 Co1 2.645293 1_555
Al4 Hf3 3.035820 1_555
Al4 Hf5 3.035827 1_545
Al4 Hf4 3.035827 1_455
Al5 Co0 2.460455 1_565
Al5 Co3 2.645287 1_555
Al5 Co4 2.645287 1_555
Al5 Co5 2.645293 1_555
Al5 Hf1 3.035820 1_555
Al5 Hf5 3.035827 1_554
Al5 Hf0 3.035827 1_455
Al6 Co0 2.460455 1_655
Al6 Co4 2.645287 1_555
Al6 Co2 2.645287 1_555
Al6 Co6 2.645293 1_555
Al6 Hf2 3.035820 1_555
Al6 Hf4 3.035827 1_554
Al6 Hf0 3.035827 1_545
Al7 Co0 2.460462 1_555
Al7 Co5 2.645286 1_555
Al7 Co6 2.645286 1_555
Al7 Co1 2.645286 1_555
Al7 Hf1 3.035825 1_545
Al7 Hf2 3.035825 1_455
Al7 Hf3 3.035825 1_554
Al8 Co4 2.448572 1_555
Al8 Co5 2.448572 1_655
Al8 Co6 2.448572 1_565
Al8 Hf1 2.812340 1_555
Al8 Hf2 2.812340 1_555
Al8 Hf0 2.812340 1_555
Al9 Co1 2.448572 1_655
Al9 Co2 2.448572 1_555
Al9 Co6 2.448572 1_556
Al9 Hf3 2.812340 1_555
Al9 Hf2 2.812340 1_555
Al9 Hf4 2.812340 1_555
Al10 Co1 2.448572 1_565
Al10 Co3 2.448572 1_555
Al10 Co5 2.448572 1_556
Al10 Al3 2.716805 1_455
Al10 Hf1 2.812340 1_555
Al10 Hf3 2.812340 1_555
Al10 Hf5 2.812340 1_555
Al11 Co2 2.448572 1_565
Al11 Co4 2.448572 1_556
Al11 Co3 2.448572 1_655
Al11 Al2 2.716808 1_555
Al11 Hf4 2.812340 1_555
Al11 Hf5 2.812340 1_555
Al11 Hf0 2.812340 1_555
Al12 Co4 2.448572 1_556
Al12 Co6 2.448572 1_556
Al12 Co5 2.448572 1_556
Al12 Al7 2.716805 1_556
Al12 Al6 2.716812 1_556
Al12 Al5 2.716812 1_556
Al12 Hf5 2.812340 1_555
Al12 Hf4 2.812340 1_555
Al12 Hf3 2.812340 1_555
Al13 Co2 2.448572 1_565
Al13 Co1 2.448572 1_565
Al13 Co6 2.448572 1_565
Al13 Al7 2.716805 1_565
Al13 Al6 2.716812 1_565
Al13 Al4 2.716812 1_565
Al13 Hf5 2.812340 1_555
Al13 Hf0 2.812340 1_555
Al13 Hf1 2.812340 1_555
Al14 Co3 2.448572 1_655
Al14 Co1 2.448572 1_655
Al14 Co5 2.448572 1_655
Al14 Al7 2.716805 1_655
Al14 Al5 2.716812 1_655
Al14 Al4 2.716812 1_655
Al14 Hf0 2.812340 1_555
Al14 Hf4 2.812340 1_555
Al14 Hf2 2.812340 1_555
Al15 Co4 2.448572 1_555
Al15 Co2 2.448572 1_555
Al15 Co3 2.448572 1_555
Al15 Al4 2.716808 1_555
Al15 Al5 2.716808 1_555
Al15 Al6 2.716808 1_555
Al15 Hf2 2.812340 1_555
Al15 Hf1 2.812340 1_555
Al15 Hf3 2.812340 1_555
Co1 Hf2 3.078654 1_455
Co1 Hf1 3.078654 1_545
Co1 Hf5 3.078654 1_545
Co1 Hf4 3.078654 1_455
Co2 Hf0 3.078654 1_545
Co2 Hf3 3.078654 1_555
Co2 Hf2 3.078654 1_555
Co2 Hf5 3.078654 1_545
Co3 Hf1 3.078654 1_555
Co3 Hf0 3.078654 1_455
Co3 Hf3 3.078654 1_555
Co3 Hf4 3.078654 1_455
Co4 Hf5 3.078654 1_554
Co4 Hf1 3.078654 1_555
Co4 Hf2 3.078654 1_555
Co4 Hf4 3.078654 1_554
Co5 Hf2 3.078654 1_455
Co5 Hf5 3.078654 1_554
Co5 Hf0 3.078654 1_455
Co5 Hf3 3.078654 1_554
Co6 Hf0 3.078654 1_545
Co6 Hf1 3.078654 1_545
Co6 Hf3 3.078654 1_554
Co6 Hf4 3.078654 1_554
