# generated using pymatgen
data_CoNiGe
_symmetry_space_group_name_H-M   'P 1'
_cell_length_a   4.01025414
_cell_length_b   4.01025414
_cell_length_c   5.03254300
_cell_angle_alpha   90.00000000
_cell_angle_beta   90.00000000
_cell_angle_gamma   120.00000229
_symmetry_Int_Tables_number   1
_chemical_formula_structural   CoNiGe
_chemical_formula_sum   'Co2 Ni2 Ge2'
_cell_volume   70.09094372
_cell_formula_units_Z   2
loop_
 _symmetry_equiv_pos_site_id
 _symmetry_equiv_pos_as_xyz
  1  'x, y, z'
loop_
 _atom_site_type_symbol
 _atom_site_label
 _atom_site_symmetry_multiplicity
 _atom_site_fract_x
 _atom_site_fract_y
 _atom_site_fract_z
 _atom_site_occupancy
  Co  Co0  1  0.33333300  0.66666700  0.75000000  1
  Co  Co1  1  0.66666700  0.33333300  0.25000000  1
  Ni  Ni0  1  0.00000000  0.00000000  0.50000000  1
  Ni  Ni1  1  0.00000000  0.00000000  0.00000000  1
  Ge  Ge0  1  0.33333300  0.66666700  0.25000000  1
  Ge  Ge1  1  0.66666700  0.33333300  0.75000000  1
loop_
_geom_bond_atom_site_label_1
_geom_bond_atom_site_label_2
_geom_bond_distance
_geom_bond_site_symmetry_2
Co0 Ge1 2.315319 1_455
Co0 Ge1 2.315319 1_565
Co0 Ge1 2.315326 1_555
Co0 Ge0 2.516272 1_556
Co0 Ge0 2.516272 1_555
Co0 Ni1 2.635073 1_566
Co0 Ni0 2.635073 1_565
Co0 Ni1 2.635076 1_556
Co0 Ni1 2.635076 1_666
Co0 Ni0 2.635076 1_555
Co0 Ni0 2.635076 1_665
Co1 Ge0 2.315319 1_545
Co1 Ge0 2.315319 1_655
Co1 Ge0 2.315326 1_555
Co1 Ge1 2.516272 1_555
Co1 Ge1 2.516272 1_554
Co1 Ni0 2.635073 1_655
Co1 Ni1 2.635073 1_655
Co1 Ni1 2.635076 1_665
Co1 Ni0 2.635076 1_555
Co1 Ni1 2.635076 1_555
Co1 Ni0 2.635076 1_665
Ni0 Ni1 2.516272 1_555
Ni0 Ni1 2.516272 1_556
Ge0 Ni0 2.635073 1_565
Ge0 Ni1 2.635073 1_565
Ge0 Ni1 2.635076 1_665
Ge0 Ni0 2.635076 1_555
Ge0 Ni1 2.635076 1_555
Ge0 Ni0 2.635076 1_665
Ge1 Ni0 2.635073 1_655
Ge1 Ni1 2.635073 1_656
Ge1 Ni1 2.635076 1_556
Ge1 Ni1 2.635076 1_666
Ge1 Ni0 2.635076 1_555
Ge1 Ni0 2.635076 1_665
