# generated using pymatgen
data_Sr2LaSbO6
_symmetry_space_group_name_H-M   'P 1'
_cell_length_a   5.98091500
_cell_length_b   6.10743500
_cell_length_c   10.33339059
_cell_angle_alpha   90.00000000
_cell_angle_beta   124.50349271
_cell_angle_gamma   90.00000000
_symmetry_Int_Tables_number   1
_chemical_formula_structural   Sr2LaSbO6
_chemical_formula_sum   'Sr4 La2 Sb2 O12'
_cell_volume   311.06048741
_cell_formula_units_Z   2
loop_
 _symmetry_equiv_pos_site_id
 _symmetry_equiv_pos_as_xyz
  1  'x, y, z'
loop_
 _atom_site_type_symbol
 _atom_site_label
 _atom_site_symmetry_multiplicity
 _atom_site_fract_x
 _atom_site_fract_y
 _atom_site_fract_z
 _atom_site_occupancy
  Sr  Sr0  1  0.23258800  0.45709900  0.74934000  1
  Sr  Sr1  1  0.23258800  0.04290100  0.24934000  1
  Sr  Sr2  1  0.76741200  0.54290100  0.25066000  1
  Sr  Sr3  1  0.76741200  0.95709900  0.75066000  1
  La  La0  1  0.50000000  0.50000000  0.50000000  1
  La  La1  1  0.50000000  0.00000000  0.00000000  1
  Sb  Sb0  1  0.00000000  0.00000000  0.50000000  1
  Sb  Sb1  1  0.00000000  0.50000000  0.00000000  1
  O  O0  1  0.78640600  0.19748000  0.55087500  1
  O  O1  1  0.78640600  0.30252000  0.05087500  1
  O  O2  1  0.21359400  0.80252000  0.44912500  1
  O  O3  1  0.21359400  0.69748000  0.94912500  1
  O  O4  1  0.12816600  0.23429600  0.93861500  1
  O  O5  1  0.12816600  0.26570400  0.43861500  1
  O  O6  1  0.87183400  0.76570400  0.06138500  1
  O  O7  1  0.87183400  0.73429600  0.56138500  1
  O  O8  1  0.32848000  0.03924400  0.72581200  1
  O  O9  1  0.32848000  0.46075600  0.22581200  1
  O  O10  1  0.67152000  0.96075600  0.27418800  1
  O  O11  1  0.67152000  0.53924400  0.77418800  1
loop_
_geom_bond_atom_site_label_1
_geom_bond_atom_site_label_2
_geom_bond_distance
_geom_bond_site_symmetry_2
La0 O2 2.367303 1_555
La0 O0 2.367303 1_555
La0 O7 2.407816 1_555
La0 O5 2.407816 1_555
La0 O11 2.417543 1_555
La0 O9 2.417543 1_555
La1 O1 2.367303 1_555
La1 O3 2.367303 1_544
La1 O6 2.407816 1_545
La1 O4 2.407816 1_554
La1 O8 2.417543 1_554
La1 O10 2.417543 1_545
O0 Sb0 2.030731 1_655
O0 Sr3 2.587650 1_545
O0 Sr0 2.764260 1_655
O0 Sr1 3.143081 1_555
O1 Sb1 2.030731 1_655
O1 Sr2 2.587650 1_555
O1 Sr1 2.764260 1_655
O1 Sr0 3.143081 1_554
O2 Sb0 2.030731 1_565
O2 Sr1 2.587650 1_565
O2 Sr2 2.764260 1_455
O2 Sr3 3.143081 1_555
O3 Sb1 2.030731 1_556
O3 Sr0 2.587650 1_555
O3 Sr3 2.764260 1_455
O3 Sr2 3.143081 1_556
O4 Sb1 2.043085 1_556
O4 Sr3 2.558543 1_445
O4 Sr0 2.729638 1_555
O4 Sr1 3.129559 1_556
O5 Sb0 2.043085 1_555
O5 Sr2 2.558543 1_455
O5 Sr1 2.729638 1_555
O5 Sr0 3.129559 1_555
O6 Sb1 2.043085 1_655
O6 Sr1 2.558543 1_665
O6 Sr2 2.729638 1_555
O6 Sr3 3.129559 1_554
O7 Sb0 2.043085 1_665
O7 Sr0 2.558543 1_655
O7 Sr3 2.729638 1_555
O7 Sr2 3.129559 1_555
O8 Sb0 2.041661 1_555
O8 Sr3 2.538844 1_545
O8 Sr0 2.656845 1_555
O9 Sb1 2.041661 1_555
O9 Sr2 2.538844 1_555
O9 Sr1 2.656845 1_555
O10 Sb0 2.041661 1_665
O10 Sr1 2.538844 1_565
O10 Sr2 2.656845 1_555
O11 Sb1 2.041661 1_656
O11 Sr0 2.538844 1_555
O11 Sr3 2.656845 1_555
