# generated using pymatgen
data_Tm(MnAl)6
_symmetry_space_group_name_H-M   'P 1'
_cell_length_a   6.59361860
_cell_length_b   6.59361860
_cell_length_c   6.59361860
_cell_angle_alpha   136.09990685
_cell_angle_beta   99.04441679
_cell_angle_gamma   97.02196986
_symmetry_Int_Tables_number   1
_chemical_formula_structural   Tm(MnAl)6
_chemical_formula_sum   'Tm1 Mn6 Al6'
_cell_volume   184.32583540
_cell_formula_units_Z   1
loop_
 _symmetry_equiv_pos_site_id
 _symmetry_equiv_pos_as_xyz
  1  'x, y, z'
loop_
 _atom_site_type_symbol
 _atom_site_label
 _atom_site_symmetry_multiplicity
 _atom_site_fract_x
 _atom_site_fract_y
 _atom_site_fract_z
 _atom_site_occupancy
  Tm  Tm0  1  0.00000000  0.00000000  0.00000000  1
  Mn  Mn0  1  0.50000000  0.00000000  0.00000000  1
  Mn  Mn1  1  0.50000000  0.50000000  0.50000000  1
  Mn  Mn2  1  0.00000000  0.00000000  0.50000000  1
  Mn  Mn3  1  0.00000000  0.50000000  0.00000000  1
  Mn  Mn4  1  0.23613300  0.50000000  0.73613300  1
  Mn  Mn5  1  0.76386700  0.50000000  0.26386700  1
  Al  Al0  1  0.34606500  0.34606500  0.00000000  1
  Al  Al1  1  0.65393500  0.65393500  0.00000000  1
  Al  Al2  1  0.66328300  0.00000000  0.66328300  1
  Al  Al3  1  0.33671700  0.00000000  0.33671700  1
  Al  Al4  1  0.80547700  0.30547700  0.50000000  1
  Al  Al5  1  0.19452300  0.69452300  0.50000000  1
loop_
_geom_bond_atom_site_label_1
_geom_bond_atom_site_label_2
_geom_bond_distance
_geom_bond_site_symmetry_2
Mn0 Mn1 2.464682 1_544
Mn0 Mn1 2.464682 1_555
Mn0 Mn4 2.510551 1_544
Mn0 Mn5 2.510551 1_555
Mn0 Tm0 3.296809 1_555
Mn0 Tm0 3.296809 1_655
Mn1 Mn4 2.510551 1_555
Mn1 Mn5 2.510551 1_555
Mn1 Tm0 3.296809 1_666
Mn1 Tm0 3.296809 1_555
Mn2 Mn3 2.464682 1_545
Mn2 Mn3 2.464682 1_556
Mn2 Mn5 2.510551 1_445
Mn2 Mn4 2.510551 1_555
Mn2 Tm0 3.296809 1_556
Mn2 Tm0 3.296809 1_555
Mn3 Mn5 2.510551 1_455
Mn3 Mn4 2.510551 1_554
Mn3 Tm0 3.296809 1_565
Mn3 Tm0 3.296809 1_555
Mn4 Tm0 3.187604 1_555
Mn4 Tm0 3.187604 1_566
Mn5 Tm0 3.187604 1_655
Mn5 Tm0 3.187604 1_666
Al0 Mn1 2.608290 1_555
Al0 Mn2 2.608290 1_554
Al0 Mn0 2.608290 1_555
Al0 Mn3 2.608290 1_555
Al0 Mn5 2.628858 1_555
Al0 Mn4 2.628858 1_554
Al0 Al1 2.689624 1_555
Al0 Al5 2.797746 1_555
Al0 Al5 2.797746 1_544
Al0 Tm0 3.023305 1_555
Al1 Mn1 2.608290 1_554
Al1 Mn2 2.608290 1_665
Al1 Mn3 2.608290 1_655
Al1 Mn0 2.608290 1_565
Al1 Mn5 2.628858 1_555
Al1 Mn4 2.628858 1_554
Al1 Al4 2.797746 1_554
Al1 Al4 2.797746 1_565
Al1 Tm0 3.023305 1_665
Al2 Mn5 2.610760 1_556
Al2 Mn5 2.610760 1_545
Al2 Mn0 2.615311 1_556
Al2 Mn3 2.615311 1_656
Al2 Mn1 2.615311 1_545
Al2 Mn2 2.615311 1_655
Al2 Al3 2.795581 1_555
Al2 Tm0 2.882479 1_656
Al2 Al5 3.012620 1_545
Al2 Al4 3.012620 1_555
Al3 Mn4 2.610760 1_544
Al3 Mn4 2.610760 1_555
Al3 Mn2 2.615311 1_555
Al3 Mn1 2.615311 1_555
Al3 Mn3 2.615311 1_545
Al3 Mn0 2.615311 1_555
Al3 Tm0 2.882479 1_555
Al3 Al5 3.012620 1_545
Al3 Al4 3.012620 1_555
Al4 Mn0 2.516691 1_555
Al4 Mn1 2.516691 1_555
Al4 Mn3 2.516691 1_656
Al4 Mn2 2.516691 1_655
Al4 Mn4 2.640855 1_655
Al4 Mn5 2.640855 1_555
Al4 Tm0 2.993762 1_655
Al4 Tm0 2.993762 1_666
Al5 Mn2 2.516691 1_565
Al5 Mn1 2.516691 1_555
Al5 Mn3 2.516691 1_555
Al5 Mn0 2.516691 1_566
Al5 Mn4 2.640855 1_555
Al5 Mn5 2.640855 1_455
Al5 Tm0 2.993762 1_566
Al5 Tm0 2.993762 1_555
