# generated using pymatgen
data_Ga2HgTe4
_symmetry_space_group_name_H-M   'P 1'
_cell_length_a   7.60167769
_cell_length_b   7.60167769
_cell_length_c   7.60167769
_cell_angle_alpha   133.54548434
_cell_angle_beta   133.54548434
_cell_angle_gamma   67.79878648
_symmetry_Int_Tables_number   1
_chemical_formula_structural   Ga2HgTe4
_chemical_formula_sum   'Ga2 Hg1 Te4'
_cell_volume   226.83173467
_cell_formula_units_Z   1
loop_
 _symmetry_equiv_pos_site_id
 _symmetry_equiv_pos_as_xyz
  1  'x, y, z'
loop_
 _atom_site_type_symbol
 _atom_site_label
 _atom_site_symmetry_multiplicity
 _atom_site_fract_x
 _atom_site_fract_y
 _atom_site_fract_z
 _atom_site_occupancy
  Ga  Ga0  1  0.75000000  0.25000000  0.50000000  1
  Ga  Ga1  1  0.25000000  0.75000000  0.50000000  1
  Hg  Hg0  1  -0.00000000  -0.00000000  -0.00000000  1
  Te  Te0  1  0.84563645  0.40242052  -0.00000000  1
  Te  Te1  1  0.40242052  0.84563645  -0.00000000  1
  Te  Te2  1  0.15436355  0.15436355  0.55678407  1
  Te  Te3  1  0.59757948  0.59757948  0.44321593  1
loop_
_geom_bond_atom_site_label_1
_geom_bond_atom_site_label_2
_geom_bond_distance
_geom_bond_site_symmetry_2
Ga0 Te1 2.660593 1_545
Ga0 Te2 2.660593 1_655
Ga0 Te0 2.660593 1_556
Ga0 Te3 2.660593 1_555
Ga1 Te3 2.660593 1_555
Ga1 Te0 2.660593 1_455
Ga1 Te1 2.660593 1_556
Ga1 Te2 2.660593 1_565
Hg0 Te2 2.832334 1_555
Hg0 Te3 2.832334 1_444
Hg0 Te0 2.832334 1_455
Hg0 Te1 2.832334 1_545
