# generated using pymatgen
data_Li7Mn2(CoO4)3
_symmetry_space_group_name_H-M   'P 1'
_cell_length_a   2.94884000
_cell_length_b   8.21909400
_cell_length_c   9.85901187
_cell_angle_alpha   66.37724864
_cell_angle_beta   90.00000000
_cell_angle_gamma   90.00000000
_symmetry_Int_Tables_number   1
_chemical_formula_structural   Li7Mn2(CoO4)3
_chemical_formula_sum   'Li7 Mn2 Co3 O12'
_cell_volume   218.92763209
_cell_formula_units_Z   1
loop_
 _symmetry_equiv_pos_site_id
 _symmetry_equiv_pos_as_xyz
  1  'x, y, z'
loop_
 _atom_site_type_symbol
 _atom_site_label
 _atom_site_symmetry_multiplicity
 _atom_site_fract_x
 _atom_site_fract_y
 _atom_site_fract_z
 _atom_site_occupancy
  Li  Li0  1  0.00000000  0.19420900  0.64503400  1
  Li  Li1  1  0.00000000  0.49583600  0.99988700  1
  Li  Li2  1  0.00000000  0.81101200  0.35435500  1
  Li  Li3  1  0.50000000  0.64980900  0.18519300  1
  Li  Li4  1  0.50000000  0.00545300  0.48683100  1
  Li  Li5  1  0.50000000  0.34177300  0.82481600  1
  Li  Li6  1  0.50000000  0.49924600  0.49851100  1
  Mn  Mn0  1  0.00000000  0.00220300  0.00130100  1
  Mn  Mn1  1  0.50000000  0.83215400  0.82975400  1
  Co  Co0  1  0.00000000  0.34228300  0.34711200  1
  Co  Co1  1  0.00000000  0.65003500  0.65455700  1
  Co  Co2  1  0.50000000  0.17823300  0.17518200  1
  O  O0  1  0.00000000  0.77245100  0.97899300  1
  O  O1  1  0.00000000  0.09273300  0.32191000  1
  O  O2  1  0.00000000  0.42406500  0.67410300  1
  O  O3  1  0.50000000  0.24788500  0.49339200  1
  O  O4  1  0.50000000  0.60716200  0.82897400  1
  O  O5  1  0.50000000  0.92801400  0.14265600  1
  O  O6  1  0.00000000  0.57098600  0.32795800  1
  O  O7  1  0.00000000  0.90636400  0.69188100  1
  O  O8  1  0.00000000  0.22602300  0.00909700  1
  O  O9  1  0.50000000  0.06457900  0.85405700  1
  O  O10  1  0.50000000  0.40650600  0.16399800  1
  O  O11  1  0.50000000  0.75098800  0.51044500  1
loop_
_geom_bond_atom_site_label_1
_geom_bond_atom_site_label_2
_geom_bond_distance
_geom_bond_site_symmetry_2
Li0 O3 2.018687 1_455
Li0 O3 2.018687 1_555
Li0 O2 2.021178 1_555
Li0 O7 2.221427 1_545
Li0 O9 2.407527 1_455
Li0 O9 2.407527 1_555
Li1 O10 2.092552 1_456
Li1 O10 2.092552 1_556
Li1 O4 2.148216 1_555
Li1 O4 2.148216 1_455
Li1 O8 2.182819 1_556
Li1 O0 2.199094 1_555
Li2 O11 2.043783 1_555
Li2 O11 2.043783 1_455
Li2 O6 2.090722 1_555
Li2 O1 2.206860 1_565
Li2 O5 2.417914 1_455
Li2 O5 2.417914 1_555
Li3 O6 1.960600 1_555
Li3 O6 1.960600 1_655
Li3 O10 2.092242 1_555
Li3 O5 2.153106 1_555
Li3 O0 2.383381 1_554
Li3 O0 2.383381 1_654
Li4 O11 2.009534 1_545
Li4 O3 2.019361 1_555
Li4 O1 2.097017 1_555
Li4 O1 2.097017 1_655
Li4 O7 2.367390 1_545
Li4 O7 2.367390 1_645
Li5 O2 2.008431 1_555
Li5 O2 2.008431 1_655
Li5 O9 2.178832 1_555
Li5 O4 2.198005 1_555
Li5 O8 2.234868 1_656
Li5 O8 2.234868 1_556
Li6 O3 2.086695 1_555
Li6 O11 2.118982 1_555
Li6 O6 2.134101 1_555
Li6 O6 2.134101 1_655
Li6 O2 2.166879 1_555
Li6 O2 2.166879 1_655
Mn0 O8 1.871722 1_555
Mn0 O5 1.951120 1_545
Mn0 O5 1.951120 1_445
Mn0 O0 1.986729 1_544
Mn0 O9 1.986875 1_454
Mn0 O9 1.986875 1_554
Mn1 O4 1.852325 1_555
Mn1 O7 1.931104 1_555
Mn1 O7 1.931104 1_655
Mn1 O0 2.000236 1_655
Mn1 O0 2.000236 1_555
Mn1 O9 2.018309 1_565
Co0 O6 1.812338 1_555
Co0 O3 1.989726 1_455
Co0 O3 1.989726 1_555
Co0 O1 2.162653 1_555
Co0 O10 2.224414 1_555
Co0 O10 2.224414 1_455
Co1 O2 1.788784 1_555
Co1 O11 1.984002 1_555
Co1 O11 1.984002 1_455
Co1 O4 2.183900 1_455
Co1 O4 2.183900 1_555
Co1 O7 2.279317 1_555
Co2 O10 1.834797 1_555
Co2 O1 1.986372 1_655
Co2 O1 1.986372 1_555
Co2 O8 2.119891 1_555
Co2 O8 2.119891 1_655
Co2 O5 2.204736 1_545
