# generated using pymatgen
data_LaBr3O7
_symmetry_space_group_name_H-M   'P 1'
_cell_length_a   6.95792400
_cell_length_b   7.62667087
_cell_length_c   7.97220483
_cell_angle_alpha   83.96742581
_cell_angle_beta   74.98027024
_cell_angle_gamma   89.21936135
_symmetry_Int_Tables_number   1
_chemical_formula_structural   LaBr3O7
_chemical_formula_sum   'La2 Br6 O14'
_cell_volume   406.29504823
_cell_formula_units_Z   2
loop_
 _symmetry_equiv_pos_site_id
 _symmetry_equiv_pos_as_xyz
  1  'x, y, z'
loop_
 _atom_site_type_symbol
 _atom_site_label
 _atom_site_symmetry_multiplicity
 _atom_site_fract_x
 _atom_site_fract_y
 _atom_site_fract_z
 _atom_site_occupancy
  La  La0  1  0.19020200  0.72714600  0.23281200  1
  La  La1  1  0.80979800  0.27285400  0.76718800  1
  Br  Br0  1  0.65639100  0.49201600  0.24332300  1
  Br  Br1  1  0.34360900  0.50798400  0.75667700  1
  Br  Br2  1  0.69519600  0.95684100  0.28597700  1
  Br  Br3  1  0.30480400  0.04315900  0.71402300  1
  Br  Br4  1  0.17353200  0.21171300  0.29516400  1
  Br  Br5  1  0.82646800  0.78828700  0.70483600  1
  O  O0  1  0.46630700  0.92534800  0.98844900  1
  O  O1  1  0.53369300  0.07465200  0.01155100  1
  O  O2  1  0.47432400  0.82264000  0.32735200  1
  O  O3  1  0.52567600  0.17736000  0.67264800  1
  O  O4  1  0.28215300  0.61387300  0.94169700  1
  O  O5  1  0.71784700  0.38612700  0.05830300  1
  O  O6  1  0.30418300  0.44112900  0.30412200  1
  O  O7  1  0.69581700  0.55887100  0.69587800  1
  O  O8  1  0.06157200  0.03821800  0.20523500  1
  O  O9  1  0.93842800  0.96178200  0.79476500  1
  O  O10  1  0.87494700  0.59392400  0.24819700  1
  O  O11  1  0.12505300  0.40607600  0.75180300  1
  O  O12  1  0.03377900  0.75781600  0.53842000  1
  O  O13  1  0.96622100  0.24218400  0.46158000  1
loop_
_geom_bond_atom_site_label_1
_geom_bond_atom_site_label_2
_geom_bond_distance
_geom_bond_site_symmetry_2
La0 O6 2.374102 1_555
La0 O10 2.398751 1_455
La0 O12 2.431799 1_555
La0 O2 2.435872 1_555
La0 O4 2.485689 1_554
La0 O8 2.532260 1_565
La0 O0 2.700226 1_554
La1 O7 2.374102 1_555
La1 O11 2.398751 1_655
La1 O13 2.431799 1_555
La1 O3 2.435872 1_555
La1 O5 2.485689 1_556
La1 O9 2.532260 1_545
La1 O1 2.700226 1_556
Br0 O5 1.710195 1_555
Br0 O10 1.728373 1_555
Br0 O6 2.400395 1_555
Br1 O4 1.710195 1_555
Br1 O11 1.728373 1_555
Br1 O7 2.400395 1_555
Br2 O2 1.796474 1_555
Br2 O8 2.531143 1_665
Br3 O3 1.796474 1_555
Br3 O9 2.531143 1_445
Br4 O13 1.720061 1_455
Br4 O8 1.840822 1_555
Br4 O6 1.999031 1_555
Br5 O12 1.720061 1_655
Br5 O9 1.840822 1_555
Br5 O7 1.999031 1_555
O0 O1 1.285987 1_566
