# generated using pymatgen
data_NaFe2P2HO8
_symmetry_space_group_name_H-M   'P 1'
_cell_length_a   5.25544300
_cell_length_b   8.91454611
_cell_length_c   9.02907117
_cell_angle_alpha   94.87635050
_cell_angle_beta   100.37332849
_cell_angle_gamma   104.84616714
_symmetry_Int_Tables_number   1
_chemical_formula_structural   NaFe2P2HO8
_chemical_formula_sum   'Na2 Fe4 P4 H2 O16'
_cell_volume   398.36253916
_cell_formula_units_Z   2
loop_
 _symmetry_equiv_pos_site_id
 _symmetry_equiv_pos_as_xyz
  1  'x, y, z'
loop_
 _atom_site_type_symbol
 _atom_site_label
 _atom_site_symmetry_multiplicity
 _atom_site_fract_x
 _atom_site_fract_y
 _atom_site_fract_z
 _atom_site_occupancy
  Na  Na0  1  0.61167700  0.82912900  0.32168800  1
  Na  Na1  1  0.38832300  0.17087100  0.67831200  1
  Fe  Fe0  1  0.78195300  0.89269300  0.74621100  1
  Fe  Fe1  1  0.21804700  0.10730700  0.25378900  1
  Fe  Fe2  1  0.31260200  0.61535100  0.88717600  1
  Fe  Fe3  1  0.68739800  0.38464900  0.11282400  1
  P  P0  1  0.16887500  0.77043300  0.57989500  1
  P  P1  1  0.83112500  0.22956700  0.42010500  1
  P  P2  1  0.90471200  0.75082500  0.06534300  1
  P  P3  1  0.09528800  0.24917500  0.93465700  1
  H  H0  1  0.04817900  0.65076400  0.34422900  1
  H  H1  1  0.95182100  0.34923600  0.65577100  1
  O  O0  1  0.90620800  0.82054900  0.55887100  1
  O  O1  1  0.09379200  0.17945100  0.44112900  1
  O  O2  1  0.71389900  0.74383100  0.90703400  1
  O  O3  1  0.28610100  0.25616900  0.09296600  1
  O  O4  1  0.41674200  0.91050800  0.64715000  1
  O  O5  1  0.58325800  0.08949200  0.35285000  1
  O  O6  1  0.05998200  0.09148200  0.83822800  1
  O  O7  1  0.94001800  0.90851800  0.16177200  1
  O  O8  1  0.15973500  0.63179500  0.66907000  1
  O  O9  1  0.84026500  0.36820500  0.33093000  1
  O  O10  1  0.17635500  0.72671800  0.04384400  1
  O  O11  1  0.82364500  0.27328200  0.95615600  1
  O  O12  1  0.24973700  0.37992400  0.85236600  1
  O  O13  1  0.75026300  0.62007600  0.14763400  1
  O  O14  1  0.21073300  0.72209800  0.41118400  1
  O  O15  1  0.78926700  0.27790200  0.58881600  1
loop_
_geom_bond_atom_site_label_1
_geom_bond_atom_site_label_2
_geom_bond_distance
_geom_bond_site_symmetry_2
Na0 O5 2.360158 1_565
Na0 O14 2.391100 1_555
Na0 O0 2.425444 1_555
Na0 O7 2.451221 1_555
Na0 O13 2.661412 1_555
Na0 O10 2.972274 1_555
Na1 O4 2.360158 1_545
Na1 O15 2.391100 1_555
Na1 O1 2.425444 1_555
Na1 O6 2.451221 1_555
Na1 O12 2.661412 1_555
Na1 O11 2.972274 1_555
Fe0 O6 1.987779 1_665
Fe0 O4 2.017730 1_555
Fe0 O0 2.032066 1_555
Fe0 O2 2.066132 1_555
Fe1 O7 1.987779 1_445
Fe1 O5 2.017730 1_555
Fe1 O1 2.032066 1_555
Fe1 O3 2.066132 1_555
Fe2 O10 1.997405 1_556
Fe2 O8 2.021068 1_555
Fe2 O12 2.026751 1_555
Fe2 O2 2.093535 1_555
Fe3 O11 1.997405 1_554
Fe3 O9 2.021068 1_555
Fe3 O13 2.026751 1_555
Fe3 O3 2.093535 1_555
H0 O14 0.984852 1_555
H1 O15 0.984852 1_555
O0 P0 1.541853 1_655
O1 P1 1.541853 1_455
O2 P2 1.577738 1_556
O3 P3 1.577738 1_554
O4 P0 1.541936 1_555
O5 P1 1.541936 1_555
O6 P3 1.539065 1_555
O7 P2 1.539065 1_555
O8 P0 1.526670 1_555
O9 P1 1.526670 1_555
O10 P2 1.540078 1_455
O11 P3 1.540078 1_655
O12 P3 1.564951 1_555
O13 P2 1.564951 1_555
O14 P0 1.616220 1_555
O15 P1 1.616220 1_555
