# generated using pymatgen
data_BaDyCr4O12
_symmetry_space_group_name_H-M   'P 1'
_cell_length_a   5.47321404
_cell_length_b   5.47321404
_cell_length_c   7.44224989
_cell_angle_alpha   90.00000000
_cell_angle_beta   90.00000000
_cell_angle_gamma   90.00000000
_symmetry_Int_Tables_number   1
_chemical_formula_structural   BaDyCr4O12
_chemical_formula_sum   'Ba1 Dy1 Cr4 O12'
_cell_volume   222.94057301
_cell_formula_units_Z   1
loop_
 _symmetry_equiv_pos_site_id
 _symmetry_equiv_pos_as_xyz
  1  'x, y, z'
loop_
 _atom_site_type_symbol
 _atom_site_label
 _atom_site_symmetry_multiplicity
 _atom_site_fract_x
 _atom_site_fract_y
 _atom_site_fract_z
 _atom_site_occupancy
  Ba  Ba0  1  0.50000000  0.50000000  0.00000000  1
  Dy  Dy0  1  -0.00000000  -0.00000000  0.50000000  1
  Cr  Cr0  1  -0.00000000  0.50000000  0.74846556  1
  Cr  Cr1  1  -0.00000000  0.50000000  0.25153444  1
  Cr  Cr2  1  0.50000000  -0.00000000  0.74846556  1
  Cr  Cr3  1  0.50000000  0.00000000  0.25153444  1
  O  O0  1  0.23632993  0.23632993  0.73101732  1
  O  O1  1  0.23632993  0.23632993  0.26898268  1
  O  O2  1  0.76367007  0.76367007  0.26898268  1
  O  O3  1  0.76367007  0.76367007  0.73101732  1
  O  O4  1  0.76367007  0.23632993  0.73101732  1
  O  O5  1  0.76367007  0.23632993  0.26898268  1
  O  O6  1  0.23632993  0.76367007  0.26898268  1
  O  O7  1  0.23632993  0.76367007  0.73101732  1
  O  O8  1  -0.00000000  0.50000000  0.50000000  1
  O  O9  1  -0.00000000  0.50000000  0.00000000  1
  O  O10  1  0.50000000  0.00000000  0.50000000  1
  O  O11  1  0.50000000  0.00000000  0.00000000  1
loop_
_geom_bond_atom_site_label_1
_geom_bond_atom_site_label_2
_geom_bond_distance
_geom_bond_site_symmetry_2
Ba0 O9 2.736607 1_555
Ba0 O9 2.736607 1_655
Ba0 O11 2.736607 1_555
Ba0 O11 2.736607 1_565
Ba0 O0 2.858768 1_554
Ba0 O4 2.858768 1_554
Ba0 O6 2.858768 1_555
Ba0 O3 2.858768 1_554
Ba0 O7 2.858768 1_554
Ba0 O1 2.858768 1_555
Ba0 O5 2.858768 1_555
Ba0 O2 2.858768 1_555
Dy0 O7 2.510410 1_545
Dy0 O1 2.510410 1_555
Dy0 O0 2.510410 1_555
Dy0 O6 2.510410 1_545
Dy0 O3 2.510410 1_445
Dy0 O5 2.510410 1_455
Dy0 O2 2.510410 1_445
Dy0 O4 2.510410 1_455
Dy0 O8 2.736607 1_545
Dy0 O10 2.736607 1_455
Dy0 O10 2.736607 1_555
Dy0 O8 2.736607 1_555
Cr0 O8 1.849143 1_555
Cr0 O9 1.871982 1_556
Cr0 O0 1.942310 1_555
Cr0 O7 1.942310 1_555
Cr0 O3 1.942310 1_455
Cr0 O4 1.942310 1_455
Cr1 O8 1.849143 1_555
Cr1 O9 1.871982 1_555
Cr1 O6 1.942310 1_555
Cr1 O1 1.942310 1_555
Cr1 O5 1.942310 1_455
Cr1 O2 1.942310 1_455
Cr2 O10 1.849143 1_555
Cr2 O11 1.871982 1_556
Cr2 O0 1.942310 1_555
Cr2 O4 1.942310 1_555
Cr2 O7 1.942310 1_545
Cr2 O3 1.942310 1_545
Cr3 O10 1.849143 1_555
Cr3 O11 1.871982 1_555
Cr3 O1 1.942310 1_555
Cr3 O5 1.942310 1_555
Cr3 O2 1.942310 1_545
Cr3 O6 1.942310 1_545
