# generated using pymatgen
data_Li6MnV3(PO4)6
_symmetry_space_group_name_H-M   'P 1'
_cell_length_a   8.45603700
_cell_length_b   8.59759606
_cell_length_c   8.64700008
_cell_angle_alpha   61.41933833
_cell_angle_beta   61.75407085
_cell_angle_gamma   62.78124664
_symmetry_Int_Tables_number   1
_chemical_formula_structural   Li6MnV3(PO4)6
_chemical_formula_sum   'Li6 Mn1 V3 P6 O24'
_cell_volume   464.12568841
_cell_formula_units_Z   1
loop_
 _symmetry_equiv_pos_site_id
 _symmetry_equiv_pos_as_xyz
  1  'x, y, z'
loop_
 _atom_site_type_symbol
 _atom_site_label
 _atom_site_symmetry_multiplicity
 _atom_site_fract_x
 _atom_site_fract_y
 _atom_site_fract_z
 _atom_site_occupancy
  Li  Li0  1  0.25522000  0.12544400  0.84182700  1
  Li  Li1  1  0.99689300  0.50110900  0.99929100  1
  Li  Li2  1  0.12756800  0.25789200  0.34051800  1
  Li  Li3  1  0.87173100  0.74149800  0.66164600  1
  Li  Li4  1  0.49931300  0.99984100  0.50064800  1
  Li  Li5  1  0.74230000  0.87359600  0.15874000  1
  Mn  Mn0  1  0.85602100  0.36245900  0.85078100  1
  V  V0  1  0.63599100  0.14541400  0.64486000  1
  V  V1  1  0.36297200  0.85476400  0.35495100  1
  V  V2  1  0.14632700  0.63642900  0.14284400  1
  P  P0  1  0.55044300  0.75278900  0.96309200  1
  P  P1  1  0.94983600  0.04883300  0.24834600  1
  P  P2  1  0.24791100  0.45010300  0.53702800  1
  P  P3  1  0.74985100  0.54888000  0.46397700  1
  P  P4  1  0.05172900  0.94876400  0.74975200  1
  P  P5  1  0.45289500  0.24989600  0.03619800  1
  O  O0  1  0.46581700  0.18765200  0.88903300  1
  O  O1  1  0.03057500  0.10892900  0.79848900  1
  O  O2  1  0.61727800  0.31966600  0.97439700  1
  O  O3  1  0.76313800  0.06249400  0.41665400  1
  O  O4  1  0.74774200  0.61233800  0.92405000  1
  O  O5  1  0.39348700  0.25563900  0.57901400  1
  O  O6  1  0.08131700  0.45396500  0.72809600  1
  O  O7  1  0.11643700  0.02136700  0.29865900  1
  O  O8  1  0.06222100  0.76206700  0.91686500  1
  O  O9  1  0.68174100  0.38575400  0.52656300  1
  O  O10  1  0.45842200  0.08616100  0.22571700  1
  O  O11  1  0.81059200  0.53801900  0.61260900  1
  O  O12  1  0.18592600  0.46428600  0.38897900  1
  O  O13  1  0.54003600  0.91726500  0.77430800  1
  O  O14  1  0.31564400  0.61212300  0.47935500  1
  O  O15  1  0.94171500  0.23409900  0.07881700  1
  O  O16  1  0.88350300  0.97887500  0.70097000  1
  O  O17  1  0.91361700  0.54436600  0.27457300  1
  O  O18  1  0.60428800  0.74422300  0.42202800  1
  O  O19  1  0.25633700  0.39513100  0.07696400  1
  O  O20  1  0.23811500  0.93502900  0.58097600  1
  O  O21  1  0.38762400  0.68127400  0.02468000  1
  O  O22  1  0.97657600  0.88418000  0.20170400  1
  O  O23  1  0.53084900  0.81738800  0.11200300  1
loop_
_geom_bond_atom_site_label_1
_geom_bond_atom_site_label_2
_geom_bond_distance
_geom_bond_site_symmetry_2
Li0 O5 2.008194 1_555
Li0 O1 2.177277 1_555
Li0 O13 2.251765 1_545
Li0 O0 2.322105 1_555
Li0 O6 2.453357 1_555
Li0 O15 2.554238 1_456
Li1 O4 2.153042 1_555
Li1 O19 2.252756 1_656
Li1 O8 2.253454 1_655
Li1 O15 2.264131 1_556
Li1 O6 2.287627 1_655
Li1 O17 2.306774 1_556
Li2 O19 2.006295 1_555
Li2 O7 2.277448 1_555
Li2 O17 2.284960 1_455
Li2 O12 2.296991 1_555
Li2 O10 2.446940 1_555
Li2 O20 2.616511 1_545
Li3 O4 1.970620 1_555
Li3 O16 2.274325 1_555
Li3 O6 2.275806 1_655
Li3 O11 2.291765 1_555
Li3 O13 2.458587 1_555
Li3 O3 2.622333 1_565
Li4 O20 2.230417 1_555
Li4 O3 2.232931 1_565
Li4 O5 2.268981 1_565
Li4 O18 2.270186 1_555
Li4 O13 2.272093 1_555
Li4 O10 2.275358 1_565
Li5 O18 2.008000 1_555
Li5 O22 2.228163 1_555
Li5 O10 2.263039 1_565
Li5 O23 2.292421 1_555
Li5 O17 2.454324 1_555
Li5 O8 2.608201 1_654
Mn0 O2 1.901112 1_555
Mn0 O11 1.977737 1_555
Mn0 O6 2.008331 1_655
Mn0 O15 2.042039 1_556
Mn0 O1 2.121922 1_655
Mn0 O4 2.192941 1_555
O0 P5 1.544066 1_556
O0 V0 2.010043 1_555
O1 P4 1.537656 1_545
O2 P5 1.526610 1_556
O3 P1 1.563152 1_555
O3 V0 2.048124 1_555
O4 P0 1.539345 1_555
O5 P2 1.549838 1_555
O5 V0 2.058754 1_555
O6 P2 1.588079 1_555
O7 P1 1.551519 1_455
O7 V1 2.048517 1_545
O8 P4 1.563420 1_555
O8 V2 2.020888 1_556
O9 P3 1.519624 1_555
O9 V0 1.949396 1_555
O10 P5 1.573053 1_555
O10 V1 2.084763 1_545
O11 P3 1.546106 1_555
O12 P2 1.534844 1_555
O12 V2 2.009903 1_555
O13 P0 1.576604 1_555
O13 V0 2.062631 1_565
O14 P2 1.520517 1_555
O14 V1 1.969365 1_555
O15 P1 1.565859 1_555
O16 P4 1.547616 1_655
O16 V0 2.054546 1_565
O17 P3 1.570499 1_555
O17 V2 2.058359 1_655
O18 P3 1.554335 1_555
O18 V1 2.054844 1_555
O19 P5 1.553724 1_555
O19 V2 2.087469 1_555
O20 P4 1.563768 1_555
O20 V1 2.020294 1_555
O21 P0 1.524580 1_554
O21 V2 1.930122 1_555
O22 P1 1.544315 1_565
O22 V2 2.098918 1_655
O23 P0 1.546625 1_554
O23 V1 1.984339 1_555
