# generated using pymatgen
data_LuMgMnS4
_symmetry_space_group_name_H-M   'P 1'
_cell_length_a   7.66204758
_cell_length_b   7.50809046
_cell_length_c   7.51047772
_cell_angle_alpha   60.33171411
_cell_angle_beta   59.30738974
_cell_angle_gamma   59.32906605
_symmetry_Int_Tables_number   1
_chemical_formula_structural   LuMgMnS4
_chemical_formula_sum   'Lu2 Mg2 Mn2 S8'
_cell_volume   303.05918854
_cell_formula_units_Z   2
loop_
 _symmetry_equiv_pos_site_id
 _symmetry_equiv_pos_as_xyz
  1  'x, y, z'
loop_
 _atom_site_type_symbol
 _atom_site_label
 _atom_site_symmetry_multiplicity
 _atom_site_fract_x
 _atom_site_fract_y
 _atom_site_fract_z
 _atom_site_occupancy
  Lu  Lu0  1  0.50000500  0.50001500  0.49996600  1
  Lu  Lu1  1  0.99998900  0.50000000  0.50002000  1
  Mg  Mg0  1  0.87607700  0.87393100  0.87394600  1
  Mg  Mg1  1  0.12393400  0.12605500  0.12606900  1
  Mn  Mn0  1  0.49999800  0.50000300  0.99998600  1
  Mn  Mn1  1  0.49998000  0.99998900  0.50001100  1
  S  S0  1  0.72048600  0.75087500  0.75107800  1
  S  S1  1  0.26835300  0.23746400  0.72562400  1
  S  S2  1  0.26848700  0.72571700  0.23753200  1
  S  S3  1  0.72242400  0.24893600  0.24911400  1
  S  S4  1  0.73150600  0.27428600  0.76246300  1
  S  S5  1  0.27758100  0.75106000  0.75088200  1
  S  S6  1  0.27952800  0.24911400  0.24893700  1
  S  S7  1  0.73165500  0.76255000  0.27437300  1
loop_
_geom_bond_atom_site_label_1
_geom_bond_atom_site_label_2
_geom_bond_distance
_geom_bond_site_symmetry_2
Lu0 S3 2.639727 1_555
Lu0 S5 2.639890 1_555
Lu0 S2 2.664441 1_555
Lu0 S7 2.664494 1_555
Lu0 S1 2.664563 1_555
Lu0 S4 2.664695 1_555
Lu1 S0 2.639670 1_555
Lu1 S6 2.639869 1_655
Lu1 S4 2.664463 1_555
Lu1 S1 2.664539 1_655
Lu1 S2 2.664571 1_655
Lu1 S7 2.664592 1_555
Mg0 S4 2.453944 1_565
Mg0 S7 2.454653 1_556
Mg0 S5 2.493039 1_655
Mg0 S0 2.493427 1_555
Mg1 S2 2.453844 1_545
Mg1 S1 2.454757 1_554
Mg1 S3 2.493084 1_455
Mg1 S6 2.493464 1_555
Mn0 S4 2.428253 1_555
Mn0 S2 2.428359 1_556
Mn0 S0 2.536360 1_555
Mn0 S6 2.536369 1_556
Mn0 S5 2.538499 1_555
Mn0 S3 2.538677 1_556
Mn1 S7 2.427389 1_555
Mn1 S1 2.427451 1_565
Mn1 S5 2.536200 1_555
Mn1 S3 2.536533 1_565
Mn1 S6 2.538538 1_565
Mn1 S0 2.538774 1_555
