# generated using pymatgen
data_Ba3UFeSe6
_symmetry_space_group_name_H-M   'P 1'
_cell_length_a   8.66148485
_cell_length_b   8.66148485
_cell_length_c   8.66148521
_cell_angle_alpha   94.09701512
_cell_angle_beta   94.09701512
_cell_angle_gamma   94.09701897
_symmetry_Int_Tables_number   1
_chemical_formula_structural   Ba3UFeSe6
_chemical_formula_sum   'Ba6 U2 Fe2 Se12'
_cell_volume   644.56271634
_cell_formula_units_Z   2
loop_
 _symmetry_equiv_pos_site_id
 _symmetry_equiv_pos_as_xyz
  1  'x, y, z'
loop_
 _atom_site_type_symbol
 _atom_site_label
 _atom_site_symmetry_multiplicity
 _atom_site_fract_x
 _atom_site_fract_y
 _atom_site_fract_z
 _atom_site_occupancy
  Ba  Ba0  1  0.13352600  0.36648600  0.74999900  1
  Ba  Ba1  1  0.36648600  0.74999900  0.13352600  1
  Ba  Ba2  1  0.74999900  0.13352600  0.36648600  1
  Ba  Ba3  1  0.63352600  0.24999900  0.86648600  1
  Ba  Ba4  1  0.24999900  0.86648600  0.63352600  1
  Ba  Ba5  1  0.86648600  0.63352600  0.24999900  1
  U  U0  1  0.24999600  0.24999600  0.24999600  1
  U  U1  1  0.74999600  0.74999600  0.74999600  1
  Fe  Fe0  1  0.50000000  0.50000000  0.50000000  1
  Fe  Fe1  1  0.00000000  0.00000000  0.00000000  1
  Se  Se0  1  0.41163600  0.20241800  0.53606000  1
  Se  Se1  1  0.20241800  0.53606000  0.41163600  1
  Se  Se2  1  0.53606000  0.41163600  0.20241800  1
  Se  Se3  1  0.91163600  0.03606000  0.70241800  1
  Se  Se4  1  0.03606000  0.70241800  0.91163600  1
  Se  Se5  1  0.70241800  0.91163600  0.03606000  1
  Se  Se6  1  0.58836300  0.79759700  0.46395200  1
  Se  Se7  1  0.79759700  0.46395200  0.58836300  1
  Se  Se8  1  0.46395200  0.58836300  0.79759700  1
  Se  Se9  1  0.08836300  0.96395200  0.29759700  1
  Se  Se10  1  0.96395200  0.29759700  0.08836300  1
  Se  Se11  1  0.29759700  0.08836300  0.96395200  1
loop_
_geom_bond_atom_site_label_1
_geom_bond_atom_site_label_2
_geom_bond_distance
_geom_bond_site_symmetry_2
Ba0 Se8 3.314577 1_555
Ba0 Se3 3.314632 1_455
Ba0 Se7 3.328141 1_455
Ba0 Se4 3.328167 1_555
Ba0 Se1 3.441251 1_555
Ba0 Se10 3.441254 1_456
Ba0 Se0 3.465023 1_555
Ba0 Se11 3.465187 1_555
Ba1 Se6 3.314578 1_555
Ba1 Se4 3.314632 1_554
Ba1 Se8 3.328141 1_554
Ba1 Se5 3.328166 1_555
Ba1 Se2 3.441251 1_555
Ba1 Se11 3.441254 1_564
Ba1 Se1 3.465023 1_555
Ba1 Se9 3.465187 1_555
Ba2 Se7 3.314578 1_555
Ba2 Se5 3.314632 1_545
Ba2 Se6 3.328141 1_545
Ba2 Se3 3.328167 1_555
Ba2 Se0 3.441251 1_555
Ba2 Se9 3.441254 1_645
Ba2 Se2 3.465023 1_555
Ba2 Se10 3.465187 1_555
Ba3 Se10 3.314578 1_556
Ba3 Se0 3.314632 1_555
Ba3 Se11 3.328141 1_555
Ba3 Se2 3.328167 1_556
Ba3 Se5 3.441251 1_546
Ba3 Se8 3.441254 1_555
Ba3 Se3 3.465023 1_555
Ba3 Se7 3.465187 1_555
Ba4 Se11 3.314578 1_565
Ba4 Se1 3.314632 1_555
Ba4 Se9 3.328141 1_555
Ba4 Se0 3.328166 1_565
Ba4 Se3 3.441251 1_465
Ba4 Se6 3.441254 1_555
Ba4 Se4 3.465023 1_555
Ba4 Se8 3.465187 1_555
Ba5 Se9 3.314577 1_655
Ba5 Se2 3.314632 1_555
Ba5 Se10 3.328141 1_555
Ba5 Se1 3.328167 1_655
Ba5 Se4 3.441251 1_654
Ba5 Se7 3.441254 1_555
Ba5 Se5 3.465023 1_555
Ba5 Se6 3.465187 1_555
Fe0 Se0 2.682192 1_555
Fe0 Se1 2.682192 1_555
Fe0 Se2 2.682192 1_555
Fe0 Se6 2.682292 1_555
Fe0 Se7 2.682292 1_555
Fe0 Se8 2.682292 1_555
Fe1 Se5 2.682192 1_445
Fe1 Se4 2.682192 1_544
Fe1 Se3 2.682192 1_454
Fe1 Se11 2.682292 1_554
Fe1 Se10 2.682292 1_455
Fe1 Se9 2.682292 1_545
Se0 U0 2.828744 1_555
Se1 U0 2.828744 1_555
Se2 U0 2.828744 1_555
Se3 U1 2.828744 1_545
Se4 U1 2.828744 1_455
Se5 U1 2.828744 1_554
Se6 U1 2.828619 1_555
Se7 U1 2.828619 1_555
Se8 U1 2.828619 1_555
Se9 U0 2.828619 1_565
Se10 U0 2.828619 1_655
Se11 U0 2.828619 1_556
