# generated using pymatgen
data_CsCrCuF6
_symmetry_space_group_name_H-M   'P 1'
_cell_length_a   7.44631272
_cell_length_b   7.44631272
_cell_length_c   7.44631272
_cell_angle_alpha   121.19291424
_cell_angle_beta   120.13778057
_cell_angle_gamma   88.85387461
_symmetry_Int_Tables_number   1
_chemical_formula_structural   CsCrCuF6
_chemical_formula_sum   'Cs2 Cr2 Cu2 F12'
_cell_volume   288.92006391
_cell_formula_units_Z   2
loop_
 _symmetry_equiv_pos_site_id
 _symmetry_equiv_pos_as_xyz
  1  'x, y, z'
loop_
 _atom_site_type_symbol
 _atom_site_label
 _atom_site_symmetry_multiplicity
 _atom_site_fract_x
 _atom_site_fract_y
 _atom_site_fract_z
 _atom_site_occupancy
  Cs  Cs0  1  0.37197200  0.12197200  0.25000000  1
  Cs  Cs1  1  0.62802800  0.87802800  0.75000000  1
  Cr  Cr0  1  0.00000000  0.50000000  0.50000000  1
  Cr  Cr1  1  0.50000000  0.50000000  0.00000000  1
  Cu  Cu0  1  0.00000000  0.50000000  0.00000000  1
  Cu  Cu1  1  0.00000000  0.00000000  0.50000000  1
  F  F0  1  0.31229600  0.56229600  0.75000000  1
  F  F1  1  0.93269400  0.18269400  0.75000000  1
  F  F2  1  0.33027100  0.18709500  0.75999800  1
  F  F3  1  0.92709700  0.57027300  0.74000200  1
  F  F4  1  0.33027100  0.57027300  0.14317600  1
  F  F5  1  0.92709700  0.18709500  0.35682400  1
  F  F6  1  0.68770400  0.43770400  0.25000000  1
  F  F7  1  0.06730600  0.81730600  0.25000000  1
  F  F8  1  0.66972900  0.81290500  0.24000200  1
  F  F9  1  0.07290300  0.42972700  0.25999800  1
  F  F10  1  0.66972900  0.42972700  0.85682400  1
  F  F11  1  0.07290300  0.81290500  0.64317600  1
loop_
_geom_bond_atom_site_label_1
_geom_bond_atom_site_label_2
_geom_bond_distance
_geom_bond_site_symmetry_2
Cs0 F8 3.162612 1_545
Cs0 F10 3.162612 1_555
Cs0 F11 3.162612 1_544
Cs0 F9 3.162612 1_555
Cs0 F7 3.240267 1_545
Cs0 F6 3.357959 1_555
Cs1 F3 3.162612 1_555
Cs1 F2 3.162612 1_565
Cs1 F5 3.162612 1_566
Cs1 F4 3.162612 1_555
Cs1 F1 3.240267 1_565
Cs1 F0 3.357959 1_555
Cr0 F9 1.938169 1_555
Cr0 F5 1.938169 1_455
Cr0 F11 1.938169 1_555
Cr0 F3 1.938169 1_455
Cr0 F6 1.972313 1_455
Cr0 F0 1.972313 1_555
Cr1 F10 1.938169 1_554
Cr1 F4 1.938169 1_555
Cr1 F2 1.938169 1_554
Cr1 F8 1.938169 1_555
Cr1 F0 1.972313 1_554
Cr1 F6 1.972313 1_555
Cu0 F1 1.963078 1_454
Cu0 F7 1.963078 1_555
Cu0 F3 2.073492 1_454
Cu0 F10 2.073492 1_454
Cu0 F9 2.073492 1_555
Cu0 F4 2.073492 1_555
Cu1 F1 1.963078 1_455
Cu1 F7 1.963078 1_545
Cu1 F2 2.073492 1_555
Cu1 F11 2.073492 1_545
Cu1 F8 2.073492 1_445
Cu1 F5 2.073492 1_455
