# generated using pymatgen
data_NbFeNi(O2F)2
_symmetry_space_group_name_H-M   'P 1'
_cell_length_a   3.10029700
_cell_length_b   4.76887294
_cell_length_c   14.24567035
_cell_angle_alpha   89.33878121
_cell_angle_beta   90.00000000
_cell_angle_gamma   90.00000000
_symmetry_Int_Tables_number   1
_chemical_formula_structural   NbFeNi(O2F)2
_chemical_formula_sum   'Nb2 Fe2 Ni2 O8 F4'
_cell_volume   210.60710636
_cell_formula_units_Z   2
loop_
 _symmetry_equiv_pos_site_id
 _symmetry_equiv_pos_as_xyz
  1  'x, y, z'
loop_
 _atom_site_type_symbol
 _atom_site_label
 _atom_site_symmetry_multiplicity
 _atom_site_fract_x
 _atom_site_fract_y
 _atom_site_fract_z
 _atom_site_occupancy
  Nb  Nb0  1  0.50000000  0.51155900  0.16208600  1
  Nb  Nb1  1  0.50000000  0.50817200  0.49450700  1
  Fe  Fe0  1  0.00000000  0.00780900  0.32562200  1
  Fe  Fe1  1  0.00000000  0.00922200  0.65727300  1
  Ni  Ni0  1  0.00000000  0.99675600  0.00540100  1
  Ni  Ni1  1  0.50000000  0.49758400  0.83609700  1
  O  O0  1  0.00000000  0.30933900  0.10514400  1
  O  O1  1  0.00000000  0.69313400  0.23484900  1
  O  O2  1  0.00000000  0.30309800  0.43862100  1
  O  O3  1  0.00000000  0.68471100  0.56876800  1
  O  O4  1  0.50000000  0.20001500  0.27060300  1
  O  O5  1  0.50000000  0.79770500  0.06869500  1
  O  O6  1  0.50000000  0.18949500  0.60075800  1
  O  O7  1  0.50000000  0.79988300  0.40282900  1
  F  F0  1  0.00000000  0.29304000  0.76690700  1
  F  F1  1  0.00000000  0.69822100  0.89586100  1
  F  F2  1  0.50000000  0.19751700  0.93416100  1
  F  F3  1  0.50000000  0.80273900  0.73182000  1
loop_
_geom_bond_atom_site_label_1
_geom_bond_atom_site_label_2
_geom_bond_distance
_geom_bond_site_symmetry_2
Nb0 O5 1.894789 1_555
Nb0 O0 2.002253 1_655
Nb0 O0 2.002253 1_555
Nb0 O1 2.061050 1_655
Nb0 O1 2.061050 1_555
Nb0 O4 2.131697 1_555
Nb1 O7 1.897101 1_555
Nb1 O2 2.002795 1_555
Nb1 O2 2.002795 1_655
Nb1 O3 2.061904 1_555
Nb1 O3 2.061904 1_655
Nb1 O6 2.132492 1_555
Fe0 O4 1.959811 1_455
Fe0 O4 1.959811 1_555
Fe0 O1 1.992207 1_545
Fe0 O7 2.137922 1_445
Fe0 O7 2.137922 1_545
Fe0 O2 2.150958 1_555
Fe1 O6 1.942741 1_455
Fe1 O6 1.942741 1_555
Fe1 O3 2.007386 1_545
Ni0 O5 2.024174 1_455
Ni0 O5 2.024174 1_555
Ni0 O0 2.071220 1_565
F0 Fe1 2.078456 1_555
F0 Ni1 2.085225 1_455
F0 Ni1 2.085225 1_555
F1 Ni1 2.015464 1_555
F1 Ni1 2.015464 1_455
F1 Ni0 2.124428 1_556
F2 Ni1 1.988251 1_555
F2 Ni0 2.080168 1_546
F2 Ni0 2.080168 1_646
F3 Ni1 2.067497 1_555
F3 Fe1 2.115709 1_565
F3 Fe1 2.115709 1_665
