# generated using pymatgen
data_Mn4Ga3Co8Ge
_symmetry_space_group_name_H-M   'P 1'
_cell_length_a   13.41198764
_cell_length_b   13.41198764
_cell_length_c   13.41198725
_cell_angle_alpha   17.35423146
_cell_angle_beta   17.35423146
_cell_angle_gamma   17.35423232
_symmetry_Int_Tables_number   1
_chemical_formula_structural   Mn4Ga3Co8Ge
_chemical_formula_sum   'Mn4 Ga3 Co8 Ge1'
_cell_volume   187.30996437
_cell_formula_units_Z   1
loop_
 _symmetry_equiv_pos_site_id
 _symmetry_equiv_pos_as_xyz
  1  'x, y, z'
loop_
 _atom_site_type_symbol
 _atom_site_label
 _atom_site_symmetry_multiplicity
 _atom_site_fract_x
 _atom_site_fract_y
 _atom_site_fract_z
 _atom_site_occupancy
  Mn  Mn0  1  0.12511000  0.12511000  0.12511000  1
  Mn  Mn1  1  0.37558000  0.37558000  0.37558000  1
  Mn  Mn2  1  0.62442000  0.62442000  0.62442000  1
  Mn  Mn3  1  0.87489000  0.87489000  0.87489000  1
  Ga  Ga0  1  0.24989000  0.24989000  0.24989000  1
  Ga  Ga1  1  0.50000000  0.50000000  0.50000000  1
  Ga  Ga2  1  0.75011000  0.75011000  0.75011000  1
  Co  Co0  1  0.18750200  0.18750200  0.18750200  1
  Co  Co1  1  0.43719700  0.43719700  0.43719700  1
  Co  Co2  1  0.68687200  0.68687200  0.68687200  1
  Co  Co3  1  0.93789800  0.93789800  0.93789800  1
  Co  Co4  1  0.81249800  0.81249800  0.81249800  1
  Co  Co5  1  0.06210200  0.06210200  0.06210200  1
  Co  Co6  1  0.31312800  0.31312800  0.31312800  1
  Co  Co7  1  0.56280300  0.56280300  0.56280300  1
  Ge  Ge0  1  0.00000000  0.00000000  0.00000000  1
loop_
_geom_bond_atom_site_label_1
_geom_bond_atom_site_label_2
_geom_bond_distance
_geom_bond_site_symmetry_2
Ga0 Mn2 2.850113 1_455
Ga0 Mn2 2.850113 1_545
Ga0 Mn2 2.850114 1_554
Ga0 Mn3 2.860819 1_544
Ga0 Mn3 2.860819 1_454
Ga0 Mn3 2.860819 1_445
Ga1 Mn0 2.858306 1_655
Ga1 Mn0 2.858306 1_565
Ga1 Mn3 2.858306 1_545
Ga1 Mn3 2.858306 1_455
Ga1 Mn0 2.858306 1_556
Ga1 Mn3 2.858306 1_554
Ga2 Mn1 2.850113 1_655
Ga2 Mn1 2.850113 1_565
Ga2 Mn1 2.850114 1_556
Ga2 Mn0 2.860819 1_566
Ga2 Mn0 2.860819 1_656
Ga2 Mn0 2.860819 1_665
Co0 Ga0 2.471858 1_555
Co0 Mn0 2.472017 1_555
Co0 Mn3 2.476482 1_445
Co0 Mn3 2.476482 1_454
Co0 Mn3 2.476482 1_544
Co0 Ga1 2.477983 1_554
Co0 Ga1 2.477983 1_545
Co0 Ga1 2.477983 1_455
Co1 Mn1 2.441311 1_555
Co1 Ga2 2.472554 1_554
Co1 Ga2 2.472554 1_455
Co1 Ga2 2.472554 1_545
Co1 Mn0 2.483456 1_556
Co1 Mn0 2.483456 1_565
Co1 Mn0 2.483456 1_655
Co1 Ga1 2.488301 1_555
Co2 Ge0 2.469780 1_665
Co2 Ge0 2.469780 1_656
Co2 Ge0 2.469780 1_566
Co2 Mn2 2.474394 1_555
Co2 Mn1 2.494308 1_556
Co2 Mn1 2.494309 1_655
Co2 Mn1 2.494309 1_565
Co2 Ga2 2.505536 1_555
Co3 Ge0 2.460527 1_666
Co3 Mn2 2.465320 1_556
Co3 Mn2 2.465320 1_565
Co3 Mn2 2.465320 1_655
Co3 Ga0 2.484734 1_665
Co3 Ga0 2.484734 1_566
Co3 Ga0 2.484734 1_656
Co3 Mn3 2.496423 1_555
Co4 Ga2 2.471858 1_555
Co4 Mn3 2.472017 1_555
Co4 Mn0 2.476482 1_665
Co4 Mn0 2.476482 1_566
Co4 Mn0 2.476482 1_656
Co4 Ga1 2.477983 1_556
Co4 Ga1 2.477983 1_565
Co4 Ga1 2.477983 1_655
Co5 Ge0 2.460527 1_555
Co5 Mn1 2.465320 1_554
Co5 Mn1 2.465320 1_455
Co5 Mn1 2.465320 1_545
Co5 Ga2 2.484734 1_445
Co5 Ga2 2.484734 1_454
Co5 Ga2 2.484734 1_544
Co5 Mn0 2.496423 1_555
Co6 Ge0 2.469780 1_556
Co6 Ge0 2.469780 1_565
Co6 Ge0 2.469780 1_655
Co6 Mn1 2.474394 1_555
Co6 Mn2 2.494308 1_554
Co6 Mn2 2.494309 1_455
Co6 Mn2 2.494309 1_545
Co6 Ga0 2.505536 1_555
Co7 Mn2 2.441311 1_555
Co7 Ga0 2.472554 1_556
Co7 Ga0 2.472554 1_655
Co7 Ga0 2.472554 1_565
Co7 Mn3 2.483456 1_554
Co7 Mn3 2.483456 1_545
Co7 Mn3 2.483456 1_455
Co7 Ga1 2.488301 1_555
Ge0 Mn2 2.874141 1_544
Ge0 Mn2 2.874141 1_454
Ge0 Mn1 2.874141 1_545
Ge0 Mn1 2.874141 1_455
Ge0 Mn2 2.874141 1_445
Ge0 Mn1 2.874141 1_554
