# generated using pymatgen
data_U2AsSe
_symmetry_space_group_name_H-M   'P 1'
_cell_length_a   4.18564636
_cell_length_b   4.18564636
_cell_length_c   5.92334247
_cell_angle_alpha   90.00000000
_cell_angle_beta   90.00000000
_cell_angle_gamma   90.00000000
_symmetry_Int_Tables_number   1
_chemical_formula_structural   U2AsSe
_chemical_formula_sum   'U2 As1 Se1'
_cell_volume   103.77480073
_cell_formula_units_Z   1
loop_
 _symmetry_equiv_pos_site_id
 _symmetry_equiv_pos_as_xyz
  1  'x, y, z'
loop_
 _atom_site_type_symbol
 _atom_site_label
 _atom_site_symmetry_multiplicity
 _atom_site_fract_x
 _atom_site_fract_y
 _atom_site_fract_z
 _atom_site_occupancy
  U  U0  1  -0.00000000  0.00000000  0.50000000  1
  U  U1  1  0.50000000  0.50000000  -0.00000000  1
  As  As0  1  -0.00000000  0.00000000  -0.00000000  1
  Se  Se0  1  0.50000000  0.50000000  0.50000000  1
loop_
_geom_bond_atom_site_label_1
_geom_bond_atom_site_label_2
_geom_bond_distance
_geom_bond_site_symmetry_2
As0 U1 2.959699 1_455
As0 U1 2.959699 1_545
As0 U1 2.959699 1_555
As0 U1 2.959699 1_445
As0 U0 2.961671 1_554
As0 U0 2.961671 1_555
Se0 U0 2.959699 1_655
Se0 U0 2.959699 1_555
Se0 U0 2.959699 1_665
Se0 U0 2.959699 1_565
Se0 U1 2.961671 1_556
Se0 U1 2.961671 1_555
