# generated using pymatgen
data_Cu5(PO6)2
_symmetry_space_group_name_H-M   'P 1'
_cell_length_a   10.32997200
_cell_length_b   4.58887100
_cell_length_c   8.93676192
_cell_angle_alpha   87.16911028
_cell_angle_beta   90.00000000
_cell_angle_gamma   90.00000000
_symmetry_Int_Tables_number   1
_chemical_formula_structural   Cu5(PO6)2
_chemical_formula_sum   'Cu10 P4 O24'
_cell_volume   423.11153919
_cell_formula_units_Z   2
loop_
 _symmetry_equiv_pos_site_id
 _symmetry_equiv_pos_as_xyz
  1  'x, y, z'
loop_
 _atom_site_type_symbol
 _atom_site_label
 _atom_site_symmetry_multiplicity
 _atom_site_fract_x
 _atom_site_fract_y
 _atom_site_fract_z
 _atom_site_occupancy
  Cu  Cu0  1  0.50000000  0.00000000  0.50000000  1
  Cu  Cu1  1  0.00000000  0.00000000  0.00000000  1
  Cu  Cu2  1  0.43152200  0.95247900  0.86261400  1
  Cu  Cu3  1  0.93152200  0.04752100  0.63738600  1
  Cu  Cu4  1  0.56847800  0.04752100  0.13738600  1
  Cu  Cu5  1  0.06847800  0.95247900  0.36261400  1
  Cu  Cu6  1  0.23695500  0.02846200  0.63209800  1
  Cu  Cu7  1  0.73695500  0.97153800  0.86790200  1
  Cu  Cu8  1  0.76304500  0.97153800  0.36790200  1
  Cu  Cu9  1  0.26304500  0.02846200  0.13209800  1
  P  P0  1  0.19499000  0.51421700  0.88647000  1
  P  P1  1  0.69499000  0.48578300  0.61353000  1
  P  P2  1  0.80501000  0.48578300  0.11353000  1
  P  P3  1  0.30501000  0.51421700  0.38647000  1
  O  O0  1  0.37814400  0.69868800  0.50029400  1
  O  O1  1  0.87814400  0.30131200  0.99970600  1
  O  O2  1  0.62185600  0.30131200  0.49970600  1
  O  O3  1  0.12185600  0.69868800  0.00029400  1
  O  O4  1  0.28678000  0.73237700  0.78937100  1
  O  O5  1  0.78678000  0.26762300  0.71062900  1
  O  O6  1  0.71322000  0.26762300  0.21062900  1
  O  O7  1  0.21322000  0.73237700  0.28937100  1
  O  O8  1  0.11379200  0.33120200  0.78650900  1
  O  O9  1  0.61379200  0.66879800  0.71349100  1
  O  O10  1  0.88620800  0.66879800  0.21349100  1
  O  O11  1  0.38620800  0.33120200  0.28650900  1
  O  O12  1  0.29524100  0.32625900  0.97915800  1
  O  O13  1  0.79524100  0.67374100  0.52084200  1
  O  O14  1  0.70475900  0.67374100  0.02084200  1
  O  O15  1  0.20475900  0.32625900  0.47915800  1
  O  O16  1  0.07908000  0.85508000  0.57111200  1
  O  O17  1  0.57908000  0.14492000  0.92888800  1
  O  O18  1  0.92092000  0.14492000  0.42888800  1
  O  O19  1  0.42092000  0.85508000  0.07111200  1
  O  O20  1  0.41310700  0.13595900  0.66854700  1
  O  O21  1  0.91310700  0.86404100  0.83145300  1
  O  O22  1  0.58689300  0.86404100  0.33145300  1
  O  O23  1  0.08689300  0.13595900  0.16854700  1
loop_
_geom_bond_atom_site_label_1
_geom_bond_atom_site_label_2
_geom_bond_distance
_geom_bond_site_symmetry_2
Cu0 O2 1.869748 1_555
Cu0 O0 1.869748 1_545
Cu0 O20 1.885894 1_555
Cu0 O22 1.885894 1_545
Cu1 O3 1.869748 1_545
Cu1 O1 1.869748 1_454
Cu1 O23 1.885894 1_555
Cu1 O21 1.885894 1_444
Cu2 O17 1.872350 1_565
Cu2 O19 1.897729 1_556
Cu2 O20 1.899673 1_565
Cu2 O4 1.936350 1_555
Cu2 O12 2.486983 1_565
Cu3 O16 1.872350 1_645
Cu3 O18 1.897729 1_555
Cu3 O21 1.899673 1_545
Cu3 O5 1.936350 1_555
Cu3 O13 2.486983 1_545
Cu4 O19 1.872350 1_545
Cu4 O17 1.897729 1_554
Cu4 O22 1.899673 1_545
Cu4 O6 1.936350 1_555
Cu4 O14 2.486983 1_545
Cu5 O18 1.872350 1_465
Cu5 O16 1.897729 1_555
Cu5 O23 1.899673 1_565
Cu5 O7 1.936350 1_555
Cu5 O15 2.486983 1_565
Cu6 O16 1.905926 1_545
Cu6 O15 1.913555 1_555
Cu6 O20 1.917399 1_555
Cu6 O4 1.974283 1_545
Cu6 O8 2.375337 1_555
Cu6 O0 2.445553 1_545
Cu7 O17 1.905926 1_565
Cu7 O14 1.913555 1_556
Cu7 O21 1.917399 1_555
Cu7 O5 1.974283 1_565
Cu7 O9 2.375337 1_555
Cu7 O1 2.445553 1_565
Cu8 O18 1.905926 1_565
Cu8 O13 1.913555 1_555
Cu8 O22 1.917399 1_555
Cu8 O6 1.974283 1_565
Cu8 O10 2.375337 1_555
Cu8 O2 2.445553 1_565
Cu9 O19 1.905926 1_545
Cu9 O12 1.913555 1_554
Cu9 O23 1.917399 1_555
Cu9 O7 1.974283 1_545
Cu9 O11 2.375337 1_555
Cu9 O3 2.445553 1_545
O0 P3 1.551487 1_555
O1 P2 1.551487 1_556
O2 P1 1.551487 1_555
O3 P0 1.551487 1_554
O4 P0 1.602642 1_555
O5 P1 1.602642 1_555
O6 P2 1.602642 1_555
O7 P3 1.602642 1_555
O8 P0 1.510298 1_555
O9 P1 1.510298 1_555
O10 P2 1.510298 1_555
O11 P3 1.510298 1_555
O12 P0 1.559468 1_555
O13 P1 1.559468 1_555
O14 P2 1.559468 1_555
O15 P3 1.559468 1_555
