# generated using pymatgen
data_Nd2Mn3Cu9P7
_symmetry_space_group_name_H-M   'P 1'
_cell_length_a   9.52202874
_cell_length_b   9.52202874
_cell_length_c   3.82661400
_cell_angle_alpha   90.00000000
_cell_angle_beta   90.00000000
_cell_angle_gamma   120.00000515
_symmetry_Int_Tables_number   1
_chemical_formula_structural   Nd2Mn3Cu9P7
_chemical_formula_sum   'Nd2 Mn3 Cu9 P7'
_cell_volume   300.47216158
_cell_formula_units_Z   1
loop_
 _symmetry_equiv_pos_site_id
 _symmetry_equiv_pos_as_xyz
  1  'x, y, z'
loop_
 _atom_site_type_symbol
 _atom_site_label
 _atom_site_symmetry_multiplicity
 _atom_site_fract_x
 _atom_site_fract_y
 _atom_site_fract_z
 _atom_site_occupancy
  Nd  Nd0  1  0.33333300  0.66666700  0.00000000  1
  Nd  Nd1  1  0.00000000  0.00000000  0.50000000  1
  Mn  Mn0  1  0.75278300  0.20500500  0.50000000  1
  Mn  Mn1  1  0.45222200  0.24721700  0.50000000  1
  Mn  Mn2  1  0.79499500  0.54777800  0.50000000  1
  Cu  Cu0  1  0.71336400  0.94773700  0.00000000  1
  Cu  Cu1  1  0.23437300  0.28663600  0.00000000  1
  Cu  Cu2  1  0.05226300  0.76562700  0.00000000  1
  Cu  Cu3  1  0.94414200  0.44626400  0.00000000  1
  Cu  Cu4  1  0.50212100  0.05585800  0.00000000  1
  Cu  Cu5  1  0.55373600  0.49787900  0.00000000  1
  Cu  Cu6  1  0.09022200  0.37025700  0.50000000  1
  Cu  Cu7  1  0.28003500  0.90977800  0.50000000  1
  Cu  Cu8  1  0.62974300  0.71996500  0.50000000  1
  P  P0  1  0.95019100  0.20441900  0.00000000  1
  P  P1  1  0.25422800  0.04980900  0.00000000  1
  P  P2  1  0.79558100  0.74577200  0.00000000  1
  P  P3  1  0.07641400  0.62410900  0.50000000  1
  P  P4  1  0.54769500  0.92358600  0.50000000  1
  P  P5  1  0.37589100  0.45230500  0.50000000  1
  P  P6  1  0.66666700  0.33333300  0.00000000  1
loop_
_geom_bond_atom_site_label_1
_geom_bond_atom_site_label_2
_geom_bond_distance
_geom_bond_site_symmetry_2
Nd0 P3 2.969582 1_554
Nd0 P3 2.969582 1_555
Nd0 P4 2.969584 1_554
Nd0 P4 2.969584 1_555
Nd0 P5 2.969589 1_555
Nd0 P5 2.969589 1_554
Nd1 P2 2.932178 1_446
Nd1 P2 2.932178 1_445
Nd1 P1 2.932178 1_556
Nd1 P1 2.932178 1_555
Nd1 P0 2.932178 1_455
Nd1 P0 2.932178 1_456
Mn0 P4 2.400270 1_545
Mn0 P6 2.613098 1_555
Mn0 P6 2.613098 1_556
Mn0 P0 2.684144 1_556
Mn0 P0 2.684144 1_555
Mn1 P5 2.400271 1_555
Mn1 P6 2.613103 1_555
Mn1 P6 2.613103 1_556
Mn1 P1 2.684144 1_556
Mn1 P1 2.684144 1_555
Mn2 P3 2.400271 1_655
Mn2 P6 2.613103 1_555
Mn2 P6 2.613103 1_556
Mn2 P2 2.684144 1_555
Mn2 P2 2.684144 1_556
Cu0 P0 2.355301 1_565
Cu0 P2 2.411809 1_555
Cu0 P4 2.416480 1_554
Cu0 P4 2.416480 1_555
Cu0 Cu8 2.696615 1_555
Cu0 Cu8 2.696615 1_554
Cu0 Nd1 3.162202 1_664
Cu0 Nd1 3.162202 1_665
Cu0 Nd0 3.251582 1_555
Cu1 P1 2.355301 1_555
Cu1 P0 2.411809 1_455
Cu1 P5 2.416480 1_555
Cu1 P5 2.416480 1_554
Cu1 Cu6 2.696615 1_554
Cu1 Cu6 2.696615 1_555
Cu1 Nd1 3.162202 1_554
Cu1 Nd1 3.162202 1_555
Cu1 Nd0 3.251585 1_555
Cu2 P2 2.355301 1_455
Cu2 P1 2.411809 1_565
Cu2 P3 2.416480 1_554
Cu2 P3 2.416480 1_555
Cu2 Cu7 2.696615 1_554
Cu2 Cu7 2.696615 1_555
Cu2 Nd1 3.162202 1_564
Cu2 Nd1 3.162202 1_565
Cu2 Nd0 3.251576 1_555
Cu3 P6 2.301304 1_555
Cu3 P0 2.332188 1_555
Cu3 P3 2.445801 1_655
Cu3 P3 2.445801 1_654
Cu3 Cu6 2.669470 1_655
Cu3 Cu6 2.669470 1_654
Cu3 Nd0 3.218787 1_655
Cu4 P6 2.301306 1_555
Cu4 P1 2.332178 1_555
Cu4 P4 2.445806 1_544
Cu4 P4 2.445806 1_545
Cu4 Cu7 2.669465 1_545
Cu4 Cu7 2.669465 1_544
Cu4 Nd0 3.218787 1_545
Cu5 P6 2.301322 1_555
Cu5 P2 2.332183 1_555
Cu5 P5 2.445800 1_555
Cu5 P5 2.445800 1_554
Cu5 Cu8 2.669464 1_555
Cu5 Cu8 2.669464 1_554
Cu5 Nd0 3.218787 1_555
Cu6 P0 2.413853 1_455
Cu6 P0 2.413853 1_456
Cu6 P5 2.425784 1_555
Cu6 P3 2.485536 1_555
Cu6 Mn0 2.782825 1_455
Cu6 Nd1 3.184189 1_555
Cu6 Nd0 3.232951 1_555
Cu6 Nd0 3.232951 1_556
Cu7 P1 2.413853 1_566
Cu7 P1 2.413853 1_565
Cu7 P3 2.425784 1_555
Cu7 P4 2.485536 1_555
Cu7 Mn1 2.782825 1_565
Cu7 Nd1 3.184189 1_565
Cu7 Nd0 3.232946 1_555
Cu7 Nd0 3.232946 1_556
Cu8 P2 2.413853 1_556
Cu8 P2 2.413853 1_555
Cu8 P4 2.425784 1_555
Cu8 P5 2.485535 1_555
Cu8 Mn2 2.782826 1_555
Cu8 Nd1 3.184189 1_665
Cu8 Nd0 3.232954 1_556
Cu8 Nd0 3.232954 1_555
