# generated using pymatgen
data_Sr2NbCoO6
_symmetry_space_group_name_H-M   'P 1'
_cell_length_a   5.67841959
_cell_length_b   9.81968830
_cell_length_c   9.78421449
_cell_angle_alpha   80.08247484
_cell_angle_beta   90.00223510
_cell_angle_gamma   73.19420528
_symmetry_Int_Tables_number   1
_chemical_formula_structural   Sr2NbCoO6
_chemical_formula_sum   'Sr8 Nb4 Co4 O24'
_cell_volume   513.74625775
_cell_formula_units_Z   4
loop_
 _symmetry_equiv_pos_site_id
 _symmetry_equiv_pos_as_xyz
  1  'x, y, z'
loop_
 _atom_site_type_symbol
 _atom_site_label
 _atom_site_symmetry_multiplicity
 _atom_site_fract_x
 _atom_site_fract_y
 _atom_site_fract_z
 _atom_site_occupancy
  Sr  Sr0  1  0.49951400  0.99814800  0.49681900  1
  Sr  Sr1  1  0.25199400  0.50022700  0.74957600  1
  Sr  Sr2  1  0.00131900  0.99923900  0.00357400  1
  Sr  Sr3  1  0.74956300  0.50207400  0.24976600  1
  Sr  Sr4  1  0.87711900  0.24984900  0.62537900  1
  Sr  Sr5  1  0.62263900  0.75193900  0.87814800  1
  Sr  Sr6  1  0.37674500  0.24792300  0.12535100  1
  Sr  Sr7  1  0.12554400  0.75075900  0.37133300  1
  Nb  Nb0  1  0.31407400  0.37338700  0.43814400  1
  Nb  Nb1  1  0.06273100  0.87504000  0.68751600  1
  Nb  Nb2  1  0.81241100  0.37665300  0.93675300  1
  Nb  Nb3  1  0.56366800  0.87496900  0.18754200  1
  Co  Co0  1  0.68797500  0.62443800  0.56083100  1
  Co  Co1  1  0.43733100  0.12562800  0.81417900  1
  Co  Co2  1  0.18873800  0.62427300  0.06417300  1
  Co  Co3  1  0.93807900  0.12573100  0.31076200  1
  O  O0  1  0.48725900  0.50407500  0.49886700  1
  O  O1  1  0.26242800  0.99957700  0.74988500  1
  O  O2  1  0.99736600  0.49698900  0.99940200  1
  O  O3  1  0.75036000  0.99945300  0.25106900  1
  O  O4  1  0.11906400  0.25612900  0.37355400  1
  O  O5  1  0.88636000  0.75007800  0.62581200  1
  O  O6  1  0.61735000  0.24530000  0.87482800  1
  O  O7  1  0.37713400  0.75015400  0.12397200  1
  O  O8  1  0.00502500  0.00401900  0.49812400  1
  O  O9  1  0.74467600  0.49692100  0.75064600  1
  O  O10  1  0.50084500  0.99917800  0.00054100  1
  O  O11  1  0.24438100  0.50398700  0.24551600  1
  O  O12  1  0.36671300  0.25304900  0.62414400  1
  O  O13  1  0.13389600  0.74613300  0.87714200  1
  O  O14  1  0.87305000  0.24581700  0.12923000  1
  O  O15  1  0.62552600  0.75084000  0.37466600  1
  O  O16  1  0.61971000  0.25322400  0.37551400  1
  O  O17  1  0.38727600  0.75052800  0.62546000  1
  O  O18  1  0.11628400  0.24616000  0.87600900  1
  O  O19  1  0.87476100  0.75045400  0.12410200  1
  O  O20  1  0.98768900  0.50466400  0.49976800  1
  O  O21  1  0.76119800  0.99961700  0.74936500  1
  O  O22  1  0.49981300  0.49378200  0.00107900  1
  O  O23  1  0.25239200  0.99959300  0.25145800  1
loop_
_geom_bond_atom_site_label_1
_geom_bond_atom_site_label_2
_geom_bond_distance
_geom_bond_site_symmetry_2
Nb0 O16 1.960827 1_555
Nb0 O12 1.962796 1_555
Nb0 O4 1.984768 1_555
Nb0 O0 1.989815 1_555
Nb0 O11 2.056046 1_555
Nb0 O20 2.084826 1_455
Nb1 O21 1.959154 1_455
Nb1 O5 1.959344 1_455
Nb1 O8 2.024059 1_565
Nb1 O13 2.025605 1_555
Nb1 O1 2.052479 1_555
Nb1 O17 2.052487 1_555
Nb2 O2 1.960148 1_555
Nb2 O9 1.963395 1_555
Nb2 O22 1.984619 1_556
Nb2 O18 1.989088 1_655
Nb2 O14 2.055840 1_556
Nb2 O6 2.086373 1_555
Nb3 O10 1.985497 1_555
Nb3 O15 1.986158 1_555
Nb3 O19 2.003342 1_555
Nb3 O3 2.003859 1_555
Nb3 O7 2.006056 1_555
Nb3 O23 2.006449 1_555
Co0 O20 1.929087 1_555
Co0 O17 1.973753 1_555
Co0 O15 1.987669 1_555
Co0 O9 2.021518 1_555
Co0 O0 2.022199 1_555
Co0 O5 2.066206 1_555
Co1 O6 1.926867 1_555
Co1 O1 1.973133 1_545
Co1 O10 1.989419 1_546
Co1 O18 2.022210 1_555
Co1 O12 2.022862 1_555
Co1 O21 2.066371 1_545
Co2 O11 1.924936 1_555
Co2 O13 1.976815 1_554
Co2 O7 2.007114 1_555
Co2 O19 2.007660 1_455
Co2 O22 2.026562 1_555
Co2 O2 2.050108 1_454
Co3 O14 1.925691 1_555
Co3 O8 1.978901 1_655
Co3 O23 2.006415 1_645
Co3 O3 2.007171 1_545
Co3 O4 2.026110 1_655
Co3 O16 2.049764 1_555
O0 Sr7 2.779423 1_555
O0 Sr1 2.792996 1_555
O0 Sr3 2.856395 1_555
O0 Sr4 2.899098 1_555
O1 Sr5 2.782874 1_555
O1 Sr0 2.818650 1_555
O1 Sr4 2.858333 1_465
O1 Sr2 2.891318 1_556
O2 Sr3 2.825755 1_556
O2 Sr6 2.838321 1_656
O2 Sr1 2.840165 1_655
O2 Sr5 2.845904 1_555
O3 Sr0 2.794780 1_555
O3 Sr7 2.808681 1_655
O3 Sr2 2.809794 1_655
O3 Sr6 2.817767 1_565
O4 Sr3 2.786399 1_455
O4 Sr4 2.821184 1_455
O4 Sr6 2.836280 1_555
O4 Sr0 2.884778 1_545
O5 Sr1 2.797739 1_655
O5 Sr7 2.836192 1_655
O5 Sr0 2.863338 1_555
O5 Sr5 2.887631 1_555
O6 Sr6 2.806638 1_556
O6 Sr1 2.830623 1_555
O6 Sr2 2.843212 1_646
O6 Sr4 2.852282 1_555
O7 Sr5 2.780036 1_554
O7 Sr7 2.810493 1_555
O7 Sr3 2.812405 1_555
O7 Sr2 2.813070 1_555
O8 Sr0 2.791868 1_545
O8 Sr4 2.815418 1_455
O8 Sr7 2.875895 1_545
O8 Sr0 2.887771 1_445
O9 Sr1 2.788440 1_555
O9 Sr4 2.814844 1_555
O9 Sr1 2.890317 1_655
O9 Sr5 2.894854 1_555
O10 Sr5 2.799504 1_554
O10 Sr6 2.826008 1_565
O10 Sr2 2.836503 1_555
O10 Sr2 2.842229 1_655
O11 Sr7 2.815107 1_555
O11 Sr3 2.815534 1_455
O11 Sr6 2.862751 1_555
O11 Sr3 2.863514 1_555
O12 Sr4 2.789371 1_455
O12 Sr1 2.816681 1_555
O12 Sr4 2.889373 1_555
O12 Sr0 2.892848 1_545
O13 Sr5 2.792357 1_555
O13 Sr1 2.817848 1_555
O13 Sr2 2.872542 1_556
O13 Sr5 2.887214 1_455
O14 Sr6 2.812525 1_555
O14 Sr2 2.812563 1_645
O14 Sr6 2.866445 1_655
O14 Sr3 2.866466 1_555
O15 Sr0 2.798751 1_555
O15 Sr3 2.826698 1_555
O15 Sr7 2.839272 1_655
O15 Sr7 2.839525 1_555
O16 Sr6 2.825296 1_555
O16 Sr3 2.834633 1_555
O16 Sr4 2.838682 1_555
O16 Sr0 2.848327 1_545
O17 Sr0 2.782952 1_555
O17 Sr5 2.814459 1_555
O17 Sr1 2.858274 1_555
O17 Sr7 2.896038 1_555
O18 Sr2 2.781371 1_546
O18 Sr4 2.792804 1_455
O18 Sr6 2.858069 1_556
O18 Sr1 2.897790 1_555
O19 Sr5 2.795801 1_554
O19 Sr7 2.807846 1_655
O19 Sr2 2.810384 1_655
O19 Sr3 2.817038 1_555
O20 Sr3 2.802386 1_555
O20 Sr4 2.831064 1_555
O20 Sr7 2.842475 1_655
O20 Sr1 2.855453 1_655
O21 Sr4 2.802022 1_565
O21 Sr2 2.835337 1_656
O21 Sr5 2.858839 1_555
O21 Sr0 2.887613 1_555
O22 Sr6 2.785668 1_555
O22 Sr1 2.816770 1_554
O22 Sr3 2.841325 1_555
O22 Sr5 2.886459 1_554
O23 Sr0 2.776513 1_555
O23 Sr7 2.809921 1_555
O23 Sr2 2.814329 1_555
O23 Sr6 2.815454 1_565
