# generated using pymatgen
data_Zr3Cl
_symmetry_space_group_name_H-M   'P 1'
_cell_length_a   6.10730004
_cell_length_b   6.10730004
_cell_length_c   5.38918900
_cell_angle_alpha   90.00000000
_cell_angle_beta   90.00000000
_cell_angle_gamma   120.00000048
_symmetry_Int_Tables_number   1
_chemical_formula_structural   Zr3Cl
_chemical_formula_sum   'Zr6 Cl2'
_cell_volume   174.08147509
_cell_formula_units_Z   2
loop_
 _symmetry_equiv_pos_site_id
 _symmetry_equiv_pos_as_xyz
  1  'x, y, z'
loop_
 _atom_site_type_symbol
 _atom_site_label
 _atom_site_symmetry_multiplicity
 _atom_site_fract_x
 _atom_site_fract_y
 _atom_site_fract_z
 _atom_site_occupancy
  Zr  Zr0  1  0.16219500  0.32439000  0.25000000  1
  Zr  Zr1  1  0.67561000  0.83780500  0.25000000  1
  Zr  Zr2  1  0.16219500  0.83780500  0.25000000  1
  Zr  Zr3  1  0.83780500  0.67561000  0.75000000  1
  Zr  Zr4  1  0.32439000  0.16219500  0.75000000  1
  Zr  Zr5  1  0.83780500  0.16219500  0.75000000  1
  Cl  Cl0  1  0.33333300  0.66666700  0.75000000  1
  Cl  Cl1  1  0.66666700  0.33333300  0.25000000  1
loop_
_geom_bond_atom_site_label_1
_geom_bond_atom_site_label_2
_geom_bond_distance
_geom_bond_site_symmetry_2
Cl0 Zr3 3.054013 1_455
Cl0 Zr4 3.054013 1_565
Cl0 Zr5 3.054016 1_455
Cl0 Zr5 3.054016 1_565
Cl0 Zr4 3.054019 1_555
Cl0 Zr3 3.054019 1_555
Cl0 Zr2 3.246246 1_556
Cl0 Zr2 3.246246 1_555
Cl0 Zr1 3.246249 1_556
Cl0 Zr0 3.246249 1_555
Cl0 Zr0 3.246249 1_556
Cl0 Zr1 3.246249 1_555
Cl1 Zr1 3.054013 1_545
Cl1 Zr0 3.054013 1_655
Cl1 Zr2 3.054016 1_545
Cl1 Zr2 3.054016 1_655
Cl1 Zr0 3.054019 1_555
Cl1 Zr1 3.054019 1_555
Cl1 Zr5 3.246246 1_555
Cl1 Zr5 3.246246 1_554
Cl1 Zr4 3.246249 1_555
Cl1 Zr4 3.246249 1_554
Cl1 Zr3 3.246249 1_555
Cl1 Zr3 3.246249 1_554
