# generated using pymatgen
data_TaTeN
_symmetry_space_group_name_H-M   'P 1'
_cell_length_a   3.57332700
_cell_length_b   3.57332700
_cell_length_c   9.63213800
_cell_angle_alpha   90.00000000
_cell_angle_beta   90.00000000
_cell_angle_gamma   90.00000000
_symmetry_Int_Tables_number   1
_chemical_formula_structural   TaTeN
_chemical_formula_sum   'Ta2 Te2 N2'
_cell_volume   122.98955153
_cell_formula_units_Z   2
loop_
 _symmetry_equiv_pos_site_id
 _symmetry_equiv_pos_as_xyz
  1  'x, y, z'
loop_
 _atom_site_type_symbol
 _atom_site_label
 _atom_site_symmetry_multiplicity
 _atom_site_fract_x
 _atom_site_fract_y
 _atom_site_fract_z
 _atom_site_occupancy
  Ta  Ta0  1  0.50000000  0.00000000  0.11284900  1
  Ta  Ta1  1  0.00000000  0.50000000  0.88715100  1
  Te  Te0  1  0.50000000  0.00000000  0.70301900  1
  Te  Te1  1  0.00000000  0.50000000  0.29698100  1
  N  N0  1  0.50000000  0.50000000  0.00000000  1
  N  N1  1  0.00000000  0.00000000  0.00000000  1
loop_
_geom_bond_atom_site_label_1
_geom_bond_atom_site_label_2
_geom_bond_distance
_geom_bond_site_symmetry_2
Ta0 Te1 3.087059 1_655
Ta0 Te1 3.087059 1_645
Ta0 Te1 3.087059 1_545
Ta0 Te1 3.087059 1_555
Ta1 Te0 3.087059 1_465
Ta1 Te0 3.087059 1_565
Ta1 Te0 3.087059 1_455
Ta1 Te0 3.087059 1_555
N0 Ta1 2.091336 1_654
N0 Ta1 2.091336 1_554
N0 Ta0 2.091336 1_565
N0 Ta0 2.091336 1_555
N1 Ta1 2.091336 1_544
N1 Ta1 2.091336 1_554
N1 Ta0 2.091336 1_555
N1 Ta0 2.091336 1_455
