# generated using pymatgen
data_FeSnRh2
_symmetry_space_group_name_H-M   'P 1'
_cell_length_a   4.13074877
_cell_length_b   4.13074877
_cell_length_c   4.56721273
_cell_angle_alpha   116.88605784
_cell_angle_beta   116.88605784
_cell_angle_gamma   90.00000000
_symmetry_Int_Tables_number   1
_chemical_formula_structural   FeSnRh2
_chemical_formula_sum   'Fe1 Sn1 Rh2'
_cell_volume   59.91036019
_cell_formula_units_Z   1
loop_
 _symmetry_equiv_pos_site_id
 _symmetry_equiv_pos_as_xyz
  1  'x, y, z'
loop_
 _atom_site_type_symbol
 _atom_site_label
 _atom_site_symmetry_multiplicity
 _atom_site_fract_x
 _atom_site_fract_y
 _atom_site_fract_z
 _atom_site_occupancy
  Fe  Fe0  1  0.00000000  -0.00000000  -0.00000000  1
  Sn  Sn0  1  0.50000000  0.50000000  -0.00000000  1
  Rh  Rh0  1  0.75000000  0.25000000  0.50000000  1
  Rh  Rh1  1  0.25000000  0.75000000  0.50000000  1
loop_
_geom_bond_atom_site_label_1
_geom_bond_atom_site_label_2
_geom_bond_distance
_geom_bond_site_symmetry_2
Fe0 Rh1 2.710672 1_544
Fe0 Rh1 2.710672 1_444
Fe0 Rh0 2.710672 1_455
Fe0 Rh1 2.710672 1_545
Fe0 Rh0 2.710672 1_555
Fe0 Rh0 2.710672 1_454
Fe0 Rh1 2.710672 1_555
Fe0 Rh0 2.710672 1_444
Fe0 Sn0 2.920880 1_455
Fe0 Sn0 2.920880 1_545
Fe0 Sn0 2.920880 1_555
Fe0 Sn0 2.920880 1_445
Rh0 Sn0 2.710672 1_656
Rh0 Sn0 2.710672 1_545
Rh0 Sn0 2.710672 1_555
Rh0 Sn0 2.710672 1_556
Rh0 Rh1 2.920880 1_555
Rh0 Rh1 2.920880 1_655
Rh0 Rh1 2.920880 1_545
Rh0 Rh1 2.920880 1_645
Rh1 Sn0 2.710672 1_566
Rh1 Sn0 2.710672 1_555
Rh1 Sn0 2.710672 1_455
Rh1 Sn0 2.710672 1_556
