# generated using pymatgen
data_K2MoSe2O11
_symmetry_space_group_name_H-M   'P 1'
_cell_length_a   12.34125200
_cell_length_b   9.42488100
_cell_length_c   10.81710779
_cell_angle_alpha   67.50784243
_cell_angle_beta   90.00000000
_cell_angle_gamma   90.00000000
_symmetry_Int_Tables_number   1
_chemical_formula_structural   K2MoSe2O11
_chemical_formula_sum   'K8 Mo4 Se8 O44'
_cell_volume   1162.48194724
_cell_formula_units_Z   4
loop_
 _symmetry_equiv_pos_site_id
 _symmetry_equiv_pos_as_xyz
  1  'x, y, z'
loop_
 _atom_site_type_symbol
 _atom_site_label
 _atom_site_symmetry_multiplicity
 _atom_site_fract_x
 _atom_site_fract_y
 _atom_site_fract_z
 _atom_site_occupancy
  K  K0  1  0.85248000  0.62472500  0.67469400  1
  K  K1  1  0.35248000  0.87527500  0.32530600  1
  K  K2  1  0.14752000  0.37527500  0.32530600  1
  K  K3  1  0.64752000  0.12472500  0.67469400  1
  K  K4  1  0.14166800  0.95788100  0.74599800  1
  K  K5  1  0.64166800  0.54211900  0.25400200  1
  K  K6  1  0.85833200  0.04211900  0.25400200  1
  K  K7  1  0.35833200  0.45788100  0.74599800  1
  Mo  Mo0  1  0.15177400  0.14209300  0.06480700  1
  Mo  Mo1  1  0.65177400  0.35790700  0.93519300  1
  Mo  Mo2  1  0.84822600  0.85790700  0.93519300  1
  Mo  Mo3  1  0.34822600  0.64209300  0.06480700  1
  Se  Se0  1  0.12878000  0.52251300  0.90699900  1
  Se  Se1  1  0.62878000  0.97748700  0.09300100  1
  Se  Se2  1  0.87122000  0.47748700  0.09300100  1
  Se  Se3  1  0.37122000  0.02251300  0.90699900  1
  Se  Se4  1  0.11567500  0.76628000  0.16591400  1
  Se  Se5  1  0.61567500  0.73372000  0.83408600  1
  Se  Se6  1  0.88432500  0.23372000  0.83408600  1
  Se  Se7  1  0.38432500  0.26628000  0.16591400  1
  O  O0  1  0.79317200  0.64837300  0.06391000  1
  O  O1  1  0.29317200  0.85162700  0.93609000  1
  O  O2  1  0.20682800  0.35162700  0.93609000  1
  O  O3  1  0.70682800  0.14837300  0.06391000  1
  O  O4  1  0.75545200  0.31808900  0.78701000  1
  O  O5  1  0.25545200  0.18191100  0.21299000  1
  O  O6  1  0.24454800  0.68191100  0.21299000  1
  O  O7  1  0.74454800  0.81808900  0.78701000  1
  O  O8  1  0.64304600  0.56782800  0.78966300  1
  O  O9  1  0.14304600  0.93217200  0.21033700  1
  O  O10  1  0.35695400  0.43217200  0.21033700  1
  O  O11  1  0.85695400  0.06782800  0.78966300  1
  O  O12  1  0.89765700  0.91803600  0.05835800  1
  O  O13  1  0.39765700  0.58196400  0.94164200  1
  O  O14  1  0.10234300  0.08196400  0.94164200  1
  O  O15  1  0.60234300  0.41803600  0.05835800  1
  O  O16  1  0.18049500  0.57576200  0.03203700  1
  O  O17  1  0.68049500  0.92423800  0.96796300  1
  O  O18  1  0.81950500  0.42423800  0.96796300  1
  O  O19  1  0.31950500  0.07576200  0.03203700  1
  O  O20  1  0.96006000  0.77603500  0.88517600  1
  O  O21  1  0.46006000  0.72396500  0.11482400  1
  O  O22  1  0.03994000  0.22396500  0.11482400  1
  O  O23  1  0.53994000  0.27603500  0.88517600  1
  O  O24  1  0.18018400  0.64547400  0.76086500  1
  O  O25  1  0.68018400  0.85452600  0.23913500  1
  O  O26  1  0.81981600  0.35452600  0.23913500  1
  O  O27  1  0.31981600  0.14547400  0.76086500  1
  O  O28  1  0.95821300  0.34899900  0.70544400  1
  O  O29  1  0.45821300  0.15100100  0.29455600  1
  O  O30  1  0.04178700  0.65100100  0.29455600  1
  O  O31  1  0.54178700  0.84899900  0.70544400  1
  O  O32  1  0.06729500  0.79150300  0.50451200  1
  O  O33  1  0.56729500  0.70849700  0.49548800  1
  O  O34  1  0.93270500  0.20849700  0.49548800  1
  O  O35  1  0.43270500  0.29150300  0.50451200  1
  O  O36  1  0.90634900  0.07408700  0.51782400  1
  O  O37  1  0.40634900  0.42591300  0.48217600  1
  O  O38  1  0.09365100  0.92591300  0.48217600  1
  O  O39  1  0.59365100  0.57408700  0.51782400  1
  O  O40  1  0.83589100  0.70837100  0.36398100  1
  O  O41  1  0.33589100  0.79162900  0.63601900  1
  O  O42  1  0.16410900  0.29162900  0.63601900  1
  O  O43  1  0.66410900  0.20837100  0.36398100  1
loop_
_geom_bond_atom_site_label_1
_geom_bond_atom_site_label_2
_geom_bond_distance
_geom_bond_site_symmetry_2
K0 O28 2.811610 1_555
K0 O8 2.829221 1_555
K0 O7 2.875006 1_555
K0 O4 2.928420 1_555
K0 O18 3.035353 1_555
K0 O40 3.151594 1_555
K0 O32 3.267093 1_655
K0 O20 3.385929 1_555
K1 O29 2.811610 1_565
K1 O9 2.829221 1_555
K1 O6 2.875006 1_555
K1 O5 2.928420 1_565
K1 O19 3.035353 1_565
K1 O41 3.151594 1_555
K1 O33 3.267093 1_555
K1 O21 3.385929 1_555
K2 O30 2.811610 1_555
K2 O10 2.829221 1_555
K2 O5 2.875006 1_555
K2 O6 2.928420 1_555
K2 O16 3.035353 1_555
K2 O42 3.151594 1_555
K2 O34 3.267093 1_455
K2 O22 3.385929 1_555
K3 O31 2.811610 1_545
K3 O11 2.829221 1_555
K3 O4 2.875006 1_555
K3 O7 2.928420 1_545
K3 O17 3.035353 1_545
K3 O43 3.151594 1_555
K3 O35 3.267093 1_555
K3 O23 3.385929 1_555
K4 O1 2.674221 1_555
K4 O14 2.824100 1_565
K4 O27 2.864103 1_565
K4 O20 2.872807 1_455
K4 O42 2.919458 1_565
K4 O24 2.925577 1_555
K4 O38 3.040384 1_555
K4 O41 3.322965 1_555
K5 O0 2.674221 1_555
K5 O15 2.824100 1_555
K5 O26 2.864103 1_555
K5 O21 2.872807 1_555
K5 O43 2.919458 1_555
K5 O25 2.925577 1_555
K5 O39 3.040384 1_555
K5 O40 3.322965 1_555
K6 O3 2.674221 1_555
K6 O12 2.824100 1_545
K6 O25 2.864103 1_545
K6 O22 2.872807 1_655
K6 O40 2.919458 1_545
K6 O26 2.925577 1_555
K6 O36 3.040384 1_555
K6 O43 3.322965 1_555
K7 O2 2.674221 1_555
K7 O13 2.824100 1_555
K7 O24 2.864103 1_555
K7 O23 2.872807 1_555
K7 O41 2.919458 1_555
K7 O27 2.925577 1_555
K7 O37 3.040384 1_555
K7 O42 3.322965 1_555
Mo0 O14 1.745273 1_554
Mo0 O22 1.764211 1_555
Mo0 O9 2.005280 1_545
Mo0 O2 2.048519 1_554
Mo0 O5 2.192617 1_555
Mo0 O19 2.229569 1_555
Mo1 O15 1.745273 1_556
Mo1 O23 1.764211 1_555
Mo1 O8 2.005280 1_555
Mo1 O3 2.048519 1_556
Mo1 O4 2.192617 1_555
Mo1 O18 2.229569 1_555
Mo2 O12 1.745273 1_556
Mo2 O20 1.764211 1_555
Mo2 O11 2.005280 1_565
Mo2 O0 2.048519 1_556
Mo2 O7 2.192617 1_555
Mo2 O17 2.229569 1_555
Mo3 O13 1.745273 1_554
Mo3 O21 1.764211 1_555
Mo3 O10 2.005280 1_555
Mo3 O1 2.048519 1_554
Mo3 O6 2.192617 1_555
Mo3 O16 2.229569 1_555
O0 Se2 1.798052 1_555
O1 Se3 1.798052 1_565
O2 Se0 1.798052 1_555
O3 Se1 1.798052 1_545
O4 Se6 1.763898 1_555
O5 Se7 1.763898 1_555
O6 Se4 1.763898 1_555
O7 Se5 1.763898 1_555
O8 Se5 1.834236 1_555
O9 Se4 1.834236 1_555
O10 Se7 1.834236 1_555
O11 Se6 1.834236 1_555
O16 Se0 1.734345 1_554
O17 Se1 1.734345 1_556
O18 Se2 1.734345 1_556
O19 Se3 1.734345 1_554
O24 Se0 1.686007 1_555
O25 Se1 1.686007 1_555
O26 Se2 1.686007 1_555
O27 Se3 1.686007 1_555
O28 Se6 1.670799 1_555
O29 Se7 1.670799 1_555
O30 Se4 1.670799 1_555
O31 Se5 1.670799 1_555
O32 O38 1.238859 1_555
O33 O39 1.238859 1_555
O34 O36 1.238859 1_555
O35 O37 1.238859 1_555
