# generated using pymatgen
data_K2CaS2O9
_symmetry_space_group_name_H-M   'P 1'
_cell_length_a   6.25579694
_cell_length_b   7.12831100
_cell_length_c   10.10504678
_cell_angle_alpha   90.00000000
_cell_angle_beta   106.22026088
_cell_angle_gamma   90.00000000
_symmetry_Int_Tables_number   1
_chemical_formula_structural   K2CaS2O9
_chemical_formula_sum   'K4 Ca2 S4 O18'
_cell_volume   432.68021528
_cell_formula_units_Z   2
loop_
 _symmetry_equiv_pos_site_id
 _symmetry_equiv_pos_as_xyz
  1  'x, y, z'
loop_
 _atom_site_type_symbol
 _atom_site_label
 _atom_site_symmetry_multiplicity
 _atom_site_fract_x
 _atom_site_fract_y
 _atom_site_fract_z
 _atom_site_occupancy
  K  K0  1  0.19319900  0.00562800  0.84140900  1
  K  K1  1  0.80680100  0.99437200  0.15859100  1
  K  K2  1  0.80680100  0.50562800  0.15859100  1
  K  K3  1  0.19319900  0.49437200  0.84140900  1
  Ca  Ca0  1  0.34171800  0.25000000  0.45912500  1
  Ca  Ca1  1  0.65828200  0.75000000  0.54087500  1
  S  S0  1  0.84930200  0.25000000  0.49396900  1
  S  S1  1  0.15069800  0.75000000  0.50603100  1
  S  S2  1  0.27170200  0.25000000  0.13998300  1
  S  S3  1  0.72829800  0.75000000  0.86001700  1
  O  O0  1  0.04040200  0.25000000  0.62058400  1
  O  O1  1  0.95959800  0.75000000  0.37941600  1
  O  O2  1  0.29602500  0.58239600  0.51161700  1
  O  O3  1  0.70397500  0.41760400  0.48838300  1
  O  O4  1  0.70397500  0.08239600  0.48838300  1
  O  O5  1  0.29602500  0.91760400  0.51161700  1
  O  O6  1  0.47583500  0.25000000  0.71819900  1
  O  O7  1  0.52416500  0.75000000  0.28180100  1
  O  O8  1  0.05234600  0.25000000  0.03281600  1
  O  O9  1  0.94765400  0.75000000  0.96718400  1
  O  O10  1  0.94076600  0.25000000  0.37211100  1
  O  O11  1  0.05923400  0.75000000  0.62788900  1
  O  O12  1  0.28865400  0.08134900  0.23183300  1
  O  O13  1  0.71134600  0.91865100  0.76816700  1
  O  O14  1  0.71134600  0.58134900  0.76816700  1
  O  O15  1  0.28865400  0.41865100  0.23183300  1
  O  O16  1  0.45292900  0.25000000  0.07088700  1
  O  O17  1  0.54707100  0.75000000  0.92911300  1
loop_
_geom_bond_atom_site_label_1
_geom_bond_atom_site_label_2
_geom_bond_distance
_geom_bond_site_symmetry_2
K0 O11 2.769101 1_545
K0 O0 2.781340 1_555
K0 O17 2.812557 1_545
K0 O9 2.895852 1_445
K0 O8 2.916163 1_556
K0 O13 2.961800 1_445
K0 O6 2.990084 1_555
K0 O16 2.991117 1_556
K1 O10 2.769101 1_565
K1 O1 2.781340 1_555
K1 O16 2.812557 1_565
K1 O8 2.895852 1_665
K1 O9 2.916163 1_554
K1 O12 2.961800 1_665
K1 O7 2.990084 1_555
K1 O17 2.991117 1_554
K2 O10 2.769101 1_555
K2 O1 2.781340 1_555
K2 O16 2.812557 1_555
K2 O8 2.895852 1_655
K2 O9 2.916163 1_554
K2 O15 2.961800 1_655
K2 O7 2.990084 1_555
K2 O17 2.991117 1_554
K3 O11 2.769101 1_555
K3 O0 2.781340 1_555
K3 O17 2.812557 1_555
K3 O9 2.895852 1_455
K3 O8 2.916163 1_556
K3 O14 2.961800 1_455
K3 O6 2.990084 1_555
K3 O16 2.991117 1_556
Ca0 O10 2.415049 1_455
Ca0 O5 2.462100 1_545
Ca0 O2 2.462100 1_555
Ca0 O3 2.505231 1_555
Ca0 O4 2.505231 1_555
Ca0 O6 2.516055 1_555
Ca0 O15 2.530771 1_555
Ca0 O12 2.530771 1_555
Ca0 O0 2.816593 1_555
Ca1 O11 2.415049 1_655
Ca1 O4 2.462100 1_565
Ca1 O3 2.462100 1_555
Ca1 O5 2.505231 1_555
Ca1 O2 2.505231 1_555
Ca1 O7 2.516055 1_555
Ca1 O14 2.530771 1_555
Ca1 O13 2.530771 1_555
Ca1 O1 2.816593 1_555
O0 S0 1.487167 1_455
O1 S1 1.487167 1_655
O2 S1 1.492794 1_555
O3 S0 1.492794 1_555
O4 S0 1.492794 1_555
O5 S1 1.492794 1_555
O8 S2 1.491844 1_555
O9 S3 1.491844 1_555
O10 S0 1.495763 1_555
O11 S1 1.495763 1_555
O12 S2 1.504325 1_555
O13 S3 1.504325 1_555
O14 S3 1.504325 1_555
O15 S2 1.504325 1_555
O16 S2 1.488306 1_555
O17 S3 1.488306 1_555
