# generated using pymatgen
data_PuAlFe
_symmetry_space_group_name_H-M   'P 1'
_cell_length_a   5.24366969
_cell_length_b   5.24366969
_cell_length_c   8.54590900
_cell_angle_alpha   90.00000000
_cell_angle_beta   90.00000000
_cell_angle_gamma   117.39415891
_symmetry_Int_Tables_number   1
_chemical_formula_structural   PuAlFe
_chemical_formula_sum   'Pu4 Al4 Fe4'
_cell_volume   208.62892995
_cell_formula_units_Z   4
loop_
 _symmetry_equiv_pos_site_id
 _symmetry_equiv_pos_as_xyz
  1  'x, y, z'
loop_
 _atom_site_type_symbol
 _atom_site_label
 _atom_site_symmetry_multiplicity
 _atom_site_fract_x
 _atom_site_fract_y
 _atom_site_fract_z
 _atom_site_occupancy
  Pu  Pu0  1  0.66099300  0.33900700  0.29433300  1
  Pu  Pu1  1  0.33653400  0.66346600  0.17113200  1
  Pu  Pu2  1  0.33653400  0.66346600  0.82886800  1
  Pu  Pu3  1  0.66099300  0.33900700  0.70566700  1
  Al  Al0  1  0.00562400  0.99437600  0.24449500  1
  Al  Al1  1  0.00562400  0.99437600  0.75550500  1
  Al  Al2  1  0.65022300  0.83887900  0.50000000  1
  Al  Al3  1  0.16112100  0.34977700  0.50000000  1
  Fe  Fe0  1  0.15810000  0.84190000  0.50000000  1
  Fe  Fe1  1  0.33540400  0.15434900  0.00000000  1
  Fe  Fe2  1  0.84565100  0.66459600  0.00000000  1
  Fe  Fe3  1  0.84096600  0.15903400  0.00000000  1
loop_
_geom_bond_atom_site_label_1
_geom_bond_atom_site_label_2
_geom_bond_distance
_geom_bond_site_symmetry_2
Pu0 Pu1 3.092155 1_555
Pu0 Pu1 3.317410 1_545
Pu0 Pu1 3.317410 1_655
Pu0 Pu3 3.515223 1_555
Pu1 Pu2 2.924957 1_554
Pu2 Pu3 3.092155 1_555
Pu2 Pu3 3.317410 1_565
Pu2 Pu3 3.317410 1_455
Al0 Fe3 2.557869 1_465
Al0 Fe0 2.575759 1_555
Al0 Fe2 2.593235 1_455
Al0 Fe1 2.593235 1_565
Al0 Al2 2.739950 1_455
Al0 Al3 2.739950 1_565
Al0 Pu1 3.030749 1_555
Al0 Pu0 3.089030 1_455
Al0 Pu0 3.089030 1_565
Al0 Pu0 3.117375 1_465
Al0 Pu1 3.179818 1_455
Al0 Pu1 3.179818 1_565
Al1 Fe3 2.557869 1_466
Al1 Fe0 2.575759 1_555
Al1 Fe2 2.593235 1_456
Al1 Fe1 2.593235 1_566
Al1 Al2 2.739950 1_455
Al1 Al3 2.739950 1_565
Al1 Pu2 3.030749 1_555
Al1 Pu3 3.089030 1_455
Al1 Pu3 3.089030 1_565
Al1 Pu3 3.117375 1_465
Al1 Pu2 3.179818 1_455
Al1 Pu2 3.179818 1_565
Al2 Fe0 2.587857 1_555
Al2 Fe0 2.655888 1_655
Al2 Al3 2.665034 1_555
Al2 Al3 2.783796 1_665
Al2 Pu3 3.135863 1_565
Al2 Pu0 3.135863 1_565
Al2 Pu2 3.171465 1_555
Al2 Pu1 3.171465 1_555
Al2 Pu3 3.177909 1_555
Al2 Pu0 3.177909 1_555
Al3 Fe0 2.587857 1_555
Al3 Fe0 2.655888 1_545
Al3 Pu3 3.135863 1_455
Al3 Pu0 3.135863 1_455
Al3 Pu2 3.171465 1_555
Al3 Pu1 3.171465 1_555
Al3 Pu3 3.177909 1_555
Al3 Pu0 3.177909 1_555
Fe0 Pu2 3.233458 1_555
Fe0 Pu1 3.233458 1_555
Fe0 Pu3 3.242269 1_565
Fe0 Pu0 3.242269 1_565
Fe0 Pu3 3.242269 1_455
Fe0 Pu0 3.242269 1_455
Fe1 Fe3 2.604064 1_455
Fe1 Fe3 2.639787 1_555
Fe1 Fe2 2.668581 1_445
Fe1 Fe2 2.780249 1_555
Fe1 Pu0 2.942463 1_555
Fe1 Pu3 2.942463 1_554
Fe1 Pu1 2.962859 1_545
Fe1 Pu2 2.962859 1_544
Fe1 Pu1 3.041596 1_555
Fe1 Pu2 3.041596 1_554
Fe2 Fe3 2.604064 1_565
Fe2 Fe3 2.639787 1_555
Fe2 Pu0 2.942463 1_555
Fe2 Pu3 2.942463 1_554
Fe2 Pu1 2.962859 1_655
Fe2 Pu2 2.962859 1_654
Fe2 Pu1 3.041596 1_555
Fe2 Pu2 3.041596 1_554
Fe3 Pu0 2.987928 1_555
Fe3 Pu3 2.987928 1_554
Fe3 Pu1 3.092387 1_545
Fe3 Pu1 3.092387 1_655
Fe3 Pu2 3.092387 1_544
Fe3 Pu2 3.092387 1_654
