# generated using pymatgen
data_Ho2VPO8
_symmetry_space_group_name_H-M   'P 1'
_cell_length_a   5.88434654
_cell_length_b   5.88434654
_cell_length_c   5.88434654
_cell_angle_alpha   105.99429773
_cell_angle_beta   105.99429773
_cell_angle_gamma   116.67419709
_symmetry_Int_Tables_number   1
_chemical_formula_structural   Ho2VPO8
_chemical_formula_sum   'Ho2 V1 P1 O8'
_cell_volume   154.96434215
_cell_formula_units_Z   1
loop_
 _symmetry_equiv_pos_site_id
 _symmetry_equiv_pos_as_xyz
  1  'x, y, z'
loop_
 _atom_site_type_symbol
 _atom_site_label
 _atom_site_symmetry_multiplicity
 _atom_site_fract_x
 _atom_site_fract_y
 _atom_site_fract_z
 _atom_site_occupancy
  Ho  Ho0  1  0.00000000  0.00000000  0.00000000  1
  Ho  Ho1  1  0.25000000  0.75000000  0.50000000  1
  V  V0  1  0.50000000  0.50000000  0.00000000  1
  P  P0  1  0.75000000  0.25000000  0.50000000  1
  O  O0  1  0.90799700  0.58031100  0.67231400  1
  O  O1  1  0.49600100  0.68202300  0.81397700  1
  O  O2  1  0.86804600  0.68202300  0.18602300  1
  O  O3  1  0.90799700  0.23568300  0.32768600  1
  O  O4  1  0.31797700  0.13195400  0.81397700  1
  O  O5  1  0.76431700  0.09200300  0.67231400  1
  O  O6  1  0.41968900  0.09200300  0.32768600  1
  O  O7  1  0.31797700  0.50399900  0.18602300  1
loop_
_geom_bond_atom_site_label_1
_geom_bond_atom_site_label_2
_geom_bond_distance
_geom_bond_site_symmetry_2
Ho0 O7 2.365316 1_555
Ho0 O1 2.365316 1_444
Ho0 O2 2.365321 1_445
Ho0 O4 2.365321 1_554
Ho0 O3 2.389590 1_455
Ho0 O5 2.389590 1_454
Ho0 O6 2.389590 1_555
Ho0 O0 2.389590 1_444
Ho1 O4 2.263214 1_565
Ho1 O2 2.263214 1_455
Ho1 O1 2.263216 1_555
Ho1 O7 2.263216 1_555
Ho1 O0 2.439965 1_455
Ho1 O5 2.439965 1_565
Ho1 O6 2.439965 1_565
Ho1 O3 2.439965 1_455
O0 P0 1.562788 1_555
O1 V0 1.732203 1_556
O2 V0 1.732203 1_555
O3 P0 1.562788 1_555
O4 V0 1.732203 1_556
O5 P0 1.562788 1_555
O6 P0 1.562788 1_555
O7 V0 1.732203 1_555
