# generated using pymatgen
data_H12WC2(S2N)2
_symmetry_space_group_name_H-M   'P 1'
_cell_length_a   7.24544800
_cell_length_b   9.65779300
_cell_length_c   16.23712200
_cell_angle_alpha   90.00000000
_cell_angle_beta   90.00000000
_cell_angle_gamma   90.00000000
_symmetry_Int_Tables_number   1
_chemical_formula_structural   H12WC2(S2N)2
_chemical_formula_sum   'H48 W4 C8 S16 N8'
_cell_volume   1136.19321234
_cell_formula_units_Z   4
loop_
 _symmetry_equiv_pos_site_id
 _symmetry_equiv_pos_as_xyz
  1  'x, y, z'
loop_
 _atom_site_type_symbol
 _atom_site_label
 _atom_site_symmetry_multiplicity
 _atom_site_fract_x
 _atom_site_fract_y
 _atom_site_fract_z
 _atom_site_occupancy
  H  H0  1  0.13511400  0.88450800  0.60551900  1
  H  H1  1  0.36488600  0.38450800  0.89448100  1
  H  H2  1  0.63511400  0.11549200  0.39448100  1
  H  H3  1  0.86488600  0.61549200  0.10551900  1
  H  H4  1  0.86488600  0.11549200  0.39448100  1
  H  H5  1  0.63511400  0.61549200  0.10551900  1
  H  H6  1  0.36488600  0.88450800  0.60551900  1
  H  H7  1  0.13511400  0.38450800  0.89448100  1
  H  H8  1  0.25000000  0.03782900  0.59466700  1
  H  H9  1  0.25000000  0.53782900  0.90533300  1
  H  H10  1  0.75000000  0.96217100  0.40533300  1
  H  H11  1  0.75000000  0.46217100  0.09466700  1
  H  H12  1  0.12715300  0.02158900  0.73168400  1
  H  H13  1  0.37284700  0.52158900  0.76831600  1
  H  H14  1  0.62715300  0.97841100  0.26831600  1
  H  H15  1  0.87284700  0.47841100  0.23168400  1
  H  H16  1  0.87284700  0.97841100  0.26831600  1
  H  H17  1  0.62715300  0.47841100  0.23168400  1
  H  H18  1  0.37284700  0.02158900  0.73168400  1
  H  H19  1  0.12715300  0.52158900  0.76831600  1
  H  H20  1  0.25000000  0.86224800  0.74617300  1
  H  H21  1  0.25000000  0.36224800  0.75382700  1
  H  H22  1  0.75000000  0.13775200  0.25382700  1
  H  H23  1  0.75000000  0.63775200  0.24617300  1
  H  H24  1  0.13482000  0.60835700  0.43003200  1
  H  H25  1  0.36518000  0.10835700  0.06996800  1
  H  H26  1  0.63482000  0.39164300  0.56996800  1
  H  H27  1  0.86518000  0.89164300  0.93003200  1
  H  H28  1  0.86518000  0.39164300  0.56996800  1
  H  H29  1  0.63482000  0.89164300  0.93003200  1
  H  H30  1  0.36518000  0.60835700  0.43003200  1
  H  H31  1  0.13482000  0.10835700  0.06996800  1
  H  H32  1  0.25000000  0.75814500  0.43727500  1
  H  H33  1  0.25000000  0.25814500  0.06272500  1
  H  H34  1  0.75000000  0.24185500  0.56272500  1
  H  H35  1  0.75000000  0.74185500  0.93727500  1
  H  H36  1  0.37385100  0.73011300  0.29868300  1
  H  H37  1  0.12614900  0.23011300  0.20131700  1
  H  H38  1  0.87385100  0.26988700  0.70131700  1
  H  H39  1  0.62614900  0.76988700  0.79868300  1
  H  H40  1  0.62614900  0.26988700  0.70131700  1
  H  H41  1  0.87385100  0.76988700  0.79868300  1
  H  H42  1  0.12614900  0.73011300  0.29868300  1
  H  H43  1  0.37385100  0.23011300  0.20131700  1
  H  H44  1  0.25000000  0.56957800  0.29191000  1
  H  H45  1  0.25000000  0.06957800  0.20809000  1
  H  H46  1  0.75000000  0.43042200  0.70809000  1
  H  H47  1  0.75000000  0.93042200  0.79191000  1
  W  W0  1  0.25000000  0.24150100  0.44964800  1
  W  W1  1  0.25000000  0.74150100  0.05035200  1
  W  W2  1  0.75000000  0.75849900  0.55035200  1
  W  W3  1  0.75000000  0.25849900  0.94964800  1
  C  C0  1  0.25000000  0.96242700  0.71446500  1
  C  C1  1  0.25000000  0.46242700  0.78553500  1
  C  C2  1  0.75000000  0.03757300  0.28553500  1
  C  C3  1  0.75000000  0.53757300  0.21446500  1
  C  C4  1  0.25000000  0.67409800  0.31807100  1
  C  C5  1  0.25000000  0.17409800  0.18192900  1
  C  C6  1  0.75000000  0.32590200  0.68192900  1
  C  C7  1  0.75000000  0.82590200  0.81807100  1
  S  S0  1  0.25000000  0.02074700  0.41398700  1
  S  S1  1  0.25000000  0.52074700  0.08601300  1
  S  S2  1  0.75000000  0.97925300  0.58601300  1
  S  S3  1  0.75000000  0.47925300  0.91398700  1
  S  S4  1  0.25000000  0.26242000  0.58556100  1
  S  S5  1  0.25000000  0.76242000  0.91443900  1
  S  S6  1  0.75000000  0.73758000  0.41443900  1
  S  S7  1  0.75000000  0.23758000  0.08556100  1
  S  S8  1  0.00317600  0.34570700  0.39973500  1
  S  S9  1  0.49682400  0.84570700  0.10026500  1
  S  S10  1  0.50317600  0.65429300  0.60026500  1
  S  S11  1  0.99682400  0.15429300  0.89973500  1
  S  S12  1  0.99682400  0.65429300  0.60026500  1
  S  S13  1  0.50317600  0.15429300  0.89973500  1
  S  S14  1  0.49682400  0.34570700  0.39973500  1
  S  S15  1  0.00317600  0.84570700  0.10026500  1
  N  N0  1  0.25000000  0.94078400  0.62408600  1
  N  N1  1  0.25000000  0.44078400  0.87591400  1
  N  N2  1  0.75000000  0.05921600  0.37591400  1
  N  N3  1  0.75000000  0.55921600  0.12408600  1
  N  N4  1  0.25000000  0.66161000  0.40959600  1
  N  N5  1  0.25000000  0.16161000  0.09040400  1
  N  N6  1  0.75000000  0.33839000  0.59040400  1
  N  N7  1  0.75000000  0.83839000  0.90959600  1
loop_
_geom_bond_atom_site_label_1
_geom_bond_atom_site_label_2
_geom_bond_distance
_geom_bond_site_symmetry_2
H0 N0 1.038832 1_555
H1 N1 1.038832 1_555
H2 N2 1.038832 1_555
H3 N3 1.038832 1_555
H4 N2 1.038832 1_555
H5 N3 1.038832 1_555
H6 N0 1.038832 1_555
H7 N1 1.038832 1_555
H8 N0 1.051950 1_545
H9 N1 1.051950 1_555
H10 N2 1.051950 1_565
H11 N3 1.051950 1_555
H24 N4 1.034919 1_555
H25 N5 1.034919 1_555
H26 N6 1.034919 1_555
H27 N7 1.034919 1_555
H28 N6 1.034919 1_555
H29 N7 1.034919 1_555
H30 N4 1.034919 1_555
H31 N5 1.034919 1_555
H32 N4 1.034986 1_555
H33 N5 1.034986 1_555
H34 N6 1.034986 1_555
H35 N7 1.034986 1_555
C0 H12 1.094021 1_565
C0 H18 1.094021 1_565
C0 H20 1.095965 1_555
C0 N0 1.482306 1_555
C1 H13 1.094021 1_555
C1 H19 1.094021 1_555
C1 H21 1.095965 1_555
C1 N1 1.482306 1_555
C2 H16 1.094021 1_545
C2 H14 1.094021 1_545
C2 H22 1.095965 1_555
C2 N2 1.482306 1_555
C3 H15 1.094021 1_555
C3 H17 1.094021 1_555
C3 H23 1.095965 1_555
C3 N3 1.482306 1_555
C4 H36 1.094080 1_555
C4 H42 1.094080 1_555
C4 H44 1.095167 1_555
C4 N4 1.490989 1_555
C5 H43 1.094080 1_555
C5 H37 1.094080 1_555
C5 H45 1.095167 1_555
C5 N5 1.490989 1_555
C6 H38 1.094080 1_555
C6 H40 1.094080 1_555
C6 H46 1.095167 1_555
C6 N6 1.490989 1_555
C7 H41 1.094080 1_555
C7 H39 1.094080 1_555
C7 H47 1.095167 1_555
C7 N7 1.490989 1_555
S0 W0 2.209228 1_555
S1 W1 2.209228 1_555
S2 W2 2.209228 1_555
S3 W3 2.209228 1_555
S4 W0 2.216064 1_555
S5 W1 2.216064 1_556
S6 W2 2.216064 1_555
S7 W3 2.216064 1_554
S8 W0 2.206322 1_555
S9 W1 2.206322 1_555
S10 W2 2.206322 1_555
S11 W3 2.206322 1_555
S12 W2 2.206322 1_555
S13 W3 2.206322 1_555
S14 W0 2.206322 1_555
S15 W1 2.206322 1_555
