# generated using pymatgen
data_KBa3(FeAs)8
_symmetry_space_group_name_H-M   'P 1'
_cell_length_a   7.16214702
_cell_length_b   8.71998490
_cell_length_c   7.85870106
_cell_angle_alpha   64.32572445
_cell_angle_beta   73.72605176
_cell_angle_gamma   97.22124646
_symmetry_Int_Tables_number   1
_chemical_formula_structural   KBa3(FeAs)8
_chemical_formula_sum   'K1 Ba3 Fe8 As8'
_cell_volume   406.93629940
_cell_formula_units_Z   1
loop_
 _symmetry_equiv_pos_site_id
 _symmetry_equiv_pos_as_xyz
  1  'x, y, z'
loop_
 _atom_site_type_symbol
 _atom_site_label
 _atom_site_symmetry_multiplicity
 _atom_site_fract_x
 _atom_site_fract_y
 _atom_site_fract_z
 _atom_site_occupancy
  K  K0  1  -0.00000000  -0.00000000  -0.00000000  1
  Ba  Ba0  1  -0.00004475  0.49356017  0.75338538  1
  Ba  Ba1  1  -0.00000000  -0.00000000  0.50000000  1
  Ba  Ba2  1  0.00004475  0.50643983  0.24661462  1
  Fe  Fe0  1  0.50030941  0.62524369  0.31307392  1
  Fe  Fe1  1  0.50054052  0.62532921  0.81352182  1
  Fe  Fe2  1  0.49976096  0.12478944  0.06233642  1
  Fe  Fe3  1  0.49970149  0.12481702  0.56245551  1
  Fe  Fe4  1  0.49969059  0.37475631  0.68692608  1
  Fe  Fe5  1  0.49945948  0.37467079  0.18647818  1
  Fe  Fe6  1  0.50029851  0.87518298  0.43754449  1
  Fe  Fe7  1  0.50023904  0.87521056  0.93766358  1
  As  As0  1  0.30279952  0.32707599  0.50959616  1
  As  As1  1  0.30211787  0.32758739  0.01125067  1
  As  As2  1  0.30052453  0.82364340  0.26395544  1
  As  As3  1  0.30095636  0.82385274  0.76273919  1
  As  As4  1  0.69720048  0.67292401  0.49040384  1
  As  As5  1  0.69788213  0.67241261  0.98874933  1
  As  As6  1  0.69904364  0.17614726  0.23726081  1
  As  As7  1  0.69947547  0.17635660  0.73604456  1
loop_
_geom_bond_atom_site_label_1
_geom_bond_atom_site_label_2
_geom_bond_distance
_geom_bond_site_symmetry_2
As0 Fe0 2.349003 1_555
As0 Fe5 2.353598 1_555
As0 Fe4 2.357874 1_555
As0 Fe3 2.364475 1_555
As0 Ba0 3.369775 1_555
As0 Ba1 3.400943 1_555
As0 K0 3.453504 1_556
As0 Ba2 3.461597 1_555
As1 Fe5 2.344650 1_555
As1 Fe1 2.348173 1_554
As1 Fe4 2.364671 1_554
As1 Fe2 2.371671 1_555
As1 Ba0 3.404222 1_554
As1 K0 3.409100 1_555
As1 Ba2 3.411647 1_555
As1 Ba1 3.446103 1_555
As2 Fe0 2.354301 1_555
As2 Fe6 2.360879 1_555
As2 Fe7 2.367905 1_554
As2 Fe2 2.372334 1_565
As2 Ba2 3.360850 1_555
As2 Ba1 3.391908 1_565
As2 K0 3.445433 1_565
As2 Ba0 3.452754 1_555
As3 Fe1 2.354268 1_555
As3 Fe6 2.360734 1_555
As3 Fe7 2.366407 1_555
As3 Fe3 2.370000 1_565
As3 K0 3.397577 1_566
As3 Ba2 3.398944 1_556
As3 Ba0 3.414598 1_555
As3 Ba1 3.442008 1_565
As4 Fe4 2.349003 1_555
As4 Fe1 2.353598 1_555
As4 Fe0 2.357874 1_555
As4 Fe6 2.364475 1_555
As4 Ba2 3.369775 1_655
As4 Ba1 3.400943 1_665
As4 K0 3.453504 1_665
As4 Ba0 3.461597 1_655
As5 Fe1 2.344650 1_555
As5 Fe5 2.348173 1_556
As5 Fe0 2.364671 1_556
As5 Fe7 2.371671 1_555
As5 Ba2 3.404222 1_656
As5 K0 3.409100 1_666
As5 Ba0 3.411647 1_655
As5 Ba1 3.446103 1_665
As6 Fe5 2.354268 1_555
As6 Fe3 2.360734 1_555
As6 Fe2 2.366407 1_555
As6 Fe6 2.370000 1_545
As6 K0 3.397577 1_655
As6 Ba0 3.398944 1_654
As6 Ba2 3.414598 1_655
As6 Ba1 3.442008 1_655
As7 Fe4 2.354301 1_555
As7 Fe3 2.360879 1_555
As7 Fe2 2.367905 1_556
As7 Fe7 2.372334 1_545
As7 Ba0 3.360850 1_655
As7 Ba1 3.391908 1_655
As7 K0 3.445433 1_656
As7 Ba2 3.452754 1_655
