# generated using pymatgen
data_ThP2(HO4)2
_symmetry_space_group_name_H-M   'P 1'
_cell_length_a   8.75677800
_cell_length_b   9.57694000
_cell_length_c   19.53207500
_cell_angle_alpha   90.00000000
_cell_angle_beta   90.00000000
_cell_angle_gamma   90.00000000
_symmetry_Int_Tables_number   1
_chemical_formula_structural   ThP2(HO4)2
_chemical_formula_sum   'Th8 P16 H16 O64'
_cell_volume   1638.02109137
_cell_formula_units_Z   8
loop_
 _symmetry_equiv_pos_site_id
 _symmetry_equiv_pos_as_xyz
  1  'x, y, z'
loop_
 _atom_site_type_symbol
 _atom_site_label
 _atom_site_symmetry_multiplicity
 _atom_site_fract_x
 _atom_site_fract_y
 _atom_site_fract_z
 _atom_site_occupancy
  Th  Th0  1  0.48581400  0.86647800  0.12762600  1
  Th  Th1  1  0.98581400  0.63352200  0.87237400  1
  Th  Th2  1  0.51418600  0.36647800  0.37237400  1
  Th  Th3  1  0.01418600  0.13352200  0.62762600  1
  Th  Th4  1  0.51418600  0.13352200  0.87237400  1
  Th  Th5  1  0.01418600  0.36647800  0.12762600  1
  Th  Th6  1  0.48581400  0.63352200  0.62762600  1
  Th  Th7  1  0.98581400  0.86647800  0.37237400  1
  P  P0  1  0.76283000  0.09547500  0.03346000  1
  P  P1  1  0.26283000  0.40452500  0.96654000  1
  P  P2  1  0.23717000  0.59547500  0.46654000  1
  P  P3  1  0.73717000  0.90452500  0.53346000  1
  P  P4  1  0.23717000  0.90452500  0.96654000  1
  P  P5  1  0.73717000  0.59547500  0.03346000  1
  P  P6  1  0.76283000  0.40452500  0.53346000  1
  P  P7  1  0.26283000  0.09547500  0.46654000  1
  P  P8  1  0.08550100  0.98616000  0.18726300  1
  P  P9  1  0.58550100  0.51384000  0.81273700  1
  P  P10  1  0.91449900  0.48616000  0.31273700  1
  P  P11  1  0.41449900  0.01384000  0.68726300  1
  P  P12  1  0.91449900  0.01384000  0.81273700  1
  P  P13  1  0.41449900  0.48616000  0.18726300  1
  P  P14  1  0.08550100  0.51384000  0.68726300  1
  P  P15  1  0.58550100  0.98616000  0.31273700  1
  H  H0  1  0.86450700  0.99296100  0.00828100  1
  H  H1  1  0.36450700  0.50703900  0.99171900  1
  H  H2  1  0.13549300  0.49296100  0.49171900  1
  H  H3  1  0.63549300  0.00703900  0.50828100  1
  H  H4  1  0.13549300  0.00703900  0.99171900  1
  H  H5  1  0.63549300  0.49296100  0.00828100  1
  H  H6  1  0.86450700  0.50703900  0.50828100  1
  H  H7  1  0.36450700  0.99296100  0.49171900  1
  H  H8  1  0.97915800  0.91892100  0.14427300  1
  H  H9  1  0.47915800  0.58107900  0.85572700  1
  H  H10  1  0.02084200  0.41892100  0.35572700  1
  H  H11  1  0.52084200  0.08107900  0.64427300  1
  H  H12  1  0.02084200  0.08107900  0.85572700  1
  H  H13  1  0.52084200  0.41892100  0.14427300  1
  H  H14  1  0.97915800  0.58107900  0.64427300  1
  H  H15  1  0.47915800  0.91892100  0.35572700  1
  O  O0  1  0.44308800  0.12247100  0.10044800  1
  O  O1  1  0.94308800  0.37752900  0.89955200  1
  O  O2  1  0.55691200  0.62247100  0.39955200  1
  O  O3  1  0.05691200  0.87752900  0.60044800  1
  O  O4  1  0.55691200  0.87752900  0.89955200  1
  O  O5  1  0.05691200  0.62247100  0.10044800  1
  O  O6  1  0.44308800  0.37752900  0.60044800  1
  O  O7  1  0.94308800  0.12247100  0.39955200  1
  O  O8  1  0.68796000  0.74033200  0.19152600  1
  O  O9  1  0.18796000  0.75966800  0.80847400  1
  O  O10  1  0.31204000  0.24033200  0.30847400  1
  O  O11  1  0.81204000  0.25966800  0.69152600  1
  O  O12  1  0.31204000  0.25966800  0.80847400  1
  O  O13  1  0.81204000  0.24033200  0.19152600  1
  O  O14  1  0.68796000  0.75966800  0.69152600  1
  O  O15  1  0.18796000  0.74033200  0.30847400  1
  O  O16  1  0.35305400  0.87317500  0.02341100  1
  O  O17  1  0.85305400  0.62682500  0.97658900  1
  O  O18  1  0.64694600  0.37317500  0.47658900  1
  O  O19  1  0.14694600  0.12682500  0.52341100  1
  O  O20  1  0.64694600  0.12682500  0.97658900  1
  O  O21  1  0.14694600  0.37317500  0.02341100  1
  O  O22  1  0.35305400  0.62682500  0.52341100  1
  O  O23  1  0.85305400  0.87317500  0.47658900  1
  O  O24  1  0.68493200  0.02158200  0.09523300  1
  O  O25  1  0.18493200  0.47841800  0.90476700  1
  O  O26  1  0.31506800  0.52158200  0.40476700  1
  O  O27  1  0.81506800  0.97841800  0.59523300  1
  O  O28  1  0.31506800  0.97841800  0.90476700  1
  O  O29  1  0.81506800  0.52158200  0.09523300  1
  O  O30  1  0.68493200  0.47841800  0.59523300  1
  O  O31  1  0.18493200  0.02158200  0.40476700  1
  O  O32  1  0.85571500  0.22257900  0.05483800  1
  O  O33  1  0.35571500  0.27742100  0.94516200  1
  O  O34  1  0.14428500  0.72257900  0.44516200  1
  O  O35  1  0.64428500  0.77742100  0.55483800  1
  O  O36  1  0.14428500  0.77742100  0.94516200  1
  O  O37  1  0.64428500  0.72257900  0.05483800  1
  O  O38  1  0.85571500  0.27742100  0.55483800  1
  O  O39  1  0.35571500  0.22257900  0.44516200  1
  O  O40  1  0.43060000  0.64456200  0.17162300  1
  O  O41  1  0.93060000  0.85543800  0.82837700  1
  O  O42  1  0.56940000  0.14456200  0.32837700  1
  O  O43  1  0.06940000  0.35543800  0.67162300  1
  O  O44  1  0.56940000  0.35543800  0.82837700  1
  O  O45  1  0.06940000  0.14456200  0.17162300  1
  O  O46  1  0.43060000  0.85543800  0.67162300  1
  O  O47  1  0.93060000  0.64456200  0.32837700  1
  O  O48  1  0.24379200  0.93463300  0.16719800  1
  O  O49  1  0.74379200  0.56536700  0.83280200  1
  O  O50  1  0.75620800  0.43463300  0.33280200  1
  O  O51  1  0.25620800  0.06536700  0.66719800  1
  O  O52  1  0.75620800  0.06536700  0.83280200  1
  O  O53  1  0.25620800  0.43463300  0.16719800  1
  O  O54  1  0.24379200  0.56536700  0.66719800  1
  O  O55  1  0.74379200  0.93463300  0.33280200  1
  O  O56  1  0.04403900  0.95266500  0.26183100  1
  O  O57  1  0.54403900  0.54733500  0.73816900  1
  O  O58  1  0.95596100  0.45266500  0.23816900  1
  O  O59  1  0.45596100  0.04733500  0.76183100  1
  O  O60  1  0.95596100  0.04733500  0.73816900  1
  O  O61  1  0.45596100  0.45266500  0.26183100  1
  O  O62  1  0.04403900  0.54733500  0.76183100  1
  O  O63  1  0.54403900  0.95266500  0.23816900  1
loop_
_geom_bond_atom_site_label_1
_geom_bond_atom_site_label_2
_geom_bond_distance
_geom_bond_site_symmetry_2
H0 P0 1.413678 1_565
H1 P1 1.413678 1_555
H2 P2 1.413678 1_555
H3 P3 1.413678 1_545
H4 P4 1.413678 1_545
H5 P5 1.413678 1_555
H6 P6 1.413678 1_555
H7 P7 1.413678 1_565
H8 P8 1.409577 1_655
H9 P9 1.409577 1_555
H10 P10 1.409577 1_455
H11 P11 1.409577 1_555
H12 P12 1.409577 1_455
H13 P13 1.409577 1_555
H14 P14 1.409577 1_655
H15 P15 1.409577 1_555
O0 Th0 2.536191 1_545
O1 Th1 2.536191 1_555
O2 Th2 2.536191 1_555
O3 Th3 2.536191 1_565
O4 Th4 2.536191 1_565
O5 Th5 2.536191 1_555
O6 Th6 2.536191 1_555
O7 Th7 2.536191 1_545
O8 Th0 2.480053 1_555
O9 Th1 2.480053 1_455
O10 Th2 2.480053 1_555
O11 Th3 2.480053 1_655
O12 Th4 2.480053 1_555
O13 Th5 2.480053 1_655
O14 Th6 2.480053 1_555
O15 Th7 2.480053 1_455
O16 P4 1.534209 1_554
O16 Th0 2.345003 1_555
O17 P5 1.534209 1_556
O17 Th1 2.345003 1_555
O18 P6 1.534209 1_555
O18 Th2 2.345003 1_555
O19 P7 1.534209 1_555
O19 Th3 2.345003 1_555
O20 P0 1.534209 1_556
O20 Th4 2.345003 1_555
O21 P1 1.534209 1_554
O21 Th5 2.345003 1_555
O22 P2 1.534209 1_555
O22 Th6 2.345003 1_555
O23 P3 1.534209 1_555
O23 Th7 2.345003 1_555
O24 P0 1.556239 1_555
O24 Th0 2.376351 1_545
O25 P1 1.556239 1_555
O25 Th1 2.376351 1_455
O26 P2 1.556239 1_555
O26 Th2 2.376351 1_555
O27 P3 1.556239 1_555
O27 Th3 2.376351 1_665
O28 P4 1.556239 1_555
O28 Th4 2.376351 1_565
O29 P5 1.556239 1_555
O29 Th5 2.376351 1_655
O30 P6 1.556239 1_555
O30 Th6 2.376351 1_555
O31 P7 1.556239 1_555
O31 Th7 2.376351 1_445
O32 P0 1.522389 1_555
O32 Th5 2.417876 1_655
O33 P1 1.522389 1_555
O33 Th4 2.417876 1_555
O34 P2 1.522389 1_555
O34 Th7 2.417876 1_455
O35 P3 1.522389 1_555
O35 Th6 2.417876 1_555
O36 P4 1.522389 1_555
O36 Th1 2.417876 1_455
O37 P5 1.522389 1_555
O37 Th0 2.417876 1_555
O38 P6 1.522389 1_555
O38 Th3 2.417876 1_655
O39 P7 1.522389 1_555
O39 Th2 2.417876 1_555
O40 P13 1.553868 1_555
O40 Th0 2.342873 1_555
O41 P12 1.553868 1_565
O41 Th1 2.342873 1_555
O42 P15 1.553868 1_545
O42 Th2 2.342873 1_555
O43 P14 1.553868 1_555
O43 Th3 2.342873 1_555
O44 P9 1.553868 1_555
O44 Th4 2.342873 1_555
O45 P8 1.553868 1_545
O45 Th5 2.342873 1_555
O46 P11 1.553868 1_565
O46 Th6 2.342873 1_555
O47 P10 1.553868 1_555
O47 Th7 2.342873 1_555
O48 P8 1.522641 1_555
O48 Th0 2.348408 1_555
O49 P9 1.522641 1_555
O49 Th1 2.348408 1_555
O50 P10 1.522641 1_555
O50 Th2 2.348408 1_555
O51 P11 1.522641 1_555
O51 Th3 2.348408 1_555
O52 P12 1.522641 1_555
O52 Th4 2.348408 1_555
O53 P13 1.522641 1_555
O53 Th5 2.348408 1_555
O54 P14 1.522641 1_555
O54 Th6 2.348408 1_555
O55 P15 1.522641 1_555
O55 Th7 2.348408 1_555
O56 P8 1.534933 1_555
O56 Th7 2.367091 1_455
O57 P9 1.534933 1_555
O57 Th6 2.367091 1_555
O58 P10 1.534933 1_555
O58 Th5 2.367091 1_655
O59 P11 1.534933 1_555
O59 Th4 2.367091 1_555
O60 P12 1.534933 1_555
O60 Th3 2.367091 1_655
O61 P13 1.534933 1_555
O61 Th2 2.367091 1_555
O62 P14 1.534933 1_555
O62 Th1 2.367091 1_455
O63 P15 1.534933 1_555
O63 Th0 2.367091 1_555
