# generated using pymatgen
data_Mg(SbO2)4
_symmetry_space_group_name_H-M   'P 1'
_cell_length_a   3.24719300
_cell_length_b   8.14644884
_cell_length_c   8.48657103
_cell_angle_alpha   111.77129469
_cell_angle_beta   96.60571381
_cell_angle_gamma   95.11363639
_symmetry_Int_Tables_number   1
_chemical_formula_structural   Mg(SbO2)4
_chemical_formula_sum   'Mg1 Sb4 O8'
_cell_volume   204.97454206
_cell_formula_units_Z   1
loop_
 _symmetry_equiv_pos_site_id
 _symmetry_equiv_pos_as_xyz
  1  'x, y, z'
loop_
 _atom_site_type_symbol
 _atom_site_label
 _atom_site_symmetry_multiplicity
 _atom_site_fract_x
 _atom_site_fract_y
 _atom_site_fract_z
 _atom_site_occupancy
  Mg  Mg0  1  0.73319100  0.14813900  0.96331900  1
  Sb  Sb0  1  0.77630400  0.12782300  0.31489100  1
  Sb  Sb1  1  0.54050900  0.50321500  0.72825400  1
  Sb  Sb2  1  0.36526300  0.49468700  0.18094600  1
  Sb  Sb3  1  0.07405500  0.84551500  0.57222400  1
  O  O0  1  0.47915200  0.65476200  0.42615400  1
  O  O1  1  0.83773500  0.34841300  0.23461200  1
  O  O2  1  0.05663500  0.63791600  0.67861800  1
  O  O3  1  0.40806100  0.29813900  0.50646900  1
  O  O4  1  0.22588700  0.06421500  0.13354800  1
  O  O5  1  0.25616500  0.29940500  0.95166400  1
  O  O6  1  0.64043600  0.93634100  0.74695700  1
  O  O7  1  0.87847900  0.61753900  0.13169900  1
loop_
_geom_bond_atom_site_label_1
_geom_bond_atom_site_label_2
_geom_bond_distance
_geom_bond_site_symmetry_2
Mg0 O6 1.967038 1_545
Mg0 O5 2.041615 1_655
Mg0 O5 2.079211 1_555
Mg0 O1 2.238948 1_556
Mg0 O4 2.347334 1_656
Mg0 O4 2.519433 1_556
O0 Sb2 1.972739 1_555
O0 Sb3 2.234373 1_555
O0 Sb3 2.273357 1_655
O1 Sb2 2.132811 1_555
O1 Sb0 2.146814 1_555
O1 Sb2 2.186297 1_655
O2 Sb1 2.085264 1_555
O2 Sb1 2.089954 1_455
O2 Sb3 2.192270 1_555
O3 Sb1 1.967678 1_555
O3 Sb0 2.251207 1_555
O3 Sb0 2.414271 1_455
O4 Sb0 2.107591 1_555
O4 Sb0 2.197368 1_455
O5 Sb2 1.971598 1_556
O6 Sb3 2.108299 1_555
O6 Sb3 2.140372 1_655
O7 Sb2 2.028579 1_655
O7 Sb2 2.031442 1_555
