# generated using pymatgen
data_Mg6CuC
_symmetry_space_group_name_H-M   'P 1'
_cell_length_a   3.51789500
_cell_length_b   8.17192800
_cell_length_c   10.05035800
_cell_angle_alpha   90.00000000
_cell_angle_beta   90.00000000
_cell_angle_gamma   90.00000000
_symmetry_Int_Tables_number   1
_chemical_formula_structural   Mg6CuC
_chemical_formula_sum   'Mg12 Cu2 C2'
_cell_volume   288.92753753
_cell_formula_units_Z   2
loop_
 _symmetry_equiv_pos_site_id
 _symmetry_equiv_pos_as_xyz
  1  'x, y, z'
loop_
 _atom_site_type_symbol
 _atom_site_label
 _atom_site_symmetry_multiplicity
 _atom_site_fract_x
 _atom_site_fract_y
 _atom_site_fract_z
 _atom_site_occupancy
  Mg  Mg0  1  0.00000000  0.67143000  0.12368600  1
  Mg  Mg1  1  0.00000000  0.32857000  0.12368600  1
  Mg  Mg2  1  0.00000000  0.50000000  0.88014300  1
  Mg  Mg3  1  0.50000000  0.77961700  0.88526900  1
  Mg  Mg4  1  0.50000000  0.22038300  0.88526900  1
  Mg  Mg5  1  0.50000000  0.50000000  0.63600300  1
  Mg  Mg6  1  0.00000000  0.17143000  0.62368600  1
  Mg  Mg7  1  0.00000000  0.82857000  0.62368600  1
  Mg  Mg8  1  0.00000000  0.00000000  0.38014300  1
  Mg  Mg9  1  0.50000000  0.27961700  0.38526900  1
  Mg  Mg10  1  0.50000000  0.72038300  0.38526900  1
  Mg  Mg11  1  0.50000000  0.00000000  0.13600300  1
  Cu  Cu0  1  0.00000000  0.50000000  0.44445300  1
  Cu  Cu1  1  0.00000000  0.00000000  0.94445300  1
  C  C0  1  0.50000000  0.50000000  0.02149200  1
  C  C1  1  0.50000000  0.00000000  0.52149200  1
loop_
_geom_bond_atom_site_label_1
_geom_bond_atom_site_label_2
_geom_bond_distance
_geom_bond_site_symmetry_2
Cu0 Mg9 2.586724 1_555
Cu0 Mg9 2.586724 1_455
Cu0 Mg10 2.586724 1_455
Cu0 Mg10 2.586724 1_555
Cu0 Mg5 2.607697 1_455
Cu0 Mg5 2.607697 1_555
Cu1 Mg3 2.586724 1_445
Cu1 Mg3 2.586724 1_545
Cu1 Mg4 2.586724 1_555
Cu1 Mg4 2.586724 1_455
Cu1 Mg11 2.607697 1_456
Cu1 Mg11 2.607697 1_556
C0 Mg2 2.260978 1_554
C0 Mg2 2.260978 1_654
C0 Mg0 2.472117 1_555
C0 Mg0 2.472117 1_655
C0 Mg1 2.472117 1_555
C0 Mg1 2.472117 1_655
C0 Mg3 2.663771 1_554
C0 Mg4 2.663771 1_554
C1 Mg8 2.260978 1_555
C1 Mg8 2.260978 1_655
C1 Mg7 2.472117 1_645
C1 Mg7 2.472117 1_545
C1 Mg6 2.472117 1_655
C1 Mg6 2.472117 1_555
C1 Mg9 2.663771 1_555
C1 Mg10 2.663771 1_545
