# generated using pymatgen
data_Sr11Sb10
_symmetry_space_group_name_H-M   'P 1'
_cell_length_a   12.78365423
_cell_length_b   12.34106417
_cell_length_c   12.81480672
_cell_angle_alpha   118.78607016
_cell_angle_beta   119.96808270
_cell_angle_gamma   89.97686808
_symmetry_Int_Tables_number   1
_chemical_formula_structural   Sr11Sb10
_chemical_formula_sum   'Sr22 Sb20'
_cell_volume   1456.18840039
_cell_formula_units_Z   2
loop_
 _symmetry_equiv_pos_site_id
 _symmetry_equiv_pos_as_xyz
  1  'x, y, z'
loop_
 _atom_site_type_symbol
 _atom_site_label
 _atom_site_symmetry_multiplicity
 _atom_site_fract_x
 _atom_site_fract_y
 _atom_site_fract_z
 _atom_site_occupancy
  Sr  Sr0  1  0.34377500  0.34400674  0.68798618  1
  Sr  Sr1  1  0.65622230  0.65599673  0.31201123  1
  Sr  Sr2  1  0.16852809  0.17254165  0.99993460  1
  Sr  Sr3  1  0.83360684  0.17007160  0.99971882  1
  Sr  Sr4  1  0.16639624  0.82993043  0.00028468  1
  Sr  Sr5  1  0.83146373  0.82745344  0.00006112  1
  Sr  Sr6  1  0.19185472  0.44219947  0.38415004  1
  Sr  Sr7  1  0.93554426  0.18790978  0.37556658  1
  Sr  Sr8  1  0.44006031  0.18782770  0.37561623  1
  Sr  Sr9  1  0.80814695  0.55779828  0.61585033  1
  Sr  Sr10  1  0.80805197  0.05779529  0.61570808  1
  Sr  Sr11  1  0.06445379  0.81208800  0.62443198  1
  Sr  Sr12  1  0.55993966  0.81217497  0.62438499  1
  Sr  Sr13  1  0.19194578  0.94220077  0.38428986  1
  Sr  Sr14  1  0.39748421  0.73112175  0.79520188  1
  Sr  Sr15  1  0.06017894  0.39306364  0.78659779  1
  Sr  Sr16  1  0.72698333  0.39207571  0.78479202  1
  Sr  Sr17  1  0.60252034  0.26888040  0.20480322  1
  Sr  Sr18  1  0.60228973  0.93533167  0.20431072  1
  Sr  Sr19  1  0.93981399  0.60693500  0.21339936  1
  Sr  Sr20  1  0.27301597  0.60792949  0.21520713  1
  Sr  Sr21  1  0.39770193  0.06465999  0.79568134  1
  Sb  Sb0  1  0.25212998  0.75244080  0.50464663  1
  Sb  Sb1  1  0.74785534  0.24753275  0.49533479  1
  Sb  Sb2  1  0.12244345  0.12252482  0.24500767  1
  Sb  Sb3  1  0.87755690  0.87747985  0.75500727  1
  Sb  Sb4  1  0.36929433  0.39088230  0.00328206  1
  Sb  Sb5  1  0.63252595  0.38689168  0.99902269  1
  Sb  Sb6  1  0.36746811  0.61309603  0.00096417  1
  Sb  Sb7  1  0.63071442  0.60911714  0.99672054  1
  Sb  Sb8  1  0.34919334  -0.00000286  0.00010077  1
  Sb  Sb9  1  0.00017133  0.36326595  0.00040263  1
  Sb  Sb10  1  0.99983545  0.63674087  0.99960972  1
  Sb  Sb11  1  0.65080792  0.00001549  0.99990060  1
  Sb  Sb12  1  0.52894465  0.52951543  0.64018452  1
  Sb  Sb13  1  0.11117206  0.52988379  0.64041831  1
  Sb  Sb14  1  0.52915197  0.11044508  0.64052251  1
  Sb  Sb15  1  0.88884695  0.47012088  0.35958926  1
  Sb  Sb16  1  0.47085829  0.88956627  0.35949031  1
  Sb  Sb17  1  0.88970339  0.89027388  0.36020837  1
  Sb  Sb18  1  0.47105718  0.47048401  0.35981101  1
  Sb  Sb19  1  0.11028893  0.10973435  0.63978701  1
loop_
_geom_bond_atom_site_label_1
_geom_bond_atom_site_label_2
_geom_bond_distance
_geom_bond_site_symmetry_2
Sb0 Sr13 3.278204 1_555
Sb0 Sr6 3.279789 1_555
Sb0 Sr11 3.353188 1_555
Sb0 Sr12 3.355967 1_555
Sb0 Sr14 3.378877 1_555
Sb0 Sr21 3.383980 1_565
Sb0 Sr20 3.409939 1_555
Sb0 Sr19 3.429153 1_455
Sb1 Sr10 3.278090 1_555
Sb1 Sr9 3.280020 1_555
Sb1 Sr7 3.353186 1_555
Sb1 Sr8 3.355849 1_555
Sb1 Sr17 3.378830 1_555
Sb1 Sr18 3.383806 1_545
Sb1 Sr16 3.410026 1_555
Sb1 Sr15 3.429265 1_655
Sb2 Sr13 3.341713 1_545
Sb2 Sr6 3.343373 1_555
Sb2 Sr7 3.442483 1_455
Sb2 Sr8 3.442559 1_555
Sb2 Sr3 3.746726 1_454
Sb2 Sr4 3.747287 1_545
Sb2 Sr5 3.779922 1_445
Sb2 Sr2 3.782448 1_554
Sb3 Sr10 3.341772 1_565
Sb3 Sr9 3.343421 1_555
Sb3 Sr12 3.442526 1_555
Sb3 Sr11 3.442607 1_655
Sb3 Sr4 3.746702 1_656
Sb3 Sr3 3.747183 1_565
Sb3 Sr2 3.779824 1_665
Sb3 Sr5 3.782334 1_556
Sb4 Sb6 2.756744 1_555
Sb4 Sb5 3.392613 1_554
Sb4 Sr20 3.520784 1_555
Sb4 Sr15 3.526507 1_554
Sb4 Sr1 3.585639 1_555
Sb4 Sr0 3.632985 1_554
Sb4 Sr2 3.692398 1_554
Sb4 Sr17 3.724806 1_555
Sb4 Sr21 3.750535 1_554
Sb5 Sb7 2.756790 1_555
Sb5 Sr19 3.520681 1_556
Sb5 Sr16 3.532705 1_555
Sb5 Sr0 3.614422 1_555
Sb5 Sr1 3.628599 1_556
Sb5 Sr3 3.709741 1_555
Sb5 Sr21 3.718955 1_555
Sb5 Sr17 3.732547 1_556
Sb6 Sb7 3.392698 1_554
Sb6 Sr15 3.520658 1_554
Sb6 Sr20 3.532722 1_555
Sb6 Sr1 3.614438 1_555
Sb6 Sr0 3.628460 1_554
Sb6 Sr4 3.709788 1_555
Sb6 Sr18 3.718962 1_555
Sb6 Sr14 3.732517 1_554
Sb7 Sr16 3.520693 1_555
Sb7 Sr19 3.526347 1_556
Sb7 Sr0 3.585699 1_555
Sb7 Sr1 3.632969 1_556
Sb7 Sr5 3.692270 1_556
Sb7 Sr14 3.724839 1_555
Sb7 Sr18 3.750531 1_556
Sb8 Sr2 3.140674 1_554
Sb8 Sr4 3.143233 1_545
Sb8 Sr18 3.391742 1_545
Sb8 Sr14 3.393047 1_544
Sb8 Sr17 3.393877 1_555
Sb8 Sr21 3.394144 1_554
Sb8 Sr11 3.681263 1_544
Sb8 Sr8 3.681613 1_555
Sb9 Sr2 3.188631 1_554
Sb9 Sr3 3.191217 1_454
Sb9 Sr16 3.355907 1_454
Sb9 Sr20 3.357353 1_555
Sb9 Sr19 3.359407 1_455
Sb9 Sr15 3.361684 1_554
Sb9 Sr6 3.806107 1_555
Sb9 Sr10 3.815707 1_454
Sb10 Sr5 3.188657 1_556
Sb10 Sr4 3.191220 1_656
Sb10 Sr20 3.355797 1_656
Sb10 Sr16 3.357401 1_555
Sb10 Sr15 3.359442 1_655
Sb10 Sr19 3.361656 1_556
Sb10 Sr9 3.806196 1_555
Sb10 Sr13 3.815567 1_656
Sb11 Sr5 3.140735 1_546
Sb11 Sr3 3.143144 1_555
Sb11 Sr21 3.391703 1_555
Sb11 Sr17 3.392964 1_556
Sb11 Sr14 3.393939 1_545
Sb11 Sr18 3.394254 1_546
Sb11 Sr7 3.681231 1_556
Sb11 Sr12 3.681609 1_545
Sb12 Sb18 2.968306 1_555
Sb12 Sr16 3.325206 1_555
Sb12 Sr14 3.395966 1_555
Sb12 Sr8 3.599113 1_555
Sb12 Sr6 3.601320 1_555
Sb12 Sr12 3.623234 1_555
Sb12 Sr0 3.744795 1_555
Sb12 Sr9 3.765132 1_555
Sb12 Sr5 3.950508 1_556
Sb13 Sb15 2.966472 1_455
Sb13 Sr15 3.324485 1_555
Sb13 Sr14 3.392457 1_555
Sb13 Sr7 3.601541 1_455
Sb13 Sr6 3.602802 1_555
Sb13 Sr11 3.618159 1_555
Sb13 Sr0 3.742432 1_555
Sb13 Sr9 3.756173 1_455
Sb13 Sr4 3.972473 1_556
Sb14 Sb16 2.970122 1_545
Sb14 Sr16 3.322860 1_555
Sb14 Sr21 3.393710 1_555
Sb14 Sr13 3.602162 1_545
Sb14 Sr8 3.604446 1_555
Sb14 Sr12 3.618596 1_545
Sb14 Sr0 3.747018 1_555
Sb14 Sr10 3.763895 1_555
Sb14 Sr3 3.964805 1_555
Sb15 Sr19 3.324388 1_555
Sb15 Sr17 3.392607 1_555
Sb15 Sr11 3.601431 1_655
Sb15 Sr9 3.602894 1_555
Sb15 Sr7 3.618156 1_555
Sb15 Sr1 3.742628 1_555
Sb15 Sr6 3.756001 1_655
Sb15 Sr3 3.972436 1_554
Sb16 Sr20 3.322930 1_555
Sb16 Sr18 3.393657 1_555
Sb16 Sr10 3.602011 1_565
Sb16 Sr12 3.604408 1_555
Sb16 Sr8 3.618565 1_565
Sb16 Sr1 3.746988 1_555
Sb16 Sr13 3.763938 1_555
Sb16 Sr4 3.964869 1_555
Sb17 Sb19 2.948038 1_665
Sb17 Sr19 3.323149 1_555
Sb17 Sr18 3.396342 1_555
Sb17 Sr11 3.601991 1_655
Sb17 Sr10 3.602407 1_565
Sb17 Sr7 3.614473 1_565
Sb17 Sr13 3.748986 1_655
Sb17 Sr1 3.754307 1_555
Sb17 Sr5 3.946811 1_555
Sb18 Sr20 3.325258 1_555
Sb18 Sr17 3.395920 1_555
Sb18 Sr12 3.599162 1_555
Sb18 Sr9 3.601332 1_555
Sb18 Sr8 3.623240 1_555
Sb18 Sr1 3.744770 1_555
Sb18 Sr6 3.765174 1_555
Sb18 Sr2 3.950578 1_554
Sb19 Sr15 3.323056 1_555
Sb19 Sr21 3.396421 1_555
Sb19 Sr7 3.601856 1_455
Sb19 Sr13 3.602454 1_545
Sb19 Sr11 3.614612 1_545
Sb19 Sr10 3.748954 1_455
Sb19 Sr0 3.754296 1_555
Sb19 Sr2 3.946877 1_555
