# generated using pymatgen
data_KFe(SO4)2
_symmetry_space_group_name_H-M   'P 1'
_cell_length_a   4.76099888
_cell_length_b   4.83214434
_cell_length_c   7.98954474
_cell_angle_alpha   85.54779261
_cell_angle_beta   86.39004723
_cell_angle_gamma   64.91879868
_symmetry_Int_Tables_number   1
_chemical_formula_structural   KFe(SO4)2
_chemical_formula_sum   'K1 Fe1 S2 O8'
_cell_volume   165.88035177
_cell_formula_units_Z   1
loop_
 _symmetry_equiv_pos_site_id
 _symmetry_equiv_pos_as_xyz
  1  'x, y, z'
loop_
 _atom_site_type_symbol
 _atom_site_label
 _atom_site_symmetry_multiplicity
 _atom_site_fract_x
 _atom_site_fract_y
 _atom_site_fract_z
 _atom_site_occupancy
  K  K0  1  -0.00000117  -0.00000153  0.49999973  1
  Fe  Fe0  1  -0.00000075  0.00000289  0.00000103  1
  S  S0  1  0.62828648  0.63141683  0.19456767  1
  S  S1  1  0.37171499  0.36858391  0.80543218  1
  O  O0  1  0.26026750  0.70566401  0.82554914  1
  O  O1  1  0.27724948  0.77618499  0.18164826  1
  O  O2  1  0.73973238  0.29433645  0.17444972  1
  O  O3  1  0.72275136  0.22381450  0.81835091  1
  O  O4  1  0.23768756  0.24063613  0.94670498  1
  O  O5  1  0.76231346  0.75936431  0.05329640  1
  O  O6  1  0.30352843  0.31949901  0.63803637  1
  O  O7  1  0.69647028  0.68049850  0.36196361  1
loop_
_geom_bond_atom_site_label_1
_geom_bond_atom_site_label_2
_geom_bond_distance
_geom_bond_site_symmetry_2
K0 O7 2.836308 1_445
K0 O6 2.836316 1_555
K0 O3 2.859247 1_455
K0 O1 2.859249 1_545
K0 O0 2.942930 1_545
K0 O2 2.942935 1_455
K0 O6 3.118705 1_545
K0 O7 3.118706 1_455
K0 O6 3.171535 1_455
K0 O7 3.171537 1_545
Fe0 O4 1.947300 1_554
Fe0 O5 1.947310 1_445
Fe0 O1 1.950767 1_545
Fe0 O3 1.950773 1_454
Fe0 O2 2.024102 1_455
Fe0 O0 2.024135 1_544
O0 S1 1.502535 1_555
O1 S0 1.520700 1_555
O2 S0 1.502538 1_555
O3 S1 1.520697 1_555
O4 S1 1.482847 1_555
O5 S0 1.482836 1_555
O6 S1 1.455861 1_555
O7 S0 1.455852 1_555
