# generated using pymatgen
data_KGdH2S2O9
_symmetry_space_group_name_H-M   'P 1'
_cell_length_a   8.45823200
_cell_length_b   10.28840345
_cell_length_c   10.50541528
_cell_angle_alpha   119.53430995
_cell_angle_beta   90.00000000
_cell_angle_gamma   90.00000000
_symmetry_Int_Tables_number   1
_chemical_formula_structural   KGdH2S2O9
_chemical_formula_sum   'K4 Gd4 H8 S8 O36'
_cell_volume   795.40870530
_cell_formula_units_Z   4
loop_
 _symmetry_equiv_pos_site_id
 _symmetry_equiv_pos_as_xyz
  1  'x, y, z'
loop_
 _atom_site_type_symbol
 _atom_site_label
 _atom_site_symmetry_multiplicity
 _atom_site_fract_x
 _atom_site_fract_y
 _atom_site_fract_z
 _atom_site_occupancy
  K  K0  1  0.67747700  0.21017300  0.69133300  1
  K  K1  1  0.17747700  0.78982700  0.80866700  1
  K  K2  1  0.32252300  0.78982700  0.30866700  1
  K  K3  1  0.82252300  0.21017300  0.19133300  1
  Gd  Gd0  1  0.64920500  0.74185200  0.96206600  1
  Gd  Gd1  1  0.14920500  0.25814800  0.53793400  1
  Gd  Gd2  1  0.35079500  0.25814800  0.03793400  1
  Gd  Gd3  1  0.85079500  0.74185200  0.46206600  1
  H  H0  1  0.51926000  0.72093100  0.55412400  1
  H  H1  1  0.01926000  0.27906900  0.94587600  1
  H  H2  1  0.48074000  0.27906900  0.44587600  1
  H  H3  1  0.98074000  0.72093100  0.05412400  1
  H  H4  1  0.51479700  0.58688200  0.39473000  1
  H  H5  1  0.01479700  0.41311800  0.10527000  1
  H  H6  1  0.48520300  0.41311800  0.60527000  1
  H  H7  1  0.98520300  0.58688200  0.89473000  1
  S  S0  1  0.63373300  0.94860600  0.82014300  1
  S  S1  1  0.13373300  0.05139400  0.67985700  1
  S  S2  1  0.36626700  0.05139400  0.17985700  1
  S  S3  1  0.86626700  0.94860600  0.32014300  1
  S  S4  1  0.80405400  0.49989500  0.60123600  1
  S  S5  1  0.30405400  0.50010500  0.89876400  1
  S  S6  1  0.19594600  0.50010500  0.39876400  1
  S  S7  1  0.69594600  0.49989500  0.10123600  1
  O  O0  1  0.71290400  0.92512200  0.68461500  1
  O  O1  1  0.21290400  0.07487800  0.81538500  1
  O  O2  1  0.28709600  0.07487800  0.31538500  1
  O  O3  1  0.78709600  0.92512200  0.18461500  1
  O  O4  1  0.75062800  0.94288400  0.92485200  1
  O  O5  1  0.25062800  0.05711600  0.57514800  1
  O  O6  1  0.24937200  0.05711600  0.07514800  1
  O  O7  1  0.74937200  0.94288400  0.42485200  1
  O  O8  1  0.51648800  0.82774300  0.78823100  1
  O  O9  1  0.01648800  0.17225700  0.71176900  1
  O  O10  1  0.48351200  0.17225700  0.21176900  1
  O  O11  1  0.98351200  0.82774300  0.28823100  1
  O  O12  1  0.55723000  0.09811100  0.88836700  1
  O  O13  1  0.05723000  0.90188900  0.61163300  1
  O  O14  1  0.44277000  0.90188900  0.11163300  1
  O  O15  1  0.94277000  0.09811100  0.38836700  1
  O  O16  1  0.91966100  0.40417000  0.62375400  1
  O  O17  1  0.41966100  0.59583000  0.87624600  1
  O  O18  1  0.08033900  0.59583000  0.37624600  1
  O  O19  1  0.58033900  0.40417000  0.12375400  1
  O  O20  1  0.68254400  0.54476600  0.71974500  1
  O  O21  1  0.18254400  0.45523400  0.78025500  1
  O  O22  1  0.31745600  0.45523400  0.28025500  1
  O  O23  1  0.81745600  0.54476600  0.21974500  1
  O  O24  1  0.61626400  0.63872100  0.12017600  1
  O  O25  1  0.11626400  0.36127900  0.37982400  1
  O  O26  1  0.38373600  0.36127900  0.87982400  1
  O  O27  1  0.88373600  0.63872100  0.62017600  1
  O  O28  1  0.72773500  0.41999400  0.45744800  1
  O  O29  1  0.22773500  0.58000600  0.04255200  1
  O  O30  1  0.27226500  0.58000600  0.54255200  1
  O  O31  1  0.77226500  0.41999400  0.95744800  1
  O  O32  1  0.56053900  0.68704500  0.45497100  1
  O  O33  1  0.06053900  0.31295500  0.04502900  1
  O  O34  1  0.43946100  0.31295500  0.54502900  1
  O  O35  1  0.93946100  0.68704500  0.95497100  1
loop_
_geom_bond_atom_site_label_1
_geom_bond_atom_site_label_2
_geom_bond_distance
_geom_bond_site_symmetry_2
K0 O31 2.677433 1_555
K0 O7 2.859968 1_545
K0 O0 2.914028 1_545
K0 O9 2.915992 1_655
K0 O12 3.000187 1_555
K0 O34 3.022560 1_555
K0 O26 3.078290 1_555
K0 O16 3.175037 1_555
K1 O30 2.677433 1_555
K1 O6 2.859968 1_566
K1 O1 2.914028 1_565
K1 O8 2.915992 1_555
K1 O13 3.000187 1_555
K1 O35 3.022560 1_455
K1 O27 3.078290 1_455
K1 O17 3.175037 1_555
K2 O29 2.677433 1_555
K2 O5 2.859968 1_565
K2 O2 2.914028 1_565
K2 O11 2.915992 1_455
K2 O14 3.000187 1_555
K2 O32 3.022560 1_555
K2 O24 3.078290 1_555
K2 O18 3.175037 1_555
K3 O28 2.677433 1_555
K3 O4 2.859968 1_544
K3 O3 2.914028 1_545
K3 O10 2.915992 1_555
K3 O15 3.000187 1_555
K3 O33 3.022560 1_655
K3 O25 3.078290 1_655
K3 O19 3.175037 1_555
Gd0 O17 2.346072 1_555
Gd0 O20 2.362741 1_555
Gd0 O14 2.382871 1_556
Gd0 O24 2.387462 1_556
Gd0 O4 2.442091 1_555
Gd0 O3 2.456734 1_556
Gd0 O35 2.511844 1_555
Gd0 O8 2.639520 1_555
Gd1 O16 2.346072 1_455
Gd1 O21 2.362741 1_555
Gd1 O15 2.382871 1_455
Gd1 O25 2.387462 1_555
Gd1 O5 2.442091 1_555
Gd1 O2 2.456734 1_555
Gd1 O34 2.511844 1_555
Gd1 O9 2.639520 1_555
Gd2 O19 2.346072 1_555
Gd2 O22 2.362741 1_555
Gd2 O12 2.382871 1_554
Gd2 O26 2.387462 1_554
Gd2 O6 2.442091 1_555
Gd2 O1 2.456734 1_554
Gd2 O33 2.511844 1_555
Gd2 O10 2.639520 1_555
Gd3 O18 2.346072 1_655
Gd3 O23 2.362741 1_555
Gd3 O13 2.382871 1_655
Gd3 O27 2.387462 1_555
Gd3 O7 2.442091 1_555
Gd3 O0 2.456734 1_555
Gd3 O32 2.511844 1_555
Gd3 O11 2.639520 1_555
H0 O32 0.985111 1_555
H1 O33 0.985111 1_556
H2 O34 0.985111 1_555
H3 O35 0.985111 1_554
H4 O32 0.984477 1_555
H5 O33 0.984477 1_555
H6 O34 0.984477 1_555
H7 O35 0.984477 1_555
O0 S0 1.481485 1_555
O1 S1 1.481485 1_555
O2 S2 1.481485 1_555
O3 S3 1.481485 1_555
O4 S0 1.501637 1_555
O5 S1 1.501637 1_555
O6 S2 1.501637 1_555
O7 S3 1.501637 1_555
O8 S0 1.493686 1_555
O9 S1 1.493686 1_555
O10 S2 1.493686 1_555
O11 S3 1.493686 1_555
O12 S0 1.487105 1_545
O13 S1 1.487105 1_565
O14 S2 1.487105 1_565
O15 S3 1.487105 1_545
O16 S4 1.487195 1_555
O17 S5 1.487195 1_555
O18 S6 1.487195 1_555
O19 S7 1.487195 1_555
O20 S4 1.500921 1_555
O21 S5 1.500921 1_555
O22 S6 1.500921 1_555
O23 S7 1.500921 1_555
O24 S7 1.501225 1_555
O25 S6 1.501225 1_555
O26 S5 1.501225 1_555
O27 S4 1.501225 1_555
O28 S4 1.466291 1_555
O29 S5 1.466291 1_554
O30 S6 1.466291 1_555
O31 S7 1.466291 1_556
