# generated using pymatgen
data_Li9Mn2Co5O16
_symmetry_space_group_name_H-M   'P 1'
_cell_length_a   11.47623400
_cell_length_b   5.15510800
_cell_length_c   5.17938069
_cell_angle_alpha   68.66839464
_cell_angle_beta   90.00000000
_cell_angle_gamma   90.00000000
_symmetry_Int_Tables_number   1
_chemical_formula_structural   Li9Mn2Co5O16
_chemical_formula_sum   'Li9 Mn2 Co5 O16'
_cell_volume   285.42599566
_cell_formula_units_Z   1
loop_
 _symmetry_equiv_pos_site_id
 _symmetry_equiv_pos_as_xyz
  1  'x, y, z'
loop_
 _atom_site_type_symbol
 _atom_site_label
 _atom_site_symmetry_multiplicity
 _atom_site_fract_x
 _atom_site_fract_y
 _atom_site_fract_z
 _atom_site_occupancy
  Li  Li0  1  0.87311900  0.00000000  0.50000000  1
  Li  Li1  1  0.74857200  0.50000000  0.50000000  1
  Li  Li2  1  0.62121100  0.00000000  0.50000000  1
  Li  Li3  1  0.50120000  0.50000000  0.50000000  1
  Li  Li4  1  0.38045700  0.00000000  0.50000000  1
  Li  Li5  1  0.25199400  0.50000000  0.50000000  1
  Li  Li6  1  0.12494700  0.00000000  0.50000000  1
  Li  Li7  1  0.99687500  0.50000000  0.50000000  1
  Li  Li8  1  0.50104100  0.00000000  0.00000000  1
  Mn  Mn0  1  0.99662500  0.00000000  0.00000000  1
  Mn  Mn1  1  0.25478700  0.00000000  0.00000000  1
  Co  Co0  1  0.87369400  0.50000000  0.00000000  1
  Co  Co1  1  0.74709500  0.00000000  0.00000000  1
  Co  Co2  1  0.62771700  0.50000000  0.00000000  1
  Co  Co3  1  0.38414700  0.50000000  0.00000000  1
  Co  Co4  1  0.12152600  0.50000000  0.00000000  1
  O  O0  1  0.87170200  0.77255400  0.22601200  1
  O  O1  1  0.74997800  0.28053600  0.22676200  1
  O  O2  1  0.63154300  0.74478500  0.20659400  1
  O  O3  1  0.50819900  0.28256700  0.23558700  1
  O  O4  1  0.36567300  0.75459700  0.22999900  1
  O  O5  1  0.24940100  0.24034800  0.22017800  1
  O  O6  1  0.12462700  0.76394100  0.22331000  1
  O  O7  1  0.99637200  0.27556600  0.24010800  1
  O  O8  1  0.87170200  0.22744600  0.77398800  1
  O  O9  1  0.74997800  0.71946400  0.77323800  1
  O  O10  1  0.63154300  0.25521500  0.79340600  1
  O  O11  1  0.50819900  0.71743300  0.76441300  1
  O  O12  1  0.36567300  0.24540300  0.77000100  1
  O  O13  1  0.24940100  0.75965200  0.77982200  1
  O  O14  1  0.12462700  0.23605900  0.77669000  1
  O  O15  1  0.99637200  0.72443400  0.75989200  1
loop_
_geom_bond_atom_site_label_1
_geom_bond_atom_site_label_2
_geom_bond_distance
_geom_bond_site_symmetry_2
Li0 O7 2.107018 1_555
Li0 O15 2.107018 1_545
Li0 O8 2.144618 1_555
Li0 O0 2.144618 1_545
Li0 O9 2.145318 1_545
Li0 O1 2.145318 1_555
Li1 O2 2.076147 1_555
Li1 O10 2.076147 1_555
Li1 O9 2.109002 1_555
Li1 O1 2.109002 1_555
Li1 O0 2.129346 1_555
Li1 O8 2.129346 1_555
Li2 O11 2.056241 1_545
Li2 O3 2.056241 1_555
Li2 O9 2.188389 1_545
Li2 O1 2.188389 1_555
Li2 O10 2.347123 1_555
Li2 O2 2.347123 1_545
Li3 O3 2.062805 1_555
Li3 O11 2.062805 1_555
Li3 O2 2.178108 1_555
Li3 O10 2.178108 1_555
Li3 O12 2.182196 1_555
Li3 O4 2.182196 1_555
Li4 O13 2.142737 1_545
Li4 O5 2.142737 1_555
Li4 O11 2.166838 1_545
Li4 O3 2.166838 1_555
Li4 O12 2.207247 1_555
Li4 O4 2.207247 1_545
Li5 O12 2.011193 1_555
Li5 O4 2.011193 1_555
Li5 O14 2.150117 1_555
Li5 O6 2.150117 1_555
Li5 O13 2.303131 1_555
Li5 O5 2.303131 1_555
Li6 O13 2.090252 1_545
Li6 O5 2.090252 1_555
Li6 O15 2.148497 1_445
Li6 O7 2.148497 1_455
Li6 O6 2.191660 1_545
Li6 O14 2.191660 1_555
Li7 O15 2.069690 1_555
Li7 O7 2.069690 1_555
Li7 O0 2.144977 1_555
Li7 O8 2.144977 1_555
Li7 O14 2.153123 1_655
Li7 O6 2.153123 1_655
Li8 O10 2.023544 1_554
Li8 O2 2.023544 1_545
Li8 O4 2.082428 1_545
Li8 O12 2.082428 1_554
Li8 O11 2.215990 1_544
Li8 O3 2.215990 1_555
Mn0 O8 1.949836 1_554
Mn0 O0 1.949836 1_545
Mn0 O14 1.988096 1_654
Mn0 O6 1.988096 1_645
Mn0 O7 2.202246 1_555
Mn0 O15 2.202246 1_544
Mn1 O4 1.882151 1_545
Mn1 O12 1.882151 1_554
Mn1 O5 1.966581 1_555
Mn1 O13 1.966581 1_544
Mn1 O14 2.006464 1_554
Mn1 O6 2.006464 1_545
Co0 O1 1.925744 1_555
Co0 O9 1.925744 1_554
Co0 O7 1.954612 1_555
Co0 O15 1.954612 1_554
Co0 O0 2.131100 1_555
Co0 O8 2.131100 1_554
Co1 O10 1.900068 1_554
Co1 O2 1.900068 1_545
Co1 O8 1.947171 1_554
Co1 O0 1.947171 1_545
Co1 O1 2.169729 1_555
Co1 O9 2.169729 1_544
Co2 O11 1.905664 1_554
Co2 O3 1.905664 1_555
Co2 O1 1.913467 1_555
Co2 O9 1.913467 1_554
Co2 O2 1.929150 1_555
Co2 O10 1.929150 1_554
Co3 O3 1.943451 1_555
Co3 O11 1.943451 1_554
Co3 O4 2.079449 1_555
Co3 O12 2.079449 1_554
Co3 O13 2.091148 1_554
Co3 O5 2.091148 1_555
Co4 O7 1.975177 1_455
Co4 O15 1.975177 1_454
Co4 O13 2.033530 1_554
Co4 O5 2.033530 1_555
Co4 O14 2.082138 1_554
Co4 O6 2.082138 1_555
