# generated using pymatgen
data_Yb3Sn13Ir4
_symmetry_space_group_name_H-M   'P 1'
_cell_length_a   9.80035300
_cell_length_b   9.80035300
_cell_length_c   9.80035300
_cell_angle_alpha   90.00000000
_cell_angle_beta   90.00000000
_cell_angle_gamma   90.00000000
_symmetry_Int_Tables_number   1
_chemical_formula_structural   Yb3Sn13Ir4
_chemical_formula_sum   'Yb6 Sn26 Ir8'
_cell_volume   941.29371002
_cell_formula_units_Z   2
loop_
 _symmetry_equiv_pos_site_id
 _symmetry_equiv_pos_as_xyz
  1  'x, y, z'
loop_
 _atom_site_type_symbol
 _atom_site_label
 _atom_site_symmetry_multiplicity
 _atom_site_fract_x
 _atom_site_fract_y
 _atom_site_fract_z
 _atom_site_occupancy
  Yb  Yb0  1  0.50000000  0.00000000  0.75000000  1
  Yb  Yb1  1  0.00000000  0.25000000  0.50000000  1
  Yb  Yb2  1  0.75000000  0.50000000  0.00000000  1
  Yb  Yb3  1  0.50000000  0.00000000  0.25000000  1
  Yb  Yb4  1  0.00000000  0.75000000  0.50000000  1
  Yb  Yb5  1  0.25000000  0.50000000  0.00000000  1
  Sn  Sn0  1  0.50000000  0.50000000  0.50000000  1
  Sn  Sn1  1  0.00000000  0.00000000  0.00000000  1
  Sn  Sn2  1  0.65180800  0.19460700  0.50000000  1
  Sn  Sn3  1  0.80539300  0.50000000  0.65180800  1
  Sn  Sn4  1  0.50000000  0.34819200  0.80539300  1
  Sn  Sn5  1  0.34819200  0.80539300  0.50000000  1
  Sn  Sn6  1  0.19460700  0.50000000  0.34819200  1
  Sn  Sn7  1  0.50000000  0.65180800  0.19460700  1
  Sn  Sn8  1  0.65180800  0.80539300  0.50000000  1
  Sn  Sn9  1  0.80539300  0.50000000  0.34819200  1
  Sn  Sn10  1  0.34819200  0.19460700  0.50000000  1
  Sn  Sn11  1  0.19460700  0.50000000  0.65180800  1
  Sn  Sn12  1  0.50000000  0.65180800  0.80539300  1
  Sn  Sn13  1  0.50000000  0.34819200  0.19460700  1
  Sn  Sn14  1  0.15180800  0.00000000  0.69460700  1
  Sn  Sn15  1  0.30539300  0.15180800  0.00000000  1
  Sn  Sn16  1  0.00000000  0.30539300  0.84819200  1
  Sn  Sn17  1  0.84819200  0.00000000  0.30539300  1
  Sn  Sn18  1  0.69460700  0.84819200  0.00000000  1
  Sn  Sn19  1  0.00000000  0.69460700  0.15180800  1
  Sn  Sn20  1  0.15180800  0.00000000  0.30539300  1
  Sn  Sn21  1  0.30539300  0.84819200  0.00000000  1
  Sn  Sn22  1  0.84819200  0.00000000  0.69460700  1
  Sn  Sn23  1  0.69460700  0.15180800  0.00000000  1
  Sn  Sn24  1  0.00000000  0.30539300  0.15180800  1
  Sn  Sn25  1  0.00000000  0.69460700  0.84819200  1
  Ir  Ir0  1  0.75000000  0.25000000  0.75000000  1
  Ir  Ir1  1  0.25000000  0.75000000  0.25000000  1
  Ir  Ir2  1  0.75000000  0.75000000  0.25000000  1
  Ir  Ir3  1  0.25000000  0.25000000  0.75000000  1
  Ir  Ir4  1  0.25000000  0.75000000  0.75000000  1
  Ir  Ir5  1  0.75000000  0.25000000  0.25000000  1
  Ir  Ir6  1  0.25000000  0.25000000  0.25000000  1
  Ir  Ir7  1  0.75000000  0.75000000  0.75000000  1
loop_
_geom_bond_atom_site_label_1
_geom_bond_atom_site_label_2
_geom_bond_distance
_geom_bond_site_symmetry_2
Sn0 Sn6 3.342345 1_555
Sn0 Sn12 3.342345 1_555
Sn0 Sn13 3.342345 1_555
Sn0 Sn10 3.342345 1_555
Sn0 Sn2 3.342345 1_555
Sn0 Sn7 3.342345 1_555
Sn0 Sn4 3.342345 1_555
Sn0 Sn8 3.342345 1_555
Sn0 Sn5 3.342345 1_555
Sn0 Sn9 3.342345 1_555
Sn0 Sn11 3.342345 1_555
Sn0 Sn3 3.342345 1_555
Sn1 Sn15 3.342345 1_555
Sn1 Sn14 3.342345 1_554
Sn1 Sn22 3.342345 1_454
Sn1 Sn17 3.342345 1_455
Sn1 Sn19 3.342345 1_545
Sn1 Sn20 3.342345 1_555
Sn1 Sn23 3.342345 1_455
Sn1 Sn24 3.342345 1_555
Sn1 Sn18 3.342345 1_445
Sn1 Sn16 3.342345 1_554
Sn1 Sn21 3.342345 1_545
Sn1 Sn25 3.342345 1_544
Sn2 Yb0 3.442946 1_555
Sn2 Yb3 3.442946 1_555
Sn2 Yb1 3.455317 1_655
Sn3 Yb1 3.442946 1_655
Sn3 Yb4 3.442946 1_655
Sn3 Yb2 3.455317 1_556
Sn4 Yb5 3.442946 1_556
Sn4 Yb2 3.442946 1_556
Sn4 Yb0 3.455317 1_555
Sn5 Yb3 3.442946 1_565
Sn5 Yb0 3.442946 1_565
Sn5 Yb4 3.455317 1_555
Sn6 Yb4 3.442946 1_555
Sn6 Yb1 3.442946 1_555
Sn6 Yb5 3.455317 1_555
Sn7 Yb5 3.442946 1_555
Sn7 Yb2 3.442946 1_555
Sn7 Yb3 3.455317 1_565
Sn8 Yb3 3.442946 1_565
Sn8 Yb0 3.442946 1_565
Sn8 Yb4 3.455317 1_655
Sn9 Yb1 3.442946 1_655
Sn9 Yb4 3.442946 1_655
Sn9 Yb2 3.455317 1_555
Sn10 Yb0 3.442946 1_555
Sn10 Yb3 3.442946 1_555
Sn10 Yb1 3.455317 1_555
Sn11 Yb1 3.442946 1_555
Sn11 Yb4 3.442946 1_555
Sn11 Yb5 3.455317 1_556
Sn12 Yb5 3.442946 1_556
Sn12 Yb2 3.442946 1_556
Sn12 Yb0 3.455317 1_565
Sn13 Yb5 3.442946 1_555
Sn13 Yb2 3.442946 1_555
Sn13 Yb3 3.455317 1_555
Sn14 Yb4 3.442946 1_545
Sn14 Yb1 3.442946 1_555
Sn14 Yb0 3.455317 1_555
Sn15 Yb3 3.442946 1_555
Sn15 Yb0 3.442946 1_554
Sn15 Yb5 3.455317 1_555
Sn16 Yb5 3.442946 1_556
Sn16 Yb2 3.442946 1_456
Sn16 Yb1 3.455317 1_555
Sn17 Yb4 3.442946 1_645
Sn17 Yb1 3.442946 1_655
Sn17 Yb3 3.455317 1_555
Sn18 Yb0 3.442946 1_564
Sn18 Yb3 3.442946 1_565
Sn18 Yb2 3.455317 1_555
Sn19 Yb5 3.442946 1_555
Sn19 Yb2 3.442946 1_455
Sn19 Yb4 3.455317 1_555
Sn20 Yb4 3.442946 1_545
Sn20 Yb1 3.442946 1_555
Sn20 Yb3 3.455317 1_555
Sn21 Yb0 3.442946 1_564
Sn21 Yb3 3.442946 1_565
Sn21 Yb5 3.455317 1_555
Sn22 Yb4 3.442946 1_645
Sn22 Yb1 3.442946 1_655
Sn22 Yb0 3.455317 1_555
Sn23 Yb3 3.442946 1_555
Sn23 Yb0 3.442946 1_554
Sn23 Yb2 3.455317 1_555
Sn24 Yb5 3.442946 1_555
Sn24 Yb2 3.442946 1_455
Sn24 Yb1 3.455317 1_555
Sn25 Yb5 3.442946 1_556
Sn25 Yb2 3.442946 1_456
Sn25 Yb4 3.455317 1_555
Ir0 Sn23 2.687693 1_556
Ir0 Sn4 2.687693 1_555
Ir0 Sn22 2.687693 1_555
Ir0 Sn3 2.687693 1_555
Ir0 Sn2 2.687693 1_555
Ir0 Sn16 2.687693 1_655
Ir0 Yb0 3.464948 1_555
Ir0 Yb1 3.464948 1_655
Ir0 Yb2 3.464948 1_556
Ir1 Sn7 2.687693 1_555
Ir1 Sn6 2.687693 1_555
Ir1 Sn5 2.687693 1_555
Ir1 Sn19 2.687693 1_555
Ir1 Sn20 2.687693 1_565
Ir1 Sn21 2.687693 1_555
Ir1 Yb5 3.464948 1_555
Ir1 Yb3 3.464948 1_565
Ir1 Yb4 3.464948 1_555
Ir2 Sn7 2.687693 1_555
Ir2 Sn18 2.687693 1_555
Ir2 Sn9 2.687693 1_555
Ir2 Sn17 2.687693 1_565
Ir2 Sn19 2.687693 1_655
Ir2 Sn8 2.687693 1_555
Ir2 Yb2 3.464948 1_555
Ir2 Yb4 3.464948 1_655
Ir2 Yb3 3.464948 1_565
Ir3 Sn11 2.687693 1_555
Ir3 Sn14 2.687693 1_555
Ir3 Sn10 2.687693 1_555
Ir3 Sn16 2.687693 1_555
Ir3 Sn15 2.687693 1_556
Ir3 Sn4 2.687693 1_555
Ir3 Yb5 3.464948 1_556
Ir3 Yb0 3.464948 1_555
Ir3 Yb1 3.464948 1_555
Ir4 Sn11 2.687693 1_555
Ir4 Sn5 2.687693 1_555
Ir4 Sn12 2.687693 1_555
Ir4 Sn25 2.687693 1_555
Ir4 Sn21 2.687693 1_556
Ir4 Sn14 2.687693 1_565
Ir4 Yb5 3.464948 1_556
Ir4 Yb4 3.464948 1_555
Ir4 Yb0 3.464948 1_565
Ir5 Sn17 2.687693 1_555
Ir5 Sn23 2.687693 1_555
Ir5 Sn9 2.687693 1_555
Ir5 Sn13 2.687693 1_555
Ir5 Sn24 2.687693 1_655
Ir5 Sn2 2.687693 1_555
Ir5 Yb2 3.464948 1_555
Ir5 Yb3 3.464948 1_555
Ir5 Yb1 3.464948 1_655
Ir6 Sn6 2.687693 1_555
Ir6 Sn15 2.687693 1_555
Ir6 Sn24 2.687693 1_555
Ir6 Sn20 2.687693 1_555
Ir6 Sn13 2.687693 1_555
Ir6 Sn10 2.687693 1_555
Ir6 Yb5 3.464948 1_555
Ir6 Yb3 3.464948 1_555
Ir6 Yb1 3.464948 1_555
Ir7 Sn18 2.687693 1_556
Ir7 Sn22 2.687693 1_565
Ir7 Sn12 2.687693 1_555
Ir7 Sn3 2.687693 1_555
Ir7 Sn8 2.687693 1_555
Ir7 Sn25 2.687693 1_655
Ir7 Yb4 3.464948 1_655
Ir7 Yb0 3.464948 1_565
Ir7 Yb2 3.464948 1_556
