# generated using pymatgen
data_MnFeSn4
_symmetry_space_group_name_H-M   'P 1'
_cell_length_a   5.44957113
_cell_length_b   5.44957113
_cell_length_c   5.44956976
_cell_angle_alpha   104.08330612
_cell_angle_beta   104.08330612
_cell_angle_gamma   120.88624817
_symmetry_Int_Tables_number   1
_chemical_formula_structural   MnFeSn4
_chemical_formula_sum   'Mn1 Fe1 Sn4'
_cell_volume   120.81529575
_cell_formula_units_Z   1
loop_
 _symmetry_equiv_pos_site_id
 _symmetry_equiv_pos_as_xyz
  1  'x, y, z'
loop_
 _atom_site_type_symbol
 _atom_site_label
 _atom_site_symmetry_multiplicity
 _atom_site_fract_x
 _atom_site_fract_y
 _atom_site_fract_z
 _atom_site_occupancy
  Mn  Mn0  1  0.50000000  0.50000000  0.00000000  1
  Fe  Fe0  1  0.00000000  0.00000000  0.00000000  1
  Sn  Sn0  1  0.91297160  0.41297160  0.82594321  1
  Sn  Sn1  1  0.58702840  0.08702840  0.17405679  1
  Sn  Sn2  1  0.08702840  0.91297160  0.50000000  1
  Sn  Sn3  1  0.41297160  0.58702840  0.50000000  1
loop_
_geom_bond_atom_site_label_1
_geom_bond_atom_site_label_2
_geom_bond_distance
_geom_bond_site_symmetry_2
Mn0 Sn2 2.846970 1_655
Mn0 Sn3 2.846970 1_555
Mn0 Sn3 2.846970 1_554
Mn0 Sn2 2.846970 1_544
Mn0 Sn0 2.846971 1_554
Mn0 Sn1 2.846971 1_555
Mn0 Sn1 2.846971 1_565
Mn0 Sn0 2.846971 1_454
Fe0 Mn0 2.688204 1_555
Fe0 Mn0 2.688204 1_445
Fe0 Sn2 2.846970 1_544
Fe0 Sn2 2.846970 1_545
Fe0 Sn3 2.846970 1_444
Fe0 Sn3 2.846970 1_555
Fe0 Sn1 2.846971 1_455
Fe0 Sn0 2.846971 1_454
Fe0 Sn0 2.846971 1_444
Fe0 Sn1 2.846971 1_555
Sn0 Sn1 3.090201 1_555
Sn0 Sn1 3.154297 1_556
Sn0 Sn1 3.154297 1_666
Sn2 Sn3 3.090202 1_555
Sn2 Sn3 3.154298 1_455
Sn2 Sn3 3.154298 1_565
