# generated using pymatgen
data_CaNiSbP2O9
_symmetry_space_group_name_H-M   'P 1'
_cell_length_a   6.67875900
_cell_length_b   7.40928300
_cell_length_c   14.70322600
_cell_angle_alpha   90.00000000
_cell_angle_beta   90.00000000
_cell_angle_gamma   90.00000000
_symmetry_Int_Tables_number   1
_chemical_formula_structural   CaNiSbP2O9
_chemical_formula_sum   'Ca4 Ni4 Sb4 P8 O36'
_cell_volume   727.58642616
_cell_formula_units_Z   4
loop_
 _symmetry_equiv_pos_site_id
 _symmetry_equiv_pos_as_xyz
  1  'x, y, z'
loop_
 _atom_site_type_symbol
 _atom_site_label
 _atom_site_symmetry_multiplicity
 _atom_site_fract_x
 _atom_site_fract_y
 _atom_site_fract_z
 _atom_site_occupancy
  Ca  Ca0  1  0.25000000  0.39805500  0.79310600  1
  Ca  Ca1  1  0.25000000  0.10194500  0.29310600  1
  Ca  Ca2  1  0.75000000  0.60194500  0.20689400  1
  Ca  Ca3  1  0.75000000  0.89805500  0.70689400  1
  Ni  Ni0  1  0.00000000  0.50000000  0.00000000  1
  Ni  Ni1  1  0.00000000  0.00000000  0.50000000  1
  Ni  Ni2  1  0.50000000  0.00000000  0.50000000  1
  Ni  Ni3  1  0.50000000  0.50000000  0.00000000  1
  Sb  Sb0  1  0.25000000  0.85546000  0.88059600  1
  Sb  Sb1  1  0.75000000  0.14454000  0.11940400  1
  Sb  Sb2  1  0.75000000  0.35546000  0.61940400  1
  Sb  Sb3  1  0.25000000  0.64454000  0.38059600  1
  P  P0  1  0.75000000  0.85792300  0.92570300  1
  P  P1  1  0.25000000  0.14207700  0.07429700  1
  P  P2  1  0.25000000  0.35792300  0.57429700  1
  P  P3  1  0.75000000  0.64207700  0.42570300  1
  P  P4  1  0.25000000  0.88892500  0.68430700  1
  P  P5  1  0.75000000  0.11107500  0.31569300  1
  P  P6  1  0.75000000  0.38892500  0.81569300  1
  P  P7  1  0.25000000  0.61107500  0.18430700  1
  O  O0  1  0.55645100  0.11373800  0.37267200  1
  O  O1  1  0.05645100  0.88626200  0.62732800  1
  O  O2  1  0.44354900  0.61373800  0.12732800  1
  O  O3  1  0.94354900  0.38626200  0.87267200  1
  O  O4  1  0.44354900  0.88626200  0.62732800  1
  O  O5  1  0.94354900  0.11373800  0.37267200  1
  O  O6  1  0.55645100  0.38626200  0.87267200  1
  O  O7  1  0.05645100  0.61373800  0.12732800  1
  O  O8  1  0.75000000  0.81751900  0.48141700  1
  O  O9  1  0.25000000  0.18248100  0.51858300  1
  O  O10  1  0.25000000  0.31751900  0.01858300  1
  O  O11  1  0.75000000  0.68248100  0.98141700  1
  O  O12  1  0.25000000  0.61403000  0.93383200  1
  O  O13  1  0.75000000  0.38597000  0.06616800  1
  O  O14  1  0.75000000  0.11403000  0.56616800  1
  O  O15  1  0.25000000  0.88597000  0.43383200  1
  O  O16  1  0.25000000  0.71864100  0.75024600  1
  O  O17  1  0.75000000  0.28135900  0.24975400  1
  O  O18  1  0.75000000  0.21864100  0.74975400  1
  O  O19  1  0.25000000  0.78135900  0.25024600  1
  O  O20  1  0.93051400  0.63405000  0.35784700  1
  O  O21  1  0.43051400  0.36595000  0.64215300  1
  O  O22  1  0.06948600  0.13405000  0.14215300  1
  O  O23  1  0.56948600  0.86595000  0.85784700  1
  O  O24  1  0.06948600  0.36595000  0.64215300  1
  O  O25  1  0.56948600  0.63405000  0.35784700  1
  O  O26  1  0.93051400  0.86595000  0.85784700  1
  O  O27  1  0.43051400  0.13405000  0.14215300  1
  O  O28  1  0.25000000  0.44986300  0.25468200  1
  O  O29  1  0.75000000  0.55013700  0.74531800  1
  O  O30  1  0.75000000  0.94986300  0.24531800  1
  O  O31  1  0.25000000  0.05013700  0.75468200  1
  O  O32  1  0.25000000  0.52856600  0.51485300  1
  O  O33  1  0.75000000  0.47143400  0.48514700  1
  O  O34  1  0.75000000  0.02856600  0.98514700  1
  O  O35  1  0.25000000  0.97143400  0.01485300  1
loop_
_geom_bond_atom_site_label_1
_geom_bond_atom_site_label_2
_geom_bond_distance
_geom_bond_site_symmetry_2
Ca0 O6 2.359084 1_555
Ca0 O3 2.359084 1_455
Ca0 O16 2.457486 1_555
Ca0 O24 2.536975 1_555
Ca0 O21 2.536975 1_555
Ca0 O12 2.615719 1_555
Ca0 O31 2.639005 1_555
Ca1 O0 2.359084 1_555
Ca1 O5 2.359084 1_455
Ca1 O19 2.457486 1_545
Ca1 O27 2.536975 1_555
Ca1 O22 2.536975 1_555
Ca1 O15 2.615719 1_545
Ca1 O28 2.639005 1_555
Ca2 O2 2.359084 1_555
Ca2 O7 2.359084 1_655
Ca2 O17 2.457486 1_555
Ca2 O25 2.536975 1_555
Ca2 O20 2.536975 1_555
Ca2 O13 2.615719 1_555
Ca2 O30 2.639005 1_555
Ca3 O1 2.359084 1_655
Ca3 O4 2.359084 1_555
Ca3 O18 2.457486 1_565
Ca3 O26 2.536975 1_555
Ca3 O23 2.536975 1_555
Ca3 O14 2.615719 1_565
Ca3 O29 2.639005 1_555
Ni0 O3 2.087390 1_454
Ni0 O7 2.087390 1_555
Ni0 O12 2.109073 1_554
Ni0 O13 2.109073 1_455
Ni0 O11 2.165772 1_454
Ni0 O10 2.165772 1_555
Ni1 O5 2.087390 1_455
Ni1 O1 2.087390 1_545
Ni1 O15 2.109073 1_545
Ni1 O14 2.109073 1_455
Ni1 O8 2.165772 1_445
Ni1 O9 2.165772 1_555
Ni2 O4 2.087390 1_545
Ni2 O0 2.087390 1_555
Ni2 O15 2.109073 1_545
Ni2 O14 2.109073 1_555
Ni2 O9 2.165772 1_555
Ni2 O8 2.165772 1_545
Ni3 O6 2.087390 1_554
Ni3 O2 2.087390 1_555
Ni3 O12 2.109073 1_554
Ni3 O13 2.109073 1_555
Ni3 O10 2.165772 1_555
Ni3 O11 2.165772 1_554
O0 P5 1.540534 1_555
O1 P4 1.540534 1_555
O2 P7 1.540534 1_555
O3 P6 1.540534 1_555
O4 P4 1.540534 1_555
O5 P5 1.540534 1_555
O6 P6 1.540534 1_555
O7 P7 1.540534 1_555
O8 P3 1.536485 1_555
O9 P2 1.536485 1_555
O10 P1 1.536485 1_555
O11 P0 1.536485 1_555
O12 Sb0 1.952581 1_555
O13 Sb1 1.952581 1_555
O14 Sb2 1.952581 1_555
O15 Sb3 1.952581 1_555
O16 P4 1.591164 1_555
O16 Sb0 2.168150 1_555
O17 P5 1.591164 1_555
O17 Sb1 2.168150 1_555
O18 P6 1.591164 1_555
O18 Sb2 2.168150 1_555
O19 P7 1.591164 1_555
O19 Sb3 2.168150 1_555
O20 P3 1.566027 1_555
O20 Sb3 2.161225 1_655
O21 P2 1.566027 1_555
O21 Sb2 2.161225 1_555
O22 P1 1.566027 1_555
O22 Sb1 2.161225 1_455
O23 P0 1.566027 1_555
O23 Sb0 2.161225 1_555
O24 P2 1.566027 1_555
O24 Sb2 2.161225 1_455
O25 P3 1.566027 1_555
O25 Sb3 2.161225 1_555
O26 P0 1.566027 1_555
O26 Sb0 2.161225 1_655
O27 P1 1.566027 1_555
O27 Sb1 2.161225 1_555
O28 P7 1.580327 1_555
O28 Sb3 2.346920 1_555
O29 P6 1.580327 1_555
O29 Sb2 2.346920 1_555
O30 P5 1.580327 1_565
O30 Sb1 2.346920 1_565
O31 P4 1.580327 1_545
O31 Sb0 2.346920 1_545
O32 P2 1.537033 1_555
O32 Sb3 2.152926 1_555
O33 P3 1.537033 1_555
O33 Sb2 2.152926 1_555
O34 P0 1.537033 1_545
O34 Sb1 2.152926 1_556
O35 P1 1.537033 1_565
O35 Sb0 2.152926 1_554
