# generated using pymatgen
data_Bi2Sb2Te3
_symmetry_space_group_name_H-M   'P 1'
_cell_length_a   14.02526982
_cell_length_b   14.02526982
_cell_length_c   14.02526981
_cell_angle_alpha   18.18010514
_cell_angle_beta   18.18010514
_cell_angle_gamma   18.18010366
_symmetry_Int_Tables_number   1
_chemical_formula_structural   Bi2Sb2Te3
_chemical_formula_sum   'Bi2 Sb2 Te3'
_cell_volume   234.53917295
_cell_formula_units_Z   1
loop_
 _symmetry_equiv_pos_site_id
 _symmetry_equiv_pos_as_xyz
  1  'x, y, z'
loop_
 _atom_site_type_symbol
 _atom_site_label
 _atom_site_symmetry_multiplicity
 _atom_site_fract_x
 _atom_site_fract_y
 _atom_site_fract_z
 _atom_site_occupancy
  Bi  Bi0  1  0.85404200  0.85404200  0.85404200  1
  Bi  Bi1  1  0.14595800  0.14595800  0.14595800  1
  Sb  Sb0  1  0.71358500  0.71358500  0.71358500  1
  Sb  Sb1  1  0.28641500  0.28641500  0.28641500  1
  Te  Te0  1  0.57920200  0.57920200  0.57920200  1
  Te  Te1  1  0.42079800  0.42079800  0.42079800  1
  Te  Te2  1  0.00000000  0.00000000  0.00000000  1
loop_
_geom_bond_atom_site_label_1
_geom_bond_atom_site_label_2
_geom_bond_distance
_geom_bond_site_symmetry_2
Bi0 Bi1 3.079320 1_566
Bi0 Bi1 3.079320 1_656
Bi0 Bi1 3.079320 1_665
Bi0 Te0 3.521660 1_655
Bi0 Te0 3.521660 1_565
Bi0 Te0 3.521660 1_556
Bi1 Te1 3.521660 1_455
Bi1 Te1 3.521660 1_545
Bi1 Te1 3.521660 1_554
Sb0 Te1 3.059417 1_655
Sb0 Te1 3.059417 1_565
Sb0 Te1 3.059417 1_556
Sb0 Te2 3.211521 1_656
Sb0 Te2 3.211521 1_566
Sb0 Te2 3.211521 1_665
Sb1 Te0 3.059417 1_455
Sb1 Te0 3.059417 1_545
Sb1 Te0 3.059417 1_554
Sb1 Te2 3.211521 1_565
Sb1 Te2 3.211521 1_655
Sb1 Te2 3.211521 1_556
