# generated using pymatgen
data_Li2VF6
_symmetry_space_group_name_H-M   'P 1'
_cell_length_a   9.87388000
_cell_length_b   9.96160625
_cell_length_c   11.30155193
_cell_angle_alpha   115.92052804
_cell_angle_beta   115.75561959
_cell_angle_gamma   90.14119191
_symmetry_Int_Tables_number   1
_chemical_formula_structural   Li2VF6
_chemical_formula_sum   'Li16 V8 F48'
_cell_volume   874.69583739
_cell_formula_units_Z   8
loop_
 _symmetry_equiv_pos_site_id
 _symmetry_equiv_pos_as_xyz
  1  'x, y, z'
loop_
 _atom_site_type_symbol
 _atom_site_label
 _atom_site_symmetry_multiplicity
 _atom_site_fract_x
 _atom_site_fract_y
 _atom_site_fract_z
 _atom_site_occupancy
  Li  Li0  1  0.12626100  0.87496500  0.75272900  1
  Li  Li1  1  0.37724700  0.64043500  0.76296900  1
  Li  Li2  1  0.19020800  0.68074500  0.36387100  1
  Li  Li3  1  0.32191500  0.30136900  0.62741300  1
  Li  Li4  1  0.29495300  0.80767100  0.12707300  1
  Li  Li5  1  0.38284500  0.15436300  0.29556600  1
  Li  Li6  1  0.29793800  0.31282900  0.11687200  1
  Li  Li7  1  0.67779400  0.18853300  0.86998800  1
  Li  Li8  1  0.68159300  0.70069200  0.38846200  1
  Li  Li9  1  0.81111800  0.31099200  0.62487100  1
  Li  Li10  1  0.63210600  0.88867100  0.24647700  1
  Li  Li11  1  0.87167600  0.64229700  0.74825200  1
  Li  Li12  1  0.63629600  0.36569800  0.24609000  1
  Li  Li13  1  0.89903300  0.12220100  0.76311200  1
  Li  Li14  1  0.85389500  0.61512000  0.19863600  1
  Li  Li15  1  0.87944200  0.12561200  0.25252200  1
  V  V0  1  0.00000900  0.50115600  0.00050300  1
  V  V1  1  0.00474700  0.00269900  0.00700500  1
  V  V2  1  0.00475100  0.49905000  0.49768300  1
  V  V3  1  0.00311400  0.99715000  0.49954900  1
  V  V4  1  0.48943500  0.49381300  0.99353400  1
  V  V5  1  0.50244600  0.00291800  0.99841800  1
  V  V6  1  0.49724500  0.50327600  0.50037800  1
  V  V7  1  0.50042200  0.00002800  0.50237700  1
  F  F0  1  0.02364300  0.01125200  0.84530400  1
  F  F1  1  0.13214400  0.37032000  0.99225300  1
  F  F2  1  0.15800700  0.97913900  0.65594700  1
  F  F3  1  0.00460100  0.32683800  0.34213700  1
  F  F4  1  0.36543700  0.63058800  0.00825300  1
  F  F5  1  0.02351300  0.81503700  0.35739400  1
  F  F6  1  0.18684200  0.47556800  0.63720700  1
  F  F7  1  0.12909600  0.13153000  0.50156100  1
  F  F8  1  0.12693500  0.63021400  0.49069100  1
  F  F9  1  0.32683300  0.83432600  0.83907500  1
  F  F10  1  0.00781300  0.50066800  0.17324400  1
  F  F11  1  0.34269700  0.32035200  0.83734900  1
  F  F12  1  0.17228600  0.67071300  0.14345700  1
  F  F13  1  0.50307400  0.52499200  0.84545500  1
  F  F14  1  0.19086200  0.16802300  0.14647200  1
  F  F15  1  0.53529200  0.04416900  0.86782000  1
  F  F16  1  0.37915000  0.85779100  0.49531700  1
  F  F17  1  0.38101300  0.34252800  0.49027800  1
  F  F18  1  0.62285600  0.86869200  0.00654300  1
  F  F19  1  0.13613000  0.86882200  0.99833700  1
  F  F20  1  0.32917800  0.52295900  0.35537200  1
  F  F21  1  0.47086700  0.16674600  0.64551300  1
  F  F22  1  0.33020500  0.99508400  0.33080000  1
  F  F23  1  0.46761300  0.65228000  0.64947600  1
  F  F24  1  0.50994400  0.33650600  0.33005600  1
  F  F25  1  0.68380000  0.01609000  0.66672300  1
  F  F26  1  0.54156200  0.83805600  0.35356300  1
  F  F27  1  0.67746100  0.47414700  0.63026200  1
  F  F28  1  0.87516900  0.13473300  0.99477500  1
  F  F29  1  0.37573100  0.13694700  0.01371500  1
  F  F30  1  0.63362700  0.64292800  0.50674000  1
  F  F31  1  0.61657300  0.13790300  0.48903100  1
  F  F32  1  0.46826500  0.97009800  0.14761300  1
  F  F33  1  0.84181700  0.82869700  0.86243200  1
  F  F34  1  0.47834100  0.45609100  0.14398700  1
  F  F35  1  0.83579700  0.31374100  0.85075300  1
  F  F36  1  0.65962200  0.67587300  0.17042500  1
  F  F37  1  0.98060300  0.51531200  0.83141900  1
  F  F38  1  0.67875300  0.17022600  0.16351100  1
  F  F39  1  0.87170200  0.37901000  0.50872900  1
  F  F40  1  0.85947500  0.86751100  0.49196100  1
  F  F41  1  0.82066200  0.52912200  0.35338200  1
  F  F42  1  0.95356400  0.16251600  0.63623600  1
  F  F43  1  0.65022700  0.39197900  0.01225300  1
  F  F44  1  0.99307700  0.67122900  0.65879600  1
  F  F45  1  0.83171400  0.01205600  0.33721700  1
  F  F46  1  0.85929700  0.61464800  0.01278200  1
  F  F47  1  0.98483800  0.00187500  0.16081400  1
loop_
_geom_bond_atom_site_label_1
_geom_bond_atom_site_label_2
_geom_bond_distance
_geom_bond_site_symmetry_2
F0 Li13 1.873290 1_455
F0 Li0 1.910687 1_545
F0 V1 1.952970 1_556
F1 V0 1.848633 1_556
F1 Li6 1.922887 1_556
F2 V3 1.850600 1_555
F2 Li0 1.913170 1_555
F3 V2 1.842408 1_555
F3 Li15 1.922576 1_455
F4 V4 1.835800 1_554
F4 Li4 2.036345 1_555
F5 V3 1.909903 1_555
F5 Li14 2.058740 1_455
F5 Li2 2.120330 1_555
F6 V2 1.906415 1_555
F6 Li1 1.968182 1_555
F6 Li3 2.184959 1_555
F7 V3 1.811199 1_545
F7 Li3 2.009262 1_555
F8 V2 1.826001 1_555
F8 Li2 2.026157 1_555
F9 Li1 1.908560 1_555
F9 V5 1.923028 1_565
F9 Li0 1.925621 1_555
F10 V0 1.922179 1_555
F10 Li14 1.947680 1_455
F10 Li2 2.082351 1_555
F11 V4 1.816395 1_555
F11 Li3 2.211688 1_555
F12 V0 1.889024 1_555
F12 Li4 1.941721 1_555
F12 Li2 2.376061 1_555
F13 V4 1.888216 1_555
F13 Li1 1.916461 1_555
F13 Li3 2.363240 1_555
F14 V1 1.942191 1_555
F14 Li5 1.968989 1_555
F14 Li6 2.008042 1_555
F15 V5 1.843391 1_555
F15 Li7 1.994434 1_555
F16 V7 1.804881 1_565
F16 Li2 2.020515 1_555
F17 V6 1.900432 1_555
F17 Li3 2.061779 1_555
F17 Li5 2.187442 1_555
F18 V5 1.797248 1_564
F19 V1 1.864350 1_566
F19 Li4 1.934886 1_556
F20 V6 1.843096 1_555
F20 Li2 2.087063 1_555
F20 Li6 2.466511 1_555
F21 V7 1.877254 1_555
F21 Li3 1.997858 1_555
F21 Li7 2.381044 1_555
F22 V7 1.915993 1_565
F22 Li5 1.916877 1_565
F22 Li4 2.109539 1_555
F23 V6 1.836342 1_555
F23 Li1 1.892524 1_555
F24 Li12 1.951890 1_555
F24 V6 1.973820 1_555
F24 Li5 1.991076 1_555
F24 Li6 2.315180 1_555
F25 V7 1.889422 1_555
F25 Li13 1.946977 1_555
F25 Li7 2.213713 1_555
F26 V7 1.954869 1_565
F26 Li8 1.986688 1_555
F26 Li10 1.997433 1_555
F27 V6 1.873549 1_555
F27 Li11 2.017529 1_555
F27 Li9 2.093033 1_555
F28 V1 1.843785 1_656
F28 Li7 2.086029 1_555
F29 V5 1.836393 1_554
F29 Li6 2.004505 1_555
F30 Li8 1.887739 1_555
F30 V6 1.890251 1_555
F31 V7 1.883640 1_555
F31 Li9 2.031352 1_555
F31 Li5 2.462414 1_555
F32 Li10 1.936850 1_555
F32 V5 2.009926 1_564
F32 Li4 2.216550 1_555
F32 Li5 2.329505 1_565
F33 Li11 1.854320 1_555
F33 V1 1.867644 1_666
F34 V4 1.940275 1_554
F34 Li12 1.981432 1_555
F34 Li6 2.105772 1_555
F35 V0 1.953638 1_656
F35 Li13 1.975515 1_555
F35 Li7 2.135195 1_555
F35 Li9 2.444430 1_555
F36 Li14 1.946900 1_555
F36 Li10 1.979664 1_555
F36 V4 2.001311 1_554
F36 Li8 2.276575 1_555
F37 V0 1.904124 1_656
F37 Li11 1.951406 1_555
F37 Li9 2.196996 1_555
F38 Li12 1.895697 1_555
F38 V5 1.932301 1_554
F38 Li15 1.949086 1_555
F39 V2 1.853814 1_655
F39 Li9 1.999432 1_555
F40 V3 1.864150 1_655
F40 Li8 1.927545 1_555
F41 Li12 1.943126 1_555
F41 V2 1.976581 1_655
F41 Li8 2.203654 1_555
F41 Li14 2.388992 1_555
F42 Li13 1.918488 1_555
F42 V3 1.943041 1_645
F42 Li9 2.049800 1_555
F43 V4 1.870318 1_554
F43 Li7 2.073837 1_554
F43 Li14 2.371770 1_555
F44 V2 1.929663 1_655
F44 Li11 1.961704 1_555
F44 Li0 1.966045 1_655
F45 Li10 1.891142 1_545
F45 Li15 1.937500 1_555
F45 V3 1.947576 1_645
F46 V0 1.807188 1_655
F46 Li14 2.122132 1_555
F47 V1 1.835692 1_655
F47 Li15 1.871726 1_555
