# generated using pymatgen
data_TiZnNi(PO4)3
_symmetry_space_group_name_H-M   'P 1'
_cell_length_a   8.52776815
_cell_length_b   8.52776815
_cell_length_c   8.52776812
_cell_angle_alpha   60.59084875
_cell_angle_beta   60.59084875
_cell_angle_gamma   60.59083949
_symmetry_Int_Tables_number   1
_chemical_formula_structural   TiZnNi(PO4)3
_chemical_formula_sum   'Ti2 Zn2 Ni2 P6 O24'
_cell_volume   444.37388298
_cell_formula_units_Z   2
loop_
 _symmetry_equiv_pos_site_id
 _symmetry_equiv_pos_as_xyz
  1  'x, y, z'
loop_
 _atom_site_type_symbol
 _atom_site_label
 _atom_site_symmetry_multiplicity
 _atom_site_fract_x
 _atom_site_fract_y
 _atom_site_fract_z
 _atom_site_occupancy
  Ti  Ti0  1  0.85619500  0.85619500  0.85619500  1
  Ti  Ti1  1  0.35619500  0.35619500  0.35619500  1
  Zn  Zn0  1  0.00350700  0.00350700  0.00350700  1
  Zn  Zn1  1  0.50350700  0.50350700  0.50350700  1
  Ni  Ni0  1  0.64359600  0.64359600  0.64359600  1
  Ni  Ni1  1  0.14359600  0.14359600  0.14359600  1
  P  P0  1  0.95477500  0.54249300  0.25093900  1
  P  P1  1  0.54249300  0.25093900  0.95477500  1
  P  P2  1  0.25093900  0.95477500  0.54249300  1
  P  P3  1  0.75093900  0.04249300  0.45477500  1
  P  P4  1  0.45477500  0.75093900  0.04249300  1
  P  P5  1  0.04249300  0.45477500  0.75093900  1
  O  O0  1  0.88561100  0.48606700  0.69193300  1
  O  O1  1  0.69193300  0.88561100  0.48606700  1
  O  O2  1  0.94542300  0.73989800  0.08749300  1
  O  O3  1  0.48606700  0.69193300  0.88561100  1
  O  O4  1  0.98606700  0.38561100  0.19193300  1
  O  O5  1  0.75983500  0.55905300  0.41312100  1
  O  O6  1  0.73989800  0.08749300  0.94542300  1
  O  O7  1  0.55905300  0.41312100  0.75983500  1
  O  O8  1  0.81369800  0.99604600  0.62031900  1
  O  O9  1  0.41312100  0.75983500  0.55905300  1
  O  O10  1  0.91312100  0.05905300  0.25983500  1
  O  O11  1  0.62031900  0.81369800  0.99604600  1
  O  O12  1  0.38561100  0.19193300  0.98606700  1
  O  O13  1  0.08749300  0.94542300  0.73989800  1
  O  O14  1  0.58749300  0.23989800  0.44542300  1
  O  O15  1  0.19193300  0.98606700  0.38561100  1
  O  O16  1  0.44542300  0.58749300  0.23989800  1
  O  O17  1  0.25983500  0.91312100  0.05905300  1
  O  O18  1  0.23989800  0.44542300  0.58749300  1
  O  O19  1  0.99604600  0.62031900  0.81369800  1
  O  O20  1  0.49604600  0.31369800  0.12031900  1
  O  O21  1  0.05905300  0.25983500  0.91312100  1
  O  O22  1  0.31369800  0.12031900  0.49604600  1
  O  O23  1  0.12031900  0.49604600  0.31369800  1
loop_
_geom_bond_atom_site_label_1
_geom_bond_atom_site_label_2
_geom_bond_distance
_geom_bond_site_symmetry_2
Ni0 O0 1.950089 1_555
Ni0 O3 1.950089 1_555
Ni0 O1 1.950089 1_555
Ni0 O9 2.035125 1_555
Ni0 O5 2.035125 1_555
Ni0 O7 2.035125 1_555
Ni1 O4 1.950089 1_455
Ni1 O15 1.950089 1_545
Ni1 O12 1.950089 1_554
Ni1 O17 2.035125 1_545
Ni1 O21 2.035125 1_554
Ni1 O10 2.035125 1_455
O0 P5 1.514236 1_655
O1 P3 1.514236 1_565
O2 P0 1.567158 1_555
O2 Ti0 2.065155 1_554
O2 Zn0 2.230636 1_665
O3 P4 1.514236 1_556
O4 P0 1.514236 1_555
O5 P0 1.549068 1_555
O5 Zn1 2.144830 1_555
O6 P1 1.567158 1_555
O6 Ti0 2.065155 1_545
O6 Zn0 2.230636 1_656
O7 P1 1.549068 1_555
O7 Zn1 2.144830 1_555
O8 P3 1.555939 1_565
O8 Ti0 1.880231 1_555
O9 P2 1.549068 1_555
O9 Zn1 2.144829 1_555
O10 P3 1.549068 1_555
O10 Zn0 2.144830 1_655
O11 P4 1.555940 1_556
O11 Ti0 1.880231 1_555
O12 P1 1.514236 1_555
O13 P2 1.567158 1_555
O13 Ti0 2.065155 1_455
O13 Zn0 2.230636 1_566
O14 P3 1.567158 1_555
O14 Ti1 2.065155 1_555
O14 Zn1 2.230636 1_555
O15 P2 1.514236 1_555
O16 P4 1.567158 1_555
O16 Ti1 2.065155 1_555
O16 Zn1 2.230636 1_555
O17 P4 1.549068 1_555
O17 Zn0 2.144829 1_565
O18 P5 1.567158 1_555
O18 Ti1 2.065155 1_555
O18 Zn1 2.230636 1_555
O19 P5 1.555939 1_655
O19 Ti0 1.880231 1_555
O20 P1 1.555939 1_554
O20 Ti1 1.880231 1_555
O21 P5 1.549068 1_555
O21 Zn0 2.144830 1_556
O22 P2 1.555940 1_545
O22 Ti1 1.880231 1_555
O23 P0 1.555939 1_455
O23 Ti1 1.880231 1_555
