# generated using pymatgen
data_SiGe
_symmetry_space_group_name_H-M   'P 1'
_cell_length_a   5.60063800
_cell_length_b   11.19939700
_cell_length_c   11.20083406
_cell_angle_alpha   89.99395881
_cell_angle_beta   90.00000000
_cell_angle_gamma   90.00000000
_symmetry_Int_Tables_number   1
_chemical_formula_structural   SiGe
_chemical_formula_sum   'Si16 Ge16'
_cell_volume   702.55851787
_cell_formula_units_Z   16
loop_
 _symmetry_equiv_pos_site_id
 _symmetry_equiv_pos_as_xyz
  1  'x, y, z'
loop_
 _atom_site_type_symbol
 _atom_site_label
 _atom_site_symmetry_multiplicity
 _atom_site_fract_x
 _atom_site_fract_y
 _atom_site_fract_z
 _atom_site_occupancy
  Si  Si0  1  0.00521300  0.37731200  0.99778900  1
  Si  Si1  1  0.99479700  0.87270600  0.00220500  1
  Si  Si2  1  0.50521300  0.62268800  0.00221100  1
  Si  Si3  1  0.49479700  0.12729400  0.99779500  1
  Si  Si4  1  0.00541500  0.62734200  0.24531500  1
  Si  Si5  1  0.99457200  0.12267800  0.24994300  1
  Si  Si6  1  0.50541500  0.37265800  0.75468500  1
  Si  Si7  1  0.49457200  0.87732200  0.75005700  1
  Si  Si8  1  0.24587000  0.50332700  0.12114300  1
  Si  Si9  1  0.25412500  0.99893400  0.62650700  1
  Si  Si10  1  0.74587000  0.49667300  0.87885700  1
  Si  Si11  1  0.75412500  0.00106600  0.37349300  1
  Si  Si12  1  0.24556500  0.74905400  0.37111800  1
  Si  Si13  1  0.25421100  0.25318900  0.87660300  1
  Si  Si14  1  0.75421100  0.74681100  0.12339700  1
  Si  Si15  1  0.74556500  0.25094600  0.62888200  1
  Ge  Ge0  1  0.99442100  0.37268400  0.50239500  1
  Ge  Ge1  1  0.00557100  0.87731300  0.49759300  1
  Ge  Ge2  1  0.49442100  0.62731600  0.49760500  1
  Ge  Ge3  1  0.50557100  0.12268700  0.50240700  1
  Ge  Ge4  1  0.99465900  0.62270900  0.75455200  1
  Ge  Ge5  1  0.00537900  0.12728700  0.74989500  1
  Ge  Ge6  1  0.49465900  0.37729100  0.24544800  1
  Ge  Ge7  1  0.50537900  0.87271300  0.25010500  1
  Ge  Ge8  1  0.25471400  0.49669900  0.62875300  1
  Ge  Ge9  1  0.24549800  0.00105900  0.12340300  1
  Ge  Ge10  1  0.75471400  0.50330100  0.37124700  1
  Ge  Ge11  1  0.74549800  0.99894100  0.87659700  1
  Ge  Ge12  1  0.25440100  0.75118500  0.87875200  1
  Ge  Ge13  1  0.24559100  0.24660300  0.37345500  1
  Ge  Ge14  1  0.74559100  0.75339700  0.62654500  1
  Ge  Ge15  1  0.75440100  0.24881500  0.12124800  1
loop_
_geom_bond_atom_site_label_1
_geom_bond_atom_site_label_2
_geom_bond_distance
_geom_bond_site_symmetry_2
Si0 Si10 2.381363 1_455
Si0 Si8 2.391195 1_556
Si0 Si13 2.391660 1_555
Si1 Si14 2.376090 1_555
Si2 Si8 2.381363 1_555
Si4 Si8 2.382739 1_555
Si7 Si9 2.362870 1_555
Si10 Si6 2.382739 1_555
Si10 Si2 2.391195 1_556
Si11 Si5 2.362870 1_555
Si12 Si4 2.377607 1_555
Si13 Si6 2.373605 1_555
Si13 Si3 2.376090 1_555
Si14 Si4 2.373605 1_655
Si14 Si2 2.391660 1_555
Si15 Si6 2.377607 1_555
Ge0 Si15 2.410018 1_555
Ge0 Ge8 2.461251 1_655
Ge0 Ge13 2.461487 1_655
Ge0 Ge10 2.469742 1_555
Ge1 Si11 2.415747 1_465
Ge1 Si12 2.424299 1_555
Ge1 Si9 2.424560 1_555
Ge1 Ge14 2.476251 1_455
Ge2 Si12 2.410018 1_555
Ge2 Ge8 2.469742 1_555
Ge3 Si9 2.415747 1_545
Ge3 Si15 2.424299 1_555
Ge3 Si11 2.424560 1_555
Ge4 Si10 2.423231 1_555
Ge4 Ge8 2.469566 1_655
Ge5 Si15 2.423260 1_455
Ge5 Si9 2.432621 1_545
Ge5 Si13 2.438236 1_555
Ge6 Si8 2.423231 1_555
Ge7 Si12 2.423260 1_555
Ge7 Si11 2.432621 1_565
Ge7 Si14 2.438236 1_555
Ge7 Ge9 2.489618 1_565
Ge8 Si6 2.427037 1_555
Ge9 Si5 2.416506 1_455
Ge9 Si1 2.425090 1_445
Ge9 Si3 2.434576 1_554
Ge10 Si4 2.427037 1_655
Ge10 Ge2 2.461251 1_555
Ge10 Ge6 2.469566 1_555
Ge11 Si7 2.416506 1_555
Ge11 Si3 2.425090 1_565
Ge11 Si1 2.434576 1_556
Ge11 Ge5 2.489618 1_665
Ge12 Si1 2.424593 1_456
Ge12 Si7 2.425365 1_555
Ge12 Si2 2.440495 1_556
Ge12 Ge4 2.474311 1_455
Ge13 Si5 2.411844 1_455
Ge13 Ge3 2.476251 1_555
Ge13 Ge6 2.478580 1_555
Ge14 Si7 2.411844 1_555
Ge14 Ge2 2.461487 1_555
Ge14 Ge4 2.478580 1_555
Ge15 Si3 2.424593 1_554
Ge15 Si5 2.425365 1_555
Ge15 Si0 2.440495 1_654
Ge15 Ge6 2.474311 1_555
