# generated using pymatgen
data_La3Bi4Au3
_symmetry_space_group_name_H-M   'P 1'
_cell_length_a   9.00017090
_cell_length_b   9.00017090
_cell_length_c   9.00017090
_cell_angle_alpha   109.47122063
_cell_angle_beta   109.47122063
_cell_angle_gamma   109.47122063
_symmetry_Int_Tables_number   1
_chemical_formula_structural   La3Bi4Au3
_chemical_formula_sum   'La6 Bi8 Au6'
_cell_volume   561.21643046
_cell_formula_units_Z   2
loop_
 _symmetry_equiv_pos_site_id
 _symmetry_equiv_pos_as_xyz
  1  'x, y, z'
loop_
 _atom_site_type_symbol
 _atom_site_label
 _atom_site_symmetry_multiplicity
 _atom_site_fract_x
 _atom_site_fract_y
 _atom_site_fract_z
 _atom_site_occupancy
  La  La0  1  0.37500000  0.75000000  0.62500000  1
  La  La1  1  0.12500000  0.25000000  0.87500000  1
  La  La2  1  0.75000000  0.62500000  0.37500000  1
  La  La3  1  0.25000000  0.87500000  0.12500000  1
  La  La4  1  0.62500000  0.37500000  0.75000000  1
  La  La5  1  0.87500000  0.12500000  0.25000000  1
  Bi  Bi0  1  0.17365970  -0.00000000  0.50000000  1
  Bi  Bi1  1  0.00000000  0.50000000  0.17365970  1
  Bi  Bi2  1  0.50000000  0.17365970  -0.00000000  1
  Bi  Bi3  1  0.32634030  0.32634030  0.32634030  1
  Bi  Bi4  1  0.00000000  0.50000000  0.67365970  1
  Bi  Bi5  1  0.67365970  0.00000000  0.50000000  1
  Bi  Bi6  1  0.50000000  0.67365970  -0.00000000  1
  Bi  Bi7  1  0.82634030  0.82634030  0.82634030  1
  Au  Au0  1  0.87500000  0.75000000  0.12500000  1
  Au  Au1  1  0.62500000  0.25000000  0.37500000  1
  Au  Au2  1  0.75000000  0.12500000  0.87500000  1
  Au  Au3  1  0.25000000  0.37500000  0.62500000  1
  Au  Au4  1  0.12500000  0.87500000  0.75000000  1
  Au  Au5  1  0.37500000  0.62500000  0.25000000  1
loop_
_geom_bond_atom_site_label_1
_geom_bond_atom_site_label_2
_geom_bond_distance
_geom_bond_site_symmetry_2
Bi0 La3 3.557910 1_545
Bi0 La4 3.557910 1_555
Bi0 La0 3.557910 1_545
Bi0 La5 3.636644 1_455
Bi0 La2 3.636644 1_445
Bi0 La1 3.636644 1_555
Bi1 La0 3.557910 1_555
Bi1 La5 3.557910 1_455
Bi1 La2 3.557910 1_455
Bi1 La4 3.636644 1_454
Bi1 La1 3.636644 1_554
Bi1 La3 3.636644 1_555
Bi2 La4 3.557910 1_554
Bi2 La2 3.557910 1_555
Bi2 La1 3.557910 1_554
Bi2 La3 3.636644 1_545
Bi2 La0 3.636644 1_544
Bi2 La5 3.636644 1_555
Bi3 La3 3.557910 1_545
Bi3 La1 3.557910 1_554
Bi3 La5 3.557910 1_455
Bi3 La2 3.636644 1_555
Bi3 La0 3.636644 1_555
Bi3 La4 3.636644 1_555
Bi4 La4 3.557910 1_455
Bi4 La1 3.557910 1_555
Bi4 La3 3.557910 1_556
Bi4 La0 3.636644 1_555
Bi4 La5 3.636644 1_455
Bi4 La2 3.636644 1_455
Bi5 La5 3.557910 1_555
Bi5 La1 3.557910 1_655
Bi5 La2 3.557910 1_545
Bi5 La3 3.636644 1_545
Bi5 La0 3.636644 1_545
Bi5 La4 3.636644 1_555
Bi6 La0 3.557910 1_554
Bi6 La5 3.557910 1_565
Bi6 La3 3.557910 1_555
Bi6 La4 3.636644 1_554
Bi6 La2 3.636644 1_555
Bi6 La1 3.636644 1_554
Bi7 La0 3.557910 1_555
Bi7 La2 3.557910 1_555
Bi7 La4 3.557910 1_555
Bi7 La3 3.636644 1_656
Bi7 La1 3.636644 1_665
Bi7 La5 3.636644 1_566
Au0 Bi0 2.921676 1_665
Au0 Bi6 2.921676 1_555
Au0 Bi1 2.921676 1_655
Au0 Bi7 2.921676 1_554
Au0 La3 3.182041 1_655
Au0 La2 3.182041 1_555
Au0 La5 3.182041 1_565
Au0 La4 3.182041 1_554
Au1 Bi4 2.921676 1_655
Au1 Bi2 2.921676 1_555
Au1 Bi5 2.921676 1_555
Au1 Bi3 2.921676 1_555
Au1 La3 3.182041 1_545
Au1 La4 3.182041 1_555
Au1 La2 3.182041 1_555
Au1 La5 3.182041 1_555
Au2 Bi5 2.921676 1_555
Au2 Bi1 2.921676 1_656
Au2 Bi2 2.921676 1_556
Au2 Bi7 2.921676 1_545
Au2 La1 3.182041 1_655
Au2 La0 3.182041 1_545
Au2 La4 3.182041 1_555
Au2 La5 3.182041 1_556
Au3 Bi4 2.921676 1_555
Au3 Bi6 2.921676 1_556
Au3 Bi0 2.921676 1_555
Au3 Bi3 2.921676 1_555
Au3 La4 3.182041 1_555
Au3 La0 3.182041 1_555
Au3 La1 3.182041 1_555
Au3 La5 3.182041 1_455
Au4 Bi4 2.921676 1_555
Au4 Bi0 2.921676 1_565
Au4 Bi2 2.921676 1_566
Au4 Bi7 2.921676 1_455
Au4 La0 3.182041 1_555
Au4 La2 3.182041 1_455
Au4 La1 3.182041 1_565
Au4 La3 3.182041 1_556
Au5 Bi1 2.921676 1_555
Au5 Bi5 2.921676 1_565
Au5 Bi6 2.921676 1_555
Au5 Bi3 2.921676 1_555
Au5 La2 3.182041 1_555
Au5 La0 3.182041 1_555
Au5 La1 3.182041 1_554
Au5 La3 3.182041 1_555
