# generated using pymatgen
data_Na2B4O7
_symmetry_space_group_name_H-M   'P 1'
_cell_length_a   7.72900330
_cell_length_b   7.72900330
_cell_length_c   21.69243800
_cell_angle_alpha   90.00000000
_cell_angle_beta   90.00000000
_cell_angle_gamma   119.99999400
_symmetry_Int_Tables_number   1
_chemical_formula_structural   Na2B4O7
_chemical_formula_sum   'Na18 B36 O63'
_cell_volume   1122.24068196
_cell_formula_units_Z   9
loop_
 _symmetry_equiv_pos_site_id
 _symmetry_equiv_pos_as_xyz
  1  'x, y, z'
loop_
 _atom_site_type_symbol
 _atom_site_label
 _atom_site_symmetry_multiplicity
 _atom_site_fract_x
 _atom_site_fract_y
 _atom_site_fract_z
 _atom_site_occupancy
  Na  Na0  1  0.99474100  0.35009300  0.50583400  1
  Na  Na1  1  0.64990700  0.64464800  0.17250100  1
  Na  Na2  1  0.35535200  0.00525900  0.83916700  1
  Na  Na3  1  0.35009300  0.99474100  0.49416600  1
  Na  Na4  1  0.64464800  0.64990700  0.82749900  1
  Na  Na5  1  0.00525900  0.35535200  0.16083300  1
  Na  Na6  1  0.29397600  0.98146200  0.33242300  1
  Na  Na7  1  0.01853800  0.31251400  0.99909000  1
  Na  Na8  1  0.68748600  0.70602400  0.66575600  1
  Na  Na9  1  0.98146200  0.29397600  0.66757700  1
  Na  Na10  1  0.31251400  0.01853800  0.00091000  1
  Na  Na11  1  0.70602400  0.68748600  0.33424400  1
  Na  Na12  1  0.00000000  0.32355400  0.33333300  1
  Na  Na13  1  0.67644600  0.67644600  0.00000000  1
  Na  Na14  1  0.32355400  0.00000000  0.66666700  1
  Na  Na15  1  0.63073900  0.63073900  0.50000000  1
  Na  Na16  1  0.36926100  0.00000000  0.16666700  1
  Na  Na17  1  0.00000000  0.36926100  0.83333300  1
  B  B0  1  0.01538300  0.00511200  0.43657400  1
  B  B1  1  0.99488800  0.01027000  0.10324000  1
  B  B2  1  0.98973000  0.98461700  0.76990700  1
  B  B3  1  0.00511200  0.01538300  0.56342600  1
  B  B4  1  0.01027000  0.99488800  0.89676000  1
  B  B5  1  0.98461700  0.98973000  0.23009300  1
  B  B6  1  0.68595100  0.33771900  0.40718800  1
  B  B7  1  0.66228100  0.34823200  0.07385400  1
  B  B8  1  0.65176800  0.31404900  0.74052100  1
  B  B9  1  0.33771900  0.68595100  0.59281200  1
  B  B10  1  0.34823200  0.66228100  0.92614600  1
  B  B11  1  0.31404900  0.65176800  0.25947900  1
  B  B12  1  0.32532400  0.65820500  0.38713100  1
  B  B13  1  0.34179500  0.66711900  0.05379800  1
  B  B14  1  0.33288100  0.67467600  0.72046400  1
  B  B15  1  0.65820500  0.32532400  0.61286900  1
  B  B16  1  0.66711900  0.34179500  0.94620200  1
  B  B17  1  0.67467600  0.33288100  0.27953600  1
  B  B18  1  0.67164600  0.98945400  0.41744500  1
  B  B19  1  0.01054600  0.68219100  0.08411100  1
  B  B20  1  0.31780900  0.32835400  0.75077800  1
  B  B21  1  0.98945400  0.67164600  0.58255500  1
  B  B22  1  0.68219100  0.01054600  0.91588900  1
  B  B23  1  0.32835400  0.31780900  0.24922200  1
  B  B24  1  0.33946600  0.32629900  0.40630800  1
  B  B25  1  0.67370100  0.01316700  0.07297500  1
  B  B26  1  0.98683300  0.66053400  0.73964200  1
  B  B27  1  0.32629900  0.33946600  0.59369200  1
  B  B28  1  0.01316700  0.67370100  0.92702500  1
  B  B29  1  0.66053400  0.98683300  0.26035800  1
  B  B30  1  0.00891800  0.65624800  0.42825400  1
  B  B31  1  0.34375200  0.35267000  0.09492000  1
  B  B32  1  0.64733000  0.99108200  0.76158700  1
  B  B33  1  0.65624800  0.00891800  0.57174600  1
  B  B34  1  0.35267000  0.34375200  0.90508000  1
  B  B35  1  0.99108200  0.64733000  0.23841300  1
  O  O0  1  0.79880200  0.91213600  0.42152800  1
  O  O1  1  0.08786400  0.88666700  0.08819400  1
  O  O2  1  0.11333300  0.20119800  0.75486100  1
  O  O3  1  0.91213600  0.79880200  0.57847200  1
  O  O4  1  0.88666700  0.08786400  0.91180600  1
  O  O5  1  0.20119800  0.11333300  0.24513900  1
  O  O6  1  0.13851200  0.18947200  0.39810800  1
  O  O7  1  0.81052800  0.94904000  0.06477400  1
  O  O8  1  0.05096000  0.86148800  0.73144100  1
  O  O9  1  0.18947200  0.13851200  0.60189200  1
  O  O10  1  0.94904000  0.81052800  0.93522600  1
  O  O11  1  0.86148800  0.05096000  0.26855900  1
  O  O12  1  0.07852900  0.85640200  0.41871000  1
  O  O13  1  0.14359800  0.22212800  0.08537700  1
  O  O14  1  0.77787200  0.92147100  0.75204400  1
  O  O15  1  0.85640200  0.07852900  0.58129000  1
  O  O16  1  0.22212800  0.14359800  0.91462300  1
  O  O17  1  0.92147100  0.77787200  0.24795600  1
  O  O18  1  0.06681900  0.06681900  0.50000000  1
  O  O19  1  0.93318100  0.00000000  0.16666700  1
  O  O20  1  0.00000000  0.93318100  0.83333300  1
  O  O21  1  0.74504500  0.18972800  0.42809700  1
  O  O22  1  0.81027200  0.55531800  0.09476300  1
  O  O23  1  0.44468200  0.25495500  0.76143000  1
  O  O24  1  0.18972800  0.74504500  0.57190300  1
  O  O25  1  0.55531800  0.81027200  0.90523700  1
  O  O26  1  0.25495500  0.44468200  0.23857000  1
  O  O27  1  0.73864800  0.39159600  0.34301700  1
  O  O28  1  0.60840400  0.34705200  0.00968300  1
  O  O29  1  0.65294800  0.26135200  0.67635000  1
  O  O30  1  0.39159600  0.73864800  0.65698300  1
  O  O31  1  0.34705200  0.60840400  0.99031700  1
  O  O32  1  0.26135200  0.65294800  0.32365000  1
  O  O33  1  0.46970000  0.25748700  0.42029600  1
  O  O34  1  0.74251300  0.21221300  0.08696200  1
  O  O35  1  0.78778700  0.53030000  0.75362900  1
  O  O36  1  0.25748700  0.46970000  0.57970400  1
  O  O37  1  0.21221300  0.74251300  0.91303800  1
  O  O38  1  0.53030000  0.78778700  0.24637100  1
  O  O39  1  0.81107900  0.52494800  0.44415600  1
  O  O40  1  0.47505200  0.28613100  0.11082200  1
  O  O41  1  0.71386900  0.18892100  0.77748900  1
  O  O42  1  0.52494800  0.81107900  0.55584400  1
  O  O43  1  0.28613100  0.47505200  0.88917800  1
  O  O44  1  0.18892100  0.71386900  0.22251100  1
  O  O45  1  0.47278600  0.86871600  0.40398600  1
  O  O46  1  0.13128400  0.60406900  0.07065300  1
  O  O47  1  0.39593100  0.52721400  0.73731900  1
  O  O48  1  0.86871600  0.47278600  0.59601400  1
  O  O49  1  0.60406900  0.13128400  0.92934700  1
  O  O50  1  0.52721400  0.39593100  0.26268100  1
  O  O51  1  0.41548600  0.52945000  0.39935800  1
  O  O52  1  0.47055000  0.88603600  0.06602500  1
  O  O53  1  0.11396400  0.58451400  0.73269100  1
  O  O54  1  0.52945000  0.41548600  0.60064200  1
  O  O55  1  0.88603600  0.47055000  0.93397500  1
  O  O56  1  0.58451400  0.11396400  0.26730900  1
  O  O57  1  0.14126600  0.58494600  0.42549000  1
  O  O58  1  0.41505400  0.55632000  0.09215600  1
  O  O59  1  0.44368000  0.85873400  0.75882300  1
  O  O60  1  0.58494600  0.14126600  0.57451000  1
  O  O61  1  0.55632000  0.41505400  0.90784400  1
  O  O62  1  0.85873400  0.44368000  0.24117700  1
loop_
_geom_bond_atom_site_label_1
_geom_bond_atom_site_label_2
_geom_bond_distance
_geom_bond_site_symmetry_2
Na0 O57 2.357815 1_655
Na0 O36 2.380972 1_655
Na0 O21 2.390057 1_555
Na0 O15 2.446157 1_555
Na0 O18 2.517868 1_655
Na0 O48 2.568760 1_555
Na0 O39 2.747727 1_555
Na1 O58 2.357831 1_555
Na1 O38 2.380971 1_555
Na1 O22 2.390068 1_555
Na1 O17 2.446142 1_555
Na1 O19 2.517869 1_565
Na1 O50 2.568756 1_555
Na1 O40 2.747737 1_555
Na2 O59 2.357815 1_545
Na2 O37 2.380986 1_545
Na2 O23 2.390057 1_555
Na2 O16 2.446151 1_555
Na2 O20 2.517868 1_545
Na2 O49 2.568756 1_555
Na2 O41 2.747727 1_555
Na3 O60 2.357815 1_565
Na3 O33 2.380972 1_565
Na3 O24 2.390057 1_555
Na3 O12 2.446157 1_555
Na3 O18 2.517868 1_565
Na3 O45 2.568760 1_555
Na3 O42 2.747727 1_555
Na4 O61 2.357831 1_555
Na4 O35 2.380971 1_555
Na4 O25 2.390068 1_555
Na4 O14 2.446142 1_555
Na4 O20 2.517869 1_655
Na4 O47 2.568756 1_555
Na4 O43 2.747737 1_555
Na5 O62 2.357815 1_455
Na5 O34 2.380986 1_455
Na5 O26 2.390057 1_555
Na5 O13 2.446151 1_555
Na5 O19 2.517868 1_455
Na5 O46 2.568756 1_555
Na5 O44 2.747727 1_555
Na6 O12 2.366673 1_555
Na6 O56 2.405572 1_565
Na6 O5 2.422578 1_565
Na6 O32 2.430333 1_555
Na6 O45 2.506698 1_555
Na6 O33 2.670584 1_565
Na7 O13 2.366669 1_556
Na7 O55 2.405585 1_455
Na7 O4 2.422582 1_455
Na7 O31 2.430334 1_555
Na7 O46 2.506693 1_556
Na7 O34 2.670568 1_456
Na8 O14 2.366691 1_555
Na8 O54 2.405572 1_555
Na8 O3 2.422582 1_555
Na8 O30 2.430333 1_555
Na8 O47 2.506694 1_555
Na8 O35 2.670584 1_555
Na9 O15 2.366673 1_555
Na9 O53 2.405572 1_655
Na9 O2 2.422578 1_655
Na9 O29 2.430333 1_555
Na9 O48 2.506698 1_555
Na9 O36 2.670584 1_655
Na10 O16 2.366669 1_554
Na10 O52 2.405585 1_545
Na10 O1 2.422582 1_545
Na10 O28 2.430334 1_555
Na10 O49 2.506693 1_554
Na10 O37 2.670568 1_544
Na11 O17 2.366691 1_555
Na11 O51 2.405572 1_555
Na11 O0 2.422582 1_555
Na11 O27 2.430333 1_555
Na11 O50 2.506694 1_555
Na11 O38 2.670584 1_555
Na12 O11 2.303003 1_455
Na12 O6 2.303016 1_555
Na12 O32 2.337382 1_555
Na12 O27 2.337384 1_455
Na12 O62 2.657863 1_455
Na12 O57 2.657879 1_555
Na12 O26 2.672145 1_555
Na12 O21 2.672162 1_455
Na13 O7 2.303003 1_555
Na13 O10 2.303003 1_554
Na13 O28 2.337382 1_555
Na13 O31 2.337382 1_554
Na13 O58 2.657863 1_555
Na13 O61 2.657863 1_554
Na13 O22 2.672141 1_555
Na13 O25 2.672141 1_554
Na14 O8 2.303003 1_545
Na14 O9 2.303016 1_555
Na14 O29 2.337382 1_555
Na14 O30 2.337384 1_545
Na14 O59 2.657863 1_545
Na14 O60 2.657879 1_555
Na14 O23 2.672145 1_555
Na14 O24 2.672162 1_545
Na15 O42 2.284413 1_555
Na15 O39 2.284413 1_555
Na15 O3 2.547565 1_555
Na15 O0 2.547565 1_555
Na15 O54 2.616206 1_555
Na15 O51 2.616206 1_555
Na16 O44 2.284413 1_545
Na16 O40 2.284425 1_555
Na16 O5 2.547560 1_555
Na16 O1 2.547580 1_545
Na16 O52 2.616206 1_545
Na16 O56 2.616206 1_555
Na17 O41 2.284413 1_455
Na17 O43 2.284425 1_555
Na17 O2 2.547560 1_555
Na17 O4 2.547580 1_455
Na17 O55 2.616206 1_455
Na17 O53 2.616206 1_555
B0 O18 1.445306 1_555
B0 O0 1.490682 1_445
B0 O12 1.506785 1_545
B0 O6 1.508733 1_555
B1 O19 1.445328 1_555
B1 O1 1.490668 1_645
B1 O13 1.506790 1_655
B1 O7 1.508734 1_545
B2 O20 1.445305 1_655
B2 O2 1.490681 1_665
B2 O14 1.506794 1_555
B2 O8 1.508728 1_655
B3 O18 1.445306 1_555
B3 O3 1.490682 1_445
B3 O15 1.506785 1_455
B3 O9 1.508733 1_555
B4 O20 1.445328 1_555
B4 O4 1.490668 1_465
B4 O16 1.506790 1_565
B4 O10 1.508734 1_455
B5 O19 1.445305 1_565
B5 O5 1.490681 1_665
B5 O17 1.506794 1_555
B5 O11 1.508728 1_565
B6 O27 1.451696 1_555
B6 O33 1.490814 1_555
B6 O21 1.498363 1_555
B6 O39 1.507637 1_555
B7 O28 1.451696 1_555
B7 O34 1.490814 1_555
B7 O22 1.498368 1_555
B7 O40 1.507637 1_555
B8 O29 1.451696 1_555
B8 O35 1.490814 1_555
B8 O23 1.498370 1_555
B8 O41 1.507637 1_555
B9 O30 1.451696 1_555
B9 O36 1.490814 1_555
B9 O24 1.498363 1_555
B9 O42 1.507637 1_555
B10 O31 1.451696 1_555
B10 O37 1.490814 1_555
B10 O25 1.498368 1_555
B10 O43 1.507637 1_555
B11 O32 1.451696 1_555
B11 O38 1.490814 1_555
B11 O26 1.498370 1_555
B11 O44 1.507637 1_555
B12 O32 1.456818 1_555
B12 O45 1.491825 1_555
B12 O57 1.493736 1_555
B12 O51 1.496585 1_555
B13 O31 1.456818 1_554
B13 O46 1.491824 1_555
B13 O58 1.493724 1_555
B13 O52 1.496585 1_555
B14 O30 1.456818 1_555
B14 O47 1.491831 1_555
B14 O59 1.493736 1_555
B14 O53 1.496585 1_555
B15 O29 1.456818 1_555
B15 O48 1.491825 1_555
B15 O60 1.493736 1_555
B15 O54 1.496585 1_555
B16 O28 1.456818 1_556
B16 O49 1.491824 1_555
B16 O61 1.493724 1_555
B16 O55 1.496585 1_555
B17 O27 1.456818 1_555
B17 O50 1.491831 1_555
B17 O62 1.493736 1_555
B17 O56 1.496585 1_555
B18 O45 1.372631 1_555
B18 O21 1.375914 1_565
B18 O0 1.384969 1_555
B19 O46 1.372626 1_555
B19 O22 1.375911 1_455
B19 O1 1.384984 1_555
B20 O47 1.372631 1_555
B20 O23 1.375899 1_555
B20 O2 1.384982 1_555
B21 O48 1.372631 1_555
B21 O24 1.375914 1_655
B21 O3 1.384969 1_555
B22 O49 1.372626 1_555
B22 O25 1.375911 1_545
B22 O4 1.384984 1_555
B23 O50 1.372631 1_555
B23 O26 1.375899 1_555
B23 O5 1.384982 1_555
B24 O51 1.382311 1_555
B24 O6 1.385581 1_555
B24 O33 1.386897 1_555
B25 O52 1.382311 1_545
B25 O7 1.385584 1_545
B25 O34 1.386892 1_555
B26 O53 1.382313 1_655
B26 O8 1.385584 1_655
B26 O35 1.386892 1_555
B27 O54 1.382311 1_555
B27 O9 1.385581 1_555
B27 O36 1.386897 1_555
B28 O55 1.382311 1_455
B28 O10 1.385584 1_455
B28 O37 1.386892 1_555
B29 O56 1.382313 1_565
B29 O11 1.385584 1_565
B29 O38 1.386892 1_555
B30 O12 1.375934 1_555
B30 O57 1.384696 1_555
B30 O39 1.391127 1_455
B31 O13 1.375930 1_555
B31 O58 1.384696 1_555
B31 O40 1.391127 1_555
B32 O14 1.375924 1_555
B32 O59 1.384696 1_555
B32 O41 1.391127 1_565
B33 O15 1.375934 1_555
B33 O60 1.384696 1_555
B33 O42 1.391127 1_545
B34 O16 1.375930 1_555
B34 O61 1.384696 1_555
B34 O43 1.391127 1_555
B35 O17 1.375924 1_555
B35 O62 1.384696 1_555
B35 O44 1.391127 1_655
