# generated using pymatgen
data_La4(ErS2)11
_symmetry_space_group_name_H-M   'P 1'
_cell_length_a   19.72780124
_cell_length_b   19.72780124
_cell_length_c   11.36874564
_cell_angle_alpha   88.61018332
_cell_angle_beta   88.61018332
_cell_angle_gamma   11.53838458
_symmetry_Int_Tables_number   1
_chemical_formula_structural   La4(ErS2)11
_chemical_formula_sum   'La4 Er11 S22'
_cell_volume   884.75649450
_cell_formula_units_Z   1
loop_
 _symmetry_equiv_pos_site_id
 _symmetry_equiv_pos_as_xyz
  1  'x, y, z'
loop_
 _atom_site_type_symbol
 _atom_site_label
 _atom_site_symmetry_multiplicity
 _atom_site_fract_x
 _atom_site_fract_y
 _atom_site_fract_z
 _atom_site_occupancy
  La  La0  1  0.10395600  0.10395600  0.98776100  1
  La  La1  1  0.89604400  0.89604400  0.01223900  1
  La  La2  1  0.36710400  0.36710400  0.65273900  1
  La  La3  1  0.63289600  0.63289600  0.34726100  1
  Er  Er0  1  0.79785500  0.79785500  0.94191500  1
  Er  Er1  1  0.20214500  0.20214500  0.05808500  1
  Er  Er2  1  0.46202600  0.46202600  0.72883100  1
  Er  Er3  1  0.53797400  0.53797400  0.27116900  1
  Er  Er4  1  0.65764100  0.65764100  0.69836900  1
  Er  Er5  1  0.34235900  0.34235900  0.30163100  1
  Er  Er6  1  0.26392100  0.26392100  0.64798100  1
  Er  Er7  1  0.73607900  0.73607900  0.35201900  1
  Er  Er8  1  0.06934500  0.06934500  0.63955800  1
  Er  Er9  1  0.93065500  0.93065500  0.36044200  1
  Er  Er10  1  0.00000000  0.00000000  0.00000000  1
  S  S0  1  0.08693700  0.08693700  0.24823200  1
  S  S1  1  0.91306300  0.91306300  0.75176800  1
  S  S2  1  0.18923400  0.18923400  0.30788800  1
  S  S3  1  0.81076600  0.81076600  0.69211200  1
  S  S4  1  0.27995500  0.27995500  0.40996700  1
  S  S5  1  0.72004500  0.72004500  0.59003300  1
  S  S6  1  0.44578500  0.44578500  0.50450500  1
  S  S7  1  0.55421500  0.55421500  0.49549500  1
  S  S8  1  0.13438500  0.13438500  0.54772800  1
  S  S9  1  0.86561500  0.86561500  0.45227200  1
  S  S10  1  0.59290400  0.59290400  0.78659800  1
  S  S11  1  0.40709600  0.40709600  0.21340200  1
  S  S12  1  0.45356000  0.45356000  0.96826500  1
  S  S13  1  0.54644000  0.54644000  0.03173500  1
  S  S14  1  0.35028200  0.35028200  0.90882600  1
  S  S15  1  0.64971800  0.64971800  0.09117400  1
  S  S16  1  0.16857400  0.16857400  0.84782800  1
  S  S17  1  0.83142600  0.83142600  0.15217200  1
  S  S18  1  0.00774600  0.00774600  0.76107700  1
  S  S19  1  0.99225400  0.99225400  0.23892300  1
  S  S20  1  0.25533000  0.25533000  0.88098300  1
  S  S21  1  0.74467000  0.74467000  0.11901700  1
loop_
_geom_bond_atom_site_label_1
_geom_bond_atom_site_label_2
_geom_bond_distance
_geom_bond_site_symmetry_2
La0 S15 2.940215 1_456
La0 S15 2.940215 1_546
La0 S16 2.961178 1_555
La0 S0 3.019729 1_556
La0 S13 3.037311 1_546
La0 S13 3.037311 1_456
La0 S10 3.065842 1_455
La0 S10 3.065842 1_545
La1 S14 2.940215 1_564
La1 S14 2.940215 1_654
La1 S17 2.961178 1_555
La1 S1 3.019729 1_554
La1 S12 3.037311 1_564
La1 S12 3.037311 1_654
La1 S11 3.065842 1_565
La1 S11 3.065842 1_655
La2 S1 2.924733 1_545
La2 S1 2.924733 1_455
La2 S14 2.969599 1_555
La2 S3 2.995961 1_455
La2 S3 2.995961 1_545
La2 S9 3.022675 1_455
La2 S9 3.022675 1_545
La2 S6 3.482268 1_555
La3 S0 2.924733 1_565
La3 S0 2.924733 1_655
La3 S15 2.969599 1_555
La3 S2 2.995961 1_565
La3 S2 2.995961 1_655
La3 S8 3.022675 1_655
La3 S8 3.022675 1_565
La3 S7 3.482268 1_555
Er0 S20 2.693608 1_565
Er0 S20 2.693608 1_655
Er0 S17 2.757561 1_556
Er0 S21 2.864946 1_556
Er0 S3 2.872629 1_555
Er0 S14 2.876096 1_565
Er0 S14 2.876096 1_655
Er1 S21 2.693608 1_545
Er1 S21 2.693608 1_455
Er1 S16 2.757561 1_554
Er1 S20 2.864946 1_554
Er1 S2 2.872629 1_555
Er1 S15 2.876096 1_455
Er1 S15 2.876096 1_545
Er2 S6 2.643824 1_555
Er2 S18 2.705592 1_655
Er2 S18 2.705592 1_565
Er2 S12 2.734223 1_555
Er2 S1 2.769566 1_545
Er2 S1 2.769566 1_455
Er3 S7 2.643824 1_555
Er3 S19 2.705592 1_545
Er3 S19 2.705592 1_455
Er3 S13 2.734223 1_555
Er3 S0 2.769566 1_565
Er3 S0 2.769566 1_655
Er4 S16 2.653196 1_655
Er4 S16 2.653196 1_565
Er4 S10 2.709251 1_555
Er4 S5 2.714950 1_555
Er4 S8 2.788408 1_565
Er4 S8 2.788408 1_655
Er5 S17 2.653196 1_545
Er5 S17 2.653196 1_455
Er5 S11 2.709251 1_555
Er5 S4 2.714950 1_555
Er5 S9 2.788408 1_545
Er5 S9 2.788408 1_455
Er6 S20 2.662154 1_555
Er6 S5 2.718179 1_455
Er6 S5 2.718179 1_545
Er6 S3 2.758792 1_545
Er6 S3 2.758792 1_455
Er6 S4 2.763177 1_555
Er7 S21 2.662154 1_555
Er7 S4 2.718179 1_655
Er7 S4 2.718179 1_565
Er7 S2 2.758792 1_655
Er7 S2 2.758792 1_565
Er7 S5 2.763177 1_555
Er8 S7 2.648618 1_545
Er8 S7 2.648618 1_455
Er8 S8 2.734732 1_555
Er8 S18 2.755539 1_555
Er8 S10 2.767251 1_545
Er8 S10 2.767251 1_455
Er9 S6 2.648618 1_565
Er9 S6 2.648618 1_655
Er9 S9 2.734732 1_555
Er9 S19 2.755539 1_555
Er9 S11 2.767251 1_655
Er9 S11 2.767251 1_565
Er10 S12 2.723646 1_454
Er10 S13 2.723646 1_545
Er10 S12 2.723646 1_544
Er10 S13 2.723646 1_455
Er10 S18 2.725845 1_554
Er10 S19 2.725845 1_445
