# generated using pymatgen
data_Ca2FeWO6
_symmetry_space_group_name_H-M   'P 1'
_cell_length_a   5.50653635
_cell_length_b   5.65190103
_cell_length_c   7.92046041
_cell_angle_alpha   90.00542876
_cell_angle_beta   89.86111227
_cell_angle_gamma   89.99005863
_symmetry_Int_Tables_number   1
_chemical_formula_structural   Ca2FeWO6
_chemical_formula_sum   'Ca4 Fe2 W2 O12'
_cell_volume   246.50299575
_cell_formula_units_Z   2
loop_
 _symmetry_equiv_pos_site_id
 _symmetry_equiv_pos_as_xyz
  1  'x, y, z'
loop_
 _atom_site_type_symbol
 _atom_site_label
 _atom_site_symmetry_multiplicity
 _atom_site_fract_x
 _atom_site_fract_y
 _atom_site_fract_z
 _atom_site_occupancy
  Ca  Ca0  1  0.98756900  0.05624600  0.25330500  1
  Ca  Ca1  1  0.51236300  0.55620100  0.24675300  1
  Ca  Ca2  1  0.01244800  0.94375500  0.74669600  1
  Ca  Ca3  1  0.48764700  0.44380400  0.75325000  1
  Fe  Fe0  1  0.49996700  0.99995800  0.99997600  1
  Fe  Fe1  1  0.99991800  0.49999900  0.50000100  1
  W  W0  1  0.49999900  0.00000000  0.50000100  1
  W  W1  1  0.00000800  0.50000200  0.00000300  1
  O  O0  1  0.68309900  0.28469000  0.44312400  1
  O  O1  1  0.81684800  0.78475900  0.05681700  1
  O  O2  1  0.31691300  0.71531600  0.55687800  1
  O  O3  1  0.18316800  0.21524900  0.94318300  1
  O  O4  1  0.21091900  0.19256100  0.54947100  1
  O  O5  1  0.28901900  0.69256200  0.95057400  1
  O  O6  1  0.78909500  0.80743900  0.45053300  1
  O  O7  1  0.71099700  0.30744600  0.04942900  1
  O  O8  1  0.09960400  0.46558300  0.23507100  1
  O  O9  1  0.40031600  0.96549200  0.26497700  1
  O  O10  1  0.59970300  0.03451500  0.73502500  1
  O  O11  1  0.90040500  0.53442100  0.76493300  1
loop_
_geom_bond_atom_site_label_1
_geom_bond_atom_site_label_2
_geom_bond_distance
_geom_bond_site_symmetry_2
Ca0 O9 2.331934 1_645
Ca0 O6 2.367461 1_545
Ca0 O1 2.380614 1_545
Ca0 O8 2.398752 1_655
Ca0 O0 2.593258 1_555
Ca0 O7 2.637093 1_555
Ca0 O4 2.760943 1_655
Ca0 O3 2.826495 1_654
Ca1 O8 2.332003 1_555
Ca1 O7 2.367792 1_555
Ca1 O0 2.380108 1_555
Ca1 O9 2.398281 1_555
Ca1 O1 2.594600 1_555
Ca1 O6 2.637372 1_555
Ca1 O5 2.761094 1_554
Ca1 O2 2.826139 1_555
Ca2 O10 2.331931 1_465
Ca2 O4 2.367435 1_565
Ca2 O3 2.380632 1_565
Ca2 O11 2.398749 1_455
Ca2 O2 2.593222 1_555
Ca2 O5 2.637078 1_555
Ca2 O6 2.760932 1_455
Ca2 O1 2.826478 1_456
Ca3 O11 2.331996 1_555
Ca3 O5 2.367787 1_555
Ca3 O2 2.380112 1_555
Ca3 O10 2.398283 1_555
Ca3 O3 2.594556 1_555
Ca3 O4 2.637370 1_555
Ca3 O7 2.761104 1_556
Ca3 O0 2.826149 1_555
Fe0 O5 2.126885 1_555
Fe0 O7 2.127631 1_566
Fe0 O3 2.174692 1_565
Fe0 O1 2.174843 1_556
Fe0 O10 2.176727 1_565
Fe0 O9 2.176945 1_556
Fe1 O6 2.126540 1_555
Fe1 O4 2.127069 1_655
Fe1 O0 2.175267 1_555
Fe1 O2 2.176070 1_655
Fe1 O11 2.176154 1_555
Fe1 O8 2.176374 1_655
O0 W0 1.951157 1_555
O1 W1 1.951166 1_655
O2 W0 1.951089 1_565
O3 W1 1.951158 1_556
O4 W0 1.966778 1_555
O5 W1 1.966751 1_556
O6 W0 1.966846 1_565
O7 W1 1.966733 1_655
O8 W1 1.951941 1_555
O9 W0 1.951778 1_565
O10 W0 1.951815 1_555
O11 W1 1.951967 1_656
