# generated using pymatgen
data_Mg2VN3
_symmetry_space_group_name_H-M   'P 1'
_cell_length_a   5.72470112
_cell_length_b   5.79942676
_cell_length_c   5.04314691
_cell_angle_alpha   90.00000000
_cell_angle_beta   90.00000000
_cell_angle_gamma   120.43273715
_symmetry_Int_Tables_number   1
_chemical_formula_structural   Mg2VN3
_chemical_formula_sum   'Mg4 V2 N6'
_cell_volume   144.36430078
_cell_formula_units_Z   2
loop_
 _symmetry_equiv_pos_site_id
 _symmetry_equiv_pos_as_xyz
  1  'x, y, z'
loop_
 _atom_site_type_symbol
 _atom_site_label
 _atom_site_symmetry_multiplicity
 _atom_site_fract_x
 _atom_site_fract_y
 _atom_site_fract_z
 _atom_site_occupancy
  Mg  Mg0  1  0.33004881  0.33065254  0.47661723  1
  Mg  Mg1  1  0.66995119  0.00060373  0.47661723  1
  Mg  Mg2  1  0.66995119  0.66934746  0.97661723  1
  Mg  Mg3  1  0.33004881  0.99939627  0.97661723  1
  V  V0  1  0.00000000  0.66376462  0.48207808  1
  V  V1  1  1.00000000  0.33623538  0.98207808  1
  N  N0  1  0.29779726  0.33246560  0.89428712  1
  N  N1  1  0.70220274  0.03466734  0.89428712  1
  N  N2  1  0.70220274  0.66753440  0.39428712  1
  N  N3  1  0.29779726  0.96533266  0.39428712  1
  N  N4  1  1.00000000  0.63668009  0.84811522  1
  N  N5  1  0.00000000  0.36331991  0.34811522  1
loop_
_geom_bond_atom_site_label_1
_geom_bond_atom_site_label_2
_geom_bond_distance
_geom_bond_site_symmetry_2
Mg0 N3 2.073372 1_545
Mg0 N2 2.076451 1_555
Mg0 N5 2.094861 1_555
Mg0 N0 2.114938 1_555
Mg1 N2 2.073377 1_545
Mg1 N3 2.076453 1_545
Mg1 N5 2.094862 1_655
Mg1 N1 2.114938 1_555
Mg2 N1 2.073372 1_565
Mg2 N0 2.076451 1_555
Mg2 N4 2.094861 1_555
Mg2 N2 2.114938 1_556
Mg3 N0 2.073377 1_565
Mg3 N1 2.076453 1_565
Mg3 N4 2.094862 1_455
Mg3 N3 2.114938 1_556
N0 V1 1.772174 1_455
N1 V1 1.772177 1_555
N2 V0 1.772174 1_655
N3 V0 1.772177 1_555
N4 V0 1.852650 1_655
N4 V1 1.868799 1_555
N5 V1 1.852650 1_454
N5 V0 1.868799 1_555
