# generated using pymatgen
data_Ho2Ga4Fe13C2
_symmetry_space_group_name_H-M   'P 1'
_cell_length_a   6.50827600
_cell_length_b   6.52530726
_cell_length_c   6.61501922
_cell_angle_alpha   83.13481113
_cell_angle_beta   82.31938716
_cell_angle_gamma   82.34166886
_symmetry_Int_Tables_number   1
_chemical_formula_structural   Ho2Ga4Fe13C2
_chemical_formula_sum   'Ho2 Ga4 Fe13 C2'
_cell_volume   274.44246493
_cell_formula_units_Z   1
loop_
 _symmetry_equiv_pos_site_id
 _symmetry_equiv_pos_as_xyz
  1  'x, y, z'
loop_
 _atom_site_type_symbol
 _atom_site_label
 _atom_site_symmetry_multiplicity
 _atom_site_fract_x
 _atom_site_fract_y
 _atom_site_fract_z
 _atom_site_occupancy
  Ho  Ho0  1  0.66266400  0.66124900  0.66272600  1
  Ho  Ho1  1  0.33483600  0.33829700  0.33599000  1
  Ga  Ga0  1  0.85010700  0.32969100  0.32744400  1
  Ga  Ga1  1  0.64858800  0.65972100  0.13652600  1
  Ga  Ga2  1  0.65844700  0.14997400  0.67128500  1
  Ga  Ga3  1  0.16665800  0.66362000  0.66530200  1
  Fe  Fe0  1  0.71275900  0.99359300  0.28796700  1
  Fe  Fe1  1  0.00740000  0.28907800  0.71473500  1
  Fe  Fe2  1  0.28357500  0.71471200  0.00363600  1
  Fe  Fe3  1  0.00113400  0.71260300  0.28625700  1
  Fe  Fe4  1  0.71150700  0.28470300  0.99941800  1
  Fe  Fe5  1  0.29123800  0.00657300  0.71367600  1
  Fe  Fe6  1  0.90467000  0.90767900  0.90909400  1
  Fe  Fe7  1  0.09598400  0.09436500  0.09074200  1
  Fe  Fe8  1  0.00371200  0.50134300  0.99889500  1
  Fe  Fe9  1  0.49216800  0.00476700  0.00562000  1
  Fe  Fe10  1  0.00404400  0.99751500  0.49793700  1
  Fe  Fe11  1  0.34171200  0.34195100  0.86562100  1
  Fe  Fe12  1  0.34018600  0.85854800  0.33581900  1
  C  C0  1  0.49134300  0.98898300  0.49168500  1
  C  C1  1  0.99726900  0.50103500  0.49962500  1
loop_
_geom_bond_atom_site_label_1
_geom_bond_atom_site_label_2
_geom_bond_distance
_geom_bond_site_symmetry_2
Ga0 Ga1 2.644357 1_555
Ga1 Ho0 3.122131 1_554
Ga1 Ho1 3.173237 1_555
Ga1 Ho0 3.495483 1_555
Fe0 Fe9 2.492222 1_565
Fe0 Fe10 2.499808 1_655
Fe0 Fe4 2.526865 1_564
Fe0 Ga1 2.607774 1_555
Fe0 Fe6 2.732790 1_554
Fe0 Fe7 2.778029 1_665
Fe1 Fe8 2.460475 1_555
Fe1 Fe4 2.507616 1_455
Fe1 Fe10 2.519638 1_545
Fe1 Fe11 2.590801 1_555
Fe1 Fe7 2.750618 1_556
Fe1 Fe6 2.782559 1_445
Fe2 Fe3 2.440565 1_555
Fe2 Fe8 2.441043 1_554
Fe2 Fe9 2.474076 1_565
Fe2 Ga3 2.529903 1_554
Fe2 Fe5 2.536741 1_564
Fe2 Ga1 2.607801 1_555
Fe2 Fe7 2.703136 1_565
Fe2 Fe6 2.730246 1_454
Fe2 Ho1 3.108783 1_555
Fe2 Ho0 3.125043 1_554
Fe3 Fe8 2.475048 1_554
Fe3 Ga1 2.695347 1_455
Fe3 Fe7 2.772302 1_565
Fe3 Fe6 2.772304 1_454
Fe4 Fe9 2.457162 1_556
Fe4 Fe8 2.515684 1_655
Fe4 Ga2 2.518169 1_555
Fe4 Ga0 2.520792 1_556
Fe4 Ga1 2.672613 1_556
Fe4 Fe6 2.704868 1_545
Fe4 Fe7 2.750512 1_656
Fe4 Ho1 3.096407 1_556
Fe4 Ho0 3.125955 1_555
Fe5 Fe9 2.470899 1_556
Fe5 Fe7 2.732192 1_556
Fe5 Fe6 2.789472 1_445
Fe6 Fe7 2.373246 1_666
Fe6 Ga2 2.635586 1_565
Fe6 Fe8 2.658746 1_655
Fe6 Ga1 2.669389 1_556
Fe6 Ga3 2.683201 1_655
Fe6 Fe9 2.683604 1_566
Fe6 Ho0 3.116125 1_555
Fe7 Fe9 2.568312 1_555
Fe7 Ga0 2.573042 1_455
Fe7 Fe8 2.658763 1_554
Fe7 Ho1 3.087556 1_555
Fe8 Ga0 2.472485 1_456
Fe8 Ga3 2.496137 1_555
Fe8 Ga1 2.502924 1_456
Fe8 Ho1 3.294665 1_556
Fe8 Ho0 3.332871 1_455
Fe9 Ga1 2.452395 1_545
Fe9 Ga2 2.468361 1_554
Fe9 Ho1 3.241308 1_555
Fe9 Ho0 3.358666 1_544
Fe10 Fe12 2.415580 1_555
Fe10 Fe3 2.460963 1_555
Fe10 Ga0 2.472404 1_465
Fe10 Ga3 2.492944 1_555
Fe10 Fe5 2.509276 1_565
Fe10 Ga2 2.520043 1_465
Fe10 Fe7 2.697394 1_565
Fe10 Fe6 2.721947 1_455
Fe10 Ho1 3.288985 1_565
Fe10 Ho0 3.319564 1_455
Fe11 Fe8 2.406058 1_555
Fe11 Fe9 2.416309 1_556
Fe11 Ga2 2.541578 1_555
Fe11 Ga3 2.561428 1_555
Fe11 Fe5 2.590984 1_555
Fe11 Fe7 2.619592 1_556
Fe11 Fe4 2.639309 1_555
Fe11 Fe2 2.662032 1_556
Fe11 Ho1 3.103116 1_556
Fe11 Ho0 3.201211 1_555
Fe11 Ho1 3.512746 1_555
Fe12 Fe9 2.415696 1_565
Fe12 Ga1 2.541158 1_555
Fe12 Fe2 2.578150 1_555
Fe12 Fe7 2.638670 1_565
C0 Fe5 1.831647 1_565
C0 Fe0 1.837469 1_555
C0 Fe12 1.859947 1_555
C0 Ga2 2.155483 1_565
C0 Ho0 2.494005 1_555
C0 Ho1 2.528679 1_565
C1 Fe3 1.852732 1_655
C1 Fe1 1.863424 1_655
C1 Ga0 2.084740 1_555
C1 Ga3 2.110610 1_655
C1 Ho0 2.456464 1_555
C1 Ho1 2.478585 1_655
