# generated using pymatgen
data_DyGePd2
_symmetry_space_group_name_H-M   'P 1'
_cell_length_a   5.58338839
_cell_length_b   7.06809493
_cell_length_c   7.35870001
_cell_angle_alpha   90.00000000
_cell_angle_beta   90.00000000
_cell_angle_gamma   90.00000000
_symmetry_Int_Tables_number   1
_chemical_formula_structural   DyGePd2
_chemical_formula_sum   'Dy4 Ge4 Pd8'
_cell_volume   290.40314240
_cell_formula_units_Z   4
loop_
 _symmetry_equiv_pos_site_id
 _symmetry_equiv_pos_as_xyz
  1  'x, y, z'
loop_
 _atom_site_type_symbol
 _atom_site_label
 _atom_site_symmetry_multiplicity
 _atom_site_fract_x
 _atom_site_fract_y
 _atom_site_fract_z
 _atom_site_occupancy
  Dy  Dy0  1  0.35320414  0.75000000  0.02844792  1
  Dy  Dy1  1  0.14679586  0.75000000  0.52844792  1
  Dy  Dy2  1  0.64679586  0.25000000  0.97155208  1
  Dy  Dy3  1  0.85320414  0.25000000  0.47155208  1
  Ge  Ge0  1  0.64488032  0.75000000  0.37914741  1
  Ge  Ge1  1  0.85511968  0.75000000  0.87914741  1
  Ge  Ge2  1  0.35511968  0.25000000  0.62085259  1
  Ge  Ge3  1  0.14488032  0.25000000  0.12085259  1
  Pd  Pd0  1  0.91316361  0.55166078  0.18193243  1
  Pd  Pd1  1  0.58683639  0.94833922  0.68193243  1
  Pd  Pd2  1  0.08683639  0.05166078  0.81806757  1
  Pd  Pd3  1  0.41316361  0.44833922  0.31806757  1
  Pd  Pd4  1  0.08683639  0.44833922  0.81806757  1
  Pd  Pd5  1  0.41316361  0.05166078  0.31806757  1
  Pd  Pd6  1  0.91316361  0.94833922  0.18193243  1
  Pd  Pd7  1  0.58683639  0.55166078  0.68193243  1
loop_
_geom_bond_atom_site_label_1
_geom_bond_atom_site_label_2
_geom_bond_distance
_geom_bond_site_symmetry_2
Dy0 Ge1 2.990151 1_454
Dy0 Ge1 3.010056 1_554
Dy0 Pd4 3.025673 1_554
Dy0 Pd2 3.025673 1_564
Dy0 Pd5 3.033204 1_565
Dy0 Pd3 3.033204 1_555
Dy0 Pd0 3.045876 1_455
Dy0 Pd6 3.045876 1_455
Dy0 Ge0 3.051577 1_555
Dy0 Pd7 3.188870 1_554
Dy0 Pd1 3.188870 1_554
Dy1 Ge0 2.990151 1_555
Dy1 Ge0 3.010056 1_455
Dy1 Pd5 3.025673 1_565
Dy1 Pd3 3.025673 1_555
Dy1 Pd2 3.033204 1_565
Dy1 Pd4 3.033204 1_555
Dy1 Pd1 3.045876 1_555
Dy1 Pd7 3.045876 1_555
Dy1 Ge1 3.051577 1_455
Dy1 Pd6 3.188870 1_455
Dy1 Pd0 3.188870 1_455
Dy2 Ge3 2.990151 1_656
Dy2 Ge3 3.010056 1_556
Dy2 Pd0 3.025673 1_556
Dy2 Pd6 3.025673 1_546
Dy2 Pd1 3.033204 1_545
Dy2 Pd7 3.033204 1_555
Dy2 Pd2 3.045876 1_655
Dy2 Pd4 3.045876 1_655
Dy2 Ge2 3.051577 1_555
Dy2 Pd5 3.188870 1_556
Dy2 Pd3 3.188870 1_556
Dy3 Ge2 2.990151 1_555
Dy3 Ge2 3.010056 1_655
Dy3 Pd1 3.025673 1_545
Dy3 Pd7 3.025673 1_555
Dy3 Pd6 3.033204 1_545
Dy3 Pd0 3.033204 1_555
Dy3 Pd5 3.045876 1_555
Dy3 Pd3 3.045876 1_555
Dy3 Ge3 3.051577 1_655
Dy3 Pd4 3.188870 1_655
Dy3 Pd2 3.188870 1_655
Ge0 Pd6 2.513002 1_555
Ge0 Pd0 2.513002 1_555
Ge0 Pd5 2.534163 1_565
Ge0 Pd3 2.534163 1_555
Ge0 Pd7 2.652310 1_555
Ge0 Pd1 2.652310 1_555
Ge1 Pd7 2.513002 1_555
Ge1 Pd1 2.513002 1_555
Ge1 Pd4 2.534163 1_655
Ge1 Pd2 2.534163 1_665
Ge1 Pd6 2.652310 1_556
Ge1 Pd0 2.652310 1_556
Ge2 Pd2 2.513002 1_555
Ge2 Pd4 2.513002 1_555
Ge2 Pd7 2.534163 1_555
Ge2 Pd1 2.534163 1_545
Ge2 Pd5 2.652310 1_555
Ge2 Pd3 2.652310 1_555
Ge3 Pd5 2.513002 1_555
Ge3 Pd3 2.513002 1_555
Ge3 Pd6 2.534163 1_445
Ge3 Pd0 2.534163 1_455
Ge3 Pd2 2.652310 1_554
Ge3 Pd4 2.652310 1_554
