# generated using pymatgen
data_YSeClO3
_symmetry_space_group_name_H-M   'P 1'
_cell_length_a   7.01457300
_cell_length_b   7.33025100
_cell_length_c   8.90108400
_cell_angle_alpha   90.00000000
_cell_angle_beta   90.00000000
_cell_angle_gamma   90.00000000
_symmetry_Int_Tables_number   1
_chemical_formula_structural   YSeClO3
_chemical_formula_sum   'Y4 Se4 Cl4 O12'
_cell_volume   457.68110640
_cell_formula_units_Z   4
loop_
 _symmetry_equiv_pos_site_id
 _symmetry_equiv_pos_as_xyz
  1  'x, y, z'
loop_
 _atom_site_type_symbol
 _atom_site_label
 _atom_site_symmetry_multiplicity
 _atom_site_fract_x
 _atom_site_fract_y
 _atom_site_fract_z
 _atom_site_occupancy
  Y  Y0  1  0.25000000  0.89812400  0.03986200  1
  Y  Y1  1  0.75000000  0.10187600  0.96013800  1
  Y  Y2  1  0.75000000  0.60187600  0.53986200  1
  Y  Y3  1  0.25000000  0.39812400  0.46013800  1
  Se  Se0  1  0.25000000  0.79504100  0.63032000  1
  Se  Se1  1  0.75000000  0.20495900  0.36968000  1
  Se  Se2  1  0.75000000  0.70495900  0.13032000  1
  Se  Se3  1  0.25000000  0.29504100  0.86968000  1
  Cl  Cl0  1  0.25000000  0.56537500  0.18539300  1
  Cl  Cl1  1  0.75000000  0.43462500  0.81460700  1
  Cl  Cl2  1  0.75000000  0.93462500  0.68539300  1
  Cl  Cl3  1  0.25000000  0.06537500  0.31460700  1
  O  O0  1  0.07232300  0.64566600  0.56589800  1
  O  O1  1  0.92767700  0.35433400  0.43410200  1
  O  O2  1  0.92767700  0.85433400  0.06589800  1
  O  O3  1  0.57232300  0.35433400  0.43410200  1
  O  O4  1  0.07232300  0.14566600  0.93410200  1
  O  O5  1  0.42767700  0.64566600  0.56589800  1
  O  O6  1  0.42767700  0.14566600  0.93410200  1
  O  O7  1  0.57232300  0.85433400  0.06589800  1
  O  O8  1  0.25000000  0.75666200  0.81862200  1
  O  O9  1  0.75000000  0.24333800  0.18137800  1
  O  O10  1  0.75000000  0.74333800  0.31862200  1
  O  O11  1  0.25000000  0.25666200  0.68137800  1
loop_
_geom_bond_atom_site_label_1
_geom_bond_atom_site_label_2
_geom_bond_distance
_geom_bond_site_symmetry_2
Cl0 Y3 2.735629 1_555
Cl0 Y0 2.761773 1_555
Cl1 Y2 2.735629 1_555
Cl1 Y1 2.761773 1_555
Cl2 Y1 2.735629 1_565
Cl2 Y2 2.761773 1_555
Cl3 Y0 2.735629 1_545
Cl3 Y3 2.761773 1_555
O0 Se0 1.755301 1_555
O0 Y2 2.295359 1_455
O0 Y3 2.394181 1_555
O1 Se1 1.755301 1_555
O1 Y3 2.295359 1_655
O1 Y2 2.394181 1_555
O2 Se2 1.755301 1_555
O2 Y0 2.295359 1_655
O2 Y1 2.394181 1_564
O3 Se1 1.755301 1_555
O3 Y3 2.295359 1_555
O3 Y2 2.394181 1_555
O4 Se3 1.755301 1_555
O4 Y1 2.295359 1_455
O4 Y0 2.394181 1_546
O5 Se0 1.755301 1_555
O5 Y2 2.295359 1_555
O5 Y3 2.394181 1_555
O6 Se3 1.755301 1_555
O6 Y1 2.295359 1_555
O6 Y0 2.394181 1_546
O7 Se2 1.755301 1_555
O7 Y0 2.295359 1_555
O7 Y1 2.394181 1_564
O8 Se0 1.699538 1_555
O8 Y0 2.225605 1_556
O9 Se1 1.699538 1_555
O9 Y1 2.225605 1_554
O10 Se2 1.699538 1_555
O10 Y2 2.225605 1_555
O11 Se3 1.699538 1_555
O11 Y3 2.225605 1_555
