# generated using pymatgen
data_CeSe2
_symmetry_space_group_name_H-M   'P 1'
_cell_length_a   18.11177916
_cell_length_b   18.11177916
_cell_length_c   18.11177916
_cell_angle_alpha   60.00000000
_cell_angle_beta   60.00000000
_cell_angle_gamma   60.00000000
_symmetry_Int_Tables_number   1
_chemical_formula_structural   CeSe2
_chemical_formula_sum   'Ce8 Se16'
_cell_volume   4201.15150983
_cell_formula_units_Z   8
loop_
 _symmetry_equiv_pos_site_id
 _symmetry_equiv_pos_as_xyz
  1  'x, y, z'
loop_
 _atom_site_type_symbol
 _atom_site_label
 _atom_site_symmetry_multiplicity
 _atom_site_fract_x
 _atom_site_fract_y
 _atom_site_fract_z
 _atom_site_occupancy
  Ce  Ce0  1  0.43642371  0.69072888  0.43642371  1
  Ce  Ce1  1  0.43642371  0.43642371  0.43642371  1
  Ce  Ce2  1  0.43642371  0.43642371  0.69072888  1
  Ce  Ce3  1  0.69072888  0.43642371  0.43642371  1
  Ce  Ce4  1  0.31357629  0.05927112  0.31357629  1
  Ce  Ce5  1  0.31357629  0.31357629  0.31357629  1
  Ce  Ce6  1  0.31357629  0.31357629  0.05927112  1
  Ce  Ce7  1  0.05927112  0.31357629  0.31357629  1
  Se  Se0  1  0.37947431  0.37947431  0.62052569  1
  Se  Se1  1  0.37947431  0.62052569  0.62052569  1
  Se  Se2  1  0.37947431  0.62052569  0.37947431  1
  Se  Se3  1  0.62052569  0.37947431  0.37947431  1
  Se  Se4  1  0.62052569  0.37947431  0.62052569  1
  Se  Se5  1  0.62052569  0.62052569  0.37947431  1
  Se  Se6  1  0.37052569  0.37052569  0.12947431  1
  Se  Se7  1  0.37052569  0.12947431  0.12947431  1
  Se  Se8  1  0.37052569  0.12947431  0.37052569  1
  Se  Se9  1  0.12947431  0.37052569  0.37052569  1
  Se  Se10  1  0.12947431  0.37052569  0.12947431  1
  Se  Se11  1  0.12947431  0.12947431  0.37052569  1
  Se  Se12  1  0.37500000  0.87500000  0.37500000  1
  Se  Se13  1  0.37500000  0.37500000  0.37500000  1
  Se  Se14  1  0.37500000  0.37500000  0.87500000  1
  Se  Se15  1  0.87500000  0.37500000  0.37500000  1
loop_
_geom_bond_atom_site_label_1
_geom_bond_atom_site_label_2
_geom_bond_distance
_geom_bond_site_symmetry_2
Ce0 Se12 2.725039 1_555
Ce0 Se1 2.726063 1_555
Ce0 Se5 2.726063 1_555
Ce0 Se2 2.726063 1_555
Ce1 Se13 2.725039 1_555
Ce1 Se0 2.726063 1_555
Ce1 Se3 2.726063 1_555
Ce1 Se2 2.726063 1_555
Ce2 Se14 2.725039 1_555
Ce2 Se4 2.726063 1_555
Ce2 Se1 2.726063 1_555
Ce2 Se0 2.726063 1_555
Ce3 Se15 2.725039 1_555
Ce3 Se4 2.726063 1_555
Ce3 Se5 2.726063 1_555
Ce3 Se3 2.726063 1_555
Ce4 Se12 2.725039 1_545
Ce4 Se7 2.726063 1_555
Ce4 Se11 2.726063 1_555
Ce4 Se8 2.726063 1_555
Ce5 Se13 2.725039 1_555
Ce5 Se6 2.726063 1_555
Ce5 Se9 2.726063 1_555
Ce5 Se8 2.726063 1_555
Ce6 Se14 2.725039 1_554
Ce6 Se7 2.726063 1_555
Ce6 Se10 2.726063 1_555
Ce6 Se6 2.726063 1_555
Ce7 Se15 2.725039 1_455
Ce7 Se10 2.726063 1_555
Ce7 Se11 2.726063 1_555
Ce7 Se9 2.726063 1_555
