# generated using pymatgen
data_SnPd3
_symmetry_space_group_name_H-M   'P 1'
_cell_length_a   6.17099725
_cell_length_b   6.17099725
_cell_length_c   17.35423148
_cell_angle_alpha   79.75863875
_cell_angle_beta   100.24136125
_cell_angle_gamma   120.00000000
_symmetry_Int_Tables_number   1
_chemical_formula_structural   SnPd3
_chemical_formula_sum   'Sn8 Pd24'
_cell_volume   560.13910169
_cell_formula_units_Z   8
loop_
 _symmetry_equiv_pos_site_id
 _symmetry_equiv_pos_as_xyz
  1  'x, y, z'
loop_
 _atom_site_type_symbol
 _atom_site_label
 _atom_site_symmetry_multiplicity
 _atom_site_fract_x
 _atom_site_fract_y
 _atom_site_fract_z
 _atom_site_occupancy
  Sn  Sn0_0  1  0.00000000  0.00000000  0.00000000  1
  Sn  Sn0_1  1  0.00000000  0.00000000  0.50000000  1
  Sn  Sn0_2  1  0.00000000  0.50000000  0.00000000  1
  Sn  Sn0_3  1  0.00000000  0.50000000  0.50000000  1
  Sn  Sn0_4  1  0.50000000  0.00000000  0.00000000  1
  Sn  Sn0_5  1  0.50000000  0.00000000  0.50000000  1
  Sn  Sn0_6  1  0.50000000  0.50000000  0.00000000  1
  Sn  Sn0_7  1  0.50000000  0.50000000  0.50000000  1
  Pd  Pd0_0  1  0.37403700  0.12596300  0.12211100  1
  Pd  Pd0_1  1  0.37403700  0.12596300  0.62211100  1
  Pd  Pd0_2  1  0.37403700  0.62596300  0.12211100  1
  Pd  Pd0_3  1  0.37403700  0.62596300  0.62211100  1
  Pd  Pd0_4  1  0.87403700  0.12596300  0.12211100  1
  Pd  Pd0_5  1  0.87403700  0.12596300  0.62211100  1
  Pd  Pd0_6  1  0.87403700  0.62596300  0.12211100  1
  Pd  Pd0_7  1  0.87403700  0.62596300  0.62211100  1
  Pd  Pd1_0  1  0.25000000  0.25000000  0.25000000  1
  Pd  Pd1_1  1  0.25000000  0.25000000  0.75000000  1
  Pd  Pd1_2  1  0.25000000  0.75000000  0.25000000  1
  Pd  Pd1_3  1  0.25000000  0.75000000  0.75000000  1
  Pd  Pd1_4  1  0.75000000  0.25000000  0.25000000  1
  Pd  Pd1_5  1  0.75000000  0.25000000  0.75000000  1
  Pd  Pd1_6  1  0.75000000  0.75000000  0.25000000  1
  Pd  Pd1_7  1  0.75000000  0.75000000  0.75000000  1
  Pd  Pd2_0  1  0.12596300  0.37403700  0.37788900  1
  Pd  Pd2_1  1  0.12596300  0.37403700  0.87788900  1
  Pd  Pd2_2  1  0.12596300  0.87403700  0.37788900  1
  Pd  Pd2_3  1  0.12596300  0.87403700  0.87788900  1
  Pd  Pd2_4  1  0.62596300  0.37403700  0.37788900  1
  Pd  Pd2_5  1  0.62596300  0.37403700  0.87788900  1
  Pd  Pd2_6  1  0.62596300  0.87403700  0.37788900  1
  Pd  Pd2_7  1  0.62596300  0.87403700  0.87788900  1
loop_
_geom_bond_atom_site_label_1
_geom_bond_atom_site_label_2
_geom_bond_distance
_geom_bond_site_symmetry_2
Sn0_0 Sn0_2 3.085499 1_555
Sn0_0 Sn0_4 3.085499 1_555
Sn0_0 Sn0_6 3.085499 1_555
Sn0_0 Sn0_2 3.085499 1_545
Sn0_0 Sn0_6 3.085499 1_445
Sn0_0 Sn0_4 3.085499 1_455
Sn0_1 Sn0_3 3.085499 1_555
Sn0_1 Sn0_5 3.085499 1_555
Sn0_1 Sn0_7 3.085499 1_555
Sn0_1 Sn0_5 3.085499 1_455
Sn0_1 Sn0_7 3.085499 1_445
Sn0_1 Sn0_3 3.085499 1_545
Sn0_2 Sn0_6 3.085499 1_555
Sn0_2 Sn0_4 3.085499 1_565
Sn0_2 Sn0_4 3.085499 1_455
Sn0_2 Sn0_6 3.085499 1_455
Sn0_3 Sn0_5 3.085499 1_455
Sn0_3 Sn0_7 3.085499 1_555
Sn0_3 Sn0_5 3.085499 1_565
Sn0_3 Sn0_7 3.085499 1_455
Sn0_4 Sn0_6 3.085499 1_555
Sn0_4 Sn0_6 3.085499 1_545
Sn0_5 Sn0_7 3.085499 1_555
Sn0_5 Sn0_7 3.085499 1_545
Pd0_0 Sn0_0 2.734030 1_555
Pd0_0 Sn0_4 2.734030 1_555
Pd0_0 Sn0_6 2.734030 1_555
Pd0_0 Pd1_0 2.809204 1_555
Pd0_0 Pd1_2 2.809204 1_545
Pd0_0 Pd1_4 2.809204 1_555
Pd0_0 Pd0_4 3.085499 1_555
Pd0_0 Pd0_2 3.085499 1_555
Pd0_0 Pd0_6 3.085499 1_445
Pd0_0 Pd0_6 3.085499 1_555
Pd0_0 Pd0_2 3.085499 1_545
Pd0_0 Pd0_4 3.085499 1_455
Pd0_1 Sn0_5 2.734030 1_555
Pd0_1 Sn0_1 2.734030 1_555
Pd0_1 Sn0_7 2.734030 1_555
Pd0_1 Pd1_1 2.809204 1_555
Pd0_1 Pd1_3 2.809204 1_545
Pd0_1 Pd1_5 2.809204 1_555
Pd0_1 Pd0_7 3.085499 1_445
Pd0_1 Pd0_5 3.085499 1_455
Pd0_1 Pd0_3 3.085499 1_555
Pd0_1 Pd0_7 3.085499 1_555
Pd0_1 Pd0_3 3.085499 1_545
Pd0_1 Pd0_5 3.085499 1_555
Pd0_2 Sn0_6 2.734030 1_555
Pd0_2 Sn0_4 2.734030 1_565
Pd0_2 Sn0_2 2.734030 1_555
Pd0_2 Pd1_6 2.809204 1_555
Pd0_2 Pd1_0 2.809204 1_555
Pd0_2 Pd1_2 2.809204 1_555
Pd0_2 Pd0_6 3.085499 1_555
Pd0_2 Pd0_4 3.085499 1_455
Pd0_2 Pd0_4 3.085499 1_565
Pd0_2 Pd0_6 3.085499 1_455
Pd0_3 Sn0_5 2.734030 1_565
Pd0_3 Sn0_7 2.734030 1_555
Pd0_3 Sn0_3 2.734030 1_555
Pd0_3 Pd1_1 2.809204 1_555
Pd0_3 Pd1_7 2.809204 1_555
Pd0_3 Pd1_3 2.809204 1_555
Pd0_3 Pd0_7 3.085499 1_555
Pd0_3 Pd0_5 3.085499 1_565
Pd0_3 Pd0_7 3.085499 1_455
Pd0_3 Pd0_5 3.085499 1_455
Pd0_4 Sn0_2 2.734030 1_655
Pd0_4 Sn0_4 2.734030 1_555
Pd0_4 Sn0_0 2.734030 1_655
Pd0_4 Pd1_4 2.809204 1_555
Pd0_4 Pd1_0 2.809204 1_655
Pd0_4 Pd1_6 2.809204 1_545
Pd0_4 Pd0_6 3.085499 1_555
Pd0_4 Pd0_6 3.085499 1_545
Pd0_5 Sn0_1 2.734030 1_655
Pd0_5 Sn0_3 2.734030 1_655
Pd0_5 Sn0_5 2.734030 1_555
Pd0_5 Pd1_1 2.809204 1_655
Pd0_5 Pd1_5 2.809204 1_555
Pd0_5 Pd1_7 2.809204 1_545
Pd0_5 Pd0_7 3.085499 1_545
Pd0_5 Pd0_7 3.085499 1_555
Pd0_6 Sn0_6 2.734030 1_555
Pd0_6 Sn0_0 2.734030 1_665
Pd0_6 Sn0_2 2.734030 1_655
Pd0_6 Pd1_2 2.809204 1_655
Pd0_6 Pd1_6 2.809204 1_555
Pd0_6 Pd1_4 2.809204 1_555
Pd0_7 Sn0_1 2.734030 1_665
Pd0_7 Sn0_7 2.734030 1_555
Pd0_7 Sn0_3 2.734030 1_655
Pd0_7 Pd1_7 2.809204 1_555
Pd0_7 Pd1_3 2.809204 1_655
Pd0_7 Pd1_5 2.809204 1_555
Pd1_0 Pd2_4 2.809204 1_555
Pd1_0 Pd2_2 2.809204 1_545
Pd1_0 Pd2_0 2.809204 1_555
Pd1_0 Pd1_2 3.085499 1_555
Pd1_0 Pd1_6 3.085499 1_555
Pd1_0 Pd1_4 3.085499 1_555
Pd1_0 Pd1_6 3.085499 1_445
Pd1_0 Pd1_4 3.085499 1_455
Pd1_0 Pd1_2 3.085499 1_545
Pd1_1 Pd2_3 2.809204 1_545
Pd1_1 Pd2_1 2.809204 1_555
Pd1_1 Pd2_5 2.809204 1_555
Pd1_1 Pd1_3 3.085499 1_555
Pd1_1 Pd1_7 3.085499 1_445
Pd1_1 Pd1_5 3.085499 1_455
Pd1_1 Pd1_7 3.085499 1_555
Pd1_1 Pd1_3 3.085499 1_545
Pd1_1 Pd1_5 3.085499 1_555
Pd1_2 Pd2_2 2.809204 1_555
Pd1_2 Pd2_0 2.809204 1_555
Pd1_2 Pd2_6 2.809204 1_555
Pd1_2 Pd1_6 3.085499 1_555
Pd1_2 Pd1_4 3.085499 1_455
Pd1_2 Pd1_6 3.085499 1_455
Pd1_2 Pd1_4 3.085499 1_565
Pd1_3 Pd2_7 2.809204 1_555
Pd1_3 Pd2_1 2.809204 1_555
Pd1_3 Pd2_3 2.809204 1_555
Pd1_3 Pd1_7 3.085499 1_555
Pd1_3 Pd1_5 3.085499 1_455
Pd1_3 Pd1_7 3.085499 1_455
Pd1_3 Pd1_5 3.085499 1_565
Pd1_4 Pd2_0 2.809204 1_655
Pd1_4 Pd2_6 2.809204 1_545
Pd1_4 Pd2_4 2.809204 1_555
Pd1_4 Pd1_6 3.085499 1_555
Pd1_4 Pd1_6 3.085499 1_545
Pd1_5 Pd2_7 2.809204 1_545
Pd1_5 Pd2_5 2.809204 1_555
Pd1_5 Pd2_1 2.809204 1_655
Pd1_5 Pd1_7 3.085499 1_545
Pd1_5 Pd1_7 3.085499 1_555
Pd1_6 Pd2_6 2.809204 1_555
Pd1_6 Pd2_4 2.809204 1_555
Pd1_6 Pd2_2 2.809204 1_655
Pd1_7 Pd2_7 2.809204 1_555
Pd1_7 Pd2_3 2.809204 1_655
Pd1_7 Pd2_5 2.809204 1_555
Pd2_0 Sn0_3 2.734030 1_555
Pd2_0 Sn0_7 2.734030 1_555
Pd2_0 Sn0_1 2.734030 1_555
Pd2_0 Pd2_2 3.085499 1_555
Pd2_0 Pd2_6 3.085499 1_555
Pd2_0 Pd2_4 3.085499 1_455
Pd2_0 Pd2_4 3.085499 1_555
Pd2_0 Pd2_6 3.085499 1_445
Pd2_0 Pd2_2 3.085499 1_545
Pd2_1 Sn0_6 2.734030 1_556
Pd2_1 Sn0_0 2.734030 1_556
Pd2_1 Sn0_2 2.734030 1_556
Pd2_1 Pd2_3 3.085499 1_545
Pd2_1 Pd2_7 3.085499 1_445
Pd2_1 Pd2_5 3.085499 1_555
Pd2_1 Pd2_7 3.085499 1_555
Pd2_1 Pd2_3 3.085499 1_555
Pd2_1 Pd2_5 3.085499 1_455
Pd2_2 Sn0_3 2.734030 1_555
Pd2_2 Sn0_5 2.734030 1_565
Pd2_2 Sn0_1 2.734030 1_565
Pd2_2 Pd2_4 3.085499 1_455
Pd2_2 Pd2_4 3.085499 1_565
Pd2_2 Pd2_6 3.085499 1_455
Pd2_2 Pd2_6 3.085499 1_555
Pd2_3 Sn0_4 2.734030 1_566
Pd2_3 Sn0_2 2.734030 1_556
Pd2_3 Sn0_0 2.734030 1_566
Pd2_3 Pd2_5 3.085499 1_565
Pd2_3 Pd2_7 3.085499 1_455
Pd2_3 Pd2_7 3.085499 1_555
Pd2_3 Pd2_5 3.085499 1_455
Pd2_4 Sn0_7 2.734030 1_555
Pd2_4 Sn0_3 2.734030 1_655
Pd2_4 Sn0_5 2.734030 1_555
Pd2_4 Pd2_6 3.085499 1_555
Pd2_4 Pd2_6 3.085499 1_545
Pd2_5 Sn0_4 2.734030 1_556
Pd2_5 Sn0_2 2.734030 1_656
Pd2_5 Sn0_6 2.734030 1_556
Pd2_5 Pd2_7 3.085499 1_545
Pd2_5 Pd2_7 3.085499 1_555
Pd2_6 Sn0_7 2.734030 1_555
Pd2_6 Sn0_1 2.734030 1_665
Pd2_6 Sn0_5 2.734030 1_565
Pd2_7 Sn0_6 2.734030 1_556
Pd2_7 Sn0_0 2.734030 1_666
Pd2_7 Sn0_4 2.734030 1_566
