# generated using pymatgen
data_Zr2H2Pd
_symmetry_space_group_name_H-M   'P 1'
_cell_length_a   3.18943000
_cell_length_b   3.18943000
_cell_length_c   6.80714174
_cell_angle_alpha   103.54864681
_cell_angle_beta   103.54864681
_cell_angle_gamma   90.00000000
_symmetry_Int_Tables_number   1
_chemical_formula_structural   Zr2H2Pd
_chemical_formula_sum   'Zr2 H2 Pd1'
_cell_volume   65.33458104
_cell_formula_units_Z   1
loop_
 _symmetry_equiv_pos_site_id
 _symmetry_equiv_pos_as_xyz
  1  'x, y, z'
loop_
 _atom_site_type_symbol
 _atom_site_label
 _atom_site_symmetry_multiplicity
 _atom_site_fract_x
 _atom_site_fract_y
 _atom_site_fract_z
 _atom_site_occupancy
  Zr  Zr0  1  0.64336300  0.64336300  0.28672600  1
  Zr  Zr1  1  0.35663700  0.35663700  0.71327400  1
  H  H0  1  0.25000000  0.75000000  0.50000000  1
  H  H1  1  0.75000000  0.25000000  0.50000000  1
  Pd  Pd0  1  0.00000000  0.00000000  0.00000000  1
loop_
_geom_bond_atom_site_label_1
_geom_bond_atom_site_label_2
_geom_bond_distance
_geom_bond_site_symmetry_2
H0 Zr0 2.102248 1_555
H0 Zr1 2.102248 1_555
H0 Zr0 2.102248 1_455
H0 Zr1 2.102248 1_565
H1 Zr0 2.102248 1_555
H1 Zr1 2.102248 1_555
H1 Zr1 2.102248 1_655
H1 Zr0 2.102248 1_545
Pd0 Zr1 2.911623 1_454
Pd0 Zr1 2.911623 1_554
Pd0 Zr0 2.911623 1_445
Pd0 Zr0 2.911623 1_545
Pd0 Zr1 2.911623 1_544
Pd0 Zr0 2.911623 1_455
Pd0 Zr0 2.911623 1_555
Pd0 Zr1 2.911623 1_444
