# generated using pymatgen
data_Li4Ca3Nb6O20
_symmetry_space_group_name_H-M   'P 1'
_cell_length_a   14.47120116
_cell_length_b   14.47120116
_cell_length_c   5.62036400
_cell_angle_alpha   90.00000000
_cell_angle_beta   90.00000000
_cell_angle_gamma   157.34188089
_symmetry_Int_Tables_number   1
_chemical_formula_structural   Li4Ca3Nb6O20
_chemical_formula_sum   'Li4 Ca3 Nb6 O20'
_cell_volume   453.41461074
_cell_formula_units_Z   1
loop_
 _symmetry_equiv_pos_site_id
 _symmetry_equiv_pos_as_xyz
  1  'x, y, z'
loop_
 _atom_site_type_symbol
 _atom_site_label
 _atom_site_symmetry_multiplicity
 _atom_site_fract_x
 _atom_site_fract_y
 _atom_site_fract_z
 _atom_site_occupancy
  Li  Li0  1  0.50424100  0.00526800  0.00000000  1
  Li  Li1  1  0.00508100  0.50771300  0.50000000  1
  Li  Li2  1  0.49228700  0.99491900  0.50000000  1
  Li  Li3  1  0.99473200  0.49575900  0.00000000  1
  Ca  Ca0  1  0.42562200  0.57437800  0.00000000  1
  Ca  Ca1  1  0.92765000  0.07235000  0.50000000  1
  Ca  Ca2  1  0.08651400  0.91348600  0.50000000  1
  Nb  Nb0  1  0.50208500  0.49791500  0.50000000  1
  Nb  Nb1  1  0.00208000  0.99792000  0.00000000  1
  Nb  Nb2  1  0.85560500  0.14439500  0.00000000  1
  Nb  Nb3  1  0.35555500  0.64444500  0.50000000  1
  Nb  Nb4  1  0.64566800  0.35433200  0.50000000  1
  Nb  Nb5  1  0.14610800  0.85389200  0.00000000  1
  O  O0  1  0.78802600  0.21197400  0.00000000  1
  O  O1  1  0.28795500  0.71204500  0.50000000  1
  O  O2  1  0.71265400  0.28734600  0.50000000  1
  O  O3  1  0.21311000  0.78689000  0.00000000  1
  O  O4  1  0.61295500  0.88588400  0.75056100  1
  O  O5  1  0.11411600  0.38704500  0.24943900  1
  O  O6  1  0.11411600  0.38704500  0.75056100  1
  O  O7  1  0.61295500  0.88588400  0.24943900  1
  O  O8  1  0.89785600  0.62054300  0.74115400  1
  O  O9  1  0.37945700  0.10214400  0.25884600  1
  O  O10  1  0.37945700  0.10214400  0.74115400  1
  O  O11  1  0.89785600  0.62054300  0.25884600  1
  O  O12  1  0.92827300  0.07172700  0.00000000  1
  O  O13  1  0.42829400  0.57170600  0.50000000  1
  O  O14  1  0.56889400  0.43110600  0.50000000  1
  O  O15  1  0.06887400  0.93112600  0.00000000  1
  O  O16  1  0.74819200  0.76077900  0.74546600  1
  O  O17  1  0.23922100  0.25180800  0.25453400  1
  O  O18  1  0.74819200  0.76077900  0.25453400  1
  O  O19  1  0.23922100  0.25180800  0.74546600  1
loop_
_geom_bond_atom_site_label_1
_geom_bond_atom_site_label_2
_geom_bond_distance
_geom_bond_site_symmetry_2
Li0 O0 1.772114 1_555
Li0 O3 1.778645 1_545
Li1 O1 1.777715 1_555
Li1 O2 1.780593 1_455
Li2 O1 1.777715 1_555
Li2 O2 1.780593 1_565
Li3 O0 1.772114 1_555
Li3 O3 1.778645 1_655
Ca0 O6 2.660969 1_554
Ca0 O4 2.660969 1_554
Ca0 O5 2.660969 1_555
Ca0 O7 2.660969 1_555
Ca0 O18 2.805917 1_555
Ca0 O17 2.805917 1_555
Ca0 O19 2.805917 1_554
Ca0 O16 2.805917 1_554
Ca0 O13 2.811205 1_555
Ca0 O13 2.811205 1_554
Ca0 O12 2.843768 1_455
Ca0 O12 2.843768 1_565
Ca1 O6 2.706171 1_655
Ca1 O5 2.706171 1_655
Ca1 O7 2.706171 1_545
Ca1 O4 2.706171 1_545
Ca1 O19 2.714013 1_655
Ca1 O17 2.714013 1_655
Ca1 O16 2.714013 1_545
Ca1 O18 2.714013 1_545
Ca1 O12 2.810238 1_556
Ca1 O12 2.810238 1_555
Ca1 O13 2.842832 1_545
Ca1 O13 2.842832 1_655
Ca2 O9 2.429199 1_565
Ca2 O10 2.429199 1_565
Ca2 O8 2.429199 1_455
Ca2 O11 2.429199 1_455
Ca2 O15 2.854421 1_556
Ca2 O15 2.854421 1_555
Ca2 O14 2.886414 1_565
Ca2 O14 2.886414 1_455
Nb0 O14 1.895937 1_555
Nb0 O19 2.013291 1_555
Nb0 O16 2.013291 1_555
Nb0 O17 2.013291 1_555
Nb0 O18 2.013291 1_555
Nb0 O13 2.094075 1_555
Nb1 O15 1.895511 1_555
Nb1 O18 2.012834 1_455
Nb1 O19 2.012834 1_564
Nb1 O17 2.012834 1_565
Nb1 O16 2.012834 1_454
Nb1 O12 2.094529 1_465
Nb2 O0 1.917788 1_555
Nb2 O4 2.011421 1_544
Nb2 O7 2.011421 1_545
Nb2 O6 2.011421 1_654
Nb2 O5 2.011421 1_655
Nb2 O12 2.062206 1_555
Nb3 O1 1.918384 1_555
Nb3 O6 2.011320 1_555
Nb3 O5 2.011320 1_555
Nb3 O7 2.011320 1_555
Nb3 O4 2.011320 1_555
Nb3 O13 2.064221 1_555
Nb4 O2 1.900960 1_555
Nb4 O8 2.012062 1_555
Nb4 O9 2.012062 1_555
Nb4 O11 2.012062 1_555
Nb4 O10 2.012062 1_555
Nb4 O14 2.178728 1_555
Nb5 O3 1.901414 1_555
Nb5 O10 2.008873 1_564
Nb5 O8 2.008873 1_454
Nb5 O11 2.008873 1_455
Nb5 O9 2.008873 1_565
Nb5 O15 2.191782 1_555
