# generated using pymatgen
data_Mn(CuS)2
_symmetry_space_group_name_H-M   'P 1'
_cell_length_a   7.73341898
_cell_length_b   7.73341898
_cell_length_c   7.73341898
_cell_angle_alpha   60.00000000
_cell_angle_beta   60.00000000
_cell_angle_gamma   60.00000000
_symmetry_Int_Tables_number   1
_chemical_formula_structural   Mn(CuS)2
_chemical_formula_sum   'Mn4 Cu8 S8'
_cell_volume   327.03905669
_cell_formula_units_Z   4
loop_
 _symmetry_equiv_pos_site_id
 _symmetry_equiv_pos_as_xyz
  1  'x, y, z'
loop_
 _atom_site_type_symbol
 _atom_site_label
 _atom_site_symmetry_multiplicity
 _atom_site_fract_x
 _atom_site_fract_y
 _atom_site_fract_z
 _atom_site_occupancy
  Mn  Mn0  1  0.60174900  0.13275000  0.13275000  1
  Mn  Mn1  1  0.13275000  0.60174900  0.13275000  1
  Mn  Mn2  1  0.13275000  0.13275000  0.60174900  1
  Mn  Mn3  1  0.13275000  0.13275000  0.13275000  1
  Cu  Cu0  1  0.26106100  0.26106100  0.73893900  1
  Cu  Cu1  1  0.73893900  0.73893900  0.26106100  1
  Cu  Cu2  1  0.26106100  0.73893900  0.26106100  1
  Cu  Cu3  1  0.73893900  0.26106100  0.73893900  1
  Cu  Cu4  1  0.73893900  0.26106100  0.26106100  1
  Cu  Cu5  1  0.26106100  0.73893900  0.73893900  1
  Cu  Cu6  1  0.75000000  0.75000000  0.75000000  1
  Cu  Cu7  1  0.50000000  0.50000000  0.50000000  1
  S  S0  1  0.37488000  0.87504000  0.87504000  1
  S  S1  1  0.87504000  0.37488000  0.87504000  1
  S  S2  1  0.87504000  0.87504000  0.37488000  1
  S  S3  1  0.87504000  0.87504000  0.87504000  1
  S  S4  1  0.88884400  0.37038500  0.37038500  1
  S  S5  1  0.37038500  0.88884400  0.37038500  1
  S  S6  1  0.37038500  0.37038500  0.88884400  1
  S  S7  1  0.37038500  0.37038500  0.37038500  1
loop_
_geom_bond_atom_site_label_1
_geom_bond_atom_site_label_2
_geom_bond_distance
_geom_bond_site_symmetry_2
Mn0 S7 2.599397 1_555
Mn0 S6 2.599397 1_554
Mn0 S5 2.599397 1_545
Mn0 S3 2.821073 1_544
Mn0 S2 2.821078 1_545
Mn0 S1 2.821078 1_554
Mn1 S7 2.599397 1_555
Mn1 S6 2.599397 1_554
Mn1 S4 2.599397 1_455
Mn1 S3 2.821073 1_454
Mn1 S0 2.821078 1_554
Mn1 S2 2.821078 1_455
Mn2 S7 2.599397 1_555
Mn2 S5 2.599397 1_545
Mn2 S4 2.599397 1_455
Mn2 S3 2.821073 1_445
Mn2 S1 2.821078 1_455
Mn2 S0 2.821078 1_545
Mn3 S6 2.599397 1_554
Mn3 S5 2.599397 1_545
Mn3 S4 2.599397 1_455
Mn3 S2 2.821073 1_445
Mn3 S1 2.821073 1_454
Mn3 S0 2.821073 1_544
Cu0 S6 2.334201 1_555
Cu0 S7 2.334208 1_555
Cu0 S1 2.439486 1_455
Cu0 S0 2.439486 1_545
Cu0 Mn3 2.486961 1_556
Cu0 Mn2 2.486967 1_555
Cu1 S5 2.334207 1_555
Cu1 S4 2.334207 1_555
Cu1 S3 2.439486 1_554
Cu1 S2 2.439486 1_555
Cu1 Mn0 2.486961 1_565
Cu1 Mn1 2.486961 1_655
Cu2 S5 2.334201 1_555
Cu2 S7 2.334208 1_555
Cu2 S0 2.439486 1_554
Cu2 S2 2.439486 1_455
Cu2 Mn3 2.486961 1_565
Cu2 Mn1 2.486967 1_555
Cu3 S6 2.334207 1_555
Cu3 S4 2.334207 1_555
Cu3 S3 2.439486 1_545
Cu3 S1 2.439486 1_555
Cu3 Mn0 2.486961 1_556
Cu3 Mn2 2.486961 1_655
Cu4 S4 2.334201 1_555
Cu4 S7 2.334208 1_555
Cu4 S2 2.439486 1_545
Cu4 S1 2.439486 1_554
Cu4 Mn3 2.486961 1_655
Cu4 Mn0 2.486967 1_555
Cu5 S5 2.334207 1_555
Cu5 S6 2.334207 1_555
Cu5 S3 2.439486 1_455
Cu5 S0 2.439486 1_555
Cu5 Mn2 2.486961 1_565
Cu5 Mn1 2.486961 1_556
Cu6 S0 2.368624 1_555
Cu6 S1 2.368624 1_555
Cu6 S2 2.368624 1_555
Cu6 S3 2.368624 1_555
Cu7 S4 2.455282 1_555
Cu7 S5 2.455282 1_555
Cu7 S6 2.455282 1_555
Cu7 S7 2.455288 1_555
