# generated using pymatgen
data_SmNiO3
_symmetry_space_group_name_H-M   'P 1'
_cell_length_a   3.74007269
_cell_length_b   3.74008343
_cell_length_c   3.74006907
_cell_angle_alpha   90.00000000
_cell_angle_beta   90.00000000
_cell_angle_gamma   90.00000000
_symmetry_Int_Tables_number   1
_chemical_formula_structural   SmNiO3
_chemical_formula_sum   'Sm1 Ni1 O3'
_cell_volume   52.31677393
_cell_formula_units_Z   1
loop_
 _symmetry_equiv_pos_site_id
 _symmetry_equiv_pos_as_xyz
  1  'x, y, z'
loop_
 _atom_site_type_symbol
 _atom_site_label
 _atom_site_symmetry_multiplicity
 _atom_site_fract_x
 _atom_site_fract_y
 _atom_site_fract_z
 _atom_site_occupancy
  Sm  Sm0  1  0.50000000  0.50000000  0.50000000  1
  Ni  Ni0  1  0.00000000  -0.00000000  0.00000000  1
  O  O0  1  0.50000000  -0.00000000  0.00000000  1
  O  O1  1  -0.00000000  0.50000000  -0.00000000  1
  O  O2  1  0.00000000  -0.00000000  0.50000000  1
loop_
_geom_bond_atom_site_label_1
_geom_bond_atom_site_label_2
_geom_bond_distance
_geom_bond_site_symmetry_2
Ni0 O2 1.870035 1_555
Ni0 O2 1.870035 1_554
Ni0 O0 1.870036 1_555
Ni0 O0 1.870036 1_455
Ni0 O1 1.870042 1_555
Ni0 O1 1.870042 1_545
O0 Sm0 2.644633 1_545
O0 Sm0 2.644633 1_544
O0 Sm0 2.644633 1_554
O0 Sm0 2.644633 1_555
O1 Sm0 2.644629 1_454
O1 Sm0 2.644629 1_555
O1 Sm0 2.644629 1_554
O1 Sm0 2.644629 1_455
O2 Sm0 2.644635 1_555
O2 Sm0 2.644635 1_445
O2 Sm0 2.644635 1_545
O2 Sm0 2.644635 1_455
