# generated using pymatgen
data_Zr6Ni20P13
_symmetry_space_group_name_H-M   'P 1'
_cell_length_a   12.39505098
_cell_length_b   12.39508866
_cell_length_c   3.62309184
_cell_angle_alpha   89.99996421
_cell_angle_beta   90.00003711
_cell_angle_gamma   119.99688630
_symmetry_Int_Tables_number   1
_chemical_formula_structural   Zr6Ni20P13
_chemical_formula_sum   'Zr6 Ni20 P13'
_cell_volume   482.08270901
_cell_formula_units_Z   1
loop_
 _symmetry_equiv_pos_site_id
 _symmetry_equiv_pos_as_xyz
  1  'x, y, z'
loop_
 _atom_site_type_symbol
 _atom_site_label
 _atom_site_symmetry_multiplicity
 _atom_site_fract_x
 _atom_site_fract_y
 _atom_site_fract_z
 _atom_site_occupancy
  Zr  Zr0  1  0.80868686  0.28275317  0.50000017  1
  Zr  Zr1  1  0.71722683  0.52591546  0.50000000  1
  Zr  Zr2  1  0.47406061  0.19131931  0.50000027  1
  Zr  Zr3  1  0.19125166  0.71792354  0.00000027  1
  Zr  Zr4  1  0.28206297  0.47329545  0.00000021  1
  Zr  Zr5  1  0.52667174  0.80874029  0.00000029  1
  Ni  Ni0  1  0.41811786  0.97956810  0.00000014  1
  Ni  Ni1  1  0.02045764  0.43854631  0.00000019  1
  Ni  Ni2  1  0.58548367  0.02082734  0.50000034  1
  Ni  Ni3  1  0.56139295  0.58183815  0.00000013  1
  Ni  Ni4  1  0.97918106  0.56465256  0.50000033  1
  Ni  Ni5  1  0.92150407  0.08152370  0.49999973  1
  Ni  Ni6  1  0.16003894  0.07857026  0.49999929  1
  Ni  Ni7  1  0.91853315  0.84000769  0.50000038  1
  Ni  Ni8  1  0.09375163  0.89539414  1.00000000  1
  Ni  Ni9  1  0.80164163  0.90628757  0.99999978  1
  Ni  Ni10  1  0.10468232  0.19839404  0.99999971  1
  Ni  Ni11  1  0.33332532  0.66663769  0.50000054  1
  Ni  Ni12  1  0.66663542  0.33332593  0.00000012  1
  Ni  Ni13  1  0.67695397  0.74906062  0.49999979  1
  Ni  Ni14  1  0.25092863  0.92792904  0.49999981  1
  Ni  Ni15  1  0.92043622  0.67593028  0.99999999  1
  Ni  Ni16  1  0.32404619  0.24451563  0.00000032  1
  Ni  Ni17  1  0.75550908  0.07957370  0.00000077  1
  Ni  Ni18  1  0.43529884  0.41448124  0.50000020  1
  Ni  Ni19  1  0.07213179  0.32301293  0.50000030  1
  P  P0  1  0.99999974  0.99999685  0.00000021  1
  P  P1  1  0.23228180  0.28454226  0.50000000  1
  P  P2  1  0.71545765  0.94773839  0.50000024  1
  P  P3  1  0.05226553  0.76771698  0.49999998  1
  P  P4  1  0.76594023  0.71340213  1.00000000  1
  P  P5  1  0.28658959  0.05254080  0.00000009  1
  P  P6  1  0.47335925  0.61335585  0.50000034  1
  P  P7  1  0.38662972  0.85999916  0.50000019  1
  P  P8  1  0.86054377  0.47426295  0.00000014  1
  P  P9  1  0.52573164  0.38627670  0.00000018  1
  P  P10  1  0.61372579  0.13946534  0.00000021  1
  P  P11  1  0.94746311  0.23405035  0.99999512  1
  P  P12  1  0.14000112  0.52662510  0.50000021  1
loop_
_geom_bond_atom_site_label_1
_geom_bond_atom_site_label_2
_geom_bond_distance
_geom_bond_site_symmetry_2
Ni0 P5 2.224966 1_565
Ni0 P10 2.236454 1_565
Ni0 P7 2.247701 1_555
Ni0 P7 2.247702 1_554
Ni0 Zr2 2.971804 1_564
Ni0 Zr2 2.971806 1_565
Ni0 Zr5 3.023696 1_555
Ni0 Zr3 3.050635 1_555
Ni1 P11 2.224949 1_454
Ni1 P8 2.236584 1_455
Ni1 P12 2.247586 1_555
Ni1 P12 2.247586 1_554
Ni1 Zr0 2.971947 1_454
Ni1 Zr0 2.971948 1_455
Ni1 Zr3 3.023760 1_555
Ni1 Zr4 3.050168 1_555
Ni2 P2 2.208061 1_545
Ni2 P10 2.247658 1_555
Ni2 P10 2.247659 1_556
Ni2 P7 2.266307 1_545
Ni2 Zr5 2.967778 1_546
Ni2 Zr5 2.967780 1_545
Ni2 Zr0 3.035342 1_555
Ni2 Zr2 3.048220 1_555
Ni3 P4 2.225599 1_554
Ni3 P9 2.236024 1_555
Ni3 P6 2.247496 1_554
Ni3 P6 2.247498 1_555
Ni3 Zr1 2.971852 1_555
Ni3 Zr1 2.971854 1_554
Ni3 Zr4 3.023233 1_555
Ni3 Zr5 3.050494 1_555
Ni4 P3 2.208172 1_655
Ni4 P8 2.247663 1_556
Ni4 P8 2.247664 1_555
Ni4 P12 2.266099 1_655
Ni4 Zr3 2.967697 1_656
Ni4 Zr3 2.967698 1_655
Ni4 Zr1 3.035501 1_555
Ni4 Zr0 3.048230 1_555
Ni5 P2 2.244506 1_545
Ni5 P0 2.496524 1_545
Ni5 P0 2.496525 1_546
Ni5 P11 2.520160 1_555
Ni5 P11 2.520183 1_554
Ni6 P1 2.243645 1_555
Ni6 P0 2.496692 1_445
Ni6 P0 2.496697 1_446
Ni6 P5 2.520385 1_555
Ni6 P5 2.520388 1_556
Ni7 P3 2.244054 1_655
Ni7 P0 2.496332 1_556
Ni7 P0 2.496332 1_555
Ni7 P4 2.520689 1_555
Ni7 P4 2.520691 1_554
Ni8 P0 2.130255 1_456
Ni8 P5 2.202717 1_566
Ni8 P3 2.288434 1_556
Ni8 P3 2.288435 1_555
Ni8 Zr3 2.992938 1_556
Ni9 P0 2.130403 1_556
Ni9 P4 2.203182 1_555
Ni9 P2 2.288151 1_555
Ni9 P2 2.288156 1_556
Ni9 Zr5 2.992933 1_556
Ni10 P0 2.130842 1_446
Ni10 P11 2.203204 1_455
Ni10 P1 2.287945 1_555
Ni10 P1 2.287946 1_556
Ni10 Zr4 2.992253 1_556
Ni11 P6 2.143629 1_555
Ni11 P12 2.143754 1_555
Ni11 P7 2.144171 1_555
Ni11 Zr4 2.811764 1_556
Ni11 Zr4 2.811767 1_555
Ni11 Zr3 2.811817 1_555
Ni11 Zr3 2.811818 1_556
Ni11 Zr5 2.811890 1_556
Ni11 Zr5 2.811892 1_555
Ni12 P9 2.151102 1_555
Ni12 P10 2.151369 1_555
Ni12 P8 2.151798 1_555
Ni12 Zr2 2.806505 1_554
Ni12 Zr2 2.806507 1_555
Ni12 Zr1 2.806541 1_554
Ni12 Zr1 2.806542 1_555
Ni12 Zr0 2.806857 1_555
Ni12 Zr0 2.806859 1_554
Ni13 P6 2.225609 1_555
Ni13 P2 2.262105 1_555
Ni13 P4 2.276204 1_555
Ni13 P4 2.276204 1_554
Ni13 Zr5 2.945602 1_555
Ni13 Zr5 2.945606 1_556
Ni13 Zr1 3.046305 1_555
Ni14 P7 2.225821 1_555
Ni14 P3 2.262216 1_555
Ni14 P5 2.275987 1_565
Ni14 P5 2.275989 1_566
Ni14 Zr3 2.946077 1_555
Ni14 Zr3 2.946078 1_556
Ni14 Zr2 3.046191 1_565
Ni15 P4 2.184551 1_555
Ni15 P8 2.223515 1_556
Ni15 P3 2.321046 1_656
Ni15 P3 2.321047 1_655
Ni15 Zr1 2.898349 1_555
Ni15 Zr1 2.898350 1_556
Ni15 Zr3 3.129181 1_656
Ni16 P5 2.184748 1_555
Ni16 P9 2.223687 1_555
Ni16 P1 2.320742 1_555
Ni16 P1 2.320742 1_554
Ni16 Zr2 2.898261 1_555
Ni16 Zr2 2.898263 1_554
Ni16 Zr4 3.128545 1_555
Ni17 P11 2.184478 1_554
Ni17 P10 2.223535 1_555
Ni17 P2 2.321055 1_545
Ni17 P2 2.321059 1_544
Ni17 Zr0 2.898068 1_555
Ni17 Zr0 2.898069 1_554
Ni17 Zr5 3.129512 1_545
Ni18 P1 2.207667 1_555
Ni18 P9 2.247712 1_556
Ni18 P9 2.247713 1_555
Ni18 P6 2.266342 1_555
Ni18 Zr4 2.967366 1_555
Ni18 Zr4 2.967368 1_556
Ni18 Zr2 3.034975 1_555
Ni18 Zr1 3.048464 1_555
Ni19 P12 2.225823 1_555
Ni19 P1 2.261495 1_555
Ni19 P11 2.276321 1_455
Ni19 P11 2.276351 1_454
Ni19 Zr4 2.945487 1_556
Ni19 Zr4 2.945488 1_555
Ni19 Zr0 3.046733 1_455
P1 Zr4 2.773575 1_555
P1 Zr4 2.773577 1_556
P2 Zr5 2.773896 1_555
P2 Zr5 2.773897 1_556
P3 Zr3 2.773738 1_556
P3 Zr3 2.773739 1_555
P4 Zr1 2.764741 1_556
P4 Zr1 2.764742 1_555
P5 Zr2 2.764692 1_554
P5 Zr2 2.764692 1_555
P6 Zr4 2.793173 1_556
P6 Zr4 2.793173 1_555
P6 Zr5 2.825475 1_555
P6 Zr5 2.825477 1_556
P7 Zr5 2.793070 1_556
P7 Zr5 2.793072 1_555
P7 Zr3 2.825481 1_555
P7 Zr3 2.825482 1_556
P8 Zr0 2.793570 1_555
P8 Zr0 2.793571 1_554
P8 Zr1 2.825685 1_554
P8 Zr1 2.825686 1_555
P9 Zr1 2.793477 1_555
P9 Zr1 2.793479 1_554
P9 Zr2 2.825577 1_555
P9 Zr2 2.825578 1_554
P10 Zr2 2.793613 1_554
P10 Zr2 2.793615 1_555
P10 Zr0 2.825647 1_555
P10 Zr0 2.825647 1_554
P11 Zr0 2.764640 1_555
P11 Zr0 2.764666 1_556
P12 Zr3 2.793117 1_555
P12 Zr3 2.793118 1_556
P12 Zr4 2.825448 1_556
P12 Zr4 2.825450 1_555
