# generated using pymatgen
data_MnAlBiO5
_symmetry_space_group_name_H-M   'P 1'
_cell_length_a   5.77672400
_cell_length_b   7.48662100
_cell_length_c   8.53087400
_cell_angle_alpha   90.00000000
_cell_angle_beta   90.00000000
_cell_angle_gamma   90.00000000
_symmetry_Int_Tables_number   1
_chemical_formula_structural   MnAlBiO5
_chemical_formula_sum   'Mn4 Al4 Bi4 O20'
_cell_volume   368.94446046
_cell_formula_units_Z   4
loop_
 _symmetry_equiv_pos_site_id
 _symmetry_equiv_pos_as_xyz
  1  'x, y, z'
loop_
 _atom_site_type_symbol
 _atom_site_label
 _atom_site_symmetry_multiplicity
 _atom_site_fract_x
 _atom_site_fract_y
 _atom_site_fract_z
 _atom_site_occupancy
  Mn  Mn0  1  0.24261700  0.00000000  0.50000000  1
  Mn  Mn1  1  0.75738300  0.00000000  0.50000000  1
  Mn  Mn2  1  0.75738300  0.50000000  0.00000000  1
  Mn  Mn3  1  0.24261700  0.50000000  0.00000000  1
  Al  Al0  1  0.00000000  0.11207400  0.14234700  1
  Al  Al1  1  0.00000000  0.88792600  0.85765300  1
  Al  Al2  1  0.00000000  0.38792600  0.64234700  1
  Al  Al3  1  0.00000000  0.61207400  0.35765300  1
  Bi  Bi0  1  0.50000000  0.35914400  0.33542300  1
  Bi  Bi1  1  0.50000000  0.64085600  0.66457700  1
  Bi  Bi2  1  0.50000000  0.14085600  0.83542300  1
  Bi  Bi3  1  0.50000000  0.85914400  0.16457700  1
  O  O0  1  0.00000000  0.34513100  0.07456100  1
  O  O1  1  0.00000000  0.65486900  0.92543900  1
  O  O2  1  0.00000000  0.15486900  0.57456100  1
  O  O3  1  0.00000000  0.84513100  0.42543900  1
  O  O4  1  0.20844800  0.00000000  0.00000000  1
  O  O5  1  0.79155200  0.00000000  0.00000000  1
  O  O6  1  0.79155200  0.50000000  0.50000000  1
  O  O7  1  0.20844800  0.50000000  0.50000000  1
  O  O8  1  0.24096100  0.10888100  0.29317800  1
  O  O9  1  0.75903900  0.89111900  0.70682200  1
  O  O10  1  0.24096100  0.89111900  0.70682200  1
  O  O11  1  0.75903900  0.39111900  0.79317800  1
  O  O12  1  0.75903900  0.10888100  0.29317800  1
  O  O13  1  0.24096100  0.60888100  0.20682200  1
  O  O14  1  0.75903900  0.60888100  0.20682200  1
  O  O15  1  0.24096100  0.39111900  0.79317800  1
  O  O16  1  0.50000000  0.34451000  0.05454200  1
  O  O17  1  0.50000000  0.65549000  0.94545800  1
  O  O18  1  0.50000000  0.15549000  0.55454200  1
  O  O19  1  0.50000000  0.84451000  0.44545800  1
loop_
_geom_bond_atom_site_label_1
_geom_bond_atom_site_label_2
_geom_bond_distance
_geom_bond_site_symmetry_2
Mn0 O2 1.926964 1_555
Mn0 O3 1.926964 1_545
Mn0 O10 1.943598 1_545
Mn0 O8 1.943598 1_555
Mn0 O19 1.944808 1_545
Mn0 O18 1.944808 1_555
Mn1 O3 1.926964 1_645
Mn1 O2 1.926964 1_655
Mn1 O9 1.943598 1_545
Mn1 O12 1.943598 1_555
Mn1 O19 1.944808 1_545
Mn1 O18 1.944808 1_555
Mn2 O1 1.926964 1_654
Mn2 O0 1.926964 1_655
Mn2 O11 1.943598 1_554
Mn2 O14 1.943598 1_555
Mn2 O16 1.944808 1_555
Mn2 O17 1.944808 1_554
Mn3 O0 1.926964 1_555
Mn3 O1 1.926964 1_554
Mn3 O15 1.943598 1_554
Mn3 O13 1.943598 1_555
Mn3 O16 1.944808 1_555
Mn3 O17 1.944808 1_554
Al0 O0 1.838141 1_555
Al0 O12 1.895729 1_455
Al0 O8 1.895729 1_555
Al0 O5 1.904892 1_455
Al0 O4 1.904892 1_555
Al1 O1 1.838141 1_555
Al1 O9 1.895729 1_455
Al1 O10 1.895729 1_555
Al1 O5 1.904892 1_466
Al1 O4 1.904892 1_566
Al2 O2 1.838141 1_555
Al2 O11 1.895729 1_455
Al2 O15 1.895729 1_555
Al2 O6 1.904892 1_455
Al2 O7 1.904892 1_555
Al3 O3 1.838141 1_555
Al3 O13 1.895729 1_555
Al3 O14 1.895729 1_455
Al3 O6 1.904892 1_455
Al3 O7 1.904892 1_555
Bi0 O16 2.398664 1_555
Bi0 O18 2.412228 1_555
Bi0 O8 2.424778 1_555
Bi0 O12 2.424778 1_555
Bi0 O6 2.433064 1_555
Bi0 O7 2.433064 1_555
Bi0 O13 2.634106 1_555
Bi0 O14 2.634106 1_555
Bi1 O17 2.398664 1_555
Bi1 O19 2.412228 1_555
Bi1 O9 2.424778 1_555
Bi1 O10 2.424778 1_555
Bi1 O6 2.433064 1_555
Bi1 O7 2.433064 1_555
Bi1 O11 2.634106 1_555
Bi1 O15 2.634106 1_555
Bi2 O18 2.398664 1_555
Bi2 O16 2.412228 1_556
Bi2 O15 2.424778 1_555
Bi2 O11 2.424778 1_555
Bi2 O4 2.433064 1_556
Bi2 O5 2.433064 1_556
Bi2 O10 2.634106 1_545
Bi2 O9 2.634106 1_545
Bi3 O19 2.398664 1_555
Bi3 O17 2.412228 1_554
Bi3 O13 2.424778 1_555
Bi3 O14 2.424778 1_555
Bi3 O4 2.433064 1_565
Bi3 O5 2.433064 1_565
Bi3 O8 2.634106 1_565
Bi3 O12 2.634106 1_565
