# generated using pymatgen
data_Ca2Fe2(SiO4)3
_symmetry_space_group_name_H-M   'P 1'
_cell_length_a   10.54848462
_cell_length_b   10.54848462
_cell_length_c   10.54848462
_cell_angle_alpha   109.40211988
_cell_angle_beta   109.40211988
_cell_angle_gamma   109.60951071
_symmetry_Int_Tables_number   1
_chemical_formula_structural   Ca2Fe2(SiO4)3
_chemical_formula_sum   'Ca8 Fe8 Si12 O48'
_cell_volume   903.53802253
_cell_formula_units_Z   4
loop_
 _symmetry_equiv_pos_site_id
 _symmetry_equiv_pos_as_xyz
  1  'x, y, z'
loop_
 _atom_site_type_symbol
 _atom_site_label
 _atom_site_symmetry_multiplicity
 _atom_site_fract_x
 _atom_site_fract_y
 _atom_site_fract_z
 _atom_site_occupancy
  Ca  Ca0  1  0.37500000  0.74641500  0.87141500  1
  Ca  Ca1  1  0.87500000  0.50358500  0.12858500  1
  Ca  Ca2  1  0.75358500  0.12500000  0.12858500  1
  Ca  Ca3  1  0.25358500  0.12500000  0.62858500  1
  Ca  Ca4  1  0.49641500  0.62500000  0.37141500  1
  Ca  Ca5  1  0.37500000  0.24641500  0.37141500  1
  Ca  Ca6  1  0.87500000  0.00358500  0.62858500  1
  Ca  Ca7  1  0.99641500  0.62500000  0.87141500  1
  Fe  Fe0  1  0.12500000  0.37500000  0.75000000  1
  Fe  Fe1  1  0.62500000  0.37500000  0.75000000  1
  Fe  Fe2  1  0.12500000  0.37500000  0.25000000  1
  Fe  Fe3  1  0.62500000  0.37500000  0.25000000  1
  Fe  Fe4  1  0.62500000  0.87500000  0.75000000  1
  Fe  Fe5  1  0.12500000  0.87500000  0.25000000  1
  Fe  Fe6  1  0.12500000  0.87500000  0.75000000  1
  Fe  Fe7  1  0.62500000  0.87500000  0.25000000  1
  Si  Si0  1  0.24735700  0.62500000  0.12235700  1
  Si  Si1  1  0.00264300  0.12500000  0.37764300  1
  Si  Si2  1  0.25000000  0.75000000  0.50000000  1
  Si  Si3  1  0.37500000  0.99735700  0.12235700  1
  Si  Si4  1  0.50000000  0.50000000  0.00000000  1
  Si  Si5  1  0.87500000  0.25264300  0.87764300  1
  Si  Si6  1  0.50264300  0.12500000  0.87764300  1
  Si  Si7  1  0.87500000  0.75264300  0.37764300  1
  Si  Si8  1  0.37500000  0.49735700  0.62235700  1
  Si  Si9  1  0.75000000  0.25000000  0.50000000  1
  Si  Si10  1  0.00000000  0.00000000  0.00000000  1
  Si  Si11  1  0.74735700  0.62500000  0.62235700  1
  O  O0  1  0.93067300  0.68236400  0.66935300  1
  O  O1  1  0.82771900  0.38581900  0.86858600  1
  O  O2  1  0.63221000  0.48770900  0.95347400  1
  O  O3  1  0.73698900  0.56763600  0.74830900  1
  O  O4  1  0.20913300  0.57771900  0.94190000  1
  O  O5  1  0.51723300  0.95913300  0.13141400  1
  O  O6  1  0.54086700  0.98276700  0.86858600  1
  O  O7  1  0.11779000  0.57126400  0.35549900  1
  O  O8  1  0.63581900  0.26723300  0.05810000  1
  O  O9  1  0.51132000  0.68067300  0.74830900  1
  O  O10  1  0.73770900  0.28423500  0.35549900  1
  O  O11  1  0.92873600  0.38221000  0.64450100  1
  O  O12  1  0.81763600  0.56932700  0.33064700  1
  O  O13  1  0.82126400  0.96576500  0.95347400  1
  O  O14  1  0.23868000  0.48698900  0.66935300  1
  O  O15  1  0.01229100  0.86779000  0.04652600  1
  O  O16  1  0.93236400  0.76301100  0.25169100  1
  O  O17  1  0.01301100  0.26132000  0.33064700  1
  O  O18  1  0.81932700  0.98868000  0.25169100  1
  O  O19  1  0.61418100  0.48276700  0.44190000  1
  O  O20  1  0.92228100  0.29086700  0.05810000  1
  O  O21  1  0.21576500  0.76229100  0.64450100  1
  O  O22  1  0.53423500  0.67873600  0.04652600  1
  O  O23  1  0.11418100  0.67228100  0.13141400  1
  O  O24  1  0.31932700  0.06763600  0.83064700  1
  O  O25  1  0.42228100  0.36418100  0.63141400  1
  O  O26  1  0.61779000  0.26229100  0.54652600  1
  O  O27  1  0.51301100  0.18236400  0.75169100  1
  O  O28  1  0.04086700  0.17228100  0.55810000  1
  O  O29  1  0.73276700  0.79086700  0.36858600  1
  O  O30  1  0.70913300  0.76723300  0.63141400  1
  O  O31  1  0.13221000  0.17873600  0.14450100  1
  O  O32  1  0.13581900  0.07771900  0.36858600  1
  O  O33  1  0.71576500  0.07126400  0.45347400  1
  O  O34  1  0.03423500  0.98770900  0.85549900  1
  O  O35  1  0.01723300  0.88581900  0.55810000  1
  O  O36  1  0.32771900  0.45913300  0.44190000  1
  O  O37  1  0.43067300  0.76132000  0.24830900  1
  O  O38  1  0.23698900  0.48868000  0.16935300  1
  O  O39  1  0.31763600  0.98698900  0.24830900  1
  O  O40  1  0.23770900  0.88221000  0.45347400  1
  O  O41  1  0.01132000  0.26301100  0.83064700  1
  O  O42  1  0.42873600  0.78423500  0.54652600  1
  O  O43  1  0.43236400  0.18067300  0.16935300  1
  O  O44  1  0.32126400  0.36779000  0.85549900  1
  O  O45  1  0.51229100  0.46576500  0.14450100  1
  O  O46  1  0.73868000  0.06932700  0.75169100  1
  O  O47  1  0.23276700  0.86418100  0.94190000  1
loop_
_geom_bond_atom_site_label_1
_geom_bond_atom_site_label_2
_geom_bond_distance
_geom_bond_site_symmetry_2
Ca0 O14 2.355131 1_555
Ca0 O9 2.355131 1_555
Ca0 O5 2.392809 1_556
Ca0 O47 2.392809 1_555
Ca0 O21 2.522430 1_555
Ca0 O22 2.522430 1_556
Ca0 O6 2.536564 1_555
Ca0 O4 2.536564 1_555
Ca1 O12 2.355131 1_555
Ca1 O16 2.355131 1_555
Ca1 O20 2.392809 1_555
Ca1 O1 2.392809 1_554
Ca1 O7 2.522430 1_655
Ca1 O2 2.522430 1_554
Ca1 O23 2.536564 1_655
Ca1 O8 2.536564 1_555
Ca2 O18 2.355131 1_545
Ca2 O17 2.355131 1_655
Ca2 O8 2.392809 1_555
Ca2 O6 2.392809 1_544
Ca2 O10 2.522430 1_555
Ca2 O13 2.522430 1_544
Ca2 O20 2.536564 1_555
Ca2 O5 2.536564 1_545
Ca3 O24 2.355131 1_555
Ca3 O27 2.355131 1_555
Ca3 O28 2.392809 1_555
Ca3 O32 2.392809 1_555
Ca3 O40 2.522430 1_545
Ca3 O44 2.522430 1_555
Ca3 O25 2.536564 1_555
Ca3 O35 2.536564 1_545
Ca4 O37 2.355131 1_555
Ca4 O38 2.355131 1_555
Ca4 O30 2.392809 1_555
Ca4 O19 2.392809 1_555
Ca4 O45 2.522430 1_555
Ca4 O42 2.522430 1_555
Ca4 O29 2.536564 1_555
Ca4 O36 2.536564 1_555
Ca5 O43 2.355131 1_555
Ca5 O39 2.355131 1_545
Ca5 O36 2.392809 1_555
Ca5 O25 2.392809 1_555
Ca5 O31 2.522430 1_555
Ca5 O26 2.522430 1_555
Ca5 O32 2.536564 1_555
Ca5 O19 2.536564 1_555
Ca6 O46 2.355131 1_555
Ca6 O41 2.355131 1_655
Ca6 O35 2.392809 1_645
Ca6 O29 2.392809 1_545
Ca6 O34 2.522430 1_645
Ca6 O33 2.522430 1_555
Ca6 O30 2.536564 1_545
Ca6 O28 2.536564 1_655
Ca7 O3 2.355131 1_555
Ca7 O0 2.355131 1_555
Ca7 O4 2.392809 1_655
Ca7 O23 2.392809 1_656
Ca7 O11 2.522430 1_555
Ca7 O15 2.522430 1_656
Ca7 O47 2.536564 1_655
Ca7 O1 2.536564 1_555
Fe0 O41 1.987908 1_555
Fe0 O14 1.987908 1_555
Fe0 O28 2.028450 1_555
Fe0 O4 2.028450 1_555
Fe0 O44 2.039982 1_555
Fe0 O11 2.039982 1_455
Fe1 O27 1.987908 1_555
Fe1 O3 1.987908 1_555
Fe1 O1 2.028450 1_555
Fe1 O25 2.028450 1_555
Fe1 O2 2.039982 1_555
Fe1 O26 2.039982 1_555
Fe2 O17 1.987908 1_555
Fe2 O38 1.987908 1_555
Fe2 O36 2.028450 1_555
Fe2 O20 2.028450 1_455
Fe2 O7 2.039982 1_555
Fe2 O31 2.039982 1_555
Fe3 O12 1.987908 1_555
Fe3 O43 1.987908 1_555
Fe3 O19 2.028450 1_555
Fe3 O8 2.028450 1_555
Fe3 O45 2.039982 1_555
Fe3 O10 2.039982 1_555
Fe4 O46 1.987908 1_565
Fe4 O9 1.987908 1_555
Fe4 O6 2.028450 1_555
Fe4 O30 2.028450 1_555
Fe4 O13 2.039982 1_555
Fe4 O42 2.039982 1_555
Fe5 O39 1.987908 1_555
Fe5 O16 1.987908 1_455
Fe5 O23 2.028450 1_555
Fe5 O32 2.028450 1_565
Fe5 O40 2.039982 1_555
Fe5 O15 2.039982 1_555
Fe6 O24 1.987908 1_565
Fe6 O0 1.987908 1_455
Fe6 O35 2.028450 1_555
Fe6 O47 2.028450 1_555
Fe6 O21 2.039982 1_555
Fe6 O34 2.039982 1_555
Fe7 O18 1.987908 1_555
Fe7 O37 1.987908 1_555
Fe7 O29 2.028450 1_555
Fe7 O5 2.028450 1_555
Fe7 O33 2.039982 1_565
Fe7 O22 2.039982 1_555
O0 Si11 1.652135 1_555
O1 Si5 1.661066 1_555
O2 Si4 1.654224 1_556
O3 Si11 1.652135 1_555
O4 Si0 1.661066 1_556
O5 Si3 1.661066 1_555
O6 Si6 1.661066 1_565
O7 Si2 1.654224 1_555
O8 Si6 1.661066 1_554
O9 Si8 1.652135 1_555
O10 Si9 1.654224 1_555
O11 Si9 1.654224 1_555
O12 Si7 1.652135 1_555
O13 Si10 1.654224 1_666
O14 Si8 1.652135 1_555
O15 Si10 1.654224 1_565
O16 Si7 1.652135 1_555
O17 Si1 1.652135 1_555
O18 Si1 1.652135 1_665
O19 Si11 1.661066 1_555
O20 Si5 1.661066 1_554
O21 Si2 1.654224 1_555
O22 Si4 1.654224 1_555
O23 Si0 1.661066 1_555
O24 Si6 1.652135 1_555
O25 Si8 1.661066 1_555
O26 Si9 1.654224 1_555
O27 Si6 1.652135 1_555
O28 Si1 1.661066 1_555
O29 Si7 1.661066 1_555
O30 Si11 1.661066 1_555
O31 Si10 1.654224 1_555
O32 Si1 1.661066 1_555
O33 Si9 1.654224 1_555
O34 Si10 1.654224 1_566
O35 Si7 1.661066 1_455
O36 Si8 1.661066 1_555
O37 Si0 1.652135 1_555
O38 Si0 1.652135 1_555
O39 Si3 1.652135 1_555
O40 Si2 1.654224 1_555
O41 Si5 1.652135 1_455
O42 Si2 1.654224 1_555
O43 Si3 1.652135 1_545
O44 Si4 1.654224 1_556
O45 Si4 1.654224 1_555
O46 Si5 1.652135 1_555
O47 Si3 1.661066 1_556
