# generated using pymatgen
data_Nb4AlN3
_symmetry_space_group_name_H-M   'P 1'
_cell_length_a   3.10840328
_cell_length_b   3.10840328
_cell_length_c   24.43515200
_cell_angle_alpha   90.00000000
_cell_angle_beta   90.00000000
_cell_angle_gamma   119.99998472
_symmetry_Int_Tables_number   1
_chemical_formula_structural   Nb4AlN3
_chemical_formula_sum   'Nb8 Al2 N6'
_cell_volume   204.46569880
_cell_formula_units_Z   2
loop_
 _symmetry_equiv_pos_site_id
 _symmetry_equiv_pos_as_xyz
  1  'x, y, z'
loop_
 _atom_site_type_symbol
 _atom_site_label
 _atom_site_symmetry_multiplicity
 _atom_site_fract_x
 _atom_site_fract_y
 _atom_site_fract_z
 _atom_site_occupancy
  Nb  Nb0  1  0.33333300  0.66666700  0.44871800  1
  Nb  Nb1  1  0.66666700  0.33333300  0.55128200  1
  Nb  Nb2  1  0.66666700  0.33333300  0.94871800  1
  Nb  Nb3  1  0.33333300  0.66666700  0.05128200  1
  Nb  Nb4  1  0.00000000  0.00000000  0.34080200  1
  Nb  Nb5  1  0.00000000  0.00000000  0.65919800  1
  Nb  Nb6  1  0.00000000  0.00000000  0.84080200  1
  Nb  Nb7  1  0.00000000  0.00000000  0.15919800  1
  Al  Al0  1  0.33333300  0.66666700  0.25000000  1
  Al  Al1  1  0.66666700  0.33333300  0.75000000  1
  N  N0  1  0.00000000  0.00000000  0.50000000  1
  N  N1  1  0.00000000  0.00000000  0.00000000  1
  N  N2  1  0.66666700  0.33333300  0.39290500  1
  N  N3  1  0.33333300  0.66666700  0.60709500  1
  N  N4  1  0.33333300  0.66666700  0.89290500  1
  N  N5  1  0.66666700  0.33333300  0.10709500  1
loop_
_geom_bond_atom_site_label_1
_geom_bond_atom_site_label_2
_geom_bond_distance
_geom_bond_site_symmetry_2
Al0 Nb7 2.853702 1_565
Al0 Nb4 2.853702 1_565
Al0 Nb7 2.853704 1_665
Al0 Nb4 2.853704 1_665
Al0 Nb4 2.853704 1_555
Al0 Nb7 2.853704 1_555
Al1 Nb6 2.853702 1_655
Al1 Nb5 2.853702 1_655
Al1 Nb5 2.853704 1_665
Al1 Nb6 2.853704 1_555
Al1 Nb6 2.853704 1_665
Al1 Nb5 2.853704 1_555
N0 Nb0 2.188820 1_545
N0 Nb1 2.188820 1_455
N0 Nb0 2.188823 1_445
N0 Nb0 2.188823 1_555
N0 Nb1 2.188823 1_555
N0 Nb1 2.188823 1_445
N1 Nb3 2.188820 1_545
N1 Nb2 2.188820 1_454
N1 Nb3 2.188823 1_555
N1 Nb3 2.188823 1_445
N1 Nb2 2.188823 1_554
N1 Nb2 2.188823 1_444
N2 Nb4 2.200367 1_655
N2 Nb4 2.200369 1_555
N2 Nb4 2.200369 1_665
N2 Nb0 2.254033 1_545
N2 Nb0 2.254033 1_655
N2 Nb0 2.254037 1_555
N3 Nb5 2.200367 1_565
N3 Nb5 2.200369 1_555
N3 Nb5 2.200369 1_665
N3 Nb1 2.254033 1_455
N3 Nb1 2.254033 1_565
N3 Nb1 2.254037 1_555
N4 Nb6 2.200367 1_565
N4 Nb6 2.200369 1_555
N4 Nb6 2.200369 1_665
N4 Nb2 2.254033 1_455
N4 Nb2 2.254033 1_565
N4 Nb2 2.254037 1_555
N5 Nb7 2.200367 1_655
N5 Nb7 2.200369 1_555
N5 Nb7 2.200369 1_665
N5 Nb3 2.254033 1_545
N5 Nb3 2.254033 1_655
N5 Nb3 2.254037 1_555
