# generated using pymatgen
data_KMg30BO31
_symmetry_space_group_name_H-M   'P 1'
_cell_length_a   8.42552300
_cell_length_b   8.58459100
_cell_length_c   8.77514600
_cell_angle_alpha   90.00000000
_cell_angle_beta   90.00000000
_cell_angle_gamma   90.00000000
_symmetry_Int_Tables_number   1
_chemical_formula_structural   KMg30BO31
_chemical_formula_sum   'K1 Mg30 B1 O31'
_cell_volume   634.70340487
_cell_formula_units_Z   1
loop_
 _symmetry_equiv_pos_site_id
 _symmetry_equiv_pos_as_xyz
  1  'x, y, z'
loop_
 _atom_site_type_symbol
 _atom_site_label
 _atom_site_symmetry_multiplicity
 _atom_site_fract_x
 _atom_site_fract_y
 _atom_site_fract_z
 _atom_site_occupancy
  K  K0  1  0.00000000  0.98554000  0.00000000  1
  Mg  Mg0  1  0.00000000  0.00077000  0.50000000  1
  Mg  Mg1  1  0.50000000  0.99686100  0.50000000  1
  Mg  Mg2  1  0.00000000  0.50692900  0.00000000  1
  Mg  Mg3  1  0.50000000  0.49354200  0.00000000  1
  Mg  Mg4  1  0.00000000  0.49859300  0.50000000  1
  Mg  Mg5  1  0.50000000  0.50143100  0.50000000  1
  Mg  Mg6  1  0.25741700  0.00002800  0.26162700  1
  Mg  Mg7  1  0.74258300  0.00002800  0.26162700  1
  Mg  Mg8  1  0.25741700  0.00002800  0.73837300  1
  Mg  Mg9  1  0.74258300  0.00002800  0.73837300  1
  Mg  Mg10  1  0.25029800  0.49907900  0.25005900  1
  Mg  Mg11  1  0.74970200  0.49907900  0.25005900  1
  Mg  Mg12  1  0.25029800  0.49907900  0.74994100  1
  Mg  Mg13  1  0.74970200  0.49907900  0.74994100  1
  Mg  Mg14  1  0.26735200  0.74090400  0.00000000  1
  Mg  Mg15  1  0.73264800  0.74090400  0.00000000  1
  Mg  Mg16  1  0.25251600  0.74846600  0.50000000  1
  Mg  Mg17  1  0.74748400  0.74846600  0.50000000  1
  Mg  Mg18  1  0.24494600  0.25552000  0.00000000  1
  Mg  Mg19  1  0.75505400  0.25552000  0.00000000  1
  Mg  Mg20  1  0.24796000  0.25073900  0.50000000  1
  Mg  Mg21  1  0.75204000  0.25073900  0.50000000  1
  Mg  Mg22  1  0.00000000  0.74826200  0.25950000  1
  Mg  Mg23  1  0.50000000  0.75423400  0.24410600  1
  Mg  Mg24  1  0.00000000  0.74826200  0.74050000  1
  Mg  Mg25  1  0.50000000  0.75423400  0.75589400  1
  Mg  Mg26  1  0.00000000  0.24955800  0.25175300  1
  Mg  Mg27  1  0.50000000  0.24760900  0.26294700  1
  Mg  Mg28  1  0.00000000  0.24955800  0.74824700  1
  Mg  Mg29  1  0.50000000  0.24760900  0.73705300  1
  B  B0  1  0.50000000  0.06425900  0.00000000  1
  O  O0  1  0.50000000  0.72308600  0.00000000  1
  O  O1  1  0.00000000  0.74530900  0.50000000  1
  O  O2  1  0.50000000  0.74541500  0.50000000  1
  O  O3  1  0.00000000  0.26723200  0.00000000  1
  O  O4  1  0.50000000  0.23517400  0.00000000  1
  O  O5  1  0.00000000  0.25356000  0.50000000  1
  O  O6  1  0.50000000  0.25431900  0.50000000  1
  O  O7  1  0.25187000  0.75218600  0.24829500  1
  O  O8  1  0.74813000  0.75218600  0.24829500  1
  O  O9  1  0.25187000  0.75218600  0.75170500  1
  O  O10  1  0.74813000  0.75218600  0.75170500  1
  O  O11  1  0.25003400  0.24723000  0.24759800  1
  O  O12  1  0.74996600  0.24723000  0.24759800  1
  O  O13  1  0.25003400  0.24723000  0.75240200  1
  O  O14  1  0.74996600  0.24723000  0.75240200  1
  O  O15  1  0.33905100  0.00849000  0.00000000  1
  O  O16  1  0.66094900  0.00849000  0.00000000  1
  O  O17  1  0.25042800  0.99989000  0.50000000  1
  O  O18  1  0.74957200  0.99989000  0.50000000  1
  O  O19  1  0.25431000  0.49337200  0.00000000  1
  O  O20  1  0.74569000  0.49337200  0.00000000  1
  O  O21  1  0.25071600  0.49940300  0.50000000  1
  O  O22  1  0.74928400  0.49940300  0.50000000  1
  O  O23  1  0.00000000  0.99992300  0.27069600  1
  O  O24  1  0.50000000  0.00311300  0.27179200  1
  O  O25  1  0.00000000  0.99992300  0.72930400  1
  O  O26  1  0.50000000  0.00311300  0.72820800  1
  O  O27  1  0.00000000  0.49922900  0.25481800  1
  O  O28  1  0.50000000  0.49323000  0.24990800  1
  O  O29  1  0.00000000  0.49922900  0.74518200  1
  O  O30  1  0.50000000  0.49323000  0.75009200  1
loop_
_geom_bond_atom_site_label_1
_geom_bond_atom_site_label_2
_geom_bond_distance
_geom_bond_site_symmetry_2
K0 O23 2.378604 1_555
K0 O25 2.378604 1_554
K0 O3 2.418211 1_565
Mg0 O25 2.012189 1_545
Mg0 O23 2.012189 1_545
Mg0 O17 2.110000 1_545
Mg0 O18 2.110000 1_445
Mg0 O5 2.170099 1_555
Mg0 O1 2.193028 1_545
Mg1 O26 2.003278 1_565
Mg1 O24 2.003278 1_565
Mg1 O17 2.102935 1_555
Mg1 O18 2.102935 1_555
Mg1 O2 2.158561 1_555
Mg1 O6 2.210172 1_565
Mg2 O3 2.057701 1_555
Mg2 O19 2.145853 1_555
Mg2 O20 2.145853 1_455
Mg2 O27 2.237042 1_555
Mg2 O29 2.237042 1_554
Mg3 O0 1.970541 1_555
Mg3 O20 2.070067 1_555
Mg3 O19 2.070067 1_555
Mg3 O28 2.192981 1_555
Mg3 O30 2.192981 1_554
Mg3 O4 2.217984 1_555
Mg4 O5 2.103508 1_555
Mg4 O21 2.112425 1_555
Mg4 O22 2.112425 1_455
Mg4 O1 2.117956 1_555
Mg4 O27 2.151515 1_555
Mg4 O29 2.151515 1_555
Mg5 O2 2.094503 1_555
Mg5 O22 2.100420 1_555
Mg5 O21 2.100420 1_555
Mg5 O6 2.121355 1_555
Mg5 O30 2.195723 1_555
Mg5 O28 2.195723 1_555
Mg6 O24 2.046006 1_555
Mg6 O17 2.092587 1_545
Mg6 O11 2.126606 1_555
Mg6 O7 2.131349 1_545
Mg6 O23 2.170333 1_545
Mg6 O15 2.397733 1_555
Mg7 O24 2.046006 1_555
Mg7 O18 2.092587 1_545
Mg7 O12 2.126606 1_555
Mg7 O8 2.131349 1_545
Mg7 O23 2.170333 1_645
Mg7 O16 2.397733 1_555
Mg8 O26 2.046006 1_555
Mg8 O17 2.092587 1_545
Mg8 O13 2.126606 1_555
Mg8 O9 2.131349 1_545
Mg8 O25 2.170333 1_545
Mg8 O15 2.397733 1_556
Mg9 O26 2.046006 1_555
Mg9 O18 2.092587 1_545
Mg9 O14 2.126606 1_555
Mg9 O10 2.131349 1_545
Mg9 O25 2.170333 1_645
Mg9 O16 2.397733 1_556
Mg10 O28 2.104469 1_555
Mg10 O27 2.109305 1_555
Mg10 O11 2.162130 1_555
Mg10 O7 2.172916 1_555
Mg10 O21 2.193273 1_555
Mg10 O19 2.195111 1_555
Mg11 O28 2.104469 1_555
Mg11 O27 2.109305 1_655
Mg11 O12 2.162130 1_555
Mg11 O8 2.172916 1_555
Mg11 O22 2.193273 1_555
Mg11 O20 2.195111 1_555
Mg12 O30 2.104469 1_555
Mg12 O29 2.109305 1_555
Mg12 O13 2.162130 1_555
Mg12 O9 2.172916 1_555
Mg12 O21 2.193273 1_555
Mg12 O19 2.195111 1_556
Mg13 O30 2.104469 1_555
Mg13 O29 2.109305 1_655
Mg13 O14 2.162130 1_555
Mg13 O10 2.172916 1_555
Mg13 O22 2.193273 1_555
Mg13 O20 2.195111 1_556
Mg14 O0 1.966140 1_555
Mg14 O19 2.127800 1_555
Mg14 O7 2.184874 1_555
Mg14 O9 2.184874 1_554
Mg14 O15 2.375223 1_565
Mg15 O0 1.966140 1_555
Mg15 O20 2.127800 1_555
Mg15 O8 2.184874 1_555
Mg15 O10 2.184874 1_554
Mg15 O16 2.375223 1_565
Mg16 O2 2.085347 1_555
Mg16 O1 2.127752 1_555
Mg16 O21 2.138158 1_555
Mg16 O17 2.158444 1_555
Mg16 O7 2.208986 1_555
Mg16 O9 2.208986 1_555
Mg17 O2 2.085347 1_555
Mg17 O1 2.127752 1_655
Mg17 O22 2.138158 1_555
Mg17 O18 2.158444 1_555
Mg17 O8 2.208986 1_555
Mg17 O10 2.208986 1_555
Mg18 O19 2.043386 1_555
Mg18 O3 2.066246 1_555
Mg18 O4 2.156050 1_555
Mg18 O13 2.174296 1_554
Mg18 O11 2.174296 1_555
Mg18 O15 2.264029 1_555
Mg19 O20 2.043386 1_555
Mg19 O3 2.066246 1_655
Mg19 O4 2.156050 1_555
Mg19 O12 2.174296 1_555
Mg19 O14 2.174296 1_554
Mg19 O16 2.264029 1_555
Mg20 O5 2.089333 1_555
Mg20 O6 2.123791 1_555
Mg20 O21 2.134805 1_555
Mg20 O17 2.153536 1_545
Mg20 O13 2.215138 1_555
Mg20 O11 2.215138 1_555
Mg21 O5 2.089333 1_655
Mg21 O6 2.123791 1_555
Mg21 O22 2.134805 1_555
Mg21 O18 2.153536 1_545
Mg21 O12 2.215138 1_555
Mg21 O14 2.215138 1_555
Mg22 O1 2.110575 1_555
Mg22 O7 2.124680 1_555
Mg22 O8 2.124680 1_455
Mg22 O27 2.138241 1_555
Mg22 O23 2.162640 1_555
Mg23 O8 2.091022 1_555
Mg23 O7 2.091022 1_555
Mg23 O24 2.150293 1_565
Mg23 O0 2.158691 1_555
Mg23 O28 2.241191 1_555
Mg23 O2 2.246783 1_555
Mg24 O1 2.110575 1_555
Mg24 O10 2.124680 1_455
Mg24 O9 2.124680 1_555
Mg24 O29 2.138241 1_555
Mg24 O25 2.162640 1_555
Mg25 O10 2.091022 1_555
Mg25 O9 2.091022 1_555
Mg25 O26 2.150293 1_565
Mg25 O0 2.158691 1_556
Mg25 O30 2.241191 1_555
Mg25 O2 2.246783 1_555
Mg26 O11 2.107077 1_555
Mg26 O12 2.107077 1_455
Mg26 O27 2.143492 1_555
Mg26 O23 2.149452 1_545
Mg26 O5 2.178675 1_555
Mg26 O3 2.214373 1_555
Mg27 O6 2.080972 1_555
Mg27 O24 2.100333 1_555
Mg27 O12 2.110399 1_555
Mg27 O11 2.110399 1_555
Mg27 O28 2.111658 1_555
Mg27 O4 2.309866 1_555
Mg28 O13 2.107077 1_555
Mg28 O14 2.107077 1_455
Mg28 O29 2.143492 1_555
Mg28 O25 2.149452 1_545
Mg28 O5 2.178675 1_555
Mg28 O3 2.214373 1_556
Mg29 O6 2.080972 1_555
Mg29 O26 2.100333 1_555
Mg29 O13 2.110399 1_555
Mg29 O14 2.110399 1_555
Mg29 O30 2.111658 1_555
Mg29 O4 2.309866 1_556
B0 O15 1.438109 1_555
B0 O16 1.438109 1_555
B0 O4 1.467235 1_555
