# generated using pymatgen
data_Cu2H3ClO3
_symmetry_space_group_name_H-M   'P 1'
_cell_length_a   9.20038700
_cell_length_b   9.21422721
_cell_length_c   9.29966893
_cell_angle_alpha   96.34921757
_cell_angle_beta   97.11484011
_cell_angle_gamma   96.76497616
_symmetry_Int_Tables_number   1
_chemical_formula_structural   Cu2H3ClO3
_chemical_formula_sum   'Cu16 H24 Cl8 O24'
_cell_volume   770.56335397
_cell_formula_units_Z   8
loop_
 _symmetry_equiv_pos_site_id
 _symmetry_equiv_pos_as_xyz
  1  'x, y, z'
loop_
 _atom_site_type_symbol
 _atom_site_label
 _atom_site_symmetry_multiplicity
 _atom_site_fract_x
 _atom_site_fract_y
 _atom_site_fract_z
 _atom_site_occupancy
  Cu  Cu0  1  0.50000000  0.50000000  0.50000000  1
  Cu  Cu1  1  0.50000000  0.00000000  0.00000000  1
  Cu  Cu2  1  0.00000000  0.00000000  0.50000000  1
  Cu  Cu3  1  0.00000000  0.50000000  0.00000000  1
  Cu  Cu4  1  0.25014800  0.76084100  0.00142100  1
  Cu  Cu5  1  0.74985200  0.23915900  0.99857900  1
  Cu  Cu6  1  0.75262300  0.99939900  0.26225400  1
  Cu  Cu7  1  0.24737700  0.00060100  0.73774600  1
  Cu  Cu8  1  0.00182400  0.25246200  0.74937500  1
  Cu  Cu9  1  0.99817600  0.74753800  0.25062500  1
  Cu  Cu10  1  0.49299800  0.74833000  0.74597600  1
  Cu  Cu11  1  0.50700200  0.25167000  0.25402400  1
  Cu  Cu12  1  0.75382000  0.73770400  0.50573300  1
  Cu  Cu13  1  0.24618000  0.26229600  0.49426700  1
  Cu  Cu14  1  0.74810900  0.49736600  0.75777700  1
  Cu  Cu15  1  0.25189100  0.50263400  0.24222300  1
  H  H0  1  0.47427600  0.76597400  0.47328400  1
  H  H1  1  0.52572400  0.23402600  0.52671600  1
  H  H2  1  0.47693900  0.47831100  0.78917300  1
  H  H3  1  0.52306100  0.52168900  0.21082700  1
  H  H4  1  0.76887200  0.46064600  0.48192900  1
  H  H5  1  0.23112800  0.53935400  0.51807100  1
  H  H6  1  0.52609800  0.73035200  0.01934400  1
  H  H7  1  0.47390200  0.26964800  0.98065600  1
  H  H8  1  0.51595000  0.01781600  0.70024200  1
  H  H9  1  0.48405000  0.98218400  0.29975800  1
  H  H10  1  0.77119800  0.96334700  0.98764500  1
  H  H11  1  0.22880200  0.03665300  0.01235500  1
  H  H12  1  0.98189900  0.79864700  0.98714100  1
  H  H13  1  0.01810100  0.20135300  0.01285900  1
  H  H14  1  0.02994600  0.52704400  0.73802000  1
  H  H15  1  0.97005400  0.47295600  0.26198000  1
  H  H16  1  0.73039500  0.52129600  0.02928700  1
  H  H17  1  0.26960500  0.47870400  0.97071300  1
  H  H18  1  0.73415200  0.01812300  0.53468400  1
  H  H19  1  0.26584800  0.98187700  0.46531600  1
  H  H20  1  0.96696000  0.97497300  0.76068000  1
  H  H21  1  0.03304000  0.02502700  0.23932000  1
  H  H22  1  0.02149800  0.69707900  0.51346500  1
  H  H23  1  0.97850200  0.30292100  0.48653500  1
  Cl  Cl0  1  0.81700700  0.81855200  0.81562700  1
  Cl  Cl1  1  0.18299300  0.18144800  0.18437300  1
  Cl  Cl2  1  0.18423000  0.68314900  0.68474200  1
  Cl  Cl3  1  0.81577000  0.31685100  0.31525800  1
  Cl  Cl4  1  0.68272900  0.68781800  0.17607000  1
  Cl  Cl5  1  0.31727100  0.31218200  0.82393000  1
  Cl  Cl6  1  0.68171800  0.18562600  0.67624900  1
  Cl  Cl7  1  0.31828200  0.81437400  0.32375100  1
  O  O0  1  0.44922300  0.95218100  0.74817300  1
  O  O1  1  0.55077700  0.04781900  0.25182700  1
  O  O2  1  0.94605000  0.73154100  0.44408900  1
  O  O3  1  0.05395000  0.26845900  0.55591100  1
  O  O4  1  0.77706900  0.45258400  0.96435600  1
  O  O5  1  0.22293100  0.54741600  0.03564400  1
  O  O6  1  0.05409400  0.76177300  0.05734400  1
  O  O7  1  0.94590600  0.23822700  0.94265600  1
  O  O8  1  0.72508200  0.03389000  0.05149500  1
  O  O9  1  0.27491800  0.96611000  0.94850500  1
  O  O10  1  0.03786100  0.04277700  0.71737300  1
  O  O11  1  0.96213900  0.95722300  0.28262700  1
  O  O12  1  0.45687500  0.77843500  0.95452400  1
  O  O13  1  0.54312500  0.22156500  0.04547600  1
  O  O14  1  0.77852100  0.94895300  0.46789200  1
  O  O15  1  0.22147900  0.05104700  0.53210800  1
  O  O16  1  0.95972900  0.45952500  0.78171400  1
  O  O17  1  0.04027100  0.54047500  0.21828600  1
  O  O18  1  0.54741500  0.54903300  0.75086100  1
  O  O19  1  0.45258500  0.45096700  0.24913900  1
  O  O20  1  0.54296900  0.72109300  0.54262300  1
  O  O21  1  0.45703100  0.27890700  0.45737700  1
  O  O22  1  0.72332400  0.52888700  0.54802700  1
  O  O23  1  0.27667600  0.47111300  0.45197300  1
loop_
_geom_bond_atom_site_label_1
_geom_bond_atom_site_label_2
_geom_bond_distance
_geom_bond_site_symmetry_2
Cu0 O20 2.014059 1_555
Cu0 O21 2.014059 1_555
Cu0 O22 2.027196 1_555
Cu0 O23 2.027196 1_555
Cu0 O18 2.303324 1_555
Cu0 O19 2.303324 1_555
Cu1 O13 2.020109 1_555
Cu1 O12 2.020109 1_544
Cu1 O8 2.045518 1_555
Cu1 O9 2.045518 1_544
Cu1 O1 2.312829 1_555
Cu1 O0 2.312829 1_544
Cu2 O10 1.995028 1_555
Cu2 O11 1.995028 1_445
Cu2 O15 2.013702 1_555
Cu2 O14 2.013702 1_445
Cu2 O3 2.449073 1_555
Cu2 O2 2.449073 1_445
Cu3 O17 2.002723 1_555
Cu3 O16 2.002723 1_454
Cu3 O4 2.023859 1_454
Cu3 O5 2.023859 1_555
Cu3 O6 2.391012 1_555
Cu3 O7 2.391012 1_454
Cu4 O6 1.938860 1_555
Cu4 O12 1.995607 1_554
Cu4 O9 2.000892 1_554
Cu4 O5 2.018280 1_555
Cu5 O7 1.938860 1_555
Cu5 O13 1.995607 1_556
Cu5 O8 2.000892 1_556
Cu5 O4 2.018280 1_555
Cu6 O1 1.953789 1_565
Cu6 O11 2.001243 1_555
Cu6 O14 2.009924 1_555
Cu6 O8 2.010095 1_565
Cu7 O0 1.953789 1_545
Cu7 O10 2.001243 1_555
Cu7 O15 2.009924 1_555
Cu7 O9 2.010095 1_545
Cu8 O3 1.935047 1_555
Cu8 O7 1.943714 1_455
Cu8 O16 1.989132 1_455
Cu8 O10 1.994903 1_555
Cu9 O2 1.935047 1_555
Cu9 O6 1.943714 1_655
Cu9 O17 1.989132 1_655
Cu9 O11 1.994903 1_555
Cu10 O18 1.963260 1_555
Cu10 O0 1.965329 1_555
Cu10 O20 1.997064 1_555
Cu10 O12 2.002793 1_555
Cu11 O19 1.963260 1_555
Cu11 O1 1.965329 1_555
Cu11 O21 1.997064 1_555
Cu11 O13 2.002793 1_555
Cu12 O2 1.930645 1_555
Cu12 O22 2.000767 1_555
Cu12 O20 2.002722 1_555
Cu12 O14 2.007842 1_555
Cu13 O3 1.930645 1_555
Cu13 O23 2.000767 1_555
Cu13 O21 2.002722 1_555
Cu13 O15 2.007842 1_555
Cu14 O18 1.955673 1_555
Cu14 O22 1.992973 1_555
Cu14 O4 2.001594 1_555
Cu14 O16 2.007890 1_555
Cu15 O19 1.955673 1_555
Cu15 O23 1.992973 1_555
Cu15 O5 2.001594 1_555
Cu15 O17 2.007890 1_555
H0 O20 1.002922 1_555
H1 O21 1.002922 1_555
H2 O18 0.990480 1_555
H3 O19 0.990480 1_555
H4 O22 0.994601 1_555
H5 O23 0.994601 1_555
H6 O12 0.997859 1_554
H7 O13 0.997859 1_556
H8 O0 0.990591 1_545
H9 O1 0.990591 1_565
H10 O8 0.998555 1_566
H11 O9 0.998555 1_544
H12 O6 0.988773 1_656
H13 O7 0.988773 1_454
H14 O16 0.997879 1_455
H15 O17 0.997879 1_655
H16 O4 0.996794 1_554
H17 O5 0.996794 1_556
H18 O14 0.997604 1_545
H19 O15 0.997604 1_565
H20 O10 1.001379 1_665
H21 O11 1.001379 1_445
H22 O2 0.992587 1_455
H23 O3 0.992587 1_655
Cl0 H20 2.027530 1_555
Cl0 H10 2.084264 1_555
Cl0 H12 2.100019 1_555
Cl0 Cu12 2.864688 1_555
Cl0 Cu14 2.927657 1_555
Cl0 Cu10 2.949440 1_555
Cl1 H21 2.027530 1_555
Cl1 H11 2.084264 1_555
Cl1 H13 2.100019 1_555
Cl1 Cu13 2.864688 1_555
Cl1 Cu15 2.927657 1_555
Cl1 Cu11 2.949440 1_555
Cl2 H14 2.044546 1_555
Cl2 H5 2.047018 1_555
Cl2 H22 2.072413 1_555
Cl2 Cu10 2.806549 1_555
Cl2 Cu7 2.889007 1_565
Cl2 Cu4 2.922729 1_556
Cl3 H15 2.044546 1_555
Cl3 H4 2.047018 1_555
Cl3 H23 2.072413 1_555
Cl3 Cu11 2.806549 1_555
Cl3 Cu6 2.889007 1_545
Cl3 Cu5 2.922729 1_554
Cl4 H6 2.023285 1_555
Cl4 H16 2.062403 1_555
Cl4 H3 2.074352 1_555
Cl4 Cu6 2.868248 1_555
Cl4 Cu9 2.871826 1_555
Cl4 Cu12 3.026337 1_555
Cl5 H7 2.023285 1_555
Cl5 H17 2.062403 1_555
Cl5 H2 2.074352 1_555
Cl5 Cu7 2.868248 1_555
Cl5 Cu8 2.871826 1_555
Cl5 Cu13 3.026337 1_555
Cl6 H1 1.996511 1_555
Cl6 H18 2.057027 1_555
Cl6 H8 2.090858 1_555
Cl6 Cu14 2.861662 1_555
Cl6 Cu8 2.915352 1_655
Cl6 Cu5 2.959103 1_555
Cl7 H0 1.996511 1_555
Cl7 H19 2.057027 1_555
Cl7 H9 2.090858 1_555
Cl7 Cu15 2.861662 1_555
Cl7 Cu9 2.915352 1_455
Cl7 Cu4 2.959103 1_555
