# generated using pymatgen
data_Mg14CrFeO16
_symmetry_space_group_name_H-M   'P 1'
_cell_length_a   8.66450246
_cell_length_b   8.52043109
_cell_length_c   4.25637496
_cell_angle_alpha   90.00000000
_cell_angle_beta   90.00000000
_cell_angle_gamma   90.00000000
_symmetry_Int_Tables_number   1
_chemical_formula_structural   Mg14CrFeO16
_chemical_formula_sum   'Mg14 Cr1 Fe1 O16'
_cell_volume   314.22814190
_cell_formula_units_Z   1
loop_
 _symmetry_equiv_pos_site_id
 _symmetry_equiv_pos_as_xyz
  1  'x, y, z'
loop_
 _atom_site_type_symbol
 _atom_site_label
 _atom_site_symmetry_multiplicity
 _atom_site_fract_x
 _atom_site_fract_y
 _atom_site_fract_z
 _atom_site_occupancy
  Mg  Mg0  1  0.50000000  0.00000000  -0.00000000  1
  Mg  Mg1  1  0.50000000  0.50000000  -0.00000000  1
  Mg  Mg2  1  -0.00000000  0.25167341  0.50000000  1
  Mg  Mg3  1  -0.00000000  0.74832659  0.50000000  1
  Mg  Mg4  1  0.50000000  0.25037679  0.50000000  1
  Mg  Mg5  1  0.50000000  0.74962321  0.50000000  1
  Mg  Mg6  1  0.25272592  0.00000000  0.50000000  1
  Mg  Mg7  1  0.25365113  0.50000000  0.50000000  1
  Mg  Mg8  1  0.74727408  0.00000000  0.50000000  1
  Mg  Mg9  1  0.74634887  0.50000000  0.50000000  1
  Mg  Mg10  1  0.25197035  0.25062496  -0.00000000  1
  Mg  Mg11  1  0.25197035  0.74937504  0.00000000  1
  Mg  Mg12  1  0.74802965  0.25062496  -0.00000000  1
  Mg  Mg13  1  0.74802965  0.74937504  0.00000000  1
  Cr  Cr0  1  -0.00000000  0.50000000  -0.00000000  1
  Fe  Fe0  1  -0.00000000  0.00000000  -0.00000000  1
  O  O0  1  0.25455221  0.00000000  0.00000000  1
  O  O1  1  0.26423269  0.50000000  -0.00000000  1
  O  O2  1  0.74544779  0.00000000  -0.00000000  1
  O  O3  1  0.73576731  0.50000000  0.00000000  1
  O  O4  1  0.24835317  0.24954566  0.50000000  1
  O  O5  1  0.24835317  0.75045434  0.50000000  1
  O  O6  1  0.75164683  0.24954566  0.50000000  1
  O  O7  1  0.75164683  0.75045434  0.50000000  1
  O  O8  1  -0.00000000  0.00000000  0.50000000  1
  O  O9  1  -0.00000000  0.50000000  0.50000000  1
  O  O10  1  0.50000000  0.00000000  0.50000000  1
  O  O11  1  0.50000000  0.50000000  0.50000000  1
  O  O12  1  -0.00000000  0.25486913  0.00000000  1
  O  O13  1  -0.00000000  0.74513087  -0.00000000  1
  O  O14  1  0.50000000  0.24757671  -0.00000000  1
  O  O15  1  0.50000000  0.75242329  0.00000000  1
loop_
_geom_bond_atom_site_label_1
_geom_bond_atom_site_label_2
_geom_bond_distance
_geom_bond_site_symmetry_2
Mg0 O14 2.109460 1_555
Mg0 O15 2.109460 1_545
Mg0 O0 2.126683 1_555
Mg0 O2 2.126683 1_555
Mg0 O10 2.128187 1_555
Mg0 O10 2.128187 1_554
Mg1 O3 2.042806 1_555
Mg1 O1 2.042806 1_555
Mg1 O11 2.128187 1_555
Mg1 O11 2.128187 1_554
Mg1 O14 2.150755 1_555
Mg1 O15 2.150755 1_555
Mg2 O9 2.115850 1_555
Mg2 O12 2.128362 1_556
Mg2 O12 2.128362 1_555
Mg2 O8 2.144366 1_555
Mg2 O4 2.151933 1_555
Mg2 O6 2.151933 1_455
Mg3 O9 2.115850 1_555
Mg3 O13 2.128362 1_555
Mg3 O13 2.128362 1_556
Mg3 O8 2.144366 1_565
Mg3 O5 2.151933 1_555
Mg3 O7 2.151933 1_455
Mg4 O11 2.126897 1_555
Mg4 O14 2.128321 1_556
Mg4 O14 2.128321 1_555
Mg4 O10 2.133318 1_555
Mg4 O4 2.180406 1_555
Mg4 O6 2.180406 1_555
Mg5 O11 2.126897 1_555
Mg5 O15 2.128321 1_556
Mg5 O15 2.128321 1_555
Mg5 O10 2.133318 1_565
Mg5 O5 2.180406 1_555
Mg5 O7 2.180406 1_555
Mg6 O4 2.126574 1_555
Mg6 O5 2.126574 1_545
Mg6 O0 2.128246 1_555
Mg6 O0 2.128246 1_556
Mg6 O10 2.142507 1_555
Mg6 O8 2.189744 1_555
Mg7 O1 2.130161 1_556
Mg7 O1 2.130161 1_555
Mg7 O4 2.134473 1_555
Mg7 O5 2.134473 1_555
Mg7 O11 2.134490 1_555
Mg7 O9 2.197761 1_555
Mg8 O6 2.126574 1_555
Mg8 O7 2.126574 1_545
Mg8 O2 2.128246 1_556
Mg8 O2 2.128246 1_555
Mg8 O10 2.142507 1_555
Mg8 O8 2.189744 1_655
Mg9 O3 2.130161 1_556
Mg9 O3 2.130161 1_555
Mg9 O6 2.134473 1_555
Mg9 O7 2.134473 1_555
Mg9 O11 2.134490 1_555
Mg9 O9 2.197761 1_655
Mg10 O1 2.127438 1_555
Mg10 O4 2.128438 1_555
Mg10 O4 2.128438 1_554
Mg10 O0 2.135550 1_555
Mg10 O14 2.149210 1_555
Mg10 O12 2.183497 1_555
Mg11 O1 2.127438 1_555
Mg11 O5 2.128438 1_555
Mg11 O5 2.128438 1_554
Mg11 O0 2.135550 1_565
Mg11 O15 2.149210 1_555
Mg11 O13 2.183497 1_555
Mg12 O3 2.127438 1_555
Mg12 O6 2.128438 1_555
Mg12 O6 2.128438 1_554
Mg12 O2 2.135550 1_555
Mg12 O14 2.149210 1_555
Mg12 O12 2.183497 1_655
Mg13 O3 2.127438 1_555
Mg13 O7 2.128438 1_555
Mg13 O7 2.128438 1_554
Mg13 O2 2.135550 1_565
Mg13 O15 2.149210 1_555
Mg13 O13 2.183497 1_655
Cr0 O13 2.088621 1_555
Cr0 O12 2.088621 1_555
Cr0 O9 2.128187 1_554
Cr0 O9 2.128187 1_555
Cr0 O1 2.289445 1_555
Cr0 O3 2.289445 1_455
Fe0 O8 2.128187 1_555
Fe0 O8 2.128187 1_554
Fe0 O13 2.171595 1_545
Fe0 O12 2.171595 1_555
Fe0 O2 2.205568 1_455
Fe0 O0 2.205568 1_555
