# generated using pymatgen
data_La2CuSi3
_symmetry_space_group_name_H-M   'P 1'
_cell_length_a   4.13034279
_cell_length_b   4.13034279
_cell_length_c   8.69843487
_cell_angle_alpha   90.00000000
_cell_angle_beta   90.00000000
_cell_angle_gamma   120.00000408
_symmetry_Int_Tables_number   1
_chemical_formula_structural   La2CuSi3
_chemical_formula_sum   'La2 Cu1 Si3'
_cell_volume   128.51207149
_cell_formula_units_Z   1
loop_
 _symmetry_equiv_pos_site_id
 _symmetry_equiv_pos_as_xyz
  1  'x, y, z'
loop_
 _atom_site_type_symbol
 _atom_site_label
 _atom_site_symmetry_multiplicity
 _atom_site_fract_x
 _atom_site_fract_y
 _atom_site_fract_z
 _atom_site_occupancy
  La  La0  1  0.33333300  0.66666700  0.24623919  1
  La  La1  1  0.33333300  0.66666700  0.75376081  1
  Cu  Cu0  1  0.66666700  0.33333300  0.00000000  1
  Si  Si0  1  0.66666700  0.33333300  0.50000000  1
  Si  Si1  1  -0.00000000  -0.00000000  -0.00000000  1
  Si  Si2  1  -0.00000000  -0.00000000  0.50000000  1
loop_
_geom_bond_atom_site_label_1
_geom_bond_atom_site_label_2
_geom_bond_distance
_geom_bond_site_symmetry_2
La0 Si1 3.205352 1_565
La0 Si1 3.205355 1_555
La0 Si1 3.205355 1_665
La0 Si0 3.249436 1_565
La0 Si0 3.249436 1_455
La0 Si2 3.249436 1_565
La0 Si2 3.249439 1_665
La0 Si2 3.249439 1_555
La0 Si0 3.249441 1_555
La1 Si1 3.205352 1_566
La1 Si1 3.205355 1_666
La1 Si1 3.205355 1_556
La1 Si0 3.249436 1_455
La1 Si0 3.249436 1_565
La1 Si2 3.249436 1_565
La1 Si2 3.249439 1_665
La1 Si2 3.249439 1_555
La1 Si0 3.249441 1_555
Cu0 Si1 2.384652 1_655
Cu0 Si1 2.384656 1_555
Cu0 Si1 2.384656 1_665
Cu0 La0 3.205352 1_655
Cu0 La1 3.205352 1_544
Cu0 La0 3.205352 1_545
Cu0 La1 3.205352 1_654
Cu0 La0 3.205358 1_555
Cu0 La1 3.205358 1_554
Si0 Si2 2.384652 1_655
Si0 Si2 2.384656 1_665
Si0 Si2 2.384656 1_555
