# generated using pymatgen
data_BaMgAl3P2(HO7)2
_symmetry_space_group_name_H-M   'P 1'
_cell_length_a   7.21284872
_cell_length_b   7.21284660
_cell_length_c   7.23760137
_cell_angle_alpha   62.59611150
_cell_angle_beta   117.40389744
_cell_angle_gamma   123.28225932
_symmetry_Int_Tables_number   1
_chemical_formula_structural   BaMgAl3P2(HO7)2
_chemical_formula_sum   'Ba1 Mg1 Al3 P2 H2 O14'
_cell_volume   268.28893979
_cell_formula_units_Z   1
loop_
 _symmetry_equiv_pos_site_id
 _symmetry_equiv_pos_as_xyz
  1  'x, y, z'
loop_
 _atom_site_type_symbol
 _atom_site_label
 _atom_site_symmetry_multiplicity
 _atom_site_fract_x
 _atom_site_fract_y
 _atom_site_fract_z
 _atom_site_occupancy
  Ba  Ba0  1  0.01254700  0.98745300  0.00470200  1
  Mg  Mg0  1  0.52513600  0.47486500  0.34555800  1
  Al  Al0  1  0.01401400  0.98598600  0.45875000  1
  Al  Al1  1  0.48542400  0.01076600  0.48742000  1
  Al  Al2  1  0.98923400  0.51457600  0.48742000  1
  P  P0  1  0.28312500  0.71687600  0.86520700  1
  P  P1  1  0.72453600  0.27546400  0.10001800  1
  H  H0  1  0.29335300  0.70664700  0.30234500  1
  H  H1  1  0.70230400  0.29769500  0.69815000  1
  O  O0  1  0.35237800  0.64762200  0.11321400  1
  O  O1  1  0.64327400  0.35672500  0.85527800  1
  O  O2  1  0.14051300  0.85948800  0.76696300  1
  O  O3  1  0.86386500  0.13613500  0.17728200  1
  O  O4  1  0.13574100  0.49741400  0.78253500  1
  O  O5  1  0.50258700  0.86425900  0.78253500  1
  O  O6  1  0.51560000  0.12400000  0.20230300  1
  O  O7  1  0.87599800  0.48439900  0.20230300  1
  O  O8  1  0.28132000  0.71868000  0.42667900  1
  O  O9  1  0.71294500  0.28705400  0.56767300  1
  O  O10  1  0.80323100  0.98952500  0.56288800  1
  O  O11  1  0.01047400  0.19677000  0.56288800  1
  O  O12  1  0.86572000  0.72051700  0.38769400  1
  O  O13  1  0.27948300  0.13428000  0.38769400  1
loop_
_geom_bond_atom_site_label_1
_geom_bond_atom_site_label_2
_geom_bond_distance
_geom_bond_site_symmetry_2
Ba0 O3 2.754760 1_465
Ba0 O11 2.835748 1_564
Ba0 O10 2.835749 1_454
Ba0 O13 2.839687 1_565
Ba0 O12 2.839688 1_455
Ba0 O2 2.919485 1_554
Ba0 O6 2.962872 1_565
Ba0 O7 2.962876 1_455
Ba0 O5 3.031231 1_454
Ba0 O4 3.031236 1_564
Mg0 O0 1.944122 1_555
Mg0 O9 2.063792 1_555
Mg0 O12 2.073119 1_555
Mg0 O13 2.073125 1_555
Al0 O12 1.796451 1_455
Al0 O13 1.796452 1_565
Al0 O3 1.929063 1_465
Al0 O2 1.951324 1_555
Al0 O10 1.998827 1_455
Al0 O11 1.998837 1_565
Al1 O13 1.842466 1_555
Al1 O5 1.875274 1_545
Al1 O9 1.897522 1_555
Al1 O6 1.907782 1_555
Al1 O8 1.910977 1_545
Al1 O10 2.175383 1_545
Al2 O12 1.842466 1_555
Al2 O4 1.875275 1_655
Al2 O9 1.897529 1_555
Al2 O7 1.907783 1_555
Al2 O8 1.910978 1_655
Al2 O11 2.175371 1_655
H0 O8 0.988386 1_555
H1 O9 1.021501 1_555
H1 O1 1.657185 1_555
O0 P0 1.531049 1_554
O1 P1 1.513386 1_556
O2 P0 1.560934 1_555
O3 P1 1.551261 1_555
O4 P0 1.559903 1_555
O5 P0 1.559904 1_555
O6 P1 1.577405 1_555
O7 P1 1.577399 1_555
O10 O11 1.420056 1_665
