# generated using pymatgen
data_Ho2In8Co
_symmetry_space_group_name_H-M   'P 1'
_cell_length_a   4.64453200
_cell_length_b   4.64453200
_cell_length_c   11.96091200
_cell_angle_alpha   90.00000000
_cell_angle_beta   90.00000000
_cell_angle_gamma   90.00000000
_symmetry_Int_Tables_number   1
_chemical_formula_structural   Ho2In8Co
_chemical_formula_sum   'Ho2 In8 Co1'
_cell_volume   258.01693626
_cell_formula_units_Z   1
loop_
 _symmetry_equiv_pos_site_id
 _symmetry_equiv_pos_as_xyz
  1  'x, y, z'
loop_
 _atom_site_type_symbol
 _atom_site_label
 _atom_site_symmetry_multiplicity
 _atom_site_fract_x
 _atom_site_fract_y
 _atom_site_fract_z
 _atom_site_occupancy
  Ho  Ho0  1  0.00000000  0.00000000  0.69420200  1
  Ho  Ho1  1  0.00000000  0.00000000  0.30579800  1
  In  In0  1  0.50000000  0.00000000  0.88016300  1
  In  In1  1  0.00000000  0.50000000  0.88016300  1
  In  In2  1  0.50000000  0.00000000  0.11983700  1
  In  In3  1  0.00000000  0.50000000  0.11983700  1
  In  In4  1  0.50000000  0.00000000  0.50000000  1
  In  In5  1  0.00000000  0.50000000  0.50000000  1
  In  In6  1  0.50000000  0.50000000  0.69605200  1
  In  In7  1  0.50000000  0.50000000  0.30394800  1
  Co  Co0  1  0.00000000  0.00000000  0.00000000  1
loop_
_geom_bond_atom_site_label_1
_geom_bond_atom_site_label_2
_geom_bond_distance
_geom_bond_site_symmetry_2
Ho0 In0 3.215628 1_455
Ho0 In0 3.215628 1_555
Ho0 In1 3.215628 1_555
Ho0 In1 3.215628 1_545
Ho0 In6 3.284255 1_445
Ho0 In6 3.284255 1_455
Ho0 In6 3.284255 1_555
Ho0 In6 3.284255 1_545
Ho0 In4 3.284581 1_455
Ho0 In4 3.284581 1_555
Ho0 In5 3.284581 1_555
Ho0 In5 3.284581 1_545
Ho1 In2 3.215628 1_455
Ho1 In2 3.215628 1_555
Ho1 In3 3.215628 1_545
Ho1 In3 3.215628 1_555
Ho1 In7 3.284255 1_445
Ho1 In7 3.284255 1_455
Ho1 In7 3.284255 1_545
Ho1 In7 3.284255 1_555
Ho1 In4 3.284581 1_455
Ho1 In4 3.284581 1_555
Ho1 In5 3.284581 1_555
Ho1 In5 3.284581 1_545
In0 In2 2.866720 1_556
In0 In6 3.200362 1_555
In0 In6 3.200362 1_545
In0 In1 3.284180 1_655
In0 In1 3.284180 1_555
In0 In1 3.284180 1_545
In0 In1 3.284180 1_645
In1 In3 2.866720 1_556
In1 In6 3.200362 1_555
In1 In6 3.200362 1_455
In2 In7 3.200362 1_545
In2 In7 3.200362 1_555
In2 In3 3.284180 1_645
In2 In3 3.284180 1_545
In2 In3 3.284180 1_555
In2 In3 3.284180 1_655
In3 In7 3.200362 1_455
In3 In7 3.200362 1_555
In4 In5 3.284180 1_545
In4 In5 3.284180 1_655
In4 In5 3.284180 1_555
In4 In5 3.284180 1_645
In4 In7 3.300267 1_545
In4 In7 3.300267 1_555
In4 In6 3.300267 1_555
In4 In6 3.300267 1_545
In5 In7 3.300267 1_555
In5 In6 3.300267 1_455
In5 In6 3.300267 1_555
In5 In7 3.300267 1_455
Co0 In1 2.729000 1_554
Co0 In0 2.729000 1_454
Co0 In0 2.729000 1_554
Co0 In3 2.729000 1_545
Co0 In3 2.729000 1_555
Co0 In1 2.729000 1_544
Co0 In2 2.729000 1_555
Co0 In2 2.729000 1_455
