# generated using pymatgen
data_La4CoS7
_symmetry_space_group_name_H-M   'P 1'
_cell_length_a   7.01737200
_cell_length_b   9.93412500
_cell_length_c   9.95987598
_cell_angle_alpha   60.11910341
_cell_angle_beta   90.00000000
_cell_angle_gamma   90.00000000
_symmetry_Int_Tables_number   1
_chemical_formula_structural   La4CoS7
_chemical_formula_sum   'La8 Co2 S14'
_cell_volume   602.01686401
_cell_formula_units_Z   2
loop_
 _symmetry_equiv_pos_site_id
 _symmetry_equiv_pos_as_xyz
  1  'x, y, z'
loop_
 _atom_site_type_symbol
 _atom_site_label
 _atom_site_symmetry_multiplicity
 _atom_site_fract_x
 _atom_site_fract_y
 _atom_site_fract_z
 _atom_site_occupancy
  La  La0  1  0.72405900  0.37266200  0.78118200  1
  La  La1  1  0.72561200  0.84537100  0.37467800  1
  La  La2  1  0.72473200  0.78079700  0.84734700  1
  La  La3  1  0.22405900  0.62733800  0.21881800  1
  La  La4  1  0.22561200  0.15462900  0.62532200  1
  La  La5  1  0.22473200  0.21920300  0.15265300  1
  La  La6  1  0.18732200  0.66419500  0.66704400  1
  La  La7  1  0.68732200  0.33580500  0.33295600  1
  Co  Co0  1  0.50212400  0.00085000  0.00420300  1
  Co  Co1  1  0.00212400  0.99915000  0.99579700  1
  S  S0  1  0.33626300  0.23195100  0.86824100  1
  S  S1  1  0.33787800  0.89897700  0.23432400  1
  S  S2  1  0.33402400  0.87155500  0.90193900  1
  S  S3  1  0.83626300  0.76804900  0.13175900  1
  S  S4  1  0.83787800  0.10102300  0.76567600  1
  S  S5  1  0.83402400  0.12844500  0.09806100  1
  S  S6  1  0.96746800  0.51249400  0.92807600  1
  S  S7  1  0.96625600  0.55755900  0.51288700  1
  S  S8  1  0.96896300  0.92653300  0.55990300  1
  S  S9  1  0.46746800  0.48750600  0.07192400  1
  S  S10  1  0.46625600  0.44244100  0.48711300  1
  S  S11  1  0.46896300  0.07346700  0.44009700  1
  S  S12  1  0.57229900  0.66709500  0.66776800  1
  S  S13  1  0.07229900  0.33290500  0.33223200  1
loop_
_geom_bond_atom_site_label_1
_geom_bond_atom_site_label_2
_geom_bond_distance
_geom_bond_site_symmetry_2
La0 S12 2.770067 1_555
La0 S4 2.891179 1_555
La0 S7 2.917602 1_555
La0 S5 2.968643 1_556
La0 S0 2.983897 1_555
La0 S6 3.002118 1_555
La0 S10 3.210730 1_555
La1 S12 2.768415 1_555
La1 S5 2.890925 1_565
La1 S8 2.907178 1_555
La1 S3 2.983016 1_555
La1 S1 2.983143 1_555
La1 S7 2.999960 1_555
La1 S11 3.205259 1_565
La2 S12 2.762620 1_555
La2 S3 2.880170 1_556
La2 S6 2.918342 1_555
La2 S4 2.972130 1_565
La2 S8 3.016569 1_555
La2 S2 3.018964 1_555
La2 S9 3.202772 1_556
La3 S13 2.770067 1_555
La3 S1 2.891179 1_555
La3 S10 2.917602 1_555
La3 S2 2.968643 1_554
La3 S3 2.983897 1_455
La3 S9 3.002118 1_555
La3 S7 3.210730 1_455
La4 S13 2.768415 1_555
La4 S2 2.890925 1_545
La4 S11 2.907178 1_555
La4 S0 2.983016 1_555
La4 S4 2.983143 1_455
La4 S10 2.999960 1_555
La4 S8 3.205259 1_445
La5 S13 2.762620 1_555
La5 S0 2.880170 1_554
La5 S9 2.918342 1_555
La5 S1 2.972130 1_545
La5 S11 3.016569 1_555
La5 S5 3.018964 1_455
La5 S6 3.202772 1_454
La6 S12 2.701728 1_555
La6 S6 2.739822 1_455
La6 S7 2.739847 1_455
La6 S8 2.739975 1_455
La7 S13 2.701728 1_655
La7 S9 2.739822 1_555
La7 S10 2.739847 1_555
La7 S11 2.739975 1_555
Co0 S1 2.301000 1_545
Co0 S0 2.315471 1_554
Co0 S2 2.319961 1_544
Co0 S5 3.014257 1_555
Co1 S4 2.301000 1_465
Co1 S3 2.315471 1_456
Co1 S5 2.319961 1_466
Co1 S2 3.014257 1_555
