# generated using pymatgen
data_Cr8Cu3NiS16
_symmetry_space_group_name_H-M   'P 1'
_cell_length_a   12.04347064
_cell_length_b   12.04347228
_cell_length_c   12.04346321
_cell_angle_alpha   33.52122819
_cell_angle_beta   33.52123635
_cell_angle_gamma   33.52118423
_symmetry_Int_Tables_number   1
_chemical_formula_structural   Cr8Cu3NiS16
_chemical_formula_sum   'Cr8 Cu3 Ni1 S16'
_cell_volume   474.50049017
_cell_formula_units_Z   1
loop_
 _symmetry_equiv_pos_site_id
 _symmetry_equiv_pos_as_xyz
  1  'x, y, z'
loop_
 _atom_site_type_symbol
 _atom_site_label
 _atom_site_symmetry_multiplicity
 _atom_site_fract_x
 _atom_site_fract_y
 _atom_site_fract_z
 _atom_site_occupancy
  Cr  Cr0  1  0.24956359  0.24956380  0.24956270  1
  Cr  Cr1  1  0.74988752  0.74988758  0.74988749  1
  Cr  Cr2  1  0.00069145  0.00069143  0.49891768  1
  Cr  Cr3  1  0.50092123  0.50092087  -0.00171689  1
  Cr  Cr4  1  0.00069109  0.49891798  0.00069146  1
  Cr  Cr5  1  0.50092052  -0.00171654  0.50092105  1
  Cr  Cr6  1  -0.00171587  0.50092021  0.50092050  1
  Cr  Cr7  1  0.49891781  0.00069108  0.00069160  1
  Cu  Cu0  1  0.43756548  0.43756593  0.43756585  1
  Cu  Cu1  1  0.56230381  0.56230405  0.56230431  1
  Cu  Cu2  1  0.06253918  0.06253926  0.06253972  1
  Ni  Ni0  1  0.93746728  0.93746755  0.93746712  1
  S  S0  1  0.87229896  0.87229886  0.87229817  1
  S  S1  1  0.37113118  0.37113100  0.37113026  1
  S  S2  1  0.13375296  0.13375289  0.61007282  1
  S  S3  1  0.63636709  0.63636675  0.10660955  1
  S  S4  1  0.13375240  0.61007347  0.13375276  1
  S  S5  1  0.63636665  0.10660968  0.63636696  1
  S  S6  1  0.61007298  0.13375262  0.13375307  1
  S  S7  1  0.10660924  0.63636679  0.63636734  1
  S  S8  1  0.62859101  0.62859091  0.62859168  1
  S  S9  1  0.12870916  0.12870894  0.12870982  1
  S  S10  1  0.36397197  0.36397162  0.89375247  1
  S  S11  1  0.86383145  0.86383154  0.39323483  1
  S  S12  1  0.36397173  0.89375287  0.36397150  1
  S  S13  1  0.86383178  0.39323449  0.86383172  1
  S  S14  1  0.89375265  0.36397174  0.36397182  1
  S  S15  1  0.39323468  0.86383164  0.86383163  1
loop_
_geom_bond_atom_site_label_1
_geom_bond_atom_site_label_2
_geom_bond_distance
_geom_bond_site_symmetry_2
Cr0 S10 2.373975 1_554
Cr0 S14 2.373979 1_455
Cr0 S12 2.373980 1_545
Cr0 S6 2.406484 1_555
Cr0 S4 2.406485 1_555
Cr0 S2 2.406486 1_555
Cr1 S11 2.387444 1_555
Cr1 S15 2.387445 1_555
Cr1 S13 2.387446 1_555
Cr1 S7 2.392710 1_655
Cr1 S3 2.392710 1_556
Cr1 S5 2.392712 1_565
Cr2 S9 2.381849 1_555
Cr2 S12 2.383454 1_545
Cr2 S14 2.383455 1_455
Cr2 S7 2.386954 1_545
Cr2 S5 2.386955 1_455
Cr2 S0 2.408809 1_445
Cr3 S13 2.378402 1_554
Cr3 S15 2.378403 1_554
Cr3 S8 2.380051 1_554
Cr3 S1 2.391163 1_555
Cr3 S6 2.407960 1_555
Cr3 S4 2.407962 1_555
Cr4 S9 2.381856 1_555
Cr4 S14 2.383454 1_455
Cr4 S10 2.383456 1_554
Cr4 S7 2.386949 1_554
Cr4 S3 2.386950 1_455
Cr4 S0 2.408812 1_454
Cr5 S15 2.378402 1_545
Cr5 S11 2.378404 1_545
Cr5 S8 2.380057 1_545
Cr5 S1 2.391167 1_555
Cr5 S2 2.407955 1_555
Cr5 S6 2.407956 1_555
Cr6 S13 2.378406 1_455
Cr6 S11 2.378407 1_455
Cr6 S8 2.380059 1_455
Cr6 S1 2.391165 1_555
Cr6 S2 2.407953 1_555
Cr6 S4 2.407954 1_555
Cr7 S9 2.381854 1_555
Cr7 S12 2.383451 1_545
Cr7 S10 2.383455 1_554
Cr7 S3 2.386951 1_545
Cr7 S5 2.386952 1_554
Cr7 S0 2.408814 1_544
Cu0 S5 2.255269 1_555
Cu0 S7 2.255270 1_555
Cu0 S3 2.255274 1_555
Cu0 S1 2.263340 1_555
Cu1 S12 2.249961 1_555
Cu1 S14 2.249962 1_555
Cu1 S10 2.249962 1_555
Cu1 S8 2.258305 1_555
Cu2 S13 2.254212 1_454
Cu2 S15 2.254215 1_544
Cu2 S11 2.254217 1_445
Cu2 S9 2.254311 1_555
Ni0 S0 2.220200 1_555
Ni0 S4 2.226721 1_656
Ni0 S6 2.226723 1_566
Ni0 S2 2.226727 1_665
