# generated using pymatgen
data_Zr2Ti(PbO3)3
_symmetry_space_group_name_H-M   'P 1'
_cell_length_a   4.21468861
_cell_length_b   4.21468861
_cell_length_c   12.38816073
_cell_angle_alpha   89.28910244
_cell_angle_beta   89.28910244
_cell_angle_gamma   88.94671028
_symmetry_Int_Tables_number   1
_chemical_formula_structural   Zr2Ti(PbO3)3
_chemical_formula_sum   'Zr2 Ti1 Pb3 O9'
_cell_volume   219.98788870
_cell_formula_units_Z   1
loop_
 _symmetry_equiv_pos_site_id
 _symmetry_equiv_pos_as_xyz
  1  'x, y, z'
loop_
 _atom_site_type_symbol
 _atom_site_label
 _atom_site_symmetry_multiplicity
 _atom_site_fract_x
 _atom_site_fract_y
 _atom_site_fract_z
 _atom_site_occupancy
  Zr  Zr0  1  0.97261300  0.97261300  0.99460100  1
  Zr  Zr1  1  0.97371300  0.97371300  0.65245900  1
  Ti  Ti0  1  0.94943400  0.94943400  0.32457400  1
  Pb  Pb0  1  0.42190000  0.42190000  0.80823700  1
  Pb  Pb1  1  0.42313100  0.42313100  0.46565700  1
  Pb  Pb2  1  0.41885300  0.41885300  0.15198200  1
  O  O0  1  0.48941500  0.01302600  0.66848700  1
  O  O1  1  0.51399400  0.00882000  0.33344500  1
  O  O2  1  0.48816400  0.01315100  0.00922500  1
  O  O3  1  0.01142400  0.01142400  0.82957400  1
  O  O4  1  0.01842300  0.01842300  0.48566900  1
  O  O5  1  0.01459900  0.01459900  0.17515500  1
  O  O6  1  0.01302600  0.48941500  0.66848700  1
  O  O7  1  0.00882000  0.51399400  0.33344500  1
  O  O8  1  0.01315100  0.48816400  0.00922500  1
loop_
_geom_bond_atom_site_label_1
_geom_bond_atom_site_label_2
_geom_bond_distance
_geom_bond_site_symmetry_2
O0 Zr1 2.052209 1_545
O0 Zr1 2.194504 1_445
O0 Pb0 2.468125 1_555
O1 Ti0 1.849766 1_545
O1 Ti0 2.401155 1_445
O1 Pb1 2.430897 1_555
O2 Zr0 2.051763 1_544
O2 Zr0 2.192632 1_444
O2 Pb2 2.486072 1_555
O3 Zr0 2.053630 1_445
O3 Zr1 2.209743 1_445
O3 Pb0 2.478549 1_555
O4 Ti0 2.045409 1_445
O4 Zr1 2.079007 1_445
O4 Pb1 2.442619 1_555
O5 Ti0 1.885393 1_445
O5 Zr0 2.255303 1_444
O5 Pb2 2.443514 1_555
O6 Zr1 2.052209 1_455
O6 Zr1 2.194504 1_445
O6 Pb0 2.468125 1_555
O7 Ti0 1.849766 1_455
O7 Ti0 2.401155 1_445
O7 Pb1 2.430897 1_555
O8 Zr0 2.051763 1_454
O8 Zr0 2.192632 1_444
O8 Pb2 2.486072 1_555
