# generated using pymatgen
data_Sr3Cr2O8
_symmetry_space_group_name_H-M   'P 1'
_cell_length_a   5.65500756
_cell_length_b   7.52292300
_cell_length_c   9.41744697
_cell_angle_alpha   69.74655090
_cell_angle_beta   89.79813258
_cell_angle_gamma   90.02453022
_symmetry_Int_Tables_number   1
_chemical_formula_structural   Sr3Cr2O8
_chemical_formula_sum   'Sr6 Cr4 O16'
_cell_volume   375.86457569
_cell_formula_units_Z   2
loop_
 _symmetry_equiv_pos_site_id
 _symmetry_equiv_pos_as_xyz
  1  'x, y, z'
loop_
 _atom_site_type_symbol
 _atom_site_label
 _atom_site_symmetry_multiplicity
 _atom_site_fract_x
 _atom_site_fract_y
 _atom_site_fract_z
 _atom_site_occupancy
  Sr  Sr0  1  0.00099000  0.00068600  0.99900100  1
  Sr  Sr1  1  0.49797400  0.49907400  0.50127400  1
  Sr  Sr2  1  0.00053000  0.59636100  0.79617600  1
  Sr  Sr3  1  0.49965000  0.09239300  0.29809400  1
  Sr  Sr4  1  0.00029600  0.40770500  0.20184300  1
  Sr  Sr5  1  0.49949800  0.90352400  0.70391100  1
  Cr  Cr0  1  0.50065100  0.68746500  0.09453300  1
  Cr  Cr1  1  0.99920400  0.81252300  0.40551800  1
  Cr  Cr2  1  0.99883700  0.18923300  0.59384700  1
  Cr  Cr3  1  0.50101200  0.31055700  0.90629200  1
  O  O0  1  0.00528400  0.63936500  0.32769100  1
  O  O1  1  0.49821500  0.14987400  0.81592700  1
  O  O2  1  0.00322500  0.35027600  0.68386900  1
  O  O3  1  0.49578300  0.86132400  0.17163300  1
  O  O4  1  0.24925600  0.78619300  0.51706500  1
  O  O5  1  0.74789300  0.28608600  0.01896700  1
  O  O6  1  0.74797100  0.78970500  0.51541200  1
  O  O7  1  0.25368800  0.28367400  0.02067600  1
  O  O8  1  0.99539000  0.03595100  0.26914500  1
  O  O9  1  0.50313300  0.53448800  0.76827600  1
  O  O10  1  0.99672200  0.96525500  0.73183600  1
  O  O11  1  0.50424700  0.46397700  0.23077700  1
  O  O12  1  0.75215000  0.21390800  0.48104700  1
  O  O13  1  0.25039600  0.71361400  0.98318500  1
  O  O14  1  0.24599400  0.21650100  0.47928200  1
  O  O15  1  0.75201100  0.71028800  0.98472500  1
loop_
_geom_bond_atom_site_label_1
_geom_bond_atom_site_label_2
_geom_bond_distance
_geom_bond_site_symmetry_2
Cr0 O3 1.701770 1_555
Cr0 O11 1.726289 1_555
Cr0 O15 1.727967 1_554
Cr0 O13 1.734630 1_554
Cr1 O0 1.701812 1_655
Cr1 O8 1.726479 1_565
Cr1 O6 1.727837 1_555
Cr1 O4 1.734627 1_655
Cr2 O2 1.702450 1_655
Cr2 O12 1.727173 1_555
Cr2 O14 1.730757 1_655
Cr2 O10 1.735474 1_545
Cr3 O1 1.702344 1_555
Cr3 O5 1.727540 1_556
Cr3 O7 1.730815 1_556
Cr3 O9 1.735327 1_555
O0 Sr4 2.423394 1_555
O1 Sr5 2.429199 1_545
O2 Sr2 2.429321 1_555
O3 Sr3 2.423638 1_565
O4 Sr1 2.624761 1_555
O4 Sr5 2.640022 1_555
O4 Sr3 2.872542 1_565
O4 Sr2 2.881012 1_555
O5 Sr4 2.635831 1_655
O5 Sr0 2.640815 1_654
O5 Sr3 2.885161 1_555
O5 Sr2 2.911512 1_654
O6 Sr5 2.625758 1_555
O6 Sr1 2.645169 1_555
O6 Sr3 2.853432 1_565
O6 Sr2 2.917587 1_655
O7 Sr0 2.629876 1_554
O7 Sr4 2.630762 1_555
O7 Sr3 2.873209 1_555
O7 Sr2 2.938330 1_554
O8 Sr4 2.645083 1_655
O8 Sr0 2.647713 1_654
O8 Sr3 2.861734 1_555
O8 Sr3 2.910463 1_655
O9 Sr1 2.618919 1_555
O9 Sr5 2.628751 1_555
O9 Sr2 2.878577 1_655
O9 Sr2 2.905938 1_555
O10 Sr0 2.620435 1_665
O10 Sr2 2.627749 1_655
O10 Sr5 2.877451 1_555
O10 Sr5 2.906723 1_655
O11 Sr3 2.643804 1_555
O11 Sr1 2.650512 1_555
O11 Sr4 2.863193 1_655
O11 Sr4 2.908502 1_555
O12 Sr3 2.636243 1_555
O12 Sr1 2.643517 1_555
O12 Sr4 2.885577 1_655
O12 Sr5 2.912310 1_545
O13 Sr0 2.626630 1_565
O13 Sr2 2.639751 1_555
O13 Sr4 2.869224 1_556
O13 Sr5 2.883282 1_555
O14 Sr1 2.626137 1_555
O14 Sr3 2.632060 1_555
O14 Sr4 2.872520 1_555
O14 Sr5 2.941032 1_545
O15 Sr2 2.626722 1_655
O15 Sr0 2.641058 1_665
O15 Sr4 2.852064 1_656
O15 Sr5 2.917655 1_555
