# generated using pymatgen
data_Mg
_symmetry_space_group_name_H-M   'P 1'
_cell_length_a   6.48397965
_cell_length_b   10.25301584
_cell_length_c   30.20868078
_cell_angle_alpha   90.13246944
_cell_angle_beta   90.00344445
_cell_angle_gamma   89.99867085
_symmetry_Int_Tables_number   1
_chemical_formula_structural   Mg
_chemical_formula_sum   Mg80
_cell_volume   2008.27817995
_cell_formula_units_Z   80
loop_
 _symmetry_equiv_pos_site_id
 _symmetry_equiv_pos_as_xyz
  1  'x, y, z'
loop_
 _atom_site_type_symbol
 _atom_site_label
 _atom_site_symmetry_multiplicity
 _atom_site_fract_x
 _atom_site_fract_y
 _atom_site_fract_z
 _atom_site_occupancy
  Mg  Mg0_0  1  0.25990613  0.00686597  0.08395050  1
  Mg  Mg0_1  1  0.25990613  0.00686597  0.58395049  1
  Mg  Mg0_2  1  0.25990613  0.50686597  0.08395050  1
  Mg  Mg0_3  1  0.25990613  0.50686597  0.58395050  1
  Mg  Mg0_4  1  0.75990613  0.00686597  0.08395049  1
  Mg  Mg0_5  1  0.75990613  0.00686597  0.58395050  1
  Mg  Mg0_6  1  0.75990613  0.50686597  0.08395049  1
  Mg  Mg0_7  1  0.75990613  0.50686597  0.58395050  1
  Mg  Mg1_0  1  0.00985083  0.49311797  0.16607046  1
  Mg  Mg1_1  1  0.00985083  0.49311797  0.66607046  1
  Mg  Mg1_2  1  0.00985083  0.99311797  0.16607046  1
  Mg  Mg1_3  1  0.00985083  0.99311797  0.66607046  1
  Mg  Mg1_4  1  0.50985083  0.49311797  0.16607046  1
  Mg  Mg1_5  1  0.50985083  0.49311797  0.66607045  1
  Mg  Mg1_6  1  0.50985083  0.99311797  0.16607046  1
  Mg  Mg1_7  1  0.50985083  0.99311797  0.66607046  1
  Mg  Mg2_0  1  0.00909239  0.49412744  0.33370128  1
  Mg  Mg2_1  1  0.00909239  0.49412744  0.83370128  1
  Mg  Mg2_2  1  0.00909239  0.99412744  0.33370128  1
  Mg  Mg2_3  1  0.00909239  0.99412744  0.83370128  1
  Mg  Mg2_4  1  0.50909240  0.49412744  0.33370128  1
  Mg  Mg2_5  1  0.50909240  0.49412744  0.83370128  1
  Mg  Mg2_6  1  0.50909240  0.99412744  0.33370128  1
  Mg  Mg2_7  1  0.50909239  0.99412744  0.83370128  1
  Mg  Mg3_0  1  0.25914747  0.00581465  0.41626502  1
  Mg  Mg3_1  1  0.25914747  0.00581465  0.91626502  1
  Mg  Mg3_2  1  0.25914747  0.50581465  0.41626502  1
  Mg  Mg3_3  1  0.25914747  0.50581465  0.91626502  1
  Mg  Mg3_4  1  0.75914747  0.00581465  0.41626502  1
  Mg  Mg3_5  1  0.75914747  0.00581465  0.91626502  1
  Mg  Mg3_6  1  0.75914747  0.50581465  0.41626502  1
  Mg  Mg3_7  1  0.75914747  0.50581465  0.91626502  1
  Mg  Mg4_0  1  0.00895844  0.25592771  0.42442115  1
  Mg  Mg4_1  1  0.00895844  0.25592771  0.92442115  1
  Mg  Mg4_2  1  0.00895844  0.75592771  0.42442116  1
  Mg  Mg4_3  1  0.00895844  0.75592771  0.92442116  1
  Mg  Mg4_4  1  0.50895844  0.25592771  0.42442115  1
  Mg  Mg4_5  1  0.50895844  0.25592771  0.92442115  1
  Mg  Mg4_6  1  0.50895844  0.75592770  0.42442115  1
  Mg  Mg4_7  1  0.50895844  0.75592771  0.92442115  1
  Mg  Mg5_0  1  0.25895445  0.24410632  0.32556598  1
  Mg  Mg5_1  1  0.25895445  0.24410632  0.82556598  1
  Mg  Mg5_2  1  0.25895445  0.74410632  0.32556598  1
  Mg  Mg5_3  1  0.25895445  0.74410632  0.82556597  1
  Mg  Mg5_4  1  0.75895445  0.24410632  0.32556598  1
  Mg  Mg5_5  1  0.75895446  0.24410632  0.82556598  1
  Mg  Mg5_6  1  0.75895446  0.74410632  0.32556598  1
  Mg  Mg5_7  1  0.75895445  0.74410632  0.82556598  1
  Mg  Mg6_0  1  0.25939137  0.24320965  0.17433924  1
  Mg  Mg6_1  1  0.25939136  0.24320965  0.67433924  1
  Mg  Mg6_2  1  0.25939136  0.74320965  0.17433924  1
  Mg  Mg6_3  1  0.25939136  0.74320965  0.67433924  1
  Mg  Mg6_4  1  0.75939137  0.24320965  0.17433924  1
  Mg  Mg6_5  1  0.75939137  0.24320965  0.67433924  1
  Mg  Mg6_6  1  0.75939136  0.74320965  0.17433924  1
  Mg  Mg6_7  1  0.75939137  0.74320965  0.67433924  1
  Mg  Mg7_0  1  0.25911821  0.49215508  0.24985369  1
  Mg  Mg7_1  1  0.25911822  0.49215508  0.74985369  1
  Mg  Mg7_2  1  0.25911821  0.99215508  0.24985368  1
  Mg  Mg7_3  1  0.25911822  0.99215508  0.74985369  1
  Mg  Mg7_4  1  0.75911822  0.49215508  0.24985369  1
  Mg  Mg7_5  1  0.75911822  0.49215508  0.74985369  1
  Mg  Mg7_6  1  0.75911822  0.99215508  0.24985369  1
  Mg  Mg7_7  1  0.75911822  0.99215508  0.74985369  1
  Mg  Mg8_0  1  0.00911554  0.00785678  0.00015673  1
  Mg  Mg8_1  1  0.00911554  0.00785678  0.50015673  1
  Mg  Mg8_2  1  0.00911554  0.50785678  0.00015673  1
  Mg  Mg8_3  1  0.00911554  0.50785678  0.50015673  1
  Mg  Mg8_4  1  0.50911555  0.00785678  0.00015673  1
  Mg  Mg8_5  1  0.50911555  0.00785678  0.50015673  1
  Mg  Mg8_6  1  0.50911555  0.50785678  0.00015673  1
  Mg  Mg8_7  1  0.50911555  0.50785678  0.50015673  1
  Mg  Mg9_0  1  0.00932067  0.25682594  0.07567999  1
  Mg  Mg9_1  1  0.00932067  0.25682594  0.57567999  1
  Mg  Mg9_2  1  0.00932067  0.75682594  0.07567999  1
  Mg  Mg9_3  1  0.00932067  0.75682594  0.57567999  1
  Mg  Mg9_4  1  0.50932067  0.25682594  0.07567999  1
  Mg  Mg9_5  1  0.50932067  0.25682594  0.57567998  1
  Mg  Mg9_6  1  0.50932067  0.75682595  0.07567999  1
  Mg  Mg9_7  1  0.50932067  0.75682594  0.57567998  1
loop_
_geom_bond_atom_site_label_1
_geom_bond_atom_site_label_2
_geom_bond_distance
_geom_bond_site_symmetry_2
Mg0_0 Mg1_6 2.966733 1_545
Mg0_0 Mg1_2 2.967291 1_545
Mg0_0 Mg8_4 3.003202 1_555
Mg0_0 Mg8_0 3.008566 1_555
Mg0_0 Mg9_6 3.040892 1_545
Mg0_0 Mg9_4 3.041237 1_555
Mg0_0 Mg9_2 3.044983 1_545
Mg0_0 Mg9_0 3.045202 1_555
Mg0_0 Mg0_4 3.241990 1_555
Mg0_0 Mg0_4 3.241990 1_455
Mg0_1 Mg1_7 2.966733 1_545
Mg0_1 Mg1_3 2.967291 1_545
Mg0_1 Mg8_5 3.003202 1_555
Mg0_1 Mg8_1 3.008566 1_555
Mg0_1 Mg9_7 3.040892 1_545
Mg0_1 Mg9_5 3.041237 1_555
Mg0_1 Mg9_3 3.044983 1_545
Mg0_1 Mg9_1 3.045202 1_555
Mg0_1 Mg0_5 3.241990 1_455
Mg0_1 Mg0_5 3.241990 1_555
Mg0_2 Mg1_4 2.966733 1_555
Mg0_2 Mg1_0 2.967291 1_555
Mg0_2 Mg8_6 3.003202 1_555
Mg0_2 Mg8_2 3.008566 1_555
Mg0_2 Mg9_4 3.040892 1_555
Mg0_2 Mg9_6 3.041237 1_555
Mg0_2 Mg9_0 3.044983 1_555
Mg0_2 Mg9_2 3.045202 1_555
Mg0_2 Mg0_6 3.241990 1_455
Mg0_2 Mg0_6 3.241990 1_555
Mg0_3 Mg1_5 2.966733 1_555
Mg0_3 Mg1_1 2.967291 1_555
Mg0_3 Mg8_7 3.003202 1_555
Mg0_3 Mg8_3 3.008566 1_555
Mg0_3 Mg9_5 3.040892 1_555
Mg0_3 Mg9_7 3.041237 1_555
Mg0_3 Mg9_1 3.044983 1_555
Mg0_3 Mg9_3 3.045202 1_555
Mg0_3 Mg0_7 3.241990 1_455
Mg0_3 Mg0_7 3.241990 1_555
Mg0_4 Mg1_2 2.966733 1_645
Mg0_4 Mg1_6 2.967291 1_545
Mg0_4 Mg8_0 3.003202 1_655
Mg0_4 Mg8_4 3.008566 1_555
Mg0_4 Mg9_2 3.040892 1_645
Mg0_4 Mg9_0 3.041237 1_655
Mg0_4 Mg9_6 3.044983 1_545
Mg0_4 Mg9_4 3.045202 1_555
Mg0_5 Mg1_3 2.966733 1_645
Mg0_5 Mg1_7 2.967291 1_545
Mg0_5 Mg8_1 3.003202 1_655
Mg0_5 Mg8_5 3.008566 1_555
Mg0_5 Mg9_3 3.040892 1_645
Mg0_5 Mg9_1 3.041237 1_655
Mg0_5 Mg9_7 3.044983 1_545
Mg0_5 Mg9_5 3.045202 1_555
Mg0_6 Mg1_0 2.966733 1_655
Mg0_6 Mg1_4 2.967291 1_555
Mg0_6 Mg8_2 3.003202 1_655
Mg0_6 Mg8_6 3.008566 1_555
Mg0_6 Mg9_0 3.040892 1_655
Mg0_6 Mg9_2 3.041237 1_655
Mg0_6 Mg9_4 3.044983 1_555
Mg0_6 Mg9_6 3.045202 1_555
Mg0_7 Mg1_1 2.966733 1_655
Mg0_7 Mg1_5 2.967291 1_555
Mg0_7 Mg8_3 3.003202 1_655
Mg0_7 Mg8_7 3.008566 1_555
Mg0_7 Mg9_1 3.040892 1_655
Mg0_7 Mg9_3 3.041237 1_655
Mg0_7 Mg9_5 3.044983 1_555
Mg0_7 Mg9_7 3.045202 1_555
Mg1_0 Mg7_0 3.002970 1_555
Mg1_0 Mg7_4 3.008259 1_455
Mg1_0 Mg6_0 3.041141 1_555
Mg1_0 Mg6_2 3.041816 1_555
Mg1_0 Mg6_4 3.044395 1_455
Mg1_0 Mg6_6 3.044942 1_455
Mg1_0 Mg1_4 3.241990 1_555
Mg1_0 Mg1_4 3.241990 1_455
Mg1_1 Mg7_1 3.002970 1_555
Mg1_1 Mg7_5 3.008259 1_455
Mg1_1 Mg6_1 3.041141 1_555
Mg1_1 Mg6_3 3.041816 1_555
Mg1_1 Mg6_5 3.044395 1_455
Mg1_1 Mg6_7 3.044942 1_455
Mg1_1 Mg1_5 3.241990 1_455
Mg1_1 Mg1_5 3.241990 1_555
Mg1_2 Mg7_2 3.002970 1_555
Mg1_2 Mg7_6 3.008259 1_455
Mg1_2 Mg6_2 3.041141 1_555
Mg1_2 Mg6_0 3.041816 1_565
Mg1_2 Mg6_6 3.044395 1_455
Mg1_2 Mg6_4 3.044942 1_465
Mg1_2 Mg1_6 3.241990 1_455
Mg1_2 Mg1_6 3.241990 1_555
Mg1_3 Mg7_3 3.002970 1_555
Mg1_3 Mg7_7 3.008259 1_455
Mg1_3 Mg6_3 3.041141 1_555
Mg1_3 Mg6_1 3.041816 1_565
Mg1_3 Mg6_7 3.044395 1_455
Mg1_3 Mg6_5 3.044942 1_465
Mg1_3 Mg1_7 3.241990 1_555
Mg1_3 Mg1_7 3.241990 1_455
Mg1_4 Mg7_4 3.002970 1_555
Mg1_4 Mg7_0 3.008259 1_555
Mg1_4 Mg6_4 3.041141 1_555
Mg1_4 Mg6_6 3.041816 1_555
Mg1_4 Mg6_0 3.044395 1_555
Mg1_4 Mg6_2 3.044942 1_555
Mg1_5 Mg7_5 3.002970 1_555
Mg1_5 Mg7_1 3.008259 1_555
Mg1_5 Mg6_5 3.041141 1_555
Mg1_5 Mg6_7 3.041816 1_555
Mg1_5 Mg6_1 3.044395 1_555
Mg1_5 Mg6_3 3.044942 1_555
Mg1_6 Mg7_6 3.002970 1_555
Mg1_6 Mg7_2 3.008259 1_555
Mg1_6 Mg6_6 3.041141 1_555
Mg1_6 Mg6_4 3.041816 1_565
Mg1_6 Mg6_2 3.044395 1_555
Mg1_6 Mg6_0 3.044942 1_565
Mg1_7 Mg7_7 3.002970 1_555
Mg1_7 Mg7_3 3.008259 1_555
Mg1_7 Mg6_7 3.041141 1_555
Mg1_7 Mg6_5 3.041816 1_565
Mg1_7 Mg6_3 3.044395 1_555
Mg1_7 Mg6_1 3.044942 1_565
Mg2_0 Mg3_6 2.976687 1_455
Mg2_0 Mg3_2 2.976915 1_555
Mg2_0 Mg7_4 3.007070 1_455
Mg2_0 Mg7_0 3.007414 1_555
Mg2_0 Mg5_0 3.041948 1_555
Mg2_0 Mg5_2 3.042603 1_555
Mg2_0 Mg5_4 3.042948 1_455
Mg2_0 Mg5_6 3.043477 1_455
Mg2_0 Mg2_4 3.241990 1_455
Mg2_0 Mg2_4 3.241990 1_555
Mg2_1 Mg3_7 2.976687 1_455
Mg2_1 Mg3_3 2.976915 1_555
Mg2_1 Mg7_5 3.007070 1_455
Mg2_1 Mg7_1 3.007414 1_555
Mg2_1 Mg5_1 3.041948 1_555
Mg2_1 Mg5_3 3.042603 1_555
Mg2_1 Mg5_5 3.042948 1_455
Mg2_1 Mg5_7 3.043477 1_455
Mg2_1 Mg2_5 3.241990 1_455
Mg2_1 Mg2_5 3.241990 1_555
Mg2_2 Mg3_4 2.976687 1_465
Mg2_2 Mg3_0 2.976915 1_565
Mg2_2 Mg7_6 3.007070 1_455
Mg2_2 Mg7_2 3.007414 1_555
Mg2_2 Mg5_2 3.041948 1_555
Mg2_2 Mg5_0 3.042603 1_565
Mg2_2 Mg5_6 3.042948 1_455
Mg2_2 Mg5_4 3.043477 1_465
Mg2_2 Mg2_6 3.241990 1_455
Mg2_2 Mg2_6 3.241990 1_555
Mg2_3 Mg3_5 2.976687 1_465
Mg2_3 Mg3_1 2.976915 1_565
Mg2_3 Mg7_7 3.007070 1_455
Mg2_3 Mg7_3 3.007414 1_555
Mg2_3 Mg5_3 3.041948 1_555
Mg2_3 Mg5_1 3.042603 1_565
Mg2_3 Mg5_7 3.042948 1_455
Mg2_3 Mg5_5 3.043477 1_465
Mg2_3 Mg2_7 3.241990 1_555
Mg2_3 Mg2_7 3.241990 1_455
Mg2_4 Mg3_2 2.976687 1_555
Mg2_4 Mg3_6 2.976915 1_555
Mg2_4 Mg7_0 3.007070 1_555
Mg2_4 Mg7_4 3.007414 1_555
Mg2_4 Mg5_4 3.041948 1_555
Mg2_4 Mg5_6 3.042603 1_555
Mg2_4 Mg5_0 3.042948 1_555
Mg2_4 Mg5_2 3.043477 1_555
Mg2_5 Mg3_3 2.976687 1_555
Mg2_5 Mg3_7 2.976915 1_555
Mg2_5 Mg7_1 3.007070 1_555
Mg2_5 Mg7_5 3.007414 1_555
Mg2_5 Mg5_5 3.041948 1_555
Mg2_5 Mg5_7 3.042603 1_555
Mg2_5 Mg5_1 3.042948 1_555
Mg2_5 Mg5_3 3.043477 1_555
Mg2_6 Mg3_0 2.976687 1_565
Mg2_6 Mg3_4 2.976915 1_565
Mg2_6 Mg7_2 3.007070 1_555
Mg2_6 Mg7_6 3.007414 1_555
Mg2_6 Mg5_6 3.041948 1_555
Mg2_6 Mg5_4 3.042603 1_565
Mg2_6 Mg5_2 3.042948 1_555
Mg2_6 Mg5_0 3.043477 1_565
Mg2_7 Mg3_1 2.976687 1_565
Mg2_7 Mg3_5 2.976915 1_565
Mg2_7 Mg7_3 3.007070 1_555
Mg2_7 Mg7_7 3.007414 1_555
Mg2_7 Mg5_7 3.041948 1_555
Mg2_7 Mg5_5 3.042603 1_565
Mg2_7 Mg5_3 3.042948 1_555
Mg2_7 Mg5_1 3.043477 1_565
Mg3_0 Mg8_5 3.008175 1_555
Mg3_0 Mg8_1 3.008562 1_555
Mg3_0 Mg4_6 3.041606 1_545
Mg3_0 Mg4_4 3.042663 1_555
Mg3_0 Mg4_2 3.042991 1_545
Mg3_0 Mg4_0 3.043921 1_555
Mg3_0 Mg3_4 3.241990 1_455
Mg3_0 Mg3_4 3.241990 1_555
Mg3_1 Mg8_4 3.008175 1_556
Mg3_1 Mg8_0 3.008562 1_556
Mg3_1 Mg4_7 3.041606 1_545
Mg3_1 Mg4_5 3.042663 1_555
Mg3_1 Mg4_3 3.042991 1_545
Mg3_1 Mg4_1 3.043921 1_555
Mg3_1 Mg3_5 3.241990 1_455
Mg3_1 Mg3_5 3.241990 1_555
Mg3_2 Mg8_7 3.008175 1_555
Mg3_2 Mg8_3 3.008562 1_555
Mg3_2 Mg4_4 3.041606 1_555
Mg3_2 Mg4_6 3.042663 1_555
Mg3_2 Mg4_0 3.042991 1_555
Mg3_2 Mg4_2 3.043921 1_555
Mg3_2 Mg3_6 3.241990 1_555
Mg3_2 Mg3_6 3.241990 1_455
Mg3_3 Mg8_6 3.008175 1_556
Mg3_3 Mg8_2 3.008562 1_556
Mg3_3 Mg4_5 3.041606 1_555
Mg3_3 Mg4_7 3.042663 1_555
Mg3_3 Mg4_1 3.042991 1_555
Mg3_3 Mg4_3 3.043921 1_555
Mg3_3 Mg3_7 3.241990 1_455
Mg3_3 Mg3_7 3.241990 1_555
Mg3_4 Mg8_1 3.008175 1_655
Mg3_4 Mg8_5 3.008562 1_555
Mg3_4 Mg4_2 3.041606 1_645
Mg3_4 Mg4_0 3.042663 1_655
Mg3_4 Mg4_6 3.042991 1_545
Mg3_4 Mg4_4 3.043921 1_555
Mg3_5 Mg8_0 3.008175 1_656
Mg3_5 Mg8_4 3.008562 1_556
Mg3_5 Mg4_3 3.041606 1_645
Mg3_5 Mg4_1 3.042663 1_655
Mg3_5 Mg4_7 3.042991 1_545
Mg3_5 Mg4_5 3.043921 1_555
Mg3_6 Mg8_3 3.008175 1_655
Mg3_6 Mg8_7 3.008562 1_555
Mg3_6 Mg4_0 3.041606 1_655
Mg3_6 Mg4_2 3.042663 1_655
Mg3_6 Mg4_4 3.042991 1_555
Mg3_6 Mg4_6 3.043921 1_555
Mg3_7 Mg8_2 3.008175 1_656
Mg3_7 Mg8_6 3.008562 1_556
Mg3_7 Mg4_1 3.041606 1_655
Mg3_7 Mg4_3 3.042663 1_655
Mg3_7 Mg4_5 3.042991 1_555
Mg3_7 Mg4_7 3.043921 1_555
Mg4_0 Mg4_4 3.241990 1_455
Mg4_0 Mg4_4 3.241990 1_555
Mg4_0 Mg5_4 3.399713 1_455
Mg4_0 Mg5_0 3.399857 1_555
Mg4_0 Mg8_1 3.424986 1_555
Mg4_0 Mg8_3 3.446606 1_555
Mg4_1 Mg4_5 3.241990 1_455
Mg4_1 Mg4_5 3.241990 1_555
Mg4_1 Mg5_5 3.399713 1_455
Mg4_1 Mg5_1 3.399857 1_555
Mg4_1 Mg8_0 3.424986 1_556
Mg4_1 Mg8_2 3.446606 1_556
Mg4_2 Mg4_6 3.241990 1_555
Mg4_2 Mg4_6 3.241990 1_455
Mg4_2 Mg5_6 3.399713 1_455
Mg4_2 Mg5_2 3.399857 1_555
Mg4_2 Mg8_3 3.424986 1_555
Mg4_2 Mg8_1 3.446606 1_565
Mg4_3 Mg4_7 3.241990 1_455
Mg4_3 Mg4_7 3.241990 1_555
Mg4_3 Mg5_7 3.399713 1_455
Mg4_3 Mg5_3 3.399857 1_555
Mg4_3 Mg8_2 3.424986 1_556
Mg4_3 Mg8_0 3.446606 1_566
Mg4_4 Mg5_0 3.399713 1_555
Mg4_4 Mg5_4 3.399857 1_555
Mg4_4 Mg8_5 3.424986 1_555
Mg4_4 Mg8_7 3.446606 1_555
Mg4_5 Mg5_1 3.399713 1_555
Mg4_5 Mg5_5 3.399857 1_555
Mg4_5 Mg8_4 3.424986 1_556
Mg4_5 Mg8_6 3.446606 1_556
Mg4_6 Mg5_2 3.399713 1_555
Mg4_6 Mg5_6 3.399857 1_555
Mg4_6 Mg8_7 3.424986 1_555
Mg4_6 Mg8_5 3.446606 1_565
Mg4_7 Mg5_3 3.399713 1_555
Mg4_7 Mg5_7 3.399857 1_555
Mg4_7 Mg8_6 3.424986 1_556
Mg4_7 Mg8_4 3.446606 1_566
Mg5_0 Mg5_4 3.241990 1_555
Mg5_0 Mg5_4 3.241990 1_455
Mg5_0 Mg7_0 3.424346 1_555
Mg5_0 Mg7_2 3.446310 1_545
Mg5_1 Mg5_5 3.241990 1_455
Mg5_1 Mg5_5 3.241990 1_555
Mg5_1 Mg7_1 3.424346 1_555
Mg5_1 Mg7_3 3.446310 1_545
Mg5_2 Mg5_6 3.241990 1_455
Mg5_2 Mg5_6 3.241990 1_555
Mg5_2 Mg7_2 3.424346 1_555
Mg5_2 Mg7_0 3.446310 1_555
Mg5_3 Mg5_7 3.241990 1_555
Mg5_3 Mg5_7 3.241990 1_455
Mg5_3 Mg7_3 3.424346 1_555
Mg5_3 Mg7_1 3.446310 1_555
Mg5_4 Mg7_4 3.424346 1_555
Mg5_4 Mg7_6 3.446310 1_545
Mg5_5 Mg7_5 3.424346 1_555
Mg5_5 Mg7_7 3.446310 1_545
Mg5_6 Mg7_6 3.424346 1_555
Mg5_6 Mg7_4 3.446310 1_555
Mg5_7 Mg7_7 3.424346 1_555
Mg5_7 Mg7_5 3.446310 1_555
Mg6_0 Mg6_4 3.241990 1_555
Mg6_0 Mg6_4 3.241990 1_455
Mg6_0 Mg9_4 3.395692 1_555
Mg6_0 Mg9_0 3.395956 1_555
Mg6_0 Mg7_0 3.419338 1_555
Mg6_0 Mg7_2 3.443372 1_545
Mg6_1 Mg6_5 3.241990 1_455
Mg6_1 Mg6_5 3.241990 1_555
Mg6_1 Mg9_5 3.395692 1_555
Mg6_1 Mg9_1 3.395956 1_555
Mg6_1 Mg7_1 3.419338 1_555
Mg6_1 Mg7_3 3.443372 1_545
Mg6_2 Mg6_6 3.241990 1_555
Mg6_2 Mg6_6 3.241990 1_455
Mg6_2 Mg9_6 3.395692 1_555
Mg6_2 Mg9_2 3.395956 1_555
Mg6_2 Mg7_2 3.419338 1_555
Mg6_2 Mg7_0 3.443372 1_555
Mg6_3 Mg6_7 3.241990 1_455
Mg6_3 Mg6_7 3.241990 1_555
Mg6_3 Mg9_7 3.395692 1_555
Mg6_3 Mg9_3 3.395956 1_555
Mg6_3 Mg7_3 3.419338 1_555
Mg6_3 Mg7_1 3.443372 1_555
Mg6_4 Mg9_0 3.395692 1_655
Mg6_4 Mg9_4 3.395956 1_555
Mg6_4 Mg7_4 3.419338 1_555
Mg6_4 Mg7_6 3.443372 1_545
Mg6_5 Mg9_1 3.395692 1_655
Mg6_5 Mg9_5 3.395956 1_555
Mg6_5 Mg7_5 3.419338 1_555
Mg6_5 Mg7_7 3.443372 1_545
Mg6_6 Mg9_2 3.395692 1_655
Mg6_6 Mg9_6 3.395956 1_555
Mg6_6 Mg7_6 3.419338 1_555
Mg6_6 Mg7_4 3.443372 1_555
Mg6_7 Mg9_3 3.395692 1_655
Mg6_7 Mg9_7 3.395956 1_555
Mg6_7 Mg7_7 3.419338 1_555
Mg6_7 Mg7_5 3.443372 1_555
Mg7_0 Mg7_4 3.241990 1_455
Mg7_0 Mg7_4 3.241990 1_555
Mg7_1 Mg7_5 3.241990 1_455
Mg7_1 Mg7_5 3.241990 1_555
Mg7_2 Mg7_6 3.241990 1_455
Mg7_2 Mg7_6 3.241990 1_555
Mg7_3 Mg7_7 3.241990 1_455
Mg7_3 Mg7_7 3.241990 1_555
Mg8_0 Mg8_4 3.241990 1_455
Mg8_0 Mg8_4 3.241990 1_555
Mg8_0 Mg9_0 3.419696 1_555
Mg8_0 Mg9_2 3.443366 1_545
Mg8_1 Mg8_5 3.241990 1_455
Mg8_1 Mg8_5 3.241990 1_555
Mg8_1 Mg9_1 3.419696 1_555
Mg8_1 Mg9_3 3.443366 1_545
Mg8_2 Mg8_6 3.241990 1_555
Mg8_2 Mg8_6 3.241990 1_455
Mg8_2 Mg9_2 3.419696 1_555
Mg8_2 Mg9_0 3.443366 1_555
Mg8_3 Mg8_7 3.241990 1_455
Mg8_3 Mg8_7 3.241990 1_555
Mg8_3 Mg9_3 3.419696 1_555
Mg8_3 Mg9_1 3.443366 1_555
Mg8_4 Mg9_4 3.419696 1_555
Mg8_4 Mg9_6 3.443366 1_545
Mg8_5 Mg9_5 3.419696 1_555
Mg8_5 Mg9_7 3.443366 1_545
Mg8_6 Mg9_6 3.419696 1_555
Mg8_6 Mg9_4 3.443366 1_555
Mg8_7 Mg9_7 3.419696 1_555
Mg8_7 Mg9_5 3.443366 1_555
Mg9_0 Mg9_4 3.241990 1_455
Mg9_0 Mg9_4 3.241990 1_555
Mg9_1 Mg9_5 3.241990 1_455
Mg9_1 Mg9_5 3.241990 1_555
Mg9_2 Mg9_6 3.241990 1_455
Mg9_2 Mg9_6 3.241990 1_555
Mg9_3 Mg9_7 3.241990 1_455
Mg9_3 Mg9_7 3.241990 1_555
