# generated using pymatgen
data_MgCu3(WO3)4
_symmetry_space_group_name_H-M   'P 1'
_cell_length_a   6.65543500
_cell_length_b   6.66867774
_cell_length_c   6.68610782
_cell_angle_alpha   109.15935577
_cell_angle_beta   109.47475993
_cell_angle_gamma   109.31625059
_symmetry_Int_Tables_number   1
_chemical_formula_structural   MgCu3(WO3)4
_chemical_formula_sum   'Mg1 Cu3 W4 O12'
_cell_volume   229.73318287
_cell_formula_units_Z   1
loop_
 _symmetry_equiv_pos_site_id
 _symmetry_equiv_pos_as_xyz
  1  'x, y, z'
loop_
 _atom_site_type_symbol
 _atom_site_label
 _atom_site_symmetry_multiplicity
 _atom_site_fract_x
 _atom_site_fract_y
 _atom_site_fract_z
 _atom_site_occupancy
  Mg  Mg0  1  0.00000000  0.00000000  0.00000000  1
  Cu  Cu0  1  0.50000000  0.00000000  0.50000000  1
  Cu  Cu1  1  0.50000000  0.50000000  0.00000000  1
  Cu  Cu2  1  0.00000000  0.50000000  0.50000000  1
  W  W0  1  0.50000000  0.00000000  0.00000000  1
  W  W1  1  0.00000000  0.50000000  0.00000000  1
  W  W2  1  0.00000000  0.00000000  0.50000000  1
  W  W3  1  0.50000000  0.50000000  0.50000000  1
  O  O0  1  0.29451000  0.46818700  0.16190800  1
  O  O1  1  0.70549000  0.53181300  0.83809200  1
  O  O2  1  0.70330500  0.89150300  0.17567700  1
  O  O3  1  0.88245300  0.18597900  0.71640200  1
  O  O4  1  0.82744500  0.70524200  0.52912300  1
  O  O5  1  0.17820500  0.70168300  0.87763000  1
  O  O6  1  0.47047700  0.17439600  0.29321200  1
  O  O7  1  0.17255500  0.29475800  0.47087700  1
  O  O8  1  0.29669500  0.10849700  0.82432300  1
  O  O9  1  0.11754700  0.81402100  0.28359800  1
  O  O10  1  0.82179500  0.29831700  0.12237000  1
  O  O11  1  0.52952300  0.82560400  0.70678800  1
loop_
_geom_bond_atom_site_label_1
_geom_bond_atom_site_label_2
_geom_bond_distance
_geom_bond_site_symmetry_2
Mg0 O9 2.634781 1_545
Mg0 O3 2.634781 1_454
Mg0 O2 2.638474 1_445
Mg0 O8 2.638474 1_554
Mg0 O6 2.646066 1_555
Mg0 O11 2.646066 1_444
Mg0 O0 2.660813 1_555
Mg0 O1 2.660813 1_444
Mg0 O7 2.669888 1_555
Mg0 O4 2.669888 1_444
Mg0 O5 2.678303 1_544
Mg0 O10 2.678303 1_455
Cu0 O11 2.080443 1_545
Cu0 O6 2.080443 1_555
Cu0 O3 2.094904 1_555
Cu0 O9 2.094904 1_545
Cu1 O0 2.008298 1_555
Cu1 O1 2.008298 1_554
Cu1 O2 2.148743 1_555
Cu1 O8 2.148743 1_554
Cu2 O4 2.060139 1_455
Cu2 O7 2.060139 1_555
Cu2 O5 2.075939 1_555
Cu2 O10 2.075939 1_455
O0 W1 2.017393 1_555
O0 W3 2.111216 1_555
O1 W1 2.017393 1_656
O1 W3 2.111216 1_555
O2 W0 1.969716 1_565
O2 W2 2.072379 1_665
O3 W1 1.978238 1_656
O3 W2 2.112455 1_655
O4 W2 2.031623 1_665
O4 W3 2.056539 1_555
O5 W0 2.039217 1_566
O5 W1 2.049157 1_556
O6 W0 2.036165 1_555
O6 W3 2.056938 1_555
O7 W2 2.031623 1_555
O7 W3 2.056539 1_555
O8 W0 1.969716 1_556
O8 W2 2.072379 1_555
O9 W1 1.978238 1_555
O9 W2 2.112455 1_565
O10 W0 2.039217 1_555
O10 W1 2.049157 1_655
O11 W0 2.036165 1_566
O11 W3 2.056938 1_555
