# generated using pymatgen
data_TbB4Mo
_symmetry_space_group_name_H-M   'P 1'
_cell_length_a   3.63154386
_cell_length_b   6.03223649
_cell_length_c   11.65480309
_cell_angle_alpha   90.00000000
_cell_angle_beta   90.00000000
_cell_angle_gamma   90.00000000
_symmetry_Int_Tables_number   1
_chemical_formula_structural   TbB4Mo
_chemical_formula_sum   'Tb4 B16 Mo4'
_cell_volume   255.31397874
_cell_formula_units_Z   4
loop_
 _symmetry_equiv_pos_site_id
 _symmetry_equiv_pos_as_xyz
  1  'x, y, z'
loop_
 _atom_site_type_symbol
 _atom_site_label
 _atom_site_symmetry_multiplicity
 _atom_site_fract_x
 _atom_site_fract_y
 _atom_site_fract_z
 _atom_site_occupancy
  Tb  Tb0  1  0.00000000  0.62711844  0.35034485  1
  Tb  Tb1  1  0.00000000  0.37288156  0.64965515  1
  Tb  Tb2  1  -0.00000000  0.12711844  0.14965515  1
  Tb  Tb3  1  -0.00000000  0.87288156  0.85034485  1
  B  B0  1  0.50000000  0.78563558  0.18582327  1
  B  B1  1  0.50000000  0.21436442  0.81417673  1
  B  B2  1  0.50000000  0.28563558  0.31417673  1
  B  B3  1  0.50000000  0.71436442  0.68582327  1
  B  B4  1  0.50000000  0.86588891  0.03196673  1
  B  B5  1  0.50000000  0.13411109  0.96803327  1
  B  B6  1  0.50000000  0.36588891  0.46803327  1
  B  B7  1  0.50000000  0.63411109  0.53196673  1
  B  B8  1  0.50000000  0.88636411  0.45278685  1
  B  B9  1  0.50000000  0.11363589  0.54721315  1
  B  B10  1  0.50000000  0.38636411  0.04721315  1
  B  B11  1  0.50000000  0.61363589  0.95278685  1
  B  B12  1  0.50000000  0.97597582  0.30700409  1
  B  B13  1  0.50000000  0.02402418  0.69299591  1
  B  B14  1  0.50000000  0.47597582  0.19299591  1
  B  B15  1  0.50000000  0.52402418  0.80700409  1
  Mo  Mo0  1  -0.00000000  0.62859542  0.08296763  1
  Mo  Mo1  1  -0.00000000  0.37140458  0.91703237  1
  Mo  Mo2  1  -0.00000000  0.12859542  0.41703237  1
  Mo  Mo3  1  0.00000000  0.87140458  0.58296763  1
loop_
_geom_bond_atom_site_label_1
_geom_bond_atom_site_label_2
_geom_bond_distance
_geom_bond_site_symmetry_2
B0 B12 1.820168 1_555
B0 B4 1.857366 1_555
B0 B14 1.869811 1_555
B0 Mo0 2.373066 1_555
B0 Mo0 2.373066 1_655
B0 Tb2 2.778116 1_665
B0 Tb2 2.778116 1_565
B0 Tb0 2.808567 1_555
B0 Tb0 2.808567 1_655
B1 B13 1.820168 1_555
B1 B5 1.857366 1_555
B1 B15 1.869811 1_555
B1 Mo1 2.373066 1_655
B1 Mo1 2.373066 1_555
B1 Tb3 2.778116 1_545
B1 Tb3 2.778116 1_645
B1 Tb1 2.808567 1_555
B1 Tb1 2.808567 1_655
B2 B6 1.857366 1_555
B2 Mo2 2.373066 1_655
B2 Mo2 2.373066 1_555
B2 Tb0 2.778116 1_555
B2 Tb0 2.778116 1_655
B2 Tb2 2.808567 1_555
B2 Tb2 2.808567 1_655
B3 B7 1.857366 1_555
B3 Mo3 2.373066 1_655
B3 Mo3 2.373066 1_555
B3 Tb1 2.778116 1_655
B3 Tb1 2.778116 1_555
B3 Tb3 2.808567 1_555
B3 Tb3 2.808567 1_655
B4 B5 1.781314 1_564
B4 Mo0 2.387317 1_555
B4 Mo0 2.387317 1_655
B4 Tb2 2.767951 1_565
B4 Tb2 2.767951 1_665
B4 Tb3 2.789177 1_554
B4 Tb3 2.789177 1_654
B5 Mo1 2.387317 1_655
B5 Mo1 2.387317 1_555
B5 Tb3 2.767951 1_645
B5 Tb3 2.767951 1_545
B5 Tb2 2.789177 1_656
B5 Tb2 2.789177 1_556
B6 B9 1.779614 1_555
B6 B7 1.781314 1_555
B6 Mo2 2.387317 1_655
B6 Mo2 2.387317 1_555
B6 Tb0 2.767951 1_555
B6 Tb0 2.767951 1_655
B6 Tb1 2.789177 1_555
B6 Tb1 2.789177 1_655
B7 B8 1.779614 1_555
B7 Mo3 2.387317 1_655
B7 Mo3 2.387317 1_555
B7 Tb1 2.767951 1_555
B7 Tb1 2.767951 1_655
B7 Tb0 2.789177 1_655
B7 Tb0 2.789177 1_555
B8 B9 1.758029 1_565
B8 Mo2 2.367651 1_665
B8 Mo2 2.367651 1_565
B8 Mo3 2.367945 1_655
B8 Mo3 2.367945 1_555
B8 Tb0 2.677329 1_655
B8 Tb0 2.677329 1_555
B9 Mo3 2.367651 1_545
B9 Mo3 2.367651 1_645
B9 Mo2 2.367945 1_655
B9 Mo2 2.367945 1_555
B9 Tb1 2.677329 1_555
B9 Tb1 2.677329 1_655
B10 B11 1.758029 1_554
B10 B5 1.779614 1_554
B10 B14 1.782986 1_555
B10 Mo0 2.367651 1_655
B10 Mo0 2.367651 1_555
B10 Mo1 2.367945 1_654
B10 Mo1 2.367945 1_554
B10 Tb2 2.677329 1_655
B10 Tb2 2.677329 1_555
B11 B4 1.779614 1_556
B11 B15 1.782986 1_555
B11 Mo1 2.367651 1_555
B11 Mo1 2.367651 1_655
B11 Mo0 2.367945 1_556
B11 Mo0 2.367945 1_656
B11 Tb3 2.677329 1_655
B11 Tb3 2.677329 1_555
B12 B8 1.782986 1_555
B12 B2 1.869811 1_565
B12 Mo2 2.406043 1_665
B12 Mo2 2.406043 1_565
B12 Tb2 2.737035 1_665
B12 Tb2 2.737035 1_565
B12 Tb0 2.825003 1_555
B12 Tb0 2.825003 1_655
B13 B9 1.782986 1_555
B13 B3 1.869811 1_545
B13 Mo3 2.406043 1_545
B13 Mo3 2.406043 1_645
B13 Tb3 2.737035 1_545
B13 Tb3 2.737035 1_645
B13 Tb1 2.825003 1_555
B13 Tb1 2.825003 1_655
B14 B2 1.820168 1_555
B14 Mo0 2.406043 1_555
B14 Mo0 2.406043 1_655
B14 Tb0 2.737035 1_555
B14 Tb0 2.737035 1_655
B14 Tb2 2.825003 1_555
B14 Tb2 2.825003 1_655
B15 B3 1.820168 1_555
B15 Mo1 2.406043 1_555
B15 Mo1 2.406043 1_655
B15 Tb1 2.737035 1_655
B15 Tb1 2.737035 1_555
B15 Tb3 2.825003 1_655
B15 Tb3 2.825003 1_555
Mo0 Mo1 2.479332 1_554
Mo0 Tb3 3.085762 1_554
Mo0 Tb2 3.106025 1_565
Mo0 Tb0 3.116242 1_555
Mo0 Tb2 3.123280 1_555
Mo1 Tb2 3.085762 1_556
Mo1 Tb3 3.106025 1_545
Mo1 Tb1 3.116242 1_555
Mo1 Tb3 3.123280 1_555
Mo2 Mo3 2.479332 1_545
Mo2 Tb1 3.085762 1_555
Mo2 Tb0 3.106025 1_555
Mo2 Tb2 3.116242 1_555
Mo2 Tb0 3.123280 1_545
Mo3 Tb0 3.085762 1_555
Mo3 Tb1 3.106025 1_555
Mo3 Tb3 3.116242 1_555
Mo3 Tb1 3.123280 1_565
