# generated using pymatgen
data_Sr2Ca6Fe3Co5O24
_symmetry_space_group_name_H-M   'P 1'
_cell_length_a   7.66691348
_cell_length_b   7.66691348
_cell_length_c   7.66350100
_cell_angle_alpha   90.00000000
_cell_angle_beta   90.00000000
_cell_angle_gamma   90.15579164
_symmetry_Int_Tables_number   1
_chemical_formula_structural   Sr2Ca6Fe3Co5O24
_chemical_formula_sum   'Sr2 Ca6 Fe3 Co5 O24'
_cell_volume   450.47089591
_cell_formula_units_Z   1
loop_
 _symmetry_equiv_pos_site_id
 _symmetry_equiv_pos_as_xyz
  1  'x, y, z'
loop_
 _atom_site_type_symbol
 _atom_site_label
 _atom_site_symmetry_multiplicity
 _atom_site_fract_x
 _atom_site_fract_y
 _atom_site_fract_z
 _atom_site_occupancy
  Sr  Sr0  1  0.75096300  0.75096300  0.25118100  1
  Sr  Sr1  1  0.75096300  0.75096300  0.74881900  1
  Ca  Ca0  1  0.75308400  0.24731600  0.25029300  1
  Ca  Ca1  1  0.24725000  0.24725000  0.24974300  1
  Ca  Ca2  1  0.24731600  0.75308400  0.25029300  1
  Ca  Ca3  1  0.75308400  0.24731600  0.74970700  1
  Ca  Ca4  1  0.24725000  0.24725000  0.75025700  1
  Ca  Ca5  1  0.24731600  0.75308400  0.74970700  1
  Fe  Fe0  1  0.00128300  0.00128300  0.00000000  1
  Fe  Fe1  1  0.00157600  0.49901700  0.00000000  1
  Fe  Fe2  1  0.49901700  0.00157600  0.00000000  1
  Co  Co0  1  0.49901000  0.49901000  0.00000000  1
  Co  Co1  1  0.00133700  0.00133700  0.50000000  1
  Co  Co2  1  0.00179600  0.49801600  0.50000000  1
  Co  Co3  1  0.49801600  0.00179600  0.50000000  1
  Co  Co4  1  0.49800100  0.49800100  0.50000000  1
  O  O0  1  0.00435300  0.00435300  0.25109800  1
  O  O1  1  0.00383900  0.49580000  0.25248400  1
  O  O2  1  0.49580000  0.00383900  0.25248400  1
  O  O3  1  0.49653300  0.49653300  0.26049600  1
  O  O4  1  0.00435300  0.00435300  0.74890200  1
  O  O5  1  0.00383900  0.49580000  0.74751600  1
  O  O6  1  0.49580000  0.00383900  0.74751600  1
  O  O7  1  0.49653300  0.49653300  0.73950400  1
  O  O8  1  0.75172600  0.00572400  0.00000000  1
  O  O9  1  0.74513700  0.49328800  0.00000000  1
  O  O10  1  0.24844100  0.00220900  0.00000000  1
  O  O11  1  0.25561200  0.49830600  0.00000000  1
  O  O12  1  0.75375700  0.00684800  0.50000000  1
  O  O13  1  0.76189400  0.49389900  0.50000000  1
  O  O14  1  0.24619500  0.00187300  0.50000000  1
  O  O15  1  0.23888200  0.49789900  0.50000000  1
  O  O16  1  0.00220900  0.24844100  0.00000000  1
  O  O17  1  0.00572400  0.75172600  0.00000000  1
  O  O18  1  0.49830600  0.25561200  0.00000000  1
  O  O19  1  0.49328800  0.74513700  0.00000000  1
  O  O20  1  0.00187300  0.24619500  0.50000000  1
  O  O21  1  0.00684800  0.75375700  0.50000000  1
  O  O22  1  0.49789900  0.23888200  0.50000000  1
  O  O23  1  0.49389900  0.76189400  0.50000000  1
loop_
_geom_bond_atom_site_label_1
_geom_bond_atom_site_label_2
_geom_bond_distance
_geom_bond_site_symmetry_2
Ca0 O12 2.657272 1_555
Ca0 O8 2.666473 1_555
Ca0 O0 2.683417 1_655
Ca0 O9 2.690714 1_555
Ca0 O13 2.690716 1_555
Ca0 O20 2.701941 1_655
Ca0 O1 2.702936 1_655
Ca0 O16 2.706907 1_655
Ca0 O2 2.712183 1_555
Ca0 O22 2.737388 1_555
Ca0 O18 2.738526 1_555
Ca0 O3 2.747059 1_555
Ca1 O0 2.630085 1_555
Ca1 O1 2.670932 1_555
Ca1 O2 2.670932 1_555
Ca1 O16 2.681931 1_555
Ca1 O10 2.681931 1_555
Ca1 O14 2.686511 1_555
Ca1 O20 2.686511 1_555
Ca1 O3 2.700470 1_555
Ca1 O11 2.715037 1_555
Ca1 O18 2.715037 1_555
Ca1 O22 2.715854 1_555
Ca1 O15 2.715854 1_555
Ca2 O21 2.657272 1_555
Ca2 O17 2.666473 1_555
Ca2 O0 2.683417 1_565
Ca2 O19 2.690714 1_555
Ca2 O23 2.690716 1_555
Ca2 O14 2.701941 1_565
Ca2 O2 2.702936 1_565
Ca2 O10 2.706907 1_565
Ca2 O1 2.712183 1_555
Ca2 O15 2.737388 1_555
Ca2 O11 2.738526 1_555
Ca2 O3 2.747059 1_555
Ca3 O12 2.657272 1_555
Ca3 O8 2.666473 1_556
Ca3 O4 2.683417 1_655
Ca3 O9 2.690714 1_556
Ca3 O13 2.690716 1_555
Ca3 O20 2.701941 1_655
Ca3 O5 2.702936 1_655
Ca3 O16 2.706907 1_656
Ca3 O6 2.712183 1_555
Ca3 O22 2.737388 1_555
Ca3 O18 2.738526 1_556
Ca3 O7 2.747059 1_555
Ca4 O4 2.630085 1_555
Ca4 O5 2.670932 1_555
Ca4 O6 2.670932 1_555
Ca4 O16 2.681931 1_556
Ca4 O10 2.681931 1_556
Ca4 O20 2.686511 1_555
Ca4 O14 2.686511 1_555
Ca4 O7 2.700470 1_555
Ca4 O18 2.715037 1_556
Ca4 O11 2.715037 1_556
Ca4 O15 2.715854 1_555
Ca4 O22 2.715854 1_555
Ca5 O21 2.657272 1_555
Ca5 O17 2.666473 1_556
Ca5 O4 2.683417 1_565
Ca5 O19 2.690714 1_556
Ca5 O23 2.690716 1_555
Ca5 O14 2.701941 1_565
Ca5 O6 2.702936 1_565
Ca5 O10 2.706907 1_566
Ca5 O5 2.712183 1_555
Ca5 O15 2.737388 1_555
Ca5 O11 2.738526 1_556
Ca5 O7 2.747059 1_555
Fe0 O10 1.894933 1_555
Fe0 O16 1.894933 1_555
Fe0 O17 1.913727 1_545
Fe0 O8 1.913727 1_455
Fe0 O0 1.924577 1_555
Fe0 O4 1.924577 1_554
Fe1 O16 1.921164 1_555
Fe1 O1 1.935147 1_555
Fe1 O5 1.935147 1_554
Fe1 O17 1.937673 1_555
Fe1 O11 1.947694 1_555
Fe1 O9 1.966467 1_455
Fe2 O10 1.921164 1_555
Fe2 O2 1.935147 1_555
Fe2 O6 1.935147 1_554
Fe2 O8 1.937673 1_555
Fe2 O18 1.947694 1_555
Fe2 O19 1.966467 1_545
Co0 O18 1.866105 1_555
Co0 O11 1.866105 1_555
Co0 O19 1.887664 1_555
Co0 O9 1.887664 1_555
Co0 O3 1.996492 1_555
Co0 O7 1.996492 1_554
Co1 O14 1.877298 1_555
Co1 O20 1.877298 1_555
Co1 O21 1.898759 1_545
Co1 O12 1.898759 1_455
Co1 O4 1.907740 1_555
Co1 O0 1.907740 1_555
Co2 O15 1.817721 1_555
Co2 O13 1.839493 1_455
Co2 O5 1.896980 1_555
Co2 O1 1.896980 1_555
Co2 O20 1.930692 1_555
Co2 O21 1.961021 1_555
Co3 O22 1.817721 1_555
Co3 O23 1.839493 1_545
Co3 O6 1.896980 1_555
Co3 O2 1.896980 1_555
Co3 O14 1.930692 1_555
Co3 O12 1.961021 1_555
Co4 O7 1.835508 1_555
Co4 O3 1.835508 1_555
Co4 O22 1.986641 1_555
Co4 O15 1.986641 1_555
Co4 O13 2.023575 1_555
Co4 O23 2.023575 1_555
O0 Sr0 2.743682 1_445
O1 Sr0 2.758033 1_455
O2 Sr0 2.758033 1_545
O3 Sr0 2.755868 1_555
O4 Sr1 2.743682 1_445
O5 Sr1 2.758033 1_455
O6 Sr1 2.758033 1_545
O7 Sr1 2.755868 1_555
O8 Sr0 2.742339 1_545
O8 Sr1 2.742339 1_544
O9 Sr0 2.758576 1_555
O9 Sr1 2.758576 1_554
O12 Sr1 2.735884 1_545
O12 Sr0 2.735884 1_545
O13 Sr0 2.743775 1_555
O13 Sr1 2.743775 1_555
O17 Sr1 2.742339 1_454
O17 Sr0 2.742339 1_455
O19 Sr0 2.758576 1_555
O19 Sr1 2.758576 1_554
O21 Sr0 2.735884 1_455
O21 Sr1 2.735884 1_455
O23 Sr0 2.743775 1_555
O23 Sr1 2.743775 1_555
