# generated using pymatgen
data_NaLaSe2
_symmetry_space_group_name_H-M   'P 1'
_cell_length_a   4.37197900
_cell_length_b   4.37197900
_cell_length_c   5.91011000
_cell_angle_alpha   90.00000000
_cell_angle_beta   90.00000000
_cell_angle_gamma   90.00000000
_symmetry_Int_Tables_number   1
_chemical_formula_structural   NaLaSe2
_chemical_formula_sum   'Na1 La1 Se2'
_cell_volume   112.96702679
_cell_formula_units_Z   1
loop_
 _symmetry_equiv_pos_site_id
 _symmetry_equiv_pos_as_xyz
  1  'x, y, z'
loop_
 _atom_site_type_symbol
 _atom_site_label
 _atom_site_symmetry_multiplicity
 _atom_site_fract_x
 _atom_site_fract_y
 _atom_site_fract_z
 _atom_site_occupancy
  Na  Na0  1  0.00000000  0.00000000  0.00000000  1
  La  La0  1  0.50000000  0.50000000  0.50000000  1
  Se  Se0  1  0.00000000  0.00000000  0.50000000  1
  Se  Se1  1  0.50000000  0.50000000  0.00000000  1
loop_
_geom_bond_atom_site_label_1
_geom_bond_atom_site_label_2
_geom_bond_distance
_geom_bond_site_symmetry_2
Na0 Se0 2.955055 1_555
Na0 Se0 2.955055 1_554
Na0 Se1 3.091456 1_455
Na0 Se1 3.091456 1_445
Na0 Se1 3.091456 1_555
Na0 Se1 3.091456 1_545
La0 Se1 2.955055 1_555
La0 Se1 2.955055 1_556
La0 Se0 3.091456 1_565
La0 Se0 3.091456 1_555
La0 Se0 3.091456 1_655
La0 Se0 3.091456 1_665
