# generated using pymatgen
data_Er12(ReC3)5
_symmetry_space_group_name_H-M   'P 1'
_cell_length_a   10.67157298
_cell_length_b   10.67157298
_cell_length_c   5.03396700
_cell_angle_alpha   90.00000000
_cell_angle_beta   90.00000000
_cell_angle_gamma   119.99999365
_symmetry_Int_Tables_number   1
_chemical_formula_structural   Er12(ReC3)5
_chemical_formula_sum   'Er12 Re5 C15'
_cell_volume   496.47559032
_cell_formula_units_Z   1
loop_
 _symmetry_equiv_pos_site_id
 _symmetry_equiv_pos_as_xyz
  1  'x, y, z'
loop_
 _atom_site_type_symbol
 _atom_site_label
 _atom_site_symmetry_multiplicity
 _atom_site_fract_x
 _atom_site_fract_y
 _atom_site_fract_z
 _atom_site_occupancy
  Er  Er0  1  0.54468900  0.72985700  0.00000000  1
  Er  Er1  1  0.27014300  0.81483200  0.00000000  1
  Er  Er2  1  0.18516800  0.45531100  0.00000000  1
  Er  Er3  1  0.45531100  0.18516800  0.00000000  1
  Er  Er4  1  0.72985700  0.54468900  0.00000000  1
  Er  Er5  1  0.81483200  0.27014300  0.00000000  1
  Er  Er6  1  0.00000000  0.57386500  0.50000000  1
  Er  Er7  1  0.42613500  0.42613500  0.50000000  1
  Er  Er8  1  0.57386500  0.00000000  0.50000000  1
  Er  Er9  1  0.00000000  0.20518100  0.50000000  1
  Er  Er10  1  0.79481900  0.79481900  0.50000000  1
  Er  Er11  1  0.20518100  0.00000000  0.50000000  1
  Re  Re0  1  0.00000000  0.84797600  0.00000000  1
  Re  Re1  1  0.15202400  0.15202400  0.00000000  1
  Re  Re2  1  0.84797600  0.00000000  0.00000000  1
  Re  Re3  1  0.33333300  0.66666700  0.50000000  1
  Re  Re4  1  0.66666700  0.33333300  0.50000000  1
  C  C0  1  0.53371300  0.72360200  0.50000000  1
  C  C1  1  0.27639800  0.81011000  0.50000000  1
  C  C2  1  0.18989000  0.46628700  0.50000000  1
  C  C3  1  0.46628700  0.18989000  0.50000000  1
  C  C4  1  0.72360200  0.53371300  0.50000000  1
  C  C5  1  0.81011000  0.27639800  0.50000000  1
  C  C6  1  0.00000000  0.66610300  0.00000000  1
  C  C7  1  0.33389700  0.33389700  0.00000000  1
  C  C8  1  0.66610300  0.00000000  0.00000000  1
  C  C9  1  0.00000000  0.53866300  0.00000000  1
  C  C10  1  0.46133700  0.46133700  0.00000000  1
  C  C11  1  0.53866300  0.00000000  0.00000000  1
  C  C12  1  0.00000000  0.21662600  0.00000000  1
  C  C13  1  0.78337400  0.78337400  0.00000000  1
  C  C14  1  0.21662600  0.00000000  0.00000000  1
loop_
_geom_bond_atom_site_label_1
_geom_bond_atom_site_label_2
_geom_bond_distance
_geom_bond_site_symmetry_2
C0 Re3 1.908545 1_555
C0 Er10 2.494799 1_555
C0 Er0 2.519040 1_556
C0 Er0 2.519040 1_555
C0 Er8 2.760415 1_565
C0 Er7 2.784008 1_555
C1 Re3 1.908524 1_555
C1 Er11 2.494809 1_565
C1 Er1 2.519040 1_556
C1 Er1 2.519040 1_555
C1 Er6 2.760411 1_555
C1 Er8 2.784009 1_565
C2 Re3 1.908540 1_555
C2 Er9 2.494802 1_555
C2 Er2 2.519040 1_556
C2 Er2 2.519040 1_555
C2 Er7 2.760404 1_555
C2 Er6 2.784017 1_555
C3 Re4 1.908540 1_555
C3 Er11 2.494802 1_555
C3 Er3 2.519040 1_555
C3 Er3 2.519040 1_556
C3 Er7 2.760404 1_555
C3 Er8 2.784017 1_555
C4 Re4 1.908545 1_555
C4 Er10 2.494799 1_555
C4 Er4 2.519040 1_556
C4 Er4 2.519040 1_555
C4 Er6 2.760415 1_655
C4 Er7 2.784008 1_555
C5 Re4 1.908524 1_555
C5 Er9 2.494809 1_655
C5 Er5 2.519040 1_555
C5 Er5 2.519040 1_556
C5 Er8 2.760411 1_555
C5 Er6 2.784009 1_655
C6 C9 1.359985 1_555
C6 Re0 1.940871 1_555
C6 Er4 2.500873 1_455
C6 Er1 2.500873 1_555
C6 Er6 2.702610 1_554
C6 Er6 2.702610 1_555
C7 Re1 1.940871 1_555
C7 Er3 2.500872 1_555
C7 Er2 2.500872 1_555
C7 Er7 2.702610 1_555
C7 Er7 2.702610 1_554
C8 Re2 1.940871 1_555
C8 Er0 2.500873 1_545
C8 Er5 2.500873 1_555
C8 Er8 2.702610 1_554
C8 Er8 2.702610 1_555
C9 Er2 2.540392 1_555
C9 Er5 2.540392 1_455
C9 Er6 2.544863 1_555
C9 Er6 2.544863 1_554
C10 C7 1.359985 1_555
C10 Er0 2.540392 1_555
C10 Er4 2.540392 1_555
C10 Er7 2.544863 1_554
C10 Er7 2.544863 1_555
C11 C8 1.359985 1_555
C11 Er3 2.540392 1_555
C11 Er1 2.540392 1_545
C11 Er8 2.544863 1_554
C11 Er8 2.544863 1_555
C12 Re1 2.055650 1_555
C12 Re2 2.055650 1_455
C12 Er5 2.315040 1_455
C12 Er2 2.315040 1_555
C12 Er9 2.519945 1_554
C12 Er9 2.519945 1_555
C13 Re2 2.055650 1_565
C13 Re0 2.055650 1_655
C13 Er4 2.315040 1_555
C13 Er0 2.315040 1_555
C13 Er10 2.519945 1_555
C13 Er10 2.519945 1_554
C14 Re1 2.055650 1_555
C14 Re0 2.055650 1_545
C14 Er1 2.315040 1_545
C14 Er3 2.315040 1_555
C14 Er11 2.519945 1_555
C14 Er11 2.519945 1_554
