# generated using pymatgen
data_TbHg2
_symmetry_space_group_name_H-M   'P 1'
_cell_length_a   10.61110252
_cell_length_b   10.61110252
_cell_length_c   7.40516787
_cell_angle_alpha   78.28587483
_cell_angle_beta   78.28587483
_cell_angle_gamma   48.43813446
_symmetry_Int_Tables_number   1
_chemical_formula_structural   TbHg2
_chemical_formula_sum   'Tb8 Hg16'
_cell_volume   608.21741352
_cell_formula_units_Z   8
loop_
 _symmetry_equiv_pos_site_id
 _symmetry_equiv_pos_as_xyz
  1  'x, y, z'
loop_
 _atom_site_type_symbol
 _atom_site_label
 _atom_site_symmetry_multiplicity
 _atom_site_fract_x
 _atom_site_fract_y
 _atom_site_fract_z
 _atom_site_occupancy
  Tb  Tb0_0  1  0.00000000  0.00000000  0.00000000  1
  Tb  Tb0_1  1  0.00000000  0.00000000  0.50000000  1
  Tb  Tb0_2  1  0.00000000  0.50000000  0.00000000  1
  Tb  Tb0_3  1  0.00000000  0.50000000  0.50000000  1
  Tb  Tb0_4  1  0.50000000  0.00000000  0.00000000  1
  Tb  Tb0_5  1  0.50000000  0.00000000  0.50000000  1
  Tb  Tb0_6  1  0.50000000  0.50000000  0.00000000  1
  Tb  Tb0_7  1  0.50000000  0.50000000  0.50000000  1
  Hg  Hg0_0  1  0.16604600  0.16604600  0.31976450  1
  Hg  Hg0_1  1  0.16604600  0.16604600  0.81976450  1
  Hg  Hg0_2  1  0.16604600  0.66604600  0.31976450  1
  Hg  Hg0_3  1  0.16604600  0.66604600  0.81976450  1
  Hg  Hg0_4  1  0.66604600  0.16604600  0.31976450  1
  Hg  Hg0_5  1  0.66604600  0.16604600  0.81976450  1
  Hg  Hg0_6  1  0.66604600  0.66604600  0.31976450  1
  Hg  Hg0_7  1  0.66604600  0.66604600  0.81976450  1
  Hg  Hg1_0  1  0.33395400  0.33395400  0.18023550  1
  Hg  Hg1_1  1  0.33395400  0.33395400  0.68023550  1
  Hg  Hg1_2  1  0.33395400  0.83395400  0.18023550  1
  Hg  Hg1_3  1  0.33395400  0.83395400  0.68023550  1
  Hg  Hg1_4  1  0.83395400  0.33395400  0.18023550  1
  Hg  Hg1_5  1  0.83395400  0.33395400  0.68023550  1
  Hg  Hg1_6  1  0.83395400  0.83395400  0.18023550  1
  Hg  Hg1_7  1  0.83395400  0.83395400  0.68023550  1
loop_
_geom_bond_atom_site_label_1
_geom_bond_atom_site_label_2
_geom_bond_distance
_geom_bond_site_symmetry_2
Tb0_0 Tb0_1 3.702584 1_555
Tb0_0 Tb0_1 3.702584 1_554
Tb0_2 Tb0_3 3.702584 1_554
Tb0_2 Tb0_3 3.702584 1_555
Tb0_4 Tb0_5 3.702584 1_555
Tb0_4 Tb0_5 3.702584 1_554
Tb0_6 Tb0_7 3.702584 1_554
Tb0_6 Tb0_7 3.702584 1_555
Hg0_0 Hg1_4 3.009976 1_455
Hg0_0 Hg1_2 3.009976 1_545
Hg0_0 Tb0_5 3.181857 1_555
Hg0_0 Tb0_3 3.181857 1_555
Hg0_0 Hg1_0 3.183296 1_555
Hg0_0 Tb0_1 3.193663 1_555
Hg0_0 Tb0_2 3.357254 1_555
Hg0_0 Tb0_4 3.357254 1_555
Hg0_1 Hg1_3 3.009976 1_545
Hg0_1 Hg1_5 3.009976 1_455
Hg0_1 Tb0_4 3.181857 1_556
Hg0_1 Tb0_2 3.181857 1_556
Hg0_1 Hg1_1 3.183296 1_555
Hg0_1 Tb0_0 3.193663 1_556
Hg0_1 Tb0_3 3.357254 1_555
Hg0_1 Tb0_5 3.357254 1_555
Hg0_2 Hg1_6 3.009976 1_455
Hg0_2 Hg1_0 3.009976 1_555
Hg0_2 Tb0_1 3.181857 1_565
Hg0_2 Tb0_7 3.181857 1_555
Hg0_2 Hg1_2 3.183296 1_555
Hg0_2 Tb0_3 3.193663 1_555
Hg0_2 Tb0_0 3.357254 1_565
Hg0_2 Tb0_6 3.357254 1_555
Hg0_3 Hg1_1 3.009976 1_555
Hg0_3 Hg1_7 3.009976 1_455
Hg0_3 Tb0_6 3.181857 1_556
Hg0_3 Tb0_0 3.181857 1_566
Hg0_3 Hg1_3 3.183296 1_555
Hg0_3 Tb0_2 3.193663 1_556
Hg0_3 Tb0_7 3.357254 1_555
Hg0_3 Tb0_1 3.357254 1_565
Hg0_4 Hg1_6 3.009976 1_545
Hg0_4 Hg1_0 3.009976 1_555
Hg0_4 Tb0_1 3.181857 1_655
Hg0_4 Tb0_7 3.181857 1_555
Hg0_4 Hg1_4 3.183296 1_555
Hg0_4 Tb0_5 3.193663 1_555
Hg0_4 Tb0_0 3.357254 1_655
Hg0_4 Tb0_6 3.357254 1_555
Hg0_5 Hg1_1 3.009976 1_555
Hg0_5 Hg1_7 3.009976 1_545
Hg0_5 Tb0_6 3.181857 1_556
Hg0_5 Tb0_0 3.181857 1_656
Hg0_5 Hg1_5 3.183296 1_555
Hg0_5 Tb0_4 3.193663 1_556
Hg0_5 Tb0_7 3.357254 1_555
Hg0_5 Tb0_1 3.357254 1_655
Hg0_6 Hg1_4 3.009976 1_555
Hg0_6 Hg1_2 3.009976 1_555
Hg0_6 Tb0_5 3.181857 1_565
Hg0_6 Tb0_3 3.181857 1_655
Hg0_6 Hg1_6 3.183296 1_555
Hg0_6 Tb0_7 3.193663 1_555
Hg0_6 Tb0_4 3.357254 1_565
Hg0_6 Tb0_2 3.357254 1_655
Hg0_7 Hg1_5 3.009976 1_555
Hg0_7 Hg1_3 3.009976 1_555
Hg0_7 Tb0_2 3.181857 1_656
Hg0_7 Tb0_4 3.181857 1_566
Hg0_7 Hg1_7 3.183296 1_555
Hg0_7 Tb0_6 3.193663 1_556
Hg0_7 Tb0_5 3.357254 1_565
Hg0_7 Tb0_3 3.357254 1_655
Hg1_0 Tb0_4 3.181857 1_555
Hg1_0 Tb0_2 3.181857 1_555
Hg1_0 Tb0_6 3.193663 1_555
Hg1_0 Tb0_3 3.357254 1_555
Hg1_0 Tb0_5 3.357254 1_555
Hg1_1 Tb0_3 3.181857 1_555
Hg1_1 Tb0_5 3.181857 1_555
Hg1_1 Tb0_7 3.193663 1_555
Hg1_1 Tb0_4 3.357254 1_556
Hg1_1 Tb0_2 3.357254 1_556
Hg1_2 Tb0_6 3.181857 1_555
Hg1_2 Tb0_0 3.181857 1_565
Hg1_2 Tb0_4 3.193663 1_565
Hg1_2 Tb0_7 3.357254 1_555
Hg1_2 Tb0_1 3.357254 1_565
Hg1_3 Tb0_7 3.181857 1_555
Hg1_3 Tb0_1 3.181857 1_565
Hg1_3 Tb0_5 3.193663 1_565
Hg1_3 Tb0_0 3.357254 1_566
Hg1_3 Tb0_6 3.357254 1_556
Hg1_4 Tb0_6 3.181857 1_555
Hg1_4 Tb0_0 3.181857 1_655
Hg1_4 Tb0_2 3.193663 1_655
Hg1_4 Tb0_1 3.357254 1_655
Hg1_4 Tb0_7 3.357254 1_555
Hg1_5 Tb0_7 3.181857 1_555
Hg1_5 Tb0_1 3.181857 1_655
Hg1_5 Tb0_3 3.193663 1_655
Hg1_5 Tb0_0 3.357254 1_656
Hg1_5 Tb0_6 3.357254 1_556
Hg1_6 Tb0_4 3.181857 1_565
Hg1_6 Tb0_2 3.181857 1_655
Hg1_6 Tb0_0 3.193663 1_665
Hg1_6 Tb0_5 3.357254 1_565
Hg1_6 Tb0_3 3.357254 1_655
Hg1_7 Tb0_5 3.181857 1_565
Hg1_7 Tb0_3 3.181857 1_655
Hg1_7 Tb0_1 3.193663 1_665
Hg1_7 Tb0_4 3.357254 1_566
Hg1_7 Tb0_2 3.357254 1_656
