# generated using pymatgen
data_BaCaV4O8
_symmetry_space_group_name_H-M   'P 1'
_cell_length_a   5.57442195
_cell_length_b   5.57442195
_cell_length_c   7.88600300
_cell_angle_alpha   90.00000000
_cell_angle_beta   90.00000000
_cell_angle_gamma   119.99999935
_symmetry_Int_Tables_number   1
_chemical_formula_structural   BaCaV4O8
_chemical_formula_sum   'Ba1 Ca1 V4 O8'
_cell_volume   212.22045919
_cell_formula_units_Z   1
loop_
 _symmetry_equiv_pos_site_id
 _symmetry_equiv_pos_as_xyz
  1  'x, y, z'
loop_
 _atom_site_type_symbol
 _atom_site_label
 _atom_site_symmetry_multiplicity
 _atom_site_fract_x
 _atom_site_fract_y
 _atom_site_fract_z
 _atom_site_occupancy
  Ba  Ba0  1  0.00000000  0.00000000  0.00000000  1
  Ca  Ca0  1  0.00000000  0.00000000  0.50000000  1
  V  V0  1  0.33333300  0.66666700  0.75936400  1
  V  V1  1  0.66666700  0.33333300  0.75936400  1
  V  V2  1  0.33333300  0.66666700  0.24063600  1
  V  V3  1  0.66666700  0.33333300  0.24063600  1
  O  O0  1  0.32971600  0.32971600  0.69449400  1
  O  O1  1  0.67028400  0.00000000  0.69449400  1
  O  O2  1  0.00000000  0.67028400  0.69449400  1
  O  O3  1  0.67028400  0.67028400  0.30550600  1
  O  O4  1  0.00000000  0.32971600  0.30550600  1
  O  O5  1  0.32971600  0.00000000  0.30550600  1
  O  O6  1  0.33333300  0.66666700  0.00000000  1
  O  O7  1  0.66666700  0.33333300  0.00000000  1
loop_
_geom_bond_atom_site_label_1
_geom_bond_atom_site_label_2
_geom_bond_distance
_geom_bond_site_symmetry_2
Ba0 O4 3.030265 1_555
Ba0 O5 3.030265 1_555
Ba0 O1 3.030265 1_454
Ba0 O2 3.030265 1_544
Ba0 O3 3.030265 1_445
Ba0 O0 3.030265 1_554
Ba0 O6 3.218391 1_545
Ba0 O7 3.218391 1_455
Ba0 O6 3.218396 1_445
Ba0 O7 3.218396 1_555
Ba0 O7 3.218396 1_445
Ba0 O6 3.218396 1_555
Ca0 O2 2.393875 1_545
Ca0 O1 2.393875 1_455
Ca0 O4 2.393875 1_555
Ca0 O5 2.393875 1_555
Ca0 O0 2.393875 1_555
Ca0 O3 2.393875 1_445
O0 V1 1.937078 1_555
O0 V0 1.937078 1_555
O1 V1 1.937073 1_555
O1 V0 1.937075 1_545
O2 V0 1.937073 1_555
O2 V1 1.937075 1_455
O3 V2 1.937078 1_555
O3 V3 1.937078 1_555
O4 V3 1.937073 1_455
O4 V2 1.937075 1_555
O5 V2 1.937073 1_545
O5 V3 1.937075 1_555
O6 V2 1.897656 1_555
O6 V0 1.897656 1_554
O7 V3 1.897656 1_555
O7 V1 1.897656 1_554
