# generated using pymatgen
data_Ti4Be
_symmetry_space_group_name_H-M   'P 1'
_cell_length_a   6.27019019
_cell_length_b   6.27019019
_cell_length_c   6.27019019
_cell_angle_alpha   60.00000000
_cell_angle_beta   60.00000000
_cell_angle_gamma   60.00000000
_symmetry_Int_Tables_number   1
_chemical_formula_structural   Ti4Be
_chemical_formula_sum   'Ti8 Be2'
_cell_volume   174.31194309
_cell_formula_units_Z   2
loop_
 _symmetry_equiv_pos_site_id
 _symmetry_equiv_pos_as_xyz
  1  'x, y, z'
loop_
 _atom_site_type_symbol
 _atom_site_label
 _atom_site_symmetry_multiplicity
 _atom_site_fract_x
 _atom_site_fract_y
 _atom_site_fract_z
 _atom_site_occupancy
  Ti  Ti0  1  0.60765200  0.60765200  0.60765200  1
  Ti  Ti1  1  0.17704500  0.60765200  0.60765200  1
  Ti  Ti2  1  0.60765200  0.17704500  0.60765200  1
  Ti  Ti3  1  0.57295500  0.14234800  0.14234800  1
  Ti  Ti4  1  0.14234800  0.14234800  0.14234800  1
  Ti  Ti5  1  0.60765200  0.60765200  0.17704500  1
  Ti  Ti6  1  0.14234800  0.57295500  0.14234800  1
  Ti  Ti7  1  0.14234800  0.14234800  0.57295500  1
  Be  Be0  1  0.00000000  0.00000000  0.00000000  1
  Be  Be1  1  0.75000000  0.75000000  0.75000000  1
loop_
_geom_bond_atom_site_label_1
_geom_bond_atom_site_label_2
_geom_bond_distance
_geom_bond_site_symmetry_2
Ti0 Ti1 2.699988 1_555
Ti0 Ti2 2.699988 1_555
Ti0 Ti5 2.699988 1_555
Ti0 Ti7 3.150155 1_655
Ti0 Ti7 3.150155 1_565
Ti0 Ti6 3.150155 1_556
Ti0 Ti3 3.150155 1_556
Ti0 Ti6 3.150155 1_655
Ti0 Ti3 3.150155 1_565
Ti1 Ti2 2.699988 1_555
Ti1 Ti5 2.699988 1_555
Ti1 Ti7 3.150150 1_565
Ti1 Ti6 3.150150 1_556
Ti1 Ti4 3.150155 1_556
Ti1 Ti4 3.150155 1_565
Ti1 Ti7 3.150162 1_555
Ti1 Ti6 3.150162 1_555
Ti2 Ti5 2.699988 1_555
Ti2 Ti7 3.150150 1_655
Ti2 Ti3 3.150150 1_556
Ti2 Ti4 3.150155 1_556
Ti2 Ti4 3.150155 1_655
Ti2 Ti7 3.150162 1_555
Ti2 Ti3 3.150162 1_555
Ti3 Ti7 2.699988 1_555
Ti3 Ti4 2.699988 1_555
Ti3 Ti6 2.699988 1_555
Ti3 Ti5 3.150150 1_545
Ti3 Ti5 3.150162 1_555
Ti4 Ti7 2.699988 1_555
Ti4 Ti6 2.699988 1_555
Ti4 Ti5 3.150155 1_455
Ti4 Ti5 3.150155 1_545
Ti5 Ti6 3.150150 1_655
Ti5 Ti6 3.150162 1_555
Ti6 Ti7 2.699988 1_555
Be0 Ti4 2.186290 1_555
Be0 Ti7 2.186295 1_554
Be0 Ti3 2.186295 1_455
Be0 Ti6 2.186295 1_545
Be1 Ti0 2.186290 1_555
Be1 Ti1 2.186295 1_655
Be1 Ti2 2.186295 1_565
Be1 Ti5 2.186295 1_556
