# generated using pymatgen
data_CsS2N3
_symmetry_space_group_name_H-M   'P 1'
_cell_length_a   8.17865782
_cell_length_b   12.97012838
_cell_length_c   11.06340175
_cell_angle_alpha   89.99999751
_cell_angle_beta   97.96340990
_cell_angle_gamma   37.54028144
_symmetry_Int_Tables_number   1
_chemical_formula_structural   CsS2N3
_chemical_formula_sum   'Cs4 S8 N12'
_cell_volume   696.35918799
_cell_formula_units_Z   4
loop_
 _symmetry_equiv_pos_site_id
 _symmetry_equiv_pos_as_xyz
  1  'x, y, z'
loop_
 _atom_site_type_symbol
 _atom_site_label
 _atom_site_symmetry_multiplicity
 _atom_site_fract_x
 _atom_site_fract_y
 _atom_site_fract_z
 _atom_site_occupancy
  Cs  Cs0  1  0.00000000  0.90183900  0.75000000  1
  Cs  Cs1  1  0.00000000  0.09816100  0.25000000  1
  Cs  Cs2  1  0.00000000  0.56719700  0.75000000  1
  Cs  Cs3  1  0.00000000  0.43280300  0.25000000  1
  S  S0  1  0.17612500  0.57540300  0.05344300  1
  S  S1  1  0.82387500  0.75152800  0.44655700  1
  S  S2  1  0.82387500  0.42459700  0.94655700  1
  S  S3  1  0.17612500  0.24847200  0.55344300  1
  S  S4  1  0.35445200  0.58023500  0.29784600  1
  S  S5  1  0.64554800  0.93468700  0.20215400  1
  S  S6  1  0.64554800  0.41976500  0.70215400  1
  S  S7  1  0.35445200  0.06531300  0.79784600  1
  N  N0  1  0.87324600  0.30253800  0.01953400  1
  N  N1  1  0.12675400  0.17578300  0.48046600  1
  N  N2  1  0.12675400  0.69746200  0.98046600  1
  N  N3  1  0.87324600  0.82421700  0.51953400  1
  N  N4  1  0.87050900  0.20486800  0.73056900  1
  N  N5  1  0.12949100  0.07537700  0.76943100  1
  N  N6  1  0.12949100  0.79513200  0.26943100  1
  N  N7  1  0.87050900  0.92462300  0.23056900  1
  N  N8  1  0.26576900  0.21188600  0.70496200  1
  N  N9  1  0.73423100  0.47765500  0.79503800  1
  N  N10  1  0.73423100  0.78811400  0.29503800  1
  N  N11  1  0.26576900  0.52234500  0.20496200  1
loop_
_geom_bond_atom_site_label_1
_geom_bond_atom_site_label_2
_geom_bond_distance
_geom_bond_site_symmetry_2
Cs0 N3 3.084184 1_455
Cs0 N2 3.084191 1_555
Cs0 N5 3.154546 1_565
Cs0 N4 3.154546 1_465
Cs0 N8 3.654475 1_465
Cs0 N9 3.654475 1_555
Cs1 N1 3.084184 1_555
Cs1 N0 3.084191 1_455
Cs1 N7 3.154546 1_445
Cs1 N6 3.154546 1_545
Cs1 N10 3.654475 1_545
Cs1 N11 3.654475 1_455
Cs2 N9 3.259625 1_455
Cs2 N8 3.259625 1_555
Cs2 S1 3.501384 1_455
Cs2 S0 3.501384 1_556
Cs2 N2 3.532097 1_555
Cs2 N3 3.532107 1_455
Cs2 S6 4.071350 1_555
Cs2 S7 4.071350 1_465
Cs3 N11 3.259625 1_555
Cs3 N10 3.259625 1_455
Cs3 S3 3.501384 1_555
Cs3 S2 3.501384 1_454
Cs3 N0 3.532097 1_455
Cs3 N1 3.532107 1_555
Cs3 S4 4.071350 1_455
Cs3 S5 4.071350 1_545
N0 S2 1.488990 1_554
N1 S3 1.489001 1_555
N2 S0 1.488990 1_556
N3 S1 1.489001 1_555
N4 N5 1.264202 1_655
N4 S6 1.720435 1_555
N5 S7 1.720435 1_555
N6 N7 1.264202 1_455
N6 S4 1.720435 1_555
N7 S5 1.720435 1_555
N8 S3 1.637216 1_555
N8 S7 1.674199 1_555
N9 S2 1.637216 1_555
N9 S6 1.674199 1_555
N10 S1 1.637216 1_555
N10 S5 1.674199 1_555
N11 S0 1.637216 1_555
N11 S4 1.674199 1_555
