# generated using pymatgen
data_ZnSb2(PO5)2
_symmetry_space_group_name_H-M   'P 1'
_cell_length_a   10.24950788
_cell_length_b   9.02958358
_cell_length_c   7.41387927
_cell_angle_alpha   76.41595859
_cell_angle_beta   58.90733731
_cell_angle_gamma   44.67670409
_symmetry_Int_Tables_number   1
_chemical_formula_structural   ZnSb2(PO5)2
_chemical_formula_sum   'Zn2 Sb4 P4 O20'
_cell_volume   403.01874640
_cell_formula_units_Z   2
loop_
 _symmetry_equiv_pos_site_id
 _symmetry_equiv_pos_as_xyz
  1  'x, y, z'
loop_
 _atom_site_type_symbol
 _atom_site_label
 _atom_site_symmetry_multiplicity
 _atom_site_fract_x
 _atom_site_fract_y
 _atom_site_fract_z
 _atom_site_occupancy
  Zn  Zn0  1  0.96470100  0.53529900  0.53529900  1
  Zn  Zn1  1  0.71470100  0.28529900  0.28529900  1
  Sb  Sb0  1  0.33928200  0.36714200  0.90135200  1
  Sb  Sb1  1  0.39222400  0.90135200  0.36714200  1
  Sb  Sb2  1  0.88285800  0.91071800  0.85777600  1
  Sb  Sb3  1  0.34864800  0.85777600  0.91071800  1
  P  P0  1  0.93531800  0.43598300  0.02703000  1
  P  P1  1  0.81401700  0.31468200  0.64833200  1
  P  P2  1  0.60166800  0.02703000  0.43598300  1
  P  P3  1  0.22297000  0.64833200  0.31468200  1
  O  O0  1  0.44599200  0.23171900  0.61046000  1
  O  O1  1  0.32557500  0.85624200  0.66061100  1
  O  O2  1  0.43115700  0.53633000  0.29823700  1
  O  O3  1  0.63954000  0.53817100  0.80400800  1
  O  O4  1  0.75104600  0.04224700  0.23203700  1
  O  O5  1  0.45411900  0.06559900  0.37551400  1
  O  O6  1  0.39375800  0.92442500  0.09242800  1
  O  O7  1  0.15757200  0.66061100  0.85624200  1
  O  O8  1  0.58938900  0.09242800  0.92442500  1
  O  O9  1  0.20775300  0.49895400  0.27533000  1
  O  O10  1  0.71182900  0.61046000  0.23171900  1
  O  O11  1  0.01796300  0.27533000  0.49895400  1
  O  O12  1  0.97467000  0.23203700  0.04224700  1
  O  O13  1  0.18440100  0.79588100  0.14523200  1
  O  O14  1  0.10476800  0.37551400  0.06559900  1
  O  O15  1  0.87448600  0.14523200  0.79588100  1
  O  O16  1  0.95176300  0.51572400  0.81884300  1
  O  O17  1  0.73427600  0.29823700  0.53633000  1
  O  O18  1  0.01828100  0.80400800  0.53817100  1
  O  O19  1  0.71367000  0.81884300  0.51572400  1
loop_
_geom_bond_atom_site_label_1
_geom_bond_atom_site_label_2
_geom_bond_distance
_geom_bond_site_symmetry_2
O0 P2 1.559632 1_555
O0 Sb0 2.059877 1_555
O1 Sb1 1.952110 1_555
O1 Sb3 1.990991 1_555
O2 P3 1.520198 1_555
O2 Zn1 2.009672 1_555
O3 P1 1.559626 1_555
O3 Sb3 2.059877 1_555
O4 P2 1.568371 1_555
O4 Zn1 2.050289 1_555
O4 Sb2 2.515773 1_544
O5 P2 1.577091 1_555
O5 Sb1 2.006941 1_545
O6 Sb3 1.952110 1_554
O6 Sb1 1.990991 1_555
O7 Sb0 1.952110 1_555
O7 Sb2 1.990991 1_455
O8 Sb2 1.952110 1_545
O8 Sb0 1.990991 1_555
O9 P3 1.568374 1_555
O9 Zn0 2.050289 1_455
O9 Sb0 2.515773 1_554
O10 P0 1.559630 1_555
O10 Sb1 2.059877 1_555
O11 P1 1.568366 1_455
O11 Zn0 2.050289 1_455
O11 Sb1 2.515773 1_545
O12 P0 1.568365 1_555
O12 Zn1 2.050289 1_555
O12 Sb3 2.515773 1_644
O13 P3 1.577097 1_555
O13 Sb3 2.006941 1_554
O14 P0 1.577101 1_455
O14 Sb0 2.006941 1_554
O15 P1 1.577096 1_555
O15 Sb2 2.006941 1_545
O16 P0 1.520201 1_556
O16 Zn0 2.009672 1_555
O17 P1 1.520207 1_555
O17 Zn1 2.009672 1_555
O18 P3 1.559628 1_555
O18 Sb2 2.059877 1_455
O19 P2 1.520202 1_565
O19 Zn0 2.009672 1_555
