# generated using pymatgen
data_Na2ThTi3O9
_symmetry_space_group_name_H-M   'P 1'
_cell_length_a   5.50448315
_cell_length_b   5.50448315
_cell_length_c   6.72133400
_cell_angle_alpha   90.00000000
_cell_angle_beta   90.00000000
_cell_angle_gamma   119.99998981
_symmetry_Int_Tables_number   1
_chemical_formula_structural   Na2ThTi3O9
_chemical_formula_sum   'Na2 Th1 Ti3 O9'
_cell_volume   176.36777947
_cell_formula_units_Z   1
loop_
 _symmetry_equiv_pos_site_id
 _symmetry_equiv_pos_as_xyz
  1  'x, y, z'
loop_
 _atom_site_type_symbol
 _atom_site_label
 _atom_site_symmetry_multiplicity
 _atom_site_fract_x
 _atom_site_fract_y
 _atom_site_fract_z
 _atom_site_occupancy
  Na  Na0  1  0.66666700  0.33333300  0.33289100  1
  Na  Na1  1  0.33333300  0.66666700  0.66710900  1
  Th  Th0  1  0.00000000  0.00000000  0.00000000  1
  Ti  Ti0  1  0.00000000  0.00000000  0.50000000  1
  Ti  Ti1  1  0.66666700  0.33333300  0.82478100  1
  Ti  Ti2  1  0.33333300  0.66666700  0.17521900  1
  O  O0  1  0.68228400  0.84114200  0.31740700  1
  O  O1  1  0.31771600  0.15885800  0.68259300  1
  O  O2  1  0.00000000  0.50000000  0.00000000  1
  O  O3  1  0.84114200  0.68228400  0.68259300  1
  O  O4  1  0.50000000  0.00000000  0.00000000  1
  O  O5  1  0.15885800  0.31771600  0.31740700  1
  O  O6  1  0.84114200  0.15885800  0.68259300  1
  O  O7  1  0.50000000  0.50000000  0.00000000  1
  O  O8  1  0.15885800  0.84114200  0.31740700  1
loop_
_geom_bond_atom_site_label_1
_geom_bond_atom_site_label_2
_geom_bond_distance
_geom_bond_site_symmetry_2
Na0 O2 2.744307 1_655
Na0 O4 2.744307 1_555
Na0 O7 2.744309 1_555
Na0 O5 2.755212 1_655
Na0 O0 2.755212 1_545
Na0 O8 2.755215 1_655
Na0 O8 2.755215 1_545
Na0 O0 2.755217 1_555
Na0 O5 2.755217 1_555
Na0 O6 2.879541 1_555
Na0 O3 2.879544 1_555
Na0 O1 2.879544 1_555
Na1 O2 2.744307 1_556
Na1 O4 2.744307 1_566
Na1 O7 2.744309 1_556
Na1 O1 2.755212 1_565
Na1 O3 2.755212 1_455
Na1 O6 2.755215 1_565
Na1 O6 2.755215 1_455
Na1 O3 2.755217 1_555
Na1 O1 2.755217 1_555
Na1 O8 2.879541 1_555
Na1 O0 2.879544 1_555
Na1 O5 2.879544 1_555
O0 Ti2 1.918447 1_555
O0 Ti0 1.949379 1_665
O0 Th0 2.616348 1_665
O1 Ti1 1.918447 1_555
O1 Ti0 1.949379 1_555
O1 Th0 2.616348 1_556
O2 Ti2 1.977860 1_555
O2 Ti1 1.977860 1_454
O2 Th0 2.752242 1_555
O2 Th0 2.752242 1_565
O3 Ti1 1.918447 1_555
O3 Ti0 1.949379 1_665
O3 Th0 2.616348 1_666
O4 Ti1 1.977860 1_554
O4 Ti2 1.977860 1_545
O4 Th0 2.752242 1_555
O4 Th0 2.752242 1_655
O5 Ti2 1.918447 1_555
O5 Ti0 1.949379 1_555
O5 Th0 2.616348 1_555
O6 Ti1 1.918443 1_555
O6 Ti0 1.949379 1_655
O6 Th0 2.616348 1_656
O7 Ti2 1.977864 1_555
O7 Ti1 1.977864 1_554
O7 Th0 2.752242 1_555
O7 Th0 2.752242 1_665
O8 Ti2 1.918443 1_555
O8 Ti0 1.949379 1_565
O8 Th0 2.616348 1_565
