# generated using pymatgen
data_CsAlCuF6
_symmetry_space_group_name_H-M   'P 1'
_cell_length_a   7.27173370
_cell_length_b   7.27173370
_cell_length_c   7.27173370
_cell_angle_alpha   120.71969075
_cell_angle_beta   120.67958108
_cell_angle_gamma   88.79241090
_symmetry_Int_Tables_number   1
_chemical_formula_structural   CsAlCuF6
_chemical_formula_sum   'Cs2 Al2 Cu2 F12'
_cell_volume   268.95343496
_cell_formula_units_Z   2
loop_
 _symmetry_equiv_pos_site_id
 _symmetry_equiv_pos_as_xyz
  1  'x, y, z'
loop_
 _atom_site_type_symbol
 _atom_site_label
 _atom_site_symmetry_multiplicity
 _atom_site_fract_x
 _atom_site_fract_y
 _atom_site_fract_z
 _atom_site_occupancy
  Cs  Cs0  1  0.37436500  0.62436500  0.75000000  1
  Cs  Cs1  1  0.62563500  0.37563500  0.25000000  1
  Al  Al0  1  0.00000000  0.00000000  0.00000000  1
  Al  Al1  1  0.50000000  0.00000000  0.50000000  1
  Cu  Cu0  1  0.00000000  0.00000000  0.50000000  1
  Cu  Cu1  1  0.00000000  0.50000000  0.00000000  1
  F  F0  1  0.29801700  0.04801700  0.25000000  1
  F  F1  1  0.92666400  0.67666400  0.25000000  1
  F  F2  1  0.34026900  0.70176900  0.27836600  1
  F  F3  1  0.92340300  0.06190300  0.22163400  1
  F  F4  1  0.34026900  0.06190300  0.63850000  1
  F  F5  1  0.92340300  0.70176900  0.86150000  1
  F  F6  1  0.70198300  0.95198300  0.75000000  1
  F  F7  1  0.07333600  0.32333600  0.75000000  1
  F  F8  1  0.65973100  0.29823100  0.72163400  1
  F  F9  1  0.07659700  0.93809700  0.77836600  1
  F  F10  1  0.65973100  0.93809700  0.36150000  1
  F  F11  1  0.07659700  0.29823100  0.13850000  1
loop_
_geom_bond_atom_site_label_1
_geom_bond_atom_site_label_2
_geom_bond_distance
_geom_bond_site_symmetry_2
Cs0 F11 3.114881 1_555
Cs0 F9 3.114881 1_555
Cs0 F10 3.114881 1_556
Cs0 F8 3.114881 1_555
Cs0 F7 3.128168 1_555
Cs0 F6 3.404470 1_555
Cs1 F2 3.114881 1_555
Cs1 F5 3.114881 1_555
Cs1 F4 3.114881 1_554
Cs1 F3 3.114881 1_555
Cs1 F1 3.128168 1_555
Cs1 F0 3.404470 1_555
Al0 F11 1.809591 1_555
Al0 F9 1.809591 1_544
Al0 F3 1.809591 1_455
Al0 F5 1.809591 1_444
Al0 F6 1.867136 1_444
Al0 F0 1.867136 1_555
Al1 F8 1.809591 1_555
Al1 F10 1.809591 1_545
Al1 F2 1.809591 1_545
Al1 F4 1.809591 1_555
Al1 F0 1.867136 1_555
Al1 F6 1.867136 1_545
Cu0 F7 1.952948 1_555
Cu0 F1 1.952948 1_445
Cu0 F4 2.092864 1_555
Cu0 F3 2.092864 1_455
Cu0 F9 2.092864 1_545
Cu0 F10 2.092864 1_445
Cu1 F7 1.952948 1_554
Cu1 F1 1.952948 1_455
Cu1 F5 2.092864 1_454
Cu1 F2 2.092864 1_555
Cu1 F8 2.092864 1_454
Cu1 F11 2.092864 1_555
