# generated using pymatgen
data_SrCa7Mn6Cr2O24
_symmetry_space_group_name_H-M   'P 1'
_cell_length_a   10.86251350
_cell_length_b   15.17886878
_cell_length_c   10.70498014
_cell_angle_alpha   90.00625238
_cell_angle_beta   90.02892518
_cell_angle_gamma   90.00340882
_symmetry_Int_Tables_number   1
_chemical_formula_structural   SrCa7Mn6Cr2O24
_chemical_formula_sum   'Sr4 Ca28 Mn24 Cr8 O96'
_cell_volume   1765.04402711
_cell_formula_units_Z   4
loop_
 _symmetry_equiv_pos_site_id
 _symmetry_equiv_pos_as_xyz
  1  'x, y, z'
loop_
 _atom_site_type_symbol
 _atom_site_label
 _atom_site_symmetry_multiplicity
 _atom_site_fract_x
 _atom_site_fract_y
 _atom_site_fract_z
 _atom_site_occupancy
  Sr  Sr0  1  0.01473355  0.12472422  0.49770388  1
  Sr  Sr1  1  0.48418020  0.37515410  0.00243525  1
  Sr  Sr2  1  0.23331616  0.37588604  0.24687279  1
  Sr  Sr3  1  0.26753677  0.12463897  0.25336432  1
  Ca  Ca0  1  0.01973359  0.12477113  0.99535285  1
  Ca  Ca1  1  0.02292781  0.62512072  0.49538454  1
  Ca  Ca2  1  0.02279515  0.62517084  0.99560235  1
  Ca  Ca3  1  0.52385503  0.12497189  0.49507361  1
  Ca  Ca4  1  0.52455793  0.12493770  0.99485263  1
  Ca  Ca5  1  0.52288737  0.62516991  0.49535341  1
  Ca  Ca6  1  0.52271878  0.62520529  0.99579425  1
  Ca  Ca7  1  0.47915834  0.37500534  0.50492409  1
  Ca  Ca8  1  0.47818682  0.87494288  0.00459390  1
  Ca  Ca9  1  0.47842923  0.87470212  0.50448747  1
  Ca  Ca10  1  0.97750456  0.37562255  0.00426596  1
  Ca  Ca11  1  0.97653203  0.37553430  0.50456957  1
  Ca  Ca12  1  0.97710923  0.87430510  0.00450438  1
  Ca  Ca13  1  0.97719780  0.87448354  0.50400067  1
  Ca  Ca14  1  0.22782511  0.37616213  0.74475112  1
  Ca  Ca15  1  0.22810432  0.87381145  0.24582695  1
  Ca  Ca16  1  0.22820867  0.87378037  0.74557987  1
  Ca  Ca17  1  0.72805472  0.37461049  0.24632353  1
  Ca  Ca18  1  0.72689334  0.37451653  0.74473115  1
  Ca  Ca19  1  0.72679580  0.87530741  0.24541888  1
  Ca  Ca20  1  0.72645368  0.87544972  0.74500702  1
  Ca  Ca21  1  0.27320145  0.12472995  0.75552855  1
  Ca  Ca22  1  0.27287154  0.62532874  0.25428557  1
  Ca  Ca23  1  0.27290962  0.62537485  0.75463066  1
  Ca  Ca24  1  0.76921253  0.12490416  0.25346731  1
  Ca  Ca25  1  0.77057168  0.12507273  0.75470039  1
  Ca  Ca26  1  0.77267636  0.62505355  0.25435949  1
  Ca  Ca27  1  0.77291484  0.62494578  0.75468844  1
  Mn  Mn0  1  0.99904080  0.50098281  0.24993985  1
  Mn  Mn1  1  0.99976319  0.50039806  0.75003601  1
  Mn  Mn2  1  0.50103415  0.99920923  0.25039784  1
  Mn  Mn3  1  0.50024897  0.99992546  0.75049359  1
  Mn  Mn4  1  0.50190650  0.50179456  0.25089527  1
  Mn  Mn5  1  0.50013435  0.50088532  0.74817344  1
  Mn  Mn6  1  0.24932220  0.50166299  0.99827658  1
  Mn  Mn7  1  0.24996236  0.50119911  0.50151302  1
  Mn  Mn8  1  0.74969805  0.99948020  0.99975630  1
  Mn  Mn9  1  0.74810567  0.99893232  0.49988130  1
  Mn  Mn10  1  0.75169204  0.50096745  0.00045142  1
  Mn  Mn11  1  0.75003489  0.50045674  0.50039750  1
  Mn  Mn12  1  0.25007020  0.74993928  0.99946159  1
  Mn  Mn13  1  0.25037432  0.74978290  0.49977084  1
  Mn  Mn14  1  0.75102024  0.24934692  0.00027317  1
  Mn  Mn15  1  0.74815671  0.25067435  0.50021603  1
  Mn  Mn16  1  0.75016874  0.75020215  0.99980453  1
  Mn  Mn17  1  0.74990983  0.74984720  0.50014050  1
  Mn  Mn18  1  0.99986483  0.74958831  0.24990098  1
  Mn  Mn19  1  0.99993414  0.74976996  0.74999894  1
  Mn  Mn20  1  0.50251583  0.24858759  0.25102639  1
  Mn  Mn21  1  0.50004214  0.24910506  0.74860395  1
  Mn  Mn22  1  0.50039186  0.75024940  0.25033443  1
  Mn  Mn23  1  0.50022464  0.75010711  0.75020009  1
  Cr  Cr0  1  0.99739906  0.99758725  0.24772068  1
  Cr  Cr1  1  0.99927818  0.99859402  0.75051287  1
  Cr  Cr2  1  0.25065866  0.99894010  0.99722517  1
  Cr  Cr3  1  0.25171471  0.99827593  0.50072618  1
  Cr  Cr4  1  0.24967046  0.24933132  0.99608852  1
  Cr  Cr5  1  0.25079496  0.25060740  0.50228975  1
  Cr  Cr6  1  0.99606833  0.25169260  0.24777611  1
  Cr  Cr7  1  0.99913409  0.25128565  0.75012023  1
  O  O0  1  0.10201219  0.26697486  0.10535877  1
  O  O1  1  0.10345725  0.27010664  0.60936234  1
  O  O2  1  0.10428943  0.77104092  0.10297746  1
  O  O3  1  0.10419335  0.77105700  0.60312826  1
  O  O4  1  0.60979310  0.26652604  0.10764518  1
  O  O5  1  0.60377601  0.26958719  0.60200548  1
  O  O6  1  0.60416615  0.77041199  0.10296045  1
  O  O7  1  0.60408051  0.77033981  0.60310044  1
  O  O8  1  0.39927957  0.23259914  0.39721108  1
  O  O9  1  0.39665401  0.22882489  0.89319790  1
  O  O10  1  0.39608846  0.72937649  0.39693640  1
  O  O11  1  0.39615494  0.72957702  0.89682287  1
  O  O12  1  0.88896175  0.23326459  0.39097142  1
  O  O13  1  0.89530555  0.23045121  0.89672962  1
  O  O14  1  0.89614400  0.72973948  0.39723721  1
  O  O15  1  0.89626708  0.72984411  0.89710453  1
  O  O16  1  0.14166439  0.23594858  0.36178753  1
  O  O17  1  0.14586676  0.23073770  0.85457694  1
  O  O18  1  0.14623893  0.72972564  0.35305225  1
  O  O19  1  0.14616481  0.72980916  0.85283544  1
  O  O20  1  0.64624532  0.22960200  0.35411929  1
  O  O21  1  0.64575662  0.23029961  0.85342718  1
  O  O22  1  0.64619005  0.72940743  0.35309274  1
  O  O23  1  0.64604008  0.72940904  0.85296033  1
  O  O24  1  0.35856589  0.26467189  0.14066684  1
  O  O25  1  0.35350644  0.26902748  0.64774446  1
  O  O26  1  0.35420980  0.77064380  0.14664636  1
  O  O27  1  0.35427889  0.77057139  0.64686914  1
  O  O28  1  0.85311806  0.26994138  0.14518901  1
  O  O29  1  0.85312919  0.26917175  0.64572701  1
  O  O30  1  0.85399661  0.77088854  0.14702268  1
  O  O31  1  0.85411024  0.77086048  0.64718962  1
  O  O32  1  0.35712481  0.48639297  0.14327169  1
  O  O33  1  0.35392766  0.48058153  0.64708073  1
  O  O34  1  0.35520533  0.97880586  0.14480832  1
  O  O35  1  0.35431067  0.97894700  0.64720538  1
  O  O36  1  0.85440889  0.47951937  0.14675512  1
  O  O37  1  0.85411965  0.47925912  0.64714941  1
  O  O38  1  0.85290244  0.97965356  0.14551928  1
  O  O39  1  0.85341488  0.98071652  0.64584014  1
  O  O40  1  0.14230584  0.01367212  0.35960395  1
  O  O41  1  0.14629007  0.01841845  0.85483346  1
  O  O42  1  0.14445105  0.52170353  0.35501201  1
  O  O43  1  0.14583296  0.52091503  0.85213156  1
  O  O44  1  0.64604976  0.01993834  0.35318398  1
  O  O45  1  0.64649094  0.02037286  0.85262112  1
  O  O46  1  0.64617831  0.52109430  0.35427601  1
  O  O47  1  0.64515490  0.51992657  0.85380933  1
  O  O48  1  0.39875368  0.01764936  0.39832800  1
  O  O49  1  0.39787996  0.01960776  0.89634212  1
  O  O50  1  0.39546646  0.52008694  0.39666555  1
  O  O51  1  0.39445478  0.52215126  0.89385890  1
  O  O52  1  0.88954673  0.01610056  0.39094605  1
  O  O53  1  0.89530779  0.01945799  0.89706370  1
  O  O54  1  0.89549455  0.52078676  0.39737317  1
  O  O55  1  0.89610283  0.52040288  0.89701252  1
  O  O56  1  0.10193528  0.48171164  0.10139723  1
  O  O57  1  0.10358253  0.47937425  0.60377234  1
  O  O58  1  0.10421914  0.98079174  0.10550615  1
  O  O59  1  0.10516257  0.97970151  0.60785774  1
  O  O60  1  0.60963725  0.48416890  0.10813661  1
  O  O61  1  0.60436185  0.48066826  0.60212181  1
  O  O62  1  0.60415829  0.97883949  0.10257080  1
  O  O63  1  0.60339171  0.97934514  0.60286256  1
  O  O64  1  0.00393858  0.37583200  0.28769737  1
  O  O65  1  0.00991661  0.37501057  0.78943702  1
  O  O66  1  0.00973987  0.87407018  0.28760612  1
  O  O67  1  0.01019174  0.87518994  0.78931769  1
  O  O68  1  0.50907265  0.37561450  0.28726645  1
  O  O69  1  0.51020245  0.37525047  0.77956086  1
  O  O70  1  0.51052571  0.87452497  0.28981304  1
  O  O71  1  0.51016273  0.87479369  0.78982063  1
  O  O72  1  0.49705586  0.12373110  0.21094569  1
  O  O73  1  0.48979325  0.12453971  0.70953660  1
  O  O74  1  0.49042986  0.62631136  0.21154229  1
  O  O75  1  0.49014507  0.62539197  0.70985535  1
  O  O76  1  0.99113055  0.12459685  0.21469430  1
  O  O77  1  0.99031473  0.12477382  0.72206592  1
  O  O78  1  0.98941123  0.62535813  0.21045028  1
  O  O79  1  0.98981073  0.62510121  0.71045442  1
  O  O80  1  0.23915071  0.12418021  0.02786248  1
  O  O81  1  0.24513041  0.12513560  0.53603629  1
  O  O82  1  0.23909569  0.62592256  0.03891604  1
  O  O83  1  0.24013316  0.62523072  0.54008519  1
  O  O84  1  0.74148382  0.12425641  0.03888745  1
  O  O85  1  0.74176291  0.12479181  0.53925847  1
  O  O86  1  0.74079012  0.62571807  0.03901471  1
  O  O87  1  0.73993002  0.62517705  0.53981315  1
  O  O88  1  0.26111439  0.37526305  0.47130279  1
  O  O89  1  0.25442613  0.37472856  0.96202921  1
  O  O90  1  0.26097326  0.87431910  0.46162743  1
  O  O91  1  0.25997539  0.87514743  0.96053211  1
  O  O92  1  0.75932341  0.37576940  0.46132921  1
  O  O93  1  0.75884785  0.37526622  0.96105981  1
  O  O94  1  0.75965380  0.87419769  0.46079510  1
  O  O95  1  0.76062122  0.87477158  0.95999862  1
loop_
_geom_bond_atom_site_label_1
_geom_bond_atom_site_label_2
_geom_bond_distance
_geom_bond_site_symmetry_2
Ca0 O53 2.342456 1_455
Ca0 O13 2.348146 1_455
Ca0 O76 2.368670 1_456
Ca0 O80 2.408539 1_556
Ca0 O17 2.595721 1_555
Ca0 O41 2.600092 1_555
Ca0 O0 2.615875 1_556
Ca0 O58 2.647373 1_546
Ca1 O79 2.330433 1_455
Ca1 O14 2.349775 1_455
Ca1 O54 2.350086 1_455
Ca1 O83 2.407196 1_555
Ca1 O42 2.542923 1_555
Ca1 O18 2.576650 1_555
Ca1 O57 2.647212 1_555
Ca1 O3 2.648513 1_555
Ca2 O78 2.328538 1_456
Ca2 O15 2.350388 1_455
Ca2 O55 2.352578 1_455
Ca2 O82 2.394679 1_556
Ca2 O43 2.578978 1_555
Ca2 O19 2.580048 1_555
Ca2 O56 2.600604 1_556
Ca2 O2 2.646787 1_556
Ca3 O73 2.325640 1_555
Ca3 O48 2.360284 1_555
Ca3 O8 2.365736 1_555
Ca3 O85 2.413591 1_555
Ca3 O20 2.562981 1_555
Ca3 O44 2.571477 1_555
Ca3 O5 2.623107 1_555
Ca3 O63 2.638890 1_545
Ca4 O72 2.332706 1_556
Ca4 O49 2.357881 1_555
Ca4 O9 2.366477 1_555
Ca4 O84 2.402839 1_556
Ca4 O21 2.566177 1_555
Ca4 O45 2.567772 1_555
Ca4 O4 2.632882 1_556
Ca4 O62 2.644783 1_546
Ca5 O75 2.323800 1_555
Ca5 O10 2.346941 1_555
Ca5 O50 2.360911 1_555
Ca5 O87 2.404953 1_555
Ca5 O46 2.563546 1_555
Ca5 O22 2.572715 1_555
Ca5 O61 2.626830 1_555
Ca5 O7 2.638545 1_555
Ca6 O74 2.336292 1_556
Ca6 O11 2.349804 1_555
Ca6 O51 2.361492 1_555
Ca6 O86 2.413347 1_556
Ca6 O47 2.575742 1_555
Ca6 O23 2.576145 1_555
Ca6 O60 2.630645 1_556
Ca6 O6 2.637226 1_556
Ca7 O5 2.339243 1_555
Ca7 O61 2.345755 1_555
Ca7 O68 2.352752 1_555
Ca7 O88 2.395519 1_555
Ca7 O33 2.595420 1_555
Ca7 O8 2.598658 1_555
Ca7 O25 2.605858 1_555
Ca7 O50 2.649309 1_555
Ca8 O71 2.325407 1_554
Ca8 O62 2.336121 1_555
Ca8 O6 2.344815 1_555
Ca8 O91 2.416568 1_554
Ca8 O34 2.554361 1_555
Ca8 O26 2.575795 1_555
Ca8 O49 2.631611 1_564
Ca8 O11 2.644196 1_554
Ca9 O70 2.324558 1_555
Ca9 O63 2.339318 1_555
Ca9 O7 2.342192 1_555
Ca9 O90 2.406045 1_555
Ca9 O27 2.577294 1_555
Ca9 O35 2.580202 1_555
Ca9 O48 2.597737 1_565
Ca9 O10 2.643792 1_555
Ca10 O65 2.326727 1_654
Ca10 O56 2.345022 1_655
Ca10 O0 2.391481 1_655
Ca10 O93 2.419553 1_554
Ca10 O36 2.569711 1_555
Ca10 O28 2.583979 1_555
Ca10 O55 2.632358 1_554
Ca10 O13 2.641250 1_554
Ca11 O64 2.340776 1_655
Ca11 O57 2.348324 1_655
Ca11 O1 2.391505 1_655
Ca11 O92 2.404182 1_555
Ca11 O37 2.564828 1_555
Ca11 O29 2.586319 1_555
Ca11 O54 2.636755 1_555
Ca11 O12 2.654258 1_555
Ca12 O67 2.331650 1_654
Ca12 O2 2.340035 1_655
Ca12 O58 2.384510 1_655
Ca12 O95 2.399156 1_554
Ca12 O30 2.565632 1_555
Ca12 O38 2.580295 1_555
Ca12 O15 2.626663 1_554
Ca12 O53 2.639412 1_564
Ca13 O66 2.343499 1_655
Ca13 O3 2.343667 1_655
Ca13 O59 2.390964 1_655
Ca13 O94 2.407687 1_555
Ca13 O31 2.571684 1_555
Ca13 O39 2.591402 1_555
Ca13 O14 2.628051 1_555
Ca13 O52 2.644160 1_565
Ca14 O33 2.341622 1_555
Ca14 O89 2.343796 1_555
Ca14 O25 2.363895 1_555
Ca14 O65 2.415186 1_555
Ca14 O1 2.552322 1_555
Ca14 O57 2.559702 1_555
Ca14 O43 2.634946 1_555
Ca14 O17 2.654944 1_555
Ca15 O26 2.336085 1_555
Ca15 O90 2.337401 1_555
Ca15 O34 2.370038 1_555
Ca15 O66 2.414008 1_555
Ca15 O2 2.564740 1_555
Ca15 O58 2.589001 1_555
Ca15 O40 2.619105 1_565
Ca15 O18 2.625436 1_555
Ca16 O91 2.326706 1_555
Ca16 O27 2.333998 1_555
Ca16 O35 2.352678 1_555
Ca16 O67 2.414380 1_555
Ca16 O59 2.558077 1_555
Ca16 O3 2.562911 1_555
Ca16 O19 2.624787 1_555
Ca16 O41 2.642040 1_565
Ca17 O92 2.326453 1_555
Ca17 O28 2.354393 1_555
Ca17 O36 2.357379 1_555
Ca17 O68 2.419004 1_555
Ca17 O4 2.557927 1_555
Ca17 O60 2.570455 1_555
Ca17 O20 2.639575 1_555
Ca17 O46 2.659128 1_555
Ca18 O93 2.341516 1_555
Ca18 O37 2.351677 1_555
Ca18 O29 2.358338 1_555
Ca18 O69 2.383368 1_555
Ca18 O5 2.580081 1_555
Ca18 O61 2.587870 1_555
Ca18 O21 2.631352 1_555
Ca18 O47 2.650300 1_555
Ca19 O94 2.332946 1_555
Ca19 O38 2.351660 1_555
Ca19 O30 2.352046 1_555
Ca19 O70 2.397088 1_555
Ca19 O62 2.565417 1_555
Ca19 O6 2.575329 1_555
Ca19 O44 2.630656 1_565
Ca19 O22 2.645944 1_555
Ca20 O95 2.331054 1_555
Ca20 O31 2.353936 1_555
Ca20 O39 2.362957 1_555
Ca20 O71 2.398198 1_555
Ca20 O63 2.566722 1_555
Ca20 O7 2.572414 1_555
Ca20 O45 2.630827 1_565
Ca20 O23 2.648347 1_555
Ca21 O81 2.369219 1_555
Ca21 O17 2.372327 1_555
Ca21 O41 2.374056 1_555
Ca21 O73 2.403939 1_555
Ca21 O9 2.542441 1_555
Ca21 O49 2.578999 1_555
Ca21 O25 2.625050 1_555
Ca21 O35 2.649187 1_545
Ca22 O82 2.334372 1_555
Ca22 O18 2.349981 1_555
Ca22 O42 2.363112 1_555
Ca22 O74 2.407392 1_555
Ca22 O10 2.571930 1_555
Ca22 O50 2.578195 1_555
Ca22 O32 2.588065 1_555
Ca22 O26 2.641008 1_555
Ca23 O83 2.323961 1_555
Ca23 O43 2.347436 1_555
Ca23 O19 2.348378 1_555
Ca23 O75 2.408149 1_555
Ca23 O51 2.533424 1_555
Ca23 O11 2.570622 1_555
Ca23 O33 2.632691 1_555
Ca23 O27 2.640190 1_555
Ca24 O84 2.316606 1_555
Ca24 O44 2.338672 1_555
Ca24 O20 2.339233 1_555
Ca24 O76 2.446271 1_555
Ca24 O12 2.561515 1_555
Ca24 O52 2.569215 1_555
Ca24 O28 2.649951 1_555
Ca24 O38 2.650174 1_545
Ca25 O85 2.327282 1_555
Ca25 O45 2.332943 1_555
Ca25 O21 2.346837 1_555
Ca25 O77 2.412571 1_555
Ca25 O13 2.589036 1_555
Ca25 O53 2.593670 1_555
Ca25 O29 2.636392 1_555
Ca25 O39 2.640031 1_545
Ca26 O86 2.330987 1_555
Ca26 O22 2.348449 1_555
Ca26 O46 2.350276 1_555
Ca26 O78 2.400988 1_555
Ca26 O54 2.574335 1_555
Ca26 O14 2.580741 1_555
Ca26 O36 2.644937 1_555
Ca26 O30 2.646129 1_555
Ca27 O87 2.327798 1_555
Ca27 O23 2.349824 1_555
Ca27 O47 2.365278 1_555
Ca27 O79 2.403384 1_555
Ca27 O55 2.574621 1_555
Ca27 O15 2.579154 1_555
Ca27 O37 2.644647 1_555
Ca27 O31 2.647443 1_555
Mn0 O78 1.937493 1_555
Mn0 O64 1.942942 1_655
Mn0 O36 1.947464 1_555
Mn0 O54 1.961668 1_555
Mn0 O42 1.963935 1_655
Mn0 O56 1.965985 1_655
Mn1 O79 1.942748 1_555
Mn1 O43 1.951196 1_655
Mn1 O65 1.952574 1_655
Mn1 O37 1.953723 1_555
Mn1 O57 1.956252 1_655
Mn1 O55 1.958918 1_555
Mn2 O72 1.937236 1_565
Mn2 O70 1.941809 1_555
Mn2 O44 1.946584 1_565
Mn2 O48 1.955042 1_565
Mn2 O62 1.963773 1_555
Mn2 O34 1.969999 1_555
Mn3 O49 1.940394 1_565
Mn3 O73 1.945012 1_565
Mn3 O71 1.948474 1_555
Mn3 O45 1.952741 1_565
Mn3 O35 1.958341 1_555
Mn3 O63 1.962703 1_555
Mn4 O46 1.940277 1_555
Mn4 O74 1.940452 1_555
Mn4 O60 1.943770 1_555
Mn4 O68 1.956033 1_555
Mn4 O50 1.962328 1_555
Mn4 O32 1.963017 1_555
Mn5 O75 1.936954 1_555
Mn5 O69 1.939488 1_555
Mn5 O33 1.945906 1_555
Mn5 O61 1.955039 1_555
Mn5 O47 1.960081 1_555
Mn5 O51 1.963656 1_555
Mn6 O82 1.938800 1_556
Mn6 O43 1.948095 1_555
Mn6 O32 1.957674 1_556
Mn6 O51 1.957889 1_555
Mn6 O89 1.966155 1_555
Mn6 O56 1.968576 1_556
Mn7 O83 1.930338 1_555
Mn7 O88 1.942494 1_555
Mn7 O33 1.949354 1_555
Mn7 O57 1.959112 1_555
Mn7 O50 1.960069 1_555
Mn7 O42 1.966805 1_555
Mn8 O84 1.941755 1_566
Mn8 O95 1.943792 1_555
Mn8 O38 1.944360 1_556
Mn8 O53 1.950377 1_565
Mn8 O62 1.952087 1_556
Mn8 O45 1.958737 1_565
Mn9 O94 1.943043 1_555
Mn9 O63 1.943328 1_555
Mn9 O52 1.946839 1_565
Mn9 O44 1.948113 1_565
Mn9 O39 1.955684 1_555
Mn9 O85 1.957537 1_565
Mn10 O86 1.941641 1_555
Mn10 O55 1.943102 1_554
Mn10 O60 1.943393 1_555
Mn10 O36 1.949928 1_555
Mn10 O93 1.955559 1_554
Mn10 O47 1.970951 1_554
Mn11 O92 1.940868 1_555
Mn11 O87 1.942642 1_555
Mn11 O61 1.944663 1_555
Mn11 O54 1.951900 1_555
Mn11 O46 1.953461 1_555
Mn11 O37 1.961673 1_555
Mn12 O82 1.932965 1_556
Mn12 O91 1.948695 1_555
Mn12 O11 1.955147 1_555
Mn12 O19 1.956801 1_555
Mn12 O2 1.959573 1_556
Mn12 O26 1.964438 1_556
Mn13 O90 1.937390 1_555
Mn13 O83 1.942433 1_555
Mn13 O10 1.953167 1_555
Mn13 O18 1.958863 1_555
Mn13 O27 1.962432 1_555
Mn13 O3 1.962560 1_555
Mn14 O28 1.931942 1_555
Mn14 O4 1.935025 1_555
Mn14 O13 1.941405 1_554
Mn14 O84 1.946016 1_555
Mn14 O93 1.958763 1_554
Mn14 O21 1.964737 1_554
Mn15 O5 1.931619 1_555
Mn15 O20 1.942129 1_555
Mn15 O12 1.943867 1_555
Mn15 O92 1.947729 1_555
Mn15 O29 1.950260 1_555
Mn15 O85 1.957211 1_555
Mn16 O86 1.938317 1_556
Mn16 O95 1.941618 1_555
Mn16 O15 1.955626 1_555
Mn16 O6 1.957179 1_556
Mn16 O23 1.961664 1_555
Mn16 O30 1.962734 1_556
Mn17 O94 1.936867 1_555
Mn17 O87 1.942501 1_555
Mn17 O7 1.955147 1_555
Mn17 O14 1.957452 1_555
Mn17 O22 1.960001 1_555
Mn17 O31 1.964409 1_555
Mn18 O66 1.935040 1_655
Mn18 O78 1.935656 1_555
Mn18 O30 1.956123 1_555
Mn18 O18 1.958738 1_655
Mn18 O14 1.962058 1_555
Mn18 O2 1.966802 1_655
Mn19 O79 1.942154 1_555
Mn19 O67 1.952826 1_655
Mn19 O31 1.954794 1_555
Mn19 O19 1.955807 1_655
Mn19 O15 1.959917 1_555
Mn19 O3 1.964898 1_655
Mn20 O20 1.933113 1_555
Mn20 O8 1.940926 1_555
Mn20 O72 1.943992 1_555
Mn20 O4 1.946746 1_555
Mn20 O68 1.968003 1_555
Mn20 O24 1.974481 1_555
Mn21 O9 1.937459 1_555
Mn21 O73 1.939596 1_555
Mn21 O69 1.946291 1_555
Mn21 O25 1.946598 1_555
Mn21 O5 1.957298 1_555
Mn21 O21 1.960695 1_555
Mn22 O74 1.929502 1_555
Mn22 O70 1.936192 1_555
Mn22 O22 1.953646 1_555
Mn22 O26 1.961550 1_555
Mn22 O10 1.961848 1_555
Mn22 O6 1.963453 1_555
Mn23 O71 1.942483 1_555
Mn23 O75 1.944697 1_555
Mn23 O23 1.953456 1_555
Mn23 O27 1.957480 1_555
Mn23 O11 1.959726 1_555
Mn23 O7 1.961770 1_555
Cr0 O66 1.927559 1_655
Cr0 O58 1.931532 1_655
Cr0 O38 1.932061 1_555
Cr0 O52 1.950392 1_565
Cr0 O76 1.961230 1_565
Cr0 O40 1.992421 1_665
Cr1 O67 1.922341 1_655
Cr1 O59 1.933634 1_655
Cr1 O77 1.941798 1_565
Cr1 O39 1.959017 1_555
Cr1 O53 1.959266 1_565
Cr1 O41 1.971268 1_665
Cr2 O41 1.922131 1_565
Cr2 O91 1.922290 1_555
Cr2 O80 1.933116 1_566
Cr2 O49 1.955476 1_565
Cr2 O34 1.969116 1_556
Cr2 O58 1.987892 1_556
Cr3 O90 1.930111 1_555
Cr3 O40 1.935868 1_565
Cr3 O35 1.945573 1_555
Cr3 O48 1.959831 1_565
Cr3 O81 1.963609 1_565
Cr3 O59 1.982629 1_555
Cr4 O17 1.908944 1_555
Cr4 O80 1.933284 1_556
Cr4 O89 1.938724 1_555
Cr4 O24 1.961342 1_556
Cr4 O9 1.964939 1_555
Cr4 O0 2.003623 1_556
Cr5 O88 1.924295 1_555
Cr5 O16 1.927457 1_555
Cr5 O25 1.935359 1_555
Cr5 O81 1.939497 1_555
Cr5 O8 1.985788 1_555
Cr5 O1 1.991155 1_555
Cr6 O28 1.921545 1_555
Cr6 O0 1.924664 1_655
Cr6 O64 1.933980 1_655
Cr6 O12 1.945121 1_555
Cr6 O76 1.962093 1_555
Cr6 O16 2.011500 1_655
Cr7 O1 1.907365 1_655
Cr7 O65 1.928086 1_655
Cr7 O77 1.945963 1_555
Cr7 O29 1.958631 1_555
Cr7 O13 1.958841 1_555
Cr7 O17 1.971414 1_655
O0 Sr2 2.656903 1_555
O1 Sr0 2.687991 1_555
O4 Sr1 2.418284 1_555
O8 Sr3 2.664859 1_555
O9 Sr1 2.683801 1_556
O12 Sr0 2.425981 1_655
O16 Sr3 2.464280 1_555
O16 Sr0 2.621170 1_555
O16 Sr2 2.649108 1_555
O24 Sr2 2.448421 1_555
O24 Sr1 2.620335 1_555
O24 Sr3 2.636785 1_555
O32 Sr2 2.419480 1_555
O32 Sr1 2.651526 1_555
O34 Sr3 2.675459 1_565
O40 Sr3 2.445948 1_555
O40 Sr0 2.636107 1_555
O42 Sr2 2.677988 1_555
O48 Sr3 2.660019 1_555
O51 Sr1 2.697971 1_556
O52 Sr0 2.423118 1_655
O56 Sr2 2.653437 1_555
O59 Sr0 2.683408 1_565
O60 Sr1 2.423509 1_555
O64 Sr2 2.529871 1_555
O69 Sr1 2.402694 1_556
O72 Sr3 2.534433 1_555
O77 Sr0 2.416527 1_655
O80 Sr3 2.433460 1_555
O81 Sr0 2.535910 1_555
O88 Sr2 2.421288 1_555
O89 Sr1 2.532705 1_556
