# generated using pymatgen
data_Sr2Ca2FeCo3O10
_symmetry_space_group_name_H-M   'P 1'
_cell_length_a   10.78714324
_cell_length_b   11.23753033
_cell_length_c   17.46665291
_cell_angle_alpha   108.73557463
_cell_angle_beta   107.98698990
_cell_angle_gamma   90.14474535
_symmetry_Int_Tables_number   1
_chemical_formula_structural   Sr2Ca2FeCo3O10
_chemical_formula_sum   'Sr16 Ca16 Fe8 Co24 O80'
_cell_volume   1894.93181426
_cell_formula_units_Z   8
loop_
 _symmetry_equiv_pos_site_id
 _symmetry_equiv_pos_as_xyz
  1  'x, y, z'
loop_
 _atom_site_type_symbol
 _atom_site_label
 _atom_site_symmetry_multiplicity
 _atom_site_fract_x
 _atom_site_fract_y
 _atom_site_fract_z
 _atom_site_occupancy
  Sr  Sr0  1  0.30399878  0.56597255  0.60925113  1
  Sr  Sr1  1  0.80661706  0.06219031  0.60888849  1
  Sr  Sr2  1  0.80973213  0.56007759  0.61042818  1
  Sr  Sr3  1  0.19288351  0.43896060  0.38235834  1
  Sr  Sr4  1  0.20218581  0.43776244  0.89571529  1
  Sr  Sr5  1  0.69380225  0.43139562  0.38355393  1
  Sr  Sr6  1  0.69560086  0.93198824  0.38220005  1
  Sr  Sr7  1  0.69930443  0.94189630  0.89360372  1
  Sr  Sr8  1  0.05416429  0.29396831  0.60998266  1
  Sr  Sr9  1  0.06195113  0.79754028  0.60940553  1
  Sr  Sr10  1  0.55857833  0.29657097  0.61076683  1
  Sr  Sr11  1  0.55452884  0.79875236  0.61031097  1
  Sr  Sr12  1  0.44433180  0.20219358  0.38345650  1
  Sr  Sr13  1  0.45284801  0.20574485  0.89316628  1
  Sr  Sr14  1  0.94096445  0.19905086  0.38448939  1
  Sr  Sr15  1  0.94551030  0.20211995  0.89420328  1
  Ca  Ca0  1  0.30127660  0.06771139  0.10722547  1
  Ca  Ca1  1  0.30352437  0.06540120  0.60724709  1
  Ca  Ca2  1  0.30933465  0.56554056  0.11133605  1
  Ca  Ca3  1  0.80498599  0.06983715  0.10901550  1
  Ca  Ca4  1  0.80348198  0.56658199  0.11107245  1
  Ca  Ca5  1  0.19288403  0.92885241  0.38788061  1
  Ca  Ca6  1  0.19601382  0.93211786  0.89713609  1
  Ca  Ca7  1  0.69637973  0.43319827  0.89803534  1
  Ca  Ca8  1  0.05475742  0.28911490  0.10840209  1
  Ca  Ca9  1  0.05635024  0.79249787  0.10985931  1
  Ca  Ca10  1  0.55189144  0.29600445  0.10752549  1
  Ca  Ca11  1  0.55250160  0.78889214  0.10760825  1
  Ca  Ca12  1  0.44004692  0.70243036  0.38582504  1
  Ca  Ca13  1  0.44301022  0.71284802  0.89569139  1
  Ca  Ca14  1  0.95160900  0.70542149  0.38751851  1
  Ca  Ca15  1  0.95019578  0.71565407  0.89740797  1
  Fe  Fe0  1  0.11510289  0.09085540  0.75674556  1
  Fe  Fe1  1  0.10922697  0.59614018  0.75442745  1
  Fe  Fe2  1  0.60971540  0.59348675  0.75599914  1
  Fe  Fe3  1  0.36056150  0.41133077  0.75247224  1
  Fe  Fe4  1  0.35223439  0.90425285  0.24643505  1
  Fe  Fe5  1  0.35894395  0.91086780  0.75484399  1
  Fe  Fe6  1  0.85781819  0.41535390  0.75914808  1
  Fe  Fe7  1  0.86143736  0.90746739  0.75162736  1
  Co  Co0  1  0.00920623  0.00192418  0.00634428  1
  Co  Co1  1  0.00393992  0.99733802  0.49604935  1
  Co  Co2  1  0.00566013  0.49994975  0.00459474  1
  Co  Co3  1  0.00147691  0.49870158  0.49593614  1
  Co  Co4  1  0.50894059  0.00414047  0.00613372  1
  Co  Co5  1  0.49924229  0.99454672  0.49239097  1
  Co  Co6  1  0.50838871  0.50309943  0.00403714  1
  Co  Co7  1  0.50497165  0.50159894  0.50105072  1
  Co  Co8  1  0.25674503  0.25125794  0.00413795  1
  Co  Co9  1  0.25196478  0.24768428  0.49694026  1
  Co  Co10  1  0.25966450  0.75242042  0.00721683  1
  Co  Co11  1  0.25471604  0.75075139  0.49756061  1
  Co  Co12  1  0.76110471  0.25829885  0.01364547  1
  Co  Co13  1  0.75173093  0.24736209  0.49844300  1
  Co  Co14  1  0.75837551  0.75130323  0.00259181  1
  Co  Co15  1  0.75303610  0.74547715  0.49532846  1
  Co  Co16  1  0.10656132  0.08937216  0.24700225  1
  Co  Co17  1  0.10558809  0.59541677  0.24334740  1
  Co  Co18  1  0.60478496  0.08767247  0.24174998  1
  Co  Co19  1  0.60522226  0.09813354  0.74850075  1
  Co  Co20  1  0.60836851  0.59328725  0.24699327  1
  Co  Co21  1  0.35341019  0.40681934  0.24219911  1
  Co  Co22  1  0.85640204  0.40961469  0.24658877  1
  Co  Co23  1  0.85937220  0.89958000  0.24324527  1
  O  O0  1  0.11909253  0.11110169  0.48934876  1
  O  O1  1  0.12864000  0.11985815  0.99451016  1
  O  O2  1  0.11886524  0.62428430  0.48408798  1
  O  O3  1  0.13105663  0.63248156  0.99229738  1
  O  O4  1  0.61703086  0.11384756  0.49050070  1
  O  O5  1  0.62975494  0.13284690  0.99818665  1
  O  O6  1  0.61525859  0.61204991  0.48734144  1
  O  O7  1  0.63149457  0.62956019  0.99108653  1
  O  O8  1  0.13263436  0.38844073  0.01707048  1
  O  O9  1  0.13590932  0.36864378  0.50386425  1
  O  O10  1  0.13719747  0.88332231  0.01881625  1
  O  O11  1  0.14000727  0.87870785  0.50471776  1
  O  O12  1  0.64073467  0.38791505  0.01783882  1
  O  O13  1  0.63182489  0.37049785  0.50434564  1
  O  O14  1  0.63154532  0.88825905  0.01691917  1
  O  O15  1  0.63496827  0.86426756  0.50141720  1
  O  O16  1  0.36293460  0.12301604  0.48740000  1
  O  O17  1  0.37842896  0.11014412  0.99470092  1
  O  O18  1  0.37076233  0.62435169  0.48467352  1
  O  O19  1  0.38148603  0.62182074  0.99209301  1
  O  O20  1  0.86911435  0.12066500  0.49084956  1
  O  O21  1  0.87771574  0.11974666  0.99820049  1
  O  O22  1  0.86949651  0.62588695  0.48839711  1
  O  O23  1  0.88230184  0.61194035  0.99062915  1
  O  O24  1  0.38803398  0.38510252  0.01824401  1
  O  O25  1  0.38501331  0.38706911  0.50361806  1
  O  O26  1  0.38180417  0.87700376  0.01647367  1
  O  O27  1  0.38404144  0.88566032  0.50402225  1
  O  O28  1  0.88309361  0.38200566  0.01696635  1
  O  O29  1  0.88041023  0.37722942  0.50543016  1
  O  O30  1  0.88507127  0.87728583  0.01558544  1
  O  O31  1  0.89023501  0.88238638  0.50305319  1
  O  O32  1  0.09536895  0.10501524  0.14558223  1
  O  O33  1  0.09629845  0.09249006  0.64579760  1
  O  O34  1  0.08686310  0.60381853  0.13761873  1
  O  O35  1  0.08002490  0.59437549  0.64221807  1
  O  O36  1  0.58687557  0.10761922  0.14010773  1
  O  O37  1  0.57889196  0.08944161  0.63902563  1
  O  O38  1  0.58987193  0.60695062  0.14313572  1
  O  O39  1  0.58151698  0.59102734  0.64225086  1
  O  O40  1  0.43241493  0.40008647  0.34770790  1
  O  O41  1  0.44940107  0.40254928  0.86093704  1
  O  O42  1  0.44054528  0.89804846  0.35718648  1
  O  O43  1  0.44874988  0.90226691  0.86467354  1
  O  O44  1  0.93204514  0.40494496  0.35342621  1
  O  O45  1  0.94818515  0.40263262  0.86584318  1
  O  O46  1  0.94154202  0.89879213  0.35252736  1
  O  O47  1  0.95178067  0.89774883  0.86061534  1
  O  O48  1  0.33204511  0.29080170  0.13668289  1
  O  O49  1  0.33374446  0.29268218  0.64127508  1
  O  O50  1  0.33978665  0.78026490  0.14137153  1
  O  O51  1  0.33277711  0.79590311  0.64497519  1
  O  O52  1  0.84645396  0.29008297  0.14524544  1
  O  O53  1  0.83210454  0.30035148  0.64820663  1
  O  O54  1  0.84293707  0.78332409  0.13903712  1
  O  O55  1  0.83131225  0.79550080  0.63909110  1
  O  O56  1  0.18448489  0.20064879  0.35473890  1
  O  O57  1  0.19506858  0.20603314  0.86838373  1
  O  O58  1  0.19244644  0.70610296  0.34885988  1
  O  O59  1  0.20449738  0.71472807  0.86138950  1
  O  O60  1  0.68177561  0.19249022  0.35057249  1
  O  O61  1  0.68365450  0.21061627  0.85398453  1
  O  O62  1  0.69716179  0.69692489  0.35581303  1
  O  O63  1  0.70767527  0.71154353  0.86289234  1
  O  O64  1  0.42223362  0.05592179  0.23864818  1
  O  O65  1  0.42244738  0.06508701  0.74568673  1
  O  O66  1  0.42730647  0.56891608  0.24757857  1
  O  O67  1  0.43130764  0.57480411  0.75876986  1
  O  O68  1  0.92415323  0.05706305  0.23923378  1
  O  O69  1  0.93517963  0.06474131  0.75188193  1
  O  O70  1  0.92671105  0.57003656  0.24730901  1
  O  O71  1  0.93298568  0.57450118  0.76188315  1
  O  O72  1  0.17278001  0.43439111  0.23775959  1
  O  O73  1  0.18240834  0.43811276  0.75303339  1
  O  O74  1  0.17362477  0.92737605  0.24805108  1
  O  O75  1  0.18255648  0.93390694  0.76160738  1
  O  O76  1  0.67308749  0.43057427  0.23874265  1
  O  O77  1  0.67837080  0.43652061  0.76113621  1
  O  O78  1  0.67776440  0.92852589  0.23761918  1
  O  O79  1  0.68566312  0.94252077  0.75290595  1
loop_
_geom_bond_atom_site_label_1
_geom_bond_atom_site_label_2
_geom_bond_distance
_geom_bond_site_symmetry_2
Ca0 O64 2.309942 1_555
Ca0 O48 2.391977 1_555
Ca0 O10 2.459421 1_545
Ca0 O1 2.483892 1_554
Ca0 O32 2.510269 1_555
Ca0 O17 2.528479 1_554
Ca0 O26 2.556862 1_545
Ca0 O36 2.959231 1_555
Ca1 O65 2.362729 1_555
Ca1 O49 2.425651 1_555
Ca1 O11 2.517279 1_545
Ca1 O33 2.518797 1_555
Ca1 O0 2.572308 1_555
Ca1 O27 2.592580 1_545
Ca1 O16 2.628502 1_555
Ca1 O37 2.843564 1_555
Ca2 O50 2.298241 1_555
Ca2 O66 2.314156 1_555
Ca2 O24 2.493850 1_555
Ca2 O8 2.498488 1_555
Ca2 O34 2.591088 1_555
Ca2 O3 2.670189 1_554
Ca2 O19 2.681155 1_554
Ca2 O38 2.910612 1_555
Ca3 O68 2.291559 1_555
Ca3 O52 2.353657 1_555
Ca3 O14 2.502997 1_545
Ca3 O21 2.511874 1_554
Ca3 O5 2.539517 1_554
Ca3 O36 2.580092 1_555
Ca3 O30 2.589055 1_545
Ca3 O32 2.995345 1_655
Ca4 O70 2.327619 1_555
Ca4 O54 2.335424 1_555
Ca4 O12 2.425132 1_555
Ca4 O28 2.536172 1_555
Ca4 O38 2.543233 1_555
Ca4 O7 2.625476 1_554
Ca4 O23 2.683246 1_554
Ca4 O34 2.954331 1_655
Ca5 O58 2.373248 1_555
Ca5 O74 2.380989 1_555
Ca5 O11 2.502713 1_555
Ca5 O0 2.552821 1_565
Ca5 O27 2.580108 1_555
Ca5 O46 2.583358 1_455
Ca5 O16 2.592535 1_565
Ca5 O42 2.883489 1_555
Ca6 O59 2.328661 1_555
Ca6 O75 2.333157 1_555
Ca6 O47 2.509131 1_455
Ca6 O1 2.517533 1_565
Ca6 O17 2.548994 1_565
Ca6 O10 2.607685 1_556
Ca6 O26 2.645866 1_556
Ca6 O43 2.950236 1_555
Ca7 O77 2.351026 1_555
Ca7 O61 2.358798 1_555
Ca7 O7 2.531229 1_555
Ca7 O41 2.534212 1_555
Ca7 O12 2.540935 1_556
Ca7 O23 2.561648 1_555
Ca7 O28 2.625337 1_556
Ca7 O45 2.938732 1_555
Ca8 O72 2.287898 1_555
Ca8 O32 2.363397 1_555
Ca8 O28 2.514669 1_455
Ca8 O21 2.516470 1_454
Ca8 O52 2.520306 1_455
Ca8 O8 2.542282 1_555
Ca8 O1 2.601232 1_554
Ca8 O48 2.876189 1_555
Ca9 O34 2.324746 1_555
Ca9 O74 2.340534 1_555
Ca9 O30 2.484104 1_455
Ca9 O10 2.495145 1_555
Ca9 O54 2.515405 1_455
Ca9 O3 2.599367 1_554
Ca9 O23 2.613495 1_454
Ca9 O50 2.946414 1_555
Ca10 O76 2.271978 1_555
Ca10 O36 2.365009 1_555
Ca10 O24 2.422443 1_555
Ca10 O12 2.529989 1_555
Ca10 O5 2.542336 1_554
Ca10 O48 2.578995 1_555
Ca10 O17 2.608805 1_554
Ca11 O78 2.291276 1_555
Ca11 O38 2.322193 1_555
Ca11 O26 2.473118 1_555
Ca11 O19 2.499852 1_554
Ca11 O14 2.539428 1_555
Ca11 O50 2.548264 1_555
Ca11 O7 2.609980 1_554
Ca12 O66 2.359534 1_555
Ca12 O42 2.406369 1_555
Ca12 O18 2.465000 1_555
Ca12 O58 2.550475 1_555
Ca12 O15 2.608636 1_555
Ca12 O6 2.616232 1_555
Ca12 O27 2.629194 1_555
Ca12 O62 2.974742 1_555
Ca13 O67 2.360341 1_555
Ca13 O43 2.364146 1_555
Ca13 O59 2.456716 1_555
Ca13 O19 2.472908 1_555
Ca13 O26 2.579900 1_556
Ca13 O7 2.589480 1_555
Ca13 O14 2.672849 1_556
Ca14 O70 2.362737 1_555
Ca14 O46 2.433243 1_555
Ca14 O2 2.459354 1_655
Ca14 O22 2.580632 1_555
Ca14 O31 2.592128 1_555
Ca14 O62 2.622106 1_555
Ca14 O11 2.638662 1_655
Ca14 O58 2.879579 1_655
Ca15 O47 2.334952 1_555
Ca15 O71 2.338588 1_555
Ca15 O63 2.493395 1_555
Ca15 O3 2.536564 1_655
Ca15 O23 2.548972 1_555
Ca15 O30 2.558692 1_556
Ca15 O10 2.624560 1_656
Ca15 O59 2.997128 1_655
Fe0 O57 1.885691 1_555
Fe0 O33 1.891299 1_555
Fe0 O75 1.926624 1_545
Fe0 O69 1.933790 1_455
Fe1 O59 1.878930 1_555
Fe1 O35 1.880058 1_555
Fe1 O73 1.941275 1_555
Fe1 O71 1.965028 1_455
Fe2 O63 1.883035 1_555
Fe2 O39 1.905809 1_555
Fe2 O77 1.932654 1_555
Fe2 O67 1.952477 1_555
Fe3 O41 1.875261 1_555
Fe3 O49 1.902943 1_555
Fe3 O67 1.944341 1_555
Fe3 O73 1.948464 1_555
Fe4 O50 1.879177 1_555
Fe4 O42 1.898244 1_555
Fe4 O64 1.923391 1_565
Fe4 O74 1.952395 1_555
Fe5 O51 1.871467 1_555
Fe5 O43 1.897296 1_555
Fe5 O65 1.933395 1_565
Fe5 O75 1.955244 1_555
Fe6 O45 1.869114 1_555
Fe6 O53 1.886676 1_555
Fe6 O71 1.942181 1_555
Fe6 O77 1.960446 1_555
Fe7 O55 1.888673 1_555
Fe7 O47 1.890474 1_555
Fe7 O69 1.934438 1_565
Fe7 O79 1.942973 1_555
Co0 O10 1.933926 1_545
Co0 O1 1.946992 1_554
Co0 O21 1.947061 1_454
Co0 O30 2.012497 1_445
Co0 O32 2.215684 1_555
Co0 O47 2.311174 1_444
Co1 O0 1.835463 1_565
Co1 O31 1.836914 1_455
Co1 O11 1.989165 1_555
Co1 O20 2.013364 1_465
Co1 O46 2.265933 1_455
Co1 O33 2.359205 1_565
Co2 O23 1.849118 1_454
Co2 O8 1.869093 1_555
Co2 O28 1.975608 1_455
Co2 O3 2.113935 1_554
Co2 O34 2.126952 1_555
Co2 O45 2.195407 1_454
Co3 O29 1.966356 1_455
Co3 O2 1.994576 1_555
Co3 O22 2.025436 1_455
Co3 O9 2.067572 1_555
Co3 O44 2.242064 1_455
Co3 O35 2.301260 1_555
Co4 O17 1.851640 1_554
Co4 O14 1.868914 1_545
Co4 O5 2.010171 1_554
Co4 O26 2.064821 1_545
Co4 O36 2.137037 1_555
Co4 O43 2.241764 1_544
Co5 O27 1.841389 1_555
Co5 O4 1.859729 1_565
Co5 O16 2.065479 1_565
Co5 O15 2.080462 1_555
Co5 O42 2.140506 1_555
Co5 O37 2.305852 1_565
Co6 O19 1.925882 1_554
Co6 O12 1.941374 1_555
Co6 O24 1.976620 1_555
Co6 O7 2.053457 1_554
Co6 O38 2.211759 1_555
Co6 O41 2.264695 1_554
Co7 O6 1.836479 1_555
Co7 O25 1.843209 1_555
Co7 O13 2.015509 1_555
Co7 O18 2.021985 1_555
Co7 O39 2.218159 1_555
Co7 O40 2.413643 1_555
Co8 O1 1.950620 1_554
Co8 O24 1.965796 1_555
Co8 O8 2.047786 1_555
Co8 O17 2.059379 1_554
Co8 O48 2.095925 1_555
Co8 O57 2.138510 1_554
Co9 O16 1.845287 1_555
Co9 O9 1.850961 1_555
Co9 O0 2.041690 1_555
Co9 O25 2.072380 1_555
Co9 O56 2.239751 1_555
Co9 O49 2.279224 1_555
Co10 O3 1.830518 1_554
Co10 O26 1.853584 1_555
Co10 O19 1.981324 1_554
Co10 O10 1.983386 1_555
Co10 O50 2.147669 1_555
Co10 O59 2.321821 1_554
Co11 O11 1.898258 1_555
Co11 O18 1.900763 1_555
Co11 O2 1.945327 1_555
Co11 O27 2.009838 1_555
Co11 O51 2.327190 1_555
Co11 O58 2.352142 1_555
Co12 O28 1.886623 1_555
Co12 O5 1.891302 1_554
Co12 O12 1.952608 1_555
Co12 O21 2.007221 1_554
Co12 O52 2.103030 1_555
Co12 O61 2.522112 1_554
Co13 O13 1.896872 1_555
Co13 O20 1.907762 1_555
Co13 O29 1.960154 1_555
Co13 O4 2.027916 1_555
Co13 O60 2.321932 1_555
Co13 O53 2.354802 1_555
Co14 O7 1.851865 1_554
Co14 O30 1.875070 1_555
Co14 O23 2.063068 1_554
Co14 O14 2.068273 1_555
Co14 O54 2.178577 1_555
Co14 O63 2.219673 1_554
Co15 O22 1.843066 1_555
Co15 O15 1.848360 1_555
Co15 O6 2.050078 1_555
Co15 O31 2.075433 1_555
Co15 O62 2.199181 1_555
Co15 O55 2.261787 1_555
Co16 O32 1.803231 1_555
Co16 O56 1.821408 1_555
Co16 O68 1.954937 1_455
Co16 O74 1.964067 1_545
Co17 O58 1.810123 1_555
Co17 O34 1.828070 1_555
Co17 O72 1.935494 1_555
Co17 O70 1.975283 1_455
Co18 O60 1.808845 1_555
Co18 O36 1.812035 1_555
Co18 O78 1.944911 1_545
Co18 O64 1.981454 1_555
Co19 O61 1.801103 1_555
Co19 O37 1.814121 1_555
Co19 O79 1.967156 1_545
Co19 O65 1.988047 1_555
Co20 O38 1.819254 1_555
Co20 O62 1.826051 1_555
Co20 O76 1.936711 1_555
Co20 O66 1.975171 1_555
Co21 O40 1.802267 1_555
Co21 O48 1.828156 1_555
Co21 O66 1.949052 1_555
Co21 O72 1.955447 1_555
Co22 O44 1.809304 1_555
Co22 O52 1.817602 1_555
Co22 O70 1.948821 1_555
Co22 O76 1.959655 1_555
Co23 O54 1.822951 1_555
Co23 O46 1.842607 1_555
Co23 O68 1.931008 1_565
Co23 O78 1.964209 1_555
O0 Sr14 2.649983 1_455
O0 Sr8 2.700060 1_555
O1 Sr15 2.595892 1_455
O2 Sr3 2.576696 1_555
O2 Sr9 2.656518 1_555
O2 Sr0 2.725347 1_555
O3 Sr4 2.580540 1_555
O4 Sr1 2.638309 1_555
O4 Sr6 2.643608 1_545
O4 Sr12 2.646230 1_555
O4 Sr10 2.660870 1_555
O5 Sr13 2.547334 1_555
O5 Sr7 2.615477 1_545
O6 Sr5 2.592029 1_555
O6 Sr2 2.718715 1_555
O6 Sr11 2.724967 1_555
O8 Sr4 2.664184 1_554
O8 Sr15 2.735090 1_454
O9 Sr0 2.624784 1_555
O9 Sr8 2.631018 1_555
O9 Sr14 2.668488 1_455
O9 Sr3 2.717850 1_555
O11 Sr9 2.627347 1_555
O12 Sr13 2.725811 1_554
O13 Sr10 2.581750 1_555
O13 Sr2 2.627210 1_555
O13 Sr12 2.627524 1_555
O13 Sr5 2.676384 1_555
O14 Sr7 2.709426 1_554
O15 Sr11 2.613087 1_555
O15 Sr1 2.655093 1_565
O15 Sr6 2.683212 1_555
O16 Sr12 2.622434 1_555
O16 Sr10 2.715101 1_555
O17 Sr13 2.653800 1_555
O18 Sr3 2.585745 1_555
O18 Sr11 2.667788 1_555
O18 Sr0 2.750694 1_555
O19 Sr4 2.566123 1_555
O20 Sr14 2.600952 1_555
O20 Sr6 2.607991 1_545
O20 Sr1 2.619851 1_555
O20 Sr8 2.630413 1_655
O21 Sr7 2.549402 1_545
O21 Sr15 2.566804 1_555
O22 Sr5 2.643241 1_555
O22 Sr9 2.673727 1_655
O22 Sr2 2.713778 1_555
O24 Sr4 2.668210 1_554
O24 Sr13 2.728708 1_554
O25 Sr0 2.613735 1_555
O25 Sr10 2.666549 1_555
O25 Sr12 2.676883 1_555
O25 Sr3 2.685115 1_555
O27 Sr11 2.616829 1_555
O28 Sr15 2.692865 1_554
O29 Sr2 2.572434 1_555
O29 Sr8 2.591521 1_655
O29 Sr14 2.653270 1_555
O29 Sr5 2.673254 1_555
O30 Sr7 2.728831 1_554
O31 Sr9 2.610088 1_655
O31 Sr1 2.636863 1_565
O31 Sr6 2.683151 1_555
O33 Sr8 2.542363 1_555
O33 Sr1 2.984222 1_455
O33 Sr9 3.165782 1_545
O35 Sr9 2.520458 1_555
O35 Sr0 2.648722 1_555
O35 Sr2 2.795542 1_455
O37 Sr10 2.526518 1_555
O37 Sr1 2.665360 1_555
O37 Sr11 3.138988 1_545
O39 Sr11 2.566073 1_555
O39 Sr2 2.686179 1_555
O39 Sr0 2.863411 1_555
O39 Sr10 3.171078 1_555
O40 Sr12 2.489119 1_555
O40 Sr5 2.688724 1_555
O40 Sr3 2.834633 1_555
O41 Sr13 2.448818 1_555
O41 Sr4 2.913507 1_555
O42 Sr6 2.655442 1_555
O43 Sr7 2.600863 1_555
O44 Sr14 2.536212 1_555
O44 Sr3 2.703833 1_655
O44 Sr5 2.776433 1_555
O45 Sr15 2.459462 1_555
O45 Sr4 2.629572 1_655
O46 Sr6 2.859406 1_555
O47 Sr7 2.964446 1_555
O49 Sr10 2.642088 1_555
O49 Sr8 2.895112 1_555
O51 Sr0 2.450020 1_555
O51 Sr11 2.645025 1_555
O51 Sr9 2.794240 1_555
O53 Sr1 2.531596 1_555
O53 Sr8 2.673314 1_655
O53 Sr10 2.815163 1_555
O53 Sr2 3.186657 1_555
O55 Sr2 2.525462 1_555
O55 Sr9 2.695043 1_655
O55 Sr11 2.872952 1_555
O55 Sr1 3.203707 1_565
O56 Sr3 2.560206 1_555
O56 Sr12 2.689715 1_555
O56 Sr14 2.831909 1_455
O57 Sr4 2.488513 1_555
O57 Sr13 2.679039 1_555
O57 Sr15 2.866049 1_455
O60 Sr5 2.552429 1_555
O60 Sr14 2.668601 1_555
O60 Sr12 2.787836 1_555
O60 Sr6 3.144405 1_545
O61 Sr15 2.701914 1_555
O61 Sr13 2.783146 1_555
O62 Sr6 2.532452 1_555
O63 Sr7 2.477055 1_555
O64 Sr12 2.472039 1_555
O65 Sr13 2.470145 1_555
O67 Sr0 2.516742 1_555
O68 Sr14 2.475807 1_555
O69 Sr15 2.436804 1_555
O69 Sr1 2.444744 1_555
O71 Sr2 2.518612 1_555
O72 Sr3 2.450911 1_555
O73 Sr4 2.436063 1_555
O73 Sr8 2.456538 1_555
O75 Sr9 2.518946 1_555
O76 Sr5 2.466505 1_555
O77 Sr10 2.506300 1_555
O78 Sr6 2.460214 1_555
O79 Sr7 2.418439 1_555
O79 Sr11 2.458066 1_555
