# generated using pymatgen
data_La2H5
_symmetry_space_group_name_H-M   'P 1'
_cell_length_a   6.90826883
_cell_length_b   6.90826883
_cell_length_c   6.90826883
_cell_angle_alpha   132.40705931
_cell_angle_beta   132.40705931
_cell_angle_gamma   69.58687580
_symmetry_Int_Tables_number   1
_chemical_formula_structural   La2H5
_chemical_formula_sum   'La4 H10'
_cell_volume   176.31431454
_cell_formula_units_Z   2
loop_
 _symmetry_equiv_pos_site_id
 _symmetry_equiv_pos_as_xyz
  1  'x, y, z'
loop_
 _atom_site_type_symbol
 _atom_site_label
 _atom_site_symmetry_multiplicity
 _atom_site_fract_x
 _atom_site_fract_y
 _atom_site_fract_z
 _atom_site_occupancy
  La  La0  1  0.74850200  0.24850200  0.50000000  1
  La  La1  1  0.99850200  0.99850200  0.00000000  1
  La  La2  1  0.24051400  0.74051400  0.50000000  1
  La  La3  1  0.49051400  0.49051400  0.00000000  1
  H  H0  1  0.61843900  0.63827500  0.51772700  1
  H  H1  1  0.12054800  0.10071200  0.48227300  1
  H  H2  1  0.85071200  0.37054800  0.98227300  1
  H  H3  1  0.38827500  0.86843900  0.01772700  1
  H  H4  1  0.61843900  0.10071200  0.98016400  1
  H  H5  1  0.12054800  0.63827500  0.01983600  1
  H  H6  1  0.85071200  0.86843900  0.48016400  1
  H  H7  1  0.38827500  0.37054800  0.51983600  1
  H  H8  1  0.98901000  0.48901000  0.50000000  1
  H  H9  1  0.23901000  0.23901000  0.00000000  1
loop_
_geom_bond_atom_site_label_1
_geom_bond_atom_site_label_2
_geom_bond_distance
_geom_bond_site_symmetry_2
H0 La2 2.393587 1_555
H0 La1 2.400624 1_556
H0 La3 2.461057 1_555
H0 La0 2.467524 1_555
H1 La2 2.393587 1_545
H1 La1 2.400624 1_445
H1 La3 2.461057 1_556
H1 La0 2.467524 1_455
H2 La3 2.393587 1_556
H2 La0 2.400624 1_555
H2 La2 2.461057 1_656
H2 La1 2.467524 1_546
H3 La3 2.393587 1_555
H3 La0 2.400624 1_565
H3 La2 2.461057 1_554
H3 La1 2.467524 1_455
H4 La2 2.393587 1_545
H4 La1 2.400624 1_546
H4 La3 2.461057 1_556
H4 La0 2.467524 1_556
H5 La2 2.393587 1_555
H5 La1 2.400624 1_455
H5 La3 2.461057 1_555
H5 La0 2.467524 1_454
H6 La3 2.393587 1_555
H6 La0 2.400624 1_565
H6 La2 2.461057 1_655
H6 La1 2.467524 1_556
H7 La3 2.393587 1_556
H7 La0 2.400624 1_555
H7 La2 2.461057 1_555
H7 La1 2.467524 1_445
H8 La0 2.728886 1_555
H8 La3 2.787462 1_656
H8 La3 2.787462 1_555
H8 La1 2.789490 1_556
H8 La1 2.789490 1_545
H8 La2 2.853650 1_655
H9 La1 2.728886 1_445
H9 La2 2.787462 1_544
H9 La2 2.787462 1_555
H9 La0 2.789490 1_555
H9 La0 2.789490 1_454
H9 La3 2.853650 1_555
