# generated using pymatgen
data_U2Al3Fe
_symmetry_space_group_name_H-M   'P 1'
_cell_length_a   5.41773210
_cell_length_b   5.41773210
_cell_length_c   5.41773232
_cell_angle_alpha   57.25301290
_cell_angle_beta   57.25301290
_cell_angle_gamma   57.25302435
_symmetry_Int_Tables_number   1
_chemical_formula_structural   U2Al3Fe
_chemical_formula_sum   'U2 Al3 Fe1'
_cell_volume   105.33122380
_cell_formula_units_Z   1
loop_
 _symmetry_equiv_pos_site_id
 _symmetry_equiv_pos_as_xyz
  1  'x, y, z'
loop_
 _atom_site_type_symbol
 _atom_site_label
 _atom_site_symmetry_multiplicity
 _atom_site_fract_x
 _atom_site_fract_y
 _atom_site_fract_z
 _atom_site_occupancy
  U  U0  1  0.13593700  0.13593700  0.13593700  1
  U  U1  1  0.86406300  0.86406300  0.86406300  1
  Al  Al0  1  0.50000000  0.00000000  0.50000000  1
  Al  Al1  1  0.00000000  0.50000000  0.50000000  1
  Al  Al2  1  0.50000000  0.50000000  0.00000000  1
  Fe  Fe0  1  0.50000000  0.50000000  0.50000000  1
loop_
_geom_bond_atom_site_label_1
_geom_bond_atom_site_label_2
_geom_bond_distance
_geom_bond_site_symmetry_2
U0 U1 3.110541 1_445
U0 U1 3.110541 1_454
U0 U1 3.110541 1_544
Al0 Al2 2.595625 1_546
Al0 Al2 2.595625 1_555
Al0 Al1 2.595625 1_555
Al0 Al1 2.595625 1_645
Al0 Fe0 2.708866 1_555
Al0 Fe0 2.708866 1_545
Al0 U1 3.064122 1_545
Al0 U0 3.064122 1_555
Al0 U0 3.181949 1_655
Al0 U1 3.181949 1_445
Al0 U0 3.181949 1_556
Al0 U1 3.181949 1_544
Al1 Al2 2.595625 1_555
Al1 Al2 2.595625 1_456
Al1 Fe0 2.708866 1_555
Al1 Fe0 2.708866 1_455
Al1 U1 3.064122 1_455
Al1 U0 3.064122 1_555
Al1 U0 3.181949 1_565
Al1 U1 3.181949 1_445
Al1 U0 3.181949 1_556
Al1 U1 3.181949 1_454
Al2 Fe0 2.708866 1_554
Al2 Fe0 2.708866 1_555
Al2 U1 3.064122 1_554
Al2 U0 3.064122 1_555
Al2 U0 3.181949 1_655
Al2 U0 3.181949 1_565
Al2 U1 3.181949 1_454
Al2 U1 3.181949 1_544
Fe0 U1 3.025910 1_554
Fe0 U0 3.025910 1_556
Fe0 U1 3.025911 1_545
Fe0 U1 3.025911 1_455
Fe0 U0 3.025911 1_565
Fe0 U0 3.025911 1_655
