# generated using pymatgen
data_Gd2SbO2
_symmetry_space_group_name_H-M   'P 1'
_cell_length_a   7.27064775
_cell_length_b   7.27064775
_cell_length_c   7.27064775
_cell_angle_alpha   148.96848297
_cell_angle_beta   148.85622634
_cell_angle_gamma   44.54039873
_symmetry_Int_Tables_number   1
_chemical_formula_structural   Gd2SbO2
_chemical_formula_sum   'Gd2 Sb1 O2'
_cell_volume   102.16455398
_cell_formula_units_Z   1
loop_
 _symmetry_equiv_pos_site_id
 _symmetry_equiv_pos_as_xyz
  1  'x, y, z'
loop_
 _atom_site_type_symbol
 _atom_site_label
 _atom_site_symmetry_multiplicity
 _atom_site_fract_x
 _atom_site_fract_y
 _atom_site_fract_z
 _atom_site_occupancy
  Gd  Gd0  1  0.33614300  0.32393600  0.98779300  1
  Gd  Gd1  1  0.66385700  0.65165100  0.98779300  1
  Sb  Sb0  1  0.00000000  0.96780400  0.96780400  1
  O  O0  1  0.75016700  0.23627200  0.48610500  1
  O  O1  1  0.24983300  0.73593800  0.48610500  1
loop_
_geom_bond_atom_site_label_1
_geom_bond_atom_site_label_2
_geom_bond_distance
_geom_bond_site_symmetry_2
Gd0 O1 2.259684 1_556
Gd0 O0 2.268927 1_556
Gd0 O0 2.268927 1_455
Gd0 O1 2.270959 1_545
Gd0 Sb0 3.486780 1_656
Gd0 Sb0 3.486780 1_555
Gd0 Sb0 3.572470 1_645
Gd0 Sb0 3.572470 1_544
Gd1 O0 2.259679 1_566
Gd1 O1 2.268922 1_555
Gd1 O1 2.268926 1_656
Gd1 O0 2.270957 1_555
Gd1 Sb0 3.486782 1_555
Gd1 Sb0 3.486784 1_656
Gd1 Sb0 3.572474 1_544
Gd1 Sb0 3.572476 1_645
