# generated using pymatgen
data_IrO3
_symmetry_space_group_name_H-M   'P 1'
_cell_length_a   7.06581952
_cell_length_b   7.28694771
_cell_length_c   7.22389123
_cell_angle_alpha   90.00042255
_cell_angle_beta   90.00032072
_cell_angle_gamma   90.00037837
_symmetry_Int_Tables_number   1
_chemical_formula_structural   IrO3
_chemical_formula_sum   'Ir8 O24'
_cell_volume   371.94557094
_cell_formula_units_Z   8
loop_
 _symmetry_equiv_pos_site_id
 _symmetry_equiv_pos_as_xyz
  1  'x, y, z'
loop_
 _atom_site_type_symbol
 _atom_site_label
 _atom_site_symmetry_multiplicity
 _atom_site_fract_x
 _atom_site_fract_y
 _atom_site_fract_z
 _atom_site_occupancy
  Ir  Ir0  1  0.24996521  0.49992315  0.25001064  1
  Ir  Ir1  1  0.75000562  0.50006299  0.24997833  1
  Ir  Ir2  1  0.24999894  0.99993686  0.24997646  1
  Ir  Ir3  1  0.75003260  0.00007483  0.25001458  1
  Ir  Ir4  1  0.75003501  0.50007551  0.74998792  1
  Ir  Ir5  1  0.24999010  0.49993674  0.75002162  1
  Ir  Ir6  1  0.75000327  0.00006622  0.75002673  1
  Ir  Ir7  1  0.24996502  0.99992606  0.74998992  1
  O  O0  1  0.33169687  0.49980741  0.00000352  1
  O  O1  1  0.83172885  0.50019935  0.49998673  1
  O  O2  1  0.16828309  0.99982068  0.49999806  1
  O  O3  1  0.66829481  0.00020998  0.00000886  1
  O  O4  1  0.66828727  0.50017864  -0.00001566  1
  O  O5  1  0.16828215  0.49979983  0.50002002  1
  O  O6  1  0.83172066  0.00018127  0.50002392  1
  O  O7  1  0.33170165  0.99980177  -0.00002729  1
  O  O8  1  0.99996674  0.92709983  0.83385585  1
  O  O9  1  0.49996395  0.07290934  0.66625473  1
  O  O10  1  0.50002250  0.42710346  0.66627514  1
  O  O11  1  0.00004315  0.57288663  0.83384512  1
  O  O12  1  0.00002863  0.07290089  0.16614244  1
  O  O13  1  0.50004171  0.92709024  0.33375172  1
  O  O14  1  0.49995256  0.57290389  0.33374541  1
  O  O15  1  0.99997834  0.42710049  0.16613167  1
  O  O16  1  0.32201577  0.24992473  0.27143033  1
  O  O17  1  0.82210810  0.25009230  0.77146497  1
  O  O18  1  0.17790830  0.24991680  0.77148395  1
  O  O19  1  0.67797986  0.75008786  0.72857536  1
  O  O20  1  0.67799200  0.25009631  0.27144579  1
  O  O21  1  0.17791041  0.74989666  0.22852987  1
  O  O22  1  0.82208966  0.75008206  0.22851012  1
  O  O23  1  0.32200522  0.74990521  0.72855816  1
loop_
_geom_bond_atom_site_label_1
_geom_bond_atom_site_label_2
_geom_bond_distance
_geom_bond_site_symmetry_2
Ir0 O5 1.896024 1_555
Ir0 O0 1.896113 1_555
Ir0 O21 1.897716 1_555
Ir0 O16 1.897846 1_555
Ir0 O14 1.941322 1_555
Ir0 O15 1.941328 1_455
Ir1 O4 1.895988 1_555
Ir1 O1 1.896097 1_555
Ir1 O20 1.897576 1_555
Ir1 O22 1.898077 1_555
Ir1 O15 1.941456 1_555
Ir1 O14 1.941550 1_555
Ir2 O7 1.896027 1_555
Ir2 O2 1.896178 1_555
Ir2 O16 1.897720 1_565
Ir2 O21 1.898218 1_555
Ir2 O12 1.941411 1_565
Ir2 O13 1.941510 1_555
Ir3 O6 1.896028 1_555
Ir3 O3 1.896110 1_555
Ir3 O22 1.897867 1_545
Ir3 O20 1.897994 1_555
Ir3 O13 1.941366 1_545
Ir3 O12 1.941387 1_655
Ir4 O1 1.895991 1_555
Ir4 O4 1.896074 1_556
Ir4 O17 1.897816 1_555
Ir4 O19 1.897948 1_555
Ir4 O11 1.941393 1_655
Ir4 O10 1.941416 1_555
Ir5 O0 1.895880 1_556
Ir5 O5 1.896018 1_555
Ir5 O23 1.897589 1_555
Ir5 O18 1.898075 1_555
Ir5 O11 1.941213 1_555
Ir5 O10 1.941356 1_555
Ir6 O3 1.895891 1_556
Ir6 O6 1.896052 1_555
Ir6 O19 1.897665 1_545
Ir6 O17 1.898145 1_555
Ir6 O8 1.941361 1_545
Ir6 O9 1.941474 1_555
Ir7 O2 1.895895 1_555
Ir7 O7 1.895950 1_556
Ir7 O18 1.897846 1_565
Ir7 O23 1.897989 1_555
Ir7 O8 1.941388 1_455
Ir7 O9 1.941411 1_565
