# generated using pymatgen
data_K2Fe2SeS3
_symmetry_space_group_name_H-M   'P 1'
_cell_length_a   5.45218300
_cell_length_b   6.68242389
_cell_length_c   6.69702933
_cell_angle_alpha   116.07857269
_cell_angle_beta   101.02191655
_cell_angle_gamma   101.88592990
_symmetry_Int_Tables_number   1
_chemical_formula_structural   K2Fe2SeS3
_chemical_formula_sum   'K2 Fe2 Se1 S3'
_cell_volume   203.14308799
_cell_formula_units_Z   1
loop_
 _symmetry_equiv_pos_site_id
 _symmetry_equiv_pos_as_xyz
  1  'x, y, z'
loop_
 _atom_site_type_symbol
 _atom_site_label
 _atom_site_symmetry_multiplicity
 _atom_site_fract_x
 _atom_site_fract_y
 _atom_site_fract_z
 _atom_site_occupancy
  K  K0  1  0.24475200  0.72038100  0.64035000  1
  K  K1  1  0.74468400  0.28292300  0.35116700  1
  Fe  Fe0  1  0.24878000  0.98696700  0.00941200  1
  Fe  Fe1  1  0.75691700  0.00349200  0.00267500  1
  Se  Se0  1  0.40125200  0.22839300  0.68599000  1
  S  S0  1  0.10440200  0.20241200  0.09458200  1
  S  S1  1  0.59782100  0.79058800  0.29495000  1
  S  S2  1  0.90139200  0.78484400  0.92087400  1
loop_
_geom_bond_atom_site_label_1
_geom_bond_atom_site_label_2
_geom_bond_distance
_geom_bond_site_symmetry_2
K0 Se0 3.184435 1_565
K0 S1 3.400166 1_555
K0 Se0 3.683697 1_555
K1 S1 3.052455 1_545
K1 Se0 3.272555 1_555
Fe0 S0 1.712960 1_565
Fe0 S2 1.890998 1_454
Fe0 K0 2.318374 1_554
Fe1 S2 1.729380 1_544
Fe1 S0 1.879499 1_655
Fe1 K1 2.284152 1_555
Fe1 S1 3.032673 1_545
