# generated using pymatgen
data_TaPb2N3
_symmetry_space_group_name_H-M   'P 1'
_cell_length_a   6.45618500
_cell_length_b   11.31117711
_cell_length_c   13.24931038
_cell_angle_alpha   89.99999712
_cell_angle_beta   89.88387984
_cell_angle_gamma   151.16299865
_symmetry_Int_Tables_number   1
_chemical_formula_structural   TaPb2N3
_chemical_formula_sum   'Ta4 Pb8 N12'
_cell_volume   466.66799699
_cell_formula_units_Z   4
loop_
 _symmetry_equiv_pos_site_id
 _symmetry_equiv_pos_as_xyz
  1  'x, y, z'
loop_
 _atom_site_type_symbol
 _atom_site_label
 _atom_site_symmetry_multiplicity
 _atom_site_fract_x
 _atom_site_fract_y
 _atom_site_fract_z
 _atom_site_occupancy
  Ta  Ta0  1  0.51120000  0.25284600  0.66359600  1
  Ta  Ta1  1  0.48880000  0.74164700  0.83640400  1
  Ta  Ta2  1  0.48880000  0.74715400  0.33640400  1
  Ta  Ta3  1  0.51120000  0.25835300  0.16359600  1
  Pb  Pb0  1  0.57101800  0.10980900  0.88663600  1
  Pb  Pb1  1  0.42898200  0.53879200  0.61336400  1
  Pb  Pb2  1  0.42898200  0.89019100  0.11336400  1
  Pb  Pb3  1  0.57101800  0.46120800  0.38663600  1
  Pb  Pb4  1  0.56933000  0.91477000  0.58088300  1
  Pb  Pb5  1  0.43067000  0.34544000  0.91911700  1
  Pb  Pb6  1  0.43067000  0.08523000  0.41911700  1
  Pb  Pb7  1  0.56933000  0.65456000  0.08088300  1
  N  N0  1  0.00000000  0.53833700  0.75000000  1
  N  N1  1  0.00000000  0.46166300  0.25000000  1
  N  N2  1  0.64495000  0.16811500  0.59719700  1
  N  N3  1  0.35505000  0.52316500  0.90280300  1
  N  N4  1  0.35505000  0.83188500  0.40280300  1
  N  N5  1  0.64495000  0.47683500  0.09719700  1
  N  N6  1  0.39360500  0.08179300  0.05715100  1
  N  N7  1  0.60639500  0.68818800  0.44284900  1
  N  N8  1  0.60639500  0.91820700  0.94284900  1
  N  N9  1  0.39360500  0.31181200  0.55715100  1
  N  N10  1  0.00000000  0.99202900  0.75000000  1
  N  N11  1  0.00000000  0.00797100  0.25000000  1
loop_
_geom_bond_atom_site_label_1
_geom_bond_atom_site_label_2
_geom_bond_distance
_geom_bond_site_symmetry_2
N0 Ta1 1.964176 1_555
N0 Ta0 1.964179 1_455
N1 Ta3 1.964176 1_455
N1 Ta2 1.964179 1_555
N2 Ta0 1.971044 1_555
N2 Pb4 2.458906 1_545
N2 Pb1 2.463559 1_655
N2 Pb6 2.469954 1_555
N3 Ta1 1.971053 1_555
N3 Pb5 2.458906 1_555
N3 Pb0 2.463561 1_455
N3 Pb7 2.469954 1_556
N4 Ta2 1.971044 1_555
N4 Pb6 2.458906 1_565
N4 Pb3 2.463559 1_455
N4 Pb4 2.469954 1_555
N5 Ta3 1.971053 1_555
N5 Pb7 2.458906 1_555
N5 Pb2 2.463561 1_655
N5 Pb5 2.469954 1_554
N6 Ta3 1.975285 1_555
N6 Pb0 2.422805 1_554
N6 Pb2 2.484299 1_545
N6 Pb7 2.590256 1_445
N7 Ta2 1.975293 1_555
N7 Pb1 2.422802 1_555
N7 Pb3 2.484310 1_555
N7 Pb6 2.590256 1_665
N8 Ta1 1.975285 1_555
N8 Pb2 2.422805 1_556
N8 Pb0 2.484299 1_565
N8 Pb5 2.590256 1_665
N9 Ta0 1.975293 1_555
N9 Pb3 2.422802 1_555
N9 Pb1 2.484310 1_555
N9 Pb4 2.590256 1_445
N10 Ta0 1.957728 1_565
N10 Ta1 1.957728 1_455
N11 Ta2 1.957728 1_445
N11 Ta3 1.957728 1_555
