# generated using pymatgen
data_Mg(C4N3)2
_symmetry_space_group_name_H-M   'P 1'
_cell_length_a   12.91377939
_cell_length_b   12.91842327
_cell_length_c   5.73710917
_cell_angle_alpha   90.02906198
_cell_angle_beta   89.98546633
_cell_angle_gamma   120.01189892
_symmetry_Int_Tables_number   1
_chemical_formula_structural   Mg(C4N3)2
_chemical_formula_sum   'Mg3 C24 N18'
_cell_volume   828.77086991
_cell_formula_units_Z   3
loop_
 _symmetry_equiv_pos_site_id
 _symmetry_equiv_pos_as_xyz
  1  'x, y, z'
loop_
 _atom_site_type_symbol
 _atom_site_label
 _atom_site_symmetry_multiplicity
 _atom_site_fract_x
 _atom_site_fract_y
 _atom_site_fract_z
 _atom_site_occupancy
  Mg  Mg0  1  0.00000000  0.00005600  0.14955900  1
  Mg  Mg1  1  0.33333000  0.66663100  0.89193200  1
  Mg  Mg2  1  0.66667000  0.33330200  0.89193200  1
  C  C0  1  0.00000000  0.65999300  0.22615900  1
  C  C1  1  0.65962000  0.00006800  0.22586900  1
  C  C2  1  0.34038000  0.34044700  0.22586900  1
  C  C3  1  0.00000000  0.76402300  0.29274200  1
  C  C4  1  0.76397000  0.00018500  0.29291000  1
  C  C5  1  0.23603000  0.23621500  0.29291000  1
  C  C6  1  0.10684300  0.66236200  0.16749500  1
  C  C7  1  0.55551700  0.89333000  0.16734000  1
  C  C8  1  0.33771000  0.44460200  0.16726900  1
  C  C9  1  0.89315700  0.55551900  0.16749500  1
  C  C10  1  0.66229000  0.10689300  0.16726900  1
  C  C11  1  0.44448300  0.33781300  0.16734000  1
  C  C12  1  0.68216800  0.68194600  0.73858100  1
  C  C13  1  0.00000000  0.31775800  0.73873600  1
  C  C14  1  0.31783200  0.99977700  0.73858100  1
  C  C15  1  0.78131200  0.78123500  0.83945700  1
  C  C16  1  0.00000000  0.21862000  0.83954700  1
  C  C17  1  0.21868800  0.99992500  0.83945700  1
  C  C18  1  0.57492100  0.68303800  0.70933600  1
  C  C19  1  0.10823300  0.42492800  0.70956600  1
  C  C20  1  0.31685200  0.89171700  0.70964900  1
  C  C21  1  0.42507900  0.10811600  0.70933600  1
  C  C22  1  0.68314900  0.57486500  0.70964900  1
  C  C23  1  0.89176700  0.31669500  0.70956600  1
  N  N0  1  0.00000000  0.85250500  0.34006500  1
  N  N1  1  0.85244500  0.00013900  0.34041700  1
  N  N2  1  0.14755500  0.14769500  0.34041700  1
  N  N3  1  0.19228000  0.65985600  0.10857900  1
  N  N4  1  0.46771100  0.80784000  0.10842600  1
  N  N5  1  0.34015200  0.53240700  0.10826400  1
  N  N6  1  0.80772000  0.46757500  0.10857900  1
  N  N7  1  0.65984800  0.19225500  0.10826400  1
  N  N8  1  0.53228900  0.34013000  0.10842600  1
  N  N9  1  0.86252400  0.86254000  0.92939600  1
  N  N10  1  0.00000000  0.13743200  0.92946600  1
  N  N11  1  0.13747600  0.00001600  0.92939600  1
  N  N12  1  0.48462900  0.68345600  0.69265300  1
  N  N13  1  0.19885100  0.51524000  0.69284000  1
  N  N14  1  0.31648400  0.80106200  0.69316400  1
  N  N15  1  0.51537100  0.19882700  0.69265300  1
  N  N16  1  0.68351600  0.48457800  0.69316400  1
  N  N17  1  0.80114900  0.31638900  0.69284000  1
loop_
_geom_bond_atom_site_label_1
_geom_bond_atom_site_label_2
_geom_bond_distance
_geom_bond_site_symmetry_2
Mg0 N10 2.178571 1_554
Mg0 N9 2.178764 1_444
Mg0 N11 2.178764 1_554
Mg0 N0 2.197721 1_545
Mg0 N1 2.197920 1_455
Mg0 N2 2.197926 1_555
Mg1 N5 2.170212 1_556
Mg1 N3 2.170215 1_556
Mg1 N4 2.171149 1_556
Mg1 N14 2.178005 1_555
Mg1 N12 2.178563 1_555
Mg1 N13 2.178661 1_555
Mg2 N6 2.170205 1_556
Mg2 N7 2.170222 1_556
Mg2 N8 2.171149 1_556
Mg2 N16 2.177994 1_555
Mg2 N15 2.178567 1_555
Mg2 N17 2.178667 1_555
C0 C3 1.396952 1_555
C0 C9 1.405506 1_455
C0 C6 1.405506 1_555
C1 C4 1.400735 1_555
C1 C7 1.402413 1_545
C1 C10 1.404105 1_555
C2 C5 1.400729 1_555
C2 C8 1.404105 1_555
C3 N0 1.174715 1_555
C4 N1 1.174962 1_555
C5 N2 1.174956 1_555
C6 N3 1.169671 1_555
C7 N4 1.169085 1_555
C8 N5 1.169115 1_555
C9 N6 1.169678 1_555
C10 N7 1.169103 1_555
C11 N8 1.169079 1_555
C11 C2 1.402406 1_555
C12 C22 1.399491 1_555
C12 C18 1.402191 1_555
C12 C15 1.405770 1_555
C13 C19 1.400953 1_555
C13 C23 1.400953 1_455
C13 C16 1.405513 1_555
C14 C20 1.399472 1_555
C14 C21 1.402191 1_565
C14 C17 1.405788 1_555
C15 N9 1.169238 1_555
C16 N10 1.169060 1_555
C17 N11 1.169226 1_565
C18 N12 1.172658 1_555
C19 N13 1.172207 1_555
C20 N14 1.172522 1_555
C21 N15 1.172665 1_555
C22 N16 1.172516 1_555
C23 N17 1.172207 1_555
