# generated using pymatgen
data_Nd2Ga3(Fe7C)2
_symmetry_space_group_name_H-M   'P 1'
_cell_length_a   6.54127088
_cell_length_b   6.54127088
_cell_length_c   6.51970192
_cell_angle_alpha   83.85229848
_cell_angle_beta   83.85229848
_cell_angle_gamma   83.68266372
_symmetry_Int_Tables_number   1
_chemical_formula_structural   Nd2Ga3(Fe7C)2
_chemical_formula_sum   'Nd2 Ga3 Fe14 C2'
_cell_volume   274.39282525
_cell_formula_units_Z   1
loop_
 _symmetry_equiv_pos_site_id
 _symmetry_equiv_pos_as_xyz
  1  'x, y, z'
loop_
 _atom_site_type_symbol
 _atom_site_label
 _atom_site_symmetry_multiplicity
 _atom_site_fract_x
 _atom_site_fract_y
 _atom_site_fract_z
 _atom_site_occupancy
  Nd  Nd0  1  0.34839800  0.34839800  0.33631000  1
  Nd  Nd1  1  0.65160200  0.65160200  0.66369000  1
  Ga  Ga0  1  0.00000000  0.00000000  0.50000000  1
  Ga  Ga1  1  0.00000000  0.50000000  0.00000000  1
  Ga  Ga2  1  0.50000000  0.00000000  0.00000000  1
  Fe  Fe0  1  0.09228300  0.09228300  0.09358400  1
  Fe  Fe1  1  0.90771700  0.90771700  0.90641600  1
  Fe  Fe2  1  0.65735400  0.65735400  0.15165900  1
  Fe  Fe3  1  0.65489200  0.14852200  0.65695000  1
  Fe  Fe4  1  0.14852200  0.65489200  0.65695000  1
  Fe  Fe5  1  0.34264600  0.34264600  0.84834100  1
  Fe  Fe6  1  0.34510800  0.85147800  0.34305000  1
  Fe  Fe7  1  0.85147800  0.34510800  0.34305000  1
  Fe  Fe8  1  0.71457000  0.28543000  0.00000000  1
  Fe  Fe9  1  0.28602600  0.00071200  0.71337900  1
  Fe  Fe10  1  0.99928800  0.71397400  0.28662100  1
  Fe  Fe11  1  0.71397400  0.99928800  0.28662100  1
  Fe  Fe12  1  0.00071200  0.28602600  0.71337900  1
  Fe  Fe13  1  0.28543000  0.71457000  0.00000000  1
  C  C0  1  0.50000000  0.00000000  0.50000000  1
  C  C1  1  0.00000000  0.50000000  0.50000000  1
loop_
_geom_bond_atom_site_label_1
_geom_bond_atom_site_label_2
_geom_bond_distance
_geom_bond_site_symmetry_2
Ga0 Nd1 3.409902 1_445
Ga0 Nd0 3.409902 1_555
Ga1 Nd0 3.330460 1_555
Ga1 Nd1 3.330460 1_454
Ga2 Nd1 3.330460 1_544
Ga2 Nd0 3.330460 1_555
Fe0 Fe1 2.314317 1_444
Fe0 Ga0 2.672971 1_555
Fe0 Ga1 2.688038 1_555
Fe0 Ga2 2.688038 1_555
Fe0 Fe7 2.704742 1_455
Fe0 Fe6 2.704742 1_545
Fe0 Fe5 2.718296 1_554
Fe0 Fe8 2.746597 1_455
Fe0 Fe13 2.746597 1_545
Fe0 Fe11 2.752810 1_445
Fe0 Fe10 2.752810 1_445
Fe0 Fe9 2.754555 1_554
Fe0 Fe12 2.754555 1_554
Fe0 Nd0 3.141821 1_555
Fe1 Ga0 2.672971 1_665
Fe1 Ga1 2.688038 1_656
Fe1 Ga2 2.688038 1_566
Fe1 Fe4 2.704742 1_655
Fe1 Fe3 2.704742 1_565
Fe1 Fe2 2.718296 1_556
Fe1 Fe8 2.746597 1_566
Fe1 Fe13 2.746597 1_656
Fe1 Fe12 2.752810 1_665
Fe1 Fe9 2.752810 1_665
Fe1 Fe10 2.754555 1_556
Fe1 Fe11 2.754555 1_556
Fe1 Nd1 3.141821 1_555
Fe2 Ga2 2.509250 1_565
Fe2 Ga1 2.509250 1_655
Fe2 Fe6 2.562020 1_555
Fe2 Fe7 2.562020 1_555
Fe2 Fe8 2.696686 1_555
Fe2 Nd0 3.078071 1_555
Fe2 Nd1 3.189954 1_554
Fe2 Nd1 3.330693 1_555
Fe3 Ga2 2.497716 1_556
Fe3 Ga0 2.514460 1_655
Fe3 Fe5 2.562020 1_555
Fe3 Fe8 2.578692 1_556
Fe4 Ga1 2.497716 1_556
Fe4 Ga0 2.514460 1_565
Fe4 Fe5 2.562020 1_555
Fe5 Ga1 2.509250 1_556
Fe5 Ga2 2.509250 1_556
Fe5 Fe9 2.566672 1_555
Fe5 Fe8 2.696686 1_556
Fe5 Nd1 3.078071 1_555
Fe5 Nd0 3.189954 1_556
Fe5 Nd0 3.330693 1_555
Fe6 Ga2 2.497716 1_565
Fe6 Ga0 2.514460 1_565
Fe7 Ga1 2.497716 1_655
Fe7 Ga0 2.514460 1_655
Fe7 Fe8 2.578692 1_555
Fe8 Ga2 2.456147 1_555
Fe8 Ga1 2.456147 1_655
Fe8 Nd1 3.092880 1_554
Fe8 Nd0 3.092880 1_555
Fe9 Ga0 2.448816 1_555
Fe9 Ga2 2.451113 1_556
Fe10 Ga0 2.448816 1_665
Fe10 Ga1 2.451113 1_655
Fe10 Fe13 2.499255 1_655
Fe10 Fe2 2.566672 1_555
Fe11 Ga0 2.448816 1_665
Fe11 Ga2 2.451113 1_565
Fe11 Fe8 2.499255 1_565
Fe11 Fe2 2.566672 1_555
Fe12 Ga0 2.448816 1_555
Fe12 Ga1 2.451113 1_556
Fe12 Fe8 2.499255 1_456
Fe12 Fe5 2.566672 1_555
Fe13 Ga2 2.456147 1_565
Fe13 Ga1 2.456147 1_555
Fe13 Fe9 2.499255 1_564
Fe13 Fe6 2.578692 1_555
Fe13 Fe4 2.578692 1_554
Fe13 Fe2 2.696686 1_555
Fe13 Fe5 2.696686 1_554
Fe13 Nd1 3.092880 1_554
Fe13 Nd0 3.092880 1_555
C0 Fe9 1.864759 1_555
C0 Fe11 1.864759 1_545
C0 Fe3 1.915488 1_555
C0 Fe6 1.915488 1_545
C0 Nd0 2.554296 1_555
C0 Nd1 2.554296 1_545
C1 Fe10 1.864759 1_455
C1 Fe12 1.864759 1_555
C1 Fe4 1.915488 1_555
C1 Fe7 1.915488 1_455
C1 Nd0 2.554296 1_555
C1 Nd1 2.554296 1_455
