# generated using pymatgen
data_ThZr2
_symmetry_space_group_name_H-M   'P 1'
_cell_length_a   6.77999759
_cell_length_b   6.77999759
_cell_length_c   14.46418899
_cell_angle_alpha   103.24324571
_cell_angle_beta   103.24324571
_cell_angle_gamma   91.29240467
_symmetry_Int_Tables_number   1
_chemical_formula_structural   ThZr2
_chemical_formula_sum   'Th8 Zr16'
_cell_volume   628.02275690
_cell_formula_units_Z   8
loop_
 _symmetry_equiv_pos_site_id
 _symmetry_equiv_pos_as_xyz
  1  'x, y, z'
loop_
 _atom_site_type_symbol
 _atom_site_label
 _atom_site_symmetry_multiplicity
 _atom_site_fract_x
 _atom_site_fract_y
 _atom_site_fract_z
 _atom_site_occupancy
  Th  Th0_0  1  0.00000000  0.00000000  0.00000000  1
  Th  Th0_1  1  0.00000000  1.00000000  0.50000000  1
  Th  Th0_2  1  0.00000000  0.50000000  0.00000000  1
  Th  Th0_3  1  0.00000000  0.50000000  0.50000000  1
  Th  Th0_4  1  0.50000000  0.00000000  0.00000000  1
  Th  Th0_5  1  0.50000000  0.00000000  0.50000000  1
  Th  Th0_6  1  0.50000000  0.50000000  0.00000000  1
  Th  Th0_7  1  0.50000000  0.50000000  0.50000000  1
  Zr  Zr0_0  1  0.33673650  0.33673650  0.17347250  1
  Zr  Zr0_1  1  0.33673650  0.33673650  0.67347250  1
  Zr  Zr0_2  1  0.33673650  0.83673650  0.17347250  1
  Zr  Zr0_3  1  0.33673650  0.83673650  0.67347250  1
  Zr  Zr0_4  1  0.83673650  0.33673650  0.17347250  1
  Zr  Zr0_5  1  0.83673650  0.33673650  0.67347250  1
  Zr  Zr0_6  1  0.83673650  0.83673650  0.17347250  1
  Zr  Zr0_7  1  0.83673650  0.83673650  0.67347250  1
  Zr  Zr1_0  1  0.16326350  0.16326350  0.32652750  1
  Zr  Zr1_1  1  0.16326350  0.16326350  0.82652750  1
  Zr  Zr1_2  1  0.16326350  0.66326350  0.32652750  1
  Zr  Zr1_3  1  0.16326350  0.66326350  0.82652750  1
  Zr  Zr1_4  1  0.66326350  0.16326350  0.32652750  1
  Zr  Zr1_5  1  0.66326350  0.16326350  0.82652750  1
  Zr  Zr1_6  1  0.66326350  0.66326350  0.32652750  1
  Zr  Zr1_7  1  0.66326350  0.66326350  0.82652750  1
loop_
_geom_bond_atom_site_label_1
_geom_bond_atom_site_label_2
_geom_bond_distance
_geom_bond_site_symmetry_2
Th0_0 Zr0_6 3.352038 1_445
Th0_0 Zr1_1 3.352038 1_554
Th0_0 Zr0_0 3.352041 1_555
Th0_0 Zr1_7 3.352041 1_444
Th0_0 Th0_4 3.389999 1_455
Th0_0 Th0_2 3.389999 1_555
Th0_0 Th0_2 3.389999 1_545
Th0_0 Th0_4 3.389999 1_555
Th0_0 Zr0_4 3.390482 1_455
Th0_0 Zr0_2 3.390482 1_545
Th0_0 Zr1_5 3.390482 1_454
Th0_0 Zr1_3 3.390482 1_544
Th0_1 Zr0_7 3.352038 1_455
Th0_1 Zr1_0 3.352038 1_565
Th0_1 Zr0_1 3.352041 1_565
Th0_1 Zr1_6 3.352041 1_455
Th0_1 Th0_5 3.389999 1_565
Th0_1 Th0_5 3.389999 1_465
Th0_1 Th0_3 3.389999 1_555
Th0_1 Th0_3 3.389999 1_565
Th0_1 Zr0_3 3.390482 1_555
Th0_1 Zr0_5 3.390482 1_465
Th0_1 Zr1_2 3.390482 1_555
Th0_1 Zr1_4 3.390482 1_465
Th0_2 Zr0_4 3.352038 1_455
Th0_2 Zr1_3 3.352038 1_554
Th0_2 Zr0_2 3.352041 1_555
Th0_2 Zr1_5 3.352041 1_454
Th0_2 Th0_6 3.389999 1_455
Th0_2 Th0_6 3.389999 1_555
Th0_2 Zr0_6 3.390482 1_455
Th0_2 Zr0_0 3.390482 1_555
Th0_2 Zr1_7 3.390482 1_454
Th0_2 Zr1_1 3.390482 1_554
Th0_3 Zr0_5 3.352038 1_455
Th0_3 Zr1_2 3.352038 1_555
Th0_3 Zr0_3 3.352041 1_555
Th0_3 Zr1_4 3.352041 1_455
Th0_3 Th0_7 3.389999 1_455
Th0_3 Th0_7 3.389999 1_555
Th0_3 Zr0_7 3.390482 1_455
Th0_3 Zr0_1 3.390482 1_555
Th0_3 Zr1_0 3.390482 1_555
Th0_3 Zr1_6 3.390482 1_455
Th0_4 Zr0_2 3.352038 1_545
Th0_4 Zr1_5 3.352038 1_554
Th0_4 Zr0_4 3.352041 1_555
Th0_4 Zr1_3 3.352041 1_544
Th0_4 Th0_6 3.389999 1_555
Th0_4 Th0_6 3.389999 1_545
Th0_4 Zr0_0 3.390482 1_555
Th0_4 Zr0_6 3.390482 1_545
Th0_4 Zr1_7 3.390482 1_544
Th0_4 Zr1_1 3.390482 1_554
Th0_5 Zr0_3 3.352038 1_545
Th0_5 Zr1_4 3.352038 1_555
Th0_5 Zr0_5 3.352041 1_555
Th0_5 Zr1_2 3.352041 1_545
Th0_5 Th0_7 3.389999 1_545
Th0_5 Th0_7 3.389999 1_555
Th0_5 Zr0_1 3.390482 1_555
Th0_5 Zr0_7 3.390482 1_545
Th0_5 Zr1_0 3.390482 1_555
Th0_5 Zr1_6 3.390482 1_545
Th0_6 Zr0_0 3.352038 1_555
Th0_6 Zr1_7 3.352038 1_554
Th0_6 Zr0_6 3.352041 1_555
Th0_6 Zr1_1 3.352041 1_554
Th0_6 Zr0_2 3.390482 1_555
Th0_6 Zr0_4 3.390482 1_555
Th0_6 Zr1_5 3.390482 1_554
Th0_6 Zr1_3 3.390482 1_554
Th0_7 Zr0_1 3.352038 1_555
Th0_7 Zr1_6 3.352038 1_555
Th0_7 Zr0_7 3.352041 1_555
Th0_7 Zr1_0 3.352041 1_555
Th0_7 Zr0_5 3.390482 1_555
Th0_7 Zr0_3 3.390482 1_555
Th0_7 Zr1_4 3.390482 1_555
Th0_7 Zr1_2 3.390482 1_555
Zr0_0 Zr1_6 3.160874 1_555
Zr0_0 Zr1_0 3.160881 1_555
Zr0_0 Zr1_4 3.201617 1_555
Zr0_0 Zr1_2 3.201617 1_555
Zr0_0 Zr0_4 3.389999 1_455
Zr0_0 Zr0_2 3.389999 1_555
Zr0_0 Zr0_4 3.389999 1_555
Zr0_0 Zr0_2 3.389999 1_545
Zr0_1 Zr1_7 3.160874 1_555
Zr0_1 Zr1_1 3.160881 1_555
Zr0_1 Zr1_3 3.201617 1_555
Zr0_1 Zr1_5 3.201617 1_555
Zr0_1 Zr0_3 3.389999 1_555
Zr0_1 Zr0_3 3.389999 1_545
Zr0_1 Zr0_5 3.389999 1_555
Zr0_1 Zr0_5 3.389999 1_455
Zr0_2 Zr1_4 3.160874 1_565
Zr0_2 Zr1_2 3.160881 1_555
Zr0_2 Zr1_6 3.201617 1_555
Zr0_2 Zr1_0 3.201617 1_565
Zr0_2 Zr0_6 3.389999 1_455
Zr0_2 Zr0_6 3.389999 1_555
Zr0_3 Zr1_5 3.160874 1_565
Zr0_3 Zr1_3 3.160881 1_555
Zr0_3 Zr1_7 3.201617 1_555
Zr0_3 Zr1_1 3.201617 1_565
Zr0_3 Zr0_7 3.389999 1_455
Zr0_3 Zr0_7 3.389999 1_555
Zr0_4 Zr1_2 3.160874 1_655
Zr0_4 Zr1_4 3.160881 1_555
Zr0_4 Zr1_0 3.201617 1_655
Zr0_4 Zr1_6 3.201617 1_555
Zr0_4 Zr0_6 3.389999 1_555
Zr0_4 Zr0_6 3.389999 1_545
Zr0_5 Zr1_3 3.160874 1_655
Zr0_5 Zr1_5 3.160881 1_555
Zr0_5 Zr1_7 3.201617 1_555
Zr0_5 Zr1_1 3.201617 1_655
Zr0_5 Zr0_7 3.389999 1_555
Zr0_5 Zr0_7 3.389999 1_545
Zr0_6 Zr1_0 3.160874 1_665
Zr0_6 Zr1_6 3.160881 1_555
Zr0_6 Zr1_2 3.201617 1_655
Zr0_6 Zr1_4 3.201617 1_565
Zr0_7 Zr1_1 3.160874 1_665
Zr0_7 Zr1_7 3.160881 1_555
Zr0_7 Zr1_3 3.201617 1_655
Zr0_7 Zr1_5 3.201617 1_565
Zr1_0 Zr1_2 3.389999 1_555
Zr1_0 Zr1_4 3.389999 1_455
Zr1_0 Zr1_2 3.389999 1_545
Zr1_0 Zr1_4 3.389999 1_555
Zr1_1 Zr1_5 3.389999 1_555
Zr1_1 Zr1_3 3.389999 1_555
Zr1_1 Zr1_3 3.389999 1_545
Zr1_1 Zr1_5 3.389999 1_455
Zr1_2 Zr1_6 3.389999 1_455
Zr1_2 Zr1_6 3.389999 1_555
Zr1_3 Zr1_7 3.389999 1_555
Zr1_3 Zr1_7 3.389999 1_455
Zr1_4 Zr1_6 3.389999 1_555
Zr1_4 Zr1_6 3.389999 1_545
Zr1_5 Zr1_7 3.389999 1_555
Zr1_5 Zr1_7 3.389999 1_545
