# generated using pymatgen
data_Mg3Al
_symmetry_space_group_name_H-M   'P 1'
_cell_length_a   6.29141712
_cell_length_b   9.78091406
_cell_length_c   10.68038658
_cell_angle_alpha   90.00000000
_cell_angle_beta   90.00000000
_cell_angle_gamma   90.00000000
_symmetry_Int_Tables_number   1
_chemical_formula_structural   Mg3Al
_chemical_formula_sum   'Mg24 Al8'
_cell_volume   657.22624109
_cell_formula_units_Z   8
loop_
 _symmetry_equiv_pos_site_id
 _symmetry_equiv_pos_as_xyz
  1  'x, y, z'
loop_
 _atom_site_type_symbol
 _atom_site_label
 _atom_site_symmetry_multiplicity
 _atom_site_fract_x
 _atom_site_fract_y
 _atom_site_fract_z
 _atom_site_occupancy
  Mg  Mg0_0  1  0.00000000  0.00000000  0.33438779  1
  Mg  Mg0_1  1  0.00000000  0.00000000  0.83438779  1
  Mg  Mg0_2  1  0.00000000  0.50000000  0.33438779  1
  Mg  Mg0_3  1  0.00000000  0.50000000  0.83438779  1
  Mg  Mg0_4  1  0.50000000  0.00000000  0.33438779  1
  Mg  Mg0_5  1  0.50000000  0.00000000  0.83438779  1
  Mg  Mg0_6  1  0.50000000  0.50000000  0.33438779  1
  Mg  Mg0_7  1  0.50000000  0.50000000  0.83438779  1
  Mg  Mg1_0  1  0.00000000  0.25000000  0.16282622  1
  Mg  Mg1_1  1  0.00000000  0.25000000  0.66282622  1
  Mg  Mg1_2  1  0.00000000  0.75000000  0.16282622  1
  Mg  Mg1_3  1  0.00000000  0.75000000  0.66282622  1
  Mg  Mg1_4  1  0.50000000  0.25000000  0.16282622  1
  Mg  Mg1_5  1  0.50000000  0.25000000  0.66282622  1
  Mg  Mg1_6  1  0.50000000  0.75000000  0.16282622  1
  Mg  Mg1_7  1  0.50000000  0.75000000  0.66282622  1
  Mg  Mg2_0  1  0.25000000  0.25000000  0.41890723  1
  Mg  Mg2_1  1  0.25000000  0.25000000  0.91890723  1
  Mg  Mg2_2  1  0.25000000  0.75000000  0.41890723  1
  Mg  Mg2_3  1  0.25000000  0.75000000  0.91890723  1
  Mg  Mg2_4  1  0.75000000  0.25000000  0.41890723  1
  Mg  Mg2_5  1  0.75000000  0.25000000  0.91890723  1
  Mg  Mg2_6  1  0.75000000  0.75000000  0.41890723  1
  Mg  Mg2_7  1  0.75000000  0.75000000  0.91890723  1
  Al  Al0_0  1  0.25000000  0.00000000  0.08387825  1
  Al  Al0_1  1  0.25000000  0.00000000  0.58387825  1
  Al  Al0_2  1  0.25000000  0.50000000  0.08387825  1
  Al  Al0_3  1  0.25000000  0.50000000  0.58387825  1
  Al  Al0_4  1  0.75000000  0.00000000  0.08387825  1
  Al  Al0_5  1  0.75000000  0.00000000  0.58387825  1
  Al  Al0_6  1  0.75000000  0.50000000  0.08387825  1
  Al  Al0_7  1  0.75000000  0.50000000  0.58387825  1
loop_
_geom_bond_atom_site_label_1
_geom_bond_atom_site_label_2
_geom_bond_distance
_geom_bond_site_symmetry_2
Mg0_0 Mg2_6 3.044319 1_445
Mg0_0 Mg2_4 3.044319 1_455
Mg0_0 Mg2_2 3.044319 1_545
Mg0_0 Mg2_0 3.044319 1_555
Mg0_0 Mg1_0 3.055589 1_555
Mg0_0 Mg1_2 3.055589 1_545
Mg0_0 Mg0_4 3.145709 1_455
Mg0_0 Mg0_4 3.145709 1_555
Mg0_1 Mg2_7 3.044319 1_445
Mg0_1 Mg2_5 3.044319 1_455
Mg0_1 Mg2_1 3.044319 1_555
Mg0_1 Mg2_3 3.044319 1_545
Mg0_1 Mg1_1 3.055589 1_555
Mg0_1 Mg1_3 3.055589 1_545
Mg0_1 Mg0_5 3.145709 1_555
Mg0_1 Mg0_5 3.145709 1_455
Mg0_2 Mg2_6 3.044319 1_455
Mg0_2 Mg2_4 3.044319 1_455
Mg0_2 Mg2_2 3.044319 1_555
Mg0_2 Mg2_0 3.044319 1_555
Mg0_2 Mg1_0 3.055589 1_555
Mg0_2 Mg1_2 3.055589 1_555
Mg0_2 Mg0_6 3.145709 1_555
Mg0_2 Mg0_6 3.145709 1_455
Mg0_3 Mg2_5 3.044319 1_455
Mg0_3 Mg2_7 3.044319 1_455
Mg0_3 Mg2_1 3.044319 1_555
Mg0_3 Mg2_3 3.044319 1_555
Mg0_3 Mg1_1 3.055589 1_555
Mg0_3 Mg1_3 3.055589 1_555
Mg0_3 Mg0_7 3.145709 1_455
Mg0_3 Mg0_7 3.145709 1_555
Mg0_4 Mg2_2 3.044319 1_545
Mg0_4 Mg2_0 3.044319 1_555
Mg0_4 Mg2_4 3.044319 1_555
Mg0_4 Mg2_6 3.044319 1_545
Mg0_4 Mg1_6 3.055589 1_545
Mg0_4 Mg1_4 3.055589 1_555
Mg0_5 Mg2_1 3.044319 1_555
Mg0_5 Mg2_3 3.044319 1_545
Mg0_5 Mg2_7 3.044319 1_545
Mg0_5 Mg2_5 3.044319 1_555
Mg0_5 Mg1_7 3.055589 1_545
Mg0_5 Mg1_5 3.055589 1_555
Mg0_6 Mg2_2 3.044319 1_555
Mg0_6 Mg2_0 3.044319 1_555
Mg0_6 Mg2_6 3.044319 1_555
Mg0_6 Mg2_4 3.044319 1_555
Mg0_6 Mg1_6 3.055589 1_555
Mg0_6 Mg1_4 3.055589 1_555
Mg0_7 Mg2_1 3.044319 1_555
Mg0_7 Mg2_3 3.044319 1_555
Mg0_7 Mg2_7 3.044319 1_555
Mg0_7 Mg2_5 3.044319 1_555
Mg0_7 Mg1_7 3.055589 1_555
Mg0_7 Mg1_5 3.055589 1_555
Mg1_0 Mg2_5 3.043135 1_454
Mg1_0 Mg2_1 3.043135 1_554
Mg1_0 Mg1_4 3.145709 1_555
Mg1_0 Mg1_4 3.145709 1_455
Mg1_0 Mg2_4 3.155050 1_455
Mg1_0 Mg2_0 3.155050 1_555
Mg1_1 Mg2_4 3.043135 1_455
Mg1_1 Mg2_0 3.043135 1_555
Mg1_1 Mg1_5 3.145709 1_455
Mg1_1 Mg1_5 3.145709 1_555
Mg1_1 Mg2_5 3.155050 1_455
Mg1_1 Mg2_1 3.155050 1_555
Mg1_2 Mg2_7 3.043135 1_454
Mg1_2 Mg2_3 3.043135 1_554
Mg1_2 Mg1_6 3.145709 1_455
Mg1_2 Mg1_6 3.145709 1_555
Mg1_2 Mg2_6 3.155050 1_455
Mg1_2 Mg2_2 3.155050 1_555
Mg1_3 Mg2_6 3.043135 1_455
Mg1_3 Mg2_2 3.043135 1_555
Mg1_3 Mg1_7 3.145709 1_455
Mg1_3 Mg1_7 3.145709 1_555
Mg1_3 Mg2_7 3.155050 1_455
Mg1_3 Mg2_3 3.155050 1_555
Mg1_4 Mg2_1 3.043135 1_554
Mg1_4 Mg2_5 3.043135 1_554
Mg1_4 Mg2_0 3.155050 1_555
Mg1_4 Mg2_4 3.155050 1_555
Mg1_5 Mg2_0 3.043135 1_555
Mg1_5 Mg2_4 3.043135 1_555
Mg1_5 Mg2_1 3.155050 1_555
Mg1_5 Mg2_5 3.155050 1_555
Mg1_6 Mg2_3 3.043135 1_554
Mg1_6 Mg2_7 3.043135 1_554
Mg1_6 Mg2_2 3.155050 1_555
Mg1_6 Mg2_6 3.155050 1_555
Mg1_7 Mg2_2 3.043135 1_555
Mg1_7 Mg2_6 3.043135 1_555
Mg1_7 Mg2_3 3.155050 1_555
Mg1_7 Mg2_7 3.155050 1_555
Mg2_0 Mg2_4 3.145709 1_455
Mg2_0 Mg2_4 3.145709 1_555
Mg2_1 Mg2_5 3.145709 1_455
Mg2_1 Mg2_5 3.145709 1_555
Mg2_2 Mg2_6 3.145709 1_455
Mg2_2 Mg2_6 3.145709 1_555
Mg2_3 Mg2_7 3.145709 1_455
Mg2_3 Mg2_7 3.145709 1_555
Al0_0 Mg2_3 3.013905 1_544
Al0_0 Mg2_1 3.013905 1_554
Al0_0 Mg1_6 3.027208 1_545
Al0_0 Mg1_4 3.027208 1_555
Al0_0 Mg1_2 3.027208 1_545
Al0_0 Mg1_0 3.027208 1_555
Al0_0 Mg0_1 3.094229 1_554
Al0_0 Mg0_5 3.094229 1_554
Al0_0 Mg0_0 3.103607 1_555
Al0_0 Mg0_4 3.103607 1_555
Al0_0 Al0_4 3.145709 1_455
Al0_0 Al0_4 3.145709 1_555
Al0_1 Mg2_2 3.013905 1_545
Al0_1 Mg2_0 3.013905 1_555
Al0_1 Mg1_3 3.027208 1_545
Al0_1 Mg1_1 3.027208 1_555
Al0_1 Mg1_7 3.027208 1_545
Al0_1 Mg1_5 3.027208 1_555
Al0_1 Mg0_4 3.094229 1_555
Al0_1 Mg0_0 3.094229 1_555
Al0_1 Mg0_5 3.103607 1_555
Al0_1 Mg0_1 3.103607 1_555
Al0_1 Al0_5 3.145709 1_455
Al0_1 Al0_5 3.145709 1_555
Al0_2 Mg2_1 3.013905 1_554
Al0_2 Mg2_3 3.013905 1_554
Al0_2 Mg1_6 3.027208 1_555
Al0_2 Mg1_4 3.027208 1_555
Al0_2 Mg1_2 3.027208 1_555
Al0_2 Mg1_0 3.027208 1_555
Al0_2 Mg0_3 3.094229 1_554
Al0_2 Mg0_7 3.094229 1_554
Al0_2 Mg0_2 3.103607 1_555
Al0_2 Mg0_6 3.103607 1_555
Al0_2 Al0_6 3.145709 1_455
Al0_2 Al0_6 3.145709 1_555
Al0_3 Mg2_2 3.013905 1_555
Al0_3 Mg2_0 3.013905 1_555
Al0_3 Mg1_3 3.027208 1_555
Al0_3 Mg1_7 3.027208 1_555
Al0_3 Mg1_1 3.027208 1_555
Al0_3 Mg1_5 3.027208 1_555
Al0_3 Mg0_2 3.094229 1_555
Al0_3 Mg0_6 3.094229 1_555
Al0_3 Mg0_3 3.103607 1_555
Al0_3 Mg0_7 3.103607 1_555
Al0_3 Al0_7 3.145709 1_455
Al0_3 Al0_7 3.145709 1_555
Al0_4 Mg2_5 3.013905 1_554
Al0_4 Mg2_7 3.013905 1_544
Al0_4 Mg1_0 3.027208 1_655
Al0_4 Mg1_2 3.027208 1_645
Al0_4 Mg1_6 3.027208 1_545
Al0_4 Mg1_4 3.027208 1_555
Al0_4 Mg0_1 3.094229 1_654
Al0_4 Mg0_5 3.094229 1_554
Al0_4 Mg0_0 3.103607 1_655
Al0_4 Mg0_4 3.103607 1_555
Al0_5 Mg2_6 3.013905 1_545
Al0_5 Mg2_4 3.013905 1_555
Al0_5 Mg1_3 3.027208 1_645
Al0_5 Mg1_1 3.027208 1_655
Al0_5 Mg1_5 3.027208 1_555
Al0_5 Mg1_7 3.027208 1_545
Al0_5 Mg0_0 3.094229 1_655
Al0_5 Mg0_4 3.094229 1_555
Al0_5 Mg0_1 3.103607 1_655
Al0_5 Mg0_5 3.103607 1_555
Al0_6 Mg2_5 3.013905 1_554
Al0_6 Mg2_7 3.013905 1_554
Al0_6 Mg1_0 3.027208 1_655
Al0_6 Mg1_2 3.027208 1_655
Al0_6 Mg1_6 3.027208 1_555
Al0_6 Mg1_4 3.027208 1_555
Al0_6 Mg0_3 3.094229 1_654
Al0_6 Mg0_7 3.094229 1_554
Al0_6 Mg0_2 3.103607 1_655
Al0_6 Mg0_6 3.103607 1_555
Al0_7 Mg2_6 3.013905 1_555
Al0_7 Mg2_4 3.013905 1_555
Al0_7 Mg1_3 3.027208 1_655
Al0_7 Mg1_1 3.027208 1_655
Al0_7 Mg1_5 3.027208 1_555
Al0_7 Mg1_7 3.027208 1_555
Al0_7 Mg0_2 3.094229 1_655
Al0_7 Mg0_6 3.094229 1_555
Al0_7 Mg0_3 3.103607 1_655
Al0_7 Mg0_7 3.103607 1_555
