# generated using pymatgen
data_ZnCu2SnTe4
_symmetry_space_group_name_H-M   'P 1'
_cell_length_a   7.57062377
_cell_length_b   7.57062377
_cell_length_c   7.57062377
_cell_angle_alpha   131.94347930
_cell_angle_beta   131.94347930
_cell_angle_gamma   70.31830985
_symmetry_Int_Tables_number   1
_chemical_formula_structural   ZnCu2SnTe4
_chemical_formula_sum   'Zn1 Cu2 Sn1 Te4'
_cell_volume   235.26672065
_cell_formula_units_Z   1
loop_
 _symmetry_equiv_pos_site_id
 _symmetry_equiv_pos_as_xyz
  1  'x, y, z'
loop_
 _atom_site_type_symbol
 _atom_site_label
 _atom_site_symmetry_multiplicity
 _atom_site_fract_x
 _atom_site_fract_y
 _atom_site_fract_z
 _atom_site_occupancy
  Zn  Zn0  1  0.00000000  0.00000000  0.00000000  1
  Cu  Cu0  1  0.75000000  0.25000000  0.50000000  1
  Cu  Cu1  1  0.25000000  0.75000000  0.50000000  1
  Sn  Sn0  1  0.50000000  0.50000000  0.00000000  1
  Te  Te0  1  0.89774000  0.37652800  0.00000000  1
  Te  Te1  1  0.37652800  0.89774000  0.00000000  1
  Te  Te2  1  0.10226000  0.10226000  0.47878800  1
  Te  Te3  1  0.62347200  0.62347200  0.52121200  1
loop_
_geom_bond_atom_site_label_1
_geom_bond_atom_site_label_2
_geom_bond_distance
_geom_bond_site_symmetry_2
Cu0 Te1 2.590747 1_545
Cu0 Te2 2.590747 1_655
Cu0 Te0 2.590747 1_556
Cu0 Te3 2.590747 1_555
Cu1 Te0 2.590747 1_455
Cu1 Te1 2.590747 1_556
Cu1 Te2 2.590747 1_565
Cu1 Te3 2.590747 1_555
Sn0 Te3 2.836335 1_555
Sn0 Te2 2.836335 1_554
Sn0 Te1 2.836335 1_555
Sn0 Te0 2.836335 1_555
Te0 Zn0 2.690446 1_655
Te1 Zn0 2.690446 1_565
Te2 Zn0 2.690446 1_555
Te3 Zn0 2.690446 1_666
