# generated using pymatgen
data_Sr2Y2Fe2O7
_symmetry_space_group_name_H-M   'P 1'
_cell_length_a   12.63400845
_cell_length_b   12.63400845
_cell_length_c   12.63400845
_cell_angle_alpha   154.16394072
_cell_angle_beta   153.38537030
_cell_angle_gamma   37.43112488
_symmetry_Int_Tables_number   1
_chemical_formula_structural   Sr2Y2Fe2O7
_chemical_formula_sum   'Sr4 Y4 Fe4 O14'
_cell_volume   393.12813319
_cell_formula_units_Z   2
loop_
 _symmetry_equiv_pos_site_id
 _symmetry_equiv_pos_as_xyz
  1  'x, y, z'
loop_
 _atom_site_type_symbol
 _atom_site_label
 _atom_site_symmetry_multiplicity
 _atom_site_fract_x
 _atom_site_fract_y
 _atom_site_fract_z
 _atom_site_occupancy
  Sr  Sr0  1  0.82709500  0.84461600  0.95919700  1
  Sr  Sr1  1  0.17290500  0.13210300  0.01752100  1
  Sr  Sr2  1  0.61458200  0.63210300  0.95919700  1
  Sr  Sr3  1  0.38541800  0.34461600  0.01752100  1
  Y  Y0  1  0.50000000  0.48607800  0.98607800  1
  Y  Y1  1  0.00000000  0.98607800  0.98607800  1
  Y  Y2  1  0.19721500  0.76579100  0.46300600  1
  Y  Y3  1  0.80278500  0.26579100  0.56857700  1
  Fe  Fe0  1  0.93093800  0.40420400  0.48690700  1
  Fe  Fe1  1  0.06906200  0.55596900  0.47326600  1
  Fe  Fe2  1  0.58270300  0.05596900  0.48690700  1
  Fe  Fe3  1  0.41729700  0.90420400  0.47326600  1
  O  O0  1  0.83969700  0.65359500  0.99329200  1
  O  O1  1  0.16030300  0.15359500  0.81389800  1
  O  O2  1  0.74019500  0.69424900  0.55517400  1
  O  O3  1  0.25980500  0.81497900  0.95405400  1
  O  O4  1  0.36092500  0.31497900  0.55517400  1
  O  O5  1  0.63907500  0.19424900  0.95405400  1
  O  O6  1  0.13514400  0.12015700  0.38631700  1
  O  O7  1  0.86485600  0.25117300  0.98501400  1
  O  O8  1  0.76616000  0.75117300  0.38631700  1
  O  O9  1  0.23384000  0.62015700  0.98501400  1
  O  O10  1  0.39030700  0.76141500  0.48597800  1
  O  O11  1  0.60969300  0.09567100  0.37110700  1
  O  O12  1  0.22456300  0.59567100  0.48597800  1
  O  O13  1  0.77543700  0.26141500  0.37110700  1
loop_
_geom_bond_atom_site_label_1
_geom_bond_atom_site_label_2
_geom_bond_distance
_geom_bond_site_symmetry_2
Fe0 O2 1.995459 1_555
Fe0 O6 2.024488 1_655
Fe0 O9 2.074807 1_655
Fe0 O5 2.226234 1_554
Fe0 O13 2.234468 1_555
Fe1 O3 1.995459 1_555
Fe1 O7 2.024486 1_454
Fe1 O8 2.074804 1_455
Fe1 O4 2.226234 1_555
Fe1 O12 2.234479 1_555
Fe2 O4 1.995459 1_555
Fe2 O8 2.024488 1_545
Fe2 O7 2.074809 1_555
Fe2 O3 2.226234 1_544
Fe2 O11 2.234491 1_555
Fe3 O5 1.995459 1_565
Fe3 O9 2.024483 1_554
Fe3 O6 2.074804 1_565
Fe3 O2 2.226234 1_555
Fe3 O10 2.234479 1_555
O0 Y2 2.173781 1_656
O0 Y3 2.201133 1_555
O0 Sr2 2.678347 1_555
O0 Sr0 2.678369 1_555
O1 Y3 2.173779 1_455
O1 Y2 2.201136 1_545
O1 Sr1 2.678358 1_556
O1 Sr3 2.678358 1_556
O2 Y1 2.267612 1_655
O2 Sr0 2.589558 1_555
O2 Y0 2.728332 1_554
O2 Sr3 2.955555 1_555
O3 Y1 2.267612 1_555
O3 Sr1 2.589569 1_566
O3 Y0 2.728332 1_555
O3 Sr2 2.955563 1_555
O4 Y0 2.267612 1_555
O4 Sr2 2.589576 1_555
O4 Y1 2.728332 1_544
O4 Sr1 2.955555 1_555
O5 Y0 2.267612 1_555
O5 Sr3 2.589569 1_556
O5 Y1 2.728332 1_645
O5 Sr0 2.955547 1_545
O6 Y1 2.256276 1_544
O6 Sr0 2.556228 1_444
O6 Y0 2.892869 1_555
O7 Y1 2.256268 1_645
O7 Sr1 2.556242 1_656
O7 Y0 2.892863 1_555
O8 Y0 2.256276 1_554
O8 Sr2 2.556245 1_554
O8 Y1 2.892869 1_655
O9 Y0 2.256285 1_555
O9 Sr3 2.556225 1_556
O9 Y1 2.892876 1_555
O10 Y2 2.141790 1_555
O10 Sr0 2.491659 1_555
O10 Sr3 2.554024 1_555
O11 Y3 2.141771 1_555
O11 Sr1 2.491660 1_555
O11 Sr2 2.554024 1_544
O12 Y2 2.141790 1_555
O12 Sr2 2.491653 1_555
O12 Sr1 2.554024 1_555
O13 Y3 2.141815 1_555
O13 Sr3 2.491654 1_555
O13 Sr0 2.554024 1_544
