# generated using pymatgen
data_Mg2(AlSi2)3
_symmetry_space_group_name_H-M   'P 1'
_cell_length_a   3.63418700
_cell_length_b   6.72176663
_cell_length_c   8.14186561
_cell_angle_alpha   90.98822228
_cell_angle_beta   102.89581681
_cell_angle_gamma   90.00000000
_symmetry_Int_Tables_number   1
_chemical_formula_structural   Mg2(AlSi2)3
_chemical_formula_sum   'Mg2 Al3 Si6'
_cell_volume   193.84389816
_cell_formula_units_Z   1
loop_
 _symmetry_equiv_pos_site_id
 _symmetry_equiv_pos_as_xyz
  1  'x, y, z'
loop_
 _atom_site_type_symbol
 _atom_site_label
 _atom_site_symmetry_multiplicity
 _atom_site_fract_x
 _atom_site_fract_y
 _atom_site_fract_z
 _atom_site_occupancy
  Mg  Mg0  1  0.82967200  0.01402000  0.65934400  1
  Mg  Mg1  1  0.17032800  0.98598000  0.34065600  1
  Al  Al0  1  0.07154100  0.38563600  0.14308200  1
  Al  Al1  1  0.92845900  0.61436400  0.85691800  1
  Al  Al2  1  0.00000000  0.00000000  0.00000000  1
  Si  Si0  1  0.30583800  0.34376300  0.61167600  1
  Si  Si1  1  0.69416200  0.65623700  0.38832400  1
  Si  Si2  1  0.45393200  0.25759300  0.90786500  1
  Si  Si3  1  0.54606800  0.74240700  0.09213500  1
  Si  Si4  1  0.70064500  0.29591800  0.40128900  1
  Si  Si5  1  0.29935500  0.70408200  0.59871100  1
loop_
_geom_bond_atom_site_label_1
_geom_bond_atom_site_label_2
_geom_bond_distance
_geom_bond_site_symmetry_2
Mg0 Si5 2.799675 1_645
Mg0 Si5 2.799678 1_545
Mg0 Si4 2.814662 1_555
Mg0 Si0 2.896084 1_655
Mg0 Si0 2.896084 1_555
Mg0 Si2 3.123848 1_655
Mg0 Si2 3.123850 1_555
Mg1 Si4 2.799675 1_465
Mg1 Si4 2.799678 1_565
Mg1 Si5 2.814662 1_555
Mg1 Si1 2.896084 1_455
Mg1 Si1 2.896084 1_555
Mg1 Si3 3.123848 1_455
Mg1 Si3 3.123850 1_555
Al0 Si2 2.733254 1_554
Al0 Si2 2.733256 1_454
Al0 Si4 2.812243 1_455
Al0 Si4 2.812246 1_555
Al0 Si3 3.041490 1_455
Al0 Si3 3.041492 1_555
Al1 Si3 2.733254 1_556
Al1 Si3 2.733256 1_656
Al1 Si5 2.812243 1_655
Al1 Si5 2.812246 1_555
Al1 Si2 3.041490 1_655
Al1 Si2 3.041492 1_555
Al2 Si3 2.622851 1_445
Al2 Si2 2.622851 1_554
Al2 Si3 2.622853 1_545
Al2 Si2 2.622853 1_454
Al2 Mg0 2.706927 1_454
Al2 Mg1 2.706927 1_545
Si0 Si5 2.425983 1_555
Si0 Si2 2.430944 1_555
Si0 Si4 2.484809 1_455
Si0 Si4 2.484811 1_555
Si1 Si4 2.425983 1_555
Si1 Si3 2.430944 1_555
Si1 Si5 2.484809 1_655
Si1 Si5 2.484811 1_555
