# generated using pymatgen
data_CsAlZnF6
_symmetry_space_group_name_H-M   'P 1'
_cell_length_a   7.21190900
_cell_length_b   7.27195200
_cell_length_c   10.25474500
_cell_angle_alpha   90.00000000
_cell_angle_beta   90.00000000
_cell_angle_gamma   90.00000000
_symmetry_Int_Tables_number   1
_chemical_formula_structural   CsAlZnF6
_chemical_formula_sum   'Cs4 Al4 Zn4 F24'
_cell_volume   537.80657468
_cell_formula_units_Z   4
loop_
 _symmetry_equiv_pos_site_id
 _symmetry_equiv_pos_as_xyz
  1  'x, y, z'
loop_
 _atom_site_type_symbol
 _atom_site_label
 _atom_site_symmetry_multiplicity
 _atom_site_fract_x
 _atom_site_fract_y
 _atom_site_fract_z
 _atom_site_occupancy
  Cs  Cs0  1  0.25000000  0.51464600  0.12747400  1
  Cs  Cs1  1  0.75000000  0.48535400  0.87252600  1
  Cs  Cs2  1  0.75000000  0.98535400  0.62747400  1
  Cs  Cs3  1  0.25000000  0.01464600  0.37252600  1
  Al  Al0  1  0.00000000  0.50000000  0.50000000  1
  Al  Al1  1  0.00000000  0.00000000  0.00000000  1
  Al  Al2  1  0.50000000  0.50000000  0.50000000  1
  Al  Al3  1  0.50000000  0.00000000  0.00000000  1
  Zn  Zn0  1  0.25000000  0.72153800  0.76177300  1
  Zn  Zn1  1  0.75000000  0.27846200  0.23822700  1
  Zn  Zn2  1  0.75000000  0.77846200  0.26177300  1
  Zn  Zn3  1  0.25000000  0.22153800  0.73822700  1
  F  F0  1  0.05421300  0.79592600  0.90445900  1
  F  F1  1  0.94578700  0.20407400  0.09554100  1
  F  F2  1  0.94578700  0.70407400  0.40445900  1
  F  F3  1  0.55421300  0.20407400  0.09554100  1
  F  F4  1  0.05421300  0.29592600  0.59554100  1
  F  F5  1  0.44578700  0.79592600  0.90445900  1
  F  F6  1  0.44578700  0.29592600  0.59554100  1
  F  F7  1  0.55421300  0.70407400  0.40445900  1
  F  F8  1  0.25000000  0.03685400  0.03883300  1
  F  F9  1  0.75000000  0.96314600  0.96116700  1
  F  F10  1  0.75000000  0.46314600  0.53883300  1
  F  F11  1  0.25000000  0.53685400  0.46116700  1
  F  F12  1  0.47799600  0.64214500  0.64477900  1
  F  F13  1  0.52200400  0.35785500  0.35522100  1
  F  F14  1  0.52200400  0.85785500  0.14477900  1
  F  F15  1  0.97799600  0.35785500  0.35522100  1
  F  F16  1  0.47799600  0.14214500  0.85522100  1
  F  F17  1  0.02200400  0.64214500  0.64477900  1
  F  F18  1  0.02200400  0.14214500  0.85522100  1
  F  F19  1  0.97799600  0.85785500  0.14477900  1
  F  F20  1  0.25000000  0.96260300  0.66827200  1
  F  F21  1  0.75000000  0.03739700  0.33172800  1
  F  F22  1  0.75000000  0.53739700  0.16827200  1
  F  F23  1  0.25000000  0.46260300  0.83172800  1
loop_
_geom_bond_atom_site_label_1
_geom_bond_atom_site_label_2
_geom_bond_distance
_geom_bond_site_symmetry_2
Cs0 F23 3.056322 1_554
Cs0 F3 3.165650 1_555
Cs0 F1 3.165650 1_455
Cs0 F14 3.179410 1_555
Cs0 F19 3.179410 1_455
Cs0 F13 3.256170 1_555
Cs0 F15 3.256170 1_455
Cs0 F5 3.377546 1_554
Cs0 F0 3.377546 1_554
Cs0 F11 3.425745 1_555
Cs0 F8 3.591417 1_555
Cs0 F22 3.633912 1_455
Cs0 F22 3.633912 1_555
Cs1 F22 3.056322 1_556
Cs1 F5 3.165650 1_555
Cs1 F0 3.165650 1_655
Cs1 F16 3.179410 1_555
Cs1 F18 3.179410 1_655
Cs1 F17 3.256170 1_655
Cs1 F12 3.256170 1_555
Cs1 F3 3.377546 1_556
Cs1 F1 3.377546 1_556
Cs1 F10 3.425745 1_555
Cs1 F9 3.591417 1_555
Cs1 F23 3.633912 1_655
Cs1 F23 3.633912 1_555
Cs2 F21 3.056322 1_565
Cs2 F6 3.165650 1_565
Cs2 F4 3.165650 1_665
Cs2 F12 3.179410 1_555
Cs2 F17 3.179410 1_655
Cs2 F18 3.256170 1_665
Cs2 F16 3.256170 1_565
Cs2 F7 3.377546 1_555
Cs2 F2 3.377546 1_555
Cs2 F9 3.425745 1_555
Cs2 F10 3.591417 1_565
Cs2 F20 3.633912 1_655
Cs2 F20 3.633912 1_555
Cs3 F20 3.056322 1_545
Cs3 F7 3.165650 1_545
Cs3 F2 3.165650 1_445
Cs3 F13 3.179410 1_555
Cs3 F15 3.179410 1_455
Cs3 F14 3.256170 1_545
Cs3 F19 3.256170 1_445
Cs3 F6 3.377546 1_555
Cs3 F4 3.377546 1_555
Cs3 F8 3.425745 1_555
Cs3 F11 3.591417 1_545
Cs3 F21 3.633912 1_455
Cs3 F21 3.633912 1_555
Al0 F17 1.816015 1_555
Al0 F15 1.816015 1_455
Al0 F2 1.820735 1_455
Al0 F4 1.820735 1_555
Al0 F11 1.865779 1_555
Al0 F10 1.865779 1_455
Al1 F19 1.816015 1_445
Al1 F18 1.816015 1_554
Al1 F0 1.820735 1_544
Al1 F1 1.820735 1_455
Al1 F9 1.865779 1_444
Al1 F8 1.865779 1_555
Al2 F12 1.816015 1_555
Al2 F13 1.816015 1_555
Al2 F6 1.820735 1_555
Al2 F7 1.820735 1_555
Al2 F11 1.865779 1_555
Al2 F10 1.865779 1_555
Al3 F14 1.816015 1_545
Al3 F16 1.816015 1_554
Al3 F5 1.820735 1_544
Al3 F3 1.820735 1_555
Al3 F9 1.865779 1_544
Al3 F8 1.865779 1_555
F0 Zn0 2.104125 1_555
F1 Zn1 2.104125 1_555
F2 Zn2 2.104125 1_555
F3 Zn1 2.104125 1_555
F4 Zn3 2.104125 1_555
F5 Zn0 2.104125 1_555
F6 Zn3 2.104125 1_555
F7 Zn2 2.104125 1_555
F12 Zn0 2.115747 1_555
F13 Zn1 2.115747 1_555
F14 Zn2 2.115747 1_555
F15 Zn1 2.115747 1_555
F16 Zn3 2.115747 1_555
F17 Zn0 2.115747 1_555
F18 Zn3 2.115747 1_555
F19 Zn2 2.115747 1_555
F20 Zn0 1.998101 1_555
F20 Zn3 2.014986 1_565
F21 Zn1 1.998101 1_555
F21 Zn2 2.014986 1_545
F22 Zn2 1.998101 1_555
F22 Zn1 2.014986 1_555
F23 Zn3 1.998101 1_555
F23 Zn0 2.014986 1_555
