# generated using pymatgen
data_Sr2(GaAu)3
_symmetry_space_group_name_H-M   'P 1'
_cell_length_a   6.19763000
_cell_length_b   6.19763000
_cell_length_c   45.32977000
_cell_angle_alpha   90.00000000
_cell_angle_beta   90.00000000
_cell_angle_gamma   90.00000000
_symmetry_Int_Tables_number   1
_chemical_formula_structural   Sr2(GaAu)3
_chemical_formula_sum   'Sr16 Ga24 Au24'
_cell_volume   1741.14446213
_cell_formula_units_Z   8
loop_
 _symmetry_equiv_pos_site_id
 _symmetry_equiv_pos_as_xyz
  1  'x, y, z'
loop_
 _atom_site_type_symbol
 _atom_site_label
 _atom_site_symmetry_multiplicity
 _atom_site_fract_x
 _atom_site_fract_y
 _atom_site_fract_z
 _atom_site_occupancy
  Sr  Sr0_0  1  0.25000000  0.25000000  0.37299500  1
  Sr  Sr0_1  1  0.25000000  0.25000000  0.87299500  1
  Sr  Sr0_2  1  0.25000000  0.75000000  0.37299500  1
  Sr  Sr0_3  1  0.25000000  0.75000000  0.87299500  1
  Sr  Sr0_4  1  0.75000000  0.25000000  0.37299500  1
  Sr  Sr0_5  1  0.75000000  0.25000000  0.87299500  1
  Sr  Sr0_6  1  0.75000000  0.75000000  0.37299500  1
  Sr  Sr0_7  1  0.75000000  0.75000000  0.87299500  1
  Sr  Sr1_0  1  0.25000000  0.25000000  0.12700500  1
  Sr  Sr1_1  1  0.25000000  0.25000000  0.62700500  1
  Sr  Sr1_2  1  0.25000000  0.75000000  0.12700500  1
  Sr  Sr1_3  1  0.25000000  0.75000000  0.62700500  1
  Sr  Sr1_4  1  0.75000000  0.25000000  0.12700500  1
  Sr  Sr1_5  1  0.75000000  0.25000000  0.62700500  1
  Sr  Sr1_6  1  0.75000000  0.75000000  0.12700500  1
  Sr  Sr1_7  1  0.75000000  0.75000000  0.62700500  1
  Ga  Ga0_0  1  0.25000000  0.25000000  0.25000000  1
  Ga  Ga0_1  1  0.25000000  0.25000000  0.75000000  1
  Ga  Ga0_2  1  0.25000000  0.75000000  0.25000000  1
  Ga  Ga0_3  1  0.25000000  0.75000000  0.75000000  1
  Ga  Ga0_4  1  0.75000000  0.25000000  0.25000000  1
  Ga  Ga0_5  1  0.75000000  0.25000000  0.75000000  1
  Ga  Ga0_6  1  0.75000000  0.75000000  0.25000000  1
  Ga  Ga0_7  1  0.75000000  0.75000000  0.75000000  1
  Ga  Ga1_0  1  0.25000000  0.25000000  0.05659650  1
  Ga  Ga1_1  1  0.25000000  0.25000000  0.55659650  1
  Ga  Ga1_2  1  0.25000000  0.75000000  0.05659650  1
  Ga  Ga1_3  1  0.25000000  0.75000000  0.55659650  1
  Ga  Ga1_4  1  0.75000000  0.25000000  0.05659650  1
  Ga  Ga1_5  1  0.75000000  0.25000000  0.55659650  1
  Ga  Ga1_6  1  0.75000000  0.75000000  0.05659650  1
  Ga  Ga1_7  1  0.75000000  0.75000000  0.55659650  1
  Ga  Ga2_0  1  0.25000000  0.25000000  0.44340350  1
  Ga  Ga2_1  1  0.25000000  0.25000000  0.94340350  1
  Ga  Ga2_2  1  0.25000000  0.75000000  0.44340350  1
  Ga  Ga2_3  1  0.25000000  0.75000000  0.94340350  1
  Ga  Ga2_4  1  0.75000000  0.25000000  0.44340350  1
  Ga  Ga2_5  1  0.75000000  0.25000000  0.94340350  1
  Ga  Ga2_6  1  0.75000000  0.75000000  0.44340350  1
  Ga  Ga2_7  1  0.75000000  0.75000000  0.94340350  1
  Au  Au0_0  1  0.25000000  0.25000000  0.00000000  1
  Au  Au0_1  1  0.25000000  0.25000000  0.50000000  1
  Au  Au0_2  1  0.25000000  0.75000000  0.00000000  1
  Au  Au0_3  1  0.25000000  0.75000000  0.50000000  1
  Au  Au0_4  1  0.75000000  0.25000000  0.00000000  1
  Au  Au0_5  1  0.75000000  0.25000000  0.50000000  1
  Au  Au0_6  1  0.75000000  0.75000000  0.00000000  1
  Au  Au0_7  1  0.75000000  0.75000000  0.50000000  1
  Au  Au1_0  1  0.25000000  0.25000000  0.19330550  1
  Au  Au1_1  1  0.25000000  0.25000000  0.69330550  1
  Au  Au1_2  1  0.25000000  0.75000000  0.19330550  1
  Au  Au1_3  1  0.25000000  0.75000000  0.69330550  1
  Au  Au1_4  1  0.75000000  0.25000000  0.19330550  1
  Au  Au1_5  1  0.75000000  0.25000000  0.69330550  1
  Au  Au1_6  1  0.75000000  0.75000000  0.19330550  1
  Au  Au1_7  1  0.75000000  0.75000000  0.69330550  1
  Au  Au2_0  1  0.25000000  0.25000000  0.30669450  1
  Au  Au2_1  1  0.25000000  0.25000000  0.80669450  1
  Au  Au2_2  1  0.25000000  0.75000000  0.30669450  1
  Au  Au2_3  1  0.25000000  0.75000000  0.80669450  1
  Au  Au2_4  1  0.75000000  0.25000000  0.30669450  1
  Au  Au2_5  1  0.75000000  0.25000000  0.80669450  1
  Au  Au2_6  1  0.75000000  0.75000000  0.30669450  1
  Au  Au2_7  1  0.75000000  0.75000000  0.80669450  1
loop_
_geom_bond_atom_site_label_1
_geom_bond_atom_site_label_2
_geom_bond_distance
_geom_bond_site_symmetry_2
Sr0_0 Sr0_2 3.098815 1_555
Sr0_0 Sr0_2 3.098815 1_545
Sr0_0 Sr0_4 3.098815 1_455
Sr0_0 Sr0_4 3.098815 1_555
Sr0_1 Sr0_3 3.098815 1_545
Sr0_1 Sr0_5 3.098815 1_455
Sr0_1 Sr0_5 3.098815 1_555
Sr0_1 Sr0_3 3.098815 1_555
Sr0_2 Sr0_6 3.098815 1_455
Sr0_2 Sr0_6 3.098815 1_555
Sr0_3 Sr0_7 3.098815 1_455
Sr0_3 Sr0_7 3.098815 1_555
Sr0_4 Sr0_6 3.098815 1_555
Sr0_4 Sr0_6 3.098815 1_545
Sr0_5 Sr0_7 3.098815 1_545
Sr0_5 Sr0_7 3.098815 1_555
Sr1_0 Sr1_2 3.098815 1_555
Sr1_0 Sr1_2 3.098815 1_545
Sr1_0 Sr1_4 3.098815 1_555
Sr1_0 Sr1_4 3.098815 1_455
Sr1_1 Sr1_3 3.098815 1_555
Sr1_1 Sr1_5 3.098815 1_455
Sr1_1 Sr1_5 3.098815 1_555
Sr1_1 Sr1_3 3.098815 1_545
Sr1_2 Sr1_6 3.098815 1_555
Sr1_2 Sr1_6 3.098815 1_455
Sr1_3 Sr1_7 3.098815 1_555
Sr1_3 Sr1_7 3.098815 1_455
Sr1_4 Sr1_6 3.098815 1_555
Sr1_4 Sr1_6 3.098815 1_545
Sr1_5 Sr1_7 3.098815 1_545
Sr1_5 Sr1_7 3.098815 1_555
Ga0_0 Ga0_2 3.098815 1_555
Ga0_0 Ga0_4 3.098815 1_555
Ga0_0 Ga0_4 3.098815 1_455
Ga0_0 Ga0_2 3.098815 1_545
Ga0_1 Ga0_3 3.098815 1_555
Ga0_1 Ga0_3 3.098815 1_545
Ga0_1 Ga0_5 3.098815 1_555
Ga0_1 Ga0_5 3.098815 1_455
Ga0_2 Ga0_6 3.098815 1_555
Ga0_2 Ga0_6 3.098815 1_455
Ga0_3 Ga0_7 3.098815 1_455
Ga0_3 Ga0_7 3.098815 1_555
Ga0_4 Ga0_6 3.098815 1_545
Ga0_4 Ga0_6 3.098815 1_555
Ga0_5 Ga0_7 3.098815 1_545
Ga0_5 Ga0_7 3.098815 1_555
Ga1_0 Ga1_4 3.098815 1_555
Ga1_0 Ga1_2 3.098815 1_545
Ga1_0 Ga1_4 3.098815 1_455
Ga1_0 Ga1_2 3.098815 1_555
Ga1_0 Sr1_0 3.191601 1_555
Ga1_1 Ga1_5 3.098815 1_455
Ga1_1 Ga1_5 3.098815 1_555
Ga1_1 Ga1_3 3.098815 1_555
Ga1_1 Ga1_3 3.098815 1_545
Ga1_1 Sr1_1 3.191601 1_555
Ga1_2 Ga1_6 3.098815 1_555
Ga1_2 Ga1_6 3.098815 1_455
Ga1_2 Sr1_2 3.191601 1_555
Ga1_3 Ga1_7 3.098815 1_455
Ga1_3 Ga1_7 3.098815 1_555
Ga1_3 Sr1_3 3.191601 1_555
Ga1_4 Ga1_6 3.098815 1_555
Ga1_4 Ga1_6 3.098815 1_545
Ga1_4 Sr1_4 3.191601 1_555
Ga1_5 Ga1_7 3.098815 1_545
Ga1_5 Ga1_7 3.098815 1_555
Ga1_5 Sr1_5 3.191601 1_555
Ga1_6 Sr1_6 3.191601 1_555
Ga1_7 Sr1_7 3.191601 1_555
Ga2_0 Ga2_4 3.098815 1_555
Ga2_0 Ga2_2 3.098815 1_555
Ga2_0 Ga2_4 3.098815 1_455
Ga2_0 Ga2_2 3.098815 1_545
Ga2_0 Sr0_0 3.191601 1_555
Ga2_1 Ga2_5 3.098815 1_455
Ga2_1 Ga2_3 3.098815 1_545
Ga2_1 Ga2_3 3.098815 1_555
Ga2_1 Ga2_5 3.098815 1_555
Ga2_1 Sr0_1 3.191601 1_555
Ga2_2 Ga2_6 3.098815 1_455
Ga2_2 Ga2_6 3.098815 1_555
Ga2_2 Sr0_2 3.191601 1_555
Ga2_3 Ga2_7 3.098815 1_455
Ga2_3 Ga2_7 3.098815 1_555
Ga2_3 Sr0_3 3.191601 1_555
Ga2_4 Ga2_6 3.098815 1_545
Ga2_4 Ga2_6 3.098815 1_555
Ga2_4 Sr0_4 3.191601 1_555
Ga2_5 Ga2_7 3.098815 1_545
Ga2_5 Ga2_7 3.098815 1_555
Ga2_5 Sr0_5 3.191601 1_555
Ga2_6 Sr0_6 3.191601 1_555
Ga2_7 Sr0_7 3.191601 1_555
Au0_0 Ga1_0 2.565506 1_555
Au0_0 Ga2_1 2.565506 1_554
Au0_0 Au0_2 3.098815 1_545
Au0_0 Au0_4 3.098815 1_455
Au0_0 Au0_2 3.098815 1_555
Au0_0 Au0_4 3.098815 1_555
Au0_1 Ga1_1 2.565506 1_555
Au0_1 Ga2_0 2.565506 1_555
Au0_1 Au0_5 3.098815 1_555
Au0_1 Au0_3 3.098815 1_555
Au0_1 Au0_3 3.098815 1_545
Au0_1 Au0_5 3.098815 1_455
Au0_2 Ga1_2 2.565506 1_555
Au0_2 Ga2_3 2.565506 1_554
Au0_2 Au0_6 3.098815 1_455
Au0_2 Au0_6 3.098815 1_555
Au0_3 Ga1_3 2.565506 1_555
Au0_3 Ga2_2 2.565506 1_555
Au0_3 Au0_7 3.098815 1_455
Au0_3 Au0_7 3.098815 1_555
Au0_4 Ga1_4 2.565506 1_555
Au0_4 Ga2_5 2.565506 1_554
Au0_4 Au0_6 3.098815 1_555
Au0_4 Au0_6 3.098815 1_545
Au0_5 Ga1_5 2.565506 1_555
Au0_5 Ga2_4 2.565506 1_555
Au0_5 Au0_7 3.098815 1_555
Au0_5 Au0_7 3.098815 1_545
Au0_6 Ga1_6 2.565506 1_555
Au0_6 Ga2_7 2.565506 1_554
Au0_7 Ga1_7 2.565506 1_555
Au0_7 Ga2_6 2.565506 1_555
Au1_0 Ga0_0 2.569949 1_555
Au1_0 Sr1_0 3.005386 1_555
Au1_0 Au1_4 3.098815 1_555
Au1_0 Au1_4 3.098815 1_455
Au1_0 Au1_2 3.098815 1_545
Au1_0 Au1_2 3.098815 1_555
Au1_1 Ga0_1 2.569949 1_555
Au1_1 Sr1_1 3.005386 1_555
Au1_1 Au1_3 3.098815 1_555
Au1_1 Au1_3 3.098815 1_545
Au1_1 Au1_5 3.098815 1_455
Au1_1 Au1_5 3.098815 1_555
Au1_2 Ga0_2 2.569949 1_555
Au1_2 Sr1_2 3.005386 1_555
Au1_2 Au1_6 3.098815 1_555
Au1_2 Au1_6 3.098815 1_455
Au1_3 Ga0_3 2.569949 1_555
Au1_3 Sr1_3 3.005386 1_555
Au1_3 Au1_7 3.098815 1_555
Au1_3 Au1_7 3.098815 1_455
Au1_4 Ga0_4 2.569949 1_555
Au1_4 Sr1_4 3.005386 1_555
Au1_4 Au1_6 3.098815 1_545
Au1_4 Au1_6 3.098815 1_555
Au1_5 Ga0_5 2.569949 1_555
Au1_5 Sr1_5 3.005386 1_555
Au1_5 Au1_7 3.098815 1_555
Au1_5 Au1_7 3.098815 1_545
Au1_6 Ga0_6 2.569949 1_555
Au1_6 Sr1_6 3.005386 1_555
Au1_7 Ga0_7 2.569949 1_555
Au1_7 Sr1_7 3.005386 1_555
Au2_0 Ga0_0 2.569949 1_555
Au2_0 Sr0_0 3.005386 1_555
Au2_0 Au2_2 3.098815 1_545
Au2_0 Au2_4 3.098815 1_455
Au2_0 Au2_2 3.098815 1_555
Au2_0 Au2_4 3.098815 1_555
Au2_1 Ga0_1 2.569949 1_555
Au2_1 Sr0_1 3.005386 1_555
Au2_1 Au2_5 3.098815 1_555
Au2_1 Au2_3 3.098815 1_545
Au2_1 Au2_3 3.098815 1_555
Au2_1 Au2_5 3.098815 1_455
Au2_2 Ga0_2 2.569949 1_555
Au2_2 Sr0_2 3.005386 1_555
Au2_2 Au2_6 3.098815 1_555
Au2_2 Au2_6 3.098815 1_455
Au2_3 Ga0_3 2.569949 1_555
Au2_3 Sr0_3 3.005386 1_555
Au2_3 Au2_7 3.098815 1_555
Au2_3 Au2_7 3.098815 1_455
Au2_4 Ga0_4 2.569949 1_555
Au2_4 Sr0_4 3.005386 1_555
Au2_4 Au2_6 3.098815 1_555
Au2_4 Au2_6 3.098815 1_545
Au2_5 Ga0_5 2.569949 1_555
Au2_5 Sr0_5 3.005386 1_555
Au2_5 Au2_7 3.098815 1_555
Au2_5 Au2_7 3.098815 1_545
Au2_6 Ga0_6 2.569949 1_555
Au2_6 Sr0_6 3.005386 1_555
Au2_7 Ga0_7 2.569949 1_555
Au2_7 Sr0_7 3.005386 1_555
