# generated using pymatgen
data_Dy14Au51
_symmetry_space_group_name_H-M   'P 1'
_cell_length_a   9.10092587
_cell_length_b   12.55637397
_cell_length_c   12.55629940
_cell_angle_alpha   120.00023186
_cell_angle_beta   90.00000000
_cell_angle_gamma   90.00000000
_symmetry_Int_Tables_number   1
_chemical_formula_structural   Dy14Au51
_chemical_formula_sum   'Dy14 Au51'
_cell_volume   1242.62789487
_cell_formula_units_Z   1
loop_
 _symmetry_equiv_pos_site_id
 _symmetry_equiv_pos_as_xyz
  1  'x, y, z'
loop_
 _atom_site_type_symbol
 _atom_site_label
 _atom_site_symmetry_multiplicity
 _atom_site_fract_x
 _atom_site_fract_y
 _atom_site_fract_z
 _atom_site_occupancy
  Dy  Dy0  1  0.50000000  0.67749325  0.53602433  1
  Dy  Dy1  1  0.50000000  0.46397533  0.14146998  1
  Dy  Dy2  1  0.50000000  0.85852735  0.32250718  1
  Dy  Dy3  1  0.50000000  0.32376980  0.46634545  1
  Dy  Dy4  1  0.50000000  0.53365282  0.85742413  1
  Dy  Dy5  1  0.50000000  0.14257418  0.67622850  1
  Dy  Dy6  1  0.00000000  0.27401831  0.88827295  1
  Dy  Dy7  1  0.00000000  0.11172706  0.38574711  1
  Dy  Dy8  1  0.00000000  0.61425716  0.72598142  1
  Dy  Dy9  1  0.00000000  0.71434530  0.11425491  1
  Dy  Dy10  1  0.00000000  0.88574354  0.60008922  1
  Dy  Dy11  1  0.00000000  0.39991452  0.28565343  1
  Dy  Dy12  1  0.30161047  0.00000084  0.00000121  1
  Dy  Dy13  1  0.69838953  0.00000084  0.00000121  1
  Au  Au0  1  0.15174666  0.62507754  0.50793194  1
  Au  Au1  1  0.15174496  0.49206666  0.11713936  1
  Au  Au2  1  0.15174828  0.88285929  0.37492622  1
  Au  Au3  1  0.15062692  0.38111571  0.49698259  1
  Au  Au4  1  0.15062640  0.50301783  0.88412738  1
  Au  Au5  1  0.15062973  0.11586927  0.61888841  1
  Au  Au6  1  0.84937308  0.38111571  0.49698259  1
  Au  Au7  1  0.84937360  0.50301783  0.88412738  1
  Au  Au8  1  0.84937027  0.11586927  0.61888841  1
  Au  Au9  1  0.84825334  0.62507754  0.50793194  1
  Au  Au10  1  0.84825504  0.49206666  0.11713936  1
  Au  Au11  1  0.84825172  0.88285929  0.37492622  1
  Au  Au12  1  0.00000000  0.66666892  0.33333005  1
  Au  Au13  1  0.00000000  0.33333130  0.66666412  1
  Au  Au14  1  0.33889171  0.33918222  0.89758696  1
  Au  Au15  1  0.33889157  0.10241031  0.44159191  1
  Au  Au16  1  0.33889276  0.55840934  0.66082253  1
  Au  Au17  1  0.33767534  0.65724367  0.10238097  1
  Au  Au18  1  0.33767559  0.89761629  0.55486769  1
  Au  Au19  1  0.33767649  0.44513306  0.34275191  1
  Au  Au20  1  0.66232466  0.65724367  0.10238097  1
  Au  Au21  1  0.66232441  0.89761629  0.55486769  1
  Au  Au22  1  0.66232351  0.44513306  0.34275191  1
  Au  Au23  1  0.66110829  0.33918222  0.89758696  1
  Au  Au24  1  0.66110843  0.10241031  0.44159191  1
  Au  Au25  1  0.66110724  0.55840934  0.66082253  1
  Au  Au26  1  0.23317003  0.08098056  0.80825995  1
  Au  Au27  1  0.23316868  0.19174246  0.27272413  1
  Au  Au28  1  0.23316960  0.72727945  0.91902229  1
  Au  Au29  1  0.22633141  0.92676021  0.19091179  1
  Au  Au30  1  0.22633209  0.80908583  0.73584869  1
  Au  Au31  1  0.22633353  0.26415171  0.07323924  1
  Au  Au32  1  0.77366859  0.92676021  0.19091179  1
  Au  Au33  1  0.77366791  0.80908583  0.73584869  1
  Au  Au34  1  0.77366647  0.26415171  0.07323924  1
  Au  Au35  1  0.76682997  0.08098056  0.80825995  1
  Au  Au36  1  0.76683132  0.19174246  0.27272413  1
  Au  Au37  1  0.76683040  0.72727945  0.91902229  1
  Au  Au38  1  0.31446794  0.66666590  0.33333230  1
  Au  Au39  1  0.31335758  0.33333150  0.66666425  1
  Au  Au40  1  0.68664242  0.33333150  0.66666425  1
  Au  Au41  1  0.68553206  0.66666590  0.33333230  1
  Au  Au42  1  0.50000000  0.17534514  0.94225529  1
  Au  Au43  1  0.50000000  0.05774152  0.23308010  1
  Au  Au44  1  0.50000000  0.76691805  0.82466615  1
  Au  Au45  1  0.50000000  0.81854393  0.06056088  1
  Au  Au46  1  0.50000000  0.93944281  0.75799607  1
  Au  Au47  1  0.50000000  0.24200601  0.18144703  1
  Au  Au48  1  0.00000000  0.97468976  0.86203303  1
  Au  Au49  1  0.00000000  0.13797037  0.11265742  1
  Au  Au50  1  0.00000000  0.88734527  0.02531181  1
loop_
_geom_bond_atom_site_label_1
_geom_bond_atom_site_label_2
_geom_bond_distance
_geom_bond_site_symmetry_2
Dy12 Dy13 3.611057 1_555
Au0 Au30 2.716021 1_555
Au0 Au19 2.753883 1_555
Au0 Au9 2.762070 1_455
Au0 Au12 2.851550 1_555
Au0 Au38 2.901194 1_555
Au0 Au16 2.982298 1_555
Au0 Au3 2.996917 1_555
Au0 Dy8 3.129500 1_555
Au0 Dy11 3.130384 1_555
Au0 Dy10 3.189280 1_555
Au0 Dy0 3.220358 1_555
Au1 Au31 2.716058 1_555
Au1 Au17 2.753832 1_555
Au1 Au10 2.762039 1_455
Au1 Au12 2.851519 1_555
Au1 Au38 2.901229 1_555
Au1 Au14 2.982230 1_554
Au1 Au4 2.996906 1_554
Au1 Dy6 3.129464 1_554
Au1 Dy9 3.130395 1_555
Au1 Dy11 3.189280 1_555
Au1 Dy1 3.220385 1_555
Au2 Au29 2.716037 1_555
Au2 Au38 2.901233 1_555
Au2 Au5 2.996885 1_565
Au2 Dy7 3.129494 1_565
Au2 Dy10 3.130393 1_555
Au2 Dy9 3.189325 1_555
Au2 Dy2 3.220348 1_555
Au3 Au6 2.741689 1_455
Au3 Au39 2.893276 1_555
Au3 Dy11 3.098776 1_555
Au3 Dy8 3.209249 1_555
Au3 Dy3 3.240284 1_555
Au3 Dy7 3.247639 1_555
Au4 Au7 2.741679 1_455
Au4 Dy9 3.098759 1_556
Au4 Dy6 3.209288 1_555
Au4 Dy4 3.240273 1_555
Au4 Dy8 3.247595 1_555
Au5 Au8 2.741740 1_455
Au5 Dy10 3.098773 1_545
Au5 Dy7 3.209261 1_555
Au5 Dy5 3.240246 1_555
Au5 Dy6 3.247589 1_555
Au6 Au9 2.996917 1_555
Au6 Dy11 3.098776 1_655
Au6 Dy8 3.209249 1_655
Au6 Dy3 3.240284 1_555
Au6 Dy7 3.247639 1_655
Au7 Dy9 3.098759 1_656
Au7 Dy6 3.209288 1_655
Au7 Dy4 3.240273 1_555
Au7 Dy8 3.247595 1_655
Au8 Dy10 3.098773 1_645
Au8 Dy7 3.209261 1_655
Au8 Dy5 3.240246 1_555
Au8 Dy6 3.247589 1_655
Au9 Dy8 3.129500 1_655
Au9 Dy11 3.130384 1_655
Au9 Dy10 3.189280 1_655
Au9 Dy0 3.220358 1_555
Au10 Au34 2.716058 1_555
Au10 Au20 2.753832 1_555
Au10 Au12 2.851519 1_655
Au10 Au41 2.901229 1_555
Au10 Au23 2.982230 1_554
Au10 Au7 2.996906 1_554
Au10 Dy6 3.129464 1_654
Au10 Dy9 3.130395 1_655
Au10 Dy11 3.189280 1_655
Au10 Dy1 3.220385 1_555
Au11 Au32 2.716037 1_555
Au11 Au21 2.753870 1_555
Au11 Au2 2.762100 1_655
Au11 Au12 2.851518 1_655
Au11 Au41 2.901233 1_555
Au11 Au24 2.982218 1_565
Au11 Au8 2.996885 1_565
Au11 Dy7 3.129494 1_665
Au11 Dy10 3.130393 1_655
Au11 Dy9 3.189325 1_655
Au11 Dy2 3.220348 1_555
Au12 Au2 2.851518 1_555
Au12 Au9 2.851550 1_455
Au12 Au41 2.861949 1_455
Au12 Au38 2.861949 1_555
Au12 Dy9 3.093843 1_555
Au12 Dy11 3.093891 1_555
Au12 Dy10 3.093893 1_555
Au13 Au4 2.838455 1_555
Au13 Au7 2.838455 1_455
Au13 Au6 2.838468 1_455
Au13 Au3 2.838468 1_555
Au13 Au8 2.838476 1_455
Au13 Au5 2.838476 1_555
Au13 Au40 2.851844 1_455
Au13 Au39 2.851844 1_555
Au13 Dy7 3.220151 1_555
Au13 Dy6 3.220220 1_555
Au13 Dy8 3.220265 1_555
Au14 Au4 2.746621 1_555
Au14 Au42 2.801841 1_555
Au14 Au39 2.872923 1_555
Au14 Au23 2.932469 1_555
Au14 Au31 2.979804 1_556
Au14 Au26 3.009727 1_555
Au14 Dy5 3.017935 1_555
Au14 Dy1 3.030546 1_556
Au14 Dy4 3.098095 1_555
Au14 Dy6 3.178040 1_555
Au15 Au5 2.746606 1_555
Au15 Au43 2.801893 1_555
Au15 Au39 2.872915 1_555
Au15 Au24 2.932472 1_555
Au15 Au29 2.979770 1_545
Au15 Au2 2.982218 1_545
Au15 Au27 3.009695 1_555
Au15 Dy3 3.017949 1_555
Au15 Dy2 3.030561 1_545
Au15 Dy5 3.098109 1_555
Au15 Dy7 3.178028 1_555
Au16 Au3 2.746624 1_555
Au16 Au44 2.801872 1_555
Au16 Au39 2.872956 1_555
Au16 Au25 2.932450 1_555
Au16 Au30 2.979760 1_555
Au16 Au28 3.009685 1_555
Au16 Dy4 3.017904 1_555
Au16 Dy0 3.030548 1_555
Au16 Dy3 3.098146 1_555
Au16 Dy8 3.178036 1_555
Au17 Au45 2.761109 1_555
Au17 Au38 2.850422 1_555
Au17 Au20 2.954609 1_555
Au17 Au4 2.975082 1_554
Au17 Au28 3.000532 1_554
Au17 Dy2 3.037102 1_555
Au17 Dy4 3.045944 1_554
Au17 Dy1 3.082780 1_555
Au17 Dy9 3.142245 1_555
Au17 Au29 3.154854 1_555
Au18 Au2 2.753870 1_555
Au18 Au46 2.761155 1_555
Au18 Au38 2.850453 1_555
Au18 Au21 2.954605 1_555
Au18 Au5 2.975091 1_565
Au18 Au26 3.000518 1_565
Au18 Dy0 3.037078 1_555
Au18 Dy5 3.045967 1_565
Au18 Dy2 3.082797 1_555
Au18 Dy10 3.142229 1_555
Au18 Au30 3.154790 1_555
Au19 Au47 2.761156 1_555
Au19 Au38 2.850470 1_555
Au19 Au22 2.954588 1_555
Au19 Au3 2.975064 1_555
Au19 Au27 3.000526 1_555
Au19 Dy1 3.037080 1_555
Au19 Dy3 3.045954 1_555
Au19 Dy0 3.082798 1_555
Au19 Dy11 3.142241 1_555
Au19 Au31 3.154786 1_555
Au20 Au45 2.761109 1_555
Au20 Au41 2.850422 1_555
Au20 Au7 2.975082 1_554
Au20 Au37 3.000532 1_554
Au20 Dy2 3.037102 1_555
Au20 Dy4 3.045944 1_554
Au20 Dy1 3.082780 1_555
Au20 Dy9 3.142245 1_655
Au20 Au32 3.154854 1_555
Au21 Au46 2.761155 1_555
Au21 Au41 2.850453 1_555
Au21 Au8 2.975091 1_565
Au21 Au35 3.000518 1_565
Au21 Dy0 3.037078 1_555
Au21 Dy5 3.045967 1_565
Au21 Dy2 3.082797 1_555
Au21 Dy10 3.142229 1_655
Au21 Au33 3.154790 1_555
Au22 Au9 2.753883 1_555
Au22 Au47 2.761156 1_555
Au22 Au41 2.850470 1_555
Au22 Au6 2.975064 1_555
Au22 Au36 3.000526 1_555
Au22 Dy1 3.037080 1_555
Au22 Dy3 3.045954 1_555
Au22 Dy0 3.082798 1_555
Au22 Dy11 3.142241 1_655
Au22 Au34 3.154786 1_555
Au23 Au7 2.746621 1_555
Au23 Au42 2.801841 1_555
Au23 Au40 2.872923 1_555
Au23 Au34 2.979804 1_556
Au23 Au35 3.009727 1_555
Au23 Dy5 3.017935 1_555
Au23 Dy1 3.030546 1_556
Au23 Dy4 3.098095 1_555
Au23 Dy6 3.178040 1_655
Au24 Au8 2.746606 1_555
Au24 Au43 2.801893 1_555
Au24 Au40 2.872915 1_555
Au24 Au32 2.979770 1_545
Au24 Au36 3.009695 1_555
Au24 Dy3 3.017949 1_555
Au24 Dy2 3.030561 1_545
Au24 Dy5 3.098109 1_555
Au24 Dy7 3.178028 1_655
Au25 Au6 2.746624 1_555
Au25 Au44 2.801872 1_555
Au25 Au40 2.872956 1_555
Au25 Au33 2.979760 1_555
Au25 Au9 2.982298 1_555
Au25 Au37 3.009685 1_555
Au25 Dy4 3.017904 1_555
Au25 Dy0 3.030548 1_555
Au25 Dy3 3.098146 1_555
Au25 Dy8 3.178036 1_655
Au26 Au5 2.729804 1_555
Au26 Au48 2.764308 1_545
Au26 Au42 2.852764 1_555
Au26 Au46 2.886562 1_545
Au26 Au31 2.951490 1_556
Au26 Dy6 2.992055 1_555
Au26 Au30 3.062993 1_545
Au26 Dy12 3.109064 1_556
Au26 Dy5 3.244350 1_555
Au26 Dy10 3.307153 1_545
Au27 Au3 2.729795 1_555
Au27 Au49 2.764313 1_555
Au27 Au43 2.852796 1_555
Au27 Au47 2.886590 1_555
Au27 Au29 2.951536 1_545
Au27 Dy7 2.992048 1_555
Au27 Au31 3.062982 1_555
Au27 Dy12 3.109071 1_555
Au27 Dy3 3.244323 1_555
Au27 Dy11 3.307190 1_555
Au28 Au4 2.729811 1_555
Au28 Au50 2.764311 1_556
Au28 Au44 2.852755 1_555
Au28 Au45 2.886554 1_556
Au28 Au30 2.951517 1_555
Au28 Dy8 2.992063 1_555
Au28 Au29 3.062916 1_556
Au28 Dy12 3.109079 1_566
Au28 Dy4 3.244361 1_555
Au28 Dy9 3.307113 1_556
Au29 Au50 2.789680 1_555
Au29 Au43 2.884040 1_565
Au29 Au45 2.916246 1_555
Au29 Dy12 3.043985 1_565
Au29 Dy9 3.117027 1_555
Au29 Dy7 3.152778 1_565
Au29 Dy2 3.329151 1_555
Au30 Au48 2.789710 1_555
Au30 Au44 2.884057 1_555
Au30 Au46 2.916255 1_555
Au30 Dy12 3.043997 1_566
Au30 Dy10 3.117046 1_555
Au30 Dy8 3.152737 1_555
Au30 Dy0 3.329110 1_555
Au31 Au49 2.789692 1_555
Au31 Au42 2.884022 1_554
Au31 Au47 2.916222 1_555
Au31 Dy12 3.043993 1_555
Au31 Dy11 3.117029 1_555
Au31 Dy6 3.152778 1_554
Au31 Dy1 3.329106 1_555
Au32 Au50 2.789680 1_655
Au32 Au43 2.884040 1_565
Au32 Au45 2.916246 1_555
Au32 Au36 2.951536 1_565
Au32 Dy13 3.043985 1_565
Au32 Au37 3.062916 1_554
Au32 Dy9 3.117027 1_655
Au32 Dy7 3.152778 1_665
Au32 Dy2 3.329151 1_555
Au33 Au9 2.716021 1_555
Au33 Au48 2.789710 1_655
Au33 Au44 2.884057 1_555
Au33 Au46 2.916255 1_555
Au33 Au37 2.951517 1_555
Au33 Dy13 3.043997 1_566
Au33 Au35 3.062993 1_565
Au33 Dy10 3.117046 1_655
Au33 Dy8 3.152737 1_655
Au33 Dy0 3.329110 1_555
Au34 Au49 2.789692 1_655
Au34 Au42 2.884022 1_554
Au34 Au47 2.916222 1_555
Au34 Au35 2.951490 1_554
Au34 Dy13 3.043993 1_555
Au34 Au36 3.062982 1_555
Au34 Dy11 3.117029 1_655
Au34 Dy6 3.152778 1_654
Au34 Dy1 3.329106 1_555
Au35 Au8 2.729804 1_555
Au35 Au48 2.764308 1_645
Au35 Au42 2.852764 1_555
Au35 Au46 2.886562 1_545
Au35 Dy6 2.992055 1_655
Au35 Dy13 3.109064 1_556
Au35 Dy5 3.244350 1_555
Au35 Dy10 3.307153 1_645
Au36 Au6 2.729795 1_555
Au36 Au49 2.764313 1_655
Au36 Au43 2.852796 1_555
Au36 Au47 2.886590 1_555
Au36 Dy7 2.992048 1_655
Au36 Dy13 3.109071 1_555
Au36 Dy3 3.244323 1_555
Au36 Dy11 3.307190 1_655
Au37 Au7 2.729811 1_555
Au37 Au50 2.764311 1_656
Au37 Au44 2.852755 1_555
Au37 Au45 2.886554 1_556
Au37 Dy8 2.992063 1_655
Au37 Dy13 3.109079 1_566
Au37 Dy4 3.244361 1_555
Au37 Dy9 3.307113 1_656
Au38 Dy2 3.000115 1_555
Au38 Dy1 3.000129 1_555
Au38 Dy0 3.000149 1_555
Au39 Au5 2.893260 1_555
Au39 Au4 2.893267 1_555
Au39 Dy3 2.987354 1_555
Au39 Dy4 2.987381 1_555
Au39 Dy5 2.987383 1_555
Au40 Au8 2.893260 1_555
Au40 Au7 2.893267 1_555
Au40 Au6 2.893276 1_555
Au40 Dy3 2.987354 1_555
Au40 Dy4 2.987381 1_555
Au40 Dy5 2.987383 1_555
Au41 Au9 2.901194 1_555
Au41 Dy2 3.000115 1_555
Au41 Dy1 3.000129 1_555
Au41 Dy0 3.000149 1_555
Au42 Au47 2.684567 1_556
Au42 Au46 2.696954 1_545
Au42 Dy5 3.154760 1_555
Au42 Dy12 3.198359 1_556
Au42 Dy13 3.198359 1_556
Au42 Dy1 3.213401 1_556
Au43 Au45 2.684592 1_545
Au43 Au47 2.696947 1_555
Au43 Dy3 3.154822 1_555
Au43 Dy13 3.198245 1_555
Au43 Dy12 3.198245 1_555
Au43 Dy2 3.213513 1_545
Au44 Au46 2.684595 1_555
Au44 Au45 2.696921 1_556
Au44 Dy4 3.154801 1_555
Au44 Dy12 3.198270 1_566
Au44 Dy13 3.198270 1_566
Au44 Dy0 3.213503 1_555
Au45 Dy2 3.069005 1_555
Au45 Dy4 3.190285 1_554
Au45 Dy12 3.280548 1_565
Au45 Dy13 3.280548 1_565
Au46 Dy0 3.069076 1_555
Au46 Dy5 3.190352 1_565
Au46 Dy12 3.280420 1_566
Au46 Dy13 3.280420 1_566
Au47 Dy1 3.069057 1_555
Au47 Dy3 3.190334 1_555
Au47 Dy12 3.280423 1_555
Au47 Dy13 3.280423 1_555
Au48 Au50 2.766686 1_556
Au48 Au49 2.766687 1_566
Au48 Dy10 2.896857 1_555
Au48 Dy13 3.175878 1_466
Au48 Dy12 3.175878 1_566
Au49 Au50 2.766710 1_545
Au49 Dy11 2.896869 1_555
Au49 Dy13 3.175883 1_455
Au49 Dy12 3.175883 1_555
Au50 Dy9 2.896877 1_555
Au50 Dy13 3.175872 1_465
Au50 Dy12 3.175872 1_565
