# generated using pymatgen
data_Ca16Sb11
_symmetry_space_group_name_H-M   'P 1'
_cell_length_a   11.33968700
_cell_length_b   12.31145500
_cell_length_c   12.31775500
_cell_angle_alpha   90.00000000
_cell_angle_beta   90.00000000
_cell_angle_gamma   90.00000000
_symmetry_Int_Tables_number   1
_chemical_formula_structural   Ca16Sb11
_chemical_formula_sum   'Ca32 Sb22'
_cell_volume   1719.65770930
_cell_formula_units_Z   2
loop_
 _symmetry_equiv_pos_site_id
 _symmetry_equiv_pos_as_xyz
  1  'x, y, z'
loop_
 _atom_site_type_symbol
 _atom_site_label
 _atom_site_symmetry_multiplicity
 _atom_site_fract_x
 _atom_site_fract_y
 _atom_site_fract_z
 _atom_site_occupancy
  Ca  Ca0  1  0.86044700  0.50000000  0.00000000  1
  Ca  Ca1  1  0.13955300  0.00000000  0.50000000  1
  Ca  Ca2  1  0.49884300  0.63150100  0.13120900  1
  Ca  Ca3  1  0.50115700  0.13150100  0.36879100  1
  Ca  Ca4  1  0.49884300  0.36849900  0.86879100  1
  Ca  Ca5  1  0.50115700  0.86849900  0.63120900  1
  Ca  Ca6  1  0.00054200  0.79212000  0.08759800  1
  Ca  Ca7  1  0.99945800  0.29212000  0.41240200  1
  Ca  Ca8  1  0.00054200  0.20788000  0.91240200  1
  Ca  Ca9  1  0.99945800  0.70788000  0.58759800  1
  Ca  Ca10  1  0.99874200  0.08793800  0.20756800  1
  Ca  Ca11  1  0.00125800  0.58793800  0.29243200  1
  Ca  Ca12  1  0.99874200  0.91206200  0.79243200  1
  Ca  Ca13  1  0.00125800  0.41206200  0.70756800  1
  Ca  Ca14  1  0.21395700  0.50000000  0.00000000  1
  Ca  Ca15  1  0.78604300  0.00000000  0.50000000  1
  Ca  Ca16  1  0.71127900  0.92411400  0.21033700  1
  Ca  Ca17  1  0.28872100  0.42411400  0.28966300  1
  Ca  Ca18  1  0.71127900  0.07588600  0.78966300  1
  Ca  Ca19  1  0.28872100  0.57588600  0.71033700  1
  Ca  Ca20  1  0.28857500  0.20919000  0.07565400  1
  Ca  Ca21  1  0.71142500  0.70919000  0.42434600  1
  Ca  Ca22  1  0.28857500  0.79081000  0.92434600  1
  Ca  Ca23  1  0.71142500  0.29081000  0.57565400  1
  Ca  Ca24  1  0.68802300  0.57059500  0.70632300  1
  Ca  Ca25  1  0.31197700  0.07059500  0.79367700  1
  Ca  Ca26  1  0.68802300  0.42940500  0.29367700  1
  Ca  Ca27  1  0.31197700  0.92940500  0.20632300  1
  Ca  Ca28  1  0.31780300  0.70153800  0.43071400  1
  Ca  Ca29  1  0.68219700  0.20153800  0.06928600  1
  Ca  Ca30  1  0.31780300  0.29846200  0.56928600  1
  Ca  Ca31  1  0.68219700  0.79846200  0.93071400  1
  Sb  Sb0  1  0.85044500  0.50000000  0.50000000  1
  Sb  Sb1  1  0.14955500  0.00000000  0.00000000  1
  Sb  Sb2  1  0.15350500  0.50000000  0.50000000  1
  Sb  Sb3  1  0.84649500  0.00000000  0.00000000  1
  Sb  Sb4  1  0.96633500  0.85467800  0.35449500  1
  Sb  Sb5  1  0.03366500  0.35467800  0.14550500  1
  Sb  Sb6  1  0.96633500  0.14532200  0.64550500  1
  Sb  Sb7  1  0.03366500  0.64532200  0.85449500  1
  Sb  Sb8  1  0.51276000  0.87416400  0.37433400  1
  Sb  Sb9  1  0.48724000  0.37416400  0.12566600  1
  Sb  Sb10  1  0.51276000  0.12583600  0.62566600  1
  Sb  Sb11  1  0.48724000  0.62583600  0.87433400  1
  Sb  Sb12  1  0.76375600  0.66511600  0.16405200  1
  Sb  Sb13  1  0.23624400  0.16511600  0.33594800  1
  Sb  Sb14  1  0.76375600  0.33488400  0.83594800  1
  Sb  Sb15  1  0.23624400  0.83488400  0.66405200  1
  Sb  Sb16  1  0.23741200  0.67914400  0.18069900  1
  Sb  Sb17  1  0.76258800  0.17914400  0.31930100  1
  Sb  Sb18  1  0.23741200  0.32085600  0.81930100  1
  Sb  Sb19  1  0.76258800  0.82085600  0.68069900  1
  Sb  Sb20  1  0.50601400  0.50000000  0.50000000  1
  Sb  Sb21  1  0.49398600  0.00000000  0.00000000  1
loop_
_geom_bond_atom_site_label_1
_geom_bond_atom_site_label_2
_geom_bond_distance
_geom_bond_site_symmetry_2
Ca0 Sb14 3.068873 1_554
Ca0 Sb12 3.068873 1_555
Ca0 Sb7 3.204921 1_654
Ca0 Sb5 3.204921 1_655
Ca1 Sb13 3.068873 1_555
Ca1 Sb15 3.068873 1_545
Ca1 Sb4 3.204921 1_445
Ca1 Sb6 3.204921 1_455
Ca2 Sb12 3.059270 1_555
Ca2 Sb16 3.082888 1_555
Ca2 Sb11 3.167626 1_554
Ca2 Sb9 3.171659 1_555
Ca3 Sb13 3.059270 1_555
Ca3 Sb17 3.082888 1_555
Ca3 Sb10 3.167626 1_555
Ca3 Sb8 3.171659 1_545
Ca4 Sb14 3.059270 1_555
Ca4 Sb18 3.082888 1_555
Ca4 Sb9 3.167626 1_556
Ca4 Sb11 3.171659 1_555
Ca5 Sb15 3.059270 1_555
Ca5 Sb19 3.082888 1_555
Ca5 Sb8 3.167626 1_555
Ca5 Sb10 3.171659 1_565
Ca6 Sb16 3.234889 1_555
Ca6 Sb12 3.246750 1_455
Ca6 Sb1 3.251092 1_565
Ca6 Sb3 3.281124 1_465
Ca6 Sb4 3.398789 1_455
Ca6 Sb7 3.413473 1_554
Ca7 Sb17 3.234889 1_555
Ca7 Sb13 3.246750 1_655
Ca7 Sb0 3.251092 1_555
Ca7 Sb2 3.281124 1_655
Ca7 Sb5 3.398789 1_655
Ca7 Sb6 3.413473 1_555
Ca8 Sb18 3.234889 1_555
Ca8 Sb14 3.246750 1_455
Ca8 Sb1 3.251092 1_556
Ca8 Sb3 3.281124 1_456
Ca8 Sb6 3.398789 1_455
Ca8 Sb5 3.413473 1_556
Ca9 Sb19 3.234889 1_555
Ca9 Sb15 3.246750 1_655
Ca9 Sb0 3.251092 1_555
Ca9 Sb2 3.281124 1_655
Ca9 Sb7 3.398789 1_655
Ca9 Sb4 3.413473 1_555
Ca10 Sb17 3.213452 1_555
Ca10 Sb1 3.260965 1_655
Ca10 Sb13 3.264479 1_655
Ca10 Sb3 3.269522 1_555
Ca10 Sb5 3.394942 1_655
Ca10 Sb4 3.414312 1_545
Ca11 Sb16 3.213452 1_555
Ca11 Sb0 3.260965 1_455
Ca11 Sb12 3.264479 1_455
Ca11 Sb2 3.269522 1_555
Ca11 Sb4 3.394942 1_455
Ca11 Sb5 3.414312 1_555
Ca12 Sb19 3.213452 1_555
Ca12 Sb1 3.260965 1_666
Ca12 Sb15 3.264479 1_655
Ca12 Sb3 3.269522 1_566
Ca12 Sb7 3.394942 1_655
Ca12 Sb6 3.414312 1_565
Ca13 Sb18 3.213452 1_555
Ca13 Sb0 3.260965 1_455
Ca13 Sb14 3.264479 1_455
Ca13 Sb2 3.269522 1_555
Ca13 Sb6 3.394942 1_455
Ca13 Sb7 3.414312 1_555
Ca14 Sb16 3.144724 1_555
Ca14 Sb18 3.144724 1_554
Ca14 Sb7 3.254702 1_554
Ca14 Sb5 3.254702 1_555
Ca15 Sb17 3.144724 1_555
Ca15 Sb19 3.144724 1_545
Ca15 Sb4 3.254702 1_545
Ca15 Sb6 3.254702 1_555
Ca16 Sb8 3.086506 1_555
Ca16 Sb3 3.152228 1_565
Ca16 Sb12 3.293417 1_555
Ca16 Sb17 3.463854 1_565
Ca16 Sb4 3.499863 1_555
Ca16 Sb21 3.695535 1_565
Ca17 Sb9 3.086506 1_555
Ca17 Sb2 3.152228 1_555
Ca17 Sb13 3.293417 1_555
Ca17 Sb16 3.463854 1_555
Ca17 Sb5 3.499863 1_555
Ca17 Sb20 3.695535 1_555
Ca18 Sb10 3.086506 1_555
Ca18 Sb3 3.152228 1_556
Ca18 Sb14 3.293417 1_555
Ca18 Sb19 3.463854 1_545
Ca18 Sb6 3.499863 1_555
Ca18 Sb21 3.695535 1_556
Ca19 Sb11 3.086506 1_555
Ca19 Sb2 3.152228 1_555
Ca19 Sb15 3.293417 1_555
Ca19 Sb18 3.463854 1_555
Ca19 Sb7 3.499863 1_555
Ca19 Sb20 3.695535 1_555
Ca20 Sb9 3.095133 1_555
Ca20 Sb1 3.160134 1_555
Ca20 Sb13 3.305531 1_555
Ca20 Sb18 3.492510 1_554
Ca20 Sb5 3.507728 1_555
Ca20 Sb21 3.595399 1_555
Ca21 Sb8 3.095133 1_555
Ca21 Sb0 3.160134 1_555
Ca21 Sb12 3.305531 1_555
Ca21 Sb19 3.492510 1_555
Ca21 Sb4 3.507728 1_555
Ca21 Sb20 3.595399 1_555
Ca22 Sb11 3.095133 1_555
Ca22 Sb1 3.160134 1_566
Ca22 Sb15 3.305531 1_555
Ca22 Sb16 3.492510 1_556
Ca22 Sb7 3.507728 1_555
Ca22 Sb21 3.595399 1_566
Ca23 Sb10 3.095133 1_555
Ca23 Sb0 3.160134 1_555
Ca23 Sb14 3.305531 1_555
Ca23 Sb17 3.492510 1_555
Ca23 Sb6 3.507728 1_555
Ca23 Sb20 3.595399 1_555
Ca24 Sb11 3.151084 1_555
Ca24 Sb19 3.210545 1_555
Ca24 Sb0 3.256772 1_555
Ca24 Sb20 3.387339 1_555
Ca24 Sb14 3.421728 1_555
Ca25 Sb10 3.151084 1_555
Ca25 Sb18 3.210545 1_555
Ca25 Sb1 3.256772 1_556
Ca25 Sb21 3.387339 1_556
Ca25 Sb15 3.421728 1_545
Ca26 Sb9 3.151084 1_555
Ca26 Sb17 3.210545 1_555
Ca26 Sb0 3.256772 1_555
Ca26 Sb20 3.387339 1_555
Ca26 Sb12 3.421728 1_555
Ca27 Sb8 3.151084 1_555
Ca27 Sb16 3.210545 1_555
Ca27 Sb1 3.256772 1_565
Ca27 Sb21 3.387339 1_565
Ca27 Sb13 3.421728 1_565
Ca28 Sb8 3.144284 1_555
Ca28 Sb2 3.218067 1_555
Ca28 Sb16 3.223527 1_555
Ca28 Sb20 3.382291 1_555
Ca28 Sb15 3.436787 1_555
Ca29 Sb9 3.144284 1_555
Ca29 Sb3 3.218067 1_555
Ca29 Sb17 3.223527 1_555
Ca29 Sb21 3.382291 1_555
Ca29 Sb14 3.436787 1_554
Ca30 Sb10 3.144284 1_555
Ca30 Sb2 3.218067 1_555
Ca30 Sb18 3.223527 1_555
Ca30 Sb20 3.382291 1_555
Ca30 Sb13 3.436787 1_555
Ca31 Sb11 3.144284 1_555
Ca31 Sb3 3.218067 1_566
Ca31 Sb19 3.223527 1_555
Ca31 Sb21 3.382291 1_566
Ca31 Sb12 3.436787 1_556
