# generated using pymatgen
data_K3HoF6
_symmetry_space_group_name_H-M   'P 1'
_cell_length_a   6.79549495
_cell_length_b   6.79549495
_cell_length_c   6.79549495
_cell_angle_alpha   95.02039647
_cell_angle_beta   117.14505652
_cell_angle_gamma   117.14505652
_symmetry_Int_Tables_number   1
_chemical_formula_structural   K3HoF6
_chemical_formula_sum   'K3 Ho1 F6'
_cell_volume   230.51312602
_cell_formula_units_Z   1
loop_
 _symmetry_equiv_pos_site_id
 _symmetry_equiv_pos_as_xyz
  1  'x, y, z'
loop_
 _atom_site_type_symbol
 _atom_site_label
 _atom_site_symmetry_multiplicity
 _atom_site_fract_x
 _atom_site_fract_y
 _atom_site_fract_z
 _atom_site_occupancy
  K  K0  1  0.50000000  0.75000000  0.25000000  1
  K  K1  1  0.50000000  0.25000000  0.75000000  1
  K  K2  1  0.00000000  0.50000000  0.50000000  1
  Ho  Ho0  1  0.00000000  0.00000000  0.00000000  1
  F  F0  1  0.69472800  0.69472800  0.00000000  1
  F  F1  1  0.30527200  0.30527200  0.00000000  1
  F  F2  1  0.69472800  0.00000000  0.69472800  1
  F  F3  1  0.30527200  0.00000000  0.30527200  1
  F  F4  1  0.00000000  0.76260600  0.76260600  1
  F  F5  1  0.00000000  0.23739400  0.23739400  1
loop_
_geom_bond_atom_site_label_1
_geom_bond_atom_site_label_2
_geom_bond_distance
_geom_bond_site_symmetry_2
F0 Ho0 2.163340 1_665
F0 K0 2.677964 1_555
F0 K1 2.677964 1_554
F1 Ho0 2.163340 1_555
F1 K0 2.677964 1_555
F1 K1 2.677964 1_554
F2 Ho0 2.163340 1_656
F2 K0 2.677964 1_545
F2 K1 2.677964 1_555
F3 Ho0 2.163340 1_555
F3 K0 2.677964 1_545
F3 K1 2.677964 1_555
F4 Ho0 2.179314 1_566
F4 K2 2.410764 1_555
F5 Ho0 2.179314 1_555
F5 K2 2.410764 1_555
