# generated using pymatgen
data_Yb7MgPt4
_symmetry_space_group_name_H-M   'P 1'
_cell_length_a   4.55441989
_cell_length_b   7.00635013
_cell_length_c   8.54338916
_cell_angle_alpha   86.87523446
_cell_angle_beta   90.00000000
_cell_angle_gamma   90.00000000
_symmetry_Int_Tables_number   1
_chemical_formula_structural   Yb7MgPt4
_chemical_formula_sum   'Yb7 Mg1 Pt4'
_cell_volume   272.21302651
_cell_formula_units_Z   1
loop_
 _symmetry_equiv_pos_site_id
 _symmetry_equiv_pos_as_xyz
  1  'x, y, z'
loop_
 _atom_site_type_symbol
 _atom_site_label
 _atom_site_symmetry_multiplicity
 _atom_site_fract_x
 _atom_site_fract_y
 _atom_site_fract_z
 _atom_site_occupancy
  Yb  Yb0  1  0.50000000  0.53176703  0.82254735  1
  Yb  Yb1  1  0.50000000  0.99343246  0.65319520  1
  Yb  Yb2  1  0.00000000  0.49354843  0.17733563  1
  Yb  Yb3  1  0.00000000  0.96671721  0.33803522  1
  Yb  Yb4  1  0.50000000  0.14931134  0.07602767  1
  Yb  Yb5  1  0.00000000  0.34689167  0.57068673  1
  Yb  Yb6  1  0.00000000  0.87287843  0.92393510  1
  Mg  Mg0  1  0.50000000  0.63787404  0.42617023  1
  Pt  Pt0  1  0.50000000  0.74913720  0.10062742  1
  Pt  Pt1  1  0.50000000  0.24059874  0.39107647  1
  Pt  Pt2  1  0.00000000  0.27660995  0.90434124  1
  Pt  Pt3  1  0.00000000  0.74123251  0.61602273  1
loop_
_geom_bond_atom_site_label_1
_geom_bond_atom_site_label_2
_geom_bond_distance
_geom_bond_site_symmetry_2
Yb0 Yb4 3.352232 1_556
Yb0 Yb5 3.434727 1_555
Yb0 Yb5 3.434727 1_655
Yb0 Yb6 3.445796 1_655
Yb0 Yb6 3.445796 1_555
Yb0 Yb1 3.470693 1_555
Yb1 Yb6 3.322086 1_555
Yb1 Yb6 3.322086 1_655
Yb1 Yb5 3.409561 1_565
Yb1 Yb5 3.409561 1_665
Yb2 Yb6 3.335114 1_554
Yb2 Yb5 3.460154 1_555
Yb3 Yb5 3.409227 1_565
Yb3 Yb6 3.633456 1_554
Yb4 Yb6 3.301453 1_544
Yb4 Yb6 3.301453 1_644
Mg0 Pt1 2.815753 1_555
Mg0 Pt0 2.847212 1_555
Mg0 Pt3 2.910152 1_555
Mg0 Pt3 2.910152 1_655
Mg0 Yb1 3.239534 1_555
Mg0 Yb5 3.254543 1_655
Mg0 Yb5 3.254543 1_555
Mg0 Yb3 3.297255 1_555
Mg0 Yb3 3.297255 1_655
Mg0 Yb2 3.310887 1_655
Mg0 Yb2 3.310887 1_555
Mg0 Yb0 3.427236 1_555
Pt0 Yb4 2.800178 1_565
Pt0 Yb6 2.841372 1_654
Pt0 Yb6 2.841372 1_554
Pt0 Yb0 2.891033 1_554
Pt0 Yb2 2.948557 1_655
Pt0 Yb2 2.948557 1_555
Pt0 Yb3 3.458405 1_555
Pt0 Yb3 3.458405 1_655
Pt1 Yb1 2.755168 1_545
Pt1 Yb4 2.800247 1_555
Pt1 Yb5 2.866970 1_555
Pt1 Yb5 2.866970 1_655
Pt1 Yb3 3.027878 1_645
Pt1 Yb3 3.027878 1_545
Pt1 Yb2 3.362779 1_555
Pt1 Yb2 3.362779 1_655
Pt2 Yb6 2.824510 1_545
Pt2 Yb4 2.826659 1_456
Pt2 Yb4 2.826659 1_556
Pt2 Yb2 2.852424 1_556
Pt2 Yb5 2.866187 1_555
Pt2 Yb0 2.955292 1_555
Pt2 Yb0 2.955292 1_455
Pt3 Yb3 2.779786 1_555
Pt3 Yb5 2.810738 1_555
Pt3 Yb6 2.834679 1_555
Pt3 Yb1 2.910329 1_555
Pt3 Yb1 2.910329 1_455
Pt3 Yb0 3.189103 1_555
Pt3 Yb0 3.189103 1_455
