# generated using pymatgen
data_Sr3Lu2O12
_symmetry_space_group_name_H-M   'P 1'
_cell_length_a   12.57655948
_cell_length_b   12.57655948
_cell_length_c   12.57655948
_cell_angle_alpha   109.47122063
_cell_angle_beta   109.47122063
_cell_angle_gamma   109.47122063
_symmetry_Int_Tables_number   1
_chemical_formula_structural   Sr3Lu2O12
_chemical_formula_sum   'Sr12 Lu8 O48'
_cell_volume   1531.31189612
_cell_formula_units_Z   4
loop_
 _symmetry_equiv_pos_site_id
 _symmetry_equiv_pos_as_xyz
  1  'x, y, z'
loop_
 _atom_site_type_symbol
 _atom_site_label
 _atom_site_symmetry_multiplicity
 _atom_site_fract_x
 _atom_site_fract_y
 _atom_site_fract_z
 _atom_site_occupancy
  Sr  Sr0  1  0.25000000  0.37500000  0.12500000  1
  Sr  Sr1  1  0.75000000  0.62500000  0.87500000  1
  Sr  Sr2  1  0.75000000  0.12500000  0.37500000  1
  Sr  Sr3  1  0.12500000  0.25000000  0.37500000  1
  Sr  Sr4  1  0.37500000  0.75000000  0.12500000  1
  Sr  Sr5  1  0.25000000  0.87500000  0.62500000  1
  Sr  Sr6  1  0.87500000  0.75000000  0.62500000  1
  Sr  Sr7  1  0.62500000  0.25000000  0.87500000  1
  Sr  Sr8  1  0.37500000  0.12500000  0.25000000  1
  Sr  Sr9  1  0.62500000  0.87500000  0.75000000  1
  Sr  Sr10  1  0.12500000  0.37500000  0.75000000  1
  Sr  Sr11  1  0.87500000  0.62500000  0.25000000  1
  Lu  Lu0  1  0.00000000  0.00000000  0.00000000  1
  Lu  Lu1  1  0.50000000  0.00000000  0.50000000  1
  Lu  Lu2  1  0.00000000  0.50000000  0.50000000  1
  Lu  Lu3  1  0.50000000  0.00000000  0.00000000  1
  Lu  Lu4  1  0.50000000  0.50000000  0.00000000  1
  Lu  Lu5  1  0.50000000  0.50000000  0.50000000  1
  Lu  Lu6  1  0.00000000  0.00000000  0.50000000  1
  Lu  Lu7  1  0.00000000  0.50000000  0.00000000  1
  O  O0  1  0.43599900  0.36926800  0.29984500  1
  O  O1  1  0.56400100  0.63073200  0.70015500  1
  O  O2  1  0.56942300  0.13615300  0.20015500  1
  O  O3  1  0.93057700  0.13073200  0.56673000  1
  O  O4  1  0.29984500  0.43599900  0.36926800  1
  O  O5  1  0.36384700  0.93057700  0.29984500  1
  O  O6  1  0.43057700  0.86384700  0.79984500  1
  O  O7  1  0.06942300  0.86926800  0.43327000  1
  O  O8  1  0.70015500  0.56400100  0.63073200  1
  O  O9  1  0.63615300  0.06942300  0.70015500  1
  O  O10  1  0.06400100  0.36384700  0.93327000  1
  O  O11  1  0.20015500  0.56942300  0.13615300  1
  O  O12  1  0.13073200  0.06400100  0.20015500  1
  O  O13  1  0.93599900  0.63615300  0.06673000  1
  O  O14  1  0.79984500  0.43057700  0.86384700  1
  O  O15  1  0.86926800  0.93599900  0.79984500  1
  O  O16  1  0.56673000  0.93057700  0.13073200  1
  O  O17  1  0.13615300  0.43599900  0.56673000  1
  O  O18  1  0.43327000  0.06942300  0.86926800  1
  O  O19  1  0.86384700  0.56400100  0.43327000  1
  O  O20  1  0.93327000  0.06400100  0.36384700  1
  O  O21  1  0.36926800  0.56942300  0.93327000  1
  O  O22  1  0.06673000  0.93599900  0.63615300  1
  O  O23  1  0.63073200  0.43057700  0.06673000  1
  O  O24  1  0.36926800  0.29984500  0.43599900  1
  O  O25  1  0.56942300  0.93327000  0.36926800  1
  O  O26  1  0.63073200  0.70015500  0.56400100  1
  O  O27  1  0.43057700  0.06673000  0.63073200  1
  O  O28  1  0.13073200  0.56673000  0.93057700  1
  O  O29  1  0.06400100  0.20015500  0.13073200  1
  O  O30  1  0.86926800  0.43327000  0.06942300  1
  O  O31  1  0.93599900  0.79984500  0.86926800  1
  O  O32  1  0.36384700  0.93327000  0.06400100  1
  O  O33  1  0.93057700  0.29984500  0.36384700  1
  O  O34  1  0.63615300  0.06673000  0.93599900  1
  O  O35  1  0.06942300  0.70015500  0.63615300  1
  O  O36  1  0.13615300  0.20015500  0.56942300  1
  O  O37  1  0.43599900  0.56673000  0.13615300  1
  O  O38  1  0.86384700  0.79984500  0.43057700  1
  O  O39  1  0.56400100  0.43327000  0.86384700  1
  O  O40  1  0.29984500  0.36384700  0.93057700  1
  O  O41  1  0.70015500  0.63615300  0.06942300  1
  O  O42  1  0.20015500  0.13073200  0.06400100  1
  O  O43  1  0.79984500  0.86926800  0.93599900  1
  O  O44  1  0.93327000  0.36926800  0.56942300  1
  O  O45  1  0.06673000  0.63073200  0.43057700  1
  O  O46  1  0.56673000  0.13615300  0.43599900  1
  O  O47  1  0.43327000  0.86384700  0.56400100  1
loop_
_geom_bond_atom_site_label_1
_geom_bond_atom_site_label_2
_geom_bond_distance
_geom_bond_site_symmetry_2
Lu0 O29 2.166912 1_555
Lu0 O42 2.166912 1_555
Lu0 O12 2.166912 1_555
Lu0 O43 2.166912 1_444
Lu0 O15 2.166912 1_444
Lu0 O31 2.166912 1_444
Lu1 O46 2.166899 1_555
Lu1 O47 2.166899 1_545
Lu1 O9 2.166909 1_555
Lu1 O27 2.166909 1_555
Lu1 O25 2.166909 1_545
Lu1 O5 2.166909 1_545
Lu2 O17 2.166899 1_555
Lu2 O19 2.166899 1_455
Lu2 O45 2.166909 1_555
Lu2 O35 2.166909 1_555
Lu2 O44 2.166909 1_455
Lu2 O33 2.166909 1_455
Lu3 O32 2.166899 1_545
Lu3 O34 2.166899 1_554
Lu3 O2 2.166909 1_555
Lu3 O16 2.166909 1_545
Lu3 O18 2.166909 1_554
Lu3 O6 2.166909 1_544
Lu4 O39 2.166899 1_554
Lu4 O37 2.166899 1_555
Lu4 O41 2.166909 1_555
Lu4 O23 2.166909 1_555
Lu4 O40 2.166909 1_554
Lu4 O21 2.166909 1_554
Lu5 O0 2.166912 1_555
Lu5 O4 2.166912 1_555
Lu5 O24 2.166912 1_555
Lu5 O1 2.166912 1_555
Lu5 O8 2.166912 1_555
Lu5 O26 2.166912 1_555
Lu6 O20 2.166899 1_455
Lu6 O22 2.166899 1_545
Lu6 O3 2.166909 1_455
Lu6 O36 2.166909 1_555
Lu6 O7 2.166909 1_545
Lu6 O38 2.166909 1_445
Lu7 O10 2.166899 1_554
Lu7 O13 2.166899 1_455
Lu7 O11 2.166909 1_555
Lu7 O28 2.166909 1_554
Lu7 O30 2.166909 1_455
Lu7 O14 2.166909 1_454
O0 Sr0 2.664851 1_555
O0 Sr8 2.691349 1_555
O1 Sr1 2.664851 1_555
O1 Sr9 2.691349 1_555
O2 Sr2 2.664843 1_555
O2 Sr8 2.691352 1_555
O3 Sr2 2.664843 1_555
O3 Sr10 2.691352 1_655
O4 Sr3 2.664851 1_555
O4 Sr0 2.691349 1_555
O5 Sr4 2.664843 1_555
O5 Sr8 2.691352 1_565
O6 Sr5 2.664843 1_555
O6 Sr9 2.691352 1_555
O7 Sr5 2.664843 1_555
O7 Sr11 2.691352 1_455
O8 Sr6 2.664851 1_555
O8 Sr1 2.691349 1_555
O9 Sr7 2.664843 1_555
O9 Sr9 2.691352 1_545
O10 Sr0 2.664850 1_556
O10 Sr10 2.691359 1_555
O11 Sr4 2.664843 1_555
O11 Sr0 2.691352 1_555
O12 Sr3 2.664851 1_555
O12 Sr8 2.691349 1_555
O13 Sr1 2.664850 1_554
O13 Sr11 2.691359 1_555
O14 Sr7 2.664843 1_555
O14 Sr1 2.691352 1_555
O15 Sr6 2.664851 1_555
O15 Sr9 2.691349 1_555
O16 Sr4 2.664843 1_555
O16 Sr2 2.691352 1_565
O17 Sr3 2.664850 1_555
O17 Sr10 2.691359 1_555
O18 Sr7 2.664843 1_555
O18 Sr5 2.691352 1_545
O19 Sr6 2.664850 1_555
O19 Sr11 2.691359 1_555
O20 Sr3 2.664850 1_655
O20 Sr2 2.691359 1_555
O21 Sr4 2.664843 1_556
O21 Sr10 2.691352 1_555
O22 Sr6 2.664850 1_455
O22 Sr5 2.691359 1_555
O23 Sr7 2.664843 1_554
O23 Sr11 2.691352 1_555
O24 Sr8 2.664851 1_555
O24 Sr3 2.691349 1_555
O25 Sr2 2.664843 1_565
O25 Sr4 2.691352 1_555
O26 Sr9 2.664851 1_555
O26 Sr6 2.691349 1_555
O27 Sr5 2.664843 1_545
O27 Sr7 2.691352 1_555
O28 Sr10 2.664843 1_555
O28 Sr4 2.691352 1_556
O29 Sr0 2.664851 1_555
O29 Sr3 2.691349 1_555
O30 Sr11 2.664843 1_555
O30 Sr7 2.691352 1_554
O31 Sr1 2.664851 1_555
O31 Sr6 2.691349 1_555
O32 Sr8 2.664850 1_565
O32 Sr4 2.691359 1_555
O33 Sr2 2.664843 1_555
O33 Sr3 2.691352 1_655
O34 Sr9 2.664850 1_545
O34 Sr7 2.691359 1_555
O35 Sr5 2.664843 1_555
O35 Sr6 2.691352 1_455
O36 Sr10 2.664843 1_555
O36 Sr3 2.691352 1_555
O37 Sr0 2.664850 1_555
O37 Sr4 2.691359 1_555
O38 Sr11 2.664843 1_555
O38 Sr6 2.691352 1_555
O39 Sr1 2.664850 1_555
O39 Sr7 2.691359 1_555
O40 Sr10 2.664843 1_555
O40 Sr0 2.691352 1_556
O41 Sr11 2.664843 1_555
O41 Sr1 2.691352 1_554
O42 Sr8 2.664851 1_555
O42 Sr0 2.691349 1_555
O43 Sr9 2.664851 1_555
O43 Sr1 2.691349 1_555
O44 Sr10 2.664843 1_655
O44 Sr2 2.691352 1_555
O45 Sr11 2.664843 1_455
O45 Sr5 2.691352 1_555
O46 Sr8 2.664850 1_555
O46 Sr2 2.691359 1_555
O47 Sr9 2.664850 1_555
O47 Sr5 2.691359 1_555
