# generated using pymatgen
data_Ce6SiNi4
_symmetry_space_group_name_H-M   'P 1'
_cell_length_a   10.77139414
_cell_length_b   10.77139414
_cell_length_c   4.68163800
_cell_angle_alpha   90.00000000
_cell_angle_beta   90.00000000
_cell_angle_gamma   120.00000086
_symmetry_Int_Tables_number   1
_chemical_formula_structural   Ce6SiNi4
_chemical_formula_sum   'Ce12 Si2 Ni8'
_cell_volume   470.40539366
_cell_formula_units_Z   2
loop_
 _symmetry_equiv_pos_site_id
 _symmetry_equiv_pos_as_xyz
  1  'x, y, z'
loop_
 _atom_site_type_symbol
 _atom_site_label
 _atom_site_symmetry_multiplicity
 _atom_site_fract_x
 _atom_site_fract_y
 _atom_site_fract_z
 _atom_site_occupancy
  Ce  Ce0  1  0.23556800  0.23843200  0.75000000  1
  Ce  Ce1  1  0.76443200  0.76156800  0.25000000  1
  Ce  Ce2  1  0.76156800  0.99713600  0.75000000  1
  Ce  Ce3  1  0.23843200  0.00286400  0.25000000  1
  Ce  Ce4  1  0.00286400  0.76443200  0.75000000  1
  Ce  Ce5  1  0.99713600  0.23556800  0.25000000  1
  Ce  Ce6  1  0.52381000  0.13791600  0.75000000  1
  Ce  Ce7  1  0.47619000  0.86208400  0.25000000  1
  Ce  Ce8  1  0.86208400  0.38589400  0.75000000  1
  Ce  Ce9  1  0.13791600  0.61410600  0.25000000  1
  Ce  Ce10  1  0.61410600  0.47619000  0.75000000  1
  Ce  Ce11  1  0.38589400  0.52381000  0.25000000  1
  Si  Si0  1  0.33333300  0.66666700  0.75000000  1
  Si  Si1  1  0.66666700  0.33333300  0.25000000  1
  Ni  Ni0  1  0.14182400  0.42467200  0.75000000  1
  Ni  Ni1  1  0.85817600  0.57532800  0.25000000  1
  Ni  Ni2  1  0.57532800  0.71715300  0.75000000  1
  Ni  Ni3  1  0.42467200  0.28284700  0.25000000  1
  Ni  Ni4  1  0.28284700  0.85817600  0.75000000  1
  Ni  Ni5  1  0.71715300  0.14182400  0.25000000  1
  Ni  Ni6  1  0.00000000  0.00000000  0.50000000  1
  Ni  Ni7  1  0.00000000  0.00000000  0.00000000  1
loop_
_geom_bond_atom_site_label_1
_geom_bond_atom_site_label_2
_geom_bond_distance
_geom_bond_site_symmetry_2
Ce0 Ni0 2.658858 1_555
Ce0 Ni7 2.808463 1_556
Ce0 Ni6 2.808463 1_555
Ce0 Ni3 2.980410 1_555
Ce0 Ni3 2.980410 1_556
Ce1 Ni1 2.658858 1_555
Ce1 Ni7 2.808463 1_665
Ce1 Ni6 2.808463 1_665
Ce1 Ni2 2.980410 1_554
Ce1 Ni2 2.980410 1_555
Ce2 Ni2 2.658850 1_555
Ce2 Ni7 2.808463 1_666
Ce2 Ni6 2.808463 1_665
Ce2 Ni5 2.980404 1_565
Ce2 Ni5 2.980404 1_566
Ce3 Ni3 2.658850 1_555
Ce3 Ni7 2.808463 1_555
Ce3 Ni6 2.808463 1_555
Ce3 Ni4 2.980404 1_544
Ce3 Ni4 2.980404 1_545
Ce4 Ni4 2.658848 1_555
Ce4 Ni7 2.808463 1_566
Ce4 Ni6 2.808463 1_565
Ce4 Ni1 2.980408 1_456
Ce4 Ni1 2.980408 1_455
Ce5 Ni5 2.658848 1_555
Ce5 Ni7 2.808463 1_655
Ce5 Ni6 2.808463 1_655
Ce5 Ni0 2.980408 1_654
Ce5 Ni0 2.980408 1_655
Ce6 Ni4 2.827581 1_545
Ce6 Si1 3.006481 1_556
Ce6 Si1 3.006481 1_555
Ce6 Ni5 3.119400 1_556
Ce6 Ni5 3.119400 1_555
Ce6 Ni3 3.274728 1_555
Ce6 Ni3 3.274728 1_556
Ce7 Ni5 2.827581 1_565
Ce7 Si0 3.006481 1_555
Ce7 Si0 3.006481 1_554
Ce7 Ni4 3.119400 1_554
Ce7 Ni4 3.119400 1_555
Ce7 Ni2 3.274728 1_555
Ce7 Ni2 3.274728 1_554
Ce8 Ni0 2.827577 1_655
Ce8 Si1 3.006479 1_555
Ce8 Si1 3.006479 1_556
Ce8 Ni1 3.119392 1_556
Ce8 Ni1 3.119392 1_555
Ce8 Ni5 3.274734 1_555
Ce8 Ni5 3.274734 1_556
Ce9 Ni1 2.827577 1_455
Ce9 Si0 3.006479 1_555
Ce9 Si0 3.006479 1_554
Ce9 Ni0 3.119392 1_554
Ce9 Ni0 3.119392 1_555
Ce9 Ni4 3.274734 1_555
Ce9 Ni4 3.274734 1_554
Ce10 Ni2 2.827588 1_555
Ce10 Si1 3.006486 1_556
Ce10 Si1 3.006486 1_555
Ce10 Ni3 3.119396 1_555
Ce10 Ni3 3.119396 1_556
Ce10 Ni1 3.274735 1_555
Ce10 Ni1 3.274735 1_556
Ce11 Ni3 2.827588 1_555
Ce11 Si0 3.006486 1_555
Ce11 Si0 3.006486 1_554
Ce11 Ni2 3.119396 1_554
Ce11 Ni2 3.119396 1_555
Ce11 Ni0 3.274735 1_555
Ce11 Ni0 3.274735 1_554
Ni0 Si0 2.381746 1_555
Ni1 Si1 2.381746 1_555
Ni2 Si0 2.381746 1_555
Ni3 Si1 2.381746 1_555
Ni4 Si0 2.381746 1_555
Ni5 Si1 2.381746 1_555
Ni6 Ni7 2.340819 1_555
Ni6 Ni7 2.340819 1_556
