# generated using pymatgen
data_La2B4Rh5
_symmetry_space_group_name_H-M   'P 1'
_cell_length_a   5.52164698
_cell_length_b   5.73302509
_cell_length_c   6.29413818
_cell_angle_alpha   77.80552056
_cell_angle_beta   63.98323295
_cell_angle_gamma   61.21234364
_symmetry_Int_Tables_number   1
_chemical_formula_structural   La2B4Rh5
_chemical_formula_sum   'La2 B4 Rh5'
_cell_volume   156.92584472
_cell_formula_units_Z   1
loop_
 _symmetry_equiv_pos_site_id
 _symmetry_equiv_pos_as_xyz
  1  'x, y, z'
loop_
 _atom_site_type_symbol
 _atom_site_label
 _atom_site_symmetry_multiplicity
 _atom_site_fract_x
 _atom_site_fract_y
 _atom_site_fract_z
 _atom_site_occupancy
  La  La0  1  0.14261321  -0.00000000  0.71477457  1
  La  La1  1  0.85738679  0.00000000  0.28522543  1
  B  B0  1  0.20813541  0.32504639  0.25868379  1
  B  B1  1  0.79186459  0.67495361  0.74131621  1
  B  B2  1  0.46681820  0.32504639  0.74131621  1
  B  B3  1  0.53318180  0.67495361  0.25868379  1
  Rh  Rh0  1  0.25000000  0.50000000  0.50000000  1
  Rh  Rh1  1  0.50000000  0.50000000  0.00000000  1
  Rh  Rh2  1  0.50000000  -0.00000000  0.00000000  1
  Rh  Rh3  1  0.00000000  0.50000000  0.00000000  1
  Rh  Rh4  1  0.75000000  0.50000000  0.50000000  1
loop_
_geom_bond_atom_site_label_1
_geom_bond_atom_site_label_2
_geom_bond_distance
_geom_bond_site_symmetry_2
La0 Rh4 3.113312 1_545
La0 Rh0 3.113312 1_555
La0 Rh0 3.113314 1_545
La0 Rh4 3.113315 1_455
La0 Rh2 3.197649 1_556
La0 Rh2 3.197654 1_456
La0 Rh3 3.289333 1_556
La0 Rh1 3.289334 1_546
La0 Rh1 3.289335 1_456
La0 Rh3 3.289336 1_546
La1 Rh0 3.113312 1_555
La1 Rh4 3.113312 1_545
La1 Rh4 3.113314 1_555
La1 Rh0 3.113315 1_645
La1 Rh2 3.197649 1_555
La1 Rh2 3.197654 1_655
La1 Rh3 3.289333 1_645
La1 Rh1 3.289334 1_555
La1 Rh1 3.289335 1_645
La1 Rh3 3.289336 1_655
B0 Rh0 2.131052 1_555
B0 Rh4 2.131056 1_455
B0 Rh2 2.192775 1_555
B0 Rh1 2.195271 1_555
B0 Rh3 2.195275 1_555
B0 La0 3.053305 1_555
B0 La1 3.211225 1_555
B0 La1 3.211234 1_455
B1 Rh4 2.131052 1_555
B1 Rh0 2.131056 1_655
B1 Rh2 2.192775 1_566
B1 Rh1 2.195271 1_556
B1 Rh3 2.195275 1_656
B1 La1 3.053305 1_565
B1 La0 3.211225 1_565
B1 La0 3.211234 1_665
B2 Rh0 2.131053 1_555
B2 Rh4 2.131056 1_555
B2 Rh2 2.192776 1_556
B2 Rh3 2.195271 1_556
B2 Rh1 2.195274 1_556
B2 La1 3.053304 1_555
B2 La0 3.211225 1_555
B2 La0 3.211234 1_655
B3 Rh4 2.131053 1_555
B3 Rh0 2.131056 1_555
B3 Rh2 2.192776 1_565
B3 Rh3 2.195271 1_655
B3 Rh1 2.195274 1_555
B3 La0 3.053304 1_565
B3 La1 3.211225 1_565
B3 La1 3.211234 1_465
