# generated using pymatgen
data_CaLaTaFeO6
_symmetry_space_group_name_H-M   'P 1'
_cell_length_a   5.77276102
_cell_length_b   5.58133620
_cell_length_c   8.06105665
_cell_angle_alpha   89.87943087
_cell_angle_beta   90.06662677
_cell_angle_gamma   89.83594672
_symmetry_Int_Tables_number   1
_chemical_formula_structural   CaLaTaFeO6
_chemical_formula_sum   'Ca2 La2 Ta2 Fe2 O12'
_cell_volume   259.72317174
_cell_formula_units_Z   2
loop_
 _symmetry_equiv_pos_site_id
 _symmetry_equiv_pos_as_xyz
  1  'x, y, z'
loop_
 _atom_site_type_symbol
 _atom_site_label
 _atom_site_symmetry_multiplicity
 _atom_site_fract_x
 _atom_site_fract_y
 _atom_site_fract_z
 _atom_site_occupancy
  Ca  Ca0  1  0.55119400  0.51315800  0.25174400  1
  Ca  Ca1  1  0.94884300  0.01437300  0.75149400  1
  La  La0  1  0.04694300  0.98849100  0.24762400  1
  La  La1  1  0.45286300  0.48976800  0.74756000  1
  Ta  Ta0  1  0.50292900  0.99972200  0.49820000  1
  Ta  Ta1  1  0.99721800  0.49937700  0.99830100  1
  Fe  Fe0  1  0.50084900  0.99846800  0.00024200  1
  Fe  Fe1  1  0.99909600  0.49862400  0.50063100  1
  O  O0  1  0.03416500  0.60169800  0.76265800  1
  O  O1  1  0.18995800  0.21066100  0.95180500  1
  O  O2  1  0.21489400  0.19328500  0.55599000  1
  O  O3  1  0.28372900  0.69277100  0.05708300  1
  O  O4  1  0.31084500  0.71134000  0.45219000  1
  O  O5  1  0.46619100  0.10058700  0.26225900  1
  O  O6  1  0.53821800  0.90468900  0.73803600  1
  O  O7  1  0.69570100  0.28606500  0.54825600  1
  O  O8  1  0.71312400  0.30370100  0.94402700  1
  O  O9  1  0.78829100  0.80352200  0.44530900  1
  O  O10  1  0.80353000  0.78627100  0.04886600  1
  O  O11  1  0.96142000  0.40342500  0.23772300  1
loop_
_geom_bond_atom_site_label_1
_geom_bond_atom_site_label_2
_geom_bond_distance
_geom_bond_site_symmetry_2
Ca0 O5 2.357145 1_555
Ca0 O4 2.400703 1_555
Ca0 O3 2.414565 1_555
Ca0 O11 2.447153 1_555
Ca0 O9 2.636815 1_555
Ca0 O10 2.669801 1_555
Ca0 O7 2.827016 1_555
Ca0 O8 2.899110 1_554
Ca1 O0 2.355486 1_645
Ca1 O1 2.399141 1_655
Ca1 O2 2.418147 1_655
Ca1 O6 2.452247 1_545
Ca1 O8 2.621255 1_555
Ca1 O7 2.662765 1_555
Ca1 O10 2.840545 1_546
Ca1 O9 2.889460 1_545
La0 O11 2.367705 1_465
La0 O10 2.413888 1_455
La0 O9 2.417042 1_455
La0 O5 2.504222 1_565
La0 O3 2.637128 1_555
La0 O4 2.720824 1_555
La0 O1 2.811333 1_564
La0 O2 2.904857 1_565
La1 O6 2.370137 1_555
La1 O8 2.413003 1_555
La1 O7 2.417180 1_555
La1 O0 2.497908 1_555
La1 O2 2.651225 1_555
La1 O1 2.729354 1_555
La1 O4 2.801406 1_555
La1 O3 2.910965 1_556
Fe0 O10 2.143357 1_555
Fe0 O8 2.149247 1_564
Fe0 O3 2.168482 1_555
Fe0 O1 2.181804 1_564
Fe0 O6 2.189318 1_554
Fe0 O5 2.198042 1_565
Fe1 O9 2.135271 1_555
Fe1 O7 2.152646 1_555
Fe1 O2 2.153759 1_655
Fe1 O4 2.193783 1_655
Fe1 O11 2.196692 1_555
Fe1 O0 2.199586 1_655
O0 Ta1 1.994223 1_455
O1 Ta1 1.992078 1_455
O2 Ta0 2.035324 1_545
O3 Ta1 2.033657 1_454
O4 Ta0 1.992378 1_555
O5 Ta0 1.993271 1_545
O6 Ta0 2.013643 1_555
O7 Ta0 1.991789 1_545
O8 Ta1 2.020987 1_555
O9 Ta0 2.021852 1_555
O10 Ta1 1.993461 1_554
O11 Ta1 2.012858 1_554
