# generated using pymatgen
data_GaHg3
_symmetry_space_group_name_H-M   'P 1'
_cell_length_a   6.64458216
_cell_length_b   6.64458216
_cell_length_c   5.29960700
_cell_angle_alpha   90.00000000
_cell_angle_beta   90.00000000
_cell_angle_gamma   120.00000164
_symmetry_Int_Tables_number   1
_chemical_formula_structural   GaHg3
_chemical_formula_sum   'Ga2 Hg6'
_cell_volume   202.63275160
_cell_formula_units_Z   2
loop_
 _symmetry_equiv_pos_site_id
 _symmetry_equiv_pos_as_xyz
  1  'x, y, z'
loop_
 _atom_site_type_symbol
 _atom_site_label
 _atom_site_symmetry_multiplicity
 _atom_site_fract_x
 _atom_site_fract_y
 _atom_site_fract_z
 _atom_site_occupancy
  Ga  Ga0  1  0.33333300  0.66666700  0.75000000  1
  Ga  Ga1  1  0.66666700  0.33333300  0.25000000  1
  Hg  Hg0  1  0.16908200  0.33816400  0.25000000  1
  Hg  Hg1  1  0.66183600  0.83091800  0.25000000  1
  Hg  Hg2  1  0.16908200  0.83091800  0.25000000  1
  Hg  Hg3  1  0.83091800  0.66183600  0.75000000  1
  Hg  Hg4  1  0.33816400  0.16908200  0.75000000  1
  Hg  Hg5  1  0.83091800  0.16908200  0.75000000  1
loop_
_geom_bond_atom_site_label_1
_geom_bond_atom_site_label_2
_geom_bond_distance
_geom_bond_site_symmetry_2
Ga0 Hg2 3.254963 1_556
Ga0 Hg2 3.254963 1_555
Ga0 Hg0 3.254966 1_556
Ga0 Hg0 3.254966 1_555
Ga0 Hg1 3.254966 1_555
Ga0 Hg1 3.254966 1_556
Ga0 Hg3 3.322404 1_455
Ga0 Hg4 3.322404 1_565
Ga0 Hg5 3.322407 1_455
Ga0 Hg5 3.322407 1_565
Ga0 Hg4 3.322411 1_555
Ga0 Hg3 3.322411 1_555
Ga1 Hg5 3.254963 1_555
Ga1 Hg5 3.254963 1_554
Ga1 Hg3 3.254966 1_555
Ga1 Hg3 3.254966 1_554
Ga1 Hg4 3.254966 1_555
Ga1 Hg4 3.254966 1_554
Ga1 Hg1 3.322404 1_545
Ga1 Hg0 3.322404 1_655
Ga1 Hg2 3.322407 1_655
Ga1 Hg2 3.322407 1_545
Ga1 Hg1 3.322411 1_555
Ga1 Hg0 3.322411 1_555
Hg0 Hg1 3.274144 1_555
Hg0 Hg2 3.274144 1_555
Hg0 Hg5 3.287564 1_454
Hg0 Hg5 3.287564 1_455
Hg0 Hg4 3.287564 1_555
Hg0 Hg4 3.287564 1_554
Hg0 Hg1 3.370438 1_445
Hg0 Hg2 3.370438 1_545
Hg1 Hg2 3.274144 1_555
Hg1 Hg5 3.287564 1_565
Hg1 Hg5 3.287564 1_564
Hg1 Hg3 3.287564 1_555
Hg1 Hg3 3.287564 1_554
Hg1 Hg2 3.370438 1_655
Hg2 Hg3 3.287564 1_455
Hg2 Hg4 3.287564 1_564
Hg2 Hg3 3.287564 1_454
Hg2 Hg4 3.287564 1_565
Hg3 Hg4 3.274144 1_555
Hg3 Hg5 3.274144 1_555
Hg3 Hg4 3.370438 1_665
Hg3 Hg5 3.370438 1_565
Hg4 Hg5 3.274144 1_555
Hg4 Hg5 3.370438 1_455
