# generated using pymatgen
data_BaEuNbBiO6
_symmetry_space_group_name_H-M   'P 1'
_cell_length_a   8.60885704
_cell_length_b   8.57019902
_cell_length_c   8.62113228
_cell_angle_alpha   90.00000000
_cell_angle_beta   90.00000000
_cell_angle_gamma   90.00000000
_symmetry_Int_Tables_number   1
_chemical_formula_structural   BaEuNbBiO6
_chemical_formula_sum   'Ba4 Eu4 Nb4 Bi4 O24'
_cell_volume   636.06384779
_cell_formula_units_Z   4
loop_
 _symmetry_equiv_pos_site_id
 _symmetry_equiv_pos_as_xyz
  1  'x, y, z'
loop_
 _atom_site_type_symbol
 _atom_site_label
 _atom_site_symmetry_multiplicity
 _atom_site_fract_x
 _atom_site_fract_y
 _atom_site_fract_z
 _atom_site_occupancy
  Ba  Ba0  1  0.00000000  0.00000000  0.00000000  1
  Ba  Ba1  1  0.50000000  0.50000000  0.50000000  1
  Ba  Ba2  1  0.50000000  0.00000000  0.50000000  1
  Ba  Ba3  1  0.50000000  0.50000000  0.00000000  1
  Eu  Eu0  1  0.00000000  0.50000000  0.50000000  1
  Eu  Eu1  1  0.50000000  0.00000000  0.00000000  1
  Eu  Eu2  1  0.00000000  0.50000000  0.00000000  1
  Eu  Eu3  1  0.00000000  0.00000000  0.50000000  1
  Nb  Nb0  1  0.24528945  0.24945194  0.24922059  1
  Nb  Nb1  1  0.75471055  0.75054806  0.24922059  1
  Nb  Nb2  1  0.75471055  0.24945194  0.75077941  1
  Nb  Nb3  1  0.24528945  0.75054806  0.75077941  1
  Bi  Bi0  1  0.75774739  0.74948503  0.74765117  1
  Bi  Bi1  1  0.24225261  0.25051497  0.74765117  1
  Bi  Bi2  1  0.24225261  0.74948503  0.25234883  1
  Bi  Bi3  1  0.75774739  0.25051497  0.25234883  1
  O  O0  1  0.01420775  0.19684503  0.28950940  1
  O  O1  1  0.98579225  0.80315497  0.28950940  1
  O  O2  1  0.98579225  0.19684503  0.71049060  1
  O  O3  1  0.01420775  0.80315497  0.71049060  1
  O  O4  1  0.28582536  0.02238517  0.19965686  1
  O  O5  1  0.28582536  0.97761483  0.80034314  1
  O  O6  1  0.71417464  0.97761483  0.19965686  1
  O  O7  1  0.71417464  0.02238517  0.80034314  1
  O  O8  1  0.19777800  0.29509413  0.02467867  1
  O  O9  1  0.80222200  0.29509413  0.97532133  1
  O  O10  1  0.19777800  0.70490587  0.97532133  1
  O  O11  1  0.80222200  0.70490587  0.02467867  1
  O  O12  1  0.47431911  0.28524898  0.22795082  1
  O  O13  1  0.52568089  0.71475102  0.22795082  1
  O  O14  1  0.52568089  0.28524898  0.77204918  1
  O  O15  1  0.47431911  0.71475102  0.77204918  1
  O  O16  1  0.20345843  0.48200200  0.29340876  1
  O  O17  1  0.20345843  0.51799800  0.70659124  1
  O  O18  1  0.79654157  0.51799800  0.29340876  1
  O  O19  1  0.79654157  0.48200200  0.70659124  1
  O  O20  1  0.27338439  0.21789727  0.48562306  1
  O  O21  1  0.72661561  0.21789727  0.51437694  1
  O  O22  1  0.27338439  0.78210273  0.51437694  1
  O  O23  1  0.72661561  0.78210273  0.48562306  1
loop_
_geom_bond_atom_site_label_1
_geom_bond_atom_site_label_2
_geom_bond_distance
_geom_bond_site_symmetry_2
Ba0 O4 3.009031 1_555
Ba0 O5 3.009031 1_544
Ba0 O7 3.009031 1_454
Ba0 O6 3.009031 1_445
Ba0 O3 3.015036 1_544
Ba0 O1 3.015036 1_445
Ba0 O0 3.015036 1_555
Ba0 O2 3.015036 1_454
Ba0 O10 3.056170 1_544
Ba0 O9 3.056170 1_454
Ba0 O8 3.056170 1_555
Ba0 O11 3.056170 1_445
Ba1 O14 2.989471 1_555
Ba1 O15 2.989471 1_555
Ba1 O12 2.989471 1_555
Ba1 O13 2.989471 1_555
Ba1 O23 3.109106 1_555
Ba1 O21 3.109106 1_555
Ba1 O22 3.109106 1_555
Ba1 O20 3.109106 1_555
Ba1 O17 3.116593 1_555
Ba1 O18 3.116593 1_555
Ba1 O19 3.116593 1_555
Ba1 O16 3.116593 1_555
Ba2 O21 2.703451 1_555
Ba2 O23 2.703451 1_545
Ba2 O20 2.703451 1_555
Ba2 O22 2.703451 1_545
Ba2 O7 3.184472 1_555
Ba2 O6 3.184472 1_545
Ba2 O5 3.184472 1_545
Ba2 O4 3.184472 1_555
Ba3 O13 2.701510 1_555
Ba3 O14 2.701510 1_554
Ba3 O15 2.701510 1_554
Ba3 O12 2.701510 1_555
Ba3 O8 3.146170 1_555
Ba3 O9 3.146170 1_554
Ba3 O11 3.146170 1_555
Ba3 O10 3.146170 1_554
Eu0 O19 2.502767 1_455
Eu0 O17 2.502767 1_555
Eu0 O16 2.502767 1_555
Eu0 O18 2.502767 1_455
Eu1 O6 2.529657 1_545
Eu1 O7 2.529657 1_554
Eu1 O4 2.529657 1_555
Eu1 O5 2.529657 1_544
Eu1 O14 3.144381 1_554
Eu1 O13 3.144381 1_545
Eu1 O15 3.144381 1_544
Eu1 O12 3.144381 1_555
Eu2 O8 2.455217 1_555
Eu2 O9 2.455217 1_454
Eu2 O11 2.455217 1_455
Eu2 O10 2.455217 1_554
Eu3 O3 2.480716 1_545
Eu3 O1 2.480716 1_445
Eu3 O0 2.480716 1_555
Eu3 O2 2.480716 1_455
Eu3 O23 3.006945 1_445
Eu3 O22 3.006945 1_545
Eu3 O21 3.006945 1_455
Eu3 O20 3.006945 1_555
Nb0 O12 2.003816 1_555
Nb0 O8 2.016841 1_555
Nb0 O4 2.022697 1_555
Nb0 O16 2.060791 1_555
Nb0 O0 2.069159 1_555
Nb0 O20 2.070098 1_555
Nb1 O13 2.003816 1_555
Nb1 O11 2.016841 1_555
Nb1 O6 2.022697 1_555
Nb1 O18 2.060791 1_555
Nb1 O1 2.069159 1_555
Nb1 O23 2.070098 1_555
Nb2 O14 2.003816 1_555
Nb2 O9 2.016841 1_555
Nb2 O7 2.022697 1_555
Nb2 O19 2.060791 1_555
Nb2 O2 2.069159 1_555
Nb2 O21 2.070098 1_555
Nb3 O15 2.003816 1_555
Nb3 O10 2.016841 1_555
Nb3 O5 2.022697 1_555
Nb3 O17 2.060791 1_555
Nb3 O3 2.069159 1_555
Nb3 O22 2.070098 1_555
Bi0 O3 2.277875 1_655
Bi0 O23 2.291933 1_555
Bi0 O19 2.343472 1_555
Bi0 O7 2.411864 1_565
Bi0 O11 2.448773 1_556
Bi0 O15 2.467068 1_555
Bi1 O2 2.277875 1_455
Bi1 O20 2.291933 1_555
Bi1 O17 2.343472 1_555
Bi1 O5 2.411864 1_545
Bi1 O8 2.448773 1_556
Bi1 O14 2.467068 1_555
Bi2 O1 2.277875 1_455
Bi2 O22 2.291933 1_555
Bi2 O16 2.343472 1_555
Bi2 O4 2.411864 1_565
Bi2 O10 2.448773 1_554
Bi2 O13 2.467068 1_555
Bi3 O0 2.277875 1_655
Bi3 O21 2.291933 1_555
Bi3 O18 2.343472 1_555
Bi3 O6 2.411864 1_545
Bi3 O9 2.448773 1_554
Bi3 O12 2.467068 1_555
