# generated using pymatgen
data_W
_symmetry_space_group_name_H-M   'P 1'
_cell_length_a   5.06227038
_cell_length_b   5.06227038
_cell_length_c   5.06227038
_cell_angle_alpha   90.00000000
_cell_angle_beta   90.00000000
_cell_angle_gamma   90.00000000
_symmetry_Int_Tables_number   1
_chemical_formula_structural   W
_chemical_formula_sum   W8
_cell_volume   129.72868396
_cell_formula_units_Z   8
loop_
 _symmetry_equiv_pos_site_id
 _symmetry_equiv_pos_as_xyz
  1  'x, y, z'
loop_
 _atom_site_type_symbol
 _atom_site_label
 _atom_site_symmetry_multiplicity
 _atom_site_fract_x
 _atom_site_fract_y
 _atom_site_fract_z
 _atom_site_occupancy
  W  W0  1  0.25000000  -0.00000000  0.50000000  1
  W  W1  1  0.75000000  -0.00000000  0.50000000  1
  W  W2  1  -0.00000000  0.50000000  0.25000100  1
  W  W3  1  -0.00000000  0.50000000  0.74999900  1
  W  W4  1  0.50000000  0.75000000  -0.00000000  1
  W  W5  1  0.50000000  0.25000000  -0.00000000  1
  W  W6  1  -0.00000000  -0.00000000  -0.00000000  1
  W  W7  1  0.50000000  0.50000000  0.50000000  1
loop_
_geom_bond_atom_site_label_1
_geom_bond_atom_site_label_2
_geom_bond_distance
_geom_bond_site_symmetry_2
W0 W1 2.531135 1_455
W0 W1 2.531135 1_555
W0 W6 2.829895 1_555
W0 W7 2.829895 1_555
W0 W6 2.829895 1_556
W0 W7 2.829895 1_545
W0 W3 3.099993 1_545
W0 W3 3.099993 1_555
W0 W2 3.099993 1_555
W0 W2 3.099993 1_545
W0 W4 3.099995 1_545
W0 W5 3.099995 1_556
W0 W4 3.099995 1_546
W0 W5 3.099995 1_555
W1 W6 2.829895 1_656
W1 W7 2.829895 1_555
W1 W6 2.829895 1_655
W1 W7 2.829895 1_545
W1 W3 3.099993 1_645
W1 W2 3.099993 1_645
W1 W3 3.099993 1_655
W1 W2 3.099993 1_655
W1 W4 3.099995 1_545
W1 W5 3.099995 1_556
W1 W4 3.099995 1_546
W1 W5 3.099995 1_555
W2 W3 2.531125 1_555
W2 W3 2.531145 1_554
W2 W7 2.829893 1_455
W2 W7 2.829893 1_555
W2 W6 2.829897 1_565
W2 W6 2.829897 1_555
W2 W5 3.099997 1_555
W2 W4 3.099997 1_555
W2 W4 3.099997 1_455
W2 W5 3.099997 1_455
W3 W7 2.829893 1_455
W3 W7 2.829893 1_555
W3 W6 2.829897 1_566
W3 W6 2.829897 1_556
W3 W5 3.099997 1_456
W3 W4 3.099997 1_456
W3 W4 3.099997 1_556
W3 W5 3.099997 1_556
W4 W5 2.531135 1_555
W4 W5 2.531135 1_565
W4 W6 2.829895 1_665
W4 W6 2.829895 1_565
W4 W7 2.829895 1_554
W4 W7 2.829895 1_555
W5 W7 2.829895 1_554
W5 W6 2.829895 1_555
W5 W7 2.829895 1_555
W5 W6 2.829895 1_655
