# generated using pymatgen
data_Li6V3P8O29
_symmetry_space_group_name_H-M   'P 1'
_cell_length_a   9.76043100
_cell_length_b   9.78398562
_cell_length_c   13.97346853
_cell_angle_alpha   90.16196520
_cell_angle_beta   90.14230197
_cell_angle_gamma   119.52765717
_symmetry_Int_Tables_number   1
_chemical_formula_structural   Li6V3P8O29
_chemical_formula_sum   'Li12 V6 P16 O58'
_cell_volume   1161.07715055
_cell_formula_units_Z   2
loop_
 _symmetry_equiv_pos_site_id
 _symmetry_equiv_pos_as_xyz
  1  'x, y, z'
loop_
 _atom_site_type_symbol
 _atom_site_label
 _atom_site_symmetry_multiplicity
 _atom_site_fract_x
 _atom_site_fract_y
 _atom_site_fract_z
 _atom_site_occupancy
  Li  Li0  1  0.23713900  0.89991400  0.43918200  1
  Li  Li1  1  0.09752700  0.33597000  0.43644700  1
  Li  Li2  1  0.23338900  0.33416600  0.94365600  1
  Li  Li3  1  0.66788700  0.90520700  0.94037200  1
  Li  Li4  1  0.33730300  0.23671200  0.56232200  1
  Li  Li5  1  0.66269700  0.76328800  0.43767800  1
  Li  Li6  1  0.33211300  0.09479300  0.05962800  1
  Li  Li7  1  0.76661100  0.66583400  0.05634400  1
  Li  Li8  1  0.90247300  0.66403000  0.56355300  1
  Li  Li9  1  0.76286100  0.10008600  0.56081800  1
  Li  Li10  1  0.00000000  0.00000000  0.00000000  1
  Li  Li11  1  0.00000000  0.00000000  0.50000000  1
  V  V0  1  0.43795300  0.43905100  0.74923800  1
  V  V1  1  0.56204700  0.56094900  0.25076200  1
  V  V2  1  0.43521300  0.99732700  0.24703300  1
  V  V3  1  0.56478700  0.00267300  0.75296700  1
  V  V4  1  0.00411300  0.56354600  0.75432500  1
  V  V5  1  0.99588700  0.43645400  0.24567500  1
  P  P0  1  0.08359400  0.77893900  0.15956900  1
  P  P1  1  0.22384000  0.91392000  0.65898300  1
  P  P2  1  0.08348800  0.30848500  0.65405700  1
  P  P3  1  0.33635000  0.66732700  0.86860900  1
  P  P4  1  0.33088100  0.66432600  0.36918500  1
  P  P5  1  0.22270200  0.31176300  0.15892800  1
  P  P6  1  0.31252600  0.22354400  0.34211100  1
  P  P7  1  0.68939200  0.90997200  0.15614200  1
  P  P8  1  0.31060800  0.09002800  0.84385800  1
  P  P9  1  0.68747400  0.77645600  0.65788900  1
  P  P10  1  0.77729800  0.68823700  0.84107200  1
  P  P11  1  0.66911900  0.33567400  0.63081500  1
  P  P12  1  0.66365000  0.33267300  0.13139100  1
  P  P13  1  0.91651200  0.69151500  0.34594300  1
  P  P14  1  0.77616000  0.08608000  0.34101700  1
  P  P15  1  0.91640600  0.22106100  0.84043100  1
  O  O0  1  0.00201100  0.78140700  0.43683300  1
  O  O1  1  0.08152600  0.74733800  0.65879000  1
  O  O2  1  0.22730600  0.01249900  0.93399200  1
  O  O3  1  0.25485800  0.91954200  0.15837300  1
  O  O4  1  0.08619500  0.62326900  0.16879400  1
  O  O5  1  0.19130700  0.67063500  0.82180700  1
  O  O6  1  0.08173100  0.46327200  0.66579500  1
  O  O7  1  0.00961100  0.20861700  0.92156500  1
  O  O8  1  0.08285300  0.33988300  0.16142900  1
  O  O9  1  0.32251200  0.80917200  0.32940300  1
  O  O10  1  0.38042400  0.91426000  0.67072200  1
  O  O11  1  0.18586900  0.51145100  0.32873500  1
  O  O12  1  0.33660500  0.66056700  0.97487600  1
  O  O13  1  0.33879100  0.66435400  0.47623800  1
  O  O14  1  0.32792100  0.51305600  0.82501800  1
  O  O15  1  0.53105500  0.91066700  0.17179300  1
  O  O16  1  0.48950400  0.81218000  0.82945700  1
  O  O17  1  0.25185400  0.33321000  0.65698700  1
  O  O18  1  0.20429800  0.20117700  0.25036000  1
  O  O19  1  0.22150300  0.21857600  0.43143400  1
  O  O20  1  0.22347000  0.22310200  0.07020400  1
  O  O21  1  0.37851700  0.46749800  0.17129600  1
  O  O22  1  0.48599200  0.67198900  0.32700900  1
  O  O23  1  0.34066800  0.26025500  0.84014800  1
  O  O24  1  0.53244700  0.61994900  0.66576600  1
  O  O25  1  0.65946100  0.91845000  0.65822900  1
  O  O26  1  0.20394600  0.00207600  0.75135000  1
  O  O27  1  0.22140200  0.00242600  0.56989800  1
  O  O28  1  0.77859800  0.99757400  0.43010200  1
  O  O29  1  0.34053900  0.08155000  0.34177100  1
  O  O30  1  0.46755300  0.38005100  0.33423400  1
  O  O31  1  0.65933200  0.73974500  0.15985200  1
  O  O32  1  0.51400800  0.32801100  0.67299100  1
  O  O33  1  0.62148300  0.53250200  0.82870400  1
  O  O34  1  0.77653000  0.77689800  0.92979600  1
  O  O35  1  0.77849700  0.78142400  0.56856600  1
  O  O36  1  0.79570200  0.79882300  0.74964000  1
  O  O37  1  0.74814600  0.66679000  0.34301300  1
  O  O38  1  0.51049600  0.18782000  0.17054300  1
  O  O39  1  0.46894500  0.08933300  0.82820700  1
  O  O40  1  0.67207900  0.48694400  0.17498200  1
  O  O41  1  0.66339500  0.33943300  0.02512400  1
  O  O42  1  0.66120900  0.33564600  0.52376200  1
  O  O43  1  0.81413100  0.48854900  0.67126500  1
  O  O44  1  0.61957600  0.08574000  0.32927800  1
  O  O45  1  0.67748800  0.19082800  0.67059700  1
  O  O46  1  0.91714700  0.66011700  0.83857100  1
  O  O47  1  0.01113300  0.80482600  0.25826500  1
  O  O48  1  0.99038900  0.79138300  0.07843500  1
  O  O49  1  0.91826900  0.53672800  0.33420500  1
  O  O50  1  0.80869300  0.32936500  0.17819300  1
  O  O51  1  0.91380500  0.37673100  0.83120600  1
  O  O52  1  0.74514200  0.08045800  0.84162700  1
  O  O53  1  0.77269400  0.98750100  0.06600800  1
  O  O54  1  0.79605400  0.99792400  0.24865000  1
  O  O55  1  0.91847400  0.25266200  0.34121000  1
  O  O56  1  0.99798900  0.21859300  0.56316700  1
  O  O57  1  0.98886700  0.19517400  0.74173500  1
loop_
_geom_bond_atom_site_label_1
_geom_bond_atom_site_label_2
_geom_bond_distance
_geom_bond_site_symmetry_2
Li0 O0 1.997202 1_555
Li0 O29 2.069333 1_565
Li0 O27 2.123381 1_565
Li0 O9 2.136251 1_555
Li1 O55 2.016886 1_455
Li1 O19 2.039194 1_555
Li1 O56 2.078091 1_455
Li1 O11 2.125661 1_555
Li2 O7 1.929953 1_555
Li2 O20 2.055512 1_556
Li2 O23 2.111700 1_555
Li2 O14 2.257250 1_555
Li3 O53 1.986955 1_556
Li3 O34 2.008515 1_555
Li3 O52 2.038779 1_565
Li3 O16 2.162989 1_555
Li4 O27 1.997829 1_555
Li4 O17 2.027646 1_555
Li4 O19 2.108144 1_555
Li4 O32 2.150437 1_555
Li5 O28 1.997829 1_555
Li5 O37 2.027646 1_555
Li5 O35 2.108144 1_555
Li5 O22 2.150437 1_555
Li6 O2 1.986955 1_554
Li6 O20 2.008515 1_555
Li6 O3 2.038779 1_545
Li6 O38 2.162989 1_555
Li7 O48 1.929953 1_555
Li7 O34 2.055512 1_554
Li7 O31 2.111700 1_555
Li7 O40 2.257250 1_555
Li8 O1 2.016886 1_655
Li8 O35 2.039194 1_555
Li8 O0 2.078091 1_655
Li8 O43 2.125661 1_555
Li9 O56 1.997202 1_555
Li9 O25 2.069333 1_545
Li9 O28 2.123381 1_545
Li9 O45 2.136251 1_555
Li10 O48 2.280477 1_445
Li10 O7 2.280477 1_554
Li10 O2 2.351868 1_554
Li10 O53 2.351868 1_445
Li10 O20 2.401846 1_555
Li10 O34 2.401846 1_444
Li11 O56 2.320421 1_455
Li11 O0 2.320421 1_545
Li11 O28 2.358643 1_445
Li11 O27 2.358643 1_555
Li11 O19 2.372766 1_555
Li11 O35 2.372766 1_445
O0 P13 1.532294 1_455
O1 P1 1.534361 1_555
O1 V4 2.065412 1_555
O2 P8 1.491755 1_555
O3 P0 1.555832 1_555
O3 V2 1.968794 1_555
O4 P0 1.541499 1_555
O4 V5 1.923448 1_455
O5 P3 1.572764 1_555
O5 V4 1.850444 1_555
O6 P2 1.531312 1_555
O6 V4 1.948642 1_555
O7 P15 1.494181 1_455
O8 P5 1.520018 1_555
O8 V5 1.946349 1_455
O9 P4 1.562817 1_555
O9 V2 1.986450 1_555
O10 P1 1.535071 1_555
O10 V3 1.938275 1_565
O11 P4 1.569874 1_555
O11 V5 1.991804 1_455
O12 P3 1.486628 1_555
O13 P4 1.497694 1_555
O14 P3 1.590028 1_555
O14 V0 1.888583 1_555
O15 P7 1.564698 1_555
O15 V2 1.865744 1_555
O16 P3 1.569286 1_555
O16 V3 1.954807 1_565
O17 P2 1.538986 1_555
O17 V0 2.039645 1_555
O18 P6 1.603534 1_555
O18 P5 1.628690 1_555
O19 P6 1.520799 1_555
O20 P5 1.513266 1_555
O21 P5 1.541927 1_555
O21 V1 1.909933 1_555
O22 P4 1.593045 1_555
O22 V1 1.912804 1_555
O23 P8 1.543230 1_555
O23 V0 1.989172 1_555
O24 P9 1.537656 1_555
O24 V0 1.936922 1_555
O25 P9 1.542475 1_555
O25 V3 2.008951 1_565
O26 P8 1.612225 1_555
O26 P1 1.614790 1_545
O27 P1 1.525212 1_545
O28 P14 1.525212 1_565
O29 P6 1.542475 1_555
O29 V2 2.008951 1_545
O30 P6 1.537656 1_555
O30 V1 1.936922 1_555
O31 P7 1.543230 1_555
O31 V1 1.989172 1_555
O32 P11 1.593045 1_555
O32 V0 1.912804 1_555
O33 P10 1.541927 1_555
O33 V0 1.909933 1_555
O34 P10 1.513266 1_555
O35 P9 1.520799 1_555
O36 P9 1.603534 1_555
O36 P10 1.628690 1_555
O37 P13 1.538986 1_555
O37 V1 2.039645 1_555
O38 P12 1.569286 1_555
O38 V2 1.954807 1_545
O39 P8 1.564698 1_555
O39 V3 1.865744 1_555
O40 P12 1.590028 1_555
O40 V1 1.888583 1_555
O41 P12 1.486628 1_555
O42 P11 1.497694 1_555
O43 P11 1.569874 1_555
O43 V4 1.991804 1_655
O44 P14 1.535071 1_555
O44 V2 1.938275 1_545
O45 P11 1.562817 1_555
O45 V3 1.986450 1_555
O46 P10 1.520018 1_555
O46 V4 1.946349 1_655
O47 P13 1.608450 1_455
O47 P0 1.626585 1_555
O48 P0 1.494181 1_655
O49 P13 1.531312 1_555
O49 V5 1.948642 1_555
O50 P12 1.572764 1_555
O50 V5 1.850444 1_555
O51 P15 1.541499 1_555
O51 V4 1.923448 1_655
O52 P15 1.555832 1_555
O52 V3 1.968794 1_555
O53 P7 1.491755 1_555
O54 P7 1.612225 1_555
O54 P14 1.614790 1_565
O55 P14 1.534361 1_555
O55 V5 2.065412 1_555
O56 P2 1.532294 1_655
O57 P2 1.608450 1_655
O57 P15 1.626585 1_555
