# generated using pymatgen
data_Na5LiFe2P2(CO7)2
_symmetry_space_group_name_H-M   'P 1'
_cell_length_a   6.74265000
_cell_length_b   8.91639882
_cell_length_c   10.36584640
_cell_angle_alpha   88.89765625
_cell_angle_beta   89.94271994
_cell_angle_gamma   89.62416640
_symmetry_Int_Tables_number   1
_chemical_formula_structural   Na5LiFe2P2(CO7)2
_chemical_formula_sum   'Na10 Li2 Fe4 P4 C4 O28'
_cell_volume   623.06732843
_cell_formula_units_Z   2
loop_
 _symmetry_equiv_pos_site_id
 _symmetry_equiv_pos_as_xyz
  1  'x, y, z'
loop_
 _atom_site_type_symbol
 _atom_site_label
 _atom_site_symmetry_multiplicity
 _atom_site_fract_x
 _atom_site_fract_y
 _atom_site_fract_z
 _atom_site_occupancy
  Na  Na0  1  0.74921400  0.91720900  0.12021600  1
  Na  Na1  1  0.75533500  0.91868400  0.61806200  1
  Na  Na2  1  0.99757700  0.73502300  0.37738800  1
  Na  Na3  1  0.50101800  0.73571600  0.37722800  1
  Na  Na4  1  0.99577500  0.73784600  0.87413200  1
  Na  Na5  1  0.50544000  0.73684800  0.87462400  1
  Na  Na6  1  0.49534300  0.26264800  0.12357300  1
  Na  Na7  1  0.00259900  0.26293000  0.12521700  1
  Na  Na8  1  0.49915700  0.26133000  0.62561700  1
  Na  Na9  1  0.24168000  0.08369800  0.87708800  1
  Li  Li0  1  0.02707100  0.28152700  0.61310800  1
  Li  Li1  1  0.24338800  0.09560800  0.37621000  1
  Fe  Fe0  1  0.24793000  0.64603300  0.10924900  1
  Fe  Fe1  1  0.25155700  0.64401300  0.61558000  1
  Fe  Fe2  1  0.75412800  0.34766300  0.39294600  1
  Fe  Fe3  1  0.75256700  0.35453000  0.88444900  1
  P  P0  1  0.74824000  0.58361900  0.14681200  1
  P  P1  1  0.75781200  0.58455100  0.64788800  1
  P  P2  1  0.25171500  0.40845700  0.35794600  1
  P  P3  1  0.24602800  0.40976400  0.85095300  1
  C  C0  1  0.24880900  0.93838300  0.14476300  1
  C  C1  1  0.24068300  0.95557700  0.62404300  1
  C  C2  1  0.75073500  0.05734500  0.36426400  1
  C  C3  1  0.75015100  0.06076600  0.86415400  1
  O  O0  1  0.74802900  0.91303000  0.35469000  1
  O  O1  1  0.74815400  0.91643900  0.85387000  1
  O  O2  1  0.24762400  0.88991700  0.02650600  1
  O  O3  1  0.24922300  0.91155900  0.50553400  1
  O  O4  1  0.24686000  0.84015300  0.23917700  1
  O  O5  1  0.25231400  0.85448900  0.71849000  1
  O  O6  1  0.93335400  0.67890300  0.10682900  1
  O  O7  1  0.56223700  0.68057000  0.10861800  1
  O  O8  1  0.93657000  0.68560900  0.60934100  1
  O  O9  1  0.56814200  0.67213800  0.60463700  1
  O  O10  1  0.74967400  0.55812200  0.29661200  1
  O  O11  1  0.24991200  0.56115200  0.42641300  1
  O  O12  1  0.75353100  0.56433300  0.79851200  1
  O  O13  1  0.25204400  0.56790500  0.91107900  1
  O  O14  1  0.74635700  0.43108500  0.07936700  1
  O  O15  1  0.24394400  0.43551700  0.20889400  1
  O  O16  1  0.77324200  0.42660000  0.58776000  1
  O  O17  1  0.23000800  0.42931100  0.69994200  1
  O  O18  1  0.43923000  0.31231700  0.39270400  1
  O  O19  1  0.07270400  0.30781500  0.40191900  1
  O  O20  1  0.43439900  0.31576100  0.88467500  1
  O  O21  1  0.06720300  0.31694800  0.90101200  1
  O  O22  1  0.75662500  0.14390300  0.26121700  1
  O  O23  1  0.75351400  0.14818800  0.76215800  1
  O  O24  1  0.74828000  0.11973700  0.47684000  1
  O  O25  1  0.74928500  0.12215700  0.97744600  1
  O  O26  1  0.25172900  0.08049500  0.16921700  1
  O  O27  1  0.22186200  0.09608500  0.65103600  1
loop_
_geom_bond_atom_site_label_1
_geom_bond_atom_site_label_2
_geom_bond_distance
_geom_bond_site_symmetry_2
Na0 O25 2.329278 1_564
Na0 O0 2.430096 1_555
Na0 O6 2.460103 1_555
Na0 O7 2.469979 1_555
Na0 O22 2.517842 1_565
Na0 O1 2.761059 1_554
Na1 O24 2.292800 1_565
Na1 O8 2.407079 1_555
Na1 O1 2.444480 1_555
Na1 O9 2.548237 1_555
Na1 O23 2.556562 1_565
Na1 O0 2.732008 1_555
Na2 O0 2.314537 1_555
Na2 O11 2.343777 1_655
Na2 O4 2.391778 1_655
Na2 O10 2.463985 1_555
Na2 O8 2.470639 1_555
Na2 O3 2.690942 1_655
Na2 O6 2.891851 1_555
Na3 O0 2.312493 1_555
Na3 O11 2.356172 1_555
Na3 O4 2.405078 1_555
Na3 O10 2.455618 1_555
Na3 O9 2.455678 1_555
Na3 O3 2.674018 1_555
Na3 O7 2.865762 1_555
Na4 O1 2.306613 1_555
Na4 O13 2.317993 1_655
Na4 O12 2.399637 1_555
Na4 O6 2.494731 1_556
Na4 O5 2.574900 1_655
Na4 O2 2.708307 1_656
Na4 O8 2.822047 1_555
Na5 O1 2.304155 1_555
Na5 O13 2.311207 1_555
Na5 O12 2.407715 1_555
Na5 O7 2.496846 1_556
Na5 O5 2.559171 1_555
Na5 O2 2.722025 1_556
Na5 O9 2.898382 1_555
Na6 O14 2.309850 1_555
Na6 O26 2.358759 1_555
Na6 O15 2.458974 1_555
Na6 O22 2.486542 1_555
Na6 O20 2.545574 1_554
Na6 O25 2.614394 1_554
Na6 O18 2.857504 1_555
Na7 O14 2.323630 1_455
Na7 O26 2.369159 1_555
Na7 O21 2.404311 1_554
Na7 O22 2.413561 1_455
Na7 O15 2.419831 1_555
Na7 O25 2.635611 1_454
Na8 O16 2.398516 1_555
Na8 O27 2.399232 1_555
Na8 O23 2.426839 1_555
Na8 O17 2.477157 1_555
Na8 O18 2.481189 1_555
Na8 O24 2.614528 1_555
Na8 O20 2.771706 1_555
Na9 O2 2.298296 1_546
Na9 O27 2.347597 1_555
Na9 O21 2.399589 1_555
Na9 O20 2.453143 1_555
Na9 O5 2.647979 1_545
Li0 O17 2.119108 1_555
Li0 O27 2.135678 1_555
Li0 O16 2.151790 1_455
Li0 O19 2.218526 1_555
Li1 O3 2.099119 1_545
Li1 O26 2.153126 1_555
Li1 O19 2.228419 1_555
Li1 O18 2.356526 1_555
Fe0 O15 2.125304 1_555
Fe0 O6 2.139429 1_455
Fe0 O7 2.143502 1_555
Fe0 O13 2.181852 1_554
Fe0 O4 2.213440 1_555
Fe0 O2 2.322193 1_555
Fe1 O17 2.095142 1_555
Fe1 O11 2.108770 1_555
Fe1 O9 2.153557 1_555
Fe1 O8 2.154410 1_455
Fe1 O5 2.176489 1_555
Fe2 O10 2.108715 1_555
Fe2 O18 2.148564 1_555
Fe2 O16 2.155554 1_555
Fe2 O19 2.176720 1_655
Fe2 O24 2.195667 1_555
Fe2 O22 2.293603 1_555
Fe3 O12 2.056474 1_555
Fe3 O14 2.145365 1_556
Fe3 O21 2.152123 1_655
Fe3 O20 2.175197 1_555
Fe3 O23 2.254220 1_555
Fe3 O25 2.268562 1_555
C0 O26 1.297286 1_565
C0 O4 1.300869 1_555
C0 O2 1.307642 1_555
C1 O27 1.294333 1_565
C1 O3 1.297903 1_555
C1 O5 1.319972 1_555
C2 O0 1.292743 1_545
C2 O24 1.302435 1_555
C2 O22 1.306451 1_555
C3 O1 1.293486 1_545
C3 O23 1.301700 1_555
C3 O25 1.305176 1_555
O6 P0 1.565506 1_555
O7 P0 1.565416 1_555
O8 P1 1.556849 1_555
O9 P1 1.555958 1_555
O10 P0 1.565054 1_555
O11 P2 1.547400 1_555
O12 P1 1.568527 1_555
O13 P3 1.553366 1_555
O14 P0 1.541270 1_555
O15 P2 1.560062 1_555
O16 P1 1.553861 1_555
O17 P3 1.575430 1_555
O18 P2 1.561419 1_555
O19 P2 1.570755 1_555
O20 P3 1.553566 1_555
O21 P3 1.550264 1_555
