# generated using pymatgen
data_Li9Mn2Co5O16
_symmetry_space_group_name_H-M   'P 1'
_cell_length_a   5.00653100
_cell_length_b   7.72894683
_cell_length_c   7.76580195
_cell_angle_alpha   97.86822505
_cell_angle_beta   101.63280054
_cell_angle_gamma   102.64233255
_symmetry_Int_Tables_number   1
_chemical_formula_structural   Li9Mn2Co5O16
_chemical_formula_sum   'Li9 Mn2 Co5 O16'
_cell_volume   281.99221933
_cell_formula_units_Z   1
loop_
 _symmetry_equiv_pos_site_id
 _symmetry_equiv_pos_as_xyz
  1  'x, y, z'
loop_
 _atom_site_type_symbol
 _atom_site_label
 _atom_site_symmetry_multiplicity
 _atom_site_fract_x
 _atom_site_fract_y
 _atom_site_fract_z
 _atom_site_occupancy
  Li  Li0  1  0.50106800  0.75158900  0.76022300  1
  Li  Li1  1  0.00446500  0.37428300  0.12335500  1
  Li  Li2  1  0.49899000  0.99954000  0.48816800  1
  Li  Li3  1  0.99873300  0.87754300  0.62355200  1
  Li  Li4  1  0.49952100  0.50772700  0.00260500  1
  Li  Li5  1  0.98212100  0.11722600  0.36759400  1
  Li  Li6  1  0.01672500  0.62992800  0.88490200  1
  Li  Li7  1  0.50197000  0.23988800  0.24827200  1
  Li  Li8  1  0.50449100  0.87455800  0.12757200  1
  Mn  Mn0  1  0.00302900  0.99672800  0.00674800  1
  Mn  Mn1  1  0.49727100  0.63284900  0.36659800  1
  Co  Co0  1  0.99857200  0.24923400  0.75073500  1
  Co  Co1  1  0.99662600  0.49844600  0.50011900  1
  Co  Co2  1  0.50226900  0.11425900  0.88478300  1
  Co  Co3  1  0.99997100  0.75233100  0.24771100  1
  Co  Co4  1  0.49418700  0.37298100  0.62486000  1
  O  O0  1  0.78515300  0.76223500  0.01316200  1
  O  O1  1  0.25383300  0.39776600  0.38401300  1
  O  O2  1  0.77017800  0.00267500  0.77182600  1
  O  O3  1  0.24891900  0.89096200  0.87803800  1
  O  O4  1  0.74845700  0.52074100  0.25711600  1
  O  O5  1  0.24565600  0.14479100  0.63908200  1
  O  O6  1  0.25279600  0.63144400  0.14569900  1
  O  O7  1  0.74716700  0.25525200  0.50450000  1
  O  O8  1  0.24503800  0.74385300  0.47813300  1
  O  O9  1  0.75365000  0.35714300  0.85732900  1
  O  O10  1  0.22061600  0.98784700  0.23702300  1
  O  O11  1  0.74891800  0.85514900  0.36985300  1
  O  O12  1  0.24131200  0.49629800  0.74165000  1
  O  O13  1  0.76417800  0.12028900  0.11293500  1
  O  O14  1  0.72962800  0.61159300  0.60274800  1
  O  O15  1  0.24449200  0.23285000  0.99909200  1
loop_
_geom_bond_atom_site_label_1
_geom_bond_atom_site_label_2
_geom_bond_distance
_geom_bond_site_symmetry_2
Li0 O12 2.080507 1_555
Li0 O2 2.085203 1_565
Li0 O3 2.093393 1_555
Li0 O0 2.160067 1_556
Li0 O14 2.172495 1_555
Li0 O8 2.289932 1_555
Li1 O13 2.047206 1_455
Li1 O6 2.064759 1_555
Li1 O15 2.079447 1_554
Li1 O1 2.114272 1_555
Li1 O9 2.160650 1_454
Li1 O4 2.203004 1_455
Li2 O7 2.063711 1_565
Li2 O8 2.084698 1_555
Li2 O11 2.109379 1_555
Li2 O10 2.134198 1_555
Li2 O5 2.259416 1_565
Li2 O2 2.336941 1_565
Li3 O2 2.069167 1_565
Li3 O11 2.072191 1_555
Li3 O3 2.091440 1_655
Li3 O5 2.136169 1_665
Li3 O8 2.159503 1_655
Li3 O14 2.162285 1_555
Li4 O4 2.089780 1_555
Li4 O6 2.110601 1_555
Li4 O0 2.144374 1_555
Li4 O12 2.151808 1_554
Li4 O15 2.219737 1_554
Li4 O9 2.261341 1_554
Li5 O10 2.046242 1_645
Li5 O13 2.063026 1_555
Li5 O7 2.096478 1_555
Li5 O11 2.109315 1_545
Li5 O5 2.205310 1_655
Li5 O1 2.265268 1_655
Li6 O0 2.021813 1_456
Li6 O12 2.065618 1_555
Li6 O3 2.110073 1_555
Li6 O6 2.126257 1_556
Li6 O9 2.184680 1_455
Li6 O14 2.333012 1_455
Li7 O15 2.084163 1_554
Li7 O7 2.089704 1_555
Li7 O10 2.118778 1_545
Li7 O13 2.122256 1_555
Li7 O1 2.232260 1_555
Li7 O4 2.234268 1_555
Li8 O6 2.060564 1_555
Li8 O11 2.071036 1_555
Li8 O10 2.082583 1_555
Li8 O0 2.084167 1_555
Li8 O13 2.085238 1_565
Li8 O3 2.132325 1_554
Mn0 O0 1.912675 1_455
Mn0 O10 1.915737 1_555
Mn0 O13 1.924564 1_465
Mn0 O2 1.969303 1_464
Mn0 O15 1.971919 1_564
Mn0 O3 1.973786 1_554
Mn1 O11 1.888833 1_555
Mn1 O6 1.892974 1_555
Mn1 O4 1.939483 1_555
Mn1 O8 1.947533 1_555
Mn1 O1 1.992340 1_555
Mn1 O14 2.012271 1_555
Co0 O9 1.884780 1_555
Co0 O5 1.900454 1_655
Co0 O2 2.042783 1_555
Co0 O12 2.045461 1_655
Co0 O7 2.079018 1_555
Co0 O15 2.104576 1_655
Co1 O1 1.947169 1_655
Co1 O14 1.984272 1_555
Co1 O7 2.025107 1_555
Co1 O12 2.027300 1_655
Co1 O8 2.077315 1_655
Co1 O4 2.090886 1_555
Co2 O3 1.892192 1_545
Co2 O13 1.968375 1_556
Co2 O15 2.012645 1_555
Co2 O2 2.021397 1_555
Co2 O9 2.082554 1_555
Co2 O5 2.148107 1_555
Co3 O10 1.933594 1_655
Co3 O0 1.940224 1_555
Co3 O6 1.955035 1_655
Co3 O11 1.955163 1_555
Co3 O4 1.970060 1_555
Co3 O8 1.973211 1_655
Co4 O5 1.954255 1_555
Co4 O14 2.009189 1_555
Co4 O7 2.013649 1_555
Co4 O12 2.021982 1_555
Co4 O9 2.036155 1_555
Co4 O1 2.067451 1_555
