# generated using pymatgen
data_CeSe2
_symmetry_space_group_name_H-M   'P 1'
_cell_length_a   12.64922272
_cell_length_b   18.39443590
_cell_length_c   18.39443590
_cell_angle_alpha   114.90948575
_cell_angle_beta   103.25126616
_cell_angle_gamma   103.25126616
_symmetry_Int_Tables_number   1
_chemical_formula_structural   CeSe2
_chemical_formula_sum   'Ce12 Se24'
_cell_volume   3511.77817567
_cell_formula_units_Z   12
loop_
 _symmetry_equiv_pos_site_id
 _symmetry_equiv_pos_as_xyz
  1  'x, y, z'
loop_
 _atom_site_type_symbol
 _atom_site_label
 _atom_site_symmetry_multiplicity
 _atom_site_fract_x
 _atom_site_fract_y
 _atom_site_fract_z
 _atom_site_occupancy
  Ce  Ce0  1  0.87428226  0.82647159  0.40179852  1
  Ce  Ce1  1  0.47248373  0.59820148  0.42467306  1
  Ce  Ce2  1  0.04781067  0.57532694  0.17352841  1
  Ce  Ce3  1  0.54763920  0.17354317  0.57524542  1
  Ce  Ce4  1  0.97239378  0.42475458  0.59829774  1
  Ce  Ce5  1  0.37409603  0.40170226  0.82645683  1
  Ce  Ce6  1  0.12609414  0.17370205  0.59838970  1
  Ce  Ce7  1  0.52770444  0.40161030  0.57531235  1
  Ce  Ce8  1  0.95239209  0.42468765  0.82629795  1
  Ce  Ce9  1  0.45216298  0.82670247  0.42476913  1
  Ce  Ce10  1  0.02739385  0.57523087  0.40193334  1
  Ce  Ce11  1  0.62546051  0.59806666  0.17329753  1
  Se  Se0  1  0.75022161  0.76888017  0.23149792  1
  Se  Se1  1  0.51872370  0.76850208  0.53738225  1
  Se  Se2  1  0.98134145  0.46261775  0.23111983  1
  Se  Se3  1  0.48124810  0.23143434  0.46257057  1
  Se  Se4  1  0.01867753  0.53742943  0.76886377  1
  Se  Se5  1  0.24981376  0.23113623  0.76856566  1
  Se  Se6  1  0.25043759  0.58644031  0.41356049  1
  Se  Se7  1  0.83687709  0.58643951  0.17287982  1
  Se  Se8  1  0.66399728  0.82712018  0.41355969  1
  Se  Se9  1  0.16323581  0.41358041  0.82716807  1
  Se  Se10  1  0.33606774  0.17283193  0.58641234  1
  Se  Se11  1  0.74965540  0.41358766  0.58641959  1
  Se  Se12  1  0.52995155  0.56020380  0.28024887  1
  Se  Se13  1  0.24970268  0.71975113  0.27995493  1
  Se  Se14  1  0.96974775  0.72004507  0.43979620  1
  Se  Se15  1  0.46994495  0.43983171  0.71978147  1
  Se  Se16  1  0.75016348  0.28021853  0.72005024  1
  Se  Se17  1  0.03011324  0.27994976  0.56016829  1
  Se  Se18  1  -0.00022073  0.99969118  0.49983525  1
  Se  Se19  1  0.49994402  0.50016475  0.49985593  1
  Se  Se20  1  0.00008809  0.50014407  0.00030882  1
  Se  Se21  1  0.49996325  -0.00018707  0.49992257  1
  Se  Se22  1  0.00004068  0.50007743  0.49989036  1
  Se  Se23  1  0.50015032  0.50010964  0.00018707  1
loop_
_geom_bond_atom_site_label_1
_geom_bond_atom_site_label_2
_geom_bond_distance
_geom_bond_site_symmetry_2
Ce0 Se8 2.720004 1_555
Ce0 Se18 2.730006 1_655
Ce0 Se0 2.754399 1_555
Ce0 Se14 2.761990 1_555
Ce1 Se6 2.720004 1_555
Ce1 Se19 2.730007 1_555
Ce1 Se1 2.754399 1_555
Ce1 Se12 2.761990 1_555
Ce2 Se7 2.720004 1_455
Ce2 Se20 2.730006 1_555
Ce2 Se2 2.754399 1_455
Ce2 Se13 2.761990 1_555
Ce3 Se10 2.728134 1_555
Ce3 Se21 2.738494 1_555
Ce3 Se3 2.757904 1_555
Ce3 Se16 2.769903 1_555
Ce4 Se11 2.728134 1_555
Ce4 Se22 2.738494 1_655
Ce4 Se4 2.757904 1_655
Ce4 Se17 2.769903 1_655
Ce5 Se9 2.728134 1_555
Ce5 Se23 2.738494 1_556
Ce5 Se5 2.757904 1_555
Ce5 Se15 2.769902 1_555
Ce6 Se10 2.718074 1_555
Ce6 Se18 2.743028 1_545
Ce6 Se5 2.752162 1_555
Ce6 Se17 2.764373 1_555
Ce7 Se11 2.718074 1_555
Ce7 Se19 2.743028 1_555
Ce7 Se3 2.752162 1_555
Ce7 Se15 2.764373 1_555
Ce8 Se9 2.718074 1_655
Ce8 Se20 2.743028 1_656
Ce8 Se4 2.752162 1_655
Ce8 Se16 2.764373 1_555
Ce9 Se21 2.728053 1_565
Ce9 Se8 2.732707 1_555
Ce9 Se1 2.761817 1_555
Ce9 Se13 2.770011 1_555
Ce10 Se22 2.728053 1_555
Ce10 Se6 2.732707 1_555
Ce10 Se2 2.761817 1_455
Ce10 Se14 2.770011 1_455
Ce11 Se23 2.728053 1_555
Ce11 Se7 2.732707 1_555
Ce11 Se0 2.761817 1_555
Ce11 Se12 2.770011 1_555
