# generated using pymatgen
data_MgMnPO5
_symmetry_space_group_name_H-M   'P 1'
_cell_length_a   6.72622875
_cell_length_b   6.76598333
_cell_length_c   8.34278751
_cell_angle_alpha   90.01428775
_cell_angle_beta   90.01424775
_cell_angle_gamma   65.97727442
_symmetry_Int_Tables_number   1
_chemical_formula_structural   MgMnPO5
_chemical_formula_sum   'Mg4 Mn4 P4 O20'
_cell_volume   346.79046497
_cell_formula_units_Z   4
loop_
 _symmetry_equiv_pos_site_id
 _symmetry_equiv_pos_as_xyz
  1  'x, y, z'
loop_
 _atom_site_type_symbol
 _atom_site_label
 _atom_site_symmetry_multiplicity
 _atom_site_fract_x
 _atom_site_fract_y
 _atom_site_fract_z
 _atom_site_occupancy
  Mg  Mg0  1  0.18165497  0.28887624  0.93371405  1
  Mg  Mg1  1  0.68165331  0.28887997  0.43371549  1
  Mg  Mg2  1  0.18304386  0.78682746  0.56503143  1
  Mg  Mg3  1  0.68304107  0.78682913  0.06503406  1
  Mn  Mn0  1  0.74667885  0.49410619  0.73847888  1
  Mn  Mn1  1  0.74722995  0.99422894  0.76040480  1
  Mn  Mn2  1  0.24666734  0.49407415  0.23846261  1
  Mn  Mn3  1  0.24723333  0.99426619  0.26038764  1
  P  P0  1  0.26528339  0.23425218  0.60654124  1
  P  P1  1  0.76527625  0.23425776  0.10655114  1
  P  P2  1  0.26439579  0.73417990  0.89290398  1
  P  P3  1  0.76439792  0.73417968  0.39289512  1
  O  O0  1  0.20893061  0.06911246  0.51490554  1
  O  O1  1  0.70892973  0.06911522  0.01490836  1
  O  O2  1  0.35443966  0.35324866  0.48928829  1
  O  O3  1  0.85443719  0.35324724  0.98928979  1
  O  O4  1  0.35496966  0.85187591  0.01011269  1
  O  O5  1  0.85497616  0.85187483  0.51011673  1
  O  O6  1  0.20414164  0.57190719  0.98487619  1
  O  O7  1  0.70414344  0.57190678  0.48488058  1
  O  O8  1  0.42290450  0.62154028  0.75369365  1
  O  O9  1  0.92289896  0.62154184  0.25370258  1
  O  O10  1  0.07057423  0.89608960  0.79632463  1
  O  O11  1  0.57057311  0.89608664  0.29632636  1
  O  O12  1  0.06972311  0.39572324  0.70188833  1
  O  O13  1  0.56973681  0.39571302  0.20188421  1
  O  O14  1  0.42317956  0.12470469  0.74679429  1
  O  O15  1  0.92316783  0.12471116  0.24678768  1
  O  O16  1  0.25359955  0.73562784  0.33658388  1
  O  O17  1  0.75360262  0.73561854  0.83657778  1
  O  O18  1  0.25473804  0.23509264  0.16153067  1
  O  O19  1  0.75473259  0.23509146  0.66152732  1
loop_
_geom_bond_atom_site_label_1
_geom_bond_atom_site_label_2
_geom_bond_distance
_geom_bond_site_symmetry_2
Mg0 O18 1.959765 1_556
Mg0 O6 2.026724 1_555
Mg0 O12 2.094495 1_555
Mg0 O3 2.113940 1_455
Mg0 O14 2.199087 1_555
Mg1 O19 1.959725 1_555
Mg1 O7 2.026712 1_555
Mg1 O13 2.094497 1_555
Mg1 O2 2.113911 1_555
Mg1 O15 2.199095 1_555
Mg2 O16 1.960588 1_555
Mg2 O0 2.030827 1_565
Mg2 O10 2.094504 1_555
Mg2 O5 2.117027 1_455
Mg2 O8 2.204892 1_555
Mg3 O17 1.960671 1_554
Mg3 O1 2.030840 1_565
Mg3 O11 2.094488 1_555
Mg3 O4 2.117064 1_555
Mg3 O9 2.204920 1_555
Mn0 O17 1.844839 1_555
Mn0 O19 1.846203 1_555
Mn0 O8 1.993365 1_555
Mn0 O12 2.019959 1_655
Mn0 O7 2.170908 1_555
Mn0 O3 2.291257 1_555
Mn1 O19 1.845674 1_565
Mn1 O17 1.845753 1_555
Mn1 O14 1.994068 1_565
Mn1 O10 2.021089 1_655
Mn1 O1 2.173665 1_566
Mn1 O5 2.290086 1_555
Mn2 O16 1.845194 1_555
Mn2 O18 1.845895 1_555
Mn2 O9 1.993339 1_455
Mn2 O13 2.020119 1_555
Mn2 O6 2.170850 1_554
Mn2 O2 2.291318 1_555
Mn3 O18 1.845384 1_565
Mn3 O16 1.846013 1_555
Mn3 O15 1.994156 1_465
Mn3 O11 2.021054 1_555
Mn3 O0 2.173733 1_565
Mn3 O4 2.290047 1_555
O0 P0 1.523422 1_555
O1 P1 1.523445 1_555
O2 P0 1.535760 1_555
O3 P1 1.535792 1_556
O4 P2 1.534859 1_554
O5 P3 1.534941 1_555
O6 P2 1.523595 1_555
O7 P3 1.523653 1_555
O8 P2 1.550803 1_555
O9 P3 1.550664 1_555
O10 P2 1.544670 1_555
O11 P3 1.544629 1_555
O12 P0 1.544862 1_555
O13 P1 1.544684 1_555
O14 P0 1.550916 1_555
O15 P1 1.550796 1_555
