# generated using pymatgen
data_Ba2Cu3BrClO4
_symmetry_space_group_name_H-M   'P 1'
_cell_length_a   8.38271385
_cell_length_b   8.38271385
_cell_length_c   8.38271385
_cell_angle_alpha   141.22898034
_cell_angle_beta   141.22898034
_cell_angle_gamma   55.99193418
_symmetry_Int_Tables_number   1
_chemical_formula_structural   Ba2Cu3BrClO4
_chemical_formula_sum   'Ba2 Cu3 Br1 Cl1 O4'
_cell_volume   229.21270545
_cell_formula_units_Z   1
loop_
 _symmetry_equiv_pos_site_id
 _symmetry_equiv_pos_as_xyz
  1  'x, y, z'
loop_
 _atom_site_type_symbol
 _atom_site_label
 _atom_site_symmetry_multiplicity
 _atom_site_fract_x
 _atom_site_fract_y
 _atom_site_fract_z
 _atom_site_occupancy
  Ba  Ba0  1  0.63425700  0.63425700  0.00000000  1
  Ba  Ba1  1  0.36574300  0.36574300  0.00000000  1
  Cu  Cu0  1  0.50012800  0.00012800  0.50000000  1
  Cu  Cu1  1  0.99987200  0.49987200  0.50000000  1
  Cu  Cu2  1  0.00000000  0.00000000  0.00000000  1
  Br  Br0  1  0.75000000  0.25000000  0.50000000  1
  Cl  Cl0  1  0.25000000  0.75000000  0.50000000  1
  O  O0  1  0.75702300  0.24297700  0.00000000  1
  O  O1  1  0.24297700  0.75702300  0.00000000  1
  O  O2  1  0.24297700  0.24297700  0.48595500  1
  O  O3  1  0.75702300  0.75702300  0.51404500  1
loop_
_geom_bond_atom_site_label_1
_geom_bond_atom_site_label_2
_geom_bond_distance
_geom_bond_site_symmetry_2
Ba0 O3 2.835750 1_555
Ba0 O0 2.835758 1_555
Ba0 O1 2.835758 1_555
Ba0 O2 2.835760 1_554
Ba0 Cl0 3.267657 1_655
Ba0 Br0 3.267657 1_565
Ba0 Cl0 3.267657 1_554
Ba0 Br0 3.267657 1_554
Ba1 O2 2.835750 1_554
Ba1 O1 2.835758 1_555
Ba1 O0 2.835758 1_555
Ba1 O3 2.835760 1_555
Ba1 Cl0 3.267657 1_544
Ba1 Br0 3.267657 1_454
Ba1 Cl0 3.267657 1_555
Ba1 Br0 3.267657 1_555
Cu0 O3 1.968239 1_545
Cu0 O2 1.968239 1_555
Cu0 O0 1.968239 1_556
Cu0 O1 1.968239 1_545
Cu1 O2 1.968239 1_655
Cu1 O3 1.968239 1_555
Cu1 O0 1.968239 1_555
Cu1 O1 1.968239 1_656
Cu2 O1 1.912192 1_545
Cu2 O0 1.912192 1_455
Cu2 O3 1.912196 1_444
Cu2 O2 1.912196 1_555
