# generated using pymatgen
data_Cd6(CoO3)5
_symmetry_space_group_name_H-M   'P 1'
_cell_length_a   6.83545188
_cell_length_b   6.84233883
_cell_length_c   6.93825537
_cell_angle_alpha   86.65816645
_cell_angle_beta   86.05516297
_cell_angle_gamma   87.38747056
_symmetry_Int_Tables_number   1
_chemical_formula_structural   Cd6(CoO3)5
_chemical_formula_sum   'Cd6 Co5 O15'
_cell_volume   322.90451034
_cell_formula_units_Z   1
loop_
 _symmetry_equiv_pos_site_id
 _symmetry_equiv_pos_as_xyz
  1  'x, y, z'
loop_
 _atom_site_type_symbol
 _atom_site_label
 _atom_site_symmetry_multiplicity
 _atom_site_fract_x
 _atom_site_fract_y
 _atom_site_fract_z
 _atom_site_occupancy
  Cd  Cd0  1  0.15430900  0.82488000  0.49002400  1
  Cd  Cd1  1  0.33521800  0.67392800  0.99896600  1
  Cd  Cd2  1  0.99362800  0.33299400  0.66874300  1
  Cd  Cd3  1  0.49323900  0.15805100  0.82451700  1
  Cd  Cd4  1  0.82808300  0.48949900  0.15189400  1
  Cd  Cd5  1  0.67567000  0.99925500  0.33319000  1
  Co  Co0  1  0.49819900  0.50028500  0.49457900  1
  Co  Co1  1  0.30365400  0.29852400  0.30502700  1
  Co  Co2  1  0.11053900  0.10503000  0.10840200  1
  Co  Co3  1  0.69578500  0.69776800  0.69221000  1
  Co  Co4  1  0.89324200  0.91144000  0.91101300  1
  O  O0  1  0.96712400  0.88581800  0.19672200  1
  O  O1  1  0.30300200  0.57657800  0.31227000  1
  O  O2  1  0.42277100  0.68944800  0.67317500  1
  O  O3  1  0.71539900  0.96562400  0.66495700  1
  O  O4  1  0.02748100  0.27567400  0.31847900  1
  O  O5  1  0.28514700  0.31626900  0.03471400  1
  O  O6  1  0.67868200  0.72285300  0.96705700  1
  O  O7  1  0.31120000  0.30964900  0.57620200  1
  O  O8  1  0.69214400  0.66893600  0.41783500  1
  O  O9  1  0.19841100  0.96488800  0.89178000  1
  O  O10  1  0.57846100  0.31991800  0.30617300  1
  O  O11  1  0.67147600  0.42230200  0.68698900  1
  O  O12  1  0.33881500  0.02922200  0.30457700  1
  O  O13  1  0.96841900  0.67796500  0.72299600  1
  O  O14  1  0.85990300  0.18320000  0.94751000  1
loop_
_geom_bond_atom_site_label_1
_geom_bond_atom_site_label_2
_geom_bond_distance
_geom_bond_site_symmetry_2
Cd0 O13 2.209583 1_455
Cd0 O12 2.220081 1_565
Cd0 O1 2.314077 1_555
Cd0 O2 2.422706 1_555
Cd0 O0 2.482519 1_455
Cd1 O1 2.235221 1_556
Cd1 O9 2.268122 1_555
Cd1 O2 2.295782 1_555
Cd1 O6 2.380003 1_555
Cd1 O5 2.482232 1_556
Cd2 O7 2.222272 1_655
Cd2 O11 2.255322 1_555
Cd2 O14 2.288673 1_555
Cd2 O13 2.408422 1_555
Cd2 O4 2.477664 1_655
Cd3 O3 2.240883 1_545
Cd3 O5 2.253976 1_556
Cd3 O11 2.346009 1_555
Cd3 O7 2.358290 1_555
Cd3 O9 2.463233 1_545
Cd3 O14 2.718484 1_555
Cd4 O6 2.242721 1_554
Cd4 O4 2.274196 1_655
Cd4 O10 2.277707 1_555
Cd4 O8 2.387401 1_555
Cd4 O14 2.590967 1_554
Cd5 O10 2.264276 1_565
Cd5 O0 2.270040 1_555
Cd5 O8 2.301528 1_555
Cd5 O12 2.323430 1_565
Cd5 O3 2.333223 1_555
Co0 O8 1.828483 1_555
Co0 O2 1.874782 1_555
Co0 O11 1.883262 1_555
Co0 O10 1.886942 1_555
Co0 O7 1.903233 1_555
Co0 O1 1.935066 1_555
Co1 O12 1.847525 1_555
Co1 O5 1.884925 1_555
Co1 O10 1.891362 1_555
Co1 O7 1.891781 1_555
Co1 O4 1.896782 1_555
Co1 O1 1.905924 1_555
Co2 O0 1.878965 1_445
Co2 O9 1.878966 1_544
Co2 O5 1.939623 1_555
Co2 O4 1.958125 1_555
Co2 O14 2.139466 1_454
Co2 O12 2.166232 1_555
Co3 O3 1.841536 1_555
Co3 O2 1.883550 1_555
Co3 O13 1.888195 1_555
Co3 O11 1.902328 1_555
Co3 O6 1.919707 1_555
Co3 O8 1.927252 1_555
Co4 O14 1.892624 1_565
Co4 O6 2.000697 1_555
Co4 O0 2.074737 1_556
Co4 O9 2.127996 1_655
Co4 O13 2.143304 1_555
Co4 O3 2.168047 1_555
