# generated using pymatgen
data_TcSbH2(OF5)2
_symmetry_space_group_name_H-M   'P 1'
_cell_length_a   8.82799800
_cell_length_b   9.94250200
_cell_length_c   11.81845057
_cell_angle_alpha   90.00000000
_cell_angle_beta   107.07151126
_cell_angle_gamma   90.00000000
_symmetry_Int_Tables_number   1
_chemical_formula_structural   TcSbH2(OF5)2
_chemical_formula_sum   'Tc4 Sb4 H8 O8 F40'
_cell_volume   991.62777300
_cell_formula_units_Z   4
loop_
 _symmetry_equiv_pos_site_id
 _symmetry_equiv_pos_as_xyz
  1  'x, y, z'
loop_
 _atom_site_type_symbol
 _atom_site_label
 _atom_site_symmetry_multiplicity
 _atom_site_fract_x
 _atom_site_fract_y
 _atom_site_fract_z
 _atom_site_occupancy
  Tc  Tc0  1  0.14435400  0.59113400  0.85735800  1
  Tc  Tc1  1  0.85564600  0.09113400  0.64264200  1
  Tc  Tc2  1  0.85564600  0.40886600  0.14264200  1
  Tc  Tc3  1  0.14435400  0.90886600  0.35735800  1
  Sb  Sb0  1  0.64578800  0.56469600  0.72133600  1
  Sb  Sb1  1  0.35421200  0.06469600  0.77866400  1
  Sb  Sb2  1  0.35421200  0.43530400  0.27866400  1
  Sb  Sb3  1  0.64578800  0.93530400  0.22133600  1
  H  H0  1  0.13857200  0.42462500  0.64098800  1
  H  H1  1  0.86142800  0.92462500  0.85901200  1
  H  H2  1  0.86142800  0.57537500  0.35901200  1
  H  H3  1  0.13857200  0.07537500  0.14098800  1
  H  H4  1  0.22423500  0.37209200  0.49588200  1
  H  H5  1  0.77576500  0.87209200  0.00411800  1
  H  H6  1  0.77576500  0.62790800  0.50411800  1
  H  H7  1  0.22423500  0.12790800  0.99588200  1
  O  O0  1  0.34197600  0.57817800  0.89226800  1
  O  O1  1  0.65802400  0.07817800  0.60773200  1
  O  O2  1  0.65802400  0.42182200  0.10773200  1
  O  O3  1  0.34197600  0.92182200  0.39226800  1
  O  O4  1  0.11720500  0.70971100  0.95095300  1
  O  O5  1  0.88279500  0.20971100  0.54904700  1
  O  O6  1  0.88279500  0.29028900  0.04904700  1
  O  O7  1  0.11720500  0.79028900  0.45095300  1
  F  F0  1  0.10326400  0.68899800  0.71888800  1
  F  F1  1  0.89673600  0.18899800  0.78111200  1
  F  F2  1  0.89673600  0.31100200  0.28111200  1
  F  F3  1  0.10326400  0.81100200  0.21888800  1
  F  F4  1  0.10021800  0.43613000  0.92840700  1
  F  F5  1  0.89978200  0.93613000  0.57159300  1
  F  F6  1  0.89978200  0.56387000  0.07159300  1
  F  F7  1  0.10021800  0.06387000  0.42840700  1
  F  F8  1  0.11838400  0.42467700  0.72008800  1
  F  F9  1  0.88161600  0.92467700  0.77991200  1
  F  F10  1  0.88161600  0.57532300  0.27991200  1
  F  F11  1  0.11838400  0.07532300  0.22008800  1
  F  F12  1  0.13673100  0.40837000  0.52054700  1
  F  F13  1  0.86326900  0.90837000  0.97945300  1
  F  F14  1  0.86326900  0.59163000  0.47945300  1
  F  F15  1  0.13673100  0.09163000  0.02054700  1
  F  F16  1  0.65287200  0.44884400  0.85101400  1
  F  F17  1  0.34712800  0.94884400  0.64898600  1
  F  F18  1  0.34712800  0.55115600  0.14898600  1
  F  F19  1  0.65287200  0.05115600  0.35101400  1
  F  F20  1  0.64717400  0.71909000  0.81667000  1
  F  F21  1  0.35282600  0.21909000  0.68333000  1
  F  F22  1  0.35282600  0.28091000  0.18333000  1
  F  F23  1  0.64717400  0.78091000  0.31667000  1
  F  F24  1  0.42096100  0.56513700  0.66209900  1
  F  F25  1  0.57903900  0.06513700  0.83790100  1
  F  F26  1  0.57903900  0.43486300  0.33790100  1
  F  F27  1  0.42096100  0.93486300  0.16209900  1
  F  F28  1  0.67192300  0.67710000  0.59361700  1
  F  F29  1  0.32807700  0.17710000  0.90638300  1
  F  F30  1  0.32807700  0.32290000  0.40638300  1
  F  F31  1  0.67192300  0.82290000  0.09361700  1
  F  F32  1  0.66898200  0.41412900  0.62866300  1
  F  F33  1  0.33101800  0.91412900  0.87133700  1
  F  F34  1  0.33101800  0.58587100  0.37133700  1
  F  F35  1  0.66898200  0.08587100  0.12866300  1
  F  F36  1  0.88264100  0.57226400  0.78298800  1
  F  F37  1  0.11735900  0.07226400  0.71701200  1
  F  F38  1  0.11735900  0.42773600  0.21701200  1
  F  F39  1  0.88264100  0.92773600  0.28298800  1
loop_
_geom_bond_atom_site_label_1
_geom_bond_atom_site_label_2
_geom_bond_distance
_geom_bond_site_symmetry_2
O0 Tc0 1.675666 1_555
O1 Tc1 1.675666 1_555
O2 Tc2 1.675666 1_555
O3 Tc3 1.675666 1_555
O4 Tc0 1.681246 1_555
O5 Tc1 1.681246 1_555
O6 Tc2 1.681246 1_555
O7 Tc3 1.681246 1_555
F0 Tc0 1.846059 1_555
F1 Tc1 1.846059 1_555
F2 Tc2 1.846059 1_555
F3 Tc3 1.846059 1_555
F4 Tc0 1.850421 1_555
F5 Tc1 1.850421 1_565
F6 Tc2 1.850421 1_555
F7 Tc3 1.850421 1_545
F8 H0 1.001752 1_555
F8 Tc0 2.281474 1_555
F9 H1 1.001752 1_555
F9 Tc1 2.281474 1_565
F10 H2 1.001752 1_555
F10 Tc2 2.281474 1_555
F11 H3 1.001752 1_555
F11 Tc3 2.281474 1_545
F12 H4 0.971606 1_555
F12 H0 1.427915 1_555
F13 H5 0.971606 1_556
F13 H1 1.427915 1_555
F14 H6 0.971606 1_555
F14 H2 1.427915 1_555
F15 H7 0.971606 1_554
F15 H3 1.427915 1_555
F16 Sb0 1.903486 1_555
F17 Sb1 1.903486 1_565
F18 Sb2 1.903486 1_555
F19 Sb3 1.903486 1_545
F20 Sb0 1.902085 1_555
F21 Sb1 1.902085 1_555
F22 Sb2 1.902085 1_555
F23 Sb3 1.902085 1_555
F24 Sb0 1.900957 1_555
F25 Sb1 1.900957 1_555
F26 Sb2 1.900957 1_555
F27 Sb3 1.900957 1_555
F28 H6 1.663641 1_555
F28 Sb0 1.945532 1_555
F29 H7 1.663641 1_555
F29 Sb1 1.945532 1_555
F30 H4 1.663641 1_555
F30 Sb2 1.945532 1_555
F31 H5 1.663641 1_555
F31 Sb3 1.945532 1_555
F32 Sb0 1.901110 1_555
F33 Sb1 1.901110 1_565
F34 Sb2 1.901110 1_555
F35 Sb3 1.901110 1_545
F36 Sb0 2.003517 1_555
F36 Tc0 2.225624 1_655
F37 Sb1 2.003517 1_555
F37 Tc1 2.225624 1_455
F38 Sb2 2.003517 1_555
F38 Tc2 2.225624 1_455
F39 Sb3 2.003517 1_555
F39 Tc3 2.225624 1_655
