# generated using pymatgen
data_SrMgF4
_symmetry_space_group_name_H-M   'P 1'
_cell_length_a   7.57076443
_cell_length_b   7.57076443
_cell_length_c   5.68747000
_cell_angle_alpha   90.00000000
_cell_angle_beta   90.00000000
_cell_angle_gamma   149.41474574
_symmetry_Int_Tables_number   1
_chemical_formula_structural   SrMgF4
_chemical_formula_sum   'Sr2 Mg2 F8'
_cell_volume   165.86801723
_cell_formula_units_Z   2
loop_
 _symmetry_equiv_pos_site_id
 _symmetry_equiv_pos_as_xyz
  1  'x, y, z'
loop_
 _atom_site_type_symbol
 _atom_site_label
 _atom_site_symmetry_multiplicity
 _atom_site_fract_x
 _atom_site_fract_y
 _atom_site_fract_z
 _atom_site_occupancy
  Sr  Sr0  1  0.34254500  0.65745500  0.04460200  1
  Sr  Sr1  1  0.65745500  0.34254500  0.54460200  1
  Mg  Mg0  1  0.91550700  0.08449300  0.59536000  1
  Mg  Mg1  1  0.08449300  0.91550700  0.09536000  1
  F  F0  1  0.83827400  0.16172600  0.31015500  1
  F  F1  1  0.16172600  0.83827400  0.81015500  1
  F  F2  1  0.03426000  0.96574000  0.43051800  1
  F  F3  1  0.96574000  0.03426000  0.93051800  1
  F  F4  1  0.79801700  0.20198300  0.78906700  1
  F  F5  1  0.20198300  0.79801700  0.28906700  1
  F  F6  1  0.41611600  0.58388400  0.61327900  1
  F  F7  1  0.58388400  0.41611600  0.11327900  1
loop_
_geom_bond_atom_site_label_1
_geom_bond_atom_site_label_2
_geom_bond_distance
_geom_bond_site_symmetry_2
F0 Mg0 1.975757 1_555
F0 Sr0 2.504417 1_655
F0 Sr0 2.504417 1_545
F0 Sr1 2.958463 1_555
F1 Mg1 1.975757 1_556
F1 Sr1 2.504417 1_565
F1 Sr1 2.504417 1_455
F1 Sr0 2.958463 1_556
F2 Mg0 1.971606 1_465
F2 Mg1 2.042518 1_555
F2 Sr1 2.765078 1_455
F2 Sr1 2.765078 1_565
F3 Mg1 1.971606 1_646
F3 Mg0 2.042518 1_555
F3 Sr0 2.765078 1_546
F3 Sr0 2.765078 1_656
F4 Mg0 2.039206 1_555
F4 Sr1 2.479482 1_555
F4 Sr0 2.553881 1_656
F4 Sr0 2.553881 1_546
F5 Mg1 2.039206 1_555
F5 Sr0 2.479482 1_555
F5 Sr1 2.553881 1_565
F5 Sr1 2.553881 1_455
F6 Mg0 1.999400 1_565
F6 Mg0 1.999400 1_455
F6 Sr0 2.678152 1_556
F7 Mg1 1.999400 1_545
F7 Mg1 1.999400 1_655
F7 Sr1 2.678152 1_555
