# generated using pymatgen
data_Ho3NiGe2
_symmetry_space_group_name_H-M   'P 1'
_cell_length_a   4.14681700
_cell_length_b   11.24057000
_cell_length_c   11.32724100
_cell_angle_alpha   90.00000000
_cell_angle_beta   90.00000000
_cell_angle_gamma   90.00000000
_symmetry_Int_Tables_number   1
_chemical_formula_structural   Ho3NiGe2
_chemical_formula_sum   'Ho12 Ni4 Ge8'
_cell_volume   527.99200393
_cell_formula_units_Z   4
loop_
 _symmetry_equiv_pos_site_id
 _symmetry_equiv_pos_as_xyz
  1  'x, y, z'
loop_
 _atom_site_type_symbol
 _atom_site_label
 _atom_site_symmetry_multiplicity
 _atom_site_fract_x
 _atom_site_fract_y
 _atom_site_fract_z
 _atom_site_occupancy
  Ho  Ho0  1  0.25000000  0.05814800  0.87878300  1
  Ho  Ho1  1  0.25000000  0.44185200  0.37878300  1
  Ho  Ho2  1  0.75000000  0.94185200  0.12121700  1
  Ho  Ho3  1  0.75000000  0.55814800  0.62121700  1
  Ho  Ho4  1  0.25000000  0.12862400  0.55594400  1
  Ho  Ho5  1  0.25000000  0.37137600  0.05594400  1
  Ho  Ho6  1  0.75000000  0.87137600  0.44405600  1
  Ho  Ho7  1  0.75000000  0.62862400  0.94405600  1
  Ho  Ho8  1  0.25000000  0.80184100  0.71869100  1
  Ho  Ho9  1  0.25000000  0.69815900  0.21869100  1
  Ho  Ho10  1  0.75000000  0.19815900  0.28130900  1
  Ho  Ho11  1  0.75000000  0.30184100  0.78130900  1
  Ni  Ni0  1  0.25000000  0.36919200  0.62923100  1
  Ni  Ni1  1  0.25000000  0.13080800  0.12923100  1
  Ni  Ni2  1  0.75000000  0.63080800  0.37076900  1
  Ni  Ni3  1  0.75000000  0.86919200  0.87076900  1
  Ge  Ge0  1  0.25000000  0.81490700  0.98188300  1
  Ge  Ge1  1  0.25000000  0.68509300  0.48188300  1
  Ge  Ge2  1  0.75000000  0.18509300  0.01811700  1
  Ge  Ge3  1  0.75000000  0.31490700  0.51811700  1
  Ge  Ge4  1  0.25000000  0.49584200  0.80993800  1
  Ge  Ge5  1  0.25000000  0.00415800  0.30993800  1
  Ge  Ge6  1  0.75000000  0.50415800  0.19006200  1
  Ge  Ge7  1  0.75000000  0.99584200  0.69006200  1
loop_
_geom_bond_atom_site_label_1
_geom_bond_atom_site_label_2
_geom_bond_distance
_geom_bond_site_symmetry_2
Ho0 Ni1 2.952114 1_556
Ho0 Ni3 2.969600 1_545
Ho0 Ni3 2.969600 1_445
Ho1 Ni0 2.952114 1_555
Ho1 Ni2 2.969600 1_455
Ho1 Ni2 2.969600 1_555
Ho2 Ni3 2.952114 1_554
Ho2 Ni1 2.969600 1_565
Ho2 Ni1 2.969600 1_665
Ho3 Ni2 2.952114 1_555
Ho3 Ni0 2.969600 1_555
Ho3 Ni0 2.969600 1_655
Ho4 Ni0 2.828675 1_555
Ho5 Ni1 2.828675 1_555
Ho6 Ni2 2.828675 1_555
Ho7 Ni3 2.828675 1_555
Ho8 Ni3 2.799929 1_555
Ho8 Ni3 2.799929 1_455
Ho9 Ni2 2.799929 1_555
Ho9 Ni2 2.799929 1_455
Ho10 Ni1 2.799929 1_555
Ho10 Ni1 2.799929 1_655
Ho11 Ni0 2.799929 1_555
Ho11 Ni0 2.799929 1_655
Ge0 Ni3 2.501094 1_455
Ge0 Ni3 2.501094 1_555
Ge0 Ho2 2.970875 1_456
Ge0 Ho2 2.970875 1_556
Ge0 Ho0 2.973133 1_565
Ge0 Ho7 2.977775 1_555
Ge0 Ho7 2.977775 1_455
Ge0 Ho8 2.984855 1_555
Ge0 Ho9 2.986191 1_556
Ge1 Ni2 2.501094 1_555
Ge1 Ni2 2.501094 1_455
Ge1 Ho3 2.970875 1_455
Ge1 Ho3 2.970875 1_555
Ge1 Ho1 2.973133 1_555
Ge1 Ho6 2.977775 1_555
Ge1 Ho6 2.977775 1_455
Ge1 Ho9 2.984855 1_555
Ge1 Ho8 2.986191 1_555
Ge2 Ni1 2.501094 1_555
Ge2 Ni1 2.501094 1_655
Ge2 Ho0 2.970875 1_554
Ge2 Ho0 2.970875 1_654
Ge2 Ho2 2.973133 1_545
Ge2 Ho5 2.977775 1_555
Ge2 Ho5 2.977775 1_655
Ge2 Ho10 2.984855 1_555
Ge2 Ho11 2.986191 1_554
Ge3 Ni0 2.501094 1_655
Ge3 Ni0 2.501094 1_555
Ge3 Ho1 2.970875 1_655
Ge3 Ho1 2.970875 1_555
Ge3 Ho3 2.973133 1_555
Ge3 Ho4 2.977775 1_555
Ge3 Ho4 2.977775 1_655
Ge3 Ho11 2.984855 1_555
Ge3 Ho10 2.986191 1_555
Ge4 Ni0 2.493298 1_555
Ge4 Ho7 2.972313 1_555
Ge4 Ho7 2.972313 1_455
Ge4 Ho11 3.026476 1_555
Ge4 Ho11 3.026476 1_455
Ge4 Ho3 3.059286 1_455
Ge4 Ho3 3.059286 1_555
Ge4 Ho5 3.118070 1_556
Ge4 Ho8 3.591539 1_555
Ge5 Ni1 2.493298 1_555
Ge5 Ho6 2.972313 1_445
Ge5 Ho6 2.972313 1_545
Ge5 Ho10 3.026476 1_555
Ge5 Ho10 3.026476 1_455
Ge5 Ho2 3.059286 1_445
Ge5 Ho2 3.059286 1_545
Ge5 Ho4 3.118070 1_555
Ge5 Ho9 3.591539 1_545
Ge6 Ni2 2.493298 1_555
Ge6 Ho5 2.972313 1_655
Ge6 Ho5 2.972313 1_555
Ge6 Ho9 3.026476 1_655
Ge6 Ho9 3.026476 1_555
Ge6 Ho1 3.059286 1_555
Ge6 Ho1 3.059286 1_655
Ge6 Ho7 3.118070 1_554
Ge6 Ho10 3.591539 1_555
Ge7 Ni3 2.493298 1_555
Ge7 Ho4 2.972313 1_665
Ge7 Ho4 2.972313 1_565
Ge7 Ho8 3.026476 1_555
Ge7 Ho8 3.026476 1_655
Ge7 Ho0 3.059286 1_665
Ge7 Ho0 3.059286 1_565
Ge7 Ho6 3.118070 1_555
Ge7 Ho11 3.591539 1_565
