# generated using pymatgen
data_Rb2Mo(OF2)2
_symmetry_space_group_name_H-M   'P 1'
_cell_length_a   7.88218188
_cell_length_b   7.88218188
_cell_length_c   7.25214653
_cell_angle_alpha   89.59234358
_cell_angle_beta   89.59234358
_cell_angle_gamma   134.46058798
_symmetry_Int_Tables_number   1
_chemical_formula_structural   Rb2Mo(OF2)2
_chemical_formula_sum   'Rb4 Mo2 O4 F8'
_cell_volume   321.52999808
_cell_formula_units_Z   2
loop_
 _symmetry_equiv_pos_site_id
 _symmetry_equiv_pos_as_xyz
  1  'x, y, z'
loop_
 _atom_site_type_symbol
 _atom_site_label
 _atom_site_symmetry_multiplicity
 _atom_site_fract_x
 _atom_site_fract_y
 _atom_site_fract_z
 _atom_site_occupancy
  Rb  Rb0  1  0.55589800  0.44410200  0.25000000  1
  Rb  Rb1  1  0.44410200  0.55589800  0.75000000  1
  Rb  Rb2  1  0.23278600  0.76721400  0.25000000  1
  Rb  Rb3  1  0.76721400  0.23278600  0.75000000  1
  Mo  Mo0  1  0.88999600  0.11000400  0.25000000  1
  Mo  Mo1  1  0.11000400  0.88999600  0.75000000  1
  O  O0  1  0.09910000  0.33170800  0.07412000  1
  O  O1  1  0.33170800  0.09910000  0.57412000  1
  O  O2  1  0.90090000  0.66829200  0.92588000  1
  O  O3  1  0.66829200  0.90090000  0.42588000  1
  F  F0  1  0.75250600  0.24749400  0.25000000  1
  F  F1  1  0.24749400  0.75250600  0.75000000  1
  F  F2  1  0.02376100  0.97623900  0.25000000  1
  F  F3  1  0.97623900  0.02376100  0.75000000  1
  F  F4  1  0.34476800  0.11485900  0.94013300  1
  F  F5  1  0.11485900  0.34476800  0.44013300  1
  F  F6  1  0.65523200  0.88514100  0.05986700  1
  F  F7  1  0.88514100  0.65523200  0.55986700  1
loop_
_geom_bond_atom_site_label_1
_geom_bond_atom_site_label_2
_geom_bond_distance
_geom_bond_site_symmetry_2
Mo0 O0 1.816834 1_655
Mo0 O3 1.816834 1_545
Mo1 O2 1.816834 1_455
Mo1 O1 1.816834 1_565
O0 Rb1 3.026735 1_554
O0 Rb2 3.087926 1_555
O0 Rb3 3.198866 1_454
O0 Rb0 3.314951 1_555
O1 Rb0 3.026735 1_555
O1 Rb3 3.087926 1_555
O1 Rb2 3.198866 1_545
O1 Rb1 3.314951 1_555
O2 Rb0 3.026735 1_556
O2 Rb3 3.087926 1_555
O2 Rb2 3.198866 1_656
O2 Rb1 3.314951 1_555
O3 Rb1 3.026735 1_555
O3 Rb2 3.087926 1_555
O3 Rb3 3.198866 1_565
O3 Rb0 3.314951 1_555
F0 Mo0 1.998529 1_555
F0 Rb0 2.857857 1_555
F0 Rb2 3.064063 1_655
F0 Rb2 3.064063 1_545
F1 Mo1 1.998529 1_555
F1 Rb1 2.857857 1_555
F1 Rb3 3.064063 1_565
F1 Rb3 3.064063 1_455
F2 Mo0 1.944383 1_465
F2 Rb2 3.038349 1_555
F2 Rb0 3.086185 1_455
F2 Rb0 3.086185 1_565
F3 Mo1 1.944383 1_645
F3 Rb3 3.038349 1_555
F3 Rb1 3.086185 1_545
F3 Rb1 3.086185 1_655
F4 Mo1 1.985844 1_545
F4 Rb0 2.939472 1_556
F4 Rb3 3.071403 1_555
F4 Rb2 3.135872 1_546
F4 Rb1 3.271523 1_555
F5 Mo0 1.985844 1_455
F5 Rb1 2.939472 1_555
F5 Rb2 3.071403 1_555
F5 Rb3 3.135872 1_455
F5 Rb0 3.271523 1_555
F6 Mo0 1.985844 1_565
F6 Rb1 2.939472 1_554
F6 Rb2 3.071403 1_555
F6 Rb3 3.135872 1_564
F6 Rb0 3.271523 1_555
F7 Mo1 1.985844 1_655
F7 Rb0 2.939472 1_555
F7 Rb3 3.071403 1_555
F7 Rb2 3.135872 1_655
F7 Rb1 3.271523 1_555
