# generated using pymatgen
data_Y3Mg
_symmetry_space_group_name_H-M   'P 1'
_cell_length_a   13.26186840
_cell_length_b   13.26186840
_cell_length_c   13.26186840
_cell_angle_alpha   148.29383219
_cell_angle_beta   126.85698931
_cell_angle_gamma   63.21946432
_symmetry_Int_Tables_number   1
_chemical_formula_structural   Y3Mg
_chemical_formula_sum   'Y24 Mg8'
_cell_volume   970.90674889
_cell_formula_units_Z   8
loop_
 _symmetry_equiv_pos_site_id
 _symmetry_equiv_pos_as_xyz
  1  'x, y, z'
loop_
 _atom_site_type_symbol
 _atom_site_label
 _atom_site_symmetry_multiplicity
 _atom_site_fract_x
 _atom_site_fract_y
 _atom_site_fract_z
 _atom_site_occupancy
  Y  Y0_0  1  0.42392300  0.25000000  0.17392300  1
  Y  Y0_1  1  0.42392300  0.25000000  0.67392300  1
  Y  Y0_2  1  0.42392300  0.75000000  0.17392300  1
  Y  Y0_3  1  0.42392300  0.75000000  0.67392300  1
  Y  Y0_4  1  0.92392300  0.25000000  0.17392300  1
  Y  Y0_5  1  0.92392300  0.25000000  0.67392300  1
  Y  Y0_6  1  0.92392300  0.75000000  0.17392300  1
  Y  Y0_7  1  0.92392300  0.75000000  0.67392300  1
  Y  Y1_0  1  0.12508300  0.12827950  0.49680400  1
  Y  Y1_1  1  0.12508300  0.12827950  0.99680400  1
  Y  Y1_2  1  0.12508300  0.62827950  0.49680400  1
  Y  Y1_3  1  0.12508300  0.62827950  0.99680400  1
  Y  Y1_4  1  0.62508300  0.12827950  0.49680400  1
  Y  Y1_5  1  0.62508300  0.12827950  0.99680400  1
  Y  Y1_6  1  0.62508300  0.62827950  0.49680400  1
  Y  Y1_7  1  0.62508300  0.62827950  0.99680400  1
  Y  Y2_0  1  0.36852450  0.37172050  0.49680400  1
  Y  Y2_1  1  0.36852450  0.37172050  0.99680400  1
  Y  Y2_2  1  0.36852450  0.87172050  0.49680400  1
  Y  Y2_3  1  0.36852450  0.87172050  0.99680400  1
  Y  Y2_4  1  0.86852450  0.37172050  0.49680400  1
  Y  Y2_5  1  0.86852450  0.37172050  0.99680400  1
  Y  Y2_6  1  0.86852450  0.87172050  0.49680400  1
  Y  Y2_7  1  0.86852450  0.87172050  0.99680400  1
  Mg  Mg0_0  1  0.16580250  0.00000000  0.16580250  1
  Mg  Mg0_1  1  0.16580250  0.00000000  0.66580250  1
  Mg  Mg0_2  1  0.16580250  0.50000000  0.16580250  1
  Mg  Mg0_3  1  0.16580250  0.50000000  0.66580250  1
  Mg  Mg0_4  1  0.66580250  0.00000000  0.16580250  1
  Mg  Mg0_5  1  0.66580250  0.00000000  0.66580250  1
  Mg  Mg0_6  1  0.66580250  0.50000000  0.16580250  1
  Mg  Mg0_7  1  0.66580250  0.50000000  0.66580250  1
loop_
_geom_bond_atom_site_label_1
_geom_bond_atom_site_label_2
_geom_bond_distance
_geom_bond_site_symmetry_2
Y0_0 Y2_1 3.460593 1_554
Y0_0 Y1_1 3.460599 1_554
Y0_0 Y1_5 3.524936 1_554
Y0_0 Y1_6 3.524938 1_555
Y0_0 Y2_0 3.524942 1_555
Y0_0 Y2_3 3.524942 1_544
Y0_0 Y0_3 3.622766 1_544
Y0_0 Y0_3 3.622766 1_555
Y0_1 Y2_0 3.460593 1_555
Y0_1 Y1_0 3.460599 1_555
Y0_1 Y1_4 3.524936 1_555
Y0_1 Y1_7 3.524938 1_555
Y0_1 Y2_1 3.524942 1_555
Y0_1 Y2_2 3.524942 1_545
Y0_1 Y0_2 3.622766 1_545
Y0_1 Y0_2 3.622766 1_556
Y0_2 Y2_3 3.460593 1_554
Y0_2 Y1_3 3.460599 1_554
Y0_2 Y1_7 3.524936 1_554
Y0_2 Y1_4 3.524938 1_565
Y0_2 Y2_2 3.524942 1_555
Y0_2 Y2_1 3.524942 1_554
Y0_3 Y2_2 3.460593 1_555
Y0_3 Y1_2 3.460599 1_555
Y0_3 Y1_6 3.524936 1_555
Y0_3 Y1_5 3.524938 1_565
Y0_3 Y2_3 3.524942 1_555
Y0_3 Y2_0 3.524942 1_555
Y0_4 Y2_5 3.460593 1_554
Y0_4 Y1_5 3.460599 1_554
Y0_4 Y1_1 3.524936 1_654
Y0_4 Y1_2 3.524938 1_655
Y0_4 Y2_4 3.524942 1_555
Y0_4 Y2_7 3.524942 1_544
Y0_4 Y0_7 3.622766 1_544
Y0_4 Y0_7 3.622766 1_555
Y0_5 Y2_4 3.460593 1_555
Y0_5 Y1_4 3.460599 1_555
Y0_5 Y1_0 3.524936 1_655
Y0_5 Y1_3 3.524938 1_655
Y0_5 Y2_5 3.524942 1_555
Y0_5 Y2_6 3.524942 1_545
Y0_5 Y0_6 3.622766 1_545
Y0_5 Y0_6 3.622766 1_556
Y0_6 Y2_7 3.460593 1_554
Y0_6 Y1_7 3.460599 1_554
Y0_6 Y1_3 3.524936 1_654
Y0_6 Y1_0 3.524938 1_665
Y0_6 Y2_6 3.524942 1_555
Y0_6 Y2_5 3.524942 1_554
Y0_7 Y2_6 3.460593 1_555
Y0_7 Y1_6 3.460599 1_555
Y0_7 Y1_2 3.524936 1_655
Y0_7 Y1_1 3.524938 1_665
Y0_7 Y2_7 3.524942 1_555
Y0_7 Y2_4 3.524942 1_555
Y1_0 Y2_4 3.478628 1_455
Y1_0 Y2_7 3.478630 1_444
Y1_0 Y2_1 3.478633 1_555
Y1_0 Y2_2 3.478635 1_545
Y1_0 Y1_3 3.622766 1_544
Y1_0 Y1_3 3.622766 1_555
Y1_1 Y2_5 3.478628 1_455
Y1_1 Y2_6 3.478630 1_445
Y1_1 Y2_0 3.478633 1_556
Y1_1 Y2_3 3.478635 1_545
Y1_1 Y1_2 3.622766 1_545
Y1_1 Y1_2 3.622766 1_556
Y1_2 Y2_6 3.478628 1_455
Y1_2 Y2_5 3.478630 1_454
Y1_2 Y2_3 3.478633 1_555
Y1_2 Y2_0 3.478635 1_555
Y1_3 Y2_7 3.478628 1_455
Y1_3 Y2_4 3.478630 1_455
Y1_3 Y2_2 3.478633 1_556
Y1_3 Y2_1 3.478635 1_555
Y1_4 Y2_0 3.478628 1_555
Y1_4 Y2_3 3.478630 1_544
Y1_4 Y2_5 3.478633 1_555
Y1_4 Y2_6 3.478635 1_545
Y1_4 Y1_7 3.622766 1_544
Y1_4 Y1_7 3.622766 1_555
Y1_5 Y2_1 3.478628 1_555
Y1_5 Y2_2 3.478630 1_545
Y1_5 Y2_4 3.478633 1_556
Y1_5 Y2_7 3.478635 1_545
Y1_5 Y1_6 3.622766 1_545
Y1_5 Y1_6 3.622766 1_556
Y1_6 Y2_2 3.478628 1_555
Y1_6 Y2_1 3.478630 1_554
Y1_6 Y2_7 3.478633 1_555
Y1_6 Y2_4 3.478635 1_555
Y1_7 Y2_3 3.478628 1_555
Y1_7 Y2_0 3.478630 1_555
Y1_7 Y2_6 3.478633 1_556
Y1_7 Y2_5 3.478635 1_555
Y2_0 Y2_3 3.622766 1_544
Y2_0 Y2_3 3.622766 1_555
Y2_1 Y2_2 3.622766 1_545
Y2_1 Y2_2 3.622766 1_556
Y2_4 Y2_7 3.622766 1_544
Y2_4 Y2_7 3.622766 1_555
Y2_5 Y2_6 3.622766 1_556
Y2_5 Y2_6 3.622766 1_545
Mg0_0 Y0_4 3.393622 1_455
Mg0_0 Y0_7 3.393622 1_444
Mg0_0 Y2_0 3.429933 1_555
Mg0_0 Y2_3 3.429933 1_544
Mg0_0 Y1_3 3.429936 1_544
Mg0_0 Y1_0 3.429938 1_555
Mg0_0 Y1_1 3.523736 1_554
Mg0_0 Y2_7 3.523739 1_444
Mg0_0 Y0_2 3.558055 1_545
Mg0_0 Y0_1 3.558055 1_555
Mg0_1 Y0_5 3.393622 1_455
Mg0_1 Y0_6 3.393622 1_445
Mg0_1 Y2_1 3.429933 1_555
Mg0_1 Y2_2 3.429933 1_545
Mg0_1 Y1_2 3.429936 1_545
Mg0_1 Y1_1 3.429938 1_555
Mg0_1 Y1_0 3.523736 1_555
Mg0_1 Y2_6 3.523739 1_445
Mg0_1 Y0_3 3.558055 1_545
Mg0_1 Y0_0 3.558055 1_556
Mg0_2 Y0_5 3.393622 1_454
Mg0_2 Y0_6 3.393622 1_455
Mg0_2 Y2_2 3.429933 1_555
Mg0_2 Y2_1 3.429933 1_554
Mg0_2 Y1_1 3.429936 1_554
Mg0_2 Y1_2 3.429938 1_555
Mg0_2 Y1_3 3.523736 1_554
Mg0_2 Y2_5 3.523739 1_454
Mg0_2 Y0_0 3.558055 1_555
Mg0_2 Y0_3 3.558055 1_555
Mg0_3 Y0_7 3.393622 1_455
Mg0_3 Y0_4 3.393622 1_455
Mg0_3 Y2_3 3.429933 1_555
Mg0_3 Y2_0 3.429933 1_555
Mg0_3 Y1_0 3.429936 1_555
Mg0_3 Y1_3 3.429938 1_555
Mg0_3 Y1_2 3.523736 1_555
Mg0_3 Y2_4 3.523739 1_455
Mg0_3 Y0_2 3.558055 1_556
Mg0_3 Y0_1 3.558055 1_555
Mg0_4 Y0_3 3.393622 1_544
Mg0_4 Y0_0 3.393622 1_555
Mg0_4 Y2_4 3.429933 1_555
Mg0_4 Y2_7 3.429933 1_544
Mg0_4 Y1_7 3.429936 1_544
Mg0_4 Y1_4 3.429938 1_555
Mg0_4 Y1_5 3.523736 1_554
Mg0_4 Y2_3 3.523739 1_544
Mg0_4 Y0_6 3.558055 1_545
Mg0_4 Y0_5 3.558055 1_555
Mg0_5 Y0_2 3.393622 1_545
Mg0_5 Y0_1 3.393622 1_555
Mg0_5 Y2_5 3.429933 1_555
Mg0_5 Y2_6 3.429933 1_545
Mg0_5 Y1_6 3.429936 1_545
Mg0_5 Y1_5 3.429938 1_555
Mg0_5 Y1_4 3.523736 1_555
Mg0_5 Y2_2 3.523739 1_545
Mg0_5 Y0_4 3.558055 1_556
Mg0_5 Y0_7 3.558055 1_545
Mg0_6 Y0_1 3.393622 1_554
Mg0_6 Y0_2 3.393622 1_555
Mg0_6 Y2_6 3.429933 1_555
Mg0_6 Y2_5 3.429933 1_554
Mg0_6 Y1_5 3.429936 1_554
Mg0_6 Y1_6 3.429938 1_555
Mg0_6 Y1_7 3.523736 1_554
Mg0_6 Y2_1 3.523739 1_554
Mg0_6 Y0_4 3.558055 1_555
Mg0_6 Y0_7 3.558055 1_555
Mg0_7 Y0_3 3.393622 1_555
Mg0_7 Y0_0 3.393622 1_555
Mg0_7 Y2_7 3.429933 1_555
Mg0_7 Y2_4 3.429933 1_555
Mg0_7 Y1_4 3.429936 1_555
Mg0_7 Y1_7 3.429938 1_555
Mg0_7 Y1_6 3.523736 1_555
Mg0_7 Y2_0 3.523739 1_555
Mg0_7 Y0_5 3.558055 1_555
Mg0_7 Y0_6 3.558055 1_556
