# generated using pymatgen
data_CeMg
_symmetry_space_group_name_H-M   'P 1'
_cell_length_a   10.76960420
_cell_length_b   6.42883506
_cell_length_c   35.80119214
_cell_angle_alpha   90.00000000
_cell_angle_beta   90.00000000
_cell_angle_gamma   90.00000000
_symmetry_Int_Tables_number   1
_chemical_formula_structural   CeMg
_chemical_formula_sum   'Ce48 Mg48'
_cell_volume   2478.73166348
_cell_formula_units_Z   48
loop_
 _symmetry_equiv_pos_site_id
 _symmetry_equiv_pos_as_xyz
  1  'x, y, z'
loop_
 _atom_site_type_symbol
 _atom_site_label
 _atom_site_symmetry_multiplicity
 _atom_site_fract_x
 _atom_site_fract_y
 _atom_site_fract_z
 _atom_site_occupancy
  Ce  Ce0_0  1  0.00000000  0.00000000  0.16347386  1
  Ce  Ce0_1  1  0.00000000  0.00000000  0.66347386  1
  Ce  Ce0_2  1  0.00000000  0.50000000  0.16347386  1
  Ce  Ce0_3  1  0.00000000  0.50000000  0.66347386  1
  Ce  Ce0_4  1  0.50000000  0.00000000  0.16347386  1
  Ce  Ce0_5  1  0.50000000  0.00000000  0.66347386  1
  Ce  Ce0_6  1  0.50000000  0.50000000  0.16347386  1
  Ce  Ce0_7  1  0.50000000  0.50000000  0.66347386  1
  Ce  Ce1_0  1  0.25000000  0.00000000  0.22016192  1
  Ce  Ce1_1  1  0.25000000  0.00000000  0.72016192  1
  Ce  Ce1_2  1  0.25000000  0.50000000  0.22016192  1
  Ce  Ce1_3  1  0.25000000  0.50000000  0.72016192  1
  Ce  Ce1_4  1  0.75000000  0.00000000  0.22016192  1
  Ce  Ce1_5  1  0.75000000  0.00000000  0.72016192  1
  Ce  Ce1_6  1  0.75000000  0.50000000  0.22016192  1
  Ce  Ce1_7  1  0.75000000  0.50000000  0.72016192  1
  Ce  Ce2_0  1  0.25000000  0.25000000  0.14332285  1
  Ce  Ce2_1  1  0.25000000  0.25000000  0.64332285  1
  Ce  Ce2_2  1  0.25000000  0.75000000  0.14332285  1
  Ce  Ce2_3  1  0.25000000  0.75000000  0.64332285  1
  Ce  Ce2_4  1  0.75000000  0.25000000  0.14332285  1
  Ce  Ce2_5  1  0.75000000  0.25000000  0.64332285  1
  Ce  Ce2_6  1  0.75000000  0.75000000  0.14332285  1
  Ce  Ce2_7  1  0.75000000  0.75000000  0.64332285  1
  Ce  Ce3_0  1  0.00000000  0.25000000  0.41347386  1
  Ce  Ce3_1  1  0.00000000  0.25000000  0.91347386  1
  Ce  Ce3_2  1  0.00000000  0.75000000  0.41347386  1
  Ce  Ce3_3  1  0.00000000  0.75000000  0.91347386  1
  Ce  Ce3_4  1  0.50000000  0.25000000  0.41347386  1
  Ce  Ce3_5  1  0.50000000  0.25000000  0.91347386  1
  Ce  Ce3_6  1  0.50000000  0.75000000  0.41347386  1
  Ce  Ce3_7  1  0.50000000  0.75000000  0.91347386  1
  Ce  Ce4_0  1  0.25000000  0.25000000  0.47016192  1
  Ce  Ce4_1  1  0.25000000  0.25000000  0.97016192  1
  Ce  Ce4_2  1  0.25000000  0.75000000  0.47016192  1
  Ce  Ce4_3  1  0.25000000  0.75000000  0.97016192  1
  Ce  Ce4_4  1  0.75000000  0.25000000  0.47016192  1
  Ce  Ce4_5  1  0.75000000  0.25000000  0.97016192  1
  Ce  Ce4_6  1  0.75000000  0.75000000  0.47016192  1
  Ce  Ce4_7  1  0.75000000  0.75000000  0.97016192  1
  Ce  Ce5_0  1  0.25000000  0.00000000  0.39332285  1
  Ce  Ce5_1  1  0.25000000  0.00000000  0.89332285  1
  Ce  Ce5_2  1  0.25000000  0.50000000  0.39332285  1
  Ce  Ce5_3  1  0.25000000  0.50000000  0.89332285  1
  Ce  Ce5_4  1  0.75000000  0.00000000  0.39332285  1
  Ce  Ce5_5  1  0.75000000  0.00000000  0.89332285  1
  Ce  Ce5_6  1  0.75000000  0.50000000  0.39332285  1
  Ce  Ce5_7  1  0.75000000  0.50000000  0.89332285  1
  Mg  Mg0_0  1  0.00000000  0.25000000  0.25354046  1
  Mg  Mg0_1  1  0.00000000  0.25000000  0.75354047  1
  Mg  Mg0_2  1  0.00000000  0.75000000  0.25354046  1
  Mg  Mg0_3  1  0.00000000  0.75000000  0.75354047  1
  Mg  Mg0_4  1  0.50000000  0.25000000  0.25354046  1
  Mg  Mg0_5  1  0.50000000  0.25000000  0.75354047  1
  Mg  Mg0_6  1  0.50000000  0.75000000  0.25354046  1
  Mg  Mg0_7  1  0.50000000  0.75000000  0.75354047  1
  Mg  Mg1_0  1  0.00000000  0.25000000  0.08046955  1
  Mg  Mg1_1  1  0.00000000  0.25000000  0.58046955  1
  Mg  Mg1_2  1  0.00000000  0.75000000  0.08046955  1
  Mg  Mg1_3  1  0.00000000  0.75000000  0.58046955  1
  Mg  Mg1_4  1  0.50000000  0.25000000  0.08046955  1
  Mg  Mg1_5  1  0.50000000  0.25000000  0.58046955  1
  Mg  Mg1_6  1  0.50000000  0.75000000  0.08046955  1
  Mg  Mg1_7  1  0.50000000  0.75000000  0.58046955  1
  Mg  Mg2_0  1  0.25000000  0.00000000  0.05569786  1
  Mg  Mg2_1  1  0.25000000  0.00000000  0.55569786  1
  Mg  Mg2_2  1  0.25000000  0.50000000  0.05569786  1
  Mg  Mg2_3  1  0.25000000  0.50000000  0.55569786  1
  Mg  Mg2_4  1  0.75000000  0.00000000  0.05569786  1
  Mg  Mg2_5  1  0.75000000  0.00000000  0.55569786  1
  Mg  Mg2_6  1  0.75000000  0.50000000  0.05569786  1
  Mg  Mg2_7  1  0.75000000  0.50000000  0.55569786  1
  Mg  Mg3_0  1  0.00000000  0.00000000  0.00354047  1
  Mg  Mg3_1  1  0.00000000  0.00000000  0.50354047  1
  Mg  Mg3_2  1  0.00000000  0.50000000  0.00354047  1
  Mg  Mg3_3  1  0.00000000  0.50000000  0.50354047  1
  Mg  Mg3_4  1  0.50000000  0.00000000  0.00354047  1
  Mg  Mg3_5  1  0.50000000  0.00000000  0.50354047  1
  Mg  Mg3_6  1  0.50000000  0.50000000  0.00354047  1
  Mg  Mg3_7  1  0.50000000  0.50000000  0.50354047  1
  Mg  Mg4_0  1  0.00000000  0.00000000  0.33046956  1
  Mg  Mg4_1  1  0.00000000  0.00000000  0.83046956  1
  Mg  Mg4_2  1  0.00000000  0.50000000  0.33046956  1
  Mg  Mg4_3  1  0.00000000  0.50000000  0.83046956  1
  Mg  Mg4_4  1  0.50000000  0.00000000  0.33046956  1
  Mg  Mg4_5  1  0.50000000  0.00000000  0.83046956  1
  Mg  Mg4_6  1  0.50000000  0.50000000  0.33046956  1
  Mg  Mg4_7  1  0.50000000  0.50000000  0.83046956  1
  Mg  Mg5_0  1  0.25000000  0.25000000  0.30569786  1
  Mg  Mg5_1  1  0.25000000  0.25000000  0.80569786  1
  Mg  Mg5_2  1  0.25000000  0.75000000  0.30569786  1
  Mg  Mg5_3  1  0.25000000  0.75000000  0.80569786  1
  Mg  Mg5_4  1  0.75000000  0.25000000  0.30569786  1
  Mg  Mg5_5  1  0.75000000  0.25000000  0.80569786  1
  Mg  Mg5_6  1  0.75000000  0.75000000  0.30569786  1
  Mg  Mg5_7  1  0.75000000  0.75000000  0.80569786  1
loop_
_geom_bond_atom_site_label_1
_geom_bond_atom_site_label_2
_geom_bond_distance
_geom_bond_site_symmetry_2
Ce0_0 Ce0_2 3.214418 1_555
Ce0_0 Ce0_2 3.214418 1_545
Ce0_0 Ce2_2 3.217546 1_545
Ce0_0 Ce2_0 3.217546 1_555
Ce0_0 Ce2_6 3.217546 1_445
Ce0_0 Ce2_4 3.217546 1_455
Ce0_0 Ce1_0 3.371631 1_555
Ce0_0 Ce1_4 3.371631 1_455
Ce0_0 Mg1_2 3.378438 1_545
Ce0_0 Mg1_0 3.378438 1_555
Ce0_0 Mg0_2 3.602842 1_545
Ce0_0 Mg0_0 3.602842 1_555
Ce0_1 Ce0_3 3.214418 1_545
Ce0_1 Ce0_3 3.214418 1_555
Ce0_1 Ce2_3 3.217546 1_545
Ce0_1 Ce2_1 3.217546 1_555
Ce0_1 Ce2_5 3.217546 1_455
Ce0_1 Ce2_7 3.217546 1_445
Ce0_1 Ce1_1 3.371631 1_555
Ce0_1 Ce1_5 3.371631 1_455
Ce0_1 Mg1_3 3.378438 1_545
Ce0_1 Mg1_1 3.378438 1_555
Ce0_1 Mg0_3 3.602842 1_545
Ce0_1 Mg0_1 3.602842 1_555
Ce0_2 Ce2_2 3.217546 1_555
Ce0_2 Ce2_0 3.217546 1_555
Ce0_2 Ce2_6 3.217546 1_455
Ce0_2 Ce2_4 3.217546 1_455
Ce0_2 Ce1_2 3.371631 1_555
Ce0_2 Ce1_6 3.371631 1_455
Ce0_2 Mg1_2 3.378438 1_555
Ce0_2 Mg1_0 3.378438 1_555
Ce0_2 Mg0_2 3.602842 1_555
Ce0_2 Mg0_0 3.602842 1_555
Ce0_3 Ce2_1 3.217546 1_555
Ce0_3 Ce2_3 3.217546 1_555
Ce0_3 Ce2_5 3.217546 1_455
Ce0_3 Ce2_7 3.217546 1_455
Ce0_3 Ce1_3 3.371631 1_555
Ce0_3 Ce1_7 3.371631 1_455
Ce0_3 Mg1_3 3.378438 1_555
Ce0_3 Mg1_1 3.378438 1_555
Ce0_3 Mg0_3 3.602842 1_555
Ce0_3 Mg0_1 3.602842 1_555
Ce0_4 Ce0_6 3.214418 1_555
Ce0_4 Ce0_6 3.214418 1_545
Ce0_4 Ce2_6 3.217546 1_545
Ce0_4 Ce2_4 3.217546 1_555
Ce0_4 Ce2_0 3.217546 1_555
Ce0_4 Ce2_2 3.217546 1_545
Ce0_4 Ce1_4 3.371631 1_555
Ce0_4 Ce1_0 3.371631 1_555
Ce0_4 Mg1_4 3.378438 1_555
Ce0_4 Mg1_6 3.378438 1_545
Ce0_4 Mg0_6 3.602842 1_545
Ce0_4 Mg0_4 3.602842 1_555
Ce0_5 Ce0_7 3.214418 1_545
Ce0_5 Ce0_7 3.214418 1_555
Ce0_5 Ce2_7 3.217546 1_545
Ce0_5 Ce2_5 3.217546 1_555
Ce0_5 Ce2_3 3.217546 1_545
Ce0_5 Ce2_1 3.217546 1_555
Ce0_5 Ce1_5 3.371631 1_555
Ce0_5 Ce1_1 3.371631 1_555
Ce0_5 Mg1_7 3.378438 1_545
Ce0_5 Mg1_5 3.378438 1_555
Ce0_5 Mg0_5 3.602842 1_555
Ce0_5 Mg0_7 3.602842 1_545
Ce0_6 Ce2_6 3.217546 1_555
Ce0_6 Ce2_4 3.217546 1_555
Ce0_6 Ce2_0 3.217546 1_555
Ce0_6 Ce2_2 3.217546 1_555
Ce0_6 Ce1_6 3.371631 1_555
Ce0_6 Ce1_2 3.371631 1_555
Ce0_6 Mg1_4 3.378438 1_555
Ce0_6 Mg1_6 3.378438 1_555
Ce0_6 Mg0_6 3.602842 1_555
Ce0_6 Mg0_4 3.602842 1_555
Ce0_7 Ce2_7 3.217546 1_555
Ce0_7 Ce2_5 3.217546 1_555
Ce0_7 Ce2_3 3.217546 1_555
Ce0_7 Ce2_1 3.217546 1_555
Ce0_7 Ce1_7 3.371631 1_555
Ce0_7 Ce1_3 3.371631 1_555
Ce0_7 Mg1_7 3.378438 1_555
Ce0_7 Mg1_5 3.378438 1_555
Ce0_7 Mg0_5 3.602842 1_555
Ce0_7 Mg0_7 3.602842 1_555
Ce1_0 Ce2_2 3.186022 1_545
Ce1_0 Ce2_0 3.186022 1_555
Ce1_0 Ce1_2 3.214418 1_555
Ce1_0 Ce1_2 3.214418 1_545
Ce1_0 Mg0_0 3.355615 1_555
Ce1_0 Mg0_4 3.355615 1_555
Ce1_0 Mg0_6 3.355615 1_545
Ce1_0 Mg0_2 3.355615 1_545
Ce1_0 Mg5_0 3.458429 1_555
Ce1_0 Mg5_2 3.458429 1_545
Ce1_1 Ce2_3 3.186022 1_545
Ce1_1 Ce2_1 3.186022 1_555
Ce1_1 Ce1_3 3.214418 1_545
Ce1_1 Ce1_3 3.214418 1_555
Ce1_1 Mg0_1 3.355615 1_555
Ce1_1 Mg0_5 3.355615 1_555
Ce1_1 Mg0_3 3.355615 1_545
Ce1_1 Mg0_7 3.355615 1_545
Ce1_1 Mg5_1 3.458429 1_555
Ce1_1 Mg5_3 3.458429 1_545
Ce1_2 Ce2_2 3.186022 1_555
Ce1_2 Ce2_0 3.186022 1_555
Ce1_2 Mg0_0 3.355615 1_555
Ce1_2 Mg0_4 3.355615 1_555
Ce1_2 Mg0_6 3.355615 1_555
Ce1_2 Mg0_2 3.355615 1_555
Ce1_2 Mg5_0 3.458429 1_555
Ce1_2 Mg5_2 3.458429 1_555
Ce1_3 Ce2_1 3.186022 1_555
Ce1_3 Ce2_3 3.186022 1_555
Ce1_3 Mg0_7 3.355615 1_555
Ce1_3 Mg0_5 3.355615 1_555
Ce1_3 Mg0_3 3.355615 1_555
Ce1_3 Mg0_1 3.355615 1_555
Ce1_3 Mg5_1 3.458429 1_555
Ce1_3 Mg5_3 3.458429 1_555
Ce1_4 Ce2_4 3.186022 1_555
Ce1_4 Ce2_6 3.186022 1_545
Ce1_4 Ce1_6 3.214418 1_555
Ce1_4 Ce1_6 3.214418 1_545
Ce1_4 Mg0_4 3.355615 1_555
Ce1_4 Mg0_6 3.355615 1_545
Ce1_4 Mg0_0 3.355615 1_655
Ce1_4 Mg0_2 3.355615 1_645
Ce1_4 Mg5_6 3.458429 1_545
Ce1_4 Mg5_4 3.458429 1_555
Ce1_5 Ce2_7 3.186022 1_545
Ce1_5 Ce2_5 3.186022 1_555
Ce1_5 Ce1_7 3.214418 1_555
Ce1_5 Ce1_7 3.214418 1_545
Ce1_5 Mg0_5 3.355615 1_555
Ce1_5 Mg0_7 3.355615 1_545
Ce1_5 Mg0_1 3.355615 1_655
Ce1_5 Mg0_3 3.355615 1_645
Ce1_5 Mg5_7 3.458429 1_545
Ce1_5 Mg5_5 3.458429 1_555
Ce1_6 Ce2_4 3.186022 1_555
Ce1_6 Ce2_6 3.186022 1_555
Ce1_6 Mg0_6 3.355615 1_555
Ce1_6 Mg0_4 3.355615 1_555
Ce1_6 Mg0_0 3.355615 1_655
Ce1_6 Mg0_2 3.355615 1_655
Ce1_6 Mg5_4 3.458429 1_555
Ce1_6 Mg5_6 3.458429 1_555
Ce1_7 Ce2_7 3.186022 1_555
Ce1_7 Ce2_5 3.186022 1_555
Ce1_7 Mg0_7 3.355615 1_555
Ce1_7 Mg0_5 3.355615 1_555
Ce1_7 Mg0_1 3.355615 1_655
Ce1_7 Mg0_3 3.355615 1_655
Ce1_7 Mg5_7 3.458429 1_555
Ce1_7 Mg5_5 3.458429 1_555
Ce2_0 Ce2_2 3.214418 1_555
Ce2_0 Ce2_2 3.214418 1_545
Ce2_0 Mg1_4 3.508921 1_555
Ce2_0 Mg1_0 3.508921 1_555
Ce2_0 Mg2_2 3.524824 1_555
Ce2_0 Mg2_0 3.524824 1_555
Ce2_1 Ce2_3 3.214418 1_555
Ce2_1 Ce2_3 3.214418 1_545
Ce2_1 Mg1_1 3.508921 1_555
Ce2_1 Mg1_5 3.508921 1_555
Ce2_1 Mg2_3 3.524824 1_555
Ce2_1 Mg2_1 3.524824 1_555
Ce2_2 Mg1_2 3.508921 1_555
Ce2_2 Mg1_6 3.508921 1_555
Ce2_2 Mg2_2 3.524824 1_555
Ce2_2 Mg2_0 3.524824 1_565
Ce2_3 Mg1_7 3.508921 1_555
Ce2_3 Mg1_3 3.508921 1_555
Ce2_3 Mg2_3 3.524824 1_555
Ce2_3 Mg2_1 3.524824 1_565
Ce2_4 Ce2_6 3.214418 1_555
Ce2_4 Ce2_6 3.214418 1_545
Ce2_4 Mg1_4 3.508921 1_555
Ce2_4 Mg1_0 3.508921 1_655
Ce2_4 Mg2_4 3.524824 1_555
Ce2_4 Mg2_6 3.524824 1_555
Ce2_5 Ce2_7 3.214418 1_555
Ce2_5 Ce2_7 3.214418 1_545
Ce2_5 Mg1_5 3.508921 1_555
Ce2_5 Mg1_1 3.508921 1_655
Ce2_5 Mg2_5 3.524824 1_555
Ce2_5 Mg2_7 3.524824 1_555
Ce2_6 Mg1_6 3.508921 1_555
Ce2_6 Mg1_2 3.508921 1_655
Ce2_6 Mg2_6 3.524824 1_555
Ce2_6 Mg2_4 3.524824 1_565
Ce2_7 Mg1_7 3.508921 1_555
Ce2_7 Mg1_3 3.508921 1_655
Ce2_7 Mg2_7 3.524824 1_555
Ce2_7 Mg2_5 3.524824 1_565
Ce3_0 Ce3_2 3.214418 1_555
Ce3_0 Ce3_2 3.214418 1_545
Ce3_0 Ce5_2 3.217546 1_555
Ce3_0 Ce5_0 3.217546 1_555
Ce3_0 Ce5_6 3.217546 1_455
Ce3_0 Ce5_4 3.217546 1_455
Ce3_0 Ce4_0 3.371631 1_555
Ce3_0 Ce4_4 3.371631 1_455
Ce3_0 Mg4_2 3.378438 1_555
Ce3_0 Mg4_0 3.378438 1_555
Ce3_0 Mg3_3 3.602842 1_555
Ce3_0 Mg3_1 3.602842 1_555
Ce3_1 Ce3_3 3.214418 1_555
Ce3_1 Ce3_3 3.214418 1_545
Ce3_1 Ce5_3 3.217546 1_555
Ce3_1 Ce5_1 3.217546 1_555
Ce3_1 Ce5_5 3.217546 1_455
Ce3_1 Ce5_7 3.217546 1_455
Ce3_1 Ce4_1 3.371631 1_555
Ce3_1 Ce4_5 3.371631 1_455
Ce3_1 Mg4_1 3.378438 1_555
Ce3_1 Mg4_3 3.378438 1_555
Ce3_1 Mg3_0 3.602842 1_556
Ce3_1 Mg3_2 3.602842 1_556
Ce3_2 Ce5_2 3.217546 1_555
Ce3_2 Ce5_0 3.217546 1_565
Ce3_2 Ce5_6 3.217546 1_455
Ce3_2 Ce5_4 3.217546 1_465
Ce3_2 Ce4_2 3.371631 1_555
Ce3_2 Ce4_6 3.371631 1_455
Ce3_2 Mg4_0 3.378438 1_565
Ce3_2 Mg4_2 3.378438 1_555
Ce3_2 Mg3_1 3.602842 1_565
Ce3_2 Mg3_3 3.602842 1_555
Ce3_3 Ce5_1 3.217546 1_565
Ce3_3 Ce5_3 3.217546 1_555
Ce3_3 Ce5_5 3.217546 1_465
Ce3_3 Ce5_7 3.217546 1_455
Ce3_3 Ce4_3 3.371631 1_555
Ce3_3 Ce4_7 3.371631 1_455
Ce3_3 Mg4_3 3.378438 1_555
Ce3_3 Mg4_1 3.378438 1_565
Ce3_3 Mg3_0 3.602842 1_566
Ce3_3 Mg3_2 3.602842 1_556
Ce3_4 Ce3_6 3.214418 1_545
Ce3_4 Ce3_6 3.214418 1_555
Ce3_4 Ce5_6 3.217546 1_555
Ce3_4 Ce5_4 3.217546 1_555
Ce3_4 Ce5_2 3.217546 1_555
Ce3_4 Ce5_0 3.217546 1_555
Ce3_4 Ce4_4 3.371631 1_555
Ce3_4 Ce4_0 3.371631 1_555
Ce3_4 Mg4_4 3.378438 1_555
Ce3_4 Mg4_6 3.378438 1_555
Ce3_4 Mg3_7 3.602842 1_555
Ce3_4 Mg3_5 3.602842 1_555
Ce3_5 Ce3_7 3.214418 1_555
Ce3_5 Ce3_7 3.214418 1_545
Ce3_5 Ce5_7 3.217546 1_555
Ce3_5 Ce5_5 3.217546 1_555
Ce3_5 Ce5_1 3.217546 1_555
Ce3_5 Ce5_3 3.217546 1_555
Ce3_5 Ce4_5 3.371631 1_555
Ce3_5 Ce4_1 3.371631 1_555
Ce3_5 Mg4_5 3.378438 1_555
Ce3_5 Mg4_7 3.378438 1_555
Ce3_5 Mg3_6 3.602842 1_556
Ce3_5 Mg3_4 3.602842 1_556
Ce3_6 Ce5_4 3.217546 1_565
Ce3_6 Ce5_6 3.217546 1_555
Ce3_6 Ce5_2 3.217546 1_555
Ce3_6 Ce5_0 3.217546 1_565
Ce3_6 Ce4_6 3.371631 1_555
Ce3_6 Ce4_2 3.371631 1_555
Ce3_6 Mg4_4 3.378438 1_565
Ce3_6 Mg4_6 3.378438 1_555
Ce3_6 Mg3_5 3.602842 1_565
Ce3_6 Mg3_7 3.602842 1_555
Ce3_7 Ce5_7 3.217546 1_555
Ce3_7 Ce5_5 3.217546 1_565
Ce3_7 Ce5_1 3.217546 1_565
Ce3_7 Ce5_3 3.217546 1_555
Ce3_7 Ce4_7 3.371631 1_555
Ce3_7 Ce4_3 3.371631 1_555
Ce3_7 Mg4_5 3.378438 1_565
Ce3_7 Mg4_7 3.378438 1_555
Ce3_7 Mg3_6 3.602842 1_556
Ce3_7 Mg3_4 3.602842 1_566
Ce4_0 Ce5_2 3.186022 1_555
Ce4_0 Ce5_0 3.186022 1_555
Ce4_0 Ce4_2 3.214418 1_545
Ce4_0 Ce4_2 3.214418 1_555
Ce4_0 Mg3_3 3.355615 1_555
Ce4_0 Mg3_7 3.355615 1_555
Ce4_0 Mg3_1 3.355615 1_555
Ce4_0 Mg3_5 3.355615 1_555
Ce4_0 Mg2_3 3.458429 1_555
Ce4_0 Mg2_1 3.458429 1_555
Ce4_1 Ce5_3 3.186022 1_555
Ce4_1 Ce5_1 3.186022 1_555
Ce4_1 Ce4_3 3.214418 1_555
Ce4_1 Ce4_3 3.214418 1_545
Ce4_1 Mg3_0 3.355615 1_556
Ce4_1 Mg3_4 3.355615 1_556
Ce4_1 Mg3_2 3.355615 1_556
Ce4_1 Mg3_6 3.355615 1_556
Ce4_1 Mg2_0 3.458429 1_556
Ce4_1 Mg2_2 3.458429 1_556
Ce4_2 Ce5_2 3.186022 1_555
Ce4_2 Ce5_0 3.186022 1_565
Ce4_2 Mg3_1 3.355615 1_565
Ce4_2 Mg3_3 3.355615 1_555
Ce4_2 Mg3_5 3.355615 1_565
Ce4_2 Mg3_7 3.355615 1_555
Ce4_2 Mg2_3 3.458429 1_555
Ce4_2 Mg2_1 3.458429 1_565
Ce4_3 Ce5_1 3.186022 1_565
Ce4_3 Ce5_3 3.186022 1_555
Ce4_3 Mg3_0 3.355615 1_566
Ce4_3 Mg3_2 3.355615 1_556
Ce4_3 Mg3_6 3.355615 1_556
Ce4_3 Mg3_4 3.355615 1_566
Ce4_3 Mg2_2 3.458429 1_556
Ce4_3 Mg2_0 3.458429 1_566
Ce4_4 Ce5_4 3.186022 1_555
Ce4_4 Ce5_6 3.186022 1_555
Ce4_4 Ce4_6 3.214418 1_545
Ce4_4 Ce4_6 3.214418 1_555
Ce4_4 Mg3_7 3.355615 1_555
Ce4_4 Mg3_5 3.355615 1_555
Ce4_4 Mg3_3 3.355615 1_655
Ce4_4 Mg3_1 3.355615 1_655
Ce4_4 Mg2_7 3.458429 1_555
Ce4_4 Mg2_5 3.458429 1_555
Ce4_5 Ce5_5 3.186022 1_555
Ce4_5 Ce5_7 3.186022 1_555
Ce4_5 Ce4_7 3.214418 1_555
Ce4_5 Ce4_7 3.214418 1_545
Ce4_5 Mg3_6 3.355615 1_556
Ce4_5 Mg3_4 3.355615 1_556
Ce4_5 Mg3_2 3.355615 1_656
Ce4_5 Mg3_0 3.355615 1_656
Ce4_5 Mg2_4 3.458429 1_556
Ce4_5 Mg2_6 3.458429 1_556
Ce4_6 Ce5_6 3.186022 1_555
Ce4_6 Ce5_4 3.186022 1_565
Ce4_6 Mg3_5 3.355615 1_565
Ce4_6 Mg3_7 3.355615 1_555
Ce4_6 Mg3_1 3.355615 1_665
Ce4_6 Mg3_3 3.355615 1_655
Ce4_6 Mg2_7 3.458429 1_555
Ce4_6 Mg2_5 3.458429 1_565
Ce4_7 Ce5_5 3.186022 1_565
Ce4_7 Ce5_7 3.186022 1_555
Ce4_7 Mg3_6 3.355615 1_556
Ce4_7 Mg3_4 3.355615 1_566
Ce4_7 Mg3_2 3.355615 1_656
Ce4_7 Mg3_0 3.355615 1_666
Ce4_7 Mg2_4 3.458429 1_566
Ce4_7 Mg2_6 3.458429 1_556
Ce5_0 Ce5_2 3.214418 1_545
Ce5_0 Ce5_2 3.214418 1_555
Ce5_0 Mg4_0 3.508921 1_555
Ce5_0 Mg4_4 3.508921 1_555
Ce5_0 Mg5_0 3.524824 1_555
Ce5_0 Mg5_2 3.524824 1_545
Ce5_1 Ce5_3 3.214418 1_545
Ce5_1 Ce5_3 3.214418 1_555
Ce5_1 Mg4_1 3.508921 1_555
Ce5_1 Mg4_5 3.508921 1_555
Ce5_1 Mg5_3 3.524824 1_545
Ce5_1 Mg5_1 3.524824 1_555
Ce5_2 Mg4_6 3.508921 1_555
Ce5_2 Mg4_2 3.508921 1_555
Ce5_2 Mg5_0 3.524824 1_555
Ce5_2 Mg5_2 3.524824 1_555
Ce5_3 Mg4_3 3.508921 1_555
Ce5_3 Mg4_7 3.508921 1_555
Ce5_3 Mg5_1 3.524824 1_555
Ce5_3 Mg5_3 3.524824 1_555
Ce5_4 Ce5_6 3.214418 1_555
Ce5_4 Ce5_6 3.214418 1_545
Ce5_4 Mg4_4 3.508921 1_555
Ce5_4 Mg4_0 3.508921 1_655
Ce5_4 Mg5_6 3.524824 1_545
Ce5_4 Mg5_4 3.524824 1_555
Ce5_5 Ce5_7 3.214418 1_555
Ce5_5 Ce5_7 3.214418 1_545
Ce5_5 Mg4_5 3.508921 1_555
Ce5_5 Mg4_1 3.508921 1_655
Ce5_5 Mg5_7 3.524824 1_545
Ce5_5 Mg5_5 3.524824 1_555
Ce5_6 Mg4_6 3.508921 1_555
Ce5_6 Mg4_2 3.508921 1_655
Ce5_6 Mg5_6 3.524824 1_555
Ce5_6 Mg5_4 3.524824 1_555
Ce5_7 Mg4_7 3.508921 1_555
Ce5_7 Mg4_3 3.508921 1_655
Ce5_7 Mg5_5 3.524824 1_555
Ce5_7 Mg5_7 3.524824 1_555
Mg0_0 Mg4_2 3.188805 1_555
Mg0_0 Mg4_0 3.188805 1_555
Mg0_0 Mg0_2 3.214418 1_555
Mg0_0 Mg0_2 3.214418 1_545
Mg0_0 Mg5_0 3.276556 1_555
Mg0_0 Mg5_4 3.276556 1_455
Mg0_1 Mg4_3 3.188805 1_555
Mg0_1 Mg4_1 3.188805 1_555
Mg0_1 Mg0_3 3.214418 1_555
Mg0_1 Mg0_3 3.214418 1_545
Mg0_1 Mg5_1 3.276556 1_555
Mg0_1 Mg5_5 3.276556 1_455
Mg0_2 Mg4_0 3.188805 1_565
Mg0_2 Mg4_2 3.188805 1_555
Mg0_2 Mg5_2 3.276556 1_555
Mg0_2 Mg5_6 3.276556 1_455
Mg0_3 Mg4_1 3.188805 1_565
Mg0_3 Mg4_3 3.188805 1_555
Mg0_3 Mg5_3 3.276556 1_555
Mg0_3 Mg5_7 3.276556 1_455
Mg0_4 Mg4_4 3.188805 1_555
Mg0_4 Mg4_6 3.188805 1_555
Mg0_4 Mg0_6 3.214418 1_545
Mg0_4 Mg0_6 3.214418 1_555
Mg0_4 Mg5_4 3.276556 1_555
Mg0_4 Mg5_0 3.276556 1_555
Mg0_5 Mg4_5 3.188805 1_555
Mg0_5 Mg4_7 3.188805 1_555
Mg0_5 Mg0_7 3.214418 1_545
Mg0_5 Mg0_7 3.214418 1_555
Mg0_5 Mg5_5 3.276556 1_555
Mg0_5 Mg5_1 3.276556 1_555
Mg0_6 Mg4_4 3.188805 1_565
Mg0_6 Mg4_6 3.188805 1_555
Mg0_6 Mg5_6 3.276556 1_555
Mg0_6 Mg5_2 3.276556 1_555
Mg0_7 Mg4_7 3.188805 1_555
Mg0_7 Mg4_5 3.188805 1_565
Mg0_7 Mg5_7 3.276556 1_555
Mg0_7 Mg5_3 3.276556 1_555
Mg1_0 Mg3_0 3.188805 1_555
Mg1_0 Mg3_2 3.188805 1_555
Mg1_0 Mg1_2 3.214418 1_545
Mg1_0 Mg1_2 3.214418 1_555
Mg1_0 Mg2_0 3.258628 1_555
Mg1_0 Mg2_2 3.258628 1_555
Mg1_0 Mg2_6 3.258628 1_455
Mg1_0 Mg2_4 3.258628 1_455
Mg1_1 Mg3_3 3.188805 1_555
Mg1_1 Mg3_1 3.188805 1_555
Mg1_1 Mg1_3 3.214418 1_555
Mg1_1 Mg1_3 3.214418 1_545
Mg1_1 Mg2_1 3.258628 1_555
Mg1_1 Mg2_3 3.258628 1_555
Mg1_1 Mg2_7 3.258628 1_455
Mg1_1 Mg2_5 3.258628 1_455
Mg1_2 Mg3_2 3.188805 1_555
Mg1_2 Mg3_0 3.188805 1_565
Mg1_2 Mg2_0 3.258628 1_565
Mg1_2 Mg2_2 3.258628 1_555
Mg1_2 Mg2_4 3.258628 1_465
Mg1_2 Mg2_6 3.258628 1_455
Mg1_3 Mg3_1 3.188805 1_565
Mg1_3 Mg3_3 3.188805 1_555
Mg1_3 Mg2_1 3.258628 1_565
Mg1_3 Mg2_3 3.258628 1_555
Mg1_3 Mg2_7 3.258628 1_455
Mg1_3 Mg2_5 3.258628 1_465
Mg1_4 Mg3_4 3.188805 1_555
Mg1_4 Mg3_6 3.188805 1_555
Mg1_4 Mg1_6 3.214418 1_545
Mg1_4 Mg1_6 3.214418 1_555
Mg1_4 Mg2_6 3.258628 1_555
Mg1_4 Mg2_4 3.258628 1_555
Mg1_4 Mg2_0 3.258628 1_555
Mg1_4 Mg2_2 3.258628 1_555
Mg1_5 Mg3_5 3.188805 1_555
Mg1_5 Mg3_7 3.188805 1_555
Mg1_5 Mg1_7 3.214418 1_555
Mg1_5 Mg1_7 3.214418 1_545
Mg1_5 Mg2_5 3.258628 1_555
Mg1_5 Mg2_7 3.258628 1_555
Mg1_5 Mg2_1 3.258628 1_555
Mg1_5 Mg2_3 3.258628 1_555
Mg1_6 Mg3_4 3.188805 1_565
Mg1_6 Mg3_6 3.188805 1_555
Mg1_6 Mg2_6 3.258628 1_555
Mg1_6 Mg2_4 3.258628 1_565
Mg1_6 Mg2_0 3.258628 1_565
Mg1_6 Mg2_2 3.258628 1_555
Mg1_7 Mg3_5 3.188805 1_565
Mg1_7 Mg3_7 3.188805 1_555
Mg1_7 Mg2_5 3.258628 1_565
Mg1_7 Mg2_7 3.258628 1_555
Mg1_7 Mg2_1 3.258628 1_565
Mg1_7 Mg2_3 3.258628 1_555
Mg2_0 Mg2_2 3.214418 1_545
Mg2_0 Mg2_2 3.214418 1_555
Mg2_0 Mg3_4 3.276556 1_555
Mg2_0 Mg3_0 3.276556 1_555
Mg2_1 Mg2_3 3.214418 1_555
Mg2_1 Mg2_3 3.214418 1_545
Mg2_1 Mg3_5 3.276556 1_555
Mg2_1 Mg3_1 3.276556 1_555
Mg2_2 Mg3_2 3.276556 1_555
Mg2_2 Mg3_6 3.276556 1_555
Mg2_3 Mg3_3 3.276556 1_555
Mg2_3 Mg3_7 3.276556 1_555
Mg2_4 Mg2_6 3.214418 1_555
Mg2_4 Mg2_6 3.214418 1_545
Mg2_4 Mg3_4 3.276556 1_555
Mg2_4 Mg3_0 3.276556 1_655
Mg2_5 Mg2_7 3.214418 1_555
Mg2_5 Mg2_7 3.214418 1_545
Mg2_5 Mg3_5 3.276556 1_555
Mg2_5 Mg3_1 3.276556 1_655
Mg2_6 Mg3_6 3.276556 1_555
Mg2_6 Mg3_2 3.276556 1_655
Mg2_7 Mg3_7 3.276556 1_555
Mg2_7 Mg3_3 3.276556 1_655
Mg3_0 Mg3_2 3.214418 1_555
Mg3_0 Mg3_2 3.214418 1_545
Mg3_1 Mg3_3 3.214418 1_555
Mg3_1 Mg3_3 3.214418 1_545
Mg3_4 Mg3_6 3.214418 1_555
Mg3_4 Mg3_6 3.214418 1_545
Mg3_5 Mg3_7 3.214418 1_555
Mg3_5 Mg3_7 3.214418 1_545
Mg4_0 Mg4_2 3.214418 1_545
Mg4_0 Mg4_2 3.214418 1_555
Mg4_0 Mg5_0 3.258628 1_555
Mg4_0 Mg5_2 3.258628 1_545
Mg4_0 Mg5_4 3.258628 1_455
Mg4_0 Mg5_6 3.258628 1_445
Mg4_1 Mg4_3 3.214418 1_555
Mg4_1 Mg4_3 3.214418 1_545
Mg4_1 Mg5_3 3.258628 1_545
Mg4_1 Mg5_1 3.258628 1_555
Mg4_1 Mg5_5 3.258628 1_455
Mg4_1 Mg5_7 3.258628 1_445
Mg4_2 Mg5_2 3.258628 1_555
Mg4_2 Mg5_0 3.258628 1_555
Mg4_2 Mg5_4 3.258628 1_455
Mg4_2 Mg5_6 3.258628 1_455
Mg4_3 Mg5_3 3.258628 1_555
Mg4_3 Mg5_1 3.258628 1_555
Mg4_3 Mg5_5 3.258628 1_455
Mg4_3 Mg5_7 3.258628 1_455
Mg4_4 Mg4_6 3.214418 1_555
Mg4_4 Mg4_6 3.214418 1_545
Mg4_4 Mg5_4 3.258628 1_555
Mg4_4 Mg5_6 3.258628 1_545
Mg4_4 Mg5_0 3.258628 1_555
Mg4_4 Mg5_2 3.258628 1_545
Mg4_5 Mg4_7 3.214418 1_545
Mg4_5 Mg4_7 3.214418 1_555
Mg4_5 Mg5_7 3.258628 1_545
Mg4_5 Mg5_5 3.258628 1_555
Mg4_5 Mg5_3 3.258628 1_545
Mg4_5 Mg5_1 3.258628 1_555
Mg4_6 Mg5_4 3.258628 1_555
Mg4_6 Mg5_6 3.258628 1_555
Mg4_6 Mg5_2 3.258628 1_555
Mg4_6 Mg5_0 3.258628 1_555
Mg4_7 Mg5_7 3.258628 1_555
Mg4_7 Mg5_5 3.258628 1_555
Mg4_7 Mg5_3 3.258628 1_555
Mg4_7 Mg5_1 3.258628 1_555
Mg5_0 Mg5_2 3.214418 1_555
Mg5_0 Mg5_2 3.214418 1_545
Mg5_1 Mg5_3 3.214418 1_555
Mg5_1 Mg5_3 3.214418 1_545
Mg5_4 Mg5_6 3.214418 1_555
Mg5_4 Mg5_6 3.214418 1_545
Mg5_5 Mg5_7 3.214418 1_545
Mg5_5 Mg5_7 3.214418 1_555
