# generated using pymatgen
data_Li3Ni(OF)2
_symmetry_space_group_name_H-M   'P 1'
_cell_length_a   5.01802961
_cell_length_b   7.75193230
_cell_length_c   7.75902372
_cell_angle_alpha   98.79355734
_cell_angle_beta   101.53227241
_cell_angle_gamma   101.49948608
_symmetry_Int_Tables_number   1
_chemical_formula_structural   Li3Ni(OF)2
_chemical_formula_sum   'Li12 Ni4 O8 F8'
_cell_volume   283.89385430
_cell_formula_units_Z   4
loop_
 _symmetry_equiv_pos_site_id
 _symmetry_equiv_pos_as_xyz
  1  'x, y, z'
loop_
 _atom_site_type_symbol
 _atom_site_label
 _atom_site_symmetry_multiplicity
 _atom_site_fract_x
 _atom_site_fract_y
 _atom_site_fract_z
 _atom_site_occupancy
  Li  Li0  1  0.25724200  0.30513200  0.18759700  1
  Li  Li1  1  0.24376000  0.81211600  0.69590200  1
  Li  Li2  1  0.75655100  0.68816100  0.80461200  1
  Li  Li3  1  0.74299200  0.19492800  0.31271400  1
  Li  Li4  1  0.25049300  0.56840800  0.92997400  1
  Li  Li5  1  0.25081500  0.06977700  0.43303200  1
  Li  Li6  1  0.74955600  0.43020500  0.06734100  1
  Li  Li7  1  0.75015800  0.93194500  0.56999800  1
  Li  Li8  1  0.24947600  0.18383300  0.81525000  1
  Li  Li9  1  0.24998000  0.68677300  0.31351200  1
  Li  Li10  1  0.75023500  0.31597400  0.68440500  1
  Li  Li11  1  0.74915400  0.81322900  0.18613900  1
  Ni  Ni0  1  0.25042500  0.94552200  0.05345700  1
  Ni  Ni1  1  0.74980000  0.55393300  0.44607100  1
  Ni  Ni2  1  0.24904500  0.45056600  0.54843500  1
  Ni  Ni3  1  0.75263100  0.05072800  0.95223300  1
  O  O0  1  0.01226500  0.55583600  0.67454400  1
  O  O1  1  0.01355400  0.05529300  0.17195700  1
  O  O2  1  0.48493300  0.82717700  0.94542900  1
  O  O3  1  0.48701700  0.32485800  0.44382100  1
  O  O4  1  0.51206700  0.17418800  0.05589700  1
  O  O5  1  0.51421900  0.67241900  0.55473200  1
  O  O6  1  0.98533600  0.44483000  0.32749700  1
  O  O7  1  0.98737300  0.94371200  0.82463900  1
  F  F0  1  0.00651900  0.68896900  0.06442400  1
  F  F1  1  0.00068200  0.18361100  0.56149600  1
  F  F2  1  0.50675200  0.56400400  0.18911200  1
  F  F3  1  0.50172000  0.06210400  0.68406900  1
  F  F4  1  0.49903900  0.43805200  0.81606800  1
  F  F5  1  0.49303000  0.93591000  0.31143900  1
  F  F6  1  0.99987300  0.31651900  0.93852600  1
  F  F7  1  0.99330900  0.81128700  0.43567500  1
loop_
_geom_bond_atom_site_label_1
_geom_bond_atom_site_label_2
_geom_bond_distance
_geom_bond_site_symmetry_2
Li0 O1 2.045852 1_555
Li0 O3 2.055574 1_555
Li0 O4 2.105361 1_555
Li0 O6 2.243795 1_455
Li1 O2 2.040679 1_555
Li1 O0 2.055707 1_555
Li1 O7 2.102192 1_455
Li1 O5 2.243240 1_555
Li2 O5 2.044129 1_555
Li2 O7 2.051632 1_555
Li2 O0 2.107922 1_655
Li2 O2 2.243638 1_555
Li3 O6 2.044954 1_555
Li3 O4 2.060049 1_555
Li3 O3 2.103386 1_555
Li3 O1 2.241684 1_655
Li4 O0 2.076927 1_555
Li4 O2 2.085991 1_555
Li5 O3 2.072944 1_555
Li5 O1 2.108637 1_555
Li6 O4 2.080295 1_555
Li6 O6 2.099737 1_555
Li7 O7 2.071267 1_555
Li7 O5 2.093938 1_555
Li8 O7 2.074515 1_445
Li8 O4 2.080022 1_556
Li9 O5 2.098516 1_555
Li9 O6 2.102307 1_455
Li10 O0 2.073886 1_655
Li10 O3 2.079336 1_555
Li11 O2 2.094424 1_554
Li11 O1 2.102946 1_665
Ni0 O2 1.875819 1_554
Ni0 O1 1.892973 1_565
Ni0 O4 1.979425 1_565
Ni0 O7 1.985604 1_454
Ni1 O5 1.883245 1_555
Ni1 O6 1.885242 1_555
Ni1 O0 1.981953 1_655
Ni1 O3 1.984991 1_555
Ni2 O0 1.908513 1_555
Ni2 O3 1.908970 1_555
Ni2 O6 1.933391 1_455
Ni2 O5 1.940764 1_555
Ni3 O4 1.906210 1_556
Ni3 O7 1.913285 1_545
Ni3 O1 1.921621 1_656
Ni3 O2 1.955992 1_545
F0 Li4 2.032071 1_554
F0 Li11 2.047718 1_455
F0 Li9 2.074211 1_555
F0 Ni0 2.140875 1_555
F0 Li2 2.149230 1_454
F0 Li6 2.163599 1_455
F1 Li5 2.005146 1_555
F1 Li10 2.058125 1_455
F1 Li8 2.109602 1_555
F1 Li7 2.117871 1_445
F1 Li3 2.122464 1_455
F1 Ni2 2.220876 1_555
F2 Li6 2.029162 1_555
F2 Li9 2.050104 1_555
F2 Li11 2.073763 1_555
F2 Li0 2.140080 1_555
F2 Ni1 2.140540 1_555
F2 Li4 2.168451 1_554
F3 Li7 2.006308 1_545
F3 Li8 2.055800 1_555
F3 Li10 2.108724 1_555
F3 Li5 2.113622 1_555
F3 Li1 2.131005 1_545
F3 Ni3 2.230520 1_555
F4 Li4 2.006977 1_555
F4 Li10 2.054987 1_555
F4 Li8 2.112093 1_555
F4 Li6 2.114678 1_556
F4 Li2 2.129889 1_555
F4 Ni2 2.227958 1_555
F5 Li5 2.026406 1_565
F5 Li11 2.050783 1_555
F5 Li9 2.072638 1_555
F5 Li3 2.142385 1_565
F5 Ni0 2.145178 1_555
F5 Li7 2.165672 1_555
F6 Li6 2.006849 1_556
F6 Li8 2.057556 1_655
F6 Li10 2.112990 1_555
F6 Li4 2.119581 1_655
F6 Li0 2.123708 1_656
F6 Ni3 2.212762 1_555
F7 Li7 2.028604 1_555
F7 Li9 2.047705 1_655
F7 Li11 2.077926 1_555
F7 Ni1 2.143888 1_555
F7 Li1 2.152790 1_655
F7 Li5 2.162432 1_665
