# generated using pymatgen
data_Mg(SnO2)2
_symmetry_space_group_name_H-M   'P 1'
_cell_length_a   6.52467126
_cell_length_b   6.52467126
_cell_length_c   6.52467126
_cell_angle_alpha   121.65807491
_cell_angle_beta   114.77102538
_cell_angle_gamma   93.21931525
_symmetry_Int_Tables_number   1
_chemical_formula_structural   Mg(SnO2)2
_chemical_formula_sum   'Mg2 Sn4 O8'
_cell_volume   200.51509706
_cell_formula_units_Z   2
loop_
 _symmetry_equiv_pos_site_id
 _symmetry_equiv_pos_as_xyz
  1  'x, y, z'
loop_
 _atom_site_type_symbol
 _atom_site_label
 _atom_site_symmetry_multiplicity
 _atom_site_fract_x
 _atom_site_fract_y
 _atom_site_fract_z
 _atom_site_occupancy
  Mg  Mg0  1  0.00000000  0.50000000  0.50000000  1
  Mg  Mg1  1  0.50000000  0.50000000  0.00000000  1
  Sn  Sn0  1  0.11468200  0.86468200  0.25000000  1
  Sn  Sn1  1  0.88531800  0.13531800  0.75000000  1
  Sn  Sn2  1  0.50000000  0.00000000  0.00000000  1
  Sn  Sn3  1  0.50000000  0.50000000  0.50000000  1
  O  O0  1  0.73393100  0.25651400  0.02258300  1
  O  O1  1  0.71300300  0.26488700  0.44811600  1
  O  O2  1  0.73393100  0.71134800  0.47741700  1
  O  O3  1  0.31677000  0.26488700  0.05188400  1
  O  O4  1  0.68323000  0.73511300  0.94811600  1
  O  O5  1  0.28699700  0.73511300  0.55188400  1
  O  O6  1  0.26606900  0.28865200  0.52258300  1
  O  O7  1  0.26606900  0.74348600  0.97741700  1
loop_
_geom_bond_atom_site_label_1
_geom_bond_atom_site_label_2
_geom_bond_distance
_geom_bond_site_symmetry_2
Mg0 O1 2.139015 1_455
Mg0 O5 2.139015 1_555
Mg0 O0 2.281411 1_455
Mg0 O7 2.281411 1_555
Mg0 O2 2.281411 1_455
Mg0 O6 2.281411 1_555
Mg1 O3 2.139019 1_555
Mg1 O4 2.139019 1_554
Mg1 O6 2.281411 1_554
Mg1 O2 2.281411 1_555
Mg1 O7 2.281411 1_554
Mg1 O0 2.281411 1_555
O0 Sn2 2.101974 1_555
O0 Sn1 2.201734 1_554
O1 Sn2 2.118472 1_555
O1 Sn3 2.118472 1_555
O1 Sn1 2.420201 1_555
O2 Sn3 2.101974 1_555
O2 Sn1 2.201734 1_565
O3 Sn3 2.118471 1_555
O3 Sn2 2.118476 1_555
O3 Sn1 2.420196 1_454
O4 Sn3 2.118471 1_555
O4 Sn2 2.118476 1_566
O4 Sn0 2.420196 1_656
O5 Sn3 2.118472 1_555
O5 Sn2 2.118472 1_566
O5 Sn0 2.420201 1_555
O6 Sn3 2.101974 1_555
O6 Sn0 2.201734 1_545
O7 Sn2 2.101974 1_566
O7 Sn0 2.201734 1_556
