# generated using pymatgen
data_C3N
_symmetry_space_group_name_H-M   'P 1'
_cell_length_a   7.42098000
_cell_length_b   7.42098000
_cell_length_c   6.09131900
_cell_angle_alpha   90.00000000
_cell_angle_beta   90.00000000
_cell_angle_gamma   90.00000000
_symmetry_Int_Tables_number   1
_chemical_formula_structural   C3N
_chemical_formula_sum   'C24 N8'
_cell_volume   335.45468851
_cell_formula_units_Z   8
loop_
 _symmetry_equiv_pos_site_id
 _symmetry_equiv_pos_as_xyz
  1  'x, y, z'
loop_
 _atom_site_type_symbol
 _atom_site_label
 _atom_site_symmetry_multiplicity
 _atom_site_fract_x
 _atom_site_fract_y
 _atom_site_fract_z
 _atom_site_occupancy
  C  C0  1  0.31267500  0.50000000  0.50000000  1
  C  C1  1  0.68732500  0.50000000  0.50000000  1
  C  C2  1  0.50000000  0.68732500  0.50000000  1
  C  C3  1  0.50000000  0.31267500  0.50000000  1
  C  C4  1  0.00000000  0.50000000  0.70338500  1
  C  C5  1  0.50000000  0.00000000  0.70338500  1
  C  C6  1  0.00000000  0.50000000  0.29661500  1
  C  C7  1  0.50000000  0.00000000  0.29661500  1
  C  C8  1  0.21063000  0.00000000  0.00000000  1
  C  C9  1  0.78937000  0.00000000  0.00000000  1
  C  C10  1  0.00000000  0.78937000  0.00000000  1
  C  C11  1  0.00000000  0.21063000  0.00000000  1
  C  C12  1  0.27269200  0.50000000  0.00000000  1
  C  C13  1  0.72730800  0.50000000  0.00000000  1
  C  C14  1  0.50000000  0.72730800  0.00000000  1
  C  C15  1  0.50000000  0.27269200  0.00000000  1
  C  C16  1  0.20571500  0.20571500  0.88284000  1
  C  C17  1  0.79428500  0.79428500  0.88284000  1
  C  C18  1  0.20571500  0.79428500  0.88284000  1
  C  C19  1  0.79428500  0.20571500  0.88284000  1
  C  C20  1  0.79428500  0.79428500  0.11716000  1
  C  C21  1  0.20571500  0.20571500  0.11716000  1
  C  C22  1  0.79428500  0.20571500  0.11716000  1
  C  C23  1  0.20571500  0.79428500  0.11716000  1
  N  N0  1  0.00000000  0.00000000  0.00000000  1
  N  N1  1  0.00000000  0.00000000  0.50000000  1
  N  N2  1  0.50000000  0.50000000  0.00000000  1
  N  N3  1  0.50000000  0.50000000  0.50000000  1
  N  N4  1  0.00000000  0.50000000  0.50000000  1
  N  N5  1  0.50000000  0.00000000  0.50000000  1
  N  N6  1  0.00000000  0.50000000  0.00000000  1
  N  N7  1  0.50000000  0.00000000  0.00000000  1
loop_
_geom_bond_atom_site_label_1
_geom_bond_atom_site_label_2
_geom_bond_distance
_geom_bond_site_symmetry_2
C0 N3 1.390135 1_555
C1 N3 1.390135 1_555
C2 N3 1.390135 1_555
C3 N3 1.390135 1_555
C4 N4 1.238883 1_555
C4 N6 1.806777 1_556
C5 N5 1.238883 1_555
C5 N7 1.806777 1_556
C6 N4 1.238883 1_555
C6 N6 1.806777 1_555
C7 N5 1.238883 1_555
C7 N7 1.806777 1_555
C8 N0 1.563081 1_555
C8 N7 2.147409 1_555
C9 N0 1.563081 1_655
C9 N7 2.147409 1_555
C10 N0 1.563081 1_565
C10 C18 1.685576 1_554
C10 C23 1.685576 1_555
C10 C17 1.685576 1_454
C10 C20 1.685576 1_455
C10 N6 2.147409 1_555
C11 N0 1.563081 1_555
C11 C16 1.685576 1_554
C11 C21 1.685576 1_555
C11 C19 1.685576 1_454
C11 C22 1.685576 1_455
C11 N6 2.147409 1_555
C12 N2 1.686848 1_555
C12 N6 2.023642 1_555
C13 N2 1.686848 1_555
C13 N6 2.023642 1_655
C14 N2 1.686848 1_555
C14 N7 2.023642 1_565
C15 N2 1.686848 1_555
C15 N7 2.023642 1_555
C16 C21 1.427318 1_556
C16 C8 1.685576 1_556
C17 C20 1.427318 1_556
C17 C9 1.685576 1_566
C18 C23 1.427318 1_556
C18 C8 1.685576 1_566
C19 C22 1.427318 1_556
C19 C9 1.685576 1_556
C20 C9 1.685576 1_565
C21 C8 1.685576 1_555
C22 C9 1.685576 1_555
C23 C8 1.685576 1_565
