# generated using pymatgen
data_BaEuFeCuO5
_symmetry_space_group_name_H-M   'P 1'
_cell_length_a   3.93039000
_cell_length_b   3.93039000
_cell_length_c   7.88102200
_cell_angle_alpha   90.00000000
_cell_angle_beta   90.00000000
_cell_angle_gamma   90.00000000
_symmetry_Int_Tables_number   1
_chemical_formula_structural   BaEuFeCuO5
_chemical_formula_sum   'Ba1 Eu1 Fe1 Cu1 O5'
_cell_volume   121.74575637
_cell_formula_units_Z   1
loop_
 _symmetry_equiv_pos_site_id
 _symmetry_equiv_pos_as_xyz
  1  'x, y, z'
loop_
 _atom_site_type_symbol
 _atom_site_label
 _atom_site_symmetry_multiplicity
 _atom_site_fract_x
 _atom_site_fract_y
 _atom_site_fract_z
 _atom_site_occupancy
  Ba  Ba0  1  0.00000000  0.00000000  0.02456100  1
  Eu  Eu0  1  0.00000000  0.00000000  0.49943200  1
  Fe  Fe0  1  0.50000000  0.50000000  0.74876500  1
  Cu  Cu0  1  0.50000000  0.50000000  0.27655500  1
  O  O0  1  0.00000000  0.50000000  0.68799400  1
  O  O1  1  0.50000000  0.00000000  0.68799400  1
  O  O2  1  0.00000000  0.50000000  0.30437100  1
  O  O3  1  0.50000000  0.00000000  0.30437100  1
  O  O4  1  0.50000000  0.50000000  0.98495600  1
loop_
_geom_bond_atom_site_label_1
_geom_bond_atom_site_label_2
_geom_bond_distance
_geom_bond_site_symmetry_2
Ba0 O4 2.796678 1_444
Ba0 O4 2.796678 1_544
Ba0 O4 2.796678 1_554
Ba0 O4 2.796678 1_454
Ba0 O2 2.953786 1_545
Ba0 O2 2.953786 1_555
Ba0 O3 2.953786 1_555
Ba0 O3 2.953786 1_455
Ba0 O0 3.301167 1_544
Ba0 O0 3.301167 1_554
Ba0 O1 3.301167 1_554
Ba0 O1 3.301167 1_454
Eu0 O1 2.463812 1_555
Eu0 O0 2.463812 1_545
Eu0 O0 2.463812 1_555
Eu0 O1 2.463812 1_455
Eu0 O3 2.495039 1_555
Eu0 O3 2.495039 1_455
Eu0 O2 2.495039 1_545
Eu0 O2 2.495039 1_555
Fe0 O4 1.861426 1_555
Fe0 O1 2.022714 1_555
Fe0 O1 2.022714 1_565
Fe0 O0 2.022714 1_555
Fe0 O0 2.022714 1_655
Cu0 O2 1.977384 1_655
Cu0 O3 1.977384 1_555
Cu0 O2 1.977384 1_555
Cu0 O3 1.977384 1_565
Cu0 O4 2.298098 1_554
