# generated using pymatgen
data_Mg14MnGa
_symmetry_space_group_name_H-M   'P 1'
_cell_length_a   6.27992323
_cell_length_b   6.27142361
_cell_length_c   10.21048065
_cell_angle_alpha   90.00000000
_cell_angle_beta   90.00000000
_cell_angle_gamma   119.95524328
_symmetry_Int_Tables_number   1
_chemical_formula_structural   Mg14MnGa
_chemical_formula_sum   'Mg14 Mn1 Ga1'
_cell_volume   348.41189905
_cell_formula_units_Z   1
loop_
 _symmetry_equiv_pos_site_id
 _symmetry_equiv_pos_as_xyz
  1  'x, y, z'
loop_
 _atom_site_type_symbol
 _atom_site_label
 _atom_site_symmetry_multiplicity
 _atom_site_fract_x
 _atom_site_fract_y
 _atom_site_fract_z
 _atom_site_occupancy
  Mg  Mg0  1  0.16824175  0.33412037  0.62500000  1
  Mg  Mg1  1  0.16758240  0.83379070  0.62500000  1
  Mg  Mg2  1  0.66979595  0.33393086  0.12500000  1
  Mg  Mg3  1  0.66553523  0.33323249  0.62500000  1
  Mg  Mg4  1  0.66979595  0.83586409  0.12500000  1
  Mg  Mg5  1  0.66553523  0.83230174  0.62500000  1
  Mg  Mg6  1  0.32892758  0.16552674  0.36476970  1
  Mg  Mg7  1  0.32892758  0.16552674  0.88523030  1
  Mg  Mg8  1  0.32892758  0.66340184  0.36476970  1
  Mg  Mg9  1  0.32892758  0.66340184  0.88523030  1
  Mg  Mg10  1  0.83808113  0.16904106  0.37065578  1
  Mg  Mg11  1  0.83808113  0.16904106  0.87934422  1
  Mg  Mg12  1  0.83682050  0.66841075  0.37168970  1
  Mg  Mg13  1  0.83682050  0.66841075  0.87831030  1
  Mn  Mn0  1  0.16247158  0.33123529  0.12500000  1
  Ga  Ga0  1  0.16552833  0.83276367  0.12500000  1
loop_
_geom_bond_atom_site_label_1
_geom_bond_atom_site_label_2
_geom_bond_distance
_geom_bond_site_symmetry_2
Mg0 Mg5 3.125749 1_555
Mg0 Mg3 3.125749 1_555
Mg0 Mg1 3.135714 1_545
Mg0 Mg1 3.135714 1_555
Mg0 Mg5 3.154181 1_445
Mg0 Mg3 3.154182 1_455
Mg0 Mg11 3.157750 1_455
Mg0 Mg10 3.157750 1_455
Mg0 Mg7 3.203397 1_555
Mg0 Mg6 3.203397 1_555
Mg0 Mg9 3.203403 1_555
Mg0 Mg8 3.203403 1_555
Mg1 Mg3 3.131778 1_565
Mg1 Mg5 3.131779 1_555
Mg1 Mg3 3.148165 1_455
Mg1 Mg5 3.148165 1_455
Mg1 Mg13 3.150941 1_455
Mg1 Mg12 3.150941 1_455
Mg1 Mg9 3.210892 1_555
Mg1 Mg8 3.210892 1_555
Mg1 Mg7 3.210898 1_565
Mg1 Mg6 3.210898 1_565
Mg2 Mg6 3.071397 1_555
Mg2 Mg7 3.071397 1_554
Mg2 Mn0 3.102441 1_655
Mg2 Mg4 3.123588 1_545
Mg2 Mg4 3.147836 1_555
Mg2 Mn0 3.177551 1_555
Mg3 Mg5 3.129875 1_555
Mg3 Mg5 3.141549 1_545
Mg3 Mg7 3.227139 1_555
Mg3 Mg6 3.227139 1_555
Mg4 Mg8 3.071397 1_555
Mg4 Mg9 3.071397 1_554
Mg4 Mn0 3.102441 1_665
Mg4 Mn0 3.177551 1_555
Mg5 Mg9 3.227139 1_555
Mg5 Mg8 3.227139 1_555
Mg6 Mn0 3.041560 1_555
Mg6 Mg8 3.122386 1_555
Mg6 Mg8 3.149038 1_545
Mg7 Mn0 3.041560 1_556
Mg7 Mg9 3.122386 1_555
Mg7 Mg9 3.149038 1_545
Mg8 Mn0 3.041566 1_555
Mg9 Mn0 3.041566 1_556
Mg10 Mn0 3.067029 1_655
Mg10 Mg2 3.093375 1_555
Mg10 Mg4 3.093381 1_545
Mg10 Mg8 3.094125 1_655
Mg10 Mg6 3.094126 1_655
Mg10 Mg12 3.135737 1_545
Mg10 Mg12 3.135737 1_555
Mg10 Mg3 3.176948 1_555
Mg10 Mg5 3.176954 1_545
Mg10 Mg8 3.187064 1_545
Mg10 Mg6 3.187064 1_555
Mg11 Mn0 3.067029 1_656
Mg11 Mg2 3.093375 1_556
Mg11 Mg4 3.093381 1_546
Mg11 Mg9 3.094125 1_655
Mg11 Mg7 3.094126 1_655
Mg11 Mg13 3.135737 1_545
Mg11 Mg13 3.135737 1_555
Mg11 Mg3 3.176948 1_555
Mg11 Mg5 3.176954 1_545
Mg11 Mg9 3.187064 1_545
Mg11 Mg7 3.187064 1_555
Mg12 Mg4 3.106050 1_555
Mg12 Mg2 3.106056 1_555
Mg12 Mg6 3.107002 1_665
Mg12 Mg8 3.107003 1_655
Mg12 Mg5 3.163406 1_555
Mg12 Mg3 3.163413 1_555
Mg12 Mg6 3.174746 1_555
Mg12 Mg8 3.174746 1_555
Mg13 Mg4 3.106050 1_556
Mg13 Mg2 3.106056 1_556
Mg13 Mg7 3.107002 1_665
Mg13 Mg9 3.107003 1_655
Mg13 Mg5 3.163406 1_555
Mg13 Mg3 3.163413 1_555
Mg13 Mg7 3.174746 1_555
Mg13 Mg9 3.174746 1_555
Ga0 Mg8 3.043522 1_555
Ga0 Mg9 3.043522 1_554
Ga0 Mg6 3.043528 1_565
Ga0 Mg7 3.043528 1_564
Ga0 Mg12 3.089209 1_455
Ga0 Mg13 3.089209 1_454
Ga0 Mg2 3.122915 1_455
Ga0 Mg4 3.122916 1_455
Ga0 Mn0 3.135756 1_565
Ga0 Mn0 3.135756 1_555
Ga0 Mg2 3.157098 1_565
Ga0 Mg4 3.157098 1_555
