# generated using pymatgen
data_Li2Mn3NbO8
_symmetry_space_group_name_H-M   'P 1'
_cell_length_a   6.20568299
_cell_length_b   6.22544970
_cell_length_c   8.34837449
_cell_angle_alpha   88.82057626
_cell_angle_beta   90.67842821
_cell_angle_gamma   85.25219007
_symmetry_Int_Tables_number   1
_chemical_formula_structural   Li2Mn3NbO8
_chemical_formula_sum   'Li4 Mn6 Nb2 O16'
_cell_volume   321.31967251
_cell_formula_units_Z   2
loop_
 _symmetry_equiv_pos_site_id
 _symmetry_equiv_pos_as_xyz
  1  'x, y, z'
loop_
 _atom_site_type_symbol
 _atom_site_label
 _atom_site_symmetry_multiplicity
 _atom_site_fract_x
 _atom_site_fract_y
 _atom_site_fract_z
 _atom_site_occupancy
  Li  Li0  1  0.00847000  0.25732400  0.12627300  1
  Li  Li1  1  0.50982100  0.76963000  0.62533600  1
  Li  Li2  1  0.99021100  0.73029200  0.87471700  1
  Li  Li3  1  0.49149200  0.24272600  0.37373900  1
  Mn  Mn0  1  0.75004700  0.24992900  0.74978900  1
  Mn  Mn1  1  0.74981600  0.75007400  0.25006300  1
  Mn  Mn2  1  0.24994000  0.24986700  0.75012300  1
  Mn  Mn3  1  0.99159200  0.49124800  0.49888300  1
  Mn  Mn4  1  0.50878600  0.00887500  0.00109300  1
  Mn  Mn5  1  0.24987900  0.75001700  0.24995200  1
  Nb  Nb0  1  0.00632000  0.98792400  0.50716700  1
  Nb  Nb1  1  0.49388200  0.51208200  0.99285600  1
  O  O0  1  0.98528500  0.52520700  0.26827100  1
  O  O1  1  0.50302200  0.04005500  0.76670300  1
  O  O2  1  0.99701000  0.45988900  0.73324600  1
  O  O3  1  0.51450400  0.97493900  0.23172800  1
  O  O4  1  0.24222400  0.75824400  0.48843100  1
  O  O5  1  0.73878100  0.26970900  0.98168500  1
  O  O6  1  0.78514800  0.75575500  0.48945100  1
  O  O7  1  0.28677000  0.26076400  0.98680700  1
  O  O8  1  0.01839600  0.98459000  0.26333900  1
  O  O9  1  0.49534300  0.50462900  0.76095800  1
  O  O10  1  0.00459100  0.99535400  0.73906600  1
  O  O11  1  0.48135900  0.51546300  0.23671400  1
  O  O12  1  0.21329100  0.23916300  0.51327000  1
  O  O13  1  0.71492500  0.74436100  0.01062500  1
  O  O14  1  0.76130100  0.23025600  0.51807900  1
  O  O15  1  0.25779200  0.74163400  0.01163500  1
loop_
_geom_bond_atom_site_label_1
_geom_bond_atom_site_label_2
_geom_bond_distance
_geom_bond_site_symmetry_2
Li0 O8 2.024115 1_545
Li0 O5 2.047167 1_454
Li0 O0 2.062256 1_455
Li0 O7 2.095584 1_554
Li1 O9 1.990409 1_555
Li1 O4 2.011682 1_555
Li1 O6 2.058921 1_555
Li1 O1 2.073658 1_565
Li2 O10 1.990782 1_655
Li2 O15 2.011629 1_656
Li2 O13 2.058799 1_556
Li2 O2 2.074055 1_555
Li3 O11 2.023884 1_555
Li3 O14 2.046548 1_555
Li3 O3 2.061823 1_545
Li3 O12 2.095432 1_555
Mn0 O14 1.942505 1_555
Mn0 O5 1.944110 1_555
Mn0 O2 2.098940 1_555
Mn0 O1 2.099069 1_555
Mn0 O10 2.147023 1_645
Mn0 O9 2.148469 1_555
Mn1 O3 1.939843 1_555
Mn1 O0 1.940467 1_555
Mn1 O6 2.009265 1_555
Mn1 O13 2.009421 1_555
Mn1 O11 2.307850 1_555
Mn1 O8 2.307999 1_655
Mn2 O1 1.959511 1_555
Mn2 O2 1.959711 1_455
Mn2 O7 1.989602 1_555
Mn2 O12 1.990807 1_555
Mn2 O10 2.288942 1_545
Mn2 O9 2.290258 1_555
Mn3 O0 1.932058 1_555
Mn3 O2 1.961877 1_555
Mn3 O12 2.000245 1_655
Mn3 O6 2.000518 1_555
Mn3 O14 2.255457 1_555
Mn3 O4 2.369540 1_655
Mn4 O3 1.932242 1_545
Mn4 O1 1.962010 1_554
Mn4 O13 1.999483 1_545
Mn4 O7 2.000554 1_554
Mn4 O5 2.253537 1_554
Mn4 O15 2.372320 1_545
Mn5 O11 1.967508 1_555
Mn5 O8 1.967701 1_555
Mn5 O15 1.992397 1_555
Mn5 O4 1.993651 1_555
Mn5 O0 2.248507 1_455
Mn5 O3 2.249082 1_555
Nb0 O10 1.937619 1_555
Nb0 O4 1.969827 1_555
Nb0 O8 2.038302 1_555
Nb0 O14 2.055580 1_465
Nb0 O6 2.080178 1_455
Nb0 O12 2.105442 1_565
Nb1 O9 1.937592 1_555
Nb1 O15 1.970124 1_556
Nb1 O11 2.038695 1_556
Nb1 O5 2.055395 1_555
Nb1 O13 2.080153 1_556
Nb1 O7 2.106405 1_555
