# generated using pymatgen
data_Yb5P12Ru19
_symmetry_space_group_name_H-M   'P 1'
_cell_length_a   12.39401286
_cell_length_b   12.39401286
_cell_length_c   3.94704342
_cell_angle_alpha   90.00000000
_cell_angle_beta   90.00000000
_cell_angle_gamma   119.99999862
_symmetry_Int_Tables_number   1
_chemical_formula_structural   Yb5P12Ru19
_chemical_formula_sum   'Yb5 P12 Ru19'
_cell_volume   525.08114909
_cell_formula_units_Z   1
loop_
 _symmetry_equiv_pos_site_id
 _symmetry_equiv_pos_as_xyz
  1  'x, y, z'
loop_
 _atom_site_type_symbol
 _atom_site_label
 _atom_site_symmetry_multiplicity
 _atom_site_fract_x
 _atom_site_fract_y
 _atom_site_fract_z
 _atom_site_occupancy
  Yb  Yb0  1  1.00000000  0.18310651  0.50000000  1
  Yb  Yb1  1  0.81689349  0.81689349  0.50000000  1
  Yb  Yb2  1  0.18310651  1.00000000  0.50000000  1
  Yb  Yb3  1  0.66666700  0.33333300  0.00000000  1
  Yb  Yb4  1  0.33333300  0.66666700  0.00000000  1
  P  P0  1  1.00000000  0.81625147  0.00000000  1
  P  P1  1  0.18374853  0.18374853  0.00000000  1
  P  P2  1  0.81625147  1.00000000  0.00000000  1
  P  P3  1  0.69379173  0.17162223  0.50000000  1
  P  P4  1  0.82837777  0.52216950  0.50000000  1
  P  P5  1  0.47783050  0.30620827  0.50000000  1
  P  P6  1  0.17162223  0.69379173  0.50000000  1
  P  P7  1  0.52216950  0.82837777  0.50000000  1
  P  P8  1  0.30620827  0.47783050  0.50000000  1
  P  P9  1  0.00000000  0.37162488  0.00000000  1
  P  P10  1  0.62837512  0.62837512  0.00000000  1
  P  P11  1  0.37162488  0.00000000  0.00000000  1
  Ru  Ru0  1  1.00000000  0.55416941  0.00000000  1
  Ru  Ru1  1  0.44583059  0.44583059  0.00000000  1
  Ru  Ru2  1  0.55416941  1.00000000  0.00000000  1
  Ru  Ru3  1  1.00000000  0.71821117  0.50000000  1
  Ru  Ru4  1  0.28178883  0.28178883  0.50000000  1
  Ru  Ru5  1  0.71821117  1.00000000  0.50000000  1
  Ru  Ru6  1  0.80868833  0.18527903  0.00000000  1
  Ru  Ru7  1  0.81472097  0.62340829  0.00000000  1
  Ru  Ru8  1  0.37659171  0.19131167  0.00000000  1
  Ru  Ru9  1  0.18527903  0.80868833  0.00000000  1
  Ru  Ru10  1  0.62340829  0.81472097  0.00000000  1
  Ru  Ru11  1  0.19131167  0.37659171  0.00000000  1
  Ru  Ru12  1  0.87311417  0.36602548  0.50000000  1
  Ru  Ru13  1  0.63397452  0.50708769  0.50000000  1
  Ru  Ru14  1  0.49291231  0.12688583  0.50000000  1
  Ru  Ru15  1  0.36602548  0.87311417  0.50000000  1
  Ru  Ru16  1  0.50708769  0.63397452  0.50000000  1
  Ru  Ru17  1  0.12688583  0.49291231  0.50000000  1
  Ru  Ru18  1  0.00000000  0.00000000  0.00000000  1
loop_
_geom_bond_atom_site_label_1
_geom_bond_atom_site_label_2
_geom_bond_distance
_geom_bond_site_symmetry_2
P0 Ru18 2.277382 1_665
P0 Ru3 2.317604 1_555
P0 Ru3 2.317604 1_554
P0 Ru9 2.344625 1_655
P0 Ru7 2.344632 1_555
P0 Yb1 3.010514 1_555
P0 Yb1 3.010514 1_554
P0 Yb2 3.010514 1_655
P0 Yb2 3.010514 1_654
P1 Ru18 2.277382 1_555
P1 Ru4 2.317604 1_555
P1 Ru4 2.317604 1_554
P1 Ru8 2.344638 1_555
P1 Ru11 2.344638 1_555
P1 Yb2 3.010514 1_544
P1 Yb0 3.010514 1_454
P1 Yb2 3.010514 1_545
P1 Yb0 3.010514 1_455
P2 Ru18 2.277382 1_665
P2 Ru5 2.317604 1_554
P2 Ru5 2.317604 1_555
P2 Ru6 2.344625 1_565
P2 Ru10 2.344632 1_555
P2 Yb1 3.010514 1_554
P2 Yb1 3.010514 1_555
P2 Yb0 3.010514 1_564
P2 Yb0 3.010514 1_565
P3 Ru14 2.263978 1_555
P3 Ru5 2.293442 1_545
P3 Ru12 2.321630 1_555
P3 Ru6 2.389616 1_556
P3 Ru6 2.389616 1_555
P3 Ru2 2.780822 1_546
P3 Ru2 2.780822 1_545
P3 Yb3 2.949339 1_555
P3 Yb3 2.949339 1_556
P4 Ru12 2.263990 1_555
P4 Ru3 2.293442 1_555
P4 Ru13 2.321625 1_555
P4 Ru7 2.389609 1_556
P4 Ru7 2.389609 1_555
P4 Ru0 2.780822 1_555
P4 Ru0 2.780822 1_556
P4 Yb3 2.949345 1_555
P4 Yb3 2.949345 1_556
P5 Ru13 2.263982 1_555
P5 Ru4 2.293442 1_555
P5 Ru14 2.321637 1_555
P5 Ru8 2.389613 1_555
P5 Ru8 2.389613 1_556
P5 Ru1 2.780822 1_556
P5 Ru1 2.780822 1_555
P5 Yb3 2.949349 1_555
P5 Yb3 2.949349 1_556
P6 Ru17 2.263978 1_555
P6 Ru3 2.293442 1_455
P6 Ru15 2.321630 1_555
P6 Ru9 2.389616 1_555
P6 Ru9 2.389616 1_556
P6 Ru0 2.780822 1_456
P6 Ru0 2.780822 1_455
P6 Yb4 2.949339 1_555
P6 Yb4 2.949339 1_556
P7 Ru15 2.263990 1_555
P7 Ru5 2.293442 1_555
P7 Ru16 2.321625 1_555
P7 Ru10 2.389609 1_555
P7 Ru10 2.389609 1_556
P7 Ru2 2.780822 1_556
P7 Ru2 2.780822 1_555
P7 Yb4 2.949345 1_555
P7 Yb4 2.949345 1_556
P8 Ru16 2.263982 1_555
P8 Ru4 2.293442 1_555
P8 Ru17 2.321637 1_555
P8 Ru11 2.389613 1_555
P8 Ru11 2.389613 1_556
P8 Ru1 2.780822 1_556
P8 Ru1 2.780822 1_555
P8 Yb4 2.949349 1_555
P8 Yb4 2.949349 1_556
P9 Ru0 2.262459 1_455
P9 Ru11 2.340947 1_555
P9 Ru6 2.340953 1_455
P9 Ru12 2.502721 1_455
P9 Ru12 2.502721 1_454
P9 Ru17 2.502725 1_554
P9 Ru17 2.502725 1_555
P9 Yb0 3.058434 1_455
P9 Yb0 3.058434 1_454
P10 Ru1 2.262459 1_555
P10 Ru7 2.340959 1_555
P10 Ru10 2.340959 1_555
P10 Ru16 2.502729 1_555
P10 Ru13 2.502729 1_554
P10 Ru16 2.502729 1_554
P10 Ru13 2.502729 1_555
P10 Yb1 3.058434 1_554
P10 Yb1 3.058434 1_555
P11 Ru2 2.262459 1_545
P11 Ru8 2.340947 1_555
P11 Ru9 2.340953 1_545
P11 Ru15 2.502721 1_545
P11 Ru15 2.502721 1_544
P11 Ru14 2.502725 1_555
P11 Ru14 2.502725 1_554
P11 Yb2 3.058434 1_544
P11 Yb2 3.058434 1_545
Ru0 Ru7 2.824934 1_555
Ru0 Ru9 2.824943 1_655
Ru0 Ru17 2.852775 1_655
Ru0 Ru17 2.852775 1_654
Ru0 Ru12 2.852781 1_555
Ru0 Ru12 2.852781 1_554
Ru1 Ru8 2.824946 1_555
Ru1 Ru11 2.824946 1_555
Ru1 Ru16 2.852783 1_554
Ru1 Ru13 2.852783 1_554
Ru1 Ru13 2.852783 1_555
Ru1 Ru16 2.852783 1_555
Ru2 Ru6 2.824943 1_565
Ru3 Ru9 2.801861 1_655
Ru3 Ru9 2.801861 1_656
Ru3 Ru7 2.801861 1_556
Ru3 Ru7 2.801861 1_555
Ru3 Yb1 3.069504 1_555
Ru3 Yb2 3.069504 1_655
Ru4 Ru8 2.801869 1_555
Ru4 Ru8 2.801869 1_556
Ru4 Yb0 3.069504 1_455
Ru4 Yb2 3.069504 1_545
Ru5 Ru6 2.801861 1_566
Ru5 Ru6 2.801861 1_565
Ru5 Yb1 3.069504 1_555
Ru5 Yb0 3.069504 1_565
Ru6 Yb0 3.095410 1_555
Ru6 Yb0 3.095410 1_554
Ru6 Yb3 3.113756 1_555
Ru7 Yb1 3.095420 1_555
Ru7 Yb1 3.095420 1_554
Ru7 Yb3 3.113756 1_555
Ru8 Yb2 3.095415 1_544
Ru8 Yb2 3.095415 1_545
Ru8 Yb3 3.113756 1_555
Ru9 Yb2 3.095410 1_555
Ru9 Yb2 3.095410 1_554
Ru9 Yb4 3.113756 1_555
Ru10 Ru16 2.786035 1_555
Ru10 Ru16 2.786035 1_554
Ru10 Ru5 2.801861 1_555
Ru10 Ru5 2.801861 1_554
Ru10 Ru2 2.824934 1_555
Ru10 Yb1 3.095420 1_554
Ru10 Yb1 3.095420 1_555
Ru10 Yb4 3.113756 1_555
Ru11 Ru17 2.786035 1_554
Ru11 Ru17 2.786035 1_555
Ru11 Ru4 2.801869 1_554
Ru11 Ru4 2.801869 1_555
Ru11 Yb0 3.095415 1_454
Ru11 Yb0 3.095415 1_455
Ru11 Yb4 3.113756 1_555
Ru12 Ru17 2.723866 1_655
Ru12 Ru6 2.786035 1_556
Ru12 Ru6 2.786035 1_555
Ru12 Yb3 3.093411 1_555
Ru12 Yb3 3.093411 1_556
Ru12 Yb0 3.343380 1_555
Ru13 Ru16 2.723887 1_555
Ru13 Ru7 2.786035 1_555
Ru13 Ru7 2.786035 1_556
Ru13 Yb3 3.093411 1_555
Ru13 Yb3 3.093411 1_556
Ru13 Yb1 3.343390 1_555
Ru14 Ru15 2.723866 1_545
Ru14 Ru8 2.786035 1_555
Ru14 Ru8 2.786035 1_556
Ru14 Ru2 2.852775 1_545
Ru14 Ru2 2.852775 1_546
Ru14 Yb3 3.093411 1_555
Ru14 Yb3 3.093411 1_556
Ru14 Yb2 3.343391 1_545
Ru15 Ru9 2.786035 1_556
Ru15 Ru9 2.786035 1_555
Ru15 Ru2 2.852781 1_556
Ru15 Ru2 2.852781 1_555
Ru15 Yb4 3.093411 1_555
Ru15 Yb4 3.093411 1_556
Ru15 Yb2 3.343380 1_555
Ru16 Yb4 3.093411 1_555
Ru16 Yb4 3.093411 1_556
Ru16 Yb1 3.343390 1_555
Ru17 Yb4 3.093411 1_555
Ru17 Yb4 3.093411 1_556
Ru17 Yb0 3.343391 1_455
Ru18 Yb0 3.007503 1_455
Ru18 Yb2 3.007503 1_544
Ru18 Yb0 3.007503 1_454
Ru18 Yb2 3.007503 1_545
Ru18 Yb1 3.007503 1_444
Ru18 Yb1 3.007503 1_445
