# generated using pymatgen
data_Ca(CoO2)2
_symmetry_space_group_name_H-M   'P 1'
_cell_length_a   6.18590567
_cell_length_b   6.18590567
_cell_length_c   20.06882923
_cell_angle_alpha   79.23352783
_cell_angle_beta   79.23352783
_cell_angle_gamma   58.23749080
_symmetry_Int_Tables_number   1
_chemical_formula_structural   Ca(CoO2)2
_chemical_formula_sum   'Ca8 Co16 O32'
_cell_volume   637.83119266
_cell_formula_units_Z   8
loop_
 _symmetry_equiv_pos_site_id
 _symmetry_equiv_pos_as_xyz
  1  'x, y, z'
loop_
 _atom_site_type_symbol
 _atom_site_label
 _atom_site_symmetry_multiplicity
 _atom_site_fract_x
 _atom_site_fract_y
 _atom_site_fract_z
 _atom_site_occupancy
  Ca  Ca0  1  0.65186100  0.65186100  0.02835600  1
  Ca  Ca1  1  0.12494400  0.12494400  0.12551900  1
  Ca  Ca2  1  0.90342600  0.90342600  0.28517100  1
  Ca  Ca3  1  0.37242300  0.37242300  0.37459300  1
  Ca  Ca4  1  0.62428400  0.62428400  0.62550500  1
  Ca  Ca5  1  0.50522500  0.50522500  0.49583200  1
  Ca  Ca6  1  0.87834000  0.87834000  0.87506400  1
  Ca  Ca7  1  0.74646800  0.74646800  0.75326500  1
  Co  Co0  1  0.62782300  0.12029300  0.12523800  1
  Co  Co1  1  0.24919800  0.24919800  0.24967200  1
  Co  Co2  1  0.12029300  0.62782300  0.12523800  1
  Co  Co3  1  0.14763100  0.14763100  0.53576500  1
  Co  Co4  1  0.88753200  0.36969900  0.37328900  1
  Co  Co5  1  0.61297100  0.61297100  0.22242100  1
  Co  Co6  1  0.39590000  0.39590000  0.78394600  1
  Co  Co7  1  0.36969900  0.88753200  0.37328900  1
  Co  Co8  1  0.12588200  0.62446900  0.62494300  1
  Co  Co9  1  0.85399500  0.85399500  0.46730000  1
  Co  Co10  1  0.62446900  0.12588200  0.62494300  1
  Co  Co11  1  0.87869400  0.36390300  0.87549100  1
  Co  Co12  1  0.36390300  0.87869400  0.87549100  1
  Co  Co13  1  0.10315000  0.10315000  0.71528800  1
  Co  Co14  1  0.99689800  0.99689800  0.00268000  1
  Co  Co15  1  0.36343500  0.36343500  0.97232100  1
  O  O0  1  0.24924100  0.81116000  0.06144200  1
  O  O1  1  0.91804000  0.91804000  0.17595600  1
  O  O2  1  0.81116000  0.24924100  0.06144200  1
  O  O3  1  0.83344000  0.83344000  0.06847700  1
  O  O4  1  0.41920200  0.41920200  0.18361200  1
  O  O5  1  0.49805400  0.06786400  0.30846800  1
  O  O6  1  0.44279100  0.97920500  0.19048000  1
  O  O7  1  0.16965400  0.16965400  0.43481300  1
  O  O8  1  0.06786400  0.49805400  0.30846800  1
  O  O9  1  0.32959100  0.32959100  0.07098500  1
  O  O10  1  0.09078400  0.09078400  0.31693500  1
  O  O11  1  0.97920500  0.44279100  0.19048000  1
  O  O12  1  0.80478300  0.28434900  0.56758000  1
  O  O13  1  0.70199900  0.70199900  0.42279300  1
  O  O14  1  0.72298100  0.18916900  0.42727400  1
  O  O15  1  0.41812800  0.41812800  0.68363800  1
  O  O16  1  0.28434900  0.80478300  0.56758000  1
  O  O17  1  0.58165200  0.58165200  0.32132900  1
  O  O18  1  0.31122200  0.31122200  0.57056500  1
  O  O19  1  0.18916900  0.72298100  0.42727400  1
  O  O20  1  0.93993400  0.93993400  0.67876900  1
  O  O21  1  0.05904100  0.52460300  0.82121100  1
  O  O22  1  0.96756900  0.44512500  0.68163600  1
  O  O23  1  0.66891900  0.66891900  0.92014000  1
  O  O24  1  0.52460300  0.05904100  0.82121100  1
  O  O25  1  0.83135400  0.83135400  0.56561200  1
  O  O26  1  0.54695400  0.54695400  0.82271900  1
  O  O27  1  0.44512500  0.96756900  0.68163600  1
  O  O28  1  0.16409000  0.16409000  0.93629300  1
  O  O29  1  0.18890800  0.73246500  0.94276600  1
  O  O30  1  0.07923200  0.07923200  0.81502500  1
  O  O31  1  0.73246500  0.18890800  0.94276600  1
loop_
_geom_bond_atom_site_label_1
_geom_bond_atom_site_label_2
_geom_bond_distance
_geom_bond_site_symmetry_2
Ca0 O23 2.139937 1_554
Ca0 O2 2.158159 1_555
Ca0 O0 2.158159 1_555
Ca0 O3 2.275009 1_555
Ca1 O2 2.237052 1_455
Ca1 O0 2.237052 1_545
Ca1 O11 2.242902 1_455
Ca1 O6 2.242902 1_545
Ca1 O9 2.248300 1_555
Ca1 O1 2.248858 1_445
Ca2 O5 2.143729 1_565
Ca2 O8 2.143729 1_655
Ca2 O1 2.163551 1_555
Ca2 O10 2.249231 1_665
Ca3 O8 2.218496 1_555
Ca3 O5 2.218496 1_555
Ca3 O19 2.219474 1_555
Ca3 O14 2.219474 1_555
Ca3 O7 2.265131 1_555
Ca3 O17 2.285325 1_555
Ca4 O22 2.226251 1_555
Ca4 O27 2.226251 1_555
Ca4 O12 2.230773 1_555
Ca4 O16 2.230773 1_555
Ca4 O15 2.283445 1_555
Ca4 O25 2.302861 1_555
Ca5 O12 2.229395 1_555
Ca5 O16 2.229395 1_555
Ca5 O19 2.251638 1_555
Ca5 O14 2.251638 1_555
Ca5 O18 2.302419 1_555
Ca5 O13 2.310524 1_555
Ca6 O31 2.245702 1_565
Ca6 O29 2.245702 1_655
Ca6 O30 2.246642 1_665
Ca6 O21 2.250065 1_655
Ca6 O24 2.250065 1_565
Ca6 O23 2.250759 1_555
Ca7 O24 2.230171 1_565
Ca7 O21 2.230171 1_655
Ca7 O27 2.234796 1_555
Ca7 O22 2.234796 1_555
Ca7 O20 2.295770 1_555
Ca7 O26 2.303780 1_555
Co0 O2 1.894731 1_555
Co0 O1 1.914815 1_545
Co0 O6 1.962391 1_545
Co0 O3 1.975298 1_545
Co0 O9 1.993566 1_555
Co0 O4 2.046703 1_555
Co1 O8 1.840249 1_555
Co1 O5 1.840249 1_555
Co1 O11 1.933579 1_455
Co1 O6 1.933579 1_545
Co1 O10 1.940434 1_555
Co1 O4 2.022866 1_555
Co2 O0 1.894731 1_555
Co2 O1 1.914815 1_455
Co2 O11 1.962391 1_455
Co2 O3 1.975298 1_455
Co2 O9 1.993566 1_555
Co2 O4 2.046703 1_555
Co3 O12 1.851570 1_455
Co3 O16 1.851570 1_545
Co3 O7 1.988730 1_555
Co3 O18 2.035216 1_555
Co4 O8 1.889841 1_655
Co4 O10 1.936655 1_655
Co4 O14 1.946717 1_555
Co4 O17 2.000295 1_555
Co4 O7 2.015460 1_655
Co4 O13 2.093530 1_555
Co5 O17 1.940960 1_555
Co5 O11 1.962210 1_555
Co5 O6 1.962210 1_555
Co5 O4 2.385422 1_555
Co6 O24 1.851733 1_555
Co6 O21 1.851733 1_555
Co6 O26 1.953004 1_555
Co6 O15 1.975681 1_555
Co7 O5 1.889841 1_565
Co7 O10 1.936655 1_565
Co7 O19 1.946717 1_555
Co7 O17 2.000295 1_555
Co7 O7 2.015460 1_565
Co7 O13 2.093530 1_555
Co8 O22 1.933977 1_455
Co8 O16 1.944243 1_555
Co8 O15 2.022240 1_555
Co8 O25 2.039956 1_455
Co8 O18 2.060063 1_555
Co8 O20 2.063555 1_455
Co9 O19 1.858170 1_655
Co9 O14 1.858170 1_565
Co9 O25 1.935499 1_555
Co9 O13 2.030797 1_555
Co10 O27 1.933977 1_545
Co10 O12 1.944243 1_555
Co10 O15 2.022240 1_555
Co10 O25 2.039956 1_545
Co10 O18 2.060063 1_555
Co10 O20 2.063555 1_545
Co11 O23 1.914778 1_555
Co11 O21 1.930895 1_655
Co11 O31 1.959962 1_555
Co11 O30 2.012084 1_655
Co11 O28 2.019277 1_655
Co11 O26 2.128980 1_555
Co12 O23 1.914778 1_555
Co12 O24 1.930895 1_565
Co12 O29 1.959962 1_555
Co12 O30 2.012084 1_565
Co12 O28 2.019277 1_565
Co12 O26 2.128980 1_555
Co13 O22 1.855942 1_455
Co13 O27 1.855942 1_545
Co13 O30 1.962641 1_555
Co13 O20 2.049874 1_445
Co14 O0 1.854937 1_655
Co14 O2 1.854937 1_565
Co14 O31 1.920426 1_564
Co14 O29 1.920426 1_654
Co14 O3 1.966502 1_555
Co14 O28 2.002705 1_664
Co15 O9 1.935131 1_556
Co15 O29 1.966521 1_555
Co15 O31 1.966521 1_555
Co15 O28 2.414772 1_555
