# generated using pymatgen
data_Li3MnCoO5
_symmetry_space_group_name_H-M   'P 1'
_cell_length_a   3.03263100
_cell_length_b   7.80013175
_cell_length_c   8.04574165
_cell_angle_alpha   104.28381119
_cell_angle_beta   90.87096305
_cell_angle_gamma   96.19268373
_symmetry_Int_Tables_number   1
_chemical_formula_structural   Li3MnCoO5
_chemical_formula_sum   'Li6 Mn2 Co2 O10'
_cell_volume   183.18866266
_cell_formula_units_Z   2
loop_
 _symmetry_equiv_pos_site_id
 _symmetry_equiv_pos_as_xyz
  1  'x, y, z'
loop_
 _atom_site_type_symbol
 _atom_site_label
 _atom_site_symmetry_multiplicity
 _atom_site_fract_x
 _atom_site_fract_y
 _atom_site_fract_z
 _atom_site_occupancy
  Li  Li0  1  0.59630900  0.19306600  0.79159000  1
  Li  Li1  1  0.80246700  0.60189200  0.40505000  1
  Li  Li2  1  0.00000000  0.00000000  0.00000000  1
  Li  Li3  1  0.19753300  0.39810800  0.59495000  1
  Li  Li4  1  0.40369100  0.80693400  0.20841000  1
  Li  Li5  1  0.00000000  0.00000000  0.50000000  1
  Mn  Mn0  1  0.80381000  0.60248300  0.89727400  1
  Mn  Mn1  1  0.19619000  0.39751700  0.10272600  1
  Co  Co0  1  0.41014500  0.81079700  0.69150300  1
  Co  Co1  1  0.58985500  0.18920300  0.30849700  1
  O  O0  1  0.17472300  0.40340300  0.85971300  1
  O  O1  1  0.39230400  0.79648900  0.47276100  1
  O  O2  1  0.58178100  0.20642700  0.07199200  1
  O  O3  1  0.78357300  0.61316900  0.66048700  1
  O  O4  1  0.98489300  0.01471900  0.25392200  1
  O  O5  1  0.01510700  0.98528100  0.74607800  1
  O  O6  1  0.21642700  0.38683100  0.33951300  1
  O  O7  1  0.41821900  0.79357300  0.92800800  1
  O  O8  1  0.60769600  0.20351100  0.52723900  1
  O  O9  1  0.82527700  0.59659700  0.14028700  1
loop_
_geom_bond_atom_site_label_1
_geom_bond_atom_site_label_2
_geom_bond_distance
_geom_bond_site_symmetry_2
Li0 O5 2.130576 1_645
Li0 O8 2.149108 1_555
Li0 O0 2.157982 1_555
Li0 O5 2.222337 1_545
Li0 O0 2.230524 1_655
Li0 O2 2.233947 1_556
Li1 O3 2.037216 1_555
Li1 O1 2.041537 1_555
Li1 O9 2.122731 1_555
Li1 O6 2.169343 1_655
Li1 O1 2.185628 1_655
Li1 O6 2.267704 1_555
Li2 O5 2.019240 1_544
Li2 O4 2.019240 1_455
Li2 O2 2.130590 1_455
Li2 O7 2.130590 1_544
Li2 O2 2.221887 1_555
Li2 O7 2.221887 1_444
Li3 O6 2.037216 1_555
Li3 O8 2.041537 1_555
Li3 O0 2.122731 1_555
Li3 O3 2.169343 1_455
Li3 O8 2.185628 1_455
Li3 O3 2.267704 1_555
Li4 O4 2.130576 1_465
Li4 O1 2.149108 1_555
Li4 O9 2.157982 1_555
Li4 O4 2.222337 1_565
Li4 O9 2.230524 1_455
Li4 O7 2.233947 1_554
Li5 O5 2.011405 1_545
Li5 O4 2.011405 1_455
Li5 O8 2.055975 1_455
Li5 O1 2.055975 1_545
Li5 O8 2.269174 1_555
Li5 O1 2.269174 1_445
Mn0 O3 1.927727 1_555
Mn0 O7 1.962947 1_555
Mn0 O9 1.967308 1_556
Mn0 O0 1.980796 1_655
Mn0 O7 2.227006 1_655
Mn0 O0 2.292180 1_555
Mn1 O6 1.927727 1_555
Mn1 O2 1.962947 1_555
Mn1 O0 1.967308 1_554
Mn1 O9 1.980796 1_455
Mn1 O2 2.227006 1_455
Mn1 O9 2.292180 1_555
Co0 O1 1.735413 1_555
Co0 O5 1.884995 1_555
Co0 O7 1.940351 1_555
Co0 O3 1.979005 1_555
Co0 O5 2.133752 1_655
Co0 O3 2.283200 1_455
Co1 O8 1.735413 1_555
Co1 O4 1.884995 1_555
Co1 O2 1.940351 1_555
Co1 O6 1.979005 1_555
Co1 O4 2.133752 1_455
Co1 O6 2.283200 1_655
