# generated using pymatgen
data_GaAsO4
_symmetry_space_group_name_H-M   'P 1'
_cell_length_a   4.97504727
_cell_length_b   4.97504727
_cell_length_c   7.14176098
_cell_angle_alpha   90.00000000
_cell_angle_beta   90.00000000
_cell_angle_gamma   89.80086981
_symmetry_Int_Tables_number   1
_chemical_formula_structural   GaAsO4
_chemical_formula_sum   'Ga2 As2 O8'
_cell_volume   176.76533935
_cell_formula_units_Z   2
loop_
 _symmetry_equiv_pos_site_id
 _symmetry_equiv_pos_as_xyz
  1  'x, y, z'
loop_
 _atom_site_type_symbol
 _atom_site_label
 _atom_site_symmetry_multiplicity
 _atom_site_fract_x
 _atom_site_fract_y
 _atom_site_fract_z
 _atom_site_occupancy
  Ga  Ga0  1  0.82772205  0.17227795  0.75000000  1
  Ga  Ga1  1  0.17227795  0.82772205  0.25000000  1
  As  As0  1  0.33235358  0.33235358  0.50000000  1
  As  As1  1  0.66764642  0.66764642  -0.00000000  1
  O  O0  1  0.18642476  0.22380092  0.70007725  1
  O  O1  1  0.22380092  0.18642476  0.29992275  1
  O  O2  1  0.81357524  0.77619908  0.20007725  1
  O  O3  1  0.77619908  0.81357524  0.79992275  1
  O  O4  1  0.27601683  0.66501390  0.46955883  1
  O  O5  1  0.66501390  0.27601683  0.53044117  1
  O  O6  1  0.72398317  0.33498610  0.96955883  1
  O  O7  1  0.33498610  0.72398317  0.03044117  1
loop_
_geom_bond_atom_site_label_1
_geom_bond_atom_site_label_2
_geom_bond_distance
_geom_bond_site_symmetry_2
Ga0 O5 1.837787 1_555
Ga0 O6 1.837787 1_555
Ga0 O0 1.838659 1_655
Ga0 O3 1.838659 1_545
Ga1 O4 1.837787 1_555
Ga1 O7 1.837787 1_555
Ga1 O2 1.838659 1_455
Ga1 O1 1.838659 1_565
As0 O5 1.691633 1_555
As0 O4 1.691633 1_555
As0 O1 1.692108 1_555
As0 O0 1.692108 1_555
As1 O7 1.691633 1_555
As1 O6 1.691633 1_554
As1 O3 1.692108 1_554
As1 O2 1.692108 1_555
