# generated using pymatgen
data_Tm5Mg
_symmetry_space_group_name_H-M   'P 1'
_cell_length_a   18.39455734
_cell_length_b   18.39455734
_cell_length_c   11.02658648
_cell_angle_alpha   90.00000000
_cell_angle_beta   90.00000000
_cell_angle_gamma   157.86826089
_symmetry_Int_Tables_number   1
_chemical_formula_structural   Tm5Mg
_chemical_formula_sum   'Tm40 Mg8'
_cell_volume   1405.58972245
_cell_formula_units_Z   8
loop_
 _symmetry_equiv_pos_site_id
 _symmetry_equiv_pos_as_xyz
  1  'x, y, z'
loop_
 _atom_site_type_symbol
 _atom_site_label
 _atom_site_symmetry_multiplicity
 _atom_site_fract_x
 _atom_site_fract_y
 _atom_site_fract_z
 _atom_site_occupancy
  Tm  Tm0_0  1  0.00001730  0.99998270  0.00000000  1
  Tm  Tm0_1  1  0.00001730  0.99998270  0.50000000  1
  Tm  Tm0_2  1  0.00001729  0.49998270  0.00000000  1
  Tm  Tm0_3  1  0.00001729  0.49998270  0.50000000  1
  Tm  Tm0_4  1  0.50001729  0.99998270  0.00000000  1
  Tm  Tm0_5  1  0.50001729  0.99998270  0.50000000  1
  Tm  Tm0_6  1  0.50001730  0.49998270  0.00000000  1
  Tm  Tm0_7  1  0.50001730  0.49998270  0.50000000  1
  Tm  Tm1_0  1  0.33527523  0.16472477  0.00000000  1
  Tm  Tm1_1  1  0.33527523  0.16472477  0.50000000  1
  Tm  Tm1_2  1  0.33527523  0.66472477  0.00000000  1
  Tm  Tm1_3  1  0.33527523  0.66472477  0.50000000  1
  Tm  Tm1_4  1  0.83527522  0.16472477  0.00000000  1
  Tm  Tm1_5  1  0.83527522  0.16472477  0.50000000  1
  Tm  Tm1_6  1  0.83527522  0.66472477  0.00000000  1
  Tm  Tm1_7  1  0.83527522  0.66472477  0.50000000  1
  Tm  Tm2_0  1  0.16650357  0.33349643  0.00000000  1
  Tm  Tm2_1  1  0.16650357  0.33349643  0.50000000  1
  Tm  Tm2_2  1  0.16650357  0.83349643  0.00000000  1
  Tm  Tm2_3  1  0.16650357  0.83349643  0.50000000  1
  Tm  Tm2_4  1  0.66650356  0.33349643  0.00000000  1
  Tm  Tm2_5  1  0.66650356  0.33349643  0.50000000  1
  Tm  Tm2_6  1  0.66650356  0.83349643  0.00000000  1
  Tm  Tm2_7  1  0.66650356  0.83349643  0.50000000  1
  Tm  Tm3_0  1  0.27666843  0.22333156  0.25000000  1
  Tm  Tm3_1  1  0.27666843  0.22333156  0.75000000  1
  Tm  Tm3_2  1  0.27666844  0.72333156  0.25000000  1
  Tm  Tm3_3  1  0.27666844  0.72333156  0.75000000  1
  Tm  Tm3_4  1  0.77666844  0.22333156  0.25000000  1
  Tm  Tm3_5  1  0.77666844  0.22333156  0.75000000  1
  Tm  Tm3_6  1  0.77666844  0.72333156  0.25000000  1
  Tm  Tm3_7  1  0.77666844  0.72333156  0.75000000  1
  Tm  Tm4_0  1  0.44318463  0.05681537  0.25000000  1
  Tm  Tm4_1  1  0.44318463  0.05681537  0.75000000  1
  Tm  Tm4_2  1  0.44318463  0.55681537  0.25000000  1
  Tm  Tm4_3  1  0.44318463  0.55681537  0.75000000  1
  Tm  Tm4_4  1  0.94318463  0.05681537  0.25000000  1
  Tm  Tm4_5  1  0.94318463  0.05681537  0.75000000  1
  Tm  Tm4_6  1  0.94318463  0.55681537  0.25000000  1
  Tm  Tm4_7  1  0.94318463  0.55681537  0.75000000  1
  Mg  Mg0_0  1  0.11168435  0.38831565  0.25000000  1
  Mg  Mg0_1  1  0.11168435  0.38831565  0.75000000  1
  Mg  Mg0_2  1  0.11168435  0.88831565  0.25000000  1
  Mg  Mg0_3  1  0.11168435  0.88831565  0.75000000  1
  Mg  Mg0_4  1  0.61168435  0.38831565  0.25000000  1
  Mg  Mg0_5  1  0.61168435  0.38831565  0.75000000  1
  Mg  Mg0_6  1  0.61168435  0.88831565  0.25000000  1
  Mg  Mg0_7  1  0.61168435  0.88831565  0.75000000  1
loop_
_geom_bond_atom_site_label_1
_geom_bond_atom_site_label_2
_geom_bond_distance
_geom_bond_site_symmetry_2
Tm0_0 Tm3_0 3.411935 1_565
Tm0_0 Tm3_1 3.411935 1_564
Tm0_0 Tm3_7 3.411935 1_454
Tm0_0 Tm3_6 3.411935 1_455
Tm0_0 Tm4_5 3.436509 1_464
Tm0_0 Tm4_4 3.436509 1_465
Tm0_0 Tm2_6 3.494017 1_455
Tm0_0 Tm2_0 3.494017 1_565
Tm0_0 Tm0_6 3.530603 1_565
Tm0_0 Tm0_6 3.530603 1_455
Tm0_0 Tm1_0 3.548505 1_565
Tm0_0 Tm1_6 3.548505 1_455
Tm0_1 Tm3_0 3.411935 1_565
Tm0_1 Tm3_1 3.411935 1_565
Tm0_1 Tm3_6 3.411935 1_455
Tm0_1 Tm3_7 3.411935 1_455
Tm0_1 Tm4_5 3.436509 1_465
Tm0_1 Tm4_4 3.436509 1_465
Tm0_1 Tm2_7 3.494017 1_455
Tm0_1 Tm2_1 3.494017 1_565
Tm0_1 Tm0_7 3.530603 1_565
Tm0_1 Tm0_7 3.530603 1_455
Tm0_1 Tm1_1 3.548505 1_565
Tm0_1 Tm1_7 3.548505 1_455
Tm0_2 Tm3_2 3.411935 1_555
Tm0_2 Tm3_5 3.411935 1_454
Tm0_2 Tm3_3 3.411935 1_554
Tm0_2 Tm3_4 3.411935 1_455
Tm0_2 Tm4_7 3.436509 1_454
Tm0_2 Tm4_6 3.436509 1_455
Tm0_2 Tm2_2 3.494017 1_555
Tm0_2 Tm2_4 3.494017 1_455
Tm0_2 Tm0_4 3.530603 1_555
Tm0_2 Tm0_4 3.530603 1_445
Tm0_2 Tm1_4 3.548505 1_455
Tm0_2 Tm1_2 3.548505 1_555
Tm0_3 Tm3_2 3.411935 1_555
Tm0_3 Tm3_4 3.411935 1_455
Tm0_3 Tm3_3 3.411935 1_555
Tm0_3 Tm3_5 3.411935 1_455
Tm0_3 Tm4_7 3.436509 1_455
Tm0_3 Tm4_6 3.436509 1_455
Tm0_3 Tm2_3 3.494017 1_555
Tm0_3 Tm2_5 3.494017 1_455
Tm0_3 Tm0_5 3.530603 1_555
Tm0_3 Tm0_5 3.530603 1_445
Tm0_3 Tm1_5 3.548505 1_455
Tm0_3 Tm1_3 3.548505 1_555
Tm0_4 Tm3_2 3.411935 1_555
Tm0_4 Tm3_4 3.411935 1_565
Tm0_4 Tm3_5 3.411935 1_564
Tm0_4 Tm3_3 3.411935 1_554
Tm0_4 Tm4_1 3.436509 1_564
Tm0_4 Tm4_0 3.436509 1_565
Tm0_4 Tm2_2 3.494017 1_555
Tm0_4 Tm2_4 3.494017 1_565
Tm0_4 Tm1_4 3.548505 1_565
Tm0_4 Tm1_2 3.548505 1_555
Tm0_5 Tm3_2 3.411935 1_555
Tm0_5 Tm3_4 3.411935 1_565
Tm0_5 Tm3_5 3.411935 1_565
Tm0_5 Tm3_3 3.411935 1_555
Tm0_5 Tm4_1 3.436509 1_565
Tm0_5 Tm4_0 3.436509 1_565
Tm0_5 Tm2_3 3.494017 1_555
Tm0_5 Tm2_5 3.494017 1_565
Tm0_5 Tm1_5 3.548505 1_565
Tm0_5 Tm1_3 3.548505 1_555
Tm0_6 Tm3_1 3.411935 1_554
Tm0_6 Tm3_0 3.411935 1_555
Tm0_6 Tm3_6 3.411935 1_555
Tm0_6 Tm3_7 3.411935 1_554
Tm0_6 Tm4_3 3.436509 1_554
Tm0_6 Tm4_2 3.436509 1_555
Tm0_6 Tm2_6 3.494017 1_555
Tm0_6 Tm2_0 3.494017 1_555
Tm0_6 Tm1_0 3.548505 1_555
Tm0_6 Tm1_6 3.548505 1_555
Tm0_7 Tm3_1 3.411935 1_555
Tm0_7 Tm3_0 3.411935 1_555
Tm0_7 Tm3_7 3.411935 1_555
Tm0_7 Tm3_6 3.411935 1_555
Tm0_7 Tm4_3 3.436509 1_555
Tm0_7 Tm4_2 3.436509 1_555
Tm0_7 Tm2_7 3.494017 1_555
Tm0_7 Tm2_1 3.494017 1_555
Tm0_7 Tm1_1 3.548505 1_555
Tm0_7 Tm1_7 3.548505 1_555
Tm1_0 Tm2_4 3.423062 1_555
Tm1_0 Tm2_2 3.423062 1_545
Tm1_0 Tm3_1 3.475137 1_554
Tm1_0 Tm3_0 3.475137 1_555
Tm1_0 Tm1_6 3.530603 1_555
Tm1_0 Tm1_6 3.530603 1_445
Tm1_1 Tm2_5 3.423062 1_555
Tm1_1 Tm2_3 3.423062 1_545
Tm1_1 Tm3_1 3.475137 1_555
Tm1_1 Tm3_0 3.475137 1_555
Tm1_1 Tm1_7 3.530603 1_555
Tm1_1 Tm1_7 3.530603 1_445
Tm1_2 Tm2_0 3.423062 1_555
Tm1_2 Tm2_6 3.423062 1_555
Tm1_2 Tm3_2 3.475137 1_555
Tm1_2 Tm3_3 3.475137 1_554
Tm1_2 Tm1_4 3.530603 1_455
Tm1_2 Tm1_4 3.530603 1_565
Tm1_3 Tm2_1 3.423062 1_555
Tm1_3 Tm2_7 3.423062 1_555
Tm1_3 Tm3_2 3.475137 1_555
Tm1_3 Tm3_3 3.475137 1_555
Tm1_3 Tm1_5 3.530603 1_455
Tm1_3 Tm1_5 3.530603 1_565
Tm1_4 Tm2_0 3.423062 1_655
Tm1_4 Tm2_6 3.423062 1_545
Tm1_4 Tm3_5 3.475137 1_554
Tm1_4 Tm3_4 3.475137 1_555
Tm1_5 Tm2_1 3.423062 1_655
Tm1_5 Tm2_7 3.423062 1_545
Tm1_5 Tm3_4 3.475137 1_555
Tm1_5 Tm3_5 3.475137 1_555
Tm1_6 Tm2_4 3.423062 1_555
Tm1_6 Tm2_2 3.423062 1_655
Tm1_6 Tm3_6 3.475137 1_555
Tm1_6 Tm3_7 3.475137 1_554
Tm1_7 Tm2_5 3.423062 1_555
Tm1_7 Tm2_3 3.423062 1_655
Tm1_7 Tm3_6 3.475137 1_555
Tm1_7 Tm3_7 3.475137 1_555
Tm2_0 Tm4_5 3.412240 1_454
Tm2_0 Tm4_3 3.412240 1_554
Tm2_0 Tm4_4 3.412240 1_455
Tm2_0 Tm4_2 3.412240 1_555
Tm2_0 Tm2_6 3.530603 1_555
Tm2_0 Tm2_6 3.530603 1_445
Tm2_1 Tm4_5 3.412240 1_455
Tm2_1 Tm4_3 3.412240 1_555
Tm2_1 Tm4_4 3.412240 1_455
Tm2_1 Tm4_2 3.412240 1_555
Tm2_1 Tm2_7 3.530603 1_555
Tm2_1 Tm2_7 3.530603 1_445
Tm2_2 Tm4_7 3.412240 1_454
Tm2_2 Tm4_6 3.412240 1_455
Tm2_2 Tm4_0 3.412240 1_565
Tm2_2 Tm4_1 3.412240 1_564
Tm2_2 Tm2_4 3.530603 1_565
Tm2_2 Tm2_4 3.530603 1_455
Tm2_3 Tm4_7 3.412240 1_455
Tm2_3 Tm4_6 3.412240 1_455
Tm2_3 Tm4_1 3.412240 1_565
Tm2_3 Tm4_0 3.412240 1_565
Tm2_3 Tm2_5 3.530603 1_565
Tm2_3 Tm2_5 3.530603 1_455
Tm2_4 Tm4_1 3.412240 1_554
Tm2_4 Tm4_0 3.412240 1_555
Tm2_4 Tm4_6 3.412240 1_555
Tm2_4 Tm4_7 3.412240 1_554
Tm2_5 Tm4_0 3.412240 1_555
Tm2_5 Tm4_1 3.412240 1_555
Tm2_5 Tm4_6 3.412240 1_555
Tm2_5 Tm4_7 3.412240 1_555
Tm2_6 Tm4_4 3.412240 1_565
Tm2_6 Tm4_5 3.412240 1_564
Tm2_6 Tm4_3 3.412240 1_554
Tm2_6 Tm4_2 3.412240 1_555
Tm2_7 Tm4_4 3.412240 1_565
Tm2_7 Tm4_5 3.412240 1_565
Tm2_7 Tm4_2 3.412240 1_555
Tm2_7 Tm4_3 3.412240 1_555
Tm3_0 Tm4_2 3.493084 1_555
Tm3_0 Tm4_4 3.493084 1_455
Tm3_0 Tm3_6 3.530603 1_555
Tm3_0 Tm3_6 3.530603 1_445
Tm3_1 Tm4_3 3.493084 1_555
Tm3_1 Tm4_5 3.493084 1_455
Tm3_1 Tm3_7 3.530603 1_555
Tm3_1 Tm3_7 3.530603 1_445
Tm3_2 Tm4_6 3.493084 1_455
Tm3_2 Tm4_0 3.493084 1_565
Tm3_2 Tm3_4 3.530603 1_455
Tm3_2 Tm3_4 3.530603 1_565
Tm3_3 Tm4_7 3.493084 1_455
Tm3_3 Tm4_1 3.493084 1_565
Tm3_3 Tm3_5 3.530603 1_455
Tm3_3 Tm3_5 3.530603 1_565
Tm3_4 Tm4_0 3.493084 1_555
Tm3_4 Tm4_6 3.493084 1_555
Tm3_5 Tm4_1 3.493084 1_555
Tm3_5 Tm4_7 3.493084 1_555
Tm3_6 Tm4_2 3.493084 1_555
Tm3_6 Tm4_4 3.493084 1_565
Tm3_7 Tm4_3 3.493084 1_555
Tm3_7 Tm4_5 3.493084 1_565
Tm4_0 Tm4_6 3.530603 1_555
Tm4_0 Tm4_6 3.530603 1_445
Tm4_1 Tm4_7 3.530603 1_445
Tm4_1 Tm4_7 3.530603 1_555
Tm4_2 Tm4_4 3.530603 1_455
Tm4_2 Tm4_4 3.530603 1_565
Tm4_3 Tm4_5 3.530603 1_455
Tm4_3 Tm4_5 3.530603 1_565
Mg0_0 Tm2_1 3.393603 1_555
Mg0_0 Tm2_0 3.393603 1_555
Mg0_0 Tm1_4 3.409481 1_455
Mg0_0 Tm1_5 3.409481 1_455
Mg0_0 Tm1_2 3.409481 1_555
Mg0_0 Tm1_3 3.409481 1_555
Mg0_0 Tm4_4 3.431478 1_455
Mg0_0 Tm4_2 3.431478 1_555
Mg0_0 Tm3_4 3.540928 1_455
Mg0_0 Tm3_2 3.540928 1_555
Mg0_1 Tm2_0 3.393603 1_556
Mg0_1 Tm2_1 3.393603 1_555
Mg0_1 Tm1_5 3.409481 1_455
Mg0_1 Tm1_4 3.409481 1_456
Mg0_1 Tm1_2 3.409481 1_556
Mg0_1 Tm1_3 3.409481 1_555
Mg0_1 Tm4_5 3.431478 1_455
Mg0_1 Tm4_3 3.431478 1_555
Mg0_1 Tm3_5 3.540928 1_455
Mg0_1 Tm3_3 3.540928 1_555
Mg0_2 Tm2_2 3.393603 1_555
Mg0_2 Tm2_3 3.393603 1_555
Mg0_2 Tm1_7 3.409481 1_455
Mg0_2 Tm1_6 3.409481 1_455
Mg0_2 Tm1_1 3.409481 1_565
Mg0_2 Tm1_0 3.409481 1_565
Mg0_2 Tm4_6 3.431478 1_455
Mg0_2 Tm4_0 3.431478 1_565
Mg0_2 Tm3_6 3.540928 1_455
Mg0_2 Tm3_0 3.540928 1_565
Mg0_3 Tm2_2 3.393603 1_556
Mg0_3 Tm2_3 3.393603 1_555
Mg0_3 Tm1_6 3.409481 1_456
Mg0_3 Tm1_7 3.409481 1_455
Mg0_3 Tm1_0 3.409481 1_566
Mg0_3 Tm1_1 3.409481 1_565
Mg0_3 Tm4_7 3.431478 1_455
Mg0_3 Tm4_1 3.431478 1_565
Mg0_3 Tm3_7 3.540928 1_455
Mg0_3 Tm3_1 3.540928 1_565
Mg0_4 Tm2_5 3.393603 1_555
Mg0_4 Tm2_4 3.393603 1_555
Mg0_4 Tm1_1 3.409481 1_555
Mg0_4 Tm1_0 3.409481 1_555
Mg0_4 Tm1_6 3.409481 1_555
Mg0_4 Tm1_7 3.409481 1_555
Mg0_4 Tm4_0 3.431478 1_555
Mg0_4 Tm4_6 3.431478 1_555
Mg0_4 Tm3_6 3.540928 1_555
Mg0_4 Tm3_0 3.540928 1_555
Mg0_5 Tm2_4 3.393603 1_556
Mg0_5 Tm2_5 3.393603 1_555
Mg0_5 Tm1_1 3.409481 1_555
Mg0_5 Tm1_0 3.409481 1_556
Mg0_5 Tm1_6 3.409481 1_556
Mg0_5 Tm1_7 3.409481 1_555
Mg0_5 Tm4_1 3.431478 1_555
Mg0_5 Tm4_7 3.431478 1_555
Mg0_5 Tm3_7 3.540928 1_555
Mg0_5 Tm3_1 3.540928 1_555
Mg0_6 Tm2_7 3.393603 1_555
Mg0_6 Tm2_6 3.393603 1_555
Mg0_6 Tm1_3 3.409481 1_555
Mg0_6 Tm1_2 3.409481 1_555
Mg0_6 Tm1_4 3.409481 1_565
Mg0_6 Tm1_5 3.409481 1_565
Mg0_6 Tm4_4 3.431478 1_565
Mg0_6 Tm4_2 3.431478 1_555
Mg0_6 Tm3_2 3.540928 1_555
Mg0_6 Tm3_4 3.540928 1_565
Mg0_7 Tm2_7 3.393603 1_555
Mg0_7 Tm2_6 3.393603 1_556
Mg0_7 Tm1_3 3.409481 1_555
Mg0_7 Tm1_2 3.409481 1_556
Mg0_7 Tm1_5 3.409481 1_565
Mg0_7 Tm1_4 3.409481 1_566
Mg0_7 Tm4_3 3.431478 1_555
Mg0_7 Tm4_5 3.431478 1_565
Mg0_7 Tm3_3 3.540928 1_555
Mg0_7 Tm3_5 3.540928 1_565
