# generated using pymatgen
data_Ba4Li(RhO3)4
_symmetry_space_group_name_H-M   'P 1'
_cell_length_a   5.91854969
_cell_length_b   5.74349871
_cell_length_c   9.98939854
_cell_angle_alpha   90.00000196
_cell_angle_beta   93.76350905
_cell_angle_gamma   119.02633704
_symmetry_Int_Tables_number   1
_chemical_formula_structural   Ba4Li(RhO3)4
_chemical_formula_sum   'Ba4 Li1 Rh4 O12'
_cell_volume   296.08241046
_cell_formula_units_Z   1
loop_
 _symmetry_equiv_pos_site_id
 _symmetry_equiv_pos_as_xyz
  1  'x, y, z'
loop_
 _atom_site_type_symbol
 _atom_site_label
 _atom_site_symmetry_multiplicity
 _atom_site_fract_x
 _atom_site_fract_y
 _atom_site_fract_z
 _atom_site_occupancy
  Ba  Ba0  1  0.75064300  0.37532100  0.72406800  1
  Ba  Ba1  1  0.32419500  0.66209800  0.25159500  1
  Ba  Ba2  1  0.04566000  0.02283000  0.48528400  1
  Ba  Ba3  1  0.91904000  0.95952000  0.04548900  1
  Li  Li0  1  0.28313000  0.14156500  0.85087500  1
  Rh  Rh0  1  0.31462600  0.65731300  0.88798300  1
  Rh  Rh1  1  0.69078600  0.34539200  0.38748100  1
  Rh  Rh2  1  0.62712700  0.31356300  0.11153900  1
  Rh  Rh3  1  0.38256400  0.69128300  0.61383300  1
  O  O0  1  0.21266000  0.37088100  0.73306400  1
  O  O1  1  0.80648400  0.17483900  0.24679900  1
  O  O2  1  0.36564600  0.18282300  0.26373700  1
  O  O3  1  0.63708400  0.81854300  0.78489300  1
  O  O4  1  0.21266000  0.84178000  0.73306400  1
  O  O5  1  0.80648400  0.63164500  0.24679900  1
  O  O6  1  0.59029900  0.03556400  0.51170400  1
  O  O7  1  0.38207600  0.42181900  0.01154700  1
  O  O8  1  0.38207600  0.96025700  0.01154700  1
  O  O9  1  0.59029900  0.55473500  0.51170400  1
  O  O10  1  0.07568700  0.53784300  0.47236800  1
  O  O11  1  0.91327600  0.45663800  0.97712700  1
loop_
_geom_bond_atom_site_label_1
_geom_bond_atom_site_label_2
_geom_bond_distance
_geom_bond_site_symmetry_2
Ba0 O11 2.603702 1_555
Ba0 O6 2.673470 1_555
Ba0 O9 2.673473 1_555
Ba0 O0 2.742529 1_655
Ba0 O4 2.742535 1_655
Ba0 Li0 2.813980 1_555
Ba0 O3 3.002510 1_545
Ba0 O3 3.002526 1_555
Ba0 O10 3.128338 1_655
Ba0 O4 3.178965 1_545
Ba0 O0 3.178970 1_555
Ba1 O10 2.635060 1_555
Ba1 O2 2.881623 1_565
Ba1 O2 2.881629 1_555
Ba1 O8 2.887658 1_555
Ba1 O7 2.887661 1_555
Ba1 O1 2.946729 1_565
Ba1 O5 2.946732 1_555
Ba1 O5 2.980308 1_455
Ba1 O1 2.980310 1_455
Ba1 O6 3.165006 1_565
Ba1 O9 3.165008 1_555
Ba1 O11 3.341294 1_454
Ba2 O6 2.760996 1_455
Ba2 O9 2.760996 1_445
Ba2 O2 2.861887 1_555
Ba2 O10 2.879363 1_555
Ba2 O10 2.879369 1_545
Ba2 O4 2.976736 1_545
Ba2 O0 2.976739 1_555
Ba2 O1 3.032849 1_455
Ba2 O5 3.032849 1_445
Ba2 O6 3.182030 1_555
Ba2 O9 3.182030 1_555
Ba3 O1 2.644332 1_565
Ba3 O5 2.644332 1_555
Ba3 O8 2.781376 1_655
Ba3 O7 2.781376 1_665
Ba3 Li0 2.807078 1_664
Ba3 O3 2.887130 1_554
Ba3 O11 2.951461 1_554
Ba3 O11 2.951461 1_564
Ba3 O2 3.055900 1_665
Ba3 O8 3.175936 1_555
Ba3 O7 3.175936 1_555
Li0 O4 1.939658 1_545
Li0 O0 1.939662 1_555
Li0 O7 2.114668 1_556
Li0 O8 2.114668 1_546
O0 Rh3 2.043939 1_555
O0 Rh0 2.092720 1_555
O1 Rh1 2.044670 1_555
O1 Rh2 2.054218 1_555
O2 Rh1 2.011729 1_555
O2 Rh2 2.109873 1_555
O3 Rh0 2.025663 1_555
O3 Rh3 2.077739 1_555
O4 Rh3 2.043936 1_555
O4 Rh0 2.092723 1_555
O5 Rh1 2.044678 1_555
O5 Rh2 2.054222 1_555
O6 Rh1 2.032250 1_555
O6 Rh3 2.065889 1_545
O7 Rh0 1.992899 1_554
O7 Rh2 2.042731 1_555
O8 Rh0 1.992899 1_554
O8 Rh2 2.042727 1_565
O9 Rh1 2.032258 1_555
O9 Rh3 2.065896 1_555
O10 Rh3 2.045051 1_555
O10 Rh1 2.105523 1_455
O11 Rh2 2.072273 1_556
O11 Rh0 2.320519 1_655
