# generated using pymatgen
data_Li7Mn5O12
_symmetry_space_group_name_H-M   'P 1'
_cell_length_a   2.98553600
_cell_length_b   6.02330700
_cell_length_c   12.52867094
_cell_angle_alpha   76.54385797
_cell_angle_beta   90.00000000
_cell_angle_gamma   90.00000000
_symmetry_Int_Tables_number   1
_chemical_formula_structural   Li7Mn5O12
_chemical_formula_sum   'Li7 Mn5 O12'
_cell_volume   219.11570514
_cell_formula_units_Z   1
loop_
 _symmetry_equiv_pos_site_id
 _symmetry_equiv_pos_as_xyz
  1  'x, y, z'
loop_
 _atom_site_type_symbol
 _atom_site_label
 _atom_site_symmetry_multiplicity
 _atom_site_fract_x
 _atom_site_fract_y
 _atom_site_fract_z
 _atom_site_occupancy
  Li  Li0  1  0.00000000  0.31939000  0.34457200  1
  Li  Li1  1  0.50000000  0.16295100  0.16676300  1
  Li  Li2  1  0.00000000  0.00000000  0.00000000  1
  Li  Li3  1  0.50000000  0.83704900  0.83323700  1
  Li  Li4  1  0.00000000  0.68061000  0.65542800  1
  Li  Li5  1  0.50000000  0.50000000  0.50000000  1
  Li  Li6  1  0.50000000  0.00000000  0.50000000  1
  Mn  Mn0  1  0.00000000  0.16037900  0.65957500  1
  Mn  Mn1  1  0.00000000  0.83962100  0.34042500  1
  Mn  Mn2  1  0.50000000  0.67380500  0.16694700  1
  Mn  Mn3  1  0.00000000  0.50000000  0.00000000  1
  Mn  Mn4  1  0.50000000  0.32619500  0.83305300  1
  O  O0  1  0.00000000  0.90777800  0.17551100  1
  O  O1  1  0.50000000  0.74216700  0.00910000  1
  O  O2  1  0.00000000  0.57345300  0.84025200  1
  O  O3  1  0.50000000  0.38512700  0.67306400  1
  O  O4  1  0.00000000  0.24878800  0.51035300  1
  O  O5  1  0.50000000  0.05243500  0.33441900  1
  O  O6  1  0.00000000  0.75121200  0.48964700  1
  O  O7  1  0.50000000  0.61487300  0.32693600  1
  O  O8  1  0.00000000  0.42654700  0.15974800  1
  O  O9  1  0.50000000  0.25783300  0.99090000  1
  O  O10  1  0.00000000  0.09222200  0.82448900  1
  O  O11  1  0.50000000  0.94756500  0.66558100  1
loop_
_geom_bond_atom_site_label_1
_geom_bond_atom_site_label_2
_geom_bond_distance
_geom_bond_site_symmetry_2
Li0 O4 2.020832 1_555
Li0 O5 2.219288 1_555
Li0 O5 2.219288 1_455
Li0 O8 2.254553 1_555
Li0 O7 2.293859 1_455
Li0 O7 2.293859 1_555
Li1 O5 2.050488 1_555
Li1 O0 2.127039 1_545
Li1 O0 2.127039 1_645
Li1 O9 2.143651 1_554
Li1 O8 2.166100 1_555
Li1 O8 2.166100 1_655
Li2 O9 2.137939 1_554
Li2 O1 2.137939 1_445
Li2 O1 2.137939 1_545
Li2 O9 2.137939 1_454
Li2 O10 2.139004 1_554
Li2 O0 2.139004 1_545
Li3 O11 2.050488 1_555
Li3 O10 2.127039 1_565
Li3 O10 2.127039 1_665
Li3 O1 2.143651 1_556
Li3 O2 2.166100 1_655
Li3 O2 2.166100 1_555
Li4 O6 2.020832 1_555
Li4 O11 2.219288 1_455
Li4 O11 2.219288 1_555
Li4 O2 2.254553 1_555
Li4 O3 2.293859 1_455
Li4 O3 2.293859 1_555
Li5 O6 2.107935 1_555
Li5 O4 2.107935 1_655
Li5 O4 2.107935 1_555
Li5 O6 2.107935 1_655
Li5 O7 2.117046 1_555
Li5 O3 2.117046 1_555
Li6 O11 2.024453 1_545
Li6 O5 2.024453 1_555
Li6 O4 2.140379 1_655
Li6 O4 2.140379 1_555
Li6 O6 2.140379 1_545
Li6 O6 2.140379 1_645
Mn0 O4 1.820842 1_555
Mn0 O11 1.957614 1_445
Mn0 O11 1.957614 1_545
Mn0 O10 2.010662 1_555
Mn0 O3 2.048406 1_455
Mn0 O3 2.048406 1_555
Mn1 O6 1.820842 1_555
Mn1 O5 1.957614 1_565
Mn1 O5 1.957614 1_465
Mn1 O0 2.010662 1_555
Mn1 O7 2.048406 1_455
Mn1 O7 2.048406 1_555
Mn2 O1 1.923934 1_555
Mn2 O7 1.952609 1_555
Mn2 O0 2.072762 1_555
Mn2 O0 2.072762 1_655
Mn2 O8 2.125336 1_555
Mn2 O8 2.125336 1_655
Mn3 O2 1.946627 1_554
Mn3 O8 1.946627 1_555
Mn3 O1 2.108649 1_555
Mn3 O9 2.108649 1_554
Mn3 O1 2.108649 1_455
Mn3 O9 2.108649 1_454
Mn4 O9 1.923934 1_555
Mn4 O3 1.952609 1_555
Mn4 O10 2.072762 1_655
Mn4 O10 2.072762 1_555
Mn4 O2 2.125336 1_555
Mn4 O2 2.125336 1_655
