# generated using pymatgen
data_MgCuSb2O7
_symmetry_space_group_name_H-M   'P 1'
_cell_length_a   8.80671000
_cell_length_b   9.39483400
_cell_length_c   11.14023519
_cell_angle_alpha   78.80415428
_cell_angle_beta   90.00000000
_cell_angle_gamma   90.00000000
_symmetry_Int_Tables_number   1
_chemical_formula_structural   MgCuSb2O7
_chemical_formula_sum   'Mg6 Cu6 Sb12 O42'
_cell_volume   904.17512241
_cell_formula_units_Z   6
loop_
 _symmetry_equiv_pos_site_id
 _symmetry_equiv_pos_as_xyz
  1  'x, y, z'
loop_
 _atom_site_type_symbol
 _atom_site_label
 _atom_site_symmetry_multiplicity
 _atom_site_fract_x
 _atom_site_fract_y
 _atom_site_fract_z
 _atom_site_occupancy
  Mg  Mg0  1  0.44722000  0.84184600  0.58566400  1
  Mg  Mg1  1  0.94068800  0.50000000  0.75000000  1
  Mg  Mg2  1  0.44722000  0.15815400  0.91433600  1
  Mg  Mg3  1  0.05931200  0.50000000  0.25000000  1
  Mg  Mg4  1  0.55278000  0.15815400  0.41433600  1
  Mg  Mg5  1  0.55278000  0.84184600  0.08566400  1
  Cu  Cu0  1  0.92905400  0.19629600  0.41167200  1
  Cu  Cu1  1  0.07094600  0.80370400  0.58832800  1
  Cu  Cu2  1  0.43293100  0.50000000  0.25000000  1
  Cu  Cu3  1  0.92905400  0.80370400  0.08832800  1
  Cu  Cu4  1  0.56706900  0.50000000  0.75000000  1
  Cu  Cu5  1  0.07094600  0.19629600  0.91167200  1
  Sb  Sb0  1  0.22975700  0.80391300  0.29727300  1
  Sb  Sb1  1  0.75806900  0.85591700  0.37523400  1
  Sb  Sb2  1  0.24193100  0.85591700  0.87523400  1
  Sb  Sb3  1  0.77024300  0.80391300  0.79727300  1
  Sb  Sb4  1  0.27038100  0.46367600  0.96213300  1
  Sb  Sb5  1  0.75806900  0.14408300  0.12476600  1
  Sb  Sb6  1  0.72961900  0.46367600  0.46213300  1
  Sb  Sb7  1  0.24193100  0.14408300  0.62476600  1
  Sb  Sb8  1  0.27038100  0.53632400  0.53786700  1
  Sb  Sb9  1  0.72961900  0.53632400  0.03786700  1
  Sb  Sb10  1  0.77024300  0.19608700  0.70272700  1
  Sb  Sb11  1  0.22975700  0.19608700  0.20272700  1
  O  O0  1  0.74724600  0.77691900  0.97925300  1
  O  O1  1  0.77007100  0.12465700  0.30288300  1
  O  O2  1  0.85019300  0.00000000  0.75000000  1
  O  O3  1  0.92119100  0.53530900  0.10823100  1
  O  O4  1  0.39875300  0.06210000  0.54460300  1
  O  O5  1  0.92384000  0.72356700  0.70791900  1
  O  O6  1  0.33371600  0.66536300  0.93208200  1
  O  O7  1  0.07880900  0.53530900  0.60823100  1
  O  O8  1  0.73853600  0.55974100  0.85709600  1
  O  O9  1  0.39875300  0.93790000  0.95539700  1
  O  O10  1  0.73853600  0.44025900  0.64290400  1
  O  O11  1  0.43679900  0.39617200  0.87648100  1
  O  O12  1  0.96031300  0.15137300  0.06379000  1
  O  O13  1  0.07616000  0.72356700  0.20791900  1
  O  O14  1  0.66628400  0.33463700  0.06791800  1
  O  O15  1  0.33371600  0.33463700  0.56791800  1
  O  O16  1  0.92384000  0.27643300  0.79208100  1
  O  O17  1  0.60124700  0.93790000  0.45539700  1
  O  O18  1  0.25275400  0.77691900  0.47925300  1
  O  O19  1  0.56320100  0.60382800  0.12351900  1
  O  O20  1  0.42632100  0.18848200  0.26562200  1
  O  O21  1  0.26146400  0.44025900  0.14290400  1
  O  O22  1  0.03968700  0.15137300  0.56379000  1
  O  O23  1  0.26146400  0.55974100  0.35709600  1
  O  O24  1  0.92119100  0.46469100  0.39176900  1
  O  O25  1  0.56320100  0.39617200  0.37648100  1
  O  O26  1  0.07880900  0.46469100  0.89176900  1
  O  O27  1  0.57367900  0.18848200  0.76562200  1
  O  O28  1  0.57367900  0.81151800  0.73437800  1
  O  O29  1  0.03968700  0.84862700  0.93621000  1
  O  O30  1  0.07616000  0.27643300  0.29208100  1
  O  O31  1  0.74724600  0.22308100  0.52074700  1
  O  O32  1  0.14980700  0.00000000  0.25000000  1
  O  O33  1  0.22992900  0.12465700  0.80288300  1
  O  O34  1  0.60124700  0.06210000  0.04460300  1
  O  O35  1  0.96031300  0.84862700  0.43621000  1
  O  O36  1  0.25275400  0.22308100  0.02074700  1
  O  O37  1  0.77007100  0.87534300  0.19711700  1
  O  O38  1  0.43679900  0.60382800  0.62351900  1
  O  O39  1  0.66628400  0.66536300  0.43208200  1
  O  O40  1  0.22992900  0.87534300  0.69711700  1
  O  O41  1  0.42632100  0.81151800  0.23437800  1
loop_
_geom_bond_atom_site_label_1
_geom_bond_atom_site_label_2
_geom_bond_distance
_geom_bond_site_symmetry_2
Mg0 O28 1.970498 1_555
Mg0 O17 2.061992 1_555
Mg0 O4 2.075008 1_565
Mg0 O38 2.195539 1_555
Mg0 O18 2.234092 1_555
Mg0 O40 2.335446 1_555
Mg1 O26 1.969903 1_655
Mg1 O7 1.969903 1_655
Mg1 O5 2.066638 1_555
Mg1 O16 2.066638 1_555
Mg1 O8 2.273305 1_555
Mg1 O10 2.273305 1_555
Mg2 O27 1.970498 1_555
Mg2 O34 2.061992 1_556
Mg2 O9 2.075008 1_545
Mg2 O11 2.195539 1_555
Mg2 O36 2.234092 1_556
Mg2 O33 2.335446 1_555
Mg3 O24 1.969903 1_455
Mg3 O3 1.969903 1_455
Mg3 O13 2.066638 1_555
Mg3 O30 2.066638 1_555
Mg3 O23 2.273305 1_555
Mg3 O21 2.273305 1_555
Mg4 O20 1.970498 1_555
Mg4 O4 2.061992 1_555
Mg4 O17 2.075008 1_545
Mg4 O25 2.195539 1_555
Mg4 O31 2.234092 1_555
Mg4 O1 2.335446 1_555
Mg5 O41 1.970498 1_555
Mg5 O9 2.061992 1_554
Mg5 O34 2.075008 1_565
Mg5 O19 2.195539 1_555
Mg5 O0 2.234092 1_554
Mg5 O37 2.335446 1_555
Cu0 O30 1.905423 1_655
Cu0 O22 1.929104 1_655
Cu0 O1 2.049108 1_555
Cu0 O31 2.054799 1_555
Cu0 O24 2.488965 1_555
Cu1 O5 1.905423 1_455
Cu1 O35 1.929104 1_455
Cu1 O40 2.049108 1_555
Cu1 O18 2.054799 1_555
Cu1 O7 2.488965 1_555
Cu2 O25 1.928552 1_555
Cu2 O19 1.928552 1_555
Cu2 O23 2.068514 1_555
Cu2 O21 2.068514 1_555
Cu3 O13 1.905423 1_655
Cu3 O29 1.929104 1_654
Cu3 O37 2.049108 1_555
Cu3 O0 2.054799 1_554
Cu3 O3 2.488965 1_555
Cu4 O11 1.928552 1_555
Cu4 O38 1.928552 1_555
Cu4 O8 2.068514 1_555
Cu4 O10 2.068514 1_555
Cu5 O16 1.905423 1_455
Cu5 O12 1.929104 1_456
Cu5 O33 2.049108 1_555
Cu5 O36 2.054799 1_556
Cu5 O26 2.488965 1_555
O0 Sb3 2.003903 1_555
O0 Sb9 2.233048 1_556
O1 Sb5 1.959888 1_555
O1 Sb1 2.499007 1_545
O2 Sb10 1.946811 1_555
O2 Sb3 1.946811 1_545
O3 Sb9 1.859573 1_555
O4 Sb7 1.888186 1_555
O5 Sb3 1.918902 1_555
O6 Sb4 1.940923 1_555
O6 Sb2 1.954249 1_555
O7 Sb8 1.859573 1_555
O8 Sb9 1.984449 1_556
O8 Sb3 2.278306 1_555
O9 Sb2 1.888186 1_555
O10 Sb6 1.984449 1_555
O10 Sb10 2.278306 1_555
O11 Sb4 1.922399 1_555
O12 Sb5 1.902732 1_555
O13 Sb0 1.918902 1_555
O14 Sb9 1.940923 1_555
O14 Sb5 1.954249 1_555
O15 Sb8 1.940923 1_555
O15 Sb7 1.954249 1_555
O16 Sb10 1.918902 1_555
O17 Sb1 1.888186 1_555
O18 Sb0 2.003903 1_555
O18 Sb8 2.233048 1_555
O19 Sb9 1.922399 1_555
O20 Sb11 1.863664 1_555
O21 Sb4 1.984449 1_554
O21 Sb11 2.278306 1_555
O22 Sb7 1.902732 1_555
O23 Sb8 1.984449 1_555
O23 Sb0 2.278306 1_555
O24 Sb6 1.859573 1_555
O25 Sb6 1.922399 1_555
O26 Sb4 1.859573 1_555
O27 Sb10 1.863664 1_555
O28 Sb3 1.863664 1_555
O29 Sb2 1.902732 1_555
O30 Sb11 1.918902 1_555
O31 Sb10 2.003903 1_555
O31 Sb6 2.233048 1_555
O32 Sb11 1.946811 1_555
O32 Sb0 1.946811 1_545
O33 Sb7 1.959888 1_555
O33 Sb2 2.499007 1_545
O34 Sb5 1.888186 1_555
O35 Sb1 1.902732 1_555
O36 Sb11 2.003903 1_555
O36 Sb4 2.233048 1_554
O37 Sb1 1.959888 1_555
O37 Sb5 2.499007 1_565
O38 Sb8 1.922399 1_555
O39 Sb6 1.940923 1_555
O39 Sb1 1.954249 1_555
O40 Sb2 1.959888 1_555
O40 Sb7 2.499007 1_565
O41 Sb0 1.863664 1_555
