# generated using pymatgen
data_Hf3Fe2Si3
_symmetry_space_group_name_H-M   'P 1'
_cell_length_a   3.85383300
_cell_length_b   5.31724251
_cell_length_c   12.85682900
_cell_angle_alpha   90.00000000
_cell_angle_beta   90.00000000
_cell_angle_gamma   111.24705246
_symmetry_Int_Tables_number   1
_chemical_formula_structural   Hf3Fe2Si3
_chemical_formula_sum   'Hf6 Fe4 Si6'
_cell_volume   245.55087963
_cell_formula_units_Z   2
loop_
 _symmetry_equiv_pos_site_id
 _symmetry_equiv_pos_as_xyz
  1  'x, y, z'
loop_
 _atom_site_type_symbol
 _atom_site_label
 _atom_site_symmetry_multiplicity
 _atom_site_fract_x
 _atom_site_fract_y
 _atom_site_fract_z
 _atom_site_occupancy
  Hf  Hf0  1  0.07796800  0.15593500  0.38664300  1
  Hf  Hf1  1  0.92203200  0.84406500  0.61335700  1
  Hf  Hf2  1  0.07796800  0.15593500  0.11335700  1
  Hf  Hf3  1  0.92203200  0.84406500  0.88664300  1
  Hf  Hf4  1  0.36316500  0.72633000  0.25000000  1
  Hf  Hf5  1  0.63683500  0.27367000  0.75000000  1
  Fe  Fe0  1  0.21972300  0.43944600  0.91847300  1
  Fe  Fe1  1  0.78027700  0.56055400  0.08152700  1
  Fe  Fe2  1  0.21972300  0.43944600  0.58152700  1
  Fe  Fe3  1  0.78027700  0.56055400  0.41847300  1
  Si  Si0  1  0.38834900  0.77669800  0.45756500  1
  Si  Si1  1  0.61165100  0.22330200  0.54243500  1
  Si  Si2  1  0.38834900  0.77669800  0.04243500  1
  Si  Si3  1  0.61165100  0.22330200  0.95756500  1
  Si  Si4  1  0.66356100  0.32712200  0.25000000  1
  Si  Si5  1  0.33643900  0.67287800  0.75000000  1
loop_
_geom_bond_atom_site_label_1
_geom_bond_atom_site_label_2
_geom_bond_distance
_geom_bond_site_symmetry_2
Hf0 Si4 2.742091 1_555
Hf0 Si4 2.742094 1_455
Hf0 Si1 2.799363 1_555
Hf0 Si1 2.799366 1_455
Hf0 Si0 2.841950 1_545
Hf0 Si0 2.841953 1_445
Hf1 Si5 2.742091 1_555
Hf1 Si5 2.742094 1_655
Hf1 Si0 2.799363 1_555
Hf1 Si0 2.799366 1_655
Hf1 Si1 2.841950 1_565
Hf1 Si1 2.841953 1_665
Hf2 Si4 2.742091 1_555
Hf2 Si4 2.742094 1_455
Hf2 Si3 2.799363 1_554
Hf2 Si3 2.799366 1_454
Hf2 Si2 2.841950 1_545
Hf2 Si2 2.841953 1_445
Hf3 Si5 2.742091 1_555
Hf3 Si5 2.742094 1_655
Hf3 Si2 2.799363 1_556
Hf3 Si2 2.799366 1_656
Hf3 Si3 2.841950 1_565
Hf3 Si3 2.841953 1_665
Hf4 Si2 2.680276 1_555
Hf4 Si0 2.680276 1_555
Hf4 Si4 2.761715 1_555
Hf4 Si4 2.761715 1_455
Hf4 Si4 2.977412 1_565
Hf5 Si3 2.680276 1_555
Hf5 Si1 2.680276 1_555
Hf5 Si5 2.761715 1_555
Hf5 Si5 2.761715 1_655
Hf5 Si5 2.977412 1_545
Fe0 Si3 2.261198 1_555
Fe0 Si3 2.261198 1_455
Fe0 Si2 2.309437 1_556
Fe0 Si5 2.455600 1_555
Fe0 Hf3 2.810936 1_555
Fe0 Hf3 2.810938 1_455
Fe0 Hf2 2.872644 1_556
Fe0 Hf3 2.978840 1_445
Fe0 Hf5 3.013244 1_555
Fe0 Hf5 3.013244 1_455
Fe1 Si2 2.261198 1_555
Fe1 Si2 2.261198 1_655
Fe1 Si3 2.309437 1_554
Fe1 Si4 2.455600 1_555
Fe1 Hf2 2.810936 1_555
Fe1 Hf2 2.810938 1_655
Fe1 Hf3 2.872644 1_554
Fe1 Hf2 2.978840 1_665
Fe1 Hf4 3.013244 1_555
Fe1 Hf4 3.013244 1_655
Fe2 Si1 2.261198 1_555
Fe2 Si1 2.261198 1_455
Fe2 Si0 2.309437 1_555
Fe2 Si5 2.455600 1_555
Fe2 Hf1 2.810936 1_555
Fe2 Hf1 2.810938 1_455
Fe2 Hf0 2.872644 1_555
Fe2 Hf1 2.978840 1_445
Fe2 Hf5 3.013244 1_555
Fe2 Hf5 3.013244 1_455
Fe3 Si0 2.261198 1_555
Fe3 Si0 2.261198 1_655
Fe3 Si1 2.309437 1_555
Fe3 Si4 2.455600 1_555
Fe3 Hf0 2.810936 1_555
Fe3 Hf0 2.810938 1_655
Fe3 Hf1 2.872644 1_555
Fe3 Hf0 2.978840 1_665
Fe3 Hf4 3.013244 1_555
Fe3 Hf4 3.013244 1_655
Si0 Si1 2.467642 1_565
Si2 Si3 2.467642 1_564
