# generated using pymatgen
data_CdSiN2
_symmetry_space_group_name_H-M   'P 1'
_cell_length_a   5.31335900
_cell_length_b   10.64369100
_cell_length_c   13.87301600
_cell_angle_alpha   90.00000000
_cell_angle_beta   90.00000000
_cell_angle_gamma   90.00000000
_symmetry_Int_Tables_number   1
_chemical_formula_structural   CdSiN2
_chemical_formula_sum   'Cd16 Si16 N32'
_cell_volume   784.57109759
_cell_formula_units_Z   16
loop_
 _symmetry_equiv_pos_site_id
 _symmetry_equiv_pos_as_xyz
  1  'x, y, z'
loop_
 _atom_site_type_symbol
 _atom_site_label
 _atom_site_symmetry_multiplicity
 _atom_site_fract_x
 _atom_site_fract_y
 _atom_site_fract_z
 _atom_site_occupancy
  Cd  Cd0  1  0.72670500  0.97769800  0.43859200  1
  Cd  Cd1  1  0.22670500  0.52230200  0.56140800  1
  Cd  Cd2  1  0.27329500  0.47769800  0.06140800  1
  Cd  Cd3  1  0.77329500  0.02230200  0.93859200  1
  Cd  Cd4  1  0.27329500  0.02230200  0.56140800  1
  Cd  Cd5  1  0.77329500  0.47769800  0.43859200  1
  Cd  Cd6  1  0.72670500  0.52230200  0.93859200  1
  Cd  Cd7  1  0.22670500  0.97769800  0.06140800  1
  Cd  Cd8  1  0.79130400  0.25581600  0.31200000  1
  Cd  Cd9  1  0.29130400  0.24418400  0.68800000  1
  Cd  Cd10  1  0.20869600  0.75581600  0.18800000  1
  Cd  Cd11  1  0.70869600  0.74418400  0.81200000  1
  Cd  Cd12  1  0.20869600  0.74418400  0.68800000  1
  Cd  Cd13  1  0.70869600  0.75581600  0.31200000  1
  Cd  Cd14  1  0.79130400  0.24418400  0.81200000  1
  Cd  Cd15  1  0.29130400  0.25581600  0.18800000  1
  Si  Si0  1  0.69035700  0.02209800  0.18735700  1
  Si  Si1  1  0.19035700  0.47790200  0.81264300  1
  Si  Si2  1  0.30964300  0.52209800  0.31264300  1
  Si  Si3  1  0.80964300  0.97790200  0.68735700  1
  Si  Si4  1  0.30964300  0.97790200  0.81264300  1
  Si  Si5  1  0.80964300  0.52209800  0.18735700  1
  Si  Si6  1  0.69035700  0.47790200  0.68735700  1
  Si  Si7  1  0.19035700  0.02209800  0.31264300  1
  Si  Si8  1  0.78716100  0.27724500  0.06176900  1
  Si  Si9  1  0.28716100  0.22275500  0.93823100  1
  Si  Si10  1  0.21283900  0.77724500  0.43823100  1
  Si  Si11  1  0.71283900  0.72275500  0.56176900  1
  Si  Si12  1  0.21283900  0.72275500  0.93823100  1
  Si  Si13  1  0.71283900  0.77724500  0.06176900  1
  Si  Si14  1  0.78716100  0.22275500  0.56176900  1
  Si  Si15  1  0.28716100  0.27724500  0.43823100  1
  N  N0  1  0.62366000  0.48340600  0.28712100  1
  N  N1  1  0.12366000  0.01659400  0.71287900  1
  N  N2  1  0.37634000  0.98340600  0.21287900  1
  N  N3  1  0.87634000  0.51659400  0.78712100  1
  N  N4  1  0.37634000  0.51659400  0.71287900  1
  N  N5  1  0.87634000  0.98340600  0.28712100  1
  N  N6  1  0.62366000  0.01659400  0.78712100  1
  N  N7  1  0.12366000  0.48340600  0.21287900  1
  N  N8  1  0.61346100  0.26738000  0.46038600  1
  N  N9  1  0.11346100  0.23262000  0.53961400  1
  N  N10  1  0.38653900  0.76738000  0.03961400  1
  N  N11  1  0.88653900  0.73262000  0.96038600  1
  N  N12  1  0.38653900  0.73262000  0.53961400  1
  N  N13  1  0.88653900  0.76738000  0.46038600  1
  N  N14  1  0.61346100  0.23262000  0.96038600  1
  N  N15  1  0.11346100  0.26738000  0.03961400  1
  N  N16  1  0.71130800  0.43541700  0.08639200  1
  N  N17  1  0.21130800  0.06458300  0.91360800  1
  N  N18  1  0.28869200  0.93541700  0.41360800  1
  N  N19  1  0.78869200  0.56458300  0.58639200  1
  N  N20  1  0.28869200  0.56458300  0.91360800  1
  N  N21  1  0.78869200  0.93541700  0.08639200  1
  N  N22  1  0.71130800  0.06458300  0.58639200  1
  N  N23  1  0.21130800  0.43541700  0.41360800  1
  N  N24  1  0.70483500  0.18509900  0.16231500  1
  N  N25  1  0.20483500  0.31490100  0.83768500  1
  N  N26  1  0.29516500  0.68509900  0.33768500  1
  N  N27  1  0.79516500  0.81490100  0.66231500  1
  N  N28  1  0.29516500  0.81490100  0.83768500  1
  N  N29  1  0.79516500  0.68509900  0.16231500  1
  N  N30  1  0.70483500  0.31490100  0.66231500  1
  N  N31  1  0.20483500  0.18509900  0.33768500  1
loop_
_geom_bond_atom_site_label_1
_geom_bond_atom_site_label_2
_geom_bond_distance
_geom_bond_site_symmetry_2
Cd0 N5 2.247561 1_555
Cd0 N22 2.250817 1_565
Cd0 N18 2.395637 1_555
Cd0 N13 2.413255 1_555
Cd1 N4 2.247561 1_555
Cd1 N23 2.250817 1_555
Cd1 N19 2.395637 1_455
Cd1 N12 2.413255 1_555
Cd2 N7 2.247561 1_555
Cd2 N20 2.250817 1_554
Cd2 N16 2.395637 1_555
Cd2 N15 2.413255 1_555
Cd3 N6 2.247561 1_555
Cd3 N21 2.250817 1_546
Cd3 N17 2.395637 1_655
Cd3 N14 2.413255 1_555
Cd4 N1 2.247561 1_555
Cd4 N18 2.250817 1_545
Cd4 N22 2.395637 1_555
Cd4 N9 2.413255 1_555
Cd5 N0 2.247561 1_555
Cd5 N19 2.250817 1_555
Cd5 N23 2.395637 1_655
Cd5 N8 2.413255 1_555
Cd6 N3 2.247561 1_555
Cd6 N16 2.250817 1_556
Cd6 N20 2.395637 1_555
Cd6 N11 2.413255 1_555
Cd7 N2 2.247561 1_555
Cd7 N17 2.250817 1_564
Cd7 N21 2.395637 1_455
Cd7 N10 2.413255 1_555
Cd8 N24 2.256063 1_555
Cd8 N8 2.268423 1_555
Cd8 N31 2.349760 1_655
Cd8 N0 2.603954 1_555
Cd9 N25 2.256063 1_555
Cd9 N9 2.268423 1_555
Cd9 N30 2.349760 1_555
Cd9 N1 2.603954 1_555
Cd10 N26 2.256063 1_555
Cd10 N10 2.268423 1_555
Cd10 N29 2.349760 1_455
Cd10 N2 2.603954 1_555
Cd11 N27 2.256063 1_555
Cd11 N11 2.268423 1_555
Cd11 N28 2.349760 1_555
Cd11 N3 2.603954 1_555
Cd12 N28 2.256063 1_555
Cd12 N12 2.268423 1_555
Cd12 N27 2.349760 1_455
Cd12 N4 2.603954 1_555
Cd13 N29 2.256063 1_555
Cd13 N13 2.268423 1_555
Cd13 N26 2.349760 1_555
Cd13 N5 2.603954 1_555
Cd14 N30 2.256063 1_555
Cd14 N14 2.268423 1_555
Cd14 N25 2.349760 1_655
Cd14 N6 2.603954 1_555
Cd15 N31 2.256063 1_555
Cd15 N15 2.268423 1_555
Cd15 N24 2.349760 1_555
Cd15 N7 2.603954 1_555
N0 Si5 1.749760 1_555
N0 Si2 1.754653 1_555
N1 Si4 1.749760 1_545
N1 Si3 1.754653 1_445
N2 Si7 1.749760 1_565
N2 Si0 1.754653 1_565
N3 Si6 1.749760 1_555
N3 Si1 1.754653 1_655
N4 Si1 1.749760 1_555
N4 Si6 1.754653 1_555
N5 Si0 1.749760 1_565
N5 Si7 1.754653 1_665
N6 Si3 1.749760 1_545
N6 Si4 1.754653 1_545
N7 Si2 1.749760 1_555
N7 Si5 1.754653 1_455
N8 Si14 1.748030 1_555
N8 Si15 1.763910 1_555
N9 Si15 1.748030 1_555
N9 Si14 1.763910 1_455
N10 Si12 1.748030 1_554
N10 Si13 1.763910 1_555
N11 Si13 1.748030 1_556
N11 Si12 1.763910 1_655
N12 Si10 1.748030 1_555
N12 Si11 1.763910 1_555
N13 Si11 1.748030 1_555
N13 Si10 1.763910 1_655
N14 Si8 1.748030 1_556
N14 Si9 1.763910 1_555
N15 Si9 1.748030 1_554
N15 Si8 1.763910 1_455
N16 Si5 1.756737 1_555
N16 Si8 1.764486 1_555
N17 Si4 1.756737 1_545
N17 Si9 1.764486 1_555
N18 Si7 1.756737 1_565
N18 Si10 1.764486 1_555
N19 Si6 1.756737 1_555
N19 Si11 1.764486 1_555
N20 Si1 1.756737 1_555
N20 Si12 1.764486 1_555
N21 Si0 1.756737 1_565
N21 Si13 1.764486 1_555
N22 Si3 1.756737 1_545
N22 Si14 1.764486 1_555
N23 Si2 1.756737 1_555
N23 Si15 1.764486 1_555
N24 Si8 1.760380 1_555
N24 Si0 1.771045 1_555
N25 Si9 1.760380 1_555
N25 Si1 1.771045 1_555
N26 Si10 1.760380 1_555
N26 Si2 1.771045 1_555
N27 Si11 1.760380 1_555
N27 Si3 1.771045 1_555
N28 Si12 1.760380 1_555
N28 Si4 1.771045 1_555
N29 Si13 1.760380 1_555
N29 Si5 1.771045 1_555
N30 Si14 1.760380 1_555
N30 Si6 1.771045 1_555
N31 Si15 1.760380 1_555
N31 Si7 1.771045 1_555
