# generated using pymatgen
data_BaCoH2C3ClO8
_symmetry_space_group_name_H-M   'P 1'
_cell_length_a   8.21159400
_cell_length_b   9.81062494
_cell_length_c   12.30181677
_cell_angle_alpha   102.61388308
_cell_angle_beta   70.50313161
_cell_angle_gamma   90.00000000
_symmetry_Int_Tables_number   1
_chemical_formula_structural   BaCoH2C3ClO8
_chemical_formula_sum   'Ba4 Co4 H8 C12 Cl4 O32'
_cell_volume   908.80380656
_cell_formula_units_Z   4
loop_
 _symmetry_equiv_pos_site_id
 _symmetry_equiv_pos_as_xyz
  1  'x, y, z'
loop_
 _atom_site_type_symbol
 _atom_site_label
 _atom_site_symmetry_multiplicity
 _atom_site_fract_x
 _atom_site_fract_y
 _atom_site_fract_z
 _atom_site_occupancy
  Ba  Ba0  1  0.71154000  0.76067300  0.20341500  1
  Ba  Ba1  1  0.91495500  0.73932700  0.79658500  1
  Ba  Ba2  1  0.28846000  0.23932700  0.79658500  1
  Ba  Ba3  1  0.08504500  0.26067300  0.20341500  1
  Co  Co0  1  0.50693300  0.40853700  0.28975600  1
  Co  Co1  1  0.79668900  0.09146300  0.71024400  1
  Co  Co2  1  0.49306700  0.59146300  0.71024400  1
  Co  Co3  1  0.20331100  0.90853700  0.28975600  1
  H  H0  1  0.52568500  0.83033500  0.01608700  1
  H  H1  1  0.54177200  0.66966500  0.98391300  1
  H  H2  1  0.47431500  0.16966500  0.98391300  1
  H  H3  1  0.45822800  0.33033500  0.01608700  1
  H  H4  1  0.10342600  0.67158300  0.97153200  1
  H  H5  1  0.07495800  0.82841700  0.02846800  1
  H  H6  1  0.89657400  0.32841700  0.02846800  1
  H  H7  1  0.92504200  0.17158300  0.97153200  1
  C  C0  1  0.49125200  0.10925400  0.25490500  1
  C  C1  1  0.74615800  0.39074600  0.74509500  1
  C  C2  1  0.50874800  0.89074600  0.74509500  1
  C  C3  1  0.25384200  0.60925400  0.25490500  1
  C  C4  1  0.61332700  0.65445900  0.45296800  1
  C  C5  1  0.06629600  0.84554100  0.54703200  1
  C  C6  1  0.38667300  0.34554100  0.54703200  1
  C  C7  1  0.93370400  0.15445900  0.45296800  1
  C  C8  1  0.68296400  0.13678800  0.23815600  1
  C  C9  1  0.92112000  0.36321200  0.76184400  1
  C  C10  1  0.31703600  0.86321200  0.76184400  1
  C  C11  1  0.07888000  0.63678800  0.23815600  1
  Cl  Cl0  1  0.65357500  0.44523300  0.08458100  1
  Cl  Cl1  1  0.73815700  0.05476700  0.91541900  1
  Cl  Cl2  1  0.34642500  0.55476700  0.91541900  1
  Cl  Cl3  1  0.26184300  0.94523300  0.08458100  1
  O  O0  1  0.71367200  0.26645000  0.25523600  1
  O  O1  1  0.96890800  0.23355000  0.74476400  1
  O  O2  1  0.28632800  0.73355000  0.74476400  1
  O  O3  1  0.03109200  0.76645000  0.25523600  1
  O  O4  1  0.79620300  0.03673200  0.20715600  1
  O  O5  1  0.00336000  0.46326800  0.79284400  1
  O  O6  1  0.20379700  0.96326800  0.79284400  1
  O  O7  1  0.99664000  0.53673200  0.20715600  1
  O  O8  1  0.62007000  0.59540100  0.53393200  1
  O  O9  1  0.15400200  0.90459900  0.46606800  1
  O  O10  1  0.37993000  0.40459900  0.46606800  1
  O  O11  1  0.84599800  0.09540100  0.53393200  1
  O  O12  1  0.60969000  0.75000000  0.00000000  1
  O  O13  1  0.39031000  0.25000000  0.00000000  1
  O  O14  1  0.01163400  0.75000000  0.00000000  1
  O  O15  1  0.98836600  0.25000000  0.00000000  1
  O  O16  1  0.44561000  0.98817700  0.26702400  1
  O  O17  1  0.71263400  0.51182300  0.73297600  1
  O  O18  1  0.55439000  0.01182300  0.73297600  1
  O  O19  1  0.28736600  0.48817700  0.26702400  1
  O  O20  1  0.39812700  0.21103400  0.25304400  1
  O  O21  1  0.65117100  0.28896600  0.74695600  1
  O  O22  1  0.60187300  0.78896600  0.74695600  1
  O  O23  1  0.34882900  0.71103400  0.25304400  1
  O  O24  1  0.59628200  0.57859900  0.35552500  1
  O  O25  1  0.95180700  0.92140100  0.64447500  1
  O  O26  1  0.40371800  0.42140100  0.64447500  1
  O  O27  1  0.04819300  0.07859900  0.35552500  1
  O  O28  1  0.63173900  0.78349300  0.45651000  1
  O  O29  1  0.08825000  0.71650700  0.54349000  1
  O  O30  1  0.36826100  0.21650700  0.54349000  1
  O  O31  1  0.91175000  0.28349300  0.45651000  1
loop_
_geom_bond_atom_site_label_1
_geom_bond_atom_site_label_2
_geom_bond_distance
_geom_bond_site_symmetry_2
Ba0 O4 2.790576 1_565
Ba0 O24 2.804582 1_555
Ba0 O14 2.848638 1_655
Ba0 O12 2.873133 1_555
Ba0 O3 2.897582 1_655
Ba0 O23 2.897762 1_555
Ba0 O16 2.908454 1_555
Ba0 O28 2.916717 1_555
Ba0 O7 3.228913 1_555
Ba0 Cl0 3.229420 1_555
Ba1 O5 2.790578 1_655
Ba1 O25 2.804582 1_555
Ba1 O14 2.848638 1_656
Ba1 O12 2.873133 1_556
Ba1 O2 2.897582 1_655
Ba1 O22 2.897762 1_555
Ba1 O17 2.908454 1_555
Ba1 O29 2.916719 1_655
Ba1 O6 3.228919 1_655
Ba1 Cl1 3.229417 1_565
Ba2 O6 2.790576 1_545
Ba2 O26 2.804582 1_555
Ba2 O15 2.848638 1_456
Ba2 O13 2.873133 1_556
Ba2 O1 2.897582 1_455
Ba2 O21 2.897762 1_555
Ba2 O18 2.908454 1_555
Ba2 O30 2.916717 1_555
Ba2 O5 3.228913 1_555
Ba2 Cl2 3.229420 1_555
Ba3 O7 2.790578 1_455
Ba3 O27 2.804582 1_555
Ba3 O15 2.848638 1_455
Ba3 O13 2.873133 1_555
Ba3 O0 2.897582 1_455
Ba3 O20 2.897762 1_555
Ba3 O19 2.908454 1_555
Ba3 O31 2.916719 1_455
Ba3 O4 3.228919 1_455
Ba3 Cl3 3.229417 1_545
Co0 O24 1.945045 1_555
Co0 O0 2.065366 1_555
Co0 O10 2.078508 1_555
Co0 O19 2.090798 1_555
Co0 O20 2.154949 1_555
Co1 O25 1.945045 1_545
Co1 O1 2.065366 1_555
Co1 O11 2.078508 1_555
Co1 O18 2.090798 1_555
Co1 O21 2.154949 1_555
Co2 O26 1.945045 1_555
Co2 O2 2.065366 1_555
Co2 O8 2.078508 1_555
Co2 O17 2.090798 1_555
Co2 O22 2.154949 1_555
Co3 O27 1.945045 1_565
Co3 O3 2.065366 1_555
Co3 O9 2.078508 1_555
Co3 O16 2.090798 1_555
Co3 O23 2.154949 1_555
H0 O12 0.988393 1_555
H1 O12 0.988393 1_556
H2 O13 0.988393 1_556
H3 O13 0.988393 1_555
H4 O14 0.994371 1_556
H5 O14 0.994371 1_555
H6 O15 0.994371 1_555
H7 O15 0.994371 1_556
C0 O20 1.266499 1_555
C0 O16 1.270319 1_545
C1 O21 1.266504 1_555
C1 O17 1.270321 1_555
C2 O22 1.266499 1_555
C2 O18 1.270319 1_565
C3 O23 1.266504 1_555
C3 O19 1.270321 1_555
C4 O28 1.267903 1_555
C4 O8 1.272654 1_555
C4 O24 1.316346 1_555
C5 O29 1.267903 1_555
C5 O9 1.272652 1_555
C5 O25 1.316350 1_455
C6 O30 1.267903 1_555
C6 O10 1.272654 1_555
C6 O26 1.316346 1_555
C7 O31 1.267903 1_555
C7 O11 1.272652 1_555
C7 O27 1.316350 1_655
C8 O4 1.254373 1_555
C8 O0 1.282386 1_555
C9 O5 1.254378 1_655
C9 O1 1.282386 1_555
C10 O6 1.254373 1_555
C10 O2 1.282386 1_555
C11 O7 1.254378 1_455
C11 O3 1.282386 1_555
Cl0 H6 2.122876 1_555
Cl0 Co0 2.513643 1_555
Cl1 H7 2.122869 1_555
Cl1 Co1 2.513645 1_555
Cl2 H4 2.122876 1_555
Cl2 Co2 2.513643 1_555
Cl3 H5 2.122869 1_555
Cl3 Co3 2.513645 1_555
