# generated using pymatgen
data_Ca11Sn3C8
_symmetry_space_group_name_H-M   'P 1'
_cell_length_a   10.72332700
_cell_length_b   13.25063200
_cell_length_c   14.27899588
_cell_angle_alpha   74.31482811
_cell_angle_beta   90.00000000
_cell_angle_gamma   90.00000000
_symmetry_Int_Tables_number   1
_chemical_formula_structural   Ca11Sn3C8
_chemical_formula_sum   'Ca44 Sn12 C32'
_cell_volume   1953.36155757
_cell_formula_units_Z   4
loop_
 _symmetry_equiv_pos_site_id
 _symmetry_equiv_pos_as_xyz
  1  'x, y, z'
loop_
 _atom_site_type_symbol
 _atom_site_label
 _atom_site_symmetry_multiplicity
 _atom_site_fract_x
 _atom_site_fract_y
 _atom_site_fract_z
 _atom_site_occupancy
  Ca  Ca0  1  0.75331300  0.98141200  0.27398600  1
  Ca  Ca1  1  0.25331300  0.01858800  0.22601400  1
  Ca  Ca2  1  0.24668700  0.01858800  0.72601400  1
  Ca  Ca3  1  0.74668700  0.98141200  0.77398600  1
  Ca  Ca4  1  0.27009500  0.97431600  0.48555600  1
  Ca  Ca5  1  0.77009500  0.02568400  0.01444400  1
  Ca  Ca6  1  0.72990500  0.02568400  0.51444400  1
  Ca  Ca7  1  0.22990500  0.97431600  0.98555600  1
  Ca  Ca8  1  0.50424300  0.89220700  0.14636200  1
  Ca  Ca9  1  0.00424300  0.10779300  0.35363800  1
  Ca  Ca10  1  0.49575700  0.10779300  0.85363800  1
  Ca  Ca11  1  0.99575700  0.89220700  0.64636200  1
  Ca  Ca12  1  0.00362200  0.85602100  0.16486600  1
  Ca  Ca13  1  0.50362200  0.14397900  0.33513400  1
  Ca  Ca14  1  0.99637800  0.14397900  0.83513400  1
  Ca  Ca15  1  0.49637800  0.85602100  0.66486600  1
  Ca  Ca16  1  0.70103000  0.73930100  0.03952300  1
  Ca  Ca17  1  0.20103000  0.26069900  0.46047700  1
  Ca  Ca18  1  0.29897000  0.26069900  0.96047700  1
  Ca  Ca19  1  0.79897000  0.73930100  0.53952300  1
  Ca  Ca20  1  0.30218100  0.73449500  0.34237900  1
  Ca  Ca21  1  0.80218100  0.26550500  0.15762100  1
  Ca  Ca22  1  0.69781900  0.26550500  0.65762100  1
  Ca  Ca23  1  0.19781900  0.73449500  0.84237900  1
  Ca  Ca24  1  0.34255700  0.69440100  0.07217100  1
  Ca  Ca25  1  0.84255700  0.30559900  0.42782900  1
  Ca  Ca26  1  0.65744300  0.30559900  0.92782900  1
  Ca  Ca27  1  0.15744300  0.69440100  0.57217100  1
  Ca  Ca28  1  0.00664800  0.60969800  0.09495600  1
  Ca  Ca29  1  0.50664800  0.39030200  0.40504400  1
  Ca  Ca30  1  0.99335200  0.39030200  0.90504400  1
  Ca  Ca31  1  0.49335200  0.60969800  0.59495600  1
  Ca  Ca32  1  0.24798500  0.49550700  0.27007700  1
  Ca  Ca33  1  0.74798500  0.50449300  0.22992300  1
  Ca  Ca34  1  0.75201500  0.50449300  0.72992300  1
  Ca  Ca35  1  0.25201500  0.49550700  0.77007700  1
  Ca  Ca36  1  0.49233900  0.38987400  0.14884200  1
  Ca  Ca37  1  0.99233900  0.61012600  0.35115800  1
  Ca  Ca38  1  0.50766100  0.61012600  0.85115800  1
  Ca  Ca39  1  0.00766100  0.38987400  0.64884200  1
  Ca  Ca40  1  0.16332100  0.29732700  0.17137200  1
  Ca  Ca41  1  0.66332100  0.70267300  0.32862800  1
  Ca  Ca42  1  0.83667900  0.70267300  0.82862800  1
  Ca  Ca43  1  0.33667900  0.29732700  0.67137200  1
  Sn  Sn0  1  0.51855400  0.86552300  0.41562800  1
  Sn  Sn1  1  0.01855400  0.13447700  0.08437200  1
  Sn  Sn2  1  0.48144600  0.13447700  0.58437200  1
  Sn  Sn3  1  0.98144600  0.86552300  0.91562800  1
  Sn  Sn4  1  0.01953500  0.85564400  0.40058600  1
  Sn  Sn5  1  0.51953500  0.14435600  0.09941400  1
  Sn  Sn6  1  0.98046500  0.14435600  0.59941400  1
  Sn  Sn7  1  0.48046500  0.85564400  0.90058600  1
  Sn  Sn8  1  0.24853200  0.49806400  0.00039800  1
  Sn  Sn9  1  0.74853200  0.50193600  0.49960200  1
  Sn  Sn10  1  0.75146800  0.50193600  0.99960200  1
  Sn  Sn11  1  0.25146800  0.49806400  0.50039800  1
  C  C0  1  0.34510300  0.32063900  0.29675100  1
  C  C1  1  0.84510300  0.67936100  0.20324900  1
  C  C2  1  0.65489700  0.67936100  0.70324900  1
  C  C3  1  0.15489700  0.32063900  0.79675100  1
  C  C4  1  0.79512200  0.77425000  0.18349300  1
  C  C5  1  0.29512200  0.22575000  0.31650700  1
  C  C6  1  0.20487800  0.22575000  0.81650700  1
  C  C7  1  0.70487800  0.77425000  0.68349300  1
  C  C8  1  0.73966500  0.86702800  0.15834900  1
  C  C9  1  0.23966500  0.13297200  0.34165100  1
  C  C10  1  0.26033500  0.13297200  0.84165100  1
  C  C11  1  0.76033500  0.86702800  0.65834900  1
  C  C12  1  0.27007700  0.85956800  0.15833200  1
  C  C13  1  0.77007700  0.14043200  0.34166800  1
  C  C14  1  0.72992300  0.14043200  0.84166800  1
  C  C15  1  0.22992300  0.85956800  0.65833200  1
  C  C16  1  0.21069100  0.76818100  0.17979300  1
  C  C17  1  0.71069100  0.23181900  0.32020700  1
  C  C18  1  0.78930900  0.23181900  0.82020700  1
  C  C19  1  0.28930900  0.76818100  0.67979300  1
  C  C20  1  0.15846300  0.67411100  0.20876700  1
  C  C21  1  0.65846300  0.32588900  0.29123300  1
  C  C22  1  0.84153700  0.32588900  0.79123300  1
  C  C23  1  0.34153700  0.67411100  0.70876700  1
  C  C24  1  0.49025700  0.56758900  0.23584600  1
  C  C25  1  0.99025700  0.43241100  0.26415400  1
  C  C26  1  0.50974300  0.43241100  0.76415400  1
  C  C27  1  0.00974300  0.56758900  0.73584600  1
  C  C28  1  0.51679500  0.66401200  0.20145400  1
  C  C29  1  0.01679500  0.33598800  0.29854600  1
  C  C30  1  0.48320500  0.33598800  0.79854600  1
  C  C31  1  0.98320500  0.66401200  0.70145400  1
loop_
_geom_bond_atom_site_label_1
_geom_bond_atom_site_label_2
_geom_bond_distance
_geom_bond_site_symmetry_2
Ca0 Sn0 3.332656 1_555
Ca0 Sn4 3.544854 1_655
Ca0 Sn5 3.774881 1_565
Ca1 Sn1 3.332656 1_555
Ca1 Sn5 3.544854 1_555
Ca1 Sn4 3.774881 1_545
Ca2 Sn2 3.332656 1_555
Ca2 Sn6 3.544854 1_455
Ca2 Sn7 3.774881 1_545
Ca3 Sn3 3.332656 1_555
Ca3 Sn7 3.544854 1_555
Ca3 Sn6 3.774881 1_565
Ca4 Sn0 3.309377 1_555
Ca4 Sn4 3.492196 1_555
Ca4 Sn2 3.640110 1_565
Ca5 Sn1 3.309377 1_655
Ca5 Sn5 3.492196 1_555
Ca5 Sn3 3.640110 1_544
Ca6 Sn2 3.309377 1_555
Ca6 Sn6 3.492196 1_555
Ca6 Sn0 3.640110 1_545
Ca7 Sn3 3.309377 1_455
Ca7 Sn7 3.492196 1_555
Ca7 Sn1 3.640110 1_566
Ca8 Sn5 3.229303 1_565
Ca8 Sn7 3.679022 1_554
Ca8 Sn0 3.767806 1_555
Ca9 Sn4 3.229303 1_545
Ca9 Sn6 3.679022 1_455
Ca9 Sn1 3.767806 1_555
Ca10 Sn7 3.229303 1_545
Ca10 Sn5 3.679022 1_556
Ca10 Sn2 3.767806 1_555
Ca11 Sn6 3.229303 1_565
Ca11 Sn4 3.679022 1_655
Ca11 Sn3 3.767806 1_555
Ca12 Sn4 3.368822 1_555
Ca12 Sn3 3.534921 1_454
Ca12 Sn1 3.559167 1_565
Ca13 Sn5 3.368822 1_555
Ca13 Sn2 3.534921 1_555
Ca13 Sn0 3.559167 1_545
Ca14 Sn6 3.368822 1_555
Ca14 Sn1 3.534921 1_656
Ca14 Sn3 3.559167 1_545
Ca15 Sn7 3.368822 1_555
Ca15 Sn0 3.534921 1_555
Ca15 Sn2 3.559167 1_565
Ca16 Sn7 3.202002 1_554
Ca16 Sn10 3.388126 1_554
Ca16 Sn3 3.656388 1_554
Ca17 Sn6 3.202002 1_455
Ca17 Sn11 3.388126 1_555
Ca17 Sn2 3.656388 1_555
Ca18 Sn5 3.202002 1_556
Ca18 Sn8 3.388126 1_556
Ca18 Sn1 3.656388 1_556
Ca19 Sn4 3.202002 1_655
Ca19 Sn9 3.388126 1_555
Ca19 Sn0 3.656388 1_555
Ca20 Sn0 3.236316 1_555
Ca20 Sn11 3.373356 1_555
Ca20 Sn4 3.629819 1_555
Ca21 Sn1 3.236316 1_655
Ca21 Sn10 3.373356 1_554
Ca21 Sn5 3.629819 1_555
Ca22 Sn2 3.236316 1_555
Ca22 Sn9 3.373356 1_555
Ca22 Sn6 3.629819 1_555
Ca23 Sn3 3.236316 1_455
Ca23 Sn8 3.373356 1_556
Ca23 Sn7 3.629819 1_555
Ca24 Sn7 3.150278 1_554
Ca24 Sn8 3.205745 1_555
Ca25 Sn6 3.150278 1_555
Ca25 Sn9 3.205745 1_555
Ca26 Sn5 3.150278 1_556
Ca26 Sn10 3.205745 1_555
Ca27 Sn4 3.150278 1_555
Ca27 Sn11 3.205745 1_555
Ca28 Sn8 3.437853 1_555
Ca28 Sn10 3.525873 1_454
Ca28 Sn3 3.664356 1_454
Ca29 Sn9 3.437853 1_555
Ca29 Sn11 3.525873 1_555
Ca29 Sn2 3.664356 1_555
Ca30 Sn10 3.437853 1_555
Ca30 Sn8 3.525873 1_656
Ca30 Sn1 3.664356 1_656
Ca31 Sn11 3.437853 1_555
Ca31 Sn9 3.525873 1_555
Ca31 Sn0 3.664356 1_555
Ca32 Sn11 3.298285 1_555
Ca33 Sn10 3.298285 1_554
Ca34 Sn9 3.298285 1_555
Ca35 Sn8 3.298285 1_556
Ca36 Sn8 3.426396 1_555
Ca36 Sn5 3.522562 1_555
Ca36 Sn10 3.571613 1_554
Ca37 Sn9 3.426396 1_555
Ca37 Sn4 3.522562 1_655
Ca37 Sn11 3.571613 1_655
Ca38 Sn10 3.426396 1_555
Ca38 Sn7 3.522562 1_555
Ca38 Sn8 3.571613 1_556
Ca39 Sn11 3.426396 1_555
Ca39 Sn6 3.522562 1_455
Ca39 Sn9 3.571613 1_455
Ca40 Sn1 3.171586 1_555
Ca40 Sn8 3.218529 1_555
Ca41 Sn0 3.171586 1_555
Ca41 Sn9 3.218529 1_555
Ca42 Sn3 3.171586 1_555
Ca42 Sn10 3.218529 1_555
Ca43 Sn2 3.171586 1_555
Ca43 Sn11 3.218529 1_555
C0 C5 1.325124 1_555
C0 Ca32 2.474158 1_555
C0 Ca36 2.597557 1_555
C0 Ca29 2.648738 1_555
C0 Ca40 2.720177 1_555
C0 Ca17 2.734811 1_555
C0 Ca13 2.824144 1_555
C1 C4 1.325124 1_555
C1 Ca33 2.474158 1_555
C1 Ca37 2.597557 1_555
C1 Ca28 2.648738 1_655
C1 Ca41 2.720177 1_555
C1 Ca16 2.734811 1_555
C1 Ca12 2.824144 1_655
C2 C7 1.325124 1_555
C2 Ca34 2.474158 1_555
C2 Ca38 2.597557 1_555
C2 Ca31 2.648738 1_555
C2 Ca42 2.720177 1_555
C2 Ca19 2.734811 1_555
C2 Ca15 2.824144 1_555
C3 C6 1.325124 1_555
C3 Ca35 2.474158 1_555
C3 Ca39 2.597557 1_555
C3 Ca30 2.648738 1_455
C3 Ca43 2.720177 1_555
C3 Ca18 2.734811 1_555
C3 Ca14 2.824144 1_455
C4 C8 1.324855 1_555
C4 Ca16 2.444043 1_555
C4 Ca12 2.467345 1_655
C4 Ca41 2.475699 1_555
C5 C9 1.324855 1_555
C5 Ca17 2.444043 1_555
C5 Ca13 2.467345 1_555
C5 Ca40 2.475699 1_555
C6 Ca18 2.444043 1_555
C6 Ca14 2.467345 1_455
C6 Ca43 2.475699 1_555
C7 Ca19 2.444043 1_555
C7 Ca15 2.467345 1_555
C7 Ca42 2.475699 1_555
C8 Ca0 2.529470 1_555
C8 Ca5 2.532321 1_565
C8 Ca8 2.546148 1_555
C8 Ca16 2.732694 1_555
C9 Ca1 2.529470 1_555
C9 Ca4 2.532321 1_545
C9 Ca9 2.546148 1_555
C9 Ca17 2.732694 1_555
C10 C6 1.324855 1_555
C10 Ca2 2.529470 1_555
C10 Ca7 2.532321 1_545
C10 Ca10 2.546148 1_555
C10 Ca18 2.732694 1_555
C11 C7 1.324855 1_555
C11 Ca3 2.529470 1_555
C11 Ca6 2.532321 1_565
C11 Ca11 2.546148 1_555
C11 Ca19 2.732694 1_555
C12 C16 1.328594 1_555
C12 Ca8 2.545900 1_555
C12 Ca1 2.550944 1_565
C12 Ca7 2.560393 1_554
C13 C17 1.328594 1_555
C13 Ca9 2.545900 1_655
C13 Ca0 2.550944 1_545
C13 Ca6 2.560393 1_555
C14 C18 1.328594 1_555
C14 Ca10 2.545900 1_555
C14 Ca3 2.550944 1_545
C14 Ca5 2.560393 1_556
C15 C19 1.328594 1_555
C15 Ca11 2.545900 1_455
C15 Ca2 2.550944 1_565
C15 Ca4 2.560393 1_555
C16 C20 1.326544 1_555
C16 Ca20 2.447674 1_555
C16 Ca24 2.475714 1_555
C16 Ca12 2.489280 1_555
C17 C21 1.326544 1_555
C17 Ca21 2.447674 1_555
C17 Ca25 2.475714 1_555
C17 Ca13 2.489280 1_555
C18 C22 1.326544 1_555
C18 Ca22 2.447674 1_555
C18 Ca26 2.475714 1_555
C18 Ca14 2.489280 1_555
C19 C23 1.326544 1_555
C19 Ca23 2.447674 1_555
C19 Ca27 2.475714 1_555
C19 Ca15 2.489280 1_555
C20 Ca32 2.483661 1_555
C20 Ca28 2.601864 1_555
C20 Ca37 2.663466 1_455
C20 Ca20 2.735062 1_555
C20 Ca24 2.736802 1_555
C20 Ca12 2.853604 1_555
C21 Ca33 2.483661 1_555
C21 Ca29 2.601864 1_555
C21 Ca36 2.663466 1_555
C21 Ca21 2.735062 1_555
C21 Ca25 2.736802 1_555
C21 Ca13 2.853604 1_555
C22 Ca34 2.483661 1_555
C22 Ca30 2.601864 1_555
C22 Ca39 2.663466 1_655
C22 Ca22 2.735062 1_555
C22 Ca26 2.736802 1_555
C22 Ca14 2.853604 1_555
C23 Ca35 2.483661 1_555
C23 Ca31 2.601864 1_555
C23 Ca38 2.663466 1_555
C23 Ca23 2.735062 1_555
C23 Ca27 2.736802 1_555
C23 Ca15 2.853604 1_555
C24 C28 1.270951 1_555
C24 Ca32 2.765531 1_555
C24 Ca29 2.884032 1_555
C24 Ca33 2.895243 1_555
C24 Ca36 2.944648 1_555
C25 C29 1.270951 1_655
C25 Ca33 2.765531 1_555
C25 Ca28 2.884032 1_655
C25 Ca32 2.895243 1_655
C25 Ca37 2.944648 1_555
C26 C30 1.270951 1_555
C26 Ca34 2.765531 1_555
C26 Ca31 2.884032 1_555
C26 Ca35 2.895243 1_555
C26 Ca38 2.944648 1_555
C27 C31 1.270951 1_455
C27 Ca35 2.765531 1_555
C27 Ca30 2.884032 1_455
C27 Ca34 2.895243 1_455
C27 Ca39 2.944648 1_555
C28 Ca41 2.555738 1_555
C28 Ca24 2.580505 1_555
C28 Ca8 2.914402 1_555
C28 Ca16 2.999563 1_555
C29 Ca40 2.555738 1_555
C29 Ca25 2.580505 1_455
C29 Ca9 2.914402 1_555
C29 Ca17 2.999563 1_555
C30 Ca43 2.555738 1_555
C30 Ca26 2.580505 1_555
C30 Ca10 2.914402 1_555
C30 Ca18 2.999563 1_555
C31 Ca42 2.555738 1_555
C31 Ca27 2.580505 1_655
C31 Ca11 2.914402 1_555
C31 Ca19 2.999563 1_555
