# generated using pymatgen
data_Mg16Al12Pb
_symmetry_space_group_name_H-M   'P 1'
_cell_length_a   9.17810620
_cell_length_b   9.17810620
_cell_length_c   9.17810671
_cell_angle_alpha   109.38416750
_cell_angle_beta   109.38416750
_cell_angle_gamma   109.38417558
_symmetry_Int_Tables_number   1
_chemical_formula_structural   Mg16Al12Pb
_chemical_formula_sum   'Mg16 Al12 Pb1'
_cell_volume   597.07546801
_cell_formula_units_Z   1
loop_
 _symmetry_equiv_pos_site_id
 _symmetry_equiv_pos_as_xyz
  1  'x, y, z'
loop_
 _atom_site_type_symbol
 _atom_site_label
 _atom_site_symmetry_multiplicity
 _atom_site_fract_x
 _atom_site_fract_y
 _atom_site_fract_z
 _atom_site_occupancy
  Mg  Mg0  1  0.34467800  0.99920400  0.99920400  1
  Mg  Mg1  1  0.70951100  0.39397700  0.39397700  1
  Mg  Mg2  1  0.28731600  0.68520500  0.68520500  1
  Mg  Mg3  1  0.00299000  0.00299000  0.00299000  1
  Mg  Mg4  1  0.00005700  0.59945300  0.31803800  1
  Mg  Mg5  1  0.39397700  0.70951100  0.39397700  1
  Mg  Mg6  1  0.59945300  0.31803800  0.00005700  1
  Mg  Mg7  1  0.99920400  0.34467800  0.99920400  1
  Mg  Mg8  1  0.68520500  0.68520500  0.28731600  1
  Mg  Mg9  1  0.31803800  0.00005700  0.59945300  1
  Mg  Mg10  1  0.31803800  0.59945300  0.00005700  1
  Mg  Mg11  1  0.68520500  0.28731600  0.68520500  1
  Mg  Mg12  1  0.99920400  0.99920400  0.34467800  1
  Mg  Mg13  1  0.59945300  0.00005700  0.31803800  1
  Mg  Mg14  1  0.39397700  0.39397700  0.70951100  1
  Mg  Mg15  1  0.00005700  0.31803800  0.59945300  1
  Al  Al0  1  0.81630000  0.18321100  0.18321100  1
  Al  Al1  1  0.17566800  0.36250000  0.36250000  1
  Al  Al2  1  0.00793400  0.81791500  0.63378200  1
  Al  Al3  1  0.36250000  0.36250000  0.17566800  1
  Al  Al4  1  0.63378200  0.00793400  0.81791500  1
  Al  Al5  1  0.18321100  0.18321100  0.81630000  1
  Al  Al6  1  0.81791500  0.00793400  0.63378200  1
  Al  Al7  1  0.81791500  0.63378200  0.00793400  1
  Al  Al8  1  0.18321100  0.81630000  0.18321100  1
  Al  Al9  1  0.63378200  0.81791500  0.00793400  1
  Al  Al10  1  0.36250000  0.17566800  0.36250000  1
  Al  Al11  1  0.00793400  0.63378200  0.81791500  1
  Pb  Pb0  1  0.66097900  0.66097900  0.66097900  1
loop_
_geom_bond_atom_site_label_1
_geom_bond_atom_site_label_2
_geom_bond_distance
_geom_bond_site_symmetry_2
Mg0 Mg2 3.059508 1_555
Mg0 Mg6 3.075969 1_566
Mg0 Mg13 3.075969 1_566
Mg0 Mg3 3.159286 1_566
Mg1 Pb0 3.109961 1_555
Mg1 Mg4 3.149825 1_655
Mg1 Mg15 3.149825 1_655
Mg1 Mg13 3.164375 1_555
Mg1 Mg6 3.164375 1_555
Mg1 Mg8 3.184398 1_555
Mg1 Mg11 3.184398 1_555
Mg2 Mg4 3.145011 1_555
Mg2 Mg5 3.184398 1_555
Mg2 Mg9 3.188372 1_565
Mg2 Pb0 3.583298 1_555
Mg3 Pb0 3.152477 1_444
Mg3 Mg7 3.159286 1_454
Mg4 Mg7 3.075969 1_454
Mg4 Mg5 3.164375 1_555
Mg4 Mg8 3.188372 1_455
Mg4 Mg9 3.205744 1_565
Mg4 Mg6 3.205744 1_455
Mg5 Pb0 3.109961 1_555
Mg5 Mg9 3.149825 1_565
Mg5 Mg8 3.184398 1_555
Mg6 Mg8 3.145010 1_555
Mg6 Mg9 3.205745 1_554
Mg8 Pb0 3.583298 1_555
Mg10 Mg7 3.075969 1_454
Mg10 Mg8 3.145010 1_555
Mg10 Mg14 3.149825 1_554
Mg10 Mg5 3.164375 1_555
Mg10 Mg2 3.188372 1_554
Mg10 Mg13 3.205744 1_565
Mg10 Mg15 3.205745 1_554
Mg11 Mg7 3.059508 1_555
Mg11 Mg9 3.145010 1_555
Mg11 Mg13 3.145011 1_555
Mg11 Mg14 3.184398 1_555
Mg11 Mg15 3.188372 1_655
Mg11 Mg6 3.188372 1_556
Mg11 Pb0 3.583298 1_555
Mg12 Mg8 3.059507 1_555
Mg12 Mg9 3.075969 1_665
Mg12 Mg15 3.075969 1_665
Mg12 Mg3 3.159286 1_665
Mg13 Mg5 3.149825 1_545
Mg13 Mg8 3.188372 1_545
Mg13 Mg15 3.205744 1_655
Mg14 Pb0 3.109960 1_555
Mg14 Mg6 3.149825 1_556
Mg14 Mg15 3.164375 1_555
Mg14 Mg9 3.164375 1_555
Mg14 Mg2 3.184398 1_555
Mg15 Mg2 3.145010 1_555
Al0 Al1 2.700275 1_655
Al0 Al9 2.745477 1_545
Al0 Al4 2.745477 1_554
Al0 Mg1 2.911673 1_555
Al0 Mg13 3.018773 1_555
Al0 Mg6 3.018773 1_555
Al0 Mg7 3.123833 1_554
Al0 Mg12 3.123833 1_545
Al0 Mg4 3.189059 1_655
Al0 Mg15 3.189060 1_655
Al0 Mg3 3.217841 1_655
Al1 Al3 2.798693 1_555
Al1 Al10 2.798693 1_555
Al1 Mg2 2.956752 1_555
Al1 Mg5 3.001781 1_555
Al1 Mg14 3.001782 1_555
Al1 Mg12 3.105677 1_445
Al1 Mg7 3.105677 1_454
Al1 Mg15 3.158056 1_555
Al1 Mg4 3.158056 1_555
Al1 Mg3 3.180729 1_555
Al2 Al5 2.745477 1_565
Al2 Al6 2.846433 1_465
Al2 Mg4 2.886380 1_555
Al2 Mg9 2.963297 1_565
Al2 Mg8 3.025026 1_455
Al2 Mg0 3.093632 1_555
Al2 Mg2 3.151655 1_555
Al2 Pb0 3.162114 1_455
Al2 Mg3 3.271483 1_566
Al2 Mg1 3.274917 1_455
Al3 Al5 2.700275 1_554
Al3 Mg8 2.956752 1_555
Al3 Mg1 3.001782 1_555
Al3 Mg5 3.001782 1_555
Al3 Mg7 3.105677 1_454
Al3 Mg0 3.105677 1_544
Al3 Mg10 3.158056 1_555
Al3 Mg6 3.158056 1_555
Al3 Mg3 3.180729 1_555
Al4 Al6 2.758263 1_555
Al4 Al9 2.846433 1_546
Al4 Mg9 2.886380 1_555
Al4 Mg6 2.963297 1_556
Al4 Mg2 3.025026 1_545
Al4 Mg7 3.093631 1_555
Al4 Mg11 3.151655 1_555
Al4 Pb0 3.162114 1_545
Al4 Mg3 3.271483 1_656
Al4 Mg5 3.274917 1_545
Al5 Al6 2.745477 1_455
Al5 Mg14 2.911672 1_555
Al5 Mg9 3.018773 1_555
Al5 Mg15 3.018773 1_555
Al5 Mg7 3.123833 1_455
Al5 Mg0 3.123833 1_545
Al5 Mg10 3.189059 1_556
Al5 Mg6 3.189059 1_556
Al5 Mg3 3.217841 1_556
Al6 Mg13 2.886380 1_555
Al6 Mg15 2.963297 1_655
Al6 Mg8 3.025026 1_545
Al6 Mg7 3.093632 1_555
Al6 Mg11 3.151655 1_555
Al6 Pb0 3.162114 1_545
Al6 Mg3 3.271483 1_656
Al6 Mg5 3.274917 1_545
Al7 Al8 2.745477 1_655
Al7 Al9 2.758263 1_555
Al7 Mg6 2.886380 1_555
Al7 Mg4 2.963297 1_655
Al7 Mg11 3.025026 1_554
Al7 Mg12 3.093632 1_555
Al7 Mg8 3.151655 1_555
Al7 Pb0 3.162114 1_554
Al7 Mg3 3.271483 1_665
Al7 Mg14 3.274917 1_554
Al8 Mg5 2.911673 1_555
Al8 Mg4 3.018773 1_555
Al8 Mg10 3.018773 1_555
Al8 Mg0 3.123833 1_554
Al8 Mg12 3.123833 1_455
Al8 Mg13 3.189059 1_565
Al8 Mg9 3.189060 1_565
Al8 Mg3 3.217841 1_565
Al9 Mg10 2.886380 1_555
Al9 Mg13 2.963297 1_565
Al9 Mg2 3.025026 1_554
Al9 Mg12 3.093632 1_555
Al9 Mg8 3.151655 1_555
Al9 Pb0 3.162114 1_554
Al9 Mg3 3.271483 1_665
Al9 Mg14 3.274917 1_554
Al10 Al8 2.700275 1_545
Al10 Al3 2.798693 1_555
Al10 Mg11 2.956752 1_555
Al10 Mg1 3.001781 1_555
Al10 Mg14 3.001782 1_555
Al10 Mg12 3.105677 1_445
Al10 Mg0 3.105677 1_544
Al10 Mg9 3.158056 1_555
Al10 Mg13 3.158056 1_555
Al10 Mg3 3.180729 1_555
Al11 Al8 2.745477 1_556
Al11 Al2 2.758263 1_555
Al11 Al7 2.846433 1_456
Al11 Mg15 2.886380 1_555
Al11 Mg10 2.963297 1_556
Al11 Mg11 3.025026 1_455
Al11 Mg0 3.093631 1_555
Al11 Mg2 3.151655 1_555
Al11 Pb0 3.162114 1_455
Al11 Mg3 3.271483 1_566
Al11 Mg1 3.274917 1_455
