# generated using pymatgen
data_CsMg14WO16
_symmetry_space_group_name_H-M   'P 1'
_cell_length_a   8.80688652
_cell_length_b   9.03100492
_cell_length_c   4.46700278
_cell_angle_alpha   90.00000000
_cell_angle_beta   90.00000000
_cell_angle_gamma   90.00000000
_symmetry_Int_Tables_number   1
_chemical_formula_structural   CsMg14WO16
_chemical_formula_sum   'Cs1 Mg14 W1 O16'
_cell_volume   355.28322465
_cell_formula_units_Z   1
loop_
 _symmetry_equiv_pos_site_id
 _symmetry_equiv_pos_as_xyz
  1  'x, y, z'
loop_
 _atom_site_type_symbol
 _atom_site_label
 _atom_site_symmetry_multiplicity
 _atom_site_fract_x
 _atom_site_fract_y
 _atom_site_fract_z
 _atom_site_occupancy
  Cs  Cs0  1  0.00000000  0.00000000  0.00000000  1
  Mg  Mg0  1  0.50000000  0.00000000  0.00000000  1
  Mg  Mg1  1  0.50000000  0.50000000  0.00000000  1
  Mg  Mg2  1  0.00000000  0.25042956  0.50000000  1
  Mg  Mg3  1  0.00000000  0.74957044  0.50000000  1
  Mg  Mg4  1  0.50000000  0.25177808  0.50000000  1
  Mg  Mg5  1  0.50000000  0.74822192  0.50000000  1
  Mg  Mg6  1  0.26492824  0.00000000  0.50000000  1
  Mg  Mg7  1  0.25843568  0.50000000  0.50000000  1
  Mg  Mg8  1  0.73507176  0.00000000  0.50000000  1
  Mg  Mg9  1  0.74156432  0.50000000  0.50000000  1
  Mg  Mg10  1  0.26014301  0.24809570  0.00000000  1
  Mg  Mg11  1  0.26014301  0.75190430  0.00000000  1
  Mg  Mg12  1  0.73985699  0.24809570  0.00000000  1
  Mg  Mg13  1  0.73985699  0.75190430  0.00000000  1
  W  W0  1  0.00000000  0.50000000  0.00000000  1
  O  O0  1  0.28743449  0.00000000  0.00000000  1
  O  O1  1  0.25447497  0.50000000  0.00000000  1
  O  O2  1  0.71256551  0.00000000  0.00000000  1
  O  O3  1  0.74552503  0.50000000  0.00000000  1
  O  O4  1  0.25018726  0.25138172  0.50000000  1
  O  O5  1  0.25018726  0.74861828  0.50000000  1
  O  O6  1  0.74981274  0.25138172  0.50000000  1
  O  O7  1  0.74981274  0.74861828  0.50000000  1
  O  O8  1  0.00000000  0.00000000  0.50000000  1
  O  O9  1  0.00000000  0.50000000  0.50000000  1
  O  O10  1  0.50000000  0.00000000  0.50000000  1
  O  O11  1  0.50000000  0.50000000  0.50000000  1
  O  O12  1  0.00000000  0.27410456  0.00000000  1
  O  O13  1  0.00000000  0.72589544  0.00000000  1
  O  O14  1  0.50000000  0.26255460  0.00000000  1
  O  O15  1  0.50000000  0.73744540  0.00000000  1
loop_
_geom_bond_atom_site_label_1
_geom_bond_atom_site_label_2
_geom_bond_distance
_geom_bond_site_symmetry_2
Cs0 O8 2.233501 1_554
Cs0 O8 2.233501 1_555
Cs0 O12 2.475440 1_555
Cs0 O13 2.475440 1_545
Cs0 O2 2.531403 1_455
Cs0 O0 2.531403 1_555
Mg0 O2 1.872040 1_555
Mg0 O0 1.872040 1_555
Mg0 O10 2.233501 1_555
Mg0 O10 2.233501 1_554
Mg0 O15 2.371132 1_545
Mg0 O14 2.371132 1_555
Mg1 O14 2.144371 1_555
Mg1 O15 2.144371 1_555
Mg1 O1 2.162311 1_555
Mg1 O3 2.162311 1_555
Mg1 O11 2.233501 1_554
Mg1 O11 2.233501 1_555
Mg2 O6 2.203388 1_455
Mg2 O4 2.203388 1_555
Mg2 O12 2.243712 1_556
Mg2 O12 2.243712 1_555
Mg2 O9 2.253872 1_555
Mg2 O8 2.261631 1_555
Mg3 O5 2.203388 1_555
Mg3 O7 2.203388 1_455
Mg3 O13 2.243712 1_555
Mg3 O13 2.243712 1_556
Mg3 O9 2.253872 1_555
Mg3 O8 2.261631 1_565
Mg4 O4 2.200075 1_555
Mg4 O6 2.200075 1_555
Mg4 O14 2.235621 1_556
Mg4 O14 2.235621 1_555
Mg4 O11 2.241693 1_555
Mg4 O10 2.273809 1_555
Mg5 O5 2.200075 1_555
Mg5 O7 2.200075 1_555
Mg5 O15 2.235621 1_556
Mg5 O15 2.235621 1_555
Mg5 O11 2.241693 1_555
Mg5 O10 2.273809 1_565
Mg6 O10 2.070250 1_555
Mg6 O0 2.242279 1_555
Mg6 O0 2.242279 1_556
Mg6 O4 2.273938 1_555
Mg6 O5 2.273938 1_545
Mg6 O8 2.333193 1_555
Mg7 O11 2.127430 1_555
Mg7 O1 2.233774 1_556
Mg7 O1 2.233774 1_555
Mg7 O5 2.246448 1_555
Mg7 O4 2.246448 1_555
Mg7 O9 2.276014 1_555
Mg8 O10 2.070250 1_555
Mg8 O2 2.242279 1_555
Mg8 O2 2.242279 1_556
Mg8 O6 2.273938 1_555
Mg8 O7 2.273938 1_545
Mg8 O8 2.333193 1_655
Mg9 O11 2.127430 1_555
Mg9 O3 2.233774 1_556
Mg9 O3 2.233774 1_555
Mg9 O7 2.246448 1_555
Mg9 O6 2.246448 1_555
Mg9 O9 2.276014 1_655
Mg10 O14 2.116425 1_555
Mg10 O4 2.235419 1_554
Mg10 O4 2.235419 1_555
Mg10 O0 2.253408 1_555
Mg10 O1 2.275497 1_555
Mg10 O12 2.303059 1_555
Mg11 O15 2.116425 1_555
Mg11 O5 2.235419 1_555
Mg11 O5 2.235419 1_554
Mg11 O0 2.253408 1_565
Mg11 O1 2.275497 1_555
Mg11 O13 2.303059 1_555
Mg12 O14 2.116425 1_555
Mg12 O6 2.235419 1_555
Mg12 O6 2.235419 1_554
Mg12 O2 2.253408 1_555
Mg12 O3 2.275497 1_555
Mg12 O12 2.303059 1_655
Mg13 O15 2.116425 1_555
Mg13 O7 2.235419 1_555
Mg13 O7 2.235419 1_554
Mg13 O2 2.253408 1_565
Mg13 O3 2.275497 1_555
Mg13 O13 2.303059 1_655
O1 W0 2.241132 1_555
O3 W0 2.241132 1_655
O9 W0 2.233501 1_556
O9 W0 2.233501 1_555
O12 W0 2.040063 1_555
O13 W0 2.040063 1_555
