# generated using pymatgen
data_K2BaNb2S11
_symmetry_space_group_name_H-M   'P 1'
_cell_length_a   12.91854058
_cell_length_b   14.85985132
_cell_length_c   17.77929062
_cell_angle_alpha   94.99841511
_cell_angle_beta   90.00000000
_cell_angle_gamma   90.00000000
_symmetry_Int_Tables_number   1
_chemical_formula_structural   K2BaNb2S11
_chemical_formula_sum   'K16 Ba8 Nb16 S88'
_cell_volume   3400.06816348
_cell_formula_units_Z   8
loop_
 _symmetry_equiv_pos_site_id
 _symmetry_equiv_pos_as_xyz
  1  'x, y, z'
loop_
 _atom_site_type_symbol
 _atom_site_label
 _atom_site_symmetry_multiplicity
 _atom_site_fract_x
 _atom_site_fract_y
 _atom_site_fract_z
 _atom_site_occupancy
  K  K0  1  0.87726682  0.89063162  0.93306408  1
  K  K1  1  0.12273318  0.10936838  0.06693592  1
  K  K2  1  0.37726682  0.10936838  0.56693592  1
  K  K3  1  0.62273318  0.89063162  0.43306408  1
  K  K4  1  0.94747157  0.85237130  0.59012766  1
  K  K5  1  0.05252843  0.14762870  0.40987234  1
  K  K6  1  0.44747157  0.14762870  0.90987234  1
  K  K7  1  0.55252843  0.85237130  0.09012766  1
  K  K8  1  0.73576046  0.67034321  0.76124751  1
  K  K9  1  0.26423954  0.32965679  0.23875249  1
  K  K10  1  0.23576046  0.32965679  0.73875249  1
  K  K11  1  0.76423954  0.67034321  0.26124751  1
  K  K12  1  0.25073207  0.85942906  0.71523279  1
  K  K13  1  0.74926793  0.14057094  0.28476721  1
  K  K14  1  0.75073207  0.14057094  0.78476721  1
  K  K15  1  0.24926793  0.85942906  0.21523279  1
  Ba  Ba0  1  0.38593982  0.61795325  0.89606806  1
  Ba  Ba1  1  0.61406018  0.38204675  0.10393194  1
  Ba  Ba2  1  0.88593982  0.38204675  0.60393194  1
  Ba  Ba3  1  0.11406018  0.61795325  0.39606806  1
  Ba  Ba4  1  0.92972877  0.34859747  0.92750379  1
  Ba  Ba5  1  0.07027123  0.65140253  0.07249621  1
  Ba  Ba6  1  0.42972877  0.65140253  0.57249621  1
  Ba  Ba7  1  0.57027123  0.34859747  0.42750379  1
  Nb  Nb0  1  0.56994860  0.40580422  0.66541996  1
  Nb  Nb1  1  0.43005140  0.59419578  0.33458004  1
  Nb  Nb2  1  0.06994860  0.59419578  0.83458004  1
  Nb  Nb3  1  0.93005140  0.40580422  0.16541996  1
  Nb  Nb4  1  0.61409501  0.38081907  0.85955758  1
  Nb  Nb5  1  0.38590499  0.61918093  0.14044242  1
  Nb  Nb6  1  0.11409501  0.61918093  0.64044242  1
  Nb  Nb7  1  0.88590499  0.38081907  0.35955758  1
  Nb  Nb8  1  0.53772829  0.85318921  0.85572281  1
  Nb  Nb9  1  0.46227171  0.14681079  0.14427719  1
  Nb  Nb10  1  0.03772829  0.14681079  0.64427719  1
  Nb  Nb11  1  0.96227171  0.85318921  0.35572281  1
  Nb  Nb12  1  0.54728881  0.90040858  0.66522188  1
  Nb  Nb13  1  0.45271119  0.09959142  0.33477812  1
  Nb  Nb14  1  0.04728881  0.09959142  0.83477812  1
  Nb  Nb15  1  0.95271119  0.90040858  0.16522188  1
  S  S0  1  0.60659817  0.50842962  0.96179652  1
  S  S1  1  0.39340183  0.49157038  0.03820348  1
  S  S2  1  0.10659817  0.49157038  0.53820348  1
  S  S3  1  0.89340183  0.50842962  0.46179652  1
  S  S4  1  0.94028477  0.67343280  0.92084673  1
  S  S5  1  0.05971523  0.32656720  0.07915327  1
  S  S6  1  0.44028477  0.32656720  0.57915327  1
  S  S7  1  0.55971523  0.67343280  0.42084673  1
  S  S8  1  0.64852851  0.49381814  0.58374076  1
  S  S9  1  0.35147149  0.50618186  0.41625924  1
  S  S10  1  0.14852851  0.50618186  0.91625924  1
  S  S11  1  0.85147149  0.49381814  0.08374076  1
  S  S12  1  0.49722408  0.76086779  0.73114429  1
  S  S13  1  0.50277592  0.23913221  0.26885571  1
  S  S14  1  0.99722408  0.23913221  0.76885571  1
  S  S15  1  0.00277592  0.76086779  0.23114429  1
  S  S16  1  0.42489721  0.92792145  0.95492046  1
  S  S17  1  0.57510279  0.07207855  0.04507954  1
  S  S18  1  0.92489721  0.07207855  0.54507954  1
  S  S19  1  0.07510279  0.92792145  0.45492046  1
  S  S20  1  0.92469617  0.49630019  0.78932951  1
  S  S21  1  0.07530383  0.50369981  0.21067049  1
  S  S22  1  0.42469617  0.50369981  0.71067049  1
  S  S23  1  0.57530383  0.49630019  0.28932951  1
  S  S24  1  0.42162772  0.74324738  0.40466790  1
  S  S25  1  0.57837228  0.25675262  0.59533210  1
  S  S26  1  0.92162772  0.25675262  0.09533210  1
  S  S27  1  0.07837228  0.74324738  0.90466790  1
  S  S28  1  0.98423288  0.70311838  0.72161926  1
  S  S29  1  0.01576712  0.29688162  0.27838074  1
  S  S30  1  0.48423288  0.29688162  0.77838074  1
  S  S31  1  0.51576712  0.70311838  0.22161926  1
  S  S32  1  0.42572621  0.88309455  0.57366136  1
  S  S33  1  0.57427379  0.11690545  0.42633864  1
  S  S34  1  0.92572621  0.11690545  0.92633864  1
  S  S35  1  0.07427379  0.88309455  0.07366136  1
  S  S36  1  0.60609495  0.74243263  0.91925348  1
  S  S37  1  0.39390505  0.25756737  0.08074652  1
  S  S38  1  0.10609495  0.25756737  0.58074652  1
  S  S39  1  0.89390505  0.74243263  0.41925348  1
  S  S40  1  0.73489147  0.50744795  0.89225514  1
  S  S41  1  0.26510853  0.49255205  0.10774486  1
  S  S42  1  0.23489147  0.49255205  0.60774486  1
  S  S43  1  0.76510853  0.50744795  0.39225514  1
  S  S44  1  0.71860967  0.35002444  0.73909312  1
  S  S45  1  0.28139033  0.64997556  0.26090688  1
  S  S46  1  0.21860967  0.64997556  0.76090688  1
  S  S47  1  0.78139033  0.35002444  0.23909312  1
  S  S48  1  0.65997956  0.97999968  0.88332867  1
  S  S49  1  0.34002044  0.02000032  0.11667133  1
  S  S50  1  0.15997956  0.02000032  0.61667133  1
  S  S51  1  0.84002044  0.97999968  0.38332867  1
  S  S52  1  0.46655337  0.93629585  0.29299548  1
  S  S53  1  0.53344663  0.06370415  0.70700452  1
  S  S54  1  0.96655337  0.06370415  0.20700452  1
  S  S55  1  0.03344663  0.93629585  0.79299548  1
  S  S56  1  0.34905904  0.83586018  0.88024391  1
  S  S57  1  0.65094096  0.16413982  0.11975609  1
  S  S58  1  0.84905904  0.16413982  0.61975609  1
  S  S59  1  0.15094096  0.83586018  0.38024391  1
  S  S60  1  0.69401732  0.89870385  0.78444554  1
  S  S61  1  0.30598268  0.10129615  0.21555446  1
  S  S62  1  0.19401732  0.10129615  0.71555446  1
  S  S63  1  0.80598268  0.89870385  0.28444554  1
  S  S64  1  0.68899935  0.80296595  0.61218086  1
  S  S65  1  0.31100065  0.19703405  0.38781914  1
  S  S66  1  0.18899935  0.19703405  0.88781914  1
  S  S67  1  0.81100065  0.80296595  0.11218086  1
  S  S68  1  0.92445352  0.63155286  0.62495609  1
  S  S69  1  0.07554648  0.36844714  0.37504391  1
  S  S70  1  0.42445352  0.36844714  0.87504391  1
  S  S71  1  0.57554648  0.63155286  0.12495609  1
  S  S72  1  0.44186219  0.98221329  0.76880031  1
  S  S73  1  0.55813781  0.01778671  0.23119969  1
  S  S74  1  0.94186219  0.01778671  0.73119969  1
  S  S75  1  0.05813781  0.98221329  0.26880031  1
  S  S76  1  0.70419194  0.93975333  0.59616233  1
  S  S77  1  0.29580806  0.06024667  0.40383767  1
  S  S78  1  0.20419194  0.06024667  0.90383767  1
  S  S79  1  0.79580806  0.93975333  0.09616233  1
  S  S80  1  0.68041635  0.27559024  0.93207218  1
  S  S81  1  0.31958365  0.72440976  0.06792782  1
  S  S82  1  0.18041635  0.72440976  0.56792782  1
  S  S83  1  0.81958365  0.27559024  0.43207218  1
  S  S84  1  0.55817639  0.52448026  0.77626571  1
  S  S85  1  0.44182361  0.47551974  0.22373429  1
  S  S86  1  0.05817639  0.47551974  0.72373429  1
  S  S87  1  0.94182361  0.52448026  0.27626571  1
loop_
_geom_bond_atom_site_label_1
_geom_bond_atom_site_label_2
_geom_bond_distance
_geom_bond_site_symmetry_2
K0 S79 3.111276 1_556
K0 S48 3.260301 1_555
K0 S4 3.317349 1_555
K0 S55 3.320750 1_655
K0 S27 3.407100 1_655
K0 S34 3.432487 1_565
K0 S60 3.557489 1_555
K0 S35 3.575915 1_656
K0 S67 3.646129 1_556
K1 S78 3.111276 1_554
K1 S49 3.260301 1_555
K1 S5 3.317349 1_555
K1 S54 3.320750 1_455
K1 S26 3.407100 1_455
K1 S35 3.432487 1_545
K1 S61 3.557489 1_555
K1 S34 3.575915 1_454
K1 S66 3.646129 1_554
K2 S77 3.111276 1_555
K2 S50 3.260301 1_555
K2 S6 3.317349 1_555
K2 S53 3.320750 1_555
K2 S25 3.407100 1_555
K2 S32 3.432487 1_545
K2 S62 3.557489 1_555
K2 S33 3.575915 1_555
K2 S65 3.646129 1_555
K3 S76 3.111276 1_555
K3 S51 3.260301 1_555
K3 S7 3.317349 1_555
K3 S52 3.320750 1_555
K3 S24 3.407100 1_555
K3 S33 3.432487 1_565
K3 S63 3.557489 1_555
K3 S32 3.575915 1_555
K3 S64 3.646129 1_555
K4 S19 3.198109 1_655
K4 S74 3.356159 1_565
K4 S39 3.393003 1_555
K4 S28 3.393150 1_555
K4 S76 3.398617 1_555
K4 S68 3.404857 1_555
K4 S18 3.441106 1_565
K4 S64 3.448530 1_555
K4 S82 3.563228 1_655
K4 S50 3.709353 1_665
K5 S18 3.198109 1_455
K5 S75 3.356159 1_545
K5 S38 3.393003 1_555
K5 S29 3.393150 1_555
K5 S77 3.398617 1_555
K5 S69 3.404857 1_555
K5 S19 3.441106 1_545
K5 S65 3.448530 1_555
K5 S83 3.563228 1_455
K5 S51 3.709353 1_445
K6 S17 3.198109 1_556
K6 S72 3.356159 1_545
K6 S37 3.393003 1_556
K6 S30 3.393150 1_555
K6 S78 3.398617 1_555
K6 S70 3.404857 1_555
K6 S16 3.441106 1_545
K6 S66 3.448530 1_555
K6 S80 3.563228 1_555
K6 S48 3.709353 1_545
K7 S16 3.198109 1_554
K7 S73 3.356159 1_565
K7 S36 3.393003 1_554
K7 S31 3.393150 1_555
K7 S79 3.398617 1_555
K7 S71 3.404857 1_555
K7 S17 3.441106 1_565
K7 S67 3.448530 1_555
K7 S81 3.563228 1_555
K7 S49 3.709353 1_565
K8 S84 3.183273 1_555
K8 S28 3.331197 1_555
K8 S36 3.364650 1_555
K8 S12 3.423058 1_555
K8 S60 3.425233 1_555
K8 S68 3.450025 1_555
K8 S64 3.490420 1_555
K8 S40 3.502454 1_555
K8 S20 3.622205 1_555
K9 S85 3.183273 1_555
K9 S29 3.331197 1_555
K9 S37 3.364650 1_555
K9 S13 3.423058 1_555
K9 S61 3.425233 1_555
K9 S69 3.450025 1_555
K9 S65 3.490420 1_555
K9 S41 3.502454 1_555
K9 S21 3.622205 1_555
K10 S86 3.183273 1_555
K10 S30 3.331197 1_555
K10 S38 3.364650 1_555
K10 S14 3.423058 1_455
K10 S62 3.425233 1_555
K10 S70 3.450025 1_555
K10 S66 3.490420 1_555
K10 S42 3.502454 1_555
K10 S22 3.622205 1_555
K11 S87 3.183273 1_555
K11 S31 3.331197 1_555
K11 S39 3.364650 1_555
K11 S15 3.423058 1_655
K11 S63 3.425233 1_555
K11 S71 3.450025 1_555
K11 S67 3.490420 1_555
K11 S43 3.502454 1_555
K11 S23 3.622205 1_555
K12 S72 3.166988 1_555
K12 S56 3.243808 1_555
K12 S82 3.285430 1_555
K12 S55 3.289422 1_555
K12 S50 3.296536 1_565
K12 S46 3.310498 1_555
K12 S32 3.424036 1_555
K12 S12 3.526638 1_555
K12 S62 3.667544 1_565
K13 S73 3.166988 1_555
K13 S57 3.243808 1_555
K13 S83 3.285430 1_555
K13 S54 3.289422 1_555
K13 S51 3.296536 1_545
K13 S47 3.310498 1_555
K13 S33 3.424036 1_555
K13 S13 3.526638 1_555
K13 S63 3.667544 1_545
K14 S74 3.166988 1_555
K14 S58 3.243808 1_555
K14 S80 3.285430 1_555
K14 S53 3.289422 1_555
K14 S48 3.296536 1_545
K14 S44 3.310498 1_555
K14 S34 3.424036 1_555
K14 S14 3.526638 1_555
K14 S60 3.667544 1_545
K15 S75 3.166988 1_555
K15 S59 3.243808 1_555
K15 S81 3.285430 1_555
K15 S52 3.289422 1_555
K15 S49 3.296536 1_565
K15 S45 3.310498 1_555
K15 S35 3.424036 1_555
K15 S15 3.526638 1_555
K15 S61 3.667544 1_565
Ba0 S1 3.278622 1_556
Ba0 S46 3.297456 1_555
Ba0 S84 3.301740 1_555
Ba0 S56 3.309073 1_555
Ba0 S36 3.398149 1_555
Ba0 S81 3.425111 1_556
Ba0 S10 3.521067 1_555
Ba0 S0 3.531524 1_555
Ba0 S22 3.608760 1_555
Ba0 S70 3.727230 1_555
Ba1 S0 3.278622 1_554
Ba1 S47 3.297456 1_555
Ba1 S85 3.301740 1_555
Ba1 S57 3.309073 1_555
Ba1 S37 3.398149 1_555
Ba1 S80 3.425111 1_554
Ba1 S11 3.521067 1_555
Ba1 S1 3.531524 1_555
Ba1 S23 3.608760 1_555
Ba1 S71 3.727230 1_555
Ba2 S3 3.278622 1_555
Ba2 S44 3.297456 1_555
Ba2 S86 3.301740 1_655
Ba2 S58 3.309073 1_555
Ba2 S38 3.398149 1_655
Ba2 S83 3.425111 1_555
Ba2 S8 3.521067 1_555
Ba2 S2 3.531524 1_655
Ba2 S20 3.608760 1_555
Ba2 S68 3.727230 1_555
Ba3 S2 3.278622 1_555
Ba3 S45 3.297456 1_555
Ba3 S87 3.301740 1_455
Ba3 S59 3.309073 1_555
Ba3 S39 3.398149 1_455
Ba3 S82 3.425111 1_555
Ba3 S9 3.521067 1_555
Ba3 S3 3.531524 1_455
Ba3 S21 3.608760 1_555
Ba3 S69 3.727230 1_555
Ba4 S5 3.217206 1_656
Ba4 S14 3.250043 1_555
Ba4 S26 3.389210 1_556
Ba4 S80 3.401787 1_555
Ba4 S20 3.434562 1_555
Ba4 S34 3.441554 1_555
Ba4 S11 3.514309 1_556
Ba4 S40 3.543701 1_555
Ba4 S10 3.687076 1_655
Ba5 S4 3.217206 1_454
Ba5 S15 3.250043 1_555
Ba5 S27 3.389210 1_554
Ba5 S81 3.401787 1_555
Ba5 S21 3.434562 1_555
Ba5 S35 3.441554 1_555
Ba5 S10 3.514309 1_554
Ba5 S41 3.543701 1_555
Ba5 S11 3.687076 1_455
Ba6 S7 3.217206 1_555
Ba6 S12 3.250043 1_555
Ba6 S24 3.389210 1_555
Ba6 S82 3.401787 1_555
Ba6 S22 3.434562 1_555
Ba6 S32 3.441554 1_555
Ba6 S9 3.514309 1_555
Ba6 S42 3.543701 1_555
Ba6 S8 3.687076 1_555
Ba7 S6 3.217206 1_555
Ba7 S13 3.250043 1_555
Ba7 S25 3.389210 1_555
Ba7 S83 3.401787 1_555
Ba7 S23 3.434562 1_555
Ba7 S33 3.441554 1_555
Ba7 S8 3.514309 1_555
Ba7 S43 3.543701 1_555
Ba7 S9 3.687076 1_555
Nb0 S8 2.276155 1_555
Nb0 S25 2.447326 1_555
Nb0 S22 2.465881 1_555
Nb0 S6 2.495990 1_555
Nb0 S44 2.506036 1_555
Nb0 S84 2.532067 1_555
Nb0 S30 2.906186 1_555
Nb1 S9 2.276155 1_555
Nb1 S24 2.447326 1_555
Nb1 S23 2.465881 1_555
Nb1 S7 2.495990 1_555
Nb1 S45 2.506036 1_555
Nb1 S85 2.532067 1_555
Nb1 S31 2.906186 1_555
Nb2 S10 2.276155 1_555
Nb2 S27 2.447326 1_555
Nb2 S20 2.465881 1_455
Nb2 S4 2.495990 1_455
Nb2 S46 2.506036 1_555
Nb2 S86 2.532067 1_555
Nb2 S28 2.906186 1_455
Nb3 S11 2.276155 1_555
Nb3 S26 2.447326 1_555
Nb3 S21 2.465881 1_655
Nb3 S5 2.495990 1_655
Nb3 S47 2.506036 1_555
Nb3 S87 2.532067 1_555
Nb3 S29 2.906186 1_655
Nb4 S80 2.278741 1_555
Nb4 S70 2.473944 1_555
Nb4 S40 2.474527 1_555
Nb4 S30 2.477805 1_555
Nb4 S0 2.511722 1_555
Nb4 S44 2.539445 1_555
Nb4 S84 2.796964 1_555
Nb5 S81 2.278741 1_555
Nb5 S71 2.473944 1_555
Nb5 S41 2.474527 1_555
Nb5 S31 2.477805 1_555
Nb5 S1 2.511722 1_555
Nb5 S45 2.539445 1_555
Nb5 S85 2.796964 1_555
Nb6 S82 2.278741 1_555
Nb6 S68 2.473944 1_455
Nb6 S42 2.474527 1_555
Nb6 S28 2.477805 1_455
Nb6 S2 2.511722 1_555
Nb6 S46 2.539445 1_555
Nb6 S86 2.796964 1_555
Nb7 S83 2.278741 1_555
Nb7 S69 2.473944 1_655
Nb7 S43 2.474527 1_555
Nb7 S29 2.477805 1_655
Nb7 S3 2.511722 1_555
Nb7 S47 2.539445 1_555
Nb7 S87 2.796964 1_555
Nb8 S36 2.255785 1_555
Nb8 S48 2.474844 1_555
Nb8 S16 2.475295 1_555
Nb8 S56 2.493296 1_555
Nb8 S60 2.507829 1_555
Nb8 S12 2.555821 1_555
Nb8 S72 2.848572 1_555
Nb9 S37 2.255785 1_555
Nb9 S49 2.474844 1_555
Nb9 S17 2.475295 1_555
Nb9 S57 2.493296 1_555
Nb9 S61 2.507829 1_555
Nb9 S13 2.555821 1_555
Nb9 S73 2.848572 1_555
Nb10 S38 2.255785 1_555
Nb10 S50 2.474844 1_555
Nb10 S18 2.475295 1_455
Nb10 S58 2.493296 1_455
Nb10 S62 2.507829 1_555
Nb10 S14 2.555821 1_455
Nb10 S74 2.848572 1_455
Nb11 S39 2.255785 1_555
Nb11 S51 2.474844 1_555
Nb11 S19 2.475295 1_655
Nb11 S59 2.493296 1_655
Nb11 S63 2.507829 1_555
Nb11 S15 2.555821 1_655
Nb11 S75 2.848572 1_655
Nb12 S32 2.260398 1_555
Nb12 S76 2.466383 1_555
Nb12 S64 2.469708 1_555
Nb12 S53 2.481501 1_565
Nb12 S72 2.516714 1_555
Nb12 S12 2.552478 1_555
Nb12 S60 2.845376 1_555
Nb13 S33 2.260398 1_555
Nb13 S77 2.466383 1_555
Nb13 S65 2.469708 1_555
Nb13 S52 2.481501 1_545
Nb13 S73 2.516714 1_555
Nb13 S13 2.552478 1_555
Nb13 S61 2.845376 1_555
Nb14 S34 2.260398 1_455
Nb14 S78 2.466383 1_555
Nb14 S66 2.469708 1_555
Nb14 S55 2.481501 1_545
Nb14 S74 2.516714 1_455
Nb14 S14 2.552478 1_455
Nb14 S62 2.845376 1_555
Nb15 S35 2.260398 1_655
Nb15 S79 2.466383 1_555
Nb15 S67 2.469708 1_555
Nb15 S54 2.481501 1_565
Nb15 S75 2.516714 1_655
Nb15 S15 2.552478 1_655
Nb15 S63 2.845376 1_555
S0 S40 2.067026 1_555
S1 S41 2.067026 1_555
S2 S42 2.067026 1_555
S3 S43 2.067026 1_555
S16 S56 2.068234 1_555
S17 S57 2.068234 1_555
S18 S58 2.068234 1_555
S19 S59 2.068234 1_555
S20 S86 2.089535 1_655
S21 S87 2.089535 1_455
S22 S84 2.089535 1_555
S23 S85 2.089535 1_555
S24 S7 2.096013 1_555
S25 S6 2.096013 1_555
S26 S5 2.096013 1_655
S27 S4 2.096013 1_455
S28 S68 2.088644 1_555
S29 S69 2.088644 1_555
S30 S70 2.088644 1_555
S31 S71 2.088644 1_555
S48 S60 2.091279 1_555
S49 S61 2.091279 1_555
S50 S62 2.091279 1_555
S51 S63 2.091279 1_555
S52 S73 2.074884 1_565
S53 S72 2.074884 1_545
S54 S75 2.074884 1_645
S55 S74 2.074884 1_465
S64 S76 2.086176 1_555
S65 S77 2.086176 1_555
S66 S78 2.086176 1_555
S67 S79 2.086176 1_555
