# generated using pymatgen
data_ThAlCo
_symmetry_space_group_name_H-M   'P 1'
_cell_length_a   14.67763935
_cell_length_b   14.67763935
_cell_length_c   6.94374600
_cell_angle_alpha   90.00000000
_cell_angle_beta   90.00000000
_cell_angle_gamma   95.67735832
_symmetry_Int_Tables_number   1
_chemical_formula_structural   ThAlCo
_chemical_formula_sum   'Th24 Al24 Co24'
_cell_volume   1488.57486501
_cell_formula_units_Z   24
loop_
 _symmetry_equiv_pos_site_id
 _symmetry_equiv_pos_as_xyz
  1  'x, y, z'
loop_
 _atom_site_type_symbol
 _atom_site_label
 _atom_site_symmetry_multiplicity
 _atom_site_fract_x
 _atom_site_fract_y
 _atom_site_fract_z
 _atom_site_occupancy
  Th  Th0_0  1  0.14111800  0.17384800  0.00000000  1
  Th  Th0_1  1  0.14111800  0.17384800  0.50000000  1
  Th  Th0_2  1  0.14111800  0.67384800  0.00000000  1
  Th  Th0_3  1  0.14111800  0.67384800  0.50000000  1
  Th  Th0_4  1  0.64111800  0.17384800  0.00000000  1
  Th  Th0_5  1  0.64111800  0.17384800  0.50000000  1
  Th  Th0_6  1  0.64111800  0.67384800  0.00000000  1
  Th  Th0_7  1  0.64111800  0.67384800  0.50000000  1
  Th  Th1_0  1  0.32615200  0.35888200  0.00000000  1
  Th  Th1_1  1  0.32615200  0.35888200  0.50000000  1
  Th  Th1_2  1  0.32615200  0.85888200  0.00000000  1
  Th  Th1_3  1  0.32615200  0.85888200  0.50000000  1
  Th  Th1_4  1  0.82615200  0.35888200  0.00000000  1
  Th  Th1_5  1  0.82615200  0.35888200  0.50000000  1
  Th  Th1_6  1  0.82615200  0.85888200  0.00000000  1
  Th  Th1_7  1  0.82615200  0.85888200  0.50000000  1
  Th  Th2_0  1  0.48645400  0.01354600  0.25000000  1
  Th  Th2_1  1  0.48645400  0.01354600  0.75000000  1
  Th  Th2_2  1  0.48645400  0.51354600  0.25000000  1
  Th  Th2_3  1  0.48645400  0.51354600  0.75000000  1
  Th  Th2_4  1  0.98645400  0.01354600  0.25000000  1
  Th  Th2_5  1  0.98645400  0.01354600  0.75000000  1
  Th  Th2_6  1  0.98645400  0.51354600  0.25000000  1
  Th  Th2_7  1  0.98645400  0.51354600  0.75000000  1
  Al  Al0_0  1  0.36438950  0.13561050  0.00000000  1
  Al  Al0_1  1  0.36438950  0.13561050  0.50000000  1
  Al  Al0_2  1  0.36438950  0.63561050  0.00000000  1
  Al  Al0_3  1  0.36438950  0.63561050  0.50000000  1
  Al  Al0_4  1  0.86438950  0.13561050  0.00000000  1
  Al  Al0_5  1  0.86438950  0.13561050  0.50000000  1
  Al  Al0_6  1  0.86438950  0.63561050  0.00000000  1
  Al  Al0_7  1  0.86438950  0.63561050  0.50000000  1
  Al  Al1_0  1  0.03023150  0.33834050  0.00000000  1
  Al  Al1_1  1  0.03023150  0.33834050  0.50000000  1
  Al  Al1_2  1  0.03023150  0.83834050  0.00000000  1
  Al  Al1_3  1  0.03023150  0.83834050  0.50000000  1
  Al  Al1_4  1  0.53023150  0.33834050  0.00000000  1
  Al  Al1_5  1  0.53023150  0.33834050  0.50000000  1
  Al  Al1_6  1  0.53023150  0.83834050  0.00000000  1
  Al  Al1_7  1  0.53023150  0.83834050  0.50000000  1
  Al  Al2_0  1  0.16165950  0.46976850  0.00000000  1
  Al  Al2_1  1  0.16165950  0.46976850  0.50000000  1
  Al  Al2_2  1  0.16165950  0.96976850  0.00000000  1
  Al  Al2_3  1  0.16165950  0.96976850  0.50000000  1
  Al  Al2_4  1  0.66165950  0.46976850  0.00000000  1
  Al  Al2_5  1  0.66165950  0.46976850  0.50000000  1
  Al  Al2_6  1  0.66165950  0.96976850  0.00000000  1
  Al  Al2_7  1  0.66165950  0.96976850  0.50000000  1
  Co  Co0_0  1  0.28000950  0.21999050  0.25000000  1
  Co  Co0_1  1  0.28000950  0.21999050  0.75000000  1
  Co  Co0_2  1  0.28000950  0.71999050  0.25000000  1
  Co  Co0_3  1  0.28000950  0.71999050  0.75000000  1
  Co  Co0_4  1  0.78000950  0.21999050  0.25000000  1
  Co  Co0_5  1  0.78000950  0.21999050  0.75000000  1
  Co  Co0_6  1  0.78000950  0.71999050  0.25000000  1
  Co  Co0_7  1  0.78000950  0.71999050  0.75000000  1
  Co  Co1_0  1  0.45372150  0.24368500  0.25000000  1
  Co  Co1_1  1  0.45372150  0.24368500  0.75000000  1
  Co  Co1_2  1  0.45372150  0.74368500  0.25000000  1
  Co  Co1_3  1  0.45372150  0.74368500  0.75000000  1
  Co  Co1_4  1  0.95372150  0.24368500  0.25000000  1
  Co  Co1_5  1  0.95372150  0.24368500  0.75000000  1
  Co  Co1_6  1  0.95372150  0.74368500  0.25000000  1
  Co  Co1_7  1  0.95372150  0.74368500  0.75000000  1
  Co  Co2_0  1  0.25631500  0.04627850  0.25000000  1
  Co  Co2_1  1  0.25631500  0.04627850  0.75000000  1
  Co  Co2_2  1  0.25631500  0.54627850  0.25000000  1
  Co  Co2_3  1  0.25631500  0.54627850  0.75000000  1
  Co  Co2_4  1  0.75631500  0.04627850  0.25000000  1
  Co  Co2_5  1  0.75631500  0.04627850  0.75000000  1
  Co  Co2_6  1  0.75631500  0.54627850  0.25000000  1
  Co  Co2_7  1  0.75631500  0.54627850  0.75000000  1
loop_
_geom_bond_atom_site_label_1
_geom_bond_atom_site_label_2
_geom_bond_distance
_geom_bond_site_symmetry_2
Th0_0 Th2_5 3.556120 1_454
Th0_0 Th2_4 3.556120 1_455
Th0_1 Th2_5 3.556120 1_455
Th0_1 Th2_4 3.556120 1_455
Th0_2 Th2_7 3.556120 1_454
Th0_2 Th2_6 3.556120 1_455
Th0_3 Th2_7 3.556120 1_455
Th0_3 Th2_6 3.556120 1_455
Th0_4 Th2_0 3.556120 1_555
Th0_4 Th2_1 3.556120 1_554
Th0_5 Th2_0 3.556120 1_555
Th0_5 Th2_1 3.556120 1_555
Th0_6 Th2_3 3.556120 1_554
Th0_6 Th2_2 3.556120 1_555
Th0_7 Th2_2 3.556120 1_555
Th0_7 Th2_3 3.556120 1_555
Th1_0 Th2_2 3.556120 1_555
Th1_0 Th2_3 3.556120 1_554
Th1_1 Th2_3 3.556120 1_555
Th1_1 Th2_2 3.556120 1_555
Th1_2 Th2_0 3.556120 1_565
Th1_2 Th2_1 3.556120 1_564
Th1_3 Th2_0 3.556120 1_565
Th1_3 Th2_1 3.556120 1_565
Th1_4 Th2_7 3.556120 1_554
Th1_4 Th2_6 3.556120 1_555
Th1_5 Th2_7 3.556120 1_555
Th1_5 Th2_6 3.556120 1_555
Th1_6 Th2_4 3.556120 1_565
Th1_6 Th2_5 3.556120 1_564
Th1_7 Th2_4 3.556120 1_565
Th1_7 Th2_5 3.556120 1_565
Th2_0 Th2_1 3.471873 1_555
Th2_0 Th2_1 3.471873 1_554
Th2_2 Th2_3 3.471873 1_555
Th2_2 Th2_3 3.471873 1_554
Th2_4 Th2_5 3.471873 1_555
Th2_4 Th2_5 3.471873 1_554
Th2_6 Th2_7 3.471873 1_554
Th2_6 Th2_7 3.471873 1_555
Al0_0 Co0_1 2.526800 1_554
Al0_0 Co0_0 2.526800 1_555
Al0_0 Co2_1 2.614850 1_554
Al0_0 Co2_0 2.614850 1_555
Al0_0 Co1_1 2.614850 1_554
Al0_0 Co1_0 2.614850 1_555
Al0_0 Th2_0 3.173068 1_555
Al0_0 Th2_1 3.173068 1_554
Al0_1 Co0_0 2.526800 1_555
Al0_1 Co0_1 2.526800 1_555
Al0_1 Co2_1 2.614850 1_555
Al0_1 Co2_0 2.614850 1_555
Al0_1 Co1_0 2.614850 1_555
Al0_1 Co1_1 2.614850 1_555
Al0_1 Th2_0 3.173068 1_555
Al0_1 Th2_1 3.173068 1_555
Al0_2 Co0_2 2.526800 1_555
Al0_2 Co0_3 2.526800 1_554
Al0_2 Co2_3 2.614850 1_554
Al0_2 Co2_2 2.614850 1_555
Al0_2 Co1_3 2.614850 1_554
Al0_2 Co1_2 2.614850 1_555
Al0_2 Th2_2 3.173068 1_555
Al0_2 Th2_3 3.173068 1_554
Al0_3 Co0_2 2.526800 1_555
Al0_3 Co0_3 2.526800 1_555
Al0_3 Co2_2 2.614850 1_555
Al0_3 Co2_3 2.614850 1_555
Al0_3 Co1_2 2.614850 1_555
Al0_3 Co1_3 2.614850 1_555
Al0_3 Th2_2 3.173068 1_555
Al0_3 Th2_3 3.173068 1_555
Al0_4 Co0_5 2.526800 1_554
Al0_4 Co0_4 2.526800 1_555
Al0_4 Co1_4 2.614850 1_555
Al0_4 Co2_5 2.614850 1_554
Al0_4 Co2_4 2.614850 1_555
Al0_4 Co1_5 2.614850 1_554
Al0_4 Th2_4 3.173068 1_555
Al0_4 Th2_5 3.173068 1_554
Al0_5 Co0_5 2.526800 1_555
Al0_5 Co0_4 2.526800 1_555
Al0_5 Co2_5 2.614850 1_555
Al0_5 Co1_4 2.614850 1_555
Al0_5 Co2_4 2.614850 1_555
Al0_5 Co1_5 2.614850 1_555
Al0_5 Th2_4 3.173068 1_555
Al0_5 Th2_5 3.173068 1_555
Al0_6 Co0_6 2.526800 1_555
Al0_6 Co0_7 2.526800 1_554
Al0_6 Co2_6 2.614850 1_555
Al0_6 Co2_7 2.614850 1_554
Al0_6 Co1_7 2.614850 1_554
Al0_6 Co1_6 2.614850 1_555
Al0_6 Th2_6 3.173068 1_555
Al0_6 Th2_7 3.173068 1_554
Al0_7 Co0_6 2.526800 1_555
Al0_7 Co0_7 2.526800 1_555
Al0_7 Co2_6 2.614850 1_555
Al0_7 Co2_7 2.614850 1_555
Al0_7 Co1_7 2.614850 1_555
Al0_7 Co1_6 2.614850 1_555
Al0_7 Th2_7 3.173068 1_555
Al0_7 Th2_6 3.173068 1_555
Al1_0 Co1_4 2.428187 1_455
Al1_0 Co1_5 2.428187 1_454
Al1_0 Al2_0 2.589639 1_555
Al1_0 Th1_4 3.040072 1_455
Al1_0 Th0_0 3.042290 1_555
Al1_0 Th2_7 3.219692 1_454
Al1_0 Th2_6 3.219692 1_455
Al1_1 Co1_4 2.428187 1_455
Al1_1 Co1_5 2.428187 1_455
Al1_1 Al2_1 2.589639 1_555
Al1_1 Th1_5 3.040072 1_455
Al1_1 Th0_1 3.042290 1_555
Al1_1 Th2_7 3.219692 1_455
Al1_1 Th2_6 3.219692 1_455
Al1_2 Co1_6 2.428187 1_455
Al1_2 Co1_7 2.428187 1_454
Al1_2 Al2_2 2.589639 1_555
Al1_2 Th1_6 3.040072 1_455
Al1_2 Th0_2 3.042290 1_555
Al1_2 Th2_4 3.219692 1_465
Al1_2 Th2_5 3.219692 1_464
Al1_3 Co1_6 2.428187 1_455
Al1_3 Co1_7 2.428187 1_455
Al1_3 Al2_3 2.589639 1_555
Al1_3 Th1_7 3.040072 1_455
Al1_3 Th0_3 3.042290 1_555
Al1_3 Th2_5 3.219692 1_465
Al1_3 Th2_4 3.219692 1_465
Al1_4 Co1_1 2.428187 1_554
Al1_4 Co1_0 2.428187 1_555
Al1_4 Al2_4 2.589639 1_555
Al1_4 Th1_0 3.040072 1_555
Al1_4 Th0_4 3.042290 1_555
Al1_4 Th2_3 3.219692 1_554
Al1_4 Th2_2 3.219692 1_555
Al1_5 Co1_0 2.428187 1_555
Al1_5 Co1_1 2.428187 1_555
Al1_5 Al2_5 2.589639 1_555
Al1_5 Th1_1 3.040072 1_555
Al1_5 Th0_5 3.042290 1_555
Al1_5 Th2_2 3.219692 1_555
Al1_5 Th2_3 3.219692 1_555
Al1_6 Co1_3 2.428187 1_554
Al1_6 Co1_2 2.428187 1_555
Al1_6 Al2_6 2.589639 1_555
Al1_6 Th1_2 3.040072 1_555
Al1_6 Th0_6 3.042290 1_555
Al1_6 Th2_0 3.219692 1_565
Al1_6 Th2_1 3.219692 1_564
Al1_7 Co1_2 2.428187 1_555
Al1_7 Co1_3 2.428187 1_555
Al1_7 Al2_7 2.589639 1_555
Al1_7 Th1_3 3.040072 1_555
Al1_7 Th0_7 3.042290 1_555
Al1_7 Th2_0 3.219692 1_565
Al1_7 Th2_1 3.219692 1_565
Al2_0 Co2_3 2.428187 1_554
Al2_0 Co2_2 2.428187 1_555
Al2_0 Th0_2 3.040072 1_555
Al2_0 Th1_0 3.042290 1_555
Al2_0 Th2_7 3.219692 1_454
Al2_0 Th2_6 3.219692 1_455
Al2_1 Co2_2 2.428187 1_555
Al2_1 Co2_3 2.428187 1_555
Al2_1 Th0_3 3.040072 1_555
Al2_1 Th1_1 3.042290 1_555
Al2_1 Th2_7 3.219692 1_455
Al2_1 Th2_6 3.219692 1_455
Al2_2 Co2_0 2.428187 1_565
Al2_2 Co2_1 2.428187 1_564
Al2_2 Th0_0 3.040072 1_565
Al2_2 Th1_2 3.042290 1_555
Al2_2 Th2_5 3.219692 1_464
Al2_2 Th2_4 3.219692 1_465
Al2_3 Co2_1 2.428187 1_565
Al2_3 Co2_0 2.428187 1_565
Al2_3 Th0_1 3.040072 1_565
Al2_3 Th1_3 3.042290 1_555
Al2_3 Th2_5 3.219692 1_465
Al2_3 Th2_4 3.219692 1_465
Al2_4 Co2_6 2.428187 1_555
Al2_4 Co2_7 2.428187 1_554
Al2_4 Th0_6 3.040072 1_555
Al2_4 Th1_4 3.042290 1_555
Al2_4 Th2_3 3.219692 1_554
Al2_4 Th2_2 3.219692 1_555
Al2_5 Co2_6 2.428187 1_555
Al2_5 Co2_7 2.428187 1_555
Al2_5 Th0_7 3.040072 1_555
Al2_5 Th1_5 3.042290 1_555
Al2_5 Th2_3 3.219692 1_555
Al2_5 Th2_2 3.219692 1_555
Al2_6 Co2_4 2.428187 1_565
Al2_6 Co2_5 2.428187 1_564
Al2_6 Th0_4 3.040072 1_565
Al2_6 Th1_6 3.042290 1_555
Al2_6 Th2_1 3.219692 1_564
Al2_6 Th2_0 3.219692 1_565
Al2_7 Co2_4 2.428187 1_565
Al2_7 Co2_5 2.428187 1_565
Al2_7 Th0_5 3.040072 1_565
Al2_7 Th1_7 3.042290 1_555
Al2_7 Th2_0 3.219692 1_565
Al2_7 Th2_1 3.219692 1_565
Co0_0 Co2_0 2.538974 1_555
Co0_0 Co1_0 2.538974 1_555
Co0_0 Th0_1 2.711988 1_555
Co0_0 Th0_0 2.711988 1_555
Co0_0 Th1_0 2.711988 1_555
Co0_0 Th1_1 2.711988 1_555
Co0_1 Co2_1 2.538974 1_555
Co0_1 Co1_1 2.538974 1_555
Co0_1 Th0_1 2.711988 1_555
Co0_1 Th0_0 2.711988 1_556
Co0_1 Th1_1 2.711988 1_555
Co0_1 Th1_0 2.711988 1_556
Co0_2 Co2_2 2.538974 1_555
Co0_2 Co1_2 2.538974 1_555
Co0_2 Th0_3 2.711988 1_555
Co0_2 Th0_2 2.711988 1_555
Co0_2 Th1_2 2.711988 1_555
Co0_2 Th1_3 2.711988 1_555
Co0_3 Co2_3 2.538974 1_555
Co0_3 Co1_3 2.538974 1_555
Co0_3 Th0_3 2.711988 1_555
Co0_3 Th0_2 2.711988 1_556
Co0_3 Th1_2 2.711988 1_556
Co0_3 Th1_3 2.711988 1_555
Co0_4 Co2_4 2.538974 1_555
Co0_4 Co1_4 2.538974 1_555
Co0_4 Th0_5 2.711988 1_555
Co0_4 Th0_4 2.711988 1_555
Co0_4 Th1_5 2.711988 1_555
Co0_4 Th1_4 2.711988 1_555
Co0_5 Co2_5 2.538974 1_555
Co0_5 Co1_5 2.538974 1_555
Co0_5 Th0_4 2.711988 1_556
Co0_5 Th0_5 2.711988 1_555
Co0_5 Th1_4 2.711988 1_556
Co0_5 Th1_5 2.711988 1_555
Co0_6 Co2_6 2.538974 1_555
Co0_6 Co1_6 2.538974 1_555
Co0_6 Th0_6 2.711988 1_555
Co0_6 Th0_7 2.711988 1_555
Co0_6 Th1_6 2.711988 1_555
Co0_6 Th1_7 2.711988 1_555
Co0_7 Co2_7 2.538974 1_555
Co0_7 Co1_7 2.538974 1_555
Co0_7 Th0_6 2.711988 1_556
Co0_7 Th0_7 2.711988 1_555
Co0_7 Th1_6 2.711988 1_556
Co0_7 Th1_7 2.711988 1_555
Co1_0 Th2_0 3.458626 1_555
Co1_1 Th2_1 3.458626 1_555
Co1_2 Th2_2 3.458626 1_555
Co1_3 Th2_3 3.458626 1_555
Co1_4 Th2_4 3.458626 1_555
Co1_5 Th2_5 3.458626 1_555
Co1_6 Th2_6 3.458626 1_555
Co1_7 Th2_7 3.458626 1_555
Co2_0 Th2_0 3.458626 1_555
Co2_1 Th2_1 3.458626 1_555
Co2_2 Th2_2 3.458626 1_555
Co2_3 Th2_3 3.458626 1_555
Co2_4 Th2_4 3.458626 1_555
Co2_5 Th2_5 3.458626 1_555
Co2_6 Th2_6 3.458626 1_555
Co2_7 Th2_7 3.458626 1_555
