# generated using pymatgen
data_Fe3O4
_symmetry_space_group_name_H-M   'P 1'
_cell_length_a   6.05716200
_cell_length_b   6.11929900
_cell_length_c   8.56245749
_cell_angle_alpha   89.59256384
_cell_angle_beta   90.00000000
_cell_angle_gamma   90.00000000
_symmetry_Int_Tables_number   1
_chemical_formula_structural   Fe3O4
_chemical_formula_sum   'Fe12 O16'
_cell_volume   317.36447474
_cell_formula_units_Z   4
loop_
 _symmetry_equiv_pos_site_id
 _symmetry_equiv_pos_as_xyz
  1  'x, y, z'
loop_
 _atom_site_type_symbol
 _atom_site_label
 _atom_site_symmetry_multiplicity
 _atom_site_fract_x
 _atom_site_fract_y
 _atom_site_fract_z
 _atom_site_occupancy
  Fe  Fe0  1  0.75199600  0.24764100  0.25288400  1
  Fe  Fe1  1  0.75199600  0.75235900  0.74711600  1
  Fe  Fe2  1  0.24800400  0.75235900  0.74711600  1
  Fe  Fe3  1  0.24800400  0.24764100  0.25288400  1
  Fe  Fe4  1  0.00000000  0.50000000  0.50000000  1
  Fe  Fe5  1  0.50000000  0.50000000  0.00000000  1
  Fe  Fe6  1  0.50000000  0.00000000  0.00000000  1
  Fe  Fe7  1  0.00000000  0.00000000  0.50000000  1
  Fe  Fe8  1  0.50000000  0.25529400  0.62779200  1
  Fe  Fe9  1  0.50000000  0.74470600  0.37220800  1
  Fe  Fe10  1  0.00000000  0.24873900  0.87372400  1
  Fe  Fe11  1  0.00000000  0.75126100  0.12627600  1
  O  O0  1  0.73003100  0.25106500  0.00396700  1
  O  O1  1  0.73003100  0.74893500  0.99603300  1
  O  O2  1  0.26996900  0.74893500  0.99603300  1
  O  O3  1  0.26996900  0.25106500  0.00396700  1
  O  O4  1  0.76148400  0.25852600  0.49692900  1
  O  O5  1  0.76148400  0.74147400  0.50307100  1
  O  O6  1  0.23851600  0.74147400  0.50307100  1
  O  O7  1  0.23851600  0.25852600  0.49692900  1
  O  O8  1  0.50000000  0.99719700  0.75918300  1
  O  O9  1  0.50000000  0.00280300  0.24081700  1
  O  O10  1  0.50000000  0.48857500  0.23872600  1
  O  O11  1  0.50000000  0.51142500  0.76127400  1
  O  O12  1  0.00000000  0.50486000  0.74144900  1
  O  O13  1  0.00000000  0.49514000  0.25855100  1
  O  O14  1  0.00000000  0.01107100  0.24643800  1
  O  O15  1  0.00000000  0.98892900  0.75356200  1
loop_
_geom_bond_atom_site_label_1
_geom_bond_atom_site_label_2
_geom_bond_distance
_geom_bond_site_symmetry_2
Fe0 O14 2.087213 1_655
Fe0 O4 2.091949 1_555
Fe0 O10 2.125016 1_555
Fe0 O13 2.133958 1_655
Fe0 O0 2.135444 1_555
Fe0 O9 2.141828 1_555
Fe1 O15 2.087213 1_655
Fe1 O5 2.091949 1_555
Fe1 O11 2.125016 1_555
Fe1 O12 2.133958 1_655
Fe1 O1 2.135444 1_555
Fe1 O8 2.141828 1_555
Fe2 O15 2.087213 1_555
Fe2 O6 2.091949 1_555
Fe2 O11 2.125016 1_555
Fe2 O12 2.133958 1_555
Fe2 O2 2.135444 1_555
Fe2 O8 2.141828 1_555
Fe3 O14 2.087213 1_555
Fe3 O7 2.091949 1_555
Fe3 O10 2.125016 1_555
Fe3 O13 2.133958 1_555
Fe3 O3 2.135444 1_555
Fe3 O9 2.141828 1_555
Fe4 O5 2.066868 1_455
Fe4 O6 2.066868 1_555
Fe4 O4 2.066868 1_455
Fe4 O7 2.066868 1_555
Fe4 O13 2.067822 1_555
Fe4 O12 2.067822 1_555
Fe5 O11 2.044780 1_554
Fe5 O10 2.044780 1_555
Fe5 O1 2.064526 1_554
Fe5 O2 2.064526 1_554
Fe5 O3 2.064526 1_555
Fe5 O0 2.064526 1_555
Fe6 O8 2.062179 1_544
Fe6 O9 2.062179 1_555
Fe6 O1 2.074518 1_544
Fe6 O3 2.074518 1_555
Fe6 O0 2.074518 1_555
Fe6 O2 2.074518 1_544
Fe7 O4 2.142443 1_455
Fe7 O7 2.142443 1_555
Fe7 O6 2.142443 1_545
Fe7 O5 2.142443 1_445
Fe7 O14 2.171689 1_555
Fe7 O15 2.171689 1_545
Fe8 O8 1.932573 1_545
Fe8 O7 1.940155 1_555
Fe8 O4 1.940155 1_555
Fe8 O11 1.946365 1_555
Fe9 O9 1.932573 1_565
Fe9 O6 1.940155 1_555
Fe9 O5 1.940155 1_555
Fe9 O10 1.946365 1_555
Fe10 O15 1.899869 1_545
Fe10 O12 1.927149 1_555
Fe10 O3 1.979426 1_556
Fe10 O0 1.979426 1_456
Fe11 O14 1.899869 1_565
Fe11 O13 1.927149 1_555
Fe11 O2 1.979426 1_554
Fe11 O1 1.979426 1_454
