# generated using pymatgen
data_La7SmMn4(FeO5)4
_symmetry_space_group_name_H-M   'P 1'
_cell_length_a   11.06090525
_cell_length_b   11.89371255
_cell_length_c   17.89303083
_cell_angle_alpha   109.39032653
_cell_angle_beta   108.00038949
_cell_angle_gamma   89.96613504
_symmetry_Int_Tables_number   1
_chemical_formula_structural   La7SmMn4(FeO5)4
_chemical_formula_sum   'La28 Sm4 Mn16 Fe16 O80'
_cell_volume   2098.02997453
_cell_formula_units_Z   4
loop_
 _symmetry_equiv_pos_site_id
 _symmetry_equiv_pos_as_xyz
  1  'x, y, z'
loop_
 _atom_site_type_symbol
 _atom_site_label
 _atom_site_symmetry_multiplicity
 _atom_site_fract_x
 _atom_site_fract_y
 _atom_site_fract_z
 _atom_site_occupancy
  La  La0  1  0.30036011  0.06527724  0.11019990  1
  La  La1  1  0.30286713  0.06600583  0.60923997  1
  La  La2  1  0.30336790  0.56642383  0.60988476  1
  La  La3  1  0.80307261  0.06615598  0.60960572  1
  La  La4  1  0.80274176  0.56595685  0.10866709  1
  La  La5  1  0.80307101  0.56591299  0.60974693  1
  La  La6  1  0.19364550  0.43317374  0.38998162  1
  La  La7  1  0.19184376  0.43505503  0.89220678  1
  La  La8  1  0.19269125  0.93354571  0.38874731  1
  La  La9  1  0.19380723  0.93442286  0.89037032  1
  La  La10  1  0.69343259  0.43361684  0.38992166  1
  La  La11  1  0.69341685  0.93339949  0.38983308  1
  La  La12  1  0.69310305  0.93457748  0.89100269  1
  La  La13  1  0.05216972  0.29357898  0.10996238  1
  La  La14  1  0.05305590  0.29410764  0.60982371  1
  La  La15  1  0.05243363  0.79353948  0.60922336  1
  La  La16  1  0.55380445  0.29242005  0.10957247  1
  La  La17  1  0.55358589  0.29443540  0.61124960  1
  La  La18  1  0.55033880  0.79394550  0.11011048  1
  La  La19  1  0.55310940  0.79277044  0.60964944  1
  La  La20  1  0.44376537  0.20635174  0.39006026  1
  La  La21  1  0.44520374  0.20790205  0.89073697  1
  La  La22  1  0.44247427  0.70557720  0.38884536  1
  La  La23  1  0.44348552  0.70554114  0.89053209  1
  La  La24  1  0.94249386  0.20540418  0.38859673  1
  La  La25  1  0.94072314  0.20768989  0.89070848  1
  La  La26  1  0.94340987  0.70629207  0.38906005  1
  La  La27  1  0.94301155  0.70579081  0.89122211  1
  Sm  Sm0  1  0.29934526  0.56804466  0.10838629  1
  Sm  Sm1  1  0.80075811  0.06636200  0.10801868  1
  Sm  Sm2  1  0.69178364  0.43299305  0.89230083  1
  Sm  Sm3  1  0.05217239  0.79203924  0.10877868  1
  Mn  Mn0  1  0.10556790  0.09391844  0.24758270  1
  Mn  Mn1  1  0.11012412  0.09787339  0.75095431  1
  Mn  Mn2  1  0.11090003  0.59716400  0.24843512  1
  Mn  Mn3  1  0.10952288  0.59608063  0.75048542  1
  Mn  Mn4  1  0.61086947  0.09533487  0.24896498  1
  Mn  Mn5  1  0.60981512  0.09752321  0.75032551  1
  Mn  Mn6  1  0.60639266  0.59601265  0.24807306  1
  Mn  Mn7  1  0.61088371  0.59572512  0.75207233  1
  Mn  Mn8  1  0.35871722  0.40450930  0.24826575  1
  Mn  Mn9  1  0.36119663  0.40369391  0.75097498  1
  Mn  Mn10  1  0.35664873  0.90149614  0.24851841  1
  Mn  Mn11  1  0.36004649  0.90396014  0.75056309  1
  Mn  Mn12  1  0.85941168  0.40252330  0.24907248  1
  Mn  Mn13  1  0.85791924  0.40379262  0.75151845  1
  Mn  Mn14  1  0.86028759  0.90310842  0.24706508  1
  Mn  Mn15  1  0.85996125  0.90378728  0.75090377  1
  Fe  Fe0  1  0.00586849  0.99943914  0.00112551  1
  Fe  Fe1  1  0.00554281  0.00004285  0.49945374  1
  Fe  Fe2  1  0.00552140  0.50171630  0.00134628  1
  Fe  Fe3  1  0.00570447  0.49982475  0.49963052  1
  Fe  Fe4  1  0.50621950  0.00029037  0.00069869  1
  Fe  Fe5  1  0.50532274  0.99955696  0.49974463  1
  Fe  Fe6  1  0.50583318  0.50058858  0.00062281  1
  Fe  Fe7  1  0.50567300  0.49964170  0.50000461  1
  Fe  Fe8  1  0.25640332  0.25171227  0.00154578  1
  Fe  Fe9  1  0.25547467  0.24977783  0.49955655  1
  Fe  Fe10  1  0.25563692  0.75061037  0.00079513  1
  Fe  Fe11  1  0.25568268  0.75022873  0.49974338  1
  Fe  Fe12  1  0.75577729  0.24951438  0.00045346  1
  Fe  Fe13  1  0.75552198  0.24961280  0.50004881  1
  Fe  Fe14  1  0.75693016  0.75046596  0.00111227  1
  Fe  Fe15  1  0.75518637  0.74959975  0.49960318  1
  O  O0  1  0.11587796  0.11733884  0.47768615  1
  O  O1  1  0.11532647  0.11901979  0.97827820  1
  O  O2  1  0.11588877  0.61804829  0.47816125  1
  O  O3  1  0.11693719  0.62131836  0.98217392  1
  O  O4  1  0.61629947  0.11617792  0.47806631  1
  O  O5  1  0.61691236  0.11783357  0.97921931  1
  O  O6  1  0.61615677  0.61639472  0.47864450  1
  O  O7  1  0.61690558  0.61514882  0.97580109  1
  O  O8  1  0.14036511  0.38798843  0.02493216  1
  O  O9  1  0.13817469  0.38287939  0.52140342  1
  O  O10  1  0.13658194  0.88202127  0.02571578  1
  O  O11  1  0.13747576  0.88285685  0.52048194  1
  O  O12  1  0.63579243  0.38159394  0.01931735  1
  O  O13  1  0.63743283  0.38148074  0.52149033  1
  O  O14  1  0.64100761  0.88578051  0.02414793  1
  O  O15  1  0.63756887  0.88147541  0.52122011  1
  O  O16  1  0.36614539  0.11121584  0.47832507  1
  O  O17  1  0.36677947  0.11114484  0.97869296  1
  O  O18  1  0.36626771  0.61128814  0.47826899  1
  O  O19  1  0.36610690  0.61035287  0.98006586  1
  O  O20  1  0.86660532  0.11139713  0.47868921  1
  O  O21  1  0.86549249  0.10905533  0.98045533  1
  O  O22  1  0.86643277  0.61156940  0.47829964  1
  O  O23  1  0.86328562  0.60737195  0.97577263  1
  O  O24  1  0.38700500  0.39323581  0.02544190  1
  O  O25  1  0.38766231  0.38852826  0.52074204  1
  O  O26  1  0.38695824  0.88862575  0.02133249  1
  O  O27  1  0.38794060  0.88873448  0.52128422  1
  O  O28  1  0.88504187  0.38789410  0.01922334  1
  O  O29  1  0.88771816  0.38862523  0.52123242  1
  O  O30  1  0.89070616  0.89153522  0.02808752  1
  O  O31  1  0.88730117  0.88884842  0.52062118  1
  O  O32  1  0.09623165  0.11813405  0.13935342  1
  O  O33  1  0.09413094  0.11595672  0.63933011  1
  O  O34  1  0.10198008  0.61862633  0.13885667  1
  O  O35  1  0.09413701  0.61577807  0.63940825  1
  O  O36  1  0.60370153  0.11536931  0.13939310  1
  O  O37  1  0.59424476  0.11603290  0.63899557  1
  O  O38  1  0.59804560  0.61691389  0.13875734  1
  O  O39  1  0.59491018  0.61451668  0.64034260  1
  O  O40  1  0.45443097  0.38466885  0.35967975  1
  O  O41  1  0.46431098  0.38483272  0.86081959  1
  O  O42  1  0.45229964  0.88383218  0.36028206  1
  O  O43  1  0.45493830  0.88363480  0.86137238  1
  O  O44  1  0.95464342  0.38402081  0.36062850  1
  O  O45  1  0.95762558  0.38498351  0.86190988  1
  O  O46  1  0.95491085  0.88470353  0.35918964  1
  O  O47  1  0.95616005  0.88428332  0.86203120  1
  O  O48  1  0.34634833  0.27072472  0.13967474  1
  O  O49  1  0.34506425  0.27384026  0.63933153  1
  O  O50  1  0.34696131  0.77102715  0.13907624  1
  O  O51  1  0.34436739  0.77391947  0.63930458  1
  O  O52  1  0.84401594  0.27096442  0.13848842  1
  O  O53  1  0.84250456  0.27429221  0.63990424  1
  O  O54  1  0.85551226  0.77057470  0.13918915  1
  O  O55  1  0.84423152  0.77372079  0.63949268  1
  O  O56  1  0.20278913  0.22406346  0.35921979  1
  O  O57  1  0.20756753  0.22856576  0.86153366  1
  O  O58  1  0.20508468  0.72702301  0.36030431  1
  O  O59  1  0.20512825  0.72653161  0.86149929  1
  O  O60  1  0.70514148  0.22592996  0.36036022  1
  O  O61  1  0.70516517  0.22862077  0.86124851  1
  O  O62  1  0.70282017  0.72538966  0.35983662  1
  O  O63  1  0.70612155  0.72883688  0.86175584  1
  O  O64  1  0.41753511  0.07131537  0.24980254  1
  O  O65  1  0.41665144  0.07369657  0.75032831  1
  O  O66  1  0.41052465  0.57376774  0.24447855  1
  O  O67  1  0.41627076  0.57375671  0.75015166  1
  O  O68  1  0.91027721  0.07369225  0.24461155  1
  O  O69  1  0.91643666  0.07389136  0.75061494  1
  O  O70  1  0.91784032  0.57213448  0.24905272  1
  O  O71  1  0.91584006  0.57280043  0.75056241  1
  O  O72  1  0.16633238  0.42735314  0.25003398  1
  O  O73  1  0.16791246  0.42686507  0.75087444  1
  O  O74  1  0.16054660  0.92186306  0.24446076  1
  O  O75  1  0.16649537  0.92732663  0.75034441  1
  O  O76  1  0.66613317  0.42726593  0.24963945  1
  O  O77  1  0.66617017  0.42652825  0.75584678  1
  O  O78  1  0.66779606  0.92570602  0.24969700  1
  O  O79  1  0.66645057  0.92750931  0.75014945  1
loop_
_geom_bond_atom_site_label_1
_geom_bond_atom_site_label_2
_geom_bond_distance
_geom_bond_site_symmetry_2
La0 O48 2.342585 1_555
La0 O64 2.409275 1_555
La0 O32 2.504735 1_555
La0 O10 2.538078 1_545
La0 O26 2.565328 1_545
La0 O1 2.860711 1_554
La0 O17 2.880185 1_554
La1 O49 2.362295 1_555
La1 O65 2.418378 1_555
La1 O27 2.552907 1_545
La1 O11 2.554582 1_545
La1 O33 2.554938 1_555
La1 O16 2.848907 1_555
La1 O0 2.852218 1_555
La1 O37 3.123456 1_555
La2 O51 2.358902 1_555
La2 O67 2.404972 1_555
La2 O35 2.554923 1_555
La2 O9 2.555905 1_555
La2 O25 2.562446 1_555
La2 O18 2.856975 1_555
La2 O2 2.858498 1_555
La2 O39 3.119623 1_555
La3 O53 2.361420 1_555
La3 O69 2.416066 1_555
La3 O37 2.550630 1_555
La3 O31 2.556411 1_545
La3 O15 2.566297 1_545
La3 O4 2.843348 1_555
La3 O20 2.850513 1_555
La3 O33 3.119755 1_655
La4 O54 2.341755 1_555
La4 O70 2.415994 1_555
La4 O38 2.513678 1_555
La4 O28 2.553971 1_555
La4 O12 2.574204 1_555
La4 O23 2.847409 1_554
La4 O7 2.849792 1_554
La4 O34 3.211237 1_655
La5 O55 2.361666 1_555
La5 O71 2.414887 1_555
La5 O39 2.549992 1_555
La5 O29 2.554972 1_555
La5 O13 2.564895 1_555
La5 O6 2.841480 1_555
La5 O22 2.860976 1_555
La5 O35 3.120179 1_655
La6 O56 2.371490 1_555
La6 O72 2.404969 1_555
La6 O44 2.558506 1_455
La6 O18 2.558797 1_555
La6 O2 2.568439 1_555
La6 O25 2.842862 1_555
La6 O9 2.844323 1_555
La6 O40 3.115158 1_555
La7 O57 2.350853 1_555
La7 O73 2.428468 1_555
La7 O45 2.505903 1_455
La7 O19 2.547399 1_555
La7 O3 2.576792 1_555
La7 O8 2.827795 1_556
La7 O24 2.862875 1_556
La7 O41 3.252076 1_555
La8 O58 2.350312 1_555
La8 O74 2.450624 1_555
La8 O46 2.544118 1_455
La8 O0 2.560556 1_565
La8 O16 2.563315 1_565
La8 O11 2.850664 1_555
La8 O27 2.871337 1_555
La8 O42 3.091360 1_555
La9 O59 2.363844 1_555
La9 O75 2.401599 1_555
La9 O47 2.549417 1_455
La9 O17 2.550741 1_565
La9 O1 2.568388 1_565
La9 O26 2.846776 1_556
La9 O10 2.933254 1_556
La9 O43 3.113311 1_555
La10 O60 2.360651 1_555
La10 O76 2.408952 1_555
La10 O6 2.553735 1_555
La10 O40 2.555142 1_555
La10 O22 2.560106 1_555
La10 O29 2.852666 1_555
La10 O13 2.860289 1_555
La10 O44 3.114316 1_555
La11 O62 2.360530 1_555
La11 O78 2.405107 1_555
La11 O4 2.548953 1_565
La11 O20 2.562571 1_565
La11 O42 2.581319 1_555
La11 O31 2.841936 1_555
La11 O15 2.855136 1_555
La11 O46 3.125563 1_555
La12 O63 2.340589 1_555
La12 O79 2.417848 1_555
La12 O21 2.533184 1_565
La12 O5 2.547139 1_565
La12 O43 2.552101 1_555
La12 O14 2.848070 1_556
La12 O30 2.928274 1_556
La12 O47 3.133187 1_555
La13 O32 2.331829 1_555
La13 O72 2.409587 1_555
La13 O52 2.540074 1_455
La13 O8 2.565208 1_555
La13 O28 2.581391 1_455
La13 O1 2.849138 1_554
La13 O21 2.849751 1_454
La13 O48 3.157535 1_555
La14 O33 2.359705 1_555
La14 O73 2.418977 1_555
La14 O29 2.551489 1_455
La14 O9 2.556401 1_555
La14 O53 2.574597 1_455
La14 O20 2.847793 1_455
La14 O0 2.864643 1_555
La14 O49 3.130271 1_555
La15 O35 2.361695 1_555
La15 O75 2.421827 1_555
La15 O55 2.551188 1_455
La15 O31 2.556503 1_455
La15 O11 2.564944 1_555
La15 O22 2.839836 1_455
La15 O2 2.848522 1_555
La15 O51 3.127182 1_555
La16 O36 2.363549 1_555
La16 O76 2.409552 1_555
La16 O48 2.545385 1_555
La16 O24 2.566542 1_555
La16 O12 2.568834 1_555
La16 O5 2.833335 1_554
La16 O17 2.840880 1_554
La16 O52 3.114026 1_555
La17 O37 2.347638 1_555
La17 O77 2.454590 1_555
La17 O49 2.535901 1_555
La17 O13 2.556790 1_555
La17 O25 2.570469 1_555
La17 O16 2.867095 1_555
La17 O4 2.884480 1_555
La17 O53 3.098513 1_555
La18 O38 2.350050 1_555
La18 O78 2.404130 1_555
La18 O50 2.493685 1_555
La18 O26 2.543301 1_555
La18 O14 2.575823 1_555
La18 O19 2.834770 1_554
La18 O7 2.921998 1_554
La19 O39 2.371759 1_555
La19 O79 2.416455 1_555
La19 O51 2.549418 1_555
La19 O15 2.551975 1_555
La19 O27 2.559461 1_555
La19 O18 2.844243 1_555
La19 O6 2.850450 1_555
La19 O55 3.118030 1_555
La20 O40 2.369154 1_555
La20 O64 2.415802 1_555
La20 O4 2.556078 1_555
La20 O16 2.556849 1_555
La20 O56 2.573091 1_555
La20 O25 2.842281 1_555
La20 O13 2.845524 1_555
La20 O60 3.118871 1_555
La21 O41 2.361781 1_555
La21 O65 2.409744 1_555
La21 O57 2.545182 1_555
La21 O5 2.554730 1_555
La21 O17 2.569275 1_555
La21 O12 2.802957 1_556
La21 O24 2.917571 1_556
La21 O61 3.103540 1_555
La22 O42 2.349890 1_555
La22 O66 2.450058 1_555
La22 O58 2.545061 1_555
La22 O18 2.560176 1_555
La22 O6 2.572727 1_555
La22 O27 2.859913 1_555
La22 O15 2.863508 1_555
La22 O62 3.102130 1_555
La23 O43 2.355851 1_555
La23 O67 2.403268 1_555
La23 O7 2.537920 1_555
La23 O59 2.553803 1_555
La23 O19 2.575591 1_555
La23 O26 2.851140 1_556
La23 O14 2.908396 1_556
La23 O63 3.130655 1_555
La24 O44 2.351481 1_555
La24 O68 2.443747 1_555
La24 O60 2.543342 1_555
La24 O0 2.555964 1_655
La24 O20 2.566623 1_555
La24 O29 2.863790 1_555
La24 O9 2.878039 1_655
La24 O56 3.102955 1_655
La25 O45 2.351280 1_555
La25 O69 2.413235 1_555
La25 O61 2.523076 1_555
La25 O1 2.553769 1_655
La25 O21 2.593319 1_555
La25 O28 2.803925 1_556
La25 O8 2.924189 1_656
La25 O57 3.175682 1_655
La26 O46 2.366438 1_555
La26 O70 2.410445 1_555
La26 O2 2.551820 1_655
La26 O22 2.565099 1_555
La26 O62 2.573872 1_555
La26 O31 2.854556 1_555
La26 O11 2.855526 1_655
La26 O58 3.115823 1_655
La27 O47 2.363137 1_555
La27 O71 2.411711 1_555
La27 O23 2.537376 1_555
La27 O63 2.541642 1_555
La27 O3 2.550919 1_655
La27 O10 2.870590 1_656
La27 O30 2.914500 1_556
La27 O59 3.128941 1_655
Mn0 O32 2.022513 1_555
Mn0 O56 2.040539 1_555
Mn0 O74 2.122311 1_545
Mn0 O68 2.155885 1_455
Mn1 O33 2.033117 1_555
Mn1 O57 2.033352 1_555
Mn1 O75 2.119304 1_545
Mn1 O69 2.159312 1_455
Mn2 O34 2.032719 1_555
Mn2 O58 2.034148 1_555
Mn2 O72 2.117056 1_555
Mn2 O70 2.160153 1_455
Mn3 O59 2.031876 1_555
Mn3 O35 2.033252 1_555
Mn3 O73 2.114878 1_555
Mn3 O71 2.160770 1_455
Mn4 O36 2.030030 1_555
Mn4 O60 2.033324 1_555
Mn4 O78 2.116120 1_545
Mn4 O64 2.162913 1_555
Mn5 O37 2.031114 1_555
Mn5 O61 2.033738 1_555
Mn5 O79 2.115846 1_545
Mn5 O65 2.155461 1_555
Mn6 O38 2.026684 1_555
Mn6 O62 2.035919 1_555
Mn6 O76 2.118940 1_555
Mn6 O66 2.161254 1_555
Mn7 O63 2.031980 1_555
Mn7 O39 2.038686 1_555
Mn7 O77 2.119304 1_555
Mn7 O67 2.156873 1_555
Mn8 O48 2.027067 1_555
Mn8 O40 2.039201 1_555
Mn8 O66 2.121680 1_555
Mn8 O72 2.153651 1_555
Mn9 O41 2.030064 1_555
Mn9 O49 2.034481 1_555
Mn9 O67 2.118802 1_555
Mn9 O73 2.154952 1_555
Mn10 O50 2.026567 1_555
Mn10 O42 2.033153 1_555
Mn10 O64 2.120099 1_565
Mn10 O74 2.163915 1_555
Mn11 O43 2.030522 1_555
Mn11 O51 2.031698 1_555
Mn11 O65 2.115729 1_565
Mn11 O75 2.157622 1_555
Mn12 O52 2.031943 1_555
Mn12 O44 2.033274 1_555
Mn12 O70 2.118809 1_555
Mn12 O76 2.160491 1_555
Mn13 O45 2.028460 1_555
Mn13 O53 2.034022 1_555
Mn13 O71 2.117188 1_555
Mn13 O77 2.159711 1_555
Mn14 O54 2.032265 1_555
Mn14 O46 2.040084 1_555
Mn14 O68 2.121194 1_565
Mn14 O78 2.158829 1_555
Mn15 O55 2.033624 1_555
Mn15 O47 2.034236 1_555
Mn15 O69 2.119878 1_565
Mn15 O79 2.155243 1_555
Fe0 O21 2.051885 1_464
Fe0 O10 2.060757 1_555
Fe0 O30 2.072490 1_455
Fe0 O1 2.085606 1_564
Fe0 O47 2.294369 1_454
Fe0 O32 2.294472 1_565
Fe1 O11 2.054311 1_545
Fe1 O20 2.055539 1_455
Fe1 O31 2.060046 1_445
Fe1 O0 2.060084 1_555
Fe1 O33 2.306430 1_555
Fe1 O46 2.310944 1_445
Fe2 O23 2.048953 1_454
Fe2 O8 2.054250 1_555
Fe2 O3 2.060904 1_554
Fe2 O28 2.064943 1_455
Fe2 O34 2.287640 1_555
Fe2 O45 2.305840 1_454
Fe3 O9 2.058627 1_555
Fe3 O29 2.062757 1_455
Fe3 O22 2.063043 1_455
Fe3 O2 2.064003 1_555
Fe3 O44 2.293497 1_455
Fe3 O35 2.305054 1_555
Fe4 O17 2.058925 1_554
Fe4 O14 2.060119 1_545
Fe4 O5 2.061765 1_554
Fe4 O26 2.066147 1_545
Fe4 O36 2.299386 1_555
Fe4 O43 2.300423 1_544
Fe5 O27 2.054320 1_555
Fe5 O4 2.057836 1_565
Fe5 O16 2.061872 1_565
Fe5 O15 2.065978 1_555
Fe5 O42 2.298106 1_555
Fe5 O37 2.299944 1_565
Fe6 O19 2.047763 1_554
Fe6 O12 2.048416 1_555
Fe6 O24 2.072254 1_555
Fe6 O7 2.074655 1_554
Fe6 O38 2.288334 1_555
Fe6 O41 2.316853 1_554
Fe7 O6 2.052035 1_555
Fe7 O25 2.053045 1_555
Fe7 O13 2.063222 1_555
Fe7 O18 2.064465 1_555
Fe7 O40 2.310200 1_555
Fe7 O39 2.310439 1_555
Fe8 O24 2.060618 1_555
Fe8 O1 2.064979 1_554
Fe8 O17 2.074858 1_554
Fe8 O8 2.080543 1_555
Fe8 O48 2.293231 1_555
Fe8 O57 2.312931 1_554
Fe9 O16 2.056224 1_555
Fe9 O0 2.058794 1_555
Fe9 O9 2.059711 1_555
Fe9 O25 2.061492 1_555
Fe9 O49 2.304820 1_555
Fe9 O56 2.307462 1_555
Fe10 O3 2.043522 1_554
Fe10 O26 2.052279 1_555
Fe10 O10 2.067247 1_555
Fe10 O19 2.068886 1_554
Fe10 O50 2.293025 1_555
Fe10 O59 2.296071 1_554
Fe11 O27 2.057943 1_555
Fe11 O18 2.059387 1_555
Fe11 O2 2.059676 1_555
Fe11 O11 2.060159 1_555
Fe11 O58 2.300932 1_555
Fe11 O51 2.301449 1_555
Fe12 O5 2.050246 1_554
Fe12 O28 2.050575 1_555
Fe12 O21 2.064131 1_554
Fe12 O12 2.065266 1_555
Fe12 O52 2.282527 1_555
Fe12 O61 2.303604 1_554
Fe13 O13 2.054483 1_555
Fe13 O20 2.056402 1_555
Fe13 O4 2.063689 1_555
Fe13 O29 2.063870 1_555
Fe13 O53 2.301865 1_555
Fe13 O60 2.304127 1_555
Fe14 O30 2.064307 1_555
Fe14 O7 2.068711 1_554
Fe14 O14 2.070705 1_555
Fe14 O23 2.073860 1_554
Fe14 O54 2.300668 1_555
Fe14 O63 2.303856 1_554
Fe15 O15 2.051344 1_555
Fe15 O22 2.055853 1_555
Fe15 O6 2.065770 1_555
Fe15 O31 2.066260 1_555
Fe15 O62 2.302047 1_555
Fe15 O55 2.305962 1_555
O3 Sm0 2.775746 1_556
O3 Sm3 2.777564 1_556
O5 Sm1 2.803576 1_556
O7 Sm2 2.495054 1_555
O8 Sm0 2.483215 1_555
O10 Sm3 2.478098 1_555
O12 Sm2 2.777659 1_554
O14 Sm1 2.492532 1_565
O19 Sm0 2.808171 1_556
O21 Sm1 2.785752 1_556
O23 Sm2 2.515443 1_555
O23 Sm3 2.883482 1_656
O24 Sm0 2.510696 1_555
O28 Sm2 2.796753 1_554
O30 Sm3 2.492577 1_655
O30 Sm1 2.502261 1_565
O32 Sm1 3.164698 1_455
O34 Sm3 2.323709 1_555
O34 Sm0 2.437435 1_555
O36 Sm1 2.437854 1_555
O38 Sm0 3.198711 1_555
O41 Sm2 2.426406 1_555
O45 Sm2 3.169874 1_555
O50 Sm0 2.312971 1_555
O50 Sm3 3.159839 1_555
O52 Sm1 2.325341 1_555
O54 Sm3 2.432561 1_655
O61 Sm2 2.322232 1_555
O66 Sm0 2.342199 1_555
O68 Sm1 2.340357 1_555
O74 Sm3 2.330145 1_555
O77 Sm2 2.344211 1_555
