# generated using pymatgen
data_LiCr(PO3)4
_symmetry_space_group_name_H-M   'P 1'
_cell_length_a   10.37867200
_cell_length_b   9.07134500
_cell_length_c   9.42082578
_cell_angle_alpha   88.82683199
_cell_angle_beta   90.00000000
_cell_angle_gamma   90.00000000
_symmetry_Int_Tables_number   1
_chemical_formula_structural   LiCr(PO3)4
_chemical_formula_sum   'Li4 Cr4 P16 O48'
_cell_volume   886.77082857
_cell_formula_units_Z   4
loop_
 _symmetry_equiv_pos_site_id
 _symmetry_equiv_pos_as_xyz
  1  'x, y, z'
loop_
 _atom_site_type_symbol
 _atom_site_label
 _atom_site_symmetry_multiplicity
 _atom_site_fract_x
 _atom_site_fract_y
 _atom_site_fract_z
 _atom_site_occupancy
  Li  Li0  1  0.81788900  0.89412000  0.75213900  1
  Li  Li1  1  0.16868500  0.38589600  0.74934000  1
  Li  Li2  1  0.66868500  0.61410400  0.25066000  1
  Li  Li3  1  0.31788900  0.10588000  0.24786100  1
  Cr  Cr0  1  0.29014500  0.74630000  0.26509800  1
  Cr  Cr1  1  0.71090100  0.25519300  0.23621000  1
  Cr  Cr2  1  0.79014500  0.25370000  0.73490200  1
  Cr  Cr3  1  0.21090100  0.74480700  0.76379000  1
  P  P0  1  0.10722500  0.53846300  0.03707400  1
  P  P1  1  0.61215600  0.73671000  0.55346400  1
  P  P2  1  0.11215600  0.26329000  0.44653600  1
  P  P3  1  0.01849300  0.75486800  0.48532700  1
  P  P4  1  0.98229700  0.24615400  0.01662300  1
  P  P5  1  0.38588900  0.94144800  0.53816200  1
  P  P6  1  0.51849300  0.24513200  0.51467300  1
  P  P7  1  0.39393900  0.53954500  0.54433400  1
  P  P8  1  0.88588900  0.05855200  0.46183800  1
  P  P9  1  0.38907500  0.25692400  0.94839800  1
  P  P10  1  0.60722500  0.46153700  0.96292600  1
  P  P11  1  0.89393900  0.46045500  0.45566600  1
  P  P12  1  0.88907500  0.74307600  0.05160200  1
  P  P13  1  0.11340300  0.93825200  0.04364600  1
  P  P14  1  0.61340300  0.06174800  0.95635400  1
  P  P15  1  0.48229700  0.75384600  0.98337700  1
  O  O0  1  0.91096700  0.63437800  0.44784300  1
  O  O1  1  0.72797300  0.07673000  0.85522100  1
  O  O2  1  0.87856800  0.77525400  0.89790600  1
  O  O3  1  0.27239300  0.91002700  0.63383200  1
  O  O4  1  0.00568600  0.14138700  0.39721400  1
  O  O5  1  0.37856800  0.22474600  0.10209400  1
  O  O6  1  0.99774200  0.85419800  0.11902900  1
  O  O7  1  0.78752000  0.42481400  0.35066500  1
  O  O8  1  0.22797300  0.92327000  0.14477900  1
  O  O9  1  0.03152900  0.41265200  0.39687700  1
  O  O10  1  0.12938700  0.74853000  0.38424700  1
  O  O11  1  0.86558400  0.08418100  0.61995000  1
  O  O12  1  0.77875900  0.74009900  0.15013200  1
  O  O13  1  0.04859300  0.74685900  0.64208300  1
  O  O14  1  0.63479900  0.10405700  0.10778100  1
  O  O15  1  0.87123900  0.40818900  0.60663600  1
  O  O16  1  0.95126600  0.26092400  0.86011100  1
  O  O17  1  0.92790800  0.89199000  0.44608400  1
  O  O18  1  0.63641200  0.42964400  0.11963200  1
  O  O19  1  0.41096700  0.36562200  0.55215700  1
  O  O20  1  0.53152900  0.58734800  0.60312300  1
  O  O21  1  0.70555400  0.40584800  0.86015600  1
  O  O22  1  0.37312600  0.74855400  0.88024000  1
  O  O23  1  0.27875900  0.25990100  0.84986800  1
  O  O24  1  0.20555400  0.59415200  0.13984400  1
  O  O25  1  0.22161800  0.24572800  0.34796800  1
  O  O26  1  0.28752000  0.57518600  0.64933500  1
  O  O27  1  0.72161800  0.75427200  0.65203200  1
  O  O28  1  0.96517500  0.58596300  0.07745500  1
  O  O29  1  0.37123900  0.59181100  0.39336400  1
  O  O30  1  0.45126600  0.73907600  0.13988900  1
  O  O31  1  0.62433700  0.73833700  0.39746800  1
  O  O32  1  0.77239300  0.08997300  0.36616800  1
  O  O33  1  0.46517500  0.41403700  0.92254500  1
  O  O34  1  0.42790800  0.10801000  0.55391600  1
  O  O35  1  0.59178500  0.63573900  0.94262900  1
  O  O36  1  0.06897000  0.10478000  0.04954300  1
  O  O37  1  0.49774200  0.14580200  0.88097100  1
  O  O38  1  0.09178500  0.36426100  0.05737100  1
  O  O39  1  0.56897000  0.89522000  0.95045700  1
  O  O40  1  0.13479900  0.89594300  0.89221900  1
  O  O41  1  0.54859300  0.25314100  0.35791700  1
  O  O42  1  0.50568600  0.85861300  0.60278600  1
  O  O43  1  0.36558400  0.91581900  0.38005000  1
  O  O44  1  0.87312600  0.25144600  0.11976000  1
  O  O45  1  0.62938700  0.25147000  0.61575300  1
  O  O46  1  0.13641200  0.57035600  0.88036800  1
  O  O47  1  0.12433700  0.26166300  0.60253200  1
loop_
_geom_bond_atom_site_label_1
_geom_bond_atom_site_label_2
_geom_bond_distance
_geom_bond_site_symmetry_2
Li0 O2 1.839688 1_555
Li0 O27 1.883112 1_555
Li0 O1 2.150319 1_565
Li0 O11 2.163449 1_565
Li1 O47 1.859718 1_555
Li1 O23 1.861194 1_555
Li1 O46 2.126130 1_555
Li1 O26 2.300217 1_555
Li2 O31 1.859718 1_555
Li2 O12 1.861194 1_555
Li2 O18 2.126130 1_555
Li2 O7 2.300217 1_555
Li3 O5 1.839688 1_555
Li3 O25 1.883112 1_555
Li3 O8 2.150319 1_545
Li3 O43 2.163449 1_545
Cr0 O10 2.011230 1_555
Cr0 O29 2.015732 1_555
Cr0 O24 2.033416 1_555
Cr0 O30 2.048213 1_555
Cr0 O8 2.050329 1_555
Cr0 O43 2.053947 1_555
Cr1 O14 2.008807 1_555
Cr1 O44 2.010222 1_555
Cr1 O32 2.019260 1_555
Cr1 O41 2.037596 1_555
Cr1 O7 2.056818 1_555
Cr1 O18 2.058400 1_555
Cr2 O45 2.011230 1_555
Cr2 O15 2.015732 1_555
Cr2 O21 2.033416 1_555
Cr2 O16 2.048213 1_555
Cr2 O1 2.050329 1_555
Cr2 O11 2.053947 1_555
Cr3 O40 2.008807 1_555
Cr3 O22 2.010222 1_555
Cr3 O3 2.019260 1_555
Cr3 O13 2.037596 1_555
Cr3 O26 2.056818 1_555
Cr3 O46 2.058400 1_555
O0 P11 1.587794 1_555
O0 P3 1.606416 1_655
O1 P14 1.528017 1_555
O2 P12 1.475238 1_556
O3 P5 1.506846 1_555
O4 P8 1.569215 1_455
O4 P2 1.637331 1_555
O5 P9 1.475238 1_554
O6 P13 1.582570 1_655
O6 P12 1.648579 1_555
O7 P11 1.521851 1_555
O8 P13 1.528017 1_555
O9 P11 1.594931 1_455
O9 P2 1.651949 1_555
O10 P3 1.495656 1_555
O11 P8 1.526889 1_555
O12 P12 1.473836 1_555
O13 P3 1.509745 1_555
O14 P14 1.501375 1_554
O15 P11 1.508481 1_555
O16 P4 1.512499 1_556
O17 P8 1.582510 1_565
O17 P3 1.596551 1_655
O18 P10 1.528867 1_554
O19 P7 1.587794 1_555
O19 P6 1.606416 1_555
O20 P7 1.594931 1_555
O20 P1 1.651949 1_555
O21 P10 1.501355 1_555
O22 P15 1.494019 1_555
O23 P9 1.473836 1_555
O24 P0 1.501355 1_555
O25 P2 1.477964 1_555
O26 P7 1.521851 1_555
O27 P1 1.477964 1_555
O28 P0 1.584497 1_655
O28 P12 1.643224 1_555
O29 P7 1.508481 1_555
O30 P15 1.512499 1_554
O31 P1 1.474812 1_555
O32 P8 1.506846 1_555
O33 P10 1.584497 1_555
O33 P9 1.643224 1_555
O34 P5 1.582510 1_545
O34 P6 1.596551 1_555
O35 P10 1.595947 1_555
O35 P15 1.613490 1_555
O36 P13 1.581518 1_545
O36 P4 1.591783 1_455
O37 P14 1.582570 1_555
O37 P9 1.648579 1_555
O38 P0 1.595947 1_555
O38 P4 1.613490 1_455
O39 P14 1.581518 1_565
O39 P15 1.591783 1_555
O40 P13 1.501375 1_556
O41 P6 1.509745 1_555
O42 P5 1.569215 1_555
O42 P1 1.637331 1_555
O43 P5 1.526889 1_555
O44 P4 1.494019 1_555
O45 P6 1.495656 1_555
O46 P0 1.528867 1_556
O47 P2 1.474812 1_555
