# generated using pymatgen
data_Mg2Si3
_symmetry_space_group_name_H-M   'P 1'
_cell_length_a   6.10322412
_cell_length_b   6.10322412
_cell_length_c   8.43345889
_cell_angle_alpha   72.65087170
_cell_angle_beta   72.65087170
_cell_angle_gamma   36.89024498
_symmetry_Int_Tables_number   1
_chemical_formula_structural   Mg2Si3
_chemical_formula_sum   'Mg4 Si6'
_cell_volume   179.01488288
_cell_formula_units_Z   2
loop_
 _symmetry_equiv_pos_site_id
 _symmetry_equiv_pos_as_xyz
  1  'x, y, z'
loop_
 _atom_site_type_symbol
 _atom_site_label
 _atom_site_symmetry_multiplicity
 _atom_site_fract_x
 _atom_site_fract_y
 _atom_site_fract_z
 _atom_site_occupancy
  Mg  Mg0  1  0.14226100  0.14226100  0.99243500  1
  Mg  Mg1  1  0.85773900  0.85773900  0.00756500  1
  Mg  Mg2  1  0.12450800  0.12450800  0.60111400  1
  Mg  Mg3  1  0.87549200  0.87549200  0.39888600  1
  Si  Si0  1  0.41691000  0.41691000  0.64148400  1
  Si  Si1  1  0.23204200  0.23204200  0.26223300  1
  Si  Si2  1  0.76795800  0.76795800  0.73776700  1
  Si  Si3  1  0.58309000  0.58309000  0.35851600  1
  Si  Si4  1  0.53047200  0.53047200  0.84636100  1
  Si  Si5  1  0.46952800  0.46952800  0.15363900  1
loop_
_geom_bond_atom_site_label_1
_geom_bond_atom_site_label_2
_geom_bond_distance
_geom_bond_site_symmetry_2
Mg0 Si1 2.782990 1_556
Mg0 Si5 2.805031 1_546
Mg0 Si5 2.805031 1_456
Mg0 Si4 2.815070 1_455
Mg0 Si4 2.815070 1_545
Mg0 Si2 2.914591 1_545
Mg0 Si2 2.914591 1_455
Mg1 Si2 2.782990 1_554
Mg1 Si4 2.805031 1_564
Mg1 Si4 2.805031 1_654
Mg1 Si5 2.815070 1_565
Mg1 Si5 2.815070 1_655
Mg1 Si1 2.914591 1_655
Mg1 Si1 2.914591 1_565
Mg2 Si1 2.735145 1_555
Mg2 Si4 2.788634 1_455
Mg2 Si4 2.788634 1_545
Mg2 Si3 2.960011 1_455
Mg2 Si3 2.960011 1_545
Mg2 Si2 3.003277 1_545
Mg2 Si2 3.003277 1_455
Mg2 Si0 3.018080 1_545
Mg2 Si0 3.018080 1_455
Mg3 Si2 2.735145 1_555
Mg3 Si5 2.788634 1_565
Mg3 Si5 2.788634 1_655
Mg3 Si0 2.960011 1_655
Mg3 Si0 2.960011 1_565
Mg3 Si1 3.003277 1_565
Mg3 Si1 3.003277 1_655
Mg3 Si3 3.018080 1_565
Mg3 Si3 3.018080 1_655
Si0 Si4 2.478493 1_555
Si0 Si2 2.546095 1_455
Si0 Si2 2.546095 1_545
Si0 Si3 2.551612 1_555
Si1 Si3 2.546095 1_545
Si1 Si3 2.546095 1_455
Si1 Si5 2.611049 1_555
Si2 Si4 2.611049 1_555
Si3 Si5 2.478493 1_555
Si4 Si5 2.462466 1_556
