# generated using pymatgen
data_CrN2
_symmetry_space_group_name_H-M   'P 1'
_cell_length_a   13.58525865
_cell_length_b   12.18509346
_cell_length_c   12.02585929
_cell_angle_alpha   68.26297168
_cell_angle_beta   56.42441601
_cell_angle_gamma   55.31261231
_symmetry_Int_Tables_number   1
_chemical_formula_structural   CrN2
_chemical_formula_sum   'Cr18 N36'
_cell_volume   1359.30853977
_cell_formula_units_Z   18
loop_
 _symmetry_equiv_pos_site_id
 _symmetry_equiv_pos_as_xyz
  1  'x, y, z'
loop_
 _atom_site_type_symbol
 _atom_site_label
 _atom_site_symmetry_multiplicity
 _atom_site_fract_x
 _atom_site_fract_y
 _atom_site_fract_z
 _atom_site_occupancy
  Cr  Cr0  1  0.29712800  0.32300700  0.45254000  1
  Cr  Cr1  1  0.92732500  0.45254000  0.32300700  1
  Cr  Cr2  1  0.32300700  0.29712800  0.92732500  1
  Cr  Cr3  1  0.45254000  0.92732500  0.29712800  1
  Cr  Cr4  1  0.70287200  0.67699300  0.54746000  1
  Cr  Cr5  1  0.07267500  0.54746000  0.67699300  1
  Cr  Cr6  1  0.67699300  0.70287200  0.07267500  1
  Cr  Cr7  1  0.54746000  0.07267500  0.70287200  1
  Cr  Cr8  1  0.60849000  0.21396800  0.39151000  1
  Cr  Cr9  1  0.78603200  0.39151000  0.21396800  1
  Cr  Cr10  1  0.21396800  0.60849000  0.78603200  1
  Cr  Cr11  1  0.39151000  0.78603200  0.60849000  1
  Cr  Cr12  1  0.29524000  0.07378400  0.70476000  1
  Cr  Cr13  1  0.92621600  0.70476000  0.07378400  1
  Cr  Cr14  1  0.07378400  0.29524000  0.92621600  1
  Cr  Cr15  1  0.70476000  0.92621600  0.29524000  1
  Cr  Cr16  1  0.25000000  0.25000000  0.25000000  1
  Cr  Cr17  1  0.75000000  0.75000000  0.75000000  1
  N  N0  1  0.28708500  0.31562800  0.31861900  1
  N  N1  1  0.07866800  0.31861900  0.31562800  1
  N  N2  1  0.31562800  0.28708500  0.07866800  1
  N  N3  1  0.31861900  0.07866800  0.28708500  1
  N  N4  1  0.71291500  0.68437200  0.68138100  1
  N  N5  1  0.92133200  0.68138100  0.68437200  1
  N  N6  1  0.68437200  0.71291500  0.92133200  1
  N  N7  1  0.68138100  0.92133200  0.71291500  1
  N  N8  1  0.29273000  0.18580700  0.56574400  1
  N  N9  1  0.95572000  0.56574400  0.18580700  1
  N  N10  1  0.18580700  0.29273000  0.95572000  1
  N  N11  1  0.56574400  0.95572000  0.29273000  1
  N  N12  1  0.70727000  0.81419300  0.43425600  1
  N  N13  1  0.04428000  0.43425600  0.81419300  1
  N  N14  1  0.81419300  0.70727000  0.04428000  1
  N  N15  1  0.43425600  0.04428000  0.70727000  1
  N  N16  1  0.44944400  0.30985700  0.40222200  1
  N  N17  1  0.83847600  0.40222200  0.30985700  1
  N  N18  1  0.30985700  0.44944400  0.83847600  1
  N  N19  1  0.40222200  0.83847600  0.44944400  1
  N  N20  1  0.55055600  0.69014300  0.59777800  1
  N  N21  1  0.16152400  0.59777800  0.69014300  1
  N  N22  1  0.69014300  0.55055600  0.16152400  1
  N  N23  1  0.59777800  0.16152400  0.55055600  1
  N  N24  1  0.16713100  0.46784200  0.53215800  1
  N  N25  1  0.83286900  0.53215800  0.46784200  1
  N  N26  1  0.46784200  0.16713100  0.83286900  1
  N  N27  1  0.53215800  0.83286900  0.16713100  1
  N  N28  1  0.31271100  0.92741800  0.68728900  1
  N  N29  1  0.07258200  0.68728900  0.92741800  1
  N  N30  1  0.92741800  0.31271100  0.07258200  1
  N  N31  1  0.68728900  0.07258200  0.31271100  1
  N  N32  1  0.69469800  0.30530200  0.30530200  1
  N  N33  1  0.30530200  0.69469800  0.69469800  1
  N  N34  1  0.15362700  0.15362700  0.84637300  1
  N  N35  1  0.84637300  0.84637300  0.15362700  1
loop_
_geom_bond_atom_site_label_1
_geom_bond_atom_site_label_2
_geom_bond_distance
_geom_bond_site_symmetry_2
Cr0 N16 1.727171 1_555
Cr0 N24 1.727454 1_555
Cr0 N0 1.727634 1_555
Cr0 N8 1.729092 1_555
Cr1 N17 1.727184 1_555
Cr1 N25 1.727454 1_555
Cr1 N1 1.727634 1_655
Cr1 N9 1.729094 1_555
Cr2 N18 1.727175 1_555
Cr2 N26 1.727454 1_555
Cr2 N2 1.727634 1_556
Cr2 N10 1.729087 1_555
Cr3 N19 1.727177 1_555
Cr3 N27 1.727454 1_555
Cr3 N3 1.727634 1_565
Cr3 N11 1.729100 1_555
Cr4 N20 1.727171 1_555
Cr4 N25 1.727454 1_555
Cr4 N4 1.727634 1_555
Cr4 N12 1.729092 1_555
Cr5 N21 1.727184 1_555
Cr5 N24 1.727454 1_555
Cr5 N5 1.727634 1_455
Cr5 N13 1.729094 1_555
Cr6 N22 1.727175 1_555
Cr6 N27 1.727454 1_555
Cr6 N6 1.727634 1_554
Cr6 N14 1.729087 1_555
Cr7 N23 1.727177 1_555
Cr7 N26 1.727454 1_555
Cr7 N7 1.727634 1_545
Cr7 N15 1.729100 1_555
Cr8 N32 1.723644 1_555
Cr8 N23 1.726410 1_555
Cr8 N16 1.726410 1_555
Cr8 N31 1.732072 1_555
Cr9 N32 1.723644 1_555
Cr9 N17 1.726399 1_555
Cr9 N22 1.726406 1_555
Cr9 N30 1.732072 1_555
Cr10 N33 1.723644 1_555
Cr10 N21 1.726399 1_555
Cr10 N18 1.726406 1_555
Cr10 N29 1.732072 1_555
Cr11 N33 1.723644 1_555
Cr11 N19 1.726410 1_555
Cr11 N20 1.726410 1_555
Cr11 N28 1.732072 1_555
Cr12 N15 1.726000 1_555
Cr12 N8 1.726005 1_555
Cr12 N34 1.738093 1_555
Cr12 N28 1.738355 1_545
Cr13 N9 1.726007 1_555
Cr13 N14 1.726013 1_555
Cr13 N35 1.738093 1_555
Cr13 N29 1.738355 1_654
Cr14 N13 1.726007 1_555
Cr14 N10 1.726013 1_555
Cr14 N34 1.738093 1_555
Cr14 N30 1.738355 1_456
Cr15 N11 1.726000 1_555
Cr15 N12 1.726005 1_555
Cr15 N35 1.738093 1_555
Cr15 N31 1.738355 1_565
Cr16 N3 1.726694 1_555
Cr16 N0 1.726694 1_555
Cr16 N1 1.726694 1_555
Cr16 N2 1.726694 1_555
Cr17 N5 1.726694 1_555
Cr17 N6 1.726694 1_555
Cr17 N7 1.726694 1_555
Cr17 N4 1.726694 1_555
