# generated using pymatgen
data_ZnNi
_symmetry_space_group_name_H-M   'P 1'
_cell_length_a   5.17654161
_cell_length_b   5.17654161
_cell_length_c   8.06875538
_cell_angle_alpha   80.04087353
_cell_angle_beta   99.95912647
_cell_angle_gamma   111.65673188
_symmetry_Int_Tables_number   1
_chemical_formula_structural   ZnNi
_chemical_formula_sum   'Zn8 Ni8'
_cell_volume   196.51343524
_cell_formula_units_Z   8
loop_
 _symmetry_equiv_pos_site_id
 _symmetry_equiv_pos_as_xyz
  1  'x, y, z'
loop_
 _atom_site_type_symbol
 _atom_site_label
 _atom_site_symmetry_multiplicity
 _atom_site_fract_x
 _atom_site_fract_y
 _atom_site_fract_z
 _atom_site_occupancy
  Zn  Zn0_0  1  0.25000000  0.25000000  0.25000000  1
  Zn  Zn0_1  1  0.25000000  0.25000000  0.75000000  1
  Zn  Zn0_2  1  0.25000000  0.75000000  0.25000000  1
  Zn  Zn0_3  1  0.25000000  0.75000000  0.75000000  1
  Zn  Zn0_4  1  0.75000000  0.25000000  0.25000000  1
  Zn  Zn0_5  1  0.75000000  0.25000000  0.75000000  1
  Zn  Zn0_6  1  0.75000000  0.75000000  0.25000000  1
  Zn  Zn0_7  1  0.75000000  0.75000000  0.75000000  1
  Ni  Ni0_0  1  0.00000000  0.00000000  0.00000000  1
  Ni  Ni0_1  1  0.00000000  0.00000000  0.50000000  1
  Ni  Ni0_2  1  0.00000000  0.50000000  0.00000000  1
  Ni  Ni0_3  1  0.00000000  0.50000000  0.50000000  1
  Ni  Ni0_4  1  0.50000000  0.00000000  0.00000000  1
  Ni  Ni0_5  1  0.50000000  1.00000000  0.50000000  1
  Ni  Ni0_6  1  0.50000000  0.50000000  0.00000000  1
  Ni  Ni0_7  1  0.50000000  0.50000000  0.50000000  1
loop_
_geom_bond_atom_site_label_1
_geom_bond_atom_site_label_2
_geom_bond_distance
_geom_bond_site_symmetry_2
Zn0_0 Zn0_2 2.588271 1_545
Zn0_0 Zn0_4 2.588271 1_455
Zn0_0 Zn0_4 2.588271 1_555
Zn0_0 Zn0_2 2.588271 1_555
Zn0_1 Zn0_3 2.588271 1_545
Zn0_1 Zn0_5 2.588271 1_455
Zn0_1 Zn0_3 2.588271 1_555
Zn0_1 Zn0_5 2.588271 1_555
Zn0_2 Zn0_6 2.588271 1_455
Zn0_2 Zn0_6 2.588271 1_555
Zn0_3 Zn0_7 2.588271 1_455
Zn0_3 Zn0_7 2.588271 1_555
Zn0_4 Zn0_6 2.588271 1_545
Zn0_4 Zn0_6 2.588271 1_555
Zn0_5 Zn0_7 2.588271 1_545
Zn0_5 Zn0_7 2.588271 1_555
Ni0_0 Zn0_7 2.486459 1_444
Ni0_0 Zn0_6 2.486459 1_445
Ni0_0 Zn0_0 2.486459 1_555
Ni0_0 Zn0_1 2.486459 1_554
Ni0_0 Ni0_2 2.588271 1_545
Ni0_0 Ni0_2 2.588271 1_555
Ni0_0 Ni0_4 2.588271 1_455
Ni0_0 Ni0_4 2.588271 1_555
Ni0_0 Zn0_5 2.617032 1_454
Ni0_0 Zn0_2 2.617032 1_545
Ni0_1 Zn0_6 2.486459 1_445
Ni0_1 Zn0_7 2.486459 1_445
Ni0_1 Zn0_1 2.486459 1_555
Ni0_1 Zn0_0 2.486459 1_555
Ni0_1 Ni0_3 2.588271 1_545
Ni0_1 Ni0_5 2.588271 1_445
Ni0_1 Ni0_5 2.588271 1_545
Ni0_1 Ni0_3 2.588271 1_555
Ni0_1 Zn0_4 2.617032 1_455
Ni0_1 Zn0_3 2.617032 1_545
Ni0_2 Zn0_3 2.486459 1_554
Ni0_2 Zn0_4 2.486459 1_455
Ni0_2 Zn0_5 2.486459 1_454
Ni0_2 Zn0_2 2.486459 1_555
Ni0_2 Ni0_6 2.588271 1_555
Ni0_2 Ni0_6 2.588271 1_455
Ni0_2 Zn0_0 2.617032 1_555
Ni0_2 Zn0_7 2.617032 1_454
Ni0_3 Zn0_5 2.486459 1_455
Ni0_3 Zn0_3 2.486459 1_555
Ni0_3 Zn0_2 2.486459 1_555
Ni0_3 Zn0_4 2.486459 1_455
Ni0_3 Ni0_7 2.588271 1_455
Ni0_3 Ni0_7 2.588271 1_555
Ni0_3 Zn0_1 2.617032 1_555
Ni0_3 Zn0_6 2.617032 1_455
Ni0_4 Zn0_5 2.486459 1_554
Ni0_4 Zn0_3 2.486459 1_544
Ni0_4 Zn0_4 2.486459 1_555
Ni0_4 Zn0_2 2.486459 1_545
Ni0_4 Ni0_6 2.588271 1_545
Ni0_4 Ni0_6 2.588271 1_555
Ni0_4 Zn0_1 2.617032 1_554
Ni0_4 Zn0_6 2.617032 1_545
Ni0_5 Zn0_3 2.486459 1_555
Ni0_5 Zn0_2 2.486459 1_555
Ni0_5 Zn0_4 2.486459 1_565
Ni0_5 Zn0_5 2.486459 1_565
Ni0_5 Ni0_7 2.588271 1_555
Ni0_5 Ni0_7 2.588271 1_565
Ni0_5 Zn0_7 2.617032 1_555
Ni0_5 Zn0_0 2.617032 1_565
Ni0_6 Zn0_0 2.486459 1_555
Ni0_6 Zn0_1 2.486459 1_554
Ni0_6 Zn0_6 2.486459 1_555
Ni0_6 Zn0_7 2.486459 1_554
Ni0_6 Zn0_3 2.617032 1_554
Ni0_6 Zn0_4 2.617032 1_555
Ni0_7 Zn0_6 2.486459 1_555
Ni0_7 Zn0_0 2.486459 1_555
Ni0_7 Zn0_1 2.486459 1_555
Ni0_7 Zn0_7 2.486459 1_555
Ni0_7 Zn0_2 2.617032 1_555
Ni0_7 Zn0_5 2.617032 1_555
