# generated using pymatgen
data_CoNiPt2
_symmetry_space_group_name_H-M   'P 1'
_cell_length_a   17.63013249
_cell_length_b   17.63013249
_cell_length_c   17.63013184
_cell_angle_alpha   17.75824464
_cell_angle_beta   17.75824464
_cell_angle_gamma   17.75824706
_symmetry_Int_Tables_number   1
_chemical_formula_structural   CoNiPt2
_chemical_formula_sum   'Co8 Ni8 Pt16'
_cell_volume   445.00314100
_cell_formula_units_Z   8
loop_
 _symmetry_equiv_pos_site_id
 _symmetry_equiv_pos_as_xyz
  1  'x, y, z'
loop_
 _atom_site_type_symbol
 _atom_site_label
 _atom_site_symmetry_multiplicity
 _atom_site_fract_x
 _atom_site_fract_y
 _atom_site_fract_z
 _atom_site_occupancy
  Co  Co0_0  1  0.00258550  0.00258550  0.00258550  1
  Co  Co0_1  1  0.00258550  0.00258550  0.50258550  1
  Co  Co0_2  1  0.00258550  0.50258550  0.00258550  1
  Co  Co0_3  1  0.00258550  0.50258550  0.50258550  1
  Co  Co0_4  1  0.50258550  0.00258550  0.00258550  1
  Co  Co0_5  1  0.50258550  0.00258550  0.50258550  1
  Co  Co0_6  1  0.50258550  0.50258550  0.00258550  1
  Co  Co0_7  1  0.50258550  0.50258550  0.50258550  1
  Ni  Ni0_0  1  0.37211150  0.37211150  0.37211150  1
  Ni  Ni0_1  1  0.37211150  0.37211150  0.87211150  1
  Ni  Ni0_2  1  0.37211150  0.87211150  0.37211150  1
  Ni  Ni0_3  1  0.37211150  0.87211150  0.87211150  1
  Ni  Ni0_4  1  0.87211150  0.37211150  0.37211150  1
  Ni  Ni0_5  1  0.87211150  0.37211150  0.87211150  1
  Ni  Ni0_6  1  0.87211150  0.87211150  0.37211150  1
  Ni  Ni0_7  1  0.87211150  0.87211150  0.87211150  1
  Pt  Pt0_0  1  0.24707150  0.24707150  0.24707150  1
  Pt  Pt0_1  1  0.24707150  0.24707150  0.74707150  1
  Pt  Pt0_2  1  0.24707150  0.74707150  0.24707150  1
  Pt  Pt0_3  1  0.24707150  0.74707150  0.74707150  1
  Pt  Pt0_4  1  0.74707150  0.24707150  0.24707150  1
  Pt  Pt0_5  1  0.74707150  0.24707150  0.74707150  1
  Pt  Pt0_6  1  0.74707150  0.74707150  0.24707150  1
  Pt  Pt0_7  1  0.74707150  0.74707150  0.74707150  1
  Pt  Pt1_0  1  0.12823150  0.12823150  0.12823150  1
  Pt  Pt1_1  1  0.12823150  0.12823150  0.62823150  1
  Pt  Pt1_2  1  0.12823150  0.62823150  0.12823150  1
  Pt  Pt1_3  1  0.12823150  0.62823150  0.62823150  1
  Pt  Pt1_4  1  0.62823150  0.12823150  0.12823150  1
  Pt  Pt1_5  1  0.62823150  0.12823150  0.62823150  1
  Pt  Pt1_6  1  0.62823150  0.62823150  0.12823150  1
  Pt  Pt1_7  1  0.62823150  0.62823150  0.62823150  1
loop_
_geom_bond_atom_site_label_1
_geom_bond_atom_site_label_2
_geom_bond_distance
_geom_bond_site_symmetry_2
Co0_0 Ni0_6 2.452809 1_445
Co0_0 Ni0_5 2.452810 1_454
Co0_0 Ni0_3 2.452810 1_544
Co0_0 Pt1_1 2.650656 1_554
Co0_0 Pt1_2 2.650656 1_545
Co0_0 Pt1_4 2.650656 1_455
Co0_0 Co0_5 2.721218 1_455
Co0_0 Co0_3 2.721218 1_545
Co0_0 Co0_3 2.721218 1_554
Co0_0 Co0_5 2.721218 1_554
Co0_0 Co0_6 2.721218 1_545
Co0_0 Co0_6 2.721218 1_455
Co0_1 Ni0_7 2.452809 1_445
Co0_1 Ni0_4 2.452810 1_455
Co0_1 Ni0_2 2.452810 1_545
Co0_1 Pt1_0 2.650656 1_555
Co0_1 Pt1_5 2.650656 1_455
Co0_1 Pt1_3 2.650656 1_545
Co0_1 Co0_4 2.721218 1_555
Co0_1 Co0_2 2.721218 1_555
Co0_1 Co0_4 2.721218 1_456
Co0_1 Co0_2 2.721218 1_546
Co0_1 Co0_7 2.721218 1_455
Co0_1 Co0_7 2.721218 1_545
Co0_2 Ni0_4 2.452809 1_455
Co0_2 Ni0_1 2.452810 1_554
Co0_2 Ni0_7 2.452810 1_454
Co0_2 Pt1_3 2.650656 1_554
Co0_2 Pt1_6 2.650656 1_455
Co0_2 Pt1_0 2.650656 1_555
Co0_2 Co0_7 2.721218 1_455
Co0_2 Co0_7 2.721218 1_554
Co0_2 Co0_4 2.721218 1_555
Co0_2 Co0_4 2.721218 1_465
Co0_3 Ni0_5 2.452809 1_455
Co0_3 Ni0_0 2.452810 1_555
Co0_3 Ni0_6 2.452810 1_455
Co0_3 Pt1_2 2.650656 1_555
Co0_3 Pt1_1 2.650656 1_555
Co0_3 Pt1_7 2.650656 1_455
Co0_3 Co0_6 2.721218 1_555
Co0_3 Co0_6 2.721218 1_456
Co0_3 Co0_5 2.721218 1_465
Co0_3 Co0_5 2.721218 1_555
Co0_4 Ni0_2 2.452809 1_545
Co0_4 Ni0_7 2.452810 1_544
Co0_4 Ni0_1 2.452810 1_554
Co0_4 Pt1_5 2.650656 1_554
Co0_4 Pt1_6 2.650656 1_545
Co0_4 Pt1_0 2.650656 1_555
Co0_4 Co0_7 2.721218 1_545
Co0_4 Co0_7 2.721218 1_554
Co0_5 Ni0_3 2.452809 1_545
Co0_5 Ni0_0 2.452810 1_555
Co0_5 Ni0_6 2.452810 1_545
Co0_5 Pt1_4 2.650656 1_555
Co0_5 Pt1_1 2.650656 1_555
Co0_5 Pt1_7 2.650656 1_545
Co0_5 Co0_6 2.721218 1_555
Co0_5 Co0_6 2.721218 1_546
Co0_6 Ni0_0 2.452809 1_555
Co0_6 Ni0_5 2.452810 1_554
Co0_6 Ni0_3 2.452810 1_554
Co0_6 Pt1_7 2.650656 1_554
Co0_6 Pt1_4 2.650656 1_555
Co0_6 Pt1_2 2.650656 1_555
Co0_7 Ni0_1 2.452809 1_555
Co0_7 Ni0_4 2.452810 1_555
Co0_7 Ni0_2 2.452810 1_555
Co0_7 Pt1_6 2.650656 1_555
Co0_7 Pt1_5 2.650656 1_555
Co0_7 Pt1_3 2.650656 1_555
Ni0_0 Pt0_1 2.676123 1_555
Ni0_0 Pt0_2 2.676123 1_555
Ni0_0 Pt0_4 2.676123 1_555
Ni0_0 Ni0_3 2.721218 1_554
Ni0_0 Ni0_3 2.721218 1_545
Ni0_0 Ni0_5 2.721218 1_455
Ni0_0 Ni0_5 2.721218 1_554
Ni0_0 Ni0_6 2.721218 1_455
Ni0_0 Ni0_6 2.721218 1_545
Ni0_1 Pt0_0 2.676123 1_556
Ni0_1 Pt0_3 2.676123 1_555
Ni0_1 Pt0_5 2.676123 1_555
Ni0_1 Ni0_4 2.721218 1_456
Ni0_1 Ni0_2 2.721218 1_555
Ni0_1 Ni0_2 2.721218 1_546
Ni0_1 Ni0_4 2.721218 1_555
Ni0_1 Ni0_7 2.721218 1_455
Ni0_1 Ni0_7 2.721218 1_545
Ni0_2 Pt0_3 2.676123 1_555
Ni0_2 Pt0_6 2.676123 1_555
Ni0_2 Pt0_0 2.676123 1_565
Ni0_2 Ni0_7 2.721218 1_554
Ni0_2 Ni0_7 2.721218 1_455
Ni0_2 Ni0_4 2.721218 1_465
Ni0_2 Ni0_4 2.721218 1_555
Ni0_3 Pt0_2 2.676123 1_556
Ni0_3 Pt0_7 2.676123 1_555
Ni0_3 Pt0_1 2.676123 1_565
Ni0_3 Ni0_6 2.721218 1_456
Ni0_3 Ni0_6 2.721218 1_555
Ni0_3 Ni0_5 2.721218 1_465
Ni0_3 Ni0_5 2.721218 1_555
Ni0_4 Pt0_5 2.676123 1_555
Ni0_4 Pt0_6 2.676123 1_555
Ni0_4 Pt0_0 2.676123 1_655
Ni0_4 Ni0_7 2.721218 1_554
Ni0_4 Ni0_7 2.721218 1_545
Ni0_5 Pt0_4 2.676123 1_556
Ni0_5 Pt0_7 2.676123 1_555
Ni0_5 Pt0_1 2.676123 1_655
Ni0_5 Ni0_6 2.721218 1_555
Ni0_5 Ni0_6 2.721218 1_546
Ni0_6 Pt0_7 2.676123 1_555
Ni0_6 Pt0_4 2.676123 1_565
Ni0_6 Pt0_2 2.676123 1_655
Ni0_7 Pt0_6 2.676123 1_556
Ni0_7 Pt0_5 2.676123 1_565
Ni0_7 Pt0_3 2.676123 1_655
Pt0_0 Pt0_3 2.721218 1_554
Pt0_0 Pt0_5 2.721218 1_455
Pt0_0 Pt0_3 2.721218 1_545
Pt0_0 Pt0_5 2.721218 1_554
Pt0_0 Pt0_6 2.721218 1_545
Pt0_0 Pt0_6 2.721218 1_455
Pt0_0 Pt1_1 2.943436 1_555
Pt0_0 Pt1_2 2.943436 1_555
Pt0_0 Pt1_4 2.943436 1_555
Pt0_1 Pt0_4 2.721218 1_555
Pt0_1 Pt0_2 2.721218 1_555
Pt0_1 Pt0_4 2.721218 1_456
Pt0_1 Pt0_2 2.721218 1_546
Pt0_1 Pt0_7 2.721218 1_545
Pt0_1 Pt0_7 2.721218 1_455
Pt0_1 Pt1_0 2.943436 1_556
Pt0_1 Pt1_5 2.943436 1_555
Pt0_1 Pt1_3 2.943436 1_555
Pt0_2 Pt0_7 2.721218 1_554
Pt0_2 Pt0_7 2.721218 1_455
Pt0_2 Pt0_4 2.721218 1_555
Pt0_2 Pt0_4 2.721218 1_465
Pt0_2 Pt1_3 2.943436 1_555
Pt0_2 Pt1_0 2.943436 1_565
Pt0_2 Pt1_6 2.943436 1_555
Pt0_3 Pt0_6 2.721218 1_555
Pt0_3 Pt0_6 2.721218 1_456
Pt0_3 Pt0_5 2.721218 1_555
Pt0_3 Pt0_5 2.721218 1_465
Pt0_3 Pt1_2 2.943436 1_556
Pt0_3 Pt1_7 2.943436 1_555
Pt0_3 Pt1_1 2.943436 1_565
Pt0_4 Pt0_7 2.721218 1_545
Pt0_4 Pt0_7 2.721218 1_554
Pt0_4 Pt1_5 2.943436 1_555
Pt0_4 Pt1_0 2.943436 1_655
Pt0_4 Pt1_6 2.943436 1_555
Pt0_5 Pt0_6 2.721218 1_555
Pt0_5 Pt0_6 2.721218 1_546
Pt0_5 Pt1_4 2.943436 1_556
Pt0_5 Pt1_7 2.943436 1_555
Pt0_5 Pt1_1 2.943436 1_655
Pt0_6 Pt1_7 2.943436 1_555
Pt0_6 Pt1_4 2.943436 1_565
Pt0_6 Pt1_2 2.943436 1_655
Pt0_7 Pt1_6 2.943436 1_556
Pt0_7 Pt1_5 2.943436 1_565
Pt0_7 Pt1_3 2.943436 1_655
