# generated using pymatgen
data_Li2VO2F
_symmetry_space_group_name_H-M   'P 1'
_cell_length_a   6.00173262
_cell_length_b   6.45701615
_cell_length_c   6.72621291
_cell_angle_alpha   72.18264008
_cell_angle_beta   116.28121055
_cell_angle_gamma   103.37063426
_symmetry_Int_Tables_number   1
_chemical_formula_structural   Li2VO2F
_chemical_formula_sum   'Li8 V4 O8 F4'
_cell_volume   221.10395692
_cell_formula_units_Z   4
loop_
 _symmetry_equiv_pos_site_id
 _symmetry_equiv_pos_as_xyz
  1  'x, y, z'
loop_
 _atom_site_type_symbol
 _atom_site_label
 _atom_site_symmetry_multiplicity
 _atom_site_fract_x
 _atom_site_fract_y
 _atom_site_fract_z
 _atom_site_occupancy
  Li  Li0  1  0.75441300  0.98530700  0.51882300  1
  Li  Li1  1  0.25441900  0.98529600  0.51881100  1
  Li  Li2  1  0.67346300  0.32976600  0.67913900  1
  Li  Li3  1  0.17348900  0.32976800  0.67915000  1
  Li  Li4  1  0.34053900  0.68466900  0.33793900  1
  Li  Li5  1  0.84051200  0.68465000  0.33793400  1
  Li  Li6  1  0.57768500  0.67065500  0.82130700  1
  Li  Li7  1  0.07767600  0.67068400  0.82128200  1
  V  V0  1  0.49916400  0.98398500  0.99543500  1
  V  V1  1  0.40500100  0.34478800  0.14869800  1
  V  V2  1  0.99917800  0.98395800  0.99549400  1
  V  V3  1  0.90497100  0.34480500  0.14870400  1
  O  O0  1  0.38303100  0.01662600  0.23400700  1
  O  O1  1  0.88302400  0.01663000  0.23400100  1
  O  O2  1  0.62383000  0.99924700  0.76159000  1
  O  O3  1  0.12382600  0.99924400  0.76160200  1
  O  O4  1  0.55019700  0.32883200  0.92763400  1
  O  O5  1  0.05012500  0.32887100  0.92754800  1
  O  O6  1  0.45991200  0.66177400  0.09048900  1
  O  O7  1  0.95992100  0.66183200  0.09047400  1
  F  F0  1  0.27914500  0.33715800  0.40545500  1
  F  F1  1  0.77913000  0.33715400  0.40540700  1
  F  F2  1  0.70368000  0.65715200  0.57954000  1
  F  F3  1  0.20366500  0.65714900  0.57953700  1
loop_
_geom_bond_atom_site_label_1
_geom_bond_atom_site_label_2
_geom_bond_distance
_geom_bond_site_symmetry_2
Li0 O3 2.093283 1_655
Li0 O2 2.131796 1_555
Li0 O0 2.206607 1_565
Li0 O1 2.303716 1_565
Li1 O2 2.093278 1_555
Li1 O3 2.132009 1_555
Li1 O1 2.206647 1_465
Li1 O0 2.303594 1_565
Li2 O2 2.019635 1_545
Li2 O4 2.104240 1_555
Li2 O5 2.134818 1_655
Li3 O3 2.019670 1_545
Li3 O5 2.104111 1_555
Li3 O4 2.135175 1_555
Li4 O0 2.033764 1_565
Li4 O6 2.135632 1_555
Li4 O7 2.153575 1_455
Li5 O1 2.033905 1_565
Li5 O7 2.135655 1_555
Li5 O6 2.153470 1_555
Li6 O2 2.011207 1_555
Li6 O4 2.092920 1_555
Li6 O6 2.198212 1_556
Li6 O7 2.205255 1_556
Li7 O3 2.011024 1_555
Li7 O5 2.092833 1_555
Li7 O7 2.198259 1_456
Li7 O6 2.205358 1_556
O0 V1 2.007558 1_555
O0 V0 2.090604 1_544
O0 V2 2.152915 1_444
O1 V3 2.007645 1_555
O1 V2 2.090360 1_544
O1 V0 2.153041 1_544
O2 V0 1.989153 1_555
O2 V2 2.104526 1_555
O3 V2 1.989331 1_455
O3 V0 2.104345 1_555
O4 V3 1.985937 1_556
O4 V1 2.064866 1_556
O4 V0 2.108730 1_545
O5 V1 1.986527 1_556
O5 V3 2.065194 1_456
O5 V2 2.109097 1_445
O6 V1 1.939873 1_555
O6 V0 1.971169 1_554
O7 V3 1.940122 1_555
O7 V2 1.970633 1_554
F0 Li4 2.125842 1_555
F0 V3 2.143056 1_455
F0 V1 2.154402 1_555
F0 Li1 2.156249 1_545
F0 Li3 2.181611 1_555
F0 Li2 2.265456 1_555
F1 Li5 2.125758 1_555
F1 V1 2.142772 1_555
F1 V3 2.153953 1_555
F1 Li0 2.156185 1_545
F1 Li2 2.181899 1_555
F1 Li3 2.265762 1_655
F2 Li2 2.003507 1_555
F2 Li0 2.007836 1_555
F2 Li5 2.069950 1_555
F2 Li4 2.070861 1_555
F2 Li6 2.104779 1_555
F2 Li7 2.110458 1_655
F3 Li3 2.003484 1_555
F3 Li1 2.007783 1_555
F3 Li4 2.070047 1_555
F3 Li5 2.070908 1_455
F3 Li7 2.104688 1_555
F3 Li6 2.110615 1_555
