# generated using pymatgen
data_Si2Ni13(SbO14)2
_symmetry_space_group_name_H-M   'P 1'
_cell_length_a   5.50702100
_cell_length_b   8.50832814
_cell_length_c   11.13668364
_cell_angle_alpha   86.65840919
_cell_angle_beta   76.71749868
_cell_angle_gamma   79.62843332
_symmetry_Int_Tables_number   1
_chemical_formula_structural   Si2Ni13(SbO14)2
_chemical_formula_sum   'Si2 Ni13 Sb2 O28'
_cell_volume   499.48032530
_cell_formula_units_Z   1
loop_
 _symmetry_equiv_pos_site_id
 _symmetry_equiv_pos_as_xyz
  1  'x, y, z'
loop_
 _atom_site_type_symbol
 _atom_site_label
 _atom_site_symmetry_multiplicity
 _atom_site_fract_x
 _atom_site_fract_y
 _atom_site_fract_z
 _atom_site_occupancy
  Si  Si0  1  0.77217300  0.68468400  0.99841700  1
  Si  Si1  1  0.22782700  0.31531600  0.00158300  1
  Ni  Ni0  1  0.36572500  0.37519900  0.69911800  1
  Ni  Ni1  1  0.20857600  0.64250800  0.14693400  1
  Ni  Ni2  1  0.92994900  0.63527600  0.69595200  1
  Ni  Ni3  1  0.63427500  0.62480100  0.30088200  1
  Ni  Ni4  1  0.79142400  0.35749200  0.85306600  1
  Ni  Ni5  1  0.28225900  0.00147600  0.43021500  1
  Ni  Ni6  1  0.65226300  0.35250100  0.14298500  1
  Ni  Ni7  1  0.00000000  0.00000000  0.00000000  1
  Ni  Ni8  1  0.43023300  0.99620600  0.14830800  1
  Ni  Ni9  1  0.34773700  0.64749900  0.85701500  1
  Ni  Ni10  1  0.07005100  0.36472400  0.30404800  1
  Ni  Ni11  1  0.56976700  0.00379400  0.85169200  1
  Ni  Ni12  1  0.71774100  0.99852400  0.56978500  1
  Sb  Sb0  1  0.85758200  0.99163600  0.29275500  1
  Sb  Sb1  1  0.14241800  0.00836400  0.70724500  1
  O  O0  1  0.97488500  0.59493100  0.29677500  1
  O  O1  1  0.31403400  0.57614800  0.41126900  1
  O  O2  1  0.07010600  0.64526200  0.00010100  1
  O  O3  1  0.69176500  0.88049200  0.99962500  1
  O  O4  1  0.68596600  0.42385200  0.58873100  1
  O  O5  1  0.02511500  0.40506900  0.70322500  1
  O  O6  1  0.41717200  0.89384100  0.57073700  1
  O  O7  1  0.58282800  0.10615900  0.42926300  1
  O  O8  1  0.30823500  0.11950800  0.00037500  1
  O  O9  1  0.72654400  0.11419200  0.15452500  1
  O  O10  1  0.59038500  0.61096300  0.12094000  1
  O  O11  1  0.72722100  0.39794800  0.29707700  1
  O  O12  1  0.98964800  0.12024400  0.57150600  1
  O  O13  1  0.12677600  0.88081300  0.15505700  1
  O  O14  1  0.28464200  0.38334500  0.12889800  1
  O  O15  1  0.92989400  0.35473800  0.99989900  1
  O  O16  1  0.87322400  0.11918700  0.84494300  1
  O  O17  1  0.27345600  0.88580800  0.84547500  1
  O  O18  1  0.01035200  0.87975600  0.42849400  1
  O  O19  1  0.57612800  0.86083400  0.29352600  1
  O  O20  1  0.42387200  0.13916600  0.70647400  1
  O  O21  1  0.71535800  0.61665500  0.87110200  1
  O  O22  1  0.85550900  0.87352000  0.70382100  1
  O  O23  1  0.71906800  0.57720800  0.58310500  1
  O  O24  1  0.40961500  0.38903700  0.87906000  1
  O  O25  1  0.14449100  0.12648000  0.29617900  1
  O  O26  1  0.27277900  0.60205200  0.70292300  1
  O  O27  1  0.28093200  0.42279200  0.41689500  1
loop_
_geom_bond_atom_site_label_1
_geom_bond_atom_site_label_2
_geom_bond_distance
_geom_bond_site_symmetry_2
Ni0 O5 1.837224 1_555
Ni0 O26 1.906063 1_555
Ni0 O20 1.975761 1_555
Ni0 O4 2.000038 1_555
Ni0 O24 2.085293 1_555
Ni1 O0 1.930482 1_455
Ni1 O2 1.953999 1_555
Ni1 O13 1.998991 1_555
Ni1 O10 2.025601 1_555
Ni1 O14 2.181381 1_555
Ni2 O26 1.876966 1_655
Ni2 O5 1.936244 1_655
Ni2 O22 1.997422 1_555
Ni2 O23 2.030219 1_555
Ni2 O21 2.049055 1_555
Ni3 O0 1.837224 1_555
Ni3 O11 1.906063 1_555
Ni3 O19 1.975761 1_555
Ni3 O1 2.000038 1_555
Ni3 O10 2.085293 1_555
Ni4 O5 1.930482 1_655
Ni4 O15 1.953999 1_555
Ni4 O16 1.998991 1_555
Ni4 O24 2.025601 1_555
Ni4 O21 2.181381 1_555
Ni5 O18 1.972048 1_545
Ni5 O6 1.990466 1_545
Ni5 O25 1.994938 1_555
Ni5 O7 2.013680 1_555
Ni5 O12 2.127836 1_455
Ni5 O19 2.179748 1_545
Ni6 O11 1.930069 1_555
Ni6 O15 1.940269 1_554
Ni6 O9 1.997547 1_555
Ni6 O14 2.035169 1_555
Ni6 O10 2.172103 1_555
Ni7 O8 2.130846 1_555
Ni7 O3 2.130846 1_444
Ni7 O16 2.143038 1_454
Ni7 O13 2.143038 1_545
Ni7 O9 2.156512 1_455
Ni7 O17 2.156512 1_544
Ni8 O13 2.070447 1_555
Ni8 O8 2.078343 1_565
Ni8 O9 2.079690 1_565
Ni8 O3 2.090237 1_554
Ni8 O19 2.152753 1_555
Ni8 O25 2.193334 1_565
Ni9 O26 1.930069 1_555
Ni9 O2 1.940269 1_556
Ni9 O17 1.997547 1_555
Ni9 O21 2.035169 1_555
Ni9 O24 2.172103 1_555
Ni10 O11 1.876966 1_455
Ni10 O0 1.936244 1_455
Ni10 O25 1.997422 1_555
Ni10 O27 2.030219 1_555
Ni10 O14 2.049055 1_555
Ni11 O16 2.070447 1_555
Ni11 O3 2.078343 1_545
Ni11 O17 2.079690 1_545
Ni11 O8 2.090237 1_556
Ni11 O20 2.152753 1_555
Ni11 O22 2.193334 1_545
Ni12 O12 1.972048 1_565
Ni12 O7 1.990466 1_565
Ni12 O22 1.994938 1_555
Ni12 O6 2.013680 1_555
Ni12 O18 2.127836 1_655
Ni12 O20 2.179748 1_565
O1 O27 1.345560 1_555
O2 Si0 1.618667 1_454
O3 Si0 1.645012 1_555
O6 Sb1 2.033436 1_565
O7 Sb0 2.033436 1_545
O8 Si1 1.645012 1_555
O9 Sb0 2.007557 1_545
O10 Si0 1.660164 1_554
O12 Sb1 2.006839 1_655
O13 Sb0 2.014706 1_455
O14 Si1 1.675707 1_555
O15 Si1 1.618667 1_656
O16 Sb1 2.014706 1_655
O17 Sb1 2.007557 1_565
O18 Sb0 2.006839 1_455
O19 Sb0 2.062746 1_555
O20 Sb1 2.062746 1_555
O21 Si0 1.675707 1_555
O22 Sb1 2.121243 1_665
O23 O4 1.345560 1_555
O24 Si1 1.660164 1_556
O25 Sb0 2.121243 1_445
