# generated using pymatgen
data_CdPd3
_symmetry_space_group_name_H-M   'P 1'
_cell_length_a   5.66073561
_cell_length_b   5.66073561
_cell_length_c   4.62041730
_cell_angle_alpha   90.00000000
_cell_angle_beta   90.00000000
_cell_angle_gamma   119.99998982
_symmetry_Int_Tables_number   1
_chemical_formula_structural   CdPd3
_chemical_formula_sum   'Cd2 Pd6'
_cell_volume   128.22054539
_cell_formula_units_Z   2
loop_
 _symmetry_equiv_pos_site_id
 _symmetry_equiv_pos_as_xyz
  1  'x, y, z'
loop_
 _atom_site_type_symbol
 _atom_site_label
 _atom_site_symmetry_multiplicity
 _atom_site_fract_x
 _atom_site_fract_y
 _atom_site_fract_z
 _atom_site_occupancy
  Cd  Cd0  1  0.33333300  0.66666700  0.75000000  1
  Cd  Cd1  1  0.66666700  0.33333300  0.25000000  1
  Pd  Pd0  1  0.16493416  0.32986832  0.25000000  1
  Pd  Pd1  1  0.67013168  0.83506584  0.25000000  1
  Pd  Pd2  1  0.16493416  0.83506584  0.25000000  1
  Pd  Pd3  1  0.83506584  0.67013168  0.75000000  1
  Pd  Pd4  1  0.32986832  0.16493416  0.75000000  1
  Pd  Pd5  1  0.83506584  0.16493416  0.75000000  1
loop_
_geom_bond_atom_site_label_1
_geom_bond_atom_site_label_2
_geom_bond_distance
_geom_bond_site_symmetry_2
Cd0 Pd3 2.830416 1_455
Cd0 Pd4 2.830416 1_565
Cd0 Pd5 2.830419 1_565
Cd0 Pd5 2.830419 1_455
Cd0 Pd4 2.830422 1_555
Cd0 Pd3 2.830422 1_555
Cd0 Pd2 2.839575 1_555
Cd0 Pd2 2.839575 1_556
Cd0 Pd0 2.839578 1_555
Cd0 Pd1 2.839578 1_556
Cd0 Pd1 2.839578 1_555
Cd0 Pd0 2.839578 1_556
Cd1 Pd1 2.830416 1_545
Cd1 Pd0 2.830416 1_655
Cd1 Pd2 2.830419 1_545
Cd1 Pd2 2.830419 1_655
Cd1 Pd0 2.830422 1_555
Cd1 Pd1 2.830422 1_555
Cd1 Pd5 2.839575 1_554
Cd1 Pd5 2.839575 1_555
Cd1 Pd4 2.839578 1_555
Cd1 Pd4 2.839578 1_554
Cd1 Pd3 2.839578 1_555
Cd1 Pd3 2.839578 1_554
Pd0 Pd2 2.800946 1_545
Pd0 Pd1 2.800946 1_445
Pd0 Pd4 2.819958 1_555
Pd0 Pd4 2.819958 1_554
Pd0 Pd5 2.819958 1_454
Pd0 Pd5 2.819958 1_455
Pd0 Pd2 2.859790 1_555
Pd0 Pd1 2.859790 1_555
Pd1 Pd2 2.800946 1_655
Pd1 Pd3 2.819958 1_555
Pd1 Pd3 2.819958 1_554
Pd1 Pd5 2.819958 1_565
Pd1 Pd5 2.819958 1_564
Pd1 Pd2 2.859790 1_555
Pd2 Pd4 2.819958 1_565
Pd2 Pd4 2.819958 1_564
Pd2 Pd3 2.819958 1_455
Pd2 Pd3 2.819958 1_454
Pd3 Pd5 2.800946 1_565
Pd3 Pd4 2.800946 1_665
Pd3 Pd5 2.859790 1_555
Pd3 Pd4 2.859790 1_555
Pd4 Pd5 2.800946 1_455
Pd4 Pd5 2.859790 1_555
