# generated using pymatgen
data_Li7V3P8O29
_symmetry_space_group_name_H-M   'P 1'
_cell_length_a   9.85383691
_cell_length_b   9.84683705
_cell_length_c   13.92347720
_cell_angle_alpha   89.83972626
_cell_angle_beta   89.78952289
_cell_angle_gamma   59.98253605
_symmetry_Int_Tables_number   1
_chemical_formula_structural   Li7V3P8O29
_chemical_formula_sum   'Li14 V6 P16 O58'
_cell_volume   1169.77089143
_cell_formula_units_Z   2
loop_
 _symmetry_equiv_pos_site_id
 _symmetry_equiv_pos_as_xyz
  1  'x, y, z'
loop_
 _atom_site_type_symbol
 _atom_site_label
 _atom_site_symmetry_multiplicity
 _atom_site_fract_x
 _atom_site_fract_y
 _atom_site_fract_z
 _atom_site_occupancy
  Li  Li0  1  0.90528467  0.76609625  0.06175009  1
  Li  Li1  1  0.90140412  0.33392082  0.56106794  1
  Li  Li2  1  0.66411682  0.66372040  0.88574267  1
  Li  Li3  1  0.76750276  0.32631693  0.06520992  1
  Li  Li4  1  0.32424344  0.91116769  0.06398136  1
  Li  Li5  1  0.67360436  0.23252777  0.43458801  1
  Li  Li6  1  0.33144996  0.76613782  0.56128843  1
  Li  Li7  1  0.66610509  0.09880942  0.93896802  1
  Li  Li8  1  0.23386713  0.66813344  0.93864741  1
  Li  Li9  1  0.33561867  0.33613099  0.61422797  1
  Li  Li10  1  0.08873937  0.67581114  0.43610838  1
  Li  Li11  1  0.23385105  0.09476812  0.43824390  1
  Li  Li12  1  0.02009028  0.03923543  0.99390279  1
  Li  Li13  1  0.96093955  0.97956908  0.50603666  1
  V  V0  1  0.56444983  0.43576324  0.24992829  1
  V  V1  1  0.43665192  0.56390948  0.74906193  1
  V  V2  1  0.56698114  0.99629030  0.74746833  1
  V  V3  1  0.43624913  0.00083177  0.24922553  1
  V  V4  1  0.99924401  0.56377921  0.25073827  1
  V  V5  1  0.00410357  0.43269690  0.75292614  1
  P  P0  1  0.91152100  0.77381705  0.84038762  1
  P  P1  1  0.77756342  0.91388970  0.34006519  1
  P  P2  1  0.91754360  0.31221501  0.34622582  1
  P  P3  1  0.66722221  0.66888777  0.12761047  1
  P  P4  1  0.67162849  0.66399506  0.62769995  1
  P  P5  1  0.77638243  0.31674677  0.84356544  1
  P  P6  1  0.68402020  0.22351923  0.65710671  1
  P  P7  1  0.31418165  0.91087564  0.84695468  1
  P  P8  1  0.68783167  0.08238750  0.15381533  1
  P  P9  1  0.31097584  0.77632074  0.34205118  1
  P  P10  1  0.22379563  0.68890499  0.15788694  1
  P  P11  1  0.33111457  0.33292275  0.37235875  1
  P  P12  1  0.33571027  0.32904895  0.87245834  1
  P  P13  1  0.08908354  0.68594331  0.65288016  1
  P  P14  1  0.22622319  0.08854357  0.65959917  1
  P  P15  1  0.08618776  0.22232612  0.15992502  1
  O  O0  1  0.00439342  0.77331102  0.56382809  1
  O  O1  1  0.91651598  0.74294906  0.34182697  1
  O  O2  1  0.76528416  0.99549029  0.06212968  1
  O  O3  1  0.74706708  0.92096737  0.84224882  1
  O  O4  1  0.89361144  0.62649047  0.83019468  1
  O  O5  1  0.80938927  0.67978794  0.16837528  1
  O  O6  1  0.91273655  0.47032997  0.32730142  1
  O  O7  1  0.99303524  0.20509118  0.08033524  1
  O  O8  1  0.92225965  0.33357271  0.83958443  1
  O  O9  1  0.66208054  0.81359777  0.67799985  1
  O  O10  1  0.61886084  0.92206305  0.33363600  1
  O  O11  1  0.81902351  0.51695779  0.67388639  1
  O  O12  1  0.66499246  0.68105961  0.01911775  1
  O  O13  1  0.68658212  0.66120192  0.52179398  1
  O  O14  1  0.67623362  0.51379204  0.16109219  1
  O  O15  1  0.47715142  0.89677882  0.83444777  1
  O  O16  1  0.51092466  0.81255570  0.16795422  1
  O  O17  1  0.75300346  0.33436378  0.34419393  1
  O  O18  1  0.78414928  0.21587104  0.75005051  1
  O  O19  1  0.77676544  0.22141441  0.56895950  1
  O  O20  1  0.77956458  0.22213697  0.93109022  1
  O  O21  1  0.62939222  0.47992242  0.83663289  1
  O  O22  1  0.52027725  0.66506061  0.66223396  1
  O  O23  1  0.66545652  0.24720155  0.15578587  1
  O  O24  1  0.46482206  0.62334626  0.33424803  1
  O  O25  1  0.33740329  0.91991881  0.33745862  1
  O  O26  1  0.80200128  0.98522144  0.24042079  1
  O  O27  1  0.79481527  0.00709694  0.41969566  1
  O  O28  1  0.23304715  0.99561295  0.57177312  1
  O  O29  1  0.66566879  0.07854813  0.66036450  1
  O  O30  1  0.51979744  0.37192915  0.66476859  1
  O  O31  1  0.33297834  0.74617887  0.84259330  1
  O  O32  1  0.48612645  0.32379770  0.33889435  1
  O  O33  1  0.37641128  0.53491087  0.16584829  1
  O  O34  1  0.21022880  0.78468714  0.06893148  1
  O  O35  1  0.21520345  0.78984608  0.43100955  1
  O  O36  1  0.20202107  0.79799731  0.25001123  1
  O  O37  1  0.25292908  0.66806780  0.65625851  1
  O  O38  1  0.48295098  0.18084129  0.82601936  1
  O  O39  1  0.52972201  0.08730670  0.17268609  1
  O  O40  1  0.33511814  0.47904597  0.83755557  1
  O  O41  1  0.33867223  0.31291486  0.97829973  1
  O  O42  1  0.31896551  0.33500342  0.48090908  1
  O  O43  1  0.18740422  0.48910484  0.33208837  1
  O  O44  1  0.37356663  0.10625743  0.66987971  1
  O  O45  1  0.32017476  0.19060788  0.33159553  1
  O  O46  1  0.08014525  0.66260572  0.16255355  1
  O  O47  1  0.99616602  0.78978794  0.74604362  1
  O  O48  1  0.00429415  0.76702822  0.92819865  1
  O  O49  1  0.10310283  0.52286037  0.66553557  1
  O  O50  1  0.18653775  0.33752279  0.82213257  1
  O  O51  1  0.07802253  0.38111128  0.16632101  1
  O  O52  1  0.25711875  0.08341217  0.15816987  1
  O  O53  1  0.22688938  0.99486283  0.93614985  1
  O  O54  1  0.21043541  0.00365199  0.75402406  1
  O  O55  1  0.07911987  0.25282589  0.65775174  1
  O  O56  1  0.00439740  0.23474146  0.43785698  1
  O  O57  1  0.01481432  0.19788967  0.25955366  1
loop_
_geom_bond_atom_site_label_1
_geom_bond_atom_site_label_2
_geom_bond_distance
_geom_bond_site_symmetry_2
Li0 O2 1.971704 1_555
Li0 O46 2.056753 1_655
Li0 O48 2.098857 1_654
Li0 O5 2.146001 1_555
Li1 O56 1.982847 1_655
Li1 O19 2.026676 1_555
Li1 O55 2.031913 1_655
Li1 O11 2.217542 1_555
Li2 O12 1.865799 1_556
Li2 O21 2.118574 1_555
Li2 O15 2.222858 1_555
Li2 O4 2.237362 1_555
Li3 O7 1.938029 1_555
Li3 O23 1.994351 1_555
Li3 O14 2.083939 1_555
Li3 O20 2.107322 1_554
Li4 O52 1.979299 1_565
Li4 O53 1.995167 1_554
Li4 O34 2.053528 1_555
Li4 O16 2.155692 1_555
Li5 O27 1.935216 1_555
Li5 O17 1.993088 1_555
Li5 O32 2.084704 1_555
Li5 O19 2.108833 1_555
Li6 O28 1.968748 1_555
Li6 O37 2.003153 1_555
Li6 O35 2.098169 1_555
Li6 O22 2.141652 1_555
Li7 O2 1.984583 1_546
Li7 O20 2.023236 1_555
Li7 O3 2.030790 1_545
Li7 O38 2.222166 1_555
Li8 O48 1.970899 1_555
Li8 O31 2.017086 1_555
Li8 O34 2.098364 1_556
Li8 O40 2.142209 1_555
Li9 O42 1.864655 1_555
Li9 O30 2.136362 1_555
Li9 O49 2.218320 1_555
Li9 O44 2.238138 1_555
Li10 O1 1.982249 1_455
Li10 O0 1.993789 1_555
Li10 O35 2.053715 1_555
Li10 O43 2.153838 1_555
Li11 O56 1.973302 1_555
Li11 O25 2.054249 1_545
Li11 O28 2.099385 1_545
Li11 O45 2.145969 1_555
Li12 O7 1.938956 1_456
Li12 O53 2.022152 1_545
Li12 O20 2.315484 1_455
Li12 O34 2.487024 1_546
Li13 O27 1.940878 1_565
Li13 O0 2.019659 1_655
Li13 O19 2.325539 1_565
Li13 O35 2.483405 1_655
O0 P13 1.502413 1_555
O1 P1 1.550065 1_555
O1 V4 1.987865 1_555
O2 P8 1.513230 1_565
O3 P0 1.541691 1_555
O3 V2 2.033594 1_555
O4 P0 1.553482 1_555
O4 V5 1.976976 1_655
O5 P3 1.566140 1_555
O5 V4 1.997533 1_555
O6 P2 1.555545 1_555
O6 V4 1.866123 1_555
O7 P15 1.504586 1_655
O8 P5 1.527886 1_555
O8 V5 1.957751 1_655
O9 P4 1.592490 1_555
O9 V2 1.834750 1_555
O10 P1 1.528108 1_555
O10 V3 1.958277 1_565
O11 P4 1.586499 1_555
O11 V5 1.929055 1_655
O12 P3 1.514379 1_555
O13 P4 1.480347 1_555
O14 P3 1.555055 1_555
O14 V0 2.040839 1_555
O15 P7 1.550319 1_555
O15 V2 2.015844 1_555
O16 P3 1.583350 1_555
O16 V3 1.974759 1_565
O17 P2 1.524354 1_555
O17 V0 2.079943 1_555
O18 P6 1.608835 1_555
O18 P5 1.618116 1_555
O19 P6 1.521476 1_555
O20 P5 1.522722 1_555
O21 P5 1.536420 1_555
O21 V1 2.053670 1_555
O22 P4 1.560340 1_555
O22 V1 1.984883 1_555
O23 P8 1.524912 1_555
O23 V0 2.076369 1_555
O24 P9 1.514574 1_555
O24 V0 1.985763 1_555
O25 P9 1.561745 1_555
O25 V3 1.963390 1_565
O26 P8 1.600532 1_565
O26 P1 1.624049 1_555
O27 P1 1.504567 1_545
O28 P14 1.510404 1_565
O29 P6 1.526560 1_555
O29 V2 1.961251 1_545
O30 P6 1.548923 1_555
O30 V1 2.019420 1_555
O31 P7 1.538822 1_555
O31 V1 2.032145 1_555
O32 P11 1.554349 1_555
O32 V0 2.045062 1_555
O33 P10 1.513900 1_555
O33 V0 1.989098 1_555
O34 P10 1.519865 1_555
O35 P9 1.519569 1_555
O36 P9 1.618581 1_555
O36 P10 1.618749 1_555
O37 P13 1.534930 1_555
O37 V1 2.037409 1_555
O38 P12 1.591481 1_555
O38 V2 1.919150 1_545
O39 P8 1.555719 1_555
O39 V3 1.865891 1_555
O40 P12 1.550838 1_555
O40 V1 2.009758 1_555
O41 P12 1.480605 1_555
O42 P11 1.515079 1_555
O43 P11 1.583320 1_555
O43 V4 1.976875 1_455
O44 P14 1.553696 1_555
O44 V2 1.978810 1_545
O45 P11 1.566391 1_555
O45 V3 1.994850 1_555
O46 P10 1.562349 1_555
O46 V4 1.962746 1_455
O47 P0 1.602494 1_555
O47 P13 1.621263 1_655
O48 P0 1.510505 1_455
O49 P13 1.550977 1_555
O49 V5 2.017974 1_555
O50 P12 1.594726 1_555
O50 V5 1.833166 1_555
O51 P15 1.527709 1_555
O51 V4 1.956413 1_455
O52 P15 1.550272 1_555
O52 V3 1.989678 1_555
O53 P7 1.500772 1_555
O54 P14 1.604341 1_555
O54 P7 1.619440 1_545
O55 P14 1.540320 1_555
O55 V5 2.033586 1_555
O56 P2 1.513770 1_455
O57 P2 1.600572 1_455
O57 P15 1.623908 1_555
