# generated using pymatgen
data_Ca2TaTiO6
_symmetry_space_group_name_H-M   'P 1'
_cell_length_a   7.82282800
_cell_length_b   5.47684800
_cell_length_c   5.63533196
_cell_angle_alpha   89.95226480
_cell_angle_beta   90.00000000
_cell_angle_gamma   90.00000000
_symmetry_Int_Tables_number   1
_chemical_formula_structural   Ca2TaTiO6
_chemical_formula_sum   'Ca4 Ta2 Ti2 O12'
_cell_volume   241.44255742
_cell_formula_units_Z   2
loop_
 _symmetry_equiv_pos_site_id
 _symmetry_equiv_pos_as_xyz
  1  'x, y, z'
loop_
 _atom_site_type_symbol
 _atom_site_label
 _atom_site_symmetry_multiplicity
 _atom_site_fract_x
 _atom_site_fract_y
 _atom_site_fract_z
 _atom_site_occupancy
  Ca  Ca0  1  0.75000000  0.98958900  0.04334500  1
  Ca  Ca1  1  0.75000000  0.51178000  0.56079900  1
  Ca  Ca2  1  0.25000000  0.48822000  0.43920100  1
  Ca  Ca3  1  0.25000000  0.01041100  0.95665500  1
  Ta  Ta0  1  0.00000000  0.00000000  0.50000000  1
  Ta  Ta1  1  0.50000000  0.00000000  0.50000000  1
  Ti  Ti0  1  0.00000000  0.50000000  0.00000000  1
  Ti  Ti1  1  0.50000000  0.50000000  0.00000000  1
  O  O0  1  0.45405700  0.20182700  0.20953700  1
  O  O1  1  0.54397200  0.70601200  0.29561700  1
  O  O2  1  0.54594300  0.79817300  0.79046300  1
  O  O3  1  0.04397200  0.29398800  0.70438300  1
  O  O4  1  0.25000000  0.91214500  0.52591100  1
  O  O5  1  0.45602800  0.29398800  0.70438300  1
  O  O6  1  0.95602800  0.70601200  0.29561700  1
  O  O7  1  0.04594300  0.20182700  0.20953700  1
  O  O8  1  0.75000000  0.41650600  0.97664900  1
  O  O9  1  0.95405700  0.79817300  0.79046300  1
  O  O10  1  0.25000000  0.58349400  0.02335100  1
  O  O11  1  0.75000000  0.08785500  0.47408900  1
loop_
_geom_bond_atom_site_label_1
_geom_bond_atom_site_label_2
_geom_bond_distance
_geom_bond_site_symmetry_2
Ca0 O8 2.367867 1_564
Ca0 O9 2.383392 1_554
Ca0 O2 2.383392 1_554
Ca0 O11 2.486770 1_565
Ca0 O6 2.650880 1_555
Ca0 O1 2.650880 1_555
Ca0 O0 2.754966 1_565
Ca0 O7 2.754966 1_665
Ca1 O11 2.373033 1_555
Ca1 O8 2.400419 1_555
Ca1 O6 2.441274 1_555
Ca1 O1 2.441274 1_555
Ca1 O9 2.585903 1_555
Ca1 O2 2.585903 1_555
Ca1 O3 2.713760 1_655
Ca1 O5 2.713760 1_555
Ca2 O4 2.373033 1_555
Ca2 O10 2.400419 1_555
Ca2 O5 2.441274 1_555
Ca2 O3 2.441274 1_555
Ca2 O0 2.585903 1_555
Ca2 O7 2.585903 1_555
Ca2 O6 2.713760 1_455
Ca2 O1 2.713760 1_555
Ca3 O10 2.367867 1_546
Ca3 O7 2.383392 1_556
Ca3 O0 2.383392 1_556
Ca3 O4 2.486770 1_545
Ca3 O5 2.650880 1_555
Ca3 O3 2.650880 1_555
Ca3 O2 2.754966 1_545
Ca3 O9 2.754966 1_445
O0 Ta1 2.006815 1_555
O0 Ti1 2.046245 1_555
O1 Ta1 2.010097 1_565
O1 Ti1 2.041992 1_555
O2 Ta1 2.006815 1_565
O2 Ti1 2.046245 1_556
O3 Ta0 2.010097 1_555
O3 Ti0 2.041992 1_556
O4 Ta0 2.019286 1_565
O4 Ta1 2.019286 1_565
O5 Ta1 2.010097 1_555
O5 Ti1 2.041992 1_556
O6 Ta0 2.010097 1_665
O6 Ti0 2.041992 1_655
O7 Ta0 2.006815 1_555
O7 Ti0 2.046245 1_555
O8 Ti1 2.012788 1_556
O8 Ti0 2.012788 1_656
O9 Ta0 2.006815 1_665
O9 Ti0 2.046245 1_656
O10 Ti1 2.012788 1_555
O10 Ti0 2.012788 1_555
O11 Ta1 2.019286 1_555
O11 Ta0 2.019286 1_655
