# generated using pymatgen
data_Nb3Fe(BiO3)6
_symmetry_space_group_name_H-M   'P 1'
_cell_length_a   5.49266700
_cell_length_b   5.55048549
_cell_length_c   13.23886840
_cell_angle_alpha   90.40280397
_cell_angle_beta   101.62776844
_cell_angle_gamma   90.11659454
_symmetry_Int_Tables_number   1
_chemical_formula_structural   Nb3Fe(BiO3)6
_chemical_formula_sum   'Nb3 Fe1 Bi6 O18'
_cell_volume   395.31766558
_cell_formula_units_Z   1
loop_
 _symmetry_equiv_pos_site_id
 _symmetry_equiv_pos_as_xyz
  1  'x, y, z'
loop_
 _atom_site_type_symbol
 _atom_site_label
 _atom_site_symmetry_multiplicity
 _atom_site_fract_x
 _atom_site_fract_y
 _atom_site_fract_z
 _atom_site_occupancy
  Nb  Nb0  1  0.16462800  0.30042600  0.82592000  1
  Nb  Nb1  1  0.66198000  0.80114500  0.82581800  1
  Nb  Nb2  1  0.83958000  0.81194500  0.17792700  1
  Fe  Fe0  1  0.33117600  0.30808100  0.17680700  1
  Bi  Bi0  1  0.99331100  0.25402800  0.39665500  1
  Bi  Bi1  1  0.57482000  0.25124900  0.59437700  1
  Bi  Bi2  1  0.02207600  0.76449600  0.59500200  1
  Bi  Bi3  1  0.43131100  0.73199300  0.39709800  1
  Bi  Bi4  1  0.74453200  0.25314100  0.01508100  1
  Bi  Bi5  1  0.26452100  0.74881300  0.01389200  1
  O  O0  1  0.24208300  0.52330600  0.50196200  1
  O  O1  1  0.74198200  0.52377100  0.49729600  1
  O  O2  1  0.75854900  0.02027400  0.49739000  1
  O  O3  1  0.25772800  0.02014100  0.50094800  1
  O  O4  1  0.32980900  0.34880900  0.99762100  1
  O  O5  1  0.66658500  0.84786000  0.99750800  1
  O  O6  1  0.35828100  0.62664200  0.82507900  1
  O  O7  1  0.52753700  0.63135600  0.16818900  1
  O  O8  1  0.64458100  0.12898700  0.16834800  1
  O  O9  1  0.46737300  0.12580900  0.82496800  1
  O  O10  1  0.33467700  0.33512200  0.32084400  1
  O  O11  1  0.02702100  0.31659100  0.68440200  1
  O  O12  1  0.65640100  0.81877200  0.68364800  1
  O  O13  1  0.97017000  0.81265400  0.31938100  1
  O  O14  1  0.02507000  0.54185900  0.12971300  1
  O  O15  1  0.89630600  0.54115700  0.86736300  1
  O  O16  1  0.97168800  0.03932100  0.86726900  1
  O  O17  1  0.09622600  0.03405200  0.12949300  1
loop_
_geom_bond_atom_site_label_1
_geom_bond_atom_site_label_2
_geom_bond_distance
_geom_bond_site_symmetry_2
Nb0 O11 1.876509 1_555
Nb0 O9 1.928606 1_555
Nb0 O16 1.939549 1_455
Nb0 O6 2.099338 1_555
Nb0 O15 2.140595 1_455
Nb0 O4 2.285052 1_555
Nb1 O12 1.879475 1_555
Nb1 O6 1.925504 1_555
Nb1 O15 1.942898 1_555
Nb1 O9 2.096028 1_565
Nb1 O16 2.132362 1_565
Nb1 O5 2.280971 1_555
Nb2 O13 1.865449 1_555
Nb2 O7 1.964963 1_555
Nb2 O14 1.986878 1_655
Nb2 O8 2.053288 1_565
Nb2 O17 2.070394 1_665
Nb2 O5 2.395901 1_554
Fe0 O10 1.907956 1_555
Fe0 O17 2.005976 1_555
Fe0 O8 2.011746 1_555
Fe0 O7 2.107253 1_555
Fe0 O14 2.120619 1_555
Fe0 O4 2.383056 1_554
Bi0 O3 2.219356 1_655
Bi0 O0 2.288914 1_655
Bi0 O10 2.342452 1_655
Bi0 O2 2.415649 1_555
Bi0 O1 2.577658 1_555
Bi0 O13 2.641121 1_545
Bi1 O2 2.194332 1_555
Bi1 O1 2.297890 1_555
Bi1 O3 2.304134 1_555
Bi1 O0 2.500630 1_555
Bi1 O11 2.553070 1_655
Bi1 O12 2.681518 1_545
Bi2 O1 2.233936 1_455
Bi2 O2 2.249621 1_465
Bi2 O0 2.313670 1_555
Bi2 O3 2.430285 1_565
Bi2 O12 2.539665 1_455
Bi2 O11 2.758781 1_555
Bi3 O0 2.224559 1_555
Bi3 O1 2.263694 1_555
Bi3 O3 2.420933 1_565
Bi3 O10 2.429254 1_555
Bi3 O2 2.559362 1_565
Bi3 O13 2.575883 1_455
Bi4 O5 2.290475 1_544
Bi4 O4 2.306248 1_554
Bi4 O8 2.315300 1_555
Bi4 O14 2.501734 1_655
Bi4 O17 2.522032 1_655
Bi4 O9 2.752782 1_554
Bi4 O16 2.784266 1_554
Bi4 O15 2.787604 1_554
Bi5 O4 2.265395 1_554
Bi5 O5 2.327264 1_554
Bi5 O7 2.348989 1_555
Bi5 O14 2.496397 1_555
Bi5 O17 2.499086 1_565
Bi5 O6 2.733114 1_554
Bi5 O15 2.749468 1_454
Bi5 O16 2.784070 1_464
