# generated using pymatgen
data_Gd4Si2S3O7
_symmetry_space_group_name_H-M   'P 1'
_cell_length_a   10.88508134
_cell_length_b   10.88508134
_cell_length_c   10.88508134
_cell_angle_alpha   114.01304404
_cell_angle_beta   114.01304404
_cell_angle_gamma   100.72589999
_symmetry_Int_Tables_number   1
_chemical_formula_structural   Gd4Si2S3O7
_chemical_formula_sum   'Gd16 Si8 S12 O28'
_cell_volume   975.86094968
_cell_formula_units_Z   4
loop_
 _symmetry_equiv_pos_site_id
 _symmetry_equiv_pos_as_xyz
  1  'x, y, z'
loop_
 _atom_site_type_symbol
 _atom_site_label
 _atom_site_symmetry_multiplicity
 _atom_site_fract_x
 _atom_site_fract_y
 _atom_site_fract_z
 _atom_site_occupancy
  Gd  Gd0  1  0.53399800  0.29828700  0.76428900  1
  Gd  Gd1  1  0.04828700  0.78399800  0.26428900  1
  Gd  Gd2  1  0.51970900  0.78399800  0.73571100  1
  Gd  Gd3  1  0.53399800  0.76970900  0.23571100  1
  Gd  Gd4  1  0.21600200  0.95171300  0.73571100  1
  Gd  Gd5  1  0.70171300  0.46600200  0.23571100  1
  Gd  Gd6  1  0.23029100  0.46600200  0.76428900  1
  Gd  Gd7  1  0.21600200  0.48029100  0.26428900  1
  Gd  Gd8  1  0.17224500  0.17224500  0.34449100  1
  Gd  Gd9  1  0.82775500  0.17224500  0.00000000  1
  Gd  Gd10  1  0.92224500  0.42224500  0.84449100  1
  Gd  Gd11  1  0.57775500  0.42224500  0.50000000  1
  Gd  Gd12  1  0.17224500  0.82775500  0.00000000  1
  Gd  Gd13  1  0.82775500  0.82775500  0.65550900  1
  Gd  Gd14  1  0.92224500  0.07775500  0.50000000  1
  Gd  Gd15  1  0.57775500  0.07775500  0.15550900  1
  Si  Si0  1  0.77996000  0.90398800  0.12402800  1
  Si  Si1  1  0.65398800  0.02996000  0.62402800  1
  Si  Si2  1  0.40593200  0.02996000  0.37597200  1
  Si  Si3  1  0.77996000  0.65593200  0.87597200  1
  Si  Si4  1  0.97004000  0.34601200  0.37597200  1
  Si  Si5  1  0.09601200  0.22004000  0.87597200  1
  Si  Si6  1  0.34406800  0.22004000  0.12402800  1
  Si  Si7  1  0.97004000  0.59406800  0.62402800  1
  S  S0  1  0.22818700  0.62500000  0.10318700  1
  S  S1  1  0.52181300  0.62500000  0.39681300  1
  S  S2  1  0.37500000  0.47818700  0.60318700  1
  S  S3  1  0.87500000  0.47818700  0.10318700  1
  S  S4  1  0.22818700  0.12500000  0.60318700  1
  S  S5  1  0.52181300  0.12500000  0.89681300  1
  S  S6  1  0.37500000  0.77181300  0.89681300  1
  S  S7  1  0.87500000  0.77181300  0.39681300  1
  S  S8  1  0.50000000  0.50000000  0.00000000  1
  S  S9  1  0.25000000  0.75000000  0.50000000  1
  S  S10  1  0.75000000  0.25000000  0.50000000  1
  S  S11  1  0.00000000  0.00000000  0.00000000  1
  O  O0  1  0.95621000  0.69447200  0.98186200  1
  O  O1  1  0.71261000  0.69447200  0.73826200  1
  O  O2  1  0.44447200  0.20621000  0.48186200  1
  O  O3  1  0.72434800  0.20621000  0.76173800  1
  O  O4  1  0.95621000  0.97434800  0.26173800  1
  O  O5  1  0.71261000  0.97434800  0.01813800  1
  O  O6  1  0.44447200  0.96261000  0.23826200  1
  O  O7  1  0.72434800  0.96261000  0.51813800  1
  O  O8  1  0.79379000  0.55552800  0.51813800  1
  O  O9  1  0.03739000  0.55552800  0.76173800  1
  O  O10  1  0.30552800  0.04379000  0.01813800  1
  O  O11  1  0.02565200  0.04379000  0.73826200  1
  O  O12  1  0.79379000  0.27565200  0.23826200  1
  O  O13  1  0.03739000  0.27565200  0.48186200  1
  O  O14  1  0.30552800  0.28739000  0.26173800  1
  O  O15  1  0.02565200  0.28739000  0.98186200  1
  O  O16  1  0.70227200  0.47249400  0.77022200  1
  O  O17  1  0.22249400  0.95227200  0.27022200  1
  O  O18  1  0.68205100  0.95227200  0.72977800  1
  O  O19  1  0.70227200  0.93205100  0.22977800  1
  O  O20  1  0.04772800  0.77750600  0.72977800  1
  O  O21  1  0.52750600  0.29772800  0.22977800  1
  O  O22  1  0.06794900  0.29772800  0.77022200  1
  O  O23  1  0.04772800  0.31794900  0.27022200  1
  O  O24  1  0.27205400  0.27205400  0.00000000  1
  O  O25  1  0.02205400  0.52205400  0.50000000  1
  O  O26  1  0.47794600  0.97794600  0.50000000  1
  O  O27  1  0.72794600  0.72794600  0.00000000  1
loop_
_geom_bond_atom_site_label_1
_geom_bond_atom_site_label_2
_geom_bond_distance
_geom_bond_site_symmetry_2
Gd0 O16 2.337992 1_555
Gd0 O2 2.468916 1_555
Gd0 O3 2.468916 1_555
Gd0 S4 2.816661 1_555
Gd0 S5 2.816661 1_555
Gd0 S8 2.833916 1_556
Gd0 S2 3.389891 1_555
Gd0 S3 3.389891 1_556
Gd1 O17 2.337992 1_555
Gd1 O0 2.468916 1_454
Gd1 O4 2.468916 1_455
Gd1 S3 2.816661 1_455
Gd1 S7 2.816661 1_455
Gd1 S9 2.833916 1_555
Gd1 S0 3.389891 1_555
Gd1 S4 3.389891 1_565
Gd2 O18 2.337998 1_555
Gd2 O1 2.468916 1_555
Gd2 O5 2.468916 1_556
Gd2 S6 2.816661 1_555
Gd2 S2 2.816661 1_555
Gd2 S9 2.833916 1_555
Gd2 S1 3.389891 1_555
Gd2 S5 3.389891 1_565
Gd3 O19 2.337998 1_555
Gd3 O6 2.468916 1_555
Gd3 O7 2.468916 1_555
Gd3 S0 2.816661 1_555
Gd3 S1 2.816661 1_555
Gd3 S8 2.833916 1_555
Gd3 S6 3.389891 1_554
Gd3 S7 3.389891 1_555
Gd4 O20 2.337992 1_555
Gd4 O11 2.468916 1_565
Gd4 O10 2.468916 1_566
Gd4 S4 2.816661 1_565
Gd4 S5 2.816661 1_565
Gd4 S9 2.833916 1_555
Gd4 S7 3.389891 1_455
Gd4 S6 3.389891 1_555
Gd5 O21 2.337992 1_555
Gd5 O12 2.468916 1_555
Gd5 O8 2.468916 1_555
Gd5 S7 2.816661 1_555
Gd5 S3 2.816661 1_555
Gd5 S8 2.833916 1_555
Gd5 S5 3.389891 1_554
Gd5 S1 3.389891 1_555
Gd6 O22 2.337998 1_555
Gd6 O9 2.468916 1_555
Gd6 O13 2.468916 1_555
Gd6 S2 2.816661 1_555
Gd6 S6 2.816661 1_555
Gd6 S8 2.833916 1_556
Gd6 S0 3.389891 1_556
Gd6 S4 3.389891 1_555
Gd7 O23 2.337998 1_555
Gd7 O15 2.468916 1_554
Gd7 O14 2.468916 1_555
Gd7 S1 2.816661 1_555
Gd7 S0 2.816661 1_555
Gd7 S9 2.833916 1_555
Gd7 S3 3.389891 1_455
Gd7 S2 3.389891 1_555
Gd8 O4 2.406806 1_445
Gd8 O14 2.406820 1_555
Gd8 O23 2.440876 1_555
Gd8 O17 2.440882 1_545
Gd8 O13 2.586354 1_555
Gd8 O2 2.586360 1_555
Gd8 S11 2.887734 1_555
Gd8 S4 2.909349 1_555
Gd8 S2 2.909357 1_555
Gd9 O15 2.406811 1_654
Gd9 O5 2.406811 1_545
Gd9 O18 2.440882 1_544
Gd9 O23 2.440882 1_655
Gd9 O3 2.586361 1_554
Gd9 O12 2.586361 1_555
Gd9 S11 2.887726 1_655
Gd9 S3 2.909359 1_555
Gd9 S5 2.909359 1_554
Gd10 O3 2.406806 1_555
Gd10 O9 2.406820 1_655
Gd10 O22 2.440876 1_655
Gd10 O16 2.440882 1_555
Gd10 O15 2.586354 1_655
Gd10 O0 2.586360 1_555
Gd10 S10 2.887734 1_555
Gd10 S3 2.909349 1_556
Gd10 S0 2.909357 1_656
Gd11 O2 2.406811 1_555
Gd11 O8 2.406811 1_555
Gd11 O16 2.440881 1_555
Gd11 O21 2.440881 1_555
Gd11 O1 2.586361 1_555
Gd11 O14 2.586361 1_555
Gd11 S10 2.887726 1_555
Gd11 S1 2.909359 1_555
Gd11 S2 2.909359 1_555
Gd12 O0 2.406811 1_454
Gd12 O10 2.406811 1_565
Gd12 O17 2.440881 1_555
Gd12 O20 2.440881 1_554
Gd12 O9 2.586361 1_554
Gd12 O6 2.586361 1_555
Gd12 S11 2.887726 1_565
Gd12 S0 2.909359 1_555
Gd12 S6 2.909359 1_554
Gd13 O11 2.406806 1_665
Gd13 O1 2.406820 1_555
Gd13 O18 2.440876 1_555
Gd13 O20 2.440882 1_655
Gd13 O7 2.586354 1_555
Gd13 O8 2.586360 1_555
Gd13 S11 2.887734 1_666
Gd13 S7 2.909349 1_555
Gd13 S1 2.909357 1_555
Gd14 O7 2.406811 1_545
Gd14 O13 2.406811 1_655
Gd14 O22 2.440882 1_655
Gd14 O19 2.440882 1_545
Gd14 O11 2.586361 1_655
Gd14 O4 2.586361 1_545
Gd14 S10 2.887726 1_555
Gd14 S4 2.909359 1_655
Gd14 S7 2.909359 1_545
Gd15 O12 2.406806 1_555
Gd15 O6 2.406820 1_545
Gd15 O19 2.440876 1_545
Gd15 O21 2.440882 1_555
Gd15 O5 2.586354 1_545
Gd15 O10 2.586360 1_555
Gd15 S10 2.887734 1_555
Gd15 S5 2.909349 1_554
Gd15 S6 2.909357 1_544
O0 Si3 1.640816 1_555
O1 Si3 1.640816 1_555
O2 Si2 1.640816 1_555
O3 Si1 1.640816 1_555
O4 Si0 1.640816 1_555
O5 Si0 1.640816 1_555
O6 Si2 1.640816 1_565
O7 Si1 1.640816 1_565
O8 Si7 1.640816 1_555
O9 Si7 1.640816 1_455
O10 Si6 1.640816 1_555
O11 Si5 1.640816 1_555
O12 Si4 1.640816 1_555
O13 Si4 1.640816 1_455
O14 Si6 1.640816 1_555
O15 Si5 1.640816 1_555
O16 Si3 1.653984 1_555
O17 Si2 1.653984 1_565
O18 Si1 1.653984 1_565
O19 Si0 1.653984 1_555
O20 Si7 1.653984 1_455
O21 Si6 1.653984 1_555
O22 Si5 1.653984 1_555
O23 Si4 1.653984 1_455
O24 Si6 1.638187 1_555
O24 Si5 1.638187 1_554
O25 Si7 1.638187 1_455
O25 Si4 1.638187 1_455
O26 Si1 1.638187 1_565
O26 Si2 1.638187 1_565
O27 Si3 1.638187 1_554
O27 Si0 1.638187 1_555
