# generated using pymatgen
data_Ca4Ni20H
_symmetry_space_group_name_H-M   'P 1'
_cell_length_a   9.89767401
_cell_length_b   9.89767401
_cell_length_c   3.88541300
_cell_angle_alpha   90.00000000
_cell_angle_beta   90.00000000
_cell_angle_gamma   120.84374381
_symmetry_Int_Tables_number   1
_chemical_formula_structural   Ca4Ni20H
_chemical_formula_sum   'Ca4 Ni20 H1'
_cell_volume   326.79736030
_cell_formula_units_Z   1
loop_
 _symmetry_equiv_pos_site_id
 _symmetry_equiv_pos_as_xyz
  1  'x, y, z'
loop_
 _atom_site_type_symbol
 _atom_site_label
 _atom_site_symmetry_multiplicity
 _atom_site_fract_x
 _atom_site_fract_y
 _atom_site_fract_z
 _atom_site_occupancy
  Ca  Ca0  1  0.75182900  0.75182900  0.00221000  1
  Ca  Ca1  1  0.25368600  0.74631400  0.00128800  1
  Ca  Ca2  1  0.24817100  0.24817100  0.00221000  1
  Ca  Ca3  1  0.74631400  0.25368600  0.00128800  1
  Ni  Ni0  1  0.58480500  0.91777400  0.00112400  1
  Ni  Ni1  1  0.08222600  0.41519500  0.00112400  1
  Ni  Ni2  1  0.09179400  0.90820600  0.99964700  1
  Ni  Ni3  1  0.58229800  0.41770200  0.00132700  1
  Ni  Ni4  1  0.00000000  0.00000000  0.50800100  1
  Ni  Ni5  1  0.50000000  0.00000000  0.50114500  1
  Ni  Ni6  1  0.50110400  0.74992500  0.50115100  1
  Ni  Ni7  1  0.99764000  0.25238200  0.50154700  1
  Ni  Ni8  1  0.00236000  0.74761800  0.50154700  1
  Ni  Ni9  1  0.49889600  0.25007500  0.50115100  1
  Ni  Ni10  1  0.90820600  0.09179400  0.99964700  1
  Ni  Ni11  1  0.41770200  0.58229800  0.00132700  1
  Ni  Ni12  1  0.41519500  0.08222600  0.00112400  1
  Ni  Ni13  1  0.91777400  0.58480500  0.00112400  1
  Ni  Ni14  1  0.50000000  0.50000000  0.50148100  1
  Ni  Ni15  1  0.00000000  0.50000000  0.50114500  1
  Ni  Ni16  1  0.74761800  0.00236000  0.50154700  1
  Ni  Ni17  1  0.25007500  0.49889600  0.50115100  1
  Ni  Ni18  1  0.25238200  0.99764000  0.50154700  1
  Ni  Ni19  1  0.74992500  0.50110400  0.50115100  1
  H  H0  1  0.00000000  0.00000000  0.08076600  1
loop_
_geom_bond_atom_site_label_1
_geom_bond_atom_site_label_2
_geom_bond_distance
_geom_bond_site_symmetry_2
Ca0 H0 2.444057 1_665
Ca0 Ni3 2.839412 1_555
Ca0 Ni11 2.839412 1_555
Ca0 Ni13 2.866153 1_555
Ca0 Ni0 2.866153 1_555
Ca0 Ni14 3.133367 1_555
Ca0 Ni14 3.136878 1_554
Ca0 Ni19 3.141473 1_555
Ca0 Ni6 3.141473 1_555
Ca0 Ni19 3.146558 1_554
Ca0 Ni6 3.146558 1_554
Ca0 Ni16 3.165534 1_565
Ca0 Ni8 3.165534 1_655
Ca0 Ni8 3.168694 1_654
Ca0 Ni16 3.168694 1_564
Ca1 Ni2 2.787089 1_554
Ca1 Ni1 2.813844 1_555
Ca1 Ni0 2.813844 1_555
Ca1 Ni11 2.823648 1_555
Ca1 Ni13 2.856493 1_455
Ca1 Ni12 2.856493 1_565
Ca1 Ni17 3.111350 1_555
Ca1 Ni6 3.111350 1_555
Ca1 Ni17 3.112015 1_554
Ca1 Ni6 3.112015 1_554
Ca1 Ni15 3.121414 1_555
Ca1 Ni5 3.121414 1_565
Ca1 Ni15 3.122105 1_554
Ca1 Ni5 3.122105 1_564
Ca1 Ni8 3.160879 1_554
Ca1 Ni18 3.160879 1_554
Ca1 Ni8 3.162116 1_555
Ca1 Ni18 3.162116 1_555
Ca2 H0 2.444057 1_555
Ca2 Ni11 2.839412 1_555
Ca2 Ni3 2.839412 1_555
Ca2 Ni1 2.866153 1_555
Ca2 Ni12 2.866153 1_555
Ca2 Ni14 3.133367 1_555
Ca2 Ni14 3.136878 1_554
Ca2 Ni9 3.141473 1_555
Ca2 Ni17 3.141473 1_555
Ca2 Ni9 3.146558 1_554
Ca2 Ni17 3.146558 1_554
Ca2 Ni7 3.165534 1_455
Ca2 Ni18 3.165534 1_545
Ca2 Ni7 3.168694 1_454
Ca2 Ni18 3.168694 1_544
Ca3 Ni10 2.787089 1_554
Ca3 Ni12 2.813844 1_555
Ca3 Ni13 2.813844 1_555
Ca3 Ni3 2.823648 1_555
Ca3 Ni0 2.856493 1_545
Ca3 Ni1 2.856493 1_655
Ca3 Ni9 3.111350 1_555
Ca3 Ni19 3.111350 1_555
Ca3 Ni9 3.112015 1_554
Ca3 Ni19 3.112015 1_554
Ca3 Ni5 3.121414 1_555
Ca3 Ni15 3.121414 1_655
Ca3 Ni5 3.122105 1_554
Ca3 Ni15 3.122105 1_654
Ca3 Ni16 3.160879 1_554
Ca3 Ni7 3.160879 1_554
Ca3 Ni16 3.162116 1_555
Ca3 Ni7 3.162116 1_555
Ni0 Ni16 2.383711 1_564
Ni0 Ni16 2.386389 1_565
Ni0 Ni6 2.410130 1_554
Ni0 Ni6 2.410299 1_555
Ni0 Ni5 2.416848 1_564
Ni0 Ni5 2.416979 1_565
Ni1 Ni7 2.383711 1_454
Ni1 Ni7 2.386389 1_455
Ni1 Ni17 2.410130 1_554
Ni1 Ni17 2.410299 1_555
Ni1 Ni15 2.416848 1_554
Ni1 Ni15 2.416979 1_555
Ni2 Ni8 2.369111 1_555
Ni2 Ni8 2.381188 1_556
Ni3 Ni9 2.408566 1_555
Ni3 Ni9 2.409669 1_554
Ni4 Ni7 2.510176 1_455
Ni4 Ni8 2.510176 1_545
Ni5 Ni6 2.480781 1_545
Ni5 Ni9 2.480781 1_555
Ni10 Ni16 2.369111 1_555
Ni10 Ni7 2.369111 1_555
Ni10 Ni16 2.381188 1_556
Ni10 Ni7 2.381188 1_556
Ni11 Ni14 2.403987 1_554
Ni11 Ni14 2.404954 1_555
Ni11 Ni17 2.408566 1_555
Ni11 Ni6 2.408566 1_555
Ni11 Ni17 2.409669 1_554
Ni11 Ni6 2.409669 1_554
Ni12 Ni18 2.383711 1_544
Ni12 Ni18 2.386389 1_545
Ni12 Ni9 2.410130 1_554
Ni12 Ni9 2.410299 1_555
Ni12 Ni5 2.416848 1_554
Ni12 Ni5 2.416979 1_555
Ni13 Ni8 2.383711 1_654
Ni13 Ni8 2.386389 1_655
Ni13 Ni19 2.410130 1_554
Ni13 Ni19 2.410299 1_555
Ni13 Ni15 2.416848 1_654
Ni13 Ni15 2.416979 1_655
Ni14 Ni3 2.403987 1_556
Ni14 Ni3 2.404954 1_555
Ni14 Ni17 2.468092 1_555
Ni14 Ni9 2.468092 1_555
Ni14 Ni6 2.468092 1_555
Ni14 Ni19 2.468092 1_555
Ni15 Ni8 2.438949 1_555
Ni15 Ni7 2.438949 1_455
Ni15 Ni19 2.480781 1_455
Ni15 Ni17 2.480781 1_555
Ni16 Ni6 2.438193 1_545
Ni16 Ni5 2.438949 1_555
Ni16 Ni7 2.443010 1_555
Ni16 Ni4 2.510176 1_655
Ni17 Ni7 2.438193 1_455
Ni17 Ni6 2.452850 1_555
Ni18 Ni2 2.369111 1_555
Ni18 Ni2 2.381188 1_554
Ni18 Ni9 2.438193 1_565
Ni18 Ni5 2.438949 1_565
Ni18 Ni8 2.443010 1_555
Ni18 Ni4 2.510176 1_565
Ni19 Ni3 2.408566 1_555
Ni19 Ni3 2.409669 1_556
Ni19 Ni8 2.438193 1_655
Ni19 Ni9 2.452850 1_555
H0 Ni10 1.611421 1_454
H0 Ni2 1.611421 1_544
H0 Ni4 1.659984 1_555
H0 Ni4 2.225429 1_554
