# generated using pymatgen
data_LiMn3O6
_symmetry_space_group_name_H-M   'P 1'
_cell_length_a   7.11731072
_cell_length_b   7.11731072
_cell_length_c   5.02775096
_cell_angle_alpha   89.52158409
_cell_angle_beta   89.52158409
_cell_angle_gamma   23.66112510
_symmetry_Int_Tables_number   1
_chemical_formula_structural   LiMn3O6
_chemical_formula_sum   'Li1 Mn3 O6'
_cell_volume   102.20862544
_cell_formula_units_Z   1
loop_
 _symmetry_equiv_pos_site_id
 _symmetry_equiv_pos_as_xyz
  1  'x, y, z'
loop_
 _atom_site_type_symbol
 _atom_site_label
 _atom_site_symmetry_multiplicity
 _atom_site_fract_x
 _atom_site_fract_y
 _atom_site_fract_z
 _atom_site_occupancy
  Li  Li0  1  0.79349300  0.79349300  0.07164900  1
  Mn  Mn0  1  0.00285500  0.00285500  0.00295400  1
  Mn  Mn1  1  0.34264700  0.34264700  0.54516400  1
  Mn  Mn2  1  0.65398100  0.65398100  0.46998800  1
  O  O0  1  0.57407400  0.57407400  0.15949000  1
  O  O1  1  0.42288100  0.42288100  0.86060100  1
  O  O2  1  0.09442200  0.09442200  0.64590800  1
  O  O3  1  0.89958500  0.89958500  0.35422400  1
  O  O4  1  0.23356900  0.23356900  0.29711000  1
  O  O5  1  0.76706900  0.76706900  0.70657400  1
loop_
_geom_bond_atom_site_label_1
_geom_bond_atom_site_label_2
_geom_bond_distance
_geom_bond_site_symmetry_2
Li0 O5 1.875138 1_554
Li0 O4 2.023619 1_565
Li0 O4 2.023619 1_655
Li0 O3 2.058895 1_555
Li0 O1 2.544031 1_654
Li0 O1 2.544031 1_564
Mn0 O0 1.935581 1_545
Mn0 O0 1.935581 1_455
Mn0 O1 1.973965 1_454
Mn0 O1 1.973965 1_544
Mn0 O2 2.193387 1_554
Mn0 O3 2.268446 1_445
Mn1 O3 1.914965 1_545
Mn1 O3 1.914965 1_455
Mn1 O1 1.948080 1_555
Mn1 O5 1.970266 1_545
Mn1 O5 1.970266 1_455
Mn1 O4 1.974139 1_555
Mn2 O2 1.894080 1_655
Mn2 O2 1.894080 1_565
Mn2 O0 1.925126 1_555
Mn2 O5 1.982246 1_555
Mn2 O4 2.024295 1_565
Mn2 O4 2.024295 1_655
