# generated using pymatgen
data_Mg5Zn
_symmetry_space_group_name_H-M   'P 1'
_cell_length_a   16.17516418
_cell_length_b   16.17516418
_cell_length_c   9.92026554
_cell_angle_alpha   90.00000000
_cell_angle_beta   90.00000000
_cell_angle_gamma   157.54751076
_symmetry_Int_Tables_number   1
_chemical_formula_structural   Mg5Zn
_chemical_formula_sum   'Mg40 Zn8'
_cell_volume   991.26532000
_cell_formula_units_Z   8
loop_
 _symmetry_equiv_pos_site_id
 _symmetry_equiv_pos_as_xyz
  1  'x, y, z'
loop_
 _atom_site_type_symbol
 _atom_site_label
 _atom_site_symmetry_multiplicity
 _atom_site_fract_x
 _atom_site_fract_y
 _atom_site_fract_z
 _atom_site_occupancy
  Mg  Mg0_0  1  0.00072462  0.49927538  0.25000000  1
  Mg  Mg0_1  1  0.00072462  0.49927538  0.75000000  1
  Mg  Mg0_2  1  0.00072462  0.99927538  0.25000000  1
  Mg  Mg0_3  1  0.00072462  0.99927538  0.75000000  1
  Mg  Mg0_4  1  0.50072462  0.49927538  0.25000000  1
  Mg  Mg0_5  1  0.50072462  0.49927538  0.75000000  1
  Mg  Mg0_6  1  0.50072462  0.99927538  0.25000000  1
  Mg  Mg0_7  1  0.50072462  0.99927538  0.75000000  1
  Mg  Mg1_0  1  0.16426274  0.33573726  0.25000000  1
  Mg  Mg1_1  1  0.16426274  0.33573726  0.75000000  1
  Mg  Mg1_2  1  0.16426274  0.83573726  0.25000000  1
  Mg  Mg1_3  1  0.16426274  0.83573726  0.75000000  1
  Mg  Mg1_4  1  0.66426274  0.33573726  0.25000000  1
  Mg  Mg1_5  1  0.66426274  0.33573726  0.75000000  1
  Mg  Mg1_6  1  0.66426274  0.83573726  0.25000000  1
  Mg  Mg1_7  1  0.66426274  0.83573726  0.75000000  1
  Mg  Mg2_0  1  0.33439001  0.16560998  0.25000000  1
  Mg  Mg2_1  1  0.33439001  0.16560998  0.75000000  1
  Mg  Mg2_2  1  0.33439001  0.66560999  0.25000000  1
  Mg  Mg2_3  1  0.33439001  0.66560999  0.75000000  1
  Mg  Mg2_4  1  0.83439001  0.16560998  0.25000000  1
  Mg  Mg2_5  1  0.83439001  0.16560998  0.75000000  1
  Mg  Mg2_6  1  0.83439001  0.66560999  0.25000000  1
  Mg  Mg2_7  1  0.83439001  0.66560999  0.75000000  1
  Mg  Mg3_0  1  0.21895094  0.28104906  0.00000000  1
  Mg  Mg3_1  1  0.21895094  0.28104906  0.50000000  1
  Mg  Mg3_2  1  0.21895094  0.78104906  0.00000000  1
  Mg  Mg3_3  1  0.21895094  0.78104906  0.50000000  1
  Mg  Mg3_4  1  0.71895094  0.28104906  0.00000000  1
  Mg  Mg3_5  1  0.71895094  0.28104906  0.50000000  1
  Mg  Mg3_6  1  0.71895094  0.78104906  0.00000000  1
  Mg  Mg3_7  1  0.71895094  0.78104906  0.50000000  1
  Mg  Mg4_0  1  0.05989416  0.44010584  0.00000000  1
  Mg  Mg4_1  1  0.05989416  0.44010584  0.50000000  1
  Mg  Mg4_2  1  0.05989416  0.94010584  0.00000000  1
  Mg  Mg4_3  1  0.05989416  0.94010584  0.50000000  1
  Mg  Mg4_4  1  0.55989416  0.44010584  0.00000000  1
  Mg  Mg4_5  1  0.55989416  0.44010584  0.50000000  1
  Mg  Mg4_6  1  0.55989416  0.94010584  0.00000000  1
  Mg  Mg4_7  1  0.55989416  0.94010584  0.50000000  1
  Zn  Zn0_0  1  0.38844351  0.11155649  0.00000000  1
  Zn  Zn0_1  1  0.38844351  0.11155649  0.50000000  1
  Zn  Zn0_2  1  0.38844351  0.61155649  0.00000000  1
  Zn  Zn0_3  1  0.38844351  0.61155649  0.50000000  1
  Zn  Zn0_4  1  0.88844351  0.11155649  0.00000000  1
  Zn  Zn0_5  1  0.88844351  0.11155649  0.50000000  1
  Zn  Zn0_6  1  0.88844351  0.61155649  0.00000000  1
  Zn  Zn0_7  1  0.88844351  0.61155649  0.50000000  1
loop_
_geom_bond_atom_site_label_1
_geom_bond_atom_site_label_2
_geom_bond_distance
_geom_bond_site_symmetry_2
Mg0_0 Mg2_2 3.086609 1_555
Mg0_0 Mg2_4 3.086609 1_455
Mg0_0 Mg3_4 3.105858 1_455
Mg0_0 Mg3_2 3.105858 1_555
Mg0_0 Mg3_5 3.105858 1_455
Mg0_0 Mg3_3 3.105858 1_555
Mg0_0 Mg4_0 3.110602 1_555
Mg0_0 Mg4_1 3.110602 1_555
Mg0_0 Mg0_6 3.149040 1_555
Mg0_0 Mg0_6 3.149040 1_445
Mg0_0 Mg1_4 3.163256 1_455
Mg0_0 Mg1_2 3.163256 1_555
Mg0_1 Mg2_3 3.086609 1_555
Mg0_1 Mg2_5 3.086609 1_455
Mg0_1 Mg3_3 3.105858 1_555
Mg0_1 Mg3_5 3.105858 1_455
Mg0_1 Mg3_4 3.105858 1_456
Mg0_1 Mg3_2 3.105858 1_556
Mg0_1 Mg4_1 3.110602 1_555
Mg0_1 Mg4_0 3.110602 1_556
Mg0_1 Mg0_7 3.149040 1_555
Mg0_1 Mg0_7 3.149040 1_445
Mg0_1 Mg1_5 3.163256 1_455
Mg0_1 Mg1_3 3.163256 1_555
Mg0_2 Mg2_6 3.086609 1_455
Mg0_2 Mg2_0 3.086609 1_565
Mg0_2 Mg3_0 3.105858 1_565
Mg0_2 Mg3_1 3.105858 1_565
Mg0_2 Mg3_7 3.105858 1_455
Mg0_2 Mg3_6 3.105858 1_455
Mg0_2 Mg4_3 3.110602 1_555
Mg0_2 Mg4_2 3.110602 1_555
Mg0_2 Mg0_4 3.149040 1_455
Mg0_2 Mg0_4 3.149040 1_565
Mg0_2 Mg1_0 3.163256 1_565
Mg0_2 Mg1_6 3.163256 1_455
Mg0_3 Mg2_7 3.086609 1_455
Mg0_3 Mg2_1 3.086609 1_565
Mg0_3 Mg3_1 3.105858 1_565
Mg0_3 Mg3_7 3.105858 1_455
Mg0_3 Mg3_6 3.105858 1_456
Mg0_3 Mg3_0 3.105858 1_566
Mg0_3 Mg4_3 3.110602 1_555
Mg0_3 Mg4_2 3.110602 1_556
Mg0_3 Mg0_5 3.149040 1_455
Mg0_3 Mg0_5 3.149040 1_565
Mg0_3 Mg1_1 3.163256 1_565
Mg0_3 Mg1_7 3.163256 1_455
Mg0_4 Mg2_6 3.086609 1_555
Mg0_4 Mg2_0 3.086609 1_555
Mg0_4 Mg3_1 3.105858 1_555
Mg0_4 Mg3_0 3.105858 1_555
Mg0_4 Mg3_7 3.105858 1_555
Mg0_4 Mg3_6 3.105858 1_555
Mg0_4 Mg4_5 3.110602 1_555
Mg0_4 Mg4_4 3.110602 1_555
Mg0_4 Mg1_0 3.163256 1_555
Mg0_4 Mg1_6 3.163256 1_555
Mg0_5 Mg2_7 3.086609 1_555
Mg0_5 Mg2_1 3.086609 1_555
Mg0_5 Mg3_1 3.105858 1_555
Mg0_5 Mg3_7 3.105858 1_555
Mg0_5 Mg3_0 3.105858 1_556
Mg0_5 Mg3_6 3.105858 1_556
Mg0_5 Mg4_5 3.110602 1_555
Mg0_5 Mg4_4 3.110602 1_556
Mg0_5 Mg1_1 3.163256 1_555
Mg0_5 Mg1_7 3.163256 1_555
Mg0_6 Mg2_2 3.086609 1_555
Mg0_6 Mg2_4 3.086609 1_565
Mg0_6 Mg3_4 3.105858 1_565
Mg0_6 Mg3_3 3.105858 1_555
Mg0_6 Mg3_2 3.105858 1_555
Mg0_6 Mg3_5 3.105858 1_565
Mg0_6 Mg4_7 3.110602 1_555
Mg0_6 Mg4_6 3.110602 1_555
Mg0_6 Mg1_4 3.163256 1_565
Mg0_6 Mg1_2 3.163256 1_555
Mg0_7 Mg2_3 3.086609 1_555
Mg0_7 Mg2_5 3.086609 1_565
Mg0_7 Mg3_3 3.105858 1_555
Mg0_7 Mg3_5 3.105858 1_565
Mg0_7 Mg3_2 3.105858 1_556
Mg0_7 Mg3_4 3.105858 1_566
Mg0_7 Mg4_7 3.110602 1_555
Mg0_7 Mg4_6 3.110602 1_556
Mg0_7 Mg1_5 3.163256 1_565
Mg0_7 Mg1_3 3.163256 1_555
Mg1_0 Mg2_4 2.983730 1_455
Mg1_0 Mg2_2 2.983730 1_555
Mg1_0 Mg3_0 3.026896 1_555
Mg1_0 Mg3_1 3.026896 1_555
Mg1_0 Zn0_2 3.049764 1_555
Mg1_0 Zn0_4 3.049764 1_455
Mg1_0 Zn0_5 3.049764 1_455
Mg1_0 Zn0_3 3.049764 1_555
Mg1_0 Mg1_6 3.149040 1_555
Mg1_0 Mg1_6 3.149040 1_445
Mg1_1 Mg2_5 2.983730 1_455
Mg1_1 Mg2_3 2.983730 1_555
Mg1_1 Mg3_1 3.026896 1_555
Mg1_1 Mg3_0 3.026896 1_556
Mg1_1 Zn0_5 3.049764 1_455
Mg1_1 Zn0_3 3.049764 1_555
Mg1_1 Zn0_4 3.049764 1_456
Mg1_1 Zn0_2 3.049764 1_556
Mg1_1 Mg1_7 3.149040 1_555
Mg1_1 Mg1_7 3.149040 1_445
Mg1_2 Mg2_0 2.983730 1_565
Mg1_2 Mg2_6 2.983730 1_455
Mg1_2 Mg3_2 3.026896 1_555
Mg1_2 Mg3_3 3.026896 1_555
Mg1_2 Zn0_0 3.049764 1_565
Mg1_2 Zn0_1 3.049764 1_565
Mg1_2 Zn0_6 3.049764 1_455
Mg1_2 Zn0_7 3.049764 1_455
Mg1_2 Mg1_4 3.149040 1_565
Mg1_2 Mg1_4 3.149040 1_455
Mg1_3 Mg2_1 2.983730 1_565
Mg1_3 Mg2_7 2.983730 1_455
Mg1_3 Mg3_3 3.026896 1_555
Mg1_3 Mg3_2 3.026896 1_556
Mg1_3 Zn0_1 3.049764 1_565
Mg1_3 Zn0_0 3.049764 1_566
Mg1_3 Zn0_7 3.049764 1_455
Mg1_3 Zn0_6 3.049764 1_456
Mg1_3 Mg1_5 3.149040 1_565
Mg1_3 Mg1_5 3.149040 1_455
Mg1_4 Mg2_0 2.983730 1_555
Mg1_4 Mg2_6 2.983730 1_555
Mg1_4 Mg3_5 3.026896 1_555
Mg1_4 Mg3_4 3.026896 1_555
Mg1_4 Zn0_0 3.049764 1_555
Mg1_4 Zn0_1 3.049764 1_555
Mg1_4 Zn0_6 3.049764 1_555
Mg1_4 Zn0_7 3.049764 1_555
Mg1_5 Mg2_1 2.983730 1_555
Mg1_5 Mg2_7 2.983730 1_555
Mg1_5 Mg3_5 3.026896 1_555
Mg1_5 Mg3_4 3.026896 1_556
Mg1_5 Zn0_1 3.049764 1_555
Mg1_5 Zn0_7 3.049764 1_555
Mg1_5 Zn0_6 3.049764 1_556
Mg1_5 Zn0_0 3.049764 1_556
Mg1_6 Mg2_4 2.983730 1_565
Mg1_6 Mg2_2 2.983730 1_555
Mg1_6 Mg3_7 3.026896 1_555
Mg1_6 Mg3_6 3.026896 1_555
Mg1_6 Zn0_5 3.049764 1_565
Mg1_6 Zn0_4 3.049764 1_565
Mg1_6 Zn0_3 3.049764 1_555
Mg1_6 Zn0_2 3.049764 1_555
Mg1_7 Mg2_5 2.983730 1_565
Mg1_7 Mg2_3 2.983730 1_555
Mg1_7 Mg3_7 3.026896 1_555
Mg1_7 Mg3_6 3.026896 1_556
Mg1_7 Zn0_5 3.049764 1_565
Mg1_7 Zn0_3 3.049764 1_555
Mg1_7 Zn0_4 3.049764 1_566
Mg1_7 Zn0_2 3.049764 1_556
Mg2_0 Zn0_1 3.015395 1_555
Mg2_0 Zn0_0 3.015395 1_555
Mg2_0 Mg4_4 3.038752 1_555
Mg2_0 Mg4_3 3.038752 1_545
Mg2_0 Mg4_5 3.038752 1_555
Mg2_0 Mg4_2 3.038752 1_545
Mg2_0 Mg2_6 3.149040 1_555
Mg2_0 Mg2_6 3.149040 1_445
Mg2_1 Zn0_1 3.015395 1_555
Mg2_1 Zn0_0 3.015395 1_556
Mg2_1 Mg4_5 3.038752 1_555
Mg2_1 Mg4_3 3.038752 1_545
Mg2_1 Mg4_4 3.038752 1_556
Mg2_1 Mg4_2 3.038752 1_546
Mg2_1 Mg2_7 3.149040 1_555
Mg2_1 Mg2_7 3.149040 1_445
Mg2_2 Zn0_2 3.015395 1_555
Mg2_2 Zn0_3 3.015395 1_555
Mg2_2 Mg4_0 3.038752 1_555
Mg2_2 Mg4_1 3.038752 1_555
Mg2_2 Mg4_7 3.038752 1_555
Mg2_2 Mg4_6 3.038752 1_555
Mg2_2 Mg2_4 3.149040 1_565
Mg2_2 Mg2_4 3.149040 1_455
Mg2_3 Zn0_3 3.015395 1_555
Mg2_3 Zn0_2 3.015395 1_556
Mg2_3 Mg4_1 3.038752 1_555
Mg2_3 Mg4_7 3.038752 1_555
Mg2_3 Mg4_6 3.038752 1_556
Mg2_3 Mg4_0 3.038752 1_556
Mg2_3 Mg2_5 3.149040 1_565
Mg2_3 Mg2_5 3.149040 1_455
Mg2_4 Zn0_5 3.015395 1_555
Mg2_4 Zn0_4 3.015395 1_555
Mg2_4 Mg4_1 3.038752 1_655
Mg2_4 Mg4_6 3.038752 1_545
Mg2_4 Mg4_7 3.038752 1_545
Mg2_4 Mg4_0 3.038752 1_655
Mg2_5 Zn0_5 3.015395 1_555
Mg2_5 Zn0_4 3.015395 1_556
Mg2_5 Mg4_1 3.038752 1_655
Mg2_5 Mg4_7 3.038752 1_545
Mg2_5 Mg4_0 3.038752 1_656
Mg2_5 Mg4_6 3.038752 1_546
Mg2_6 Zn0_6 3.015395 1_555
Mg2_6 Zn0_7 3.015395 1_555
Mg2_6 Mg4_4 3.038752 1_555
Mg2_6 Mg4_5 3.038752 1_555
Mg2_6 Mg4_2 3.038752 1_655
Mg2_6 Mg4_3 3.038752 1_655
Mg2_7 Zn0_7 3.015395 1_555
Mg2_7 Zn0_6 3.015395 1_556
Mg2_7 Mg4_3 3.038752 1_655
Mg2_7 Mg4_5 3.038752 1_555
Mg2_7 Mg4_4 3.038752 1_556
Mg2_7 Mg4_2 3.038752 1_656
Mg3_0 Zn0_4 3.000856 1_455
Mg3_0 Zn0_2 3.000856 1_555
Mg3_0 Mg3_6 3.149040 1_555
Mg3_0 Mg3_6 3.149040 1_445
Mg3_0 Mg4_2 3.287350 1_545
Mg3_0 Mg4_4 3.287350 1_555
Mg3_1 Zn0_5 3.000856 1_455
Mg3_1 Zn0_3 3.000856 1_555
Mg3_1 Mg3_7 3.149040 1_555
Mg3_1 Mg3_7 3.149040 1_445
Mg3_1 Mg4_5 3.287350 1_555
Mg3_1 Mg4_3 3.287350 1_545
Mg3_2 Zn0_0 3.000856 1_565
Mg3_2 Zn0_6 3.000856 1_455
Mg3_2 Mg3_4 3.149040 1_565
Mg3_2 Mg3_4 3.149040 1_455
Mg3_2 Mg4_6 3.287350 1_555
Mg3_2 Mg4_0 3.287350 1_555
Mg3_3 Zn0_1 3.000856 1_565
Mg3_3 Zn0_7 3.000856 1_455
Mg3_3 Mg3_5 3.149040 1_455
Mg3_3 Mg3_5 3.149040 1_565
Mg3_3 Mg4_7 3.287350 1_555
Mg3_3 Mg4_1 3.287350 1_555
Mg3_4 Zn0_0 3.000856 1_555
Mg3_4 Zn0_6 3.000856 1_555
Mg3_4 Mg4_6 3.287350 1_545
Mg3_4 Mg4_0 3.287350 1_655
Mg3_5 Zn0_1 3.000856 1_555
Mg3_5 Zn0_7 3.000856 1_555
Mg3_5 Mg4_7 3.287350 1_545
Mg3_5 Mg4_1 3.287350 1_655
Mg3_6 Zn0_4 3.000856 1_565
Mg3_6 Zn0_2 3.000856 1_555
Mg3_6 Mg4_4 3.287350 1_555
Mg3_6 Mg4_2 3.287350 1_655
Mg3_7 Zn0_5 3.000856 1_565
Mg3_7 Zn0_3 3.000856 1_555
Mg3_7 Mg4_5 3.287350 1_555
Mg3_7 Mg4_3 3.287350 1_655
Mg4_0 Zn0_2 2.948143 1_555
Mg4_0 Zn0_4 2.948143 1_455
Mg4_1 Zn0_3 2.948143 1_555
Mg4_1 Zn0_5 2.948143 1_455
Mg4_2 Zn0_6 2.948143 1_455
Mg4_2 Zn0_0 2.948143 1_565
Mg4_3 Zn0_7 2.948143 1_455
Mg4_3 Zn0_1 2.948143 1_565
Mg4_4 Zn0_6 2.948143 1_555
Mg4_4 Zn0_0 2.948143 1_555
Mg4_5 Zn0_7 2.948143 1_555
Mg4_5 Zn0_1 2.948143 1_555
Mg4_6 Zn0_2 2.948143 1_555
Mg4_6 Zn0_4 2.948143 1_565
Mg4_7 Zn0_3 2.948143 1_555
Mg4_7 Zn0_5 2.948143 1_565
