# generated using pymatgen
data_NbBi4BrO8
_symmetry_space_group_name_H-M   'P 1'
_cell_length_a   5.58090400
_cell_length_b   5.65393800
_cell_length_c   29.81277200
_cell_angle_alpha   90.00000000
_cell_angle_beta   90.00000000
_cell_angle_gamma   90.00000000
_symmetry_Int_Tables_number   1
_chemical_formula_structural   NbBi4BrO8
_chemical_formula_sum   'Nb4 Bi16 Br4 O32'
_cell_volume   940.71474773
_cell_formula_units_Z   4
loop_
 _symmetry_equiv_pos_site_id
 _symmetry_equiv_pos_as_xyz
  1  'x, y, z'
loop_
 _atom_site_type_symbol
 _atom_site_label
 _atom_site_symmetry_multiplicity
 _atom_site_fract_x
 _atom_site_fract_y
 _atom_site_fract_z
 _atom_site_occupancy
  Nb  Nb0  1  0.99831700  0.25723500  0.24969500  1
  Nb  Nb1  1  0.49831700  0.74276500  0.75030500  1
  Nb  Nb2  1  0.49831700  0.75723500  0.25030500  1
  Nb  Nb3  1  0.99831700  0.24276500  0.74969500  1
  Bi  Bi0  1  0.98552300  0.69395500  0.34012200  1
  Bi  Bi1  1  0.48552300  0.30604500  0.65987800  1
  Bi  Bi2  1  0.48552300  0.19395500  0.15987800  1
  Bi  Bi3  1  0.98552300  0.80604500  0.84012200  1
  Bi  Bi4  1  0.99778800  0.24156500  0.07255800  1
  Bi  Bi5  1  0.49778800  0.75843500  0.92744200  1
  Bi  Bi6  1  0.49778800  0.74156500  0.42744200  1
  Bi  Bi7  1  0.99778800  0.25843500  0.57255800  1
  Bi  Bi8  1  0.02743600  0.69719300  0.15842200  1
  Bi  Bi9  1  0.52743600  0.30280700  0.84157800  1
  Bi  Bi10  1  0.52743600  0.19719300  0.34157800  1
  Bi  Bi11  1  0.02743600  0.80280700  0.65842200  1
  Bi  Bi12  1  0.01627500  0.24248200  0.42743600  1
  Bi  Bi13  1  0.51627500  0.75751800  0.57256400  1
  Bi  Bi14  1  0.51627500  0.74248200  0.07256400  1
  Bi  Bi15  1  0.01627500  0.25751800  0.92743600  1
  Br  Br0  1  0.50526800  0.24995000  0.50153200  1
  Br  Br1  1  0.00526800  0.75005000  0.49846800  1
  Br  Br2  1  0.00526800  0.74995000  0.99846800  1
  Br  Br3  1  0.50526800  0.25005000  0.00153200  1
  O  O0  1  0.75182100  0.99460700  0.11016700  1
  O  O1  1  0.25182100  0.00539300  0.88983300  1
  O  O2  1  0.25182100  0.49460700  0.38983300  1
  O  O3  1  0.75182100  0.50539300  0.61016700  1
  O  O4  1  0.25461700  0.00235300  0.10838900  1
  O  O5  1  0.75461700  0.99764700  0.89161100  1
  O  O6  1  0.75461700  0.50235300  0.39161100  1
  O  O7  1  0.25461700  0.49764700  0.60838900  1
  O  O8  1  0.76205600  0.49537000  0.10929400  1
  O  O9  1  0.26205600  0.50463000  0.89070600  1
  O  O10  1  0.26205600  0.99537000  0.39070600  1
  O  O11  1  0.76205600  0.00463000  0.60929400  1
  O  O12  1  0.25559300  0.50496700  0.10790500  1
  O  O13  1  0.75559300  0.49503300  0.89209500  1
  O  O14  1  0.75559300  0.00496700  0.39209500  1
  O  O15  1  0.25559300  0.99503300  0.60790500  1
  O  O16  1  0.39388600  0.83196600  0.18735900  1
  O  O17  1  0.89388600  0.16803400  0.81264100  1
  O  O18  1  0.89388600  0.33196600  0.31264100  1
  O  O19  1  0.39388600  0.66803400  0.68735900  1
  O  O20  1  0.61338900  0.83139100  0.31210600  1
  O  O21  1  0.11338900  0.16860900  0.68789400  1
  O  O22  1  0.11338900  0.33139100  0.18789400  1
  O  O23  1  0.61338900  0.66860900  0.81210600  1
  O  O24  1  0.24534900  0.55314100  0.26779900  1
  O  O25  1  0.74534900  0.44685900  0.73220100  1
  O  O26  1  0.74534900  0.05314100  0.23220100  1
  O  O27  1  0.24534900  0.94685900  0.76779900  1
  O  O28  1  0.74168200  0.54631000  0.23288000  1
  O  O29  1  0.24168200  0.45369000  0.76712000  1
  O  O30  1  0.24168200  0.04631000  0.26712000  1
  O  O31  1  0.74168200  0.95369000  0.73288000  1
loop_
_geom_bond_atom_site_label_1
_geom_bond_atom_site_label_2
_geom_bond_distance
_geom_bond_site_symmetry_2
Nb0 O30 1.880627 1_655
Nb0 O26 1.896504 1_555
Nb0 O22 1.995714 1_655
Nb0 O18 2.009929 1_555
Nb0 O28 2.230238 1_555
Nb0 O24 2.234068 1_655
Nb1 O31 1.880627 1_555
Nb1 O27 1.896504 1_555
Nb1 O23 1.995714 1_555
Nb1 O19 2.009929 1_555
Nb1 O29 2.230238 1_555
Nb1 O25 2.234068 1_555
Nb2 O28 1.880627 1_555
Nb2 O24 1.896504 1_555
Nb2 O20 1.995714 1_555
Nb2 O16 2.009929 1_555
Nb2 O30 2.230238 1_565
Nb2 O26 2.234068 1_565
Nb3 O29 1.880627 1_655
Nb3 O25 1.896504 1_555
Nb3 O21 1.995714 1_655
Nb3 O17 2.009929 1_555
Nb3 O31 2.230238 1_545
Nb3 O27 2.234068 1_645
Bi0 O18 2.263097 1_555
Bi0 O6 2.278272 1_555
Bi0 O20 2.369538 1_555
Bi0 O2 2.382329 1_655
Bi0 O14 2.672001 1_565
Bi0 O24 2.717632 1_655
Bi0 O10 2.749588 1_655
Bi1 O19 2.263097 1_555
Bi1 O7 2.278272 1_555
Bi1 O21 2.369538 1_555
Bi1 O3 2.382329 1_555
Bi1 O15 2.672001 1_545
Bi1 O25 2.717632 1_555
Bi1 O11 2.749588 1_555
Bi2 O16 2.263097 1_545
Bi2 O4 2.278272 1_555
Bi2 O22 2.369538 1_555
Bi2 O0 2.382329 1_545
Bi2 O12 2.672001 1_555
Bi2 O26 2.717632 1_555
Bi2 O8 2.749588 1_555
Bi3 O17 2.263097 1_565
Bi3 O5 2.278272 1_555
Bi3 O23 2.369538 1_555
Bi3 O1 2.382329 1_665
Bi3 O13 2.672001 1_555
Bi3 O27 2.717632 1_655
Bi3 O9 2.749588 1_655
Bi4 O8 2.233715 1_555
Bi4 O4 2.241603 1_655
Bi4 O0 2.256351 1_545
Bi4 O12 2.323461 1_655
Bi5 O9 2.233715 1_555
Bi5 O5 2.241603 1_555
Bi5 O1 2.256351 1_565
Bi5 O13 2.323461 1_555
Bi6 O10 2.233715 1_555
Bi6 O6 2.241603 1_555
Bi6 O2 2.256351 1_555
Bi6 O14 2.323461 1_565
Bi7 O11 2.233715 1_555
Bi7 O7 2.241603 1_655
Bi7 O3 2.256351 1_555
Bi7 O15 2.323461 1_645
Bi8 O12 2.251833 1_555
Bi8 O22 2.297751 1_555
Bi8 O16 2.346786 1_555
Bi8 O8 2.375039 1_455
Bi8 O4 2.609463 1_565
Bi8 O0 2.695043 1_455
Bi8 O28 2.863309 1_455
Bi9 O13 2.251833 1_555
Bi9 O23 2.297751 1_555
Bi9 O17 2.346786 1_555
Bi9 O9 2.375039 1_555
Bi9 O5 2.609463 1_545
Bi9 O1 2.695043 1_555
Bi9 O29 2.863309 1_555
Bi10 O14 2.251833 1_555
Bi10 O20 2.297751 1_545
Bi10 O18 2.346786 1_555
Bi10 O10 2.375039 1_545
Bi10 O6 2.609463 1_555
Bi10 O2 2.695043 1_555
Bi10 O30 2.863309 1_555
Bi11 O15 2.251833 1_555
Bi11 O21 2.297751 1_565
Bi11 O19 2.346786 1_555
Bi11 O11 2.375039 1_465
Bi11 O7 2.609463 1_555
Bi11 O3 2.695043 1_455
Bi11 O31 2.863309 1_455
Bi12 O2 2.239836 1_555
Bi12 O14 2.242773 1_455
Bi12 O10 2.243352 1_545
Bi12 O6 2.330661 1_455
Bi13 O3 2.239836 1_555
Bi13 O15 2.242773 1_555
Bi13 O11 2.243352 1_565
Bi13 O7 2.330661 1_555
Bi14 O0 2.239836 1_555
Bi14 O12 2.242773 1_555
Bi14 O8 2.243352 1_555
Bi14 O4 2.330661 1_565
Bi15 O1 2.239836 1_555
Bi15 O13 2.242773 1_455
Bi15 O9 2.243352 1_555
Bi15 O5 2.330661 1_445
