# generated using pymatgen
data_Mg6AlBi
_symmetry_space_group_name_H-M   'P 1'
_cell_length_a   5.32373100
_cell_length_b   6.29155400
_cell_length_c   11.08806400
_cell_angle_alpha   90.00000000
_cell_angle_beta   90.00000000
_cell_angle_gamma   90.00000000
_symmetry_Int_Tables_number   1
_chemical_formula_structural   Mg6AlBi
_chemical_formula_sum   'Mg12 Al2 Bi2'
_cell_volume   371.38961501
_cell_formula_units_Z   2
loop_
 _symmetry_equiv_pos_site_id
 _symmetry_equiv_pos_as_xyz
  1  'x, y, z'
loop_
 _atom_site_type_symbol
 _atom_site_label
 _atom_site_symmetry_multiplicity
 _atom_site_fract_x
 _atom_site_fract_y
 _atom_site_fract_z
 _atom_site_occupancy
  Mg  Mg0  1  0.00000000  0.74472200  0.58178200  1
  Mg  Mg1  1  0.00000000  0.25527800  0.58178200  1
  Mg  Mg2  1  0.00000000  0.50000000  0.83234400  1
  Mg  Mg3  1  0.50000000  0.24643300  0.91377500  1
  Mg  Mg4  1  0.50000000  0.75356700  0.91377500  1
  Mg  Mg5  1  0.50000000  0.50000000  0.66795500  1
  Mg  Mg6  1  0.00000000  0.24472200  0.08178200  1
  Mg  Mg7  1  0.00000000  0.75527800  0.08178200  1
  Mg  Mg8  1  0.00000000  0.00000000  0.33234400  1
  Mg  Mg9  1  0.50000000  0.74643300  0.41377500  1
  Mg  Mg10  1  0.50000000  0.25356700  0.41377500  1
  Mg  Mg11  1  0.50000000  0.00000000  0.16795500  1
  Al  Al0  1  0.00000000  0.00000000  0.84308800  1
  Al  Al1  1  0.00000000  0.50000000  0.34308800  1
  Bi  Bi0  1  0.50000000  0.00000000  0.66549900  1
  Bi  Bi1  1  0.50000000  0.50000000  0.16549900  1
loop_
_geom_bond_atom_site_label_1
_geom_bond_atom_site_label_2
_geom_bond_distance
_geom_bond_site_symmetry_2
Mg0 Mg1 3.079363 1_555
Mg0 Mg2 3.176363 1_555
Mg0 Mg8 3.198297 1_565
Mg0 Mg1 3.212191 1_565
Mg0 Mg5 3.220111 1_555
Mg0 Mg5 3.220111 1_455
Mg0 Mg9 3.248990 1_555
Mg0 Mg9 3.248990 1_455
Mg1 Mg2 3.176363 1_555
Mg1 Mg8 3.198297 1_555
Mg1 Mg5 3.220111 1_555
Mg1 Mg5 3.220111 1_455
Mg1 Mg10 3.248990 1_455
Mg1 Mg10 3.248990 1_555
Mg2 Mg6 3.198297 1_556
Mg2 Mg7 3.198297 1_556
Mg2 Mg5 3.226138 1_455
Mg2 Mg5 3.226138 1_555
Mg2 Mg3 3.232005 1_555
Mg2 Mg3 3.232005 1_455
Mg2 Mg4 3.232005 1_455
Mg2 Mg4 3.232005 1_555
Mg3 Mg4 3.100893 1_545
Mg3 Mg5 3.158219 1_555
Mg3 Mg4 3.190661 1_555
Mg3 Mg6 3.248990 1_656
Mg3 Mg6 3.248990 1_556
Mg4 Mg5 3.158219 1_555
Mg4 Mg7 3.248990 1_556
Mg4 Mg7 3.248990 1_656
Mg5 Mg9 3.216685 1_555
Mg6 Mg7 3.079363 1_545
Mg6 Mg8 3.176363 1_555
Mg6 Mg7 3.212191 1_555
Mg7 Mg8 3.176363 1_565
Mg8 Mg9 3.232005 1_545
Mg8 Mg9 3.232005 1_445
Mg10 Mg9 3.100893 1_555
Mg10 Mg11 3.158219 1_555
Mg10 Mg9 3.190661 1_545
Mg10 Mg5 3.216685 1_555
Mg10 Mg8 3.232005 1_555
Mg10 Mg8 3.232005 1_655
Mg11 Mg9 3.158219 1_545
Mg11 Mg3 3.216685 1_554
Mg11 Mg4 3.216685 1_544
Mg11 Mg6 3.220111 1_555
Mg11 Mg7 3.220111 1_545
Mg11 Mg7 3.220111 1_645
Mg11 Mg6 3.220111 1_655
Mg11 Mg8 3.226138 1_555
Mg11 Mg8 3.226138 1_655
Al0 Mg6 3.061927 1_556
Al0 Mg7 3.061927 1_546
Al0 Mg2 3.148032 1_555
Al0 Mg2 3.148032 1_545
Al0 Mg4 3.178636 1_445
Al0 Mg4 3.178636 1_545
Al0 Mg3 3.178636 1_455
Al0 Mg3 3.178636 1_555
Al0 Bi0 3.311035 1_455
Al0 Bi0 3.311035 1_555
Al0 Mg0 3.312754 1_545
Al0 Mg1 3.312754 1_555
Al1 Mg1 3.061927 1_555
Al1 Mg0 3.061927 1_555
Al1 Mg8 3.148032 1_565
Al1 Mg8 3.148032 1_555
Al1 Mg10 3.178636 1_555
Al1 Mg9 3.178636 1_455
Al1 Mg10 3.178636 1_455
Al1 Mg9 3.178636 1_555
Al1 Bi1 3.311035 1_455
Al1 Bi1 3.311035 1_555
Al1 Mg6 3.312754 1_555
Al1 Mg7 3.312754 1_555
Bi0 Mg5 3.145895 1_545
Bi0 Mg5 3.145895 1_555
Bi0 Mg3 3.159485 1_555
Bi0 Mg4 3.159485 1_545
Bi0 Mg9 3.214887 1_545
Bi0 Mg10 3.214887 1_555
Bi0 Mg1 3.244493 1_655
Bi0 Mg0 3.244493 1_645
Bi0 Mg0 3.244493 1_545
Bi0 Mg1 3.244493 1_555
Bi1 Mg11 3.145895 1_555
Bi1 Mg11 3.145895 1_565
Bi1 Mg9 3.159485 1_555
Bi1 Mg10 3.159485 1_555
Bi1 Mg4 3.214887 1_554
Bi1 Mg3 3.214887 1_554
Bi1 Mg7 3.244493 1_655
Bi1 Mg6 3.244493 1_555
Bi1 Mg7 3.244493 1_555
Bi1 Mg6 3.244493 1_655
