# generated using pymatgen
data_YIn5Co
_symmetry_space_group_name_H-M   'P 1'
_cell_length_a   4.51783300
_cell_length_b   4.51783300
_cell_length_c   7.40515900
_cell_angle_alpha   90.00000000
_cell_angle_beta   90.00000000
_cell_angle_gamma   90.00000000
_symmetry_Int_Tables_number   1
_chemical_formula_structural   YIn5Co
_chemical_formula_sum   'Y1 In5 Co1'
_cell_volume   151.14533051
_cell_formula_units_Z   1
loop_
 _symmetry_equiv_pos_site_id
 _symmetry_equiv_pos_as_xyz
  1  'x, y, z'
loop_
 _atom_site_type_symbol
 _atom_site_label
 _atom_site_symmetry_multiplicity
 _atom_site_fract_x
 _atom_site_fract_y
 _atom_site_fract_z
 _atom_site_occupancy
  Y  Y0  1  0.00000000  0.00000000  0.00000000  1
  In  In0  1  0.50000000  0.50000000  0.00000000  1
  In  In1  1  0.50000000  0.00000000  0.69330700  1
  In  In2  1  0.00000000  0.50000000  0.69330700  1
  In  In3  1  0.50000000  0.00000000  0.30669300  1
  In  In4  1  0.00000000  0.50000000  0.30669300  1
  Co  Co0  1  0.00000000  0.00000000  0.50000000  1
loop_
_geom_bond_atom_site_label_1
_geom_bond_atom_site_label_2
_geom_bond_distance
_geom_bond_site_symmetry_2
In0 Y0 3.194590 1_555
In0 Y0 3.194590 1_565
In0 Y0 3.194590 1_665
In0 Y0 3.194590 1_655
In0 In2 3.203224 1_654
In0 In3 3.203224 1_555
In0 In2 3.203224 1_554
In0 In3 3.203224 1_565
In0 In4 3.203224 1_655
In0 In4 3.203224 1_555
In0 In1 3.203224 1_554
In0 In1 3.203224 1_564
In1 In3 2.862938 1_555
In1 In2 3.194590 1_555
In1 In2 3.194590 1_645
In1 In2 3.194590 1_545
In1 In2 3.194590 1_655
In1 Y0 3.203224 1_556
In1 Y0 3.203224 1_656
In2 In4 2.862938 1_555
In2 Y0 3.203224 1_566
In2 Y0 3.203224 1_556
In3 In4 3.194590 1_555
In3 In4 3.194590 1_545
In3 In4 3.194590 1_655
In3 In4 3.194590 1_645
In3 Y0 3.203224 1_655
In3 Y0 3.203224 1_555
In4 Y0 3.203224 1_555
In4 Y0 3.203224 1_565
Co0 In2 2.674286 1_545
Co0 In3 2.674286 1_455
Co0 In3 2.674286 1_555
Co0 In1 2.674286 1_455
Co0 In1 2.674286 1_555
Co0 In4 2.674286 1_545
Co0 In4 2.674286 1_555
Co0 In2 2.674286 1_555
