# generated using pymatgen
data_MgSi2
_symmetry_space_group_name_H-M   'P 1'
_cell_length_a   5.92082800
_cell_length_b   6.74663930
_cell_length_c   11.51407346
_cell_angle_alpha   77.11168616
_cell_angle_beta   85.27795086
_cell_angle_gamma   86.04175435
_symmetry_Int_Tables_number   1
_chemical_formula_structural   MgSi2
_chemical_formula_sum   'Mg8 Si16'
_cell_volume   446.22036942
_cell_formula_units_Z   8
loop_
 _symmetry_equiv_pos_site_id
 _symmetry_equiv_pos_as_xyz
  1  'x, y, z'
loop_
 _atom_site_type_symbol
 _atom_site_label
 _atom_site_symmetry_multiplicity
 _atom_site_fract_x
 _atom_site_fract_y
 _atom_site_fract_z
 _atom_site_occupancy
  Mg  Mg0  1  0.25802100  0.17470800  0.13019600  1
  Mg  Mg1  1  0.74646000  0.18173200  0.76842800  1
  Mg  Mg2  1  0.65100100  0.66235800  0.35576500  1
  Mg  Mg3  1  0.66963900  0.72412800  0.81713500  1
  Mg  Mg4  1  0.85334800  0.11392200  0.35616900  1
  Mg  Mg5  1  0.16334000  0.93490600  0.68117100  1
  Mg  Mg6  1  0.14255600  0.76238600  0.26052200  1
  Mg  Mg7  1  0.30467700  0.31182100  0.37210500  1
  Si  Si0  1  0.03188400  0.52822100  0.98183100  1
  Si  Si1  1  0.60677300  0.31295100  0.54020800  1
  Si  Si2  1  0.95659900  0.72594200  0.51145100  1
  Si  Si3  1  0.36661000  0.36104700  0.88624300  1
  Si  Si4  1  0.95948400  0.46246100  0.20098200  1
  Si  Si5  1  0.34507200  0.99487800  0.89799000  1
  Si  Si6  1  0.80286800  0.99496700  0.12095300  1
  Si  Si7  1  0.44723200  0.53261000  0.67497000  1
  Si  Si8  1  0.30465300  0.90096600  0.43702600  1
  Si  Si9  1  0.70298400  0.32577700  0.00170600  1
  Si  Si10  1  0.47914000  0.83266600  0.08746300  1
  Si  Si11  1  0.04317100  0.52236000  0.71143300  1
  Si  Si12  1  0.55994300  0.47433100  0.16795300  1
  Si  Si13  1  0.00721500  0.33273100  0.55765200  1
  Si  Si14  1  0.61128700  0.93517000  0.57136200  1
  Si  Si15  1  0.96624100  0.89723000  0.94026600  1
loop_
_geom_bond_atom_site_label_1
_geom_bond_atom_site_label_2
_geom_bond_distance
_geom_bond_site_symmetry_2
Mg0 Si10 2.695302 1_545
Mg0 Si4 2.748173 1_455
Mg0 Si3 2.850029 1_554
Mg0 Si12 2.913716 1_555
Mg0 Si0 2.918465 1_554
Mg0 Si9 3.037221 1_555
Mg0 Si6 3.049622 1_445
Mg0 Si5 3.165407 1_544
Mg1 Si1 2.755315 1_555
Mg1 Si15 2.770767 1_545
Mg1 Si13 2.794373 1_655
Mg1 Si3 2.866357 1_555
Mg1 Si5 2.907505 1_545
Mg1 Si11 2.914265 1_655
Mg1 Si7 2.915329 1_555
Mg1 Si9 3.039945 1_556
Mg2 Si8 2.751798 1_555
Mg2 Si2 2.766856 1_555
Mg2 Si1 2.809978 1_555
Mg2 Si12 2.843650 1_555
Mg2 Si4 2.920137 1_555
Mg2 Si6 3.213337 1_555
Mg3 Si7 2.759772 1_555
Mg3 Si5 2.806378 1_555
Mg3 Si15 2.808834 1_555
Mg3 Si11 2.847065 1_655
Mg3 Si14 2.906940 1_555
Mg3 Si0 3.017160 1_655
Mg3 Si9 3.037443 1_556
Mg3 Si3 3.058572 1_555
Mg4 Si4 2.694778 1_555
Mg4 Si14 2.822876 1_545
Mg4 Si2 2.879811 1_545
Mg4 Si1 2.985650 1_555
Mg4 Si6 3.033855 1_545
Mg4 Si8 3.058421 1_645
Mg4 Si13 3.233031 1_655
Mg5 Si14 2.842601 1_555
Mg5 Si11 2.859081 1_555
Mg5 Si13 2.872629 1_565
Mg5 Si5 2.916648 1_555
Mg5 Si8 2.920315 1_555
Mg5 Si2 3.027505 1_455
Mg5 Si15 3.075007 1_455
Mg5 Si7 3.103848 1_555
Mg6 Si4 2.604492 1_455
Mg6 Si8 2.686644 1_555
Mg6 Si10 2.687374 1_555
Mg6 Si6 2.839239 1_455
Mg6 Si2 2.969341 1_455
Mg7 Si13 2.677062 1_555
Mg7 Si8 2.705153 1_545
Mg7 Si12 2.739696 1_555
Mg7 Si1 2.743024 1_555
Mg7 Si4 2.928352 1_455
Si0 Si9 2.421659 1_456
Si0 Si15 2.437947 1_455
Si0 Si4 2.469108 1_456
Si0 Si3 2.509421 1_555
Si1 Si13 2.411139 1_655
Si1 Si7 2.467260 1_555
Si1 Si14 2.491956 1_545
Si2 Si8 2.443203 1_655
Si3 Si9 2.453561 1_556
Si3 Si5 2.455418 1_545
Si3 Si7 2.472695 1_555
Si6 Si9 2.408432 1_565
Si10 Si6 2.370945 1_555
Si10 Si5 2.384807 1_554
Si10 Si12 2.417889 1_555
Si11 Si7 2.397713 1_555
Si11 Si13 2.434642 1_555
Si11 Si2 2.477398 1_455
Si12 Si4 2.419824 1_555
Si12 Si9 2.420244 1_555
Si13 Si2 2.587927 1_455
Si14 Si8 2.534020 1_555
Si14 Si2 2.540134 1_555
Si14 Si7 2.910492 1_555
Si15 Si5 2.362872 1_655
Si15 Si6 2.427202 1_556
