# generated using pymatgen
data_Na2Ni(SO6)2
_symmetry_space_group_name_H-M   'P 1'
_cell_length_a   5.46270939
_cell_length_b   8.21078300
_cell_length_c   11.13610921
_cell_angle_alpha   90.00000000
_cell_angle_beta   97.05753075
_cell_angle_gamma   90.00000000
_symmetry_Int_Tables_number   1
_chemical_formula_structural   Na2Ni(SO6)2
_chemical_formula_sum   'Na4 Ni2 S4 O24'
_cell_volume   495.70476876
_cell_formula_units_Z   2
loop_
 _symmetry_equiv_pos_site_id
 _symmetry_equiv_pos_as_xyz
  1  'x, y, z'
loop_
 _atom_site_type_symbol
 _atom_site_label
 _atom_site_symmetry_multiplicity
 _atom_site_fract_x
 _atom_site_fract_y
 _atom_site_fract_z
 _atom_site_occupancy
  Na  Na0  1  0.10633400  0.06604800  0.35966800  1
  Na  Na1  1  0.89366600  0.93395200  0.64033200  1
  Na  Na2  1  0.89366600  0.56604800  0.14033200  1
  Na  Na3  1  0.10633400  0.43395200  0.85966800  1
  Ni  Ni0  1  0.00000000  0.00000000  0.00000000  1
  Ni  Ni1  1  0.00000000  0.50000000  0.50000000  1
  S  S0  1  0.37744000  0.28737000  0.13845200  1
  S  S1  1  0.62256000  0.71263000  0.86154800  1
  S  S2  1  0.62256000  0.78737000  0.36154800  1
  S  S3  1  0.37744000  0.21263000  0.63845200  1
  O  O0  1  0.32773600  0.27013200  0.26635600  1
  O  O1  1  0.67226400  0.72986800  0.73364400  1
  O  O2  1  0.67226400  0.77013200  0.23364400  1
  O  O3  1  0.32773600  0.22986800  0.76635600  1
  O  O4  1  0.12071100  0.82336400  0.08229500  1
  O  O5  1  0.87928900  0.17663600  0.91770500  1
  O  O6  1  0.87928900  0.32336400  0.41770400  1
  O  O7  1  0.12071100  0.67663600  0.58229500  1
  O  O8  1  0.21773800  0.41377400  0.07518600  1
  O  O9  1  0.78226200  0.58622600  0.92481400  1
  O  O10  1  0.78226200  0.91377400  0.42481400  1
  O  O11  1  0.21773800  0.08622600  0.57518600  1
  O  O12  1  0.63997600  0.33064200  0.13786700  1
  O  O13  1  0.36002400  0.66935800  0.86213300  1
  O  O14  1  0.36002400  0.83064200  0.36213300  1
  O  O15  1  0.63997600  0.16935800  0.63786700  1
  O  O16  1  0.33586800  0.12557400  0.07562300  1
  O  O17  1  0.66413200  0.87442600  0.92437700  1
  O  O18  1  0.66413200  0.62557400  0.42437700  1
  O  O19  1  0.33586800  0.37442600  0.57562300  1
  O  O20  1  0.08070600  0.50859400  0.34727500  1
  O  O21  1  0.91929400  0.49140600  0.65272500  1
  O  O22  1  0.91929400  0.00859400  0.15272500  1
  O  O23  1  0.08070600  0.99140600  0.84727500  1
loop_
_geom_bond_atom_site_label_1
_geom_bond_atom_site_label_2
_geom_bond_distance
_geom_bond_site_symmetry_2
Na0 O10 2.353536 1_445
Na0 O14 2.376535 1_545
Na0 O0 2.378938 1_555
Na0 O11 2.408121 1_555
Na0 O22 2.449244 1_455
Na0 O6 2.572304 1_455
Na1 O11 2.353536 1_665
Na1 O15 2.376535 1_565
Na1 O1 2.378938 1_555
Na1 O10 2.408121 1_555
Na1 O23 2.449244 1_655
Na1 O7 2.572308 1_655
Na2 O8 2.353536 1_655
Na2 O12 2.376535 1_555
Na2 O2 2.378938 1_555
Na2 O9 2.408121 1_554
Na2 O20 2.449244 1_655
Na2 O4 2.572308 1_655
Na3 O9 2.353536 1_455
Na3 O13 2.376535 1_555
Na3 O3 2.378938 1_555
Na3 O8 2.408121 1_556
Na3 O21 2.449244 1_455
Na3 O5 2.572308 1_455
Ni0 O5 1.797115 1_454
Ni0 O4 1.797115 1_545
Ni0 O23 1.810026 1_544
Ni0 O22 1.810026 1_455
Ni0 O16 2.181494 1_555
Ni0 O17 2.181494 1_444
Ni1 O7 1.797115 1_555
Ni1 O6 1.797120 1_455
Ni1 O20 1.810026 1_555
Ni1 O21 1.810026 1_455
Ni1 O18 2.181494 1_455
Ni1 O19 2.181494 1_555
O0 S0 1.489151 1_555
O1 S1 1.489151 1_555
O2 S2 1.489151 1_555
O3 S3 1.489151 1_555
O8 S0 1.477705 1_555
O9 S1 1.477705 1_555
O10 S2 1.477705 1_555
O11 S3 1.477705 1_555
O12 S0 1.478304 1_555
O13 S1 1.478304 1_555
O14 S2 1.478304 1_555
O15 S3 1.478304 1_555
O16 S0 1.505624 1_555
O17 S1 1.505624 1_555
O18 S2 1.505624 1_555
O19 S3 1.505624 1_555
