# generated using pymatgen
data_SrAu2(SO4)4
_symmetry_space_group_name_H-M   'P 1'
_cell_length_a   9.40728940
_cell_length_b   9.40728940
_cell_length_c   10.65040645
_cell_angle_alpha   77.27312972
_cell_angle_beta   77.27312972
_cell_angle_gamma   116.11991068
_symmetry_Int_Tables_number   1
_chemical_formula_structural   SrAu2(SO4)4
_chemical_formula_sum   'Sr2 Au4 S8 O32'
_cell_volume   769.40555757
_cell_formula_units_Z   2
loop_
 _symmetry_equiv_pos_site_id
 _symmetry_equiv_pos_as_xyz
  1  'x, y, z'
loop_
 _atom_site_type_symbol
 _atom_site_label
 _atom_site_symmetry_multiplicity
 _atom_site_fract_x
 _atom_site_fract_y
 _atom_site_fract_z
 _atom_site_occupancy
  Sr  Sr0  1  0.12969900  0.87030100  0.25000000  1
  Sr  Sr1  1  0.87030100  0.12969900  0.75000000  1
  Au  Au0  1  0.50000000  0.50000000  0.00000000  1
  Au  Au1  1  0.50000000  0.50000000  0.50000000  1
  Au  Au2  1  0.00000000  0.50000000  0.00000000  1
  Au  Au3  1  0.50000000  0.00000000  0.50000000  1
  S  S0  1  0.85242500  0.73901800  0.99937000  1
  S  S1  1  0.26098200  0.14757500  0.50063000  1
  S  S2  1  0.14757500  0.26098200  0.00063000  1
  S  S3  1  0.73901800  0.85242500  0.49937000  1
  S  S4  1  0.62560000  0.23552700  0.03814900  1
  S  S5  1  0.76447300  0.37440000  0.46185100  1
  S  S6  1  0.37440000  0.76447300  0.96185100  1
  S  S7  1  0.23552700  0.62560000  0.53814900  1
  O  O0  1  0.67012100  0.59267200  0.09341800  1
  O  O1  1  0.40732800  0.32987900  0.40658200  1
  O  O2  1  0.32987900  0.40732800  0.90658200  1
  O  O3  1  0.59267200  0.67012100  0.59341800  1
  O  O4  1  0.93993100  0.66960700  0.91083300  1
  O  O5  1  0.33039300  0.06006900  0.58916700  1
  O  O6  1  0.06006900  0.33039300  0.08916700  1
  O  O7  1  0.66960700  0.93993100  0.41083300  1
  O  O8  1  0.84389700  0.86335200  0.89791700  1
  O  O9  1  0.13664800  0.15610300  0.60208300  1
  O  O10  1  0.15610300  0.13664800  0.10208300  1
  O  O11  1  0.86335200  0.84389700  0.39791700  1
  O  O12  1  0.93630300  0.79368600  0.09250500  1
  O  O13  1  0.20631400  0.06369700  0.40749500  1
  O  O14  1  0.06369700  0.20631400  0.90749500  1
  O  O15  1  0.79368600  0.93630300  0.59250500  1
  O  O16  1  0.74910000  0.32588400  0.10634900  1
  O  O17  1  0.67411600  0.25090000  0.39365100  1
  O  O18  1  0.25090000  0.67411600  0.89365100  1
  O  O19  1  0.32588400  0.74910000  0.60634900  1
  O  O20  1  0.60497400  0.36647300  0.93926400  1
  O  O21  1  0.63352700  0.39502600  0.56073600  1
  O  O22  1  0.39502600  0.63352700  0.06073600  1
  O  O23  1  0.36647300  0.60497400  0.43926400  1
  O  O24  1  0.46824100  0.11303200  0.15355700  1
  O  O25  1  0.88696800  0.53175900  0.34644300  1
  O  O26  1  0.53175900  0.88696800  0.84644300  1
  O  O27  1  0.11303200  0.46824100  0.65355700  1
  O  O28  1  0.69865400  0.17156900  0.94670200  1
  O  O29  1  0.82843100  0.30134600  0.55329800  1
  O  O30  1  0.30134600  0.82843100  0.05329800  1
  O  O31  1  0.17156900  0.69865400  0.44670200  1
loop_
_geom_bond_atom_site_label_1
_geom_bond_atom_site_label_2
_geom_bond_distance
_geom_bond_site_symmetry_2
Au0 O22 2.034763 1_555
Au0 O20 2.034763 1_554
Au0 O0 2.041177 1_555
Au0 O2 2.041177 1_554
Au1 O21 2.034763 1_555
Au1 O23 2.034763 1_555
Au1 O3 2.041177 1_555
Au1 O1 2.041177 1_555
Au2 O4 2.032153 1_454
Au2 O6 2.032153 1_555
Au2 O18 2.034051 1_554
Au2 O16 2.034051 1_455
Au3 O5 2.032153 1_555
Au3 O7 2.032153 1_545
Au3 O17 2.034051 1_555
Au3 O19 2.034051 1_545
O0 S0 1.548046 1_554
O1 S1 1.548046 1_555
O2 S2 1.548046 1_556
O3 S3 1.548046 1_555
O4 S0 1.547820 1_555
O5 S1 1.547820 1_555
O6 S2 1.547820 1_555
O7 S3 1.547820 1_555
O8 S0 1.451203 1_555
O8 Sr1 2.522291 1_565
O9 S1 1.451203 1_555
O9 Sr1 2.522291 1_455
O10 S2 1.451203 1_555
O10 Sr0 2.522291 1_545
O11 S3 1.451203 1_555
O11 Sr0 2.522291 1_655
O12 S0 1.443378 1_554
O12 Sr0 2.713996 1_655
O13 S1 1.443378 1_555
O13 Sr0 2.713996 1_545
O14 S2 1.443378 1_556
O14 Sr1 2.713996 1_455
O15 S3 1.443378 1_555
O15 Sr1 2.713996 1_565
O16 S4 1.540851 1_555
O17 S5 1.540851 1_555
O18 S6 1.540851 1_555
O19 S7 1.540851 1_555
O20 S4 1.546976 1_556
O21 S5 1.546976 1_555
O22 S6 1.546976 1_554
O23 S7 1.546976 1_555
O24 S4 1.449922 1_555
O24 Sr0 2.744795 1_545
O25 S5 1.449922 1_555
O25 Sr0 2.744795 1_655
O26 S6 1.449922 1_555
O26 Sr1 2.744795 1_565
O27 S7 1.449922 1_555
O27 Sr1 2.744795 1_455
O28 S4 1.452668 1_556
O28 Sr1 2.566019 1_555
O29 S5 1.452668 1_555
O29 Sr1 2.566019 1_555
O30 S6 1.452668 1_554
O30 Sr0 2.566019 1_555
O31 S7 1.452668 1_555
O31 Sr0 2.566019 1_555
