# generated using pymatgen
data_YU2S3O2
_symmetry_space_group_name_H-M   'P 1'
_cell_length_a   10.95227676
_cell_length_b   10.95227676
_cell_length_c   10.95227676
_cell_angle_alpha   159.94805508
_cell_angle_beta   159.94805508
_cell_angle_gamma   28.50633954
_symmetry_Int_Tables_number   1
_chemical_formula_structural   YU2S3O2
_chemical_formula_sum   'Y1 U2 S3 O2'
_cell_volume   154.37069680
_cell_formula_units_Z   1
loop_
 _symmetry_equiv_pos_site_id
 _symmetry_equiv_pos_as_xyz
  1  'x, y, z'
loop_
 _atom_site_type_symbol
 _atom_site_label
 _atom_site_symmetry_multiplicity
 _atom_site_fract_x
 _atom_site_fract_y
 _atom_site_fract_z
 _atom_site_occupancy
  Y  Y0  1  0.00000000  0.00000000  0.00000000  1
  U  U0  1  0.31305000  0.31305000  0.00000000  1
  U  U1  1  0.68695000  0.68695000  0.00000000  1
  S  S0  1  0.12883000  0.12883000  0.00000000  1
  S  S1  1  0.87117000  0.87117000  0.00000000  1
  S  S2  1  0.50000000  0.50000000  0.00000000  1
  O  O0  1  0.75000000  0.25000000  0.50000000  1
  O  O1  1  0.25000000  0.75000000  0.50000000  1
loop_
_geom_bond_atom_site_label_1
_geom_bond_atom_site_label_2
_geom_bond_distance
_geom_bond_site_symmetry_2
S0 Y0 2.735096 1_555
S0 U1 2.965429 1_545
S0 U1 2.965429 1_455
S0 U1 2.965429 1_444
S0 U1 2.965429 1_556
S1 Y0 2.735096 1_665
S1 U0 2.965429 1_565
S1 U0 2.965429 1_655
S1 U0 2.965429 1_666
S1 U0 2.965429 1_554
S2 Y0 2.696526 1_554
S2 Y0 2.696526 1_655
S2 Y0 2.696526 1_565
S2 Y0 2.696526 1_666
O0 U0 2.329677 1_555
O0 U0 2.329677 1_656
O0 U1 2.329677 1_545
O0 U1 2.329677 1_556
O1 U0 2.329677 1_555
O1 U0 2.329677 1_566
O1 U1 2.329677 1_455
O1 U1 2.329677 1_556
