# generated using pymatgen
data_Li9Mn2Co5O16
_symmetry_space_group_name_H-M   'P 1'
_cell_length_a   4.96259800
_cell_length_b   7.75719741
_cell_length_c   7.81875458
_cell_angle_alpha   98.18858269
_cell_angle_beta   101.23485295
_cell_angle_gamma   102.59813676
_symmetry_Int_Tables_number   1
_chemical_formula_structural   Li9Mn2Co5O16
_chemical_formula_sum   'Li9 Mn2 Co5 O16'
_cell_volume   282.68617969
_cell_formula_units_Z   1
loop_
 _symmetry_equiv_pos_site_id
 _symmetry_equiv_pos_as_xyz
  1  'x, y, z'
loop_
 _atom_site_type_symbol
 _atom_site_label
 _atom_site_symmetry_multiplicity
 _atom_site_fract_x
 _atom_site_fract_y
 _atom_site_fract_z
 _atom_site_occupancy
  Li  Li0  1  0.47796800  0.73874000  0.73714700  1
  Li  Li1  1  0.00017300  0.38386200  0.14071600  1
  Li  Li2  1  0.51516300  0.99328400  0.49961100  1
  Li  Li3  1  0.99765600  0.85546300  0.61505700  1
  Li  Li4  1  0.50273500  0.50546500  0.00663100  1
  Li  Li5  1  0.01560500  0.13421800  0.38670800  1
  Li  Li6  1  0.98928600  0.62044800  0.86432200  1
  Li  Li7  1  0.51263600  0.25988500  0.25951300  1
  Li  Li8  1  0.99705600  0.49635600  0.49812000  1
  Mn  Mn0  1  0.99699900  0.99964300  0.99403200  1
  Mn  Mn1  1  0.99972300  0.25500800  0.75012900  1
  Co  Co0  1  0.50084500  0.61683100  0.38285400  1
  Co  Co1  1  0.50115200  0.87770200  0.12195300  1
  Co  Co2  1  0.49717300  0.12611200  0.87246800  1
  Co  Co3  1  0.99943900  0.74828500  0.25866300  1
  Co  Co4  1  0.49030200  0.37642800  0.62258900  1
  O  O0  1  0.75102700  0.77257600  0.00424900  1
  O  O1  1  0.26459700  0.37288200  0.38151600  1
  O  O2  1  0.75957300  0.01744700  0.76872900  1
  O  O3  1  0.23990700  0.89653100  0.87210800  1
  O  O4  1  0.74032400  0.51151300  0.25070400  1
  O  O5  1  0.26538700  0.14419100  0.64808200  1
  O  O6  1  0.25411100  0.65160200  0.13116200  1
  O  O7  1  0.76102400  0.24972700  0.53102100  1
  O  O8  1  0.26480300  0.74851700  0.48738300  1
  O  O9  1  0.75366300  0.35362400  0.87212900  1
  O  O10  1  0.24633300  0.99555800  0.21880800  1
  O  O11  1  0.77075200  0.87395500  0.36729900  1
  O  O12  1  0.24845600  0.47902800  0.75615800  1
  O  O13  1  0.73088400  0.10825000  0.09883300  1
  O  O14  1  0.72047300  0.60589200  0.62104700  1
  O  O15  1  0.23477400  0.23097300  0.98025700  1
loop_
_geom_bond_atom_site_label_1
_geom_bond_atom_site_label_2
_geom_bond_distance
_geom_bond_site_symmetry_2
Li0 O14 2.008611 1_555
Li0 O8 2.051979 1_555
Li0 O12 2.128011 1_555
Li0 O3 2.180841 1_555
Li0 O0 2.202850 1_556
Li0 O2 2.254686 1_565
Li1 O4 2.032118 1_455
Li1 O1 2.098978 1_555
Li1 O9 2.166814 1_454
Li1 O6 2.201448 1_555
Li1 O13 2.201763 1_455
Li1 O15 2.254688 1_554
Li2 O8 2.007689 1_555
Li2 O7 2.047318 1_565
Li2 O11 2.070398 1_555
Li2 O2 2.174350 1_565
Li2 O5 2.249654 1_565
Li2 O10 2.341032 1_555
Li3 O8 2.049852 1_655
Li3 O3 2.072480 1_655
Li3 O11 2.083449 1_555
Li3 O14 2.128749 1_555
Li3 O2 2.277990 1_565
Li3 O5 2.291675 1_665
Li4 O4 2.026764 1_555
Li4 O12 2.068680 1_554
Li4 O6 2.125857 1_555
Li4 O0 2.172126 1_555
Li4 O9 2.200275 1_554
Li4 O15 2.208534 1_554
Li5 O1 1.999764 1_555
Li5 O11 2.084766 1_445
Li5 O7 2.105577 1_455
Li5 O5 2.155210 1_555
Li5 O10 2.216321 1_545
Li5 O13 2.368684 1_455
Li6 O14 2.072370 1_555
Li6 O12 2.085167 1_655
Li6 O9 2.159429 1_555
Li6 O0 2.175441 1_556
Li6 O6 2.188118 1_656
Li6 O3 2.215532 1_655
Li7 O1 1.970645 1_555
Li7 O4 2.048906 1_555
Li7 O10 2.126085 1_545
Li7 O13 2.190884 1_555
Li7 O7 2.258877 1_555
Li7 O15 2.295977 1_554
Li8 O1 2.070999 1_655
Li8 O14 2.078430 1_555
Li8 O7 2.092462 1_555
Li8 O4 2.132847 1_555
Li8 O8 2.134292 1_655
Li8 O12 2.194223 1_655
Mn0 O3 1.911241 1_655
Mn0 O0 1.933676 1_556
Mn0 O15 1.950638 1_665
Mn0 O10 1.950982 1_656
Mn0 O13 1.958474 1_566
Mn0 O2 1.960116 1_565
Mn1 O7 1.872925 1_555
Mn1 O12 1.887852 1_655
Mn1 O9 1.907792 1_555
Mn1 O5 1.955147 1_655
Mn1 O15 2.001382 1_655
Mn1 O2 2.005803 1_555
Co0 O8 1.934110 1_555
Co0 O4 1.951664 1_555
Co0 O14 1.989467 1_555
Co0 O1 1.994352 1_555
Co0 O11 2.180444 1_555
Co0 O6 2.191131 1_555
Co1 O10 1.920593 1_555
Co1 O6 1.927886 1_555
Co1 O0 1.929157 1_555
Co1 O13 1.952898 1_565
Co1 O11 2.122148 1_555
Co1 O3 2.166847 1_554
Co2 O9 1.938453 1_555
Co2 O2 1.939008 1_555
Co2 O15 1.939592 1_555
Co2 O5 1.942900 1_555
Co2 O3 1.951140 1_545
Co2 O13 1.958818 1_556
Co3 O11 1.892647 1_555
Co3 O6 1.960869 1_655
Co3 O4 1.984135 1_555
Co3 O8 2.003158 1_655
Co3 O10 2.138091 1_655
Co3 O0 2.182822 1_555
Co4 O14 1.896791 1_555
Co4 O12 1.957767 1_555
Co4 O5 1.960310 1_555
Co4 O1 1.989291 1_555
Co4 O7 2.008451 1_555
Co4 O9 2.179844 1_555
