# generated using pymatgen
data_Na6Zn3B9P6H3O38
_symmetry_space_group_name_H-M   'P 1'
_cell_length_a   11.84203235
_cell_length_b   11.84198401
_cell_length_c   12.25974356
_cell_angle_alpha   90.00000000
_cell_angle_beta   90.00000000
_cell_angle_gamma   119.99957249
_symmetry_Int_Tables_number   1
_chemical_formula_structural   Na6Zn3B9P6H3O38
_chemical_formula_sum   'Na12 Zn6 B18 P12 H6 O76'
_cell_volume   1488.89681884
_cell_formula_units_Z   2
loop_
 _symmetry_equiv_pos_site_id
 _symmetry_equiv_pos_as_xyz
  1  'x, y, z'
loop_
 _atom_site_type_symbol
 _atom_site_label
 _atom_site_symmetry_multiplicity
 _atom_site_fract_x
 _atom_site_fract_y
 _atom_site_fract_z
 _atom_site_occupancy
  Na  Na0  1  0.28802725  0.27081630  0.70751199  1
  Na  Na1  1  0.72918361  0.01721439  0.70751168  1
  Na  Na2  1  0.98278901  0.71196969  0.70751167  1
  Na  Na3  1  0.71197275  0.72918370  0.20751199  1
  Na  Na4  1  0.27081639  0.98278561  0.20751168  1
  Na  Na5  1  0.01721099  0.28803031  0.20751167  1
  Na  Na6  1  0.33336648  0.66668254  0.36320216  1
  Na  Na7  1  0.66663352  0.33331746  0.86320216  1
  Na  Na8  1  0.66662773  0.33331363  0.35108012  1
  Na  Na9  1  0.33337227  0.66668637  0.85108012  1
  Na  Na10  1  0.99999894  0.99999942  0.95015264  1
  Na  Na11  1  0.00000106  0.00000058  0.45015264  1
  Zn  Zn0  1  0.99497267  0.49383118  0.45289062  1
  Zn  Zn1  1  0.50616857  0.50114409  0.45289397  1
  Zn  Zn2  1  0.49885715  0.00502506  0.45289373  1
  Zn  Zn3  1  0.00502733  0.50616882  0.95289062  1
  Zn  Zn4  1  0.49383143  0.49885591  0.95289397  1
  Zn  Zn5  1  0.50114285  0.99497494  0.95289373  1
  B  B0  1  0.95549268  0.70367905  0.30360249  1
  B  B1  1  0.29632122  0.25181396  0.30360135  1
  B  B2  1  0.74818827  0.04450884  0.30360102  1
  B  B3  1  0.04450732  0.29632095  0.80360249  1
  B  B4  1  0.70367878  0.74818604  0.80360135  1
  B  B5  1  0.25181173  0.95549116  0.80360102  1
  B  B6  1  0.90982189  0.50585400  0.19871293  1
  B  B7  1  0.49414495  0.40396827  0.19871133  1
  B  B8  1  0.59603218  0.09017810  0.19871209  1
  B  B9  1  0.09017811  0.49414600  0.69871293  1
  B  B10  1  0.50585505  0.59603173  0.69871133  1
  B  B11  1  0.40396782  0.90982190  0.69871209  1
  B  B12  1  0.03912091  0.28890969  0.60231169  1
  B  B13  1  0.71109171  0.75021082  0.60231259  1
  B  B14  1  0.24978731  0.96087803  0.60231170  1
  B  B15  1  0.96087909  0.71109031  0.10231169  1
  B  B16  1  0.28890829  0.24978918  0.10231259  1
  B  B17  1  0.75021269  0.03912197  0.10231170  1
  P  P0  1  0.18795873  0.37971313  0.41820599  1
  P  P1  1  0.62029539  0.80825317  0.41820849  1
  P  P2  1  0.19174760  0.81203189  0.41820922  1
  P  P3  1  0.81204127  0.62028687  0.91820599  1
  P  P4  1  0.37970461  0.19174683  0.91820849  1
  P  P5  1  0.80825240  0.18796811  0.91820922  1
  P  P6  1  0.80344016  0.18469610  0.49245040  1
  P  P7  1  0.81530950  0.61874761  0.49245384  1
  P  P8  1  0.38124966  0.19656082  0.49245571  1
  P  P9  1  0.19655984  0.81530390  0.99245040  1
  P  P10  1  0.18469050  0.38125239  0.99245384  1
  P  P11  1  0.61875034  0.80343918  0.99245571  1
  H  H0  1  0.83258214  0.34096133  0.11767530  1
  H  H1  1  0.65903933  0.49162062  0.11767753  1
  H  H2  1  0.50837810  0.16741849  0.11767757  1
  H  H3  1  0.16741786  0.65903867  0.61767530  1
  H  H4  1  0.34096067  0.50837938  0.61767753  1
  H  H5  1  0.49162190  0.83258151  0.61767757  1
  O  O0  1  0.11353165  0.27474344  0.50987245  1
  O  O1  1  0.72526063  0.83878915  0.50987208  1
  O  O2  1  0.16121424  0.88646935  0.50987103  1
  O  O3  1  0.88646835  0.72525656  0.00987245  1
  O  O4  1  0.27473937  0.16121085  0.00987208  1
  O  O5  1  0.83878576  0.11353065  0.00987103  1
  O  O6  1  0.10372061  0.43166715  0.36811086  1
  O  O7  1  0.56833127  0.67205563  0.36811136  1
  O  O8  1  0.32795172  0.89628133  0.36810874  1
  O  O9  1  0.89627939  0.56833285  0.86811086  1
  O  O10  1  0.43166873  0.32794437  0.86811136  1
  O  O11  1  0.67204828  0.10371867  0.86810874  1
  O  O12  1  0.93202522  0.56524857  0.29960004  1
  O  O13  1  0.43475311  0.36677486  0.29960082  1
  O  O14  1  0.63322449  0.06797701  0.29960058  1
  O  O15  1  0.06797478  0.43475143  0.79960004  1
  O  O16  1  0.56524689  0.63322514  0.79960082  1
  O  O17  1  0.36677551  0.93202299  0.79960058  1
  O  O18  1  0.06043666  0.42481861  0.60269845  1
  O  O19  1  0.57518189  0.63561787  0.60269727  1
  O  O20  1  0.36438302  0.93956344  0.60269827  1
  O  O21  1  0.93956334  0.57518139  0.10269845  1
  O  O22  1  0.42481811  0.36438213  0.10269727  1
  O  O23  1  0.63561698  0.06043656  0.10269827  1
  O  O24  1  0.90752517  0.57591026  0.53959303  1
  O  O25  1  0.42408780  0.33161285  0.53959301  1
  O  O26  1  0.66838393  0.09247147  0.53959323  1
  O  O27  1  0.09247483  0.42408974  0.03959303  1
  O  O28  1  0.57591220  0.66838715  0.03959301  1
  O  O29  1  0.33161607  0.90752853  0.03959323  1
  O  O30  1  0.20428885  0.30185617  0.32209539  1
  O  O31  1  0.69814642  0.90243269  0.32209454  1
  O  O32  1  0.09756838  0.79571392  0.32209597  1
  O  O33  1  0.79571115  0.69814383  0.82209539  1
  O  O34  1  0.30185358  0.09756731  0.82209454  1
  O  O35  1  0.90243162  0.20428608  0.82209597  1
  O  O36  1  0.89898368  0.19343765  0.58525116  1
  O  O37  1  0.80656210  0.70554468  0.58525249  1
  O  O38  1  0.29445226  0.10101607  0.58525453  1
  O  O39  1  0.10101632  0.80656235  0.08525116  1
  O  O40  1  0.19343790  0.29445532  0.08525249  1
  O  O41  1  0.70554774  0.89898393  0.08525453  1
  O  O42  1  0.08361388  0.26290818  0.70330025  1
  O  O43  1  0.73708800  0.82070509  0.70330053  1
  O  O44  1  0.17929388  0.91638270  0.70329987  1
  O  O45  1  0.91638612  0.73709182  0.20330025  1
  O  O46  1  0.26291200  0.17929491  0.20330053  1
  O  O47  1  0.82070612  0.08361730  0.20329987  1
  O  O48  1  0.82589797  0.31738259  0.45607817  1
  O  O49  1  0.68261088  0.50851725  0.45607885  1
  O  O50  1  0.49147760  0.17408984  0.45608113  1
  O  O51  1  0.17410203  0.68261741  0.95607817  1
  O  O52  1  0.31738912  0.49148275  0.95607885  1
  O  O53  1  0.50852240  0.82591016  0.95608113  1
  O  O54  1  0.85284954  0.37143765  0.19417769  1
  O  O55  1  0.62856085  0.48141151  0.19417758  1
  O  O56  1  0.51858865  0.14715103  0.19417826  1
  O  O57  1  0.14715046  0.62856235  0.69417769  1
  O  O58  1  0.37143915  0.51858849  0.69417758  1
  O  O59  1  0.48141135  0.85284897  0.69417826  1
  O  O60  1  0.17014813  0.68123634  0.46156461  1
  O  O61  1  0.31876729  0.48890967  0.46156873  1
  O  O62  1  0.51109831  0.82986326  0.46157148  1
  O  O63  1  0.82985187  0.31876366  0.96156461  1
  O  O64  1  0.68123271  0.51109033  0.96156873  1
  O  O65  1  0.48890169  0.17013674  0.96157148  1
  O  O66  1  0.83608157  0.11848984  0.39424851  1
  O  O67  1  0.88150894  0.71759056  0.39424856  1
  O  O68  1  0.28240845  0.16391822  0.39424873  1
  O  O69  1  0.16391843  0.88151016  0.89424851  1
  O  O70  1  0.11849106  0.28240944  0.89424856  1
  O  O71  1  0.71759155  0.83608178  0.89424873  1
  O  O72  1  0.00000069  0.00000139  0.75037462  1
  O  O73  1  0.99999931  0.99999861  0.25037462  1
  O  O74  1  0.33339565  0.66669595  0.16362732  1
  O  O75  1  0.66660435  0.33330405  0.66362732  1
loop_
_geom_bond_atom_site_label_1
_geom_bond_atom_site_label_2
_geom_bond_distance
_geom_bond_site_symmetry_2
Na0 O42 2.375793 1_555
Na0 O10 2.465148 1_555
Na0 O25 2.488458 1_555
Na0 O38 2.539393 1_555
Na0 O34 2.558351 1_555
Na0 O58 2.590994 1_555
Na1 O43 2.375806 1_545
Na1 O11 2.465099 1_555
Na1 O26 2.488422 1_555
Na1 O36 2.539418 1_555
Na1 O35 2.558353 1_555
Na1 O59 2.591022 1_545
Na2 O44 2.375798 1_655
Na2 O9 2.465114 1_555
Na2 O24 2.488446 1_555
Na2 O37 2.539429 1_555
Na2 O33 2.558395 1_555
Na2 O57 2.590962 1_655
Na3 O45 2.375793 1_555
Na3 O7 2.465148 1_555
Na3 O28 2.488458 1_555
Na3 O41 2.539393 1_555
Na3 O31 2.558351 1_555
Na3 O55 2.590994 1_555
Na4 O46 2.375806 1_565
Na4 O8 2.465099 1_555
Na4 O29 2.488422 1_555
Na4 O39 2.539418 1_555
Na4 O32 2.558353 1_555
Na4 O56 2.591022 1_565
Na5 O47 2.375798 1_455
Na5 O6 2.465114 1_555
Na5 O27 2.488446 1_555
Na5 O40 2.539429 1_555
Na5 O30 2.558395 1_555
Na5 O54 2.590962 1_455
Na6 O62 2.356107 1_555
Na6 O61 2.356279 1_555
Na6 O60 2.356452 1_555
Na6 O74 2.446736 1_555
Na6 O7 2.751857 1_555
Na6 O8 2.752184 1_555
Na6 O6 2.752488 1_555
Na7 O65 2.356107 1_555
Na7 O64 2.356279 1_555
Na7 O63 2.356452 1_555
Na7 O75 2.446736 1_555
Na7 O10 2.751857 1_555
Na7 O11 2.752184 1_555
Na7 O9 2.752488 1_555
Na8 O50 2.367184 1_555
Na8 O49 2.367443 1_555
Na8 O48 2.367641 1_555
Na8 O56 2.787246 1_555
Na8 O55 2.787415 1_555
Na8 O54 2.787745 1_555
Na9 O53 2.367184 1_555
Na9 O52 2.367443 1_555
Na9 O51 2.367641 1_555
Na9 O59 2.787246 1_555
Na9 O58 2.787415 1_555
Na9 O57 2.787745 1_555
Na10 O72 2.449227 1_665
Na10 O4 2.924841 1_666
Na10 O3 2.924851 1_556
Na10 O5 2.924854 1_566
Na10 O69 2.988353 1_655
Na10 O71 2.988361 1_555
Na10 O70 2.988371 1_665
Na11 O73 2.449227 1_445
Na11 O1 2.924841 1_445
Na11 O0 2.924851 1_555
Na11 O2 2.924854 1_545
Na11 O66 2.988353 1_455
Na11 O68 2.988361 1_555
Na11 O67 2.988371 1_445
B0 O45 1.437486 1_555
B0 O67 1.474460 1_555
B0 O32 1.495416 1_655
B0 O12 1.520315 1_555
B1 O46 1.437472 1_555
B1 O68 1.474472 1_555
B1 O30 1.495390 1_555
B1 O13 1.520328 1_555
B2 O47 1.437471 1_555
B2 O66 1.474460 1_555
B2 O31 1.495409 1_545
B2 O14 1.520331 1_555
B3 O42 1.437486 1_555
B3 O70 1.474460 1_555
B3 O35 1.495416 1_455
B3 O15 1.520315 1_555
B4 O43 1.437472 1_555
B4 O71 1.474472 1_555
B4 O33 1.495390 1_555
B4 O16 1.520328 1_555
B5 O44 1.437471 1_555
B5 O69 1.474460 1_555
B5 O34 1.495409 1_565
B5 O17 1.520331 1_555
B6 O21 1.376406 1_555
B6 O12 1.381558 1_555
B6 O54 1.384942 1_555
B7 O22 1.376401 1_555
B7 O13 1.381576 1_555
B7 O55 1.384943 1_555
B8 O23 1.376392 1_555
B8 O14 1.381568 1_555
B8 O56 1.384937 1_555
B9 O18 1.376406 1_555
B9 O15 1.381558 1_555
B9 O57 1.384942 1_555
B10 O19 1.376401 1_555
B10 O16 1.381576 1_555
B10 O58 1.384943 1_555
B11 O20 1.376392 1_555
B11 O17 1.381568 1_555
B11 O59 1.384937 1_555
B12 O42 1.437889 1_555
B12 O36 1.483154 1_455
B12 O0 1.495580 1_555
B12 O18 1.499252 1_555
B13 O43 1.437887 1_555
B13 O37 1.483132 1_555
B13 O1 1.495593 1_555
B13 O19 1.499270 1_555
B14 O44 1.437886 1_555
B14 O38 1.483148 1_565
B14 O2 1.495572 1_555
B14 O20 1.499276 1_555
B15 O45 1.437889 1_555
B15 O39 1.483154 1_655
B15 O3 1.495580 1_555
B15 O21 1.499252 1_555
B16 O46 1.437887 1_555
B16 O40 1.483132 1_555
B16 O4 1.495593 1_555
B16 O22 1.499270 1_555
B17 O47 1.437886 1_555
B17 O41 1.483148 1_545
B17 O5 1.495572 1_555
B17 O23 1.499276 1_555
H0 O54 0.990399 1_555
H1 O55 0.990380 1_555
H2 O56 0.990384 1_555
H3 O57 0.990399 1_555
H4 O58 0.990380 1_555
H5 O59 0.990384 1_555
O0 P0 1.577769 1_555
O1 P1 1.577721 1_555
O2 P2 1.577750 1_555
O3 P3 1.577769 1_554
O4 P4 1.577721 1_554
O5 P5 1.577750 1_554
O6 P0 1.537704 1_555
O6 Zn0 2.056363 1_455
O7 P1 1.537756 1_555
O7 Zn1 2.056382 1_555
O8 P2 1.537860 1_555
O8 Zn2 2.056350 1_565
O9 P3 1.537704 1_555
O9 Zn3 2.056363 1_655
O10 P4 1.537756 1_555
O10 Zn4 2.056382 1_555
O11 P5 1.537860 1_555
O11 Zn5 2.056350 1_545
O12 Zn0 2.330902 1_555
O13 Zn1 2.330957 1_555
O14 Zn2 2.330949 1_555
O15 Zn3 2.330902 1_555
O16 Zn4 2.330957 1_555
O17 Zn5 2.330949 1_555
O18 Zn0 2.296852 1_455
O19 Zn1 2.296795 1_555
O20 Zn2 2.296812 1_565
O21 Zn3 2.296852 1_654
O22 Zn4 2.296795 1_554
O23 Zn5 2.296812 1_544
O24 P7 1.528980 1_555
O24 Zn0 2.038015 1_555
O25 P8 1.528960 1_555
O25 Zn1 2.038041 1_555
O26 P6 1.529053 1_555
O26 Zn2 2.038011 1_555
O27 P10 1.528980 1_554
O27 Zn3 2.038015 1_554
O28 P11 1.528960 1_554
O28 Zn4 2.038041 1_554
O29 P9 1.529053 1_554
O29 Zn5 2.038011 1_554
O30 P0 1.566559 1_555
O31 P1 1.566542 1_555
O32 P2 1.566561 1_555
O33 P3 1.566559 1_555
O34 P4 1.566542 1_555
O35 P5 1.566561 1_555
O36 P6 1.571025 1_555
O37 P7 1.570990 1_555
O38 P8 1.571000 1_555
O39 P9 1.571025 1_554
O40 P10 1.570990 1_554
O41 P11 1.571000 1_554
O48 P6 1.523349 1_555
O48 Zn0 2.047628 1_555
O49 P7 1.523463 1_555
O49 Zn1 2.047549 1_555
O50 P8 1.523445 1_555
O50 Zn2 2.047529 1_555
O51 P9 1.523349 1_555
O51 Zn3 2.047628 1_555
O52 P10 1.523463 1_555
O52 Zn4 2.047549 1_555
O53 P11 1.523445 1_555
O53 Zn5 2.047529 1_555
O60 P2 1.533232 1_555
O60 Zn0 2.153143 1_455
O61 P0 1.533366 1_555
O61 Zn1 2.153065 1_555
O62 P1 1.533351 1_555
O62 Zn2 2.153040 1_565
O63 P5 1.533232 1_555
O63 Zn3 2.153143 1_655
O64 P3 1.533366 1_555
O64 Zn4 2.153065 1_555
O65 P4 1.533351 1_555
O65 Zn5 2.153040 1_545
O66 P6 1.586376 1_555
O67 P7 1.586374 1_555
O68 P8 1.586379 1_555
O69 P9 1.586376 1_555
O70 P10 1.586374 1_555
O71 P11 1.586379 1_555
