# generated using pymatgen
data_MnBi2(IO)8
_symmetry_space_group_name_H-M   'P 1'
_cell_length_a   8.06567910
_cell_length_b   13.60073500
_cell_length_c   12.59322459
_cell_angle_alpha   90.00000000
_cell_angle_beta   119.54123334
_cell_angle_gamma   90.00000000
_symmetry_Int_Tables_number   1
_chemical_formula_structural   MnBi2(IO)8
_chemical_formula_sum   'Mn2 Bi4 I16 O16'
_cell_volume   1201.87711375
_cell_formula_units_Z   2
loop_
 _symmetry_equiv_pos_site_id
 _symmetry_equiv_pos_as_xyz
  1  'x, y, z'
loop_
 _atom_site_type_symbol
 _atom_site_label
 _atom_site_symmetry_multiplicity
 _atom_site_fract_x
 _atom_site_fract_y
 _atom_site_fract_z
 _atom_site_occupancy
  Mn  Mn0  1  0.00000000  0.50000000  0.50000000  1
  Mn  Mn1  1  0.00000000  0.00000000  0.00000000  1
  Bi  Bi0  1  0.31879500  0.01857600  0.58601000  1
  Bi  Bi1  1  0.68120500  0.51857600  0.91399000  1
  Bi  Bi2  1  0.68120500  0.98142400  0.41399000  1
  Bi  Bi3  1  0.31879500  0.48142400  0.08601000  1
  I  I0  1  0.99430500  0.14892700  0.42916800  1
  I  I1  1  0.00569400  0.64892700  0.07083200  1
  I  I2  1  0.00569400  0.85107300  0.57083200  1
  I  I3  1  0.99430500  0.35107300  0.92916800  1
  I  I4  1  0.57918400  0.15246700  0.55387100  1
  I  I5  1  0.42081600  0.65246700  0.94612900  1
  I  I6  1  0.42081600  0.84753300  0.44612900  1
  I  I7  1  0.57918400  0.34753300  0.05387100  1
  I  I8  1  0.11088400  0.13871500  0.76465700  1
  I  I9  1  0.88911600  0.63871500  0.73534300  1
  I  I10  1  0.88911600  0.86128500  0.23534300  1
  I  I11  1  0.11088400  0.36128500  0.26465700  1
  I  I12  1  0.56682500  0.02810400  0.88210300  1
  I  I13  1  0.43317500  0.52810400  0.61789700  1
  I  I14  1  0.43317500  0.97189600  0.11789700  1
  I  I15  1  0.56682500  0.47189600  0.38210300  1
  O  O0  1  0.98289500  0.59031300  0.63717400  1
  O  O1  1  0.01710500  0.09031300  0.86282600  1
  O  O2  1  0.01710500  0.40968700  0.36282600  1
  O  O3  1  0.98289500  0.90968700  0.13717400  1
  O  O4  1  0.23009900  0.60891300  0.51630000  1
  O  O5  1  0.76990100  0.10891300  0.98370000  1
  O  O6  1  0.76990100  0.39108700  0.48370000  1
  O  O7  1  0.23009900  0.89108700  0.01630000  1
  O  O8  1  0.26911300  0.44154100  0.64068400  1
  O  O9  1  0.73088700  0.94154100  0.85931600  1
  O  O10  1  0.73088700  0.55845900  0.35931600  1
  O  O11  1  0.26911300  0.05845900  0.14068400  1
  O  O12  1  0.37365100  0.33808600  0.37293900  1
  O  O13  1  0.62634900  0.83808600  0.12706100  1
  O  O14  1  0.62634900  0.66191400  0.62706100  1
  O  O15  1  0.37365100  0.16191400  0.87293900  1
loop_
_geom_bond_atom_site_label_1
_geom_bond_atom_site_label_2
_geom_bond_distance
_geom_bond_site_symmetry_2
Mn0 O8 2.165707 1_555
Mn0 O10 2.165707 1_455
Mn0 O0 2.178751 1_455
Mn0 O2 2.178751 1_555
Mn0 O6 2.303279 1_455
Mn0 O4 2.303279 1_555
Mn1 O11 2.165707 1_555
Mn1 O9 2.165707 1_444
Mn1 O3 2.178751 1_445
Mn1 O1 2.178751 1_554
Mn1 O7 2.303279 1_545
Mn1 O5 2.303279 1_454
Bi0 I4 2.954491 1_555
Bi0 I0 2.965909 1_455
Bi0 I12 3.250660 1_555
Bi0 I6 3.259030 1_545
Bi0 I2 3.335878 1_545
Bi1 I5 2.954491 1_555
Bi1 I1 2.965904 1_656
Bi1 I13 3.250660 1_555
Bi1 I7 3.259030 1_556
Bi1 I3 3.335872 1_555
Bi2 I6 2.954491 1_555
Bi2 I2 2.965904 1_655
Bi2 I14 3.250660 1_555
Bi2 I4 3.259030 1_565
Bi2 I0 3.335872 1_565
Bi3 I7 2.954491 1_555
Bi3 I3 2.965909 1_454
Bi3 I15 3.250660 1_555
Bi3 I5 3.259030 1_554
Bi3 I1 3.335878 1_555
I8 O1 1.859016 1_555
I8 O15 1.897622 1_555
I9 O0 1.859016 1_555
I9 O14 1.897622 1_555
I10 O3 1.859016 1_555
I10 O13 1.897622 1_555
I11 O2 1.859016 1_555
I11 O12 1.897622 1_555
I12 O5 1.860441 1_555
I12 O9 1.895766 1_545
I12 O15 2.361294 1_555
I13 O4 1.860441 1_555
I13 O8 1.895766 1_555
I13 O14 2.361294 1_555
I14 O7 1.860441 1_555
I14 O11 1.895766 1_565
I14 O13 2.361294 1_555
I15 O6 1.860441 1_555
I15 O10 1.895766 1_555
I15 O12 2.361294 1_555
