# generated using pymatgen
data_Y11Sn10
_symmetry_space_group_name_H-M   'P 1'
_cell_length_a   11.62327357
_cell_length_b   11.62328772
_cell_length_c   11.87768437
_cell_angle_alpha   119.29399346
_cell_angle_beta   119.29713683
_cell_angle_gamma   90.00000000
_symmetry_Int_Tables_number   1
_chemical_formula_structural   Y11Sn10
_chemical_formula_sum   'Y22 Sn20'
_cell_volume   1158.42298365
_cell_formula_units_Z   2
loop_
 _symmetry_equiv_pos_site_id
 _symmetry_equiv_pos_as_xyz
  1  'x, y, z'
loop_
 _atom_site_type_symbol
 _atom_site_label
 _atom_site_symmetry_multiplicity
 _atom_site_fract_x
 _atom_site_fract_y
 _atom_site_fract_z
 _atom_site_occupancy
  Y  Y0  1  0.93743161  0.18910171  0.37820142  1
  Y  Y1  1  0.44075388  0.18913262  0.37826425  1
  Y  Y2  1  0.18914786  0.44076053  0.37823301  1
  Y  Y3  1  0.18914786  0.93747248  0.37823301  1
  Y  Y4  1  0.06255849  0.81089468  0.62178735  1
  Y  Y5  1  0.55924582  0.81086245  0.62172490  1
  Y  Y6  1  0.81084702  0.55923979  0.62175607  1
  Y  Y7  1  0.81084702  0.06251727  0.62175607  1
  Y  Y8  1  0.82496921  0.17499087  0.99995861  1
  Y  Y9  1  0.17502021  0.82499972  0.00001950  1
  Y  Y10  1  0.17502021  0.17502078  0.00001950  1
  Y  Y11  1  0.82496921  0.82496674  0.99995861  1
  Y  Y12  1  0.33682915  0.33681919  0.67363638  1
  Y  Y13  1  0.66317441  0.66318508  0.32637216  1
  Y  Y14  1  0.06904112  0.39857053  0.79714205  1
  Y  Y15  1  0.72805504  0.39861688  0.79723577  1
  Y  Y16  1  0.39861532  0.72807969  0.79718742  1
  Y  Y17  1  0.39861532  0.06910874  0.79718742  1
  Y  Y18  1  0.93096370  0.60143097  0.20286095  1
  Y  Y19  1  0.27194616  0.60138462  0.20276823  1
  Y  Y20  1  0.60138688  0.27192162  0.20281677  1
  Y  Y21  1  0.60138688  0.93089315  0.20281677  1
  Sn  Sn0  1  0.00000185  0.35527312  0.00000332  1
  Sn  Sn1  1  0.00000185  0.64472920  0.00000332  1
  Sn  Sn2  1  0.35524868  0.99997417  0.99995134  1
  Sn  Sn3  1  0.64475459  0.00002711  0.00005222  1
  Sn  Sn4  1  0.11469810  0.11470321  0.22940643  1
  Sn  Sn5  1  0.88529062  0.88528281  0.77056562  1
  Sn  Sn6  1  0.62770479  0.37238584  0.00009330  1
  Sn  Sn7  1  0.37230903  0.62763235  0.99994132  1
  Sn  Sn8  1  0.37230903  0.37230796  0.99994132  1
  Sn  Sn9  1  0.62770479  0.62770746  0.00009330  1
  Sn  Sn10  1  0.74997471  0.25000093  0.50000087  1
  Sn  Sn11  1  0.25002376  0.74999812  0.49999524  1
  Sn  Sn12  1  0.11691200  0.52927408  0.64620216  1
  Sn  Sn13  1  0.52934514  0.11686877  0.64622823  1
  Sn  Sn14  1  0.52934514  0.52936046  0.64622823  1
  Sn  Sn15  1  0.11691200  0.11692908  0.64620216  1
  Sn  Sn16  1  0.88307107  0.47074929  0.35380022  1
  Sn  Sn17  1  0.47067370  0.88311894  0.35377796  1
  Sn  Sn18  1  0.47067370  0.47065802  0.35377796  1
  Sn  Sn19  1  0.88307107  0.88305293  0.35380022  1
loop_
_geom_bond_atom_site_label_1
_geom_bond_atom_site_label_2
_geom_bond_distance
_geom_bond_site_symmetry_2
Sn0 Y8 2.920249 1_454
Sn0 Y10 2.920253 1_555
Sn0 Y18 3.127582 1_455
Sn0 Y14 3.127615 1_554
Sn0 Y19 3.127691 1_555
Sn0 Y15 3.127703 1_454
Sn0 Y2 3.459587 1_555
Sn0 Y7 3.459747 1_454
Sn1 Y11 2.920249 1_454
Sn1 Y9 2.920270 1_555
Sn1 Y18 3.127570 1_455
Sn1 Y14 3.127615 1_554
Sn1 Y19 3.127678 1_555
Sn1 Y15 3.127709 1_454
Sn1 Y3 3.459591 1_555
Sn1 Y6 3.459755 1_454
Sn2 Y9 2.920257 1_556
Sn2 Y10 2.920289 1_566
Sn2 Y16 3.127582 1_555
Sn2 Y17 3.127612 1_565
Sn2 Y21 3.127680 1_556
Sn2 Y20 3.127687 1_566
Sn2 Y4 3.458904 1_555
Sn2 Y1 3.460427 1_566
Sn3 Y8 2.920264 1_554
Sn3 Y11 2.920288 1_544
Sn3 Y20 3.127592 1_555
Sn3 Y21 3.127621 1_545
Sn3 Y17 3.127688 1_554
Sn3 Y16 3.127695 1_544
Sn3 Y0 3.458762 1_555
Sn3 Y5 3.460558 1_544
Sn4 Y1 3.191032 1_555
Sn4 Y2 3.191190 1_555
Sn4 Y3 3.191190 1_545
Sn4 Y0 3.191370 1_455
Sn4 Y9 3.485009 1_545
Sn4 Y10 3.485016 1_555
Sn4 Y8 3.485088 1_454
Sn4 Y11 3.485095 1_444
Sn4 Y12 3.809058 1_555
Sn5 Y5 3.190948 1_555
Sn5 Y6 3.191070 1_555
Sn5 Y7 3.191081 1_565
Sn5 Y4 3.191238 1_655
Sn5 Y8 3.485065 1_565
Sn5 Y11 3.485072 1_555
Sn5 Y9 3.485091 1_656
Sn5 Y10 3.485098 1_666
Sn5 Y13 3.808745 1_555
Sn6 Sn8 2.967652 1_554
Sn6 Sn9 2.967677 1_555
Sn6 Y8 3.243667 1_554
Sn6 Y20 3.275280 1_555
Sn6 Y15 3.275425 1_554
Sn6 Y18 3.275656 1_555
Sn6 Y17 3.275763 1_554
Sn6 Y13 3.497344 1_555
Sn6 Y12 3.498305 1_554
Sn7 Sn9 2.967652 1_556
Sn7 Sn8 2.967709 1_555
Sn7 Y9 3.243640 1_556
Sn7 Y19 3.275270 1_556
Sn7 Y16 3.275424 1_555
Sn7 Y21 3.275634 1_556
Sn7 Y14 3.275748 1_555
Sn7 Y12 3.497541 1_555
Sn7 Y13 3.498144 1_556
Sn8 Y10 3.243624 1_556
Sn8 Y19 3.275281 1_556
Sn8 Y17 3.275407 1_555
Sn8 Y20 3.275642 1_556
Sn8 Y14 3.275748 1_555
Sn8 Y12 3.497556 1_555
Sn8 Y13 3.498139 1_556
Sn9 Y11 3.243658 1_554
Sn9 Y21 3.275263 1_555
Sn9 Y15 3.275435 1_554
Sn9 Y18 3.275651 1_555
Sn9 Y16 3.275771 1_554
Sn9 Y13 3.497354 1_555
Sn9 Y12 3.498295 1_554
Sn10 Y1 3.069534 1_555
Sn10 Y6 3.069753 1_555
Sn10 Y7 3.069753 1_555
Sn10 Y0 3.069894 1_555
Sn10 Y14 3.227698 1_655
Sn10 Y20 3.228216 1_555
Sn10 Y21 3.228237 1_545
Sn10 Y15 3.228837 1_555
Sn11 Y5 3.069566 1_555
Sn11 Y3 3.069711 1_555
Sn11 Y2 3.069722 1_555
Sn11 Y4 3.069924 1_555
Sn11 Y18 3.227631 1_455
Sn11 Y17 3.228283 1_565
Sn11 Y16 3.228283 1_555
Sn11 Y19 3.228775 1_555
Sn12 Sn16 2.891703 1_455
Sn12 Y14 3.077885 1_555
Sn12 Y16 3.078125 1_555
Sn12 Sn7 3.296279 1_555
Sn12 Y0 3.361948 1_455
Sn12 Y2 3.362281 1_555
Sn12 Y12 3.397387 1_555
Sn12 Y4 3.456545 1_555
Sn12 Y6 3.456776 1_455
Sn12 Y9 3.608132 1_556
Sn13 Sn17 2.891208 1_545
Sn13 Y17 3.077758 1_555
Sn13 Y15 3.077960 1_555
Sn13 Sn6 3.297767 1_556
Sn13 Y3 3.361909 1_545
Sn13 Y1 3.362231 1_555
Sn13 Y12 3.398168 1_555
Sn13 Y7 3.455502 1_555
Sn13 Y5 3.455763 1_545
Sn13 Y8 3.606835 1_555
Sn14 Sn18 2.891200 1_555
Sn14 Y16 3.077758 1_555
Sn14 Y15 3.077988 1_555
Sn14 Sn9 3.297770 1_556
Sn14 Y2 3.361907 1_555
Sn14 Y1 3.362230 1_555
Sn14 Y12 3.398160 1_555
Sn14 Y6 3.455502 1_555
Sn14 Y5 3.455752 1_555
Sn14 Y11 3.606826 1_555
Sn15 Sn19 2.891699 1_445
Sn15 Y14 3.077867 1_555
Sn15 Y17 3.078125 1_555
Sn15 Sn8 3.296272 1_555
Sn15 Y0 3.361957 1_455
Sn15 Y3 3.362282 1_545
Sn15 Y12 3.397395 1_555
Sn15 Y4 3.456534 1_545
Sn15 Y7 3.456776 1_455
Sn15 Y10 3.608132 1_556
Sn16 Y18 3.077798 1_555
Sn16 Y20 3.078078 1_555
Sn16 Sn6 3.295909 1_555
Sn16 Y4 3.361727 1_655
Sn16 Y6 3.362080 1_555
Sn16 Y13 3.397059 1_555
Sn16 Y0 3.456793 1_555
Sn16 Y2 3.457008 1_655
Sn16 Y8 3.608481 1_554
Sn17 Y21 3.077706 1_555
Sn17 Y19 3.077923 1_555
Sn17 Sn7 3.297428 1_554
Sn17 Y7 3.361701 1_565
Sn17 Y5 3.362018 1_555
Sn17 Y13 3.397905 1_555
Sn17 Y3 3.455688 1_555
Sn17 Y1 3.455954 1_565
Sn17 Y9 3.607181 1_555
Sn18 Y20 3.077711 1_555
Sn18 Y19 3.077941 1_555
Sn18 Sn8 3.297428 1_554
Sn18 Y6 3.361697 1_555
Sn18 Y5 3.362027 1_555
Sn18 Y13 3.397897 1_555
Sn18 Y2 3.455686 1_555
Sn18 Y1 3.455931 1_555
Sn18 Y10 3.607172 1_555
Sn19 Y18 3.077807 1_555
Sn19 Y21 3.078056 1_555
Sn19 Sn9 3.295915 1_555
Sn19 Y4 3.361727 1_655
Sn19 Y7 3.362078 1_565
Sn19 Y13 3.397092 1_555
Sn19 Y0 3.456793 1_565
Sn19 Y3 3.457005 1_655
Sn19 Y11 3.608468 1_554
