# generated using pymatgen
data_RbY(SeO3)2
_symmetry_space_group_name_H-M   'P 1'
_cell_length_a   5.86168500
_cell_length_b   8.95031400
_cell_length_c   14.02784000
_cell_angle_alpha   90.00000000
_cell_angle_beta   90.00000000
_cell_angle_gamma   90.00000000
_symmetry_Int_Tables_number   1
_chemical_formula_structural   RbY(SeO3)2
_chemical_formula_sum   'Rb4 Y4 Se8 O24'
_cell_volume   735.95549404
_cell_formula_units_Z   4
loop_
 _symmetry_equiv_pos_site_id
 _symmetry_equiv_pos_as_xyz
  1  'x, y, z'
loop_
 _atom_site_type_symbol
 _atom_site_label
 _atom_site_symmetry_multiplicity
 _atom_site_fract_x
 _atom_site_fract_y
 _atom_site_fract_z
 _atom_site_occupancy
  Rb  Rb0  1  0.25000000  0.99180900  0.62684700  1
  Rb  Rb1  1  0.25000000  0.50819100  0.12684700  1
  Rb  Rb2  1  0.75000000  0.00819100  0.37315300  1
  Rb  Rb3  1  0.75000000  0.49180900  0.87315300  1
  Y  Y0  1  0.25000000  0.81084900  0.89911900  1
  Y  Y1  1  0.25000000  0.68915100  0.39911900  1
  Y  Y2  1  0.75000000  0.18915100  0.10088100  1
  Y  Y3  1  0.75000000  0.31084900  0.60088100  1
  Se  Se0  1  0.75000000  0.01763300  0.79747500  1
  Se  Se1  1  0.75000000  0.48236700  0.29747500  1
  Se  Se2  1  0.25000000  0.98236700  0.20252500  1
  Se  Se3  1  0.25000000  0.51763300  0.70252500  1
  Se  Se4  1  0.75000000  0.71485100  0.56187900  1
  Se  Se5  1  0.75000000  0.78514900  0.06187900  1
  Se  Se6  1  0.25000000  0.28514900  0.43812100  1
  Se  Se7  1  0.25000000  0.21485100  0.93812100  1
  O  O0  1  0.97948400  0.89712000  0.79531400  1
  O  O1  1  0.52051600  0.60288000  0.29531400  1
  O  O2  1  0.47948400  0.10288000  0.20468600  1
  O  O3  1  0.02051600  0.39712000  0.70468600  1
  O  O4  1  0.02051600  0.10288000  0.20468600  1
  O  O5  1  0.47948400  0.39712000  0.70468600  1
  O  O6  1  0.52051600  0.89712000  0.79531400  1
  O  O7  1  0.97948400  0.60288000  0.29531400  1
  O  O8  1  0.75000000  0.08484400  0.68131500  1
  O  O9  1  0.75000000  0.41515600  0.18131500  1
  O  O10  1  0.25000000  0.91515600  0.31868500  1
  O  O11  1  0.25000000  0.58484400  0.81868500  1
  O  O12  1  0.97995600  0.78780200  0.49991900  1
  O  O13  1  0.52004400  0.71219800  0.99991900  1
  O  O14  1  0.47995600  0.21219800  0.50008100  1
  O  O15  1  0.02004400  0.28780200  0.00008100  1
  O  O16  1  0.02004400  0.21219800  0.50008100  1
  O  O17  1  0.47995600  0.28780200  0.00008100  1
  O  O18  1  0.52004400  0.78780200  0.49991900  1
  O  O19  1  0.97995600  0.71219800  0.99991900  1
  O  O20  1  0.75000000  0.53221600  0.52604500  1
  O  O21  1  0.75000000  0.96778400  0.02604500  1
  O  O22  1  0.25000000  0.46778400  0.47395500  1
  O  O23  1  0.25000000  0.03221600  0.97395500  1
loop_
_geom_bond_atom_site_label_1
_geom_bond_atom_site_label_2
_geom_bond_distance
_geom_bond_site_symmetry_2
O0 Se0 1.724478 1_565
O0 Y0 2.287138 1_655
O0 Rb0 2.969424 1_655
O1 Se1 1.724478 1_555
O1 Y1 2.287138 1_555
O1 Rb1 2.969424 1_555
O2 Se2 1.724478 1_545
O2 Y2 2.287138 1_555
O2 Rb2 2.969424 1_555
O3 Se3 1.724478 1_555
O3 Y3 2.287138 1_455
O3 Rb3 2.969424 1_455
O4 Se2 1.724478 1_545
O4 Y2 2.287138 1_455
O4 Rb2 2.969424 1_455
O5 Se3 1.724478 1_555
O5 Y3 2.287138 1_555
O5 Rb3 2.969424 1_555
O6 Se0 1.724478 1_565
O6 Y0 2.287138 1_555
O6 Rb0 2.969424 1_555
O7 Se1 1.724478 1_555
O7 Y1 2.287138 1_655
O7 Rb1 2.969424 1_655
O8 Se0 1.736968 1_555
O8 Y3 2.316221 1_555
O8 Rb0 3.141181 1_545
O8 Rb0 3.141181 1_645
O9 Se1 1.736968 1_555
O9 Y2 2.316221 1_555
O9 Rb1 3.141181 1_655
O9 Rb1 3.141181 1_555
O10 Se2 1.736968 1_555
O10 Y1 2.316221 1_555
O10 Rb2 3.141181 1_465
O10 Rb2 3.141181 1_565
O11 Se3 1.736968 1_555
O11 Y0 2.316221 1_555
O11 Rb3 3.141181 1_555
O11 Rb3 3.141181 1_455
O12 Se4 1.731671 1_555
O12 Y1 2.298835 1_655
O12 Rb2 2.978264 1_565
O12 Rb0 3.001648 1_655
O13 Se5 1.731671 1_556
O13 Y0 2.298835 1_555
O13 Rb3 2.978264 1_555
O13 Rb1 3.001648 1_556
O14 Se6 1.731671 1_555
O14 Y3 2.298835 1_555
O14 Rb0 2.978264 1_545
O14 Rb2 3.001648 1_555
O15 Se7 1.731671 1_554
O15 Y2 2.298835 1_455
O15 Rb1 2.978264 1_555
O15 Rb3 3.001648 1_454
O16 Se6 1.731671 1_555
O16 Y3 2.298835 1_455
O16 Rb0 2.978264 1_545
O16 Rb2 3.001648 1_455
O17 Se7 1.731671 1_554
O17 Y2 2.298835 1_555
O17 Rb1 2.978264 1_555
O17 Rb3 3.001648 1_554
O18 Se4 1.731671 1_555
O18 Y1 2.298835 1_555
O18 Rb2 2.978264 1_565
O18 Rb0 3.001648 1_555
O19 Se5 1.731671 1_556
O19 Y0 2.298835 1_655
O19 Rb3 2.978264 1_555
O19 Rb1 3.001648 1_656
O20 Se4 1.710184 1_555
O20 Y3 2.242235 1_555
O21 Se5 1.710184 1_555
O21 Y2 2.242235 1_565
O22 Se6 1.710184 1_555
O22 Y1 2.242235 1_555
O23 Se7 1.710184 1_555
O23 Y0 2.242235 1_545
