# generated using pymatgen
data_LiSmSn
_symmetry_space_group_name_H-M   'P 1'
_cell_length_a   9.42595860
_cell_length_b   9.42595860
_cell_length_c   7.59358802
_cell_angle_alpha   90.00000000
_cell_angle_beta   90.00000000
_cell_angle_gamma   120.00028272
_symmetry_Int_Tables_number   1
_chemical_formula_structural   LiSmSn
_chemical_formula_sum   'Li8 Sm8 Sn8'
_cell_volume   584.28869254
_cell_formula_units_Z   8
loop_
 _symmetry_equiv_pos_site_id
 _symmetry_equiv_pos_as_xyz
  1  'x, y, z'
loop_
 _atom_site_type_symbol
 _atom_site_label
 _atom_site_symmetry_multiplicity
 _atom_site_fract_x
 _atom_site_fract_y
 _atom_site_fract_z
 _atom_site_occupancy
  Li  Li0  1  0.83316752  0.16683248  0.70979505  1
  Li  Li1  1  0.83316819  0.66633786  0.70979715  1
  Li  Li2  1  0.33366214  0.16683181  0.70979715  1
  Li  Li3  1  0.16683248  0.83316752  0.20979505  1
  Li  Li4  1  0.16683181  0.33366214  0.20979715  1
  Li  Li5  1  0.66633786  0.83316819  0.20979715  1
  Li  Li6  1  0.66666609  0.33333391  0.33015057  1
  Li  Li7  1  0.33333391  0.66666609  0.83015057  1
  Sm  Sm0  1  0.48826648  0.51173352  0.50590223  1
  Sm  Sm1  1  0.48826553  0.97653121  0.50590164  1
  Sm  Sm2  1  0.02346879  0.51173447  0.50590164  1
  Sm  Sm3  1  0.51173352  0.48826648  0.00590223  1
  Sm  Sm4  1  0.51173447  0.02346879  0.00590164  1
  Sm  Sm5  1  0.97653121  0.48826553  0.00590164  1
  Sm  Sm6  1  0.00000010  0.99999990  0.50138713  1
  Sm  Sm7  1  0.99999990  0.00000010  0.00138713  1
  Sn  Sn0  1  0.83327080  0.16672920  0.27106993  1
  Sn  Sn1  1  0.83327030  0.66654224  0.27106650  1
  Sn  Sn2  1  0.33345776  0.16672970  0.27106650  1
  Sn  Sn3  1  0.16672920  0.83327080  0.77106993  1
  Sn  Sn4  1  0.16672970  0.33345776  0.77106650  1
  Sn  Sn5  1  0.66654224  0.83327030  0.77106650  1
  Sn  Sn6  1  0.66666485  0.33333515  0.73717150  1
  Sn  Sn7  1  0.33333515  0.66666485  0.23717150  1
loop_
_geom_bond_atom_site_label_1
_geom_bond_atom_site_label_2
_geom_bond_distance
_geom_bond_site_symmetry_2
Li0 Sn6 2.726304 1_555
Li0 Sn4 2.762366 1_655
Li0 Sn5 2.762366 1_545
Li0 Sm6 3.150133 1_645
Li0 Sm1 3.217506 1_545
Li0 Sm2 3.217506 1_655
Li0 Sn0 3.331498 1_555
Li0 Sm5 3.459387 1_556
Li0 Sm4 3.459387 1_556
Li0 Sm7 3.510217 1_556
Li1 Sn6 2.726269 1_555
Li1 Sn5 2.762344 1_555
Li1 Sn3 2.762358 1_655
Li1 Sm6 3.150109 1_655
Li1 Sm0 3.217509 1_555
Li1 Sm2 3.217538 1_655
Li1 Sn1 3.331540 1_555
Li1 Sm3 3.459388 1_556
Li1 Sm5 3.459399 1_556
Li1 Sm7 3.510182 1_566
Li2 Sn6 2.726269 1_555
Li2 Sn4 2.762344 1_555
Li2 Sn3 2.762358 1_545
Li2 Sm6 3.150109 1_545
Li2 Sm0 3.217509 1_555
Li2 Sm1 3.217538 1_545
Li2 Sn2 3.331540 1_555
Li2 Sm3 3.459388 1_556
Li2 Sm4 3.459399 1_556
Li2 Sm7 3.510182 1_456
Li3 Sn7 2.726304 1_555
Li3 Sn2 2.762366 1_565
Li3 Sn1 2.762366 1_455
Li3 Sm7 3.150133 1_465
Li3 Sm5 3.217506 1_455
Li3 Sm4 3.217506 1_565
Li3 Sn3 3.331498 1_554
Li3 Sm2 3.459387 1_555
Li3 Sm1 3.459387 1_555
Li3 Sm6 3.510217 1_555
Li4 Sn7 2.726269 1_555
Li4 Sn2 2.762344 1_555
Li4 Sn0 2.762358 1_455
Li4 Sm7 3.150109 1_455
Li4 Sm3 3.217509 1_555
Li4 Sm5 3.217538 1_455
Li4 Sn4 3.331540 1_554
Li4 Sm0 3.459388 1_555
Li4 Sm2 3.459399 1_555
Li4 Sm6 3.510182 1_545
Li5 Sn7 2.726269 1_555
Li5 Sn1 2.762344 1_555
Li5 Sn0 2.762358 1_565
Li5 Sm7 3.150109 1_565
Li5 Sm3 3.217509 1_555
Li5 Sm4 3.217538 1_565
Li5 Sn5 3.331540 1_554
Li5 Sm0 3.459388 1_555
Li5 Sm1 3.459399 1_555
Li5 Sm6 3.510182 1_655
Li6 Sn2 2.756766 1_555
Li6 Sn1 2.756766 1_555
Li6 Sn0 2.756782 1_555
Li6 Sn6 3.090749 1_555
Li6 Sm0 3.203803 1_555
Li6 Sm2 3.203815 1_655
Li6 Sm1 3.203815 1_545
Li6 Sm5 3.529965 1_555
Li6 Sm4 3.529965 1_555
Li6 Sm3 3.529970 1_555
Li7 Sn4 2.756766 1_555
Li7 Sn5 2.756766 1_555
Li7 Sn3 2.756782 1_555
Li7 Sn7 3.090749 1_556
Li7 Sm3 3.203803 1_556
Li7 Sm4 3.203815 1_566
Li7 Sm5 3.203815 1_456
Li7 Sm1 3.529965 1_555
Li7 Sm2 3.529965 1_555
Li7 Sm0 3.529970 1_555
Sm0 Sn7 3.249967 1_555
Sm0 Sn5 3.312226 1_555
Sm0 Sn4 3.312226 1_555
Sm0 Sn1 3.337563 1_555
Sm0 Sn2 3.337563 1_555
Sm0 Sn6 3.401062 1_555
Sm0 Sm3 3.816076 1_555
Sm0 Sm3 3.816076 1_556
Sm1 Sn7 3.249980 1_555
Sm1 Sn3 3.312243 1_555
Sm1 Sn5 3.312244 1_555
Sm1 Sn0 3.337556 1_565
Sm1 Sn2 3.337588 1_565
Sm1 Sn6 3.401104 1_565
Sm1 Sm4 3.816078 1_566
Sm1 Sm4 3.816078 1_565
Sm2 Sn7 3.249980 1_555
Sm2 Sn3 3.312243 1_555
Sm2 Sn4 3.312244 1_555
Sm2 Sn0 3.337556 1_455
Sm2 Sn1 3.337588 1_455
Sm2 Sn6 3.401104 1_455
Sm2 Sm5 3.816078 1_455
Sm2 Sm5 3.816078 1_456
Sm3 Sn6 3.249967 1_554
Sm3 Sn1 3.312226 1_555
Sm3 Sn2 3.312226 1_555
Sm3 Sn5 3.337563 1_554
Sm3 Sn4 3.337563 1_554
Sm3 Sn7 3.401062 1_555
Sm4 Sn6 3.249980 1_554
Sm4 Sn0 3.312243 1_555
Sm4 Sn2 3.312244 1_555
Sm4 Sn3 3.337556 1_544
Sm4 Sn5 3.337588 1_544
Sm4 Sn7 3.401104 1_545
Sm5 Sn6 3.249980 1_554
Sm5 Sn0 3.312243 1_555
Sm5 Sn1 3.312244 1_555
Sm5 Sn3 3.337556 1_654
Sm5 Sn4 3.337588 1_654
Sm5 Sn7 3.401104 1_655
Sm6 Sn1 3.235491 1_455
Sm6 Sn2 3.235491 1_565
Sm6 Sn0 3.235493 1_465
Sm6 Sn5 3.406343 1_455
Sm6 Sn4 3.406343 1_565
Sm6 Sn3 3.406370 1_555
Sm6 Sm7 3.796794 1_466
Sm6 Sm7 3.796794 1_465
Sm7 Sn5 3.235491 1_544
Sm7 Sn4 3.235491 1_654
Sm7 Sn3 3.235493 1_644
Sm7 Sn1 3.406343 1_545
Sm7 Sn2 3.406343 1_655
Sm7 Sn0 3.406370 1_555
