# generated using pymatgen
data_LiMn6(OF2)4
_symmetry_space_group_name_H-M   'P 1'
_cell_length_a   5.05257762
_cell_length_b   7.96757277
_cell_length_c   5.91906962
_cell_angle_alpha   94.73048300
_cell_angle_beta   95.40223287
_cell_angle_gamma   85.88003987
_symmetry_Int_Tables_number   1
_chemical_formula_structural   LiMn6(OF2)4
_chemical_formula_sum   'Li1 Mn6 O4 F8'
_cell_volume   235.92262061
_cell_formula_units_Z   1
loop_
 _symmetry_equiv_pos_site_id
 _symmetry_equiv_pos_as_xyz
  1  'x, y, z'
loop_
 _atom_site_type_symbol
 _atom_site_label
 _atom_site_symmetry_multiplicity
 _atom_site_fract_x
 _atom_site_fract_y
 _atom_site_fract_z
 _atom_site_occupancy
  Li  Li0  1  0.48369800  0.48858500  0.47992800  1
  Mn  Mn0  1  0.48464800  0.01012900  0.50532100  1
  Mn  Mn1  1  0.62770200  0.68505500  0.15696700  1
  Mn  Mn2  1  0.46385200  0.33220700  0.87851900  1
  Mn  Mn3  1  0.97645500  0.68360700  0.66560400  1
  Mn  Mn4  1  0.98829500  0.33139900  0.35827600  1
  Mn  Mn5  1  0.00703600  0.99295900  0.00333600  1
  O  O0  1  0.84675100  0.76216900  0.94401300  1
  O  O1  1  0.65971800  0.75435500  0.48144000  1
  O  O2  1  0.67061800  0.44123900  0.17794700  1
  O  O3  1  0.30717500  0.26160300  0.53627400  1
  F  F0  1  0.81025900  0.42624500  0.65112900  1
  F  F1  1  0.82902200  0.09663600  0.31628700  1
  F  F2  1  0.67279400  0.10132400  0.82398400  1
  F  F3  1  0.32174500  0.58485200  0.82961200  1
  F  F4  1  0.36966300  0.90065300  0.16415300  1
  F  F5  1  0.13518900  0.57793700  0.38293300  1
  F  F6  1  0.16051800  0.24097300  0.05783200  1
  F  F7  1  0.17097000  0.91973800  0.68019600  1
loop_
_geom_bond_atom_site_label_1
_geom_bond_atom_site_label_2
_geom_bond_distance
_geom_bond_site_symmetry_2
Li0 O2 2.093960 1_555
Li0 O3 2.136500 1_555
Li0 O1 2.353932 1_555
Mn0 O3 2.136450 1_555
Mn0 O1 2.161587 1_545
Mn1 O0 1.918173 1_554
Mn1 O1 1.949125 1_555
Mn1 O2 1.952027 1_555
Mn2 O2 2.124869 1_556
Mn2 O3 2.149638 1_555
Mn3 O0 1.873819 1_555
Mn3 O1 1.926227 1_555
Mn4 O3 1.914004 1_655
Mn4 O2 2.027596 1_555
Mn5 O0 2.052904 1_454
F0 Li0 1.909564 1_555
F0 Mn4 2.089222 1_555
F0 Mn3 2.263210 1_555
F0 Mn2 2.496924 1_555
F1 Mn4 2.076070 1_555
F1 Mn5 2.208443 1_645
F1 Mn0 2.328227 1_555
F2 Mn2 2.071210 1_555
F2 Mn5 2.080514 1_646
F2 Mn0 2.127186 1_555
F3 Mn3 2.053047 1_455
F3 Mn2 2.121478 1_555
F3 Li0 2.347096 1_555
F3 Mn1 2.477850 1_556
F4 Mn1 2.080625 1_555
F4 Mn5 2.096997 1_555
F4 Mn0 2.176627 1_565
F5 Li0 1.906313 1_555
F5 Mn3 2.018616 1_455
F5 Mn4 2.138333 1_455
F6 Mn4 2.104465 1_455
F6 Mn2 2.144166 1_554
F6 Mn5 2.162921 1_545
F7 Mn0 2.167447 1_565
F7 Mn5 2.174768 1_556
F7 Mn3 2.176211 1_455
