# generated using pymatgen
data_Ba3Ta6Fe2O21
_symmetry_space_group_name_H-M   'P 1'
_cell_length_a   9.24490042
_cell_length_b   9.24490042
_cell_length_c   12.10565375
_cell_angle_alpha   89.75445095
_cell_angle_beta   89.75445095
_cell_angle_gamma   59.67657970
_symmetry_Int_Tables_number   1
_chemical_formula_structural   Ba3Ta6Fe2O21
_chemical_formula_sum   'Ba6 Ta12 Fe4 O42'
_cell_volume   893.08633471
_cell_formula_units_Z   2
loop_
 _symmetry_equiv_pos_site_id
 _symmetry_equiv_pos_as_xyz
  1  'x, y, z'
loop_
 _atom_site_type_symbol
 _atom_site_label
 _atom_site_symmetry_multiplicity
 _atom_site_fract_x
 _atom_site_fract_y
 _atom_site_fract_z
 _atom_site_occupancy
  Ba  Ba0  1  0.99344800  0.59273700  0.74963400  1
  Ba  Ba1  1  0.40726300  0.00655200  0.75036600  1
  Ba  Ba2  1  0.59953900  0.40046100  0.75000000  1
  Ba  Ba3  1  0.00655200  0.40726300  0.25036600  1
  Ba  Ba4  1  0.59273700  0.99344800  0.24963400  1
  Ba  Ba5  1  0.40046100  0.59953900  0.25000000  1
  Ta  Ta0  1  0.67946400  0.65994900  0.49917900  1
  Ta  Ta1  1  0.32053600  0.34005100  0.50082100  1
  Ta  Ta2  1  0.34005100  0.32053600  0.00082100  1
  Ta  Ta3  1  0.65994900  0.67946400  0.99917900  1
  Ta  Ta4  1  0.75557700  0.99934200  0.59695600  1
  Ta  Ta5  1  0.24570900  0.75763400  0.59180100  1
  Ta  Ta6  1  0.24442300  0.00065800  0.40304400  1
  Ta  Ta7  1  0.75429100  0.24236600  0.40819900  1
  Ta  Ta8  1  0.99934200  0.75557700  0.09695600  1
  Ta  Ta9  1  0.75763400  0.24570900  0.09180100  1
  Ta  Ta10  1  0.00065800  0.24442300  0.90304400  1
  Ta  Ta11  1  0.24236600  0.75429100  0.90819900  1
  Fe  Fe0  1  0.00165200  0.24522500  0.59176400  1
  Fe  Fe1  1  0.99834800  0.75477500  0.40823600  1
  Fe  Fe2  1  0.24522500  0.00165200  0.09176400  1
  Fe  Fe3  1  0.75477500  0.99834800  0.90823600  1
  O  O0  1  0.99888300  0.21334600  0.75079800  1
  O  O1  1  0.78665400  0.00111700  0.74920200  1
  O  O2  1  0.20647200  0.79352800  0.75000000  1
  O  O3  1  0.00111700  0.78665400  0.24920200  1
  O  O4  1  0.21334600  0.99888300  0.25079800  1
  O  O5  1  0.79352800  0.20647200  0.25000000  1
  O  O6  1  0.00021600  0.80173200  0.57662100  1
  O  O7  1  0.20402700  0.99733900  0.57473400  1
  O  O8  1  0.79235700  0.20427700  0.57362000  1
  O  O9  1  0.99978400  0.19826800  0.42337900  1
  O  O10  1  0.79597300  0.00266100  0.42526600  1
  O  O11  1  0.20764300  0.79572300  0.42638000  1
  O  O12  1  0.99733900  0.20402700  0.07473400  1
  O  O13  1  0.80173200  0.00021600  0.07662100  1
  O  O14  1  0.20427700  0.79235700  0.07362000  1
  O  O15  1  0.00266100  0.79597300  0.92526600  1
  O  O16  1  0.19826800  0.99978400  0.92337900  1
  O  O17  1  0.79572300  0.20764300  0.92638000  1
  O  O18  1  0.48105600  0.68475100  0.59769100  1
  O  O19  1  0.82835100  0.48673200  0.59953800  1
  O  O20  1  0.68412300  0.83249600  0.59864900  1
  O  O21  1  0.51807200  0.16792000  0.59620000  1
  O  O22  1  0.17128900  0.31675500  0.60006700  1
  O  O23  1  0.31499000  0.51878000  0.59900300  1
  O  O24  1  0.51894400  0.31524900  0.40230900  1
  O  O25  1  0.17164900  0.51326800  0.40046200  1
  O  O26  1  0.31587700  0.16750400  0.40135100  1
  O  O27  1  0.48192800  0.83208000  0.40380000  1
  O  O28  1  0.82871100  0.68324500  0.39993300  1
  O  O29  1  0.68501000  0.48122000  0.40099700  1
  O  O30  1  0.51878000  0.31499000  0.09900300  1
  O  O31  1  0.16792000  0.51807200  0.09620000  1
  O  O32  1  0.31675500  0.17128900  0.10006700  1
  O  O33  1  0.48673200  0.82835100  0.09953800  1
  O  O34  1  0.83249600  0.68412300  0.09864900  1
  O  O35  1  0.68475100  0.48105600  0.09769100  1
  O  O36  1  0.48122000  0.68501000  0.90099700  1
  O  O37  1  0.83208000  0.48192800  0.90380000  1
  O  O38  1  0.68324500  0.82871100  0.89993300  1
  O  O39  1  0.51326800  0.17164900  0.90046200  1
  O  O40  1  0.16750400  0.31587700  0.90135100  1
  O  O41  1  0.31524900  0.51894400  0.90230900  1
loop_
_geom_bond_atom_site_label_1
_geom_bond_atom_site_label_2
_geom_bond_distance
_geom_bond_site_symmetry_2
Ba0 O19 2.853238 1_555
Ba0 O6 2.865309 1_655
Ba0 O15 2.873215 1_655
Ba0 O37 2.874182 1_555
Ba0 O22 2.875671 1_655
Ba0 O40 2.887903 1_655
Ba0 O38 3.156878 1_555
Ba0 O20 3.168783 1_555
Ba0 O23 3.246691 1_655
Ba0 O1 3.258909 1_565
Ba0 O41 3.273992 1_655
Ba0 O2 3.319022 1_655
Ba1 O39 2.853238 1_555
Ba1 O16 2.865309 1_545
Ba1 O7 2.873215 1_545
Ba1 O21 2.874182 1_555
Ba1 O38 2.875671 1_545
Ba1 O20 2.887903 1_545
Ba1 O22 3.156878 1_555
Ba1 O40 3.168783 1_555
Ba1 O36 3.246691 1_545
Ba1 O0 3.258909 1_455
Ba1 O18 3.273992 1_545
Ba1 O2 3.319022 1_545
Ba2 O8 2.786057 1_555
Ba2 O17 2.786057 1_555
Ba2 O41 2.928452 1_555
Ba2 O18 2.928452 1_555
Ba2 O23 2.928561 1_555
Ba2 O36 2.928561 1_555
Ba2 O39 3.175935 1_555
Ba2 O19 3.175935 1_555
Ba2 O1 3.189665 1_555
Ba2 O0 3.189665 1_555
Ba2 O21 3.215077 1_555
Ba2 O37 3.215077 1_555
Ba3 O25 2.853238 1_555
Ba3 O9 2.865309 1_455
Ba3 O12 2.873215 1_455
Ba3 O31 2.874182 1_555
Ba3 O28 2.875671 1_455
Ba3 O34 2.887903 1_455
Ba3 O32 3.156878 1_555
Ba3 O26 3.168783 1_555
Ba3 O29 3.246691 1_455
Ba3 O4 3.258909 1_545
Ba3 O35 3.273992 1_455
Ba3 O5 3.319022 1_455
Ba4 O33 2.853238 1_555
Ba4 O13 2.865309 1_565
Ba4 O10 2.873215 1_565
Ba4 O27 2.874182 1_555
Ba4 O32 2.875671 1_565
Ba4 O26 2.887903 1_565
Ba4 O28 3.156878 1_555
Ba4 O34 3.168783 1_555
Ba4 O30 3.246691 1_565
Ba4 O3 3.258909 1_655
Ba4 O24 3.273992 1_565
Ba4 O5 3.319022 1_565
Ba5 O14 2.786057 1_555
Ba5 O11 2.786057 1_555
Ba5 O24 2.928452 1_555
Ba5 O35 2.928452 1_555
Ba5 O30 2.928561 1_555
Ba5 O29 2.928561 1_555
Ba5 O25 3.175935 1_555
Ba5 O33 3.175935 1_555
Ba5 O3 3.189665 1_555
Ba5 O4 3.189665 1_555
Ba5 O31 3.215077 1_555
Ba5 O27 3.215077 1_555
Fe0 O0 1.948405 1_455
Fe0 O19 1.987256 1_455
Fe0 O22 1.988976 1_555
Fe0 O9 2.087900 1_455
Fe0 O7 2.113294 1_545
Fe0 O8 2.163197 1_455
Fe1 O3 1.948405 1_655
Fe1 O25 1.987256 1_655
Fe1 O28 1.988976 1_555
Fe1 O6 2.087900 1_655
Fe1 O10 2.113294 1_565
Fe1 O11 2.163197 1_655
Fe2 O4 1.948405 1_545
Fe2 O33 1.987256 1_545
Fe2 O32 1.988976 1_555
Fe2 O16 2.087900 1_544
Fe2 O12 2.113294 1_455
Fe2 O14 2.163197 1_545
Fe3 O1 1.948405 1_565
Fe3 O39 1.987256 1_565
Fe3 O38 1.988976 1_555
Fe3 O13 2.087900 1_566
Fe3 O15 2.113294 1_655
Fe3 O17 2.163197 1_565
O0 Ta10 1.867929 1_655
O1 Ta4 1.867929 1_545
O2 Ta5 1.946089 1_555
O2 Ta11 1.946089 1_555
O3 Ta8 1.867929 1_455
O4 Ta6 1.867929 1_565
O5 Ta9 1.946089 1_555
O5 Ta7 1.946089 1_555
O6 Ta4 2.083310 1_455
O6 Ta5 2.102264 1_555
O7 Ta5 2.058283 1_555
O7 Ta6 2.112963 1_565
O8 Ta7 2.032936 1_555
O8 Ta4 2.104766 1_545
O9 Ta6 2.083310 1_655
O9 Ta7 2.102264 1_555
O10 Ta7 2.058283 1_555
O10 Ta4 2.112963 1_545
O11 Ta5 2.032936 1_555
O11 Ta6 2.104766 1_565
O12 Ta9 2.058283 1_555
O12 Ta10 2.112963 1_654
O13 Ta8 2.083310 1_545
O13 Ta9 2.102264 1_555
O14 Ta11 2.032936 1_554
O14 Ta8 2.104766 1_455
O15 Ta11 2.058283 1_555
O15 Ta8 2.112963 1_456
O16 Ta10 2.083310 1_565
O16 Ta11 2.102264 1_555
O17 Ta9 2.032936 1_556
O17 Ta10 2.104766 1_655
O18 Ta5 1.927072 1_555
O18 Ta0 2.097184 1_555
O19 Ta0 1.925344 1_555
O20 Ta4 1.960744 1_555
O20 Ta0 2.020573 1_555
O21 Ta4 1.948017 1_545
O21 Ta1 2.066005 1_555
O22 Ta1 1.917615 1_555
O23 Ta5 1.965857 1_555
O23 Ta1 2.018976 1_555
O24 Ta7 1.927072 1_555
O24 Ta1 2.097184 1_555
O25 Ta1 1.925344 1_555
O26 Ta6 1.960744 1_555
O26 Ta1 2.020573 1_555
O27 Ta6 1.948017 1_565
O27 Ta0 2.066005 1_555
O28 Ta0 1.917615 1_555
O29 Ta7 1.965857 1_555
O29 Ta0 2.018976 1_555
O30 Ta9 1.965857 1_555
O30 Ta2 2.018976 1_555
O31 Ta8 1.948017 1_455
O31 Ta2 2.066005 1_555
O32 Ta2 1.917615 1_555
O33 Ta3 1.925344 1_554
O34 Ta8 1.960744 1_555
O34 Ta3 2.020573 1_554
O35 Ta9 1.927072 1_555
O35 Ta3 2.097184 1_554
O36 Ta11 1.965857 1_555
O36 Ta3 2.018976 1_555
O37 Ta10 1.948017 1_655
O37 Ta3 2.066005 1_555
O38 Ta3 1.917615 1_555
O39 Ta2 1.925344 1_556
O40 Ta10 1.960744 1_555
O40 Ta2 2.020573 1_556
O41 Ta11 1.927072 1_555
O41 Ta2 2.097184 1_556
