# generated using pymatgen
data_CaSn2O5
_symmetry_space_group_name_H-M   'P 1'
_cell_length_a   3.92432600
_cell_length_b   6.16933412
_cell_length_c   11.97706800
_cell_angle_alpha   90.00000000
_cell_angle_beta   90.00000000
_cell_angle_gamma   108.54956153
_symmetry_Int_Tables_number   1
_chemical_formula_structural   CaSn2O5
_chemical_formula_sum   'Ca2 Sn4 O10'
_cell_volume   274.90623557
_cell_formula_units_Z   2
loop_
 _symmetry_equiv_pos_site_id
 _symmetry_equiv_pos_as_xyz
  1  'x, y, z'
loop_
 _atom_site_type_symbol
 _atom_site_label
 _atom_site_symmetry_multiplicity
 _atom_site_fract_x
 _atom_site_fract_y
 _atom_site_fract_z
 _atom_site_occupancy
  Ca  Ca0  1  0.90338200  0.80669500  0.75000000  1
  Ca  Ca1  1  0.09661900  0.19330600  0.25000000  1
  Sn  Sn0  1  0.19052700  0.38097300  0.59856000  1
  Sn  Sn1  1  0.80947400  0.61902800  0.40143900  1
  Sn  Sn2  1  0.80947400  0.61902800  0.09856100  1
  Sn  Sn3  1  0.19052700  0.38097300  0.90144000  1
  O  O0  1  0.71743000  0.43493400  0.25000000  1
  O  O1  1  0.28257100  0.56506700  0.75000000  1
  O  O2  1  0.24249400  0.48503400  0.07263700  1
  O  O3  1  0.75750800  0.51496700  0.92736300  1
  O  O4  1  0.75750800  0.51496700  0.57263700  1
  O  O5  1  0.24249400  0.48503400  0.42736200  1
  O  O6  1  0.03108600  0.06211000  0.62186300  1
  O  O7  1  0.96891400  0.93788900  0.37813700  1
  O  O8  1  0.03108600  0.06211000  0.87813700  1
  O  O9  1  0.96891400  0.93788900  0.12186400  1
loop_
_geom_bond_atom_site_label_1
_geom_bond_atom_site_label_2
_geom_bond_distance
_geom_bond_site_symmetry_2
Ca0 O6 2.141727 1_665
Ca0 O8 2.141727 1_665
Ca0 O1 2.418027 1_555
Ca0 O1 2.418225 1_655
Ca0 O3 2.724693 1_555
Ca0 O4 2.724693 1_555
Ca1 O9 2.141727 1_445
Ca1 O7 2.141735 1_445
Ca1 O0 2.418027 1_555
Ca1 O0 2.418225 1_455
Ca1 O5 2.724684 1_555
Ca1 O2 2.724693 1_555
O0 Sn2 2.109315 1_555
O0 Sn1 2.109315 1_555
O1 Sn3 2.109325 1_555
O1 Sn0 2.109325 1_555
O2 Sn2 2.135459 1_555
O2 Sn2 2.135694 1_455
O2 Sn3 2.138863 1_554
O3 Sn3 2.135461 1_555
O3 Sn3 2.135689 1_655
O3 Sn2 2.138874 1_556
O4 Sn0 2.135461 1_555
O4 Sn0 2.135689 1_655
O4 Sn1 2.138874 1_555
O5 Sn1 2.135458 1_555
O5 Sn1 2.135692 1_455
O5 Sn0 2.138874 1_555
O6 Sn0 1.885744 1_555
O7 Sn1 1.885731 1_555
O8 Sn3 1.885744 1_555
O9 Sn2 1.885733 1_555
