# generated using pymatgen
data_MgV3P3O13
_symmetry_space_group_name_H-M   'P 1'
_cell_length_a   6.40128000
_cell_length_b   7.67739200
_cell_length_c   10.10082611
_cell_angle_alpha   79.85068093
_cell_angle_beta   90.00000000
_cell_angle_gamma   90.00000000
_symmetry_Int_Tables_number   1
_chemical_formula_structural   MgV3P3O13
_chemical_formula_sum   'Mg2 V6 P6 O26'
_cell_volume   488.63863506
_cell_formula_units_Z   2
loop_
 _symmetry_equiv_pos_site_id
 _symmetry_equiv_pos_as_xyz
  1  'x, y, z'
loop_
 _atom_site_type_symbol
 _atom_site_label
 _atom_site_symmetry_multiplicity
 _atom_site_fract_x
 _atom_site_fract_y
 _atom_site_fract_z
 _atom_site_occupancy
  Mg  Mg0  1  0.75000000  0.37361000  0.18455300  1
  Mg  Mg1  1  0.25000000  0.62639000  0.81544700  1
  V  V0  1  0.25000000  0.64182700  0.20028000  1
  V  V1  1  0.75000000  0.35817300  0.79972000  1
  V  V2  1  0.25000000  0.21877500  0.43318300  1
  V  V3  1  0.50000000  0.00000000  0.00000000  1
  V  V4  1  0.75000000  0.78122500  0.56681700  1
  V  V5  1  0.00000000  0.00000000  0.00000000  1
  P  P0  1  0.25000000  0.78442800  0.49826800  1
  P  P1  1  0.75000000  0.21557200  0.50173200  1
  P  P2  1  0.25000000  0.27190700  0.76261500  1
  P  P3  1  0.75000000  0.72809300  0.23738500  1
  P  P4  1  0.75000000  0.67949200  0.89074200  1
  P  P5  1  0.25000000  0.32050800  0.10925800  1
  O  O0  1  0.75000000  0.63131900  0.74649200  1
  O  O1  1  0.56382500  0.25134100  0.40223500  1
  O  O2  1  0.25000000  0.22712800  0.62256600  1
  O  O3  1  0.54522900  0.78290500  0.90374700  1
  O  O4  1  0.75000000  0.34018500  0.60511500  1
  O  O5  1  0.75000000  0.11989000  0.90717800  1
  O  O6  1  0.25000000  0.65981500  0.39488500  1
  O  O7  1  0.04522900  0.21709500  0.09625300  1
  O  O8  1  0.25000000  0.97643500  0.41816100  1
  O  O9  1  0.75000000  0.02356500  0.58183900  1
  O  O10  1  0.06393600  0.39202100  0.78911500  1
  O  O11  1  0.25000000  0.88011000  0.09282200  1
  O  O12  1  0.56393600  0.60797900  0.21088500  1
  O  O13  1  0.75000000  0.48929200  0.97627800  1
  O  O14  1  0.75000000  0.77287200  0.37743400  1
  O  O15  1  0.45477100  0.21709500  0.09625300  1
  O  O16  1  0.93617500  0.25134100  0.40223500  1
  O  O17  1  0.43617500  0.74865900  0.59776500  1
  O  O18  1  0.43606400  0.39202100  0.78911500  1
  O  O19  1  0.25000000  0.36868100  0.25350800  1
  O  O20  1  0.75000000  0.90269200  0.13282400  1
  O  O21  1  0.25000000  0.09730800  0.86717600  1
  O  O22  1  0.93606400  0.60797900  0.21088500  1
  O  O23  1  0.95477100  0.78290500  0.90374700  1
  O  O24  1  0.06382500  0.74865900  0.59776500  1
  O  O25  1  0.25000000  0.51070800  0.02372200  1
loop_
_geom_bond_atom_site_label_1
_geom_bond_atom_site_label_2
_geom_bond_distance
_geom_bond_site_symmetry_2
Mg0 O13 2.134494 1_554
Mg0 O22 2.212609 1_555
Mg0 O12 2.212609 1_555
Mg0 O7 2.487693 1_655
Mg0 O15 2.487693 1_555
Mg0 O16 2.531527 1_555
Mg0 O1 2.531527 1_555
Mg1 O25 2.134494 1_556
Mg1 O18 2.212609 1_555
Mg1 O10 2.212609 1_555
Mg1 O3 2.487693 1_555
Mg1 O23 2.487693 1_455
Mg1 O17 2.531527 1_555
Mg1 O24 2.531527 1_555
O0 P4 1.565144 1_555
O0 V4 1.970320 1_555
O0 V1 2.071069 1_555
O1 P1 1.551922 1_555
O1 V2 2.041639 1_555
O2 P2 1.513508 1_555
O2 V2 1.925260 1_555
O3 P4 1.550014 1_555
O3 V3 2.092396 1_566
O4 P1 1.535525 1_555
O4 V1 1.994644 1_555
O5 V1 1.955761 1_555
O5 V5 1.995783 1_656
O5 V3 1.995783 1_556
O6 P0 1.535525 1_555
O6 V0 1.994644 1_555
O7 P5 1.550014 1_555
O7 V5 2.092396 1_555
O8 P0 1.551567 1_555
O8 V2 1.893178 1_565
O9 P1 1.551567 1_555
O9 V4 1.893178 1_545
O10 P2 1.558082 1_555
O10 V1 2.026735 1_455
O11 V0 1.955761 1_555
O11 V5 1.995783 1_565
O11 V3 1.995783 1_565
O12 P3 1.558082 1_555
O12 V0 2.026735 1_555
O13 P4 1.560172 1_555
O13 V1 2.196928 1_555
O14 P3 1.513508 1_555
O14 V4 1.925260 1_555
O15 P5 1.550014 1_555
O15 V3 2.092396 1_555
O16 P1 1.551922 1_555
O16 V2 2.041639 1_655
O17 P0 1.551922 1_555
O17 V4 2.041639 1_555
O18 P2 1.558082 1_555
O18 V1 2.026735 1_555
O19 P5 1.565144 1_555
O19 V2 1.970320 1_555
O19 V0 2.071069 1_555
O20 P3 1.553499 1_555
O20 V3 2.136792 1_565
O20 V5 2.136792 1_665
O21 P2 1.553499 1_555
O21 V3 2.136792 1_556
O21 V5 2.136792 1_556
O22 P3 1.558082 1_555
O22 V0 2.026735 1_655
O23 P4 1.550014 1_555
O23 V5 2.092396 1_666
O24 P0 1.551922 1_555
O24 V4 2.041639 1_455
O25 P5 1.560172 1_555
O25 V0 2.196928 1_555
