# generated using pymatgen
data_Sm2(Ga3Ru)3
_symmetry_space_group_name_H-M   'P 1'
_cell_length_a   7.43601306
_cell_length_b   7.43601416
_cell_length_c   9.76101685
_cell_angle_alpha   90.00027624
_cell_angle_beta   90.00018338
_cell_angle_gamma   118.83410213
_symmetry_Int_Tables_number   1
_chemical_formula_structural   Sm2(Ga3Ru)3
_chemical_formula_sum   'Sm4 Ga18 Ru6'
_cell_volume   472.81291468
_cell_formula_units_Z   2
loop_
 _symmetry_equiv_pos_site_id
 _symmetry_equiv_pos_as_xyz
  1  'x, y, z'
loop_
 _atom_site_type_symbol
 _atom_site_label
 _atom_site_symmetry_multiplicity
 _atom_site_fract_x
 _atom_site_fract_y
 _atom_site_fract_z
 _atom_site_occupancy
  Sm  Sm0  1  0.99784669  0.67430652  0.25001562  1
  Sm  Sm1  1  0.00215118  0.32569361  0.74998477  1
  Sm  Sm2  1  0.67430663  0.99784845  0.25001534  1
  Sm  Sm3  1  0.32569376  0.00215313  0.74998449  1
  Ga  Ga0  1  0.13557413  0.13557346  0.24992602  1
  Ga  Ga1  1  0.86442828  0.86442335  0.75007501  1
  Ga  Ga2  1  0.01247661  0.33848299  0.07375860  1
  Ga  Ga3  1  0.98752530  0.66151748  0.92624118  1
  Ga  Ga4  1  0.98747630  0.66152418  0.57380695  1
  Ga  Ga5  1  0.33847536  0.01252342  0.42619339  1
  Ga  Ga6  1  0.01251893  0.33847275  0.42619385  1
  Ga  Ga7  1  0.66152668  0.98748100  0.57380650  1
  Ga  Ga8  1  0.66151740  0.98752338  0.92624115  1
  Ga  Ga9  1  0.33848243  0.01247447  0.07375868  1
  Ga  Ga10  1  0.34009033  0.34008825  0.55950406  1
  Ga  Ga11  1  0.65991190  0.65990964  0.44049637  1
  Ga  Ga12  1  0.65993096  0.65993181  0.05942138  1
  Ga  Ga13  1  0.34006882  0.34006921  0.94057801  1
  Ga  Ga14  1  0.33892833  0.55119706  0.24993895  1
  Ga  Ga15  1  0.66106464  0.44880007  0.75006222  1
  Ga  Ga16  1  0.55119969  0.33893510  0.24993766  1
  Ga  Ga17  1  0.44880295  0.66107140  0.75006097  1
  Ru  Ru0  1  0.67600209  0.32399850  0.00000035  1
  Ru  Ru1  1  0.32399954  0.67600149  0.00000045  1
  Ru  Ru2  1  0.32401545  0.67598418  0.49999954  1
  Ru  Ru3  1  0.67598525  0.32401385  0.49999949  1
  Ru  Ru4  1  0.00000022  -0.00000034  0.00000013  1
  Ru  Ru5  1  0.00000013  0.00000060  0.49999889  1
loop_
_geom_bond_atom_site_label_1
_geom_bond_atom_site_label_2
_geom_bond_distance
_geom_bond_site_symmetry_2
Ga0 Ru4 2.646436 1_555
Ga0 Ru5 2.647772 1_555
Ga0 Ga14 2.707498 1_555
Ga0 Ga16 2.707511 1_555
Ga0 Ga9 2.720948 1_555
Ga0 Ga2 2.720951 1_555
Ga0 Ga5 2.721307 1_555
Ga0 Ga6 2.721321 1_555
Ga0 Sm0 3.070084 1_445
Ga0 Sm2 3.070091 1_445
Ga1 Ru4 2.646430 1_666
Ga1 Ru5 2.647805 1_665
Ga1 Ga15 2.707497 1_555
Ga1 Ga17 2.707509 1_555
Ga1 Ga3 2.720922 1_555
Ga1 Ga8 2.720959 1_555
Ga1 Ga4 2.721289 1_555
Ga1 Ga7 2.721351 1_555
Ga1 Sm3 3.070069 1_665
Ga1 Sm1 3.070114 1_665
Ga2 Ru0 2.555414 1_455
Ga2 Ru1 2.564320 1_555
Ga2 Ru4 2.576202 1_555
Ga2 Sm0 3.077291 1_455
Ga2 Sm2 3.091216 1_445
Ga2 Sm1 3.161610 1_554
Ga3 Ru1 2.555416 1_656
Ga3 Ru0 2.564325 1_556
Ga3 Ru4 2.576200 1_666
Ga3 Sm1 3.077277 1_655
Ga3 Sm3 3.091214 1_665
Ga3 Sm0 3.161616 1_556
Ga4 Ru2 2.556093 1_655
Ga4 Ru3 2.564309 1_555
Ga4 Ru5 2.576142 1_665
Ga4 Sm1 3.077058 1_655
Ga4 Sm3 3.090893 1_665
Ga4 Sm0 3.161785 1_555
Ga5 Ru2 2.556092 1_545
Ga5 Ru3 2.564301 1_555
Ga5 Ru5 2.576128 1_555
Ga5 Sm2 3.077061 1_545
Ga5 Sm0 3.090892 1_445
Ga5 Sm3 3.161782 1_555
Ga6 Ru3 2.556053 1_455
Ga6 Ru2 2.564326 1_555
Ga6 Ru5 2.576119 1_555
Ga6 Sm0 3.077072 1_455
Ga6 Sm2 3.090867 1_445
Ga6 Sm1 3.161780 1_555
Ga7 Ru3 2.556053 1_565
Ga7 Ru2 2.564329 1_555
Ga7 Ru5 2.576131 1_665
Ga7 Sm3 3.077062 1_565
Ga7 Sm1 3.090868 1_665
Ga7 Sm2 3.161782 1_555
Ga8 Ru0 2.555420 1_566
Ga8 Ru1 2.564317 1_556
Ga8 Ru4 2.576201 1_666
Ga8 Sm3 3.077291 1_565
Ga8 Sm1 3.091212 1_665
Ga8 Sm2 3.161614 1_556
Ga9 Ru1 2.555407 1_545
Ga9 Ru0 2.564328 1_555
Ga9 Ru4 2.576200 1_555
Ga9 Sm2 3.077283 1_545
Ga9 Sm0 3.091214 1_445
Ga9 Sm3 3.161613 1_554
Ga10 Ru3 2.622636 1_555
Ga10 Ru2 2.622647 1_555
Ga10 Ru5 2.638071 1_555
Ga10 Ga11 2.684355 1_555
Ga10 Ga5 2.756475 1_555
Ga10 Ga6 2.756516 1_555
Ga10 Ga15 2.819368 1_555
Ga10 Ga17 2.819404 1_555
Ga10 Sm3 3.086030 1_555
Ga10 Sm1 3.086058 1_555
Ga11 Ru3 2.622637 1_555
Ga11 Ru2 2.622645 1_555
Ga11 Ru5 2.638070 1_665
Ga11 Ga4 2.756474 1_555
Ga11 Ga7 2.756516 1_555
Ga11 Ga16 2.819371 1_555
Ga11 Ga14 2.819411 1_555
Ga11 Sm0 3.086026 1_555
Ga11 Sm2 3.086060 1_555
Ga12 Ru1 2.622699 1_555
Ga12 Ru0 2.622718 1_555
Ga12 Ru4 2.637750 1_665
Ga12 Ga13 2.683923 1_554
Ga12 Ga8 2.756150 1_554
Ga12 Ga3 2.756168 1_554
Ga12 Ga16 2.819216 1_555
Ga12 Ga14 2.819250 1_555
Ga12 Sm2 3.086629 1_555
Ga12 Sm0 3.086630 1_555
Ga13 Ru1 2.622707 1_556
Ga13 Ru0 2.622719 1_556
Ga13 Ru4 2.637755 1_556
Ga13 Ga2 2.756154 1_556
Ga13 Ga9 2.756173 1_556
Ga13 Ga15 2.819206 1_555
Ga13 Ga17 2.819247 1_555
Ga13 Sm3 3.086624 1_555
Ga13 Sm1 3.086633 1_555
Ga14 Ru1 2.631520 1_555
Ga14 Ru2 2.632544 1_555
Ga14 Ga16 2.717699 1_555
Ga14 Ga2 2.765577 1_555
Ga14 Ga6 2.765870 1_555
Ga14 Sm2 3.043221 1_555
Ga14 Sm0 3.083879 1_455
Ga15 Ru0 2.631522 1_556
Ga15 Ru3 2.632573 1_555
Ga15 Ga17 2.717697 1_555
Ga15 Ga3 2.765612 1_555
Ga15 Ga4 2.765882 1_555
Ga15 Sm3 3.043182 1_555
Ga15 Sm1 3.083899 1_655
Ga16 Ru0 2.631514 1_555
Ga16 Ru3 2.632566 1_555
Ga16 Ga9 2.765611 1_555
Ga16 Ga5 2.765886 1_555
Ga16 Sm0 3.043183 1_555
Ga16 Sm2 3.083903 1_545
Ga17 Ru1 2.631527 1_556
Ga17 Ru2 2.632554 1_555
Ga17 Ga8 2.765576 1_555
Ga17 Ga7 2.765869 1_555
Ga17 Sm1 3.043222 1_555
Ga17 Sm3 3.083879 1_565
