# generated using pymatgen
data_Mo3C2
_symmetry_space_group_name_H-M   'P 1'
_cell_length_a   3.07277507
_cell_length_b   3.07277507
_cell_length_c   14.49602300
_cell_angle_alpha   90.00000000
_cell_angle_beta   90.00000000
_cell_angle_gamma   119.99997993
_symmetry_Int_Tables_number   1
_chemical_formula_structural   Mo3C2
_chemical_formula_sum   'Mo6 C4'
_cell_volume   118.53350585
_cell_formula_units_Z   2
loop_
 _symmetry_equiv_pos_site_id
 _symmetry_equiv_pos_as_xyz
  1  'x, y, z'
loop_
 _atom_site_type_symbol
 _atom_site_label
 _atom_site_symmetry_multiplicity
 _atom_site_fract_x
 _atom_site_fract_y
 _atom_site_fract_z
 _atom_site_occupancy
  Mo  Mo0  1  0.00000000  0.00000000  0.24631900  1
  Mo  Mo1  1  0.00000000  0.00000000  0.75368100  1
  Mo  Mo2  1  0.33333300  0.66666700  0.40695900  1
  Mo  Mo3  1  0.66666700  0.33333300  0.59304100  1
  Mo  Mo4  1  0.66666700  0.33333300  0.91709400  1
  Mo  Mo5  1  0.33333300  0.66666700  0.08290600  1
  C  C0  1  0.66666700  0.33333300  0.32005300  1
  C  C1  1  0.33333300  0.66666700  0.67994700  1
  C  C2  1  0.00000000  0.00000000  0.50000000  1
  C  C3  1  0.00000000  0.00000000  0.00000000  1
loop_
_geom_bond_atom_site_label_1
_geom_bond_atom_site_label_2
_geom_bond_distance
_geom_bond_site_symmetry_2
C0 Mo0 2.071171 1_655
C0 Mo0 2.071174 1_665
C0 Mo0 2.071174 1_555
C0 Mo2 2.175864 1_655
C0 Mo2 2.175864 1_545
C0 Mo2 2.175868 1_555
C1 Mo1 2.071171 1_565
C1 Mo1 2.071174 1_665
C1 Mo1 2.071174 1_555
C1 Mo3 2.175864 1_455
C1 Mo3 2.175864 1_565
C1 Mo3 2.175868 1_555
C2 Mo3 2.228535 1_455
C2 Mo2 2.228535 1_545
C2 Mo3 2.228537 1_445
C2 Mo3 2.228537 1_555
C2 Mo2 2.228537 1_555
C2 Mo2 2.228537 1_445
C3 Mo5 2.142813 1_545
C3 Mo4 2.142813 1_454
C3 Mo5 2.142816 1_555
C3 Mo5 2.142816 1_445
C3 Mo4 2.142816 1_444
C3 Mo4 2.142816 1_554
