# generated using pymatgen
data_Li9Mn2Co5O16
_symmetry_space_group_name_H-M   'P 1'
_cell_length_a   5.62910208
_cell_length_b   4.86886292
_cell_length_c   9.46326855
_cell_angle_alpha   80.18217916
_cell_angle_beta   90.00000000
_cell_angle_gamma   90.00000000
_symmetry_Int_Tables_number   1
_chemical_formula_structural   Li9Mn2Co5O16
_chemical_formula_sum   'Li9 Mn2 Co5 O16'
_cell_volume   255.56449702
_cell_formula_units_Z   1
loop_
 _symmetry_equiv_pos_site_id
 _symmetry_equiv_pos_as_xyz
  1  'x, y, z'
loop_
 _atom_site_type_symbol
 _atom_site_label
 _atom_site_symmetry_multiplicity
 _atom_site_fract_x
 _atom_site_fract_y
 _atom_site_fract_z
 _atom_site_occupancy
  Li  Li0  1  0.00376245  0.75355896  0.24751066  1
  Li  Li1  1  0.25693832  0.74964990  0.75097116  1
  Li  Li2  1  0.49598218  0.75982631  0.25223320  1
  Li  Li3  1  0.25693832  0.25035010  0.24902884  1
  Li  Li4  1  0.49598218  0.24017369  0.74776680  1
  Li  Li5  1  0.74440726  0.24758200  0.24607722  1
  Li  Li6  1  0.74440726  0.75241800  0.75392278  1
  Li  Li7  1  0.00376245  0.24644104  0.75248934  1
  Li  Li8  1  0.49862378  0.00000000  0.50000000  1
  Mn  Mn0  1  0.00556065  0.00000000  0.50000000  1
  Mn  Mn1  1  0.73909305  0.50000000  0.50000000  1
  Co  Co0  1  0.25014440  0.00000000  0.00000000  1
  Co  Co1  1  0.75060325  0.00000000  0.00000000  1
  Co  Co2  1  0.50051104  0.50000000  0.00000000  1
  Co  Co3  1  0.00037411  0.50000000  0.00000000  1
  Co  Co4  1  0.25174244  0.50000000  0.50000000  1
  O  O0  1  0.76387955  0.86137229  0.38717446  1
  O  O1  1  0.00033537  0.86928397  0.89094433  1
  O  O2  1  0.23691822  0.86708590  0.38618510  1
  O  O3  1  0.99856126  0.36603090  0.38836931  1
  O  O4  1  0.25047199  0.36977550  0.89074025  1
  O  O5  1  0.50254015  0.39396868  0.38515330  1
  O  O6  1  0.50025801  0.86948602  0.89012450  1
  O  O7  1  0.75051337  0.36980789  0.89097668  1
  O  O8  1  0.25047199  0.63022450  0.10925975  1
  O  O9  1  0.50254015  0.60603132  0.61484670  1
  O  O10  1  0.75051337  0.63019211  0.10902332  1
  O  O11  1  0.50025801  0.13051398  0.10987550  1
  O  O12  1  0.76387955  0.13862771  0.61282554  1
  O  O13  1  0.00033537  0.13071603  0.10905567  1
  O  O14  1  0.99856126  0.63396910  0.61163069  1
  O  O15  1  0.23691822  0.13291410  0.61381490  1
loop_
_geom_bond_atom_site_label_1
_geom_bond_atom_site_label_2
_geom_bond_distance
_geom_bond_site_symmetry_2
Li0 O2 1.999404 1_555
Li0 O0 2.020485 1_455
Li0 O13 2.066072 1_565
Li0 O8 2.066113 1_555
Li0 O10 2.092606 1_455
Li0 O3 2.116616 1_455
Li1 O6 2.052447 1_555
Li1 O4 2.082633 1_555
Li1 O15 2.086517 1_565
Li1 O9 2.089719 1_555
Li1 O14 2.103481 1_455
Li1 O1 2.107939 1_555
Li2 O5 1.998127 1_555
Li2 O2 2.057179 1_555
Li2 O11 2.060014 1_565
Li2 O0 2.089158 1_555
Li2 O8 2.104724 1_555
Li2 O10 2.140003 1_555
Li3 O11 2.052447 1_555
Li3 O8 2.082633 1_555
Li3 O2 2.086517 1_545
Li3 O5 2.089719 1_555
Li3 O3 2.103481 1_455
Li3 O13 2.107939 1_555
Li4 O9 1.998127 1_555
Li4 O15 2.057179 1_555
Li4 O6 2.060014 1_545
Li4 O12 2.089158 1_555
Li4 O4 2.104724 1_555
Li4 O7 2.140003 1_555
Li5 O11 2.031143 1_555
Li5 O10 2.080786 1_555
Li5 O13 2.081394 1_655
Li5 O5 2.100886 1_555
Li5 O3 2.111257 1_555
Li5 O0 2.115310 1_545
Li6 O6 2.031143 1_555
Li6 O7 2.080786 1_555
Li6 O1 2.081394 1_655
Li6 O9 2.100886 1_555
Li6 O14 2.111257 1_555
Li6 O12 2.115310 1_565
Li7 O15 1.999404 1_555
Li7 O12 2.020485 1_455
Li7 O1 2.066072 1_545
Li7 O4 2.066113 1_555
Li7 O7 2.092606 1_455
Li7 O14 2.116616 1_455
Li8 O15 1.996691 1_555
Li8 O2 1.996691 1_545
Li8 O0 2.017627 1_545
Li8 O12 2.017627 1_555
Li8 O9 2.037187 1_545
Li8 O5 2.037187 1_555
Mn0 O15 1.874201 1_555
Mn0 O2 1.874201 1_545
Mn0 O3 1.910901 1_455
Mn0 O14 1.910901 1_445
Mn0 O0 1.921492 1_445
Mn0 O12 1.921492 1_455
Mn1 O9 1.847202 1_555
Mn1 O5 1.847202 1_555
Mn1 O12 1.901192 1_555
Mn1 O0 1.901192 1_555
Mn1 O3 1.977294 1_555
Mn1 O14 1.977294 1_555
Co0 O1 1.916122 1_544
Co0 O13 1.916122 1_555
Co0 O4 1.917190 1_554
Co0 O8 1.917190 1_545
Co0 O6 1.921589 1_544
Co0 O11 1.921589 1_555
Co1 O1 1.915804 1_644
Co1 O13 1.915804 1_655
Co1 O10 1.916476 1_545
Co1 O7 1.916476 1_554
Co1 O11 1.922544 1_555
Co1 O6 1.922544 1_544
Co2 O10 1.915658 1_555
Co2 O7 1.915658 1_554
Co2 O4 1.917209 1_554
Co2 O8 1.917209 1_555
Co2 O11 1.918215 1_555
Co2 O6 1.918215 1_554
Co3 O1 1.914430 1_554
Co3 O13 1.914430 1_555
Co3 O10 1.915073 1_455
Co3 O7 1.915073 1_454
Co3 O4 1.917452 1_554
Co3 O8 1.917452 1_555
Co4 O5 1.905816 1_555
Co4 O9 1.905816 1_555
Co4 O15 1.924822 1_555
Co4 O2 1.924822 1_555
Co4 O3 1.951298 1_455
Co4 O14 1.951298 1_455
