# generated using pymatgen
data_Th3Tl5
_symmetry_space_group_name_H-M   'P 1'
_cell_length_a   6.73654597
_cell_length_b   6.73654597
_cell_length_c   10.46556800
_cell_angle_alpha   90.00000000
_cell_angle_beta   90.00000000
_cell_angle_gamma   102.28884487
_symmetry_Int_Tables_number   1
_chemical_formula_structural   Th3Tl5
_chemical_formula_sum   'Th6 Tl10'
_cell_volume   464.05623140
_cell_formula_units_Z   2
loop_
 _symmetry_equiv_pos_site_id
 _symmetry_equiv_pos_as_xyz
  1  'x, y, z'
loop_
 _atom_site_type_symbol
 _atom_site_label
 _atom_site_symmetry_multiplicity
 _atom_site_fract_x
 _atom_site_fract_y
 _atom_site_fract_z
 _atom_site_occupancy
  Th  Th0  1  0.61441300  0.61441300  0.25000000  1
  Th  Th1  1  0.38558700  0.38558700  0.75000000  1
  Th  Th2  1  0.79353900  0.20646100  0.50000000  1
  Th  Th3  1  0.79353900  0.20646100  0.00000000  1
  Th  Th4  1  0.20646100  0.79353900  0.50000000  1
  Th  Th5  1  0.20646100  0.79353900  0.00000000  1
  Tl  Tl0  1  0.00520200  0.00520200  0.25000000  1
  Tl  Tl1  1  0.99479800  0.99479800  0.75000000  1
  Tl  Tl2  1  0.29942700  0.29942700  0.04534100  1
  Tl  Tl3  1  0.70057300  0.70057300  0.95465900  1
  Tl  Tl4  1  0.29942700  0.29942700  0.45465900  1
  Tl  Tl5  1  0.70057300  0.70057300  0.54534100  1
  Tl  Tl6  1  0.05623500  0.50085800  0.25000000  1
  Tl  Tl7  1  0.49914200  0.94376500  0.75000000  1
  Tl  Tl8  1  0.94376500  0.49914200  0.75000000  1
  Tl  Tl9  1  0.50085800  0.05623500  0.25000000  1
loop_
_geom_bond_atom_site_label_1
_geom_bond_atom_site_label_2
_geom_bond_distance
_geom_bond_site_symmetry_2
Th0 Tl5 3.175548 1_555
Th0 Tl3 3.175548 1_554
Th0 Tl9 3.226927 1_565
Th0 Tl6 3.226927 1_655
Th0 Tl0 3.303133 1_665
Th0 Tl4 3.417023 1_555
Th0 Tl2 3.417023 1_555
Th0 Tl6 3.674205 1_555
Th0 Tl9 3.674205 1_555
Th1 Tl4 3.175548 1_555
Th1 Tl2 3.175548 1_556
Th1 Tl7 3.226927 1_545
Th1 Tl8 3.226927 1_455
Th1 Tl1 3.303133 1_445
Th1 Tl5 3.417023 1_555
Th1 Tl3 3.417023 1_555
Th1 Tl8 3.674205 1_555
Th1 Tl7 3.674205 1_555
Th2 Tl8 3.302685 1_555
Th2 Tl9 3.302685 1_555
Th2 Tl5 3.364951 1_545
Th2 Tl4 3.364951 1_655
Th2 Tl0 3.397017 1_655
Th2 Tl1 3.397017 1_545
Th2 Tl7 3.523690 1_545
Th2 Tl6 3.523690 1_655
Th2 Tl4 3.547449 1_555
Th2 Tl5 3.547449 1_555
Th3 Tl8 3.302685 1_554
Th3 Tl9 3.302685 1_555
Th3 Tl3 3.364951 1_544
Th3 Tl2 3.364951 1_655
Th3 Tl0 3.397017 1_655
Th3 Tl1 3.397017 1_544
Th3 Tl7 3.523690 1_544
Th3 Tl6 3.523690 1_655
Th3 Tl2 3.547449 1_555
Th3 Tl3 3.547449 1_554
Th4 Tl7 3.302685 1_555
Th4 Tl6 3.302685 1_555
Th4 Tl5 3.364951 1_455
Th4 Tl4 3.364951 1_565
Th4 Tl0 3.397017 1_565
Th4 Tl1 3.397017 1_455
Th4 Tl9 3.523690 1_565
Th4 Tl8 3.523690 1_455
Th4 Tl4 3.547449 1_555
Th4 Tl5 3.547449 1_555
Th5 Tl7 3.302685 1_554
Th5 Tl6 3.302685 1_555
Th5 Tl3 3.364951 1_454
Th5 Tl2 3.364951 1_565
Th5 Tl0 3.397017 1_565
Th5 Tl1 3.397017 1_454
Th5 Tl9 3.523690 1_565
Th5 Tl8 3.523690 1_454
Th5 Tl2 3.547449 1_555
Th5 Tl3 3.547449 1_554
Tl0 Tl4 3.282138 1_555
Tl0 Tl2 3.282138 1_555
Tl0 Tl9 3.283068 1_555
Tl0 Tl6 3.283068 1_555
Tl0 Tl6 3.486925 1_545
Tl0 Tl9 3.486925 1_455
Tl1 Tl3 3.282138 1_555
Tl1 Tl5 3.282138 1_555
Tl1 Tl7 3.283068 1_555
Tl1 Tl8 3.283068 1_555
Tl1 Tl7 3.486925 1_655
Tl1 Tl8 3.486925 1_565
Tl2 Tl9 3.171621 1_555
Tl2 Tl6 3.171621 1_555
Tl2 Tl3 3.520988 1_554
Tl3 Tl8 3.171621 1_555
Tl3 Tl7 3.171621 1_555
Tl4 Tl6 3.171621 1_555
Tl4 Tl9 3.171621 1_555
Tl4 Tl5 3.520988 1_555
Tl5 Tl8 3.171621 1_555
Tl5 Tl7 3.171621 1_555
