# generated using pymatgen
data_Li8Fe(O2F)2
_symmetry_space_group_name_H-M   'P 1'
_cell_length_a   6.38473408
_cell_length_b   9.76451391
_cell_length_c   9.41025246
_cell_angle_alpha   94.84160375
_cell_angle_beta   79.28779179
_cell_angle_gamma   92.21654976
_symmetry_Int_Tables_number   1
_chemical_formula_structural   Li8Fe(O2F)2
_chemical_formula_sum   'Li32 Fe4 O16 F8'
_cell_volume   574.23212689
_cell_formula_units_Z   4
loop_
 _symmetry_equiv_pos_site_id
 _symmetry_equiv_pos_as_xyz
  1  'x, y, z'
loop_
 _atom_site_type_symbol
 _atom_site_label
 _atom_site_symmetry_multiplicity
 _atom_site_fract_x
 _atom_site_fract_y
 _atom_site_fract_z
 _atom_site_occupancy
  Li  Li0  1  0.86467200  0.50599900  0.11142400  1
  Li  Li1  1  0.11517200  0.75596600  0.61161200  1
  Li  Li2  1  0.36476400  0.00579900  0.11155500  1
  Li  Li3  1  0.61460400  0.25619300  0.61128700  1
  Li  Li4  1  0.88502500  0.24422400  0.38852900  1
  Li  Li5  1  0.13506200  0.49389200  0.88867700  1
  Li  Li6  1  0.38551300  0.74390200  0.38884500  1
  Li  Li7  1  0.63529300  0.99383600  0.88877200  1
  Li  Li8  1  0.89327500  0.25509800  0.05989900  1
  Li  Li9  1  0.14334000  0.50524700  0.55983400  1
  Li  Li10  1  0.39345000  0.75505200  0.06003800  1
  Li  Li11  1  0.64320500  0.00552600  0.56006300  1
  Li  Li12  1  0.85641100  0.49513500  0.44005800  1
  Li  Li13  1  0.10671300  0.74462400  0.94009700  1
  Li  Li14  1  0.35655300  0.99476200  0.43999600  1
  Li  Li15  1  0.60651500  0.24464300  0.93994800  1
  Li  Li16  1  0.15849000  0.50785400  0.24950700  1
  Li  Li17  1  0.40883400  0.75784700  0.74960200  1
  Li  Li18  1  0.65851300  0.00792600  0.24949500  1
  Li  Li19  1  0.90836300  0.25786200  0.74948200  1
  Li  Li20  1  0.59132100  0.24212500  0.25037600  1
  Li  Li21  1  0.84164100  0.49212700  0.75024500  1
  Li  Li22  1  0.09195300  0.74203000  0.25047700  1
  Li  Li23  1  0.34169600  0.99209300  0.75049300  1
  Li  Li24  1  0.56275500  0.50480400  0.28681100  1
  Li  Li25  1  0.81307400  0.75481800  0.78679800  1
  Li  Li26  1  0.06267000  0.00479800  0.28685800  1
  Li  Li27  1  0.31265700  0.25483600  0.78666300  1
  Li  Li28  1  0.18691600  0.24515400  0.21304300  1
  Li  Li29  1  0.43677200  0.49522600  0.71311200  1
  Li  Li30  1  0.68715200  0.74527500  0.21315500  1
  Li  Li31  1  0.93716200  0.99512300  0.71324300  1
  Fe  Fe0  1  0.50024200  0.49981900  0.99980800  1
  Fe  Fe1  1  0.75058400  0.75043800  0.50002600  1
  Fe  Fe2  1  0.00040700  0.99982900  0.99993900  1
  Fe  Fe3  1  0.24973500  0.24995000  0.49988000  1
  O  O0  1  0.63325600  0.37256500  0.10815900  1
  O  O1  1  0.88338800  0.62285300  0.60814500  1
  O  O2  1  0.13330500  0.87269900  0.10829600  1
  O  O3  1  0.38304300  0.12281300  0.60817000  1
  O  O4  1  0.11649600  0.37734800  0.39170500  1
  O  O5  1  0.36674500  0.62719800  0.89183200  1
  O  O6  1  0.61687400  0.87746900  0.39186100  1
  O  O7  1  0.86684100  0.12719700  0.89187200  1
  O  O8  1  0.85659700  0.61262600  0.28748300  1
  O  O9  1  0.10665500  0.86246900  0.78761800  1
  O  O10  1  0.35641400  0.11249300  0.28747300  1
  O  O11  1  0.60637800  0.36247300  0.78745600  1
  O  O12  1  0.89335500  0.13756400  0.21244700  1
  O  O13  1  0.14328500  0.38759400  0.71251100  1
  O  O14  1  0.39345600  0.63750500  0.21261100  1
  O  O15  1  0.64368900  0.88767200  0.71245200  1
  F  F0  1  0.12186400  0.39579400  0.06463800  1
  F  F1  1  0.37207800  0.64582800  0.56475800  1
  F  F2  1  0.62220700  0.89575300  0.06463100  1
  F  F3  1  0.87193600  0.14610600  0.56439700  1
  F  F4  1  0.62771900  0.35426300  0.43533400  1
  F  F5  1  0.87796100  0.60399500  0.93534200  1
  F  F6  1  0.12803700  0.85400900  0.43555800  1
  F  F7  1  0.37791500  0.10388500  0.93560600  1
loop_
_geom_bond_atom_site_label_1
_geom_bond_atom_site_label_2
_geom_bond_distance
_geom_bond_site_symmetry_2
Li0 O8 1.874233 1_555
Li0 O0 1.934642 1_555
Li1 O9 1.872911 1_555
Li1 O1 1.934566 1_455
Li2 O10 1.873243 1_555
Li2 O2 1.932746 1_545
Li3 O11 1.873353 1_555
Li3 O3 1.934849 1_555
Li4 O12 1.874381 1_555
Li4 O4 1.932874 1_655
Li5 O13 1.873416 1_555
Li5 O5 1.934998 1_555
Li6 O14 1.874620 1_555
Li6 O6 1.934982 1_555
Li7 O15 1.873869 1_555
Li7 O7 1.934652 1_565
Li8 O12 1.912133 1_555
Li8 O7 1.959055 1_554
Li8 O0 2.014215 1_555
Li9 O13 1.913736 1_555
Li9 O4 1.960338 1_555
Li9 O1 2.014674 1_455
Li10 O14 1.912328 1_555
Li10 O5 1.960459 1_554
Li10 O2 2.015886 1_555
Li11 O15 1.913431 1_545
Li11 O6 1.961045 1_545
Li11 O3 2.013893 1_555
Li12 O8 1.911782 1_555
Li12 O1 1.959216 1_555
Li12 O4 2.016396 1_655
Li13 O9 1.913606 1_555
Li13 O2 1.961476 1_556
Li13 O5 2.014050 1_555
Li14 O10 1.913283 1_565
Li14 O3 1.961024 1_565
Li14 O6 2.014750 1_555
Li15 O11 1.913689 1_555
Li15 O0 1.960919 1_556
Li15 O7 2.015632 1_555
Li16 O4 1.901157 1_555
Li16 O14 1.925485 1_555
Li16 O8 2.173561 1_455
Li17 O5 1.902380 1_555
Li17 O15 1.926286 1_555
Li17 O9 2.174424 1_555
Li18 O6 1.902009 1_545
Li18 O12 1.924964 1_555
Li18 O10 2.173728 1_555
Li19 O7 1.903659 1_555
Li19 O13 1.925855 1_655
Li19 O11 2.173304 1_555
Li20 O0 1.900828 1_555
Li20 O10 1.925267 1_555
Li20 O12 2.173355 1_555
Li21 O1 1.902063 1_555
Li21 O11 1.927141 1_555
Li21 O13 2.171117 1_655
Li22 O2 1.902262 1_555
Li22 O8 1.925825 1_455
Li22 O14 2.170241 1_555
Li23 O3 1.903605 1_565
Li23 O9 1.925857 1_555
Li23 O15 2.172414 1_555
Li24 O14 1.968906 1_555
Li24 O0 2.023227 1_555
Li24 O8 2.116306 1_555
Li25 O15 1.971021 1_555
Li25 O1 2.021581 1_555
Li25 O9 2.114262 1_655
Li26 O12 1.970439 1_455
Li26 O2 2.021895 1_545
Li26 O10 2.115121 1_555
Li27 O13 1.969368 1_555
Li27 O3 2.020842 1_555
Li27 O11 2.114943 1_555
Li28 O10 1.970552 1_555
Li28 O4 2.022995 1_555
Li28 O12 2.113611 1_455
Li29 O11 1.971216 1_555
Li29 O5 2.021917 1_555
Li29 O13 2.113396 1_555
Li30 O8 1.969760 1_555
Li30 O6 2.023216 1_555
Li30 O14 2.115111 1_555
Li31 O9 1.970218 1_655
Li31 O7 2.022032 1_565
Li31 O15 2.112726 1_555
Fe0 O0 1.980462 1_556
Fe0 O5 1.980714 1_555
Fe0 O11 2.316347 1_555
Fe0 O14 2.321932 1_556
Fe1 O6 1.980277 1_555
Fe1 O1 1.980539 1_555
Fe1 O15 2.317065 1_555
Fe1 O8 2.319948 1_555
Fe2 O2 1.979260 1_556
Fe2 O7 1.981435 1_465
Fe2 O9 2.316307 1_555
Fe2 O12 2.320339 1_466
Fe3 O3 1.980336 1_555
Fe3 O4 1.981146 1_555
Fe3 O10 2.317840 1_555
Fe3 O13 2.320158 1_555
F0 Li0 1.958641 1_455
F0 Li5 1.968770 1_554
F0 Li8 1.969322 1_455
F0 Li16 2.022011 1_555
F0 Li28 2.212705 1_555
F0 Fe0 2.570432 1_554
F1 Li1 1.956794 1_555
F1 Li6 1.968045 1_555
F1 Li9 1.969435 1_555
F1 Li17 2.021840 1_555
F1 Li29 2.211334 1_555
F1 Fe1 2.573233 1_555
F2 Li2 1.959108 1_565
F2 Li7 1.967944 1_554
F2 Li10 1.969986 1_555
F2 Li18 2.021965 1_565
F2 Li30 2.212141 1_555
F2 Fe2 2.569496 1_654
F3 Li3 1.958746 1_555
F3 Li4 1.968205 1_555
F3 Li11 1.968835 1_555
F3 Li19 2.022013 1_555
F3 Li31 2.218498 1_545
F3 Fe3 2.566226 1_655
F4 Li4 1.958329 1_555
F4 Li3 1.968622 1_555
F4 Li12 1.970927 1_555
F4 Li20 2.022695 1_555
F4 Li24 2.212620 1_555
F4 Fe3 2.569030 1_555
F5 Li5 1.957580 1_655
F5 Li0 1.969135 1_556
F5 Li13 1.969649 1_655
F5 Li21 2.022440 1_555
F5 Li25 2.214598 1_555
F5 Fe0 2.566960 1_555
F6 Li6 1.959571 1_555
F6 Li14 1.969073 1_555
F6 Li1 1.969519 1_555
F6 Li22 2.022435 1_555
F6 Li26 2.216431 1_565
F6 Fe1 2.563228 1_455
F7 Li7 1.958766 1_545
F7 Li2 1.968645 1_556
F7 Li15 1.969401 1_555
F7 Li23 2.022059 1_545
F7 Li27 2.218999 1_555
F7 Fe2 2.565211 1_545
