# generated using pymatgen
data_TiNb(BiO3)3
_symmetry_space_group_name_H-M   'P 1'
_cell_length_a   5.50739400
_cell_length_b   5.43768600
_cell_length_c   13.02227030
_cell_angle_alpha   78.22809505
_cell_angle_beta   90.00000000
_cell_angle_gamma   90.00000000
_symmetry_Int_Tables_number   1
_chemical_formula_structural   TiNb(BiO3)3
_chemical_formula_sum   'Ti2 Nb2 Bi6 O18'
_cell_volume   381.78184552
_cell_formula_units_Z   2
loop_
 _symmetry_equiv_pos_site_id
 _symmetry_equiv_pos_as_xyz
  1  'x, y, z'
loop_
 _atom_site_type_symbol
 _atom_site_label
 _atom_site_symmetry_multiplicity
 _atom_site_fract_x
 _atom_site_fract_y
 _atom_site_fract_z
 _atom_site_occupancy
  Ti  Ti0  1  0.03584000  0.66297500  0.17715800  1
  Ti  Ti1  1  0.53584000  0.33702500  0.82284200  1
  Nb  Nb0  1  0.03926100  0.83432500  0.82410700  1
  Nb  Nb1  1  0.53926100  0.16567500  0.17589300  1
  Bi  Bi0  1  0.98598600  0.25521100  0.00053600  1
  Bi  Bi1  1  0.48598600  0.74478900  0.99946400  1
  Bi  Bi2  1  0.99656100  0.02275800  0.39906100  1
  Bi  Bi3  1  0.99206500  0.42879000  0.60035100  1
  Bi  Bi4  1  0.49656100  0.97724200  0.60093900  1
  Bi  Bi5  1  0.49206500  0.57121000  0.39964900  1
  O  O0  1  0.05100900  0.65630700  0.31539100  1
  O  O1  1  0.04917200  0.97045700  0.67974400  1
  O  O2  1  0.55100900  0.34369300  0.68460900  1
  O  O3  1  0.54917200  0.02954300  0.32025600  1
  O  O4  1  0.08189500  0.67254800  0.99833600  1
  O  O5  1  0.58189500  0.32745200  0.00166400  1
  O  O6  1  0.27459000  0.96891400  0.13175200  1
  O  O7  1  0.27745500  0.10235600  0.86823800  1
  O  O8  1  0.77459000  0.03108600  0.86824800  1
  O  O9  1  0.77745500  0.89764400  0.13176200  1
  O  O10  1  0.35655700  0.47030100  0.17247300  1
  O  O11  1  0.36262600  0.63794900  0.82741200  1
  O  O12  1  0.85655700  0.52969900  0.82752700  1
  O  O13  1  0.86262600  0.36205100  0.17258800  1
  O  O14  1  0.26193800  0.25849500  0.49808400  1
  O  O15  1  0.26154500  0.75602300  0.50191000  1
  O  O16  1  0.76193800  0.74150500  0.50191600  1
  O  O17  1  0.76154500  0.24397700  0.49809000  1
loop_
_geom_bond_atom_site_label_1
_geom_bond_atom_site_label_2
_geom_bond_distance
_geom_bond_site_symmetry_2
Nb0 O1 1.875439 1_555
Nb0 O12 1.930862 1_455
Nb0 O8 1.962354 1_465
Nb0 O11 2.072429 1_555
Nb0 O7 2.125355 1_565
Nb0 O4 2.272073 1_555
Nb1 O3 1.875439 1_555
Nb1 O10 1.930862 1_555
Nb1 O6 1.962354 1_545
Nb1 O13 2.072429 1_555
Nb1 O9 2.125355 1_545
Nb1 O5 2.272073 1_555
Bi0 O5 2.260460 1_555
Bi0 O4 2.324486 1_654
Bi0 O13 2.519937 1_555
Bi0 O12 2.537651 1_554
Bi0 O9 2.581451 1_545
Bi0 O8 2.581677 1_554
Bi0 O6 2.604671 1_645
Bi0 O7 2.611519 1_654
Bi1 O4 2.260460 1_555
Bi1 O5 2.324486 1_556
Bi1 O11 2.519937 1_555
Bi1 O10 2.537651 1_556
Bi1 O7 2.581451 1_565
Bi1 O6 2.581677 1_556
Bi1 O8 2.604671 1_565
Bi1 O9 2.611519 1_556
Bi2 O16 2.228636 1_545
Bi2 O15 2.287935 1_645
Bi2 O17 2.327720 1_555
Bi2 O14 2.473165 1_655
Bi2 O0 2.476614 1_645
Bi2 O3 2.666473 1_555
Bi3 O17 2.222866 1_555
Bi3 O16 2.291628 1_555
Bi3 O14 2.311562 1_655
Bi3 O15 2.466064 1_655
Bi3 O1 2.515523 1_645
Bi3 O2 2.666692 1_555
Bi4 O14 2.228636 1_565
Bi4 O17 2.287935 1_565
Bi4 O15 2.327720 1_555
Bi4 O16 2.473165 1_555
Bi4 O2 2.476614 1_565
Bi4 O1 2.666473 1_555
Bi5 O15 2.222866 1_555
Bi5 O14 2.291628 1_555
Bi5 O16 2.311562 1_555
Bi5 O17 2.466064 1_555
Bi5 O3 2.515523 1_565
Bi5 O0 2.666692 1_555
O0 Ti0 1.795007 1_555
O2 Ti1 1.795007 1_555
O4 Ti0 2.332441 1_556
O5 Ti1 2.332441 1_554
O6 Ti0 2.108259 1_555
O7 Ti1 1.922238 1_555
O8 Ti1 2.108259 1_555
O9 Ti0 1.922238 1_655
O10 Ti0 2.060910 1_555
O11 Ti1 1.905489 1_555
O12 Ti1 2.060910 1_555
O13 Ti0 1.905489 1_655
