# generated using pymatgen
data_Zn3Cd3(TeO6)2
_symmetry_space_group_name_H-M   'P 1'
_cell_length_a   10.86111713
_cell_length_b   10.86111713
_cell_length_c   10.86111713
_cell_angle_alpha   109.47122063
_cell_angle_beta   109.47122063
_cell_angle_gamma   109.47122063
_symmetry_Int_Tables_number   1
_chemical_formula_structural   Zn3Cd3(TeO6)2
_chemical_formula_sum   'Zn12 Cd12 Te8 O48'
_cell_volume   986.28312245
_cell_formula_units_Z   4
loop_
 _symmetry_equiv_pos_site_id
 _symmetry_equiv_pos_as_xyz
  1  'x, y, z'
loop_
 _atom_site_type_symbol
 _atom_site_label
 _atom_site_symmetry_multiplicity
 _atom_site_fract_x
 _atom_site_fract_y
 _atom_site_fract_z
 _atom_site_occupancy
  Zn  Zn0  1  0.25000000  0.62500000  0.37500000  1
  Zn  Zn1  1  0.75000000  0.37500000  0.62500000  1
  Zn  Zn2  1  0.75000000  0.87500000  0.12500000  1
  Zn  Zn3  1  0.37500000  0.25000000  0.62500000  1
  Zn  Zn4  1  0.62500000  0.75000000  0.37500000  1
  Zn  Zn5  1  0.25000000  0.12500000  0.87500000  1
  Zn  Zn6  1  0.12500000  0.75000000  0.87500000  1
  Zn  Zn7  1  0.87500000  0.25000000  0.12500000  1
  Zn  Zn8  1  0.62500000  0.37500000  0.25000000  1
  Zn  Zn9  1  0.37500000  0.62500000  0.75000000  1
  Zn  Zn10  1  0.87500000  0.12500000  0.75000000  1
  Zn  Zn11  1  0.12500000  0.87500000  0.25000000  1
  Cd  Cd0  1  0.25000000  0.37500000  0.12500000  1
  Cd  Cd1  1  0.75000000  0.62500000  0.87500000  1
  Cd  Cd2  1  0.75000000  0.12500000  0.37500000  1
  Cd  Cd3  1  0.12500000  0.25000000  0.37500000  1
  Cd  Cd4  1  0.37500000  0.75000000  0.12500000  1
  Cd  Cd5  1  0.25000000  0.87500000  0.62500000  1
  Cd  Cd6  1  0.87500000  0.75000000  0.62500000  1
  Cd  Cd7  1  0.62500000  0.25000000  0.87500000  1
  Cd  Cd8  1  0.37500000  0.12500000  0.25000000  1
  Cd  Cd9  1  0.62500000  0.87500000  0.75000000  1
  Cd  Cd10  1  0.12500000  0.37500000  0.75000000  1
  Cd  Cd11  1  0.87500000  0.62500000  0.25000000  1
  Te  Te0  1  -0.00000000  -0.00000000  -0.00000000  1
  Te  Te1  1  0.50000000  -0.00000000  0.50000000  1
  Te  Te2  1  -0.00000000  0.50000000  0.50000000  1
  Te  Te3  1  0.50000000  -0.00000000  -0.00000000  1
  Te  Te4  1  0.50000000  0.50000000  -0.00000000  1
  Te  Te5  1  0.50000000  0.50000000  0.50000000  1
  Te  Te6  1  -0.00000000  -0.00000000  0.50000000  1
  Te  Te7  1  -0.00000000  0.50000000  -0.00000000  1
  O  O0  1  0.47713452  0.38173641  0.30762417  1
  O  O1  1  0.52286548  0.61826359  0.69237583  1
  O  O2  1  0.57411224  0.16951135  0.19237583  1
  O  O3  1  0.92588776  0.11826359  0.59539811  1
  O  O4  1  0.30762417  0.47713452  0.38173641  1
  O  O5  1  0.33048865  0.92588776  0.30762417  1
  O  O6  1  0.42588776  0.83048865  0.80762417  1
  O  O7  1  0.07411224  0.88173641  0.40460189  1
  O  O8  1  0.69237583  0.52286548  0.61826359  1
  O  O9  1  0.66951135  0.07411224  0.69237583  1
  O  O10  1  0.02286548  0.33048865  0.90460189  1
  O  O11  1  0.19237583  0.57411224  0.16951135  1
  O  O12  1  0.11826359  0.02286548  0.19237583  1
  O  O13  1  0.97713452  0.66951135  0.09539811  1
  O  O14  1  0.80762417  0.42588776  0.83048865  1
  O  O15  1  0.88173641  0.97713452  0.80762417  1
  O  O16  1  0.59539811  0.92588776  0.11826359  1
  O  O17  1  0.16951135  0.47713452  0.59539811  1
  O  O18  1  0.40460189  0.07411224  0.88173641  1
  O  O19  1  0.83048865  0.52286548  0.40460189  1
  O  O20  1  0.90460189  0.02286548  0.33048865  1
  O  O21  1  0.38173641  0.57411224  0.90460189  1
  O  O22  1  0.09539811  0.97713452  0.66951135  1
  O  O23  1  0.61826359  0.42588776  0.09539811  1
  O  O24  1  0.38173641  0.30762417  0.47713452  1
  O  O25  1  0.57411224  0.90460189  0.38173641  1
  O  O26  1  0.61826359  0.69237583  0.52286548  1
  O  O27  1  0.42588776  0.09539811  0.61826359  1
  O  O28  1  0.11826359  0.59539811  0.92588776  1
  O  O29  1  0.02286548  0.19237583  0.11826359  1
  O  O30  1  0.88173641  0.40460189  0.07411224  1
  O  O31  1  0.97713452  0.80762417  0.88173641  1
  O  O32  1  0.33048865  0.90460189  0.02286548  1
  O  O33  1  0.92588776  0.30762417  0.33048865  1
  O  O34  1  0.66951135  0.09539811  0.97713452  1
  O  O35  1  0.07411224  0.69237583  0.66951135  1
  O  O36  1  0.16951135  0.19237583  0.57411224  1
  O  O37  1  0.47713452  0.59539811  0.16951135  1
  O  O38  1  0.83048865  0.80762417  0.42588776  1
  O  O39  1  0.52286548  0.40460189  0.83048865  1
  O  O40  1  0.30762417  0.33048865  0.92588776  1
  O  O41  1  0.69237583  0.66951135  0.07411224  1
  O  O42  1  0.19237583  0.11826359  0.02286548  1
  O  O43  1  0.80762417  0.88173641  0.97713452  1
  O  O44  1  0.90460189  0.38173641  0.57411224  1
  O  O45  1  0.09539811  0.61826359  0.42588776  1
  O  O46  1  0.59539811  0.16951135  0.47713452  1
  O  O47  1  0.40460189  0.83048865  0.52286548  1
loop_
_geom_bond_atom_site_label_1
_geom_bond_atom_site_label_2
_geom_bond_distance
_geom_bond_site_symmetry_2
Cd0 O40 2.389398 1_554
Cd0 O11 2.389398 1_555
Cd0 O4 2.389398 1_555
Cd0 O42 2.389398 1_555
Cd0 O37 2.558551 1_555
Cd0 O10 2.558551 1_554
Cd0 O29 2.558556 1_555
Cd0 O0 2.558556 1_555
Cd1 O14 2.389398 1_555
Cd1 O41 2.389398 1_556
Cd1 O8 2.389398 1_555
Cd1 O43 2.389398 1_555
Cd1 O39 2.558551 1_555
Cd1 O13 2.558551 1_556
Cd1 O1 2.558556 1_555
Cd1 O31 2.558556 1_555
Cd2 O16 2.389398 1_545
Cd2 O44 2.389398 1_555
Cd2 O20 2.389401 1_555
Cd2 O46 2.389401 1_555
Cd2 O25 2.558556 1_545
Cd2 O3 2.558556 1_555
Cd2 O2 2.558564 1_555
Cd2 O33 2.558564 1_555
Cd3 O33 2.389398 1_455
Cd3 O36 2.389398 1_555
Cd3 O24 2.389398 1_555
Cd3 O29 2.389398 1_555
Cd3 O17 2.558551 1_555
Cd3 O20 2.558551 1_455
Cd3 O12 2.558556 1_555
Cd3 O4 2.558556 1_555
Cd4 O28 2.389398 1_554
Cd4 O25 2.389398 1_555
Cd4 O37 2.389401 1_555
Cd4 O32 2.389401 1_555
Cd4 O21 2.558556 1_554
Cd4 O16 2.558556 1_555
Cd4 O11 2.558564 1_555
Cd4 O5 2.558564 1_555
Cd5 O45 2.389398 1_555
Cd5 O18 2.389398 1_565
Cd5 O47 2.389401 1_555
Cd5 O22 2.389401 1_555
Cd5 O7 2.558556 1_555
Cd5 O27 2.558556 1_565
Cd5 O6 2.558564 1_555
Cd5 O35 2.558564 1_555
Cd6 O38 2.389398 1_555
Cd6 O35 2.389398 1_655
Cd6 O26 2.389398 1_555
Cd6 O31 2.389398 1_555
Cd6 O19 2.558551 1_555
Cd6 O22 2.558551 1_655
Cd6 O8 2.558556 1_555
Cd6 O15 2.558556 1_555
Cd7 O27 2.389398 1_555
Cd7 O30 2.389398 1_556
Cd7 O39 2.389401 1_555
Cd7 O34 2.389401 1_555
Cd7 O18 2.558556 1_555
Cd7 O23 2.558556 1_556
Cd7 O14 2.558564 1_555
Cd7 O9 2.558564 1_555
Cd8 O5 2.389398 1_545
Cd8 O2 2.389398 1_555
Cd8 O12 2.389398 1_555
Cd8 O0 2.389398 1_555
Cd8 O46 2.558551 1_555
Cd8 O32 2.558551 1_545
Cd8 O42 2.558556 1_555
Cd8 O24 2.558556 1_555
Cd9 O6 2.389398 1_555
Cd9 O9 2.389398 1_565
Cd9 O15 2.389398 1_555
Cd9 O1 2.389398 1_555
Cd9 O47 2.558551 1_555
Cd9 O34 2.558551 1_565
Cd9 O43 2.558556 1_555
Cd9 O26 2.558556 1_555
Cd10 O21 2.389398 1_555
Cd10 O3 2.389398 1_455
Cd10 O10 2.389401 1_555
Cd10 O17 2.389401 1_555
Cd10 O44 2.558556 1_455
Cd10 O28 2.558556 1_555
Cd10 O36 2.558564 1_555
Cd10 O40 2.558564 1_555
Cd11 O23 2.389398 1_555
Cd11 O7 2.389398 1_655
Cd11 O19 2.389401 1_555
Cd11 O13 2.389401 1_555
Cd11 O30 2.558556 1_555
Cd11 O45 2.558556 1_655
Cd11 O38 2.558564 1_555
Cd11 O41 2.558564 1_555
O0 Zn8 1.922013 1_555
O0 Te5 1.931170 1_555
O1 Zn9 1.922013 1_555
O1 Te5 1.931170 1_555
O2 Zn8 1.922003 1_555
O2 Te3 1.931175 1_555
O3 Zn10 1.922013 1_555
O3 Te6 1.931170 1_655
O4 Zn0 1.922013 1_555
O4 Te5 1.931170 1_555
O5 Zn11 1.922003 1_555
O5 Te1 1.931175 1_565
O6 Zn9 1.922003 1_555
O6 Te3 1.931175 1_566
O7 Zn11 1.922013 1_555
O7 Te6 1.931170 1_565
O8 Zn1 1.922013 1_555
O8 Te5 1.931170 1_555
O9 Zn10 1.922003 1_555
O9 Te1 1.931175 1_555
O10 Zn10 1.922007 1_455
O10 Te7 1.931179 1_556
O11 Zn0 1.922003 1_555
O11 Te7 1.931175 1_555
O12 Zn11 1.922013 1_545
O12 Te0 1.931170 1_555
O13 Zn11 1.922007 1_655
O13 Te7 1.931179 1_655
O14 Zn1 1.922003 1_555
O14 Te7 1.931175 1_656
O15 Zn10 1.922013 1_565
O15 Te0 1.931170 1_666
O16 Zn2 1.922013 1_555
O16 Te3 1.931170 1_565
O17 Zn9 1.922007 1_555
O17 Te2 1.931179 1_555
O18 Zn5 1.922013 1_555
O18 Te3 1.931170 1_556
O19 Zn8 1.922007 1_555
O19 Te2 1.931179 1_655
O20 Zn2 1.922007 1_545
O20 Te6 1.931179 1_655
O21 Zn9 1.922013 1_555
O21 Te4 1.931170 1_556
O22 Zn5 1.922007 1_565
O22 Te6 1.931179 1_565
O23 Zn8 1.922013 1_555
O23 Te4 1.931170 1_555
O24 Zn3 1.922013 1_555
O24 Te5 1.931170 1_555
O25 Zn4 1.922013 1_555
O25 Te1 1.931170 1_565
O26 Zn4 1.922013 1_555
O26 Te5 1.931170 1_555
O27 Zn3 1.922013 1_555
O27 Te1 1.931170 1_555
O28 Zn6 1.922013 1_555
O28 Te7 1.931170 1_556
O29 Zn7 1.922013 1_455
O29 Te0 1.931170 1_555
O30 Zn7 1.922013 1_555
O30 Te7 1.931170 1_655
O31 Zn6 1.922013 1_655
O31 Te0 1.931170 1_666
O32 Zn6 1.922007 1_554
O32 Te3 1.931179 1_565
O33 Zn7 1.922003 1_555
O33 Te2 1.931175 1_655
O34 Zn7 1.922007 1_556
O34 Te3 1.931179 1_556
O35 Zn6 1.922003 1_555
O35 Te2 1.931175 1_555
O36 Zn3 1.922003 1_555
O36 Te6 1.931175 1_555
O37 Zn4 1.922007 1_555
O37 Te4 1.931179 1_555
O38 Zn4 1.922003 1_555
O38 Te6 1.931175 1_665
O39 Zn3 1.922007 1_555
O39 Te4 1.931179 1_556
O40 Zn5 1.922003 1_555
O40 Te4 1.931175 1_556
O41 Zn2 1.922003 1_555
O41 Te4 1.931175 1_555
O42 Zn5 1.922013 1_554
O42 Te0 1.931170 1_555
O43 Zn2 1.922013 1_556
O43 Te0 1.931170 1_666
O44 Zn1 1.922013 1_555
O44 Te2 1.931170 1_655
O45 Zn0 1.922013 1_555
O45 Te2 1.931170 1_555
O46 Zn1 1.922007 1_555
O46 Te1 1.931179 1_555
O47 Zn0 1.922007 1_555
O47 Te1 1.931179 1_565
