# generated using pymatgen
data_Ho14Ag51
_symmetry_space_group_name_H-M   'P 1'
_cell_length_a   9.23509980
_cell_length_b   12.50799021
_cell_length_c   12.50780482
_cell_angle_alpha   60.00235234
_cell_angle_beta   90.00000000
_cell_angle_gamma   90.00000000
_symmetry_Int_Tables_number   1
_chemical_formula_structural   Ho14Ag51
_chemical_formula_sum   'Ho14 Ag51'
_cell_volume   1251.27033081
_cell_formula_units_Z   1
loop_
 _symmetry_equiv_pos_site_id
 _symmetry_equiv_pos_as_xyz
  1  'x, y, z'
loop_
 _atom_site_type_symbol
 _atom_site_label
 _atom_site_symmetry_multiplicity
 _atom_site_fract_x
 _atom_site_fract_y
 _atom_site_fract_z
 _atom_site_occupancy
  Ho  Ho0  1  0.50000000  0.67232223  0.85921436  1
  Ho  Ho1  1  0.50000000  0.46846396  0.67231521  1
  Ho  Ho2  1  0.50000000  0.85922156  0.46846793  1
  Ho  Ho3  1  0.50000000  0.32975887  0.14186797  1
  Ho  Ho4  1  0.50000000  0.52836622  0.32976655  1
  Ho  Ho5  1  0.50000000  0.14186610  0.52836490  1
  Ho  Ho6  1  -0.00000000  0.26910183  0.61756112  1
  Ho  Ho7  1  -0.00000000  0.11334814  0.26909221  1
  Ho  Ho8  1  -0.00000000  0.61756409  0.11334267  1
  Ho  Ho9  1  -0.00000000  0.71494328  0.39920352  1
  Ho  Ho10  1  -0.00000000  0.88583188  0.71494791  1
  Ho  Ho11  1  -0.00000000  0.39921181  0.88584074  1
  Ho  Ho12  1  0.30914689  0.00000065  0.00000117  1
  Ho  Ho13  1  0.69085311  0.00000065  0.00000117  1
  Ag  Ag0  1  0.33402798  0.33464629  0.56297549  1
  Ag  Ag1  1  0.33402831  0.10236793  0.33465358  1
  Ag  Ag2  1  0.33403036  0.56297248  0.10237668  1
  Ag  Ag3  1  0.33365744  0.66219606  0.44161332  1
  Ag  Ag4  1  0.33365663  0.89620316  0.66219066  1
  Ag  Ag5  1  0.33365618  0.44160809  0.89619409  1
  Ag  Ag6  1  0.66634256  0.66219606  0.44161332  1
  Ag  Ag7  1  0.66634337  0.89620316  0.66219066  1
  Ag  Ag8  1  0.66634382  0.44160809  0.89619409  1
  Ag  Ag9  1  0.66597202  0.33464629  0.56297549  1
  Ag  Ag10  1  0.66597169  0.10236793  0.33465358  1
  Ag  Ag11  1  0.66596964  0.56297248  0.10237668  1
  Ag  Ag12  1  0.15194439  0.62538957  0.88454612  1
  Ag  Ag13  1  0.15195200  0.49005812  0.62539560  1
  Ag  Ag14  1  0.15194165  0.88453810  0.49006671  1
  Ag  Ag15  1  0.15086227  0.38229052  0.11480443  1
  Ag  Ag16  1  0.15086592  0.50290857  0.38228474  1
  Ag  Ag17  1  0.15085489  0.11480682  0.50290544  1
  Ag  Ag18  1  0.84913773  0.38229052  0.11480443  1
  Ag  Ag19  1  0.84913408  0.50290857  0.38228474  1
  Ag  Ag20  1  0.84914511  0.11480682  0.50290544  1
  Ag  Ag21  1  0.84805561  0.62538957  0.88454612  1
  Ag  Ag22  1  0.84804800  0.49005812  0.62539560  1
  Ag  Ag23  1  0.84805835  0.88453810  0.49006671  1
  Ag  Ag24  1  0.50000000  0.17850642  0.76460105  1
  Ag  Ag25  1  0.50000000  0.05687948  0.17850641  1
  Ag  Ag26  1  0.50000000  0.76460406  0.05688725  1
  Ag  Ag27  1  0.50000000  0.81903740  0.24038202  1
  Ag  Ag28  1  0.50000000  0.94059004  0.81904154  1
  Ag  Ag29  1  0.50000000  0.24037588  0.94058617  1
  Ag  Ag30  1  -0.00000000  0.66666154  0.66666589  1
  Ag  Ag31  1  -0.00000000  0.33333762  0.33333296  1
  Ag  Ag32  1  0.24076034  0.07853836  0.72838938  1
  Ag  Ag33  1  0.24076232  0.19307600  0.07853712  1
  Ag  Ag34  1  0.24075466  0.72838785  0.19308427  1
  Ag  Ag35  1  0.22812545  0.92471339  0.26086973  1
  Ag  Ag36  1  0.22812348  0.81441601  0.92471419  1
  Ag  Ag37  1  0.22812505  0.26087332  0.81440915  1
  Ag  Ag38  1  0.77187455  0.92471339  0.26086973  1
  Ag  Ag39  1  0.77187652  0.81441601  0.92471419  1
  Ag  Ag40  1  0.77187495  0.26087332  0.81440915  1
  Ag  Ag41  1  0.75923966  0.07853836  0.72838938  1
  Ag  Ag42  1  0.75923768  0.19307600  0.07853712  1
  Ag  Ag43  1  0.75924534  0.72838785  0.19308427  1
  Ag  Ag44  1  0.30163203  0.66667096  0.66666581  1
  Ag  Ag45  1  0.30177317  0.33332871  0.33333444  1
  Ag  Ag46  1  0.69822683  0.33332871  0.33333444  1
  Ag  Ag47  1  0.69836797  0.66667096  0.66666581  1
  Ag  Ag48  1  -0.00000000  0.99115700  0.87771186  1
  Ag  Ag49  1  -0.00000000  0.13113451  0.99114640  1
  Ag  Ag50  1  -0.00000000  0.87773109  0.13112205  1
loop_
_geom_bond_atom_site_label_1
_geom_bond_atom_site_label_2
_geom_bond_distance
_geom_bond_site_symmetry_2
Ho12 Ho13 3.525095 1_555
Ag0 Ag24 2.756559 1_555
Ag0 Ag16 2.764467 1_555
Ag0 Ag45 2.895941 1_555
Ag0 Ag32 2.942281 1_555
Ag0 Ag13 2.955204 1_555
Ag0 Ag37 2.965898 1_555
Ag0 Ho1 3.051261 1_555
Ag0 Ho5 3.065109 1_555
Ag0 Ag9 3.065536 1_555
Ag0 Ho4 3.108322 1_555
Ag0 Ho6 3.177176 1_555
Ag1 Ag25 2.756571 1_555
Ag1 Ag17 2.764409 1_555
Ag1 Ag45 2.896002 1_555
Ag1 Ag33 2.942270 1_555
Ag1 Ag14 2.955331 1_545
Ag1 Ag35 2.965895 1_545
Ag1 Ho2 3.051257 1_545
Ag1 Ho3 3.065214 1_555
Ag1 Ag10 3.065530 1_555
Ag1 Ho5 3.108189 1_555
Ag1 Ho7 3.177199 1_555
Ag2 Ag26 2.756575 1_555
Ag2 Ag45 2.896078 1_555
Ag2 Ag34 2.942328 1_555
Ag2 Ag36 2.966084 1_554
Ag2 Ho0 3.051346 1_554
Ag2 Ho4 3.065100 1_555
Ag2 Ho3 3.108314 1_555
Ag2 Ho8 3.177221 1_555
Ag3 Ag44 2.858651 1_555
Ag3 Ag34 2.917396 1_555
Ag3 Ho2 3.061641 1_555
Ag3 Ag35 3.069166 1_555
Ag3 Ag6 3.072380 1_555
Ag3 Ho4 3.075817 1_555
Ag3 Ho1 3.092974 1_555
Ag3 Ho9 3.140302 1_555
Ag4 Ag44 2.858754 1_555
Ag4 Ho0 3.061722 1_555
Ag4 Ag7 3.072395 1_555
Ag4 Ho5 3.075795 1_565
Ag4 Ho2 3.092856 1_555
Ag4 Ho10 3.140287 1_555
Ag5 Ho1 3.061616 1_555
Ag5 Ag8 3.072404 1_555
Ag5 Ho3 3.075852 1_556
Ag5 Ho0 3.093032 1_555
Ag5 Ho11 3.140279 1_555
Ag6 Ho2 3.061641 1_555
Ag6 Ho4 3.075817 1_555
Ag6 Ho1 3.092974 1_555
Ag6 Ho9 3.140302 1_655
Ag7 Ho0 3.061722 1_555
Ag7 Ho5 3.075795 1_565
Ag7 Ho2 3.092856 1_555
Ag7 Ho10 3.140287 1_655
Ag8 Ho1 3.061616 1_555
Ag8 Ho3 3.075852 1_556
Ag8 Ho0 3.093032 1_555
Ag8 Ho11 3.140279 1_655
Ag9 Ho1 3.051261 1_555
Ag9 Ho5 3.065109 1_555
Ag9 Ho4 3.108322 1_555
Ag9 Ho6 3.177176 1_655
Ag10 Ag25 2.756571 1_555
Ag10 Ag20 2.764409 1_555
Ag10 Ag46 2.896002 1_555
Ag10 Ag42 2.942270 1_555
Ag10 Ag23 2.955331 1_545
Ag10 Ag38 2.965895 1_545
Ag10 Ho2 3.051257 1_545
Ag10 Ho3 3.065214 1_555
Ag10 Ho5 3.108189 1_555
Ag10 Ho7 3.177199 1_655
Ag11 Ag26 2.756575 1_555
Ag11 Ag18 2.764376 1_555
Ag11 Ag46 2.896078 1_555
Ag11 Ag43 2.942328 1_555
Ag11 Ag21 2.955269 1_554
Ag11 Ag39 2.966084 1_554
Ag11 Ho0 3.051346 1_554
Ag11 Ho4 3.065100 1_555
Ag11 Ag2 3.065492 1_555
Ag11 Ho3 3.108314 1_555
Ag11 Ho8 3.177221 1_655
Ag12 Ag36 2.743222 1_555
Ag12 Ag5 2.790456 1_555
Ag12 Ag21 2.806443 1_455
Ag12 Ag44 2.863089 1_555
Ag12 Ag30 2.873243 1_555
Ag12 Ag2 2.955269 1_556
Ag12 Ag15 2.963743 1_556
Ag12 Ho8 3.144534 1_556
Ag12 Ho11 3.150697 1_555
Ag12 Ho10 3.189215 1_555
Ag12 Ho0 3.254369 1_555
Ag13 Ag37 2.743174 1_555
Ag13 Ag3 2.790488 1_555
Ag13 Ag22 2.806584 1_455
Ag13 Ag44 2.863125 1_555
Ag13 Ag30 2.873213 1_555
Ag13 Ag16 2.963710 1_555
Ag13 Ho6 3.144484 1_555
Ag13 Ho9 3.150891 1_555
Ag13 Ho11 3.189200 1_555
Ag13 Ho1 3.254276 1_555
Ag14 Ag35 2.743230 1_555
Ag14 Ag4 2.790438 1_555
Ag14 Ag23 2.806393 1_455
Ag14 Ag44 2.863091 1_555
Ag14 Ag30 2.873254 1_555
Ag14 Ag17 2.963767 1_565
Ag14 Ho7 3.144727 1_565
Ag14 Ho10 3.150621 1_555
Ag14 Ho9 3.189222 1_555
Ag14 Ho2 3.254361 1_555
Ag15 Ag33 2.751330 1_555
Ag15 Ag2 2.764376 1_555
Ag15 Ag18 2.786456 1_455
Ag15 Ag31 2.848421 1_555
Ag15 Ag45 2.848627 1_555
Ag15 Ag5 2.974599 1_554
Ag15 Ho11 3.095372 1_554
Ag15 Ho7 3.238824 1_555
Ag15 Ho8 3.247720 1_555
Ag15 Ho3 3.274167 1_555
Ag16 Ag34 2.751311 1_555
Ag16 Ag19 2.786524 1_455
Ag16 Ag31 2.848371 1_555
Ag16 Ag45 2.848642 1_555
Ag16 Ag3 2.974599 1_555
Ag16 Ho9 3.095309 1_555
Ag16 Ho8 3.238778 1_555
Ag16 Ho6 3.247796 1_555
Ag16 Ho4 3.274107 1_555
Ag17 Ag32 2.751360 1_555
Ag17 Ag20 2.786320 1_455
Ag17 Ag31 2.848471 1_555
Ag17 Ag45 2.848687 1_555
Ag17 Ag4 2.974639 1_545
Ag17 Ho10 3.095515 1_545
Ag17 Ho6 3.238763 1_555
Ag17 Ho7 3.247649 1_555
Ag17 Ho5 3.274205 1_555
Ag18 Ag42 2.751330 1_555
Ag18 Ag31 2.848421 1_655
Ag18 Ag46 2.848627 1_555
Ag18 Ag21 2.963743 1_554
Ag18 Ag8 2.974599 1_554
Ag18 Ho11 3.095372 1_654
Ag18 Ho7 3.238824 1_655
Ag18 Ho8 3.247720 1_655
Ag18 Ho3 3.274167 1_555
Ag19 Ag43 2.751311 1_555
Ag19 Ag9 2.764467 1_555
Ag19 Ag31 2.848371 1_655
Ag19 Ag46 2.848642 1_555
Ag19 Ag22 2.963710 1_555
Ag19 Ag6 2.974599 1_555
Ag19 Ho9 3.095309 1_655
Ag19 Ho8 3.238778 1_655
Ag19 Ho6 3.247796 1_655
Ag19 Ho4 3.274107 1_555
Ag20 Ag41 2.751360 1_555
Ag20 Ag31 2.848471 1_655
Ag20 Ag46 2.848687 1_555
Ag20 Ag23 2.963767 1_545
Ag20 Ag7 2.974639 1_545
Ag20 Ho10 3.095515 1_645
Ag20 Ho6 3.238763 1_655
Ag20 Ho7 3.247649 1_655
Ag20 Ho5 3.274205 1_555
Ag21 Ag39 2.743222 1_555
Ag21 Ag8 2.790456 1_555
Ag21 Ag47 2.863089 1_555
Ag21 Ag30 2.873243 1_655
Ag21 Ho8 3.144534 1_656
Ag21 Ho11 3.150697 1_655
Ag21 Ho10 3.189215 1_655
Ag21 Ho0 3.254369 1_555
Ag22 Ag40 2.743174 1_555
Ag22 Ag6 2.790488 1_555
Ag22 Ag47 2.863125 1_555
Ag22 Ag30 2.873213 1_655
Ag22 Ag9 2.955204 1_555
Ag22 Ho6 3.144484 1_655
Ag22 Ho9 3.150891 1_655
Ag22 Ho11 3.189200 1_655
Ag22 Ho1 3.254276 1_555
Ag23 Ag38 2.743230 1_555
Ag23 Ag7 2.790438 1_555
Ag23 Ag47 2.863091 1_555
Ag23 Ag30 2.873254 1_655
Ag23 Ho7 3.144727 1_665
Ag23 Ho10 3.150621 1_655
Ag23 Ho9 3.189222 1_655
Ag23 Ho2 3.254361 1_555
Ag24 Ag29 2.673459 1_555
Ag24 Ag28 2.700588 1_545
Ag24 Ag9 2.756559 1_555
Ag24 Ag41 2.840190 1_555
Ag24 Ag32 2.840190 1_555
Ag24 Ag37 2.897479 1_555
Ag24 Ag40 2.897479 1_555
Ag24 Ho12 3.191766 1_556
Ag24 Ho13 3.191766 1_556
Ag24 Ho5 3.208571 1_555
Ag24 Ho1 3.209345 1_555
Ag25 Ag27 2.673375 1_545
Ag25 Ag29 2.700728 1_554
Ag25 Ag33 2.840290 1_555
Ag25 Ag42 2.840290 1_555
Ag25 Ag35 2.897460 1_545
Ag25 Ag38 2.897460 1_545
Ag25 Ho12 3.191557 1_555
Ag25 Ho13 3.191557 1_555
Ag25 Ho3 3.208695 1_555
Ag25 Ho2 3.209356 1_545
Ag26 Ag28 2.673495 1_554
Ag26 Ag27 2.700675 1_555
Ag26 Ag43 2.840345 1_555
Ag26 Ag34 2.840345 1_555
Ag26 Ag36 2.897490 1_554
Ag26 Ag39 2.897490 1_554
Ag26 Ho12 3.191732 1_565
Ag26 Ho13 3.191732 1_565
Ag26 Ho4 3.208741 1_555
Ag26 Ho0 3.209205 1_554
Ag27 Ag3 2.757928 1_555
Ag27 Ag6 2.757928 1_555
Ag27 Ag34 2.835188 1_555
Ag27 Ag43 2.835188 1_555
Ag27 Ag35 2.907845 1_555
Ag27 Ag38 2.907845 1_555
Ag27 Ho2 3.134520 1_555
Ag27 Ho4 3.225505 1_555
Ag27 Ho12 3.234936 1_565
Ag27 Ho13 3.234936 1_565
Ag28 Ag7 2.757928 1_555
Ag28 Ag4 2.757928 1_555
Ag28 Ag41 2.835187 1_565
Ag28 Ag32 2.835187 1_565
Ag28 Ag36 2.907921 1_555
Ag28 Ag39 2.907921 1_555
Ag28 Ho0 3.134625 1_555
Ag28 Ho5 3.225540 1_565
Ag28 Ho12 3.234754 1_566
Ag28 Ho13 3.234754 1_566
Ag29 Ag5 2.757915 1_555
Ag29 Ag8 2.757915 1_555
Ag29 Ag33 2.835161 1_556
Ag29 Ag42 2.835161 1_556
Ag29 Ag37 2.907907 1_555
Ag29 Ag40 2.907907 1_555
Ag29 Ho1 3.134673 1_555
Ag29 Ho3 3.225318 1_556
Ag29 Ho12 3.234865 1_556
Ag29 Ho13 3.234865 1_556
Ag30 Ag47 2.785602 1_455
Ag30 Ag44 2.785602 1_555
Ag30 Ho10 3.087924 1_555
Ag30 Ho11 3.088038 1_555
Ag30 Ho9 3.088047 1_555
Ag31 Ag45 2.786905 1_555
Ag31 Ag46 2.786905 1_455
Ag31 Ho7 3.229223 1_555
Ag31 Ho6 3.229229 1_555
Ag31 Ho8 3.229322 1_555
Ag32 Ag48 2.754159 1_545
Ag32 Ag4 2.917393 1_545
Ag32 Ag37 2.970886 1_555
Ag32 Ag36 2.974185 1_545
Ag32 Ho6 3.040196 1_555
Ag32 Ho12 3.093256 1_556
Ag32 Ho5 3.261427 1_555
Ag32 Ho10 3.344708 1_545
Ag33 Ag49 2.754206 1_554
Ag33 Ag5 2.917505 1_554
Ag33 Ag35 2.971081 1_545
Ag33 Ag37 2.974152 1_554
Ag33 Ho7 3.040119 1_555
Ag33 Ho12 3.093223 1_555
Ag33 Ho3 3.261303 1_555
Ag33 Ho11 3.344675 1_554
Ag34 Ag50 2.754247 1_555
Ag34 Ag36 2.971083 1_554
Ag34 Ag35 2.973964 1_555
Ag34 Ho8 3.040105 1_555
Ag34 Ho12 3.093397 1_565
Ag34 Ho4 3.261467 1_555
Ag34 Ho9 3.344374 1_555
Ag35 Ag50 2.893279 1_555
Ag35 Ho12 3.003448 1_565
Ag35 Ho9 3.126826 1_555
Ag35 Ho7 3.202909 1_565
Ag35 Ho2 3.404484 1_555
Ag36 Ag48 2.893357 1_555
Ag36 Ho12 3.003461 1_566
Ag36 Ag4 3.069122 1_555
Ag36 Ho10 3.126766 1_555
Ag36 Ho8 3.202898 1_556
Ag36 Ho0 3.404428 1_555
Ag37 Ag49 2.893356 1_555
Ag37 Ho12 3.003606 1_556
Ag37 Ag5 3.069046 1_555
Ag37 Ho11 3.126757 1_555
Ag37 Ho6 3.202772 1_555
Ag37 Ho1 3.404465 1_555
Ag38 Ag50 2.893279 1_655
Ag38 Ag42 2.971081 1_565
Ag38 Ag43 2.973964 1_555
Ag38 Ho13 3.003448 1_565
Ag38 Ag6 3.069166 1_555
Ag38 Ho9 3.126826 1_655
Ag38 Ho7 3.202909 1_665
Ag38 Ho2 3.404484 1_555
Ag39 Ag48 2.893357 1_655
Ag39 Ag43 2.971083 1_556
Ag39 Ag41 2.974185 1_565
Ag39 Ho13 3.003461 1_566
Ag39 Ag7 3.069122 1_555
Ag39 Ho10 3.126766 1_655
Ag39 Ho8 3.202898 1_656
Ag39 Ho0 3.404428 1_555
Ag40 Ag49 2.893356 1_655
Ag40 Ag9 2.965898 1_555
Ag40 Ag41 2.970886 1_555
Ag40 Ag42 2.974152 1_556
Ag40 Ho13 3.003606 1_556
Ag40 Ag8 3.069046 1_555
Ag40 Ho11 3.126757 1_655
Ag40 Ho6 3.202772 1_655
Ag40 Ho1 3.404465 1_555
Ag41 Ag48 2.754159 1_645
Ag41 Ag7 2.917393 1_545
Ag41 Ag9 2.942281 1_555
Ag41 Ho6 3.040196 1_655
Ag41 Ho13 3.093256 1_556
Ag41 Ho5 3.261427 1_555
Ag41 Ho10 3.344708 1_645
Ag42 Ag49 2.754206 1_654
Ag42 Ag8 2.917505 1_554
Ag42 Ho7 3.040119 1_655
Ag42 Ho13 3.093223 1_555
Ag42 Ho3 3.261303 1_555
Ag42 Ho11 3.344675 1_654
Ag43 Ag50 2.754247 1_655
Ag43 Ag6 2.917396 1_555
Ag43 Ho8 3.040105 1_655
Ag43 Ho13 3.093397 1_565
Ag43 Ho4 3.261467 1_555
Ag43 Ho9 3.344374 1_655
Ag44 Ag5 2.858840 1_555
Ag44 Ho0 3.054742 1_555
Ag44 Ho2 3.054827 1_555
Ag44 Ho1 3.054856 1_555
Ag45 Ho3 3.032386 1_555
Ag45 Ho5 3.032421 1_555
Ag45 Ho4 3.032439 1_555
Ag46 Ag9 2.895941 1_555
Ag46 Ho3 3.032386 1_555
Ag46 Ho5 3.032421 1_555
Ag46 Ho4 3.032439 1_555
Ag47 Ag6 2.858651 1_555
Ag47 Ag7 2.858754 1_555
Ag47 Ag8 2.858840 1_555
Ag47 Ho0 3.054742 1_555
Ag47 Ho2 3.054827 1_555
Ag47 Ho1 3.054856 1_555
Ag48 Ag49 2.749984 1_565
Ag48 Ag50 2.750036 1_556
Ag48 Ho10 2.926077 1_555
Ag48 Ho13 3.266810 1_466
Ag48 Ho12 3.266810 1_566
Ag48 Ho6 3.370860 1_565
Ag49 Ag50 2.750013 1_546
Ag49 Ho11 2.926088 1_555
Ag49 Ho13 3.266800 1_456
Ag49 Ho12 3.266800 1_556
Ag49 Ho7 3.370775 1_556
Ag50 Ho9 2.926142 1_555
Ag50 Ho13 3.266749 1_465
Ag50 Ho12 3.266749 1_565
Ag50 Ho8 3.370855 1_555
