# generated using pymatgen
data_Mn2SeS
_symmetry_space_group_name_H-M   'P 1'
_cell_length_a   5.85705290
_cell_length_b   5.85705290
_cell_length_c   5.85705206
_cell_angle_alpha   34.18504482
_cell_angle_beta   34.18504482
_cell_angle_gamma   34.18504235
_symmetry_Int_Tables_number   1
_chemical_formula_structural   Mn2SeS
_chemical_formula_sum   'Mn2 Se1 S1'
_cell_volume   56.55880500
_cell_formula_units_Z   1
loop_
 _symmetry_equiv_pos_site_id
 _symmetry_equiv_pos_as_xyz
  1  'x, y, z'
loop_
 _atom_site_type_symbol
 _atom_site_label
 _atom_site_symmetry_multiplicity
 _atom_site_fract_x
 _atom_site_fract_y
 _atom_site_fract_z
 _atom_site_occupancy
  Mn  Mn0  1  0.22189300  0.22189300  0.22189300  1
  Mn  Mn1  1  0.77810700  0.77810700  0.77810700  1
  Se  Se0  1  0.00000000  0.00000000  0.00000000  1
  S  S0  1  0.50000000  0.50000000  0.50000000  1
loop_
_geom_bond_atom_site_label_1
_geom_bond_atom_site_label_2
_geom_bond_distance
_geom_bond_site_symmetry_2
Mn0 S0 2.187353 1_554
Mn0 S0 2.187354 1_455
Mn0 S0 2.187354 1_545
Mn0 Se0 2.709976 1_556
Mn0 Se0 2.709977 1_565
Mn0 Se0 2.709977 1_655
Mn1 S0 2.187353 1_556
Mn1 S0 2.187354 1_565
Mn1 S0 2.187354 1_655
Mn1 Se0 2.709976 1_665
Mn1 Se0 2.709977 1_656
Mn1 Se0 2.709977 1_566
