# generated using pymatgen
data_La2Mo4O15
_symmetry_space_group_name_H-M   'P 1'
_cell_length_a   13.26232529
_cell_length_b   14.09228656
_cell_length_c   20.35819559
_cell_angle_alpha   95.25798180
_cell_angle_beta   90.00000000
_cell_angle_gamma   90.00000000
_symmetry_Int_Tables_number   1
_chemical_formula_structural   La2Mo4O15
_chemical_formula_sum   'La24 Mo48 O180'
_cell_volume   3788.86500254
_cell_formula_units_Z   12
loop_
 _symmetry_equiv_pos_site_id
 _symmetry_equiv_pos_as_xyz
  1  'x, y, z'
loop_
 _atom_site_type_symbol
 _atom_site_label
 _atom_site_symmetry_multiplicity
 _atom_site_fract_x
 _atom_site_fract_y
 _atom_site_fract_z
 _atom_site_occupancy
  La  La0  1  0.63232544  0.55599514  0.70966072  1
  La  La1  1  0.13232544  0.94400486  0.29033928  1
  La  La2  1  0.36767456  0.44400486  0.29033928  1
  La  La3  1  0.86767456  0.05599514  0.70966072  1
  La  La4  1  0.61714578  0.71593306  0.54584703  1
  La  La5  1  0.11714578  0.78406694  0.45415297  1
  La  La6  1  0.38285422  0.28406694  0.45415297  1
  La  La7  1  0.88285422  0.21593306  0.54584703  1
  La  La8  1  0.11437540  0.64784780  0.62286714  1
  La  La9  1  0.61437540  0.85215220  0.37713286  1
  La  La10  1  0.88562460  0.35215220  0.37713286  1
  La  La11  1  0.38562460  0.14784780  0.62286714  1
  La  La12  1  0.34153611  0.82255935  0.94482981  1
  La  La13  1  0.84153611  0.67744065  0.05517019  1
  La  La14  1  0.65846389  0.17744065  0.05517019  1
  La  La15  1  0.15846389  0.32255935  0.94482981  1
  La  La16  1  0.37497307  0.97700359  0.79406663  1
  La  La17  1  0.87497307  0.52299641  0.20593337  1
  La  La18  1  0.62502693  0.02299641  0.20593337  1
  La  La19  1  0.12502693  0.47700359  0.79406663  1
  La  La20  1  0.87305876  0.88874566  0.86564923  1
  La  La21  1  0.37305876  0.61125434  0.13435077  1
  La  La22  1  0.12694124  0.11125434  0.13435077  1
  La  La23  1  0.62694124  0.38874566  0.86564923  1
  Mo  Mo0  1  0.65272909  0.43357274  0.51628519  1
  Mo  Mo1  1  0.15272909  0.06642726  0.48371481  1
  Mo  Mo2  1  0.34727091  0.56642726  0.48371481  1
  Mo  Mo3  1  0.84727091  0.93357274  0.51628519  1
  Mo  Mo4  1  0.41490128  0.58871688  0.81952456  1
  Mo  Mo5  1  0.91490128  0.91128312  0.18047544  1
  Mo  Mo6  1  0.58509872  0.41128312  0.18047544  1
  Mo  Mo7  1  0.08509872  0.08871688  0.81952456  1
  Mo  Mo8  1  0.40555104  0.73005399  0.66197760  1
  Mo  Mo9  1  0.90555104  0.76994601  0.33802240  1
  Mo  Mo10  1  0.59444896  0.26994601  0.33802240  1
  Mo  Mo11  1  0.09444896  0.23005399  0.66197760  1
  Mo  Mo12  1  0.40236557  0.87344826  0.51065316  1
  Mo  Mo13  1  0.90236557  0.62655174  0.48934684  1
  Mo  Mo14  1  0.59763443  0.12655174  0.48934684  1
  Mo  Mo15  1  0.09763443  0.37344826  0.51065316  1
  Mo  Mo16  1  0.58183831  0.78217137  0.86010057  1
  Mo  Mo17  1  0.08183831  0.71782863  0.13989943  1
  Mo  Mo18  1  0.41816169  0.21782863  0.13989943  1
  Mo  Mo19  1  0.91816169  0.28217137  0.86010057  1
  Mo  Mo20  1  0.58803127  0.98520570  0.64683302  1
  Mo  Mo21  1  0.08803127  0.51479430  0.35316698  1
  Mo  Mo22  1  0.41196873  0.01479430  0.35316698  1
  Mo  Mo23  1  0.91196873  0.48520570  0.64683302  1
  Mo  Mo24  1  0.14811320  0.77578687  0.79046533  1
  Mo  Mo25  1  0.64811320  0.72421313  0.20953467  1
  Mo  Mo26  1  0.85188680  0.22421313  0.20953467  1
  Mo  Mo27  1  0.35188680  0.27578687  0.79046533  1
  Mo  Mo28  1  0.14246739  0.92204874  0.63373414  1
  Mo  Mo29  1  0.64246739  0.57795126  0.36626586  1
  Mo  Mo30  1  0.85753261  0.07795126  0.36626586  1
  Mo  Mo31  1  0.35753261  0.42204874  0.63373414  1
  Mo  Mo32  1  0.16316551  0.59884748  0.97955870  1
  Mo  Mo33  1  0.66316551  0.90115252  0.02044130  1
  Mo  Mo34  1  0.83683449  0.40115252  0.02044130  1
  Mo  Mo35  1  0.33683449  0.09884748  0.97955870  1
  Mo  Mo36  1  0.06359865  0.87474392  0.01638207  1
  Mo  Mo37  1  0.56359865  0.62525608  0.98361793  1
  Mo  Mo38  1  0.93640135  0.12525608  0.98361793  1
  Mo  Mo39  1  0.43640135  0.37474392  0.01638207  1
  Mo  Mo40  1  0.84135404  0.78405291  0.67230720  1
  Mo  Mo41  1  0.34135404  0.71594709  0.32769280  1
  Mo  Mo42  1  0.15864596  0.21594709  0.32769280  1
  Mo  Mo43  1  0.65864596  0.28405291  0.67230720  1
  Mo  Mo44  1  0.65637817  0.09581187  0.85688140  1
  Mo  Mo45  1  0.15637817  0.40418813  0.14311860  1
  Mo  Mo46  1  0.34362183  0.90418813  0.14311860  1
  Mo  Mo47  1  0.84362183  0.59581187  0.85688140  1
  O  O0  1  0.80826275  0.52317074  0.69803739  1
  O  O1  1  0.30826275  0.97682926  0.30196261  1
  O  O2  1  0.19173725  0.47682926  0.30196261  1
  O  O3  1  0.69173725  0.02317074  0.69803739  1
  O  O4  1  0.47651059  0.46235262  0.66449647  1
  O  O5  1  0.97651059  0.03764738  0.33550353  1
  O  O6  1  0.52348941  0.53764738  0.33550353  1
  O  O7  1  0.02348941  0.96235262  0.66449647  1
  O  O8  1  0.65659028  0.53708533  0.57724566  1
  O  O9  1  0.15659028  0.96291467  0.42275434  1
  O  O10  1  0.34340972  0.46291467  0.42275434  1
  O  O11  1  0.84340972  0.03708533  0.57724566  1
  O  O12  1  0.73211502  0.70881599  0.66892900  1
  O  O13  1  0.23211502  0.79118401  0.33107100  1
  O  O14  1  0.26788498  0.29118401  0.33107100  1
  O  O15  1  0.76788498  0.20881599  0.66892900  1
  O  O16  1  0.52339680  0.66496085  0.64553160  1
  O  O17  1  0.02339680  0.83503915  0.35446840  1
  O  O18  1  0.47660320  0.33503915  0.35446840  1
  O  O19  1  0.97660320  0.16496085  0.64553160  1
  O  O20  1  0.59107285  0.69781048  0.78955474  1
  O  O21  1  0.09107285  0.80218952  0.21044526  1
  O  O22  1  0.40892715  0.30218952  0.21044526  1
  O  O23  1  0.90892715  0.19781048  0.78955474  1
  O  O24  1  0.64728316  0.69302592  0.41817772  1
  O  O25  1  0.14728316  0.80697408  0.58182228  1
  O  O26  1  0.35271684  0.30697408  0.58182228  1
  O  O27  1  0.85271684  0.19302592  0.41817772  1
  O  O28  1  0.79346321  0.67707607  0.52829890  1
  O  O29  1  0.29346321  0.82292393  0.47170110  1
  O  O30  1  0.20653679  0.32292393  0.47170110  1
  O  O31  1  0.70653679  0.17707607  0.52829890  1
  O  O32  1  0.73715143  0.86398609  0.49614801  1
  O  O33  1  0.23715143  0.63601391  0.50385199  1
  O  O34  1  0.26284857  0.13601391  0.50385199  1
  O  O35  1  0.76284857  0.36398609  0.49614801  1
  O  O36  1  0.46616040  0.62441425  0.49759534  1
  O  O37  1  0.96616040  0.87558575  0.50240466  1
  O  O38  1  0.53383960  0.37558575  0.50240466  1
  O  O39  1  0.03383960  0.12441425  0.49759534  1
  O  O40  1  0.52886193  0.83343688  0.48128678  1
  O  O41  1  0.02886193  0.66656312  0.51871322  1
  O  O42  1  0.47113807  0.16656312  0.51871322  1
  O  O43  1  0.97113807  0.33343688  0.48128678  1
  O  O44  1  0.60006308  0.86055007  0.62623248  1
  O  O45  1  0.10006308  0.63944993  0.37376752  1
  O  O46  1  0.39993692  0.13944993  0.37376752  1
  O  O47  1  0.89993692  0.36055007  0.62623248  1
  O  O48  1  0.12133225  0.48139545  0.55913750  1
  O  O49  1  0.62133225  0.01860455  0.44086250  1
  O  O50  1  0.87866775  0.51860455  0.44086250  1
  O  O51  1  0.37866775  0.98139545  0.55913750  1
  O  O52  1  0.28763558  0.67253768  0.64524746  1
  O  O53  1  0.78763558  0.82746232  0.35475254  1
  O  O54  1  0.71236442  0.32746232  0.35475254  1
  O  O55  1  0.21236442  0.17253768  0.64524746  1
  O  O56  1  0.13877184  0.81724826  0.70914966  1
  O  O57  1  0.63877184  0.68275174  0.29085034  1
  O  O58  1  0.86122816  0.18275174  0.29085034  1
  O  O59  1  0.36122816  0.31724826  0.70914966  1
  O  O60  1  0.95281467  0.71132696  0.66677685  1
  O  O61  1  0.45281467  0.78867304  0.33322315  1
  O  O62  1  0.04718533  0.28867304  0.33322315  1
  O  O63  1  0.54718533  0.21132696  0.66677685  1
  O  O64  1  0.55281828  0.86684633  0.97130082  1
  O  O65  1  0.05281828  0.63315367  0.02869918  1
  O  O66  1  0.44718172  0.13315367  0.02869918  1
  O  O67  1  0.94718172  0.36684633  0.97130082  1
  O  O68  1  0.35008083  0.89831666  0.05437426  1
  O  O69  1  0.85008083  0.60168334  0.94562574  1
  O  O70  1  0.64991917  0.10168334  0.94562574  1
  O  O71  1  0.14991917  0.39831666  0.05437426  1
  O  O72  1  0.20343656  0.69556320  0.93466879  1
  O  O73  1  0.70343656  0.80443680  0.06533121  1
  O  O74  1  0.79656344  0.30443680  0.06533121  1
  O  O75  1  0.29656344  0.19556320  0.93466879  1
  O  O76  1  0.16257326  0.89319885  0.96152198  1
  O  O77  1  0.66257326  0.60680115  0.03847802  1
  O  O78  1  0.83742674  0.10680115  0.03847802  1
  O  O79  1  0.33742674  0.39319885  0.96152198  1
  O  O80  1  0.43767214  0.67768778  0.89048861  1
  O  O81  1  0.93767214  0.82231222  0.10951139  1
  O  O82  1  0.56232786  0.32231222  0.10951139  1
  O  O83  1  0.06232786  0.17768778  0.89048861  1
  O  O84  1  0.46736909  0.85035663  0.85094505  1
  O  O85  1  0.96736909  0.64964337  0.14905495  1
  O  O86  1  0.53263091  0.14964337  0.14905495  1
  O  O87  1  0.03263091  0.35035663  0.85094505  1
  O  O88  1  0.36025624  0.99296090  0.92165537  1
  O  O89  1  0.86025624  0.50703910  0.07834463  1
  O  O90  1  0.63974376  0.00703910  0.07834463  1
  O  O91  1  0.13974376  0.49296090  0.92165537  1
  O  O92  1  0.26115307  0.82390471  0.83121680  1
  O  O93  1  0.76115307  0.67609529  0.16878320  1
  O  O94  1  0.73884693  0.17609529  0.16878320  1
  O  O95  1  0.23884693  0.32390471  0.83121680  1
  O  O96  1  0.54329683  0.04007790  0.82393849  1
  O  O97  1  0.04329683  0.45992210  0.17606151  1
  O  O98  1  0.45670317  0.95992210  0.17606151  1
  O  O99  1  0.95670317  0.54007790  0.82393849  1
  O  O100  1  0.19596685  0.02352099  0.83166875  1
  O  O101  1  0.69596685  0.47647901  0.16833125  1
  O  O102  1  0.80403315  0.97647901  0.16833125  1
  O  O103  1  0.30403315  0.52352099  0.83166875  1
  O  O104  1  0.35050117  0.14805618  0.77244175  1
  O  O105  1  0.85050117  0.35194382  0.22755825  1
  O  O106  1  0.64949883  0.85194382  0.22755825  1
  O  O107  1  0.14949883  0.64805618  0.77244175  1
  O  O108  1  0.40441715  0.83194739  0.71886395  1
  O  O109  1  0.90441715  0.66805261  0.28113605  1
  O  O110  1  0.59558285  0.16805261  0.28113605  1
  O  O111  1  0.09558285  0.33194739  0.71886395  1
  O  O112  1  0.46971389  0.01492540  0.68790137  1
  O  O113  1  0.96971389  0.48507460  0.31209863  1
  O  O114  1  0.53028611  0.98507460  0.31209863  1
  O  O115  1  0.03028611  0.51492540  0.68790137  1
  O  O116  1  0.24623432  0.96751618  0.68158911  1
  O  O117  1  0.74623432  0.53248382  0.31841089  1
  O  O118  1  0.75376568  0.03248382  0.31841089  1
  O  O119  1  0.25376568  0.46751618  0.68158911  1
  O  O120  1  0.98117803  0.00770234  0.80206323  1
  O  O121  1  0.48117803  0.49229766  0.19793677  1
  O  O122  1  0.01882197  0.99229766  0.19793677  1
  O  O123  1  0.51882197  0.50770234  0.80206323  1
  O  O124  1  0.84044179  0.71581203  0.83581583  1
  O  O125  1  0.34044179  0.78418797  0.16418417  1
  O  O126  1  0.15955821  0.28418797  0.16418417  1
  O  O127  1  0.65955821  0.21581203  0.83581583  1
  O  O128  1  0.96441177  0.01365855  0.93752200  1
  O  O129  1  0.46441177  0.48634145  0.06247800  1
  O  O130  1  0.03558823  0.98634145  0.06247800  1
  O  O131  1  0.53558823  0.51365855  0.93752200  1
  O  O132  1  0.76387649  0.91889017  0.96623675  1
  O  O133  1  0.26387649  0.58110983  0.03376325  1
  O  O134  1  0.23612351  0.08110983  0.03376325  1
  O  O135  1  0.73612351  0.41889017  0.96623675  1
  O  O136  1  0.68153126  0.85979343  0.84907457  1
  O  O137  1  0.18153126  0.64020657  0.15092543  1
  O  O138  1  0.31846874  0.14020657  0.15092543  1
  O  O139  1  0.81846874  0.35979343  0.84907457  1
  O  O140  1  0.84603267  0.87054837  0.74369409  1
  O  O141  1  0.34603267  0.62945163  0.25630591  1
  O  O142  1  0.15396733  0.12945163  0.25630591  1
  O  O143  1  0.65396733  0.37054837  0.74369409  1
  O  O144  1  0.03999179  0.81246060  0.83631848  1
  O  O145  1  0.53999179  0.68753940  0.16368152  1
  O  O146  1  0.96000821  0.18753940  0.16368152  1
  O  O147  1  0.46000821  0.31246060  0.83631848  1
  O  O148  1  0.95883320  0.81865348  0.97257081  1
  O  O149  1  0.45883320  0.68134652  0.02742919  1
  O  O150  1  0.04116680  0.18134652  0.02742919  1
  O  O151  1  0.54116680  0.31865348  0.97257081  1
  O  O152  1  0.77203490  0.03698046  0.82723917  1
  O  O153  1  0.27203490  0.46301954  0.17276083  1
  O  O154  1  0.22796510  0.96301954  0.17276083  1
  O  O155  1  0.72796510  0.53698046  0.82723917  1
  O  O156  1  0.66209389  0.35891621  0.60604029  1
  O  O157  1  0.16209389  0.14108379  0.39395971  1
  O  O158  1  0.33790611  0.64108379  0.39395971  1
  O  O159  1  0.83790611  0.85891621  0.60604029  1
  O  O160  1  0.65254468  0.50451293  0.44044565  1
  O  O161  1  0.15254468  0.99548707  0.55955435  1
  O  O162  1  0.34745532  0.49548707  0.55955435  1
  O  O163  1  0.84745532  0.00451293  0.44044565  1
  O  O164  1  0.41410495  0.95579223  0.42818366  1
  O  O165  1  0.91410495  0.54420777  0.57181634  1
  O  O166  1  0.58589505  0.04420777  0.57181634  1
  O  O167  1  0.08589505  0.45579223  0.42818366  1
  O  O168  1  0.39692280  0.64856990  0.74714894  1
  O  O169  1  0.89692280  0.85143010  0.25285106  1
  O  O170  1  0.60307720  0.35143010  0.25285106  1
  O  O171  1  0.10307720  0.14856990  0.74714894  1
  O  O172  1  0.41148042  0.79226308  0.58182903  1
  O  O173  1  0.91148042  0.70773692  0.41817097  1
  O  O174  1  0.58851958  0.20773692  0.41817097  1
  O  O175  1  0.08851958  0.29226308  0.58182903  1
  O  O176  1  0.13318476  0.79758092  0.07311693  1
  O  O177  1  0.63318476  0.70241908  0.92688307  1
  O  O178  1  0.86681524  0.20241908  0.92688307  1
  O  O179  1  0.36681524  0.29758092  0.07311693  1
loop_
_geom_bond_atom_site_label_1
_geom_bond_atom_site_label_2
_geom_bond_distance
_geom_bond_site_symmetry_2
La0 O0 2.386288 1_555
La0 O20 2.518545 1_555
La0 O123 2.550001 1_555
La0 O16 2.552823 1_555
La0 O4 2.575802 1_555
La0 O8 2.703679 1_555
La0 O12 2.721101 1_555
La0 O155 2.743709 1_555
La0 O143 2.779208 1_555
La1 O1 2.386288 1_555
La1 O21 2.518545 1_555
La1 O122 2.550001 1_555
La1 O17 2.552823 1_555
La1 O5 2.575802 1_465
La1 O9 2.703679 1_555
La1 O13 2.721101 1_555
La1 O154 2.743709 1_555
La1 O142 2.779208 1_565
La2 O2 2.386288 1_555
La2 O22 2.518545 1_555
La2 O121 2.550001 1_555
La2 O18 2.552823 1_555
La2 O6 2.575802 1_555
La2 O10 2.703679 1_555
La2 O14 2.721101 1_555
La2 O153 2.743709 1_555
La2 O141 2.779208 1_555
La3 O3 2.386288 1_555
La3 O23 2.518545 1_555
La3 O120 2.550001 1_555
La3 O19 2.552823 1_555
La3 O7 2.575802 1_645
La3 O11 2.703679 1_555
La3 O15 2.721101 1_555
La3 O152 2.743709 1_555
La3 O140 2.779208 1_545
La4 O28 2.420669 1_555
La4 O40 2.497847 1_555
La4 O44 2.504312 1_555
La4 O36 2.530963 1_555
La4 O16 2.539188 1_555
La4 O24 2.620228 1_555
La4 O8 2.707365 1_555
La4 O32 2.880406 1_555
La4 O12 2.942733 1_555
La4 O172 2.998173 1_555
La5 O29 2.420669 1_555
La5 O41 2.497847 1_555
La5 O45 2.504312 1_555
La5 O37 2.530963 1_455
La5 O17 2.539188 1_555
La5 O25 2.620228 1_555
La5 O9 2.707365 1_555
La5 O33 2.880406 1_555
La5 O13 2.942733 1_555
La5 O173 2.998173 1_455
La6 O30 2.420669 1_555
La6 O42 2.497847 1_555
La6 O46 2.504312 1_555
La6 O38 2.530963 1_555
La6 O18 2.539188 1_555
La6 O26 2.620228 1_555
La6 O10 2.707365 1_555
La6 O34 2.880406 1_555
La6 O14 2.942733 1_555
La6 O174 2.998173 1_555
La7 O31 2.420669 1_555
La7 O43 2.497847 1_555
La7 O47 2.504312 1_555
La7 O39 2.530963 1_655
La7 O19 2.539188 1_555
La7 O27 2.620228 1_555
La7 O11 2.707365 1_555
La7 O35 2.880406 1_555
La7 O15 2.942733 1_555
La7 O175 2.998173 1_655
La8 O52 2.362125 1_555
La8 O41 2.440142 1_555
La8 O60 2.458418 1_455
La8 O25 2.502144 1_555
La8 O48 2.576103 1_555
La8 O115 2.638179 1_555
La8 O56 2.849656 1_555
La9 O53 2.362125 1_555
La9 O40 2.440142 1_555
La9 O61 2.458418 1_555
La9 O24 2.502144 1_555
La9 O49 2.576103 1_565
La9 O114 2.638179 1_555
La9 O57 2.849656 1_555
La10 O54 2.362125 1_555
La10 O43 2.440142 1_555
La10 O62 2.458418 1_655
La10 O27 2.502144 1_555
La10 O50 2.576103 1_555
La10 O113 2.638179 1_555
La10 O58 2.849656 1_555
La11 O55 2.362125 1_555
La11 O42 2.440142 1_555
La11 O63 2.458418 1_555
La11 O26 2.502144 1_555
La11 O51 2.576103 1_545
La11 O112 2.638179 1_555
La11 O59 2.849656 1_555
La12 O68 2.385309 1_556
La12 O88 2.501667 1_555
La12 O92 2.548462 1_555
La12 O72 2.555839 1_555
La12 O80 2.569734 1_555
La12 O76 2.584139 1_555
La12 O84 2.594004 1_555
La12 O64 2.910327 1_555
La12 O149 3.133872 1_556
La13 O69 2.385309 1_554
La13 O89 2.501667 1_555
La13 O93 2.548462 1_555
La13 O73 2.555839 1_555
La13 O81 2.569734 1_555
La13 O77 2.584139 1_555
La13 O85 2.594004 1_555
La13 O65 2.910327 1_655
La13 O148 3.133872 1_554
La14 O70 2.385309 1_554
La14 O90 2.501667 1_555
La14 O94 2.548462 1_555
La14 O74 2.555839 1_555
La14 O82 2.569734 1_555
La14 O78 2.584139 1_555
La14 O86 2.594004 1_555
La14 O66 2.910327 1_555
La14 O151 3.133872 1_554
La15 O71 2.385309 1_556
La15 O91 2.501667 1_555
La15 O95 2.548462 1_555
La15 O75 2.555839 1_555
La15 O83 2.569734 1_555
La15 O79 2.584139 1_555
La15 O87 2.594004 1_555
La15 O67 2.910327 1_455
La15 O150 3.133872 1_556
La16 O96 2.458513 1_565
La16 O108 2.470115 1_555
La16 O104 2.510830 1_565
La16 O84 2.531104 1_555
La16 O100 2.561215 1_565
La16 O88 2.593934 1_555
La16 O112 2.597575 1_565
La16 O92 2.793668 1_555
La16 O116 2.849607 1_555
La17 O97 2.458513 1_655
La17 O109 2.470115 1_555
La17 O105 2.510830 1_555
La17 O85 2.531104 1_555
La17 O101 2.561215 1_555
La17 O89 2.593934 1_555
La17 O113 2.597575 1_555
La17 O93 2.793668 1_555
La17 O117 2.849607 1_555
La18 O98 2.458513 1_545
La18 O110 2.470115 1_555
La18 O106 2.510830 1_545
La18 O86 2.531104 1_555
La18 O102 2.561215 1_545
La18 O90 2.593934 1_555
La18 O114 2.597575 1_545
La18 O94 2.793668 1_555
La18 O118 2.849607 1_555
La19 O99 2.458513 1_455
La19 O111 2.470115 1_555
La19 O107 2.510830 1_555
La19 O87 2.531104 1_555
La19 O103 2.561215 1_555
La19 O91 2.593934 1_555
La19 O115 2.597575 1_555
La19 O95 2.793668 1_555
La19 O119 2.849607 1_555
La20 O124 2.494762 1_555
La20 O128 2.497084 1_565
La20 O140 2.498353 1_555
La20 O144 2.509190 1_655
La20 O132 2.512203 1_555
La20 O136 2.589826 1_555
La20 O120 2.634346 1_565
La20 O152 2.658896 1_565
La20 O148 2.720653 1_555
La21 O125 2.494762 1_555
La21 O129 2.497084 1_555
La21 O141 2.498353 1_555
La21 O145 2.509190 1_555
La21 O133 2.512203 1_555
La21 O137 2.589826 1_555
La21 O121 2.634346 1_555
La21 O153 2.658896 1_555
La21 O149 2.720653 1_555
La22 O126 2.494762 1_555
La22 O130 2.497084 1_545
La22 O142 2.498353 1_555
La22 O146 2.509190 1_455
La22 O134 2.512203 1_555
La22 O138 2.589826 1_555
La22 O122 2.634346 1_545
La22 O154 2.658896 1_545
La22 O150 2.720653 1_555
La23 O127 2.494762 1_555
La23 O131 2.497084 1_555
La23 O143 2.498353 1_555
La23 O147 2.509190 1_555
La23 O135 2.512203 1_555
La23 O139 2.589826 1_555
La23 O123 2.634346 1_555
La23 O155 2.658896 1_555
La23 O151 2.720653 1_555
Mo0 O35 1.785753 1_555
Mo0 O38 1.786460 1_555
Mo0 O8 1.827267 1_555
Mo0 O160 1.914712 1_555
Mo0 O156 2.193967 1_555
Mo1 O34 1.785753 1_555
Mo1 O39 1.786460 1_555
Mo1 O9 1.827267 1_545
Mo1 O161 1.914712 1_545
Mo1 O157 2.193967 1_555
Mo2 O33 1.785753 1_555
Mo2 O36 1.786460 1_555
Mo2 O10 1.827267 1_555
Mo2 O162 1.914712 1_555
Mo2 O158 2.193967 1_555
Mo3 O32 1.785753 1_555
Mo3 O37 1.786460 1_555
Mo3 O11 1.827267 1_565
Mo3 O163 1.914712 1_565
Mo3 O159 2.193967 1_555
Mo4 O103 1.763196 1_555
Mo4 O168 1.779630 1_555
Mo4 O123 1.804144 1_555
Mo4 O80 1.848890 1_555
Mo5 O102 1.763196 1_555
Mo5 O169 1.779630 1_555
Mo5 O122 1.804144 1_655
Mo5 O81 1.848890 1_555
Mo6 O101 1.763196 1_555
Mo6 O170 1.779630 1_555
Mo6 O121 1.804144 1_555
Mo6 O82 1.848890 1_555
Mo7 O100 1.763196 1_555
Mo7 O171 1.779630 1_555
Mo7 O120 1.804144 1_455
Mo7 O83 1.848890 1_555
Mo8 O108 1.760252 1_555
Mo8 O52 1.779874 1_555
Mo8 O16 1.827554 1_555
Mo8 O172 1.923352 1_555
Mo8 O168 2.168671 1_555
Mo9 O109 1.760252 1_555
Mo9 O53 1.779874 1_555
Mo9 O17 1.827554 1_655
Mo9 O173 1.923352 1_555
Mo9 O169 2.168671 1_555
Mo10 O110 1.760252 1_555
Mo10 O54 1.779874 1_555
Mo10 O18 1.827554 1_555
Mo10 O174 1.923352 1_555
Mo10 O170 2.168671 1_555
Mo11 O111 1.760252 1_555
Mo11 O55 1.779874 1_555
Mo11 O19 1.827554 1_455
Mo11 O175 1.923352 1_555
Mo11 O171 2.168671 1_555
Mo12 O51 1.764078 1_555
Mo12 O29 1.765872 1_555
Mo12 O40 1.851493 1_555
Mo12 O172 1.930549 1_555
Mo12 O164 2.132296 1_555
Mo13 O50 1.764078 1_555
Mo13 O28 1.765872 1_555
Mo13 O41 1.851493 1_655
Mo13 O173 1.930549 1_555
Mo13 O165 2.132296 1_555
Mo14 O49 1.764078 1_555
Mo14 O31 1.765872 1_555
Mo14 O42 1.851493 1_555
Mo14 O174 1.930549 1_555
Mo14 O166 2.132296 1_555
Mo15 O48 1.764078 1_555
Mo15 O30 1.765872 1_555
Mo15 O43 1.851493 1_455
Mo15 O175 1.930549 1_555
Mo15 O167 2.132296 1_555
Mo16 O136 1.743575 1_555
Mo16 O20 1.782704 1_555
Mo16 O84 1.815374 1_555
Mo16 O177 1.963504 1_555
Mo16 O80 2.524546 1_555
Mo17 O137 1.743575 1_555
Mo17 O21 1.782704 1_555
Mo17 O85 1.815374 1_455
Mo17 O176 1.963504 1_555
Mo17 O81 2.524546 1_455
Mo18 O138 1.743575 1_555
Mo18 O22 1.782704 1_555
Mo18 O86 1.815374 1_555
Mo18 O179 1.963504 1_555
Mo18 O82 2.524546 1_555
Mo19 O139 1.743575 1_555
Mo19 O23 1.782704 1_555
Mo19 O87 1.815374 1_655
Mo19 O178 1.963504 1_555
Mo19 O83 2.524546 1_655
Mo20 O44 1.775459 1_555
Mo20 O3 1.778301 1_565
Mo20 O166 1.804783 1_565
Mo20 O112 1.809014 1_565
Mo21 O45 1.775459 1_555
Mo21 O2 1.778301 1_555
Mo21 O167 1.804783 1_555
Mo21 O113 1.809014 1_455
Mo22 O46 1.775459 1_555
Mo22 O1 1.778301 1_545
Mo22 O164 1.804783 1_545
Mo22 O114 1.809014 1_545
Mo23 O47 1.775459 1_555
Mo23 O0 1.778301 1_555
Mo23 O165 1.804783 1_555
Mo23 O115 1.809014 1_655
Mo24 O144 1.762460 1_555
Mo24 O107 1.803880 1_555
Mo24 O56 1.809558 1_555
Mo24 O92 1.814523 1_555
Mo25 O145 1.762460 1_555
Mo25 O106 1.803880 1_555
Mo25 O57 1.809558 1_555
Mo25 O93 1.814523 1_555
Mo26 O146 1.762460 1_555
Mo26 O105 1.803880 1_555
Mo26 O58 1.809558 1_555
Mo26 O94 1.814523 1_555
Mo27 O147 1.762460 1_555
Mo27 O104 1.803880 1_555
Mo27 O59 1.809558 1_555
Mo27 O95 1.814523 1_555
Mo28 O116 1.771774 1_555
Mo28 O7 1.771851 1_555
Mo28 O25 1.853823 1_555
Mo28 O161 1.912057 1_555
Mo28 O56 2.226292 1_555
Mo29 O117 1.771774 1_555
Mo29 O6 1.771851 1_555
Mo29 O24 1.853823 1_555
Mo29 O160 1.912057 1_555
Mo29 O57 2.226292 1_555
Mo30 O118 1.771774 1_555
Mo30 O5 1.771851 1_555
Mo30 O27 1.853823 1_555
Mo30 O163 1.912057 1_555
Mo30 O58 2.226292 1_555
Mo31 O119 1.771774 1_555
Mo31 O4 1.771851 1_555
Mo31 O26 1.853823 1_555
Mo31 O162 1.912057 1_555
Mo31 O59 2.226292 1_555
Mo32 O133 1.764868 1_556
Mo32 O72 1.790623 1_555
Mo32 O65 1.813180 1_556
Mo32 O91 1.841276 1_555
Mo33 O132 1.764868 1_554
Mo33 O73 1.790623 1_555
Mo33 O64 1.813180 1_554
Mo33 O90 1.841276 1_565
Mo34 O135 1.764868 1_554
Mo34 O74 1.790623 1_555
Mo34 O67 1.813180 1_554
Mo34 O89 1.841276 1_555
Mo35 O134 1.764868 1_556
Mo35 O75 1.790623 1_555
Mo35 O66 1.813180 1_556
Mo35 O88 1.841276 1_545
Mo36 O76 1.758192 1_554
Mo36 O130 1.794835 1_555
Mo36 O148 1.794889 1_454
Mo36 O176 1.896947 1_555
Mo36 O81 2.680759 1_455
Mo37 O77 1.758192 1_556
Mo37 O131 1.794835 1_555
Mo37 O149 1.794889 1_556
Mo37 O177 1.896947 1_555
Mo37 O80 2.680759 1_555
Mo38 O78 1.758192 1_556
Mo38 O128 1.794835 1_555
Mo38 O150 1.794889 1_656
Mo38 O178 1.896947 1_555
Mo38 O83 2.680759 1_655
Mo39 O79 1.758192 1_554
Mo39 O129 1.794835 1_555
Mo39 O151 1.794889 1_554
Mo39 O179 1.896947 1_555
Mo39 O82 2.680759 1_555
Mo40 O159 1.787726 1_555
Mo40 O12 1.792884 1_555
Mo40 O60 1.796400 1_555
Mo40 O140 1.810260 1_555
Mo41 O158 1.787726 1_555
Mo41 O13 1.792884 1_555
Mo41 O61 1.796400 1_555
Mo41 O141 1.810260 1_555
Mo42 O157 1.787726 1_555
Mo42 O14 1.792884 1_555
Mo42 O62 1.796400 1_555
Mo42 O142 1.810260 1_555
Mo43 O156 1.787726 1_555
Mo43 O15 1.792884 1_555
Mo43 O63 1.796400 1_555
Mo43 O143 1.810260 1_555
Mo44 O127 1.782795 1_555
Mo44 O96 1.794237 1_555
Mo44 O70 1.803014 1_555
Mo44 O152 1.820056 1_555
Mo45 O126 1.782795 1_555
Mo45 O97 1.794237 1_555
Mo45 O71 1.803014 1_555
Mo45 O153 1.820056 1_555
Mo46 O125 1.782795 1_555
Mo46 O98 1.794237 1_555
Mo46 O68 1.803014 1_555
Mo46 O154 1.820056 1_555
Mo47 O124 1.782795 1_555
Mo47 O99 1.794237 1_555
Mo47 O69 1.803014 1_555
Mo47 O155 1.820056 1_555
