# generated using pymatgen
data_Ni3P4O15
_symmetry_space_group_name_H-M   'P 1'
_cell_length_a   18.11613800
_cell_length_b   10.47360500
_cell_length_c   6.44770300
_cell_angle_alpha   90.00000000
_cell_angle_beta   90.00000000
_cell_angle_gamma   90.00000000
_symmetry_Int_Tables_number   1
_chemical_formula_structural   Ni3P4O15
_chemical_formula_sum   'Ni12 P16 O60'
_cell_volume   1223.39537861
_cell_formula_units_Z   4
loop_
 _symmetry_equiv_pos_site_id
 _symmetry_equiv_pos_as_xyz
  1  'x, y, z'
loop_
 _atom_site_type_symbol
 _atom_site_label
 _atom_site_symmetry_multiplicity
 _atom_site_fract_x
 _atom_site_fract_y
 _atom_site_fract_z
 _atom_site_occupancy
  Ni  Ni0  1  0.83054800  0.00522400  0.00924700  1
  Ni  Ni1  1  0.13329200  0.50389100  0.49044300  1
  Ni  Ni2  1  0.86670800  0.49610900  0.99044300  1
  Ni  Ni3  1  0.75845900  0.74357600  0.73193000  1
  Ni  Ni4  1  0.63329200  0.99610900  0.49044300  1
  Ni  Ni5  1  0.74154100  0.24357600  0.23193000  1
  Ni  Ni6  1  0.24154100  0.25642400  0.23193000  1
  Ni  Ni7  1  0.66945200  0.50522400  0.50924700  1
  Ni  Ni8  1  0.16945200  0.99477600  0.50924700  1
  Ni  Ni9  1  0.25845900  0.75642400  0.73193000  1
  Ni  Ni10  1  0.33054800  0.49477600  0.00924700  1
  Ni  Ni11  1  0.36670800  0.00389100  0.99044300  1
  P  P0  1  0.31888200  0.01710400  0.49373400  1
  P  P1  1  0.05078000  0.77203800  0.55558500  1
  P  P2  1  0.78715900  0.00232000  0.50558300  1
  P  P3  1  0.21284100  0.99768000  0.00558300  1
  P  P4  1  0.55078000  0.72796200  0.55558500  1
  P  P5  1  0.18111800  0.51710400  0.99373400  1
  P  P6  1  0.44922000  0.27203800  0.05558500  1
  P  P7  1  0.94922000  0.22796200  0.05558500  1
  P  P8  1  0.28715900  0.49768000  0.50558300  1
  P  P9  1  0.81888200  0.48289600  0.49373400  1
  P  P10  1  0.68111800  0.98289600  0.99373400  1
  P  P11  1  0.07293000  0.22826100  0.36297100  1
  P  P12  1  0.42707000  0.72826100  0.86297100  1
  P  P13  1  0.57293000  0.27173900  0.36297100  1
  P  P14  1  0.92707000  0.77173900  0.86297100  1
  P  P15  1  0.71284100  0.50232000  0.00558300  1
  O  O0  1  0.58645200  0.38560800  0.50635100  1
  O  O1  1  0.23484800  0.39962900  0.02342400  1
  O  O2  1  0.99283600  0.19702800  0.26528100  1
  O  O3  1  0.36897200  0.73473900  0.69075300  1
  O  O4  1  0.26718500  0.11364900  0.03733000  1
  O  O5  1  0.86667700  0.45717000  0.68345600  1
  O  O6  1  0.26515200  0.89962900  0.52342400  1
  O  O7  1  0.13332300  0.54283000  0.18345600  1
  O  O8  1  0.25794000  0.12393100  0.46016200  1
  O  O9  1  0.41354800  0.61439200  0.00635100  1
  O  O10  1  0.36667700  0.04283000  0.68345600  1
  O  O11  1  0.76515200  0.60037100  0.52342400  1
  O  O12  1  0.50716400  0.69702800  0.76528100  1
  O  O13  1  0.49283600  0.30297200  0.26528100  1
  O  O14  1  0.86960300  0.50032700  0.30746200  1
  O  O15  1  0.04862100  0.62687700  0.52282200  1
  O  O16  1  0.33452200  0.46636900  0.69534800  1
  O  O17  1  0.63102800  0.26526100  0.19075300  1
  O  O18  1  0.73484800  0.10037100  0.02342400  1
  O  O19  1  0.87160400  0.17654600  0.09070800  1
  O  O20  1  0.91354800  0.88560800  0.00635100  1
  O  O21  1  0.72977000  0.11092900  0.45611000  1
  O  O22  1  0.33819700  0.52420300  0.32202100  1
  O  O23  1  0.00716400  0.80297200  0.76528100  1
  O  O24  1  0.22977000  0.38907100  0.45611000  1
  O  O25  1  0.08645200  0.11439200  0.50635100  1
  O  O26  1  0.95137900  0.37312300  0.02282200  1
  O  O27  1  0.63332300  0.95717000  0.18345600  1
  O  O28  1  0.12839600  0.82345400  0.59070800  1
  O  O29  1  0.50911800  0.67248500  0.36926400  1
  O  O30  1  0.73281500  0.88635100  0.53733000  1
  O  O31  1  0.23281500  0.61364900  0.53733000  1
  O  O32  1  0.77023000  0.61092900  0.95611000  1
  O  O33  1  0.45137900  0.12687700  0.02282200  1
  O  O34  1  0.49088200  0.32751500  0.86926400  1
  O  O35  1  0.93529300  0.64566000  0.97802500  1
  O  O36  1  0.83819700  0.97579700  0.32202100  1
  O  O37  1  0.99088200  0.17248500  0.86926400  1
  O  O38  1  0.16547800  0.96636800  0.19534800  1
  O  O39  1  0.63039700  0.00032700  0.80746200  1
  O  O40  1  0.13102800  0.23473900  0.19075300  1
  O  O41  1  0.66180300  0.47579700  0.82202100  1
  O  O42  1  0.83452200  0.03363200  0.69534800  1
  O  O43  1  0.27023000  0.88907100  0.95611000  1
  O  O44  1  0.43529300  0.85434000  0.97802500  1
  O  O45  1  0.13039700  0.49967300  0.80746200  1
  O  O46  1  0.66547800  0.53363200  0.19534800  1
  O  O47  1  0.74206000  0.87606900  0.96016200  1
  O  O48  1  0.36960300  0.99967300  0.30746200  1
  O  O49  1  0.62839600  0.67654600  0.59070800  1
  O  O50  1  0.37160400  0.32345400  0.09070800  1
  O  O51  1  0.54862100  0.87312300  0.52282200  1
  O  O52  1  0.06470700  0.35434000  0.47802500  1
  O  O53  1  0.56470700  0.14566000  0.47802500  1
  O  O54  1  0.76718500  0.38635100  0.03733000  1
  O  O55  1  0.86897200  0.76526100  0.69075300  1
  O  O56  1  0.00911800  0.82751500  0.36926400  1
  O  O57  1  0.24206000  0.62393100  0.96016200  1
  O  O58  1  0.16180300  0.02420300  0.82202100  1
  O  O59  1  0.75794000  0.37606900  0.46016200  1
loop_
_geom_bond_atom_site_label_1
_geom_bond_atom_site_label_2
_geom_bond_distance
_geom_bond_site_symmetry_2
Ni0 O20 1.957247 1_545
Ni0 O18 2.001799 1_555
Ni0 O19 2.012163 1_555
Ni0 O36 2.044790 1_545
Ni0 O42 2.046947 1_554
Ni0 O47 2.121277 1_544
Ni1 O52 2.000905 1_555
Ni1 O15 2.013874 1_555
Ni1 O7 2.020940 1_555
Ni1 O45 2.045194 1_555
Ni1 O24 2.133082 1_555
Ni1 O31 2.159536 1_555
Ni2 O35 2.000905 1_555
Ni2 O26 2.013874 1_556
Ni2 O5 2.020940 1_555
Ni2 O14 2.045194 1_556
Ni2 O32 2.133082 1_555
Ni2 O54 2.159536 1_556
Ni3 O30 2.006560 1_555
Ni3 O32 2.016165 1_555
Ni3 O11 2.017843 1_555
Ni3 O55 2.032327 1_555
Ni3 O47 2.044368 1_555
Ni4 O53 2.000905 1_565
Ni4 O51 2.013874 1_555
Ni4 O27 2.020940 1_555
Ni4 O39 2.045194 1_565
Ni4 O21 2.133082 1_565
Ni4 O30 2.159536 1_555
Ni5 O54 2.006560 1_555
Ni5 O21 2.016165 1_555
Ni5 O18 2.017843 1_555
Ni5 O17 2.032327 1_555
Ni5 O59 2.044368 1_555
Ni6 O4 2.006560 1_555
Ni6 O24 2.016165 1_555
Ni6 O1 2.017843 1_555
Ni6 O40 2.032327 1_555
Ni6 O8 2.044368 1_555
Ni7 O0 1.957247 1_555
Ni7 O11 2.001799 1_555
Ni7 O49 2.012163 1_555
Ni7 O41 2.044790 1_555
Ni7 O46 2.046947 1_555
Ni7 O59 2.121277 1_555
Ni8 O25 1.957247 1_565
Ni8 O6 2.001799 1_555
Ni8 O28 2.012163 1_555
Ni8 O58 2.044790 1_565
Ni8 O38 2.046947 1_555
Ni8 O8 2.121277 1_565
Ni9 O31 2.006560 1_555
Ni9 O43 2.016165 1_555
Ni9 O6 2.017843 1_555
Ni9 O3 2.032327 1_555
Ni9 O57 2.044368 1_555
Ni10 O9 1.957247 1_555
Ni10 O1 2.001799 1_555
Ni10 O50 2.012163 1_555
Ni10 O22 2.044790 1_555
Ni10 O16 2.046946 1_554
Ni10 O57 2.121277 1_554
Ni11 O44 2.000905 1_545
Ni11 O33 2.013874 1_556
Ni11 O10 2.020940 1_555
Ni11 O48 2.045194 1_546
Ni11 O43 2.133082 1_545
Ni11 O4 2.159536 1_556
O0 P13 1.528724 1_555
O1 P5 1.580496 1_554
O2 P7 1.599179 1_555
O2 P11 1.615282 1_655
O3 P12 1.531468 1_555
O4 P3 1.576843 1_545
O5 P9 1.522730 1_555
O6 P0 1.580496 1_565
O7 P5 1.522730 1_554
O8 P0 1.586695 1_555
O9 P12 1.528724 1_554
O10 P0 1.522730 1_555
O11 P9 1.580496 1_555
O12 P4 1.599179 1_555
O12 P12 1.615282 1_555
O13 P6 1.599179 1_555
O13 P13 1.615282 1_555
O14 P9 1.523192 1_555
O15 P1 1.535463 1_555
O16 P8 1.529980 1_555
O17 P13 1.531468 1_555
O18 P10 1.580496 1_544
O19 P7 1.522630 1_555
O20 P14 1.528724 1_554
O21 P2 1.573731 1_555
O22 P8 1.527374 1_555
O23 P1 1.599179 1_555
O23 P14 1.615282 1_455
O24 P8 1.573731 1_555
O25 P11 1.528724 1_555
O26 P7 1.535463 1_555
O27 P10 1.522730 1_554
O28 P1 1.522630 1_555
O29 P4 1.533131 1_555
O30 P2 1.576843 1_565
O31 P8 1.576843 1_555
O32 P15 1.573731 1_556
O33 P6 1.535463 1_555
O34 P6 1.533131 1_556
O35 P14 1.521918 1_555
O36 P2 1.527374 1_565
O37 P7 1.533131 1_556
O38 P3 1.529982 1_555
O39 P10 1.523192 1_545
O40 P11 1.531468 1_555
O41 P15 1.527374 1_556
O42 P2 1.529982 1_555
O43 P3 1.573731 1_556
O44 P12 1.521918 1_555
O45 P5 1.523192 1_555
O46 P15 1.529982 1_555
O47 P10 1.586695 1_555
O48 P0 1.523192 1_565
O49 P4 1.522630 1_555
O50 P6 1.522630 1_555
O51 P4 1.535463 1_555
O52 P11 1.521918 1_555
O53 P13 1.521918 1_555
O54 P15 1.576843 1_555
O55 P14 1.531468 1_555
O56 P1 1.533131 1_555
O57 P5 1.586695 1_555
O58 P3 1.527374 1_546
O59 P9 1.586695 1_555
