# generated using pymatgen
data_Li3Mn2(SeO3)4
_symmetry_space_group_name_H-M   'P 1'
_cell_length_a   7.60261700
_cell_length_b   8.37040806
_cell_length_c   10.56099301
_cell_angle_alpha   106.12772948
_cell_angle_beta   88.74504476
_cell_angle_gamma   114.70902710
_symmetry_Int_Tables_number   1
_chemical_formula_structural   Li3Mn2(SeO3)4
_chemical_formula_sum   'Li6 Mn4 Se8 O24'
_cell_volume   583.08120182
_cell_formula_units_Z   2
loop_
 _symmetry_equiv_pos_site_id
 _symmetry_equiv_pos_as_xyz
  1  'x, y, z'
loop_
 _atom_site_type_symbol
 _atom_site_label
 _atom_site_symmetry_multiplicity
 _atom_site_fract_x
 _atom_site_fract_y
 _atom_site_fract_z
 _atom_site_occupancy
  Li  Li0  1  0.65091700  0.54267900  0.91790200  1
  Li  Li1  1  0.34908300  0.45732100  0.08209800  1
  Li  Li2  1  0.05562900  0.38013000  0.82977300  1
  Li  Li3  1  0.94437100  0.61987000  0.17022700  1
  Li  Li4  1  0.75519300  0.54609400  0.42202300  1
  Li  Li5  1  0.24480700  0.45390600  0.57797700  1
  Mn  Mn0  1  0.93968600  0.28824600  0.27937300  1
  Mn  Mn1  1  0.06031400  0.71175400  0.72062700  1
  Mn  Mn2  1  0.00000000  0.00000000  0.00000000  1
  Mn  Mn3  1  0.00000000  0.00000000  0.50000000  1
  Se  Se0  1  0.71549000  0.20902100  0.97940000  1
  Se  Se1  1  0.28451000  0.79097900  0.02060000  1
  Se  Se2  1  0.67473500  0.74494200  0.70435400  1
  Se  Se3  1  0.32526500  0.25505800  0.29564600  1
  Se  Se4  1  0.31232000  0.17593000  0.76737500  1
  Se  Se5  1  0.68768000  0.82407000  0.23262500  1
  Se  Se6  1  0.73566800  0.24803000  0.56944000  1
  Se  Se7  1  0.26433200  0.75197000  0.43056000  1
  O  O0  1  0.72981500  0.28996300  0.41949000  1
  O  O1  1  0.27018500  0.71003700  0.58051000  1
  O  O2  1  0.96189600  0.41207100  0.64696200  1
  O  O3  1  0.03810400  0.58792900  0.35303800  1
  O  O4  1  0.19074100  0.00510300  0.84638200  1
  O  O5  1  0.80925900  0.99489700  0.15361800  1
  O  O6  1  0.77697400  0.37020900  0.89765900  1
  O  O7  1  0.22302600  0.62979100  0.10234100  1
  O  O8  1  0.85863200  0.75265800  0.59640200  1
  O  O9  1  0.14136800  0.24734200  0.40359800  1
  O  O10  1  0.35995800  0.37176800  0.89122800  1
  O  O11  1  0.64004200  0.62823200  0.10877200  1
  O  O12  1  0.12281200  0.17946600  0.67652200  1
  O  O13  1  0.87718800  0.82053400  0.32347800  1
  O  O14  1  0.80821700  0.74660900  0.84269800  1
  O  O15  1  0.19178300  0.25339100  0.15730200  1
  O  O16  1  0.76625400  0.04328000  0.52344600  1
  O  O17  1  0.23374600  0.95672000  0.47655400  1
  O  O18  1  0.91339800  0.15122300  0.93357300  1
  O  O19  1  0.08660200  0.84877700  0.06642700  1
  O  O20  1  0.51777800  0.52059800  0.65282300  1
  O  O21  1  0.48222200  0.47940200  0.34717700  1
  O  O22  1  0.78479500  0.34064600  0.14182600  1
  O  O23  1  0.21520500  0.65935400  0.85817400  1
loop_
_geom_bond_atom_site_label_1
_geom_bond_atom_site_label_2
_geom_bond_distance
_geom_bond_site_symmetry_2
Li0 O11 1.955312 1_556
Li0 O14 1.994917 1_555
Li0 O6 2.006116 1_555
Li0 O10 2.043747 1_555
Li1 O10 1.955312 1_554
Li1 O15 1.994917 1_555
Li1 O7 2.006116 1_555
Li1 O11 2.043747 1_555
Li2 O23 2.068897 1_555
Li2 O2 2.193875 1_455
Li2 O6 2.197372 1_455
Li2 O12 2.207329 1_555
Li2 O18 2.329181 1_455
Li2 O10 2.450659 1_555
Li3 O22 2.068897 1_555
Li3 O3 2.193875 1_655
Li3 O7 2.197372 1_655
Li3 O13 2.207329 1_555
Li3 O19 2.329181 1_655
Li3 O11 2.450659 1_555
Li4 O21 2.025205 1_555
Li4 O8 2.038918 1_555
Li4 O0 2.063222 1_555
Li4 O3 2.173257 1_655
Li4 O13 2.593273 1_555
Li5 O20 2.025205 1_555
Li5 O9 2.038918 1_555
Li5 O1 2.063222 1_555
Li5 O2 2.173257 1_455
Li5 O12 2.593273 1_555
Mn0 O22 2.133051 1_555
Mn0 O0 2.153999 1_555
Mn0 O3 2.197653 1_655
Mn0 O9 2.228455 1_655
Mn0 O5 2.233104 1_545
Mn0 O15 2.360246 1_655
Mn1 O23 2.133051 1_555
Mn1 O1 2.153999 1_555
Mn1 O2 2.197653 1_455
Mn1 O8 2.228455 1_455
Mn1 O4 2.233104 1_565
Mn1 O14 2.360246 1_455
Mn2 O18 1.933443 1_454
Mn2 O19 1.933443 1_545
Mn2 O4 2.149515 1_554
Mn2 O5 2.149515 1_445
Mn2 O15 2.224292 1_555
Mn2 O14 2.224292 1_444
Mn3 O17 1.954400 1_545
Mn3 O16 1.954400 1_455
Mn3 O12 1.987871 1_555
Mn3 O13 1.987871 1_445
Mn3 O8 2.396005 1_445
Mn3 O9 2.396005 1_555
O0 Se6 1.719879 1_555
O1 Se7 1.719879 1_555
O2 Se6 1.725279 1_555
O3 Se7 1.725279 1_555
O4 Se4 1.766145 1_555
O5 Se5 1.766145 1_555
O6 Se0 1.698893 1_555
O7 Se1 1.698893 1_555
O8 Se2 1.776016 1_555
O9 Se3 1.776016 1_555
O10 Se4 1.691861 1_555
O11 Se5 1.691861 1_555
O12 Se4 1.763313 1_555
O13 Se5 1.763313 1_555
O14 Se2 1.790667 1_555
O15 Se3 1.790667 1_555
O16 Se6 1.758693 1_555
O17 Se7 1.758693 1_555
O18 Se0 1.782905 1_555
O19 Se1 1.782905 1_555
O20 Se2 1.683374 1_555
O21 Se3 1.683374 1_555
O22 Se0 1.714152 1_554
O23 Se1 1.714152 1_556
