# generated using pymatgen
data_SrMgCr(PO4)2
_symmetry_space_group_name_H-M   'P 1'
_cell_length_a   5.65949121
_cell_length_b   6.84778224
_cell_length_c   9.37502145
_cell_angle_alpha   109.69988100
_cell_angle_beta   102.23009430
_cell_angle_gamma   98.62017747
_symmetry_Int_Tables_number   1
_chemical_formula_structural   SrMgCr(PO4)2
_chemical_formula_sum   'Sr2 Mg2 Cr2 P4 O16'
_cell_volume   324.48754067
_cell_formula_units_Z   2
loop_
 _symmetry_equiv_pos_site_id
 _symmetry_equiv_pos_as_xyz
  1  'x, y, z'
loop_
 _atom_site_type_symbol
 _atom_site_label
 _atom_site_symmetry_multiplicity
 _atom_site_fract_x
 _atom_site_fract_y
 _atom_site_fract_z
 _atom_site_occupancy
  Sr  Sr0  1  0.25713100  0.80246200  0.05456900  1
  Sr  Sr1  1  0.74286900  0.19753800  0.94543100  1
  Mg  Mg0  1  0.99272800  0.39199800  0.64843500  1
  Mg  Mg1  1  0.00727200  0.60800200  0.35156500  1
  Cr  Cr0  1  0.64096800  0.84355700  0.54846200  1
  Cr  Cr1  1  0.35903200  0.15644300  0.45153800  1
  P  P0  1  0.39082000  0.42344200  0.23518500  1
  P  P1  1  0.60918000  0.57655800  0.76481500  1
  P  P2  1  0.83770000  0.02281800  0.29825600  1
  P  P3  1  0.16230000  0.97718200  0.70174400  1
  O  O0  1  0.82054100  0.55524700  0.88996200  1
  O  O1  1  0.65330100  0.47770800  0.21276400  1
  O  O2  1  0.66152900  0.80229700  0.76016500  1
  O  O3  1  0.95324500  0.10788300  0.68779100  1
  O  O4  1  0.34669900  0.52229200  0.78723600  1
  O  O5  1  0.03604000  0.74089700  0.58572800  1
  O  O6  1  0.96396000  0.25910300  0.41427200  1
  O  O7  1  0.26169900  0.00214400  0.87277600  1
  O  O8  1  0.33847100  0.19770300  0.23983500  1
  O  O9  1  0.73830100  0.99785600  0.12722400  1
  O  O10  1  0.17945900  0.44475300  0.11003800  1
  O  O11  1  0.36683800  0.58407200  0.39524200  1
  O  O12  1  0.63316200  0.41592800  0.60475800  1
  O  O13  1  0.62135400  0.92892900  0.35319900  1
  O  O14  1  0.04675500  0.89211700  0.31220900  1
  O  O15  1  0.37864600  0.07107000  0.64680100  1
loop_
_geom_bond_atom_site_label_1
_geom_bond_atom_site_label_2
_geom_bond_distance
_geom_bond_site_symmetry_2
Mg0 O4 2.019791 1_655
Mg0 O12 2.031687 1_555
Mg0 O6 2.032539 1_555
Mg0 O3 2.088020 1_555
Mg0 O0 2.623232 1_555
Mg0 O5 2.635586 1_655
Mg1 O1 2.019791 1_455
Mg1 O11 2.031687 1_555
Mg1 O5 2.032539 1_555
Mg1 O14 2.088020 1_555
Mg1 O10 2.623232 1_555
Mg1 O6 2.635586 1_455
Cr0 O11 2.033794 1_555
Cr0 O2 2.079074 1_555
Cr0 O13 2.088068 1_555
Cr0 O3 2.138909 1_565
Cr0 O15 2.405440 1_565
Cr0 O5 2.433381 1_655
Cr1 O12 2.033794 1_555
Cr1 O8 2.079074 1_555
Cr1 O15 2.088072 1_555
Cr1 O14 2.138909 1_545
Cr1 O13 2.405444 1_545
Cr1 O6 2.433381 1_455
O0 P1 1.549795 1_555
O0 Sr0 2.592653 1_656
O0 Sr1 2.663949 1_555
O1 P0 1.551929 1_555
O1 Sr1 2.794124 1_554
O2 P1 1.546876 1_555
O2 Sr1 2.583099 1_565
O3 P3 1.596490 1_645
O3 Sr1 2.840131 1_555
O4 P1 1.551929 1_555
O4 Sr0 2.794124 1_556
O5 P3 1.565015 1_555
O6 P2 1.565015 1_555
O7 P3 1.523449 1_545
O7 Sr0 2.520774 1_546
O7 Sr1 2.679064 1_555
O8 P0 1.546876 1_555
O8 Sr0 2.583099 1_545
O9 P2 1.523449 1_565
O9 Sr1 2.520774 1_564
O9 Sr0 2.679064 1_555
O10 P0 1.549795 1_555
O10 Sr1 2.592653 1_454
O10 Sr0 2.663949 1_555
O11 P0 1.580576 1_555
O12 P1 1.580576 1_555
O13 P2 1.559600 1_565
O13 Sr0 2.867466 1_555
O14 P2 1.596490 1_465
O14 Sr0 2.840131 1_555
O15 P3 1.559597 1_545
O15 Sr1 2.867465 1_555
